0:0
     RDKit          3D

 58 61  0  0  0  0  0  0  0  0999 V2000
   -5.8110   16.4710  -32.0060 C   0  0  0  0  0  0  0  0  0  0  0  0
   -7.0320   17.3810  -32.0850 C   0  0  0  0  0  0  0  0  0  0  0  0
   -6.8080   18.5880  -31.2790 N   0  0  0  0  0  0  0  0  0  0  0  0
   -7.9200   19.5460  -31.3850 C   0  0  0  0  0  0  0  0  0  0  0  0
   -8.5120   19.6360  -32.8030 C   0  0  0  0  0  0  0  0  0  0  0  0
   -7.4920   20.0230  -33.7790 N   0  0  0  0  0  0  0  0  0  0  0  0
   -6.0990   20.1250  -33.4300 C   0  0  0  0  0  0  0  0  0  0  0  0
   -5.1750   19.1730  -33.9020 C   0  0  0  0  0  0  0  0  0  0  0  0
   -5.5610   18.1880  -34.8360 C   0  0  0  0  0  0  0  0  0  0  0  0
   -4.6370   17.2690  -35.3270 C   0  0  0  0  0  0  0  0  0  0  0  0
   -3.3110   17.3310  -34.9190 C   0  0  0  0  0  0  0  0  0  0  0  0
   -2.9010   18.3040  -34.0090 C   0  0  0  0  0  0  0  0  0  0  0  0
   -3.8250   19.2330  -33.4630 C   0  0  0  0  0  0  0  0  0  0  0  0
   -3.4340   20.1920  -32.5500 N   0  0  0  0  0  0  0  0  0  0  0  0
   -2.1230   20.0780  -31.8700 C   0  0  0  0  0  0  0  0  0  0  0  0
   -4.2760   21.2490  -32.2540 C   0  0  0  0  0  0  0  0  0  0  0  0
   -3.8170   22.3920  -31.5530 C   0  0  0  0  0  0  0  0  0  0  0  0
   -4.6960   23.4240  -31.1850 C   0  0  0  0  0  0  0  0  0  0  0  0
   -4.2620   24.5570  -30.4810 O   0  0  0  0  0  0  0  0  0  0  0  0
   -3.7220   24.5470  -29.1880 C   0  0  0  0  0  0  0  0  0  0  0  0
   -4.4030   24.1260  -28.2130 O   0  0  0  0  0  0  0  0  0  0  0  0
   -2.4220   25.1130  -28.9760 N   0  0  0  0  0  0  0  0  0  0  0  0
   -1.6830   25.0040  -27.7460 C   0  0  0  0  0  0  0  0  0  0  0  0
   -0.5650   24.1570  -27.6890 C   0  0  0  0  0  0  0  0  0  0  0  0
    0.1570   24.0180  -26.4990 C   0  0  0  0  0  0  0  0  0  0  0  0
   -0.2420   24.7100  -25.3540 C   0  0  0  0  0  0  0  0  0  0  0  0
   -1.3670   25.5370  -25.3940 C   0  0  0  0  0  0  0  0  0  0  0  0
   -2.0910   25.6800  -26.5810 C   0  0  0  0  0  0  0  0  0  0  0  0
   -6.0320   23.3490  -31.5620 C   0  0  0  0  0  0  0  0  0  0  0  0
   -6.5020   22.2610  -32.2920 C   0  0  0  0  0  0  0  0  0  0  0  0
   -5.6350   21.2120  -32.6650 C   0  0  0  0  0  0  0  0  0  0  0  0
   -5.5605   16.2843  -30.9513 H   0  0  0  0  0  0  0  0  0  0  0  0
   -6.0326   15.5160  -32.5049 H   0  0  0  0  0  0  0  0  0  0  0  0
   -4.9591   16.9563  -32.5049 H   0  0  0  0  0  0  0  0  0  0  0  0
   -7.2054   17.6687  -33.1324 H   0  0  0  0  0  0  0  0  0  0  0  0
   -7.9100   16.8439  -31.6970 H   0  0  0  0  0  0  0  0  0  0  0  0
   -5.9170   19.0390  -31.5870 H   0  0  0  0  0  0  0  0  0  0  0  0
   -8.7164   19.2346  -30.6931 H   0  0  0  0  0  0  0  0  0  0  0  0
   -7.5195   20.5395  -31.1351 H   0  0  0  0  0  0  0  0  0  0  0  0
   -8.9228   18.6548  -33.0832 H   0  0  0  0  0  0  0  0  0  0  0  0
   -9.3019   20.4015  -32.8027 H   0  0  0  0  0  0  0  0  0  0  0  0
   -7.8110   20.3820  -34.7080 H   0  0  0  0  0  0  0  0  0  0  0  0
   -6.6048   18.1456  -35.1805 H   0  0  0  0  0  0  0  0  0  0  0  0
   -4.9576   16.4936  -36.0383 H   0  0  0  0  0  0  0  0  0  0  0  0
   -2.5815   16.6095  -35.3155 H   0  0  0  0  0  0  0  0  0  0  0  0
   -1.8438   18.3528  -33.7090 H   0  0  0  0  0  0  0  0  0  0  0  0
   -2.2728   20.0910  -30.7803 H   0  0  0  0  0  0  0  0  0  0  0  0
   -1.6391   19.1344  -32.1624 H   0  0  0  0  0  0  0  0  0  0  0  0
   -1.4835   20.9239  -32.1624 H   0  0  0  0  0  0  0  0  0  0  0  0
   -2.7515   22.4726  -31.2920 H   0  0  0  0  0  0  0  0  0  0  0  0
   -2.0260   25.7040  -29.7420 H   0  0  0  0  0  0  0  0  0  0  0  0
   -0.2550   23.5995  -28.5851 H   0  0  0  0  0  0  0  0  0  0  0  0
    1.0400   23.3628  -26.4653 H   0  0  0  0  0  0  0  0  0  0  0  0
    0.3296   24.6040  -24.4202 H   0  0  0  0  0  0  0  0  0  0  0  0
   -1.6838   26.0768  -24.4894 H   0  0  0  0  0  0  0  0  0  0  0  0
   -2.9830   26.3233  -26.6047 H   0  0  0  0  0  0  0  0  0  0  0  0
   -6.7239   24.1567  -31.2809 H   0  0  0  0  0  0  0  0  0  0  0  0
   -7.5623   22.2184  -32.5817 H   0  0  0  0  0  0  0  0  0  0  0  0
  1  2  1  0
  2  3  1  0
  3  4  1  0
  4  5  1  0
  5  6  1  0
  6  7  1  0
  7  8  2  0
  8  9  1  0
  9 10  2  0
 10 11  1  0
 11 12  2  0
 12 13  1  0
 13 14  2  0
 14 15  1  0
 14 16  1  0
 16 17  2  0
 17 18  1  0
 18 19  1  0
 19 20  1  0
 20 21  2  0
 20 22  1  0
 22 23  1  0
 23 24  2  0
 24 25  1  0
 25 26  2  0
 26 27  1  0
 27 28  2  0
 18 29  2  0
 29 30  1  0
 30 31  2  0
 31  7  1  0
 13  8  1  0
 31 16  1  0
 28 23  1  0
  1 32  1  0
  1 33  1  0
  1 34  1  0
  2 35  1  0
  2 36  1  0
  3 37  1  0
  4 38  1  0
  4 39  1  0
  5 40  1  0
  5 41  1  0
  6 42  1  0
  9 43  1  0
 10 44  1  0
 11 45  1  0
 12 46  1  0
 15 47  1  0
 15 48  1  0
 15 49  1  0
 17 50  1  0
 22 51  1  0
 24 52  1  0
 25 53  1  0
 26 54  1  0
 27 55  1  0
 28 56  1  0
 29 57  1  0
 30 58  1  0
M  CHG  1  14   1
M  END
>  <UniqueID>  (1) 
1

>  <SMILES>  (1) 
CCNCCNc1c2ccccc2[n+](C)c2cc(OC(=O)Nc3ccccc3)ccc12

>  <Energy>  (1) 
91.38812393950589

>  <Genealogy>  (1) 
CCNCCNc1c2ccccc2[n+](C)c2cc(OC(=O)Nc3ccccc3)ccc12 (3D coordinates assigned)
CCNCCNc1c2ccccc2[n+](C)c2cc(OC(=O)Nc3ccccc3)ccc12 (optimized conformer: 91.38812393950589 kcal/mol)

>  <smiles>  (1) 
CCNCCNc1c2ccccc2[n+](C)c2cc(OC(=O)Nc3ccccc3)ccc12

>  <score_type>  (1) 
oracle

>  <origin>  (1) 
adg

>  <m_score__min__energy>  (1) 
-10.1

>  <m_primary>  (1) 
energy

$$$$
1:0
     RDKit          3D

 39 40  0  0  0  0  0  0  0  0999 V2000
   -3.3600   22.6040  -30.2220 C   0  0  0  0  0  0  0  0  0  0  0  0
   -4.7930   23.1360  -30.2050 C   0  0  0  0  0  0  0  0  0  0  0  0
   -4.9880   24.2010  -31.2160 N   0  0  0  0  0  0  0  0  0  0  0  0
   -5.4100   25.4700  -30.5790 C   0  0  0  0  0  0  0  0  0  0  0  0
   -6.6550   25.2750  -29.7130 C   0  0  0  0  0  0  0  0  0  0  0  0
   -5.8780   23.7860  -32.3330 C   0  0  0  0  0  0  0  0  0  0  0  0
   -6.3240   22.3920  -32.2180 N   0  0  0  0  0  0  0  0  0  0  0  0
   -7.6450   21.9500  -31.9410 C   0  0  0  0  0  0  0  0  0  0  0  0
   -8.5830   22.7340  -31.6390 O   0  0  0  0  0  0  0  0  0  0  0  0
   -7.8210   20.4760  -32.0820 C   0  0  0  0  0  0  0  0  0  0  0  0
   -6.4210   19.9780  -32.5600 C   0  0  0  0  0  0  0  0  0  0  0  0
   -6.4940   19.2320  -33.8940 C   0  0  0  0  0  0  0  0  0  0  0  0
   -6.7670   17.7780  -33.5240 C   0  0  0  0  0  0  0  0  0  0  0  0
   -6.3260   17.6030  -32.0680 C   0  0  0  0  0  0  0  0  0  0  0  0
   -5.8070   18.9580  -31.5980 C   0  0  0  0  0  0  0  0  0  0  0  0
   -5.6110   21.2420  -32.6440 C   0  0  0  0  0  0  0  0  0  0  0  0
   -4.4260   21.2900  -33.0700 O   0  0  0  0  0  0  0  0  0  0  0  0
   -3.0055   22.4724  -29.1891 H   0  0  0  0  0  0  0  0  0  0  0  0
   -3.3343   21.6364  -30.7446 H   0  0  0  0  0  0  0  0  0  0  0  0
   -2.7091   23.3204  -30.7446 H   0  0  0  0  0  0  0  0  0  0  0  0
   -5.4844   22.3079  -30.4200 H   0  0  0  0  0  0  0  0  0  0  0  0
   -4.9912   23.5630  -29.2108 H   0  0  0  0  0  0  0  0  0  0  0  0
   -4.5901   25.8430  -29.9476 H   0  0  0  0  0  0  0  0  0  0  0  0
   -5.6515   26.1915  -31.3734 H   0  0  0  0  0  0  0  0  0  0  0  0
   -6.3733   25.3191  -28.6506 H   0  0  0  0  0  0  0  0  0  0  0  0
   -7.3827   26.0701  -29.9327 H   0  0  0  0  0  0  0  0  0  0  0  0
   -7.1047   24.2955  -29.9327 H   0  0  0  0  0  0  0  0  0  0  0  0
   -6.7633   24.4389  -32.3380 H   0  0  0  0  0  0  0  0  0  0  0  0
   -5.3012   23.8730  -33.2656 H   0  0  0  0  0  0  0  0  0  0  0  0
   -8.0912   20.0196  -31.1183 H   0  0  0  0  0  0  0  0  0  0  0  0
   -8.6285   20.2088  -32.7795 H   0  0  0  0  0  0  0  0  0  0  0  0
   -7.3090   19.6316  -34.5154 H   0  0  0  0  0  0  0  0  0  0  0  0
   -5.5679   19.3410  -34.4775 H   0  0  0  0  0  0  0  0  0  0  0  0
   -7.8398   17.5565  -33.6242 H   0  0  0  0  0  0  0  0  0  0  0  0
   -6.2203   17.0920  -34.1877 H   0  0  0  0  0  0  0  0  0  0  0  0
   -7.1795   17.2891  -31.4491 H   0  0  0  0  0  0  0  0  0  0  0  0
   -5.5472   16.8309  -31.9819 H   0  0  0  0  0  0  0  0  0  0  0  0
   -6.1302   19.1580  -30.5657 H   0  0  0  0  0  0  0  0  0  0  0  0
   -4.7078   19.0006  -31.5999 H   0  0  0  0  0  0  0  0  0  0  0  0
  1  2  1  0
  2  3  1  0
  3  4  1  0
  4  5  1  0
  3  6  1  0
  6  7  1  0
  7  8  1  0
  8  9  2  0
  8 10  1  0
 10 11  1  0
 11 12  1  0
 12 13  1  0
 13 14  1  0
 14 15  1  0
 11 16  1  0
 16 17  2  0
 16  7  1  0
 15 11  1  0
  1 18  1  0
  1 19  1  0
  1 20  1  0
  2 21  1  0
  2 22  1  0
  4 23  1  0
  4 24  1  0
  5 25  1  0
  5 26  1  0
  5 27  1  0
  6 28  1  0
  6 29  1  0
 10 30  1  0
 10 31  1  0
 12 32  1  0
 12 33  1  0
 13 34  1  0
 13 35  1  0
 14 36  1  0
 14 37  1  0
 15 38  1  0
 15 39  1  0
M  END
>  <UniqueID>  (2) 
2

>  <SMILES>  (2) 
CCN(CC)CN1C(=O)CC2(CCCC2)C1=O

>  <Energy>  (2) 
53.18647827724853

>  <Genealogy>  (2) 
CCN(CC)CN1C(=O)CC2(CCCC2)C1=O (3D coordinates assigned)
CCN(CC)CN1C(=O)CC2(CCCC2)C1=O (nonaromatic ring conformer: 53.18647827724853 kcal/mol)

>  <smiles>  (2) 
CCN(CC)CN1C(=O)CC2(CCCC2)C1=O

>  <score_type>  (2) 
oracle

>  <origin>  (2) 
adg

>  <m_score__min__energy>  (2) 
-6.8200000000000003

>  <m_primary>  (2) 
energy

$$$$
2:0
     RDKit          3D

 50 53  0  0  0  0  0  0  0  0999 V2000
   -0.8180   26.8500  -22.9700 C   0  0  0  0  0  0  0  0  0  0  0  0
    0.2250   26.4490  -23.9060 N   0  0  0  0  0  0  0  0  0  0  0  0
    0.0760   26.2840  -25.2340 C   0  0  0  0  0  0  0  0  0  0  0  0
    1.2770   25.8240  -25.7420 C   0  0  0  0  0  0  0  0  0  0  0  0
    1.6030   25.5490  -27.1790 C   0  0  0  0  0  0  0  0  0  0  0  0
    1.2970   24.1440  -27.5270 N   0  0  0  0  0  0  0  0  0  0  0  0
    1.0430   23.3240  -26.3170 C   0  0  0  0  0  0  0  0  0  0  0  0
    0.2520   22.0610  -26.6510 C   0  0  0  0  0  0  0  0  0  0  0  0
   -1.1460   22.4290  -27.1680 C   0  0  0  0  0  0  0  0  0  0  0  0
   -1.1830   23.7690  -27.9900 C   0  0  1  0  0  0  0  0  0  0  0  0
    0.2360   24.0420  -28.5650 C   0  0  0  0  0  0  0  0  0  0  0  0
   -2.1680   23.6870  -29.1910 C   0  0  0  0  0  0  0  0  0  0  0  0
   -3.5530   23.9220  -28.7800 N   0  0  0  0  0  0  0  0  0  0  0  0
   -4.5920   24.0050  -29.7740 C   0  0  0  0  0  0  0  0  0  0  0  0
   -5.7880   24.6840  -29.4990 C   0  0  0  0  0  0  0  0  0  0  0  0
   -6.7850   24.7690  -30.4740 C   0  0  0  0  0  0  0  0  0  0  0  0
   -6.5750   24.1740  -31.7190 C   0  0  0  0  0  0  0  0  0  0  0  0
   -5.4100   23.5220  -31.9750 N   0  0  0  0  0  0  0  0  0  0  0  0
   -4.4240   23.4280  -31.0430 C   0  0  0  0  0  0  0  0  0  0  0  0
   -3.8790   24.0200  -27.3610 C   0  0  0  0  0  0  0  0  0  0  0  0
   -2.8300   24.8650  -26.6140 C   0  0  0  0  0  0  0  0  0  0  0  0
   -1.5180   24.8840  -27.1710 O   0  0  0  0  0  0  0  0  0  0  0  0
    2.1290   25.7280  -24.6560 C   0  0  0  0  0  0  0  0  0  0  0  0
    1.4540   26.1040  -23.5550 N   0  0  0  0  0  0  0  0  0  0  0  0
   -0.4588   26.7119  -21.9395 H   0  0  0  0  0  0  0  0  0  0  0  0
   -1.0689   27.9087  -23.1321 H   0  0  0  0  0  0  0  0  0  0  0  0
   -1.7135   26.2320  -23.1321 H   0  0  0  0  0  0  0  0  0  0  0  0
   -0.8389   26.4803  -25.8123 H   0  0  0  0  0  0  0  0  0  0  0  0
    1.0071   26.2170  -27.8183 H   0  0  0  0  0  0  0  0  0  0  0  0
    2.6771   25.7258  -27.3372 H   0  0  0  0  0  0  0  0  0  0  0  0
    2.0068   23.0348  -25.8727 H   0  0  0  0  0  0  0  0  0  0  0  0
    0.4505   23.9251  -25.6116 H   0  0  0  0  0  0  0  0  0  0  0  0
    0.7871   21.4919  -27.4254 H   0  0  0  0  0  0  0  0  0  0  0  0
    0.1481   21.4526  -25.7405 H   0  0  0  0  0  0  0  0  0  0  0  0
   -1.5025   21.6143  -27.8155 H   0  0  0  0  0  0  0  0  0  0  0  0
   -1.7870   22.5749  -26.2860 H   0  0  0  0  0  0  0  0  0  0  0  0
    0.4972   23.2201  -29.2478 H   0  0  0  0  0  0  0  0  0  0  0  0
    0.1925   25.0160  -29.0743 H   0  0  0  0  0  0  0  0  0  0  0  0
   -1.8847   24.4457  -29.9354 H   0  0  0  0  0  0  0  0  0  0  0  0
   -2.1058   22.6732  -29.6134 H   0  0  0  0  0  0  0  0  0  0  0  0
   -5.9412   25.1502  -28.5145 H   0  0  0  0  0  0  0  0  0  0  0  0
   -7.7254   25.2991  -30.2628 H   0  0  0  0  0  0  0  0  0  0  0  0
   -7.3533   24.2328  -32.4941 H   0  0  0  0  0  0  0  0  0  0  0  0
   -3.4910   22.8977  -31.2844 H   0  0  0  0  0  0  0  0  0  0  0  0
   -4.8667   24.4912  -27.2499 H   0  0  0  0  0  0  0  0  0  0  0  0
   -3.8863   23.0076  -26.9310 H   0  0  0  0  0  0  0  0  0  0  0  0
   -3.1957   25.9020  -26.5835 H   0  0  0  0  0  0  0  0  0  0  0  0
   -2.7217   24.3909  -25.6273 H   0  0  0  0  0  0  0  0  0  0  0  0
    3.1786   25.4003  -24.6876 H   0  0  0  0  0  0  0  0  0  0  0  0
    1.8270   26.1210  -22.5790 H   0  0  0  0  0  0  0  0  0  0  0  0
  1  2  1  0
  2  3  1  0
  3  4  2  0
  4  5  1  0
  5  6  1  0
  6  7  1  0
  7  8  1  0
  8  9  1  0
  9 10  1  0
 10 11  1  0
 10 12  1  0
 12 13  1  0
 13 14  1  0
 14 15  2  0
 15 16  1  0
 16 17  2  0
 17 18  1  0
 18 19  2  0
 13 20  1  0
 20 21  1  0
 21 22  1  0
  4 23  1  0
 23 24  2  0
 24  2  1  0
 11  6  1  0
 19 14  1  0
 10 22  1  1
  1 25  1  0
  1 26  1  0
  1 27  1  0
  3 28  1  0
  5 29  1  0
  5 30  1  0
  7 31  1  0
  7 32  1  0
  8 33  1  0
  8 34  1  0
  9 35  1  0
  9 36  1  0
 11 37  1  0
 11 38  1  0
 12 39  1  0
 12 40  1  0
 15 41  1  0
 16 42  1  0
 17 43  1  0
 19 44  1  0
 20 45  1  0
 20 46  1  0
 21 47  1  0
 21 48  1  0
 23 49  1  0
 24 50  1  0
M  CHG  1  24   1
M  END
>  <UniqueID>  (3) 
3

>  <SMILES>  (3) 
Cn1cc(CN2CCC[C@@]3(C2)CN(c2cccnc2)CCO3)c[nH+]1

>  <Energy>  (3) 
109.68913136517817

>  <Genealogy>  (3) 
Cn1cc(CN2CCCC3(C2)CN(c2cccnc2)CCO3)c[nH+]1 (protonated)
Cn1cc(CN2CCC[C@@]3(C2)CN(c2cccnc2)CCO3)c[nH+]1 (chirality)
Cn1cc(CN2CCC[C@@]3(C2)CN(c2cccnc2)CCO3)c[nH+]1 (3D coordinates assigned)
Cn1cc(CN2CCC[C@@]3(C2)CN(c2cccnc2)CCO3)c[nH+]1 (nonaromatic ring conformer: 109.68913136517817 kcal/mol)

>  <smiles>  (3) 
Cn1cc(CN2CCCC3(C2)CN(c2cccnc2)CCO3)cn1

>  <score_type>  (3) 
oracle

>  <origin>  (3) 
adg

>  <m_score__min__energy>  (3) 
-7.5700000000000003

>  <m_primary>  (3) 
energy

$$$$
3:0
     RDKit          3D

 71 74  0  0  0  0  0  0  0  0999 V2000
   -0.4750   25.7080  -29.8630 H   0  0  0  0  0  0  0  0  0  0  0  0
   -1.2430   26.0310  -29.3220 O   0  0  0  0  0  0  0  0  0  0  0  0
   -0.8550   25.9330  -27.9760 C   0  0  0  0  0  0  0  0  0  0  0  0
   -1.7484   25.9989  -27.3377 H   0  0  0  0  0  0  0  0  0  0  0  0
   -0.1601   26.7550  -27.7493 H   0  0  0  0  0  0  0  0  0  0  0  0
   -0.1450   24.6040  -27.7090 C   0  0  0  0  0  0  0  0  0  0  0  0
   -0.7579   23.9957  -27.0276 H   0  0  0  0  0  0  0  0  0  0  0  0
    0.8356   24.8076  -27.2540 H   0  0  0  0  0  0  0  0  0  0  0  0
    0.0550   23.8700  -28.9670 N   0  0  0  0  0  0  0  0  0  0  0  0
   -0.4740   24.3670  -29.7210 H   0  0  0  0  0  0  0  0  0  0  0  0
   -0.4510   22.4930  -28.8790 C   0  0  0  0  0  0  0  0  0  0  0  0
   -0.2034   22.0748  -27.8922 H   0  0  0  0  0  0  0  0  0  0  0  0
    0.0152   21.8824  -29.6663 H   0  0  0  0  0  0  0  0  0  0  0  0
   -1.9710   22.4890  -29.0670 C   0  0  0  0  0  0  0  0  0  0  0  0
   -2.4527   22.5942  -28.0837 H   0  0  0  0  0  0  0  0  0  0  0  0
   -2.2564   21.5400  -29.5444 H   0  0  0  0  0  0  0  0  0  0  0  0
   -2.4100   23.5880  -29.9320 N   0  0  0  0  0  0  0  0  0  0  0  0
   -1.7020   24.3020  -30.2200 H   0  0  0  0  0  0  0  0  0  0  0  0
   -3.7840   23.7450  -30.3480 C   0  0  0  0  0  0  0  0  0  0  0  0
   -4.6190   24.6870  -29.7110 C   0  0  0  0  0  0  0  0  0  0  0  0
   -4.2163   25.3062  -28.8959 H   0  0  0  0  0  0  0  0  0  0  0  0
   -5.9490   24.8430  -30.1020 C   0  0  0  0  0  0  0  0  0  0  0  0
   -6.5903   25.5728  -29.5860 H   0  0  0  0  0  0  0  0  0  0  0  0
   -6.4670   24.0780  -31.1430 C   0  0  0  0  0  0  0  0  0  0  0  0
   -7.5115   24.2149  -31.4598 H   0  0  0  0  0  0  0  0  0  0  0  0
   -5.6610   23.1380  -31.7840 C   0  0  0  0  0  0  0  0  0  0  0  0
   -6.0732   22.5423  -32.6118 H   0  0  0  0  0  0  0  0  0  0  0  0
   -4.3270   22.9430  -31.3840 C   0  0  0  0  0  0  0  0  0  0  0  0
   -3.4920   21.9540  -32.1060 C   0  0  0  0  0  0  0  0  0  0  0  0
   -2.5286   21.6666  -31.6596 H   0  0  0  0  0  0  0  0  0  0  0  0
   -3.8410   21.3880  -33.2720 C   0  0  0  0  0  0  0  0  0  0  0  0
   -3.8388   22.0133  -34.1770 H   0  0  0  0  0  0  0  0  0  0  0  0
   -4.2280   19.9680  -33.4020 C   0  0  0  0  0  0  0  0  0  0  0  0
   -5.5170   19.5590  -33.4980 N   0  0  0  0  0  0  0  0  0  0  0  0
   -6.7170   20.3970  -33.5240 C   0  0  0  0  0  0  0  0  0  0  0  0
   -7.2506   20.2375  -34.4726 H   0  0  0  0  0  0  0  0  0  0  0  0
   -6.4191   21.4519  -33.4323 H   0  0  0  0  0  0  0  0  0  0  0  0
   -7.6410   20.0370  -32.3580 C   0  0  0  0  0  0  0  0  0  0  0  0
   -7.5861   20.8287  -31.5963 H   0  0  0  0  0  0  0  0  0  0  0  0
   -7.3163   19.0754  -31.9339 H   0  0  0  0  0  0  0  0  0  0  0  0
   -9.0310   19.9050  -32.8170 N   0  0  0  0  0  0  0  0  0  0  0  0
   -9.0570   19.9360  -33.8660 H   0  0  0  0  0  0  0  0  0  0  0  0
   -9.4150   18.9870  -32.4870 H   0  0  0  0  0  0  0  0  0  0  0  0
   -9.8590   20.9920  -32.2760 C   0  0  0  0  0  0  0  0  0  0  0  0
  -10.7531   20.5623  -31.8006 H   0  0  0  0  0  0  0  0  0  0  0  0
  -10.1485   21.6597  -33.1008 H   0  0  0  0  0  0  0  0  0  0  0  0
   -9.0800   21.8010  -31.2400 C   0  0  0  0  0  0  0  0  0  0  0  0
   -9.3808   21.4886  -30.2291 H   0  0  0  0  0  0  0  0  0  0  0  0
   -8.0022   21.6254  -31.3725 H   0  0  0  0  0  0  0  0  0  0  0  0
   -9.2962   22.8714  -31.3725 H   0  0  0  0  0  0  0  0  0  0  0  0
   -5.4450   18.2160  -33.5830 C   0  0  0  0  0  0  0  0  0  0  0  0
   -6.4970   17.3170  -33.7510 C   0  0  0  0  0  0  0  0  0  0  0  0
   -7.5367   17.6704  -33.8157 H   0  0  0  0  0  0  0  0  0  0  0  0
   -6.1960   15.9550  -33.8350 C   0  0  0  0  0  0  0  0  0  0  0  0
   -7.0067   15.2274  -33.9878 H   0  0  0  0  0  0  0  0  0  0  0  0
   -4.8630   15.5020  -33.7260 C   0  0  0  0  0  0  0  0  0  0  0  0
   -4.5920   14.1250  -33.7800 C   0  0  0  0  0  0  0  0  0  0  0  0
   -5.4145   13.4116  -33.9369 H   0  0  0  0  0  0  0  0  0  0  0  0
   -3.2870   13.6570  -33.6360 C   0  0  0  0  0  0  0  0  0  0  0  0
   -3.0814   12.5780  -33.6947 H   0  0  0  0  0  0  0  0  0  0  0  0
   -2.2430   14.5520  -33.4180 C   0  0  0  0  0  0  0  0  0  0  0  0
   -1.2184   14.1739  -33.2864 H   0  0  0  0  0  0  0  0  0  0  0  0
   -2.4870   15.9280  -33.3650 C   0  0  0  0  0  0  0  0  0  0  0  0
   -1.6539   16.6226  -33.1820 H   0  0  0  0  0  0  0  0  0  0  0  0
   -3.7910   16.4330  -33.5440 C   0  0  0  0  0  0  0  0  0  0  0  0
   -4.1290   17.8120  -33.5100 C   0  0  0  0  0  0  0  0  0  0  0  0
   -3.3490   18.9260  -33.4230 N   0  0  0  0  0  0  0  0  0  0  0  0
   -1.8910   19.0380  -33.5120 C   0  0  0  0  0  0  0  0  0  0  0  0
   -1.4633   19.0709  -32.4991 H   0  0  0  0  0  0  0  0  0  0  0  0
   -1.4887   18.1681  -34.0519 H   0  0  0  0  0  0  0  0  0  0  0  0
   -1.6263   19.9591  -34.0519 H   0  0  0  0  0  0  0  0  0  0  0  0
  1  2  1  0
  2  3  1  0
  3  4  1  0
  3  5  1  0
  3  6  1  0
  6  7  1  0
  6  8  1  0
  6  9  1  0
  9 10  1  0
  9 11  1  0
 11 12  1  0
 11 13  1  0
 11 14  1  0
 14 15  1  0
 14 16  1  0
 14 17  1  0
 17 18  1  0
 17 19  1  0
 19 20  2  0
 20 21  1  0
 20 22  1  0
 22 23  1  0
 22 24  2  0
 24 25  1  0
 24 26  1  0
 26 27  1  0
 26 28  2  0
 28 29  1  0
 29 30  1  0
 29 31  2  0
 31 32  1  0
 31 33  1  0
 33 34  1  0
 34 35  1  0
 35 36  1  0
 35 37  1  0
 35 38  1  0
 38 39  1  0
 38 40  1  0
 38 41  1  0
 41 42  1  0
 41 43  1  0
 41 44  1  0
 44 45  1  0
 44 46  1  0
 44 47  1  0
 47 48  1  0
 47 49  1  0
 47 50  1  0
 34 51  1  0
 51 52  2  0
 52 53  1  0
 52 54  1  0
 54 55  1  0
 54 56  2  0
 56 57  1  0
 57 58  1  0
 57 59  2  0
 59 60  1  0
 59 61  1  0
 61 62  1  0
 61 63  2  0
 63 64  1  0
 63 65  1  0
 65 66  2  0
 66 67  1  0
 67 68  1  0
 68 69  1  0
 68 70  1  0
 68 71  1  0
 28 19  1  0
 67 33  2  0
 66 51  1  0
 65 56  1  0
M  CHG  2  41   1  67   1
M  END
>  <UniqueID>  (4) 
4

>  <SMILES>  (4) 
CC[NH2+]CCn1c(/C=C\c2ccccc2NCCNCCO)[n+](C)c2c3ccccc3ccc21

>  <Energy>  (4) 
122.28810277395371

>  <Genealogy>  (4) 
CC[NH2+]CCn1c(C=Cc2ccccc2NCCNCCO)[n+](C)c2c3ccccc3ccc21 (protonated)
CC[NH2+]CCn1c(/C=C\c2ccccc2NCCNCCO)[n+](C)c2c3ccccc3ccc21 (cis-trans isomerization)
CC[NH2+]CCn1c(/C=C\c2ccccc2NCCNCCO)[n+](C)c2c3ccccc3ccc21 (3D coordinates assigned)
CC[NH2+]CCn1c(/C=C\c2ccccc2NCCNCCO)[n+](C)c2c3ccccc3ccc21 (optimized conformer: 122.28810277395371 kcal/mol)

>  <smiles>  (4) 
CCNCCn1c(C=Cc2ccccc2NCCNCCO)[n+](C)c2c3ccccc3ccc21

>  <score_type>  (4) 
oracle

>  <origin>  (4) 
adg

>  <m_score__min__energy>  (4) 
-8.4199999999999999

>  <m_primary>  (4) 
energy

$$$$
4:0
     RDKit          3D

 47 49  0  0  0  0  0  0  0  0999 V2000
   -6.5040   25.6670  -29.3440 C   0  0  0  0  0  0  0  0  0  0  0  0
   -5.5070   25.3860  -30.4650 C   0  0  0  0  0  0  0  0  0  0  0  0
   -4.5650   24.2360  -30.0960 C   0  0  0  0  0  0  0  0  0  0  0  0
   -3.9290   23.7040  -31.3080 N   0  0  0  0  0  0  0  0  0  0  0  0
   -3.3640   22.3670  -31.0760 C   0  0  0  0  0  0  0  0  0  0  0  0
   -3.3620   21.5560  -32.3810 C   0  0  0  0  0  0  0  0  0  0  0  0
   -4.5300   21.8540  -33.2310 N   0  0  0  0  0  0  0  0  0  0  0  0
   -5.6310   20.9250  -32.9940 C   0  0  0  0  0  0  0  0  0  0  0  0
   -6.8700   21.4040  -32.4820 C   0  0  0  0  0  0  0  0  0  0  0  0
   -7.0750   22.7760  -32.1800 C   0  0  0  0  0  0  0  0  0  0  0  0
   -8.3130   23.2430  -31.7490 C   0  0  0  0  0  0  0  0  0  0  0  0
   -9.3790   22.3680  -31.6130 C   0  0  0  0  0  0  0  0  0  0  0  0
   -9.2030   21.0110  -31.8690 C   0  0  0  0  0  0  0  0  0  0  0  0
   -7.9410   20.4930  -32.2620 C   0  0  0  0  0  0  0  0  0  0  0  0
   -7.7530   19.1390  -32.4420 N   0  0  0  0  0  0  0  0  0  0  0  0
   -8.7460   18.1790  -31.9050 C   0  0  0  0  0  0  0  0  0  0  0  0
   -6.6240   18.6740  -33.0820 C   0  0  0  0  0  0  0  0  0  0  0  0
   -6.5410   17.3300  -33.5320 C   0  0  0  0  0  0  0  0  0  0  0  0
   -5.3760   16.8280  -34.1010 C   0  0  0  0  0  0  0  0  0  0  0  0
   -4.2680   17.6460  -34.2450 C   0  0  0  0  0  0  0  0  0  0  0  0
   -4.3300   18.9840  -33.8640 C   0  0  0  0  0  0  0  0  0  0  0  0
   -5.5160   19.5400  -33.3150 C   0  0  0  0  0  0  0  0  0  0  0  0
   -6.0104   25.5279  -28.3709 H   0  0  0  0  0  0  0  0  0  0  0  0
   -6.8664   26.7023  -29.4266 H   0  0  0  0  0  0  0  0  0  0  0  0
   -7.3537   24.9734  -29.4266 H   0  0  0  0  0  0  0  0  0  0  0  0
   -6.0598   25.1178  -31.3774 H   0  0  0  0  0  0  0  0  0  0  0  0
   -4.9033   26.2910  -30.6279 H   0  0  0  0  0  0  0  0  0  0  0  0
   -3.7894   24.6056  -29.4091 H   0  0  0  0  0  0  0  0  0  0  0  0
   -5.1422   23.4365  -29.6085 H   0  0  0  0  0  0  0  0  0  0  0  0
   -3.1380   24.3450  -31.5560 H   0  0  0  0  0  0  0  0  0  0  0  0
   -2.3317   22.4677  -30.7096 H   0  0  0  0  0  0  0  0  0  0  0  0
   -3.9790   21.8429  -30.3296 H   0  0  0  0  0  0  0  0  0  0  0  0
   -2.4466   21.7935  -32.9429 H   0  0  0  0  0  0  0  0  0  0  0  0
   -3.4059   20.4900  -32.1130 H   0  0  0  0  0  0  0  0  0  0  0  0
   -4.8480   22.8310  -33.0480 H   0  0  0  0  0  0  0  0  0  0  0  0
   -4.2430   21.9150  -34.2290 H   0  0  0  0  0  0  0  0  0  0  0  0
   -6.2395   23.4832  -32.2888 H   0  0  0  0  0  0  0  0  0  0  0  0
   -8.4458   24.3097  -31.5156 H   0  0  0  0  0  0  0  0  0  0  0  0
  -10.3644   22.7458  -31.3027 H   0  0  0  0  0  0  0  0  0  0  0  0
  -10.0582   20.3270  -31.7648 H   0  0  0  0  0  0  0  0  0  0  0  0
   -8.7215   18.2027  -30.8055 H   0  0  0  0  0  0  0  0  0  0  0  0
   -9.7511   18.4566  -32.2554 H   0  0  0  0  0  0  0  0  0  0  0  0
   -8.5025   17.1651  -32.2554 H   0  0  0  0  0  0  0  0  0  0  0  0
   -7.4166   16.6722  -33.4283 H   0  0  0  0  0  0  0  0  0  0  0  0
   -5.3344   15.7813  -34.4367 H   0  0  0  0  0  0  0  0  0  0  0  0
   -3.3356   17.2375  -34.6618 H   0  0  0  0  0  0  0  0  0  0  0  0
   -3.4433   19.6226  -33.9907 H   0  0  0  0  0  0  0  0  0  0  0  0
  1  2  1  0
  2  3  1  0
  3  4  1  0
  4  5  1  0
  5  6  1  0
  6  7  1  0
  7  8  1  0
  8  9  2  0
  9 10  1  0
 10 11  2  0
 11 12  1  0
 12 13  2  0
 13 14  1  0
 14 15  2  0
 15 16  1  0
 15 17  1  0
 17 18  2  0
 18 19  1  0
 19 20  2  0
 20 21  1  0
 21 22  2  0
 22  8  1  0
 14  9  1  0
 22 17  1  0
  1 23  1  0
  1 24  1  0
  1 25  1  0
  2 26  1  0
  2 27  1  0
  3 28  1  0
  3 29  1  0
  4 30  1  0
  5 31  1  0
  5 32  1  0
  6 33  1  0
  6 34  1  0
  7 35  1  0
  7 36  1  0
 10 37  1  0
 11 38  1  0
 12 39  1  0
 13 40  1  0
 16 41  1  0
 16 42  1  0
 16 43  1  0
 18 44  1  0
 19 45  1  0
 20 46  1  0
 21 47  1  0
M  CHG  2   7   1  15   1
M  END
>  <UniqueID>  (5) 
5

>  <SMILES>  (5) 
CCCNCC[NH2+]c1c2ccccc2[n+](C)c2ccccc12

>  <Energy>  (5) 
71.79132944910668

>  <Genealogy>  (5) 
CCCNCC[NH2+]c1c2ccccc2[n+](C)c2ccccc12 (protonated)
CCCNCC[NH2+]c1c2ccccc2[n+](C)c2ccccc12 (3D coordinates assigned)
CCCNCC[NH2+]c1c2ccccc2[n+](C)c2ccccc12 (optimized conformer: 71.79132944910668 kcal/mol)

>  <smiles>  (5) 
CCCNCCNc1c2ccccc2[n+](C)c2ccccc12

>  <score_type>  (5) 
oracle

>  <origin>  (5) 
adg

>  <m_score__min__energy>  (5) 
-8.0500000000000007

>  <m_primary>  (5) 
energy

$$$$
5:0
     RDKit          3D

 30 32  0  0  0  0  0  0  0  0999 V2000
   -8.7100   18.9880  -31.8660 Br  0  0  0  0  0  0  0  0  0  0  0  0
   -7.0490   19.8670  -32.3270 C   0  0  0  0  0  0  0  0  0  0  0  0
   -6.8260   21.2280  -32.0050 C   0  0  0  0  0  0  0  0  0  0  0  0
   -5.6180   21.8560  -32.4070 C   0  0  0  0  0  0  0  0  0  0  0  0
   -4.5760   21.0800  -32.9840 C   0  0  0  0  0  0  0  0  0  0  0  0
   -3.2860   21.6150  -33.2260 C   0  0  0  0  0  0  0  0  0  0  0  0
   -2.2920   20.8480  -33.8300 C   0  0  0  0  0  0  0  0  0  0  0  0
   -2.5480   19.5330  -34.1940 C   0  0  0  0  0  0  0  0  0  0  0  0
   -3.7930   18.9660  -33.9330 C   0  0  0  0  0  0  0  0  0  0  0  0
   -4.8160   19.7160  -33.3130 C   0  0  0  0  0  0  0  0  0  0  0  0
   -6.0600   19.1250  -33.0010 C   0  0  0  0  0  0  0  0  0  0  0  0
   -6.4180   17.2770  -33.4590 Br  0  0  0  0  0  0  0  0  0  0  0  0
   -5.4560   23.3390  -32.1050 C   0  0  0  0  0  0  0  0  0  0  0  0
   -5.2980   23.5860  -30.5970 C   0  0  0  0  0  0  0  0  0  0  0  0
   -6.5800   23.7860  -29.8960 N   0  0  0  0  0  0  0  0  0  0  0  0
   -7.4370   22.5890  -29.8620 C   0  0  0  0  0  0  0  0  0  0  0  0
   -7.8780   22.0440  -31.2530 C   0  0  0  0  0  0  0  0  0  0  0  0
   -3.0662   22.6520  -32.9323 H   0  0  0  0  0  0  0  0  0  0  0  0
   -1.3008   21.2860  -34.0191 H   0  0  0  0  0  0  0  0  0  0  0  0
   -1.7665   18.9381  -34.6892 H   0  0  0  0  0  0  0  0  0  0  0  0
   -3.9819   17.9194  -34.2138 H   0  0  0  0  0  0  0  0  0  0  0  0
   -4.5631   23.7155  -32.6255 H   0  0  0  0  0  0  0  0  0  0  0  0
   -6.3580   23.8650  -32.4510 H   0  0  0  0  0  0  0  0  0  0  0  0
   -4.7904   22.7169  -30.1532 H   0  0  0  0  0  0  0  0  0  0  0  0
   -4.7174   24.5129  -30.4801 H   0  0  0  0  0  0  0  0  0  0  0  0
   -6.4290   24.1680  -28.9340 H   0  0  0  0  0  0  0  0  0  0  0  0
   -6.8849   21.7908  -29.3441 H   0  0  0  0  0  0  0  0  0  0  0  0
   -8.3611   22.8921  -29.3481 H   0  0  0  0  0  0  0  0  0  0  0  0
   -8.7593   21.4033  -31.1019 H   0  0  0  0  0  0  0  0  0  0  0  0
   -8.0744   22.9295  -31.8754 H   0  0  0  0  0  0  0  0  0  0  0  0
  1  2  1  0
  2  3  2  0
  3  4  1  0
  4  5  2  0
  5  6  1  0
  6  7  2  0
  7  8  1  0
  8  9  2  0
  9 10  1  0
 10 11  2  0
 11 12  1  0
  4 13  1  0
 13 14  1  0
 14 15  1  0
 15 16  1  0
 16 17  1  0
 11  2  1  0
 17  3  1  0
 10  5  1  0
  6 18  1  0
  7 19  1  0
  8 20  1  0
  9 21  1  0
 13 22  1  0
 13 23  1  0
 14 24  1  0
 14 25  1  0
 15 26  1  0
 16 27  1  0
 16 28  1  0
 17 29  1  0
 17 30  1  0
M  END
>  <UniqueID>  (6) 
6

>  <SMILES>  (6) 
Brc1c2c(c3ccccc3c1Br)CCNCC2

>  <Energy>  (6) 
60.065888754208586

>  <Genealogy>  (6) 
Brc1c2c(c3ccccc3c1Br)CCNCC2 (3D coordinates assigned)
Brc1c2c(c3ccccc3c1Br)CCNCC2 (nonaromatic ring conformer: 60.065888754208586 kcal/mol)

>  <smiles>  (6) 
Brc1c2c(c3ccccc3c1Br)CCNCC2

>  <score_type>  (6) 
oracle

>  <origin>  (6) 
adg

>  <m_score__min__energy>  (6) 
-7.0199999999999996

>  <m_primary>  (6) 
energy

$$$$
6:0
     RDKit          3D

 74 76  0  0  0  0  0  0  0  0999 V2000
    0.2270   21.5460  -34.9440 C   0  0  0  0  0  0  0  0  0  0  0  0
    0.1470   20.8960  -33.5660 C   0  0  0  0  0  0  0  0  0  0  0  0
   -1.2330   21.1260  -32.9210 C   0  0  0  0  0  0  0  0  0  0  0  0
   -2.3460   20.5600  -33.7340 N   0  0  2  0  0  0  0  0  0  0  0  0
   -3.6640   20.8060  -33.0890 C   0  0  0  0  0  0  0  0  0  0  0  0
   -3.7340   20.2450  -31.6620 C   0  0  0  0  0  0  0  0  0  0  0  0
   -2.1600   19.1120  -34.0150 C   0  0  0  0  0  0  0  0  0  0  0  0
   -3.4300   18.4040  -34.2570 C   0  0  0  0  0  0  0  0  0  0  0  0
   -4.4680   17.8260  -34.4620 C   0  0  0  0  0  0  0  0  0  0  0  0
   -5.7280   17.1110  -34.7060 C   0  0  0  0  0  0  0  0  0  0  0  0
   -6.5150   16.9160  -33.4060 C   0  0  0  0  0  0  0  0  0  0  0  0
   -7.0610   18.2200  -32.8800 C   0  0  0  0  0  0  0  0  0  0  0  0
   -7.8710   18.2390  -31.7350 C   0  0  0  0  0  0  0  0  0  0  0  0
   -8.3530   19.4510  -31.2310 C   0  0  0  0  0  0  0  0  0  0  0  0
   -8.0240   20.6610  -31.8620 C   0  0  0  0  0  0  0  0  0  0  0  0
   -8.5920   21.9600  -31.3530 C   0  0  0  0  0  0  0  0  0  0  0  0
   -7.8880   22.3710  -30.0430 C   0  0  0  0  0  0  0  0  0  0  0  0
   -6.6540   23.1650  -30.2350 N   0  0  0  0  0  0  0  0  0  0  0  0
   -5.9050   22.8300  -31.4550 C   0  0  0  0  0  0  0  0  0  0  0  0
   -4.4820   23.4200  -31.3730 C   0  0  0  0  0  0  0  0  0  0  0  0
   -4.3880   24.6170  -30.5000 N   0  0  0  0  0  0  0  0  0  0  0  0
   -3.9630   24.2790  -29.1210 C   0  0  0  0  0  0  0  0  0  0  0  0
   -3.0060   23.1140  -29.1200 C   0  0  0  0  0  0  0  0  0  0  0  0
   -1.7260   23.2560  -29.6780 C   0  0  0  0  0  0  0  0  0  0  0  0
   -0.8290   22.1830  -29.6640 C   0  0  0  0  0  0  0  0  0  0  0  0
   -1.2030   20.9640  -29.0920 C   0  0  0  0  0  0  0  0  0  0  0  0
   -0.3320   19.9260  -29.0770 F   0  0  0  0  0  0  0  0  0  0  0  0
   -2.4740   20.8180  -28.5290 C   0  0  0  0  0  0  0  0  0  0  0  0
   -3.3740   21.8880  -28.5410 C   0  0  0  0  0  0  0  0  0  0  0  0
   -5.6290   25.4220  -30.5420 C   0  0  0  0  0  0  0  0  0  0  0  0
   -6.8710   24.6190  -30.1010 C   0  0  0  0  0  0  0  0  0  0  0  0
   -7.2160   20.6420  -33.0100 C   0  0  0  0  0  0  0  0  0  0  0  0
   -6.7270   19.4310  -33.5080 C   0  0  0  0  0  0  0  0  0  0  0  0
    0.3606   22.6319  -34.8300 H   0  0  0  0  0  0  0  0  0  0  0  0
    1.0804   21.1277  -35.4978 H   0  0  0  0  0  0  0  0  0  0  0  0
   -0.7024   21.3471  -35.4978 H   0  0  0  0  0  0  0  0  0  0  0  0
    0.3192   19.8145  -33.6689 H   0  0  0  0  0  0  0  0  0  0  0  0
    0.9132   21.3511  -32.9211 H   0  0  0  0  0  0  0  0  0  0  0  0
   -1.2427   20.6491  -31.9298 H   0  0  0  0  0  0  0  0  0  0  0  0
   -1.3910   22.2123  -32.8497 H   0  0  0  0  0  0  0  0  0  0  0  0
   -2.3500   21.0400  -34.6670 H   0  0  0  0  0  0  0  0  0  0  0  0
   -3.8409   21.8910  -33.0505 H   0  0  0  0  0  0  0  0  0  0  0  0
   -4.4303   20.2922  -33.6880 H   0  0  0  0  0  0  0  0  0  0  0  0
   -3.6313   21.0677  -30.9391 H   0  0  0  0  0  0  0  0  0  0  0  0
   -4.7016   19.7438  -31.5121 H   0  0  0  0  0  0  0  0  0  0  0  0
   -2.9192   19.5214  -31.5121 H   0  0  0  0  0  0  0  0  0  0  0  0
   -1.5247   19.0069  -34.9068 H   0  0  0  0  0  0  0  0  0  0  0  0
   -1.6966   18.6612  -33.1250 H   0  0  0  0  0  0  0  0  0  0  0  0
   -6.3395   17.6922  -35.4119 H   0  0  0  0  0  0  0  0  0  0  0  0
   -5.4916   16.1205  -35.1220 H   0  0  0  0  0  0  0  0  0  0  0  0
   -7.3536   16.2302  -33.5970 H   0  0  0  0  0  0  0  0  0  0  0  0
   -5.8302   16.5029  -32.6508 H   0  0  0  0  0  0  0  0  0  0  0  0
   -8.1283   17.2957  -31.2310 H   0  0  0  0  0  0  0  0  0  0  0  0
   -8.9928   19.4563  -30.3362 H   0  0  0  0  0  0  0  0  0  0  0  0
   -8.4399   22.7444  -32.1091 H   0  0  0  0  0  0  0  0  0  0  0  0
   -9.6668   21.8305  -31.1581 H   0  0  0  0  0  0  0  0  0  0  0  0
   -8.5927   22.9693  -29.4468 H   0  0  0  0  0  0  0  0  0  0  0  0
   -7.5867   21.4388  -29.5428 H   0  0  0  0  0  0  0  0  0  0  0  0
   -5.8417   21.7365  -31.5560 H   0  0  0  0  0  0  0  0  0  0  0  0
   -6.4240   23.2533  -32.3276 H   0  0  0  0  0  0  0  0  0  0  0  0
   -3.8065   22.6469  -30.9781 H   0  0  0  0  0  0  0  0  0  0  0  0
   -4.2036   23.7371  -32.3888 H   0  0  0  0  0  0  0  0  0  0  0  0
   -3.4665   25.1526  -28.6734 H   0  0  0  0  0  0  0  0  0  0  0  0
   -4.8536   24.0010  -28.5384 H   0  0  0  0  0  0  0  0  0  0  0  0
   -1.4273   24.2144  -30.1278 H   0  0  0  0  0  0  0  0  0  0  0  0
    0.1725   22.2988  -30.1039 H   0  0  0  0  0  0  0  0  0  0  0  0
   -2.7668   19.8595  -28.0756 H   0  0  0  0  0  0  0  0  0  0  0  0
   -4.3729   21.7695  -28.0959 H   0  0  0  0  0  0  0  0  0  0  0  0
   -5.5115   26.2861  -29.8715 H   0  0  0  0  0  0  0  0  0  0  0  0
   -5.7877   25.7365  -31.5841 H   0  0  0  0  0  0  0  0  0  0  0  0
   -7.0912   24.8515  -29.0487 H   0  0  0  0  0  0  0  0  0  0  0  0
   -7.7123   24.9025  -30.7505 H   0  0  0  0  0  0  0  0  0  0  0  0
   -6.9667   21.5843  -33.5198 H   0  0  0  0  0  0  0  0  0  0  0  0
   -6.0776   19.4264  -34.3958 H   0  0  0  0  0  0  0  0  0  0  0  0
  1  2  1  0
  2  3  1  0
  3  4  1  0
  4  5  1  0
  5  6  1  0
  4  7  1  0
  7  8  1  0
  8  9  3  0
  9 10  1  0
 10 11  1  0
 11 12  1  0
 12 13  2  0
 13 14  1  0
 14 15  2  0
 15 16  1  0
 16 17  1  0
 17 18  1  0
 18 19  1  0
 19 20  1  0
 20 21  1  0
 21 22  1  0
 22 23  1  0
 23 24  2  0
 24 25  1  0
 25 26  2  0
 26 27  1  0
 26 28  1  0
 28 29  2  0
 21 30  1  0
 30 31  1  0
 15 32  1  0
 32 33  2  0
 33 12  1  0
 31 18  1  0
 29 23  1  0
  1 34  1  0
  1 35  1  0
  1 36  1  0
  2 37  1  0
  2 38  1  0
  3 39  1  0
  3 40  1  0
  4 41  1  6
  5 42  1  0
  5 43  1  0
  6 44  1  0
  6 45  1  0
  6 46  1  0
  7 47  1  0
  7 48  1  0
 10 49  1  0
 10 50  1  0
 11 51  1  0
 11 52  1  0
 13 53  1  0
 14 54  1  0
 16 55  1  0
 16 56  1  0
 17 57  1  0
 17 58  1  0
 19 59  1  0
 19 60  1  0
 20 61  1  0
 20 62  1  0
 22 63  1  0
 22 64  1  0
 24 65  1  0
 25 66  1  0
 28 67  1  0
 29 68  1  0
 30 69  1  0
 30 70  1  0
 31 71  1  0
 31 72  1  0
 32 73  1  0
 33 74  1  0
M  CHG  1   4   1
M  END
>  <UniqueID>  (7) 
7

>  <SMILES>  (7) 
CCC[N@H+](CC)CC#CCCc1ccc(CCN2CCN(Cc3ccc(F)cc3)CC2)cc1

>  <Energy>  (7) 
79.78088460386577

>  <Genealogy>  (7) 
CCC[NH+](CC)CC#CCCc1ccc(CCN2CCN(Cc3ccc(F)cc3)CC2)cc1 (protonated)
CCC[N@H+](CC)CC#CCCc1ccc(CCN2CCN(Cc3ccc(F)cc3)CC2)cc1 (chirality)
CCC[N@H+](CC)CC#CCCc1ccc(CCN2CCN(Cc3ccc(F)cc3)CC2)cc1 (3D coordinates assigned)
CCC[N@H+](CC)CC#CCCc1ccc(CCN2CCN(Cc3ccc(F)cc3)CC2)cc1 (nonaromatic ring conformer: 79.78088460386577 kcal/mol)

>  <smiles>  (7) 
CCCN(CC)CC#CCCc1ccc(CCN2CCN(Cc3ccc(F)cc3)CC2)cc1

>  <score_type>  (7) 
oracle

>  <origin>  (7) 
adg

>  <m_score__min__energy>  (7) 
-8.5700000000000003

>  <m_primary>  (7) 
energy

$$$$
7:0
     RDKit          3D

 54 55  0  0  0  0  0  0  0  0999 V2000
    0.0320   21.1590  -35.1090 C   0  0  0  0  0  0  0  0  0  0  0  0
   -0.6380   21.6680  -33.9630 O   0  0  0  0  0  0  0  0  0  0  0  0
   -1.8470   21.1380  -33.4970 C   0  0  0  0  0  0  0  0  0  0  0  0
   -2.4620   20.2840  -34.1920 O   0  0  0  0  0  0  0  0  0  0  0  0
   -2.4160   21.6350  -32.2120 C   0  0  0  0  0  0  0  0  0  0  0  0
   -1.8150   21.4170  -30.9990 C   0  0  0  0  0  0  0  0  0  0  0  0
   -0.5080   20.6610  -30.8950 C   0  0  0  0  0  0  0  0  0  0  0  0
   -2.4220   21.8890  -29.7610 N   0  0  2  0  0  0  0  0  0  0  0  0
   -3.3190   20.8350  -29.2300 C   0  0  0  0  0  0  0  0  0  0  0  0
   -3.0750   20.5100  -27.7460 C   0  0  0  0  0  0  0  0  0  0  0  0
   -2.4090   21.6390  -27.0810 N   0  0  0  0  0  0  0  0  0  0  0  0
   -1.0490   21.2850  -26.6400 C   0  0  0  0  0  0  0  0  0  0  0  0
   -0.0160   22.3650  -27.0190 C   0  0  0  0  0  0  0  0  0  0  0  0
   -0.6700   23.4710  -27.7540 N   0  0  0  0  0  0  0  0  0  0  0  0
    0.1150   23.8240  -28.9480 C   0  0  0  0  0  0  0  0  0  0  0  0
   -0.8130   24.6600  -26.8950 C   0  0  0  0  0  0  0  0  0  0  0  0
   -3.0880   23.1580  -29.9620 C   0  0  0  0  0  0  0  0  0  0  0  0
   -3.1350   24.0080  -29.0330 O   0  0  0  0  0  0  0  0  0  0  0  0
   -3.6810   23.4650  -31.2210 N   0  0  0  0  0  0  0  0  0  0  0  0
   -3.6920   22.4710  -32.2860 C   0  0  2  0  0  0  0  0  0  0  0  0
   -4.9510   21.6090  -32.2430 C   0  0  0  0  0  0  0  0  0  0  0  0
   -4.8550   20.2240  -32.4760 C   0  0  0  0  0  0  0  0  0  0  0  0
   -5.9940   19.4130  -32.4440 C   0  0  0  0  0  0  0  0  0  0  0  0
   -7.2480   19.9730  -32.1920 C   0  0  0  0  0  0  0  0  0  0  0  0
   -8.6740   18.9530  -32.1450 Cl  0  0  0  0  0  0  0  0  0  0  0  0
   -7.3660   21.3500  -31.9880 C   0  0  0  0  0  0  0  0  0  0  0  0
   -6.2330   22.1650  -32.0290 C   0  0  0  0  0  0  0  0  0  0  0  0
    0.8705   20.5220  -34.7908 H   0  0  0  0  0  0  0  0  0  0  0  0
   -0.6713   20.5654  -35.7114 H   0  0  0  0  0  0  0  0  0  0  0  0
    0.4153   21.9957  -35.7114 H   0  0  0  0  0  0  0  0  0  0  0  0
   -0.2530   20.5135  -29.8352 H   0  0  0  0  0  0  0  0  0  0  0  0
   -0.6102   19.6825  -31.3871 H   0  0  0  0  0  0  0  0  0  0  0  0
    0.2892   21.2375  -31.3871 H   0  0  0  0  0  0  0  0  0  0  0  0
   -1.6670   22.0520  -29.0530 H   0  0  0  0  0  0  0  0  0  0  0  0
   -4.3594   21.1728  -29.3457 H   0  0  0  0  0  0  0  0  0  0  0  0
   -3.1118   19.9173  -29.7999 H   0  0  0  0  0  0  0  0  0  0  0  0
   -4.0392   20.3158  -27.2534 H   0  0  0  0  0  0  0  0  0  0  0  0
   -2.4307   19.6213  -27.6749 H   0  0  0  0  0  0  0  0  0  0  0  0
   -2.3640   22.4550  -27.7360 H   0  0  0  0  0  0  0  0  0  0  0  0
   -1.0510   21.1644  -25.5466 H   0  0  0  0  0  0  0  0  0  0  0  0
   -0.7622   20.3505  -27.1445 H   0  0  0  0  0  0  0  0  0  0  0  0
    0.4457   22.7620  -26.1029 H   0  0  0  0  0  0  0  0  0  0  0  0
    0.7515   21.9130  -27.6645 H   0  0  0  0  0  0  0  0  0  0  0  0
    1.0778   24.2570  -28.6390 H   0  0  0  0  0  0  0  0  0  0  0  0
    0.2953   22.9203  -29.5487 H   0  0  0  0  0  0  0  0  0  0  0  0
   -0.4414   24.5586  -29.5487 H   0  0  0  0  0  0  0  0  0  0  0  0
   -0.7764   24.3557  -25.8386 H   0  0  0  0  0  0  0  0  0  0  0  0
    0.0071   25.3631  -27.1026 H   0  0  0  0  0  0  0  0  0  0  0  0
   -1.7764   25.1486  -27.1026 H   0  0  0  0  0  0  0  0  0  0  0  0
   -3.7139   22.9877  -33.2569 H   0  0  0  0  0  0  0  0  0  0  0  0
   -3.8731   19.7746  -32.6856 H   0  0  0  0  0  0  0  0  0  0  0  0
   -5.9016   18.3308  -32.6179 H   0  0  0  0  0  0  0  0  0  0  0  0
   -8.3540   21.7933  -31.7946 H   0  0  0  0  0  0  0  0  0  0  0  0
   -6.3391   23.2514  -31.8933 H   0  0  0  0  0  0  0  0  0  0  0  0
  1  2  1  0
  2  3  1  0
  3  4  2  0
  3  5  1  0
  5  6  2  0
  6  7  1  0
  6  8  1  0
  8  9  1  0
  9 10  1  0
 10 11  1  0
 11 12  1  0
 12 13  1  0
 13 14  1  0
 14 15  1  0
 14 16  1  0
  8 17  1  0
 17 18  2  0
 17 19  1  0
 19 20  1  0
 20 21  1  0
 21 22  2  0
 22 23  1  0
 23 24  2  0
 24 25  1  0
 24 26  1  0
 26 27  2  0
 20  5  1  0
 27 21  1  0
  1 28  1  0
  1 29  1  0
  1 30  1  0
  7 31  1  0
  7 32  1  0
  7 33  1  0
  8 34  1  1
  9 35  1  0
  9 36  1  0
 10 37  1  0
 10 38  1  0
 11 39  1  0
 12 40  1  0
 12 41  1  0
 13 42  1  0
 13 43  1  0
 15 44  1  0
 15 45  1  0
 15 46  1  0
 16 47  1  0
 16 48  1  0
 16 49  1  0
 20 50  1  6
 22 51  1  0
 23 52  1  0
 26 53  1  0
 27 54  1  0
M  CHG  2   8   1  19  -1
M  END
>  <UniqueID>  (8) 
8

>  <SMILES>  (8) 
COC(=O)C1=C(C)[N@H+](CCNCCN(C)C)C(=O)[N-][C@@H]1c1ccc(Cl)cc1

>  <Energy>  (8) 
61.78938031391193

>  <Genealogy>  (8) 
COC(=O)C1=C(C)[NH+](CCNCCN(C)C)C(=O)[N-]C1c1ccc(Cl)cc1 (protonated)
COC(=O)C1=C(C)[N@H+](CCNCCN(C)C)C(=O)[N-][C@@H]1c1ccc(Cl)cc1 (chirality)
COC(=O)C1=C(C)[N@H+](CCNCCN(C)C)C(=O)[N-][C@@H]1c1ccc(Cl)cc1 (3D coordinates assigned)
COC(=O)C1=C(C)[N@H+](CCNCCN(C)C)C(=O)[N-][C@@H]1c1ccc(Cl)cc1 (nonaromatic ring conformer: 61.78938031391193 kcal/mol)

>  <smiles>  (8) 
COC(=O)C1=C(C)N(CCNCCN(C)C)C(=O)NC1c1ccc(Cl)cc1

>  <score_type>  (8) 
oracle

>  <origin>  (8) 
adg

>  <m_score__min__energy>  (8) 
-7.8300000000000001

>  <m_primary>  (8) 
energy

$$$$
8:0
     RDKit          3D

 62 63  0  0  0  0  0  0  0  0999 V2000
   -8.1434   16.8737  -32.9061 H   0  0  0  0  0  0  0  0  0  0  0  0
   -7.2100   17.3670  -33.2150 C   0  0  0  0  0  0  0  0  0  0  0  0
   -6.2730   16.6960  -34.0030 C   0  0  0  0  0  0  0  0  0  0  0  0
   -6.5070   15.4150  -34.3930 F   0  0  0  0  0  0  0  0  0  0  0  0
   -5.0870   17.3460  -34.4150 C   0  0  0  0  0  0  0  0  0  0  0  0
   -4.1840   16.6910  -35.1820 F   0  0  0  0  0  0  0  0  0  0  0  0
   -4.8350   18.6710  -34.0180 C   0  0  0  0  0  0  0  0  0  0  0  0
   -3.9099   19.1782  -34.3295 H   0  0  0  0  0  0  0  0  0  0  0  0
   -5.7740   19.3380  -33.2220 C   0  0  0  0  0  0  0  0  0  0  0  0
   -6.9330   18.6790  -32.8290 C   0  0  0  0  0  0  0  0  0  0  0  0
   -7.8580   19.7010  -31.8830 S   0  0  0  0  0  0  0  0  0  0  0  0
   -6.7440   20.9680  -31.9890 C   0  0  0  0  0  0  0  0  0  0  0  0
   -6.9490   22.3120  -31.3400 C   0  0  0  0  0  0  0  0  0  0  0  0
   -8.0270   22.4997  -31.2275 H   0  0  0  0  0  0  0  0  0  0  0  0
   -6.4949   23.0878  -31.9739 H   0  0  0  0  0  0  0  0  0  0  0  0
   -6.3180   22.3430  -30.0310 N   0  0  0  0  0  0  0  0  0  0  0  0
   -5.1580   22.8490  -29.7350 C   0  0  0  0  0  0  0  0  0  0  0  0
   -4.0090   21.8860  -29.6460 C   0  0  0  0  0  0  0  0  0  0  0  0
   -3.7756   21.6904  -28.5890 H   0  0  0  0  0  0  0  0  0  0  0  0
   -4.2818   20.9428  -30.1419 H   0  0  0  0  0  0  0  0  0  0  0  0
   -3.1280   22.3195  -30.1419 H   0  0  0  0  0  0  0  0  0  0  0  0
   -4.9780   24.2990  -29.2980 C   0  0  2  0  0  0  0  0  0  0  0  0
   -4.7069   24.3218  -28.2322 H   0  0  0  0  0  0  0  0  0  0  0  0
   -6.2310   25.0630  -29.4260 C   0  0  0  0  0  0  0  0  0  0  0  0
   -7.2020   25.6790  -29.5370 N   0  0  0  0  0  0  0  0  0  0  0  0
   -3.8680   24.9200  -30.1020 C   0  0  0  0  0  0  0  0  0  0  0  0
   -4.1460   25.6380  -31.1010 O   0  0  0  0  0  0  0  0  0  0  0  0
   -2.4990   24.7450  -29.7250 N   0  0  0  0  0  0  0  0  0  0  0  0
   -1.8620   25.6700  -28.9570 O   0  0  0  0  0  0  0  0  0  0  0  0
   -1.3670   24.9820  -27.8300 C   0  0  0  0  0  0  0  0  0  0  0  0
   -2.1472   24.3115  -27.4404 H   0  0  0  0  0  0  0  0  0  0  0  0
   -1.0828   25.7112  -27.0570 H   0  0  0  0  0  0  0  0  0  0  0  0
   -0.1360   24.1560  -28.2210 C   0  0  0  0  0  0  0  0  0  0  0  0
   -0.1579   23.9703  -29.3050 H   0  0  0  0  0  0  0  0  0  0  0  0
   -0.1617   23.2073  -27.6648 H   0  0  0  0  0  0  0  0  0  0  0  0
    1.0610   24.8360  -27.8930 O   0  0  0  0  0  0  0  0  0  0  0  0
    1.7820   24.1630  -26.8770 C   0  0  0  0  0  0  0  0  0  0  0  0
    2.8589   24.2123  -27.0960 H   0  0  0  0  0  0  0  0  0  0  0  0
    1.4669   23.1099  -26.8364 H   0  0  0  0  0  0  0  0  0  0  0  0
    1.5020   24.8360  -25.5290 C   0  0  0  0  0  0  0  0  0  0  0  0
    1.6350   25.9231  -25.6312 H   0  0  0  0  0  0  0  0  0  0  0  0
    2.2022   24.4407  -24.7784 H   0  0  0  0  0  0  0  0  0  0  0  0
    0.1120   24.5510  -25.0920 N   0  0  0  0  0  0  0  0  0  0  0  0
   -0.4110   25.5820  -24.1660 C   0  0  0  0  0  0  0  0  0  0  0  0
    0.4151   26.2251  -23.8284 H   0  0  0  0  0  0  0  0  0  0  0  0
   -0.8735   25.0935  -23.2957 H   0  0  0  0  0  0  0  0  0  0  0  0
   -1.4550   26.4310  -24.8890 C   0  0  0  0  0  0  0  0  0  0  0  0
   -2.0864   26.9445  -24.1490 H   0  0  0  0  0  0  0  0  0  0  0  0
   -0.9485   27.1768  -25.5193 H   0  0  0  0  0  0  0  0  0  0  0  0
   -2.0818   25.7831  -25.5193 H   0  0  0  0  0  0  0  0  0  0  0  0
   -0.0110   23.1950  -24.5070 C   0  0  0  0  0  0  0  0  0  0  0  0
    0.9912   22.8118  -24.2648 H   0  0  0  0  0  0  0  0  0  0  0  0
   -0.6225   23.2526  -23.5945 H   0  0  0  0  0  0  0  0  0  0  0  0
   -0.6830   22.2540  -25.4950 C   0  0  0  0  0  0  0  0  0  0  0  0
   -1.2365   21.4789  -24.9447 H   0  0  0  0  0  0  0  0  0  0  0  0
   -1.3801   22.8232  -26.1274 H   0  0  0  0  0  0  0  0  0  0  0  0
    0.0817   21.7793  -26.1274 H   0  0  0  0  0  0  0  0  0  0  0  0
   -5.6630   20.6210  -32.7570 N   0  0  0  0  0  0  0  0  0  0  0  0
   -4.5380   21.5000  -33.0850 C   0  0  0  0  0  0  0  0  0  0  0  0
   -4.0734   21.8630  -32.1563 H   0  0  0  0  0  0  0  0  0  0  0  0
   -3.7949   20.9408  -33.6725 H   0  0  0  0  0  0  0  0  0  0  0  0
   -4.9009   22.3563  -33.6725 H   0  0  0  0  0  0  0  0  0  0  0  0
  1  2  1  0
  2  3  2  0
  3  4  1  0
  3  5  1  0
  5  6  1  0
  5  7  2  0
  7  8  1  0
  7  9  1  0
  9 10  2  0
 10 11  1  0
 11 12  1  0
 12 13  1  0
 13 14  1  0
 13 15  1  0
 13 16  1  0
 16 17  2  0
 17 18  1  0
 18 19  1  0
 18 20  1  0
 18 21  1  0
 17 22  1  0
 22 23  1  1
 22 24  1  0
 24 25  3  0
 22 26  1  0
 26 27  2  0
 26 28  1  0
 28 29  1  0
 29 30  1  0
 30 31  1  0
 30 32  1  0
 30 33  1  0
 33 34  1  0
 33 35  1  0
 33 36  1  0
 36 37  1  0
 37 38  1  0
 37 39  1  0
 37 40  1  0
 40 41  1  0
 40 42  1  0
 40 43  1  0
 43 44  1  0
 44 45  1  0
 44 46  1  0
 44 47  1  0
 47 48  1  0
 47 49  1  0
 47 50  1  0
 43 51  1  0
 51 52  1  0
 51 53  1  0
 51 54  1  0
 54 55  1  0
 54 56  1  0
 54 57  1  0
 12 58  2  0
 58 59  1  0
 59 60  1  0
 59 61  1  0
 59 62  1  0
 10  2  1  0
 58  9  1  0
M  CHG  2  28  -1  58   1
M  END
>  <UniqueID>  (9) 
9

>  <SMILES>  (9) 
CCN(CC)CCOCCO[N-]C(=O)[C@@H](C#N)/C(C)=N\Cc1sc2cc(F)c(F)cc2[n+]1C

>  <Energy>  (9) 
96.4130813330023

>  <Genealogy>  (9) 
CCN(CC)CCOCCO[N-]C(=O)C(C#N)C(C)=NCc1sc2cc(F)c(F)cc2[n+]1C (protonated)
CCN(CC)CCOCCO[N-]C(=O)[C@@H](C#N)C(C)=NCc1sc2cc(F)c(F)cc2[n+]1C (chirality)
CCN(CC)CCOCCO[N-]C(=O)[C@@H](C#N)/C(C)=N\Cc1sc2cc(F)c(F)cc2[n+]1C (cis-trans isomerization)
CCN(CC)CCOCCO[N-]C(=O)[C@@H](C#N)/C(C)=N\Cc1sc2cc(F)c(F)cc2[n+]1C (3D coordinates assigned)
CCN(CC)CCOCCO[N-]C(=O)[C@@H](C#N)/C(C)=N\Cc1sc2cc(F)c(F)cc2[n+]1C (optimized conformer: 96.4130813330023 kcal/mol)

>  <smiles>  (9) 
CCN(CC)CCOCCONC(=O)C(C#N)C(C)=NCc1sc2cc(F)c(F)cc2[n+]1C

>  <score_type>  (9) 
oracle

>  <origin>  (9) 
adg

>  <m_score__min__energy>  (9) 
-9.75

>  <m_primary>  (9) 
energy

$$$$
9:0
     RDKit          3D

 59 62  0  0  0  0  0  0  0  0999 V2000
   -5.4100   24.9370  -31.0190 C   0  0  0  0  0  0  0  0  0  0  0  0
   -6.0290   25.3050  -29.6710 C   0  0  0  0  0  0  0  0  0  0  0  0
   -5.1810   24.8390  -28.5600 N   0  0  0  0  0  0  0  0  0  0  0  0
   -3.9570   24.1700  -29.0390 C   0  0  0  0  0  0  0  0  0  0  0  0
   -3.9680   22.6590  -28.7580 C   0  0  0  0  0  0  0  0  0  0  0  0
   -3.8270   21.9380  -29.9670 O   0  0  0  0  0  0  0  0  0  0  0  0
   -2.9890   20.8080  -29.8040 C   0  0  0  0  0  0  0  0  0  0  0  0
   -2.1600   20.5790  -31.0730 C   0  0  0  0  0  0  0  0  0  0  0  0
   -2.4300   21.6440  -32.1410 C   0  0  0  0  0  0  0  0  0  0  0  0
   -2.9090   21.0380  -33.3840 N   0  0  0  0  0  0  0  0  0  0  0  0
   -4.0210   20.1320  -33.3600 C   0  0  0  0  0  0  0  0  0  0  0  0
   -5.2630   20.5770  -32.9220 C   0  0  0  0  0  0  0  0  0  0  0  0
   -6.3410   19.7160  -32.8510 C   0  0  0  0  0  0  0  0  0  0  0  0
   -6.2150   18.3730  -33.1050 N   0  0  0  0  0  0  0  0  0  0  0  0
   -7.2820   17.4420  -32.7040 C   0  0  0  0  0  0  0  0  0  0  0  0
   -5.0410   17.9200  -33.6860 C   0  0  0  0  0  0  0  0  0  0  0  0
   -4.9240   16.6050  -34.1950 C   0  0  0  0  0  0  0  0  0  0  0  0
   -3.7330   16.1630  -34.7690 C   0  0  0  0  0  0  0  0  0  0  0  0
   -2.6380   17.0170  -34.8680 C   0  0  0  0  0  0  0  0  0  0  0  0
   -2.7270   18.3260  -34.4020 C   0  0  0  0  0  0  0  0  0  0  0  0
   -3.9140   18.7970  -33.8090 C   0  0  0  0  0  0  0  0  0  0  0  0
   -7.5060   20.4960  -32.4070 C   0  0  0  0  0  0  0  0  0  0  0  0
   -8.8730   20.1870  -32.3730 C   0  0  0  0  0  0  0  0  0  0  0  0
   -9.7790   21.1820  -31.9760 C   0  0  0  0  0  0  0  0  0  0  0  0
   -9.3250   22.4750  -31.6640 C   0  0  0  0  0  0  0  0  0  0  0  0
   -7.9630   22.7900  -31.7700 C   0  0  0  0  0  0  0  0  0  0  0  0
   -7.0710   21.7880  -32.1540 C   0  0  0  0  0  0  0  0  0  0  0  0
   -5.6140   21.9550  -32.4430 C   0  0  0  0  0  0  0  0  0  0  0  0
   -4.4752   24.3813  -30.8537 H   0  0  0  0  0  0  0  0  0  0  0  0
   -6.1136   24.3104  -31.5867 H   0  0  0  0  0  0  0  0  0  0  0  0
   -5.1957   25.8545  -31.5867 H   0  0  0  0  0  0  0  0  0  0  0  0
   -6.1351   26.3981  -29.6095 H   0  0  0  0  0  0  0  0  0  0  0  0
   -7.0127   24.8192  -29.5909 H   0  0  0  0  0  0  0  0  0  0  0  0
   -5.7250   24.1930  -27.9410 H   0  0  0  0  0  0  0  0  0  0  0  0
   -4.8940   25.6690  -27.9900 H   0  0  0  0  0  0  0  0  0  0  0  0
   -3.8700   24.3270  -30.1243 H   0  0  0  0  0  0  0  0  0  0  0  0
   -3.1031   24.6057  -28.4994 H   0  0  0  0  0  0  0  0  0  0  0  0
   -3.1344   22.4080  -28.0855 H   0  0  0  0  0  0  0  0  0  0  0  0
   -4.9242   22.3877  -28.2868 H   0  0  0  0  0  0  0  0  0  0  0  0
   -2.3126   20.9765  -28.9531 H   0  0  0  0  0  0  0  0  0  0  0  0
   -3.6127   19.9215  -29.6167 H   0  0  0  0  0  0  0  0  0  0  0  0
   -1.0926   20.6054  -30.8084 H   0  0  0  0  0  0  0  0  0  0  0  0
   -2.4450   19.6021  -31.4907 H   0  0  0  0  0  0  0  0  0  0  0  0
   -3.1919   22.3431  -31.7659 H   0  0  0  0  0  0  0  0  0  0  0  0
   -1.4885   22.1724  -32.3515 H   0  0  0  0  0  0  0  0  0  0  0  0
   -2.7580   21.5810  -34.2650 H   0  0  0  0  0  0  0  0  0  0  0  0
   -7.3349   17.3958  -31.6062 H   0  0  0  0  0  0  0  0  0  0  0  0
   -8.2448   17.7939  -33.1030 H   0  0  0  0  0  0  0  0  0  0  0  0
   -7.0638   16.4404  -33.1030 H   0  0  0  0  0  0  0  0  0  0  0  0
   -5.7845   15.9222  -34.1370 H   0  0  0  0  0  0  0  0  0  0  0  0
   -3.6579   15.1325  -35.1463 H   0  0  0  0  0  0  0  0  0  0  0  0
   -1.7000   16.6566  -35.3156 H   0  0  0  0  0  0  0  0  0  0  0  0
   -1.8618   18.9985  -34.4980 H   0  0  0  0  0  0  0  0  0  0  0  0
   -9.2283   19.1841  -32.6521 H   0  0  0  0  0  0  0  0  0  0  0  0
  -10.8518   20.9486  -31.9085 H   0  0  0  0  0  0  0  0  0  0  0  0
  -10.0410   23.2427  -31.3354 H   0  0  0  0  0  0  0  0  0  0  0  0
   -7.6045   23.8074  -31.5546 H   0  0  0  0  0  0  0  0  0  0  0  0
   -5.4400   22.7112  -33.2226 H   0  0  0  0  0  0  0  0  0  0  0  0
   -5.0173   22.3059  -31.5881 H   0  0  0  0  0  0  0  0  0  0  0  0
  1  2  1  0
  2  3  1  0
  3  4  1  0
  4  5  1  0
  5  6  1  0
  6  7  1  0
  7  8  1  0
  8  9  1  0
  9 10  1  0
 10 11  1  0
 11 12  2  0
 12 13  1  0
 13 14  2  0
 14 15  1  0
 14 16  1  0
 16 17  2  0
 17 18  1  0
 18 19  2  0
 19 20  1  0
 20 21  2  0
 13 22  1  0
 22 23  2  0
 23 24  1  0
 24 25  2  0
 25 26  1  0
 26 27  2  0
 27 28  1  0
 21 11  1  0
 27 22  1  0
 28 12  1  0
 21 16  1  0
  1 29  1  0
  1 30  1  0
  1 31  1  0
  2 32  1  0
  2 33  1  0
  3 34  1  0
  3 35  1  0
  4 36  1  0
  4 37  1  0
  5 38  1  0
  5 39  1  0
  7 40  1  0
  7 41  1  0
  8 42  1  0
  8 43  1  0
  9 44  1  0
  9 45  1  0
 10 46  1  0
 15 47  1  0
 15 48  1  0
 15 49  1  0
 17 50  1  0
 18 51  1  0
 19 52  1  0
 20 53  1  0
 23 54  1  0
 24 55  1  0
 25 56  1  0
 26 57  1  0
 28 58  1  0
 28 59  1  0
M  CHG  2   3   1  14   1
M  END
>  <UniqueID>  (10) 
10

>  <SMILES>  (10) 
CC[NH2+]CCOCCCNc1c2c([n+](C)c3ccccc13)-c1ccccc1C2

>  <Energy>  (10) 
99.92807683818197

>  <Genealogy>  (10) 
CC[NH2+]CCOCCCNc1c2c([n+](C)c3ccccc13)-c1ccccc1C2 (protonated)
CC[NH2+]CCOCCCNc1c2c([n+](C)c3ccccc13)-c1ccccc1C2 (3D coordinates assigned)
CC[NH2+]CCOCCCNc1c2c([n+](C)c3ccccc13)-c1ccccc1C2 (nonaromatic ring conformer: 99.92807683818197 kcal/mol)

>  <smiles>  (10) 
CCNCCOCCCNc1c2c([n+](C)c3ccccc13)-c1ccccc1C2

>  <score_type>  (10) 
oracle

>  <origin>  (10) 
adg

>  <m_score__min__energy>  (10) 
-8.6199999999999992

>  <m_primary>  (10) 
energy

$$$$
10:0
     RDKit          3D

 69 72  0  0  0  0  0  0  0  0999 V2000
    2.7800   20.6940  -36.8000 C   0  0  0  0  0  0  0  0  0  0  0  0
    1.5930   21.2480  -36.0740 C   0  0  0  0  0  0  0  0  0  0  0  0
    0.4930   20.5610  -35.5820 C   0  0  0  0  0  0  0  0  0  0  0  0
    0.1840   19.1660  -35.7070 N   0  0  0  0  0  0  0  0  0  0  0  0
   -0.3960   18.3620  -34.6290 C   0  0  0  0  0  0  0  0  0  0  0  0
    0.4030   18.5210  -33.3270 C   0  0  0  0  0  0  0  0  0  0  0  0
   -0.4610   18.7000  -32.2210 O   0  0  0  0  0  0  0  0  0  0  0  0
   -1.8200   18.7200  -32.6190 C   0  0  0  0  0  0  0  0  0  0  0  0
   -2.2920   20.1630  -32.7090 C   0  0  0  0  0  0  0  0  0  0  0  0
   -3.3050   20.2670  -33.7030 O   0  0  0  0  0  0  0  0  0  0  0  0
   -4.6550   20.0920  -33.3960 C   0  0  0  0  0  0  0  0  0  0  0  0
   -5.3040   18.8930  -33.7280 C   0  0  0  0  0  0  0  0  0  0  0  0
   -4.3580   17.4710  -34.5950 Br  0  0  0  0  0  0  0  0  0  0  0  0
   -6.6510   18.7110  -33.4050 C   0  0  0  0  0  0  0  0  0  0  0  0
   -7.3700   19.7180  -32.7390 C   0  0  0  0  0  0  0  0  0  0  0  0
   -8.7550   19.5190  -32.3980 N   0  0  0  0  0  0  0  0  0  0  0  0
   -9.1480   18.4280  -31.9360 O   0  0  0  0  0  0  0  0  0  0  0  0
   -9.6720   20.5280  -32.5850 O   0  0  0  0  0  0  0  0  0  0  0  0
   -6.7140   20.9160  -32.4020 C   0  0  0  0  0  0  0  0  0  0  0  0
   -5.3620   21.1110  -32.7270 C   0  0  0  0  0  0  0  0  0  0  0  0
   -4.6710   22.3980  -32.3400 C   0  0  0  0  0  0  0  0  0  0  0  0
   -5.3410   23.0210  -31.1790 N   0  0  0  0  0  0  0  0  0  0  0  0
   -4.3410   23.4590  -30.1930 C   0  0  0  0  0  0  0  0  0  0  0  0
   -6.1570   24.1720  -31.6020 C   0  0  0  0  0  0  0  0  0  0  0  0
   -0.3020   21.4870  -34.9350 C   0  0  0  0  0  0  0  0  0  0  0  0
    0.2450   22.6760  -35.0400 O   0  0  0  0  0  0  0  0  0  0  0  0
    1.3700   22.5680  -35.7140 C   0  0  0  0  0  0  0  0  0  0  0  0
    2.2140   23.6790  -36.0510 N   0  0  0  0  0  0  0  0  0  0  0  0
    1.7100   24.9600  -36.4670 C   0  0  0  0  0  0  0  0  0  0  0  0
    2.1930   25.5970  -37.6250 C   0  0  0  0  0  0  0  0  0  0  0  0
    1.6840   26.8380  -38.0170 C   0  0  0  0  0  0  0  0  0  0  0  0
    0.6740   27.4570  -37.2670 C   0  0  0  0  0  0  0  0  0  0  0  0
    0.1590   28.7040  -37.6490 C   0  0  0  0  0  0  0  0  0  0  0  0
   -0.8530   29.3060  -36.8960 C   0  0  0  0  0  0  0  0  0  0  0  0
   -1.3610   28.6670  -35.7620 C   0  0  0  0  0  0  0  0  0  0  0  0
   -0.8570   27.4240  -35.3700 C   0  0  0  0  0  0  0  0  0  0  0  0
    0.1630   26.8100  -36.1150 C   0  0  0  0  0  0  0  0  0  0  0  0
    0.6810   25.5650  -35.7290 C   0  0  0  0  0  0  0  0  0  0  0  0
    3.5262   20.3457  -36.0707 H   0  0  0  0  0  0  0  0  0  0  0  0
    2.4630   19.8508  -37.4313 H   0  0  0  0  0  0  0  0  0  0  0  0
    3.2227   21.4785  -37.4313 H   0  0  0  0  0  0  0  0  0  0  0  0
    0.5790   18.6540  -36.5290 H   0  0  0  0  0  0  0  0  0  0  0  0
   -1.4324   18.6876  -34.4562 H   0  0  0  0  0  0  0  0  0  0  0  0
   -0.3671   17.3040  -34.9288 H   0  0  0  0  0  0  0  0  0  0  0  0
    1.0116   17.6189  -33.1659 H   0  0  0  0  0  0  0  0  0  0  0  0
    1.0464   19.4087  -33.4166 H   0  0  0  0  0  0  0  0  0  0  0  0
   -1.9229   18.2370  -33.6019 H   0  0  0  0  0  0  0  0  0  0  0  0
   -2.4296   18.1764  -31.8822 H   0  0  0  0  0  0  0  0  0  0  0  0
   -2.6983   20.4777  -31.7364 H   0  0  0  0  0  0  0  0  0  0  0  0
   -1.4448   20.8110  -32.9781 H   0  0  0  0  0  0  0  0  0  0  0  0
   -7.1535   17.7704  -33.6746 H   0  0  0  0  0  0  0  0  0  0  0  0
   -7.2668   21.7094  -31.8777 H   0  0  0  0  0  0  0  0  0  0  0  0
   -3.6242   22.1820  -32.0800 H   0  0  0  0  0  0  0  0  0  0  0  0
   -4.7166   23.0940  -33.1906 H   0  0  0  0  0  0  0  0  0  0  0  0
   -4.7285   23.2893  -29.1776 H   0  0  0  0  0  0  0  0  0  0  0  0
   -3.4130   22.8849  -30.3321 H   0  0  0  0  0  0  0  0  0  0  0  0
   -4.1337   24.5303  -30.3321 H   0  0  0  0  0  0  0  0  0  0  0  0
   -6.5324   24.7015  -30.7139 H   0  0  0  0  0  0  0  0  0  0  0  0
   -5.5413   24.8565  -32.2040 H   0  0  0  0  0  0  0  0  0  0  0  0
   -7.0067   23.8176  -32.2040 H   0  0  0  0  0  0  0  0  0  0  0  0
   -1.2447   21.2635  -34.4140 H   0  0  0  0  0  0  0  0  0  0  0  0
    3.2410   23.5090  -36.1330 H   0  0  0  0  0  0  0  0  0  0  0  0
    2.9774   25.1143  -38.2264 H   0  0  0  0  0  0  0  0  0  0  0  0
    2.0775   27.3314  -38.9180 H   0  0  0  0  0  0  0  0  0  0  0  0
    0.5523   29.2096  -38.5433 H   0  0  0  0  0  0  0  0  0  0  0  0
   -1.2509   30.2863  -37.1972 H   0  0  0  0  0  0  0  0  0  0  0  0
   -2.1603   29.1440  -35.1759 H   0  0  0  0  0  0  0  0  0  0  0  0
   -1.2600   26.9254  -34.4761 H   0  0  0  0  0  0  0  0  0  0  0  0
    0.2772   25.0584  -34.8400 H   0  0  0  0  0  0  0  0  0  0  0  0
  1  2  1  0
  2  3  1  0
  3  4  1  0
  4  5  1  0
  5  6  1  0
  6  7  1  0
  7  8  1  0
  8  9  1  0
  9 10  1  0
 10 11  1  0
 11 12  2  0
 12 13  1  0
 12 14  1  0
 14 15  2  0
 15 16  1  0
 16 17  2  0
 16 18  1  0
 15 19  1  0
 19 20  2  0
 20 21  1  0
 21 22  1  0
 22 23  1  0
 22 24  1  0
  3 25  2  0
 25 26  1  0
 26 27  1  0
 27 28  1  0
 28 29  1  0
 29 30  2  0
 30 31  1  0
 31 32  2  0
 32 33  1  0
 33 34  2  0
 34 35  1  0
 35 36  2  0
 36 37  1  0
 37 38  2  0
 27  2  2  0
 38 29  1  0
 20 11  1  0
 37 32  1  0
  1 39  1  0
  1 40  1  0
  1 41  1  0
  4 42  1  0
  5 43  1  0
  5 44  1  0
  6 45  1  0
  6 46  1  0
  8 47  1  0
  8 48  1  0
  9 49  1  0
  9 50  1  0
 14 51  1  0
 19 52  1  0
 21 53  1  0
 21 54  1  0
 23 55  1  0
 23 56  1  0
 23 57  1  0
 24 58  1  0
 24 59  1  0
 24 60  1  0
 25 61  1  0
 28 62  1  0
 30 63  1  0
 31 64  1  0
 33 65  1  0
 34 66  1  0
 35 67  1  0
 36 68  1  0
 38 69  1  0
M  CHG  2  16   1  18  -1
M  END
>  <UniqueID>  (11) 
11

>  <SMILES>  (11) 
Cc1c(NCCOCCOc2c(Br)cc([N+](=O)[O-])cc2CN(C)C)coc1Nc1ccc2ccccc2c1

>  <Energy>  (11) 
113.35341082454997

>  <Genealogy>  (11) 
Cc1c(NCCOCCOc2c(Br)cc([N+](=O)[O-])cc2CN(C)C)coc1Nc1ccc2ccccc2c1 (3D coordinates assigned)
Cc1c(NCCOCCOc2c(Br)cc([N+](=O)[O-])cc2CN(C)C)coc1Nc1ccc2ccccc2c1 (optimized conformer: 113.35341082454997 kcal/mol)

>  <smiles>  (11) 
Cc1c(NCCOCCOc2c(Br)cc([N+](=O)[O-])cc2CN(C)C)coc1Nc1ccc2ccccc2c1

>  <score_type>  (11) 
oracle

>  <origin>  (11) 
adg

>  <m_score__min__energy>  (11) 
-9.4000000000000004

>  <m_primary>  (11) 
energy

$$$$
11:0
     RDKit          3D

 79 83  0  0  0  0  0  0  0  0999 V2000
   -0.2550   21.1650  -34.1630 C   0  0  0  0  0  0  0  0  0  0  0  0
   -1.7470   20.9920  -33.8450 C   0  0  0  0  0  0  0  0  0  0  0  0
   -2.0030   19.7830  -33.0140 N   0  0  0  0  0  0  0  0  0  0  0  0
   -0.7220   19.2300  -32.4930 C   0  0  0  0  0  0  0  0  0  0  0  0
   -0.5230   19.5500  -31.0070 C   0  0  0  0  0  0  0  0  0  0  0  0
   -2.7200   18.7470  -33.8060 C   0  0  0  0  0  0  0  0  0  0  0  0
   -4.2360   19.0130  -33.8860 C   0  0  0  0  0  0  0  0  0  0  0  0
   -4.7960   19.1340  -32.5420 N   0  0  0  0  0  0  0  0  0  0  0  0
   -5.3500   20.3600  -32.0330 C   0  0  0  0  0  0  0  0  0  0  0  0
   -6.7450   20.6110  -32.0420 C   0  0  0  0  0  0  0  0  0  0  0  0
   -7.6440   19.6790  -32.6020 C   0  0  0  0  0  0  0  0  0  0  0  0
   -9.0200   19.9060  -32.5590 C   0  0  0  0  0  0  0  0  0  0  0  0
   -9.5220   21.0590  -31.9640 C   0  0  0  0  0  0  0  0  0  0  0  0
   -8.6560   22.0110  -31.4290 C   0  0  0  0  0  0  0  0  0  0  0  0
   -7.2540   21.8330  -31.4800 C   0  0  0  0  0  0  0  0  0  0  0  0
   -6.3840   22.7910  -30.9810 N   0  0  0  0  0  0  0  0  0  0  0  0
   -6.8350   24.1550  -30.6680 C   0  0  0  0  0  0  0  0  0  0  0  0
   -5.0590   22.4590  -30.8720 C   0  0  0  0  0  0  0  0  0  0  0  0
   -4.5400   21.3020  -31.4110 C   0  0  0  0  0  0  0  0  0  0  0  0
   -3.2410   21.2240  -31.2070 O   0  0  0  0  0  0  0  0  0  0  0  0
   -2.8940   22.2940  -30.5270 C   0  0  0  0  0  0  0  0  0  0  0  0
   -1.6190   22.6090  -30.0700 C   0  0  0  0  0  0  0  0  0  0  0  0
   -1.4550   23.7800  -29.2950 C   0  0  0  0  0  0  0  0  0  0  0  0
   -0.2040   24.1860  -28.8120 O   0  0  0  0  0  0  0  0  0  0  0  0
    0.5270   23.5070  -27.7960 C   0  0  0  0  0  0  0  0  0  0  0  0
   -0.1530   23.6350  -26.4140 C   0  0  0  0  0  0  0  0  0  0  0  0
    0.0460   24.9300  -25.6750 N   0  0  0  0  0  0  0  0  0  0  0  0
    1.5120   25.0410  -25.4180 C   0  0  0  0  0  0  0  0  0  0  0  0
   -0.6640   24.8990  -24.3580 C   0  0  0  0  0  0  0  0  0  0  0  0
   -0.4930   26.2010  -23.5490 C   0  0  0  0  0  0  0  0  0  0  0  0
   -0.6530   27.4650  -24.4130 C   0  0  0  0  0  0  0  0  0  0  0  0
   -1.2330   27.1560  -25.7960 C   0  0  0  0  0  0  0  0  0  0  0  0
   -0.3790   26.1000  -26.5320 C   0  0  0  0  0  0  0  0  0  0  0  0
   -2.5820   24.5700  -28.9780 C   0  0  0  0  0  0  0  0  0  0  0  0
   -3.8630   24.2280  -29.4470 C   0  0  0  0  0  0  0  0  0  0  0  0
   -3.9840   23.1010  -30.2660 C   0  0  0  0  0  0  0  0  0  0  0  0
    0.3147   21.2311  -33.2243 H   0  0  0  0  0  0  0  0  0  0  0  0
    0.0981   20.3018  -34.7462 H   0  0  0  0  0  0  0  0  0  0  0  0
   -0.1088   22.0861  -34.7462 H   0  0  0  0  0  0  0  0  0  0  0  0
   -2.0991   21.8796  -33.2989 H   0  0  0  0  0  0  0  0  0  0  0  0
   -2.2857   20.8711  -34.7964 H   0  0  0  0  0  0  0  0  0  0  0  0
   -2.6070   20.0560  -32.2020 H   0  0  0  0  0  0  0  0  0  0  0  0
   -0.7269   18.1378  -32.6239 H   0  0  0  0  0  0  0  0  0  0  0  0
    0.1025   19.6933  -33.0547 H   0  0  0  0  0  0  0  0  0  0  0  0
   -1.0063   18.7729  -30.3967 H   0  0  0  0  0  0  0  0  0  0  0  0
    0.5527   19.5791  -30.7790 H   0  0  0  0  0  0  0  0  0  0  0  0
   -0.9727   20.5277  -30.7790 H   0  0  0  0  0  0  0  0  0  0  0  0
   -2.3091   18.7353  -34.8263 H   0  0  0  0  0  0  0  0  0  0  0  0
   -2.5754   17.7800  -33.3020 H   0  0  0  0  0  0  0  0  0  0  0  0
   -4.4128   19.9471  -34.4393 H   0  0  0  0  0  0  0  0  0  0  0  0
   -4.7221   18.1733  -34.4044 H   0  0  0  0  0  0  0  0  0  0  0  0
   -4.6600   18.3370  -31.8810 H   0  0  0  0  0  0  0  0  0  0  0  0
   -7.2567   18.7654  -33.0767 H   0  0  0  0  0  0  0  0  0  0  0  0
   -9.7106   19.1704  -32.9973 H   0  0  0  0  0  0  0  0  0  0  0  0
  -10.6090   21.2203  -31.9155 H   0  0  0  0  0  0  0  0  0  0  0  0
   -9.0698   22.9156  -30.9594 H   0  0  0  0  0  0  0  0  0  0  0  0
   -6.8782   24.2855  -29.5766 H   0  0  0  0  0  0  0  0  0  0  0  0
   -6.1294   24.8819  -31.0966 H   0  0  0  0  0  0  0  0  0  0  0  0
   -7.8349   24.3180  -31.0966 H   0  0  0  0  0  0  0  0  0  0  0  0
   -0.7600   21.9636  -30.3055 H   0  0  0  0  0  0  0  0  0  0  0  0
    0.5976   22.4416  -28.0603 H   0  0  0  0  0  0  0  0  0  0  0  0
    1.5245   23.9658  -27.7291 H   0  0  0  0  0  0  0  0  0  0  0  0
   -1.2346   23.4996  -26.5620 H   0  0  0  0  0  0  0  0  0  0  0  0
    0.3271   22.8699  -25.7862 H   0  0  0  0  0  0  0  0  0  0  0  0
    1.6941   25.0548  -24.3333 H   0  0  0  0  0  0  0  0  0  0  0  0
    2.0290   24.1794  -25.8657 H   0  0  0  0  0  0  0  0  0  0  0  0
    1.8934   25.9706  -25.8657 H   0  0  0  0  0  0  0  0  0  0  0  0
   -1.7367   24.7392  -24.5420 H   0  0  0  0  0  0  0  0  0  0  0  0
   -0.2224   24.0839  -23.7658 H   0  0  0  0  0  0  0  0  0  0  0  0
   -1.2508   26.2217  -22.7520 H   0  0  0  0  0  0  0  0  0  0  0  0
    0.5284   26.2058  -23.1408 H   0  0  0  0  0  0  0  0  0  0  0  0
   -1.3265   28.1640  -23.8954 H   0  0  0  0  0  0  0  0  0  0  0  0
    0.3463   27.9015  -24.5578 H   0  0  0  0  0  0  0  0  0  0  0  0
   -2.2571   26.7721  -25.6788 H   0  0  0  0  0  0  0  0  0  0  0  0
   -1.2337   28.0817  -26.3902 H   0  0  0  0  0  0  0  0  0  0  0  0
   -0.9662   25.7115  -27.3771 H   0  0  0  0  0  0  0  0  0  0  0  0
    0.5440   26.6085  -26.8474 H   0  0  0  0  0  0  0  0  0  0  0  0
   -2.4558   25.4672  -28.3542 H   0  0  0  0  0  0  0  0  0  0  0  0
   -4.7438   24.8293  -29.1775 H   0  0  0  0  0  0  0  0  0  0  0  0
  1  2  1  0
  2  3  1  0
  3  4  1  0
  4  5  1  0
  3  6  1  0
  6  7  1  0
  7  8  1  0
  8  9  1  0
  9 10  2  0
 10 11  1  0
 11 12  2  0
 12 13  1  0
 13 14  2  0
 14 15  1  0
 15 16  2  0
 16 17  1  0
 16 18  1  0
 18 19  2  0
 19 20  1  0
 20 21  1  0
 21 22  2  0
 22 23  1  0
 23 24  1  0
 24 25  1  0
 25 26  1  0
 26 27  1  0
 27 28  1  0
 27 29  1  0
 29 30  1  0
 30 31  1  0
 31 32  1  0
 32 33  1  0
 23 34  2  0
 34 35  1  0
 35 36  2  0
 19  9  1  0
 36 21  1  0
 15 10  1  0
 36 18  1  0
 33 27  1  0
  1 37  1  0
  1 38  1  0
  1 39  1  0
  2 40  1  0
  2 41  1  0
  3 42  1  0
  4 43  1  0
  4 44  1  0
  5 45  1  0
  5 46  1  0
  5 47  1  0
  6 48  1  0
  6 49  1  0
  7 50  1  0
  7 51  1  0
  8 52  1  0
 11 53  1  0
 12 54  1  0
 13 55  1  0
 14 56  1  0
 17 57  1  0
 17 58  1  0
 17 59  1  0
 22 60  1  0
 25 61  1  0
 25 62  1  0
 26 63  1  0
 26 64  1  0
 28 65  1  0
 28 66  1  0
 28 67  1  0
 29 68  1  0
 29 69  1  0
 30 70  1  0
 30 71  1  0
 31 72  1  0
 31 73  1  0
 32 74  1  0
 32 75  1  0
 33 76  1  0
 33 77  1  0
 34 78  1  0
 35 79  1  0
M  CHG  3   3   1  16   1  27   1
M  END
>  <UniqueID>  (12) 
12

>  <SMILES>  (12) 
CC[NH+](CC)CCNc1c2ccccc2[n+](C)c2c1oc1cc(OCC[N+]3(C)CCCCC3)ccc12

>  <Energy>  (12) 
162.35580647083626

>  <Genealogy>  (12) 
CC[NH+](CC)CCNc1c2ccccc2[n+](C)c2c1oc1cc(OCC[N+]3(C)CCCCC3)ccc12 (protonated)
CC[NH+](CC)CCNc1c2ccccc2[n+](C)c2c1oc1cc(OCC[N+]3(C)CCCCC3)ccc12 (3D coordinates assigned)
CC[NH+](CC)CCNc1c2ccccc2[n+](C)c2c1oc1cc(OCC[N+]3(C)CCCCC3)ccc12 (nonaromatic ring conformer: 162.35580647083626 kcal/mol)

>  <smiles>  (12) 
CCN(CC)CCNc1c2ccccc2[n+](C)c2c1oc1cc(OCC[N+]3(C)CCCCC3)ccc12

>  <score_type>  (12) 
oracle

>  <origin>  (12) 
adg

>  <m_score__min__energy>  (12) 
-7.0199999999999996

>  <m_primary>  (12) 
energy

$$$$
12:0
     RDKit          3D

 33 34  0  0  0  0  0  0  0  0999 V2000
   -8.4075   17.3446  -32.1175 H   0  0  0  0  0  0  0  0  0  0  0  0
   -8.4960   18.4320  -31.9770 C   0  0  0  0  0  0  0  0  0  0  0  0
   -8.5930   19.6240  -31.8230 C   0  0  0  0  0  0  0  0  0  0  0  0
   -8.7110   21.0700  -31.6340 C   0  0  0  0  0  0  0  0  0  0  0  0
   -9.6963   21.4105  -31.9851 H   0  0  0  0  0  0  0  0  0  0  0  0
   -8.6071   21.3194  -30.5677 H   0  0  0  0  0  0  0  0  0  0  0  0
   -7.6610   21.7270  -32.4040 N   0  0  0  0  0  0  0  0  0  0  0  0
   -6.3960   21.9810  -32.1640 C   0  0  0  0  0  0  0  0  0  0  0  0
   -5.2950   21.2390  -32.7160 C   0  0  0  0  0  0  0  0  0  0  0  0
   -5.4820   19.9560  -33.5020 C   0  0  0  0  0  0  0  0  0  0  0  0
   -5.6048   19.1137  -32.8052 H   0  0  0  0  0  0  0  0  0  0  0  0
   -6.3772   20.0413  -34.1355 H   0  0  0  0  0  0  0  0  0  0  0  0
   -4.5997   19.7822  -34.1355 H   0  0  0  0  0  0  0  0  0  0  0  0
   -3.9760   21.7220  -32.4870 C   0  0  0  0  0  0  0  0  0  0  0  0
   -2.7530   21.0750  -33.0790 C   0  0  0  0  0  0  0  0  0  0  0  0
   -2.0944   20.7266  -32.2698 H   0  0  0  0  0  0  0  0  0  0  0  0
   -3.0553   20.2189  -33.7000 H   0  0  0  0  0  0  0  0  0  0  0  0
   -2.2153   21.8066  -33.7000 H   0  0  0  0  0  0  0  0  0  0  0  0
   -3.7740   22.8010  -31.6940 N   0  0  0  0  0  0  0  0  0  0  0  0
   -4.7810   23.4820  -31.1020 C   0  0  0  0  0  0  0  0  0  0  0  0
   -4.4760   24.5820  -30.2810 C   0  0  0  0  0  0  0  0  0  0  0  0
   -3.1290   24.9300  -30.0930 O   0  0  0  0  0  0  0  0  0  0  0  0
   -2.1990   24.1730  -29.3250 C   0  0  0  0  0  0  0  0  0  0  0  0
   -2.3933   24.3312  -28.2539 H   0  0  0  0  0  0  0  0  0  0  0  0
   -2.3096   23.1050  -29.5639 H   0  0  0  0  0  0  0  0  0  0  0  0
   -1.1757   24.4981  -29.5639 H   0  0  0  0  0  0  0  0  0  0  0  0
   -5.5220   25.3000  -29.6770 C   0  0  0  0  0  0  0  0  0  0  0  0
   -5.2938   26.1610  -29.0316 H   0  0  0  0  0  0  0  0  0  0  0  0
   -6.8480   24.9260  -29.8920 C   0  0  0  0  0  0  0  0  0  0  0  0
   -7.6611   25.4942  -29.4165 H   0  0  0  0  0  0  0  0  0  0  0  0
   -7.1480   23.8350  -30.7070 C   0  0  0  0  0  0  0  0  0  0  0  0
   -8.1978   23.5503  -30.8707 H   0  0  0  0  0  0  0  0  0  0  0  0
   -6.1170   23.0910  -31.3250 C   0  0  0  0  0  0  0  0  0  0  0  0
  1  2  1  0
  2  3  3  0
  3  4  1  0
  4  5  1  0
  4  6  1  0
  4  7  1  0
  7  8  2  0
  8  9  1  0
  9 10  1  0
 10 11  1  0
 10 12  1  0
 10 13  1  0
  9 14  2  0
 14 15  1  0
 15 16  1  0
 15 17  1  0
 15 18  1  0
 14 19  1  0
 19 20  1  0
 20 21  2  0
 21 22  1  0
 22 23  1  0
 23 24  1  0
 23 25  1  0
 23 26  1  0
 21 27  1  0
 27 28  1  0
 27 29  2  0
 29 30  1  0
 29 31  1  0
 31 32  1  0
 31 33  2  0
 33  8  1  0
 33 20  1  0
M  CHG  1  19  -1
M  END
>  <UniqueID>  (13) 
13

>  <SMILES>  (13) 
C#CC/N=c1\c(C)c(C)[n-]c2c(OC)cccc12

>  <Energy>  (13) 
48.46720874696125

>  <Genealogy>  (13) 
C#CCN=c1c(C)c(C)[n-]c2c(OC)cccc12 (protonated)
C#CC/N=c1\c(C)c(C)[n-]c2c(OC)cccc12 (cis-trans isomerization)
C#CC/N=c1\c(C)c(C)[n-]c2c(OC)cccc12 (3D coordinates assigned)
C#CC/N=c1\c(C)c(C)[n-]c2c(OC)cccc12 (optimized conformer: 48.46720874696125 kcal/mol)

>  <smiles>  (13) 
C#CCN=c1c(C)c(C)[nH]c2c(OC)cccc12

>  <score_type>  (13) 
oracle

>  <origin>  (13) 
adg

>  <m_score__min__energy>  (13) 
-7.8499999999999996

>  <m_primary>  (13) 
energy

$$$$
13:0
     RDKit          3D

 50 51  0  0  0  0  0  0  0  0999 V2000
   -2.2890   20.1770  -32.6070 C   0  0  0  0  0  0  0  0  0  0  0  0
   -1.7590   21.5190  -32.1010 C   0  0  0  0  0  0  0  0  0  0  0  0
   -2.4790   21.9760  -30.8880 N   0  0  0  0  0  0  0  0  0  0  0  0
   -3.0860   20.8730  -30.1180 C   0  0  0  0  0  0  0  0  0  0  0  0
   -3.0150   21.0710  -28.5910 C   0  0  0  0  0  0  0  0  0  0  0  0
   -3.7380   22.3370  -28.1090 C   0  0  0  0  0  0  0  0  0  0  0  0
   -3.4060   23.4850  -28.9860 N   0  0  0  0  0  0  0  0  0  0  0  0
   -2.1090   24.0760  -28.6070 C   0  0  0  0  0  0  0  0  0  0  0  0
   -4.4740   24.5150  -28.9900 C   0  0  0  0  0  0  0  0  0  0  0  0
   -5.3770   24.3340  -30.2100 C   0  0  0  0  0  0  0  0  0  0  0  0
   -4.6170   23.8280  -31.3450 N   0  0  0  0  0  0  0  0  0  0  0  0
   -5.1110   22.8000  -32.2090 C   0  0  0  0  0  0  0  0  0  0  0  0
   -4.3530   22.2770  -33.0710 O   0  0  0  0  0  0  0  0  0  0  0  0
   -6.5270   22.3870  -32.1330 C   0  0  0  0  0  0  0  0  0  0  0  0
   -7.5070   23.3900  -32.1170 C   0  0  0  0  0  0  0  0  0  0  0  0
   -8.8560   23.0670  -31.9740 C   0  0  0  0  0  0  0  0  0  0  0  0
   -9.2510   21.7360  -31.8490 C   0  0  0  0  0  0  0  0  0  0  0  0
   -8.2980   20.7100  -31.8860 C   0  0  0  0  0  0  0  0  0  0  0  0
   -8.7030   19.3710  -31.7680 C   0  0  0  0  0  0  0  0  0  0  0  0
   -7.7610   18.3440  -31.8320 C   0  0  0  0  0  0  0  0  0  0  0  0
   -6.4130   18.6390  -32.0300 C   0  0  0  0  0  0  0  0  0  0  0  0
   -5.9930   19.9670  -32.1450 C   0  0  0  0  0  0  0  0  0  0  0  0
   -6.9210   21.0250  -32.0470 C   0  0  0  0  0  0  0  0  0  0  0  0
   -2.5422   19.5360  -31.7497 H   0  0  0  0  0  0  0  0  0  0  0  0
   -3.1884   20.3447  -33.2177 H   0  0  0  0  0  0  0  0  0  0  0  0
   -1.5177   19.6849  -33.2177 H   0  0  0  0  0  0  0  0  0  0  0  0
   -0.6908   21.4119  -31.8613 H   0  0  0  0  0  0  0  0  0  0  0  0
   -1.9149   22.2672  -32.8921 H   0  0  0  0  0  0  0  0  0  0  0  0
   -3.2620   22.6000  -31.1950 H   0  0  0  0  0  0  0  0  0  0  0  0
   -1.8750   22.5600  -30.2660 H   0  0  0  0  0  0  0  0  0  0  0  0
   -4.1436   20.7876  -30.4083 H   0  0  0  0  0  0  0  0  0  0  0  0
   -2.5121   19.9641  -30.3514 H   0  0  0  0  0  0  0  0  0  0  0  0
   -3.4757   20.1989  -28.1040 H   0  0  0  0  0  0  0  0  0  0  0  0
   -1.9532   21.1808  -28.3255 H   0  0  0  0  0  0  0  0  0  0  0  0
   -4.8243   22.1653  -28.1318 H   0  0  0  0  0  0  0  0  0  0  0  0
   -3.4138   22.5653  -27.0830 H   0  0  0  0  0  0  0  0  0  0  0  0
   -2.0291   24.1124  -27.5105 H   0  0  0  0  0  0  0  0  0  0  0  0
   -1.2929   23.4609  -29.0139 H   0  0  0  0  0  0  0  0  0  0  0  0
   -2.0377   25.0955  -29.0139 H   0  0  0  0  0  0  0  0  0  0  0  0
   -5.0761   24.4177  -28.0746 H   0  0  0  0  0  0  0  0  0  0  0  0
   -4.0111   25.5120  -29.0307 H   0  0  0  0  0  0  0  0  0  0  0  0
   -6.1767   23.6198  -29.9641 H   0  0  0  0  0  0  0  0  0  0  0  0
   -5.8057   25.3105  -30.4796 H   0  0  0  0  0  0  0  0  0  0  0  0
   -7.2081   24.4437  -32.2184 H   0  0  0  0  0  0  0  0  0  0  0  0
   -9.6118   23.8661  -31.9598 H   0  0  0  0  0  0  0  0  0  0  0  0
  -10.3155   21.4904  -31.7208 H   0  0  0  0  0  0  0  0  0  0  0  0
   -9.7668   19.1308  -31.6246 H   0  0  0  0  0  0  0  0  0  0  0  0
   -8.0831   17.2976  -31.7258 H   0  0  0  0  0  0  0  0  0  0  0  0
   -5.6774   17.8238  -32.0959 H   0  0  0  0  0  0  0  0  0  0  0  0
   -4.9290   20.1893  -32.3135 H   0  0  0  0  0  0  0  0  0  0  0  0
  1  2  1  0
  2  3  1  0
  3  4  1  0
  4  5  1  0
  5  6  1  0
  6  7  1  0
  7  8  1  0
  7  9  1  0
  9 10  1  0
 10 11  1  0
 11 12  1  0
 12 13  2  0
 12 14  1  0
 14 15  2  0
 15 16  1  0
 16 17  2  0
 17 18  1  0
 18 19  2  0
 19 20  1  0
 20 21  2  0
 21 22  1  0
 22 23  2  0
 23 14  1  0
 23 18  1  0
  1 24  1  0
  1 25  1  0
  1 26  1  0
  2 27  1  0
  2 28  1  0
  3 29  1  0
  3 30  1  0
  4 31  1  0
  4 32  1  0
  5 33  1  0
  5 34  1  0
  6 35  1  0
  6 36  1  0
  8 37  1  0
  8 38  1  0
  8 39  1  0
  9 40  1  0
  9 41  1  0
 10 42  1  0
 10 43  1  0
 15 44  1  0
 16 45  1  0
 17 46  1  0
 19 47  1  0
 20 48  1  0
 21 49  1  0
 22 50  1  0
M  CHG  2   3   1  11  -1
M  END
>  <UniqueID>  (14) 
14

>  <SMILES>  (14) 
CC[NH2+]CCCN(C)CC[N-]C(=O)c1cccc2ccccc12

>  <Energy>  (14) 
53.01547965517351

>  <Genealogy>  (14) 
CC[NH2+]CCCN(C)CC[N-]C(=O)c1cccc2ccccc12 (protonated)
CC[NH2+]CCCN(C)CC[N-]C(=O)c1cccc2ccccc12 (3D coordinates assigned)
CC[NH2+]CCCN(C)CC[N-]C(=O)c1cccc2ccccc12 (optimized conformer: 53.01547965517351 kcal/mol)

>  <smiles>  (14) 
CCNCCCN(C)CCNC(=O)c1cccc2ccccc12

>  <score_type>  (14) 
oracle

>  <origin>  (14) 
adg

>  <m_score__min__energy>  (14) 
-7.1900000000000004

>  <m_primary>  (14) 
energy

$$$$
14:0
     RDKit          3D

 90 95  0  0  0  0  0  0  0  0999 V2000
   -8.1590   20.3020  -32.2520 C   0  0  0  0  0  0  0  0  0  0  0  0
   -6.6660   20.6270  -32.2470 C   0  0  0  0  0  0  0  0  0  0  0  0
   -5.8540   19.4240  -32.5190 N   0  0  0  0  0  0  0  0  0  0  0  0
   -5.7360   18.5770  -31.3190 C   0  0  0  0  0  0  0  0  0  0  0  0
   -6.2630   18.6540  -33.7210 C   0  0  0  0  0  0  0  0  0  0  0  0
   -7.0630   17.3610  -33.4340 C   0  0  0  0  0  0  0  0  0  0  0  0
   -6.4120   16.1730  -33.9930 N   0  0  0  0  0  0  0  0  0  0  0  0
   -4.9850   16.0730  -34.1680 C   0  0  0  0  0  0  0  0  0  0  0  0
   -4.3220   16.8390  -35.1770 C   0  0  0  0  0  0  0  0  0  0  0  0
   -2.9180   16.8060  -35.3200 C   0  0  0  0  0  0  0  0  0  0  0  0
   -2.1970   15.9990  -34.4440 C   0  0  0  0  0  0  0  0  0  0  0  0
   -2.8380   15.2540  -33.5070 C   0  0  0  0  0  0  0  0  0  0  0  0
   -1.9100   14.5820  -32.7890 C   0  0  0  0  0  0  0  0  0  0  0  0
   -0.6740   14.9310  -33.3210 C   0  0  0  0  0  0  0  0  0  0  0  0
   -0.8610   15.8130  -34.3410 N   0  0  0  0  0  0  0  0  0  0  0  0
    0.1840   16.3810  -35.1920 C   0  0  0  0  0  0  0  0  0  0  0  0
    0.8070   17.6070  -34.5150 C   0  0  0  0  0  0  0  0  0  0  0  0
   -0.2210   18.6140  -34.2230 N   0  0  0  0  0  0  0  0  0  0  0  0
   -0.3530   18.8470  -32.7790 C   0  0  0  0  0  0  0  0  0  0  0  0
   -1.8220   18.7500  -32.3390 C   0  0  0  0  0  0  0  0  0  0  0  0
   -2.7650   19.1930  -33.3800 N   0  0  0  0  0  0  0  0  0  0  0  0
   -2.4080   20.4930  -33.9660 C   0  0  0  0  0  0  0  0  0  0  0  0
   -2.5790   21.6070  -32.9290 C   0  0  0  0  0  0  0  0  0  0  0  0
   -3.4430   21.1780  -31.8280 N   0  0  0  0  0  0  0  0  0  0  0  0
   -3.5490   21.9330  -30.6090 C   0  0  0  0  0  0  0  0  0  0  0  0
   -4.4280   23.0270  -30.5220 C   0  0  0  0  0  0  0  0  0  0  0  0
   -5.3390   23.3050  -31.5620 C   0  0  0  0  0  0  0  0  0  0  0  0
   -6.2350   24.3660  -31.4580 C   0  0  0  0  0  0  0  0  0  0  0  0
   -6.2550   25.1510  -30.3110 C   0  0  0  0  0  0  0  0  0  0  0  0
   -5.3680   24.8900  -29.2670 C   0  0  0  0  0  0  0  0  0  0  0  0
   -4.4180   23.8400  -29.3570 C   0  0  0  0  0  0  0  0  0  0  0  0
   -3.5150   23.5860  -28.3430 N   0  0  0  0  0  0  0  0  0  0  0  0
   -3.2930   24.5920  -27.2790 C   0  0  0  0  0  0  0  0  0  0  0  0
   -2.8010   22.4010  -28.3330 C   0  0  0  0  0  0  0  0  0  0  0  0
   -2.0700   21.9770  -27.1950 C   0  0  0  0  0  0  0  0  0  0  0  0
   -1.3070   20.8100  -27.2220 C   0  0  0  0  0  0  0  0  0  0  0  0
   -1.2660   20.0280  -28.3710 C   0  0  0  0  0  0  0  0  0  0  0  0
   -2.0080   20.3950  -29.4910 C   0  0  0  0  0  0  0  0  0  0  0  0
   -2.7910   21.5680  -29.4840 C   0  0  0  0  0  0  0  0  0  0  0  0
   -2.3100   13.6630  -31.7290 C   0  0  0  0  0  0  0  0  0  0  0  0
   -1.4540   13.1060  -30.9920 O   0  0  0  0  0  0  0  0  0  0  0  0
   -3.7820   13.3220  -31.6150 C   0  0  0  0  0  0  0  0  0  0  0  0
   -4.7400   14.4470  -32.1240 C   0  0  0  0  0  0  0  0  0  0  0  0
   -4.2090   15.2270  -33.3230 C   0  0  0  0  0  0  0  0  0  0  0  0
   -8.5206   20.2233  -31.2161 H   0  0  0  0  0  0  0  0  0  0  0  0
   -8.7067   21.1020  -32.7717 H   0  0  0  0  0  0  0  0  0  0  0  0
   -8.3246   19.3468  -32.7717 H   0  0  0  0  0  0  0  0  0  0  0  0
   -6.4607   21.3805  -33.0217 H   0  0  0  0  0  0  0  0  0  0  0  0
   -6.3973   21.0093  -31.2512 H   0  0  0  0  0  0  0  0  0  0  0  0
   -5.8232   19.2027  -30.4185 H   0  0  0  0  0  0  0  0  0  0  0  0
   -6.5379   17.8241  -31.3213 H   0  0  0  0  0  0  0  0  0  0  0  0
   -4.7588   18.0719  -31.3213 H   0  0  0  0  0  0  0  0  0  0  0  0
   -6.8867   19.3080  -34.3482 H   0  0  0  0  0  0  0  0  0  0  0  0
   -5.3312   18.3343  -34.2105 H   0  0  0  0  0  0  0  0  0  0  0  0
   -7.1550   17.2354  -32.3451 H   0  0  0  0  0  0  0  0  0  0  0  0
   -8.0498   17.4613  -33.9096 H   0  0  0  0  0  0  0  0  0  0  0  0
   -7.0100   15.3560  -34.2390 H   0  0  0  0  0  0  0  0  0  0  0  0
   -4.9181   17.4668  -35.8556 H   0  0  0  0  0  0  0  0  0  0  0  0
   -2.4111   17.3974  -36.0967 H   0  0  0  0  0  0  0  0  0  0  0  0
    0.2994   14.5547  -32.9734 H   0  0  0  0  0  0  0  0  0  0  0  0
    0.9641   15.6248  -35.3639 H   0  0  0  0  0  0  0  0  0  0  0  0
   -0.2596   16.6863  -36.1512 H   0  0  0  0  0  0  0  0  0  0  0  0
    1.2862   17.2964  -33.5748 H   0  0  0  0  0  0  0  0  0  0  0  0
    1.5519   18.0471  -35.1943 H   0  0  0  0  0  0  0  0  0  0  0  0
   -1.1380   18.2410  -34.5670 H   0  0  0  0  0  0  0  0  0  0  0  0
    0.2356   18.0920  -32.2373 H   0  0  0  0  0  0  0  0  0  0  0  0
    0.0156   19.8581  -32.5514 H   0  0  0  0  0  0  0  0  0  0  0  0
   -2.0442   17.7024  -32.0876 H   0  0  0  0  0  0  0  0  0  0  0  0
   -1.9508   19.4162  -31.4733 H   0  0  0  0  0  0  0  0  0  0  0  0
   -3.7370   19.2390  -32.9930 H   0  0  0  0  0  0  0  0  0  0  0  0
   -1.3602   20.4654  -34.2998 H   0  0  0  0  0  0  0  0  0  0  0  0
   -3.0701   20.6946  -34.8210 H   0  0  0  0  0  0  0  0  0  0  0  0
   -1.5916   21.8766  -32.5260 H   0  0  0  0  0  0  0  0  0  0  0  0
   -3.0466   22.4723  -33.4216 H   0  0  0  0  0  0  0  0  0  0  0  0
   -3.9530   20.2700  -31.9060 H   0  0  0  0  0  0  0  0  0  0  0  0
   -5.3419   22.6770  -32.4651 H   0  0  0  0  0  0  0  0  0  0  0  0
   -6.9277   24.5831  -32.2845 H   0  0  0  0  0  0  0  0  0  0  0  0
   -6.9725   25.9805  -30.2266 H   0  0  0  0  0  0  0  0  0  0  0  0
   -5.4055   25.5087  -28.3583 H   0  0  0  0  0  0  0  0  0  0  0  0
   -3.3986   24.1135  -26.2942 H   0  0  0  0  0  0  0  0  0  0  0  0
   -2.2807   25.0113  -27.3763 H   0  0  0  0  0  0  0  0  0  0  0  0
   -4.0348   25.3984  -27.3763 H   0  0  0  0  0  0  0  0  0  0  0  0
   -2.1052   22.5787  -26.2749 H   0  0  0  0  0  0  0  0  0  0  0  0
   -0.7360   20.5073  -26.3319 H   0  0  0  0  0  0  0  0  0  0  0  0
   -0.6471   19.1189  -28.3954 H   0  0  0  0  0  0  0  0  0  0  0  0
   -1.9831   19.7630  -30.3910 H   0  0  0  0  0  0  0  0  0  0  0  0
   -3.9726   12.4133  -32.2048 H   0  0  0  0  0  0  0  0  0  0  0  0
   -3.9937   13.1863  -30.5441 H   0  0  0  0  0  0  0  0  0  0  0  0
   -5.6953   13.9829  -32.4103 H   0  0  0  0  0  0  0  0  0  0  0  0
   -4.8458   15.1681  -31.3001 H   0  0  0  0  0  0  0  0  0  0  0  0
  1  2  1  0
  2  3  1  0
  3  4  1  0
  3  5  1  0
  5  6  1  0
  6  7  1  0
  7  8  1  0
  8  9  2  0
  9 10  1  0
 10 11  2  0
 11 12  1  0
 12 13  1  0
 13 14  2  0
 14 15  1  0
 15 16  1  0
 16 17  1  0
 17 18  1  0
 18 19  1  0
 19 20  1  0
 20 21  1  0
 21 22  1  0
 22 23  1  0
 23 24  1  0
 24 25  1  0
 25 26  1  0
 26 27  2  0
 27 28  1  0
 28 29  2  0
 29 30  1  0
 30 31  2  0
 31 32  1  0
 32 33  1  0
 32 34  2  0
 34 35  1  0
 35 36  2  0
 36 37  1  0
 37 38  2  0
 38 39  1  0
 13 40  1  0
 40 41  2  0
 40 42  1  0
 42 43  1  0
 43 44  1  0
 44  8  1  0
 15 11  1  0
 39 25  2  0
 44 12  2  0
 31 26  1  0
 39 34  1  0
  1 45  1  0
  1 46  1  0
  1 47  1  0
  2 48  1  0
  2 49  1  0
  4 50  1  0
  4 51  1  0
  4 52  1  0
  5 53  1  0
  5 54  1  0
  6 55  1  0
  6 56  1  0
  7 57  1  0
  9 58  1  0
 10 59  1  0
 14 60  1  0
 16 61  1  0
 16 62  1  0
 17 63  1  0
 17 64  1  0
 18 65  1  0
 19 66  1  0
 19 67  1  0
 20 68  1  0
 20 69  1  0
 21 70  1  0
 22 71  1  0
 22 72  1  0
 23 73  1  0
 23 74  1  0
 24 75  1  0
 27 76  1  0
 28 77  1  0
 29 78  1  0
 30 79  1  0
 33 80  1  0
 33 81  1  0
 33 82  1  0
 35 83  1  0
 36 84  1  0
 37 85  1  0
 38 86  1  0
 42 87  1  0
 42 88  1  0
 43 89  1  0
 43 90  1  0
M  CHG  1  32   1
M  END
>  <UniqueID>  (15) 
15

>  <SMILES>  (15) 
CCN(C)CCNc1ccc2c3c(cn2CCNCCNCCNc2c4ccccc4[n+](C)c4ccccc24)C(=O)CCc13

>  <Energy>  (15) 
161.46546472138385

>  <Genealogy>  (15) 
CCN(C)CCNc1ccc2c3c(cn2CCNCCNCCNc2c4ccccc4[n+](C)c4ccccc24)C(=O)CCc13 (3D coordinates assigned)
CCN(C)CCNc1ccc2c3c(cn2CCNCCNCCNc2c4ccccc4[n+](C)c4ccccc24)C(=O)CCc13 (nonaromatic ring conformer: 161.46546472138385 kcal/mol)

>  <smiles>  (15) 
CCN(C)CCNc1ccc2c3c(cn2CCNCCNCCNc2c4ccccc4[n+](C)c4ccccc24)C(=O)CCc13

>  <score_type>  (15) 
oracle

>  <origin>  (15) 
adg

>  <m_score__min__energy>  (15) 
-10.460000000000001

>  <m_primary>  (15) 
energy

$$$$
15:0
     RDKit          3D

 60 63  0  0  0  0  0  0  0  0999 V2000
   -6.4930   17.0530  -33.5810 C   0  0  0  0  0  0  0  0  0  0  0  0
   -7.2980   18.0210  -32.7000 C   0  0  0  0  0  0  0  0  0  0  0  0
   -6.7870   19.4120  -32.7100 N   0  0  0  0  0  0  0  0  0  0  0  0
   -7.6520   20.3400  -31.9380 C   0  0  0  0  0  0  0  0  0  0  0  0
   -9.1070   20.1520  -32.3420 C   0  0  0  0  0  0  0  0  0  0  0  0
   -5.3600   19.4900  -32.3300 C   0  0  0  0  0  0  0  0  0  0  0  0
   -4.4820   19.9270  -33.5150 C   0  0  0  0  0  0  0  0  0  0  0  0
   -3.6970   21.1360  -33.2370 N   0  0  0  0  0  0  0  0  0  0  0  0
   -3.6440   21.7410  -31.9300 C   0  0  0  0  0  0  0  0  0  0  0  0
   -4.7090   22.5530  -31.4980 C   0  0  0  0  0  0  0  0  0  0  0  0
   -5.6560   23.0500  -32.4190 C   0  0  0  0  0  0  0  0  0  0  0  0
   -6.7420   23.8040  -31.9860 C   0  0  0  0  0  0  0  0  0  0  0  0
   -6.9090   24.0710  -30.6330 C   0  0  0  0  0  0  0  0  0  0  0  0
   -5.9720   23.6110  -29.7060 C   0  0  0  0  0  0  0  0  0  0  0  0
   -4.8310   22.8750  -30.1230 C   0  0  0  0  0  0  0  0  0  0  0  0
   -3.8800   22.4380  -29.2220 N   0  0  0  0  0  0  0  0  0  0  0  0
   -3.8800   22.9470  -27.8330 C   0  0  0  0  0  0  0  0  0  0  0  0
   -2.8910   21.5640  -29.6280 C   0  0  0  0  0  0  0  0  0  0  0  0
   -2.1380   20.8740  -28.7160 N   0  0  0  0  0  0  0  0  0  0  0  0
   -1.1450   20.0290  -29.1010 C   0  0  0  0  0  0  0  0  0  0  0  0
   -0.4550   19.2680  -28.1430 C   0  0  0  0  0  0  0  0  0  0  0  0
    0.5640   18.3820  -28.5280 C   0  0  0  0  0  0  0  0  0  0  0  0
    1.2660   17.5970  -27.5450 N   0  0  0  0  0  0  0  0  0  0  0  0
    0.7600   16.5550  -27.0810 O   0  0  0  0  0  0  0  0  0  0  0  0
    2.5080   17.9860  -27.0970 O   0  0  0  0  0  0  0  0  0  0  0  0
    0.8830   18.2630  -29.8870 C   0  0  0  0  0  0  0  0  0  0  0  0
    0.2070   19.0210  -30.8460 C   0  0  0  0  0  0  0  0  0  0  0  0
   -0.8100   19.9260  -30.4670 C   0  0  0  0  0  0  0  0  0  0  0  0
   -1.5020   20.6800  -31.3890 N   0  0  0  0  0  0  0  0  0  0  0  0
   -0.9220   20.9080  -32.7260 C   0  0  0  0  0  0  0  0  0  0  0  0
   -2.6560   21.3340  -31.0040 C   0  0  0  0  0  0  0  0  0  0  0  0
   -5.9207   16.3648  -32.9415 H   0  0  0  0  0  0  0  0  0  0  0  0
   -7.1816   16.4763  -34.2161 H   0  0  0  0  0  0  0  0  0  0  0  0
   -5.8004   17.6249  -34.2161 H   0  0  0  0  0  0  0  0  0  0  0  0
   -8.3378   18.0319  -33.0588 H   0  0  0  0  0  0  0  0  0  0  0  0
   -7.2106   17.6573  -31.6655 H   0  0  0  0  0  0  0  0  0  0  0  0
   -7.5423   20.1314  -30.8635 H   0  0  0  0  0  0  0  0  0  0  0  0
   -7.3493   21.3762  -32.1495 H   0  0  0  0  0  0  0  0  0  0  0  0
   -9.7307   20.0714  -31.4395 H   0  0  0  0  0  0  0  0  0  0  0  0
   -9.4362   21.0151  -32.9393 H   0  0  0  0  0  0  0  0  0  0  0  0
   -9.2060   19.2336  -32.9393 H   0  0  0  0  0  0  0  0  0  0  0  0
   -5.2471   20.2190  -31.5140 H   0  0  0  0  0  0  0  0  0  0  0  0
   -5.0337   18.4893  -32.0104 H   0  0  0  0  0  0  0  0  0  0  0  0
   -3.7889   19.1080  -33.7575 H   0  0  0  0  0  0  0  0  0  0  0  0
   -5.1554   20.1595  -34.3531 H   0  0  0  0  0  0  0  0  0  0  0  0
   -3.5240   21.7660  -34.0520 H   0  0  0  0  0  0  0  0  0  0  0  0
   -5.5340   22.8387  -33.4916 H   0  0  0  0  0  0  0  0  0  0  0  0
   -7.4693   24.1892  -32.7158 H   0  0  0  0  0  0  0  0  0  0  0  0
   -7.7819   24.6464  -30.2911 H   0  0  0  0  0  0  0  0  0  0  0  0
   -6.1196   23.8217  -28.6365 H   0  0  0  0  0  0  0  0  0  0  0  0
   -2.8429   23.0732  -27.4887 H   0  0  0  0  0  0  0  0  0  0  0  0
   -4.3985   23.9165  -27.7978 H   0  0  0  0  0  0  0  0  0  0  0  0
   -4.3985   22.2299  -27.1797 H   0  0  0  0  0  0  0  0  0  0  0  0
   -2.3720   20.9090  -27.6990 H   0  0  0  0  0  0  0  0  0  0  0  0
   -0.7159   19.3673  -27.0790 H   0  0  0  0  0  0  0  0  0  0  0  0
    1.6735   17.5659  -30.2019 H   0  0  0  0  0  0  0  0  0  0  0  0
    0.4694   18.9122  -31.9087 H   0  0  0  0  0  0  0  0  0  0  0  0
    0.0970   21.3086  -32.6202 H   0  0  0  0  0  0  0  0  0  0  0  0
   -0.8867   19.9568  -33.2774 H   0  0  0  0  0  0  0  0  0  0  0  0
   -1.5438   21.6286  -33.2774 H   0  0  0  0  0  0  0  0  0  0  0  0
  1  2  1  0
  2  3  1  0
  3  4  1  0
  4  5  1  0
  3  6  1  0
  6  7  1  0
  7  8  1  0
  8  9  1  0
  9 10  2  0
 10 11  1  0
 11 12  2  0
 12 13  1  0
 13 14  2  0
 14 15  1  0
 15 16  2  0
 16 17  1  0
 16 18  1  0
 18 19  2  0
 19 20  1  0
 20 21  2  0
 21 22  1  0
 22 23  1  0
 23 24  2  0
 23 25  1  0
 22 26  2  0
 26 27  1  0
 27 28  2  0
 28 29  1  0
 29 30  1  0
 29 31  2  0
 31  9  1  0
 15 10  1  0
 31 18  1  0
 28 20  1  0
  1 32  1  0
  1 33  1  0
  1 34  1  0
  2 35  1  0
  2 36  1  0
  4 37  1  0
  4 38  1  0
  5 39  1  0
  5 40  1  0
  5 41  1  0
  6 42  1  0
  6 43  1  0
  7 44  1  0
  7 45  1  0
  8 46  1  0
 11 47  1  0
 12 48  1  0
 13 49  1  0
 14 50  1  0
 17 51  1  0
 17 52  1  0
 17 53  1  0
 19 54  1  0
 21 55  1  0
 26 56  1  0
 27 57  1  0
 30 58  1  0
 30 59  1  0
 30 60  1  0
M  CHG  5  16   1  19   1  23   1  25  -1  29   1
M  END
>  <UniqueID>  (16) 
16

>  <SMILES>  (16) 
CCN(CC)CCNc1c2ccccc2[n+](C)c2[nH+]c3cc([N+](=O)[O-])ccc3[n+](C)c12

>  <Energy>  (16) 
108.81660450972369

>  <Genealogy>  (16) 
CCN(CC)CCNc1c2ccccc2[n+](C)c2[nH+]c3cc([N+](=O)[O-])ccc3[n+](C)c12 (protonated)
CCN(CC)CCNc1c2ccccc2[n+](C)c2[nH+]c3cc([N+](=O)[O-])ccc3[n+](C)c12 (3D coordinates assigned)
CCN(CC)CCNc1c2ccccc2[n+](C)c2[nH+]c3cc([N+](=O)[O-])ccc3[n+](C)c12 (optimized conformer: 108.81660450972369 kcal/mol)

>  <smiles>  (16) 
CCN(CC)CCNc1c2ccccc2[n+](C)c2nc3cc([N+](=O)[O-])ccc3[n+](C)c12

>  <score_type>  (16) 
oracle

>  <origin>  (16) 
adg

>  <m_score__min__energy>  (16) 
-7.5899999999999999

>  <m_primary>  (16) 
energy

$$$$
16:0
     RDKit          3D

 61 63  0  0  0  0  0  0  0  0999 V2000
   -2.7440   21.2350  -28.1020 C   0  0  0  0  0  0  0  0  0  0  0  0
   -2.7480   21.5140  -29.6100 C   0  0  0  0  0  0  0  0  0  0  0  0
   -1.6490   22.4040  -30.0730 N   0  0  0  0  0  0  0  0  0  0  0  0
   -0.9410   21.8850  -31.2740 C   0  0  0  0  0  0  0  0  0  0  0  0
   -1.8880   21.5500  -32.4330 C   0  0  0  0  0  0  0  0  0  0  0  0
   -0.6840   22.6880  -28.9750 C   0  0  0  0  0  0  0  0  0  0  0  0
   -0.2650   24.1670  -28.9390 C   0  0  0  0  0  0  0  0  0  0  0  0
   -1.3790   25.0000  -29.2010 O   0  0  0  0  0  0  0  0  0  0  0  0
   -2.4020   24.8290  -28.2350 C   0  0  0  0  0  0  0  0  0  0  0  0
   -3.7590   24.5490  -28.8950 C   0  0  0  0  0  0  0  0  0  0  0  0
   -3.6880   24.7950  -30.3420 N   0  0  0  0  0  0  0  0  0  0  0  0
   -5.0230   25.0280  -30.9120 C   0  0  0  0  0  0  0  0  0  0  0  0
   -5.7150   23.7210  -31.2090 C   0  0  0  0  0  0  0  0  0  0  0  0
   -7.0700   23.5520  -30.8850 C   0  0  0  0  0  0  0  0  0  0  0  0
   -7.7250   22.3520  -31.1800 C   0  0  0  0  0  0  0  0  0  0  0  0
   -7.0300   21.3020  -31.8010 C   0  0  0  0  0  0  0  0  0  0  0  0
   -7.6790   20.0950  -32.1020 C   0  0  0  0  0  0  0  0  0  0  0  0
   -6.9810   19.0510  -32.7260 C   0  0  0  0  0  0  0  0  0  0  0  0
   -7.6280   17.8440  -33.0340 C   0  0  0  0  0  0  0  0  0  0  0  0
   -6.9260   16.8120  -33.6630 C   0  0  0  0  0  0  0  0  0  0  0  0
   -5.5720   16.9590  -33.9860 C   0  0  0  0  0  0  0  0  0  0  0  0
   -4.9160   15.8870  -34.6130 O   0  0  0  0  0  0  0  0  0  0  0  0
   -5.0280   14.5260  -34.2090 C   0  0  0  0  0  0  0  0  0  0  0  0
   -4.9180   18.1670  -33.6790 C   0  0  0  0  0  0  0  0  0  0  0  0
   -5.6140   19.2130  -33.0540 C   0  0  0  0  0  0  0  0  0  0  0  0
   -4.9650   20.4200  -32.7530 C   0  0  0  0  0  0  0  0  0  0  0  0
   -5.6630   21.4660  -32.1300 C   0  0  0  0  0  0  0  0  0  0  0  0
   -5.0150   22.6730  -31.8300 C   0  0  0  0  0  0  0  0  0  0  0  0
   -2.7577   22.1880  -27.5528 H   0  0  0  0  0  0  0  0  0  0  0  0
   -3.6338   20.6456  -27.8358 H   0  0  0  0  0  0  0  0  0  0  0  0
   -1.8377   20.6713  -27.8358 H   0  0  0  0  0  0  0  0  0  0  0  0
   -2.6582   20.5532  -30.1380 H   0  0  0  0  0  0  0  0  0  0  0  0
   -3.6900   22.0376  -29.8301 H   0  0  0  0  0  0  0  0  0  0  0  0
   -2.1090   23.3070  -30.3420 H   0  0  0  0  0  0  0  0  0  0  0  0
   -0.2258   22.6478  -31.6156 H   0  0  0  0  0  0  0  0  0  0  0  0
   -0.4387   20.9514  -30.9806 H   0  0  0  0  0  0  0  0  0  0  0  0
   -2.8532   21.2085  -32.0308 H   0  0  0  0  0  0  0  0  0  0  0  0
   -2.0445   22.4473  -33.0497 H   0  0  0  0  0  0  0  0  0  0  0  0
   -1.4455   20.7539  -33.0497 H   0  0  0  0  0  0  0  0  0  0  0  0
   -1.1538   22.4293  -28.0146 H   0  0  0  0  0  0  0  0  0  0  0  0
    0.2186   22.0853  -29.1540 H   0  0  0  0  0  0  0  0  0  0  0  0
    0.1402   24.4052  -27.9445 H   0  0  0  0  0  0  0  0  0  0  0  0
    0.5006   24.3407  -29.7095 H   0  0  0  0  0  0  0  0  0  0  0  0
   -2.1402   23.9823  -27.5834 H   0  0  0  0  0  0  0  0  0  0  0  0
   -2.4866   25.7593  -27.6541 H   0  0  0  0  0  0  0  0  0  0  0  0
   -4.0372   23.4993  -28.7195 H   0  0  0  0  0  0  0  0  0  0  0  0
   -4.5129   25.2195  -28.4567 H   0  0  0  0  0  0  0  0  0  0  0  0
   -3.1230   25.6650  -30.4910 H   0  0  0  0  0  0  0  0  0  0  0  0
   -5.6272   25.6005  -30.1928 H   0  0  0  0  0  0  0  0  0  0  0  0
   -4.9118   25.5892  -31.8515 H   0  0  0  0  0  0  0  0  0  0  0  0
   -7.6207   24.3689  -30.3957 H   0  0  0  0  0  0  0  0  0  0  0  0
   -8.7880   22.2305  -30.9247 H   0  0  0  0  0  0  0  0  0  0  0  0
   -8.7414   19.9669  -31.8471 H   0  0  0  0  0  0  0  0  0  0  0  0
   -8.6898   17.7101  -32.7798 H   0  0  0  0  0  0  0  0  0  0  0  0
   -7.4439   15.8728  -33.9072 H   0  0  0  0  0  0  0  0  0  0  0  0
   -5.0327   14.4688  -33.1105 H   0  0  0  0  0  0  0  0  0  0  0  0
   -5.9640   14.1026  -34.6022 H   0  0  0  0  0  0  0  0  0  0  0  0
   -4.1738   13.9553  -34.6022 H   0  0  0  0  0  0  0  0  0  0  0  0
   -3.8545   18.2919  -33.9306 H   0  0  0  0  0  0  0  0  0  0  0  0
   -3.9023   20.5472  -33.0070 H   0  0  0  0  0  0  0  0  0  0  0  0
   -3.9519   22.8000  -32.0825 H   0  0  0  0  0  0  0  0  0  0  0  0
  1  2  1  0
  2  3  1  0
  3  4  1  0
  4  5  1  0
  3  6  1  0
  6  7  1  0
  7  8  1  0
  8  9  1  0
  9 10  1  0
 10 11  1  0
 11 12  1  0
 12 13  1  0
 13 14  2  0
 14 15  1  0
 15 16  2  0
 16 17  1  0
 17 18  2  0
 18 19  1  0
 19 20  2  0
 20 21  1  0
 21 22  1  0
 22 23  1  0
 21 24  2  0
 24 25  1  0
 25 26  2  0
 26 27  1  0
 27 28  2  0
 28 13  1  0
 27 16  1  0
 25 18  1  0
  1 29  1  0
  1 30  1  0
  1 31  1  0
  2 32  1  0
  2 33  1  0
  3 34  1  0
  4 35  1  0
  4 36  1  0
  5 37  1  0
  5 38  1  0
  5 39  1  0
  6 40  1  0
  6 41  1  0
  7 42  1  0
  7 43  1  0
  9 44  1  0
  9 45  1  0
 10 46  1  0
 10 47  1  0
 11 48  1  0
 12 49  1  0
 12 50  1  0
 14 51  1  0
 15 52  1  0
 17 53  1  0
 19 54  1  0
 20 55  1  0
 23 56  1  0
 23 57  1  0
 23 58  1  0
 24 59  1  0
 26 60  1  0
 28 61  1  0
M  CHG  1   3   1
M  END
>  <UniqueID>  (17) 
17

>  <SMILES>  (17) 
CC[NH+](CC)CCOCCNCc1ccc2cc3ccc(OC)cc3cc2c1

>  <Energy>  (17) 
69.79480355845863

>  <Genealogy>  (17) 
CC[NH+](CC)CCOCCNCc1ccc2cc3ccc(OC)cc3cc2c1 (protonated)
CC[NH+](CC)CCOCCNCc1ccc2cc3ccc(OC)cc3cc2c1 (3D coordinates assigned)
CC[NH+](CC)CCOCCNCc1ccc2cc3ccc(OC)cc3cc2c1 (optimized conformer: 69.79480355845863 kcal/mol)

>  <smiles>  (17) 
CCN(CC)CCOCCNCc1ccc2cc3ccc(OC)cc3cc2c1

>  <score_type>  (17) 
oracle

>  <origin>  (17) 
adg

>  <m_score__min__energy>  (17) 
-9.5600000000000005

>  <m_primary>  (17) 
energy

$$$$
17:0
     RDKit          3D

 59 62  0  0  0  0  0  0  0  0999 V2000
   -1.8400   21.2040  -29.4240 C   0  0  0  0  0  0  0  0  0  0  0  0
   -1.0980   21.8220  -30.6210 C   0  0  0  0  0  0  0  0  0  0  0  0
   -0.9440   20.9070  -31.7780 N   0  0  0  0  0  0  0  0  0  0  0  0
    0.3710   20.2270  -31.7970 C   0  0  0  0  0  0  0  0  0  0  0  0
    0.8840   20.0780  -33.2310 C   0  0  0  0  0  0  0  0  0  0  0  0
   -1.3070   21.5270  -33.0760 C   0  0  0  0  0  0  0  0  0  0  0  0
   -2.7330   21.1190  -33.4740 C   0  0  0  0  0  0  0  0  0  0  0  0
   -3.4000   20.3780  -32.4020 N   0  0  0  0  0  0  0  0  0  0  0  0
   -4.8080   20.1270  -32.4570 C   0  0  0  0  0  0  0  0  0  0  0  0
   -5.3240   18.9130  -32.9620 C   0  0  0  0  0  0  0  0  0  0  0  0
   -4.4600   17.9090  -33.4430 C   0  0  0  0  0  0  0  0  0  0  0  0
   -4.9640   16.6900  -33.8880 C   0  0  0  0  0  0  0  0  0  0  0  0
   -6.3340   16.4480  -33.8610 C   0  0  0  0  0  0  0  0  0  0  0  0
   -7.2170   17.4320  -33.4150 C   0  0  0  0  0  0  0  0  0  0  0  0
   -6.7450   18.6950  -32.9820 C   0  0  0  0  0  0  0  0  0  0  0  0
   -7.6150   19.6990  -32.5820 N   0  0  0  0  0  0  0  0  0  0  0  0
   -9.0770   19.5370  -32.6970 C   0  0  0  0  0  0  0  0  0  0  0  0
   -7.0820   20.8530  -32.0670 C   0  0  0  0  0  0  0  0  0  0  0  0
   -7.7710   21.9050  -31.5560 N   0  0  0  0  0  0  0  0  0  0  0  0
   -6.8290   22.7970  -31.1880 C   0  0  0  0  0  0  0  0  0  0  0  0
   -7.0460   24.0510  -30.6240 C   0  0  0  0  0  0  0  0  0  0  0  0
   -5.9250   24.8390  -30.3140 C   0  0  0  0  0  0  0  0  0  0  0  0
   -4.6160   24.3610  -30.5440 C   0  0  0  0  0  0  0  0  0  0  0  0
   -3.5050   25.2040  -30.2070 N   0  0  0  0  0  0  0  0  0  0  0  0
   -2.5340   24.9250  -29.1900 C   0  0  0  0  0  0  0  0  0  0  0  0
   -2.8920   24.0300  -28.0530 C   0  0  0  0  0  0  0  0  0  0  0  0
   -1.3570   25.3580  -29.2940 O   0  0  0  0  0  0  0  0  0  0  0  0
   -4.4250   23.0880  -31.1360 C   0  0  0  0  0  0  0  0  0  0  0  0
   -5.5580   22.3290  -31.4440 C   0  0  0  0  0  0  0  0  0  0  0  0
   -5.7200   21.0760  -32.0070 C   0  0  0  0  0  0  0  0  0  0  0  0
   -1.3967   21.5732  -28.4875 H   0  0  0  0  0  0  0  0  0  0  0  0
   -2.9018   21.4885  -29.4642 H   0  0  0  0  0  0  0  0  0  0  0  0
   -1.7522   20.1082  -29.4642 H   0  0  0  0  0  0  0  0  0  0  0  0
   -1.6580   22.7083  -30.9540 H   0  0  0  0  0  0  0  0  0  0  0  0
   -0.0834   22.0656  -30.2729 H   0  0  0  0  0  0  0  0  0  0  0  0
    1.0923   20.8200  -31.2156 H   0  0  0  0  0  0  0  0  0  0  0  0
    0.2568   19.2253  -31.3571 H   0  0  0  0  0  0  0  0  0  0  0  0
    1.9402   19.7712  -33.2126 H   0  0  0  0  0  0  0  0  0  0  0  0
    0.2898   19.3153  -33.7556 H   0  0  0  0  0  0  0  0  0  0  0  0
    0.7908   21.0403  -33.7556 H   0  0  0  0  0  0  0  0  0  0  0  0
   -1.2539   22.6219  -32.9839 H   0  0  0  0  0  0  0  0  0  0  0  0
   -0.6044   21.1824  -33.8491 H   0  0  0  0  0  0  0  0  0  0  0  0
   -3.3147   22.0256  -33.6969 H   0  0  0  0  0  0  0  0  0  0  0  0
   -2.6705   20.4657  -34.3568 H   0  0  0  0  0  0  0  0  0  0  0  0
   -2.9020   20.1470  -31.5130 H   0  0  0  0  0  0  0  0  0  0  0  0
   -3.3753   18.0905  -33.4671 H   0  0  0  0  0  0  0  0  0  0  0  0
   -4.2775   15.9161  -34.2619 H   0  0  0  0  0  0  0  0  0  0  0  0
   -6.7235   15.4745  -34.1935 H   0  0  0  0  0  0  0  0  0  0  0  0
   -8.2969   17.2234  -33.3995 H   0  0  0  0  0  0  0  0  0  0  0  0
   -9.5207   19.4878  -31.6916 H   0  0  0  0  0  0  0  0  0  0  0  0
   -9.4991   20.3939  -33.2425 H   0  0  0  0  0  0  0  0  0  0  0  0
   -9.3012   18.6085  -33.2425 H   0  0  0  0  0  0  0  0  0  0  0  0
   -8.8000   22.0270  -31.4340 H   0  0  0  0  0  0  0  0  0  0  0  0
   -8.0654   24.4143  -30.4268 H   0  0  0  0  0  0  0  0  0  0  0  0
   -6.0687   25.8422  -29.8862 H   0  0  0  0  0  0  0  0  0  0  0  0
   -2.6863   24.5443  -27.1027 H   0  0  0  0  0  0  0  0  0  0  0  0
   -3.9609   23.7762  -28.1086 H   0  0  0  0  0  0  0  0  0  0  0  0
   -2.2931   23.1090  -28.1086 H   0  0  0  0  0  0  0  0  0  0  0  0
   -3.4146   22.7079  -31.3472 H   0  0  0  0  0  0  0  0  0  0  0  0
  1  2  1  0
  2  3  1  0
  3  4  1  0
  4  5  1  0
  3  6  1  0
  6  7  1  0
  7  8  1  0
  8  9  1  0
  9 10  2  0
 10 11  1  0
 11 12  2  0
 12 13  1  0
 13 14  2  0
 14 15  1  0
 15 16  2  0
 16 17  1  0
 16 18  1  0
 18 19  1  0
 19 20  1  0
 20 21  2  0
 21 22  1  0
 22 23  2  0
 23 24  1  0
 24 25  1  0
 25 26  1  0
 25 27  2  0
 23 28  1  0
 28 29  2  0
 29 30  1  0
 30  9  1  0
 15 10  1  0
 30 18  2  0
 29 20  1  0
  1 31  1  0
  1 32  1  0
  1 33  1  0
  2 34  1  0
  2 35  1  0
  4 36  1  0
  4 37  1  0
  5 38  1  0
  5 39  1  0
  5 40  1  0
  6 41  1  0
  6 42  1  0
  7 43  1  0
  7 44  1  0
  8 45  1  0
 11 46  1  0
 12 47  1  0
 13 48  1  0
 14 49  1  0
 17 50  1  0
 17 51  1  0
 17 52  1  0
 19 53  1  0
 21 54  1  0
 22 55  1  0
 26 56  1  0
 26 57  1  0
 26 58  1  0
 28 59  1  0
M  CHG  2  16   1  24  -1
M  END
>  <UniqueID>  (18) 
18

>  <SMILES>  (18) 
CCN(CC)CCNc1c2ccccc2[n+](C)c2[nH]c3ccc([N-]C(C)=O)cc3c12

>  <Energy>  (18) 
120.30619630032135

>  <Genealogy>  (18) 
CCN(CC)CCNc1c2ccccc2[n+](C)c2[nH]c3ccc([N-]C(C)=O)cc3c12 (protonated)
CCN(CC)CCNc1c2ccccc2[n+](C)c2[nH]c3ccc([N-]C(C)=O)cc3c12 (3D coordinates assigned)
CCN(CC)CCNc1c2ccccc2[n+](C)c2[nH]c3ccc([N-]C(C)=O)cc3c12 (optimized conformer: 120.30619630032135 kcal/mol)

>  <smiles>  (18) 
CCN(CC)CCNc1c2ccccc2[n+](C)c2[nH]c3ccc(NC(C)=O)cc3c12

>  <score_type>  (18) 
oracle

>  <origin>  (18) 
adg

>  <m_score__min__energy>  (18) 
-10.57

>  <m_primary>  (18) 
energy

$$$$
18:0
     RDKit          3D

 50 52  0  0  0  0  0  0  0  0999 V2000
   -7.0585   18.4876  -35.1270 H   0  0  0  0  0  0  0  0  0  0  0  0
   -6.0970   18.6190  -34.6090 C   0  0  0  0  0  0  0  0  0  0  0  0
   -5.7620   19.6650  -33.8900 O   0  0  0  0  0  0  0  0  0  0  0  0
   -4.5460   19.4920  -33.4230 C   0  0  0  0  0  0  0  0  0  0  0  0
   -3.8660   20.4800  -32.5490 C   0  0  0  0  0  0  0  0  0  0  0  0
   -2.5870   20.2490  -31.9930 C   0  0  0  0  0  0  0  0  0  0  0  0
   -1.9670   19.1850  -32.2700 O   0  0  0  0  0  0  0  0  0  0  0  0
   -2.0120   21.1850  -31.1660 N   0  0  0  0  0  0  0  0  0  0  0  0
   -0.7070   20.9120  -30.5270 C   0  0  0  0  0  0  0  0  0  0  0  0
   -0.0576   20.3881  -31.2438 H   0  0  0  0  0  0  0  0  0  0  0  0
   -0.2552   21.8692  -30.2277 H   0  0  0  0  0  0  0  0  0  0  0  0
   -0.8810   20.0410  -29.2780 C   0  0  0  0  0  0  0  0  0  0  0  0
   -1.5069   19.1711  -29.5259 H   0  0  0  0  0  0  0  0  0  0  0  0
    0.1083   19.7056  -28.9334 H   0  0  0  0  0  0  0  0  0  0  0  0
   -1.5310   20.8200  -28.1980 N   0  0  0  0  0  0  0  0  0  0  0  0
   -0.5880   21.2990  -27.1660 C   0  0  0  0  0  0  0  0  0  0  0  0
   -1.1534   21.6020  -26.2724 H   0  0  0  0  0  0  0  0  0  0  0  0
    0.1091   20.4851  -26.9175 H   0  0  0  0  0  0  0  0  0  0  0  0
    0.2130   22.4930  -27.6820 C   0  0  0  0  0  0  0  0  0  0  0  0
    0.6004   23.0705  -26.8297 H   0  0  0  0  0  0  0  0  0  0  0  0
    1.0535   22.1338  -28.2939 H   0  0  0  0  0  0  0  0  0  0  0  0
   -0.4382   23.1345  -28.2939 H   0  0  0  0  0  0  0  0  0  0  0  0
   -2.7230   20.1440  -27.6320 C   0  0  0  0  0  0  0  0  0  0  0  0
   -3.4320   20.9158  -27.2978 H   0  0  0  0  0  0  0  0  0  0  0  0
   -3.1345   19.5061  -28.4281 H   0  0  0  0  0  0  0  0  0  0  0  0
   -2.4140   19.2230  -26.4400 C   0  0  0  0  0  0  0  0  0  0  0  0
   -2.5960   19.7656  -25.5006 H   0  0  0  0  0  0  0  0  0  0  0  0
   -3.0640   18.3366  -26.4834 H   0  0  0  0  0  0  0  0  0  0  0  0
   -1.3610   18.9080  -26.4834 H   0  0  0  0  0  0  0  0  0  0  0  0
   -2.6810   22.3510  -30.8900 C   0  0  0  0  0  0  0  0  0  0  0  0
   -2.1470   23.2870  -30.0560 N   0  0  0  0  0  0  0  0  0  0  0  0
   -2.8020   24.4420  -29.7680 C   0  0  0  0  0  0  0  0  0  0  0  0
   -2.2510   25.3030  -28.9660 N   0  0  0  0  0  0  0  0  0  0  0  0
   -2.0780   25.1160  -27.5260 C   0  0  0  0  0  0  0  0  0  0  0  0
   -1.8485   26.0861  -27.0610 H   0  0  0  0  0  0  0  0  0  0  0  0
   -1.2535   24.4075  -27.3581 H   0  0  0  0  0  0  0  0  0  0  0  0
   -3.3480   24.5480  -26.8990 C   0  0  0  0  0  0  0  0  0  0  0  0
   -3.2642   24.5855  -25.8028 H   0  0  0  0  0  0  0  0  0  0  0  0
   -4.2143   25.1444  -27.2211 H   0  0  0  0  0  0  0  0  0  0  0  0
   -3.4810   23.5047  -27.2211 H   0  0  0  0  0  0  0  0  0  0  0  0
   -4.0210   24.6810  -30.3260 N   0  0  0  0  0  0  0  0  0  0  0  0
   -4.6000   23.7830  -31.1630 C   0  0  0  0  0  0  0  0  0  0  0  0
   -5.5854   23.9951  -31.6034 H   0  0  0  0  0  0  0  0  0  0  0  0
   -3.9400   22.5870  -31.4640 C   0  0  0  0  0  0  0  0  0  0  0  0
   -4.4980   21.6570  -32.2820 N   0  0  0  0  0  0  0  0  0  0  0  0
   -5.4420   21.8410  -32.6930 H   0  0  0  0  0  0  0  0  0  0  0  0
   -4.0590   18.2670  -33.8500 C   0  0  0  0  0  0  0  0  0  0  0  0
   -3.0757   17.8287  -33.6242 H   0  0  0  0  0  0  0  0  0  0  0  0
   -5.0610   17.7110  -34.6160 C   0  0  0  0  0  0  0  0  0  0  0  0
   -5.0380   16.7384  -35.1294 H   0  0  0  0  0  0  0  0  0  0  0  0
  1  2  1  0
  2  3  1  0
  3  4  1  0
  4  5  1  0
  5  6  1  0
  6  7  2  0
  6  8  1  0
  8  9  1  0
  9 10  1  0
  9 11  1  0
  9 12  1  0
 12 13  1  0
 12 14  1  0
 12 15  1  0
 15 16  1  0
 16 17  1  0
 16 18  1  0
 16 19  1  0
 19 20  1  0
 19 21  1  0
 19 22  1  0
 15 23  1  0
 23 24  1  0
 23 25  1  0
 23 26  1  0
 26 27  1  0
 26 28  1  0
 26 29  1  0
  8 30  1  0
 30 31  2  0
 31 32  1  0
 32 33  2  0
 33 34  1  0
 34 35  1  0
 34 36  1  0
 34 37  1  0
 37 38  1  0
 37 39  1  0
 37 40  1  0
 32 41  1  0
 41 42  1  0
 42 43  1  0
 42 44  2  0
 44 45  1  0
 45 46  1  0
  4 47  2  0
 47 48  1  0
 47 49  1  0
 49 50  1  0
 49  2  2  0
 45  5  2  0
 44 30  1  0
M  CHG  2  41  -1  45   1
M  END
>  <UniqueID>  (19) 
19

>  <SMILES>  (19) 
CC/N=c1/nc2c(c[n-]1)[nH+]c(-c1ccco1)c(=O)n2CCN(CC)CC

>  <Energy>  (19) 
83.88280543748073

>  <Genealogy>  (19) 
CCN=c1nc2c(c[n-]1)[nH+]c(-c1ccco1)c(=O)n2CCN(CC)CC (protonated)
CC/N=c1/nc2c(c[n-]1)[nH+]c(-c1ccco1)c(=O)n2CCN(CC)CC (cis-trans isomerization)
CC/N=c1/nc2c(c[n-]1)[nH+]c(-c1ccco1)c(=O)n2CCN(CC)CC (3D coordinates assigned)
CC/N=c1/nc2c(c[n-]1)[nH+]c(-c1ccco1)c(=O)n2CCN(CC)CC (optimized conformer: 83.88280543748073 kcal/mol)

>  <smiles>  (19) 
CCN=c1nc2c(c[nH]1)nc(-c1ccco1)c(=O)n2CCN(CC)CC

>  <score_type>  (19) 
oracle

>  <origin>  (19) 
adg

>  <m_score__min__energy>  (19) 
-7.2699999999999996

>  <m_primary>  (19) 
energy

$$$$
19:0
     RDKit          3D

 40 41  0  0  0  0  0  0  0  0999 V2000
   -9.4620   19.2910  -32.7020 C   0  0  0  0  0  0  0  0  0  0  0  0
   -8.8020   18.5820  -31.5190 C   0  0  0  0  0  0  0  0  0  0  0  0
   -7.2810   18.4450  -31.6830 C   0  0  0  0  0  0  0  0  0  0  0  0
   -6.8890   17.6590  -32.9410 C   0  0  0  0  0  0  0  0  0  0  0  0
   -5.9190   18.4350  -33.7250 N   0  0  0  0  0  0  0  0  0  0  0  0
   -6.3180   19.8460  -33.8390 C   0  0  0  0  0  0  0  0  0  0  0  0
   -5.4540   20.7460  -32.9450 C   0  0  0  0  0  0  0  0  0  0  0  0
   -6.2700   21.8380  -32.3150 C   0  0  0  0  0  0  0  0  0  0  0  0
   -7.6580   21.9170  -32.2800 C   0  0  0  0  0  0  0  0  0  0  0  0
   -8.0510   22.9920  -31.5600 N   0  0  0  0  0  0  0  0  0  0  0  0
   -6.9220   23.5830  -31.1300 C   0  0  0  0  0  0  0  0  0  0  0  0
   -6.8160   24.7180  -30.3290 C   0  0  0  0  0  0  0  0  0  0  0  0
   -5.5270   25.1550  -29.9760 C   0  0  0  0  0  0  0  0  0  0  0  0
   -4.3770   24.4590  -30.4160 C   0  0  0  0  0  0  0  0  0  0  0  0
   -3.1200   24.9430  -30.0250 O   0  0  0  0  0  0  0  0  0  0  0  0
   -2.2240   24.2450  -29.1640 C   0  0  0  0  0  0  0  0  0  0  0  0
   -4.5230   23.3080  -31.2270 C   0  0  0  0  0  0  0  0  0  0  0  0
   -5.8150   22.9040  -31.5650 C   0  0  0  0  0  0  0  0  0  0  0  0
  -10.1670   20.0484  -32.3287 H   0  0  0  0  0  0  0  0  0  0  0  0
   -8.6895   19.7793  -33.3142 H   0  0  0  0  0  0  0  0  0  0  0  0
  -10.0043   18.5554  -33.3142 H   0  0  0  0  0  0  0  0  0  0  0  0
   -9.0068   19.1582  -30.6047 H   0  0  0  0  0  0  0  0  0  0  0  0
   -9.2227   17.5672  -31.4633 H   0  0  0  0  0  0  0  0  0  0  0  0
   -6.8419   19.4516  -31.7460 H   0  0  0  0  0  0  0  0  0  0  0  0
   -6.9019   17.8892  -30.8127 H   0  0  0  0  0  0  0  0  0  0  0  0
   -6.4384   16.6994  -32.6475 H   0  0  0  0  0  0  0  0  0  0  0  0
   -7.7860   17.4737  -33.5501 H   0  0  0  0  0  0  0  0  0  0  0  0
   -5.8990   18.0320  -34.6920 H   0  0  0  0  0  0  0  0  0  0  0  0
   -6.2052   20.1665  -34.8852 H   0  0  0  0  0  0  0  0  0  0  0  0
   -7.3648   19.9372  -33.5137 H   0  0  0  0  0  0  0  0  0  0  0  0
   -5.0019   20.1336  -32.1510 H   0  0  0  0  0  0  0  0  0  0  0  0
   -4.6770   21.2109  -33.5696 H   0  0  0  0  0  0  0  0  0  0  0  0
   -8.3398   21.2056  -32.7689 H   0  0  0  0  0  0  0  0  0  0  0  0
   -9.0320   23.2900  -31.3650 H   0  0  0  0  0  0  0  0  0  0  0  0
   -7.7118   25.2550  -29.9839 H   0  0  0  0  0  0  0  0  0  0  0  0
   -5.4113   26.0511  -29.3486 H   0  0  0  0  0  0  0  0  0  0  0  0
   -2.4877   24.4505  -28.1160 H   0  0  0  0  0  0  0  0  0  0  0  0
   -2.2983   23.1644  -29.3557 H   0  0  0  0  0  0  0  0  0  0  0  0
   -1.1944   24.5814  -29.3557 H   0  0  0  0  0  0  0  0  0  0  0  0
   -3.6441   22.7488  -31.5802 H   0  0  0  0  0  0  0  0  0  0  0  0
  1  2  1  0
  2  3  1  0
  3  4  1  0
  4  5  1  0
  5  6  1  0
  6  7  1  0
  7  8  1  0
  8  9  2  0
  9 10  1  0
 10 11  1  0
 11 12  2  0
 12 13  1  0
 13 14  2  0
 14 15  1  0
 15 16  1  0
 14 17  1  0
 17 18  2  0
 18  8  1  0
 18 11  1  0
  1 19  1  0
  1 20  1  0
  1 21  1  0
  2 22  1  0
  2 23  1  0
  3 24  1  0
  3 25  1  0
  4 26  1  0
  4 27  1  0
  5 28  1  0
  6 29  1  0
  6 30  1  0
  7 31  1  0
  7 32  1  0
  9 33  1  0
 10 34  1  0
 12 35  1  0
 13 36  1  0
 16 37  1  0
 16 38  1  0
 16 39  1  0
 17 40  1  0
M  END
>  <UniqueID>  (20) 
20

>  <SMILES>  (20) 
CCCCNCCc1c[nH]c2ccc(OC)cc12

>  <Energy>  (20) 
61.657080468190436

>  <Genealogy>  (20) 
CCCCNCCc1c[nH]c2ccc(OC)cc12 (3D coordinates assigned)
CCCCNCCc1c[nH]c2ccc(OC)cc12 (optimized conformer: 61.657080468190436 kcal/mol)

>  <smiles>  (20) 
CCCCNCCc1c[nH]c2ccc(OC)cc12

>  <score_type>  (20) 
oracle

>  <origin>  (20) 
adg

>  <m_score__min__energy>  (20) 
-7

>  <m_primary>  (20) 
energy

$$$$
20:0
     RDKit          3D

 34 36  0  0  0  0  0  0  0  0999 V2000
   -5.5930   21.2990  -32.7100 C   0  0  0  0  0  0  0  0  0  0  0  0
   -6.9480   20.7530  -32.6340 N   0  0  0  0  0  0  0  0  0  0  0  0
   -8.0710   21.3990  -32.2650 C   0  0  0  0  0  0  0  0  0  0  0  0
   -8.1580   23.1300  -31.8050 S   0  0  0  0  0  0  0  0  0  0  0  0
   -7.4240   22.8470  -30.1630 C   0  0  0  0  0  0  0  0  0  0  0  0
   -6.0330   23.4080  -30.1330 C   0  0  0  0  0  0  0  0  0  0  0  0
   -5.0660   22.8700  -29.2700 C   0  0  0  0  0  0  0  0  0  0  0  0
   -3.7850   23.4230  -29.2270 C   0  0  0  0  0  0  0  0  0  0  0  0
   -3.4850   24.5180  -30.0400 C   0  0  0  0  0  0  0  0  0  0  0  0
   -4.4360   25.0370  -30.8600 N   0  0  0  0  0  0  0  0  0  0  0  0
   -5.6910   24.5170  -30.9210 C   0  0  0  0  0  0  0  0  0  0  0  0
   -9.1400   20.5830  -32.2790 N   0  0  0  0  0  0  0  0  0  0  0  0
   -8.7100   19.3930  -32.6720 N   0  0  0  0  0  0  0  0  0  0  0  0
   -7.3860   19.5020  -32.9020 C   0  0  0  0  0  0  0  0  0  0  0  0
   -6.5570   18.3720  -33.3700 C   0  0  0  0  0  0  0  0  0  0  0  0
   -6.4960   17.1640  -32.6500 C   0  0  0  0  0  0  0  0  0  0  0  0
   -5.6880   16.1150  -33.0990 C   0  0  0  0  0  0  0  0  0  0  0  0
   -4.9250   16.2660  -34.2600 C   0  0  0  0  0  0  0  0  0  0  0  0
   -4.9620   17.4690  -34.9690 C   0  0  0  0  0  0  0  0  0  0  0  0
   -5.7670   18.5210  -34.5230 C   0  0  0  0  0  0  0  0  0  0  0  0
   -5.2034   21.4560  -31.6934 H   0  0  0  0  0  0  0  0  0  0  0  0
   -4.9427   20.5927  -33.2469 H   0  0  0  0  0  0  0  0  0  0  0  0
   -5.6140   22.2588  -33.2469 H   0  0  0  0  0  0  0  0  0  0  0  0
   -8.0366   23.3448  -29.3969 H   0  0  0  0  0  0  0  0  0  0  0  0
   -7.3879   21.7667  -29.9590 H   0  0  0  0  0  0  0  0  0  0  0  0
   -5.3173   22.0130  -28.6278 H   0  0  0  0  0  0  0  0  0  0  0  0
   -3.0196   23.0005  -28.5594 H   0  0  0  0  0  0  0  0  0  0  0  0
   -2.4783   24.9606  -30.0166 H   0  0  0  0  0  0  0  0  0  0  0  0
   -6.4396   24.9669  -31.5897 H   0  0  0  0  0  0  0  0  0  0  0  0
   -7.0868   17.0447  -31.7298 H   0  0  0  0  0  0  0  0  0  0  0  0
   -5.6529   15.1697  -32.5377 H   0  0  0  0  0  0  0  0  0  0  0  0
   -4.2951   15.4373  -34.6156 H   0  0  0  0  0  0  0  0  0  0  0  0
   -4.3567   17.5886  -35.8797 H   0  0  0  0  0  0  0  0  0  0  0  0
   -5.7824   19.4709  -35.0775 H   0  0  0  0  0  0  0  0  0  0  0  0
  1  2  1  0
  2  3  1  0
  3  4  1  0
  4  5  1  0
  5  6  1  0
  6  7  2  0
  7  8  1  0
  8  9  2  0
  9 10  1  0
 10 11  2  0
  3 12  2  0
 12 13  1  0
 13 14  2  0
 14 15  1  0
 15 16  2  0
 16 17  1  0
 17 18  2  0
 18 19  1  0
 19 20  2  0
 14  2  1  0
 20 15  1  0
 11  6  1  0
  1 21  1  0
  1 22  1  0
  1 23  1  0
  5 24  1  0
  5 25  1  0
  7 26  1  0
  8 27  1  0
  9 28  1  0
 11 29  1  0
 16 30  1  0
 17 31  1  0
 18 32  1  0
 19 33  1  0
 20 34  1  0
M  END
>  <UniqueID>  (21) 
21

>  <SMILES>  (21) 
Cn1c(SCc2cccnc2)nnc1-c1ccccc1

>  <Energy>  (21) 
71.88573932866203

>  <Genealogy>  (21) 
Cn1c(SCc2cccnc2)nnc1-c1ccccc1 (3D coordinates assigned)
Cn1c(SCc2cccnc2)nnc1-c1ccccc1 (optimized conformer: 71.88573932866203 kcal/mol)

>  <smiles>  (21) 
Cn1c(SCc2cccnc2)nnc1-c1ccccc1

>  <score_type>  (21) 
oracle

>  <origin>  (21) 
adg

>  <m_score__min__energy>  (21) 
-8.0600000000000005

>  <m_primary>  (21) 
energy

$$$$
21:0
     RDKit          3D

 73 76  0  0  0  0  0  0  0  0999 V2000
   -6.1410   25.5520  -29.3560 C   0  0  0  0  0  0  0  0  0  0  0  0
   -5.3450   25.6700  -30.6590 C   0  0  0  0  0  0  0  0  0  0  0  0
   -3.9170   25.3610  -30.4710 N   0  0  0  0  0  0  0  0  0  0  0  0
   -3.6860   23.9630  -30.0700 C   0  0  0  0  0  0  0  0  0  0  0  0
   -4.6060   23.0090  -30.8440 C   0  0  0  0  0  0  0  0  0  0  0  0
   -3.8460   22.2260  -31.9260 C   0  0  0  0  0  0  0  0  0  0  0  0
   -4.7140   21.9630  -33.0850 N   0  0  0  0  0  0  0  0  0  0  0  0
   -5.1960   20.5910  -33.0700 C   0  0  0  0  0  0  0  0  0  0  0  0
   -6.5200   20.2890  -32.6530 C   0  0  0  0  0  0  0  0  0  0  0  0
   -7.3620   21.2710  -32.0740 C   0  0  0  0  0  0  0  0  0  0  0  0
   -8.6470   20.9530  -31.6410 C   0  0  0  0  0  0  0  0  0  0  0  0
   -9.1190   19.6530  -31.7580 C   0  0  0  0  0  0  0  0  0  0  0  0
   -8.3160   18.6660  -32.3240 C   0  0  0  0  0  0  0  0  0  0  0  0
   -7.0160   18.9650  -32.8070 C   0  0  0  0  0  0  0  0  0  0  0  0
   -6.2330   17.9960  -33.4000 N   0  0  0  0  0  0  0  0  0  0  0  0
   -6.8490   16.7360  -33.8720 C   0  0  0  0  0  0  0  0  0  0  0  0
   -4.8790   18.2080  -33.5650 C   0  0  0  0  0  0  0  0  0  0  0  0
   -3.9980   17.1340  -33.8530 C   0  0  0  0  0  0  0  0  0  0  0  0
   -2.6290   17.3510  -34.0730 C   0  0  0  0  0  0  0  0  0  0  0  0
   -1.7300   16.3160  -34.3830 O   0  0  0  0  0  0  0  0  0  0  0  0
   -2.0490   15.0930  -35.0520 C   0  0  0  0  0  0  0  0  0  0  0  0
   -1.6980   13.8570  -34.1950 C   0  0  0  0  0  0  0  0  0  0  0  0
   -2.8150   12.9300  -33.7830 N   0  0  0  0  0  0  0  0  0  0  0  0
   -2.8740   11.9000  -34.8620 C   0  0  0  0  0  0  0  0  0  0  0  0
   -4.1570   13.6100  -33.7920 C   0  0  0  0  0  0  0  0  0  0  0  0
   -4.5520   14.3300  -32.4950 C   0  0  0  0  0  0  0  0  0  0  0  0
   -4.3870   13.4160  -31.2920 C   0  0  0  0  0  0  0  0  0  0  0  0
   -2.9550   12.9150  -31.2130 C   0  0  0  0  0  0  0  0  0  0  0  0
   -2.5410   12.1870  -32.5080 C   0  0  0  0  0  0  0  0  0  0  0  0
   -2.1230   18.6400  -33.9700 C   0  0  0  0  0  0  0  0  0  0  0  0
   -2.9550   19.7070  -33.6450 C   0  0  0  0  0  0  0  0  0  0  0  0
   -4.3400   19.5160  -33.4300 C   0  0  0  0  0  0  0  0  0  0  0  0
   -5.4587   25.6531  -28.4991 H   0  0  0  0  0  0  0  0  0  0  0  0
   -6.8997   26.3475  -29.3165 H   0  0  0  0  0  0  0  0  0  0  0  0
   -6.6363   24.5706  -29.3165 H   0  0  0  0  0  0  0  0  0  0  0  0
   -5.7649   24.9685  -31.3950 H   0  0  0  0  0  0  0  0  0  0  0  0
   -5.4214   26.7106  -31.0073 H   0  0  0  0  0  0  0  0  0  0  0  0
   -3.5090   25.9970  -29.7460 H   0  0  0  0  0  0  0  0  0  0  0  0
   -2.6384   23.6983  -30.2758 H   0  0  0  0  0  0  0  0  0  0  0  0
   -3.9045   23.8660  -28.9963 H   0  0  0  0  0  0  0  0  0  0  0  0
   -5.0525   22.2947  -30.1366 H   0  0  0  0  0  0  0  0  0  0  0  0
   -5.3790   23.6127  -31.3420 H   0  0  0  0  0  0  0  0  0  0  0  0
   -2.9757   22.8140  -32.2529 H   0  0  0  0  0  0  0  0  0  0  0  0
   -3.5202   21.2643  -31.5031 H   0  0  0  0  0  0  0  0  0  0  0  0
   -5.5140   22.6360  -33.1020 H   0  0  0  0  0  0  0  0  0  0  0  0
   -4.2070   22.1650  -33.9760 H   0  0  0  0  0  0  0  0  0  0  0  0
   -6.9944   22.3020  -31.9647 H   0  0  0  0  0  0  0  0  0  0  0  0
   -9.2887   21.7332  -31.2057 H   0  0  0  0  0  0  0  0  0  0  0  0
  -10.1294   19.4018  -31.4029 H   0  0  0  0  0  0  0  0  0  0  0  0
   -8.6964   17.6365  -32.3979 H   0  0  0  0  0  0  0  0  0  0  0  0
   -7.1469   16.1266  -33.0060 H   0  0  0  0  0  0  0  0  0  0  0  0
   -7.7359   16.9669  -34.4804 H   0  0  0  0  0  0  0  0  0  0  0  0
   -6.1221   16.1779  -34.4804 H   0  0  0  0  0  0  0  0  0  0  0  0
   -4.3962   16.1099  -33.9050 H   0  0  0  0  0  0  0  0  0  0  0  0
   -3.1268   15.0787  -35.2714 H   0  0  0  0  0  0  0  0  0  0  0  0
   -1.4545   15.0459  -35.9763 H   0  0  0  0  0  0  0  0  0  0  0  0
   -0.9735   13.2592  -34.7675 H   0  0  0  0  0  0  0  0  0  0  0  0
   -1.3331   14.2794  -33.2472 H   0  0  0  0  0  0  0  0  0  0  0  0
   -2.9314   10.8987  -34.4103 H   0  0  0  0  0  0  0  0  0  0  0  0
   -3.7637   12.0726  -35.4854 H   0  0  0  0  0  0  0  0  0  0  0  0
   -1.9704   11.9698  -35.4854 H   0  0  0  0  0  0  0  0  0  0  0  0
   -4.1527   14.3537  -34.6025 H   0  0  0  0  0  0  0  0  0  0  0  0
   -4.8970   12.8069  -33.9241 H   0  0  0  0  0  0  0  0  0  0  0  0
   -3.9111   15.2145  -32.3652 H   0  0  0  0  0  0  0  0  0  0  0  0
   -5.6088   14.6267  -32.5671 H   0  0  0  0  0  0  0  0  0  0  0  0
   -4.6291   13.9733  -30.3751 H   0  0  0  0  0  0  0  0  0  0  0  0
   -5.0652   12.5562  -31.3959 H   0  0  0  0  0  0  0  0  0  0  0  0
   -2.2842   13.7722  -31.0543 H   0  0  0  0  0  0  0  0  0  0  0  0
   -2.8831   12.2030  -30.3776 H   0  0  0  0  0  0  0  0  0  0  0  0
   -1.4599   11.9909  -32.4557 H   0  0  0  0  0  0  0  0  0  0  0  0
   -3.1554   11.2756  -32.5516 H   0  0  0  0  0  0  0  0  0  0  0  0
   -1.0524   18.8197  -34.1473 H   0  0  0  0  0  0  0  0  0  0  0  0
   -2.5282   20.7167  -33.5537 H   0  0  0  0  0  0  0  0  0  0  0  0
  1  2  1  0
  2  3  1  0
  3  4  1  0
  4  5  1  0
  5  6  1  0
  6  7  1  0
  7  8  1  0
  8  9  2  0
  9 10  1  0
 10 11  2  0
 11 12  1  0
 12 13  2  0
 13 14  1  0
 14 15  2  0
 15 16  1  0
 15 17  1  0
 17 18  2  0
 18 19  1  0
 19 20  1  0
 20 21  1  0
 21 22  1  0
 22 23  1  0
 23 24  1  0
 23 25  1  0
 25 26  1  0
 26 27  1  0
 27 28  1  0
 28 29  1  0
 19 30  2  0
 30 31  1  0
 31 32  2  0
 32  8  1  0
 14  9  1  0
 32 17  1  0
 29 23  1  0
  1 33  1  0
  1 34  1  0
  1 35  1  0
  2 36  1  0
  2 37  1  0
  3 38  1  0
  4 39  1  0
  4 40  1  0
  5 41  1  0
  5 42  1  0
  6 43  1  0
  6 44  1  0
  7 45  1  0
  7 46  1  0
 10 47  1  0
 11 48  1  0
 12 49  1  0
 13 50  1  0
 16 51  1  0
 16 52  1  0
 16 53  1  0
 18 54  1  0
 21 55  1  0
 21 56  1  0
 22 57  1  0
 22 58  1  0
 24 59  1  0
 24 60  1  0
 24 61  1  0
 25 62  1  0
 25 63  1  0
 26 64  1  0
 26 65  1  0
 27 66  1  0
 27 67  1  0
 28 68  1  0
 28 69  1  0
 29 70  1  0
 29 71  1  0
 30 72  1  0
 31 73  1  0
M  CHG  3   7   1  15   1  23   1
M  END
>  <UniqueID>  (22) 
22

>  <SMILES>  (22) 
CCNCCC[NH2+]c1c2ccccc2[n+](C)c2cc(OCC[N+]3(C)CCCCC3)ccc12

>  <Energy>  (22) 
115.99493978886157

>  <Genealogy>  (22) 
CCNCCC[NH2+]c1c2ccccc2[n+](C)c2cc(OCC[N+]3(C)CCCCC3)ccc12 (protonated)
CCNCCC[NH2+]c1c2ccccc2[n+](C)c2cc(OCC[N+]3(C)CCCCC3)ccc12 (3D coordinates assigned)
CCNCCC[NH2+]c1c2ccccc2[n+](C)c2cc(OCC[N+]3(C)CCCCC3)ccc12 (nonaromatic ring conformer: 115.99493978886157 kcal/mol)

>  <smiles>  (22) 
CCNCCCNc1c2ccccc2[n+](C)c2cc(OCC[N+]3(C)CCCCC3)ccc12

>  <score_type>  (22) 
oracle

>  <origin>  (22) 
adg

>  <m_score__min__energy>  (22) 
-8.9100000000000001

>  <m_primary>  (22) 
energy

$$$$
22:0
     RDKit          3D

 74 77  0  0  0  0  0  0  0  0999 V2000
   -2.7290   19.8070  -27.2060 C   0  0  0  0  0  0  0  0  0  0  0  0
   -3.0560   20.9600  -28.1420 C   0  0  0  0  0  0  0  0  0  0  0  0
   -2.7540   20.5730  -29.4700 O   0  0  0  0  0  0  0  0  0  0  0  0
   -1.3620   20.3790  -29.6350 C   0  0  0  0  0  0  0  0  0  0  0  0
   -0.8620   20.9360  -30.9760 C   0  0  0  0  0  0  0  0  0  0  0  0
   -1.8050   21.8440  -31.5170 O   0  0  0  0  0  0  0  0  0  0  0  0
   -2.1030   21.5460  -32.8690 C   0  0  0  0  0  0  0  0  0  0  0  0
   -3.5320   20.9700  -32.9860 C   0  0  0  0  0  0  0  0  0  0  0  0
   -4.2120   20.6230  -31.7070 N   0  0  0  0  0  0  0  0  0  0  0  0
   -5.5150   21.2310  -31.4720 C   0  0  0  0  0  0  0  0  0  0  0  0
   -5.5920   22.5760  -31.0240 C   0  0  0  0  0  0  0  0  0  0  0  0
   -4.4500   23.2670  -30.5480 C   0  0  0  0  0  0  0  0  0  0  0  0
   -4.5500   24.5590  -30.0380 C   0  0  0  0  0  0  0  0  0  0  0  0
   -5.7840   25.1910  -29.9840 C   0  0  0  0  0  0  0  0  0  0  0  0
   -6.9170   24.5500  -30.4790 C   0  0  0  0  0  0  0  0  0  0  0  0
   -6.8380   23.2540  -31.0520 C   0  0  0  0  0  0  0  0  0  0  0  0
   -7.9310   22.6630  -31.6440 N   0  0  0  0  0  0  0  0  0  0  0  0
   -9.0970   23.4930  -32.0300 C   0  0  0  0  0  0  0  0  0  0  0  0
   -7.9310   21.3060  -31.9020 C   0  0  0  0  0  0  0  0  0  0  0  0
   -9.1220   20.6430  -32.2930 C   0  0  0  0  0  0  0  0  0  0  0  0
   -9.1190   19.3020  -32.6390 C   0  0  0  0  0  0  0  0  0  0  0  0
   -7.9630   18.5540  -32.5140 C   0  0  0  0  0  0  0  0  0  0  0  0
   -6.7860   19.1270  -32.0050 C   0  0  0  0  0  0  0  0  0  0  0  0
   -5.6980   18.3040  -31.6620 O   0  0  0  0  0  0  0  0  0  0  0  0
   -5.7380   16.8970  -31.4200 C   0  0  0  0  0  0  0  0  0  0  0  0
   -5.7870   16.0130  -32.7020 C   0  0  0  0  0  0  0  0  0  0  0  0
   -4.6890   16.1920  -33.7130 N   0  0  0  0  0  0  0  0  0  0  0  0
   -4.3550   14.8780  -34.3220 C   0  0  0  0  0  0  0  0  0  0  0  0
   -3.4680   16.7910  -33.0880 C   0  0  0  0  0  0  0  0  0  0  0  0
   -2.6710   17.6470  -34.0920 C   0  0  0  0  0  0  0  0  0  0  0  0
   -3.4030   18.7660  -34.5760 O   0  0  0  0  0  0  0  0  0  0  0  0
   -4.8100   18.5560  -34.6020 C   0  0  0  0  0  0  0  0  0  0  0  0
   -5.2020   17.0800  -34.8140 C   0  0  0  0  0  0  0  0  0  0  0  0
   -6.7290   20.5410  -31.7800 C   0  0  0  0  0  0  0  0  0  0  0  0
   -2.8243   20.1431  -26.1630 H   0  0  0  0  0  0  0  0  0  0  0  0
   -3.4271   18.9769  -27.3890 H   0  0  0  0  0  0  0  0  0  0  0  0
   -1.6990   19.4670  -27.3890 H   0  0  0  0  0  0  0  0  0  0  0  0
   -4.1250   21.2074  -28.0636 H   0  0  0  0  0  0  0  0  0  0  0  0
   -2.4609   21.8433  -27.8670 H   0  0  0  0  0  0  0  0  0  0  0  0
   -0.8322   20.8902  -28.8177 H   0  0  0  0  0  0  0  0  0  0  0  0
   -1.1641   19.2971  -29.6198 H   0  0  0  0  0  0  0  0  0  0  0  0
    0.0936   21.4574  -30.8180 H   0  0  0  0  0  0  0  0  0  0  0  0
   -0.7261   20.1018  -31.6800 H   0  0  0  0  0  0  0  0  0  0  0  0
   -2.0318   22.4658  -33.4680 H   0  0  0  0  0  0  0  0  0  0  0  0
   -1.3840   20.8003  -33.2391 H   0  0  0  0  0  0  0  0  0  0  0  0
   -4.1526   21.7165  -33.5034 H   0  0  0  0  0  0  0  0  0  0  0  0
   -3.4205   20.0180  -33.5258 H   0  0  0  0  0  0  0  0  0  0  0  0
   -4.3060   19.5830  -31.6410 H   0  0  0  0  0  0  0  0  0  0  0  0
   -3.5760   20.8190  -30.9000 H   0  0  0  0  0  0  0  0  0  0  0  0
   -3.4672   22.7741  -30.5820 H   0  0  0  0  0  0  0  0  0  0  0  0
   -3.6500   25.0788  -29.6777 H   0  0  0  0  0  0  0  0  0  0  0  0
   -5.8674   26.1984  -29.5502 H   0  0  0  0  0  0  0  0  0  0  0  0
   -7.8913   25.0577  -30.4248 H   0  0  0  0  0  0  0  0  0  0  0  0
   -9.6054   23.8549  -31.1242 H   0  0  0  0  0  0  0  0  0  0  0  0
   -8.7546   24.3517  -32.6261 H   0  0  0  0  0  0  0  0  0  0  0  0
   -9.7963   22.8883  -32.6261 H   0  0  0  0  0  0  0  0  0  0  0  0
  -10.0671   21.2051  -32.3221 H   0  0  0  0  0  0  0  0  0  0  0  0
  -10.0392   18.8306  -33.0144 H   0  0  0  0  0  0  0  0  0  0  0  0
   -7.9651   17.4966  -32.8171 H   0  0  0  0  0  0  0  0  0  0  0  0
   -4.8384   16.6225  -30.8496 H   0  0  0  0  0  0  0  0  0  0  0  0
   -6.6740   16.7037  -30.8755 H   0  0  0  0  0  0  0  0  0  0  0  0
   -5.7679   14.9620  -32.3780 H   0  0  0  0  0  0  0  0  0  0  0  0
   -6.7020   16.3289  -33.2244 H   0  0  0  0  0  0  0  0  0  0  0  0
   -4.1679   14.1420  -33.5262 H   0  0  0  0  0  0  0  0  0  0  0  0
   -5.1954   14.5385  -34.9453 H   0  0  0  0  0  0  0  0  0  0  0  0
   -3.4545   14.9810  -34.9453 H   0  0  0  0  0  0  0  0  0  0  0  0
   -3.7753   17.4261  -32.2441 H   0  0  0  0  0  0  0  0  0  0  0  0
   -2.8196   15.9694  -32.7496 H   0  0  0  0  0  0  0  0  0  0  0  0
   -1.7606   18.0128  -33.5947 H   0  0  0  0  0  0  0  0  0  0  0  0
   -2.4397   17.0077  -34.9567 H   0  0  0  0  0  0  0  0  0  0  0  0
   -5.2315   18.8952  -33.6442 H   0  0  0  0  0  0  0  0  0  0  0  0
   -5.2088   19.1250  -35.4548 H   0  0  0  0  0  0  0  0  0  0  0  0
   -6.2990   17.0060  -34.8467 H   0  0  0  0  0  0  0  0  0  0  0  0
   -4.7497   16.7427  -35.7583 H   0  0  0  0  0  0  0  0  0  0  0  0
  1  2  1  0
  2  3  1  0
  3  4  1  0
  4  5  1  0
  5  6  1  0
  6  7  1  0
  7  8  1  0
  8  9  1  0
  9 10  1  0
 10 11  2  0
 11 12  1  0
 12 13  2  0
 13 14  1  0
 14 15  2  0
 15 16  1  0
 16 17  2  0
 17 18  1  0
 17 19  1  0
 19 20  2  0
 20 21  1  0
 21 22  2  0
 22 23  1  0
 23 24  1  0
 24 25  1  0
 25 26  1  0
 26 27  1  0
 27 28  1  0
 27 29  1  0
 29 30  1  0
 30 31  1  0
 31 32  1  0
 32 33  1  0
 23 34  2  0
 34 10  1  0
 16 11  1  0
 34 19  1  0
 33 27  1  0
  1 35  1  0
  1 36  1  0
  1 37  1  0
  2 38  1  0
  2 39  1  0
  4 40  1  0
  4 41  1  0
  5 42  1  0
  5 43  1  0
  7 44  1  0
  7 45  1  0
  8 46  1  0
  8 47  1  0
  9 48  1  0
  9 49  1  0
 12 50  1  0
 13 51  1  0
 14 52  1  0
 15 53  1  0
 18 54  1  0
 18 55  1  0
 18 56  1  0
 20 57  1  0
 21 58  1  0
 22 59  1  0
 25 60  1  0
 25 61  1  0
 26 62  1  0
 26 63  1  0
 28 64  1  0
 28 65  1  0
 28 66  1  0
 29 67  1  0
 29 68  1  0
 30 69  1  0
 30 70  1  0
 32 71  1  0
 32 72  1  0
 33 73  1  0
 33 74  1  0
M  CHG  3   9   1  17   1  27   1
M  END
>  <UniqueID>  (23) 
23

>  <SMILES>  (23) 
CCOCCOCC[NH2+]c1c2ccccc2[n+](C)c2cccc(OCC[N+]3(C)CCOCC3)c12

>  <Energy>  (23) 
142.18123720308284

>  <Genealogy>  (23) 
CCOCCOCC[NH2+]c1c2ccccc2[n+](C)c2cccc(OCC[N+]3(C)CCOCC3)c12 (protonated)
CCOCCOCC[NH2+]c1c2ccccc2[n+](C)c2cccc(OCC[N+]3(C)CCOCC3)c12 (3D coordinates assigned)
CCOCCOCC[NH2+]c1c2ccccc2[n+](C)c2cccc(OCC[N+]3(C)CCOCC3)c12 (nonaromatic ring conformer: 142.18123720308284 kcal/mol)

>  <smiles>  (23) 
CCOCCOCCNc1c2ccccc2[n+](C)c2cccc(OCC[N+]3(C)CCOCC3)c12

>  <score_type>  (23) 
oracle

>  <origin>  (23) 
adg

>  <m_score__min__energy>  (23) 
-8.7200000000000006

>  <m_primary>  (23) 
energy

$$$$
23:0
     RDKit          3D

 64 66  0  0  0  0  0  0  0  0999 V2000
   -3.4280   18.8960  -26.3480 C   0  0  0  0  0  0  0  0  0  0  0  0
   -1.9670   19.2470  -26.6180 C   0  0  0  0  0  0  0  0  0  0  0  0
   -1.8240   19.9070  -27.9330 N   0  0  0  0  0  0  0  0  0  0  0  0
   -0.5670   19.5400  -28.6080 C   0  0  0  0  0  0  0  0  0  0  0  0
   -2.0350   21.3730  -27.8740 C   0  0  0  0  0  0  0  0  0  0  0  0
   -0.9110   22.2110  -28.5140 C   0  0  0  0  0  0  0  0  0  0  0  0
   -1.4300   22.9860  -29.5750 O   0  0  0  0  0  0  0  0  0  0  0  0
   -2.3970   23.9030  -29.0970 C   0  0  0  0  0  0  0  0  0  0  0  0
   -3.7070   23.7560  -29.8710 C   0  0  0  0  0  0  0  0  0  0  0  0
   -3.9790   24.9440  -30.5940 O   0  0  0  0  0  0  0  0  0  0  0  0
   -5.3600   25.0830  -30.8710 C   0  0  0  0  0  0  0  0  0  0  0  0
   -6.0410   23.7140  -30.9790 C   0  0  0  0  0  0  0  0  0  0  0  0
   -5.8610   23.1390  -32.3140 N   0  0  0  0  0  0  0  0  0  0  0  0
   -5.7620   21.7200  -32.5190 C   0  0  0  0  0  0  0  0  0  0  0  0
   -4.5190   21.1240  -32.7870 C   0  0  0  0  0  0  0  0  0  0  0  0
   -4.4530   19.7520  -33.0950 C   0  0  0  0  0  0  0  0  0  0  0  0
   -5.6110   19.0090  -33.2060 N   0  0  0  0  0  0  0  0  0  0  0  0
   -5.5680   17.6670  -33.8230 C   0  0  0  0  0  0  0  0  0  0  0  0
   -6.8070   19.5260  -32.7430 C   0  0  0  0  0  0  0  0  0  0  0  0
   -7.9570   18.7140  -32.5750 C   0  0  0  0  0  0  0  0  0  0  0  0
   -9.1670   19.2610  -32.1480 C   0  0  0  0  0  0  0  0  0  0  0  0
   -9.2600   20.6200  -31.8650 C   0  0  0  0  0  0  0  0  0  0  0  0
   -8.1380   21.4370  -31.9880 C   0  0  0  0  0  0  0  0  0  0  0  0
   -6.9030   20.9050  -32.4120 C   0  0  0  0  0  0  0  0  0  0  0  0
   -3.0770   19.1650  -33.3700 C   0  0  0  0  0  0  0  0  0  0  0  0
   -2.0020   19.6810  -32.3910 C   0  0  0  0  0  0  0  0  0  0  0  0
   -2.1740   21.1490  -31.9460 C   0  0  0  0  0  0  0  0  0  0  0  0
   -3.2290   21.9120  -32.7510 C   0  0  0  0  0  0  0  0  0  0  0  0
   -3.6006   18.8545  -25.2624 H   0  0  0  0  0  0  0  0  0  0  0  0
   -4.0779   19.6636  -26.7935 H   0  0  0  0  0  0  0  0  0  0  0  0
   -3.6583   17.9170  -26.7935 H   0  0  0  0  0  0  0  0  0  0  0  0
   -1.6074   19.9268  -25.8315 H   0  0  0  0  0  0  0  0  0  0  0  0
   -1.3746   18.3201  -26.6206 H   0  0  0  0  0  0  0  0  0  0  0  0
    0.2020   19.3155  -27.8542 H   0  0  0  0  0  0  0  0  0  0  0  0
   -0.7339   18.6531  -29.2369 H   0  0  0  0  0  0  0  0  0  0  0  0
   -0.2305   20.3774  -29.2369 H   0  0  0  0  0  0  0  0  0  0  0  0
   -2.9752   21.6052  -28.3957 H   0  0  0  0  0  0  0  0  0  0  0  0
   -2.0545   21.6417  -26.8075 H   0  0  0  0  0  0  0  0  0  0  0  0
   -0.4763   22.8777  -27.7547 H   0  0  0  0  0  0  0  0  0  0  0  0
   -0.1358   21.5359  -28.9057 H   0  0  0  0  0  0  0  0  0  0  0  0
   -2.5835   23.7085  -28.0305 H   0  0  0  0  0  0  0  0  0  0  0  0
   -2.0156   24.9253  -29.2364 H   0  0  0  0  0  0  0  0  0  0  0  0
   -3.6226   22.9135  -30.5732 H   0  0  0  0  0  0  0  0  0  0  0  0
   -4.5266   23.5697  -29.1614 H   0  0  0  0  0  0  0  0  0  0  0  0
   -5.8331   25.6568  -30.0605 H   0  0  0  0  0  0  0  0  0  0  0  0
   -5.4729   25.6065  -31.8318 H   0  0  0  0  0  0  0  0  0  0  0  0
   -5.6023   23.0348  -30.2332 H   0  0  0  0  0  0  0  0  0  0  0  0
   -7.1180   23.8444  -30.7972 H   0  0  0  0  0  0  0  0  0  0  0  0
   -5.7360   23.7790  -33.1290 H   0  0  0  0  0  0  0  0  0  0  0  0
   -5.5435   16.9012  -33.0337 H   0  0  0  0  0  0  0  0  0  0  0  0
   -6.4619   17.5216  -34.4473 H   0  0  0  0  0  0  0  0  0  0  0  0
   -4.6666   17.5792  -34.4473 H   0  0  0  0  0  0  0  0  0  0  0  0
   -7.8941   17.6360  -32.7846 H   0  0  0  0  0  0  0  0  0  0  0  0
  -10.0506   18.6157  -32.0346 H   0  0  0  0  0  0  0  0  0  0  0  0
  -10.2202   21.0499  -31.5438 H   0  0  0  0  0  0  0  0  0  0  0  0
   -8.2166   22.5085  -31.7518 H   0  0  0  0  0  0  0  0  0  0  0  0
   -3.1374   18.0703  -33.2810 H   0  0  0  0  0  0  0  0  0  0  0  0
   -2.7801   19.4755  -34.3826 H   0  0  0  0  0  0  0  0  0  0  0  0
   -2.0267   19.0471  -31.4923 H   0  0  0  0  0  0  0  0  0  0  0  0
   -1.0458   19.6346  -32.9328 H   0  0  0  0  0  0  0  0  0  0  0  0
   -2.4699   21.1592  -30.8866 H   0  0  0  0  0  0  0  0  0  0  0  0
   -1.2111   21.6531  -32.1153 H   0  0  0  0  0  0  0  0  0  0  0  0
   -3.4115   22.8888  -32.2793 H   0  0  0  0  0  0  0  0  0  0  0  0
   -2.8648   22.0572  -33.7788 H   0  0  0  0  0  0  0  0  0  0  0  0
  1  2  1  0
  2  3  1  0
  3  4  1  0
  3  5  1  0
  5  6  1  0
  6  7  1  0
  7  8  1  0
  8  9  1  0
  9 10  1  0
 10 11  1  0
 11 12  1  0
 12 13  1  0
 13 14  1  0
 14 15  2  0
 15 16  1  0
 16 17  2  0
 17 18  1  0
 17 19  1  0
 19 20  2  0
 20 21  1  0
 21 22  2  0
 22 23  1  0
 23 24  2  0
 16 25  1  0
 25 26  1  0
 26 27  1  0
 27 28  1  0
 24 14  1  0
 28 15  1  0
 24 19  1  0
  1 29  1  0
  1 30  1  0
  1 31  1  0
  2 32  1  0
  2 33  1  0
  4 34  1  0
  4 35  1  0
  4 36  1  0
  5 37  1  0
  5 38  1  0
  6 39  1  0
  6 40  1  0
  8 41  1  0
  8 42  1  0
  9 43  1  0
  9 44  1  0
 11 45  1  0
 11 46  1  0
 12 47  1  0
 12 48  1  0
 13 49  1  0
 18 50  1  0
 18 51  1  0
 18 52  1  0
 20 53  1  0
 21 54  1  0
 22 55  1  0
 23 56  1  0
 25 57  1  0
 25 58  1  0
 26 59  1  0
 26 60  1  0
 27 61  1  0
 27 62  1  0
 28 63  1  0
 28 64  1  0
M  CHG  1  17   1
M  END
>  <UniqueID>  (24) 
24

>  <SMILES>  (24) 
CCN(C)CCOCCOCCNc1c2c([n+](C)c3ccccc13)CCCC2

>  <Energy>  (24) 
91.27823535943388

>  <Genealogy>  (24) 
CCN(C)CCOCCOCCNc1c2c([n+](C)c3ccccc13)CCCC2 (3D coordinates assigned)
CCN(C)CCOCCOCCNc1c2c([n+](C)c3ccccc13)CCCC2 (nonaromatic ring conformer: 91.27823535943388 kcal/mol)

>  <smiles>  (24) 
CCN(C)CCOCCOCCNc1c2c([n+](C)c3ccccc13)CCCC2

>  <score_type>  (24) 
oracle

>  <origin>  (24) 
adg

>  <m_score__min__energy>  (24) 
-9.1899999999999995

>  <m_primary>  (24) 
energy

$$$$
24:0
     RDKit          3D

 79 82  0  0  0  0  0  0  0  0999 V2000
   -3.3810   18.8620  -26.3430 C   0  0  0  0  0  0  0  0  0  0  0  0
   -1.9630   19.4380  -26.3670 C   0  0  0  0  0  0  0  0  0  0  0  0
   -1.6660   20.1320  -27.6590 N   0  0  0  0  0  0  0  0  0  0  0  0
   -2.9200   20.4900  -28.3750 C   0  0  0  0  0  0  0  0  0  0  0  0
   -3.4780   21.8460  -27.9240 C   0  0  0  0  0  0  0  0  0  0  0  0
   -0.8570   21.3590  -27.4420 C   0  0  0  0  0  0  0  0  0  0  0  0
    0.6590   21.1000  -27.5690 C   0  0  0  0  0  0  0  0  0  0  0  0
    0.9160   19.7100  -27.6290 O   0  0  0  0  0  0  0  0  0  0  0  0
    1.9340   19.4280  -28.5720 C   0  0  0  0  0  0  0  0  0  0  0  0
    1.3020   18.9610  -29.8870 C   0  0  0  0  0  0  0  0  0  0  0  0
   -0.0720   18.6610  -29.7260 O   0  0  0  0  0  0  0  0  0  0  0  0
   -0.8310   19.0430  -30.8620 C   0  0  0  0  0  0  0  0  0  0  0  0
   -0.1160   20.1590  -31.6140 C   0  0  0  0  0  0  0  0  0  0  0  0
   -0.9790   21.2790  -31.6940 O   0  0  0  0  0  0  0  0  0  0  0  0
   -1.3570   21.5540  -33.0280 C   0  0  0  0  0  0  0  0  0  0  0  0
   -2.7290   20.9360  -33.3430 C   0  0  0  0  0  0  0  0  0  0  0  0
   -3.5040   20.6900  -32.1250 N   0  0  0  0  0  0  0  0  0  0  0  0
   -4.9340   20.5490  -32.1330 C   0  0  0  0  0  0  0  0  0  0  0  0
   -5.5720   19.3750  -32.6020 C   0  0  0  0  0  0  0  0  0  0  0  0
   -4.8160   18.2560  -33.0010 C   0  0  0  0  0  0  0  0  0  0  0  0
   -5.4450   17.0930  -33.4400 C   0  0  0  0  0  0  0  0  0  0  0  0
   -6.8330   17.0110  -33.4590 C   0  0  0  0  0  0  0  0  0  0  0  0
   -7.6100   18.0930  -33.0470 C   0  0  0  0  0  0  0  0  0  0  0  0
   -7.0080   19.3050  -32.6250 C   0  0  0  0  0  0  0  0  0  0  0  0
   -7.7700   20.3910  -32.2150 N   0  0  0  0  0  0  0  0  0  0  0  0
   -9.2430   20.3850  -32.3070 C   0  0  0  0  0  0  0  0  0  0  0  0
   -7.1230   21.4740  -31.6800 C   0  0  0  0  0  0  0  0  0  0  0  0
   -7.7040   22.5650  -31.1180 N   0  0  0  0  0  0  0  0  0  0  0  0
   -6.6780   23.3510  -30.7370 C   0  0  0  0  0  0  0  0  0  0  0  0
   -6.7700   24.5810  -30.0900 C   0  0  0  0  0  0  0  0  0  0  0  0
   -5.5770   25.2440  -29.7520 C   0  0  0  0  0  0  0  0  0  0  0  0
   -4.3150   24.6690  -30.0640 C   0  0  0  0  0  0  0  0  0  0  0  0
   -3.1040   25.2950  -29.7310 O   0  0  0  0  0  0  0  0  0  0  0  0
   -2.0990   24.7150  -28.9070 C   0  0  0  0  0  0  0  0  0  0  0  0
   -4.2590   23.4250  -30.7250 C   0  0  0  0  0  0  0  0  0  0  0  0
   -5.4600   22.7860  -31.0440 C   0  0  0  0  0  0  0  0  0  0  0  0
   -5.7450   21.5680  -31.6410 C   0  0  0  0  0  0  0  0  0  0  0  0
   -3.7056   18.7301  -25.3003 H   0  0  0  0  0  0  0  0  0  0  0  0
   -4.0662   19.5531  -26.8557 H   0  0  0  0  0  0  0  0  0  0  0  0
   -3.3902   17.8888  -26.8557 H   0  0  0  0  0  0  0  0  0  0  0  0
   -1.8579   20.1593  -25.5432 H   0  0  0  0  0  0  0  0  0  0  0  0
   -1.2538   18.6044  -26.2562 H   0  0  0  0  0  0  0  0  0  0  0  0
   -1.1140   19.5090  -28.2970 H   0  0  0  0  0  0  0  0  0  0  0  0
   -2.7115   20.5340  -29.4542 H   0  0  0  0  0  0  0  0  0  0  0  0
   -3.6722   19.7215  -28.1435 H   0  0  0  0  0  0  0  0  0  0  0  0
   -3.4953   21.8881  -26.8249 H   0  0  0  0  0  0  0  0  0  0  0  0
   -2.8388   22.6529  -28.3118 H   0  0  0  0  0  0  0  0  0  0  0  0
   -4.4999   21.9693  -28.3118 H   0  0  0  0  0  0  0  0  0  0  0  0
   -1.1499   22.1109  -28.1895 H   0  0  0  0  0  0  0  0  0  0  0  0
   -1.0507   21.7090  -26.4173 H   0  0  0  0  0  0  0  0  0  0  0  0
    1.0333   21.5782  -28.4862 H   0  0  0  0  0  0  0  0  0  0  0  0
    1.1689   21.5207  -26.6898 H   0  0  0  0  0  0  0  0  0  0  0  0
    2.5269   20.3366  -28.7533 H   0  0  0  0  0  0  0  0  0  0  0  0
    2.5865   18.6347  -28.1786 H   0  0  0  0  0  0  0  0  0  0  0  0
    1.4079   19.7585  -30.6372 H   0  0  0  0  0  0  0  0  0  0  0  0
    1.8187   18.0458  -30.2117 H   0  0  0  0  0  0  0  0  0  0  0  0
   -0.9533   18.1755  -31.5272 H   0  0  0  0  0  0  0  0  0  0  0  0
   -1.8173   19.4026  -30.5335 H   0  0  0  0  0  0  0  0  0  0  0  0
    0.8028   20.4374  -31.0770 H   0  0  0  0  0  0  0  0  0  0  0  0
    0.1501   19.8183  -32.6255 H   0  0  0  0  0  0  0  0  0  0  0  0
   -1.4104   22.6434  -33.1708 H   0  0  0  0  0  0  0  0  0  0  0  0
   -0.6084   21.1163  -33.7048 H   0  0  0  0  0  0  0  0  0  0  0  0
   -3.2908   21.6258  -33.9899 H   0  0  0  0  0  0  0  0  0  0  0  0
   -2.5638   19.9715  -33.8453 H   0  0  0  0  0  0  0  0  0  0  0  0
   -3.0170   20.7340  -31.2030 H   0  0  0  0  0  0  0  0  0  0  0  0
   -3.7175   18.3006  -32.9657 H   0  0  0  0  0  0  0  0  0  0  0  0
   -4.8411   16.2360  -33.7730 H   0  0  0  0  0  0  0  0  0  0  0  0
   -7.3212   16.0866  -33.8013 H   0  0  0  0  0  0  0  0  0  0  0  0
   -8.7065   18.0048  -33.0495 H   0  0  0  0  0  0  0  0  0  0  0  0
   -9.6736   20.3832  -31.2948 H   0  0  0  0  0  0  0  0  0  0  0  0
   -9.5803   21.2818  -32.8474 H   0  0  0  0  0  0  0  0  0  0  0  0
   -9.5730   19.4855  -32.8474 H   0  0  0  0  0  0  0  0  0  0  0  0
   -8.7160   22.7680  -30.9640 H   0  0  0  0  0  0  0  0  0  0  0  0
   -7.7489   25.0216  -29.8501 H   0  0  0  0  0  0  0  0  0  0  0  0
   -5.6207   26.2172  -29.2411 H   0  0  0  0  0  0  0  0  0  0  0  0
   -2.3601   24.8657  -27.8491 H   0  0  0  0  0  0  0  0  0  0  0  0
   -2.0290   23.6376  -29.1175 H   0  0  0  0  0  0  0  0  0  0  0  0
   -1.1311   25.1934  -29.1175 H   0  0  0  0  0  0  0  0  0  0  0  0
   -3.2924   22.9681  -30.9836 H   0  0  0  0  0  0  0  0  0  0  0  0
  1  2  1  0
  2  3  1  0
  3  4  1  0
  4  5  1  0
  3  6  1  0
  6  7  1  0
  7  8  1  0
  8  9  1  0
  9 10  1  0
 10 11  1  0
 11 12  1  0
 12 13  1  0
 13 14  1  0
 14 15  1  0
 15 16  1  0
 16 17  1  0
 17 18  1  0
 18 19  2  0
 19 20  1  0
 20 21  2  0
 21 22  1  0
 22 23  2  0
 23 24  1  0
 24 25  2  0
 25 26  1  0
 25 27  1  0
 27 28  1  0
 28 29  1  0
 29 30  2  0
 30 31  1  0
 31 32  2  0
 32 33  1  0
 33 34  1  0
 32 35  1  0
 35 36  2  0
 36 37  1  0
 37 18  1  0
 24 19  1  0
 37 27  2  0
 36 29  1  0
  1 38  1  0
  1 39  1  0
  1 40  1  0
  2 41  1  0
  2 42  1  0
  3 43  1  0
  4 44  1  0
  4 45  1  0
  5 46  1  0
  5 47  1  0
  5 48  1  0
  6 49  1  0
  6 50  1  0
  7 51  1  0
  7 52  1  0
  9 53  1  0
  9 54  1  0
 10 55  1  0
 10 56  1  0
 12 57  1  0
 12 58  1  0
 13 59  1  0
 13 60  1  0
 15 61  1  0
 15 62  1  0
 16 63  1  0
 16 64  1  0
 17 65  1  0
 20 66  1  0
 21 67  1  0
 22 68  1  0
 23 69  1  0
 26 70  1  0
 26 71  1  0
 26 72  1  0
 28 73  1  0
 30 74  1  0
 31 75  1  0
 34 76  1  0
 34 77  1  0
 34 78  1  0
 35 79  1  0
M  CHG  2   3   1  25   1
M  END
>  <UniqueID>  (25) 
25

>  <SMILES>  (25) 
CC[NH+](CC)CCOCCOCCOCCNc1c2ccccc2[n+](C)c2[nH]c3ccc(OC)cc3c12

>  <Energy>  (25) 
143.94561039402657

>  <Genealogy>  (25) 
CC[NH+](CC)CCOCCOCCOCCNc1c2ccccc2[n+](C)c2[nH]c3ccc(OC)cc3c12 (protonated)
CC[NH+](CC)CCOCCOCCOCCNc1c2ccccc2[n+](C)c2[nH]c3ccc(OC)cc3c12 (3D coordinates assigned)
CC[NH+](CC)CCOCCOCCOCCNc1c2ccccc2[n+](C)c2[nH]c3ccc(OC)cc3c12 (optimized conformer: 143.94561039402657 kcal/mol)

>  <smiles>  (25) 
CCN(CC)CCOCCOCCOCCNc1c2ccccc2[n+](C)c2[nH]c3ccc(OC)cc3c12

>  <score_type>  (25) 
oracle

>  <origin>  (25) 
adg

>  <m_score__min__energy>  (25) 
-9.4399999999999995

>  <m_primary>  (25) 
energy

$$$$
25:0
     RDKit          3D

 56 59  0  0  0  0  0  0  0  0999 V2000
   -6.1240   25.3050  -29.6830 C   0  0  0  0  0  0  0  0  0  0  0  0
   -5.1790   25.5820  -30.8420 C   0  0  0  0  0  0  0  0  0  0  0  0
   -3.8620   25.2450  -30.4580 O   0  0  0  0  0  0  0  0  0  0  0  0
   -3.8680   24.5130  -29.2470 C   0  0  0  0  0  0  0  0  0  0  0  0
   -3.2200   23.1360  -29.4600 C   0  0  0  0  0  0  0  0  0  0  0  0
   -2.6700   22.9850  -30.8230 N   0  0  0  0  0  0  0  0  0  0  0  0
   -2.7950   21.6070  -31.3460 C   0  0  0  0  0  0  0  0  0  0  0  0
   -2.8670   21.5650  -32.8810 C   0  0  0  0  0  0  0  0  0  0  0  0
   -4.2300   21.8280  -33.3410 N   0  0  0  0  0  0  0  0  0  0  0  0
   -5.3350   20.9790  -32.9950 C   0  0  0  0  0  0  0  0  0  0  0  0
   -5.2620   19.6010  -33.2040 C   0  0  0  0  0  0  0  0  0  0  0  0
   -6.3400   18.7850  -32.9190 C   0  0  0  0  0  0  0  0  0  0  0  0
   -7.4720   19.2600  -32.3070 N   0  0  0  0  0  0  0  0  0  0  0  0
   -8.4460   18.3230  -31.7230 C   0  0  0  0  0  0  0  0  0  0  0  0
   -7.6350   20.6320  -32.1950 C   0  0  0  0  0  0  0  0  0  0  0  0
   -8.8610   21.2030  -31.7780 C   0  0  0  0  0  0  0  0  0  0  0  0
   -9.0020   22.5840  -31.6400 C   0  0  0  0  0  0  0  0  0  0  0  0
   -7.9350   23.4290  -31.9240 C   0  0  0  0  0  0  0  0  0  0  0  0
   -6.7230   22.9060  -32.3670 C   0  0  0  0  0  0  0  0  0  0  0  0
   -6.5560   21.5150  -32.5260 C   0  0  0  0  0  0  0  0  0  0  0  0
   -6.0230   17.4340  -33.4050 C   0  0  0  0  0  0  0  0  0  0  0  0
   -6.8190   16.2880  -33.5590 C   0  0  0  0  0  0  0  0  0  0  0  0
   -6.2490   15.1470  -34.1450 C   0  0  0  0  0  0  0  0  0  0  0  0
   -4.9230   15.1690  -34.6080 C   0  0  0  0  0  0  0  0  0  0  0  0
   -4.1620   16.3420  -34.5110 C   0  0  0  0  0  0  0  0  0  0  0  0
   -4.7350   17.4670  -33.9160 C   0  0  0  0  0  0  0  0  0  0  0  0
   -4.1320   18.8300  -33.8240 C   0  0  0  0  0  0  0  0  0  0  0  0
   -5.5934   25.4605  -28.7321 H   0  0  0  0  0  0  0  0  0  0  0  0
   -6.9837   25.9889  -29.7393 H   0  0  0  0  0  0  0  0  0  0  0  0
   -6.4784   24.2652  -29.7393 H   0  0  0  0  0  0  0  0  0  0  0  0
   -5.4752   24.9763  -31.7111 H   0  0  0  0  0  0  0  0  0  0  0  0
   -5.2247   26.6480  -31.1095 H   0  0  0  0  0  0  0  0  0  0  0  0
   -3.3022   25.0674  -28.4838 H   0  0  0  0  0  0  0  0  0  0  0  0
   -4.9074   24.3746  -28.9147 H   0  0  0  0  0  0  0  0  0  0  0  0
   -2.4042   23.0116  -28.7326 H   0  0  0  0  0  0  0  0  0  0  0  0
   -3.9980   22.3707  -29.3222 H   0  0  0  0  0  0  0  0  0  0  0  0
   -3.1660   23.6510  -31.4590 H   0  0  0  0  0  0  0  0  0  0  0  0
   -1.6600   23.2610  -30.8300 H   0  0  0  0  0  0  0  0  0  0  0  0
   -1.9217   21.0243  -31.0176 H   0  0  0  0  0  0  0  0  0  0  0  0
   -3.7326   21.1847  -30.9554 H   0  0  0  0  0  0  0  0  0  0  0  0
   -2.1922   22.3285  -33.2953 H   0  0  0  0  0  0  0  0  0  0  0  0
   -2.5651   20.5638  -33.2224 H   0  0  0  0  0  0  0  0  0  0  0  0
   -4.4090   22.6810  -33.9180 H   0  0  0  0  0  0  0  0  0  0  0  0
   -8.3921   18.3748  -30.6255 H   0  0  0  0  0  0  0  0  0  0  0  0
   -9.4595   18.5943  -32.0536 H   0  0  0  0  0  0  0  0  0  0  0  0
   -8.2141   17.2998  -32.0536 H   0  0  0  0  0  0  0  0  0  0  0  0
   -9.7166   20.5472  -31.5592 H   0  0  0  0  0  0  0  0  0  0  0  0
   -9.9610   23.0061  -31.3052 H   0  0  0  0  0  0  0  0  0  0  0  0
   -8.0489   24.5158  -31.7981 H   0  0  0  0  0  0  0  0  0  0  0  0
   -5.8878   23.5845  -32.5951 H   0  0  0  0  0  0  0  0  0  0  0  0
   -7.8678   16.2843  -33.2273 H   0  0  0  0  0  0  0  0  0  0  0  0
   -6.8456   14.2280  -34.2425 H   0  0  0  0  0  0  0  0  0  0  0  0
   -4.4806   14.2631  -35.0480 H   0  0  0  0  0  0  0  0  0  0  0  0
   -3.1323   16.3753  -34.8966 H   0  0  0  0  0  0  0  0  0  0  0  0
   -3.2393   18.8344  -33.1814 H   0  0  0  0  0  0  0  0  0  0  0  0
   -3.7785   19.2356  -34.7835 H   0  0  0  0  0  0  0  0  0  0  0  0
  1  2  1  0
  2  3  1  0
  3  4  1  0
  4  5  1  0
  5  6  1  0
  6  7  1  0
  7  8  1  0
  8  9  1  0
  9 10  1  0
 10 11  2  0
 11 12  1  0
 12 13  2  0
 13 14  1  0
 13 15  1  0
 15 16  2  0
 16 17  1  0
 17 18  2  0
 18 19  1  0
 19 20  2  0
 12 21  1  0
 21 22  2  0
 22 23  1  0
 23 24  2  0
 24 25  1  0
 25 26  2  0
 26 27  1  0
 20 10  1  0
 26 21  1  0
 27 11  1  0
 20 15  1  0
  1 28  1  0
  1 29  1  0
  1 30  1  0
  2 31  1  0
  2 32  1  0
  4 33  1  0
  4 34  1  0
  5 35  1  0
  5 36  1  0
  6 37  1  0
  6 38  1  0
  7 39  1  0
  7 40  1  0
  8 41  1  0
  8 42  1  0
  9 43  1  0
 14 44  1  0
 14 45  1  0
 14 46  1  0
 16 47  1  0
 17 48  1  0
 18 49  1  0
 19 50  1  0
 22 51  1  0
 23 52  1  0
 24 53  1  0
 25 54  1  0
 27 55  1  0
 27 56  1  0
M  CHG  2   6   1  13   1
M  END
>  <UniqueID>  (26) 
26

>  <SMILES>  (26) 
CCOCC[NH2+]CCNc1c2c([n+](C)c3ccccc13)-c1ccccc1C2

>  <Energy>  (26) 
99.54132274762654

>  <Genealogy>  (26) 
CCOCC[NH2+]CCNc1c2c([n+](C)c3ccccc13)-c1ccccc1C2 (protonated)
CCOCC[NH2+]CCNc1c2c([n+](C)c3ccccc13)-c1ccccc1C2 (3D coordinates assigned)
CCOCC[NH2+]CCNc1c2c([n+](C)c3ccccc13)-c1ccccc1C2 (nonaromatic ring conformer: 99.54132274762654 kcal/mol)

>  <smiles>  (26) 
CCOCCNCCNc1c2c([n+](C)c3ccccc13)-c1ccccc1C2

>  <score_type>  (26) 
oracle

>  <origin>  (26) 
adg

>  <m_score__min__energy>  (26) 
-8.5199999999999996

>  <m_primary>  (26) 
energy

$$$$
26:0
     RDKit          3D

 35 34  0  0  0  0  0  0  0  0999 V2000
   -0.8470   27.9020  -25.9180 C   0  0  0  0  0  0  0  0  0  0  0  0
   -0.8830   26.6630  -26.8250 C   0  0  0  0  0  0  0  0  0  0  0  0
   -1.3830   25.3870  -26.2020 N   0  0  0  0  0  0  0  0  0  0  0  0
   -0.5150   24.9330  -25.0580 C   0  0  0  0  0  0  0  0  0  0  0  0
   -0.2800   23.4150  -24.9410 C   0  0  0  0  0  0  0  0  0  0  0  0
   -2.7580   25.6550  -25.6440 C   0  0  0  0  0  0  0  0  0  0  0  0
   -3.9270   24.9380  -26.3520 C   0  0  0  0  0  0  0  0  0  0  0  0
   -1.5070   24.2920  -27.2390 C   0  0  0  0  0  0  0  0  0  0  0  0
   -1.1850   24.6630  -28.7090 C   0  0  0  0  0  0  0  0  0  0  0  0
   -2.3570   25.2670  -29.3370 N   0  0  0  0  0  0  0  0  0  0  0  0
   -3.4230   24.5670  -29.9960 C   0  0  0  0  0  0  0  0  0  0  0  0
   -4.1180   25.1910  -30.8400 O   0  0  0  0  0  0  0  0  0  0  0  0
   -3.6980   23.1080  -29.7520 C   0  0  0  0  0  0  0  0  0  0  0  0
   -4.0120   22.9090  -28.4210 F   0  0  0  0  0  0  0  0  0  0  0  0
   -4.7470   22.6790  -30.5410 F   0  0  0  0  0  0  0  0  0  0  0  0
   -2.5800   22.3520  -30.0590 F   0  0  0  0  0  0  0  0  0  0  0  0
   -0.8562   27.5856  -24.8645 H   0  0  0  0  0  0  0  0  0  0  0  0
    0.0683   28.4778  -26.1199 H   0  0  0  0  0  0  0  0  0  0  0  0
   -1.7273   28.5300  -26.1199 H   0  0  0  0  0  0  0  0  0  0  0  0
   -1.5344   26.8944  -27.6807 H   0  0  0  0  0  0  0  0  0  0  0  0
    0.1665   26.4656  -27.0888 H   0  0  0  0  0  0  0  0  0  0  0  0
    0.4667   25.4166  -25.1695 H   0  0  0  0  0  0  0  0  0  0  0  0
   -1.0597   25.2169  -24.1455 H   0  0  0  0  0  0  0  0  0  0  0  0
   -0.2361   23.1315  -23.8791 H   0  0  0  0  0  0  0  0  0  0  0  0
   -1.1056   22.8774  -25.4302 H   0  0  0  0  0  0  0  0  0  0  0  0
    0.6695   23.1522  -25.4302 H   0  0  0  0  0  0  0  0  0  0  0  0
   -2.7602   25.3418  -24.5895 H   0  0  0  0  0  0  0  0  0  0  0  0
   -2.9348   26.7302  -25.7946 H   0  0  0  0  0  0  0  0  0  0  0  0
   -4.6103   24.5189  -25.5987 H   0  0  0  0  0  0  0  0  0  0  0  0
   -4.4715   25.6576  -26.9810 H   0  0  0  0  0  0  0  0  0  0  0  0
   -3.5324   24.1264  -26.9810 H   0  0  0  0  0  0  0  0  0  0  0  0
   -0.8240   23.4810  -26.9460 H   0  0  0  0  0  0  0  0  0  0  0  0
   -2.5747   24.0273  -27.2428 H   0  0  0  0  0  0  0  0  0  0  0  0
   -0.3502   25.3790  -28.7301 H   0  0  0  0  0  0  0  0  0  0  0  0
   -0.9076   23.7523  -29.2601 H   0  0  0  0  0  0  0  0  0  0  0  0
  1  2  1  0
  2  3  1  0
  3  4  1  0
  4  5  1  0
  3  6  1  0
  6  7  1  0
  3  8  1  0
  8  9  1  0
  9 10  1  0
 10 11  1  0
 11 12  2  0
 11 13  1  0
 13 14  1  0
 13 15  1  0
 13 16  1  0
  1 17  1  0
  1 18  1  0
  1 19  1  0
  2 20  1  0
  2 21  1  0
  4 22  1  0
  4 23  1  0
  5 24  1  0
  5 25  1  0
  5 26  1  0
  6 27  1  0
  6 28  1  0
  7 29  1  0
  7 30  1  0
  7 31  1  0
  8 32  1  0
  8 33  1  0
  9 34  1  0
  9 35  1  0
M  CHG  2   3   1  10  -1
M  END
>  <UniqueID>  (27) 
27

>  <SMILES>  (27) 
CC[N+](CC)(CC)CC[N-]C(=O)C(F)(F)F

>  <Energy>  (27) 
50.61981276309586

>  <Genealogy>  (27) 
CC[N+](CC)(CC)CC[N-]C(=O)C(F)(F)F (protonated)
CC[N+](CC)(CC)CC[N-]C(=O)C(F)(F)F (3D coordinates assigned)
CC[N+](CC)(CC)CC[N-]C(=O)C(F)(F)F (optimized conformer: 50.61981276309586 kcal/mol)

>  <smiles>  (27) 
CC[N+](CC)(CC)CCNC(=O)C(F)(F)F

>  <score_type>  (27) 
oracle

>  <origin>  (27) 
adg

>  <m_score__min__energy>  (27) 
-4.8499999999999996

>  <m_primary>  (27) 
energy

$$$$
27:0
     RDKit          3D

 67 70  0  0  0  0  0  0  0  0999 V2000
   -2.7380   20.2740  -27.4950 C   0  0  0  0  0  0  0  0  0  0  0  0
   -3.0090   20.9170  -28.8620 C   0  0  0  0  0  0  0  0  0  0  0  0
   -3.1870   22.3880  -28.8090 N   0  0  0  0  0  0  0  0  0  0  0  0
   -4.2310   22.8100  -27.8420 C   0  0  0  0  0  0  0  0  0  0  0  0
   -3.8630   24.1740  -27.2660 C   0  0  0  0  0  0  0  0  0  0  0  0
   -1.9060   23.1110  -28.6560 C   0  0  0  0  0  0  0  0  0  0  0  0
   -0.8090   22.4820  -29.5300 C   0  0  0  0  0  0  0  0  0  0  0  0
   -1.2530   22.3000  -30.8630 O   0  0  0  0  0  0  0  0  0  0  0  0
   -0.4700   21.3420  -31.5530 C   0  0  0  0  0  0  0  0  0  0  0  0
   -0.9410   21.1120  -33.0000 C   0  0  0  0  0  0  0  0  0  0  0  0
   -1.8480   19.8770  -33.1960 C   0  0  0  0  0  0  0  0  0  0  0  0
   -3.0070   20.0940  -34.0930 N   0  0  0  0  0  0  0  0  0  0  0  0
   -4.2880   20.1130  -33.4060 C   0  0  0  0  0  0  0  0  0  0  0  0
   -5.1210   18.9630  -33.3200 C   0  0  0  0  0  0  0  0  0  0  0  0
   -6.4750   19.1140  -32.8800 C   0  0  0  0  0  0  0  0  0  0  0  0
   -6.9230   20.3450  -32.4280 N   0  0  0  0  0  0  0  0  0  0  0  0
   -8.3650   20.6160  -32.3400 C   0  0  0  0  0  0  0  0  0  0  0  0
   -6.0010   21.3350  -32.1710 C   0  0  0  0  0  0  0  0  0  0  0  0
   -4.7180   21.2460  -32.7080 C   0  0  0  0  0  0  0  0  0  0  0  0
   -3.8190   22.6190  -32.3080 S   0  0  0  0  0  0  0  0  0  0  0  0
   -5.0470   23.3400  -31.4250 C   0  0  0  0  0  0  0  0  0  0  0  0
   -4.9800   24.5530  -30.7370 C   0  0  0  0  0  0  0  0  0  0  0  0
   -6.0780   24.9410  -29.9600 C   0  0  0  0  0  0  0  0  0  0  0  0
   -7.1990   24.1050  -29.8580 C   0  0  0  0  0  0  0  0  0  0  0  0
   -7.2430   22.8780  -30.5460 C   0  0  0  0  0  0  0  0  0  0  0  0
   -6.1740   22.5170  -31.3930 C   0  0  0  0  0  0  0  0  0  0  0  0
   -7.3900   17.8910  -32.7770 C   0  0  0  0  0  0  0  0  0  0  0  0
   -6.8550   16.6480  -33.4830 C   0  0  0  0  0  0  0  0  0  0  0  0
   -5.3910   16.4380  -33.1360 C   0  0  0  0  0  0  0  0  0  0  0  0
   -4.5650   17.5960  -33.6870 C   0  0  0  0  0  0  0  0  0  0  0  0
   -3.0320   20.9716  -26.6969 H   0  0  0  0  0  0  0  0  0  0  0  0
   -3.3215   19.3460  -27.4042 H   0  0  0  0  0  0  0  0  0  0  0  0
   -1.6662   20.0436  -27.4042 H   0  0  0  0  0  0  0  0  0  0  0  0
   -2.1592   20.6945  -29.5240 H   0  0  0  0  0  0  0  0  0  0  0  0
   -3.9545   20.4940  -29.2322 H   0  0  0  0  0  0  0  0  0  0  0  0
   -5.2015   22.8776  -28.3553 H   0  0  0  0  0  0  0  0  0  0  0  0
   -4.2994   22.0728  -27.0285 H   0  0  0  0  0  0  0  0  0  0  0  0
   -3.8765   24.1238  -26.1672 H   0  0  0  0  0  0  0  0  0  0  0  0
   -2.8564   24.4569  -27.6077 H   0  0  0  0  0  0  0  0  0  0  0  0
   -4.5907   24.9248  -27.6077 H   0  0  0  0  0  0  0  0  0  0  0  0
   -2.0472   24.1599  -28.9559 H   0  0  0  0  0  0  0  0  0  0  0  0
   -1.5930   23.0492  -27.6033 H   0  0  0  0  0  0  0  0  0  0  0  0
    0.0701   23.1432  -29.5324 H   0  0  0  0  0  0  0  0  0  0  0  0
   -0.5545   21.4970  -29.1117 H   0  0  0  0  0  0  0  0  0  0  0  0
    0.5728   21.6914  -31.5749 H   0  0  0  0  0  0  0  0  0  0  0  0
   -0.5710   20.3864  -31.0176 H   0  0  0  0  0  0  0  0  0  0  0  0
   -1.5000   22.0023  -33.3238 H   0  0  0  0  0  0  0  0  0  0  0  0
   -0.0347   20.9290  -33.5959 H   0  0  0  0  0  0  0  0  0  0  0  0
   -1.2358   19.0662  -33.6178 H   0  0  0  0  0  0  0  0  0  0  0  0
   -2.2630   19.6371  -32.2060 H   0  0  0  0  0  0  0  0  0  0  0  0
   -2.8210   20.9810  -34.6100 H   0  0  0  0  0  0  0  0  0  0  0  0
   -3.0270   19.3280  -34.8040 H   0  0  0  0  0  0  0  0  0  0  0  0
   -8.6637   20.6721  -31.2828 H   0  0  0  0  0  0  0  0  0  0  0  0
   -8.5893   21.5720  -32.8357 H   0  0  0  0  0  0  0  0  0  0  0  0
   -8.9211   19.8066  -32.8357 H   0  0  0  0  0  0  0  0  0  0  0  0
   -4.0851   25.1892  -30.8039 H   0  0  0  0  0  0  0  0  0  0  0  0
   -6.0613   25.9038  -29.4283 H   0  0  0  0  0  0  0  0  0  0  0  0
   -8.0520   24.4110  -29.2345 H   0  0  0  0  0  0  0  0  0  0  0  0
   -8.1047   22.2053  -30.4242 H   0  0  0  0  0  0  0  0  0  0  0  0
   -7.5265   17.6510  -31.7122 H   0  0  0  0  0  0  0  0  0  0  0  0
   -8.3322   18.1581  -33.2779 H   0  0  0  0  0  0  0  0  0  0  0  0
   -7.4343   15.7698  -33.1618 H   0  0  0  0  0  0  0  0  0  0  0  0
   -6.9507   16.7832  -34.5705 H   0  0  0  0  0  0  0  0  0  0  0  0
   -5.2763   16.3937  -32.0429 H   0  0  0  0  0  0  0  0  0  0  0  0
   -5.0411   15.4947  -33.5807 H   0  0  0  0  0  0  0  0  0  0  0  0
   -3.5432   17.5165  -33.2875 H   0  0  0  0  0  0  0  0  0  0  0  0
   -4.5898   17.5193  -34.7840 H   0  0  0  0  0  0  0  0  0  0  0  0
  1  2  1  0
  2  3  1  0
  3  4  1  0
  4  5  1  0
  3  6  1  0
  6  7  1  0
  7  8  1  0
  8  9  1  0
  9 10  1  0
 10 11  1  0
 11 12  1  0
 12 13  1  0
 13 14  2  0
 14 15  1  0
 15 16  2  0
 16 17  1  0
 16 18  1  0
 18 19  2  0
 19 20  1  0
 20 21  1  0
 21 22  2  0
 22 23  1  0
 23 24  2  0
 24 25  1  0
 25 26  2  0
 15 27  1  0
 27 28  1  0
 28 29  1  0
 29 30  1  0
 19 13  1  0
 26 21  1  0
 30 14  1  0
 26 18  1  0
  1 31  1  0
  1 32  1  0
  1 33  1  0
  2 34  1  0
  2 35  1  0
  4 36  1  0
  4 37  1  0
  5 38  1  0
  5 39  1  0
  5 40  1  0
  6 41  1  0
  6 42  1  0
  7 43  1  0
  7 44  1  0
  9 45  1  0
  9 46  1  0
 10 47  1  0
 10 48  1  0
 11 49  1  0
 11 50  1  0
 12 51  1  0
 12 52  1  0
 17 53  1  0
 17 54  1  0
 17 55  1  0
 22 56  1  0
 23 57  1  0
 24 58  1  0
 25 59  1  0
 27 60  1  0
 27 61  1  0
 28 62  1  0
 28 63  1  0
 29 64  1  0
 29 65  1  0
 30 66  1  0
 30 67  1  0
M  CHG  2  12   1  16   1
M  END
>  <UniqueID>  (28) 
28

>  <SMILES>  (28) 
CCN(CC)CCOCCC[NH2+]c1c2c([n+](C)c3c1sc1ccccc13)CCCC2

>  <Energy>  (28) 
132.7516863227541

>  <Genealogy>  (28) 
CCN(CC)CCOCCC[NH2+]c1c2c([n+](C)c3c1sc1ccccc13)CCCC2 (protonated)
CCN(CC)CCOCCC[NH2+]c1c2c([n+](C)c3c1sc1ccccc13)CCCC2 (3D coordinates assigned)
CCN(CC)CCOCCC[NH2+]c1c2c([n+](C)c3c1sc1ccccc13)CCCC2 (nonaromatic ring conformer: 132.7516863227541 kcal/mol)

>  <smiles>  (28) 
CCN(CC)CCOCCCNc1c2c([n+](C)c3c1sc1ccccc13)CCCC2

>  <score_type>  (28) 
oracle

>  <origin>  (28) 
adg

>  <m_score__min__energy>  (28) 
-8.4900000000000002

>  <m_primary>  (28) 
energy

$$$$
28:0
     RDKit          3D

 38 38  0  0  0  0  0  0  0  0999 V2000
   -3.1720   21.8880  -32.3550 C   0  0  0  0  0  0  0  0  0  0  0  0
   -4.3940   21.1570  -32.9020 C   0  0  0  0  0  0  0  0  0  0  0  0
   -5.2870   20.7510  -31.8160 N   0  0  0  0  0  0  0  0  0  0  0  0
   -6.7220   20.6800  -31.9400 C   0  0  0  0  0  0  0  0  0  0  0  0
   -7.3110   19.7930  -32.8600 C   0  0  0  0  0  0  0  0  0  0  0  0
   -8.6590   19.7700  -33.0370 N   0  0  0  0  0  0  0  0  0  0  0  0
   -9.4780   20.6070  -32.3510 C   0  0  0  0  0  0  0  0  0  0  0  0
   -8.9500   21.5010  -31.4240 C   0  0  0  0  0  0  0  0  0  0  0  0
   -7.5670   21.5250  -31.1780 C   0  0  0  0  0  0  0  0  0  0  0  0
   -7.0320   22.4690  -30.1200 C   0  0  0  0  0  0  0  0  0  0  0  0
   -6.9430   23.8540  -30.6490 N   0  0  0  0  0  0  0  0  0  0  0  0
   -6.4210   23.8400  -32.0270 C   0  0  0  0  0  0  0  0  0  0  0  0
   -6.0930   24.7290  -29.8080 C   0  0  0  0  0  0  0  0  0  0  0  0
   -5.2200   25.6660  -30.6470 C   0  0  0  0  0  0  0  0  0  0  0  0
   -3.8630   25.2950  -30.5150 O   0  0  0  0  0  0  0  0  0  0  0  0
   -3.7680   24.1560  -29.6900 C   0  0  0  0  0  0  0  0  0  0  0  0
   -3.1974   21.8728  -31.2554 H   0  0  0  0  0  0  0  0  0  0  0  0
   -2.2576   21.3884  -32.7076 H   0  0  0  0  0  0  0  0  0  0  0  0
   -3.1798   22.9299  -32.7076 H   0  0  0  0  0  0  0  0  0  0  0  0
   -4.9381   21.8257  -33.5852 H   0  0  0  0  0  0  0  0  0  0  0  0
   -4.0561   20.2563  -33.4355 H   0  0  0  0  0  0  0  0  0  0  0  0
   -4.8460   20.5230  -30.8970 H   0  0  0  0  0  0  0  0  0  0  0  0
   -6.6741   19.1109  -33.4423 H   0  0  0  0  0  0  0  0  0  0  0  0
   -9.0720   19.1060  -33.7290 H   0  0  0  0  0  0  0  0  0  0  0  0
  -10.5633   20.5788  -32.5283 H   0  0  0  0  0  0  0  0  0  0  0  0
   -9.6162   22.1894  -30.8835 H   0  0  0  0  0  0  0  0  0  0  0  0
   -7.7063   22.4570  -29.2510 H   0  0  0  0  0  0  0  0  0  0  0  0
   -6.0252   22.1371  -29.8263 H   0  0  0  0  0  0  0  0  0  0  0  0
   -5.3217   23.8105  -32.0024 H   0  0  0  0  0  0  0  0  0  0  0  0
   -6.7999   22.9517  -32.5536 H   0  0  0  0  0  0  0  0  0  0  0  0
   -6.7518   24.7473  -32.5536 H   0  0  0  0  0  0  0  0  0  0  0  0
   -6.7418   25.3356  -29.1591 H   0  0  0  0  0  0  0  0  0  0  0  0
   -5.4257   24.0846  -29.2168 H   0  0  0  0  0  0  0  0  0  0  0  0
   -5.5177   25.5953  -31.7036 H   0  0  0  0  0  0  0  0  0  0  0  0
   -5.3517   26.7000  -30.2955 H   0  0  0  0  0  0  0  0  0  0  0  0
   -3.7937   24.4646  -28.6345 H   0  0  0  0  0  0  0  0  0  0  0  0
   -4.6131   23.4826  -29.8959 H   0  0  0  0  0  0  0  0  0  0  0  0
   -2.8230   23.6319  -29.8959 H   0  0  0  0  0  0  0  0  0  0  0  0
  1  2  1  0
  2  3  1  0
  3  4  1  0
  4  5  2  0
  5  6  1  0
  6  7  2  0
  7  8  1  0
  8  9  2  0
  9 10  1  0
 10 11  1  0
 11 12  1  0
 11 13  1  0
 13 14  1  0
 14 15  1  0
 15 16  1  0
  9  4  1  0
  1 17  1  0
  1 18  1  0
  1 19  1  0
  2 20  1  0
  2 21  1  0
  3 22  1  0
  5 23  1  0
  6 24  1  0
  7 25  1  0
  8 26  1  0
 10 27  1  0
 10 28  1  0
 12 29  1  0
 12 30  1  0
 12 31  1  0
 13 32  1  0
 13 33  1  0
 14 34  1  0
 14 35  1  0
 16 36  1  0
 16 37  1  0
 16 38  1  0
M  CHG  1   6   1
M  END
>  <UniqueID>  (29) 
29

>  <SMILES>  (29) 
CCNc1c[nH+]ccc1CN(C)CCOC

>  <Energy>  (29) 
35.14349235622393

>  <Genealogy>  (29) 
CCNc1c[nH+]ccc1CN(C)CCOC (protonated)
CCNc1c[nH+]ccc1CN(C)CCOC (3D coordinates assigned)
CCNc1c[nH+]ccc1CN(C)CCOC (optimized conformer: 35.14349235622393 kcal/mol)

>  <smiles>  (29) 
CCNc1cnccc1CN(C)CCOC

>  <score_type>  (29) 
oracle

>  <origin>  (29) 
adg

>  <m_score__min__energy>  (29) 
-5.6500000000000004

>  <m_primary>  (29) 
energy

$$$$
