0:0
     RDKit          3D

 61 63  0  0  0  0  0  0  0  0999 V2000
   -2.3900   19.4850  -26.5520 C   0  0  0  0  0  0  0  0  0  0  0  0
   -2.7560   20.2230  -27.8440 C   0  0  0  0  0  0  0  0  0  0  0  0
   -2.5650   21.6820  -27.7370 N   0  0  0  0  0  0  0  0  0  0  0  0
   -2.3030   22.3440  -29.0310 C   0  0  0  0  0  0  0  0  0  0  0  0
   -2.1770   23.8730  -28.8950 C   0  0  0  0  0  0  0  0  0  0  0  0
   -3.5320   24.5620  -29.0650 C   0  0  0  0  0  0  0  0  0  0  0  0
   -3.7370   24.8670  -30.4910 N   0  0  0  0  0  0  0  0  0  0  0  0
   -5.1160   25.2780  -30.7900 C   0  0  0  0  0  0  0  0  0  0  0  0
   -5.9110   24.1160  -31.3980 C   0  0  0  0  0  0  0  0  0  0  0  0
   -5.3960   22.8180  -30.9480 N   0  0  0  0  0  0  0  0  0  0  0  0
   -5.6600   21.5990  -31.6660 C   0  0  0  0  0  0  0  0  0  0  0  0
   -6.9810   21.1550  -31.8530 C   0  0  0  0  0  0  0  0  0  0  0  0
   -8.0610   21.8110  -31.2260 C   0  0  0  0  0  0  0  0  0  0  0  0
   -9.3730   21.4130  -31.4670 C   0  0  0  0  0  0  0  0  0  0  0  0
   -9.6320   20.3600  -32.3350 C   0  0  0  0  0  0  0  0  0  0  0  0
   -8.5780   19.6680  -32.9320 C   0  0  0  0  0  0  0  0  0  0  0  0
   -7.2280   20.0140  -32.6660 C   0  0  0  0  0  0  0  0  0  0  0  0
   -6.1720   19.2830  -33.1770 N   0  0  0  0  0  0  0  0  0  0  0  0
   -6.4240   17.9570  -33.7870 C   0  0  0  0  0  0  0  0  0  0  0  0
   -4.8780   19.7640  -33.0730 C   0  0  0  0  0  0  0  0  0  0  0  0
   -3.8040   19.1780  -33.7890 C   0  0  0  0  0  0  0  0  0  0  0  0
   -2.4830   19.6240  -33.6320 C   0  0  0  0  0  0  0  0  0  0  0  0
   -1.3790   18.9500  -34.4100 C   0  0  0  0  0  0  0  0  0  0  0  0
   -2.2050   20.6620  -32.7210 C   0  0  0  0  0  0  0  0  0  0  0  0
   -0.8010   21.1700  -32.5080 C   0  0  0  0  0  0  0  0  0  0  0  0
   -3.2640   21.2880  -32.0530 C   0  0  0  0  0  0  0  0  0  0  0  0
   -4.6000   20.8850  -32.2540 C   0  0  0  0  0  0  0  0  0  0  0  0
   -2.6909   20.0918  -25.6853 H   0  0  0  0  0  0  0  0  0  0  0  0
   -2.9128   18.5176  -26.5216 H   0  0  0  0  0  0  0  0  0  0  0  0
   -1.3035   19.3157  -26.5216 H   0  0  0  0  0  0  0  0  0  0  0  0
   -2.1216   19.8433  -28.6585 H   0  0  0  0  0  0  0  0  0  0  0  0
   -3.8225   20.0400  -28.0418 H   0  0  0  0  0  0  0  0  0  0  0  0
   -1.7640   21.8800  -27.0910 H   0  0  0  0  0  0  0  0  0  0  0  0
   -3.4160   22.1020  -27.2970 H   0  0  0  0  0  0  0  0  0  0  0  0
   -1.3646   21.9480  -29.4465 H   0  0  0  0  0  0  0  0  0  0  0  0
   -3.1569   22.1360  -29.6924 H   0  0  0  0  0  0  0  0  0  0  0  0
   -1.7765   24.1119  -27.8987 H   0  0  0  0  0  0  0  0  0  0  0  0
   -1.5024   24.2363  -29.6843 H   0  0  0  0  0  0  0  0  0  0  0  0
   -4.3322   23.8952  -28.7114 H   0  0  0  0  0  0  0  0  0  0  0  0
   -3.5530   25.4923  -28.4784 H   0  0  0  0  0  0  0  0  0  0  0  0
   -3.0950   25.6500  -30.7570 H   0  0  0  0  0  0  0  0  0  0  0  0
   -5.6055   25.6020  -29.8597 H   0  0  0  0  0  0  0  0  0  0  0  0
   -5.0881   26.1040  -31.5159 H   0  0  0  0  0  0  0  0  0  0  0  0
   -6.9646   24.2068  -31.0953 H   0  0  0  0  0  0  0  0  0  0  0  0
   -5.8121   24.1657  -32.4924 H   0  0  0  0  0  0  0  0  0  0  0  0
   -4.7610   22.7870  -30.1190 H   0  0  0  0  0  0  0  0  0  0  0  0
   -7.8641   22.6469  -30.5386 H   0  0  0  0  0  0  0  0  0  0  0  0
  -10.2052   21.9328  -30.9697 H   0  0  0  0  0  0  0  0  0  0  0  0
  -10.6709   20.0710  -32.5522 H   0  0  0  0  0  0  0  0  0  0  0  0
   -8.7975   18.8393  -33.6213 H   0  0  0  0  0  0  0  0  0  0  0  0
   -6.5661   17.2092  -32.9929 H   0  0  0  0  0  0  0  0  0  0  0  0
   -7.3289   18.0062  -34.4105 H   0  0  0  0  0  0  0  0  0  0  0  0
   -5.5642   17.6709  -34.4105 H   0  0  0  0  0  0  0  0  0  0  0  0
   -4.0116   18.3524  -34.4856 H   0  0  0  0  0  0  0  0  0  0  0  0
   -0.6546   18.5077  -33.7103 H   0  0  0  0  0  0  0  0  0  0  0  0
   -1.8069   18.1590  -35.0433 H   0  0  0  0  0  0  0  0  0  0  0  0
   -0.8709   19.6921  -35.0433 H   0  0  0  0  0  0  0  0  0  0  0  0
   -0.5974   21.2437  -31.4295 H   0  0  0  0  0  0  0  0  0  0  0  0
   -0.0852   20.4739  -32.9696 H   0  0  0  0  0  0  0  0  0  0  0  0
   -0.6964   22.1630  -32.9696 H   0  0  0  0  0  0  0  0  0  0  0  0
   -3.0492   22.1118  -31.3565 H   0  0  0  0  0  0  0  0  0  0  0  0
  1  2  1  0
  2  3  1  0
  3  4  1  0
  4  5  1  0
  5  6  1  0
  6  7  1  0
  7  8  1  0
  8  9  1  0
  9 10  1  0
 10 11  1  0
 11 12  2  0
 12 13  1  0
 13 14  2  0
 14 15  1  0
 15 16  2  0
 16 17  1  0
 17 18  2  0
 18 19  1  0
 18 20  1  0
 20 21  2  0
 21 22  1  0
 22 23  1  0
 22 24  2  0
 24 25  1  0
 24 26  1  0
 26 27  2  0
 27 11  1  0
 17 12  1  0
 27 20  1  0
  1 28  1  0
  1 29  1  0
  1 30  1  0
  2 31  1  0
  2 32  1  0
  3 33  1  0
  3 34  1  0
  4 35  1  0
  4 36  1  0
  5 37  1  0
  5 38  1  0
  6 39  1  0
  6 40  1  0
  7 41  1  0
  8 42  1  0
  8 43  1  0
  9 44  1  0
  9 45  1  0
 10 46  1  0
 13 47  1  0
 14 48  1  0
 15 49  1  0
 16 50  1  0
 19 51  1  0
 19 52  1  0
 19 53  1  0
 21 54  1  0
 23 55  1  0
 23 56  1  0
 23 57  1  0
 25 58  1  0
 25 59  1  0
 25 60  1  0
 26 61  1  0
M  CHG  2   3   1  18   1
M  END
>  <UniqueID>  (1) 
1

>  <SMILES>  (1) 
CC[NH2+]CCCNCCNc1c2ccccc2[n+](C)c2cc(C)c(C)cc12

>  <Energy>  (1) 
83.1990583261954

>  <Genealogy>  (1) 
CC[NH2+]CCCNCCNc1c2ccccc2[n+](C)c2cc(C)c(C)cc12 (protonated)
CC[NH2+]CCCNCCNc1c2ccccc2[n+](C)c2cc(C)c(C)cc12 (3D coordinates assigned)
CC[NH2+]CCCNCCNc1c2ccccc2[n+](C)c2cc(C)c(C)cc12 (optimized conformer: 83.1990583261954 kcal/mol)

>  <smiles>  (1) 
CCNCCCNCCNc1c2ccccc2[n+](C)c2cc(C)c(C)cc12

>  <score_type>  (1) 
oracle

>  <origin>  (1) 
adg

>  <m_score__min__energy>  (1) 
-8.2599999999999998

>  <m_primary>  (1) 
energy

$$$$
1:0
     RDKit          3D

 56 58  0  0  0  0  0  0  0  0999 V2000
   -2.0540   24.5080  -28.7530 C   0  0  0  0  0  0  0  0  0  0  0  0
   -3.5550   24.4880  -29.0800 C   0  0  0  0  0  0  0  0  0  0  0  0
   -3.8490   24.5430  -30.5300 N   0  0  0  0  0  0  0  0  0  0  0  0
   -5.1260   25.2260  -30.8390 C   0  0  0  0  0  0  0  0  0  0  0  0
   -6.0050   25.2470  -29.5950 C   0  0  0  0  0  0  0  0  0  0  0  0
   -3.7010   23.2310  -31.1970 C   0  0  0  0  0  0  0  0  0  0  0  0
   -5.0020   22.8060  -31.8920 C   0  0  0  0  0  0  0  0  0  0  0  0
   -4.7430   22.0070  -33.0930 N   0  0  0  0  0  0  0  0  0  0  0  0
   -5.0330   20.5980  -33.1550 C   0  0  0  0  0  0  0  0  0  0  0  0
   -6.3140   20.1280  -32.8190 C   0  0  0  0  0  0  0  0  0  0  0  0
   -7.2820   20.9930  -32.2680 C   0  0  0  0  0  0  0  0  0  0  0  0
   -8.5510   20.5260  -31.9330 C   0  0  0  0  0  0  0  0  0  0  0  0
   -9.7430   21.6240  -31.2640 Cl  0  0  0  0  0  0  0  0  0  0  0  0
   -8.8650   19.1830  -32.1140 C   0  0  0  0  0  0  0  0  0  0  0  0
   -7.9230   18.3080  -32.6550 C   0  0  0  0  0  0  0  0  0  0  0  0
   -6.6400   18.7650  -33.0490 C   0  0  0  0  0  0  0  0  0  0  0  0
   -5.7160   17.9220  -33.6370 N   0  0  0  0  0  0  0  0  0  0  0  0
   -6.1380   16.5990  -34.1480 C   0  0  0  0  0  0  0  0  0  0  0  0
   -4.3970   18.3220  -33.7560 C   0  0  0  0  0  0  0  0  0  0  0  0
   -3.3650   17.4020  -34.0660 C   0  0  0  0  0  0  0  0  0  0  0  0
   -2.0430   17.8200  -34.2040 C   0  0  0  0  0  0  0  0  0  0  0  0
   -1.6990   19.1610  -34.0280 C   0  0  0  0  0  0  0  0  0  0  0  0
   -0.3210   19.5580  -34.1430 N   0  0  0  0  0  0  0  0  0  0  0  0
    0.1120   20.9180  -34.2920 C   0  0  0  0  0  0  0  0  0  0  0  0
    1.5680   21.2460  -34.2160 C   0  0  0  0  0  0  0  0  0  0  0  0
   -0.7140   21.8320  -34.5600 O   0  0  0  0  0  0  0  0  0  0  0  0
   -2.6940   20.0770  -33.6610 C   0  0  0  0  0  0  0  0  0  0  0  0
   -4.0420   19.6780  -33.5380 C   0  0  0  0  0  0  0  0  0  0  0  0
   -1.9165   24.5098  -27.6616 H   0  0  0  0  0  0  0  0  0  0  0  0
   -1.5734   23.6162  -29.1816 H   0  0  0  0  0  0  0  0  0  0  0  0
   -1.5974   25.4123  -29.1816 H   0  0  0  0  0  0  0  0  0  0  0  0
   -3.9868   23.5618  -28.6730 H   0  0  0  0  0  0  0  0  0  0  0  0
   -3.9944   25.3897  -28.6285 H   0  0  0  0  0  0  0  0  0  0  0  0
   -4.9214   26.2578  -31.1608 H   0  0  0  0  0  0  0  0  0  0  0  0
   -5.6446   24.6864  -31.6451 H   0  0  0  0  0  0  0  0  0  0  0  0
   -5.3699   25.2318  -28.6970 H   0  0  0  0  0  0  0  0  0  0  0  0
   -6.6185   26.1601  -29.5949 H   0  0  0  0  0  0  0  0  0  0  0  0
   -6.6614   24.3643  -29.5949 H   0  0  0  0  0  0  0  0  0  0  0  0
   -2.9001   23.2996  -31.9479 H   0  0  0  0  0  0  0  0  0  0  0  0
   -3.4557   22.4795  -30.4321 H   0  0  0  0  0  0  0  0  0  0  0  0
   -5.6018   22.2085  -31.1897 H   0  0  0  0  0  0  0  0  0  0  0  0
   -5.5393   23.7162  -32.1968 H   0  0  0  0  0  0  0  0  0  0  0  0
   -4.2440   22.4540  -33.8950 H   0  0  0  0  0  0  0  0  0  0  0  0
   -7.0316   22.0509  -32.1005 H   0  0  0  0  0  0  0  0  0  0  0  0
   -9.8598   18.8097  -31.8295 H   0  0  0  0  0  0  0  0  0  0  0  0
   -8.1799   17.2455  -32.7780 H   0  0  0  0  0  0  0  0  0  0  0  0
   -6.3514   15.9300  -33.3013 H   0  0  0  0  0  0  0  0  0  0  0  0
   -7.0438   16.7147  -34.7613 H   0  0  0  0  0  0  0  0  0  0  0  0
   -5.3325   16.1688  -34.7613 H   0  0  0  0  0  0  0  0  0  0  0  0
   -3.6119   16.3385  -34.2002 H   0  0  0  0  0  0  0  0  0  0  0  0
   -1.2629   17.0859  -34.4541 H   0  0  0  0  0  0  0  0  0  0  0  0
    0.4030   18.8080  -34.2100 H   0  0  0  0  0  0  0  0  0  0  0  0
    1.8738   21.3149  -33.1616 H   0  0  0  0  0  0  0  0  0  0  0  0
    2.1484   20.4561  -34.7152 H   0  0  0  0  0  0  0  0  0  0  0  0
    1.7536   22.2085  -34.7152 H   0  0  0  0  0  0  0  0  0  0  0  0
   -2.4198   21.1242  -33.4656 H   0  0  0  0  0  0  0  0  0  0  0  0
  1  2  1  0
  2  3  1  0
  3  4  1  0
  4  5  1  0
  3  6  1  0
  6  7  1  0
  7  8  1  0
  8  9  1  0
  9 10  2  0
 10 11  1  0
 11 12  2  0
 12 13  1  0
 12 14  1  0
 14 15  2  0
 15 16  1  0
 16 17  2  0
 17 18  1  0
 17 19  1  0
 19 20  2  0
 20 21  1  0
 21 22  2  0
 22 23  1  0
 23 24  1  0
 24 25  1  0
 24 26  2  0
 22 27  1  0
 27 28  2  0
 28  9  1  0
 16 10  1  0
 28 19  1  0
  1 29  1  0
  1 30  1  0
  1 31  1  0
  2 32  1  0
  2 33  1  0
  4 34  1  0
  4 35  1  0
  5 36  1  0
  5 37  1  0
  5 38  1  0
  6 39  1  0
  6 40  1  0
  7 41  1  0
  7 42  1  0
  8 43  1  0
 11 44  1  0
 14 45  1  0
 15 46  1  0
 18 47  1  0
 18 48  1  0
 18 49  1  0
 20 50  1  0
 21 51  1  0
 23 52  1  0
 25 53  1  0
 25 54  1  0
 25 55  1  0
 27 56  1  0
M  CHG  1  17   1
M  END
>  <UniqueID>  (2) 
2

>  <SMILES>  (2) 
CCN(CC)CCNc1c2cc(Cl)ccc2[n+](C)c2ccc(NC(C)=O)cc12

>  <Energy>  (2) 
81.55243414705815

>  <Genealogy>  (2) 
CCN(CC)CCNc1c2cc(Cl)ccc2[n+](C)c2ccc(NC(C)=O)cc12 (3D coordinates assigned)
CCN(CC)CCNc1c2cc(Cl)ccc2[n+](C)c2ccc(NC(C)=O)cc12 (optimized conformer: 81.55243414705815 kcal/mol)

>  <smiles>  (2) 
CCN(CC)CCNc1c2cc(Cl)ccc2[n+](C)c2ccc(NC(C)=O)cc12

>  <score_type>  (2) 
oracle

>  <origin>  (2) 
adg

>  <m_score__min__energy>  (2) 
-9.4600000000000009

>  <m_primary>  (2) 
energy

$$$$
2:0
     RDKit          3D

 26 27  0  0  0  0  0  0  0  0999 V2000
   -4.2520   22.7780  -28.0760 C   0  0  0  0  0  0  0  0  0  0  0  0
   -4.7580   23.6140  -29.1590 N   0  0  0  0  0  0  0  0  0  0  0  0
   -5.5760   24.6360  -28.9960 N   0  0  0  0  0  0  0  0  0  0  0  0
   -5.7090   25.2300  -30.1940 C   0  0  0  0  0  0  0  0  0  0  0  0
   -4.9690   24.6150  -31.1450 N   0  0  0  0  0  0  0  0  0  0  0  0
   -4.3870   23.6110  -30.4550 C   0  0  0  0  0  0  0  0  0  0  0  0
   -3.2460   22.4380  -31.1960 S   0  0  0  0  0  0  0  0  0  0  0  0
   -4.1700   22.2930  -32.7670 C   0  0  0  0  0  0  0  0  0  0  0  0
   -5.3720   21.4020  -32.6040 C   0  0  0  0  0  0  0  0  0  0  0  0
   -5.2140   20.0070  -32.6570 C   0  0  0  0  0  0  0  0  0  0  0  0
   -6.3110   19.1640  -32.4600 C   0  0  0  0  0  0  0  0  0  0  0  0
   -7.5750   19.7050  -32.2050 C   0  0  0  0  0  0  0  0  0  0  0  0
   -9.0710   18.5520  -31.9270 Br  0  0  0  0  0  0  0  0  0  0  0  0
   -7.7410   21.0920  -32.1500 C   0  0  0  0  0  0  0  0  0  0  0  0
   -6.6470   21.9410  -32.3490 C   0  0  0  0  0  0  0  0  0  0  0  0
   -6.8340   23.2840  -32.2800 F   0  0  0  0  0  0  0  0  0  0  0  0
   -4.5235   23.2266  -27.1090 H   0  0  0  0  0  0  0  0  0  0  0  0
   -4.6938   21.7734  -28.1512 H   0  0  0  0  0  0  0  0  0  0  0  0
   -3.1571   22.7036  -28.1512 H   0  0  0  0  0  0  0  0  0  0  0  0
   -6.0130   24.9280  -28.0940 H   0  0  0  0  0  0  0  0  0  0  0  0
   -6.3428   26.1098  -30.3790 H   0  0  0  0  0  0  0  0  0  0  0  0
   -4.5032   23.2928  -33.0823 H   0  0  0  0  0  0  0  0  0  0  0  0
   -3.5063   21.8518  -33.5252 H   0  0  0  0  0  0  0  0  0  0  0  0
   -4.2214   19.5760  -32.8546 H   0  0  0  0  0  0  0  0  0  0  0  0
   -6.1799   18.0728  -32.5056 H   0  0  0  0  0  0  0  0  0  0  0  0
   -8.7354   21.5174  -31.9495 H   0  0  0  0  0  0  0  0  0  0  0  0
  1  2  1  0
  2  3  1  0
  3  4  2  0
  4  5  1  0
  5  6  2  0
  6  7  1  0
  7  8  1  0
  8  9  1  0
  9 10  2  0
 10 11  1  0
 11 12  2  0
 12 13  1  0
 12 14  1  0
 14 15  2  0
 15 16  1  0
  6  2  1  0
 15  9  1  0
  1 17  1  0
  1 18  1  0
  1 19  1  0
  3 20  1  0
  4 21  1  0
  8 22  1  0
  8 23  1  0
 10 24  1  0
 11 25  1  0
 14 26  1  0
M  CHG  1   3   1
M  END
>  <UniqueID>  (3) 
3

>  <SMILES>  (3) 
Cn1[nH+]cnc1SCc1ccc(Br)cc1F

>  <Energy>  (3) 
54.434618886316336

>  <Genealogy>  (3) 
Cn1[nH+]cnc1SCc1ccc(Br)cc1F (protonated)
Cn1[nH+]cnc1SCc1ccc(Br)cc1F (3D coordinates assigned)
Cn1[nH+]cnc1SCc1ccc(Br)cc1F (optimized conformer: 54.434618886316336 kcal/mol)

>  <smiles>  (3) 
Cn1ncnc1SCc1ccc(Br)cc1F

>  <score_type>  (3) 
oracle

>  <origin>  (3) 
adg

>  <m_score__min__energy>  (3) 
-6.25

>  <m_primary>  (3) 
energy

$$$$
3:0
     RDKit          3D

 59 61  0  0  0  0  0  0  0  0999 V2000
   -2.4950   20.8780  -29.6280 C   0  0  0  0  0  0  0  0  0  0  0  0
   -1.7510   21.6060  -30.7420 C   0  0  0  0  0  0  0  0  0  0  0  0
   -2.5850   21.7600  -31.8920 O   0  0  0  0  0  0  0  0  0  0  0  0
   -3.1080   20.7270  -32.6920 C   0  0  0  0  0  0  0  0  0  0  0  0
   -2.2600   19.9250  -33.4740 C   0  0  0  0  0  0  0  0  0  0  0  0
   -2.7680   18.8700  -34.2150 C   0  0  0  0  0  0  0  0  0  0  0  0
   -4.1190   18.5560  -34.1510 C   0  0  0  0  0  0  0  0  0  0  0  0
   -5.0100   19.3100  -33.3500 C   0  0  0  0  0  0  0  0  0  0  0  0
   -4.5130   20.4750  -32.6980 C   0  0  0  0  0  0  0  0  0  0  0  0
   -5.4340   21.3410  -32.0600 C   0  0  0  0  0  0  0  0  0  0  0  0
   -5.0110   22.6150  -31.5410 N   0  0  0  0  0  0  0  0  0  0  0  0
   -5.7000   23.8550  -31.9100 C   0  0  0  0  0  0  0  0  0  0  0  0
   -5.5680   24.9210  -30.8150 C   0  0  0  0  0  0  0  0  0  0  0  0
   -5.5490   24.3320  -29.3960 C   0  0  0  0  0  0  0  0  0  0  0  0
   -4.2260   23.7390  -29.0880 N   0  0  0  0  0  0  0  0  0  0  0  0
   -4.0660   23.4270  -27.6480 C   0  0  0  0  0  0  0  0  0  0  0  0
   -4.1950   24.6450  -26.7240 C   0  0  0  0  0  0  0  0  0  0  0  0
   -3.1180   24.5360  -29.6640 C   0  0  0  0  0  0  0  0  0  0  0  0
   -1.8160   24.3310  -28.8900 C   0  0  0  0  0  0  0  0  0  0  0  0
   -6.8010   21.0100  -32.0350 C   0  0  0  0  0  0  0  0  0  0  0  0
   -7.7420   21.8630  -31.4170 C   0  0  0  0  0  0  0  0  0  0  0  0
   -9.1030   21.5720  -31.4520 C   0  0  0  0  0  0  0  0  0  0  0  0
   -9.5550   20.4370  -32.1140 C   0  0  0  0  0  0  0  0  0  0  0  0
   -8.6450   19.5700  -32.7150 C   0  0  0  0  0  0  0  0  0  0  0  0
   -7.2470   19.8150  -32.6580 C   0  0  0  0  0  0  0  0  0  0  0  0
   -6.3350   18.9390  -33.2110 N   0  0  0  0  0  0  0  0  0  0  0  0
   -6.7680   17.5800  -33.6100 C   0  0  0  0  0  0  0  0  0  0  0  0
   -2.1323   21.2329  -28.6520 H   0  0  0  0  0  0  0  0  0  0  0  0
   -3.5729   21.0799  -29.7141 H   0  0  0  0  0  0  0  0  0  0  0  0
   -2.3166   19.7960  -29.7141 H   0  0  0  0  0  0  0  0  0  0  0  0
   -1.4454   22.5996  -30.3823 H   0  0  0  0  0  0  0  0  0  0  0  0
   -0.8684   21.0128  -31.0231 H   0  0  0  0  0  0  0  0  0  0  0  0
   -1.1809   20.1369  -33.4983 H   0  0  0  0  0  0  0  0  0  0  0  0
   -2.0981   18.2788  -34.8566 H   0  0  0  0  0  0  0  0  0  0  0  0
   -4.5040   17.7059  -34.7333 H   0  0  0  0  0  0  0  0  0  0  0  0
   -4.2950   22.6350  -30.7810 H   0  0  0  0  0  0  0  0  0  0  0  0
   -5.2618   24.2435  -32.8412 H   0  0  0  0  0  0  0  0  0  0  0  0
   -6.7682   23.6288  -32.0433 H   0  0  0  0  0  0  0  0  0  0  0  0
   -4.6309   25.4740  -30.9766 H   0  0  0  0  0  0  0  0  0  0  0  0
   -6.4505   25.5738  -30.8862 H   0  0  0  0  0  0  0  0  0  0  0  0
   -5.7631   25.1313  -28.6712 H   0  0  0  0  0  0  0  0  0  0  0  0
   -6.3119   23.5421  -29.3327 H   0  0  0  0  0  0  0  0  0  0  0  0
   -4.8378   22.6959  -27.3653 H   0  0  0  0  0  0  0  0  0  0  0  0
   -3.0448   23.0387  -27.5196 H   0  0  0  0  0  0  0  0  0  0  0  0
   -4.1600   24.3150  -25.6753 H   0  0  0  0  0  0  0  0  0  0  0  0
   -3.3656   25.3412  -26.9171 H   0  0  0  0  0  0  0  0  0  0  0  0
   -5.1519   25.1520  -26.9171 H   0  0  0  0  0  0  0  0  0  0  0  0
   -2.9639   24.2299  -30.7093 H   0  0  0  0  0  0  0  0  0  0  0  0
   -3.3911   25.5998  -29.6024 H   0  0  0  0  0  0  0  0  0  0  0  0
   -2.0224   24.3635  -27.8100 H   0  0  0  0  0  0  0  0  0  0  0  0
   -1.3840   23.3538  -29.1515 H   0  0  0  0  0  0  0  0  0  0  0  0
   -1.1046   25.1282  -29.1515 H   0  0  0  0  0  0  0  0  0  0  0  0
   -7.3946   22.7701  -30.9007 H   0  0  0  0  0  0  0  0  0  0  0  0
   -9.8210   22.2411  -30.9552 H   0  0  0  0  0  0  0  0  0  0  0  0
  -10.6328   20.2227  -32.1636 H   0  0  0  0  0  0  0  0  0  0  0  0
   -9.0159   18.6794  -33.2434 H   0  0  0  0  0  0  0  0  0  0  0  0
   -6.9600   16.9774  -32.7100 H   0  0  0  0  0  0  0  0  0  0  0  0
   -7.6885   17.6493  -34.2082 H   0  0  0  0  0  0  0  0  0  0  0  0
   -5.9770   17.1040  -34.2082 H   0  0  0  0  0  0  0  0  0  0  0  0
  1  2  1  0
  2  3  1  0
  3  4  1  0
  4  5  2  0
  5  6  1  0
  6  7  2  0
  7  8  1  0
  8  9  2  0
  9 10  1  0
 10 11  1  0
 11 12  1  0
 12 13  1  0
 13 14  1  0
 14 15  1  0
 15 16  1  0
 16 17  1  0
 15 18  1  0
 18 19  1  0
 10 20  2  0
 20 21  1  0
 21 22  2  0
 22 23  1  0
 23 24  2  0
 24 25  1  0
 25 26  2  0
 26 27  1  0
  9  4  1  0
 25 20  1  0
 26  8  1  0
  1 28  1  0
  1 29  1  0
  1 30  1  0
  2 31  1  0
  2 32  1  0
  5 33  1  0
  6 34  1  0
  7 35  1  0
 11 36  1  0
 12 37  1  0
 12 38  1  0
 13 39  1  0
 13 40  1  0
 14 41  1  0
 14 42  1  0
 16 43  1  0
 16 44  1  0
 17 45  1  0
 17 46  1  0
 17 47  1  0
 18 48  1  0
 18 49  1  0
 19 50  1  0
 19 51  1  0
 19 52  1  0
 21 53  1  0
 22 54  1  0
 23 55  1  0
 24 56  1  0
 27 57  1  0
 27 58  1  0
 27 59  1  0
M  CHG  1  26   1
M  END
>  <UniqueID>  (4) 
4

>  <SMILES>  (4) 
CCOc1cccc2c1c(NCCCN(CC)CC)c1ccccc1[n+]2C

>  <Energy>  (4) 
86.55242247147741

>  <Genealogy>  (4) 
CCOc1cccc2c1c(NCCCN(CC)CC)c1ccccc1[n+]2C (3D coordinates assigned)
CCOc1cccc2c1c(NCCCN(CC)CC)c1ccccc1[n+]2C (optimized conformer: 86.55242247147741 kcal/mol)

>  <smiles>  (4) 
CCOc1cccc2c1c(NCCCN(CC)CC)c1ccccc1[n+]2C

>  <score_type>  (4) 
oracle

>  <origin>  (4) 
adg

>  <m_score__min__energy>  (4) 
-8.4000000000000004

>  <m_primary>  (4) 
energy

$$$$
4:0
     RDKit          3D

 47 49  0  0  0  0  0  0  0  0999 V2000
   -0.7360   22.4930  -26.3820 C   0  0  0  0  0  0  0  0  0  0  0  0
   -0.6690   23.8440  -25.6480 C   0  0  0  0  0  0  0  0  0  0  0  0
   -1.1750   25.0130  -26.4250 N   0  0  0  0  0  0  0  0  0  0  0  0
   -0.6720   26.3240  -25.9340 C   0  0  0  0  0  0  0  0  0  0  0  0
   -1.2610   26.7120  -24.5690 C   0  0  0  0  0  0  0  0  0  0  0  0
   -2.6680   25.0210  -26.5140 C   0  0  0  0  0  0  0  0  0  0  0  0
   -3.1980   24.2960  -27.7710 C   0  0  0  0  0  0  0  0  0  0  0  0
   -2.6560   24.9090  -29.0280 C   0  0  0  0  0  0  0  0  0  0  0  0
   -1.4600   25.3030  -29.0730 O   0  0  0  0  0  0  0  0  0  0  0  0
   -3.5010   25.0180  -30.1820 N   0  0  0  0  0  0  0  0  0  0  0  0
   -4.3430   23.9740  -30.6850 C   0  0  0  0  0  0  0  0  0  0  0  0
   -3.7710   22.7150  -30.9730 C   0  0  0  0  0  0  0  0  0  0  0  0
   -4.5650   21.6570  -31.4380 C   0  0  0  0  0  0  0  0  0  0  0  0
   -5.9330   21.8760  -31.5880 C   0  0  0  0  0  0  0  0  0  0  0  0
   -6.5120   23.0930  -31.2810 C   0  0  0  0  0  0  0  0  0  0  0  0
   -5.7350   24.1600  -30.8280 C   0  0  0  0  0  0  0  0  0  0  0  0
   -8.0040   23.0530  -31.4500 C   0  0  0  0  0  0  0  0  0  0  0  0
   -8.1890   21.6360  -31.9120 C   0  0  0  0  0  0  0  0  0  0  0  0
   -9.3870   20.9880  -32.2240 C   0  0  0  0  0  0  0  0  0  0  0  0
   -9.3380   19.6440  -32.6290 C   0  0  0  0  0  0  0  0  0  0  0  0
   -8.1020   18.9710  -32.7160 C   0  0  0  0  0  0  0  0  0  0  0  0
   -6.9070   19.6320  -32.3930 C   0  0  0  0  0  0  0  0  0  0  0  0
   -6.9810   20.9660  -31.9910 C   0  0  0  0  0  0  0  0  0  0  0  0
   -0.7765   21.6771  -25.6453 H   0  0  0  0  0  0  0  0  0  0  0  0
   -1.6368   22.4626  -27.0126 H   0  0  0  0  0  0  0  0  0  0  0  0
    0.1573   22.3736  -27.0126 H   0  0  0  0  0  0  0  0  0  0  0  0
   -1.2666   23.7619  -24.7282 H   0  0  0  0  0  0  0  0  0  0  0  0
    0.3975   24.0387  -25.4620 H   0  0  0  0  0  0  0  0  0  0  0  0
   -0.7970   24.9060  -27.3960 H   0  0  0  0  0  0  0  0  0  0  0  0
    0.4227   26.2687  -25.8419 H   0  0  0  0  0  0  0  0  0  0  0  0
   -0.9812   27.0911  -26.6593 H   0  0  0  0  0  0  0  0  0  0  0  0
   -0.6321   26.2977  -23.7672 H   0  0  0  0  0  0  0  0  0  0  0  0
   -1.2922   27.8081  -24.4813 H   0  0  0  0  0  0  0  0  0  0  0  0
   -2.2804   26.3080  -24.4813 H   0  0  0  0  0  0  0  0  0  0  0  0
   -3.0756   24.5218  -25.6226 H   0  0  0  0  0  0  0  0  0  0  0  0
   -2.9898   26.0710  -26.5776 H   0  0  0  0  0  0  0  0  0  0  0  0
   -2.8948   23.2395  -27.7289 H   0  0  0  0  0  0  0  0  0  0  0  0
   -4.2940   24.3882  -27.7865 H   0  0  0  0  0  0  0  0  0  0  0  0
   -2.6909   22.5629  -30.8309 H   0  0  0  0  0  0  0  0  0  0  0  0
   -4.1199   20.6801  -31.6780 H   0  0  0  0  0  0  0  0  0  0  0  0
   -6.1986   25.1280  -30.5868 H   0  0  0  0  0  0  0  0  0  0  0  0
   -8.5255   23.2418  -30.5001 H   0  0  0  0  0  0  0  0  0  0  0  0
   -8.4086   23.8144  -32.1330 H   0  0  0  0  0  0  0  0  0  0  0  0
  -10.3478   21.5190  -32.1539 H   0  0  0  0  0  0  0  0  0  0  0  0
  -10.2686   19.1137  -32.8796 H   0  0  0  0  0  0  0  0  0  0  0  0
   -8.0743   17.9200  -33.0395 H   0  0  0  0  0  0  0  0  0  0  0  0
   -5.9391   19.1130  -32.4550 H   0  0  0  0  0  0  0  0  0  0  0  0
  1  2  1  0
  2  3  1  0
  3  4  1  0
  4  5  1  0
  3  6  1  0
  6  7  1  0
  7  8  1  0
  8  9  2  0
  8 10  1  0
 10 11  1  0
 11 12  2  0
 12 13  1  0
 13 14  2  0
 14 15  1  0
 15 16  2  0
 15 17  1  0
 17 18  1  0
 18 19  2  0
 19 20  1  0
 20 21  2  0
 21 22  1  0
 22 23  2  0
 16 11  1  0
 23 18  1  0
 23 14  1  0
  1 24  1  0
  1 25  1  0
  1 26  1  0
  2 27  1  0
  2 28  1  0
  3 29  1  0
  4 30  1  0
  4 31  1  0
  5 32  1  0
  5 33  1  0
  5 34  1  0
  6 35  1  0
  6 36  1  0
  7 37  1  0
  7 38  1  0
 12 39  1  0
 13 40  1  0
 16 41  1  0
 17 42  1  0
 17 43  1  0
 19 44  1  0
 20 45  1  0
 21 46  1  0
 22 47  1  0
M  CHG  2   3   1  10  -1
M  END
>  <UniqueID>  (5) 
5

>  <SMILES>  (5) 
CC[NH+](CC)CCC(=O)[N-]c1ccc2c(c1)Cc1ccccc1-2

>  <Energy>  (5) 
77.40073867996848

>  <Genealogy>  (5) 
CC[NH+](CC)CCC(=O)[N-]c1ccc2c(c1)Cc1ccccc1-2 (protonated)
CC[NH+](CC)CCC(=O)[N-]c1ccc2c(c1)Cc1ccccc1-2 (3D coordinates assigned)
CC[NH+](CC)CCC(=O)[N-]c1ccc2c(c1)Cc1ccccc1-2 (nonaromatic ring conformer: 77.40073867996848 kcal/mol)

>  <smiles>  (5) 
CCN(CC)CCC(=O)Nc1ccc2c(c1)Cc1ccccc1-2

>  <score_type>  (5) 
oracle

>  <origin>  (5) 
adg

>  <m_score__min__energy>  (5) 
-9.6500000000000004

>  <m_primary>  (5) 
energy

$$$$
5:0
     RDKit          3D

 56 59  0  0  0  0  0  0  0  0999 V2000
   -6.2350   25.4650  -29.5280 C   0  0  0  0  0  0  0  0  0  0  0  0
   -5.3810   25.5640  -30.7870 C   0  0  0  0  0  0  0  0  0  0  0  0
   -3.9790   25.2590  -30.4630 N   0  0  0  0  0  0  0  0  0  0  0  0
   -3.8490   24.2710  -29.3760 C   0  0  0  0  0  0  0  0  0  0  0  0
   -4.2440   22.8270  -29.7710 C   0  0  0  0  0  0  0  0  0  0  0  0
   -3.1020   21.9360  -30.0360 N   0  0  0  0  0  0  0  0  0  0  0  0
   -3.3230   21.0540  -31.1920 C   0  0  0  0  0  0  0  0  0  0  0  0
   -3.0560   21.8150  -32.4920 C   0  0  0  0  0  0  0  0  0  0  0  0
   -4.2780   21.9160  -33.2880 N   0  0  0  0  0  0  0  0  0  0  0  0
   -5.3960   21.0390  -33.0770 C   0  0  0  0  0  0  0  0  0  0  0  0
   -5.2910   19.6790  -33.3680 C   0  0  0  0  0  0  0  0  0  0  0  0
   -6.3480   18.8200  -33.1300 C   0  0  0  0  0  0  0  0  0  0  0  0
   -7.5000   19.2400  -32.5120 N   0  0  0  0  0  0  0  0  0  0  0  0
   -8.4530   18.2520  -31.9770 C   0  0  0  0  0  0  0  0  0  0  0  0
   -7.6950   20.6000  -32.3300 C   0  0  0  0  0  0  0  0  0  0  0  0
   -8.9440   21.1240  -31.9170 C   0  0  0  0  0  0  0  0  0  0  0  0
   -9.1100   22.4900  -31.6910 C   0  0  0  0  0  0  0  0  0  0  0  0
   -8.0480   23.3690  -31.8770 C   0  0  0  0  0  0  0  0  0  0  0  0
   -6.8140   22.8920  -32.3150 C   0  0  0  0  0  0  0  0  0  0  0  0
   -6.6240   21.5190  -32.5710 C   0  0  0  0  0  0  0  0  0  0  0  0
   -5.9280   17.4720  -33.5360 C   0  0  0  0  0  0  0  0  0  0  0  0
   -6.6560   16.2870  -33.7170 C   0  0  0  0  0  0  0  0  0  0  0  0
   -5.9860   15.1510  -34.2000 C   0  0  0  0  0  0  0  0  0  0  0  0
   -4.6220   15.2170  -34.5360 C   0  0  0  0  0  0  0  0  0  0  0  0
   -3.9240   16.4270  -34.4170 C   0  0  0  0  0  0  0  0  0  0  0  0
   -4.6000   17.5460  -33.9260 C   0  0  0  0  0  0  0  0  0  0  0  0
   -4.0720   18.9430  -33.8480 C   0  0  0  0  0  0  0  0  0  0  0  0
   -5.5896   25.5398  -28.6404 H   0  0  0  0  0  0  0  0  0  0  0  0
   -6.9692   26.2840  -29.5176 H   0  0  0  0  0  0  0  0  0  0  0  0
   -6.7624   24.4997  -29.5176 H   0  0  0  0  0  0  0  0  0  0  0  0
   -5.7478   24.8452  -31.5346 H   0  0  0  0  0  0  0  0  0  0  0  0
   -5.4467   26.5849  -31.1912 H   0  0  0  0  0  0  0  0  0  0  0  0
   -3.4780   24.9270  -31.3190 H   0  0  0  0  0  0  0  0  0  0  0  0
   -2.8005   24.2617  -29.0436 H   0  0  0  0  0  0  0  0  0  0  0  0
   -4.5479   24.5816  -28.5854 H   0  0  0  0  0  0  0  0  0  0  0  0
   -4.8345   22.3948  -28.9497 H   0  0  0  0  0  0  0  0  0  0  0  0
   -4.8093   22.9018  -30.7117 H   0  0  0  0  0  0  0  0  0  0  0  0
   -2.8740   21.3680  -29.1880 H   0  0  0  0  0  0  0  0  0  0  0  0
   -2.6418   20.1927  -31.1281 H   0  0  0  0  0  0  0  0  0  0  0  0
   -4.3667   20.7067  -31.1858 H   0  0  0  0  0  0  0  0  0  0  0  0
   -2.6962   22.8263  -32.2518 H   0  0  0  0  0  0  0  0  0  0  0  0
   -2.2976   21.2700  -33.0732 H   0  0  0  0  0  0  0  0  0  0  0  0
   -4.2700   22.5250  -34.1370 H   0  0  0  0  0  0  0  0  0  0  0  0
   -8.4287   18.2772  -30.8776 H   0  0  0  0  0  0  0  0  0  0  0  0
   -9.4673   18.4941  -32.3270 H   0  0  0  0  0  0  0  0  0  0  0  0
   -8.1745   17.2470  -32.3270 H   0  0  0  0  0  0  0  0  0  0  0  0
   -9.7960   20.4434  -31.7723 H   0  0  0  0  0  0  0  0  0  0  0  0
  -10.0870   22.8749  -31.3635 H   0  0  0  0  0  0  0  0  0  0  0  0
   -8.1825   24.4425  -31.6780 H   0  0  0  0  0  0  0  0  0  0  0  0
   -5.9800   23.5939  -32.4624 H   0  0  0  0  0  0  0  0  0  0  0  0
   -7.7306   16.2480  -33.4852 H   0  0  0  0  0  0  0  0  0  0  0  0
   -6.5319   14.2031  -34.3163 H   0  0  0  0  0  0  0  0  0  0  0  0
   -4.1011   14.3164  -34.8933 H   0  0  0  0  0  0  0  0  0  0  0  0
   -2.8644   16.4937  -34.7048 H   0  0  0  0  0  0  0  0  0  0  0  0
   -3.2424   19.0226  -33.1301 H   0  0  0  0  0  0  0  0  0  0  0  0
   -3.6519   19.3241  -34.7905 H   0  0  0  0  0  0  0  0  0  0  0  0
  1  2  1  0
  2  3  1  0
  3  4  1  0
  4  5  1  0
  5  6  1  0
  6  7  1  0
  7  8  1  0
  8  9  1  0
  9 10  1  0
 10 11  2  0
 11 12  1  0
 12 13  2  0
 13 14  1  0
 13 15  1  0
 15 16  2  0
 16 17  1  0
 17 18  2  0
 18 19  1  0
 19 20  2  0
 12 21  1  0
 21 22  2  0
 22 23  1  0
 23 24  2  0
 24 25  1  0
 25 26  2  0
 26 27  1  0
 20 10  1  0
 26 21  1  0
 27 11  1  0
 20 15  1  0
  1 28  1  0
  1 29  1  0
  1 30  1  0
  2 31  1  0
  2 32  1  0
  3 33  1  0
  4 34  1  0
  4 35  1  0
  5 36  1  0
  5 37  1  0
  6 38  1  0
  7 39  1  0
  7 40  1  0
  8 41  1  0
  8 42  1  0
  9 43  1  0
 14 44  1  0
 14 45  1  0
 14 46  1  0
 16 47  1  0
 17 48  1  0
 18 49  1  0
 19 50  1  0
 22 51  1  0
 23 52  1  0
 24 53  1  0
 25 54  1  0
 27 55  1  0
 27 56  1  0
M  CHG  1  13   1
M  END
>  <UniqueID>  (6) 
6

>  <SMILES>  (6) 
CCNCCNCCNc1c2c([n+](C)c3ccccc13)-c1ccccc1C2

>  <Energy>  (6) 
96.46791204810056

>  <Genealogy>  (6) 
CCNCCNCCNc1c2c([n+](C)c3ccccc13)-c1ccccc1C2 (3D coordinates assigned)
CCNCCNCCNc1c2c([n+](C)c3ccccc13)-c1ccccc1C2 (nonaromatic ring conformer: 96.46791204810056 kcal/mol)

>  <smiles>  (6) 
CCNCCNCCNc1c2c([n+](C)c3ccccc13)-c1ccccc1C2

>  <score_type>  (6) 
oracle

>  <origin>  (6) 
adg

>  <m_score__min__energy>  (6) 
-9.6500000000000004

>  <m_primary>  (6) 
energy

$$$$
6:0
     RDKit          3D

 52 55  0  0  0  0  0  0  0  0999 V2000
   -3.8440   22.7480  -29.1120 C   0  0  0  0  0  0  0  0  0  0  0  0
   -3.6950   24.1130  -29.7710 C   0  0  0  0  0  0  0  0  0  0  0  0
   -4.9770   24.8390  -29.6840 N   0  0  0  0  0  0  0  0  0  0  0  0
   -5.6650   24.9450  -30.9800 C   0  0  0  0  0  0  0  0  0  0  0  0
   -6.5550   23.7200  -31.2140 C   0  0  0  0  0  0  0  0  0  0  0  0
   -6.1860   23.0260  -32.4500 N   0  0  0  0  0  0  0  0  0  0  0  0
   -6.0070   21.6010  -32.5010 C   0  0  0  0  0  0  0  0  0  0  0  0
   -4.7190   21.0700  -32.6600 C   0  0  0  0  0  0  0  0  0  0  0  0
   -4.5630   19.6870  -32.8900 C   0  0  0  0  0  0  0  0  0  0  0  0
   -5.6110   18.8260  -32.6390 N   0  0  0  0  0  0  0  0  0  0  0  0
   -5.3490   17.3960  -32.3670 C   0  0  0  0  0  0  0  0  0  0  0  0
   -6.8910   19.3240  -32.4870 C   0  0  0  0  0  0  0  0  0  0  0  0
   -8.0150   18.4640  -32.3970 C   0  0  0  0  0  0  0  0  0  0  0  0
   -9.2980   18.9770  -32.2040 C   0  0  0  0  0  0  0  0  0  0  0  0
   -9.4950   20.3500  -32.0970 C   0  0  0  0  0  0  0  0  0  0  0  0
   -8.4120   21.2220  -32.1920 C   0  0  0  0  0  0  0  0  0  0  0  0
   -7.1090   20.7280  -32.4140 C   0  0  0  0  0  0  0  0  0  0  0  0
   -3.2100   19.2200  -33.3340 C   0  0  0  0  0  0  0  0  0  0  0  0
   -2.0800   19.9330  -32.8840 C   0  0  0  0  0  0  0  0  0  0  0  0
   -0.8030   19.4900  -33.2370 C   0  0  0  0  0  0  0  0  0  0  0  0
   -0.6620   18.4010  -34.0930 C   0  0  0  0  0  0  0  0  0  0  0  0
   -1.8030   17.7990  -34.6250 C   0  0  0  0  0  0  0  0  0  0  0  0
   -3.0500   18.2320  -34.2720 N   0  0  0  0  0  0  0  0  0  0  0  0
   -4.1490   17.7310  -34.9410 O   0  0  0  0  0  0  0  0  0  0  0  0
   -2.2720   21.1960  -32.0890 C   0  0  0  0  0  0  0  0  0  0  0  0
   -3.4890   21.9650  -32.6280 C   0  0  0  0  0  0  0  0  0  0  0  0
   -3.8312   22.8655  -28.0184 H   0  0  0  0  0  0  0  0  0  0  0  0
   -4.7971   22.2938  -29.4208 H   0  0  0  0  0  0  0  0  0  0  0  0
   -3.0114   22.0989  -29.4208 H   0  0  0  0  0  0  0  0  0  0  0  0
   -2.9118   24.6870  -29.2542 H   0  0  0  0  0  0  0  0  0  0  0  0
   -3.4155   23.9839  -30.8270 H   0  0  0  0  0  0  0  0  0  0  0  0
   -4.7850   25.8090  -29.3410 H   0  0  0  0  0  0  0  0  0  0  0  0
   -6.2875   25.8519  -30.9868 H   0  0  0  0  0  0  0  0  0  0  0  0
   -4.9122   24.9973  -31.7804 H   0  0  0  0  0  0  0  0  0  0  0  0
   -6.4428   23.0278  -30.3665 H   0  0  0  0  0  0  0  0  0  0  0  0
   -7.5978   24.0587  -31.3025 H   0  0  0  0  0  0  0  0  0  0  0  0
   -6.0600   23.5810  -33.3260 H   0  0  0  0  0  0  0  0  0  0  0  0
   -5.3184   17.2291  -31.2802 H   0  0  0  0  0  0  0  0  0  0  0  0
   -6.1503   16.7858  -32.8093 H   0  0  0  0  0  0  0  0  0  0  0  0
   -4.3834   17.1095  -32.8093 H   0  0  0  0  0  0  0  0  0  0  0  0
   -7.8732   17.3764  -32.4806 H   0  0  0  0  0  0  0  0  0  0  0  0
  -10.1570   18.2933  -32.1362 H   0  0  0  0  0  0  0  0  0  0  0  0
  -10.5078   20.7483  -31.9371 H   0  0  0  0  0  0  0  0  0  0  0  0
   -8.5745   22.3054  -32.0930 H   0  0  0  0  0  0  0  0  0  0  0  0
    0.0875   19.9995  -32.8403 H   0  0  0  0  0  0  0  0  0  0  0  0
    0.3379   18.0193  -34.3471 H   0  0  0  0  0  0  0  0  0  0  0  0
   -1.6974   16.9667  -35.3364 H   0  0  0  0  0  0  0  0  0  0  0  0
   -4.0700   17.3400  -35.8740 H   0  0  0  0  0  0  0  0  0  0  0  0
   -2.4387   20.9414  -31.0320 H   0  0  0  0  0  0  0  0  0  0  0  0
   -1.3737   21.8244  -32.1793 H   0  0  0  0  0  0  0  0  0  0  0  0
   -3.6878   22.8289  -31.9767 H   0  0  0  0  0  0  0  0  0  0  0  0
   -3.2697   22.3018  -33.6520 H   0  0  0  0  0  0  0  0  0  0  0  0
  1  2  1  0
  2  3  1  0
  3  4  1  0
  4  5  1  0
  5  6  1  0
  6  7  1  0
  7  8  2  0
  8  9  1  0
  9 10  2  0
 10 11  1  0
 10 12  1  0
 12 13  2  0
 13 14  1  0
 14 15  2  0
 15 16  1  0
 16 17  2  0
  9 18  1  0
 18 19  2  0
 19 20  1  0
 20 21  2  0
 21 22  1  0
 22 23  2  0
 23 24  1  0
 19 25  1  0
 25 26  1  0
 17  7  1  0
 23 18  1  0
 26  8  1  0
 17 12  1  0
  1 27  1  0
  1 28  1  0
  1 29  1  0
  2 30  1  0
  2 31  1  0
  3 32  1  0
  4 33  1  0
  4 34  1  0
  5 35  1  0
  5 36  1  0
  6 37  1  0
 11 38  1  0
 11 39  1  0
 11 40  1  0
 13 41  1  0
 14 42  1  0
 15 43  1  0
 16 44  1  0
 20 45  1  0
 21 46  1  0
 22 47  1  0
 24 48  1  0
 25 49  1  0
 25 50  1  0
 26 51  1  0
 26 52  1  0
M  CHG  2  10   1  23   1
M  END
>  <UniqueID>  (7) 
7

>  <SMILES>  (7) 
CCNCCNc1c2c([n+](C)c3ccccc13)-c1c(ccc[n+]1O)CC2

>  <Energy>  (7) 
85.02422698785331

>  <Genealogy>  (7) 
CCNCCNc1c2c([n+](C)c3ccccc13)-c1c(ccc[n+]1O)CC2 (protonated)
CCNCCNc1c2c([n+](C)c3ccccc13)-c1c(ccc[n+]1O)CC2 (3D coordinates assigned)
CCNCCNc1c2c([n+](C)c3ccccc13)-c1c(ccc[n+]1O)CC2 (nonaromatic ring conformer: 85.02422698785331 kcal/mol)

>  <smiles>  (7) 
CCNCCNc1c2c([n+](C)c3ccccc13)-c1c(ccc[n+]1[O-])CC2

>  <score_type>  (7) 
oracle

>  <origin>  (7) 
adg

>  <m_score__min__energy>  (7) 
-8.5999999999999996

>  <m_primary>  (7) 
energy

$$$$
7:0
     RDKit          3D

 27 28  0  0  0  0  0  0  0  0999 V2000
   -8.3580   18.1840  -31.7740 S   0  0  0  0  0  0  0  0  0  0  0  0
   -7.4550   19.3230  -32.5380 C   0  0  0  0  0  0  0  0  0  0  0  0
   -7.7650   20.7380  -32.2480 C   0  0  0  0  0  0  0  0  0  0  0  0
   -9.0930   21.1940  -32.2620 C   0  0  0  0  0  0  0  0  0  0  0  0
   -9.3790   22.5290  -31.9650 C   0  0  0  0  0  0  0  0  0  0  0  0
   -8.3470   23.4130  -31.6420 C   0  0  0  0  0  0  0  0  0  0  0  0
   -7.0230   22.9620  -31.6090 C   0  0  0  0  0  0  0  0  0  0  0  0
   -5.6130   24.1680  -31.1570 Br  0  0  0  0  0  0  0  0  0  0  0  0
   -6.7330   21.6250  -31.9040 C   0  0  0  0  0  0  0  0  0  0  0  0
   -6.6010   18.9240  -33.6420 N   0  0  0  0  0  0  0  0  0  0  0  0
   -5.2230   19.4020  -33.4870 C   0  0  0  0  0  0  0  0  0  0  0  0
   -4.3400   18.4700  -34.3130 C   0  0  0  0  0  0  0  0  0  0  0  0
   -5.2050   17.2560  -34.6250 C   0  0  0  0  0  0  0  0  0  0  0  0
   -6.4870   17.4730  -33.8370 C   0  0  0  0  0  0  0  0  0  0  0  0
   -9.9096   20.4990  -32.5072 H   0  0  0  0  0  0  0  0  0  0  0  0
  -10.4197   22.8847  -31.9856 H   0  0  0  0  0  0  0  0  0  0  0  0
   -8.5753   24.4645  -31.4134 H   0  0  0  0  0  0  0  0  0  0  0  0
   -5.6932   21.2682  -31.8662 H   0  0  0  0  0  0  0  0  0  0  0  0
   -6.9890   19.3270  -34.5290 H   0  0  0  0  0  0  0  0  0  0  0  0
   -5.1358   20.4340  -33.8575 H   0  0  0  0  0  0  0  0  0  0  0  0
   -4.9200   19.4000  -32.4295 H   0  0  0  0  0  0  0  0  0  0  0  0
   -4.0234   18.9651  -35.2429 H   0  0  0  0  0  0  0  0  0  0  0  0
   -3.4252   18.1893  -33.7705 H   0  0  0  0  0  0  0  0  0  0  0  0
   -5.4184   17.2001  -35.7027 H   0  0  0  0  0  0  0  0  0  0  0  0
   -4.7075   16.3134  -34.3530 H   0  0  0  0  0  0  0  0  0  0  0  0
   -7.3516   17.0941  -34.4017 H   0  0  0  0  0  0  0  0  0  0  0  0
   -6.4652   16.9377  -32.8763 H   0  0  0  0  0  0  0  0  0  0  0  0
  1  2  2  0
  2  3  1  0
  3  4  2  0
  4  5  1  0
  5  6  2  0
  6  7  1  0
  7  8  1  0
  7  9  2  0
  2 10  1  0
 10 11  1  0
 11 12  1  0
 12 13  1  0
 13 14  1  0
  9  3  1  0
 14 10  1  0
  4 15  1  0
  5 16  1  0
  6 17  1  0
  9 18  1  0
 10 19  1  0
 11 20  1  0
 11 21  1  0
 12 22  1  0
 12 23  1  0
 13 24  1  0
 13 25  1  0
 14 26  1  0
 14 27  1  0
M  CHG  1  10   1
M  END
>  <UniqueID>  (8) 
8

>  <SMILES>  (8) 
S=C(c1cccc(Br)c1)[NH+]1CCCC1

>  <Energy>  (8) 
39.128381874855066

>  <Genealogy>  (8) 
S=C(c1cccc(Br)c1)[NH+]1CCCC1 (protonated)
S=C(c1cccc(Br)c1)[NH+]1CCCC1 (3D coordinates assigned)
S=C(c1cccc(Br)c1)[NH+]1CCCC1 (nonaromatic ring conformer: 39.128381874855066 kcal/mol)

>  <smiles>  (8) 
S=C(c1cccc(Br)c1)N1CCCC1

>  <score_type>  (8) 
oracle

>  <origin>  (8) 
adg

>  <m_score__min__energy>  (8) 
-6.6100000000000003

>  <m_primary>  (8) 
energy

$$$$
8:0
     RDKit          3D

 50 52  0  0  0  0  0  0  0  0999 V2000
   -6.1970   25.6410  -29.5480 C   0  0  0  0  0  0  0  0  0  0  0  0
   -5.3660   25.6420  -30.8210 C   0  0  0  0  0  0  0  0  0  0  0  0
   -4.0050   25.4630  -30.4840 O   0  0  0  0  0  0  0  0  0  0  0  0
   -3.8590   24.4270  -29.5300 C   0  0  0  0  0  0  0  0  0  0  0  0
   -4.1030   23.0500  -30.1570 C   0  0  0  0  0  0  0  0  0  0  0  0
   -3.7220   23.0430  -31.5230 O   0  0  0  0  0  0  0  0  0  0  0  0
   -2.7540   22.0430  -31.7850 C   0  0  0  0  0  0  0  0  0  0  0  0
   -3.2830   21.0290  -32.8140 C   0  0  0  0  0  0  0  0  0  0  0  0
   -4.4940   21.5080  -33.5070 N   0  0  0  0  0  0  0  0  0  0  0  0
   -5.6710   20.7130  -33.1670 C   0  0  0  0  0  0  0  0  0  0  0  0
   -6.8270   21.3090  -32.5800 C   0  0  0  0  0  0  0  0  0  0  0  0
   -6.9160   22.7020  -32.3160 C   0  0  0  0  0  0  0  0  0  0  0  0
   -8.0840   23.2720  -31.8170 C   0  0  0  0  0  0  0  0  0  0  0  0
   -9.1930   22.4810  -31.5680 C   0  0  0  0  0  0  0  0  0  0  0  0
   -9.1270   21.1070  -31.7710 C   0  0  0  0  0  0  0  0  0  0  0  0
   -7.9370   20.4870  -32.2300 C   0  0  0  0  0  0  0  0  0  0  0  0
   -7.8500   19.1150  -32.3390 N   0  0  0  0  0  0  0  0  0  0  0  0
   -8.8420   18.2560  -31.6500 C   0  0  0  0  0  0  0  0  0  0  0  0
   -6.8210   18.5400  -33.0510 C   0  0  0  0  0  0  0  0  0  0  0  0
   -6.8660   17.1710  -33.4250 C   0  0  0  0  0  0  0  0  0  0  0  0
   -5.8000   16.5670  -34.0820 C   0  0  0  0  0  0  0  0  0  0  0  0
   -4.6660   17.3030  -34.3940 C   0  0  0  0  0  0  0  0  0  0  0  0
   -3.3160   16.5280  -35.2050 Cl  0  0  0  0  0  0  0  0  0  0  0  0
   -4.6100   18.6600  -34.0840 C   0  0  0  0  0  0  0  0  0  0  0  0
   -5.6910   19.3150  -33.4370 C   0  0  0  0  0  0  0  0  0  0  0  0
   -5.5290   25.6418  -28.6741 H   0  0  0  0  0  0  0  0  0  0  0  0
   -6.8327   26.5384  -29.5244 H   0  0  0  0  0  0  0  0  0  0  0  0
   -6.8306   24.7421  -29.5244 H   0  0  0  0  0  0  0  0  0  0  0  0
   -5.6944   24.8216  -31.4761 H   0  0  0  0  0  0  0  0  0  0  0  0
   -5.4950   26.5992  -31.3475 H   0  0  0  0  0  0  0  0  0  0  0  0
   -2.8382   24.4582  -29.1214 H   0  0  0  0  0  0  0  0  0  0  0  0
   -4.6031   24.5817  -28.7348 H   0  0  0  0  0  0  0  0  0  0  0  0
   -3.5126   22.2971  -29.6143 H   0  0  0  0  0  0  0  0  0  0  0  0
   -5.1760   22.8174  -30.0895 H   0  0  0  0  0  0  0  0  0  0  0  0
   -1.8435   22.5169  -32.1805 H   0  0  0  0  0  0  0  0  0  0  0  0
   -2.5321   21.5119  -30.8476 H   0  0  0  0  0  0  0  0  0  0  0  0
   -2.4983   20.8435  -33.5622 H   0  0  0  0  0  0  0  0  0  0  0  0
   -3.5494   20.1099  -32.2715 H   0  0  0  0  0  0  0  0  0  0  0  0
   -4.6140   22.5260  -33.3390 H   0  0  0  0  0  0  0  0  0  0  0  0
   -4.3340   21.4840  -34.5380 H   0  0  0  0  0  0  0  0  0  0  0  0
   -6.0438   23.3437  -32.5099 H   0  0  0  0  0  0  0  0  0  0  0  0
   -8.1260   24.3534  -31.6200 H   0  0  0  0  0  0  0  0  0  0  0  0
  -10.1263   22.9397  -31.2095 H   0  0  0  0  0  0  0  0  0  0  0  0
  -10.0149   20.4890  -31.5717 H   0  0  0  0  0  0  0  0  0  0  0  0
   -8.7229   18.3591  -30.5613 H   0  0  0  0  0  0  0  0  0  0  0  0
   -9.8576   18.5647  -31.9387 H   0  0  0  0  0  0  0  0  0  0  0  0
   -8.6817   17.2067  -31.9387 H   0  0  0  0  0  0  0  0  0  0  0  0
   -7.7615   16.5769  -33.1904 H   0  0  0  0  0  0  0  0  0  0  0  0
   -5.8558   15.5029  -34.3552 H   0  0  0  0  0  0  0  0  0  0  0  0
   -3.7100   19.2358  -34.3458 H   0  0  0  0  0  0  0  0  0  0  0  0
  1  2  1  0
  2  3  1  0
  3  4  1  0
  4  5  1  0
  5  6  1  0
  6  7  1  0
  7  8  1  0
  8  9  1  0
  9 10  1  0
 10 11  2  0
 11 12  1  0
 12 13  2  0
 13 14  1  0
 14 15  2  0
 15 16  1  0
 16 17  2  0
 17 18  1  0
 17 19  1  0
 19 20  2  0
 20 21  1  0
 21 22  2  0
 22 23  1  0
 22 24  1  0
 24 25  2  0
 25 10  1  0
 16 11  1  0
 25 19  1  0
  1 26  1  0
  1 27  1  0
  1 28  1  0
  2 29  1  0
  2 30  1  0
  4 31  1  0
  4 32  1  0
  5 33  1  0
  5 34  1  0
  7 35  1  0
  7 36  1  0
  8 37  1  0
  8 38  1  0
  9 39  1  0
  9 40  1  0
 12 41  1  0
 13 42  1  0
 14 43  1  0
 15 44  1  0
 18 45  1  0
 18 46  1  0
 18 47  1  0
 20 48  1  0
 21 49  1  0
 24 50  1  0
M  CHG  2   9   1  17   1
M  END
>  <UniqueID>  (9) 
9

>  <SMILES>  (9) 
CCOCCOCC[NH2+]c1c2ccccc2[n+](C)c2ccc(Cl)cc12

>  <Energy>  (9) 
77.79137575536956

>  <Genealogy>  (9) 
CCOCCOCC[NH2+]c1c2ccccc2[n+](C)c2ccc(Cl)cc12 (protonated)
CCOCCOCC[NH2+]c1c2ccccc2[n+](C)c2ccc(Cl)cc12 (3D coordinates assigned)
CCOCCOCC[NH2+]c1c2ccccc2[n+](C)c2ccc(Cl)cc12 (optimized conformer: 77.79137575536956 kcal/mol)

>  <smiles>  (9) 
CCOCCOCCNc1c2ccccc2[n+](C)c2ccc(Cl)cc12

>  <score_type>  (9) 
oracle

>  <origin>  (9) 
adg

>  <m_score__min__energy>  (9) 
-8.6699999999999999

>  <m_primary>  (9) 
energy

$$$$
9:0
     RDKit          3D

 69 71  0  0  0  0  0  0  0  0999 V2000
   -0.5500   19.4680  -29.7170 C   0  0  0  0  0  0  0  0  0  0  0  0
    0.1910   19.0060  -30.9710 C   0  0  0  0  0  0  0  0  0  0  0  0
   -0.7540   18.5240  -31.9920 N   0  0  0  0  0  0  0  0  0  0  0  0
   -0.4610   17.1460  -32.4230 C   0  0  0  0  0  0  0  0  0  0  0  0
   -1.6940   16.4360  -33.0140 C   0  0  0  0  0  0  0  0  0  0  0  0
   -2.8210   17.2930  -33.0000 O   0  0  0  0  0  0  0  0  0  0  0  0
   -3.9380   16.6940  -33.6290 C   0  0  0  0  0  0  0  0  0  0  0  0
   -4.4690   17.5920  -34.7580 C   0  0  0  0  0  0  0  0  0  0  0  0
   -5.3840   18.7100  -34.2330 C   0  0  0  0  0  0  0  0  0  0  0  0
   -4.9700   19.1600  -32.9010 N   0  0  0  0  0  0  0  0  0  0  0  0
   -5.4320   20.4040  -32.3410 C   0  0  0  0  0  0  0  0  0  0  0  0
   -6.8170   20.6570  -32.2700 C   0  0  0  0  0  0  0  0  0  0  0  0
   -7.7480   19.7590  -32.8420 C   0  0  0  0  0  0  0  0  0  0  0  0
   -9.1170   19.9600  -32.6960 C   0  0  0  0  0  0  0  0  0  0  0  0
   -9.5870   21.0480  -31.9710 C   0  0  0  0  0  0  0  0  0  0  0  0
   -8.6900   21.9560  -31.4130 C   0  0  0  0  0  0  0  0  0  0  0  0
   -7.2880   21.8040  -31.5800 C   0  0  0  0  0  0  0  0  0  0  0  0
   -6.3930   22.7180  -31.0610 N   0  0  0  0  0  0  0  0  0  0  0  0
   -6.8760   24.0310  -30.5770 C   0  0  0  0  0  0  0  0  0  0  0  0
   -5.0410   22.4280  -31.0310 C   0  0  0  0  0  0  0  0  0  0  0  0
   -4.1400   23.2160  -30.2730 C   0  0  0  0  0  0  0  0  0  0  0  0
   -2.7700   22.9940  -30.3250 C   0  0  0  0  0  0  0  0  0  0  0  0
   -2.2540   22.0020  -31.1420 C   0  0  0  0  0  0  0  0  0  0  0  0
   -3.1090   21.1640  -31.8800 C   0  0  0  0  0  0  0  0  0  0  0  0
   -2.5830   20.1960  -32.7580 O   0  0  0  0  0  0  0  0  0  0  0  0
   -2.2140   20.4020  -34.1220 C   0  0  0  0  0  0  0  0  0  0  0  0
   -0.8610   21.1210  -34.2170 C   0  0  0  0  0  0  0  0  0  0  0  0
    0.2560   20.1530  -34.1660 N   0  0  0  0  0  0  0  0  0  0  0  0
    1.5410   20.8600  -34.2820 C   0  0  0  0  0  0  0  0  0  0  0  0
    0.1470   19.1580  -35.2470 C   0  0  0  0  0  0  0  0  0  0  0  0
   -4.5210   21.3170  -31.7550 C   0  0  0  0  0  0  0  0  0  0  0  0
   -0.0056   19.1286  -28.8235 H   0  0  0  0  0  0  0  0  0  0  0  0
   -0.6137   20.5661  -29.7124 H   0  0  0  0  0  0  0  0  0  0  0  0
   -1.5641   19.0419  -29.7124 H   0  0  0  0  0  0  0  0  0  0  0  0
    0.7652   19.8497  -31.3814 H   0  0  0  0  0  0  0  0  0  0  0  0
    0.8641   18.1802  -30.6973 H   0  0  0  0  0  0  0  0  0  0  0  0
   -1.7350   18.5780  -31.6280 H   0  0  0  0  0  0  0  0  0  0  0  0
   -0.6860   19.1450  -32.8360 H   0  0  0  0  0  0  0  0  0  0  0  0
    0.3286   17.1764  -33.1882 H   0  0  0  0  0  0  0  0  0  0  0  0
   -0.1435   16.5793  -31.5353 H   0  0  0  0  0  0  0  0  0  0  0  0
   -1.4778   16.1411  -34.0514 H   0  0  0  0  0  0  0  0  0  0  0  0
   -1.9173   15.5490  -32.4030 H   0  0  0  0  0  0  0  0  0  0  0  0
   -3.6382   15.7230  -34.0501 H   0  0  0  0  0  0  0  0  0  0  0  0
   -4.7336   16.5554  -32.8821 H   0  0  0  0  0  0  0  0  0  0  0  0
   -3.6142   18.0494  -35.2778 H   0  0  0  0  0  0  0  0  0  0  0  0
   -5.0626   16.9627  -35.4374 H   0  0  0  0  0  0  0  0  0  0  0  0
   -5.3422   19.5621  -34.9274 H   0  0  0  0  0  0  0  0  0  0  0  0
   -6.4077   18.3139  -34.1614 H   0  0  0  0  0  0  0  0  0  0  0  0
   -4.1530   18.6840  -32.4580 H   0  0  0  0  0  0  0  0  0  0  0  0
   -7.3848   18.8898  -33.4100 H   0  0  0  0  0  0  0  0  0  0  0  0
   -9.8277   19.2570  -33.1549 H   0  0  0  0  0  0  0  0  0  0  0  0
  -10.6692   21.1926  -31.8374 H   0  0  0  0  0  0  0  0  0  0  0  0
   -9.0750   22.8070  -30.8319 H   0  0  0  0  0  0  0  0  0  0  0  0
   -6.8786   24.0380  -29.4770 H   0  0  0  0  0  0  0  0  0  0  0  0
   -6.2112   24.8254  -30.9472 H   0  0  0  0  0  0  0  0  0  0  0  0
   -7.8971   24.2052  -30.9472 H   0  0  0  0  0  0  0  0  0  0  0  0
   -4.5328   24.0185  -29.6314 H   0  0  0  0  0  0  0  0  0  0  0  0
   -2.0920   23.6087  -29.7147 H   0  0  0  0  0  0  0  0  0  0  0  0
   -1.1646   21.8682  -31.2144 H   0  0  0  0  0  0  0  0  0  0  0  0
   -2.1410   19.4276  -34.6272 H   0  0  0  0  0  0  0  0  0  0  0  0
   -2.9803   21.0265  -34.6046 H   0  0  0  0  0  0  0  0  0  0  0  0
   -0.8138   21.6757  -35.1657 H   0  0  0  0  0  0  0  0  0  0  0  0
   -0.7684   21.8096  -33.3642 H   0  0  0  0  0  0  0  0  0  0  0  0
    1.9329   21.0756  -33.2770 H   0  0  0  0  0  0  0  0  0  0  0  0
    2.2584   20.2296  -34.8278 H   0  0  0  0  0  0  0  0  0  0  0  0
    1.3925   21.8034  -34.8278 H   0  0  0  0  0  0  0  0  0  0  0  0
    0.0370   18.1539  -34.8114 H   0  0  0  0  0  0  0  0  0  0  0  0
   -0.7315   19.3864  -35.8684 H   0  0  0  0  0  0  0  0  0  0  0  0
    1.0541   19.1908  -35.8684 H   0  0  0  0  0  0  0  0  0  0  0  0
  1  2  1  0
  2  3  1  0
  3  4  1  0
  4  5  1  0
  5  6  1  0
  6  7  1  0
  7  8  1  0
  8  9  1  0
  9 10  1  0
 10 11  1  0
 11 12  2  0
 12 13  1  0
 13 14  2  0
 14 15  1  0
 15 16  2  0
 16 17  1  0
 17 18  2  0
 18 19  1  0
 18 20  1  0
 20 21  2  0
 21 22  1  0
 22 23  2  0
 23 24  1  0
 24 25  1  0
 25 26  1  0
 26 27  1  0
 27 28  1  0
 28 29  1  0
 28 30  1  0
 24 31  2  0
 31 11  1  0
 17 12  1  0
 31 20  1  0
  1 32  1  0
  1 33  1  0
  1 34  1  0
  2 35  1  0
  2 36  1  0
  3 37  1  0
  3 38  1  0
  4 39  1  0
  4 40  1  0
  5 41  1  0
  5 42  1  0
  7 43  1  0
  7 44  1  0
  8 45  1  0
  8 46  1  0
  9 47  1  0
  9 48  1  0
 10 49  1  0
 13 50  1  0
 14 51  1  0
 15 52  1  0
 16 53  1  0
 19 54  1  0
 19 55  1  0
 19 56  1  0
 21 57  1  0
 22 58  1  0
 23 59  1  0
 26 60  1  0
 26 61  1  0
 27 62  1  0
 27 63  1  0
 29 64  1  0
 29 65  1  0
 29 66  1  0
 30 67  1  0
 30 68  1  0
 30 69  1  0
M  CHG  2   3   1  18   1
M  END
>  <UniqueID>  (10) 
10

>  <SMILES>  (10) 
CC[NH2+]CCOCCCNc1c2ccccc2[n+](C)c2cccc(OCCN(C)C)c12

>  <Energy>  (10) 
96.33394202335023

>  <Genealogy>  (10) 
CC[NH2+]CCOCCCNc1c2ccccc2[n+](C)c2cccc(OCCN(C)C)c12 (protonated)
CC[NH2+]CCOCCCNc1c2ccccc2[n+](C)c2cccc(OCCN(C)C)c12 (3D coordinates assigned)
CC[NH2+]CCOCCCNc1c2ccccc2[n+](C)c2cccc(OCCN(C)C)c12 (optimized conformer: 96.33394202335023 kcal/mol)

>  <smiles>  (10) 
CCNCCOCCCNc1c2ccccc2[n+](C)c2cccc(OCCN(C)C)c12

>  <score_type>  (10) 
oracle

>  <origin>  (10) 
adg

>  <m_score__min__energy>  (10) 
-7

>  <m_primary>  (10) 
energy

$$$$
10:0
     RDKit          3D

 40 41  0  0  0  0  0  0  0  0999 V2000
   -9.3020   21.4590  -31.9260 C   0  0  0  0  0  0  0  0  0  0  0  0
   -9.0440   19.9660  -31.6980 C   0  0  0  0  0  0  0  0  0  0  0  0
   -8.3450   19.3350  -32.8280 N   0  0  0  0  0  0  0  0  0  0  0  0
   -7.4000   18.3010  -32.3900 C   0  0  0  0  0  0  0  0  0  0  0  0
   -6.1360   18.0390  -33.6770 S   0  0  0  0  0  0  0  0  0  0  0  0
   -5.0930   19.4590  -33.1870 C   0  0  0  0  0  0  0  0  0  0  0  0
   -5.9060   20.7520  -33.2090 C   0  0  0  0  0  0  0  0  0  0  0  0
   -5.0430   21.9300  -33.0780 N   0  0  0  0  0  0  0  0  0  0  0  0
   -4.8660   22.5710  -31.8080 C   0  0  0  0  0  0  0  0  0  0  0  0
   -3.6430   22.7600  -31.2600 C   0  0  0  0  0  0  0  0  0  0  0  0
   -2.6670   21.7450  -31.3650 C   0  0  0  0  0  0  0  0  0  0  0  0
   -1.5380   21.7580  -30.5440 C   0  0  0  0  0  0  0  0  0  0  0  0
   -1.3640   22.7740  -29.6070 C   0  0  0  0  0  0  0  0  0  0  0  0
   -2.2770   23.8270  -29.5400 C   0  0  0  0  0  0  0  0  0  0  0  0
   -3.3690   23.8810  -30.4180 C   0  0  0  0  0  0  0  0  0  0  0  0
   -3.9890   25.0280  -30.5310 N   0  0  0  0  0  0  0  0  0  0  0  0
   -5.3540   25.3360  -30.0940 C   0  0  0  0  0  0  0  0  0  0  0  0
   -6.4220   24.5990  -30.9010 C   0  0  0  0  0  0  0  0  0  0  0  0
   -6.3240   22.7870  -30.7700 S   0  0  0  0  0  0  0  0  0  0  0  0
   -9.3900   21.9684  -30.9550 H   0  0  0  0  0  0  0  0  0  0  0  0
   -8.4656   21.8932  -32.4933 H   0  0  0  0  0  0  0  0  0  0  0  0
  -10.2356   21.5873  -32.4933 H   0  0  0  0  0  0  0  0  0  0  0  0
   -8.4294   19.8486  -30.7933 H   0  0  0  0  0  0  0  0  0  0  0  0
  -10.0205   19.4711  -31.5913 H   0  0  0  0  0  0  0  0  0  0  0  0
   -9.0450   18.9050  -33.4770 H   0  0  0  0  0  0  0  0  0  0  0  0
   -6.9119   18.6228  -31.4582 H   0  0  0  0  0  0  0  0  0  0  0  0
   -7.9436   17.3606  -32.2165 H   0  0  0  0  0  0  0  0  0  0  0  0
   -4.7071   19.2912  -32.1707 H   0  0  0  0  0  0  0  0  0  0  0  0
   -4.2592   19.5506  -33.8986 H   0  0  0  0  0  0  0  0  0  0  0  0
   -6.4538   20.8140  -34.1609 H   0  0  0  0  0  0  0  0  0  0  0  0
   -6.6023   20.7371  -32.3576 H   0  0  0  0  0  0  0  0  0  0  0  0
   -4.3380   22.1310  -33.8230 H   0  0  0  0  0  0  0  0  0  0  0  0
   -2.7974   20.9371  -32.1000 H   0  0  0  0  0  0  0  0  0  0  0  0
   -0.7832   20.9633  -30.6373 H   0  0  0  0  0  0  0  0  0  0  0  0
   -0.5060   22.7461  -28.9192 H   0  0  0  0  0  0  0  0  0  0  0  0
   -2.1390   24.6216  -28.7920 H   0  0  0  0  0  0  0  0  0  0  0  0
   -5.4557   25.0513  -29.0364 H   0  0  0  0  0  0  0  0  0  0  0  0
   -5.5123   26.4137  -30.2473 H   0  0  0  0  0  0  0  0  0  0  0  0
   -7.4108   24.9194  -30.5411 H   0  0  0  0  0  0  0  0  0  0  0  0
   -6.2553   24.8525  -31.9583 H   0  0  0  0  0  0  0  0  0  0  0  0
  1  2  1  0
  2  3  1  0
  3  4  1  0
  4  5  1  0
  5  6  1  0
  6  7  1  0
  7  8  1  0
  8  9  1  0
  9 10  2  0
 10 11  1  0
 11 12  2  0
 12 13  1  0
 13 14  2  0
 14 15  1  0
 15 16  2  0
 16 17  1  0
 17 18  1  0
 18 19  1  0
 19  9  1  0
 15 10  1  0
  1 20  1  0
  1 21  1  0
  1 22  1  0
  2 23  1  0
  2 24  1  0
  3 25  1  0
  4 26  1  0
  4 27  1  0
  6 28  1  0
  6 29  1  0
  7 30  1  0
  7 31  1  0
  8 32  1  0
 11 33  1  0
 12 34  1  0
 13 35  1  0
 14 36  1  0
 17 37  1  0
 17 38  1  0
 18 39  1  0
 18 40  1  0
M  END
>  <UniqueID>  (11) 
11

>  <SMILES>  (11) 
CCNCSCCNC1=c2ccccc2=NCCS1

>  <Energy>  (11) 
58.88294128297198

>  <Genealogy>  (11) 
CCNCSCCNC1=c2ccccc2=NCCS1 (3D coordinates assigned)
CCNCSCCNC1=c2ccccc2=NCCS1 (nonaromatic ring conformer: 58.88294128297198 kcal/mol)

>  <smiles>  (11) 
CCNCSCCNC1=c2ccccc2=NCCS1

>  <score_type>  (11) 
oracle

>  <origin>  (11) 
adg

>  <m_score__min__energy>  (11) 
-5.7300000000000004

>  <m_primary>  (11) 
energy

$$$$
11:0
     RDKit          3D

 35 36  0  0  0  0  0  0  0  0999 V2000
   -3.1307   23.0249  -32.6474 H   0  0  0  0  0  0  0  0  0  0  0  0
   -3.5020   22.5280  -31.7390 C   0  0  0  0  0  0  0  0  0  0  0  0
   -2.7280   22.5640  -30.6440 C   0  0  0  0  0  0  0  0  0  0  0  0
   -1.4810   22.0280  -30.6440 F   0  0  0  0  0  0  0  0  0  0  0  0
   -3.1880   23.2760  -29.3960 C   0  0  0  0  0  0  0  0  0  0  0  0
   -2.8033   22.7372  -28.5175 H   0  0  0  0  0  0  0  0  0  0  0  0
   -4.2878   23.2945  -29.4013 H   0  0  0  0  0  0  0  0  0  0  0  0
   -2.7110   24.6650  -29.3470 N   0  0  0  0  0  0  0  0  0  0  0  0
   -3.4790   25.2870  -28.9980 H   0  0  0  0  0  0  0  0  0  0  0  0
   -1.5530   24.8110  -28.4600 C   0  0  0  0  0  0  0  0  0  0  0  0
   -1.8859   24.7690  -27.4124 H   0  0  0  0  0  0  0  0  0  0  0  0
   -0.8397   23.9957  -28.6510 H   0  0  0  0  0  0  0  0  0  0  0  0
   -1.0644   25.7779  -28.6510 H   0  0  0  0  0  0  0  0  0  0  0  0
   -4.8240   21.8630  -31.8050 C   0  0  0  0  0  0  0  0  0  0  0  0
   -5.0940   20.1900  -31.7240 S   0  0  0  0  0  0  0  0  0  0  0  0
   -6.7610   20.2830  -31.8180 C   0  0  0  0  0  0  0  0  0  0  0  0
   -7.6750   19.2310  -31.8000 C   0  0  0  0  0  0  0  0  0  0  0  0
   -7.3337   18.1879  -31.7265 H   0  0  0  0  0  0  0  0  0  0  0  0
   -9.0400   19.5370  -31.8780 C   0  0  0  0  0  0  0  0  0  0  0  0
   -9.7844   18.7272  -31.8680 H   0  0  0  0  0  0  0  0  0  0  0  0
   -9.4620   20.8750  -31.9690 C   0  0  0  0  0  0  0  0  0  0  0  0
  -10.5359   21.1055  -32.0289 H   0  0  0  0  0  0  0  0  0  0  0  0
   -8.5230   21.9200  -31.9840 C   0  0  0  0  0  0  0  0  0  0  0  0
   -8.8553   22.9663  -32.0536 H   0  0  0  0  0  0  0  0  0  0  0  0
   -7.1550   21.6120  -31.9090 C   0  0  0  0  0  0  0  0  0  0  0  0
   -6.0680   22.5170  -31.9070 C   0  0  0  0  0  0  0  0  0  0  0  0
   -6.2160   24.0210  -31.9750 C   0  0  0  0  0  0  0  0  0  0  0  0
   -5.5899   24.4023  -32.7952 H   0  0  0  0  0  0  0  0  0  0  0  0
   -7.2786   24.2495  -32.1446 H   0  0  0  0  0  0  0  0  0  0  0  0
   -5.7880   24.7040  -30.6660 C   0  0  0  0  0  0  0  0  0  0  0  0
   -6.6187   25.3282  -30.3051 H   0  0  0  0  0  0  0  0  0  0  0  0
   -5.5337   23.9149  -29.9431 H   0  0  0  0  0  0  0  0  0  0  0  0
   -4.6070   25.5480  -30.8390 N   0  0  0  0  0  0  0  0  0  0  0  0
   -3.8160   24.9630  -31.1940 H   0  0  0  0  0  0  0  0  0  0  0  0
   -4.3300   25.9440  -29.9110 H   0  0  0  0  0  0  0  0  0  0  0  0
  1  2  1  0
  2  3  2  0
  3  4  1  0
  3  5  1  0
  5  6  1  0
  5  7  1  0
  5  8  1  0
  8  9  1  0
  8 10  1  0
 10 11  1  0
 10 12  1  0
 10 13  1  0
  2 14  1  0
 14 15  1  0
 15 16  1  0
 16 17  2  0
 17 18  1  0
 17 19  1  0
 19 20  1  0
 19 21  2  0
 21 22  1  0
 21 23  1  0
 23 24  1  0
 23 25  2  0
 25 26  1  0
 26 27  1  0
 27 28  1  0
 27 29  1  0
 27 30  1  0
 30 31  1  0
 30 32  1  0
 30 33  1  0
 33 34  1  0
 33 35  1  0
 26 14  2  0
 25 16  1  0
M  END
>  <UniqueID>  (12) 
12

>  <SMILES>  (12) 
CNC/C(F)=C/c1sc2ccccc2c1CCN

>  <Energy>  (12) 
63.327976920108725

>  <Genealogy>  (12) 
CNC/C(F)=C/c1sc2ccccc2c1CCN (cis-trans isomerization)
CNC/C(F)=C/c1sc2ccccc2c1CCN (3D coordinates assigned)
CNC/C(F)=C/c1sc2ccccc2c1CCN (optimized conformer: 63.327976920108725 kcal/mol)

>  <smiles>  (12) 
CNCC(F)=Cc1sc2ccccc2c1CCN

>  <score_type>  (12) 
oracle

>  <origin>  (12) 
adg

>  <m_score__min__energy>  (12) 
-7.3799999999999999

>  <m_primary>  (12) 
energy

$$$$
12:0
     RDKit          3D

 36 39  0  0  0  0  0  0  0  0999 V2000
   -8.8870   21.9130  -30.8560 C   0  0  0  0  0  0  0  0  0  0  0  0
   -7.4740   22.2620  -30.9640 N   0  0  0  0  0  0  0  0  0  0  0  0
   -6.8700   23.3390  -30.4100 C   0  0  0  0  0  0  0  0  0  0  0  0
   -5.5240   23.3680  -30.7590 C   0  0  0  0  0  0  0  0  0  0  0  0
   -4.5470   24.3930  -30.3500 C   0  0  0  0  0  0  0  0  0  0  0  0
   -4.6340   25.5480  -30.8440 O   0  0  0  0  0  0  0  0  0  0  0  0
   -3.5220   24.1110  -29.3780 N   0  0  0  0  0  0  0  0  0  0  0  0
   -3.8490   24.0530  -27.9400 C   0  0  0  0  0  0  0  0  0  0  0  0
   -2.8600   24.9070  -27.1350 C   0  0  0  0  0  0  0  0  0  0  0  0
   -1.5020   24.6370  -27.5920 N   0  0  0  0  0  0  0  0  0  0  0  0
   -0.3290   24.8980  -26.9940 C   0  0  0  0  0  0  0  0  0  0  0  0
    0.6990   24.5910  -27.8120 N   0  0  0  0  0  0  0  0  0  0  0  0
    0.1810   24.1430  -28.9500 N   0  0  0  0  0  0  0  0  0  0  0  0
   -1.1560   24.1900  -28.8040 C   0  0  0  0  0  0  0  0  0  0  0  0
   -2.1600   23.7880  -29.8380 C   0  0  0  0  0  0  0  0  0  0  0  0
   -5.3240   22.2740  -31.5860 C   0  0  0  0  0  0  0  0  0  0  0  0
   -4.2030   21.8520  -32.3040 C   0  0  0  0  0  0  0  0  0  0  0  0
   -4.3280   20.7030  -33.1050 C   0  0  0  0  0  0  0  0  0  0  0  0
   -5.5600   20.0200  -33.1890 C   0  0  0  0  0  0  0  0  0  0  0  0
   -6.6830   20.4840  -32.4800 C   0  0  0  0  0  0  0  0  0  0  0  0
   -6.5300   21.6230  -31.6840 C   0  0  0  0  0  0  0  0  0  0  0  0
   -9.1675   21.8437  -29.7946 H   0  0  0  0  0  0  0  0  0  0  0  0
   -9.4946   22.6881  -31.3460 H   0  0  0  0  0  0  0  0  0  0  0  0
   -9.0639   20.9442  -31.3460 H   0  0  0  0  0  0  0  0  0  0  0  0
   -7.3715   24.0842  -29.7750 H   0  0  0  0  0  0  0  0  0  0  0  0
   -4.8689   24.4345  -27.7839 H   0  0  0  0  0  0  0  0  0  0  0  0
   -3.7813   23.0094  -27.5990 H   0  0  0  0  0  0  0  0  0  0  0  0
   -3.0914   25.9724  -27.2816 H   0  0  0  0  0  0  0  0  0  0  0  0
   -2.9443   24.6575  -26.0670 H   0  0  0  0  0  0  0  0  0  0  0  0
   -0.2209   25.3056  -25.9780 H   0  0  0  0  0  0  0  0  0  0  0  0
   -1.9546   24.3291  -30.7734 H   0  0  0  0  0  0  0  0  0  0  0  0
   -2.0862   22.7036  -30.0072 H   0  0  0  0  0  0  0  0  0  0  0  0
   -3.2518   22.4013  -32.2448 H   0  0  0  0  0  0  0  0  0  0  0  0
   -3.4593   20.3340  -33.6701 H   0  0  0  0  0  0  0  0  0  0  0  0
   -5.6429   19.1182  -33.8134 H   0  0  0  0  0  0  0  0  0  0  0  0
   -7.6513   19.9667  -32.5498 H   0  0  0  0  0  0  0  0  0  0  0  0
  1  2  1  0
  2  3  1  0
  3  4  2  0
  4  5  1  0
  5  6  2  0
  5  7  1  0
  7  8  1  0
  8  9  1  0
  9 10  1  0
 10 11  1  0
 11 12  2  0
 12 13  1  0
 13 14  2  0
 14 15  1  0
  4 16  1  0
 16 17  2  0
 17 18  1  0
 18 19  2  0
 19 20  1  0
 20 21  2  0
 21  2  1  0
 15  7  1  0
 21 16  1  0
 14 10  1  0
  1 22  1  0
  1 23  1  0
  1 24  1  0
  3 25  1  0
  8 26  1  0
  8 27  1  0
  9 28  1  0
  9 29  1  0
 11 30  1  0
 15 31  1  0
 15 32  1  0
 17 33  1  0
 18 34  1  0
 19 35  1  0
 20 36  1  0
M  END
>  <UniqueID>  (13) 
13

>  <SMILES>  (13) 
Cn1cc(C(=O)N2CCn3cnnc3C2)c2ccccc21

>  <Energy>  (13) 
114.06408039379198

>  <Genealogy>  (13) 
Cn1cc(C(=O)N2CCn3cnnc3C2)c2ccccc21 (3D coordinates assigned)
Cn1cc(C(=O)N2CCn3cnnc3C2)c2ccccc21 (nonaromatic ring conformer: 114.06408039379198 kcal/mol)

>  <smiles>  (13) 
Cn1cc(C(=O)N2CCn3cnnc3C2)c2ccccc21

>  <score_type>  (13) 
oracle

>  <origin>  (13) 
adg

>  <m_score__min__energy>  (13) 
-8.1699999999999999

>  <m_primary>  (13) 
energy

$$$$
13:0
     RDKit          3D

 56 59  0  0  0  0  0  0  0  0999 V2000
   -2.3775   13.3472  -34.6943 H   0  0  0  0  0  0  0  0  0  0  0  0
   -2.6450   14.3050  -34.2240 C   0  0  0  0  0  0  0  0  0  0  0  0
   -2.5930   15.4300  -34.9530 C   0  0  0  0  0  0  0  0  0  0  0  0
   -1.6174   15.8486  -35.2412 H   0  0  0  0  0  0  0  0  0  0  0  0
   -3.8620   16.1260  -35.3810 C   0  0  0  0  0  0  0  0  0  0  0  0
   -3.7168   16.5382  -36.3905 H   0  0  0  0  0  0  0  0  0  0  0  0
   -4.6754   15.3857  -35.3642 H   0  0  0  0  0  0  0  0  0  0  0  0
   -4.2320   17.2300  -34.4630 N   0  0  0  0  0  0  0  0  0  0  0  0
   -4.2600   16.8430  -33.4870 H   0  0  0  0  0  0  0  0  0  0  0  0
   -5.5810   17.7770  -34.7960 C   0  0  0  0  0  0  0  0  0  0  0  0
   -5.7900   17.5592  -35.8538 H   0  0  0  0  0  0  0  0  0  0  0  0
   -6.2951   17.2948  -34.1123 H   0  0  0  0  0  0  0  0  0  0  0  0
   -5.7180   19.2990  -34.5790 C   0  0  0  0  0  0  0  0  0  0  0  0
   -5.4039   19.8226  -35.4940 H   0  0  0  0  0  0  0  0  0  0  0  0
   -6.7687   19.5269  -34.3463 H   0  0  0  0  0  0  0  0  0  0  0  0
   -4.8830   19.7470  -33.4590 N   0  0  0  0  0  0  0  0  0  0  0  0
   -5.3550   20.7500  -32.5340 C   0  0  0  0  0  0  0  0  0  0  0  0
   -4.4810   21.5460  -31.9670 N   0  0  0  0  0  0  0  0  0  0  0  0
   -4.7380   22.6020  -31.0220 C   0  0  0  0  0  0  0  0  0  0  0  0
   -3.9140   22.7140  -29.8960 C   0  0  0  0  0  0  0  0  0  0  0  0
   -3.0755   22.0150  -29.7607 H   0  0  0  0  0  0  0  0  0  0  0  0
   -4.1500   23.7090  -28.9420 C   0  0  0  0  0  0  0  0  0  0  0  0
   -3.5025   23.7844  -28.0559 H   0  0  0  0  0  0  0  0  0  0  0  0
   -5.2070   24.6080  -29.1120 C   0  0  0  0  0  0  0  0  0  0  0  0
   -5.4021   25.3781  -28.3512 H   0  0  0  0  0  0  0  0  0  0  0  0
   -6.0150   24.5280  -30.2480 C   0  0  0  0  0  0  0  0  0  0  0  0
   -6.8444   25.2379  -30.3827 H   0  0  0  0  0  0  0  0  0  0  0  0
   -5.7710   23.5430  -31.2190 C   0  0  0  0  0  0  0  0  0  0  0  0
   -6.7630   23.5030  -32.7080 S   0  0  0  0  0  0  0  0  0  0  0  0
   -7.5340   21.9810  -32.1690 C   0  0  0  0  0  0  0  0  0  0  0  0
   -8.8670   21.9940  -31.7490 C   0  0  0  0  0  0  0  0  0  0  0  0
   -9.4326   22.9374  -31.7431 H   0  0  0  0  0  0  0  0  0  0  0  0
   -9.4820   20.8070  -31.3360 C   0  0  0  0  0  0  0  0  0  0  0  0
  -10.5337   20.8169  -31.0139 H   0  0  0  0  0  0  0  0  0  0  0  0
   -8.7620   19.6080  -31.3320 C   0  0  0  0  0  0  0  0  0  0  0  0
   -9.2502   18.6754  -31.0128 H   0  0  0  0  0  0  0  0  0  0  0  0
   -7.4230   19.5930  -31.7330 C   0  0  0  0  0  0  0  0  0  0  0  0
   -6.8588   18.6488  -31.7233 H   0  0  0  0  0  0  0  0  0  0  0  0
   -6.7940   20.7810  -32.1490 C   0  0  0  0  0  0  0  0  0  0  0  0
   -3.4660   19.3470  -33.4370 C   0  0  0  0  0  0  0  0  0  0  0  0
   -2.8406   20.2278  -33.6443 H   0  0  0  0  0  0  0  0  0  0  0  0
   -3.2344   18.9341  -32.4441 H   0  0  0  0  0  0  0  0  0  0  0  0
   -3.1810   18.2710  -34.4910 C   0  0  0  0  0  0  0  0  0  0  0  0
   -3.1586   18.7366  -35.4873 H   0  0  0  0  0  0  0  0  0  0  0  0
   -2.2100   17.8036  -34.2701 H   0  0  0  0  0  0  0  0  0  0  0  0
   -3.0610   14.3230  -32.7770 C   0  0  0  0  0  0  0  0  0  0  0  0
   -2.1682   14.2061  -32.1452 H   0  0  0  0  0  0  0  0  0  0  0  0
   -3.7667   13.4966  -32.6063 H   0  0  0  0  0  0  0  0  0  0  0  0
   -3.7060   15.5410  -32.4460 O   0  0  0  0  0  0  0  0  0  0  0  0
   -5.0040   15.3100  -31.9310 C   0  0  0  0  0  0  0  0  0  0  0  0
   -4.9252   14.7546  -30.9848 H   0  0  0  0  0  0  0  0  0  0  0  0
   -5.5807   14.7268  -32.6640 H   0  0  0  0  0  0  0  0  0  0  0  0
   -5.7180   16.6340  -31.6790 C   0  0  0  0  0  0  0  0  0  0  0  0
   -5.8083   16.8015  -30.5956 H   0  0  0  0  0  0  0  0  0  0  0  0
   -5.1398   17.4540  -32.1298 H   0  0  0  0  0  0  0  0  0  0  0  0
   -6.7208   16.6014  -32.1298 H   0  0  0  0  0  0  0  0  0  0  0  0
  1  2  1  0
  2  3  2  0
  3  4  1  0
  3  5  1  0
  5  6  1  0
  5  7  1  0
  5  8  1  0
  8  9  1  0
  8 10  1  0
 10 11  1  0
 10 12  1  0
 10 13  1  0
 13 14  1  0
 13 15  1  0
 13 16  1  0
 16 17  1  0
 17 18  2  0
 18 19  1  0
 19 20  2  0
 20 21  1  0
 20 22  1  0
 22 23  1  0
 22 24  2  0
 24 25  1  0
 24 26  1  0
 26 27  1  0
 26 28  2  0
 28 29  1  0
 29 30  1  0
 30 31  2  0
 31 32  1  0
 31 33  1  0
 33 34  1  0
 33 35  2  0
 35 36  1  0
 35 37  1  0
 37 38  1  0
 37 39  2  0
 16 40  1  0
 40 41  1  0
 40 42  1  0
 40 43  1  0
 43 44  1  0
 43 45  1  0
  2 46  1  0
 46 47  1  0
 46 48  1  0
 46 49  1  0
 49 50  1  0
 50 51  1  0
 50 52  1  0
 50 53  1  0
 53 54  1  0
 53 55  1  0
 53 56  1  0
 43  8  1  0
 39 17  1  0
 28 19  1  0
 39 30  1  0
M  CHG  1   8   1
M  END
>  <UniqueID>  (14) 
14

>  <SMILES>  (14) 
CCOC/C=C/C[NH+]1CCN(C2=Nc3ccccc3Sc3ccccc32)CC1

>  <Energy>  (14) 
78.30038046405095

>  <Genealogy>  (14) 
CCOCC=CC[NH+]1CCN(C2=Nc3ccccc3Sc3ccccc32)CC1 (protonated)
CCOC/C=C/C[NH+]1CCN(C2=Nc3ccccc3Sc3ccccc32)CC1 (cis-trans isomerization)
CCOC/C=C/C[NH+]1CCN(C2=Nc3ccccc3Sc3ccccc32)CC1 (3D coordinates assigned)
CCOC/C=C/C[NH+]1CCN(C2=Nc3ccccc3Sc3ccccc32)CC1 (nonaromatic ring conformer: 78.30038046405095 kcal/mol)

>  <smiles>  (14) 
CCOCC=CCN1CCN(C2=Nc3ccccc3Sc3ccccc32)CC1

>  <score_type>  (14) 
oracle

>  <origin>  (14) 
adg

>  <m_score__min__energy>  (14) 
-7.8399999999999999

>  <m_primary>  (14) 
energy

$$$$
14:0
     RDKit          3D

 68 68  0  0  0  0  0  0  0  0999 V2000
   -3.2203   21.3278  -31.0380 H   0  0  0  0  0  0  0  0  0  0  0  0
   -2.1210   21.3650  -31.0510 C   0  0  0  0  0  0  0  0  0  0  0  0
   -1.4930   21.7680  -29.9880 N   0  0  0  0  0  0  0  0  0  0  0  0
   -0.9410   23.0280  -29.9030 O   0  0  0  0  0  0  0  0  0  0  0  0
   -0.8390   23.7050  -28.6550 C   0  0  0  0  0  0  0  0  0  0  0  0
    0.2056   23.6699  -28.3121 H   0  0  0  0  0  0  0  0  0  0  0  0
   -1.5013   23.2056  -27.9326 H   0  0  0  0  0  0  0  0  0  0  0  0
   -1.2730   25.1630  -28.7810 C   0  0  0  0  0  0  0  0  0  0  0  0
   -0.5747   25.6981  -29.4414 H   0  0  0  0  0  0  0  0  0  0  0  0
   -1.2704   25.6346  -27.7872 H   0  0  0  0  0  0  0  0  0  0  0  0
   -2.5730   25.2190  -29.3260 O   0  0  0  0  0  0  0  0  0  0  0  0
   -3.4320   24.3620  -28.6050 C   0  0  0  0  0  0  0  0  0  0  0  0
   -4.1101   24.9634  -27.9816 H   0  0  0  0  0  0  0  0  0  0  0  0
   -2.8323   23.6993  -27.9638 H   0  0  0  0  0  0  0  0  0  0  0  0
   -4.2580   23.5120  -29.5870 C   0  0  0  0  0  0  0  0  0  0  0  0
   -5.1916   23.2229  -29.0822 H   0  0  0  0  0  0  0  0  0  0  0  0
   -3.6182   22.6598  -29.8598 H   0  0  0  0  0  0  0  0  0  0  0  0
   -4.6170   24.1780  -30.8670 N   0  0  0  0  0  0  0  0  0  0  0  0
   -5.0920   23.3180  -31.9730 C   0  0  0  0  0  0  0  0  0  0  0  0
   -4.3491   23.3313  -32.7841 H   0  0  0  0  0  0  0  0  0  0  0  0
   -6.0575   23.7058  -32.3300 H   0  0  0  0  0  0  0  0  0  0  0  0
   -5.2890   21.8800  -31.4990 C   0  0  0  0  0  0  0  0  0  0  0  0
   -5.2926   21.8537  -30.3993 H   0  0  0  0  0  0  0  0  0  0  0  0
   -6.2480   21.4971  -31.8781 H   0  0  0  0  0  0  0  0  0  0  0  0
   -4.4683   21.2533  -31.8781 H   0  0  0  0  0  0  0  0  0  0  0  0
   -5.3560   25.4510  -30.7200 C   0  0  0  0  0  0  0  0  0  0  0  0
   -4.6489   26.2282  -30.3946 H   0  0  0  0  0  0  0  0  0  0  0  0
   -5.8058   25.6781  -31.6978 H   0  0  0  0  0  0  0  0  0  0  0  0
   -6.4990   25.3810  -29.7050 C   0  0  0  0  0  0  0  0  0  0  0  0
   -6.0863   25.4063  -28.6857 H   0  0  0  0  0  0  0  0  0  0  0  0
   -7.1711   26.2397  -29.8498 H   0  0  0  0  0  0  0  0  0  0  0  0
   -7.0613   24.4467  -29.8498 H   0  0  0  0  0  0  0  0  0  0  0  0
   -1.4060   20.9550  -32.2770 C   0  0  0  0  0  0  0  0  0  0  0  0
   -0.0180   21.1820  -32.3210 C   0  0  0  0  0  0  0  0  0  0  0  0
    0.4919   21.5922  -31.4368 H   0  0  0  0  0  0  0  0  0  0  0  0
    0.7210   20.8950  -33.4680 C   0  0  0  0  0  0  0  0  0  0  0  0
    1.8079   21.0640  -33.4785 H   0  0  0  0  0  0  0  0  0  0  0  0
    0.0840   20.3950  -34.5990 C   0  0  0  0  0  0  0  0  0  0  0  0
    0.6651   20.1737  -35.5064 H   0  0  0  0  0  0  0  0  0  0  0  0
   -1.2920   20.1750  -34.5800 C   0  0  0  0  0  0  0  0  0  0  0  0
   -1.7886   19.7938  -35.4845 H   0  0  0  0  0  0  0  0  0  0  0  0
   -2.0570   20.4290  -33.4330 C   0  0  0  0  0  0  0  0  0  0  0  0
   -3.4250   20.1110  -33.5360 O   0  0  0  0  0  0  0  0  0  0  0  0
   -4.0190   18.9660  -34.1420 C   0  0  0  0  0  0  0  0  0  0  0  0
   -3.9146   19.0333  -35.2350 H   0  0  0  0  0  0  0  0  0  0  0  0
   -3.5155   18.0566  -33.7822 H   0  0  0  0  0  0  0  0  0  0  0  0
   -5.5040   18.9090  -33.7730 C   0  0  0  0  0  0  0  0  0  0  0  0
   -5.6624   19.5256  -32.8759 H   0  0  0  0  0  0  0  0  0  0  0  0
   -6.0649   19.2802  -34.6434 H   0  0  0  0  0  0  0  0  0  0  0  0
   -6.0170   17.4890  -33.4820 C   0  0  0  0  0  0  0  0  0  0  0  0
   -6.1601   16.9631  -34.4375 H   0  0  0  0  0  0  0  0  0  0  0  0
   -5.2689   16.9865  -32.8513 H   0  0  0  0  0  0  0  0  0  0  0  0
   -7.3480   17.4890  -32.7160 C   0  0  0  0  0  0  0  0  0  0  0  0
   -8.1744   17.6250  -33.4291 H   0  0  0  0  0  0  0  0  0  0  0  0
   -7.4511   16.5292  -32.1887 H   0  0  0  0  0  0  0  0  0  0  0  0
   -7.3830   18.6260  -31.6810 C   0  0  0  0  0  0  0  0  0  0  0  0
   -7.0346   18.2297  -30.7158 H   0  0  0  0  0  0  0  0  0  0  0  0
   -6.7340   19.4295  -32.0593 H   0  0  0  0  0  0  0  0  0  0  0  0
   -8.7860   19.2300  -31.4830 C   0  0  0  0  0  0  0  0  0  0  0  0
   -9.5295   18.4279  -31.6001 H   0  0  0  0  0  0  0  0  0  0  0  0
   -8.8061   19.6759  -30.4776 H   0  0  0  0  0  0  0  0  0  0  0  0
   -9.1190   20.3480  -32.4770 C   0  0  0  0  0  0  0  0  0  0  0  0
   -8.2377   20.5504  -33.1034 H   0  0  0  0  0  0  0  0  0  0  0  0
   -9.9634   20.0274  -33.1049 H   0  0  0  0  0  0  0  0  0  0  0  0
   -9.4840   21.5350  -31.7840 O   0  0  0  0  0  0  0  0  0  0  0  0
   -8.5590   22.5000  -31.4390 N   0  0  0  0  0  0  0  0  0  0  0  0
   -8.2270   23.3930  -32.2460 O   0  0  0  0  0  0  0  0  0  0  0  0
   -7.9940   22.4760  -30.1870 O   0  0  0  0  0  0  0  0  0  0  0  0
  1  2  1  0
  2  3  2  0
  3  4  1  0
  4  5  1  0
  5  6  1  0
  5  7  1  0
  5  8  1  0
  8  9  1  0
  8 10  1  0
  8 11  1  0
 11 12  1  0
 12 13  1  0
 12 14  1  0
 12 15  1  0
 15 16  1  0
 15 17  1  0
 15 18  1  0
 18 19  1  0
 19 20  1  0
 19 21  1  0
 19 22  1  0
 22 23  1  0
 22 24  1  0
 22 25  1  0
 18 26  1  0
 26 27  1  0
 26 28  1  0
 26 29  1  0
 29 30  1  0
 29 31  1  0
 29 32  1  0
  2 33  1  0
 33 34  2  0
 34 35  1  0
 34 36  1  0
 36 37  1  0
 36 38  2  0
 38 39  1  0
 38 40  1  0
 40 41  1  0
 40 42  2  0
 42 43  1  0
 43 44  1  0
 44 45  1  0
 44 46  1  0
 44 47  1  0
 47 48  1  0
 47 49  1  0
 47 50  1  0
 50 51  1  0
 50 52  1  0
 50 53  1  0
 53 54  1  0
 53 55  1  0
 53 56  1  0
 56 57  1  0
 56 58  1  0
 56 59  1  0
 59 60  1  0
 59 61  1  0
 59 62  1  0
 62 63  1  0
 62 64  1  0
 62 65  1  0
 65 66  1  0
 66 67  2  0
 66 68  1  0
 42 33  1  0
M  CHG  2  66   1  68  -1
M  END
>  <UniqueID>  (15) 
15

>  <SMILES>  (15) 
CCN(CC)CCOCCO/N=C\c1ccccc1OCCCCCCCO[N+](=O)[O-]

>  <Energy>  (15) 
59.64329368330902

>  <Genealogy>  (15) 
CCN(CC)CCOCCO/N=C\c1ccccc1OCCCCCCCO[N+](=O)[O-] (cis-trans isomerization)
CCN(CC)CCOCCO/N=C\c1ccccc1OCCCCCCCO[N+](=O)[O-] (3D coordinates assigned)
CCN(CC)CCOCCO/N=C\c1ccccc1OCCCCCCCO[N+](=O)[O-] (optimized conformer: 59.64329368330902 kcal/mol)

>  <smiles>  (15) 
CCN(CC)CCOCCON=Cc1ccccc1OCCCCCCCO[N+](=O)[O-]

>  <score_type>  (15) 
oracle

>  <origin>  (15) 
adg

>  <m_score__min__energy>  (15) 
-8.8900000000000006

>  <m_primary>  (15) 
energy

$$$$
15:0
     RDKit          3D

 46 48  0  0  0  0  0  0  0  0999 V2000
   -6.5400   25.3470  -29.3420 C   0  0  0  0  0  0  0  0  0  0  0  0
   -5.7240   25.5600  -30.6120 C   0  0  0  0  0  0  0  0  0  0  0  0
   -5.2740   24.2760  -31.1510 N   0  0  0  0  0  0  0  0  0  0  0  0
   -4.0070   23.8940  -31.1470 N   0  0  0  0  0  0  0  0  0  0  0  0
   -3.9420   22.6680  -31.7090 C   0  0  0  0  0  0  0  0  0  0  0  0
   -2.6780   21.9120  -31.8860 C   0  0  0  0  0  0  0  0  0  0  0  0
   -2.4170   21.1870  -33.0660 C   0  0  0  0  0  0  0  0  0  0  0  0
   -1.2170   20.4840  -33.2140 C   0  0  0  0  0  0  0  0  0  0  0  0
   -0.2660   20.4960  -32.1920 C   0  0  0  0  0  0  0  0  0  0  0  0
   -0.5110   21.2110  -31.0190 C   0  0  0  0  0  0  0  0  0  0  0  0
   -1.7090   21.9170  -30.8650 C   0  0  0  0  0  0  0  0  0  0  0  0
   -5.2160   22.2590  -32.0750 C   0  0  0  0  0  0  0  0  0  0  0  0
   -6.0290   23.3090  -31.7120 C   0  0  0  0  0  0  0  0  0  0  0  0
   -7.8150   23.3540  -31.9150 S   0  0  0  0  0  0  0  0  0  0  0  0
   -8.0850   21.6350  -31.3610 C   0  0  0  0  0  0  0  0  0  0  0  0
   -9.1270   20.9290  -32.2460 C   0  0  0  0  0  0  0  0  0  0  0  0
   -8.5400   19.8180  -33.0340 N   0  0  0  0  0  0  0  0  0  0  0  0
   -7.1400   20.1190  -33.4370 C   0  0  0  0  0  0  0  0  0  0  0  0
   -6.3150   18.8330  -33.6130 C   0  0  0  0  0  0  0  0  0  0  0  0
   -6.2100   18.0620  -32.4230 O   0  0  0  0  0  0  0  0  0  0  0  0
   -7.3290   18.1960  -31.5560 C   0  0  0  0  0  0  0  0  0  0  0  0
   -8.6410   18.5340  -32.2880 C   0  0  0  0  0  0  0  0  0  0  0  0
   -5.9003   25.5140  -28.4628 H   0  0  0  0  0  0  0  0  0  0  0  0
   -7.3811   26.0557  -29.3234 H   0  0  0  0  0  0  0  0  0  0  0  0
   -6.9274   24.3176  -29.3234 H   0  0  0  0  0  0  0  0  0  0  0  0
   -6.3470   26.0695  -31.3619 H   0  0  0  0  0  0  0  0  0  0  0  0
   -4.8436   26.1741  -30.3715 H   0  0  0  0  0  0  0  0  0  0  0  0
   -3.1616   21.1739  -33.8756 H   0  0  0  0  0  0  0  0  0  0  0  0
   -1.0220   19.9201  -34.1381 H   0  0  0  0  0  0  0  0  0  0  0  0
    0.6766   19.9417  -32.3114 H   0  0  0  0  0  0  0  0  0  0  0  0
    0.2389   21.2196  -30.2142 H   0  0  0  0  0  0  0  0  0  0  0  0
   -1.8952   22.4804  -29.9388 H   0  0  0  0  0  0  0  0  0  0  0  0
   -5.5100   21.3105  -32.5481 H   0  0  0  0  0  0  0  0  0  0  0  0
   -7.1338   21.0853  -31.4166 H   0  0  0  0  0  0  0  0  0  0  0  0
   -8.4584   21.6542  -30.3265 H   0  0  0  0  0  0  0  0  0  0  0  0
   -9.9213   20.5240  -31.6018 H   0  0  0  0  0  0  0  0  0  0  0  0
   -9.5224   21.6709  -32.9554 H   0  0  0  0  0  0  0  0  0  0  0  0
   -9.1120   19.7110  -33.9060 H   0  0  0  0  0  0  0  0  0  0  0  0
   -7.1527   20.6687  -34.3897 H   0  0  0  0  0  0  0  0  0  0  0  0
   -6.6745   20.7217  -32.6432 H   0  0  0  0  0  0  0  0  0  0  0  0
   -6.7931   18.2153  -34.3876 H   0  0  0  0  0  0  0  0  0  0  0  0
   -5.2958   19.1370  -33.8939 H   0  0  0  0  0  0  0  0  0  0  0  0
   -7.4664   17.2471  -31.0169 H   0  0  0  0  0  0  0  0  0  0  0  0
   -7.1128   19.0354  -30.8787 H   0  0  0  0  0  0  0  0  0  0  0  0
   -8.8713   17.7262  -32.9982 H   0  0  0  0  0  0  0  0  0  0  0  0
   -9.4370   18.6362  -31.5357 H   0  0  0  0  0  0  0  0  0  0  0  0
  1  2  1  0
  2  3  1  0
  3  4  1  0
  4  5  2  0
  5  6  1  0
  6  7  2  0
  7  8  1  0
  8  9  2  0
  9 10  1  0
 10 11  2  0
  5 12  1  0
 12 13  2  0
 13 14  1  0
 14 15  1  0
 15 16  1  0
 16 17  1  0
 17 18  1  0
 18 19  1  0
 19 20  1  0
 20 21  1  0
 21 22  1  0
 13  3  1  0
 22 17  1  0
 11  6  1  0
  1 23  1  0
  1 24  1  0
  1 25  1  0
  2 26  1  0
  2 27  1  0
  7 28  1  0
  8 29  1  0
  9 30  1  0
 10 31  1  0
 11 32  1  0
 12 33  1  0
 15 34  1  0
 15 35  1  0
 16 36  1  0
 16 37  1  0
 17 38  1  0
 18 39  1  0
 18 40  1  0
 19 41  1  0
 19 42  1  0
 21 43  1  0
 21 44  1  0
 22 45  1  0
 22 46  1  0
M  CHG  1  17   1
M  END
>  <UniqueID>  (16) 
16

>  <SMILES>  (16) 
CCn1nc(-c2ccccc2)cc1SCC[NH+]1CCOCC1

>  <Energy>  (16) 
84.64138645161312

>  <Genealogy>  (16) 
CCn1nc(-c2ccccc2)cc1SCC[NH+]1CCOCC1 (protonated)
CCn1nc(-c2ccccc2)cc1SCC[NH+]1CCOCC1 (3D coordinates assigned)
CCn1nc(-c2ccccc2)cc1SCC[NH+]1CCOCC1 (nonaromatic ring conformer: 84.64138645161312 kcal/mol)

>  <smiles>  (16) 
CCn1nc(-c2ccccc2)cc1SCCN1CCOCC1

>  <score_type>  (16) 
oracle

>  <origin>  (16) 
adg

>  <m_score__min__energy>  (16) 
-7.6500000000000004

>  <m_primary>  (16) 
energy

$$$$
16:0
     RDKit          3D

 52 55  0  0  0  0  0  0  0  0999 V2000
   -9.4810   21.5600  -31.9410 C   0  0  0  0  0  0  0  0  0  0  0  0
   -8.3690   20.8770  -32.2490 C   0  0  0  0  0  0  0  0  0  0  0  0
   -7.1780   20.8360  -31.3340 C   0  0  0  0  0  0  0  0  0  0  0  0
   -5.9560   21.2790  -32.0180 N   0  0  0  0  0  0  0  0  0  0  0  0
   -5.5140   22.5570  -32.1800 C   0  0  0  0  0  0  0  0  0  0  0  0
   -6.5000   24.0140  -31.8350 S   0  0  0  0  0  0  0  0  0  0  0  0
   -5.9100   24.1200  -30.1060 C   0  0  0  0  0  0  0  0  0  0  0  0
   -4.4340   24.4150  -30.0690 C   0  0  0  0  0  0  0  0  0  0  0  0
   -3.9930   25.3220  -30.8300 O   0  0  0  0  0  0  0  0  0  0  0  0
   -3.5220   23.6890  -29.2100 N   0  0  0  0  0  0  0  0  0  0  0  0
   -3.9450   22.4390  -28.5520 C   0  0  0  0  0  0  0  0  0  0  0  0
   -2.7670   21.7160  -27.8890 C   0  0  0  0  0  0  0  0  0  0  0  0
   -1.6070   21.7420  -28.7860 N   0  0  0  0  0  0  0  0  0  0  0  0
   -0.9800   20.5190  -29.2230 C   0  0  0  0  0  0  0  0  0  0  0  0
   -0.6640   20.3270  -30.5800 C   0  0  0  0  0  0  0  0  0  0  0  0
   -0.0680   19.1340  -31.0060 C   0  0  0  0  0  0  0  0  0  0  0  0
    0.2110   18.1210  -30.0840 C   0  0  0  0  0  0  0  0  0  0  0  0
   -0.1080   18.2980  -28.7340 C   0  0  0  0  0  0  0  0  0  0  0  0
   -0.7040   19.4880  -28.3040 C   0  0  0  0  0  0  0  0  0  0  0  0
   -1.1560   23.0310  -29.3400 C   0  0  0  0  0  0  0  0  0  0  0  0
   -2.1410   24.1600  -29.0120 C   0  0  0  0  0  0  0  0  0  0  0  0
   -4.2620   22.6360  -32.7020 N   0  0  0  0  0  0  0  0  0  0  0  0
   -3.9280   21.3440  -32.8810 C   0  0  0  0  0  0  0  0  0  0  0  0
   -2.7360   20.8440  -33.4050 C   0  0  0  0  0  0  0  0  0  0  0  0
   -2.6040   19.4470  -33.5140 C   0  0  0  0  0  0  0  0  0  0  0  0
   -3.6450   18.5940  -33.0920 C   0  0  0  0  0  0  0  0  0  0  0  0
   -4.8330   19.1310  -32.5590 C   0  0  0  0  0  0  0  0  0  0  0  0
   -4.9390   20.5230  -32.4730 C   0  0  0  0  0  0  0  0  0  0  0  0
  -10.3330   21.5664  -32.6368 H   0  0  0  0  0  0  0  0  0  0  0  0
   -9.5413   22.1139  -30.9925 H   0  0  0  0  0  0  0  0  0  0  0  0
   -8.3274   20.3292  -33.2020 H   0  0  0  0  0  0  0  0  0  0  0  0
   -7.3653   21.4961  -30.4743 H   0  0  0  0  0  0  0  0  0  0  0  0
   -7.0314   19.7963  -31.0060 H   0  0  0  0  0  0  0  0  0  0  0  0
   -6.4528   24.9238  -29.5870 H   0  0  0  0  0  0  0  0  0  0  0  0
   -6.0925   23.1561  -29.6084 H   0  0  0  0  0  0  0  0  0  0  0  0
   -4.6943   22.6777  -27.7829 H   0  0  0  0  0  0  0  0  0  0  0  0
   -4.3647   21.7737  -29.3209 H   0  0  0  0  0  0  0  0  0  0  0  0
   -2.5117   22.2206  -26.9455 H   0  0  0  0  0  0  0  0  0  0  0  0
   -3.0472   20.6723  -27.6838 H   0  0  0  0  0  0  0  0  0  0  0  0
   -0.8864   21.1186  -31.3107 H   0  0  0  0  0  0  0  0  0  0  0  0
    0.1812   18.9935  -32.0682 H   0  0  0  0  0  0  0  0  0  0  0  0
    0.6812   17.1851  -30.4202 H   0  0  0  0  0  0  0  0  0  0  0  0
    0.1102   17.5000  -28.0090 H   0  0  0  0  0  0  0  0  0  0  0  0
   -0.9586   19.6194  -27.2420 H   0  0  0  0  0  0  0  0  0  0  0  0
   -0.1731   23.2791  -28.9131 H   0  0  0  0  0  0  0  0  0  0  0  0
   -1.0949   22.9337  -30.4340 H   0  0  0  0  0  0  0  0  0  0  0  0
   -2.0070   24.4690  -27.9648 H   0  0  0  0  0  0  0  0  0  0  0  0
   -1.9493   25.0146  -29.6776 H   0  0  0  0  0  0  0  0  0  0  0  0
   -1.9269   21.5183  -33.7222 H   0  0  0  0  0  0  0  0  0  0  0  0
   -1.6817   19.0170  -33.9316 H   0  0  0  0  0  0  0  0  0  0  0  0
   -3.5285   17.5037  -33.1796 H   0  0  0  0  0  0  0  0  0  0  0  0
   -5.6506   18.4771  -32.2214 H   0  0  0  0  0  0  0  0  0  0  0  0
  1  2  2  0
  2  3  1  0
  3  4  1  0
  4  5  1  0
  5  6  1  0
  6  7  1  0
  7  8  1  0
  8  9  2  0
  8 10  1  0
 10 11  1  0
 11 12  1  0
 12 13  1  0
 13 14  1  0
 14 15  2  0
 15 16  1  0
 16 17  2  0
 17 18  1  0
 18 19  2  0
 13 20  1  0
 20 21  1  0
  5 22  2  0
 22 23  1  0
 23 24  2  0
 24 25  1  0
 25 26  2  0
 26 27  1  0
 27 28  2  0
 28  4  1  0
 21 10  1  0
 28 23  1  0
 19 14  1  0
  1 29  1  0
  1 30  1  0
  2 31  1  0
  3 32  1  0
  3 33  1  0
  7 34  1  0
  7 35  1  0
 11 36  1  0
 11 37  1  0
 12 38  1  0
 12 39  1  0
 15 40  1  0
 16 41  1  0
 17 42  1  0
 18 43  1  0
 19 44  1  0
 20 45  1  0
 20 46  1  0
 21 47  1  0
 21 48  1  0
 24 49  1  0
 25 50  1  0
 26 51  1  0
 27 52  1  0
M  END
>  <UniqueID>  (17) 
17

>  <SMILES>  (17) 
C=CCn1c(SCC(=O)N2CCN(c3ccccc3)CC2)nc2ccccc21

>  <Energy>  (17) 
91.19290944780612

>  <Genealogy>  (17) 
C=CCn1c(SCC(=O)N2CCN(c3ccccc3)CC2)nc2ccccc21 (3D coordinates assigned)
C=CCn1c(SCC(=O)N2CCN(c3ccccc3)CC2)nc2ccccc21 (nonaromatic ring conformer: 91.19290944780612 kcal/mol)

>  <smiles>  (17) 
C=CCn1c(SCC(=O)N2CCN(c3ccccc3)CC2)nc2ccccc21

>  <score_type>  (17) 
oracle

>  <origin>  (17) 
adg

>  <m_score__min__energy>  (17) 
-9.3100000000000005

>  <m_primary>  (17) 
energy

$$$$
17:0
     RDKit          3D

 54 56  0  0  0  0  0  0  0  0999 V2000
   -1.0820   26.1640  -26.6570 C   0  0  0  0  0  0  0  0  0  0  0  0
   -1.1940   25.8430  -28.1550 C   0  0  0  0  0  0  0  0  0  0  0  0
   -2.3350   24.9630  -28.4980 N   0  0  0  0  0  0  0  0  0  0  0  0
   -3.0740   24.5240  -27.2990 C   0  0  0  0  0  0  0  0  0  0  0  0
   -1.9340   23.8300  -29.3620 C   0  0  0  0  0  0  0  0  0  0  0  0
   -3.0790   23.4040  -30.2850 C   0  0  0  0  0  0  0  0  0  0  0  0
   -3.8780   24.5240  -30.6030 O   0  0  0  0  0  0  0  0  0  0  0  0
   -5.0740   24.4840  -29.8550 C   0  0  0  0  0  0  0  0  0  0  0  0
   -6.0700   23.5440  -30.5620 C   0  0  0  0  0  0  0  0  0  0  0  0
   -5.7610   23.2120  -31.9820 N   0  0  0  0  0  0  0  0  0  0  0  0
   -5.8620   21.8080  -32.3550 C   0  0  0  0  0  0  0  0  0  0  0  0
   -4.6860   21.1090  -32.7420 C   0  0  0  0  0  0  0  0  0  0  0  0
   -3.4800   21.7910  -33.0440 C   0  0  0  0  0  0  0  0  0  0  0  0
   -2.3490   21.1020  -33.4710 C   0  0  0  0  0  0  0  0  0  0  0  0
   -2.3890   19.7220  -33.6160 C   0  0  0  0  0  0  0  0  0  0  0  0
   -3.5510   19.0240  -33.3040 C   0  0  0  0  0  0  0  0  0  0  0  0
   -4.7060   19.6940  -32.8280 C   0  0  0  0  0  0  0  0  0  0  0  0
   -5.8290   19.0000  -32.4430 N   0  0  0  0  0  0  0  0  0  0  0  0
   -5.7300   17.5500  -32.1520 C   0  0  0  0  0  0  0  0  0  0  0  0
   -7.0380   19.6520  -32.3150 C   0  0  0  0  0  0  0  0  0  0  0  0
   -8.2430   18.9110  -32.2410 C   0  0  0  0  0  0  0  0  0  0  0  0
   -9.4670   19.5340  -32.0720 C   0  0  0  0  0  0  0  0  0  0  0  0
   -9.5400   20.9110  -32.0170 C   0  0  0  0  0  0  0  0  0  0  0  0
   -8.3940   21.6990  -32.1400 C   0  0  0  0  0  0  0  0  0  0  0  0
   -8.7630   23.4210  -32.2550 Cl  0  0  0  0  0  0  0  0  0  0  0  0
   -7.0980   21.0850  -32.2690 C   0  0  0  0  0  0  0  0  0  0  0  0
   -1.3884   25.2857  -26.0699 H   0  0  0  0  0  0  0  0  0  0  0  0
   -0.0407   26.4222  -26.4142 H   0  0  0  0  0  0  0  0  0  0  0  0
   -1.7367   27.0140  -26.4142 H   0  0  0  0  0  0  0  0  0  0  0  0
   -1.3095   26.7892  -28.7040 H   0  0  0  0  0  0  0  0  0  0  0  0
   -0.2784   25.3010  -28.4341 H   0  0  0  0  0  0  0  0  0  0  0  0
   -2.5330   24.8454  -26.3967 H   0  0  0  0  0  0  0  0  0  0  0  0
   -4.0787   24.9718  -27.3031 H   0  0  0  0  0  0  0  0  0  0  0  0
   -3.1613   23.4275  -27.3031 H   0  0  0  0  0  0  0  0  0  0  0  0
   -1.0730   24.1340  -29.9754 H   0  0  0  0  0  0  0  0  0  0  0  0
   -1.6706   22.9778  -28.7183 H   0  0  0  0  0  0  0  0  0  0  0  0
   -2.6633   22.9774  -31.2098 H   0  0  0  0  0  0  0  0  0  0  0  0
   -3.6963   22.6503  -29.7743 H   0  0  0  0  0  0  0  0  0  0  0  0
   -4.8648   24.1074  -28.8429 H   0  0  0  0  0  0  0  0  0  0  0  0
   -5.5022   25.4945  -29.7799 H   0  0  0  0  0  0  0  0  0  0  0  0
   -6.1031   22.6015  -29.9957 H   0  0  0  0  0  0  0  0  0  0  0  0
   -7.0253   24.0888  -30.5863 H   0  0  0  0  0  0  0  0  0  0  0  0
   -4.8370   23.5990  -32.2660 H   0  0  0  0  0  0  0  0  0  0  0  0
   -6.3980   23.7670  -32.5970 H   0  0  0  0  0  0  0  0  0  0  0  0
   -3.4378   22.8851  -32.9387 H   0  0  0  0  0  0  0  0  0  0  0  0
   -1.4224   21.6513  -33.6939 H   0  0  0  0  0  0  0  0  0  0  0  0
   -1.5022   19.1807  -33.9775 H   0  0  0  0  0  0  0  0  0  0  0  0
   -3.5741   17.9314  -33.4290 H   0  0  0  0  0  0  0  0  0  0  0  0
   -5.7194   17.3944  -31.0631 H   0  0  0  0  0  0  0  0  0  0  0  0
   -6.5946   17.0286  -32.5885 H   0  0  0  0  0  0  0  0  0  0  0  0
   -4.8025   17.1509  -32.5885 H   0  0  0  0  0  0  0  0  0  0  0  0
   -8.2048   17.8145  -32.3197 H   0  0  0  0  0  0  0  0  0  0  0  0
  -10.3826   18.9311  -31.9814 H   0  0  0  0  0  0  0  0  0  0  0  0
  -10.5170   21.3957  -31.8739 H   0  0  0  0  0  0  0  0  0  0  0  0
  1  2  1  0
  2  3  1  0
  3  4  1  0
  3  5  1  0
  5  6  1  0
  6  7  1  0
  7  8  1  0
  8  9  1  0
  9 10  1  0
 10 11  1  0
 11 12  2  0
 12 13  1  0
 13 14  2  0
 14 15  1  0
 15 16  2  0
 16 17  1  0
 17 18  2  0
 18 19  1  0
 18 20  1  0
 20 21  2  0
 21 22  1  0
 22 23  2  0
 23 24  1  0
 24 25  1  0
 24 26  2  0
 26 11  1  0
 17 12  1  0
 26 20  1  0
  1 27  1  0
  1 28  1  0
  1 29  1  0
  2 30  1  0
  2 31  1  0
  4 32  1  0
  4 33  1  0
  4 34  1  0
  5 35  1  0
  5 36  1  0
  6 37  1  0
  6 38  1  0
  8 39  1  0
  8 40  1  0
  9 41  1  0
  9 42  1  0
 10 43  1  0
 10 44  1  0
 13 45  1  0
 14 46  1  0
 15 47  1  0
 16 48  1  0
 19 49  1  0
 19 50  1  0
 19 51  1  0
 21 52  1  0
 22 53  1  0
 23 54  1  0
M  CHG  2  10   1  18   1
M  END
>  <UniqueID>  (18) 
18

>  <SMILES>  (18) 
CCN(C)CCOCC[NH2+]c1c2ccccc2[n+](C)c2cccc(Cl)c12

>  <Energy>  (18) 
100.60503039291059

>  <Genealogy>  (18) 
CCN(C)CCOCC[NH2+]c1c2ccccc2[n+](C)c2cccc(Cl)c12 (protonated)
CCN(C)CCOCC[NH2+]c1c2ccccc2[n+](C)c2cccc(Cl)c12 (3D coordinates assigned)
CCN(C)CCOCC[NH2+]c1c2ccccc2[n+](C)c2cccc(Cl)c12 (optimized conformer: 100.60503039291059 kcal/mol)

>  <smiles>  (18) 
CCN(C)CCOCCNc1c2ccccc2[n+](C)c2cccc(Cl)c12

>  <score_type>  (18) 
oracle

>  <origin>  (18) 
adg

>  <m_score__min__energy>  (18) 
-7.3700000000000001

>  <m_primary>  (18) 
energy

$$$$
18:0
     RDKit          3D

 28 27  0  0  0  0  0  0  0  0999 V2000
   -8.9790   22.0760  -31.6780 C   0  0  0  0  0  0  0  0  0  0  0  0
   -7.9680   23.2040  -31.9520 C   0  0  0  0  0  0  0  0  0  0  0  0
   -6.6160   22.7510  -32.3870 N   0  0  0  0  0  0  0  0  0  0  0  0
   -6.5940   21.2850  -32.6410 C   0  0  0  0  0  0  0  0  0  0  0  0
   -5.2080   20.7800  -33.0600 C   0  0  0  0  0  0  0  0  0  0  0  0
   -5.5420   23.1580  -31.4370 C   0  0  0  0  0  0  0  0  0  0  0  0
   -6.0480   24.1050  -30.3190 C   0  0  0  0  0  0  0  0  0  0  0  0
   -5.0850   25.2680  -30.0170 C   0  0  0  0  0  0  0  0  0  0  0  0
   -3.8830   25.2320  -30.8480 N   0  0  0  0  0  0  0  0  0  0  0  0
   -9.0966   21.9448  -30.5922 H   0  0  0  0  0  0  0  0  0  0  0  0
   -9.9502   22.3380  -32.1230 H   0  0  0  0  0  0  0  0  0  0  0  0
   -8.6126   21.1391  -32.1230 H   0  0  0  0  0  0  0  0  0  0  0  0
   -8.3819   23.8479  -32.7420 H   0  0  0  0  0  0  0  0  0  0  0  0
   -7.8227   23.7239  -30.9936 H   0  0  0  0  0  0  0  0  0  0  0  0
   -6.4410   23.2310  -33.3010 H   0  0  0  0  0  0  0  0  0  0  0  0
   -6.8957   20.7634  -31.7207 H   0  0  0  0  0  0  0  0  0  0  0  0
   -7.2879   21.0799  -33.4695 H   0  0  0  0  0  0  0  0  0  0  0  0
   -4.6104   20.5622  -32.1626 H   0  0  0  0  0  0  0  0  0  0  0  0
   -5.3172   19.8639  -33.6590 H   0  0  0  0  0  0  0  0  0  0  0  0
   -4.7022   21.5516  -33.6590 H   0  0  0  0  0  0  0  0  0  0  0  0
   -5.1272   22.2533  -30.9687 H   0  0  0  0  0  0  0  0  0  0  0  0
   -4.7833   23.7069  -32.0142 H   0  0  0  0  0  0  0  0  0  0  0  0
   -7.0154   24.5259  -30.6305 H   0  0  0  0  0  0  0  0  0  0  0  0
   -6.1303   23.5060  -29.4001 H   0  0  0  0  0  0  0  0  0  0  0  0
   -5.6107   26.2170  -30.1986 H   0  0  0  0  0  0  0  0  0  0  0  0
   -4.7679   25.1745  -28.9678 H   0  0  0  0  0  0  0  0  0  0  0  0
   -3.0890   25.6710  -30.3270 H   0  0  0  0  0  0  0  0  0  0  0  0
   -4.0510   25.7860  -31.7170 H   0  0  0  0  0  0  0  0  0  0  0  0
  1  2  1  0
  2  3  1  0
  3  4  1  0
  4  5  1  0
  3  6  1  0
  6  7  1  0
  7  8  1  0
  8  9  1  0
  1 10  1  0
  1 11  1  0
  1 12  1  0
  2 13  1  0
  2 14  1  0
  3 15  1  0
  4 16  1  0
  4 17  1  0
  5 18  1  0
  5 19  1  0
  5 20  1  0
  6 21  1  0
  6 22  1  0
  7 23  1  0
  7 24  1  0
  8 25  1  0
  8 26  1  0
  9 27  1  0
  9 28  1  0
M  CHG  1   3   1
M  END
>  <UniqueID>  (19) 
19

>  <SMILES>  (19) 
CC[NH+](CC)CCCN

>  <Energy>  (19) 
26.01134679800186

>  <Genealogy>  (19) 
CC[NH+](CC)CCCN (protonated)
CC[NH+](CC)CCCN (3D coordinates assigned)
CC[NH+](CC)CCCN (optimized conformer: 26.01134679800186 kcal/mol)

>  <smiles>  (19) 
CCN(CC)CCCN

>  <score_type>  (19) 
oracle

>  <origin>  (19) 
adg

>  <m_score__min__energy>  (19) 
-4.0099999999999998

>  <m_primary>  (19) 
energy

$$$$
19:0
     RDKit          3D

 49 51  0  0  0  0  0  0  0  0999 V2000
   -8.2420   18.0150  -32.3190 C   0  0  0  0  0  0  0  0  0  0  0  0
   -7.2760   17.1870  -33.1660 C   0  0  0  0  0  0  0  0  0  0  0  0
   -5.9050   17.2160  -32.6060 N   0  0  0  0  0  0  0  0  0  0  0  0
   -5.9140   17.7610  -31.2340 C   0  0  0  0  0  0  0  0  0  0  0  0
   -5.3050   15.8610  -32.6200 C   0  0  0  0  0  0  0  0  0  0  0  0
   -4.4810   15.6130  -33.8980 C   0  0  0  0  0  0  0  0  0  0  0  0
   -3.4810   16.7410  -34.2340 C   0  0  0  0  0  0  0  0  0  0  0  0
   -4.1250   17.9990  -34.6580 N   0  0  0  0  0  0  0  0  0  0  0  0
   -3.6760   19.1290  -33.8730 C   0  0  0  0  0  0  0  0  0  0  0  0
   -2.3050   19.3150  -33.6410 C   0  0  0  0  0  0  0  0  0  0  0  0
   -1.8550   20.3880  -32.8780 C   0  0  0  0  0  0  0  0  0  0  0  0
   -2.7600   21.2980  -32.3320 C   0  0  0  0  0  0  0  0  0  0  0  0
   -4.1510   21.1530  -32.5430 C   0  0  0  0  0  0  0  0  0  0  0  0
   -4.5980   20.0530  -33.3290 C   0  0  0  0  0  0  0  0  0  0  0  0
   -5.9270   19.8870  -33.5650 N   0  0  0  0  0  0  0  0  0  0  0  0
   -6.8660   20.7280  -33.0750 C   0  0  0  0  0  0  0  0  0  0  0  0
   -6.4940   21.8230  -32.2930 C   0  0  0  0  0  0  0  0  0  0  0  0
   -7.4790   22.6790  -31.7840 C   0  0  0  0  0  0  0  0  0  0  0  0
   -7.1260   23.7750  -31.0020 C   0  0  0  0  0  0  0  0  0  0  0  0
   -5.7790   24.0470  -30.7270 C   0  0  0  0  0  0  0  0  0  0  0  0
   -5.3970   25.2070  -29.8400 C   0  0  0  0  0  0  0  0  0  0  0  0
   -6.4970   26.0130  -29.5980 F   0  0  0  0  0  0  0  0  0  0  0  0
   -4.9150   24.7620  -28.6200 F   0  0  0  0  0  0  0  0  0  0  0  0
   -4.4160   25.9550  -30.4640 F   0  0  0  0  0  0  0  0  0  0  0  0
   -4.7880   23.1740  -31.2120 C   0  0  0  0  0  0  0  0  0  0  0  0
   -5.1220   22.0540  -32.0120 C   0  0  0  0  0  0  0  0  0  0  0  0
   -8.0374   17.8396  -31.2525 H   0  0  0  0  0  0  0  0  0  0  0  0
   -8.1074   19.0826  -32.5475 H   0  0  0  0  0  0  0  0  0  0  0  0
   -9.2764   17.7187  -32.5475 H   0  0  0  0  0  0  0  0  0  0  0  0
   -7.6285   16.1454  -33.1957 H   0  0  0  0  0  0  0  0  0  0  0  0
   -7.2459   17.6179  -34.1776 H   0  0  0  0  0  0  0  0  0  0  0  0
   -5.9003   16.9327  -30.5103 H   0  0  0  0  0  0  0  0  0  0  0  0
   -5.0262   18.3930  -31.0847 H   0  0  0  0  0  0  0  0  0  0  0  0
   -6.8222   18.3634  -31.0847 H   0  0  0  0  0  0  0  0  0  0  0  0
   -4.6464   15.7542  -31.7455 H   0  0  0  0  0  0  0  0  0  0  0  0
   -6.1221   15.1251  -32.5920 H   0  0  0  0  0  0  0  0  0  0  0  0
   -3.9160   14.6781  -33.7684 H   0  0  0  0  0  0  0  0  0  0  0  0
   -5.1967   15.5656  -34.7319 H   0  0  0  0  0  0  0  0  0  0  0  0
   -2.8751   16.9457  -33.3390 H   0  0  0  0  0  0  0  0  0  0  0  0
   -2.8737   16.3898  -35.0813 H   0  0  0  0  0  0  0  0  0  0  0  0
   -3.9630   18.1640  -35.6780 H   0  0  0  0  0  0  0  0  0  0  0  0
   -5.1590   17.8960  -34.5460 H   0  0  0  0  0  0  0  0  0  0  0  0
   -1.5792   18.6062  -34.0661 H   0  0  0  0  0  0  0  0  0  0  0  0
   -0.7769   20.5196  -32.7040 H   0  0  0  0  0  0  0  0  0  0  0  0
   -2.3871   22.1394  -31.7295 H   0  0  0  0  0  0  0  0  0  0  0  0
   -7.9289   20.5482  -33.2939 H   0  0  0  0  0  0  0  0  0  0  0  0
   -8.5390   22.4837  -32.0038 H   0  0  0  0  0  0  0  0  0  0  0  0
   -7.9097   24.4322  -30.5971 H   0  0  0  0  0  0  0  0  0  0  0  0
   -3.7332   23.3650  -30.9651 H   0  0  0  0  0  0  0  0  0  0  0  0
  1  2  1  0
  2  3  1  0
  3  4  1  0
  3  5  1  0
  5  6  1  0
  6  7  1  0
  7  8  1  0
  8  9  1  0
  9 10  2  0
 10 11  1  0
 11 12  2  0
 12 13  1  0
 13 14  2  0
 14 15  1  0
 15 16  2  0
 16 17  1  0
 17 18  2  0
 18 19  1  0
 19 20  2  0
 20 21  1  0
 21 22  1  0
 21 23  1  0
 21 24  1  0
 20 25  1  0
 25 26  2  0
 14  9  1  0
 26 17  1  0
 26 13  1  0
  1 27  1  0
  1 28  1  0
  1 29  1  0
  2 30  1  0
  2 31  1  0
  4 32  1  0
  4 33  1  0
  4 34  1  0
  5 35  1  0
  5 36  1  0
  6 37  1  0
  6 38  1  0
  7 39  1  0
  7 40  1  0
  8 41  1  0
  8 42  1  0
 10 43  1  0
 11 44  1  0
 12 45  1  0
 16 46  1  0
 18 47  1  0
 19 48  1  0
 25 49  1  0
M  CHG  1   8   1
M  END
>  <UniqueID>  (20) 
20

>  <SMILES>  (20) 
CCN(C)CCC[NH2+]c1cccc2c1ncc1ccc(C(F)(F)F)cc12

>  <Energy>  (20) 
62.938529882292286

>  <Genealogy>  (20) 
CCN(C)CCC[NH2+]c1cccc2c1ncc1ccc(C(F)(F)F)cc12 (protonated)
CCN(C)CCC[NH2+]c1cccc2c1ncc1ccc(C(F)(F)F)cc12 (3D coordinates assigned)
CCN(C)CCC[NH2+]c1cccc2c1ncc1ccc(C(F)(F)F)cc12 (optimized conformer: 62.938529882292286 kcal/mol)

>  <smiles>  (20) 
CCN(C)CCCNc1cccc2c1ncc1ccc(C(F)(F)F)cc12

>  <score_type>  (20) 
oracle

>  <origin>  (20) 
adg

>  <m_score__min__energy>  (20) 
-7.6200000000000001

>  <m_primary>  (20) 
energy

$$$$
20:0
     RDKit          3D

 45 47  0  0  0  0  0  0  0  0999 V2000
   -2.7610   20.9100  -27.8260 C   0  0  0  0  0  0  0  0  0  0  0  0
   -3.3410   21.9360  -28.8070 C   0  0  0  0  0  0  0  0  0  0  0  0
   -2.4600   22.1470  -29.9860 N   0  0  0  0  0  0  0  0  0  0  0  0
   -1.1920   22.8340  -29.6270 C   0  0  0  0  0  0  0  0  0  0  0  0
   -1.3670   24.1760  -28.9090 C   0  0  0  0  0  0  0  0  0  0  0  0
   -2.2590   20.9560  -30.8630 C   0  0  0  0  0  0  0  0  0  0  0  0
   -2.6380   21.1380  -32.3500 C   0  0  0  0  0  0  0  0  0  0  0  0
   -3.4280   22.3160  -32.5170 O   0  0  0  0  0  0  0  0  0  0  0  0
   -4.7570   22.4380  -32.0870 C   0  0  0  0  0  0  0  0  0  0  0  0
   -5.1140   23.5190  -31.2880 C   0  0  0  0  0  0  0  0  0  0  0  0
   -4.3390   24.4840  -30.8550 O   0  0  0  0  0  0  0  0  0  0  0  0
   -5.0850   25.3090  -30.1430 C   0  0  0  0  0  0  0  0  0  0  0  0
   -6.4020   24.8650  -30.1110 C   0  0  0  0  0  0  0  0  0  0  0  0
   -6.3960   23.7090  -30.8570 C   0  0  0  0  0  0  0  0  0  0  0  0
   -7.4260   22.8350  -31.1810 C   0  0  0  0  0  0  0  0  0  0  0  0
   -7.1140   21.7010  -31.9720 C   0  0  0  0  0  0  0  0  0  0  0  0
   -8.0870   20.7430  -32.3330 C   0  0  0  0  0  0  0  0  0  0  0  0
   -9.5300   20.8770  -31.9240 C   0  0  0  0  0  0  0  0  0  0  0  0
   -7.6890   19.6320  -33.0880 C   0  0  0  0  0  0  0  0  0  0  0  0
   -6.3510   19.4950  -33.4600 C   0  0  0  0  0  0  0  0  0  0  0  0
   -5.9870   18.4950  -34.1330 O   0  0  0  0  0  0  0  0  0  0  0  0
   -5.4570   20.4130  -33.1150 O   0  0  0  0  0  0  0  0  0  0  0  0
   -5.7660   21.4980  -32.4140 C   0  0  0  0  0  0  0  0  0  0  0  0
   -2.9488   21.2422  -26.7943 H   0  0  0  0  0  0  0  0  0  0  0  0
   -3.2409   19.9339  -27.9900 H   0  0  0  0  0  0  0  0  0  0  0  0
   -1.6772   20.8179  -27.9900 H   0  0  0  0  0  0  0  0  0  0  0  0
   -4.3205   21.5775  -29.1564 H   0  0  0  0  0  0  0  0  0  0  0  0
   -3.4314   22.8958  -28.2772 H   0  0  0  0  0  0  0  0  0  0  0  0
   -2.9540   22.8510  -30.5870 H   0  0  0  0  0  0  0  0  0  0  0  0
   -0.6162   22.1667  -28.9688 H   0  0  0  0  0  0  0  0  0  0  0  0
   -0.6816   23.0558  -30.5759 H   0  0  0  0  0  0  0  0  0  0  0  0
   -1.3460   24.0152  -27.8210 H   0  0  0  0  0  0  0  0  0  0  0  0
   -0.5497   24.8543  -29.1952 H   0  0  0  0  0  0  0  0  0  0  0  0
   -2.3309   24.6220  -29.1952 H   0  0  0  0  0  0  0  0  0  0  0  0
   -1.1949   20.6808  -30.8182 H   0  0  0  0  0  0  0  0  0  0  0  0
   -2.9403   20.1841  -30.4757 H   0  0  0  0  0  0  0  0  0  0  0  0
   -1.7207   21.2275  -32.9504 H   0  0  0  0  0  0  0  0  0  0  0  0
   -3.2201   20.2655  -32.6814 H   0  0  0  0  0  0  0  0  0  0  0  0
   -4.7166   26.2184  -29.6458 H   0  0  0  0  0  0  0  0  0  0  0  0
   -7.2578   25.3333  -29.6027 H   0  0  0  0  0  0  0  0  0  0  0  0
   -8.4537   23.0177  -30.8338 H   0  0  0  0  0  0  0  0  0  0  0  0
   -9.6009   20.8836  -30.8263 H   0  0  0  0  0  0  0  0  0  0  0  0
   -9.9386   21.8170  -32.3235 H   0  0  0  0  0  0  0  0  0  0  0  0
  -10.1047   20.0284  -32.3235 H   0  0  0  0  0  0  0  0  0  0  0  0
   -8.4267   18.8723  -33.3858 H   0  0  0  0  0  0  0  0  0  0  0  0
  1  2  1  0
  2  3  1  0
  3  4  1  0
  4  5  1  0
  3  6  1  0
  6  7  1  0
  7  8  1  0
  8  9  1  0
  9 10  2  0
 10 11  1  0
 11 12  1  0
 12 13  2  0
 13 14  1  0
 14 15  2  0
 15 16  1  0
 16 17  1  0
 17 18  1  0
 17 19  2  0
 19 20  1  0
 20 21  2  0
 20 22  1  0
 22 23  1  0
 23  9  1  0
 14 10  1  0
 23 16  2  0
  1 24  1  0
  1 25  1  0
  1 26  1  0
  2 27  1  0
  2 28  1  0
  3 29  1  0
  4 30  1  0
  4 31  1  0
  5 32  1  0
  5 33  1  0
  5 34  1  0
  6 35  1  0
  6 36  1  0
  7 37  1  0
  7 38  1  0
 12 39  1  0
 13 40  1  0
 15 41  1  0
 18 42  1  0
 18 43  1  0
 18 44  1  0
 19 45  1  0
M  CHG  1   3   1
M  END
>  <UniqueID>  (21) 
21

>  <SMILES>  (21) 
CC[NH+](CC)CCOc1c2occc2cc2c(C)cc(=O)oc12

>  <Energy>  (21) 
95.08622917536569

>  <Genealogy>  (21) 
CC[NH+](CC)CCOc1c2occc2cc2c(C)cc(=O)oc12 (protonated)
CC[NH+](CC)CCOc1c2occc2cc2c(C)cc(=O)oc12 (3D coordinates assigned)
CC[NH+](CC)CCOc1c2occc2cc2c(C)cc(=O)oc12 (optimized conformer: 95.08622917536569 kcal/mol)

>  <smiles>  (21) 
CCN(CC)CCOc1c2occc2cc2c(C)cc(=O)oc12

>  <score_type>  (21) 
oracle

>  <origin>  (21) 
adg

>  <m_score__min__energy>  (21) 
-6.4299999999999997

>  <m_primary>  (21) 
energy

$$$$
21:0
     RDKit          3D

 46 49  0  0  0  0  0  0  0  0999 V2000
    0.8460   19.2700  -31.3250 C   0  0  0  0  0  0  0  0  0  0  0  0
   -0.2480   19.5570  -32.2410 N   0  0  0  0  0  0  0  0  0  0  0  0
   -1.3400   18.7930  -32.4240 C   0  0  0  0  0  0  0  0  0  0  0  0
   -2.1730   19.4470  -33.3110 C   0  0  0  0  0  0  0  0  0  0  0  0
   -3.4990   19.0040  -33.7970 C   0  0  0  0  0  0  0  0  0  0  0  0
   -3.6420   17.8320  -34.5760 C   0  0  0  0  0  0  0  0  0  0  0  0
   -2.5600   17.0870  -34.9200 F   0  0  0  0  0  0  0  0  0  0  0  0
   -4.9170   17.4410  -35.0410 C   0  0  0  0  0  0  0  0  0  0  0  0
   -6.0250   18.1820  -34.7400 N   0  0  0  0  0  0  0  0  0  0  0  0
   -5.8860   19.3020  -33.9890 C   0  0  0  0  0  0  0  0  0  0  0  0
   -6.8810   20.1070  -33.5850 N   0  0  0  0  0  0  0  0  0  0  0  0
   -6.2870   21.0590  -32.8270 C   0  0  0  0  0  0  0  0  0  0  0  0
   -7.0440   22.1780  -32.1550 C   0  0  0  0  0  0  0  0  0  0  0  0
   -7.3300   21.8660  -30.6640 C   0  0  0  0  0  0  0  0  0  0  0  0
   -6.4120   22.6640  -29.7300 C   0  0  0  0  0  0  0  0  0  0  0  0
   -6.5830   24.1250  -29.9070 N   0  0  0  0  0  0  0  0  0  0  0  0
   -5.4650   24.8530  -29.2730 C   0  0  0  0  0  0  0  0  0  0  0  0
   -4.2250   24.7310  -30.1030 C   0  0  0  0  0  0  0  0  0  0  0  0
   -3.8660   25.6820  -30.8470 O   0  0  0  0  0  0  0  0  0  0  0  0
   -3.4710   23.5660  -30.0640 O   0  0  0  0  0  0  0  0  0  0  0  0
   -6.7990   24.5500  -31.3190 C   0  0  0  0  0  0  0  0  0  0  0  0
   -6.3020   23.5180  -32.3400 C   0  0  0  0  0  0  0  0  0  0  0  0
   -4.9090   20.8500  -32.7560 C   0  0  0  0  0  0  0  0  0  0  0  0
   -4.6700   19.7210  -33.5170 C   0  0  0  0  0  0  0  0  0  0  0  0
   -1.5190   20.6290  -33.6130 C   0  0  0  0  0  0  0  0  0  0  0  0
   -0.3500   20.6740  -32.9450 N   0  0  0  0  0  0  0  0  0  0  0  0
    0.4903   19.3633  -30.2883 H   0  0  0  0  0  0  0  0  0  0  0  0
    1.2094   18.2461  -31.4972 H   0  0  0  0  0  0  0  0  0  0  0  0
    1.6652   19.9836  -31.4972 H   0  0  0  0  0  0  0  0  0  0  0  0
   -1.5352   17.8193  -31.9508 H   0  0  0  0  0  0  0  0  0  0  0  0
   -5.0191   16.5315  -35.6512 H   0  0  0  0  0  0  0  0  0  0  0  0
   -6.9660   17.8840  -35.0810 H   0  0  0  0  0  0  0  0  0  0  0  0
   -7.8980   20.0090  -33.7980 H   0  0  0  0  0  0  0  0  0  0  0  0
   -8.0256   22.2695  -32.6429 H   0  0  0  0  0  0  0  0  0  0  0  0
   -8.3759   22.1230  -30.4405 H   0  0  0  0  0  0  0  0  0  0  0  0
   -7.1420   20.7953  -30.4961 H   0  0  0  0  0  0  0  0  0  0  0  0
   -6.6487   22.4014  -28.6884 H   0  0  0  0  0  0  0  0  0  0  0  0
   -5.3703   22.4095  -29.9749 H   0  0  0  0  0  0  0  0  0  0  0  0
   -5.7330   25.9154  -29.1759 H   0  0  0  0  0  0  0  0  0  0  0  0
   -5.2740   24.4190  -28.2804 H   0  0  0  0  0  0  0  0  0  0  0  0
   -7.8762   24.7077  -31.4764 H   0  0  0  0  0  0  0  0  0  0  0  0
   -6.2208   25.4724  -31.4764 H   0  0  0  0  0  0  0  0  0  0  0  0
   -6.4853   23.8965  -33.3565 H   0  0  0  0  0  0  0  0  0  0  0  0
   -5.2252   23.3538  -32.1862 H   0  0  0  0  0  0  0  0  0  0  0  0
   -4.1700   21.4551  -32.2104 H   0  0  0  0  0  0  0  0  0  0  0  0
   -1.8947   21.4089  -34.2917 H   0  0  0  0  0  0  0  0  0  0  0  0
  1  2  1  0
  2  3  1  0
  3  4  2  0
  4  5  1  0
  5  6  2  0
  6  7  1  0
  6  8  1  0
  8  9  2  0
  9 10  1  0
 10 11  1  0
 11 12  1  0
 12 13  1  0
 13 14  1  0
 14 15  1  0
 15 16  1  0
 16 17  1  0
 17 18  1  0
 18 19  2  0
 18 20  1  0
 16 21  1  0
 21 22  1  0
 12 23  2  0
 23 24  1  0
  4 25  1  0
 25 26  2  0
 26  2  1  0
 24  5  1  0
 24 10  2  0
 22 13  1  0
  1 27  1  0
  1 28  1  0
  1 29  1  0
  3 30  1  0
  8 31  1  0
  9 32  1  0
 11 33  1  0
 13 34  1  0
 14 35  1  0
 14 36  1  0
 15 37  1  0
 15 38  1  0
 17 39  1  0
 17 40  1  0
 21 41  1  0
 21 42  1  0
 22 43  1  0
 22 44  1  0
 23 45  1  0
 25 46  1  0
M  CHG  2   9   1  20  -1
M  END
>  <UniqueID>  (22) 
22

>  <SMILES>  (22) 
Cn1cc(-c2c(F)c[nH+]c3[nH]c(C4CCN(CC(=O)[O-])CC4)cc23)cn1

>  <Energy>  (22) 
123.12585270062777

>  <Genealogy>  (22) 
Cn1cc(-c2c(F)c[nH+]c3[nH]c(C4CCN(CC(=O)[O-])CC4)cc23)cn1 (protonated)
Cn1cc(-c2c(F)c[nH+]c3[nH]c(C4CCN(CC(=O)[O-])CC4)cc23)cn1 (3D coordinates assigned)
Cn1cc(-c2c(F)c[nH+]c3[nH]c(C4CCN(CC(=O)[O-])CC4)cc23)cn1 (nonaromatic ring conformer: 123.12585270062777 kcal/mol)

>  <smiles>  (22) 
Cn1cc(-c2c(F)cnc3[nH]c(C4CCN(CC(=O)O)CC4)cc23)cn1

>  <score_type>  (22) 
oracle

>  <origin>  (22) 
adg

>  <m_score__min__energy>  (22) 
-9.6699999999999999

>  <m_primary>  (22) 
energy

$$$$
22:0
     RDKit          3D

 33 35  0  0  0  0  0  0  0  0999 V2000
   -6.8840   24.9840  -29.9250 C   0  0  0  0  0  0  0  0  0  0  0  0
   -6.2900   23.7190  -30.3630 N   0  0  0  0  0  0  0  0  0  0  0  0
   -4.9750   23.4360  -30.5680 C   0  0  0  0  0  0  0  0  0  0  0  0
   -3.8560   24.3520  -30.2910 C   0  0  0  0  0  0  0  0  0  0  0  0
   -3.8570   25.4930  -30.8280 O   0  0  0  0  0  0  0  0  0  0  0  0
   -2.7590   23.9560  -29.4540 N   0  0  0  0  0  0  0  0  0  0  0  0
   -1.8120   24.9050  -28.8930 C   0  0  0  0  0  0  0  0  0  0  0  0
   -0.6650   24.0650  -28.3430 C   0  0  0  0  0  0  0  0  0  0  0  0
   -1.1840   22.6320  -28.2780 C   0  0  0  0  0  0  0  0  0  0  0  0
   -2.3710   22.5740  -29.2300 C   0  0  0  0  0  0  0  0  0  0  0  0
   -4.8200   22.1640  -31.1120 C   0  0  0  0  0  0  0  0  0  0  0  0
   -6.0980   21.6610  -31.2160 C   0  0  0  0  0  0  0  0  0  0  0  0
   -6.5460   20.4310  -31.6950 C   0  0  0  0  0  0  0  0  0  0  0  0
   -7.9330   20.1920  -31.7000 C   0  0  0  0  0  0  0  0  0  0  0  0
   -8.6060   18.5260  -32.3460 Br  0  0  0  0  0  0  0  0  0  0  0  0
   -8.8290   21.1800  -31.2340 C   0  0  0  0  0  0  0  0  0  0  0  0
   -8.3470   22.4140  -30.7590 C   0  0  0  0  0  0  0  0  0  0  0  0
   -6.9650   22.6210  -30.7590 C   0  0  0  0  0  0  0  0  0  0  0  0
   -6.9009   25.0200  -28.8257 H   0  0  0  0  0  0  0  0  0  0  0  0
   -6.2857   25.8228  -30.3102 H   0  0  0  0  0  0  0  0  0  0  0  0
   -7.9116   25.0593  -30.3102 H   0  0  0  0  0  0  0  0  0  0  0  0
   -1.4468   25.5894  -29.6729 H   0  0  0  0  0  0  0  0  0  0  0  0
   -2.2733   25.5252  -28.1104 H   0  0  0  0  0  0  0  0  0  0  0  0
    0.2069   24.1254  -29.0109 H   0  0  0  0  0  0  0  0  0  0  0  0
   -0.3441   24.4217  -27.3531 H   0  0  0  0  0  0  0  0  0  0  0  0
   -0.4024   21.9272  -28.5978 H   0  0  0  0  0  0  0  0  0  0  0  0
   -1.4738   22.3537  -27.2540 H   0  0  0  0  0  0  0  0  0  0  0  0
   -2.0801   22.0982  -30.1781 H   0  0  0  0  0  0  0  0  0  0  0  0
   -3.1986   21.9809  -28.8136 H   0  0  0  0  0  0  0  0  0  0  0  0
   -3.8804   21.6681  -31.3970 H   0  0  0  0  0  0  0  0  0  0  0  0
   -5.8380   19.6712  -32.0576 H   0  0  0  0  0  0  0  0  0  0  0  0
   -9.9112   20.9833  -31.2425 H   0  0  0  0  0  0  0  0  0  0  0  0
   -9.0368   23.1915  -30.3989 H   0  0  0  0  0  0  0  0  0  0  0  0
  1  2  1  0
  2  3  1  0
  3  4  1  0
  4  5  2  0
  4  6  1  0
  6  7  1  0
  7  8  1  0
  8  9  1  0
  9 10  1  0
  3 11  2  0
 11 12  1  0
 12 13  2  0
 13 14  1  0
 14 15  1  0
 14 16  2  0
 16 17  1  0
 17 18  2  0
 18  2  1  0
 10  6  1  0
 18 12  1  0
  1 19  1  0
  1 20  1  0
  1 21  1  0
  7 22  1  0
  7 23  1  0
  8 24  1  0
  8 25  1  0
  9 26  1  0
  9 27  1  0
 10 28  1  0
 10 29  1  0
 11 30  1  0
 13 31  1  0
 16 32  1  0
 17 33  1  0
M  END
>  <UniqueID>  (23) 
23

>  <SMILES>  (23) 
Cn1c(C(=O)N2CCCC2)cc2cc(Br)ccc21

>  <Energy>  (23) 
72.00295387324229

>  <Genealogy>  (23) 
Cn1c(C(=O)N2CCCC2)cc2cc(Br)ccc21 (3D coordinates assigned)
Cn1c(C(=O)N2CCCC2)cc2cc(Br)ccc21 (nonaromatic ring conformer: 72.00295387324229 kcal/mol)

>  <smiles>  (23) 
Cn1c(C(=O)N2CCCC2)cc2cc(Br)ccc21

>  <score_type>  (23) 
oracle

>  <origin>  (23) 
adg

>  <m_score__min__energy>  (23) 
-7.7800000000000002

>  <m_primary>  (23) 
energy

$$$$
23:0
     RDKit          3D

 37 39  0  0  0  0  0  0  0  0999 V2000
   -2.0000   24.9790  -28.1090 C   0  0  0  0  0  0  0  0  0  0  0  0
   -2.6920   25.1530  -29.3430 O   0  0  0  0  0  0  0  0  0  0  0  0
   -3.2290   24.1050  -30.1030 C   0  0  0  0  0  0  0  0  0  0  0  0
   -2.4310   23.0260  -30.5780 C   0  0  0  0  0  0  0  0  0  0  0  0
   -3.0020   21.9880  -31.3360 C   0  0  0  0  0  0  0  0  0  0  0  0
   -4.3640   22.0580  -31.6080 C   0  0  0  0  0  0  0  0  0  0  0  0
   -5.2050   21.2090  -32.2930 C   0  0  0  0  0  0  0  0  0  0  0  0
   -5.0000   20.0040  -32.9470 C   0  0  0  0  0  0  0  0  0  0  0  0
   -6.1310   19.3940  -33.5370 C   0  0  0  0  0  0  0  0  0  0  0  0
   -6.0040   18.0750  -34.2740 C   0  0  0  0  0  0  0  0  0  0  0  0
   -6.6000   16.9250  -33.4530 C   0  0  0  0  0  0  0  0  0  0  0  0
   -4.5460   17.7900  -34.6490 C   0  0  0  0  0  0  0  0  0  0  0  0
   -7.3610   20.0090  -33.4350 N   0  0  0  0  0  0  0  0  0  0  0  0
   -7.5210   21.1730  -32.7930 N   0  0  0  0  0  0  0  0  0  0  0  0
   -6.4490   21.7740  -32.2260 C   0  0  0  0  0  0  0  0  0  0  0  0
   -6.4410   22.9390  -31.5420 N   0  0  0  0  0  0  0  0  0  0  0  0
   -7.5830   23.7910  -31.2180 C   0  0  0  0  0  0  0  0  0  0  0  0
   -5.1510   23.1000  -31.1560 C   0  0  0  0  0  0  0  0  0  0  0  0
   -4.6070   24.1380  -30.3970 C   0  0  0  0  0  0  0  0  0  0  0  0
   -2.6927   25.1532  -27.2724 H   0  0  0  0  0  0  0  0  0  0  0  0
   -1.6057   23.9537  -28.0511 H   0  0  0  0  0  0  0  0  0  0  0  0
   -1.1676   25.6958  -28.0511 H   0  0  0  0  0  0  0  0  0  0  0  0
   -1.3552   23.0039  -30.3495 H   0  0  0  0  0  0  0  0  0  0  0  0
   -2.3917   21.1489  -31.7014 H   0  0  0  0  0  0  0  0  0  0  0  0
   -4.0028   19.5433  -33.0044 H   0  0  0  0  0  0  0  0  0  0  0  0
   -6.5801   18.1544  -35.2077 H   0  0  0  0  0  0  0  0  0  0  0  0
   -6.4870   17.1430  -32.3808 H   0  0  0  0  0  0  0  0  0  0  0  0
   -7.6677   16.8168  -33.6947 H   0  0  0  0  0  0  0  0  0  0  0  0
   -6.0728   15.9903  -33.6947 H   0  0  0  0  0  0  0  0  0  0  0  0
   -3.9480   17.6731  -33.7332 H   0  0  0  0  0  0  0  0  0  0  0  0
   -4.4939   16.8647  -35.2415 H   0  0  0  0  0  0  0  0  0  0  0  0
   -4.1493   18.6276  -35.2415 H   0  0  0  0  0  0  0  0  0  0  0  0
   -8.2010   19.5650  -33.8660 H   0  0  0  0  0  0  0  0  0  0  0  0
   -7.6853   23.8673  -30.1254 H   0  0  0  0  0  0  0  0  0  0  0  0
   -7.4247   24.7934  -31.6423 H   0  0  0  0  0  0  0  0  0  0  0  0
   -8.4988   23.3537  -31.6423 H   0  0  0  0  0  0  0  0  0  0  0  0
   -5.2395   24.9627  -30.0367 H   0  0  0  0  0  0  0  0  0  0  0  0
  1  2  1  0
  2  3  1  0
  3  4  2  0
  4  5  1  0
  5  6  2  0
  6  7  1  0
  7  8  2  0
  8  9  1  0
  9 10  1  0
 10 11  1  0
 10 12  1  0
  9 13  2  0
 13 14  1  0
 14 15  2  0
 15 16  1  0
 16 17  1  0
 16 18  1  0
 18 19  2  0
 19  3  1  0
 18  6  1  0
 15  7  1  0
  1 20  1  0
  1 21  1  0
  1 22  1  0
  4 23  1  0
  5 24  1  0
  8 25  1  0
 10 26  1  0
 11 27  1  0
 11 28  1  0
 11 29  1  0
 12 30  1  0
 12 31  1  0
 12 32  1  0
 13 33  1  0
 17 34  1  0
 17 35  1  0
 17 36  1  0
 19 37  1  0
M  CHG  1  13   1
M  END
>  <UniqueID>  (24) 
24

>  <SMILES>  (24) 
COc1ccc2c3cc(C(C)C)[nH+]nc3n(C)c2c1

>  <Energy>  (24) 
77.83792942159657

>  <Genealogy>  (24) 
COc1ccc2c3cc(C(C)C)[nH+]nc3n(C)c2c1 (protonated)
COc1ccc2c3cc(C(C)C)[nH+]nc3n(C)c2c1 (3D coordinates assigned)
COc1ccc2c3cc(C(C)C)[nH+]nc3n(C)c2c1 (optimized conformer: 77.83792942159657 kcal/mol)

>  <smiles>  (24) 
COc1ccc2c3cc(C(C)C)nnc3n(C)c2c1

>  <score_type>  (24) 
oracle

>  <origin>  (24) 
adg

>  <m_score__min__energy>  (24) 
-7.5199999999999996

>  <m_primary>  (24) 
energy

$$$$
24:0
     RDKit          3D

 69 71  0  0  0  0  0  0  0  0999 V2000
   -3.0970   22.1040  -28.8380 C   0  0  0  0  0  0  0  0  0  0  0  0
   -4.2230   22.4370  -27.8520 C   0  0  0  0  0  0  0  0  0  0  0  0
   -4.6290   23.8720  -27.9290 N   0  0  1  0  0  0  0  0  0  0  0  0
   -4.0570   24.6270  -26.7940 C   0  0  0  0  0  0  0  0  0  0  0  0
   -4.1970   24.5090  -29.2010 C   0  0  0  0  0  0  0  0  0  0  0  0
   -5.3560   25.1810  -29.9650 C   0  0  0  0  0  0  0  0  0  0  0  0
   -6.5880   24.5350  -29.6970 O   0  0  0  0  0  0  0  0  0  0  0  0
   -7.2750   24.2130  -30.8940 C   0  0  0  0  0  0  0  0  0  0  0  0
   -6.3630   23.4070  -31.8220 C   0  0  0  0  0  0  0  0  0  0  0  0
   -5.7560   22.2950  -31.0940 N   0  0  0  0  0  0  0  0  0  0  0  0
   -5.4240   21.0640  -31.7570 C   0  0  0  0  0  0  0  0  0  0  0  0
   -6.4010   20.0690  -31.9270 C   0  0  0  0  0  0  0  0  0  0  0  0
   -7.7280   20.2820  -31.4960 C   0  0  0  0  0  0  0  0  0  0  0  0
   -8.7110   19.3230  -31.7190 C   0  0  0  0  0  0  0  0  0  0  0  0
   -8.3980   18.1450  -32.3880 C   0  0  0  0  0  0  0  0  0  0  0  0
   -7.0930   17.9110  -32.8210 C   0  0  0  0  0  0  0  0  0  0  0  0
   -6.0580   18.8510  -32.5720 C   0  0  0  0  0  0  0  0  0  0  0  0
   -4.7520   18.6160  -32.9610 N   0  0  0  0  0  0  0  0  0  0  0  0
   -4.3390   17.2520  -33.3710 C   0  0  0  0  0  0  0  0  0  0  0  0
   -3.8300   19.6460  -32.9440 C   0  0  0  0  0  0  0  0  0  0  0  0
   -2.5560   19.5170  -33.5550 C   0  0  0  0  0  0  0  0  0  0  0  0
   -1.5880   20.5210  -33.4510 C   0  0  0  0  0  0  0  0  0  0  0  0
   -0.3270   20.2920  -34.0220 O   0  0  0  0  0  0  0  0  0  0  0  0
   -0.0850   19.9450  -35.3890 C   0  0  0  0  0  0  0  0  0  0  0  0
    0.2520   21.1920  -36.2150 C   0  0  0  0  0  0  0  0  0  0  0  0
    0.6640   22.3080  -35.3360 N   0  0  0  0  0  0  0  0  0  0  0  0
    2.0840   22.1920  -34.9710 C   0  0  0  0  0  0  0  0  0  0  0  0
    0.4210   23.6110  -35.9790 C   0  0  0  0  0  0  0  0  0  0  0  0
   -1.9110   21.7170  -32.7970 C   0  0  0  0  0  0  0  0  0  0  0  0
   -3.1770   21.8990  -32.2480 C   0  0  0  0  0  0  0  0  0  0  0  0
   -4.1460   20.8780  -32.3120 C   0  0  0  0  0  0  0  0  0  0  0  0
   -2.1882   21.8352  -28.2796 H   0  0  0  0  0  0  0  0  0  0  0  0
   -3.4022   21.2577  -29.4709 H   0  0  0  0  0  0  0  0  0  0  0  0
   -2.8928   22.9802  -29.4709 H   0  0  0  0  0  0  0  0  0  0  0  0
   -5.0954   21.8083  -28.0839 H   0  0  0  0  0  0  0  0  0  0  0  0
   -3.8517   22.2435  -26.8348 H   0  0  0  0  0  0  0  0  0  0  0  0
   -5.6700   23.9660  -27.8430 H   0  0  0  0  0  0  0  0  0  0  0  0
   -4.3960   24.1796  -25.8480 H   0  0  0  0  0  0  0  0  0  0  0  0
   -2.9588   24.5892  -26.8447 H   0  0  0  0  0  0  0  0  0  0  0  0
   -4.3906   25.6740  -26.8447 H   0  0  0  0  0  0  0  0  0  0  0  0
   -3.4400   25.2731  -28.9705 H   0  0  0  0  0  0  0  0  0  0  0  0
   -3.7960   23.7137  -29.8465 H   0  0  0  0  0  0  0  0  0  0  0  0
   -5.4278   26.2339  -29.6546 H   0  0  0  0  0  0  0  0  0  0  0  0
   -5.1514   25.1080  -31.0433 H   0  0  0  0  0  0  0  0  0  0  0  0
   -8.1672   23.6166  -30.6525 H   0  0  0  0  0  0  0  0  0  0  0  0
   -7.5729   25.1431  -31.4001 H   0  0  0  0  0  0  0  0  0  0  0  0
   -6.9557   23.0118  -32.6602 H   0  0  0  0  0  0  0  0  0  0  0  0
   -5.5667   24.0643  -32.2013 H   0  0  0  0  0  0  0  0  0  0  0  0
   -5.7830   22.3080  -30.0490 H   0  0  0  0  0  0  0  0  0  0  0  0
   -7.9880   21.2169  -30.9779 H   0  0  0  0  0  0  0  0  0  0  0  0
   -9.7379   19.4971  -31.3653 H   0  0  0  0  0  0  0  0  0  0  0  0
   -9.1813   17.3960  -32.5762 H   0  0  0  0  0  0  0  0  0  0  0  0
   -6.8616   16.9830  -33.3644 H   0  0  0  0  0  0  0  0  0  0  0  0
   -4.1538   16.6403  -32.4757 H   0  0  0  0  0  0  0  0  0  0  0  0
   -5.1380   16.7917  -33.9707 H   0  0  0  0  0  0  0  0  0  0  0  0
   -3.4188   17.3122  -33.9707 H   0  0  0  0  0  0  0  0  0  0  0  0
   -2.3240   18.6049  -34.1245 H   0  0  0  0  0  0  0  0  0  0  0  0
    0.7585   19.2406  -35.4385 H   0  0  0  0  0  0  0  0  0  0  0  0
   -0.9938   19.4831  -35.8021 H   0  0  0  0  0  0  0  0  0  0  0  0
    1.0739   20.9553  -36.9067 H   0  0  0  0  0  0  0  0  0  0  0  0
   -0.6441   21.4967  -36.7756 H   0  0  0  0  0  0  0  0  0  0  0  0
    2.1815   22.1840  -33.8754 H   0  0  0  0  0  0  0  0  0  0  0  0
    2.4932   21.2574  -35.3823 H   0  0  0  0  0  0  0  0  0  0  0  0
    2.6394   23.0478  -35.3823 H   0  0  0  0  0  0  0  0  0  0  0  0
    0.2775   24.3803  -35.2059 H   0  0  0  0  0  0  0  0  0  0  0  0
    1.2849   23.8775  -36.6056 H   0  0  0  0  0  0  0  0  0  0  0  0
   -0.4809   23.5482  -36.6056 H   0  0  0  0  0  0  0  0  0  0  0  0
   -1.1600   22.5167  -32.7169 H   0  0  0  0  0  0  0  0  0  0  0  0
   -3.4243   22.8522  -31.7578 H   0  0  0  0  0  0  0  0  0  0  0  0
  1  2  1  0
  2  3  1  0
  3  4  1  0
  3  5  1  0
  5  6  1  0
  6  7  1  0
  7  8  1  0
  8  9  1  0
  9 10  1  0
 10 11  1  0
 11 12  2  0
 12 13  1  0
 13 14  2  0
 14 15  1  0
 15 16  2  0
 16 17  1  0
 17 18  2  0
 18 19  1  0
 18 20  1  0
 20 21  2  0
 21 22  1  0
 22 23  1  0
 23 24  1  0
 24 25  1  0
 25 26  1  0
 26 27  1  0
 26 28  1  0
 22 29  2  0
 29 30  1  0
 30 31  2  0
 31 11  1  0
 17 12  1  0
 31 20  1  0
  1 32  1  0
  1 33  1  0
  1 34  1  0
  2 35  1  0
  2 36  1  0
  3 37  1  1
  4 38  1  0
  4 39  1  0
  4 40  1  0
  5 41  1  0
  5 42  1  0
  6 43  1  0
  6 44  1  0
  8 45  1  0
  8 46  1  0
  9 47  1  0
  9 48  1  0
 10 49  1  0
 13 50  1  0
 14 51  1  0
 15 52  1  0
 16 53  1  0
 19 54  1  0
 19 55  1  0
 19 56  1  0
 21 57  1  0
 24 58  1  0
 24 59  1  0
 25 60  1  0
 25 61  1  0
 27 62  1  0
 27 63  1  0
 27 64  1  0
 28 65  1  0
 28 66  1  0
 28 67  1  0
 29 68  1  0
 30 69  1  0
M  CHG  2   3   1  18   1
M  END
>  <UniqueID>  (25) 
25

>  <SMILES>  (25) 
CC[N@@H+](C)CCOCCNc1c2ccccc2[n+](C)c2cc(OCCN(C)C)ccc12

>  <Energy>  (25) 
97.82501915899185

>  <Genealogy>  (25) 
CC[NH+](C)CCOCCNc1c2ccccc2[n+](C)c2cc(OCCN(C)C)ccc12 (protonated)
CC[N@@H+](C)CCOCCNc1c2ccccc2[n+](C)c2cc(OCCN(C)C)ccc12 (chirality)
CC[N@@H+](C)CCOCCNc1c2ccccc2[n+](C)c2cc(OCCN(C)C)ccc12 (3D coordinates assigned)
CC[N@@H+](C)CCOCCNc1c2ccccc2[n+](C)c2cc(OCCN(C)C)ccc12 (optimized conformer: 97.82501915899185 kcal/mol)

>  <smiles>  (25) 
CCN(C)CCOCCNc1c2ccccc2[n+](C)c2cc(OCCN(C)C)ccc12

>  <score_type>  (25) 
oracle

>  <origin>  (25) 
adg

>  <m_score__min__energy>  (25) 
-7.1399999999999997

>  <m_primary>  (25) 
energy

$$$$
25:0
     RDKit          3D

 67 69  0  0  0  0  0  0  0  0999 V2000
   -3.9330   24.5190  -27.0870 C   0  0  0  0  0  0  0  0  0  0  0  0
   -2.8250   23.6530  -27.7030 C   0  0  0  0  0  0  0  0  0  0  0  0
   -1.6530   23.5180  -26.7210 C   0  0  0  0  0  0  0  0  0  0  0  0
   -3.3880   22.2710  -28.1010 C   0  0  0  0  0  0  0  0  0  0  0  0
   -2.6300   21.6890  -29.2320 N   0  0  0  0  0  0  0  0  0  0  0  0
   -1.6350   22.6590  -29.7270 C   0  0  0  0  0  0  0  0  0  0  0  0
   -1.9750   20.4160  -28.8560 C   0  0  0  0  0  0  0  0  0  0  0  0
   -0.5210   20.4050  -29.3480 C   0  0  0  0  0  0  0  0  0  0  0  0
   -0.3490   19.5650  -30.6180 C   0  0  0  0  0  0  0  0  0  0  0  0
   -1.4140   19.8710  -31.5850 N   0  0  0  0  0  0  0  0  0  0  0  0
   -0.9300   20.7340  -32.6730 C   0  0  0  0  0  0  0  0  0  0  0  0
   -1.9590   20.7970  -33.8120 C   0  0  0  0  0  0  0  0  0  0  0  0
   -3.3000   21.3970  -33.3570 C   0  0  0  0  0  0  0  0  0  0  0  0
   -3.7120   20.8730  -32.0410 N   0  0  0  0  0  0  0  0  0  0  0  0
   -5.1060   21.1890  -31.7720 C   0  0  0  0  0  0  0  0  0  0  0  0
   -6.1200   20.2030  -31.9150 C   0  0  0  0  0  0  0  0  0  0  0  0
   -5.8070   18.8400  -32.1500 C   0  0  0  0  0  0  0  0  0  0  0  0
   -6.8120   17.8810  -32.2580 C   0  0  0  0  0  0  0  0  0  0  0  0
   -8.1420   18.2450  -32.1170 C   0  0  0  0  0  0  0  0  0  0  0  0
   -8.4800   19.5750  -31.8840 C   0  0  0  0  0  0  0  0  0  0  0  0
   -7.4860   20.5850  -31.8040 C   0  0  0  0  0  0  0  0  0  0  0  0
   -7.8230   21.9080  -31.6060 N   0  0  0  0  0  0  0  0  0  0  0  0
   -9.2190   22.3560  -31.8190 C   0  0  0  0  0  0  0  0  0  0  0  0
   -6.8590   22.8160  -31.2200 C   0  0  0  0  0  0  0  0  0  0  0  0
   -7.2130   24.0850  -30.6970 C   0  0  0  0  0  0  0  0  0  0  0  0
   -6.2410   25.0130  -30.3340 C   0  0  0  0  0  0  0  0  0  0  0  0
   -4.8960   24.6980  -30.4680 C   0  0  0  0  0  0  0  0  0  0  0  0
   -4.5130   23.4490  -30.9480 C   0  0  0  0  0  0  0  0  0  0  0  0
   -5.4800   22.4820  -31.3210 C   0  0  0  0  0  0  0  0  0  0  0  0
   -3.8698   24.4696  -25.9899 H   0  0  0  0  0  0  0  0  0  0  0  0
   -3.8085   25.5616  -27.4149 H   0  0  0  0  0  0  0  0  0  0  0  0
   -4.9146   24.1463  -27.4149 H   0  0  0  0  0  0  0  0  0  0  0  0
   -2.4494   24.1404  -28.6148 H   0  0  0  0  0  0  0  0  0  0  0  0
   -2.0322   23.5617  -25.6893 H   0  0  0  0  0  0  0  0  0  0  0  0
   -1.1463   22.5555  -26.8850 H   0  0  0  0  0  0  0  0  0  0  0  0
   -0.9407   24.3400  -26.8850 H   0  0  0  0  0  0  0  0  0  0  0  0
   -3.3198   21.5935  -27.2371 H   0  0  0  0  0  0  0  0  0  0  0  0
   -4.4352   22.3983  -28.4126 H   0  0  0  0  0  0  0  0  0  0  0  0
   -1.1385   23.1430  -28.8731 H   0  0  0  0  0  0  0  0  0  0  0  0
   -0.8853   22.1355  -30.3385 H   0  0  0  0  0  0  0  0  0  0  0  0
   -2.1392   23.4218  -30.3385 H   0  0  0  0  0  0  0  0  0  0  0  0
   -1.9894   20.3090  -27.7613 H   0  0  0  0  0  0  0  0  0  0  0  0
   -2.5186   19.5805  -29.3211 H   0  0  0  0  0  0  0  0  0  0  0  0
   -0.2109   21.4386  -29.5616 H   0  0  0  0  0  0  0  0  0  0  0  0
    0.1005   19.9571  -28.5586 H   0  0  0  0  0  0  0  0  0  0  0  0
    0.6276   19.7900  -31.0715 H   0  0  0  0  0  0  0  0  0  0  0  0
   -0.4060   18.4995  -30.3507 H   0  0  0  0  0  0  0  0  0  0  0  0
   -1.7200   18.9650  -32.0120 H   0  0  0  0  0  0  0  0  0  0  0  0
   -0.7611   21.7482  -32.2820 H   0  0  0  0  0  0  0  0  0  0  0  0
    0.0087   20.3163  -33.0660 H   0  0  0  0  0  0  0  0  0  0  0  0
   -1.5509   21.4181  -34.6230 H   0  0  0  0  0  0  0  0  0  0  0  0
   -2.1492   19.7676  -34.1500 H   0  0  0  0  0  0  0  0  0  0  0  0
   -3.1972   22.4901  -33.2895 H   0  0  0  0  0  0  0  0  0  0  0  0
   -4.0683   21.1189  -34.0934 H   0  0  0  0  0  0  0  0  0  0  0  0
   -3.0950   21.2540  -31.2910 H   0  0  0  0  0  0  0  0  0  0  0  0
   -3.5580   19.8430  -31.9770 H   0  0  0  0  0  0  0  0  0  0  0  0
   -4.7547   18.5352  -32.2485 H   0  0  0  0  0  0  0  0  0  0  0  0
   -6.5490   16.8314  -32.4558 H   0  0  0  0  0  0  0  0  0  0  0  0
   -8.9311   17.4821  -32.1893 H   0  0  0  0  0  0  0  0  0  0  0  0
   -9.5381   19.8487  -31.7594 H   0  0  0  0  0  0  0  0  0  0  0  0
   -9.7065   22.5124  -30.8454 H   0  0  0  0  0  0  0  0  0  0  0  0
   -9.2191   23.2993  -32.3849 H   0  0  0  0  0  0  0  0  0  0  0  0
   -9.7680   21.5889  -32.3849 H   0  0  0  0  0  0  0  0  0  0  0  0
   -8.2758   24.3413  -30.5757 H   0  0  0  0  0  0  0  0  0  0  0  0
   -6.5390   25.9962  -29.9409 H   0  0  0  0  0  0  0  0  0  0  0  0
   -4.1299   25.4382  -30.1938 H   0  0  0  0  0  0  0  0  0  0  0  0
   -3.4435   23.2086  -31.0393 H   0  0  0  0  0  0  0  0  0  0  0  0
  1  2  1  0
  2  3  1  0
  2  4  1  0
  4  5  1  0
  5  6  1  0
  5  7  1  0
  7  8  1  0
  8  9  1  0
  9 10  1  0
 10 11  1  0
 11 12  1  0
 12 13  1  0
 13 14  1  0
 14 15  1  0
 15 16  2  0
 16 17  1  0
 17 18  2  0
 18 19  1  0
 19 20  2  0
 20 21  1  0
 21 22  2  0
 22 23  1  0
 22 24  1  0
 24 25  2  0
 25 26  1  0
 26 27  2  0
 27 28  1  0
 28 29  2  0
 29 15  1  0
 21 16  1  0
 29 24  1  0
  1 30  1  0
  1 31  1  0
  1 32  1  0
  2 33  1  0
  3 34  1  0
  3 35  1  0
  3 36  1  0
  4 37  1  0
  4 38  1  0
  6 39  1  0
  6 40  1  0
  6 41  1  0
  7 42  1  0
  7 43  1  0
  8 44  1  0
  8 45  1  0
  9 46  1  0
  9 47  1  0
 10 48  1  0
 11 49  1  0
 11 50  1  0
 12 51  1  0
 12 52  1  0
 13 53  1  0
 13 54  1  0
 14 55  1  0
 14 56  1  0
 17 57  1  0
 18 58  1  0
 19 59  1  0
 20 60  1  0
 23 61  1  0
 23 62  1  0
 23 63  1  0
 25 64  1  0
 26 65  1  0
 27 66  1  0
 28 67  1  0
M  CHG  2  14   1  22   1
M  END
>  <UniqueID>  (26) 
26

>  <SMILES>  (26) 
CC(C)CN(C)CCCNCCC[NH2+]c1c2ccccc2[n+](C)c2ccccc12

>  <Energy>  (26) 
84.88176690435512

>  <Genealogy>  (26) 
CC(C)CN(C)CCCNCCC[NH2+]c1c2ccccc2[n+](C)c2ccccc12 (protonated)
CC(C)CN(C)CCCNCCC[NH2+]c1c2ccccc2[n+](C)c2ccccc12 (3D coordinates assigned)
CC(C)CN(C)CCCNCCC[NH2+]c1c2ccccc2[n+](C)c2ccccc12 (optimized conformer: 84.88176690435512 kcal/mol)

>  <smiles>  (26) 
CC(C)CN(C)CCCNCCCNc1c2ccccc2[n+](C)c2ccccc12

>  <score_type>  (26) 
oracle

>  <origin>  (26) 
adg

>  <m_score__min__energy>  (26) 
-9.2400000000000002

>  <m_primary>  (26) 
energy

$$$$
26:0
     RDKit          3D

 45 47  0  0  0  0  0  0  0  0999 V2000
   -6.5730   25.2680  -29.7080 C   0  0  0  0  0  0  0  0  0  0  0  0
   -5.4150   25.5070  -30.3290 C   0  0  0  0  0  0  0  0  0  0  0  0
   -4.2830   24.5230  -30.2580 C   0  0  0  0  0  0  0  0  0  0  0  0
   -4.4250   23.5230  -31.3250 N   0  0  0  0  0  0  0  0  0  0  0  0
   -3.3620   22.5080  -31.2850 C   0  0  0  0  0  0  0  0  0  0  0  0
   -3.4500   21.5140  -32.4610 C   0  0  0  0  0  0  0  0  0  0  0  0
   -4.6150   21.7760  -33.3290 N   0  0  0  0  0  0  0  0  0  0  0  0
   -5.7200   20.8640  -33.0510 C   0  0  0  0  0  0  0  0  0  0  0  0
   -6.9620   21.3740  -32.5750 C   0  0  0  0  0  0  0  0  0  0  0  0
   -7.1650   22.7610  -32.3520 C   0  0  0  0  0  0  0  0  0  0  0  0
   -8.4050   23.2550  -31.9580 C   0  0  0  0  0  0  0  0  0  0  0  0
   -9.4750   22.3910  -31.7840 C   0  0  0  0  0  0  0  0  0  0  0  0
   -9.3010   21.0220  -31.9630 C   0  0  0  0  0  0  0  0  0  0  0  0
   -8.0380   20.4790  -32.3150 C   0  0  0  0  0  0  0  0  0  0  0  0
   -7.8520   19.1170  -32.4160 N   0  0  0  0  0  0  0  0  0  0  0  0
   -8.8520   18.1910  -31.8360 C   0  0  0  0  0  0  0  0  0  0  0  0
   -6.7190   18.6130  -33.0210 C   0  0  0  0  0  0  0  0  0  0  0  0
   -6.6370   17.2470  -33.3930 C   0  0  0  0  0  0  0  0  0  0  0  0
   -5.4690   16.7100  -33.9230 C   0  0  0  0  0  0  0  0  0  0  0  0
   -4.3560   17.5140  -34.1040 C   0  0  0  0  0  0  0  0  0  0  0  0
   -2.7420   16.7600  -34.7970 Br  0  0  0  0  0  0  0  0  0  0  0  0
   -4.4190   18.8730  -33.8000 C   0  0  0  0  0  0  0  0  0  0  0  0
   -5.6070   19.4630  -33.2930 C   0  0  0  0  0  0  0  0  0  0  0  0
   -7.3919   25.9998  -29.7705 H   0  0  0  0  0  0  0  0  0  0  0  0
   -6.7079   24.3394  -29.1340 H   0  0  0  0  0  0  0  0  0  0  0  0
   -5.2887   26.4382  -30.9008 H   0  0  0  0  0  0  0  0  0  0  0  0
   -3.3282   25.0553  -30.3811 H   0  0  0  0  0  0  0  0  0  0  0  0
   -4.3022   24.0172  -29.2814 H   0  0  0  0  0  0  0  0  0  0  0  0
   -5.3580   23.0560  -31.2350 H   0  0  0  0  0  0  0  0  0  0  0  0
   -2.3873   23.0162  -31.3249 H   0  0  0  0  0  0  0  0  0  0  0  0
   -3.4816   21.9352  -30.3535 H   0  0  0  0  0  0  0  0  0  0  0  0
   -2.5337   21.5970  -33.0639 H   0  0  0  0  0  0  0  0  0  0  0  0
   -3.5636   20.5039  -32.0405 H   0  0  0  0  0  0  0  0  0  0  0  0
   -4.9300   22.7620  -33.1950 H   0  0  0  0  0  0  0  0  0  0  0  0
   -4.3240   21.7880  -34.3290 H   0  0  0  0  0  0  0  0  0  0  0  0
   -6.3264   23.4586  -32.4933 H   0  0  0  0  0  0  0  0  0  0  0  0
   -8.5363   24.3332  -31.7843 H   0  0  0  0  0  0  0  0  0  0  0  0
  -10.4621   22.7878  -31.5043 H   0  0  0  0  0  0  0  0  0  0  0  0
  -10.1594   20.3474  -31.8290 H   0  0  0  0  0  0  0  0  0  0  0  0
   -8.8016   18.2377  -30.7381 H   0  0  0  0  0  0  0  0  0  0  0  0
   -9.8588   18.4828  -32.1696 H   0  0  0  0  0  0  0  0  0  0  0  0
   -8.6383   17.1648  -32.1696 H   0  0  0  0  0  0  0  0  0  0  0  0
   -7.5156   16.5988  -33.2595 H   0  0  0  0  0  0  0  0  0  0  0  0
   -5.4290   15.6459  -34.1987 H   0  0  0  0  0  0  0  0  0  0  0  0
   -3.5298   19.5015  -33.9561 H   0  0  0  0  0  0  0  0  0  0  0  0
  1  2  2  0
  2  3  1  0
  3  4  1  0
  4  5  1  0
  5  6  1  0
  6  7  1  0
  7  8  1  0
  8  9  2  0
  9 10  1  0
 10 11  2  0
 11 12  1  0
 12 13  2  0
 13 14  1  0
 14 15  2  0
 15 16  1  0
 15 17  1  0
 17 18  2  0
 18 19  1  0
 19 20  2  0
 20 21  1  0
 20 22  1  0
 22 23  2  0
 23  8  1  0
 14  9  1  0
 23 17  1  0
  1 24  1  0
  1 25  1  0
  2 26  1  0
  3 27  1  0
  3 28  1  0
  4 29  1  0
  5 30  1  0
  5 31  1  0
  6 32  1  0
  6 33  1  0
  7 34  1  0
  7 35  1  0
 10 36  1  0
 11 37  1  0
 12 38  1  0
 13 39  1  0
 16 40  1  0
 16 41  1  0
 16 42  1  0
 18 43  1  0
 19 44  1  0
 22 45  1  0
M  CHG  2   7   1  15   1
M  END
>  <UniqueID>  (27) 
27

>  <SMILES>  (27) 
C=CCNCC[NH2+]c1c2ccccc2[n+](C)c2ccc(Br)cc12

>  <Energy>  (27) 
72.47269271654622

>  <Genealogy>  (27) 
C=CCNCC[NH2+]c1c2ccccc2[n+](C)c2ccc(Br)cc12 (protonated)
C=CCNCC[NH2+]c1c2ccccc2[n+](C)c2ccc(Br)cc12 (3D coordinates assigned)
C=CCNCC[NH2+]c1c2ccccc2[n+](C)c2ccc(Br)cc12 (optimized conformer: 72.47269271654622 kcal/mol)

>  <smiles>  (27) 
C=CCNCCNc1c2ccccc2[n+](C)c2ccc(Br)cc12

>  <score_type>  (27) 
oracle

>  <origin>  (27) 
adg

>  <m_score__min__energy>  (27) 
-8.1699999999999999

>  <m_primary>  (27) 
energy

$$$$
27:0
     RDKit          3D

 68 70  0  0  0  0  0  0  0  0999 V2000
   -0.8580   26.7780  -23.7980 C   0  0  0  0  0  0  0  0  0  0  0  0
   -1.2210   26.2740  -25.2010 C   0  0  0  0  0  0  0  0  0  0  0  0
   -0.2960   25.2140  -25.6740 N   0  0  0  0  0  0  0  0  0  0  0  0
   -0.7960   23.8540  -25.2980 C   0  0  0  0  0  0  0  0  0  0  0  0
    0.2300   23.0780  -24.4710 C   0  0  0  0  0  0  0  0  0  0  0  0
   -0.1240   25.3340  -27.1440 C   0  0  0  0  0  0  0  0  0  0  0  0
   -1.2520   26.1620  -27.7990 C   0  0  0  0  0  0  0  0  0  0  0  0
   -1.5580   25.6440  -29.0810 O   0  0  0  0  0  0  0  0  0  0  0  0
   -2.1770   24.3750  -28.9800 C   0  0  0  0  0  0  0  0  0  0  0  0
   -3.6780   24.5340  -29.2540 C   0  0  0  0  0  0  0  0  0  0  0  0
   -3.9770   25.2850  -30.4880 N   0  0  0  0  0  0  0  0  0  0  0  0
   -5.4060   25.3790  -30.8350 C   0  0  0  0  0  0  0  0  0  0  0  0
   -5.9110   24.1560  -31.6200 C   0  0  0  0  0  0  0  0  0  0  0  0
   -5.0050   23.0230  -31.4330 N   0  0  0  0  0  0  0  0  0  0  0  0
   -5.2480   21.7610  -32.0790 C   0  0  0  0  0  0  0  0  0  0  0  0
   -6.5390   21.2080  -32.0800 C   0  0  0  0  0  0  0  0  0  0  0  0
   -7.5870   21.8170  -31.3570 C   0  0  0  0  0  0  0  0  0  0  0  0
   -8.8580   21.2480  -31.3330 C   0  0  0  0  0  0  0  0  0  0  0  0
   -9.1030   20.0610  -32.0130 C   0  0  0  0  0  0  0  0  0  0  0  0
   -8.0840   19.4470  -32.7430 C   0  0  0  0  0  0  0  0  0  0  0  0
   -6.7890   20.0230  -32.8210 C   0  0  0  0  0  0  0  0  0  0  0  0
   -5.7840   19.4560  -33.5810 N   0  0  0  0  0  0  0  0  0  0  0  0
   -6.1060   18.4170  -34.5850 C   0  0  0  0  0  0  0  0  0  0  0  0
   -4.4760   19.8730  -33.4160 C   0  0  0  0  0  0  0  0  0  0  0  0
   -3.3880   19.1330  -33.9400 C   0  0  0  0  0  0  0  0  0  0  0  0
   -2.0740   19.5720  -33.7810 C   0  0  0  0  0  0  0  0  0  0  0  0
   -1.8020   20.7560  -33.0950 C   0  0  0  0  0  0  0  0  0  0  0  0
   -0.3850   21.2040  -32.8830 C   0  0  0  0  0  0  0  0  0  0  0  0
   -2.8560   21.4810  -32.5290 C   0  0  0  0  0  0  0  0  0  0  0  0
   -4.1930   21.0540  -32.6810 C   0  0  0  0  0  0  0  0  0  0  0  0
   -1.3255   26.1289  -23.0429 H   0  0  0  0  0  0  0  0  0  0  0  0
    0.2347   26.7583  -23.6726 H   0  0  0  0  0  0  0  0  0  0  0  0
   -1.2229   27.8081  -23.6726 H   0  0  0  0  0  0  0  0  0  0  0  0
   -2.2429   25.8676  -25.1778 H   0  0  0  0  0  0  0  0  0  0  0  0
   -1.1431   27.1238  -25.8951 H   0  0  0  0  0  0  0  0  0  0  0  0
    0.6380   25.4030  -25.2370 H   0  0  0  0  0  0  0  0  0  0  0  0
   -1.7179   23.9645  -24.7082 H   0  0  0  0  0  0  0  0  0  0  0  0
   -0.9831   23.2913  -26.2245 H   0  0  0  0  0  0  0  0  0  0  0  0
    0.0287   23.2303  -23.4003 H   0  0  0  0  0  0  0  0  0  0  0  0
    0.1579   22.0065  -24.7089 H   0  0  0  0  0  0  0  0  0  0  0  0
    1.2414   23.4391  -24.7089 H   0  0  0  0  0  0  0  0  0  0  0  0
    0.8394   25.8237  -27.3489 H   0  0  0  0  0  0  0  0  0  0  0  0
   -0.1576   24.3209  -27.5713 H   0  0  0  0  0  0  0  0  0  0  0  0
   -2.1501   26.1176  -27.1654 H   0  0  0  0  0  0  0  0  0  0  0  0
   -0.9173   27.2046  -27.9038 H   0  0  0  0  0  0  0  0  0  0  0  0
   -1.7369   23.6891  -29.7189 H   0  0  0  0  0  0  0  0  0  0  0  0
   -2.0227   23.9630  -27.9718 H   0  0  0  0  0  0  0  0  0  0  0  0
   -4.1238   23.5321  -29.3401 H   0  0  0  0  0  0  0  0  0  0  0  0
   -4.0996   25.1091  -28.4164 H   0  0  0  0  0  0  0  0  0  0  0  0
   -3.4840   24.8140  -31.2810 H   0  0  0  0  0  0  0  0  0  0  0  0
   -5.9883   25.4650  -29.9057 H   0  0  0  0  0  0  0  0  0  0  0  0
   -5.5328   26.2614  -31.4794 H   0  0  0  0  0  0  0  0  0  0  0  0
   -6.9136   23.8822  -31.2596 H   0  0  0  0  0  0  0  0  0  0  0  0
   -5.9511   24.4092  -32.6897 H   0  0  0  0  0  0  0  0  0  0  0  0
   -4.2080   23.1090  -30.7610 H   0  0  0  0  0  0  0  0  0  0  0  0
   -7.3980   22.7506  -30.8068 H   0  0  0  0  0  0  0  0  0  0  0  0
   -9.6690   21.7388  -30.7750 H   0  0  0  0  0  0  0  0  0  0  0  0
  -10.1029   19.6040  -31.9758 H   0  0  0  0  0  0  0  0  0  0  0  0
   -8.2878   18.5012  -33.2664 H   0  0  0  0  0  0  0  0  0  0  0  0
   -6.3940   17.4878  -34.0716 H   0  0  0  0  0  0  0  0  0  0  0  0
   -6.9395   18.7614  -35.2147 H   0  0  0  0  0  0  0  0  0  0  0  0
   -5.2238   18.2297  -35.2147 H   0  0  0  0  0  0  0  0  0  0  0  0
   -3.5829   18.1957  -34.4818 H   0  0  0  0  0  0  0  0  0  0  0  0
   -1.2462   18.9807  -34.1994 H   0  0  0  0  0  0  0  0  0  0  0  0
   -0.1785   21.2693  -31.8045 H   0  0  0  0  0  0  0  0  0  0  0  0
    0.3017   20.4791  -33.3446 H   0  0  0  0  0  0  0  0  0  0  0  0
   -0.2398   22.1919  -33.3446 H   0  0  0  0  0  0  0  0  0  0  0  0
   -2.6402   22.3960  -31.9579 H   0  0  0  0  0  0  0  0  0  0  0  0
  1  2  1  0
  2  3  1  0
  3  4  1  0
  4  5  1  0
  3  6  1  0
  6  7  1  0
  7  8  1  0
  8  9  1  0
  9 10  1  0
 10 11  1  0
 11 12  1  0
 12 13  1  0
 13 14  1  0
 14 15  1  0
 15 16  2  0
 16 17  1  0
 17 18  2  0
 18 19  1  0
 19 20  2  0
 20 21  1  0
 21 22  2  0
 22 23  1  0
 22 24  1  0
 24 25  2  0
 25 26  1  0
 26 27  2  0
 27 28  1  0
 27 29  1  0
 29 30  2  0
 30 15  1  0
 21 16  1  0
 30 24  1  0
  1 31  1  0
  1 32  1  0
  1 33  1  0
  2 34  1  0
  2 35  1  0
  3 36  1  0
  4 37  1  0
  4 38  1  0
  5 39  1  0
  5 40  1  0
  5 41  1  0
  6 42  1  0
  6 43  1  0
  7 44  1  0
  7 45  1  0
  9 46  1  0
  9 47  1  0
 10 48  1  0
 10 49  1  0
 11 50  1  0
 12 51  1  0
 12 52  1  0
 13 53  1  0
 13 54  1  0
 14 55  1  0
 17 56  1  0
 18 57  1  0
 19 58  1  0
 20 59  1  0
 23 60  1  0
 23 61  1  0
 23 62  1  0
 25 63  1  0
 26 64  1  0
 28 65  1  0
 28 66  1  0
 28 67  1  0
 29 68  1  0
M  CHG  2   3   1  22   1
M  END
>  <UniqueID>  (28) 
28

>  <SMILES>  (28) 
CC[NH+](CC)CCOCCNCCNc1c2ccccc2[n+](C)c2ccc(C)cc12

>  <Energy>  (28) 
91.30419838644941

>  <Genealogy>  (28) 
CC[NH+](CC)CCOCCNCCNc1c2ccccc2[n+](C)c2ccc(C)cc12 (protonated)
CC[NH+](CC)CCOCCNCCNc1c2ccccc2[n+](C)c2ccc(C)cc12 (3D coordinates assigned)
CC[NH+](CC)CCOCCNCCNc1c2ccccc2[n+](C)c2ccc(C)cc12 (optimized conformer: 91.30419838644941 kcal/mol)

>  <smiles>  (28) 
CCN(CC)CCOCCNCCNc1c2ccccc2[n+](C)c2ccc(C)cc12

>  <score_type>  (28) 
oracle

>  <origin>  (28) 
adg

>  <m_score__min__energy>  (28) 
-9.7100000000000009

>  <m_primary>  (28) 
energy

$$$$
28:0
     RDKit          3D

 59 62  0  0  0  0  0  0  0  0999 V2000
   -0.6310   21.8310  -26.7990 C   0  0  0  0  0  0  0  0  0  0  0  0
   -1.4360   20.6030  -26.3680 C   0  0  0  0  0  0  0  0  0  0  0  0
   -2.1470   19.9690  -27.5220 N   0  0  0  0  0  0  0  0  0  0  0  0
   -3.3150   19.1720  -27.0650 C   0  0  0  0  0  0  0  0  0  0  0  0
   -3.1070   18.5850  -25.6640 C   0  0  0  0  0  0  0  0  0  0  0  0
   -2.6000   20.9900  -28.5030 C   0  0  0  0  0  0  0  0  0  0  0  0
   -2.4360   20.5410  -29.9740 C   0  0  0  0  0  0  0  0  0  0  0  0
   -2.4130   21.6870  -31.0120 C   0  0  0  0  0  0  0  0  0  0  0  0
   -3.7600   22.2100  -31.3160 N   0  0  0  0  0  0  0  0  0  0  0  0
   -4.6220   21.4430  -32.1690 C   0  0  0  0  0  0  0  0  0  0  0  0
   -4.1430   20.7510  -33.1110 O   0  0  0  0  0  0  0  0  0  0  0  0
   -6.0640   21.4330  -31.8990 C   0  0  0  0  0  0  0  0  0  0  0  0
   -6.8950   20.4470  -32.4570 C   0  0  0  0  0  0  0  0  0  0  0  0
   -8.2530   20.3880  -32.1140 C   0  0  0  0  0  0  0  0  0  0  0  0
   -9.1390   19.3410  -32.7230 C   0  0  0  0  0  0  0  0  0  0  0  0
   -8.7860   21.3470  -31.2420 C   0  0  0  0  0  0  0  0  0  0  0  0
   -7.9640   22.3360  -30.6960 C   0  0  0  0  0  0  0  0  0  0  0  0
   -6.5970   22.3820  -31.0130 C   0  0  0  0  0  0  0  0  0  0  0  0
   -5.7540   23.5040  -30.4520 C   0  0  1  0  0  0  0  0  0  0  0  0
   -5.7490   23.4770  -29.0250 O   0  0  0  0  0  0  0  0  0  0  0  0
   -4.5120   23.8660  -28.5640 C   0  0  0  0  0  0  0  0  0  0  0  0
   -4.1720   24.1600  -27.2460 C   0  0  0  0  0  0  0  0  0  0  0  0
   -2.8790   24.6410  -26.9850 C   0  0  0  0  0  0  0  0  0  0  0  0
   -1.9650   24.8480  -28.0420 C   0  0  0  0  0  0  0  0  0  0  0  0
   -0.5810   25.3490  -27.7560 C   0  0  0  0  0  0  0  0  0  0  0  0
   -2.3380   24.5180  -29.3620 C   0  0  0  0  0  0  0  0  0  0  0  0
   -3.6130   23.9890  -29.5870 C   0  0  0  0  0  0  0  0  0  0  0  0
   -4.2430   23.5390  -30.8710 C   0  0  1  0  0  0  0  0  0  0  0  0
   -0.2780   22.3695  -25.9072 H   0  0  0  0  0  0  0  0  0  0  0  0
    0.2330   21.5107  -27.3998 H   0  0  0  0  0  0  0  0  0  0  0  0
   -1.2693   22.4955  -27.3998 H   0  0  0  0  0  0  0  0  0  0  0  0
   -0.7504   19.8660  -25.9243 H   0  0  0  0  0  0  0  0  0  0  0  0
   -2.1924   20.9297  -25.6393 H   0  0  0  0  0  0  0  0  0  0  0  0
   -1.5090   19.3110  -28.0230 H   0  0  0  0  0  0  0  0  0  0  0  0
   -4.2020   19.8223  -27.0479 H   0  0  0  0  0  0  0  0  0  0  0  0
   -3.4448   18.3336  -27.7651 H   0  0  0  0  0  0  0  0  0  0  0  0
   -3.3738   19.3379  -24.9077 H   0  0  0  0  0  0  0  0  0  0  0  0
   -3.7456   17.6980  -25.5396 H   0  0  0  0  0  0  0  0  0  0  0  0
   -2.0524   18.2980  -25.5396 H   0  0  0  0  0  0  0  0  0  0  0  0
   -3.6635   21.2027  -28.3195 H   0  0  0  0  0  0  0  0  0  0  0  0
   -1.9687   21.8797  -28.3619 H   0  0  0  0  0  0  0  0  0  0  0  0
   -1.4894   19.9869  -30.0574 H   0  0  0  0  0  0  0  0  0  0  0  0
   -3.3222   19.9332  -30.2089 H   0  0  0  0  0  0  0  0  0  0  0  0
   -1.7982   22.5084  -30.6153 H   0  0  0  0  0  0  0  0  0  0  0  0
   -1.9969   21.2804  -31.9455 H   0  0  0  0  0  0  0  0  0  0  0  0
   -6.4778   19.7175  -33.1668 H   0  0  0  0  0  0  0  0  0  0  0  0
   -9.6273   18.7639  -31.9239 H   0  0  0  0  0  0  0  0  0  0  0  0
   -9.9052   19.8260  -33.3457 H   0  0  0  0  0  0  0  0  0  0  0  0
   -8.5339   18.6656  -33.3457 H   0  0  0  0  0  0  0  0  0  0  0  0
   -9.8556   21.3209  -30.9865 H   0  0  0  0  0  0  0  0  0  0  0  0
   -8.3911   23.0845  -30.0124 H   0  0  0  0  0  0  0  0  0  0  0  0
   -6.2438   24.3887  -30.8848 H   0  0  0  0  0  0  0  0  0  0  0  0
   -4.8972   24.0191  -26.4310 H   0  0  0  0  0  0  0  0  0  0  0  0
   -2.5756   24.8582  -25.9502 H   0  0  0  0  0  0  0  0  0  0  0  0
   -0.4286   25.4042  -26.6680 H   0  0  0  0  0  0  0  0  0  0  0  0
    0.1562   24.6607  -28.1951 H   0  0  0  0  0  0  0  0  0  0  0  0
   -0.4553   26.3497  -28.1951 H   0  0  0  0  0  0  0  0  0  0  0  0
   -1.6399   24.6737  -30.1977 H   0  0  0  0  0  0  0  0  0  0  0  0
   -4.0158   24.1856  -31.7314 H   0  0  0  0  0  0  0  0  0  0  0  0
  1  2  1  0
  2  3  1  0
  3  4  1  0
  4  5  1  0
  3  6  1  0
  6  7  1  0
  7  8  1  0
  8  9  1  0
  9 10  1  0
 10 11  2  0
 10 12  1  0
 12 13  2  0
 13 14  1  0
 14 15  1  0
 14 16  2  0
 16 17  1  0
 17 18  2  0
 18 19  1  0
 19 20  1  0
 20 21  1  0
 21 22  2  0
 22 23  1  0
 23 24  2  0
 24 25  1  0
 24 26  1  0
 26 27  2  0
 27 28  1  0
 28  9  1  0
 18 12  1  0
 28 19  1  0
 27 21  1  0
  1 29  1  0
  1 30  1  0
  1 31  1  0
  2 32  1  0
  2 33  1  0
  3 34  1  0
  4 35  1  0
  4 36  1  0
  5 37  1  0
  5 38  1  0
  5 39  1  0
  6 40  1  0
  6 41  1  0
  7 42  1  0
  7 43  1  0
  8 44  1  0
  8 45  1  0
 13 46  1  0
 15 47  1  0
 15 48  1  0
 15 49  1  0
 16 50  1  0
 17 51  1  0
 19 52  1  1
 22 53  1  0
 23 54  1  0
 25 55  1  0
 25 56  1  0
 25 57  1  0
 26 58  1  0
 28 59  1  6
M  CHG  1   3   1
M  END
>  <UniqueID>  (29) 
29

>  <SMILES>  (29) 
CC[NH+](CC)CCCN1C(=O)c2cc(C)ccc2[C@H]2Oc3ccc(C)cc3[C@H]21

>  <Energy>  (29) 
85.96115324989938

>  <Genealogy>  (29) 
CC[NH+](CC)CCCN1C(=O)c2cc(C)ccc2C2Oc3ccc(C)cc3C21 (protonated)
CC[NH+](CC)CCCN1C(=O)c2cc(C)ccc2[C@H]2Oc3ccc(C)cc3[C@H]21 (chirality)
CC[NH+](CC)CCCN1C(=O)c2cc(C)ccc2[C@H]2Oc3ccc(C)cc3[C@H]21 (3D coordinates assigned)
CC[NH+](CC)CCCN1C(=O)c2cc(C)ccc2[C@H]2Oc3ccc(C)cc3[C@H]21 (nonaromatic ring conformer: 85.96115324989938 kcal/mol)

>  <smiles>  (29) 
CCN(CC)CCCN1C(=O)c2cc(C)ccc2C2Oc3ccc(C)cc3C21

>  <score_type>  (29) 
oracle

>  <origin>  (29) 
adg

>  <m_score__min__energy>  (29) 
-7.6100000000000003

>  <m_primary>  (29) 
energy

$$$$
