0:0
     RDKit          3D

 58 61  0  0  0  0  0  0  0  0999 V2000
   -5.2160   25.6990  -30.6580 C   0  0  0  0  0  0  0  0  0  0  0  0
   -3.8730   25.2830  -30.4370 O   0  0  0  0  0  0  0  0  0  0  0  0
   -3.5040   24.1140  -29.7530 C   0  0  0  0  0  0  0  0  0  0  0  0
   -4.2260   23.7560  -28.6140 C   0  0  0  0  0  0  0  0  0  0  0  0
   -3.9080   22.6330  -27.9260 N   0  0  0  0  0  0  0  0  0  0  0  0
   -2.8880   21.8190  -28.3050 C   0  0  0  0  0  0  0  0  0  0  0  0
   -2.6140   20.6780  -27.5610 C   0  0  0  0  0  0  0  0  0  0  0  0
   -1.5750   19.8430  -27.9400 C   0  0  0  0  0  0  0  0  0  0  0  0
   -0.8140   20.1460  -29.0690 C   0  0  0  0  0  0  0  0  0  0  0  0
    0.1230   19.3600  -29.3820 O   0  0  0  0  0  0  0  0  0  0  0  0
   -1.0820   21.2690  -29.8270 N   0  0  0  0  0  0  0  0  0  0  0  0
   -0.2730   21.5200  -31.0450 C   0  0  0  0  0  0  0  0  0  0  0  0
   -0.4320   20.4040  -32.1070 C   0  0  0  0  0  0  0  0  0  0  0  0
   -1.7010   19.6400  -31.9610 N   0  0  2  0  0  0  0  0  0  0  0  0
   -1.8160   18.6210  -33.0350 C   0  0  0  0  0  0  0  0  0  0  0  0
   -3.2320   18.0450  -33.0970 C   0  0  0  0  0  0  0  0  0  0  0  0
   -4.1810   19.1380  -33.6140 C   0  0  1  0  0  0  0  0  0  0  0  0
   -5.6200   18.8010  -33.5170 N   0  0  0  0  0  0  0  0  0  0  0  0
   -6.6310   19.7930  -33.9330 C   0  0  0  0  0  0  0  0  0  0  0  0
   -7.1120   20.7070  -32.8230 C   0  0  0  0  0  0  0  0  0  0  0  0
   -6.4880   21.9580  -32.6540 C   0  0  0  0  0  0  0  0  0  0  0  0
   -6.8940   22.8270  -31.6380 C   0  0  0  0  0  0  0  0  0  0  0  0
   -7.9100   22.4500  -30.7620 C   0  0  0  0  0  0  0  0  0  0  0  0
   -8.5000   21.1910  -30.8790 C   0  0  0  0  0  0  0  0  0  0  0  0
   -8.0960   20.3070  -31.8870 C   0  0  0  0  0  0  0  0  0  0  0  0
   -8.8680   18.5500  -31.8750 Br  0  0  0  0  0  0  0  0  0  0  0  0
   -3.8330   20.5490  -33.0710 C   0  0  0  0  0  0  0  0  0  0  0  0
   -2.8900   20.5450  -31.8510 C   0  0  0  0  0  0  0  0  0  0  0  0
   -2.1090   22.1200  -29.4490 C   0  0  0  0  0  0  0  0  0  0  0  0
   -2.4410   23.2930  -30.1680 C   0  0  0  0  0  0  0  0  0  0  0  0
   -5.7158   25.8538  -29.6904 H   0  0  0  0  0  0  0  0  0  0  0  0
   -5.2193   26.6403  -31.2272 H   0  0  0  0  0  0  0  0  0  0  0  0
   -5.7508   24.9244  -31.2272 H   0  0  0  0  0  0  0  0  0  0  0  0
   -5.0582   24.3892  -28.2727 H   0  0  0  0  0  0  0  0  0  0  0  0
   -3.2195   20.4384  -26.6745 H   0  0  0  0  0  0  0  0  0  0  0  0
   -1.3505   18.9417  -27.3508 H   0  0  0  0  0  0  0  0  0  0  0  0
   -0.5906   22.4755  -31.4880 H   0  0  0  0  0  0  0  0  0  0  0  0
    0.7845   21.5439  -30.7431 H   0  0  0  0  0  0  0  0  0  0  0  0
   -0.4130   20.8649  -33.1056 H   0  0  0  0  0  0  0  0  0  0  0  0
    0.3973   19.6951  -31.9666 H   0  0  0  0  0  0  0  0  0  0  0  0
   -1.6470   19.0920  -31.0700 H   0  0  0  0  0  0  0  0  0  0  0  0
   -1.5755   19.0885  -34.0012 H   0  0  0  0  0  0  0  0  0  0  0  0
   -1.1145   17.8022  -32.8169 H   0  0  0  0  0  0  0  0  0  0  0  0
   -3.2522   17.1827  -33.7797 H   0  0  0  0  0  0  0  0  0  0  0  0
   -3.5482   17.7136  -32.0969 H   0  0  0  0  0  0  0  0  0  0  0  0
   -3.9939   19.1800  -34.6972 H   0  0  0  0  0  0  0  0  0  0  0  0
   -5.8080   17.8630  -33.9370 H   0  0  0  0  0  0  0  0  0  0  0  0
   -6.1934   20.4171  -34.7260 H   0  0  0  0  0  0  0  0  0  0  0  0
   -7.5089   19.2216  -34.2690 H   0  0  0  0  0  0  0  0  0  0  0  0
   -5.6719   22.2544  -33.3293 H   0  0  0  0  0  0  0  0  0  0  0  0
   -6.4113   23.8094  -31.5296 H   0  0  0  0  0  0  0  0  0  0  0  0
   -8.2468   23.1447  -29.9785 H   0  0  0  0  0  0  0  0  0  0  0  0
   -9.2888   20.8905  -30.1737 H   0  0  0  0  0  0  0  0  0  0  0  0
   -3.3496   21.1191  -33.8781 H   0  0  0  0  0  0  0  0  0  0  0  0
   -4.7790   20.9997  -32.7363 H   0  0  0  0  0  0  0  0  0  0  0  0
   -2.5228   21.5712  -31.7025 H   0  0  0  0  0  0  0  0  0  0  0  0
   -3.4854   20.1624  -31.0089 H   0  0  0  0  0  0  0  0  0  0  0  0
   -1.8606   23.5654  -31.0618 H   0  0  0  0  0  0  0  0  0  0  0  0
  1  2  1  0
  2  3  1  0
  3  4  2  0
  4  5  1  0
  5  6  2  0
  6  7  1  0
  7  8  2  0
  8  9  1  0
  9 10  2  0
  9 11  1  0
 11 12  1  0
 12 13  1  0
 13 14  1  0
 14 15  1  0
 15 16  1  0
 16 17  1  0
 17 18  1  0
 18 19  1  0
 19 20  1  0
 20 21  2  0
 21 22  1  0
 22 23  2  0
 23 24  1  0
 24 25  2  0
 25 26  1  0
 17 27  1  0
 27 28  1  0
 11 29  1  0
 29 30  2  0
 30  3  1  0
 29  6  1  0
 28 14  1  0
 25 20  1  0
  1 31  1  0
  1 32  1  0
  1 33  1  0
  4 34  1  0
  7 35  1  0
  8 36  1  0
 12 37  1  0
 12 38  1  0
 13 39  1  0
 13 40  1  0
 14 41  1  1
 15 42  1  0
 15 43  1  0
 16 44  1  0
 16 45  1  0
 17 46  1  6
 18 47  1  0
 19 48  1  0
 19 49  1  0
 21 50  1  0
 22 51  1  0
 23 52  1  0
 24 53  1  0
 27 54  1  0
 27 55  1  0
 28 56  1  0
 28 57  1  0
 30 58  1  0
M  CHG  1  14   1
M  END
>  <UniqueID>  (1) 
1

>  <SMILES>  (1) 
COc1cnc2ccc(=O)n(CC[NH+]3CCC(NCc4ccccc4Br)CC3)c2c1

>  <Energy>  (1) 
90.39510465388996

>  <Genealogy>  (1) 
COc1cnc2ccc(=O)n(CC[NH+]3CCC(NCc4ccccc4Br)CC3)c2c1 (protonated)
COc1cnc2ccc(=O)n(CC[NH+]3CCC(NCc4ccccc4Br)CC3)c2c1 (3D coordinates assigned)
COc1cnc2ccc(=O)n(CC[NH+]3CCC(NCc4ccccc4Br)CC3)c2c1 (nonaromatic ring conformer: 90.39510465388996 kcal/mol)

>  <smiles>  (1) 
COc1cnc2ccc(=O)n(CCN3CCC(NCc4ccccc4Br)CC3)c2c1

>  <score_type>  (1) 
oracle

>  <origin>  (1) 
adg

>  <m_score__min__energy>  (1) 
-8.6199999999999992

>  <m_primary>  (1) 
energy

$$$$
1:0
     RDKit          3D

 34 36  0  0  0  0  0  0  0  0999 V2000
   -7.2000   16.3450  -34.2730 O   0  0  0  0  0  0  0  0  0  0  0  0
   -6.1470   16.4980  -33.5950 C   0  0  0  0  0  0  0  0  0  0  0  0
   -5.2890   15.3180  -33.3300 C   0  0  0  0  0  0  0  0  0  0  0  0
   -4.8670   14.4790  -34.3780 C   0  0  0  0  0  0  0  0  0  0  0  0
   -4.0720   13.3600  -34.1120 C   0  0  0  0  0  0  0  0  0  0  0  0
   -3.7000   13.0600  -32.7990 C   0  0  0  0  0  0  0  0  0  0  0  0
   -2.7040   11.6550  -32.4660 Cl  0  0  0  0  0  0  0  0  0  0  0  0
   -4.1270   13.8770  -31.7480 C   0  0  0  0  0  0  0  0  0  0  0  0
   -4.9220   14.9980  -32.0110 C   0  0  0  0  0  0  0  0  0  0  0  0
   -5.8110   17.8530  -33.0930 C   0  0  0  0  0  0  0  0  0  0  0  0
   -6.7300   18.5900  -32.3260 C   0  0  0  0  0  0  0  0  0  0  0  0
   -6.4090   19.8730  -31.8730 C   0  0  0  0  0  0  0  0  0  0  0  0
   -5.1660   20.4510  -32.1860 C   0  0  0  0  0  0  0  0  0  0  0  0
   -4.8240   21.8130  -31.7040 C   0  0  0  0  0  0  0  0  0  0  0  0
   -5.6760   22.9000  -31.9710 C   0  0  0  0  0  0  0  0  0  0  0  0
   -5.3530   24.1820  -31.5170 C   0  0  0  0  0  0  0  0  0  0  0  0
   -4.1780   24.3970  -30.7920 C   0  0  0  0  0  0  0  0  0  0  0  0
   -3.8680   25.6760  -30.3470 O   0  0  0  0  0  0  0  0  0  0  0  0
   -3.3210   23.3230  -30.5200 C   0  0  0  0  0  0  0  0  0  0  0  0
   -1.8410   23.5720  -29.6040 Cl  0  0  0  0  0  0  0  0  0  0  0  0
   -3.6430   22.0390  -30.9740 C   0  0  0  0  0  0  0  0  0  0  0  0
   -4.2550   19.7190  -32.9670 C   0  0  0  0  0  0  0  0  0  0  0  0
   -4.5760   18.4380  -33.4210 C   0  0  0  0  0  0  0  0  0  0  0  0
   -5.1644   14.7049  -35.4127 H   0  0  0  0  0  0  0  0  0  0  0  0
   -3.7387   12.7145  -34.9380 H   0  0  0  0  0  0  0  0  0  0  0  0
   -3.8379   13.6385  -30.7138 H   0  0  0  0  0  0  0  0  0  0  0  0
   -5.2622   15.6334  -31.1800 H   0  0  0  0  0  0  0  0  0  0  0  0
   -7.7094   18.1537  -32.0803 H   0  0  0  0  0  0  0  0  0  0  0  0
   -7.1347   20.4349  -31.2668 H   0  0  0  0  0  0  0  0  0  0  0  0
   -6.6030   22.7400  -32.5411 H   0  0  0  0  0  0  0  0  0  0  0  0
   -6.0265   25.0249  -31.7313 H   0  0  0  0  0  0  0  0  0  0  0  0
   -2.9665   21.1989  -30.7581 H   0  0  0  0  0  0  0  0  0  0  0  0
   -3.2800   20.1593  -33.2230 H   0  0  0  0  0  0  0  0  0  0  0  0
   -3.8564   17.8824  -34.0403 H   0  0  0  0  0  0  0  0  0  0  0  0
  1  2  2  0
  2  3  1  0
  3  4  2  0
  4  5  1  0
  5  6  2  0
  6  7  1  0
  6  8  1  0
  8  9  2  0
  2 10  1  0
 10 11  2  0
 11 12  1  0
 12 13  2  0
 13 14  1  0
 14 15  2  0
 15 16  1  0
 16 17  2  0
 17 18  1  0
 17 19  1  0
 19 20  1  0
 19 21  2  0
 13 22  1  0
 22 23  2  0
  9  3  1  0
 23 10  1  0
 21 14  1  0
  4 24  1  0
  5 25  1  0
  8 26  1  0
  9 27  1  0
 11 28  1  0
 12 29  1  0
 15 30  1  0
 16 31  1  0
 21 32  1  0
 22 33  1  0
 23 34  1  0
M  CHG  1  18  -1
M  END
>  <UniqueID>  (2) 
2

>  <SMILES>  (2) 
O=C(c1ccc(Cl)cc1)c1ccc(-c2ccc([O-])c(Cl)c2)cc1

>  <Energy>  (2) 
49.00429549890672

>  <Genealogy>  (2) 
O=C(c1ccc(Cl)cc1)c1ccc(-c2ccc([O-])c(Cl)c2)cc1 (protonated)
O=C(c1ccc(Cl)cc1)c1ccc(-c2ccc([O-])c(Cl)c2)cc1 (3D coordinates assigned)
O=C(c1ccc(Cl)cc1)c1ccc(-c2ccc([O-])c(Cl)c2)cc1 (optimized conformer: 49.00429549890672 kcal/mol)

>  <smiles>  (2) 
O=C(c1ccc(Cl)cc1)c1ccc(-c2ccc(O)c(Cl)c2)cc1

>  <score_type>  (2) 
oracle

>  <origin>  (2) 
adg

>  <m_score__min__energy>  (2) 
-10.32

>  <m_primary>  (2) 
energy

$$$$
2:0
     RDKit          3D

 41 43  0  0  0  0  0  0  0  0999 V2000
   -0.5020   26.1160  -27.6620 C   0  0  0  0  0  0  0  0  0  0  0  0
   -0.8920   25.3230  -28.7790 O   0  0  0  0  0  0  0  0  0  0  0  0
   -1.7740   24.2340  -28.7070 C   0  0  0  0  0  0  0  0  0  0  0  0
   -1.7050   23.3960  -27.5890 C   0  0  0  0  0  0  0  0  0  0  0  0
   -2.5640   22.3000  -27.4710 C   0  0  0  0  0  0  0  0  0  0  0  0
   -3.4960   22.0280  -28.4740 C   0  0  0  0  0  0  0  0  0  0  0  0
   -3.5690   22.8460  -29.6110 C   0  0  0  0  0  0  0  0  0  0  0  0
   -4.5790   22.5590  -30.6590 C   0  0  0  0  0  0  0  0  0  0  0  0
   -5.5250   23.4790  -31.0230 C   0  0  0  0  0  0  0  0  0  0  0  0
   -5.5140   24.8720  -30.5050 C   0  0  0  0  0  0  0  0  0  0  0  0
   -6.6000   25.3800  -29.6090 C   0  0  0  0  0  0  0  0  0  0  0  0
   -4.5900   25.6590  -30.8490 O   0  0  0  0  0  0  0  0  0  0  0  0
   -6.5690   23.0630  -31.9880 C   0  0  0  0  0  0  0  0  0  0  0  0
   -7.5510   23.7920  -32.2920 O   0  0  0  0  0  0  0  0  0  0  0  0
   -6.4300   21.7700  -32.5430 N   0  0  0  0  0  0  0  0  0  0  0  0
   -7.2270   20.5350  -32.5430 C   0  0  0  0  0  0  0  0  0  0  0  0
   -8.6900   20.2600  -32.5240 C   0  0  0  0  0  0  0  0  0  0  0  0
   -6.1100   19.7330  -32.3880 C   0  0  0  0  0  0  0  0  0  0  0  0
   -5.8470   18.2770  -32.2170 C   0  0  0  0  0  0  0  0  0  0  0  0
   -5.3270   20.9260  -32.4690 C   0  0  1  0  0  0  0  0  0  0  0  0
   -4.5140   20.9980  -33.6170 O   0  0  0  0  0  0  0  0  0  0  0  0
   -4.5640   21.2350  -31.2560 N   0  0  0  0  0  0  0  0  0  0  0  0
   -2.7180   23.9590  -29.7150 C   0  0  0  0  0  0  0  0  0  0  0  0
   -0.7605   25.5903  -26.7310 H   0  0  0  0  0  0  0  0  0  0  0  0
    0.5838   26.2887  -27.6962 H   0  0  0  0  0  0  0  0  0  0  0  0
   -1.0281   27.0814  -27.6962 H   0  0  0  0  0  0  0  0  0  0  0  0
   -0.9695   23.6012  -26.7972 H   0  0  0  0  0  0  0  0  0  0  0  0
   -2.5056   21.6500  -26.5855 H   0  0  0  0  0  0  0  0  0  0  0  0
   -4.1756   21.1691  -28.3723 H   0  0  0  0  0  0  0  0  0  0  0  0
   -6.3037   25.2414  -28.5588 H   0  0  0  0  0  0  0  0  0  0  0  0
   -6.7667   26.4495  -29.8049 H   0  0  0  0  0  0  0  0  0  0  0  0
   -7.5278   24.8224  -29.8049 H   0  0  0  0  0  0  0  0  0  0  0  0
   -9.0373   20.1947  -31.4823 H   0  0  0  0  0  0  0  0  0  0  0  0
   -9.2228   21.0737  -33.0378 H   0  0  0  0  0  0  0  0  0  0  0  0
   -8.8909   19.3084  -33.0378 H   0  0  0  0  0  0  0  0  0  0  0  0
   -5.8034   18.0357  -31.1447 H   0  0  0  0  0  0  0  0  0  0  0  0
   -6.6555   17.7003  -32.6900 H   0  0  0  0  0  0  0  0  0  0  0  0
   -4.8878   18.0196  -32.6900 H   0  0  0  0  0  0  0  0  0  0  0  0
   -4.6380   21.8920  -34.0330 H   0  0  0  0  0  0  0  0  0  0  0  0
   -3.8830   20.5230  -30.9070 H   0  0  0  0  0  0  0  0  0  0  0  0
   -2.7897   24.6208  -30.5907 H   0  0  0  0  0  0  0  0  0  0  0  0
  1  2  1  0
  2  3  1  0
  3  4  2  0
  4  5  1  0
  5  6  2  0
  6  7  1  0
  7  8  1  0
  8  9  2  0
  9 10  1  0
 10 11  1  0
 10 12  2  0
  9 13  1  0
 13 14  2  0
 13 15  1  0
 15 16  1  0
 16 17  1  0
 16 18  2  0
 18 19  1  0
 18 20  1  0
 20 21  1  6
 20 22  1  0
  7 23  2  0
 23  3  1  0
 22  8  1  0
 20 15  1  0
  1 24  1  0
  1 25  1  0
  1 26  1  0
  4 27  1  0
  5 28  1  0
  6 29  1  0
 11 30  1  0
 11 31  1  0
 11 32  1  0
 17 33  1  0
 17 34  1  0
 17 35  1  0
 19 36  1  0
 19 37  1  0
 19 38  1  0
 21 39  1  0
 22 40  1  0
 23 41  1  0
M  END
>  <UniqueID>  (3) 
3

>  <SMILES>  (3) 
COc1cccc(C2=C(C(C)=O)C(=O)N3C(C)=C(C)[C@]3(O)N2)c1

>  <Energy>  (3) 
76.16970233709002

>  <Genealogy>  (3) 
COc1cccc(C2=C(C(C)=O)C(=O)N3C(C)=C(C)[C@]3(O)N2)c1 (chirality)
COc1cccc(C2=C(C(C)=O)C(=O)N3C(C)=C(C)[C@]3(O)N2)c1 (3D coordinates assigned)
COc1cccc(C2=C(C(C)=O)C(=O)N3C(C)=C(C)[C@]3(O)N2)c1 (nonaromatic ring conformer: 76.16970233709002 kcal/mol)

>  <smiles>  (3) 
COc1cccc(C2=C(C(C)=O)C(=O)N3C(C)=C(C)C3(O)N2)c1

>  <score_type>  (3) 
oracle

>  <origin>  (3) 
adg

>  <m_score__min__energy>  (3) 
-9.2899999999999991

>  <m_primary>  (3) 
energy

$$$$
3:0
     RDKit          3D

 35 37  0  0  0  0  0  0  0  0999 V2000
   -8.8620   19.6750  -32.3390 C   0  0  0  0  0  0  0  0  0  0  0  0
   -8.1550   18.8120  -31.3070 C   0  0  0  0  0  0  0  0  0  0  0  0
   -6.7630   18.7590  -31.6060 O   0  0  0  0  0  0  0  0  0  0  0  0
   -6.2100   18.1120  -32.7220 C   0  0  0  0  0  0  0  0  0  0  0  0
   -6.8820   17.0630  -33.3830 C   0  0  0  0  0  0  0  0  0  0  0  0
   -6.3100   16.4540  -34.5020 C   0  0  0  0  0  0  0  0  0  0  0  0
   -5.0670   16.8780  -34.9720 C   0  0  0  0  0  0  0  0  0  0  0  0
   -4.3900   17.9130  -34.3250 C   0  0  0  0  0  0  0  0  0  0  0  0
   -4.9550   18.5380  -33.2010 C   0  0  0  0  0  0  0  0  0  0  0  0
   -4.2380   19.5900  -32.5320 N   0  0  0  0  0  0  0  0  0  0  0  0
   -2.9460   19.5570  -32.1150 C   0  0  0  0  0  0  0  0  0  0  0  0
   -2.5580   20.7230  -31.5450 N   0  0  0  0  0  0  0  0  0  0  0  0
   -3.6470   21.5070  -31.6090 C   0  0  0  0  0  0  0  0  0  0  0  0
   -3.7960   22.8110  -31.1430 C   0  0  0  0  0  0  0  0  0  0  0  0
   -5.0580   23.4330  -31.2970 C   0  0  0  0  0  0  0  0  0  0  0  0
   -5.2610   24.7790  -30.8310 N   0  0  0  0  0  0  0  0  0  0  0  0
   -6.3860   25.1530  -30.4370 O   0  0  0  0  0  0  0  0  0  0  0  0
   -4.2200   25.6770  -30.8150 O   0  0  0  0  0  0  0  0  0  0  0  0
   -6.1220   22.7110  -31.9080 C   0  0  0  0  0  0  0  0  0  0  0  0
   -5.9330   21.3930  -32.3640 C   0  0  0  0  0  0  0  0  0  0  0  0
   -4.6680   20.8260  -32.2070 C   0  0  0  0  0  0  0  0  0  0  0  0
   -9.4789   20.4280  -31.8267 H   0  0  0  0  0  0  0  0  0  0  0  0
   -8.1147   20.1800  -32.9686 H   0  0  0  0  0  0  0  0  0  0  0  0
   -9.5042   19.0416  -32.9686 H   0  0  0  0  0  0  0  0  0  0  0  0
   -8.2989   19.2452  -30.3062 H   0  0  0  0  0  0  0  0  0  0  0  0
   -8.5741   17.7952  -31.3300 H   0  0  0  0  0  0  0  0  0  0  0  0
   -7.8614   16.7229  -33.0154 H   0  0  0  0  0  0  0  0  0  0  0  0
   -6.8410   15.6380  -35.0140 H   0  0  0  0  0  0  0  0  0  0  0  0
   -4.6197   16.3960  -35.8538 H   0  0  0  0  0  0  0  0  0  0  0  0
   -3.4084   18.2412  -34.6974 H   0  0  0  0  0  0  0  0  0  0  0  0
   -2.2887   18.6822  -32.2274 H   0  0  0  0  0  0  0  0  0  0  0  0
   -1.6220   20.9560  -31.1450 H   0  0  0  0  0  0  0  0  0  0  0  0
   -2.9573   23.3420  -30.6691 H   0  0  0  0  0  0  0  0  0  0  0  0
   -7.1053   23.1898  -32.0253 H   0  0  0  0  0  0  0  0  0  0  0  0
   -6.7551   20.8288  -32.8286 H   0  0  0  0  0  0  0  0  0  0  0  0
  1  2  1  0
  2  3  1  0
  3  4  1  0
  4  5  2  0
  5  6  1  0
  6  7  2  0
  7  8  1  0
  8  9  2  0
  9 10  1  0
 10 11  1  0
 11 12  2  0
 12 13  1  0
 13 14  2  0
 14 15  1  0
 15 16  1  0
 16 17  2  0
 16 18  1  0
 15 19  2  0
 19 20  1  0
 20 21  2  0
  9  4  1  0
 21 10  1  0
 21 13  1  0
  1 22  1  0
  1 23  1  0
  1 24  1  0
  2 25  1  0
  2 26  1  0
  5 27  1  0
  6 28  1  0
  7 29  1  0
  8 30  1  0
 11 31  1  0
 12 32  1  0
 14 33  1  0
 19 34  1  0
 20 35  1  0
M  CHG  3  12   1  16   1  18  -1
M  END
>  <UniqueID>  (4) 
4

>  <SMILES>  (4) 
CCOc1ccccc1-n1c[nH+]c2cc([N+](=O)[O-])ccc21

>  <Energy>  (4) 
79.6146342010257

>  <Genealogy>  (4) 
CCOc1ccccc1-n1c[nH+]c2cc([N+](=O)[O-])ccc21 (protonated)
CCOc1ccccc1-n1c[nH+]c2cc([N+](=O)[O-])ccc21 (3D coordinates assigned)
CCOc1ccccc1-n1c[nH+]c2cc([N+](=O)[O-])ccc21 (optimized conformer: 79.6146342010257 kcal/mol)

>  <smiles>  (4) 
CCOc1ccccc1-n1cnc2cc([N+](=O)[O-])ccc21

>  <score_type>  (4) 
oracle

>  <origin>  (4) 
adg

>  <m_score__min__energy>  (4) 
-6.9000000000000004

>  <m_primary>  (4) 
energy

$$$$
4:0
     RDKit          3D

 19 20  0  0  0  0  0  0  0  0999 V2000
   -4.7470   24.5290  -28.4370 N   0  0  0  0  0  0  0  0  0  0  0  0
   -5.1380   24.9280  -30.0730 S   0  0  0  0  0  0  0  0  0  0  0  0
   -3.8810   25.2560  -30.8290 O   0  0  0  0  0  0  0  0  0  0  0  0
   -6.0450   26.1270  -30.0900 O   0  0  0  0  0  0  0  0  0  0  0  0
   -5.9430   23.5710  -30.8380 C   0  0  0  0  0  0  0  0  0  0  0  0
   -7.2460   23.1580  -30.5640 C   0  0  0  0  0  0  0  0  0  0  0  0
   -7.6180   22.0600  -31.3440 C   0  0  0  0  0  0  0  0  0  0  0  0
   -8.8440   21.3950  -31.3290 C   0  0  0  0  0  0  0  0  0  0  0  0
   -9.0230   20.3070  -32.1980 C   0  0  0  0  0  0  0  0  0  0  0  0
   -7.9760   19.9160  -33.0560 C   0  0  0  0  0  0  0  0  0  0  0  0
   -6.7890   20.5890  -33.0490 N   0  0  0  0  0  0  0  0  0  0  0  0
   -6.6230   21.6370  -32.2070 C   0  0  0  0  0  0  0  0  0  0  0  0
   -5.2550   22.5950  -32.0400 S   0  0  0  0  0  0  0  0  0  0  0  0
   -5.5830   24.0500  -28.0330 H   0  0  0  0  0  0  0  0  0  0  0  0
   -4.6380   25.4310  -27.9210 H   0  0  0  0  0  0  0  0  0  0  0  0
   -7.9020   23.6385  -29.8232 H   0  0  0  0  0  0  0  0  0  0  0  0
   -9.6506   21.7151  -30.6530 H   0  0  0  0  0  0  0  0  0  0  0  0
   -9.9780   19.7613  -32.2090 H   0  0  0  0  0  0  0  0  0  0  0  0
   -8.1164   19.0627  -33.7359 H   0  0  0  0  0  0  0  0  0  0  0  0
  1  2  1  0
  2  3  2  0
  2  4  2  0
  2  5  1  0
  5  6  2  0
  6  7  1  0
  7  8  2  0
  8  9  1  0
  9 10  2  0
 10 11  1  0
 11 12  2  0
 12 13  1  0
 13  5  1  0
 12  7  1  0
  1 14  1  0
  1 15  1  0
  6 16  1  0
  8 17  1  0
  9 18  1  0
 10 19  1  0
M  END
>  <UniqueID>  (5) 
5

>  <SMILES>  (5) 
NS(=O)(=O)c1cc2cccnc2s1

>  <Energy>  (5) 
50.76798514793545

>  <Genealogy>  (5) 
NS(=O)(=O)c1cc2cccnc2s1 (3D coordinates assigned)
NS(=O)(=O)c1cc2cccnc2s1 (optimized conformer: 50.76798514793545 kcal/mol)

>  <smiles>  (5) 
NS(=O)(=O)c1cc2cccnc2s1

>  <score_type>  (5) 
oracle

>  <origin>  (5) 
adg

>  <m_score__min__energy>  (5) 
-7.54

>  <m_primary>  (5) 
energy

$$$$
5:0
     RDKit          3D

 32 34  0  0  0  0  0  0  0  0999 V2000
   -3.4700   25.2920  -30.5150 O   0  0  0  0  0  0  0  0  0  0  0  0
   -4.7630   24.7840  -30.5240 C   0  0  0  0  0  0  0  0  0  0  0  0
   -5.7980   25.5010  -29.9150 C   0  0  0  0  0  0  0  0  0  0  0  0
   -7.0990   24.9980  -29.9330 C   0  0  0  0  0  0  0  0  0  0  0  0
   -7.3710   23.7740  -30.5530 C   0  0  0  0  0  0  0  0  0  0  0  0
   -6.3380   23.0340  -31.1580 C   0  0  0  0  0  0  0  0  0  0  0  0
   -6.6470   21.7390  -31.8190 C   0  0  0  0  0  0  0  0  0  0  0  0
   -7.9640   21.2610  -31.9300 C   0  0  0  0  0  0  0  0  0  0  0  0
   -8.2010   20.0470  -32.5760 C   0  0  0  0  0  0  0  0  0  0  0  0
   -7.1360   19.3160  -33.1050 C   0  0  0  0  0  0  0  0  0  0  0  0
   -5.8290   19.8110  -32.9760 C   0  0  0  0  0  0  0  0  0  0  0  0
   -4.6680   19.0890  -33.5450 C   0  0  0  0  0  0  0  0  0  0  0  0
   -3.3710   19.4650  -33.1550 C   0  0  0  0  0  0  0  0  0  0  0  0
   -2.2530   18.8070  -33.6760 C   0  0  0  0  0  0  0  0  0  0  0  0
   -2.4160   17.7580  -34.5870 C   0  0  0  0  0  0  0  0  0  0  0  0
   -1.3080   17.0970  -35.1150 O   0  0  0  0  0  0  0  0  0  0  0  0
   -3.7000   17.3630  -34.9680 C   0  0  0  0  0  0  0  0  0  0  0  0
   -4.8260   18.0130  -34.4470 C   0  0  0  0  0  0  0  0  0  0  0  0
   -6.0910   17.5620  -34.8100 O   0  0  0  0  0  0  0  0  0  0  0  0
   -5.6300   21.0060  -32.3530 N   0  0  0  0  0  0  0  0  0  0  0  0
   -5.0290   23.5580  -31.1440 C   0  0  0  0  0  0  0  0  0  0  0  0
   -5.5862   26.4612  -29.4220 H   0  0  0  0  0  0  0  0  0  0  0  0
   -7.9131   25.5654  -29.4584 H   0  0  0  0  0  0  0  0  0  0  0  0
   -8.4005   23.3867  -30.5678 H   0  0  0  0  0  0  0  0  0  0  0  0
   -8.8009   21.8390  -31.5112 H   0  0  0  0  0  0  0  0  0  0  0  0
   -9.2286   19.6655  -32.6685 H   0  0  0  0  0  0  0  0  0  0  0  0
   -7.3194   18.3606  -33.6184 H   0  0  0  0  0  0  0  0  0  0  0  0
   -3.2345   20.2841  -32.4336 H   0  0  0  0  0  0  0  0  0  0  0  0
   -1.2426   19.1149  -33.3688 H   0  0  0  0  0  0  0  0  0  0  0  0
   -1.2630   16.8380  -36.0940 H   0  0  0  0  0  0  0  0  0  0  0  0
   -3.8280   16.5360  -35.6819 H   0  0  0  0  0  0  0  0  0  0  0  0
   -4.2116   22.9994  -31.6235 H   0  0  0  0  0  0  0  0  0  0  0  0
  1  2  1  0
  2  3  2  0
  3  4  1  0
  4  5  2  0
  5  6  1  0
  6  7  1  0
  7  8  2  0
  8  9  1  0
  9 10  2  0
 10 11  1  0
 11 12  1  0
 12 13  2  0
 13 14  1  0
 14 15  2  0
 15 16  1  0
 15 17  1  0
 17 18  2  0
 18 19  1  0
 11 20  2  0
  6 21  2  0
 21  2  1  0
 20  7  1  0
 18 12  1  0
  3 22  1  0
  4 23  1  0
  5 24  1  0
  8 25  1  0
  9 26  1  0
 10 27  1  0
 13 28  1  0
 14 29  1  0
 16 30  1  0
 17 31  1  0
 21 32  1  0
M  CHG  2   1  -1  19  -1
M  END
>  <UniqueID>  (6) 
6

>  <SMILES>  (6) 
[O-]c1cccc(-c2cccc(-c3ccc(O)cc3[O-])n2)c1

>  <Energy>  (6) 
45.09524731268016

>  <Genealogy>  (6) 
[O-]c1cccc(-c2cccc(-c3ccc(O)cc3[O-])n2)c1 (protonated)
[O-]c1cccc(-c2cccc(-c3ccc(O)cc3[O-])n2)c1 (3D coordinates assigned)
[O-]c1cccc(-c2cccc(-c3ccc(O)cc3[O-])n2)c1 (optimized conformer: 45.09524731268016 kcal/mol)

>  <smiles>  (6) 
Oc1cccc(-c2cccc(-c3ccc(O)cc3O)n2)c1

>  <score_type>  (6) 
oracle

>  <origin>  (6) 
adg

>  <m_score__min__energy>  (6) 
-10.449999999999999

>  <m_primary>  (6) 
energy

$$$$
6:0
     RDKit          3D

 33 35  0  0  1  0  0  0  0  0999 V2000
   -8.7240   18.8360  -31.4910 C   0  0  0  0  0  0  0  0  0  0  0  0
   -8.2330   17.8800  -32.3200 N   0  0  0  0  0  0  0  0  0  0  0  0
   -7.1540   18.1380  -33.0780 C   0  0  0  0  0  0  0  0  0  0  0  0
   -6.4390   17.4410  -33.9730 N   0  0  0  0  0  0  0  0  0  0  0  0
   -5.4200   18.2140  -34.4520 C   0  0  0  0  0  0  0  0  0  0  0  0
   -5.5440   19.3930  -33.8200 N   0  0  0  0  0  0  0  0  0  0  0  0
   -6.5880   19.3930  -32.9730 C   0  0  0  0  0  0  0  0  0  0  0  0
   -7.0870   20.3680  -32.1300 C   0  0  0  0  0  0  0  0  0  0  0  0
   -6.5470   21.5340  -32.0430 N   0  0  0  0  0  0  0  0  0  0  0  0
   -7.1600   22.6150  -31.2710 C   0  0  0  0  0  0  0  0  0  0  0  0
   -6.0690   23.4550  -30.6470 C   0  0  0  0  0  0  0  0  0  0  0  0
   -4.6940   22.9710  -31.0290 C   0  0  0  0  0  0  0  0  0  0  0  0
   -3.6910   23.7700  -30.2110 C   0  0  0  0  0  0  0  0  0  0  0  0
   -3.7990   25.1880  -30.4770 N   0  0  0  0  0  0  0  0  0  0  0  0
   -5.1430   25.6850  -30.3130 C   0  0  0  0  0  0  0  0  0  0  0  0
   -6.1570   24.9000  -31.0860 C   0  0  0  0  0  0  0  0  0  0  0  0
   -8.1640   20.0570  -31.3960 N   0  0  0  0  0  0  0  0  0  0  0  0
   -9.6074   18.6061  -30.8772 H   0  0  0  0  0  0  0  0  0  0  0  0
   -6.6080   16.4540  -34.2790 H   0  0  0  0  0  0  0  0  0  0  0  0
   -4.6605   17.9317  -35.1959 H   0  0  0  0  0  0  0  0  0  0  0  0
   -7.7728   23.2414  -31.9360 H   0  0  0  0  0  0  0  0  0  0  0  0
   -7.7997   22.1918  -30.4825 H   0  0  0  0  0  0  0  0  0  0  0  0
   -6.2195   23.3660  -29.5610 H   0  0  0  0  0  0  0  0  0  0  0  0
   -4.5957   21.8990  -30.8027 H   0  0  0  0  0  0  0  0  0  0  0  0
   -4.5172   23.1093  -32.1059 H   0  0  0  0  0  0  0  0  0  0  0  0
   -3.8789   23.5916  -29.1419 H   0  0  0  0  0  0  0  0  0  0  0  0
   -2.6788   23.4426  -30.4909 H   0  0  0  0  0  0  0  0  0  0  0  0
   -3.1870   25.6750  -29.7920 H   0  0  0  0  0  0  0  0  0  0  0  0
   -5.4051   25.6405  -29.2456 H   0  0  0  0  0  0  0  0  0  0  0  0
   -5.1616   26.7150  -30.6986 H   0  0  0  0  0  0  0  0  0  0  0  0
   -7.1649   25.2906  -30.8822 H   0  0  0  0  0  0  0  0  0  0  0  0
   -5.9601   24.9825  -32.1651 H   0  0  0  0  0  0  0  0  0  0  0  0
   -8.5670   20.7650  -30.7510 H   0  0  0  0  0  0  0  0  0  0  0  0
  1  2  2  0
  2  3  1  0
  3  4  1  0
  4  5  1  0
  5  6  2  0
  6  7  1  0
  7  8  1  0
  8  9  2  0
  9 10  1  0
 10 11  1  0
 11 12  1  0
 12 13  1  0
 13 14  1  0
 14 15  1  0
 15 16  1  0
  8 17  1  0
 17  1  1  0
  7  3  2  0
 16 11  1  0
  1 18  1  0
  4 19  1  0
  5 20  1  0
 10 21  1  0
 10 22  1  0
 11 23  1  0
 12 24  1  0
 12 25  1  0
 13 26  1  0
 13 27  1  0
 14 28  1  0
 15 29  1  0
 15 30  1  0
 16 31  1  0
 16 32  1  0
 17 33  1  0
M  END
>  <smiles>  (7) 
c1nc2[nH]cnc2c(=NCC2CCNCC2)[nH]1

>  <score_type>  (7) 
oracle

>  <origin>  (7) 
adg

>  <m_score__min__energy>  (7) 
-7.0199999999999996

>  <m_primary>  (7) 
energy

$$$$
7:0
     RDKit          3D

 29 30  0  0  0  0  0  0  0  0999 V2000
   -3.4880   24.3020  -27.2990 C   0  0  0  0  0  0  0  0  0  0  0  0
   -2.7450   23.5900  -28.3790 C   0  0  0  0  0  0  0  0  0  0  0  0
   -2.0030   22.4820  -28.1830 N   0  0  0  0  0  0  0  0  0  0  0  0
   -1.5570   22.0880  -29.3690 N   0  0  0  0  0  0  0  0  0  0  0  0
   -0.7750   20.8780  -29.5790 C   0  0  0  0  0  0  0  0  0  0  0  0
   -2.0250   22.8990  -30.3380 C   0  0  0  0  0  0  0  0  0  0  0  0
   -2.7870   23.8710  -29.7280 C   0  0  0  0  0  0  0  0  0  0  0  0
   -3.5280   24.9240  -30.3510 N   0  0  0  0  0  0  0  0  0  0  0  0
   -5.2580   24.9450  -30.4160 S   0  0  0  0  0  0  0  0  0  0  0  0
   -5.7020   26.1470  -31.2000 O   0  0  0  0  0  0  0  0  0  0  0  0
   -5.8030   25.0380  -29.0190 O   0  0  0  0  0  0  0  0  0  0  0  0
   -5.8500   23.4650  -31.1650 C   0  0  0  0  0  0  0  0  0  0  0  0
   -4.9670   22.6140  -31.8430 C   0  0  0  0  0  0  0  0  0  0  0  0
   -5.4390   21.4340  -32.4240 C   0  0  0  0  0  0  0  0  0  0  0  0
   -6.7940   21.0960  -32.3350 C   0  0  0  0  0  0  0  0  0  0  0  0
   -7.3500   19.6000  -33.0760 Cl  0  0  0  0  0  0  0  0  0  0  0  0
   -7.6840   21.9500  -31.6600 C   0  0  0  0  0  0  0  0  0  0  0  0
   -9.3930   21.5630  -31.5240 Cl  0  0  0  0  0  0  0  0  0  0  0  0
   -7.2080   23.1320  -31.0810 C   0  0  0  0  0  0  0  0  0  0  0  0
   -3.1285   23.9575  -26.3181 H   0  0  0  0  0  0  0  0  0  0  0  0
   -3.3203   25.3852  -27.3913 H   0  0  0  0  0  0  0  0  0  0  0  0
   -4.5631   24.0883  -27.3913 H   0  0  0  0  0  0  0  0  0  0  0  0
   -0.4969   20.4476  -28.6056 H   0  0  0  0  0  0  0  0  0  0  0  0
   -1.3730   20.1486  -30.1450 H   0  0  0  0  0  0  0  0  0  0  0  0
    0.1357   21.1236  -30.1450 H   0  0  0  0  0  0  0  0  0  0  0  0
   -1.8338   22.8027  -31.4170 H   0  0  0  0  0  0  0  0  0  0  0  0
   -3.9011   22.8751  -31.9180 H   0  0  0  0  0  0  0  0  0  0  0  0
   -4.7422   20.7678  -32.9537 H   0  0  0  0  0  0  0  0  0  0  0  0
   -7.9043   23.8033  -30.5570 H   0  0  0  0  0  0  0  0  0  0  0  0
  1  2  1  0
  2  3  2  0
  3  4  1  0
  4  5  1  0
  4  6  1  0
  6  7  2  0
  7  8  1  0
  8  9  1  0
  9 10  2  0
  9 11  2  0
  9 12  1  0
 12 13  2  0
 13 14  1  0
 14 15  2  0
 15 16  1  0
 15 17  1  0
 17 18  1  0
 17 19  2  0
  7  2  1  0
 19 12  1  0
  1 20  1  0
  1 21  1  0
  1 22  1  0
  5 23  1  0
  5 24  1  0
  5 25  1  0
  6 26  1  0
 13 27  1  0
 14 28  1  0
 19 29  1  0
M  CHG  1   8  -1
M  END
>  <UniqueID>  (8) 
7

>  <SMILES>  (8) 
Cc1nn(C)cc1[N-]S(=O)(=O)c1ccc(Cl)c(Cl)c1

>  <Energy>  (8) 
60.45254896610201

>  <Genealogy>  (8) 
Cc1nn(C)cc1[N-]S(=O)(=O)c1ccc(Cl)c(Cl)c1 (protonated)
Cc1nn(C)cc1[N-]S(=O)(=O)c1ccc(Cl)c(Cl)c1 (3D coordinates assigned)
Cc1nn(C)cc1[N-]S(=O)(=O)c1ccc(Cl)c(Cl)c1 (optimized conformer: 60.45254896610201 kcal/mol)

>  <smiles>  (8) 
Cc1nn(C)cc1NS(=O)(=O)c1ccc(Cl)c(Cl)c1

>  <score_type>  (8) 
oracle

>  <origin>  (8) 
adg

>  <m_score__min__energy>  (8) 
-8.8599999999999994

>  <m_primary>  (8) 
energy

$$$$
8:0
     RDKit          3D

 50 51  0  0  0  0  0  0  0  0999 V2000
   -0.2200   29.6060  -27.5010 C   0  0  0  0  0  0  0  0  0  0  0  0
   -0.4510   28.2050  -27.6020 O   0  0  0  0  0  0  0  0  0  0  0  0
   -0.6540   27.3470  -26.5080 C   0  0  0  0  0  0  0  0  0  0  0  0
   -0.6870   27.8370  -25.1860 C   0  0  0  0  0  0  0  0  0  0  0  0
   -0.8300   26.9620  -24.1090 C   0  0  0  0  0  0  0  0  0  0  0  0
   -0.9560   25.5920  -24.3330 C   0  0  0  0  0  0  0  0  0  0  0  0
   -0.9380   25.0930  -25.6360 C   0  0  0  0  0  0  0  0  0  0  0  0
   -0.8030   25.9600  -26.7340 C   0  0  0  0  0  0  0  0  0  0  0  0
   -0.7970   25.3830  -28.1020 C   0  0  0  0  0  0  0  0  0  0  0  0
    0.2590   24.8490  -28.5350 O   0  0  0  0  0  0  0  0  0  0  0  0
   -1.9390   25.4330  -28.9690 N   0  0  0  0  0  0  0  0  0  0  0  0
   -3.0800   24.5610  -28.9570 C   0  0  0  0  0  0  0  0  0  0  0  0
   -3.1360   23.5550  -27.9910 C   0  0  0  0  0  0  0  0  0  0  0  0
   -4.2090   22.6710  -27.9630 C   0  0  0  0  0  0  0  0  0  0  0  0
   -5.2350   22.8090  -28.8960 C   0  0  0  0  0  0  0  0  0  0  0  0
   -5.2110   23.8200  -29.8180 N   0  0  0  0  0  0  0  0  0  0  0  0
   -6.3070   23.8980  -30.7990 C   0  0  0  0  0  0  0  0  0  0  0  0
   -6.0400   23.0070  -31.9790 C   0  0  0  0  0  0  0  0  0  0  0  0
   -5.4030   23.4490  -32.9730 O   0  0  0  0  0  0  0  0  0  0  0  0
   -6.5470   21.6660  -31.9820 N   0  0  0  0  0  0  0  0  0  0  0  0
   -6.3180   20.7280  -33.0820 C   0  0  0  0  0  0  0  0  0  0  0  0
   -7.3830   19.6270  -33.0950 C   0  0  0  0  0  0  0  0  0  0  0  0
   -8.3150   19.7700  -31.9550 N   0  0  0  0  0  0  0  0  0  0  0  0
   -9.4200   20.6850  -32.2910 C   0  0  0  0  0  0  0  0  0  0  0  0
   -8.8620   18.4600  -31.5690 C   0  0  0  0  0  0  0  0  0  0  0  0
   -4.1590   24.7020  -29.8570 C   0  0  0  0  0  0  0  0  0  0  0  0
   -4.1640   25.6570  -30.6820 O   0  0  0  0  0  0  0  0  0  0  0  0
   -0.1725   29.8943  -26.4405 H   0  0  0  0  0  0  0  0  0  0  0  0
    0.7317   29.8571  -27.9922 H   0  0  0  0  0  0  0  0  0  0  0  0
   -1.0407   30.1493  -27.9922 H   0  0  0  0  0  0  0  0  0  0  0  0
   -0.5993   28.9180  -25.0026 H   0  0  0  0  0  0  0  0  0  0  0  0
   -0.8433   27.3538  -23.0812 H   0  0  0  0  0  0  0  0  0  0  0  0
   -1.0697   24.9040  -23.4823 H   0  0  0  0  0  0  0  0  0  0  0  0
   -1.0304   24.0101  -25.8056 H   0  0  0  0  0  0  0  0  0  0  0  0
   -2.3288   23.4612  -27.2496 H   0  0  0  0  0  0  0  0  0  0  0  0
   -4.2477   21.8694  -27.2107 H   0  0  0  0  0  0  0  0  0  0  0  0
   -6.0736   22.0972  -28.8913 H   0  0  0  0  0  0  0  0  0  0  0  0
   -7.2443   23.5841  -30.3164 H   0  0  0  0  0  0  0  0  0  0  0  0
   -6.3846   24.9359  -31.1549 H   0  0  0  0  0  0  0  0  0  0  0  0
   -7.0520   21.3170  -31.1360 H   0  0  0  0  0  0  0  0  0  0  0  0
   -6.3550   21.2756  -34.0353 H   0  0  0  0  0  0  0  0  0  0  0  0
   -5.3319   20.2603  -32.9443 H   0  0  0  0  0  0  0  0  0  0  0  0
   -7.9525   19.6899  -34.0340 H   0  0  0  0  0  0  0  0  0  0  0  0
   -6.8781   18.6533  -33.0118 H   0  0  0  0  0  0  0  0  0  0  0  0
   -9.8771   21.0635  -31.3648 H   0  0  0  0  0  0  0  0  0  0  0  0
   -9.0311   21.5290  -32.8795 H   0  0  0  0  0  0  0  0  0  0  0  0
  -10.1767   20.1455  -32.8795 H   0  0  0  0  0  0  0  0  0  0  0  0
   -8.8935   18.3846  -30.4720 H   0  0  0  0  0  0  0  0  0  0  0  0
   -9.8796   18.3540  -31.9732 H   0  0  0  0  0  0  0  0  0  0  0  0
   -8.2220   17.6619  -31.9732 H   0  0  0  0  0  0  0  0  0  0  0  0
  1  2  1  0
  2  3  1  0
  3  4  2  0
  4  5  1  0
  5  6  2  0
  6  7  1  0
  7  8  2  0
  8  9  1  0
  9 10  2  0
  9 11  1  0
 11 12  1  0
 12 13  2  0
 13 14  1  0
 14 15  2  0
 15 16  1  0
 16 17  1  0
 17 18  1  0
 18 19  2  0
 18 20  1  0
 20 21  1  0
 21 22  1  0
 22 23  1  0
 23 24  1  0
 23 25  1  0
 16 26  1  0
 26 27  2  0
  8  3  1  0
 26 12  1  0
  1 28  1  0
  1 29  1  0
  1 30  1  0
  4 31  1  0
  5 32  1  0
  6 33  1  0
  7 34  1  0
 13 35  1  0
 14 36  1  0
 15 37  1  0
 17 38  1  0
 17 39  1  0
 20 40  1  0
 21 41  1  0
 21 42  1  0
 22 43  1  0
 22 44  1  0
 24 45  1  0
 24 46  1  0
 24 47  1  0
 25 48  1  0
 25 49  1  0
 25 50  1  0
M  CHG  1  11  -1
M  END
>  <UniqueID>  (9) 
8

>  <SMILES>  (9) 
COc1ccccc1C(=O)[N-]c1cccn(CC(=O)NCCN(C)C)c1=O

>  <Energy>  (9) 
55.17789890453717

>  <Genealogy>  (9) 
COc1ccccc1C(=O)[N-]c1cccn(CC(=O)NCCN(C)C)c1=O (protonated)
COc1ccccc1C(=O)[N-]c1cccn(CC(=O)NCCN(C)C)c1=O (3D coordinates assigned)
COc1ccccc1C(=O)[N-]c1cccn(CC(=O)NCCN(C)C)c1=O (optimized conformer: 55.17789890453717 kcal/mol)

>  <smiles>  (9) 
COc1ccccc1C(=O)Nc1cccn(CC(=O)NCCN(C)C)c1=O

>  <score_type>  (9) 
oracle

>  <origin>  (9) 
adg

>  <m_score__min__energy>  (9) 
-9.4800000000000004

>  <m_primary>  (9) 
energy

$$$$
9:0
     RDKit          3D

 38 39  0  0  0  0  0  0  0  0999 V2000
   -2.9620   21.8410  -32.1060 C   0  0  0  0  0  0  0  0  0  0  0  0
   -2.2170   21.9200  -30.4910 S   0  0  0  0  0  0  0  0  0  0  0  0
   -0.8710   22.5830  -30.5930 O   0  0  0  0  0  0  0  0  0  0  0  0
   -2.0340   20.5190  -29.9770 O   0  0  0  0  0  0  0  0  0  0  0  0
   -3.2530   22.8190  -29.3410 C   0  0  0  0  0  0  0  0  0  0  0  0
   -2.9510   24.3220  -29.3340 C   0  0  0  0  0  0  0  0  0  0  0  0
   -3.5220   24.9840  -30.5000 N   0  0  0  0  0  0  0  0  0  0  0  0
   -4.9260   25.1920  -30.6930 C   0  0  0  0  0  0  0  0  0  0  0  0
   -5.3750   26.3660  -30.8120 O   0  0  0  0  0  0  0  0  0  0  0  0
   -5.8470   24.0340  -30.7510 C   0  0  0  0  0  0  0  0  0  0  0  0
   -5.9480   23.2640  -31.9240 C   0  0  0  0  0  0  0  0  0  0  0  0
   -6.8110   22.1670  -31.9680 C   0  0  0  0  0  0  0  0  0  0  0  0
   -6.9030   21.4270  -33.1560 O   0  0  0  0  0  0  0  0  0  0  0  0
   -6.7530   20.0360  -33.2620 C   0  0  0  0  0  0  0  0  0  0  0  0
   -5.6670   19.5310  -33.9870 C   0  0  0  0  0  0  0  0  0  0  0  0
   -5.4740   18.1500  -34.1020 C   0  0  0  0  0  0  0  0  0  0  0  0
   -6.3600   17.2660  -33.4810 C   0  0  0  0  0  0  0  0  0  0  0  0
   -6.1720   15.9270  -33.5900 F   0  0  0  0  0  0  0  0  0  0  0  0
   -7.4360   17.7620  -32.7390 C   0  0  0  0  0  0  0  0  0  0  0  0
   -7.6310   19.1410  -32.6230 C   0  0  0  0  0  0  0  0  0  0  0  0
   -7.5920   21.8660  -30.8430 C   0  0  0  0  0  0  0  0  0  0  0  0
   -7.4730   22.6500  -29.6950 C   0  0  0  0  0  0  0  0  0  0  0  0
   -6.6110   23.7030  -29.6670 N   0  0  0  0  0  0  0  0  0  0  0  0
   -4.0510   21.7255  -32.0022 H   0  0  0  0  0  0  0  0  0  0  0  0
   -2.7424   22.7675  -32.6568 H   0  0  0  0  0  0  0  0  0  0  0  0
   -2.5530   20.9812  -32.6568 H   0  0  0  0  0  0  0  0  0  0  0  0
   -4.3056   22.6715  -29.6242 H   0  0  0  0  0  0  0  0  0  0  0  0
   -3.0488   22.4313  -28.3321 H   0  0  0  0  0  0  0  0  0  0  0  0
   -3.3779   24.7687  -28.4239 H   0  0  0  0  0  0  0  0  0  0  0  0
   -1.8595   24.4562  -29.3594 H   0  0  0  0  0  0  0  0  0  0  0  0
   -5.3468   23.5262  -32.8071 H   0  0  0  0  0  0  0  0  0  0  0  0
   -4.9615   20.2238  -34.4689 H   0  0  0  0  0  0  0  0  0  0  0  0
   -4.6243   17.7601  -34.6816 H   0  0  0  0  0  0  0  0  0  0  0  0
   -8.1302   17.0658  -32.2457 H   0  0  0  0  0  0  0  0  0  0  0  0
   -8.4732   19.5279  -32.0305 H   0  0  0  0  0  0  0  0  0  0  0  0
   -8.2929   21.0185  -30.8654 H   0  0  0  0  0  0  0  0  0  0  0  0
   -8.0792   22.4158  -28.8075 H   0  0  0  0  0  0  0  0  0  0  0  0
   -6.5530   24.2620  -28.7870 H   0  0  0  0  0  0  0  0  0  0  0  0
  1  2  1  0
  2  3  2  0
  2  4  2  0
  2  5  1  0
  5  6  1  0
  6  7  1  0
  7  8  1  0
  8  9  2  0
  8 10  1  0
 10 11  2  0
 11 12  1  0
 12 13  1  0
 13 14  1  0
 14 15  2  0
 15 16  1  0
 16 17  2  0
 17 18  1  0
 17 19  1  0
 19 20  2  0
 12 21  2  0
 21 22  1  0
 22 23  2  0
 23 10  1  0
 20 14  1  0
  1 24  1  0
  1 25  1  0
  1 26  1  0
  5 27  1  0
  5 28  1  0
  6 29  1  0
  6 30  1  0
 11 31  1  0
 15 32  1  0
 16 33  1  0
 19 34  1  0
 20 35  1  0
 21 36  1  0
 22 37  1  0
 23 38  1  0
M  CHG  2   7  -1  23   1
M  END
>  <UniqueID>  (10) 
9

>  <SMILES>  (10) 
CS(=O)(=O)CC[N-]C(=O)c1cc(Oc2ccc(F)cc2)cc[nH+]1

>  <Energy>  (10) 
34.342038936777115

>  <Genealogy>  (10) 
CS(=O)(=O)CC[N-]C(=O)c1cc(Oc2ccc(F)cc2)cc[nH+]1 (protonated)
CS(=O)(=O)CC[N-]C(=O)c1cc(Oc2ccc(F)cc2)cc[nH+]1 (3D coordinates assigned)
CS(=O)(=O)CC[N-]C(=O)c1cc(Oc2ccc(F)cc2)cc[nH+]1 (optimized conformer: 34.342038936777115 kcal/mol)

>  <smiles>  (10) 
CS(=O)(=O)CCNC(=O)c1cc(Oc2ccc(F)cc2)ccn1

>  <score_type>  (10) 
oracle

>  <origin>  (10) 
adg

>  <m_score__min__energy>  (10) 
-9.1099999999999994

>  <m_primary>  (10) 
energy

$$$$
10:0
     RDKit          3D

 55 59  0  0  0  0  0  0  0  0999 V2000
   -0.6550   18.8720  -31.0650 C   0  0  0  0  0  0  0  0  0  0  0  0
   -0.6190   19.7880  -32.2620 C   0  0  0  0  0  0  0  0  0  0  0  0
    0.5890   20.4420  -32.5650 C   0  0  0  0  0  0  0  0  0  0  0  0
    0.6940   21.2560  -33.6950 C   0  0  0  0  0  0  0  0  0  0  0  0
   -0.4050   21.4270  -34.5370 C   0  0  0  0  0  0  0  0  0  0  0  0
   -1.6200   20.8060  -34.2390 C   0  0  0  0  0  0  0  0  0  0  0  0
   -1.7530   20.0070  -33.0890 C   0  0  0  0  0  0  0  0  0  0  0  0
   -3.0780   19.4150  -32.8060 C   0  0  0  0  0  0  0  0  0  0  0  0
   -3.3400   18.0860  -32.8640 N   0  0  0  0  0  0  0  0  0  0  0  0
   -4.6440   17.9430  -32.6460 N   0  0  0  0  0  0  0  0  0  0  0  0
   -5.1640   19.1740  -32.4780 C   0  0  0  0  0  0  0  0  0  0  0  0
   -6.4980   19.5410  -32.2960 C   0  0  0  0  0  0  0  0  0  0  0  0
   -6.7690   20.9320  -32.1580 C   0  0  0  0  0  0  0  0  0  0  0  0
   -5.7050   21.8600  -32.3220 C   0  0  0  0  0  0  0  0  0  0  0  0
   -5.9800   23.6360  -32.3100 S   0  0  0  0  0  0  0  0  0  0  0  0
   -5.7100   23.8040  -30.5160 C   0  0  0  0  0  0  0  0  0  0  0  0
   -4.2690   24.1270  -30.2650 C   0  0  0  0  0  0  0  0  0  0  0  0
   -3.8560   25.2990  -30.4940 O   0  0  0  0  0  0  0  0  0  0  0  0
   -3.3400   23.1130  -29.8370 N   0  0  0  0  0  0  0  0  0  0  0  0
   -1.9030   23.3170  -29.8220 C   0  0  0  0  0  0  0  0  0  0  0  0
   -1.2980   21.9460  -29.5640 C   0  0  0  0  0  0  0  0  0  0  0  0
   -2.4280   21.0940  -28.9940 C   0  0  0  0  0  0  0  0  0  0  0  0
   -3.7210   21.7770  -29.4150 C   0  0  0  0  0  0  0  0  0  0  0  0
   -4.4380   21.4080  -32.5410 N   0  0  0  0  0  0  0  0  0  0  0  0
   -4.2120   20.0990  -32.5730 N   0  0  0  0  0  0  0  0  0  0  0  0
   -8.1880   21.4270  -31.9630 C   0  0  0  0  0  0  0  0  0  0  0  0
   -9.1560   20.3220  -31.5320 C   0  0  0  0  0  0  0  0  0  0  0  0
   -8.9810   19.0790  -32.3950 C   0  0  0  0  0  0  0  0  0  0  0  0
   -7.5800   18.4910  -32.1930 C   0  0  0  0  0  0  0  0  0  0  0  0
   -0.6314   19.4720  -30.1433 H   0  0  0  0  0  0  0  0  0  0  0  0
   -1.5774   18.2731  -31.0892 H   0  0  0  0  0  0  0  0  0  0  0  0
    0.2175   18.2026  -31.0892 H   0  0  0  0  0  0  0  0  0  0  0  0
    1.4595   20.3110  -31.9054 H   0  0  0  0  0  0  0  0  0  0  0  0
    1.6438   21.7626  -33.9212 H   0  0  0  0  0  0  0  0  0  0  0  0
   -0.3145   22.0522  -35.4375 H   0  0  0  0  0  0  0  0  0  0  0  0
   -2.4809   20.9430  -34.9099 H   0  0  0  0  0  0  0  0  0  0  0  0
   -5.1470   17.0280  -32.6360 H   0  0  0  0  0  0  0  0  0  0  0  0
   -6.3428   24.6132  -30.1225 H   0  0  0  0  0  0  0  0  0  0  0  0
   -5.9717   22.8618  -30.0122 H   0  0  0  0  0  0  0  0  0  0  0  0
   -1.5611   23.7116  -30.7902 H   0  0  0  0  0  0  0  0  0  0  0  0
   -1.6033   24.0452  -29.0540 H   0  0  0  0  0  0  0  0  0  0  0  0
   -0.9247   21.5093  -30.5020 H   0  0  0  0  0  0  0  0  0  0  0  0
   -0.4452   22.0034  -28.8716 H   0  0  0  0  0  0  0  0  0  0  0  0
   -2.3828   20.0746  -29.4049 H   0  0  0  0  0  0  0  0  0  0  0  0
   -2.3554   21.0079  -27.8998 H   0  0  0  0  0  0  0  0  0  0  0  0
   -4.1899   21.2311  -30.2469 H   0  0  0  0  0  0  0  0  0  0  0  0
   -4.4523   21.8036  -28.5937 H   0  0  0  0  0  0  0  0  0  0  0  0
   -8.1827   22.2090  -31.1894 H   0  0  0  0  0  0  0  0  0  0  0  0
   -8.5380   21.8094  -32.9332 H   0  0  0  0  0  0  0  0  0  0  0  0
   -8.9604   20.0615  -30.4814 H   0  0  0  0  0  0  0  0  0  0  0  0
  -10.1856   20.6905  -31.6512 H   0  0  0  0  0  0  0  0  0  0  0  0
   -9.7346   18.3297  -32.1109 H   0  0  0  0  0  0  0  0  0  0  0  0
   -9.1071   19.3541  -33.4526 H   0  0  0  0  0  0  0  0  0  0  0  0
   -7.5306   18.0285  -31.1962 H   0  0  0  0  0  0  0  0  0  0  0  0
   -7.4076   17.7504  -32.9879 H   0  0  0  0  0  0  0  0  0  0  0  0
  1  2  1  0
  2  3  2  0
  3  4  1  0
  4  5  2  0
  5  6  1  0
  6  7  2  0
  7  8  1  0
  8  9  2  0
  9 10  1  0
 10 11  2  0
 11 12  1  0
 12 13  2  0
 13 14  1  0
 14 15  1  0
 15 16  1  0
 16 17  1  0
 17 18  2  0
 17 19  1  0
 19 20  1  0
 20 21  1  0
 21 22  1  0
 22 23  1  0
 14 24  2  0
 24 25  1  0
 13 26  1  0
 26 27  1  0
 27 28  1  0
 28 29  1  0
  7  2  1  0
 25  8  1  0
 25 11  1  0
 29 12  1  0
 23 19  1  0
  1 30  1  0
  1 31  1  0
  1 32  1  0
  3 33  1  0
  4 34  1  0
  5 35  1  0
  6 36  1  0
 10 37  1  0
 16 38  1  0
 16 39  1  0
 20 40  1  0
 20 41  1  0
 21 42  1  0
 21 43  1  0
 22 44  1  0
 22 45  1  0
 23 46  1  0
 23 47  1  0
 26 48  1  0
 26 49  1  0
 27 50  1  0
 27 51  1  0
 28 52  1  0
 28 53  1  0
 29 54  1  0
 29 55  1  0
M  CHG  1  10   1
M  END
>  <UniqueID>  (11) 
10

>  <SMILES>  (11) 
Cc1ccccc1-c1n[nH+]c2c3c(c(SCC(=O)N4CCCC4)nn12)CCCC3

>  <Energy>  (11) 
102.05836771141735

>  <Genealogy>  (11) 
Cc1ccccc1-c1n[nH+]c2c3c(c(SCC(=O)N4CCCC4)nn12)CCCC3 (protonated)
Cc1ccccc1-c1n[nH+]c2c3c(c(SCC(=O)N4CCCC4)nn12)CCCC3 (3D coordinates assigned)
Cc1ccccc1-c1n[nH+]c2c3c(c(SCC(=O)N4CCCC4)nn12)CCCC3 (nonaromatic ring conformer: 102.05836771141735 kcal/mol)

>  <smiles>  (11) 
Cc1ccccc1-c1nnc2c3c(c(SCC(=O)N4CCCC4)nn12)CCCC3

>  <score_type>  (11) 
oracle

>  <origin>  (11) 
adg

>  <m_score__min__energy>  (11) 
-10.41

>  <m_primary>  (11) 
energy

$$$$
11:0
     RDKit          3D

 40 42  0  0  0  0  0  0  0  0999 V2000
   -6.8590   16.6790  -33.2630 C   0  0  0  0  0  0  0  0  0  0  0  0
   -7.1490   18.1070  -32.9320 C   0  0  0  0  0  0  0  0  0  0  0  0
   -6.4420   19.1420  -33.5530 C   0  0  0  0  0  0  0  0  0  0  0  0
   -6.7090   20.4340  -33.2210 N   0  0  0  0  0  0  0  0  0  0  0  0
   -7.6620   20.7440  -32.2930 C   0  0  0  0  0  0  0  0  0  0  0  0
   -7.9390   22.1550  -31.9380 C   0  0  0  0  0  0  0  0  0  0  0  0
   -9.1250   22.5800  -31.9810 O   0  0  0  0  0  0  0  0  0  0  0  0
   -6.8840   23.0430  -31.5250 N   0  0  0  0  0  0  0  0  0  0  0  0
   -7.1510   24.0090  -30.4470 C   0  0  0  0  0  0  0  0  0  0  0  0
   -5.9590   24.9440  -30.2250 C   0  0  0  0  0  0  0  0  0  0  0  0
   -4.7120   24.1670  -30.2360 N   0  0  0  0  0  0  0  0  0  0  0  0
   -3.7920   24.2350  -29.1280 C   0  0  0  0  0  0  0  0  0  0  0  0
   -4.2640   24.4520  -27.8220 C   0  0  0  0  0  0  0  0  0  0  0  0
   -3.3670   24.5310  -26.7510 C   0  0  0  0  0  0  0  0  0  0  0  0
   -1.9950   24.4000  -26.9750 C   0  0  0  0  0  0  0  0  0  0  0  0
   -1.5160   24.1930  -28.2710 C   0  0  0  0  0  0  0  0  0  0  0  0
   -2.4080   24.1120  -29.3440 C   0  0  0  0  0  0  0  0  0  0  0  0
   -4.4330   23.2570  -31.3580 C   0  0  0  0  0  0  0  0  0  0  0  0
   -5.6380   23.1320  -32.2990 C   0  0  0  0  0  0  0  0  0  0  0  0
   -8.3520   19.7010  -31.6570 C   0  0  0  0  0  0  0  0  0  0  0  0
   -8.0810   18.4140  -31.9910 N   0  0  0  0  0  0  0  0  0  0  0  0
   -6.7421   16.1035  -32.3329 H   0  0  0  0  0  0  0  0  0  0  0  0
   -7.6909   16.2624  -33.8499 H   0  0  0  0  0  0  0  0  0  0  0  0
   -5.9305   16.6199  -33.8499 H   0  0  0  0  0  0  0  0  0  0  0  0
   -5.6739   18.9123  -34.3061 H   0  0  0  0  0  0  0  0  0  0  0  0
   -6.1510   21.1890  -33.6790 H   0  0  0  0  0  0  0  0  0  0  0  0
   -8.0320   24.6103  -30.7157 H   0  0  0  0  0  0  0  0  0  0  0  0
   -7.3287   23.4488  -29.5171 H   0  0  0  0  0  0  0  0  0  0  0  0
   -5.9289   25.6952  -31.0280 H   0  0  0  0  0  0  0  0  0  0  0  0
   -6.0665   25.4470  -29.2527 H   0  0  0  0  0  0  0  0  0  0  0  0
   -5.3436   24.5602  -27.6410 H   0  0  0  0  0  0  0  0  0  0  0  0
   -3.7434   24.6966  -25.7307 H   0  0  0  0  0  0  0  0  0  0  0  0
   -1.2916   24.4598  -26.1314 H   0  0  0  0  0  0  0  0  0  0  0  0
   -0.4348   24.0936  -28.4473 H   0  0  0  0  0  0  0  0  0  0  0  0
   -2.0254   23.9512  -30.3627 H   0  0  0  0  0  0  0  0  0  0  0  0
   -3.5750   23.6447  -31.9268 H   0  0  0  0  0  0  0  0  0  0  0  0
   -4.2144   22.2608  -30.9459 H   0  0  0  0  0  0  0  0  0  0  0  0
   -5.6800   24.0150  -32.9536 H   0  0  0  0  0  0  0  0  0  0  0  0
   -5.5266   22.2194  -32.9029 H   0  0  0  0  0  0  0  0  0  0  0  0
   -9.1091   19.9255  -30.8912 H   0  0  0  0  0  0  0  0  0  0  0  0
  1  2  1  0
  2  3  2  0
  3  4  1  0
  4  5  2  0
  5  6  1  0
  6  7  2  0
  6  8  1  0
  8  9  1  0
  9 10  1  0
 10 11  1  0
 11 12  1  0
 12 13  2  0
 13 14  1  0
 14 15  2  0
 15 16  1  0
 16 17  2  0
 11 18  1  0
 18 19  1  0
  5 20  1  0
 20 21  2  0
 21  2  1  0
 19  8  1  0
 17 12  1  0
  1 22  1  0
  1 23  1  0
  1 24  1  0
  3 25  1  0
  4 26  1  0
  9 27  1  0
  9 28  1  0
 10 29  1  0
 10 30  1  0
 13 31  1  0
 14 32  1  0
 15 33  1  0
 16 34  1  0
 17 35  1  0
 18 36  1  0
 18 37  1  0
 19 38  1  0
 19 39  1  0
 20 40  1  0
M  CHG  1   4   1
M  END
>  <UniqueID>  (12) 
11

>  <SMILES>  (12) 
Cc1c[nH+]c(C(=O)N2CCN(c3ccccc3)CC2)cn1

>  <Energy>  (12) 
50.4329400686569

>  <Genealogy>  (12) 
Cc1c[nH+]c(C(=O)N2CCN(c3ccccc3)CC2)cn1 (protonated)
Cc1c[nH+]c(C(=O)N2CCN(c3ccccc3)CC2)cn1 (3D coordinates assigned)
Cc1c[nH+]c(C(=O)N2CCN(c3ccccc3)CC2)cn1 (nonaromatic ring conformer: 50.4329400686569 kcal/mol)

>  <smiles>  (12) 
Cc1cnc(C(=O)N2CCN(c3ccccc3)CC2)cn1

>  <score_type>  (12) 
oracle

>  <origin>  (12) 
adg

>  <m_score__min__energy>  (12) 
-6.9299999999999997

>  <m_primary>  (12) 
energy

$$$$
12:0
     RDKit          3D

 41 42  0  0  0  0  0  0  0  0999 V2000
   -6.0190   24.6390  -29.7210 C   0  0  0  0  0  0  0  0  0  0  0  0
   -5.2860   25.6170  -30.6320 C   0  0  0  0  0  0  0  0  0  0  0  0
   -3.8640   25.3000  -30.6880 N   0  0  0  0  0  0  0  0  0  0  0  0
   -3.1850   24.5250  -29.6930 C   0  0  0  0  0  0  0  0  0  0  0  0
   -3.1800   24.9130  -28.4920 O   0  0  0  0  0  0  0  0  0  0  0  0
   -2.4640   23.2890  -30.0820 C   0  0  0  0  0  0  0  0  0  0  0  0
   -1.1780   23.0600  -29.5590 C   0  0  0  0  0  0  0  0  0  0  0  0
   -0.4880   21.8830  -29.8590 C   0  0  0  0  0  0  0  0  0  0  0  0
   -1.0660   20.9240  -30.6880 C   0  0  0  0  0  0  0  0  0  0  0  0
   -2.3350   21.1410  -31.2280 C   0  0  0  0  0  0  0  0  0  0  0  0
   -3.0470   22.3170  -30.9330 C   0  0  0  0  0  0  0  0  0  0  0  0
   -4.3060   22.5630  -31.5810 N   0  0  0  0  0  0  0  0  0  0  0  0
   -5.2850   21.5340  -31.7960 C   0  0  0  0  0  0  0  0  0  0  0  0
   -5.1390   20.4130  -31.2340 O   0  0  0  0  0  0  0  0  0  0  0  0
   -6.5190   21.7570  -32.6480 C   0  0  0  0  0  0  0  0  0  0  0  0
   -7.0820   20.4550  -33.2620 C   0  0  0  0  0  0  0  0  0  0  0  0
   -8.0730   19.7130  -32.3560 C   0  0  0  0  0  0  0  0  0  0  0  0
   -9.1750   20.6470  -31.8520 C   0  0  0  0  0  0  0  0  0  0  0  0
   -8.5880   21.8390  -31.0920 C   0  0  0  0  0  0  0  0  0  0  0  0
   -7.5970   22.6280  -31.9590 C   0  0  0  0  0  0  0  0  0  0  0  0
   -5.8236   24.8997  -28.6704 H   0  0  0  0  0  0  0  0  0  0  0  0
   -7.0999   24.6944  -29.9176 H   0  0  0  0  0  0  0  0  0  0  0  0
   -5.6625   23.6171  -29.9176 H   0  0  0  0  0  0  0  0  0  0  0  0
   -5.7103   25.5547  -31.6450 H   0  0  0  0  0  0  0  0  0  0  0  0
   -5.4068   26.6339  -30.2303 H   0  0  0  0  0  0  0  0  0  0  0  0
   -0.7119   23.8144  -28.9082 H   0  0  0  0  0  0  0  0  0  0  0  0
    0.5145   21.7129  -29.4395 H   0  0  0  0  0  0  0  0  0  0  0  0
   -0.5223   19.9956  -30.9171 H   0  0  0  0  0  0  0  0  0  0  0  0
   -2.7819   20.3850  -31.8904 H   0  0  0  0  0  0  0  0  0  0  0  0
   -4.5210   23.5440  -31.8480 H   0  0  0  0  0  0  0  0  0  0  0  0
   -6.1728   22.3555  -33.5036 H   0  0  0  0  0  0  0  0  0  0  0  0
   -7.5960   20.7097  -34.2006 H   0  0  0  0  0  0  0  0  0  0  0  0
   -6.2265   19.7808  -33.4157 H   0  0  0  0  0  0  0  0  0  0  0  0
   -8.5326   18.8916  -32.9253 H   0  0  0  0  0  0  0  0  0  0  0  0
   -7.5232   19.3248  -31.4859 H   0  0  0  0  0  0  0  0  0  0  0  0
   -9.7510   21.0188  -32.7122 H   0  0  0  0  0  0  0  0  0  0  0  0
   -9.8226   20.0819  -31.1655 H   0  0  0  0  0  0  0  0  0  0  0  0
   -9.4072   22.5072  -30.7879 H   0  0  0  0  0  0  0  0  0  0  0  0
   -8.0480   21.4555  -30.2138 H   0  0  0  0  0  0  0  0  0  0  0  0
   -8.1656   23.1540  -32.7400 H   0  0  0  0  0  0  0  0  0  0  0  0
   -7.0637   23.3130  -31.2834 H   0  0  0  0  0  0  0  0  0  0  0  0
  1  2  1  0
  2  3  1  0
  3  4  1  0
  4  5  2  0
  4  6  1  0
  6  7  2  0
  7  8  1  0
  8  9  2  0
  9 10  1  0
 10 11  2  0
 11 12  1  0
 12 13  1  0
 13 14  2  0
 13 15  1  0
 15 16  1  0
 16 17  1  0
 17 18  1  0
 18 19  1  0
 19 20  1  0
 11  6  1  0
 20 15  1  0
  1 21  1  0
  1 22  1  0
  1 23  1  0
  2 24  1  0
  2 25  1  0
  7 26  1  0
  8 27  1  0
  9 28  1  0
 10 29  1  0
 12 30  1  0
 15 31  1  0
 16 32  1  0
 16 33  1  0
 17 34  1  0
 17 35  1  0
 18 36  1  0
 18 37  1  0
 19 38  1  0
 19 39  1  0
 20 40  1  0
 20 41  1  0
M  CHG  1   3  -1
M  END
>  <UniqueID>  (13) 
12

>  <SMILES>  (13) 
CC[N-]C(=O)c1ccccc1NC(=O)C1CCCCC1

>  <Energy>  (13) 
40.47832268693869

>  <Genealogy>  (13) 
CC[N-]C(=O)c1ccccc1NC(=O)C1CCCCC1 (protonated)
CC[N-]C(=O)c1ccccc1NC(=O)C1CCCCC1 (3D coordinates assigned)
CC[N-]C(=O)c1ccccc1NC(=O)C1CCCCC1 (nonaromatic ring conformer: 40.47832268693869 kcal/mol)

>  <smiles>  (13) 
CCNC(=O)c1ccccc1NC(=O)C1CCCCC1

>  <score_type>  (13) 
oracle

>  <origin>  (13) 
adg

>  <m_score__min__energy>  (13) 
-8.8499999999999996

>  <m_primary>  (13) 
energy

$$$$
13:0
     RDKit          3D

 45 47  0  0  0  0  0  0  0  0999 V2000
   -9.0122   21.7236  -31.2711 H   0  0  0  0  0  0  0  0  0  0  0  0
   -8.0870   21.7240  -31.8660 C   0  0  0  0  0  0  0  0  0  0  0  0
   -7.5250   22.9120  -32.1380 C   0  0  0  0  0  0  0  0  0  0  0  0
   -7.8554   23.4381  -33.0458 H   0  0  0  0  0  0  0  0  0  0  0  0
   -6.4890   23.5660  -31.3000 C   0  0  0  0  0  0  0  0  0  0  0  0
   -6.8540   24.6270  -30.4560 C   0  0  0  0  0  0  0  0  0  0  0  0
   -7.8952   24.9812  -30.4380 H   0  0  0  0  0  0  0  0  0  0  0  0
   -5.8990   25.2320  -29.6410 C   0  0  0  0  0  0  0  0  0  0  0  0
   -6.1856   26.0718  -28.9909 H   0  0  0  0  0  0  0  0  0  0  0  0
   -4.6160   24.7880  -29.6470 N   0  0  0  0  0  0  0  0  0  0  0  0
   -4.2180   23.7550  -30.4350 C   0  0  0  0  0  0  0  0  0  0  0  0
   -2.8830   23.3360  -30.4030 C   0  0  0  0  0  0  0  0  0  0  0  0
   -2.1661   23.8386  -29.7371 H   0  0  0  0  0  0  0  0  0  0  0  0
   -2.4590   22.2820  -31.2140 C   0  0  0  0  0  0  0  0  0  0  0  0
   -1.4095   21.9540  -31.1834 H   0  0  0  0  0  0  0  0  0  0  0  0
   -3.3640   21.6430  -32.0640 C   0  0  0  0  0  0  0  0  0  0  0  0
   -3.0239   20.8149  -32.7033 H   0  0  0  0  0  0  0  0  0  0  0  0
   -4.7000   22.0510  -32.1060 C   0  0  0  0  0  0  0  0  0  0  0  0
   -5.4054   21.5450  -32.7816 H   0  0  0  0  0  0  0  0  0  0  0  0
   -5.1490   23.1080  -31.2870 C   0  0  0  0  0  0  0  0  0  0  0  0
   -7.5560   20.4140  -32.3060 C   0  0  0  0  0  0  0  0  0  0  0  0
   -6.7900   20.3450  -33.4760 C   0  0  0  0  0  0  0  0  0  0  0  0
   -6.5890   21.2606  -34.0516 H   0  0  0  0  0  0  0  0  0  0  0  0
   -6.2790   19.1220  -33.9180 C   0  0  0  0  0  0  0  0  0  0  0  0
   -5.6682   19.0846  -34.8321 H   0  0  0  0  0  0  0  0  0  0  0  0
   -6.5390   17.9380  -33.2040 C   0  0  0  0  0  0  0  0  0  0  0  0
   -5.9870   16.6760  -33.6480 N   0  0  0  0  0  0  0  0  0  0  0  0
   -6.8570   15.6300  -34.2100 C   0  0  0  0  0  0  0  0  0  0  0  0
   -7.1381   15.9084  -35.2364 H   0  0  0  0  0  0  0  0  0  0  0  0
   -7.7524   15.5402  -33.5774 H   0  0  0  0  0  0  0  0  0  0  0  0
   -6.1410   14.2820  -34.2360 C   0  0  0  0  0  0  0  0  0  0  0  0
   -5.9607   13.9426  -33.2053 H   0  0  0  0  0  0  0  0  0  0  0  0
   -6.7664   13.5447  -34.7607 H   0  0  0  0  0  0  0  0  0  0  0  0
   -5.1800   14.3873  -34.7607 H   0  0  0  0  0  0  0  0  0  0  0  0
   -4.5420   16.4190  -33.5400 C   0  0  0  0  0  0  0  0  0  0  0  0
   -4.1697   16.8477  -32.5978 H   0  0  0  0  0  0  0  0  0  0  0  0
   -4.3768   15.3317  -33.5602 H   0  0  0  0  0  0  0  0  0  0  0  0
   -3.7860   17.0480  -34.7080 C   0  0  0  0  0  0  0  0  0  0  0  0
   -2.9946   17.7064  -34.3205 H   0  0  0  0  0  0  0  0  0  0  0  0
   -3.3349   16.2549  -35.3225 H   0  0  0  0  0  0  0  0  0  0  0  0
   -4.4838   17.6358  -35.3225 H   0  0  0  0  0  0  0  0  0  0  0  0
   -7.3400   18.0060  -32.0510 C   0  0  0  0  0  0  0  0  0  0  0  0
   -7.5665   17.0873  -31.4900 H   0  0  0  0  0  0  0  0  0  0  0  0
   -7.8510   19.2290  -31.6110 C   0  0  0  0  0  0  0  0  0  0  0  0
   -8.4882   19.2648  -30.7151 H   0  0  0  0  0  0  0  0  0  0  0  0
  1  2  1  0
  2  3  2  0
  3  4  1  0
  3  5  1  0
  5  6  2  0
  6  7  1  0
  6  8  1  0
  8  9  1  0
  8 10  2  0
 10 11  1  0
 11 12  2  0
 12 13  1  0
 12 14  1  0
 14 15  1  0
 14 16  2  0
 16 17  1  0
 16 18  1  0
 18 19  1  0
 18 20  2  0
  2 21  1  0
 21 22  2  0
 22 23  1  0
 22 24  1  0
 24 25  1  0
 24 26  2  0
 26 27  1  0
 27 28  1  0
 28 29  1  0
 28 30  1  0
 28 31  1  0
 31 32  1  0
 31 33  1  0
 31 34  1  0
 27 35  1  0
 35 36  1  0
 35 37  1  0
 35 38  1  0
 38 39  1  0
 38 40  1  0
 38 41  1  0
 26 42  1  0
 42 43  1  0
 42 44  2  0
 44 45  1  0
 20  5  1  0
 44 21  1  0
 20 11  1  0
M  END
>  <UniqueID>  (14) 
13

>  <SMILES>  (14) 
CCN(CC)c1ccc(/C=C\c2ccnc3ccccc23)cc1

>  <Energy>  (14) 
59.300388046976074

>  <Genealogy>  (14) 
CCN(CC)c1ccc(/C=C\c2ccnc3ccccc23)cc1 (cis-trans isomerization)
CCN(CC)c1ccc(/C=C\c2ccnc3ccccc23)cc1 (3D coordinates assigned)
CCN(CC)c1ccc(/C=C\c2ccnc3ccccc23)cc1 (optimized conformer: 59.300388046976074 kcal/mol)

>  <smiles>  (14) 
CCN(CC)c1ccc(C=Cc2ccnc3ccccc23)cc1

>  <score_type>  (14) 
oracle

>  <origin>  (14) 
adg

>  <m_score__min__energy>  (14) 
-8.3399999999999999

>  <m_primary>  (14) 
energy

$$$$
14:0
     RDKit          3D

 29 30  0  0  0  0  0  0  0  0999 V2000
   -1.2280   26.4150  -27.1730 C   0  0  0  0  0  0  0  0  0  0  0  0
   -0.7790   25.2520  -27.9960 C   0  0  0  0  0  0  0  0  0  0  0  0
    0.4970   24.8220  -28.0390 N   0  0  0  0  0  0  0  0  0  0  0  0
    0.5310   23.8020  -28.8470 O   0  0  0  0  0  0  0  0  0  0  0  0
   -0.6590   23.5400  -29.3360 C   0  0  0  0  0  0  0  0  0  0  0  0
   -0.9340   22.4240  -30.2910 C   0  0  0  0  0  0  0  0  0  0  0  0
   -1.5630   24.4550  -28.8180 C   0  0  0  0  0  0  0  0  0  0  0  0
   -3.0140   24.5590  -29.0760 C   0  0  0  0  0  0  0  0  0  0  0  0
   -3.8360   24.0050  -28.2980 O   0  0  0  0  0  0  0  0  0  0  0  0
   -3.4910   25.2870  -30.2110 N   0  0  0  0  0  0  0  0  0  0  0  0
   -4.9040   25.5220  -30.4670 C   0  0  0  0  0  0  0  0  0  0  0  0
   -5.5020   24.3000  -31.0910 C   0  0  0  0  0  0  0  0  0  0  0  0
   -6.8680   24.0180  -30.9420 C   0  0  0  0  0  0  0  0  0  0  0  0
   -7.3900   22.8510  -31.5020 C   0  0  0  0  0  0  0  0  0  0  0  0
   -6.5510   21.9770  -32.1960 C   0  0  0  0  0  0  0  0  0  0  0  0
   -5.1930   22.2840  -32.3150 C   0  0  0  0  0  0  0  0  0  0  0  0
   -4.7020   23.4240  -31.7610 N   0  0  0  0  0  0  0  0  0  0  0  0
   -1.1324   26.1674  -26.1055 H   0  0  0  0  0  0  0  0  0  0  0  0
   -0.6032   27.2905  -27.4037 H   0  0  0  0  0  0  0  0  0  0  0  0
   -2.2790   26.6435  -27.4037 H   0  0  0  0  0  0  0  0  0  0  0  0
   -1.1600   21.5066  -29.7276 H   0  0  0  0  0  0  0  0  0  0  0  0
   -1.7942   22.6868  -30.9242 H   0  0  0  0  0  0  0  0  0  0  0  0
   -0.0501   22.2570  -30.9242 H   0  0  0  0  0  0  0  0  0  0  0  0
   -5.4181   25.7401  -29.5193 H   0  0  0  0  0  0  0  0  0  0  0  0
   -5.0183   26.3780  -31.1483 H   0  0  0  0  0  0  0  0  0  0  0  0
   -7.5211   24.7095  -30.3895 H   0  0  0  0  0  0  0  0  0  0  0  0
   -8.4604   22.6203  -31.3968 H   0  0  0  0  0  0  0  0  0  0  0  0
   -6.9545   21.0570  -32.6441 H   0  0  0  0  0  0  0  0  0  0  0  0
   -4.5209   21.6027  -32.8573 H   0  0  0  0  0  0  0  0  0  0  0  0
  1  2  1  0
  2  3  2  0
  3  4  1  0
  4  5  1  0
  5  6  1  0
  5  7  2  0
  7  8  1  0
  8  9  2  0
  8 10  1  0
 10 11  1  0
 11 12  1  0
 12 13  2  0
 13 14  1  0
 14 15  2  0
 15 16  1  0
 16 17  2  0
  7  2  1  0
 17 12  1  0
  1 18  1  0
  1 19  1  0
  1 20  1  0
  6 21  1  0
  6 22  1  0
  6 23  1  0
 11 24  1  0
 11 25  1  0
 13 26  1  0
 14 27  1  0
 15 28  1  0
 16 29  1  0
M  CHG  1  10  -1
M  END
>  <UniqueID>  (15) 
14

>  <SMILES>  (15) 
Cc1noc(C)c1C(=O)[N-]Cc1ccccn1

>  <Energy>  (15) 
55.66338280819983

>  <Genealogy>  (15) 
Cc1noc(C)c1C(=O)[N-]Cc1ccccn1 (protonated)
Cc1noc(C)c1C(=O)[N-]Cc1ccccn1 (3D coordinates assigned)
Cc1noc(C)c1C(=O)[N-]Cc1ccccn1 (optimized conformer: 55.66338280819983 kcal/mol)

>  <smiles>  (15) 
Cc1noc(C)c1C(=O)NCc1ccccn1

>  <score_type>  (15) 
oracle

>  <origin>  (15) 
adg

>  <m_score__min__energy>  (15) 
-8.1999999999999993

>  <m_primary>  (15) 
energy

$$$$
15:0
     RDKit          3D

 62 66  0  0  0  0  0  0  0  0999 V2000
   -3.1680   16.1730  -35.8830 O   0  0  0  0  0  0  0  0  0  0  0  0
   -3.8440   17.0910  -35.0830 C   0  0  0  0  0  0  0  0  0  0  0  0
   -3.1850   17.6830  -34.0030 C   0  0  0  0  0  0  0  0  0  0  0  0
   -3.8500   18.6060  -33.1910 C   0  0  0  0  0  0  0  0  0  0  0  0
   -5.1900   18.9530  -33.4510 C   0  0  0  0  0  0  0  0  0  0  0  0
   -5.8820   19.9040  -32.6120 N   0  0  0  0  0  0  0  0  0  0  0  0
   -5.4740   20.1140  -31.2170 C   0  0  0  0  0  0  0  0  0  0  0  0
   -5.7630   21.5640  -30.8070 C   0  0  0  0  0  0  0  0  0  0  0  0
   -7.1880   21.9560  -30.9890 N   0  0  0  0  0  0  0  0  0  0  0  0
   -7.3280   23.3990  -31.3000 C   0  0  0  0  0  0  0  0  0  0  0  0
   -6.1160   23.9380  -32.0810 C   0  0  0  0  0  0  0  0  0  0  0  0
   -5.2280   24.7400  -31.2370 N   0  0  0  0  0  0  0  0  0  0  0  0
   -4.1330   24.3090  -30.6860 C   0  0  0  0  0  0  0  0  0  0  0  0
   -3.6200   24.9130  -29.5810 N   0  0  0  0  0  0  0  0  0  0  0  0
   -2.4670   24.4830  -29.0020 C   0  0  0  0  0  0  0  0  0  0  0  0
   -1.9410   25.2010  -27.8140 C   0  0  0  0  0  0  0  0  0  0  0  0
   -0.8430   26.0790  -27.9140 C   0  0  0  0  0  0  0  0  0  0  0  0
   -0.3600   26.7400  -26.7800 C   0  0  0  0  0  0  0  0  0  0  0  0
   -0.9600   26.5300  -25.5360 C   0  0  0  0  0  0  0  0  0  0  0  0
   -2.0410   25.6550  -25.4220 C   0  0  0  0  0  0  0  0  0  0  0  0
   -2.5280   24.9900  -26.5520 C   0  0  0  0  0  0  0  0  0  0  0  0
   -1.7890   23.3920  -29.5670 C   0  0  0  0  0  0  0  0  0  0  0  0
   -2.3330   22.7640  -30.6990 C   0  0  0  0  0  0  0  0  0  0  0  0
   -1.6610   21.6100  -31.3500 C   0  0  0  0  0  0  0  0  0  0  0  0
   -1.7010   21.4290  -32.7470 C   0  0  0  0  0  0  0  0  0  0  0  0
   -1.0570   20.3380  -33.3380 C   0  0  0  0  0  0  0  0  0  0  0  0
   -0.3630   19.4190  -32.5480 C   0  0  0  0  0  0  0  0  0  0  0  0
   -0.3040   19.5950  -31.1640 C   0  0  0  0  0  0  0  0  0  0  0  0
   -0.9450   20.6840  -30.5670 C   0  0  0  0  0  0  0  0  0  0  0  0
   -3.4890   23.2460  -31.2300 N   0  0  0  0  0  0  0  0  0  0  0  0
   -7.9280   21.1120  -31.9610 C   0  0  0  0  0  0  0  0  0  0  0  0
   -7.0470   20.6380  -33.1240 C   0  0  0  0  0  0  0  0  0  0  0  0
   -5.8460   18.3480  -34.5400 C   0  0  0  0  0  0  0  0  0  0  0  0
   -5.1780   17.4260  -35.3490 C   0  0  0  0  0  0  0  0  0  0  0  0
   -3.2490   16.1910  -36.8930 H   0  0  0  0  0  0  0  0  0  0  0  0
   -2.1378   17.4216  -33.7906 H   0  0  0  0  0  0  0  0  0  0  0  0
   -3.3225   19.0652  -32.3419 H   0  0  0  0  0  0  0  0  0  0  0  0
   -6.0368   19.4303  -30.5644 H   0  0  0  0  0  0  0  0  0  0  0  0
   -4.3966   19.9151  -31.1184 H   0  0  0  0  0  0  0  0  0  0  0  0
   -5.5006   21.6854  -29.7457 H   0  0  0  0  0  0  0  0  0  0  0  0
   -5.1612   22.2128  -31.4603 H   0  0  0  0  0  0  0  0  0  0  0  0
   -8.2349   23.5461  -31.9049 H   0  0  0  0  0  0  0  0  0  0  0  0
   -7.3924   23.9480  -30.3490 H   0  0  0  0  0  0  0  0  0  0  0  0
   -5.5479   23.0872  -32.4853 H   0  0  0  0  0  0  0  0  0  0  0  0
   -6.4932   24.5855  -32.8863 H   0  0  0  0  0  0  0  0  0  0  0  0
   -0.3631   26.2454  -28.8897 H   0  0  0  0  0  0  0  0  0  0  0  0
    0.4946   27.4270  -26.8679 H   0  0  0  0  0  0  0  0  0  0  0  0
   -0.5804   27.0543  -24.6466 H   0  0  0  0  0  0  0  0  0  0  0  0
   -2.5110   25.4879  -24.4416 H   0  0  0  0  0  0  0  0  0  0  0  0
   -3.3763   24.2967  -26.4538 H   0  0  0  0  0  0  0  0  0  0  0  0
   -0.8453   23.0340  -29.1296 H   0  0  0  0  0  0  0  0  0  0  0  0
   -2.2424   22.1507  -33.3764 H   0  0  0  0  0  0  0  0  0  0  0  0
   -1.0970   20.2029  -34.4289 H   0  0  0  0  0  0  0  0  0  0  0  0
    0.1365   18.5576  -33.0154 H   0  0  0  0  0  0  0  0  0  0  0  0
    0.2482   18.8749  -30.5423 H   0  0  0  0  0  0  0  0  0  0  0  0
   -0.8898   20.8189  -29.4767 H   0  0  0  0  0  0  0  0  0  0  0  0
   -8.3200   20.2296  -31.4340 H   0  0  0  0  0  0  0  0  0  0  0  0
   -8.7369   21.7250  -32.3852 H   0  0  0  0  0  0  0  0  0  0  0  0
   -7.6340   19.9769  -33.7784 H   0  0  0  0  0  0  0  0  0  0  0  0
   -6.6984   21.5142  -33.6903 H   0  0  0  0  0  0  0  0  0  0  0  0
   -6.8939   18.6037  -34.7556 H   0  0  0  0  0  0  0  0  0  0  0  0
   -5.7011   16.9614  -36.1978 H   0  0  0  0  0  0  0  0  0  0  0  0
  1  2  1  0
  2  3  2  0
  3  4  1  0
  4  5  2  0
  5  6  1  0
  6  7  1  0
  7  8  1  0
  8  9  1  0
  9 10  1  0
 10 11  1  0
 11 12  1  0
 12 13  2  3
 13 14  1  0
 14 15  2  0
 15 16  1  0
 16 17  2  0
 17 18  1  0
 18 19  2  0
 19 20  1  0
 20 21  2  0
 15 22  1  0
 22 23  2  0
 23 24  1  0
 24 25  2  0
 25 26  1  0
 26 27  2  0
 27 28  1  0
 28 29  2  0
 23 30  1  0
  9 31  1  0
 31 32  1  0
  5 33  1  0
 33 34  2  0
 34  2  1  0
 32  6  1  0
 30 13  1  0
 21 16  1  0
 29 24  1  0
  1 35  1  0
  3 36  1  0
  4 37  1  0
  7 38  1  0
  7 39  1  0
  8 40  1  0
  8 41  1  0
 10 42  1  0
 10 43  1  0
 11 44  1  0
 11 45  1  0
 17 46  1  0
 18 47  1  0
 19 48  1  0
 20 49  1  0
 21 50  1  0
 22 51  1  0
 25 52  1  0
 26 53  1  0
 27 54  1  0
 28 55  1  0
 29 56  1  0
 31 57  1  0
 31 58  1  0
 32 59  1  0
 32 60  1  0
 33 61  1  0
 34 62  1  0
M  CHG  1  30  -1
M  END
>  <UniqueID>  (16) 
15

>  <SMILES>  (16) 
Oc1ccc(N2CCN(CCN=c3nc(-c4ccccc4)cc(-c4ccccc4)[n-]3)CC2)cc1

>  <Energy>  (16) 
85.53015822964338

>  <Genealogy>  (16) 
Oc1ccc(N2CCN(CCN=c3nc(-c4ccccc4)cc(-c4ccccc4)[n-]3)CC2)cc1 (protonated)
Oc1ccc(N2CCN(CCN=c3nc(-c4ccccc4)cc(-c4ccccc4)[n-]3)CC2)cc1 (3D coordinates assigned)
Oc1ccc(N2CCN(CCN=c3nc(-c4ccccc4)cc(-c4ccccc4)[n-]3)CC2)cc1 (nonaromatic ring conformer: 85.53015822964338 kcal/mol)

>  <smiles>  (16) 
Oc1ccc(N2CCN(CCN=c3nc(-c4ccccc4)cc(-c4ccccc4)[nH]3)CC2)cc1

>  <score_type>  (16) 
oracle

>  <origin>  (16) 
adg

>  <m_score__min__energy>  (16) 
-11.779999999999999

>  <m_primary>  (16) 
energy

$$$$
16:0
     RDKit          3D

 33 35  0  0  0  0  0  0  0  0999 V2000
   -1.7940   25.0900  -28.1190 C   0  0  0  0  0  0  0  0  0  0  0  0
   -2.5080   25.3000  -29.3330 O   0  0  0  0  0  0  0  0  0  0  0  0
   -3.3520   24.3520  -29.9300 C   0  0  0  0  0  0  0  0  0  0  0  0
   -2.8140   23.1100  -30.2810 C   0  0  0  0  0  0  0  0  0  0  0  0
   -3.6140   22.1310  -30.8780 C   0  0  0  0  0  0  0  0  0  0  0  0
   -4.9730   22.3810  -31.1380 C   0  0  0  0  0  0  0  0  0  0  0  0
   -5.8260   21.3450  -31.7730 C   0  0  0  0  0  0  0  0  0  0  0  0
   -7.1950   21.5070  -31.9950 C   0  0  0  0  0  0  0  0  0  0  0  0
   -7.7730   20.1060  -32.7200 S   0  0  0  0  0  0  0  0  0  0  0  0
   -6.2730   19.3420  -32.7380 C   0  0  0  0  0  0  0  0  0  0  0  0
   -6.0230   17.9750  -33.2490 C   0  0  0  0  0  0  0  0  0  0  0  0
   -7.0960   17.0750  -33.3930 C   0  0  0  0  0  0  0  0  0  0  0  0
   -6.8760   15.7800  -33.8690 C   0  0  0  0  0  0  0  0  0  0  0  0
   -5.5870   15.3700  -34.2130 C   0  0  0  0  0  0  0  0  0  0  0  0
   -5.3770   14.1130  -34.6760 F   0  0  0  0  0  0  0  0  0  0  0  0
   -4.5160   16.2560  -34.0890 C   0  0  0  0  0  0  0  0  0  0  0  0
   -4.7270   17.5550  -33.6130 C   0  0  0  0  0  0  0  0  0  0  0  0
   -3.6730   18.4070  -33.5560 F   0  0  0  0  0  0  0  0  0  0  0  0
   -5.3310   20.1410  -32.1850 N   0  0  0  0  0  0  0  0  0  0  0  0
   -5.5120   23.6290  -30.7840 C   0  0  0  0  0  0  0  0  0  0  0  0
   -4.7120   24.6070  -30.1850 C   0  0  0  0  0  0  0  0  0  0  0  0
   -2.4584   25.2854  -27.2644 H   0  0  0  0  0  0  0  0  0  0  0  0
   -1.4395   24.0495  -28.0774 H   0  0  0  0  0  0  0  0  0  0  0  0
   -0.9326   25.7728  -28.0774 H   0  0  0  0  0  0  0  0  0  0  0  0
   -1.7518   22.9013  -30.0857 H   0  0  0  0  0  0  0  0  0  0  0  0
   -3.1769   21.1579  -31.1463 H   0  0  0  0  0  0  0  0  0  0  0  0
   -7.7906   22.3960  -31.7399 H   0  0  0  0  0  0  0  0  0  0  0  0
   -8.1151   17.3937  -33.1288 H   0  0  0  0  0  0  0  0  0  0  0  0
   -7.7201   15.0824  -33.9728 H   0  0  0  0  0  0  0  0  0  0  0  0
   -3.5020   15.9321  -34.3665 H   0  0  0  0  0  0  0  0  0  0  0  0
   -4.3420   19.8430  -32.0320 H   0  0  0  0  0  0  0  0  0  0  0  0
   -6.5738   23.8390  -30.9799 H   0  0  0  0  0  0  0  0  0  0  0  0
   -5.1476   25.5795  -29.9121 H   0  0  0  0  0  0  0  0  0  0  0  0
  1  2  1  0
  2  3  1  0
  3  4  2  0
  4  5  1  0
  5  6  2  0
  6  7  1  0
  7  8  2  0
  8  9  1  0
  9 10  1  0
 10 11  1  0
 11 12  2  0
 12 13  1  0
 13 14  2  0
 14 15  1  0
 14 16  1  0
 16 17  2  0
 17 18  1  0
 10 19  2  0
  6 20  1  0
 20 21  2  0
 21  3  1  0
 19  7  1  0
 17 11  1  0
  1 22  1  0
  1 23  1  0
  1 24  1  0
  4 25  1  0
  5 26  1  0
  8 27  1  0
 12 28  1  0
 13 29  1  0
 16 30  1  0
 19 31  1  0
 20 32  1  0
 21 33  1  0
M  CHG  1  19   1
M  END
>  <UniqueID>  (17) 
16

>  <SMILES>  (17) 
COc1ccc(-c2csc(-c3ccc(F)cc3F)[nH+]2)cc1

>  <Energy>  (17) 
71.59260266856205

>  <Genealogy>  (17) 
COc1ccc(-c2csc(-c3ccc(F)cc3F)[nH+]2)cc1 (protonated)
COc1ccc(-c2csc(-c3ccc(F)cc3F)[nH+]2)cc1 (3D coordinates assigned)
COc1ccc(-c2csc(-c3ccc(F)cc3F)[nH+]2)cc1 (optimized conformer: 71.59260266856205 kcal/mol)

>  <smiles>  (17) 
COc1ccc(-c2csc(-c3ccc(F)cc3F)n2)cc1

>  <score_type>  (17) 
oracle

>  <origin>  (17) 
adg

>  <m_score__min__energy>  (17) 
-6.5999999999999996

>  <m_primary>  (17) 
energy

$$$$
17:0
     RDKit          3D

 42 44  0  0  0  0  0  0  0  0999 V2000
   -9.4040   21.5850  -30.8380 C   0  0  0  0  0  0  0  0  0  0  0  0
   -9.7020   20.7060  -32.0420 C   0  0  0  0  0  0  0  0  0  0  0  0
   -9.1890   19.4110  -31.8090 O   0  0  0  0  0  0  0  0  0  0  0  0
   -8.1310   19.1510  -32.7090 C   0  0  0  0  0  0  0  0  0  0  0  0
   -6.8380   19.8040  -32.1860 C   0  0  2  0  0  0  0  0  0  0  0  0
   -6.7250   21.2660  -32.7260 C   0  0  0  0  0  0  0  0  0  0  0  0
   -5.3470   21.8250  -32.6680 N   0  0  1  0  0  0  0  0  0  0  0  0
   -4.8820   21.9750  -31.2650 C   0  0  0  0  0  0  0  0  0  0  0  0
   -4.7130   23.4190  -30.8830 C   0  0  0  0  0  0  0  0  0  0  0  0
   -5.6990   24.3830  -30.8470 C   0  0  0  0  0  0  0  0  0  0  0  0
   -5.0730   25.5320  -30.4070 C   0  0  0  0  0  0  0  0  0  0  0  0
   -3.8000   25.2900  -30.1880 O   0  0  0  0  0  0  0  0  0  0  0  0
   -3.5510   24.0300  -30.4610 C   0  0  0  0  0  0  0  0  0  0  0  0
   -4.4150   21.0230  -33.5020 C   0  0  0  0  0  0  0  0  0  0  0  0
   -4.5070   19.5730  -33.1540 C   0  0  0  0  0  0  0  0  0  0  0  0
   -3.5150   18.6690  -33.2680 N   0  0  0  0  0  0  0  0  0  0  0  0
   -4.0440   17.5520  -32.7210 C   0  0  0  0  0  0  0  0  0  0  0  0
   -5.3020   17.7350  -32.2640 N   0  0  0  0  0  0  0  0  0  0  0  0
   -6.1010   16.7480  -31.5440 C   0  0  0  0  0  0  0  0  0  0  0  0
   -5.6130   19.0080  -32.5820 C   0  0  0  0  0  0  0  0  0  0  0  0
   -9.5958   21.0191  -29.9144 H   0  0  0  0  0  0  0  0  0  0  0  0
   -8.3497   21.8976  -30.8642 H   0  0  0  0  0  0  0  0  0  0  0  0
  -10.0509   22.4743  -30.8642 H   0  0  0  0  0  0  0  0  0  0  0  0
  -10.7897   20.6488  -32.1957 H   0  0  0  0  0  0  0  0  0  0  0  0
   -9.2307   21.1347  -32.9387 H   0  0  0  0  0  0  0  0  0  0  0  0
   -7.9832   18.0645  -32.7967 H   0  0  0  0  0  0  0  0  0  0  0  0
   -8.3789   19.5689  -33.6959 H   0  0  0  0  0  0  0  0  0  0  0  0
   -6.8868   19.8206  -31.0872 H   0  0  0  0  0  0  0  0  0  0  0  0
   -7.0586   21.2749  -33.7742 H   0  0  0  0  0  0  0  0  0  0  0  0
   -7.3526   21.8954  -32.0779 H   0  0  0  0  0  0  0  0  0  0  0  0
   -5.3990   22.7830  -33.0940 H   0  0  0  0  0  0  0  0  0  0  0  0
   -5.6213   21.5136  -30.5938 H   0  0  0  0  0  0  0  0  0  0  0  0
   -3.9031   21.4813  -31.1752 H   0  0  0  0  0  0  0  0  0  0  0  0
   -6.7595   24.2618  -31.1127 H   0  0  0  0  0  0  0  0  0  0  0  0
   -5.5659   26.5045  -30.2615 H   0  0  0  0  0  0  0  0  0  0  0  0
   -2.5708   23.5395  -30.3678 H   0  0  0  0  0  0  0  0  0  0  0  0
   -4.6740   21.1566  -34.5627 H   0  0  0  0  0  0  0  0  0  0  0  0
   -3.3873   21.3668  -33.3130 H   0  0  0  0  0  0  0  0  0  0  0  0
   -3.5066   16.5945  -32.6549 H   0  0  0  0  0  0  0  0  0  0  0  0
   -5.9798   16.8977  -30.4610 H   0  0  0  0  0  0  0  0  0  0  0  0
   -7.1607   16.8664  -31.8142 H   0  0  0  0  0  0  0  0  0  0  0  0
   -5.7645   15.7362  -31.8142 H   0  0  0  0  0  0  0  0  0  0  0  0
  1  2  1  0
  2  3  1  0
  3  4  1  0
  4  5  1  0
  5  6  1  0
  6  7  1  0
  7  8  1  0
  8  9  1  0
  9 10  1  0
 10 11  2  0
 11 12  1  0
 12 13  1  0
  7 14  1  0
 14 15  1  0
 15 16  1  0
 16 17  2  0
 17 18  1  0
 18 19  1  0
 18 20  1  0
 20  5  1  0
 13  9  2  0
 20 15  2  0
  1 21  1  0
  1 22  1  0
  1 23  1  0
  2 24  1  0
  2 25  1  0
  4 26  1  0
  4 27  1  0
  5 28  1  1
  6 29  1  0
  6 30  1  0
  7 31  1  6
  8 32  1  0
  8 33  1  0
 10 34  1  0
 11 35  1  0
 13 36  1  0
 14 37  1  0
 14 38  1  0
 17 39  1  0
 19 40  1  0
 19 41  1  0
 19 42  1  0
M  CHG  1   7   1
M  END
>  <UniqueID>  (18) 
17

>  <SMILES>  (18) 
CCOC[C@@H]1C[N@@H+](Cc2ccoc2)Cc2ncn(C)c21

>  <Energy>  (18) 
103.77783617353126

>  <Genealogy>  (18) 
CCOCC1C[NH+](Cc2ccoc2)Cc2ncn(C)c21 (protonated)
CCOC[C@@H]1C[N@@H+](Cc2ccoc2)Cc2ncn(C)c21 (chirality)
CCOC[C@@H]1C[N@@H+](Cc2ccoc2)Cc2ncn(C)c21 (3D coordinates assigned)
CCOC[C@@H]1C[N@@H+](Cc2ccoc2)Cc2ncn(C)c21 (nonaromatic ring conformer: 103.77783617353126 kcal/mol)

>  <smiles>  (18) 
CCOCC1CN(Cc2ccoc2)Cc2ncn(C)c21

>  <score_type>  (18) 
oracle

>  <origin>  (18) 
adg

>  <m_score__min__energy>  (18) 
-6.1500000000000004

>  <m_primary>  (18) 
energy

$$$$
18:0
     RDKit          3D

 44 46  0  0  0  0  0  0  0  0999 V2000
   -4.5800   19.1670  -33.6530 C   0  0  0  0  0  0  0  0  0  0  0  0
   -3.4000   20.1170  -33.5090 C   0  0  0  0  0  0  0  0  0  0  0  0
   -3.8800   21.4430  -33.4680 O   0  0  0  0  0  0  0  0  0  0  0  0
   -4.8860   21.5550  -32.4810 C   0  0  0  0  0  0  0  0  0  0  0  0
   -5.3590   23.0170  -32.3830 C   0  0  1  0  0  0  0  0  0  0  0  0
   -6.9130   23.1830  -32.4630 C   0  0  0  0  0  0  0  0  0  0  0  0
   -7.6190   23.2510  -31.1500 N   0  0  0  0  0  0  0  0  0  0  0  0
   -7.7070   21.9650  -30.4250 C   0  0  0  0  0  0  0  0  0  0  0  0
   -8.0930   20.8300  -31.3340 C   0  0  0  0  0  0  0  0  0  0  0  0
   -9.3340   20.7530  -31.9850 C   0  0  0  0  0  0  0  0  0  0  0  0
   -9.4810   19.6160  -32.7660 C   0  0  0  0  0  0  0  0  0  0  0  0
   -8.0760   18.7040  -32.6280 S   0  0  0  0  0  0  0  0  0  0  0  0
   -7.2680   19.7380  -31.5810 C   0  0  0  0  0  0  0  0  0  0  0  0
   -7.0910   24.3300  -30.2830 C   0  0  0  0  0  0  0  0  0  0  0  0
   -5.6050   24.2390  -30.1850 C   0  0  0  0  0  0  0  0  0  0  0  0
   -4.7370   24.7660  -29.2580 C   0  0  0  0  0  0  0  0  0  0  0  0
   -3.4830   24.4920  -29.6810 N   0  0  0  0  0  0  0  0  0  0  0  0
   -2.2520   24.8170  -28.9690 C   0  0  0  0  0  0  0  0  0  0  0  0
   -2.4190   24.5450  -27.4790 C   0  0  0  0  0  0  0  0  0  0  0  0
   -3.5180   23.8250  -30.8260 N   0  0  0  0  0  0  0  0  0  0  0  0
   -4.8170   23.6730  -31.1480 C   0  0  0  0  0  0  0  0  0  0  0  0
   -4.9408   18.8766  -32.6553 H   0  0  0  0  0  0  0  0  0  0  0  0
   -5.3893   19.6685  -34.2039 H   0  0  0  0  0  0  0  0  0  0  0  0
   -4.2629   18.2693  -34.2039 H   0  0  0  0  0  0  0  0  0  0  0  0
   -2.8571   19.8924  -32.5790 H   0  0  0  0  0  0  0  0  0  0  0  0
   -2.7182   19.9949  -34.3636 H   0  0  0  0  0  0  0  0  0  0  0  0
   -5.7371   20.9131  -32.7524 H   0  0  0  0  0  0  0  0  0  0  0  0
   -4.4787   21.2388  -31.5093 H   0  0  0  0  0  0  0  0  0  0  0  0
   -4.9529   23.5252  -33.2700 H   0  0  0  0  0  0  0  0  0  0  0  0
   -7.1270   24.1121  -33.0117 H   0  0  0  0  0  0  0  0  0  0  0  0
   -7.2887   22.2776  -32.9620 H   0  0  0  0  0  0  0  0  0  0  0  0
   -6.7277   21.7429  -29.9760 H   0  0  0  0  0  0  0  0  0  0  0  0
   -8.4857   22.0625  -29.6542 H   0  0  0  0  0  0  0  0  0  0  0  0
  -10.1154   21.5208  -31.8854 H   0  0  0  0  0  0  0  0  0  0  0  0
  -10.3630   19.3566  -33.3700 H   0  0  0  0  0  0  0  0  0  0  0  0
   -6.2626   19.5796  -31.1636 H   0  0  0  0  0  0  0  0  0  0  0  0
   -7.3669   25.3055  -30.7099 H   0  0  0  0  0  0  0  0  0  0  0  0
   -7.5220   24.2219  -29.2767 H   0  0  0  0  0  0  0  0  0  0  0  0
   -5.0121   25.3097  -28.3422 H   0  0  0  0  0  0  0  0  0  0  0  0
   -1.4311   24.1989  -29.3615 H   0  0  0  0  0  0  0  0  0  0  0  0
   -2.0227   25.8827  -29.1160 H   0  0  0  0  0  0  0  0  0  0  0  0
   -1.9286   25.3437  -26.9032 H   0  0  0  0  0  0  0  0  0  0  0  0
   -3.4899   24.5174  -27.2291 H   0  0  0  0  0  0  0  0  0  0  0  0
   -1.9591   23.5775  -27.2291 H   0  0  0  0  0  0  0  0  0  0  0  0
  1  2  1  0
  2  3  1  0
  3  4  1  0
  4  5  1  0
  5  6  1  0
  6  7  1  0
  7  8  1  0
  8  9  1  0
  9 10  1  0
 10 11  2  0
 11 12  1  0
 12 13  1  0
  7 14  1  0
 14 15  1  0
 15 16  2  0
 16 17  1  0
 17 18  1  0
 18 19  1  0
 17 20  1  0
 20 21  2  0
 21  5  1  0
 13  9  2  0
 21 15  1  0
  1 22  1  0
  1 23  1  0
  1 24  1  0
  2 25  1  0
  2 26  1  0
  4 27  1  0
  4 28  1  0
  5 29  1  6
  6 30  1  0
  6 31  1  0
  8 32  1  0
  8 33  1  0
 10 34  1  0
 11 35  1  0
 13 36  1  0
 14 37  1  0
 14 38  1  0
 16 39  1  0
 18 40  1  0
 18 41  1  0
 19 42  1  0
 19 43  1  0
 19 44  1  0
M  END
>  <UniqueID>  (19) 
18

>  <SMILES>  (19) 
CCOC[C@H]1CN(Cc2ccsc2)Cc2cn(CC)nc21

>  <Energy>  (19) 
102.26083234103572

>  <Genealogy>  (19) 
CCOC[C@H]1CN(Cc2ccsc2)Cc2cn(CC)nc21 (chirality)
CCOC[C@H]1CN(Cc2ccsc2)Cc2cn(CC)nc21 (3D coordinates assigned)
CCOC[C@H]1CN(Cc2ccsc2)Cc2cn(CC)nc21 (nonaromatic ring conformer: 102.26083234103572 kcal/mol)

>  <smiles>  (19) 
CCOCC1CN(Cc2ccsc2)Cc2cn(CC)nc21

>  <score_type>  (19) 
oracle

>  <origin>  (19) 
adg

>  <m_score__min__energy>  (19) 
-7.2000000000000002

>  <m_primary>  (19) 
energy

$$$$
19:0
     RDKit          3D

 49 50  0  0  0  0  0  0  0  0999 V2000
   -2.1082   16.4004  -33.1297 H   0  0  0  0  0  0  0  0  0  0  0  0
   -2.6170   17.2090  -33.6750 C   0  0  0  0  0  0  0  0  0  0  0  0
   -3.7920   16.8380  -34.4860 C   0  0  0  0  0  0  0  0  0  0  0  0
   -3.8360   17.0860  -35.7220 O   0  0  0  0  0  0  0  0  0  0  0  0
   -4.8920   16.2620  -33.8410 O   0  0  0  0  0  0  0  0  0  0  0  0
   -6.2380   16.6830  -34.0560 C   0  0  0  0  0  0  0  0  0  0  0  0
   -6.8529   16.3668  -33.2005 H   0  0  0  0  0  0  0  0  0  0  0  0
   -6.5998   16.2236  -34.9877 H   0  0  0  0  0  0  0  0  0  0  0  0
   -6.3310   18.2040  -34.2010 C   0  0  0  0  0  0  0  0  0  0  0  0
   -7.0987   18.4523  -34.9487 H   0  0  0  0  0  0  0  0  0  0  0  0
   -5.3551   18.5961  -34.5235 H   0  0  0  0  0  0  0  0  0  0  0  0
   -6.6960   18.8170  -32.9000 N   0  0  0  0  0  0  0  0  0  0  0  0
   -7.2260   17.8140  -31.9500 C   0  0  0  0  0  0  0  0  0  0  0  0
   -7.5505   16.9229  -32.5073 H   0  0  0  0  0  0  0  0  0  0  0  0
   -8.0773   18.2510  -31.4074 H   0  0  0  0  0  0  0  0  0  0  0  0
   -6.1500   17.4140  -30.9440 C   0  0  0  0  0  0  0  0  0  0  0  0
   -6.5322   17.5561  -29.9224 H   0  0  0  0  0  0  0  0  0  0  0  0
   -5.8841   16.3570  -31.0923 H   0  0  0  0  0  0  0  0  0  0  0  0
   -5.2582   18.0407  -31.0923 H   0  0  0  0  0  0  0  0  0  0  0  0
   -7.6410   19.9440  -33.0710 C   0  0  0  0  0  0  0  0  0  0  0  0
   -7.0931   20.8938  -32.9831 H   0  0  0  0  0  0  0  0  0  0  0  0
   -8.1102   19.8707  -34.0632 H   0  0  0  0  0  0  0  0  0  0  0  0
   -8.7280   19.8890  -32.0020 C   0  0  0  0  0  0  0  0  0  0  0  0
   -8.2635   19.9125  -31.0052 H   0  0  0  0  0  0  0  0  0  0  0  0
   -9.3975   20.7544  -32.1150 H   0  0  0  0  0  0  0  0  0  0  0  0
   -9.3068   18.9604  -32.1150 H   0  0  0  0  0  0  0  0  0  0  0  0
   -2.1140   18.4470  -33.5440 C   0  0  0  0  0  0  0  0  0  0  0  0
   -1.0897   18.6167  -33.9074 H   0  0  0  0  0  0  0  0  0  0  0  0
   -2.8230   19.6000  -32.9520 C   0  0  0  0  0  0  0  0  0  0  0  0
   -3.8840   20.1860  -33.6540 C   0  0  0  0  0  0  0  0  0  0  0  0
   -4.1555   19.8074  -34.6505 H   0  0  0  0  0  0  0  0  0  0  0  0
   -4.6000   21.2490  -33.0960 C   0  0  0  0  0  0  0  0  0  0  0  0
   -5.4205   21.7117  -33.6640 H   0  0  0  0  0  0  0  0  0  0  0  0
   -4.2800   21.7320  -31.8140 C   0  0  0  0  0  0  0  0  0  0  0  0
   -5.0370   22.8630  -31.2200 C   0  0  0  0  0  0  0  0  0  0  0  0
   -4.3740   23.8560  -30.4750 C   0  0  0  0  0  0  0  0  0  0  0  0
   -3.2852   23.7949  -30.3309 H   0  0  0  0  0  0  0  0  0  0  0  0
   -5.0890   24.9190  -29.9170 C   0  0  0  0  0  0  0  0  0  0  0  0
   -4.5619   25.6897  -29.3355 H   0  0  0  0  0  0  0  0  0  0  0  0
   -6.4710   25.0050  -30.0960 C   0  0  0  0  0  0  0  0  0  0  0  0
   -7.0313   25.8438  -29.6573 H   0  0  0  0  0  0  0  0  0  0  0  0
   -7.1420   24.0260  -30.8320 C   0  0  0  0  0  0  0  0  0  0  0  0
   -8.2311   24.0936  -30.9706 H   0  0  0  0  0  0  0  0  0  0  0  0
   -6.4320   22.9600  -31.3930 C   0  0  0  0  0  0  0  0  0  0  0  0
   -6.9657   22.1926  -31.9728 H   0  0  0  0  0  0  0  0  0  0  0  0
   -3.2350   21.1190  -31.1000 C   0  0  0  0  0  0  0  0  0  0  0  0
   -2.9781   21.4792  -30.0929 H   0  0  0  0  0  0  0  0  0  0  0  0
   -2.5200   20.0560  -31.6590 C   0  0  0  0  0  0  0  0  0  0  0  0
   -1.7160   19.5743  -31.0832 H   0  0  0  0  0  0  0  0  0  0  0  0
  1  2  1  0
  2  3  1  0
  3  4  2  0
  3  5  1  0
  5  6  1  0
  6  7  1  0
  6  8  1  0
  6  9  1  0
  9 10  1  0
  9 11  1  0
  9 12  1  0
 12 13  1  0
 13 14  1  0
 13 15  1  0
 13 16  1  0
 16 17  1  0
 16 18  1  0
 16 19  1  0
 12 20  1  0
 20 21  1  0
 20 22  1  0
 20 23  1  0
 23 24  1  0
 23 25  1  0
 23 26  1  0
  2 27  2  0
 27 28  1  0
 27 29  1  0
 29 30  2  0
 30 31  1  0
 30 32  1  0
 32 33  1  0
 32 34  2  0
 34 35  1  0
 35 36  2  0
 36 37  1  0
 36 38  1  0
 38 39  1  0
 38 40  2  0
 40 41  1  0
 40 42  1  0
 42 43  1  0
 42 44  2  0
 44 45  1  0
 34 46  1  0
 46 47  1  0
 46 48  2  0
 48 49  1  0
 48 29  1  0
 44 35  1  0
M  END
>  <UniqueID>  (20) 
19

>  <SMILES>  (20) 
CCN(CC)CCOC(=O)/C=C\c1ccc(-c2ccccc2)cc1

>  <Energy>  (20) 
57.76631654428407

>  <Genealogy>  (20) 
CCN(CC)CCOC(=O)/C=C\c1ccc(-c2ccccc2)cc1 (cis-trans isomerization)
CCN(CC)CCOC(=O)/C=C\c1ccc(-c2ccccc2)cc1 (3D coordinates assigned)
CCN(CC)CCOC(=O)/C=C\c1ccc(-c2ccccc2)cc1 (optimized conformer: 57.76631654428407 kcal/mol)

>  <smiles>  (20) 
CCN(CC)CCOC(=O)C=Cc1ccc(-c2ccccc2)cc1

>  <score_type>  (20) 
oracle

>  <origin>  (20) 
adg

>  <m_score__min__energy>  (20) 
-8.4800000000000004

>  <m_primary>  (20) 
energy

$$$$
20:0
     RDKit          3D

 59 62  0  0  0  0  0  0  0  0999 V2000
    0.7260   24.6820  -26.5480 C   0  0  0  0  0  0  0  0  0  0  0  0
    0.2650   24.6370  -27.8940 O   0  0  0  0  0  0  0  0  0  0  0  0
   -0.9790   24.1220  -28.2870 C   0  0  0  0  0  0  0  0  0  0  0  0
   -1.3200   22.8130  -27.8820 C   0  0  0  0  0  0  0  0  0  0  0  0
   -2.5590   22.2500  -28.2310 C   0  0  0  0  0  0  0  0  0  0  0  0
   -3.4470   23.0030  -28.9970 C   0  0  0  0  0  0  0  0  0  0  0  0
   -4.6730   22.5760  -29.3930 N   0  0  0  0  0  0  0  0  0  0  0  0
   -5.3100   23.5250  -30.1230 C   0  0  0  0  0  0  0  0  0  0  0  0
   -6.6550   23.3440  -30.6860 C   0  0  0  0  0  0  0  0  0  0  0  0
   -7.0650   24.1380  -31.5750 O   0  0  0  0  0  0  0  0  0  0  0  0
   -7.4960   22.2760  -30.2230 N   0  0  0  0  0  0  0  0  0  0  0  0
   -8.7710   21.9270  -30.8550 C   0  0  0  0  0  0  0  0  0  0  0  0
   -8.6000   20.8680  -31.9670 C   0  0  0  0  0  0  0  0  0  0  0  0
   -7.1650   20.8300  -32.5480 C   0  0  0  0  0  0  0  0  0  0  0  0
   -6.3490   19.6670  -31.9660 C   0  0  0  0  0  0  0  0  0  0  0  0
   -6.9700   18.3410  -32.2280 N   0  0  0  0  0  0  0  0  0  0  0  0
   -6.3180   17.6210  -33.3460 C   0  0  0  0  0  0  0  0  0  0  0  0
   -5.5730   18.5850  -34.2900 C   0  0  0  0  0  0  0  0  0  0  0  0
   -4.0390   18.4620  -34.2040 C   0  0  0  0  0  0  0  0  0  0  0  0
   -3.4090   19.5830  -33.4160 C   0  0  0  0  0  0  0  0  0  0  0  0
   -2.3070   19.3310  -32.5800 C   0  0  0  0  0  0  0  0  0  0  0  0
   -1.7620   20.3600  -31.7990 C   0  0  0  0  0  0  0  0  0  0  0  0
   -2.3130   21.6460  -31.8520 C   0  0  0  0  0  0  0  0  0  0  0  0
   -3.4050   21.9050  -32.6870 C   0  0  0  0  0  0  0  0  0  0  0  0
   -3.9520   20.8800  -33.4670 C   0  0  0  0  0  0  0  0  0  0  0  0
   -8.4490   18.3760  -32.3790 C   0  0  0  0  0  0  0  0  0  0  0  0
   -9.0810   19.4700  -31.5140 C   0  0  0  0  0  0  0  0  0  0  0  0
   -4.3720   24.9270  -30.2990 S   0  0  0  0  0  0  0  0  0  0  0  0
   -3.1100   24.2830  -29.4030 C   0  0  0  0  0  0  0  0  0  0  0  0
   -1.8930   24.8710  -29.0650 C   0  0  0  0  0  0  0  0  0  0  0  0
   -0.1313   24.5983  -25.8638 H   0  0  0  0  0  0  0  0  0  0  0  0
    1.4200   23.8473  -26.3700 H   0  0  0  0  0  0  0  0  0  0  0  0
    1.2455   25.6351  -26.3700 H   0  0  0  0  0  0  0  0  0  0  0  0
   -0.6061   22.2262  -27.2853 H   0  0  0  0  0  0  0  0  0  0  0  0
   -2.8234   21.2331  -27.9055 H   0  0  0  0  0  0  0  0  0  0  0  0
   -7.1800   21.7050  -29.4060 H   0  0  0  0  0  0  0  0  0  0  0  0
   -9.4497   21.5278  -30.0869 H   0  0  0  0  0  0  0  0  0  0  0  0
   -9.1802   22.8381  -31.3160 H   0  0  0  0  0  0  0  0  0  0  0  0
   -9.2543   21.1832  -32.7931 H   0  0  0  0  0  0  0  0  0  0  0  0
   -7.2252   20.7122  -33.6400 H   0  0  0  0  0  0  0  0  0  0  0  0
   -6.6612   21.7707  -32.2809 H   0  0  0  0  0  0  0  0  0  0  0  0
   -5.3458   19.6808  -32.4170 H   0  0  0  0  0  0  0  0  0  0  0  0
   -6.3072   19.8041  -30.8754 H   0  0  0  0  0  0  0  0  0  0  0  0
   -5.5978   16.8994  -32.9330 H   0  0  0  0  0  0  0  0  0  0  0  0
   -7.1004   17.1102  -33.9265 H   0  0  0  0  0  0  0  0  0  0  0  0
   -5.8827   18.3700  -35.3234 H   0  0  0  0  0  0  0  0  0  0  0  0
   -5.8346   19.6081  -33.9820 H   0  0  0  0  0  0  0  0  0  0  0  0
   -3.7891   17.5069  -33.7188 H   0  0  0  0  0  0  0  0  0  0  0  0
   -3.6434   18.5130  -35.2291 H   0  0  0  0  0  0  0  0  0  0  0  0
   -1.8705   18.3222  -32.5385 H   0  0  0  0  0  0  0  0  0  0  0  0
   -0.9015   20.1569  -31.1446 H   0  0  0  0  0  0  0  0  0  0  0  0
   -1.8872   22.4526  -31.2371 H   0  0  0  0  0  0  0  0  0  0  0  0
   -3.8347   22.9167  -32.7306 H   0  0  0  0  0  0  0  0  0  0  0  0
   -4.8101   21.0891  -34.1227 H   0  0  0  0  0  0  0  0  0  0  0  0
   -8.6952   18.5688  -33.4336 H   0  0  0  0  0  0  0  0  0  0  0  0
   -8.8501   17.4055  -32.0515 H   0  0  0  0  0  0  0  0  0  0  0  0
  -10.1758   19.4168  -31.6068 H   0  0  0  0  0  0  0  0  0  0  0  0
   -8.7796   19.3131  -30.4678 H   0  0  0  0  0  0  0  0  0  0  0  0
   -1.6490   25.8917  -29.3947 H   0  0  0  0  0  0  0  0  0  0  0  0
  1  2  1  0
  2  3  1  0
  3  4  2  0
  4  5  1  0
  5  6  2  0
  6  7  1  0
  7  8  2  0
  8  9  1  0
  9 10  2  0
  9 11  1  0
 11 12  1  0
 12 13  1  0
 13 14  1  0
 14 15  1  0
 15 16  1  0
 16 17  1  0
 17 18  1  0
 18 19  1  0
 19 20  1  0
 20 21  2  0
 21 22  1  0
 22 23  2  0
 23 24  1  0
 24 25  2  0
 16 26  1  0
 26 27  1  0
  8 28  1  0
 28 29  1  0
 29 30  2  0
 30  3  1  0
 29  6  1  0
 27 13  1  0
 25 20  1  0
  1 31  1  0
  1 32  1  0
  1 33  1  0
  4 34  1  0
  5 35  1  0
 11 36  1  0
 12 37  1  0
 12 38  1  0
 13 39  1  0
 14 40  1  0
 14 41  1  0
 15 42  1  0
 15 43  1  0
 17 44  1  0
 17 45  1  0
 18 46  1  0
 18 47  1  0
 19 48  1  0
 19 49  1  0
 21 50  1  0
 22 51  1  0
 23 52  1  0
 24 53  1  0
 25 54  1  0
 26 55  1  0
 26 56  1  0
 27 57  1  0
 27 58  1  0
 30 59  1  0
M  END
>  <UniqueID>  (21) 
20

>  <SMILES>  (21) 
COc1ccc2nc(C(=O)NCC3CCN(CCCc4ccccc4)CC3)sc2c1

>  <Energy>  (21) 
94.4344033767654

>  <Genealogy>  (21) 
COc1ccc2nc(C(=O)NCC3CCN(CCCc4ccccc4)CC3)sc2c1 (3D coordinates assigned)
COc1ccc2nc(C(=O)NCC3CCN(CCCc4ccccc4)CC3)sc2c1 (nonaromatic ring conformer: 94.4344033767654 kcal/mol)

>  <smiles>  (21) 
COc1ccc2nc(C(=O)NCC3CCN(CCCc4ccccc4)CC3)sc2c1

>  <score_type>  (21) 
oracle

>  <origin>  (21) 
adg

>  <m_score__min__energy>  (21) 
-9.4600000000000009

>  <m_primary>  (21) 
energy

$$$$
21:0
     RDKit          3D

 40 41  0  0  0  0  0  0  0  0999 V2000
   -5.5272   19.6127  -34.8975 H   0  0  0  0  0  0  0  0  0  0  0  0
   -6.0910   19.3310  -33.9960 C   0  0  0  0  0  0  0  0  0  0  0  0
   -6.6520   20.3260  -33.1900 C   0  0  0  0  0  0  0  0  0  0  0  0
   -6.5295   21.3848  -33.4621 H   0  0  0  0  0  0  0  0  0  0  0  0
   -7.3710   19.9800  -32.0350 C   0  0  0  0  0  0  0  0  0  0  0  0
   -8.0080   21.0480  -31.1830 C   0  0  0  0  0  0  0  0  0  0  0  0
   -8.6006   20.5655  -30.3918 H   0  0  0  0  0  0  0  0  0  0  0  0
   -7.2056   21.6671  -30.7553 H   0  0  0  0  0  0  0  0  0  0  0  0
   -8.9280   21.9620  -32.0050 C   0  0  0  0  0  0  0  0  0  0  0  0
   -8.9660   21.5881  -33.0388 H   0  0  0  0  0  0  0  0  0  0  0  0
   -9.9227   21.9478  -31.5356 H   0  0  0  0  0  0  0  0  0  0  0  0
   -8.4390   23.4160  -32.0240 C   0  0  0  0  0  0  0  0  0  0  0  0
   -8.9191   23.9491  -32.8579 H   0  0  0  0  0  0  0  0  0  0  0  0
   -8.7022   23.8937  -31.0687 H   0  0  0  0  0  0  0  0  0  0  0  0
   -6.9870   23.4630  -32.1940 N   0  0  0  0  0  0  0  0  0  0  0  0
   -6.5900   23.1330  -33.1030 H   0  0  0  0  0  0  0  0  0  0  0  0
   -6.0790   23.9340  -31.1810 C   0  0  0  0  0  0  0  0  0  0  0  0
   -6.5920   24.9680  -30.0180 S   0  0  0  0  0  0  0  0  0  0  0  0
   -4.6660   23.7590  -31.3480 N   0  0  0  0  0  0  0  0  0  0  0  0
   -4.0530   22.6790  -31.7470 C   0  0  0  0  0  0  0  0  0  0  0  0
   -3.4260   21.8750  -30.7860 C   0  0  0  0  0  0  0  0  0  0  0  0
   -3.4561   22.1580  -29.7235 H   0  0  0  0  0  0  0  0  0  0  0  0
   -2.7630   20.7130  -31.1840 C   0  0  0  0  0  0  0  0  0  0  0  0
   -2.2583   20.0828  -30.4369 H   0  0  0  0  0  0  0  0  0  0  0  0
   -2.7420   20.3530  -32.5310 C   0  0  0  0  0  0  0  0  0  0  0  0
   -1.8420   18.7640  -33.0920 Br  0  0  0  0  0  0  0  0  0  0  0  0
   -3.3950   21.1620  -33.4640 C   0  0  0  0  0  0  0  0  0  0  0  0
   -3.3904   20.8839  -34.5282 H   0  0  0  0  0  0  0  0  0  0  0  0
   -4.0370   22.2930  -33.0620 N   0  0  0  0  0  0  0  0  0  0  0  0
   -4.5490   22.8330  -33.7940 H   0  0  0  0  0  0  0  0  0  0  0  0
   -7.5270   18.6260  -31.7040 C   0  0  0  0  0  0  0  0  0  0  0  0
   -8.0944   18.3452  -30.8044 H   0  0  0  0  0  0  0  0  0  0  0  0
   -6.9660   17.6310  -32.5100 C   0  0  0  0  0  0  0  0  0  0  0  0
   -7.0917   16.5720  -32.2404 H   0  0  0  0  0  0  0  0  0  0  0  0
   -6.2410   17.9790  -33.6650 C   0  0  0  0  0  0  0  0  0  0  0  0
   -5.6600   17.0190  -34.5070 O   0  0  0  0  0  0  0  0  0  0  0  0
   -4.3580   17.1270  -35.0720 C   0  0  0  0  0  0  0  0  0  0  0  0
   -3.6124   17.1889  -34.2656 H   0  0  0  0  0  0  0  0  0  0  0  0
   -4.1535   16.2427  -35.6935 H   0  0  0  0  0  0  0  0  0  0  0  0
   -4.3020   18.0329  -35.6935 H   0  0  0  0  0  0  0  0  0  0  0  0
  1  2  1  0
  2  3  2  0
  3  4  1  0
  3  5  1  0
  5  6  1  0
  6  7  1  0
  6  8  1  0
  6  9  1  0
  9 10  1  0
  9 11  1  0
  9 12  1  0
 12 13  1  0
 12 14  1  0
 12 15  1  0
 15 16  1  0
 15 17  1  0
 17 18  2  0
 17 19  1  0
 19 20  2  0
 20 21  1  0
 21 22  1  0
 21 23  2  0
 23 24  1  0
 23 25  1  0
 25 26  1  0
 25 27  2  0
 27 28  1  0
 27 29  1  0
 29 30  1  0
  5 31  2  0
 31 32  1  0
 31 33  1  0
 33 34  1  0
 33 35  2  0
 35 36  1  0
 36 37  1  0
 37 38  1  0
 37 39  1  0
 37 40  1  0
 35  2  1  0
 29 20  1  0
M  END
>  <UniqueID>  (22) 
21

>  <SMILES>  (22) 
COc1ccc(CCCNC(=S)/N=c2/ccc(Br)c[nH]2)cc1

>  <Energy>  (22) 
40.3448221014266

>  <Genealogy>  (22) 
COc1ccc(CCCNC(=S)/N=c2/ccc(Br)c[nH]2)cc1 (cis-trans isomerization)
COc1ccc(CCCNC(=S)/N=c2/ccc(Br)c[nH]2)cc1 (3D coordinates assigned)
COc1ccc(CCCNC(=S)/N=c2/ccc(Br)c[nH]2)cc1 (optimized conformer: 40.3448221014266 kcal/mol)

>  <smiles>  (22) 
COc1ccc(CCCNC(=S)N=c2ccc(Br)c[nH]2)cc1

>  <score_type>  (22) 
oracle

>  <origin>  (22) 
adg

>  <m_score__min__energy>  (22) 
-9.0399999999999991

>  <m_primary>  (22) 
energy

$$$$
22:0
     RDKit          3D

 46 48  0  0  0  0  0  0  0  0999 V2000
   -5.2906   21.4109  -33.2642 H   0  0  0  0  0  0  0  0  0  0  0  0
   -6.0970   20.7530  -32.9080 C   0  0  0  0  0  0  0  0  0  0  0  0
   -7.1040   21.2790  -32.0910 C   0  0  0  0  0  0  0  0  0  0  0  0
   -7.0960   22.7210  -31.6950 C   0  0  0  0  0  0  0  0  0  0  0  0
   -6.9820   23.6130  -32.5780 O   0  0  0  0  0  0  0  0  0  0  0  0
   -7.2400   23.1620  -30.2640 C   0  0  0  0  0  0  0  0  0  0  0  0
   -8.2716   22.9735  -29.9321 H   0  0  0  0  0  0  0  0  0  0  0  0
   -6.5262   22.5935  -29.6497 H   0  0  0  0  0  0  0  0  0  0  0  0
   -6.8710   24.9430  -30.0840 S   0  0  0  0  0  0  0  0  0  0  0  0
   -5.1310   24.7070  -29.7320 C   0  0  0  0  0  0  0  0  0  0  0  0
   -4.1380   25.2010  -30.5030 N   0  0  0  0  0  0  0  0  0  0  0  0
   -2.9240   24.9010  -30.0490 N   0  0  0  0  0  0  0  0  0  0  0  0
   -2.9510   24.1720  -28.9130 C   0  0  0  0  0  0  0  0  0  0  0  0
   -1.8640   23.7800  -28.3160 N   0  0  0  0  0  0  0  0  0  0  0  0
   -0.8660   24.6620  -27.7030 C   0  0  0  0  0  0  0  0  0  0  0  0
    0.1344   24.4490  -28.1078 H   0  0  0  0  0  0  0  0  0  0  0  0
   -0.7790   24.4080  -26.1750 C   0  0  0  0  0  0  0  0  0  0  0  0
   -1.0545   23.3626  -25.9721 H   0  0  0  0  0  0  0  0  0  0  0  0
    0.2520   24.6162  -25.8531 H   0  0  0  0  0  0  0  0  0  0  0  0
   -1.7170   25.3290  -25.3880 C   0  0  0  0  0  0  0  0  0  0  0  0
   -2.7507   25.1536  -25.7206 H   0  0  0  0  0  0  0  0  0  0  0  0
   -1.6035   25.1011  -24.3179 H   0  0  0  0  0  0  0  0  0  0  0  0
   -1.3680   26.8160  -25.6030 C   0  0  0  0  0  0  0  0  0  0  0  0
   -2.2930   27.4060  -25.5244 H   0  0  0  0  0  0  0  0  0  0  0  0
   -0.6322   27.0912  -24.8330 H   0  0  0  0  0  0  0  0  0  0  0  0
   -0.7210   27.1020  -26.9730 C   0  0  0  0  0  0  0  0  0  0  0  0
   -0.9694   28.1291  -27.2785 H   0  0  0  0  0  0  0  0  0  0  0  0
    0.3673   26.9760  -26.8746 H   0  0  0  0  0  0  0  0  0  0  0  0
   -1.2240   26.1280  -28.0440 C   0  0  0  0  0  0  0  0  0  0  0  0
   -2.3175   26.2184  -28.1218 H   0  0  0  0  0  0  0  0  0  0  0  0
   -0.7366   26.3858  -28.9958 H   0  0  0  0  0  0  0  0  0  0  0  0
   -4.5320   23.8550  -28.4080 S   0  0  0  0  0  0  0  0  0  0  0  0
   -8.1220   20.4020  -31.6640 C   0  0  0  0  0  0  0  0  0  0  0  0
   -9.0740   20.8420  -30.9600 O   0  0  0  0  0  0  0  0  0  0  0  0
   -8.0970   19.0780  -32.0250 N   0  0  0  0  0  0  0  0  0  0  0  0
   -9.1780   18.1700  -31.6000 C   0  0  0  0  0  0  0  0  0  0  0  0
   -9.2179   18.1365  -30.5012 H   0  0  0  0  0  0  0  0  0  0  0  0
  -10.1390   18.5358  -31.9908 H   0  0  0  0  0  0  0  0  0  0  0  0
   -8.9836   17.1603  -31.9908 H   0  0  0  0  0  0  0  0  0  0  0  0
   -7.1040   18.6110  -32.8510 C   0  0  0  0  0  0  0  0  0  0  0  0
   -7.1170   17.4050  -33.2320 O   0  0  0  0  0  0  0  0  0  0  0  0
   -6.0990   19.4410  -33.2690 N   0  0  0  0  0  0  0  0  0  0  0  0
   -5.0390   18.9340  -34.1510 C   0  0  0  0  0  0  0  0  0  0  0  0
   -4.2128   18.5388  -33.5417 H   0  0  0  0  0  0  0  0  0  0  0  0
   -5.4428   18.1316  -34.7858 H   0  0  0  0  0  0  0  0  0  0  0  0
   -4.6677   19.7520  -34.7858 H   0  0  0  0  0  0  0  0  0  0  0  0
  1  2  1  0
  2  3  2  0
  3  4  1  0
  4  5  2  0
  4  6  1  0
  6  7  1  0
  6  8  1  0
  6  9  1  0
  9 10  1  0
 10 11  2  0
 11 12  1  0
 12 13  1  0
 13 14  2  0
 14 15  1  0
 15 16  1  0
 15 17  1  0
 17 18  1  0
 17 19  1  0
 17 20  1  0
 20 21  1  0
 20 22  1  0
 20 23  1  0
 23 24  1  0
 23 25  1  0
 23 26  1  0
 26 27  1  0
 26 28  1  0
 26 29  1  0
 29 30  1  0
 29 31  1  0
 13 32  1  0
  3 33  1  0
 33 34  2  0
 33 35  1  0
 35 36  1  0
 36 37  1  0
 36 38  1  0
 36 39  1  0
 35 40  1  0
 40 41  2  0
 40 42  1  0
 42 43  1  0
 43 44  1  0
 43 45  1  0
 43 46  1  0
 42  2  1  0
 32 10  1  0
 29 15  1  0
M  CHG  1  12  -1
M  END
>  <UniqueID>  (23) 
22

>  <SMILES>  (23) 
Cn1cc(C(=O)CSc2n[n-]/c(=N/C3CCCCC3)s2)c(=O)n(C)c1=O

>  <Energy>  (23) 
88.76736380478226

>  <Genealogy>  (23) 
Cn1cc(C(=O)CSc2n[n-]c(=NC3CCCCC3)s2)c(=O)n(C)c1=O (protonated)
Cn1cc(C(=O)CSc2n[n-]/c(=N/C3CCCCC3)s2)c(=O)n(C)c1=O (cis-trans isomerization)
Cn1cc(C(=O)CSc2n[n-]/c(=N/C3CCCCC3)s2)c(=O)n(C)c1=O (3D coordinates assigned)
Cn1cc(C(=O)CSc2n[n-]/c(=N/C3CCCCC3)s2)c(=O)n(C)c1=O (nonaromatic ring conformer: 88.76736380478226 kcal/mol)

>  <smiles>  (23) 
Cn1cc(C(=O)CSc2n[nH]c(=NC3CCCCC3)s2)c(=O)n(C)c1=O

>  <score_type>  (23) 
oracle

>  <origin>  (23) 
adg

>  <m_score__min__energy>  (23) 
-10.779999999999999

>  <m_primary>  (23) 
energy

$$$$
23:0
     RDKit          3D

 50 54  0  0  0  0  0  0  0  0999 V2000
   -1.2420   26.3500  -28.9690 O   0  0  0  0  0  0  0  0  0  0  0  0
   -0.7300   25.5100  -28.1810 C   0  0  0  0  0  0  0  0  0  0  0  0
   -0.1760   24.2890  -28.6910 N   0  0  0  0  0  0  0  0  0  0  0  0
   -0.8860   23.2480  -29.3800 C   0  0  0  0  0  0  0  0  0  0  0  0
   -0.2820   22.0200  -29.7050 C   0  0  0  0  0  0  0  0  0  0  0  0
   -1.0150   21.0210  -30.3560 C   0  0  0  0  0  0  0  0  0  0  0  0
   -2.3630   21.2330  -30.6750 C   0  0  0  0  0  0  0  0  0  0  0  0
   -3.0920   20.2780  -31.3170 N   0  0  0  0  0  0  0  0  0  0  0  0
   -4.4040   20.4800  -31.6370 C   0  0  0  0  0  0  0  0  0  0  0  0
   -5.1180   19.4380  -32.4160 C   0  0  0  0  0  0  0  0  0  0  0  0
   -5.7330   18.3630  -31.7530 C   0  0  0  0  0  0  0  0  0  0  0  0
   -6.4040   17.3770  -32.4810 C   0  0  0  0  0  0  0  0  0  0  0  0
   -6.4580   17.4490  -33.8760 C   0  0  0  0  0  0  0  0  0  0  0  0
   -5.8350   18.5060  -34.5450 C   0  0  0  0  0  0  0  0  0  0  0  0
   -5.1620   19.4950  -33.8200 C   0  0  0  0  0  0  0  0  0  0  0  0
   -5.0270   21.6970  -31.2570 C   0  0  0  0  0  0  0  0  0  0  0  0
   -6.4630   21.9740  -31.4840 C   0  0  0  0  0  0  0  0  0  0  0  0
   -7.4240   21.0130  -31.1300 C   0  0  0  0  0  0  0  0  0  0  0  0
   -8.7830   21.2590  -31.3510 C   0  0  0  0  0  0  0  0  0  0  0  0
   -9.1910   22.4600  -31.9370 C   0  0  0  0  0  0  0  0  0  0  0  0
   -8.2410   23.4130  -32.3110 C   0  0  0  0  0  0  0  0  0  0  0  0
   -6.8810   23.1700  -32.0940 C   0  0  0  0  0  0  0  0  0  0  0  0
   -4.2840   22.6460  -30.6270 N   0  0  0  0  0  0  0  0  0  0  0  0
   -2.9740   22.4510  -30.3300 C   0  0  0  0  0  0  0  0  0  0  0  0
   -2.2400   23.4470  -29.6780 C   0  0  0  0  0  0  0  0  0  0  0  0
   -0.7530   25.7590  -26.7200 C   0  0  0  0  0  0  0  0  0  0  0  0
   -0.8470   27.0730  -26.2200 C   0  0  0  0  0  0  0  0  0  0  0  0
   -0.8660   27.3070  -24.8420 C   0  0  0  0  0  0  0  0  0  0  0  0
   -0.7920   26.2360  -23.9480 C   0  0  0  0  0  0  0  0  0  0  0  0
   -0.6980   24.9290  -24.4310 C   0  0  0  0  0  0  0  0  0  0  0  0
   -0.6780   24.6890  -25.8080 C   0  0  0  0  0  0  0  0  0  0  0  0
    0.7725   21.8437  -29.4461 H   0  0  0  0  0  0  0  0  0  0  0  0
   -0.5321   20.0679  -30.6177 H   0  0  0  0  0  0  0  0  0  0  0  0
   -2.6280   19.3830  -31.5960 H   0  0  0  0  0  0  0  0  0  0  0  0
   -5.6861   18.2972  -30.6560 H   0  0  0  0  0  0  0  0  0  0  0  0
   -6.8908   16.5423  -31.9553 H   0  0  0  0  0  0  0  0  0  0  0  0
   -6.9906   16.6741  -34.4468 H   0  0  0  0  0  0  0  0  0  0  0  0
   -5.8739   18.5603  -35.6430 H   0  0  0  0  0  0  0  0  0  0  0  0
   -4.6652   20.3206  -34.3506 H   0  0  0  0  0  0  0  0  0  0  0  0
   -7.1064   20.0624  -30.6768 H   0  0  0  0  0  0  0  0  0  0  0  0
   -9.5315   20.5061  -31.0631 H   0  0  0  0  0  0  0  0  0  0  0  0
  -10.2607   22.6550  -32.1038 H   0  0  0  0  0  0  0  0  0  0  0  0
   -8.5630   24.3560  -32.7769 H   0  0  0  0  0  0  0  0  0  0  0  0
   -6.1351   23.9176  -32.4018 H   0  0  0  0  0  0  0  0  0  0  0  0
   -2.7287   24.3918  -29.3977 H   0  0  0  0  0  0  0  0  0  0  0  0
   -0.9058   27.9205  -26.9188 H   0  0  0  0  0  0  0  0  0  0  0  0
   -0.9393   28.3362  -24.4609 H   0  0  0  0  0  0  0  0  0  0  0  0
   -0.8078   26.4221  -22.8640 H   0  0  0  0  0  0  0  0  0  0  0  0
   -0.6396   24.0864  -23.7262 H   0  0  0  0  0  0  0  0  0  0  0  0
   -0.6032   23.6571  -26.1816 H   0  0  0  0  0  0  0  0  0  0  0  0
  1  2  2  0
  2  3  1  0
  3  4  1  0
  4  5  2  0
  5  6  1  0
  6  7  2  0
  7  8  1  0
  8  9  2  0
  9 10  1  0
 10 11  2  0
 11 12  1  0
 12 13  2  0
 13 14  1  0
 14 15  2  0
  9 16  1  0
 16 17  1  0
 17 18  2  0
 18 19  1  0
 19 20  2  0
 20 21  1  0
 21 22  2  0
 16 23  2  0
 23 24  1  0
 24 25  2  0
  2 26  1  0
 26 27  2  0
 27 28  1  0
 28 29  2  0
 29 30  1  0
 30 31  2  0
 25  4  1  0
 31 26  1  0
 24  7  1  0
 15 10  1  0
 22 17  1  0
  5 32  1  0
  6 33  1  0
  8 34  1  0
 11 35  1  0
 12 36  1  0
 13 37  1  0
 14 38  1  0
 15 39  1  0
 18 40  1  0
 19 41  1  0
 20 42  1  0
 21 43  1  0
 22 44  1  0
 25 45  1  0
 27 46  1  0
 28 47  1  0
 29 48  1  0
 30 49  1  0
 31 50  1  0
M  CHG  2   3  -1   8   1
M  END
>  <UniqueID>  (24) 
23

>  <SMILES>  (24) 
O=C([N-]c1ccc2[nH+]c(-c3ccccc3)c(-c3ccccc3)nc2c1)c1ccccc1

>  <Energy>  (24) 
77.03732069876781

>  <Genealogy>  (24) 
O=C([N-]c1ccc2[nH+]c(-c3ccccc3)c(-c3ccccc3)nc2c1)c1ccccc1 (protonated)
O=C([N-]c1ccc2[nH+]c(-c3ccccc3)c(-c3ccccc3)nc2c1)c1ccccc1 (3D coordinates assigned)
O=C([N-]c1ccc2[nH+]c(-c3ccccc3)c(-c3ccccc3)nc2c1)c1ccccc1 (optimized conformer: 77.03732069876781 kcal/mol)

>  <smiles>  (24) 
O=C(Nc1ccc2nc(-c3ccccc3)c(-c3ccccc3)nc2c1)c1ccccc1

>  <score_type>  (24) 
oracle

>  <origin>  (24) 
adg

>  <m_score__min__energy>  (24) 
-11.4

>  <m_primary>  (24) 
energy

$$$$
24:0
     RDKit          3D

 78 81  0  0  0  0  0  0  0  0999 V2000
   -0.9438   25.5194  -29.8622 H   0  0  0  0  0  0  0  0  0  0  0  0
   -1.0700   24.8970  -28.9640 C   0  0  0  0  0  0  0  0  0  0  0  0
   -0.0530   24.7870  -28.0630 N   0  0  0  0  0  0  0  0  0  0  0  0
   -0.1510   23.9970  -26.9550 C   0  0  0  0  0  0  0  0  0  0  0  0
    0.7950   23.9620  -26.0710 N   0  0  0  0  0  0  0  0  0  0  0  0
    1.9400   24.8750  -26.0070 C   0  0  0  0  0  0  0  0  0  0  0  0
    2.8561   24.3130  -26.2412 H   0  0  0  0  0  0  0  0  0  0  0  0
    1.7722   25.6826  -26.7348 H   0  0  0  0  0  0  0  0  0  0  0  0
    2.0910   25.5150  -24.6100 C   0  0  0  0  0  0  0  0  0  0  0  0
    2.7088   24.8544  -23.9839 H   0  0  0  0  0  0  0  0  0  0  0  0
    2.5606   26.5009  -24.7423 H   0  0  0  0  0  0  0  0  0  0  0  0
    0.7870   25.7230  -23.9390 N   0  0  0  0  0  0  0  0  0  0  0  0
    0.0590   25.1620  -24.4350 H   0  0  0  0  0  0  0  0  0  0  0  0
    0.8590   25.3050  -22.9820 H   0  0  0  0  0  0  0  0  0  0  0  0
    0.3710   27.1440  -23.8800 C   0  0  0  0  0  0  0  0  0  0  0  0
   -0.2610   27.2893  -22.9915 H   0  0  0  0  0  0  0  0  0  0  0  0
    1.2836   27.7563  -23.8337 H   0  0  0  0  0  0  0  0  0  0  0  0
   -0.4050   27.5730  -25.1000 C   0  0  0  0  0  0  0  0  0  0  0  0
   -1.2760   26.7950  -25.5750 O   0  0  0  0  0  0  0  0  0  0  0  0
   -0.2650   28.8880  -25.6650 N   0  0  0  0  0  0  0  0  0  0  0  0
    0.0680   30.0420  -24.8130 C   0  0  0  0  0  0  0  0  0  0  0  0
   -0.0154   29.7528  -23.7550 H   0  0  0  0  0  0  0  0  0  0  0  0
    1.0970   30.3686  -25.0238 H   0  0  0  0  0  0  0  0  0  0  0  0
   -0.6288   30.8666  -25.0238 H   0  0  0  0  0  0  0  0  0  0  0  0
   -0.4920   29.0760  -27.1020 C   0  0  0  0  0  0  0  0  0  0  0  0
   -1.3312   29.7710  -27.2528 H   0  0  0  0  0  0  0  0  0  0  0  0
    0.4154   29.4907  -27.5654 H   0  0  0  0  0  0  0  0  0  0  0  0
   -0.7304   28.1073  -27.5654 H   0  0  0  0  0  0  0  0  0  0  0  0
   -1.3210   23.2620  -26.7360 C   0  0  0  0  0  0  0  0  0  0  0  0
   -1.3956   22.5855  -25.8718 H   0  0  0  0  0  0  0  0  0  0  0  0
   -2.3940   23.3920  -27.6210 C   0  0  0  0  0  0  0  0  0  0  0  0
   -3.3303   22.8460  -27.4333 H   0  0  0  0  0  0  0  0  0  0  0  0
   -2.2790   24.2160  -28.7460 C   0  0  0  0  0  0  0  0  0  0  0  0
   -3.4510   24.5340  -29.5070 N   0  0  0  0  0  0  0  0  0  0  0  0
   -4.1570   23.8470  -30.3700 C   0  0  0  0  0  0  0  0  0  0  0  0
   -5.5280   24.1790  -30.4670 C   0  0  0  0  0  0  0  0  0  0  0  0
   -6.1030   25.2140  -29.6330 C   0  0  0  0  0  0  0  0  0  0  0  0
   -6.5650   26.0430  -28.9670 N   0  0  0  0  0  0  0  0  0  0  0  0
   -6.3480   23.5560  -31.4060 C   0  0  0  0  0  0  0  0  0  0  0  0
   -7.4103   23.8321  -31.4783 H   0  0  0  0  0  0  0  0  0  0  0  0
   -5.8370   22.6120  -32.2280 N   0  0  0  0  0  0  0  0  0  0  0  0
   -4.5360   22.2270  -32.1750 C   0  0  0  0  0  0  0  0  0  0  0  0
   -4.1140   21.2320  -33.0550 C   0  0  0  0  0  0  0  0  0  0  0  0
   -4.8262   20.8029  -33.7752 H   0  0  0  0  0  0  0  0  0  0  0  0
   -2.7940   20.7750  -33.0300 C   0  0  0  0  0  0  0  0  0  0  0  0
   -2.2940   19.8080  -33.9180 O   0  0  0  0  0  0  0  0  0  0  0  0
   -2.5980   18.4170  -33.9970 C   0  0  0  0  0  0  0  0  0  0  0  0
   -2.5733   18.0957  -35.0487 H   0  0  0  0  0  0  0  0  0  0  0  0
   -1.8545   17.8465  -33.4211 H   0  0  0  0  0  0  0  0  0  0  0  0
   -3.9960   18.1640  -33.4180 C   0  0  0  0  0  0  0  0  0  0  0  0
   -4.0265   17.1531  -32.9853 H   0  0  0  0  0  0  0  0  0  0  0  0
   -4.1946   18.9244  -32.6483 H   0  0  0  0  0  0  0  0  0  0  0  0
   -5.0870   18.2780  -34.5070 C   0  0  0  0  0  0  0  0  0  0  0  0
   -4.8876   19.1851  -35.0965 H   0  0  0  0  0  0  0  0  0  0  0  0
   -5.0297   17.3523  -35.0984 H   0  0  0  0  0  0  0  0  0  0  0  0
   -6.4750   18.3580  -33.9950 N   0  0  0  0  0  0  0  0  0  0  0  0
   -6.8440   19.7160  -33.5570 C   0  0  0  0  0  0  0  0  0  0  0  0
   -5.9922   20.1686  -33.0282 H   0  0  0  0  0  0  0  0  0  0  0  0
   -7.1054   20.3139  -34.4425 H   0  0  0  0  0  0  0  0  0  0  0  0
   -8.0570   19.6730  -32.6150 C   0  0  0  0  0  0  0  0  0  0  0  0
   -8.3078   20.7042  -32.3256 H   0  0  0  0  0  0  0  0  0  0  0  0
   -8.8718   19.1794  -33.1650 H   0  0  0  0  0  0  0  0  0  0  0  0
   -7.8390   18.9150  -31.4300 O   0  0  0  0  0  0  0  0  0  0  0  0
   -6.9160   17.8480  -31.5980 C   0  0  0  0  0  0  0  0  0  0  0  0
   -5.9145   18.2094  -31.3217 H   0  0  0  0  0  0  0  0  0  0  0  0
   -7.2593   17.0241  -30.9551 H   0  0  0  0  0  0  0  0  0  0  0  0
   -6.8540   17.2980  -33.0360 C   0  0  0  0  0  0  0  0  0  0  0  0
   -6.1085   16.4903  -33.0800 H   0  0  0  0  0  0  0  0  0  0  0  0
   -7.8502   16.9196  -33.3088 H   0  0  0  0  0  0  0  0  0  0  0  0
   -1.8870   21.3190  -32.1040 C   0  0  0  0  0  0  0  0  0  0  0  0
   -0.5520   20.8970  -32.1640 O   0  0  0  0  0  0  0  0  0  0  0  0
    0.3070   20.9600  -33.3080 C   0  0  0  0  0  0  0  0  0  0  0  0
    1.3533   21.0367  -32.9771 H   0  0  0  0  0  0  0  0  0  0  0  0
    0.1795   20.0501  -33.9128 H   0  0  0  0  0  0  0  0  0  0  0  0
    0.0481   21.8416  -33.9128 H   0  0  0  0  0  0  0  0  0  0  0  0
   -2.3300   22.2850  -31.1750 C   0  0  0  0  0  0  0  0  0  0  0  0
   -1.6391   22.6387  -30.3955 H   0  0  0  0  0  0  0  0  0  0  0  0
   -3.6460   22.8090  -31.2250 C   0  0  0  0  0  0  0  0  0  0  0  0
  1  2  1  0
  2  3  1  0
  3  4  1  0
  4  5  2  3
  5  6  1  0
  6  7  1  0
  6  8  1  0
  6  9  1  0
  9 10  1  0
  9 11  1  0
  9 12  1  0
 12 13  1  0
 12 14  1  0
 12 15  1  0
 15 16  1  0
 15 17  1  0
 15 18  1  0
 18 19  2  0
 18 20  1  0
 20 21  1  0
 21 22  1  0
 21 23  1  0
 21 24  1  0
 20 25  1  0
 25 26  1  0
 25 27  1  0
 25 28  1  0
  4 29  1  0
 29 30  1  0
 29 31  2  0
 31 32  1  0
 31 33  1  0
 33 34  1  0
 34 35  2  0
 35 36  1  0
 36 37  1  0
 37 38  3  0
 36 39  2  0
 39 40  1  0
 39 41  1  0
 41 42  1  0
 42 43  2  0
 43 44  1  0
 43 45  1  0
 45 46  1  0
 46 47  1  0
 47 48  1  0
 47 49  1  0
 47 50  1  0
 50 51  1  0
 50 52  1  0
 50 53  1  0
 53 54  1  0
 53 55  1  0
 53 56  1  0
 56 57  1  0
 57 58  1  0
 57 59  1  0
 57 60  1  0
 60 61  1  0
 60 62  1  0
 60 63  1  0
 63 64  1  0
 64 65  1  0
 64 66  1  0
 64 67  1  0
 67 68  1  0
 67 69  1  0
 45 70  2  0
 70 71  1  0
 71 72  1  0
 72 73  1  0
 72 74  1  0
 72 75  1  0
 70 76  1  0
 76 77  1  0
 76 78  2  0
 33  2  2  0
 78 35  1  0
 78 42  1  0
 67 56  1  0
M  CHG  3   3  -1  12   1  41  -1
M  END
>  <UniqueID>  (25) 
24

>  <SMILES>  (25) 
COc1cc2/c(=N\c3ccc(=NCC[NH2+]CC(=O)N(C)C)[n-]c3)c(C#N)c[n-]c2cc1OCCCN1CCOCC1

>  <Energy>  (25) 
132.4482996432055

>  <Genealogy>  (25) 
COc1cc2c(=Nc3ccc(=NCC[NH2+]CC(=O)N(C)C)[n-]c3)c(C#N)c[n-]c2cc1OCCCN1CCOCC1 (protonated)
COc1cc2/c(=N\c3ccc(=NCC[NH2+]CC(=O)N(C)C)[n-]c3)c(C#N)c[n-]c2cc1OCCCN1CCOCC1 (cis-trans isomerization)
COc1cc2/c(=N\c3ccc(=NCC[NH2+]CC(=O)N(C)C)[n-]c3)c(C#N)c[n-]c2cc1OCCCN1CCOCC1 (3D coordinates assigned)
COc1cc2/c(=N\c3ccc(=NCC[NH2+]CC(=O)N(C)C)[n-]c3)c(C#N)c[n-]c2cc1OCCCN1CCOCC1 (nonaromatic ring conformer: 132.4482996432055 kcal/mol)

>  <smiles>  (25) 
COc1cc2c(=Nc3ccc(=NCCNCC(=O)N(C)C)[nH]c3)c(C#N)c[nH]c2cc1OCCCN1CCOCC1

>  <score_type>  (25) 
oracle

>  <origin>  (25) 
adg

>  <m_score__min__energy>  (25) 
-9.6400000000000006

>  <m_primary>  (25) 
energy

$$$$
25:0
     RDKit          3D

 52 53  0  0  0  0  0  0  0  0999 V2000
   -3.4880   21.9060  -27.8410 C   0  0  0  0  0  0  0  0  0  0  0  0
   -2.1830   22.5290  -28.3580 C   0  0  0  0  0  0  0  0  0  0  0  0
   -1.3680   21.4890  -29.1440 C   0  0  0  0  0  0  0  0  0  0  0  0
   -2.4480   23.8290  -29.1660 C   0  0  1  0  0  0  0  0  0  0  0  0
   -3.7090   24.4460  -28.7330 N   0  0  0  0  0  0  0  0  0  0  0  0
   -4.8040   24.6740  -30.0660 S   0  0  0  0  0  0  0  0  0  0  0  0
   -4.2090   25.6650  -31.0270 O   0  0  0  0  0  0  0  0  0  0  0  0
   -6.1180   25.2170  -29.5740 O   0  0  0  0  0  0  0  0  0  0  0  0
   -5.0540   23.1400  -30.8950 C   0  0  0  0  0  0  0  0  0  0  0  0
   -4.0870   22.6400  -31.7750 C   0  0  0  0  0  0  0  0  0  0  0  0
   -4.3070   21.4410  -32.4590 C   0  0  0  0  0  0  0  0  0  0  0  0
   -5.4980   20.7170  -32.2670 C   0  0  0  0  0  0  0  0  0  0  0  0
   -5.7390   19.4450  -32.9900 C   0  0  0  0  0  0  0  0  0  0  0  0
   -5.8810   19.2860  -34.3690 C   0  0  0  0  0  0  0  0  0  0  0  0
   -6.1060   17.9610  -34.7600 C   0  0  0  0  0  0  0  0  0  0  0  0
   -6.1370   17.0680  -33.6970 C   0  0  0  0  0  0  0  0  0  0  0  0
   -6.3460   15.5820  -33.7950 C   0  0  0  0  0  0  0  0  0  0  0  0
   -5.0340   14.7480  -33.7180 C   0  0  0  0  0  0  0  0  0  0  0  0
   -4.5980   14.5430  -32.2530 C   0  0  0  0  0  0  0  0  0  0  0  0
   -5.2970   13.3680  -34.3540 C   0  0  0  0  0  0  0  0  0  0  0  0
   -3.8970   15.4410  -34.5010 C   0  0  0  0  0  0  0  0  0  0  0  0
   -5.8990   17.9260  -32.2710 S   0  0  0  0  0  0  0  0  0  0  0  0
   -6.4610   21.2210  -31.3740 C   0  0  0  0  0  0  0  0  0  0  0  0
   -6.2420   22.4260  -30.6990 C   0  0  0  0  0  0  0  0  0  0  0  0
   -1.3340   24.8330  -29.0240 C   0  0  0  0  0  0  0  0  0  0  0  0
   -1.5830   26.0670  -28.9680 O   0  0  0  0  0  0  0  0  0  0  0  0
   -0.0180   24.3960  -28.9230 O   0  0  0  0  0  0  0  0  0  0  0  0
   -3.4845   21.9077  -26.7410 H   0  0  0  0  0  0  0  0  0  0  0  0
   -4.3441   22.4926  -28.2058 H   0  0  0  0  0  0  0  0  0  0  0  0
   -3.5702   20.8715  -28.2058 H   0  0  0  0  0  0  0  0  0  0  0  0
   -1.5736   22.8339  -27.4944 H   0  0  0  0  0  0  0  0  0  0  0  0
   -0.8466   20.8236  -28.4401 H   0  0  0  0  0  0  0  0  0  0  0  0
   -2.0441   20.8956  -29.7771 H   0  0  0  0  0  0  0  0  0  0  0  0
   -0.6302   22.0036  -29.7771 H   0  0  0  0  0  0  0  0  0  0  0  0
   -2.5083   23.5382  -30.2252 H   0  0  0  0  0  0  0  0  0  0  0  0
   -3.1490   23.1936  -31.9291 H   0  0  0  0  0  0  0  0  0  0  0  0
   -3.5429   21.0605  -33.1529 H   0  0  0  0  0  0  0  0  0  0  0  0
   -5.8218   20.1224  -35.0810 H   0  0  0  0  0  0  0  0  0  0  0  0
   -6.2448   17.6565  -35.8079 H   0  0  0  0  0  0  0  0  0  0  0  0
   -7.0021   15.2704  -32.9689 H   0  0  0  0  0  0  0  0  0  0  0  0
   -6.7865   15.3887  -34.7843 H   0  0  0  0  0  0  0  0  0  0  0  0
   -5.3859   14.9135  -31.5807 H   0  0  0  0  0  0  0  0  0  0  0  0
   -4.4307   13.4719  -32.0667 H   0  0  0  0  0  0  0  0  0  0  0  0
   -3.6664   15.0974  -32.0667 H   0  0  0  0  0  0  0  0  0  0  0  0
   -5.4396   12.6197  -33.5604 H   0  0  0  0  0  0  0  0  0  0  0  0
   -6.2018   13.4181  -34.9776 H   0  0  0  0  0  0  0  0  0  0  0  0
   -4.4372   13.0818  -34.9776 H   0  0  0  0  0  0  0  0  0  0  0  0
   -3.1782   15.8791  -33.7929 H   0  0  0  0  0  0  0  0  0  0  0  0
   -3.3841   14.7018  -35.1339 H   0  0  0  0  0  0  0  0  0  0  0  0
   -4.3190   16.2356  -35.1339 H   0  0  0  0  0  0  0  0  0  0  0  0
   -7.3937   20.6628  -31.2053 H   0  0  0  0  0  0  0  0  0  0  0  0
   -7.0070   22.8147  -30.0107 H   0  0  0  0  0  0  0  0  0  0  0  0
  1  2  1  0
  2  3  1  0
  2  4  1  0
  4  5  1  0
  5  6  1  0
  6  7  2  0
  6  8  2  0
  6  9  1  0
  9 10  2  0
 10 11  1  0
 11 12  2  0
 12 13  1  0
 13 14  2  0
 14 15  1  0
 15 16  2  0
 16 17  1  0
 17 18  1  0
 18 19  1  0
 18 20  1  0
 18 21  1  0
 16 22  1  0
 12 23  1  0
 23 24  2  0
  4 25  1  0
 25 26  2  0
 25 27  1  0
 24  9  1  0
 22 13  1  0
  1 28  1  0
  1 29  1  0
  1 30  1  0
  2 31  1  0
  3 32  1  0
  3 33  1  0
  3 34  1  0
  4 35  1  6
 10 36  1  0
 11 37  1  0
 14 38  1  0
 15 39  1  0
 17 40  1  0
 17 41  1  0
 19 42  1  0
 19 43  1  0
 19 44  1  0
 20 45  1  0
 20 46  1  0
 20 47  1  0
 21 48  1  0
 21 49  1  0
 21 50  1  0
 23 51  1  0
 24 52  1  0
M  CHG  2   5  -1  27  -1
M  END
>  <UniqueID>  (26) 
25

>  <SMILES>  (26) 
CC(C)[C@@H]([N-]S(=O)(=O)c1ccc(-c2ccc(CC(C)(C)C)s2)cc1)C(=O)[O-]

>  <Energy>  (26) 
70.09364706472199

>  <Genealogy>  (26) 
CC(C)C([N-]S(=O)(=O)c1ccc(-c2ccc(CC(C)(C)C)s2)cc1)C(=O)[O-] (protonated)
CC(C)[C@@H]([N-]S(=O)(=O)c1ccc(-c2ccc(CC(C)(C)C)s2)cc1)C(=O)[O-] (chirality)
CC(C)[C@@H]([N-]S(=O)(=O)c1ccc(-c2ccc(CC(C)(C)C)s2)cc1)C(=O)[O-] (3D coordinates assigned)
CC(C)[C@@H]([N-]S(=O)(=O)c1ccc(-c2ccc(CC(C)(C)C)s2)cc1)C(=O)[O-] (optimized conformer: 70.09364706472199 kcal/mol)

>  <smiles>  (26) 
CC(C)C(NS(=O)(=O)c1ccc(-c2ccc(CC(C)(C)C)s2)cc1)C(=O)O

>  <score_type>  (26) 
oracle

>  <origin>  (26) 
adg

>  <m_score__min__energy>  (26) 
-12.66

>  <m_primary>  (26) 
energy

$$$$
26:0
     RDKit          3D

 38 39  0  0  0  0  0  0  0  0999 V2000
   -5.7044   18.3552  -35.0703 H   0  0  0  0  0  0  0  0  0  0  0  0
   -5.7120   17.9020  -34.0680 C   0  0  0  0  0  0  0  0  0  0  0  0
   -5.6680   16.5150  -33.9300 C   0  0  0  0  0  0  0  0  0  0  0  0
   -5.6258   15.8693  -34.8195 H   0  0  0  0  0  0  0  0  0  0  0  0
   -5.6780   15.9540  -32.6510 C   0  0  0  0  0  0  0  0  0  0  0  0
   -5.6446   14.8610  -32.5313 H   0  0  0  0  0  0  0  0  0  0  0  0
   -5.7290   16.7560  -31.5520 N   0  0  0  0  0  0  0  0  0  0  0  0
   -5.7330   16.3210  -30.6030 H   0  0  0  0  0  0  0  0  0  0  0  0
   -5.7700   18.1120  -31.6640 C   0  0  0  0  0  0  0  0  0  0  0  0
   -5.8065   18.7348  -30.7580 H   0  0  0  0  0  0  0  0  0  0  0  0
   -5.7660   18.7200  -32.9290 C   0  0  0  0  0  0  0  0  0  0  0  0
   -5.7660   20.2210  -33.0540 C   0  0  0  0  0  0  0  0  0  0  0  0
   -5.6214   20.4979  -34.1087 H   0  0  0  0  0  0  0  0  0  0  0  0
   -4.9492   20.6325  -32.4428 H   0  0  0  0  0  0  0  0  0  0  0  0
   -7.0490   20.7710  -32.5770 N   0  0  0  0  0  0  0  0  0  0  0  0
   -8.1850   20.0260  -32.7620 C   0  0  0  0  0  0  0  0  0  0  0  0
   -8.1220   19.0631  -33.2900 H   0  0  0  0  0  0  0  0  0  0  0  0
   -9.4170   20.4710  -32.2910 C   0  0  0  0  0  0  0  0  0  0  0  0
  -10.3227   19.8675  -32.4507 H   0  0  0  0  0  0  0  0  0  0  0  0
   -9.4930   21.6830  -31.6180 C   0  0  0  0  0  0  0  0  0  0  0  0
  -10.4611   22.0437  -31.2403 H   0  0  0  0  0  0  0  0  0  0  0  0
   -8.3420   22.4410  -31.4220 C   0  0  0  0  0  0  0  0  0  0  0  0
   -8.3997   23.4015  -30.8890 H   0  0  0  0  0  0  0  0  0  0  0  0
   -7.1000   21.9760  -31.9080 C   0  0  0  0  0  0  0  0  0  0  0  0
   -5.9950   22.6570  -31.7390 N   0  0  0  0  0  0  0  0  0  0  0  0
   -5.1740   22.8270  -30.5380 C   0  0  0  0  0  0  0  0  0  0  0  0
   -4.3441   22.1054  -30.5639 H   0  0  0  0  0  0  0  0  0  0  0  0
   -5.8050   22.6551  -29.6536 H   0  0  0  0  0  0  0  0  0  0  0  0
   -4.6010   24.2500  -30.4630 C   0  0  0  0  0  0  0  0  0  0  0  0
   -3.8103   24.3442  -31.2219 H   0  0  0  0  0  0  0  0  0  0  0  0
   -4.2255   24.3867  -29.4381 H   0  0  0  0  0  0  0  0  0  0  0  0
   -5.6370   25.3580  -30.7060 C   0  0  0  0  0  0  0  0  0  0  0  0
   -6.0332   25.2531  -31.7268 H   0  0  0  0  0  0  0  0  0  0  0  0
   -5.1318   26.3251  -30.5662 H   0  0  0  0  0  0  0  0  0  0  0  0
   -6.8020   25.2950  -29.7190 C   0  0  0  0  0  0  0  0  0  0  0  0
   -6.4127   25.3161  -28.6904 H   0  0  0  0  0  0  0  0  0  0  0  0
   -7.4644   26.1586  -29.8781 H   0  0  0  0  0  0  0  0  0  0  0  0
   -7.3674   24.3650  -29.8781 H   0  0  0  0  0  0  0  0  0  0  0  0
  1  2  1  0
  2  3  2  0
  3  4  1  0
  3  5  1  0
  5  6  1  0
  5  7  2  0
  7  8  1  0
  7  9  1  0
  9 10  1  0
  9 11  2  0
 11 12  1  0
 12 13  1  0
 12 14  1  0
 12 15  1  0
 15 16  1  0
 16 17  1  0
 16 18  2  0
 18 19  1  0
 18 20  1  0
 20 21  1  0
 20 22  2  0
 22 23  1  0
 22 24  1  0
 24 25  2  0
 25 26  1  0
 26 27  1  0
 26 28  1  0
 26 29  1  0
 29 30  1  0
 29 31  1  0
 29 32  1  0
 32 33  1  0
 32 34  1  0
 32 35  1  0
 35 36  1  0
 35 37  1  0
 35 38  1  0
 11  2  1  0
 24 15  1  0
M  CHG  1   7   1
M  END
>  <UniqueID>  (27) 
26

>  <SMILES>  (27) 
CCCC/N=c1\ccccn1Cc1ccc[nH+]c1

>  <Energy>  (27) 
38.12707713057634

>  <Genealogy>  (27) 
CCCCN=c1ccccn1Cc1ccc[nH+]c1 (protonated)
CCCC/N=c1\ccccn1Cc1ccc[nH+]c1 (cis-trans isomerization)
CCCC/N=c1\ccccn1Cc1ccc[nH+]c1 (3D coordinates assigned)
CCCC/N=c1\ccccn1Cc1ccc[nH+]c1 (optimized conformer: 38.12707713057634 kcal/mol)

>  <smiles>  (27) 
CCCCN=c1ccccn1Cc1cccnc1

>  <score_type>  (27) 
oracle

>  <origin>  (27) 
adg

>  <m_score__min__energy>  (27) 
-5.8399999999999999

>  <m_primary>  (27) 
energy

$$$$
27:0
     RDKit          3D

 47 48  0  0  0  0  0  0  0  0999 V2000
   -6.8740   17.4130  -33.7910 C   0  0  0  0  0  0  0  0  0  0  0  0
   -6.7970   18.5690  -32.8470 C   0  0  0  0  0  0  0  0  0  0  0  0
   -6.5320   18.3580  -31.6330 O   0  0  0  0  0  0  0  0  0  0  0  0
   -7.1160   19.8910  -33.3090 N   0  0  0  0  0  0  0  0  0  0  0  0
   -6.9060   21.0870  -32.5390 C   0  0  0  0  0  0  0  0  0  0  0  0
   -5.7000   21.7900  -32.6760 C   0  0  0  0  0  0  0  0  0  0  0  0
   -5.4610   22.9440  -31.9240 C   0  0  0  0  0  0  0  0  0  0  0  0
   -6.4290   23.4130  -31.0200 C   0  0  0  0  0  0  0  0  0  0  0  0
   -6.2120   24.5790  -30.2130 N   0  0  0  0  0  0  0  0  0  0  0  0
   -5.2140   25.5830  -30.4280 C   0  0  0  0  0  0  0  0  0  0  0  0
   -5.5660   26.7900  -30.4810 O   0  0  0  0  0  0  0  0  0  0  0  0
   -3.8360   25.2170  -30.5870 N   0  0  0  0  0  0  0  0  0  0  0  0
   -3.0560   24.3980  -29.7040 C   0  0  0  0  0  0  0  0  0  0  0  0
   -2.8880   23.0450  -30.0200 C   0  0  0  0  0  0  0  0  0  0  0  0
   -2.1200   22.2150  -29.1990 C   0  0  0  0  0  0  0  0  0  0  0  0
   -1.4930   22.7320  -28.0550 C   0  0  0  0  0  0  0  0  0  0  0  0
   -0.6990   21.8780  -27.2090 N   0  0  0  0  0  0  0  0  0  0  0  0
   -0.9360   20.4280  -27.2090 C   0  0  0  0  0  0  0  0  0  0  0  0
   -1.8880   20.0450  -26.0790 C   0  0  0  0  0  0  0  0  0  0  0  0
   -3.1330   18.9200  -26.6780 Cl  0  0  0  0  0  0  0  0  0  0  0  0
    0.3470   22.4610  -26.3570 C   0  0  0  0  0  0  0  0  0  0  0  0
   -0.1990   22.7340  -24.9570 C   0  0  0  0  0  0  0  0  0  0  0  0
   -0.3120   24.4880  -24.6710 Cl  0  0  0  0  0  0  0  0  0  0  0  0
   -1.6390   24.0950  -27.7510 C   0  0  0  0  0  0  0  0  0  0  0  0
   -2.4090   24.9250  -28.5720 C   0  0  0  0  0  0  0  0  0  0  0  0
   -7.6110   22.6840  -30.8450 C   0  0  0  0  0  0  0  0  0  0  0  0
   -7.8510   21.5300  -31.5970 C   0  0  0  0  0  0  0  0  0  0  0  0
   -6.9364   16.4757  -33.2186 H   0  0  0  0  0  0  0  0  0  0  0  0
   -7.7673   17.5159  -34.4246 H   0  0  0  0  0  0  0  0  0  0  0  0
   -5.9750   17.3965  -34.4246 H   0  0  0  0  0  0  0  0  0  0  0  0
   -7.6090   19.9770  -34.2270 H   0  0  0  0  0  0  0  0  0  0  0  0
   -4.9360   21.4303  -33.3809 H   0  0  0  0  0  0  0  0  0  0  0  0
   -4.5115   23.4869  -32.0405 H   0  0  0  0  0  0  0  0  0  0  0  0
   -3.3641   22.6318  -30.9214 H   0  0  0  0  0  0  0  0  0  0  0  0
   -2.0063   21.1503  -29.4509 H   0  0  0  0  0  0  0  0  0  0  0  0
   -1.3788   20.1330  -28.1718 H   0  0  0  0  0  0  0  0  0  0  0  0
    0.0226   19.9095  -27.0595 H   0  0  0  0  0  0  0  0  0  0  0  0
   -1.3182   19.5604  -25.2724 H   0  0  0  0  0  0  0  0  0  0  0  0
   -2.3781   20.9536  -25.6992 H   0  0  0  0  0  0  0  0  0  0  0  0
    1.1907   21.7587  -26.2866 H   0  0  0  0  0  0  0  0  0  0  0  0
    0.6819   23.4100  -26.8012 H   0  0  0  0  0  0  0  0  0  0  0  0
   -1.1991   22.2856  -24.8634 H   0  0  0  0  0  0  0  0  0  0  0  0
    0.4819   22.2928  -24.2143 H   0  0  0  0  0  0  0  0  0  0  0  0
   -1.1446   24.5126  -26.8615 H   0  0  0  0  0  0  0  0  0  0  0  0
   -2.5089   25.9937  -28.3315 H   0  0  0  0  0  0  0  0  0  0  0  0
   -8.3568   23.0216  -30.1102 H   0  0  0  0  0  0  0  0  0  0  0  0
   -8.7839   20.9658  -31.4509 H   0  0  0  0  0  0  0  0  0  0  0  0
  1  2  1  0
  2  3  2  0
  2  4  1  0
  4  5  1  0
  5  6  2  0
  6  7  1  0
  7  8  2  0
  8  9  1  0
  9 10  1  0
 10 11  2  0
 10 12  1  0
 12 13  1  0
 13 14  2  0
 14 15  1  0
 15 16  2  0
 16 17  1  0
 17 18  1  0
 18 19  1  0
 19 20  1  0
 17 21  1  0
 21 22  1  0
 22 23  1  0
 16 24  1  0
 24 25  2  0
  8 26  1  0
 26 27  2  0
 27  5  1  0
 25 13  1  0
  1 28  1  0
  1 29  1  0
  1 30  1  0
  4 31  1  0
  6 32  1  0
  7 33  1  0
 14 34  1  0
 15 35  1  0
 18 36  1  0
 18 37  1  0
 19 38  1  0
 19 39  1  0
 21 40  1  0
 21 41  1  0
 22 42  1  0
 22 43  1  0
 24 44  1  0
 25 45  1  0
 26 46  1  0
 27 47  1  0
M  CHG  2   9  -1  12  -1
M  END
>  <UniqueID>  (28) 
27

>  <SMILES>  (28) 
CC(=O)Nc1ccc([N-]C(=O)[N-]c2ccc(N(CCCl)CCCl)cc2)cc1

>  <Energy>  (28) 
52.45914523010281

>  <Genealogy>  (28) 
CC(=O)Nc1ccc([N-]C(=O)[N-]c2ccc(N(CCCl)CCCl)cc2)cc1 (protonated)
CC(=O)Nc1ccc([N-]C(=O)[N-]c2ccc(N(CCCl)CCCl)cc2)cc1 (3D coordinates assigned)
CC(=O)Nc1ccc([N-]C(=O)[N-]c2ccc(N(CCCl)CCCl)cc2)cc1 (optimized conformer: 52.45914523010281 kcal/mol)

>  <smiles>  (28) 
CC(=O)Nc1ccc(NC(=O)Nc2ccc(N(CCCl)CCCl)cc2)cc1

>  <score_type>  (28) 
oracle

>  <origin>  (28) 
adg

>  <m_score__min__energy>  (28) 
-11.18

>  <m_primary>  (28) 
energy

$$$$
28:0
     RDKit          3D

 49 52  0  0  0  0  0  0  0  0999 V2000
    3.0770   24.0520  -35.7400 C   0  0  0  0  0  0  0  0  0  0  0  0
    2.4550   22.6700  -35.4930 C   0  0  0  0  0  0  0  0  0  0  0  0
    0.9810   22.6810  -35.3420 N   0  0  0  0  0  0  0  0  0  0  0  0
    0.3300   23.7670  -36.0920 C   0  0  0  0  0  0  0  0  0  0  0  0
    0.3500   21.3670  -35.5990 C   0  0  0  0  0  0  0  0  0  0  0  0
    0.3940   20.4930  -34.3410 C   0  0  0  0  0  0  0  0  0  0  0  0
   -0.5020   21.0390  -33.2710 C   0  0  0  0  0  0  0  0  0  0  0  0
   -0.2080   21.1790  -31.9270 C   0  0  0  0  0  0  0  0  0  0  0  0
   -1.3150   21.6090  -31.2950 N   0  0  0  0  0  0  0  0  0  0  0  0
   -2.2930   21.7330  -32.1800 N   0  0  0  0  0  0  0  0  0  0  0  0
   -3.6320   22.1440  -31.8660 C   0  0  0  0  0  0  0  0  0  0  0  0
   -3.8640   23.3830  -31.3530 N   0  0  0  0  0  0  0  0  0  0  0  0
   -5.1220   23.7910  -31.0460 C   0  0  0  0  0  0  0  0  0  0  0  0
   -6.2080   22.9390  -31.2680 C   0  0  0  0  0  0  0  0  0  0  0  0
   -5.9520   21.6580  -31.7820 C   0  0  0  0  0  0  0  0  0  0  0  0
   -4.6730   21.2950  -32.0720 N   0  0  0  0  0  0  0  0  0  0  0  0
   -7.0760   20.7230  -32.0170 C   0  0  0  0  0  0  0  0  0  0  0  0
   -6.8460   19.3620  -32.2900 C   0  0  0  0  0  0  0  0  0  0  0  0
   -7.9210   18.4950  -32.4980 C   0  0  0  0  0  0  0  0  0  0  0  0
   -9.2320   18.9770  -32.4450 C   0  0  0  0  0  0  0  0  0  0  0  0
   -9.4720   20.3270  -32.1830 C   0  0  0  0  0  0  0  0  0  0  0  0
   -8.4020   21.2050  -31.9530 C   0  0  0  0  0  0  0  0  0  0  0  0
   -8.6610   22.6790  -31.7580 C   0  0  0  0  0  0  0  0  0  0  0  0
   -7.6040   23.3300  -30.8530 C   0  0  0  0  0  0  0  0  0  0  0  0
   -1.8330   21.3870  -33.3990 C   0  0  0  0  0  0  0  0  0  0  0  0
    3.2940   24.5341  -34.7754 H   0  0  0  0  0  0  0  0  0  0  0  0
    4.0103   23.9373  -36.3108 H   0  0  0  0  0  0  0  0  0  0  0  0
    2.3723   24.6746  -36.3108 H   0  0  0  0  0  0  0  0  0  0  0  0
    2.7089   22.0212  -36.3442 H   0  0  0  0  0  0  0  0  0  0  0  0
    2.8658   22.3064  -34.5396 H   0  0  0  0  0  0  0  0  0  0  0  0
   -0.1039   24.4909  -35.3866 H   0  0  0  0  0  0  0  0  0  0  0  0
    1.0740   24.2727  -36.7250 H   0  0  0  0  0  0  0  0  0  0  0  0
   -0.4667   23.3491  -36.7250 H   0  0  0  0  0  0  0  0  0  0  0  0
   -0.6979   21.5209  -35.8959 H   0  0  0  0  0  0  0  0  0  0  0  0
    0.9024   20.8593  -36.4034 H   0  0  0  0  0  0  0  0  0  0  0  0
    0.0658   19.4754  -34.5993 H   0  0  0  0  0  0  0  0  0  0  0  0
    1.4258   20.4823  -33.9598 H   0  0  0  0  0  0  0  0  0  0  0  0
    0.7644   20.9739  -31.4555 H   0  0  0  0  0  0  0  0  0  0  0  0
   -1.4010   21.7980  -30.2700 H   0  0  0  0  0  0  0  0  0  0  0  0
   -5.2869   24.7926  -30.6223 H   0  0  0  0  0  0  0  0  0  0  0  0
   -5.8159   18.9795  -32.3398 H   0  0  0  0  0  0  0  0  0  0  0  0
   -7.7356   17.4305  -32.7040 H   0  0  0  0  0  0  0  0  0  0  0  0
  -10.0761   18.2913  -32.6100 H   0  0  0  0  0  0  0  0  0  0  0  0
  -10.5050   20.7043  -32.1567 H   0  0  0  0  0  0  0  0  0  0  0  0
   -8.6444   23.1761  -32.7391 H   0  0  0  0  0  0  0  0  0  0  0  0
   -9.6420   22.7922  -31.2735 H   0  0  0  0  0  0  0  0  0  0  0  0
   -7.7031   24.4237  -30.9165 H   0  0  0  0  0  0  0  0  0  0  0  0
   -7.7690   22.9822  -29.8226 H   0  0  0  0  0  0  0  0  0  0  0  0
   -2.4153   21.3825  -34.3322 H   0  0  0  0  0  0  0  0  0  0  0  0
  1  2  1  0
  2  3  1  0
  3  4  1  0
  3  5  1  0
  5  6  1  0
  6  7  1  0
  7  8  1  0
  8  9  2  0
  9 10  1  0
 10 11  1  0
 11 12  2  0
 12 13  1  0
 13 14  2  0
 14 15  1  0
 15 16  2  0
 15 17  1  0
 17 18  2  0
 18 19  1  0
 19 20  2  0
 20 21  1  0
 21 22  2  0
 22 23  1  0
 23 24  1  0
 10 25  1  0
 25  7  2  0
 16 11  1  0
 22 17  1  0
 24 14  1  0
  1 26  1  0
  1 27  1  0
  1 28  1  0
  2 29  1  0
  2 30  1  0
  4 31  1  0
  4 32  1  0
  4 33  1  0
  5 34  1  0
  5 35  1  0
  6 36  1  0
  6 37  1  0
  8 38  1  0
  9 39  1  0
 13 40  1  0
 18 41  1  0
 19 42  1  0
 20 43  1  0
 21 44  1  0
 23 45  1  0
 23 46  1  0
 24 47  1  0
 24 48  1  0
 25 49  1  0
M  CHG  1   9   1
M  END
>  <UniqueID>  (29) 
28

>  <SMILES>  (29) 
CCN(C)CCc1c[nH+]n(-c2ncc3c(n2)-c2ccccc2CC3)c1

>  <Energy>  (29) 
86.98282223732909

>  <Genealogy>  (29) 
CCN(C)CCc1c[nH+]n(-c2ncc3c(n2)-c2ccccc2CC3)c1 (protonated)
CCN(C)CCc1c[nH+]n(-c2ncc3c(n2)-c2ccccc2CC3)c1 (3D coordinates assigned)
CCN(C)CCc1c[nH+]n(-c2ncc3c(n2)-c2ccccc2CC3)c1 (nonaromatic ring conformer: 86.98282223732909 kcal/mol)

>  <smiles>  (29) 
CCN(C)CCc1cnn(-c2ncc3c(n2)-c2ccccc2CC3)c1

>  <score_type>  (29) 
oracle

>  <origin>  (29) 
adg

>  <m_score__min__energy>  (29) 
-8.1600000000000001

>  <m_primary>  (29) 
energy

$$$$
29:0
     RDKit          3D

 43 44  0  0  0  0  0  0  0  0999 V2000
   -6.4030   16.7790  -33.6800 C   0  0  0  0  0  0  0  0  0  0  0  0
   -5.9900   18.2470  -33.7270 C   0  0  0  0  0  0  0  0  0  0  0  0
   -6.6620   18.9920  -32.6400 N   0  0  0  0  0  0  0  0  0  0  0  0
   -7.3150   18.0890  -31.6650 C   0  0  0  0  0  0  0  0  0  0  0  0
   -8.7330   18.5470  -31.3270 C   0  0  0  0  0  0  0  0  0  0  0  0
   -7.4960   20.1240  -33.1210 C   0  0  0  0  0  0  0  0  0  0  0  0
   -7.0910   21.5200  -32.6020 C   0  0  0  0  0  0  0  0  0  0  0  0
   -5.6700   21.7980  -32.8190 N   0  0  0  0  0  0  0  0  0  0  0  0
   -4.7850   22.1750  -31.7550 C   0  0  0  0  0  0  0  0  0  0  0  0
   -4.4990   23.5010  -31.5790 N   0  0  0  0  0  0  0  0  0  0  0  0
   -3.7350   23.9360  -30.5730 N   0  0  0  0  0  0  0  0  0  0  0  0
   -3.4920   25.2840  -30.4570 O   0  0  0  0  0  0  0  0  0  0  0  0
   -3.2230   23.0380  -29.6850 C   0  0  0  0  0  0  0  0  0  0  0  0
   -2.3990   23.2990  -28.5680 C   0  0  0  0  0  0  0  0  0  0  0  0
   -1.9560   24.6700  -28.1380 C   0  0  0  0  0  0  0  0  0  0  0  0
   -2.0280   22.1140  -27.9090 C   0  0  0  0  0  0  0  0  0  0  0  0
   -1.1580   22.0050  -26.6980 C   0  0  0  0  0  0  0  0  0  0  0  0
   -2.7090   20.7810  -28.7000 S   0  0  0  0  0  0  0  0  0  0  0  0
   -3.4840   21.6970  -29.8720 C   0  0  0  0  0  0  0  0  0  0  0  0
   -4.2330   21.2470  -30.9070 N   0  0  0  0  0  0  0  0  0  0  0  0
   -4.3370   19.8850  -31.1190 O   0  0  0  0  0  0  0  0  0  0  0  0
   -6.4936   16.4570  -32.6321 H   0  0  0  0  0  0  0  0  0  0  0  0
   -7.3712   16.6541  -34.1870 H   0  0  0  0  0  0  0  0  0  0  0  0
   -5.6420   16.1676  -34.1870 H   0  0  0  0  0  0  0  0  0  0  0  0
   -4.8998   18.3237  -33.6025 H   0  0  0  0  0  0  0  0  0  0  0  0
   -6.2836   18.6759  -34.6965 H   0  0  0  0  0  0  0  0  0  0  0  0
   -7.3605   17.0766  -32.0927 H   0  0  0  0  0  0  0  0  0  0  0  0
   -6.7223   18.1011  -30.7384 H   0  0  0  0  0  0  0  0  0  0  0  0
   -8.8550   18.5864  -30.2345 H   0  0  0  0  0  0  0  0  0  0  0  0
   -8.9064   19.5468  -31.7516 H   0  0  0  0  0  0  0  0  0  0  0  0
   -9.4585   17.8375  -31.7516 H   0  0  0  0  0  0  0  0  0  0  0  0
   -7.4403   20.1423  -34.2194 H   0  0  0  0  0  0  0  0  0  0  0  0
   -8.5072   19.9397  -32.7293 H   0  0  0  0  0  0  0  0  0  0  0  0
   -7.6856   22.2805  -33.1292 H   0  0  0  0  0  0  0  0  0  0  0  0
   -7.2794   21.5461  -31.5186 H   0  0  0  0  0  0  0  0  0  0  0  0
   -5.3270   21.8870  -33.8000 H   0  0  0  0  0  0  0  0  0  0  0  0
   -1.9392   24.7221  -27.0394 H   0  0  0  0  0  0  0  0  0  0  0  0
   -0.9477   24.8693  -28.5300 H   0  0  0  0  0  0  0  0  0  0  0  0
   -2.6570   25.4216  -28.5300 H   0  0  0  0  0  0  0  0  0  0  0  0
   -1.7781   22.0827  -25.7928 H   0  0  0  0  0  0  0  0  0  0  0  0
   -0.6395   21.0349  -26.7051 H   0  0  0  0  0  0  0  0  0  0  0  0
   -0.4162   22.8172  -26.7051 H   0  0  0  0  0  0  0  0  0  0  0  0
   -5.1800   19.4560  -31.4760 H   0  0  0  0  0  0  0  0  0  0  0  0
  1  2  1  0
  2  3  1  0
  3  4  1  0
  4  5  1  0
  3  6  1  0
  6  7  1  0
  7  8  1  0
  8  9  1  0
  9 10  2  0
 10 11  1  0
 11 12  1  0
 11 13  2  0
 13 14  1  0
 14 15  1  0
 14 16  2  0
 16 17  1  0
 16 18  1  0
 18 19  1  0
 19 20  2  0
 20 21  1  0
 20  9  1  0
 19 13  1  0
  1 22  1  0
  1 23  1  0
  1 24  1  0
  2 25  1  0
  2 26  1  0
  4 27  1  0
  4 28  1  0
  5 29  1  0
  5 30  1  0
  5 31  1  0
  6 32  1  0
  6 33  1  0
  7 34  1  0
  7 35  1  0
  8 36  1  0
 15 37  1  0
 15 38  1  0
 15 39  1  0
 17 40  1  0
 17 41  1  0
 17 42  1  0
 21 43  1  0
M  CHG  3  11   1  12  -1  20   1
M  END
>  <UniqueID>  (30) 
29

>  <SMILES>  (30) 
CCN(CC)CCNc1n[n+]([O-])c2c(C)c(C)sc2[n+]1O

>  <Energy>  (30) 
82.81771653367304

>  <Genealogy>  (30) 
CCN(CC)CCNc1n[n+]([O-])c2c(C)c(C)sc2[n+]1O (protonated)
CCN(CC)CCNc1n[n+]([O-])c2c(C)c(C)sc2[n+]1O (3D coordinates assigned)
CCN(CC)CCNc1n[n+]([O-])c2c(C)c(C)sc2[n+]1O (optimized conformer: 82.81771653367304 kcal/mol)

>  <smiles>  (30) 
CCN(CC)CCNc1n[n+]([O-])c2c(C)c(C)sc2[n+]1[O-]

>  <score_type>  (30) 
oracle

>  <origin>  (30) 
adg

>  <m_score__min__energy>  (30) 
-7.1699999999999999

>  <m_primary>  (30) 
energy

$$$$
30:0
     RDKit          3D

 24 24  0  0  0  0  0  0  0  0999 V2000
   -8.9960   18.1810  -31.6090 C   0  0  0  0  0  0  0  0  0  0  0  0
   -9.3270   19.4090  -32.2490 O   0  0  0  0  0  0  0  0  0  0  0  0
   -8.5710   20.5850  -32.1430 C   0  0  0  0  0  0  0  0  0  0  0  0
   -9.1400   21.8150  -31.7580 C   0  0  0  0  0  0  0  0  0  0  0  0
   -8.3440   22.9620  -31.6670 C   0  0  0  0  0  0  0  0  0  0  0  0
   -6.9720   22.8980  -31.9540 C   0  0  0  0  0  0  0  0  0  0  0  0
   -6.1230   24.1410  -31.8790 C   0  0  0  0  0  0  0  0  0  0  0  0
   -5.2060   24.1370  -30.6450 C   0  0  0  0  0  0  0  0  0  0  0  0
   -4.2690   25.2610  -30.6470 N   0  0  0  0  0  0  0  0  0  0  0  0
   -6.4090   21.6740  -32.3450 C   0  0  0  0  0  0  0  0  0  0  0  0
   -7.2040   20.5270  -32.4360 C   0  0  0  0  0  0  0  0  0  0  0  0
   -9.0321   18.3149  -30.5178 H   0  0  0  0  0  0  0  0  0  0  0  0
   -9.7173   17.4059  -31.9074 H   0  0  0  0  0  0  0  0  0  0  0  0
   -7.9829   17.8734  -31.9074 H   0  0  0  0  0  0  0  0  0  0  0  0
  -10.2141   21.8738  -31.5281 H   0  0  0  0  0  0  0  0  0  0  0  0
   -8.7963   23.9193  -31.3688 H   0  0  0  0  0  0  0  0  0  0  0  0
   -5.5007   24.2014  -32.7840 H   0  0  0  0  0  0  0  0  0  0  0  0
   -6.7953   25.0081  -31.8006 H   0  0  0  0  0  0  0  0  0  0  0  0
   -5.8293   24.1974  -29.7407 H   0  0  0  0  0  0  0  0  0  0  0  0
   -4.6176   23.2078  -30.6654 H   0  0  0  0  0  0  0  0  0  0  0  0
   -4.6160   25.9950  -29.9890 H   0  0  0  0  0  0  0  0  0  0  0  0
   -4.2330   25.6760  -31.6050 H   0  0  0  0  0  0  0  0  0  0  0  0
   -5.3363   21.6161  -32.5813 H   0  0  0  0  0  0  0  0  0  0  0  0
   -6.7511   19.5718  -32.7403 H   0  0  0  0  0  0  0  0  0  0  0  0
  1  2  1  0
  2  3  1  0
  3  4  2  0
  4  5  1  0
  5  6  2  0
  6  7  1  0
  7  8  1  0
  8  9  1  0
  6 10  1  0
 10 11  2  0
 11  3  1  0
  1 12  1  0
  1 13  1  0
  1 14  1  0
  4 15  1  0
  5 16  1  0
  7 17  1  0
  7 18  1  0
  8 19  1  0
  8 20  1  0
  9 21  1  0
  9 22  1  0
 10 23  1  0
 11 24  1  0
M  END
>  <UniqueID>  (31) 
30

>  <SMILES>  (31) 
COc1ccc(CCN)cc1

>  <Energy>  (31) 
18.325369411062564

>  <Genealogy>  (31) 
COc1ccc(CCN)cc1 (3D coordinates assigned)
COc1ccc(CCN)cc1 (optimized conformer: 18.325369411062564 kcal/mol)

>  <smiles>  (31) 
COc1ccc(CCN)cc1

>  <score_type>  (31) 
oracle

>  <origin>  (31) 
adg

>  <m_score__min__energy>  (31) 
-5.6399999999999997

>  <m_primary>  (31) 
energy

$$$$
31:0
     RDKit          3D

 36 38  0  0  0  0  0  0  0  0999 V2000
   -2.4630   23.2260  -29.4490 C   0  0  0  0  0  0  0  0  0  0  0  0
   -2.9330   21.8380  -29.8710 C   0  0  0  0  0  0  0  0  0  0  0  0
   -2.9850   21.7390  -31.3300 N   0  0  0  0  0  0  0  0  0  0  0  0
   -2.1100   21.0690  -32.1070 C   0  0  0  0  0  0  0  0  0  0  0  0
   -2.5130   21.1920  -33.4200 C   0  0  0  0  0  0  0  0  0  0  0  0
   -3.6400   21.9280  -33.4590 N   0  0  0  0  0  0  0  0  0  0  0  0
   -3.9190   22.2330  -32.1750 C   0  0  0  0  0  0  0  0  0  0  0  0
   -5.0840   23.0880  -31.7510 C   0  0  0  0  0  0  0  0  0  0  0  0
   -6.2580   22.8300  -32.5850 N   0  0  0  0  0  0  0  0  0  0  0  0
   -7.2330   21.8080  -32.2890 C   0  0  0  0  0  0  0  0  0  0  0  0
   -8.3920   22.1340  -31.5580 C   0  0  0  0  0  0  0  0  0  0  0  0
   -9.3200   21.1540  -31.2100 C   0  0  0  0  0  0  0  0  0  0  0  0
   -9.1150   19.8280  -31.5830 C   0  0  0  0  0  0  0  0  0  0  0  0
   -7.9800   19.4720  -32.3210 C   0  0  0  0  0  0  0  0  0  0  0  0
   -7.7780   18.1410  -32.7110 C   0  0  0  0  0  0  0  0  0  0  0  0
   -6.6900   17.8020  -33.4480 N   0  0  0  0  0  0  0  0  0  0  0  0
   -5.7730   18.7260  -33.8340 C   0  0  0  0  0  0  0  0  0  0  0  0
   -5.9250   20.0650  -33.4710 C   0  0  0  0  0  0  0  0  0  0  0  0
   -7.0290   20.4600  -32.6900 C   0  0  0  0  0  0  0  0  0  0  0  0
   -2.4420   23.2879  -28.3509 H   0  0  0  0  0  0  0  0  0  0  0  0
   -1.4533   23.4076  -29.8458 H   0  0  0  0  0  0  0  0  0  0  0  0
   -3.1547   23.9837  -29.8458 H   0  0  0  0  0  0  0  0  0  0  0  0
   -2.2331   21.0842  -29.4813 H   0  0  0  0  0  0  0  0  0  0  0  0
   -3.9405   21.6637  -29.4653 H   0  0  0  0  0  0  0  0  0  0  0  0
   -1.2257   20.5183  -31.7538 H   0  0  0  0  0  0  0  0  0  0  0  0
   -1.9989   20.7603  -34.2914 H   0  0  0  0  0  0  0  0  0  0  0  0
   -4.1760   22.1990  -34.3120 H   0  0  0  0  0  0  0  0  0  0  0  0
   -5.3316   22.8637  -30.7030 H   0  0  0  0  0  0  0  0  0  0  0  0
   -4.8009   24.1449  -31.8638 H   0  0  0  0  0  0  0  0  0  0  0  0
   -6.3410   23.3840  -33.4660 H   0  0  0  0  0  0  0  0  0  0  0  0
   -8.5674   23.1775  -31.2573 H   0  0  0  0  0  0  0  0  0  0  0  0
  -10.2184   21.4292  -30.6381 H   0  0  0  0  0  0  0  0  0  0  0  0
   -9.8469   19.0583  -31.2969 H   0  0  0  0  0  0  0  0  0  0  0  0
   -8.5041   17.3682  -32.4186 H   0  0  0  0  0  0  0  0  0  0  0  0
   -4.9056   18.4175  -34.4361 H   0  0  0  0  0  0  0  0  0  0  0  0
   -5.1839   20.8109  -33.7942 H   0  0  0  0  0  0  0  0  0  0  0  0
  1  2  1  0
  2  3  1  0
  3  4  1  0
  4  5  2  0
  5  6  1  0
  6  7  2  0
  7  8  1  0
  8  9  1  0
  9 10  1  0
 10 11  2  0
 11 12  1  0
 12 13  2  0
 13 14  1  0
 14 15  2  0
 15 16  1  0
 16 17  2  0
 17 18  1  0
 18 19  2  0
  7  3  1  0
 19 10  1  0
 19 14  1  0
  1 20  1  0
  1 21  1  0
  1 22  1  0
  2 23  1  0
  2 24  1  0
  4 25  1  0
  5 26  1  0
  6 27  1  0
  8 28  1  0
  8 29  1  0
  9 30  1  0
 11 31  1  0
 12 32  1  0
 13 33  1  0
 15 34  1  0
 17 35  1  0
 18 36  1  0
M  CHG  1   6   1
M  END
>  <UniqueID>  (32) 
31

>  <SMILES>  (32) 
CCn1cc[nH+]c1CNc1cccc2cnccc12

>  <Energy>  (32) 
71.93258810134708

>  <Genealogy>  (32) 
CCn1cc[nH+]c1CNc1cccc2cnccc12 (protonated)
CCn1cc[nH+]c1CNc1cccc2cnccc12 (3D coordinates assigned)
CCn1cc[nH+]c1CNc1cccc2cnccc12 (optimized conformer: 71.93258810134708 kcal/mol)

>  <smiles>  (32) 
CCn1ccnc1CNc1cccc2cnccc12

>  <score_type>  (32) 
oracle

>  <origin>  (32) 
adg

>  <m_score__min__energy>  (32) 
-6.5499999999999998

>  <m_primary>  (32) 
energy

$$$$
32:0
     RDKit          3D

 26 28  0  0  0  0  0  0  0  0999 V2000
   -5.7440   25.8880  -30.4650 C   0  0  0  0  0  0  0  0  0  0  0  0
   -4.9260   24.6980  -30.6610 N   0  0  0  0  0  0  0  0  0  0  0  0
   -3.6090   24.6520  -30.4770 N   0  0  0  0  0  0  0  0  0  0  0  0
   -3.1770   23.4130  -30.8280 C   0  0  0  0  0  0  0  0  0  0  0  0
   -4.2680   22.6810  -31.2550 C   0  0  0  0  0  0  0  0  0  0  0  0
   -4.4410   21.4040  -31.7570 C   0  0  0  0  0  0  0  0  0  0  0  0
   -3.4540   20.6340  -31.9070 O   0  0  0  0  0  0  0  0  0  0  0  0
   -5.7180   21.0270  -32.1110 N   0  0  0  0  0  0  0  0  0  0  0  0
   -6.0020   19.7160  -32.6340 C   0  0  0  0  0  0  0  0  0  0  0  0
   -5.4940   19.3100  -33.8830 C   0  0  0  0  0  0  0  0  0  0  0  0
   -5.7590   18.0250  -34.3690 C   0  0  0  0  0  0  0  0  0  0  0  0
   -6.5230   17.1320  -33.6120 C   0  0  0  0  0  0  0  0  0  0  0  0
   -6.8520   15.5220  -34.2230 Cl  0  0  0  0  0  0  0  0  0  0  0  0
   -7.0160   17.5220  -32.3620 C   0  0  0  0  0  0  0  0  0  0  0  0
   -6.7530   18.8040  -31.8730 C   0  0  0  0  0  0  0  0  0  0  0  0
   -6.7370   21.9000  -31.9930 N   0  0  0  0  0  0  0  0  0  0  0  0
   -6.5630   23.1380  -31.5150 N   0  0  0  0  0  0  0  0  0  0  0  0
   -5.3220   23.5110  -31.1410 C   0  0  0  0  0  0  0  0  0  0  0  0
   -5.8708   26.0725  -29.3880 H   0  0  0  0  0  0  0  0  0  0  0  0
   -5.2492   26.7537  -30.9295 H   0  0  0  0  0  0  0  0  0  0  0  0
   -6.7295   25.7361  -30.9295 H   0  0  0  0  0  0  0  0  0  0  0  0
   -2.1381   23.0545  -30.7805 H   0  0  0  0  0  0  0  0  0  0  0  0
   -4.8860   20.0063  -34.4793 H   0  0  0  0  0  0  0  0  0  0  0  0
   -5.3653   17.7168  -35.3488 H   0  0  0  0  0  0  0  0  0  0  0  0
   -7.6119   16.8177  -31.7630 H   0  0  0  0  0  0  0  0  0  0  0  0
   -7.1363   19.1015  -30.8858 H   0  0  0  0  0  0  0  0  0  0  0  0
  1  2  1  0
  2  3  1  0
  3  4  2  0
  4  5  1  0
  5  6  1  0
  6  7  2  0
  6  8  1  0
  8  9  1  0
  9 10  2  0
 10 11  1  0
 11 12  2  0
 12 13  1  0
 12 14  1  0
 14 15  2  0
  8 16  1  0
 16 17  2  0
 17 18  1  0
 18  2  1  0
 18  5  2  0
 15  9  1  0
  1 19  1  0
  1 20  1  0
  1 21  1  0
  4 22  1  0
 10 23  1  0
 11 24  1  0
 14 25  1  0
 15 26  1  0
M  END
>  <UniqueID>  (33) 
32

>  <SMILES>  (33) 
Cn1ncc2c(=O)n(-c3ccc(Cl)cc3)nnc21

>  <Energy>  (33) 
77.99833610345996

>  <Genealogy>  (33) 
Cn1ncc2c(=O)n(-c3ccc(Cl)cc3)nnc21 (3D coordinates assigned)
Cn1ncc2c(=O)n(-c3ccc(Cl)cc3)nnc21 (optimized conformer: 77.99833610345996 kcal/mol)

>  <smiles>  (33) 
Cn1ncc2c(=O)n(-c3ccc(Cl)cc3)nnc21

>  <score_type>  (33) 
oracle

>  <origin>  (33) 
adg

>  <m_score__min__energy>  (33) 
-7.0599999999999996

>  <m_primary>  (33) 
energy

$$$$
33:0
     RDKit          3D

 54 56  0  0  0  0  0  0  0  0999 V2000
   -9.7720   19.3040  -33.8530 H   0  0  0  0  0  0  0  0  0  0  0  0
   -9.2260   19.2490  -32.9630 N   0  0  0  0  0  0  0  0  0  0  0  0
   -8.3700   20.1640  -32.6420 C   0  0  0  0  0  0  0  0  0  0  0  0
   -8.7500   21.5160  -31.7010 S   0  0  0  0  0  0  0  0  0  0  0  0
   -7.1770   22.0990  -31.7860 C   0  0  0  0  0  0  0  0  0  0  0  0
   -6.6660   23.2590  -31.2110 C   0  0  0  0  0  0  0  0  0  0  0  0
   -7.3114   23.9253  -30.6198 H   0  0  0  0  0  0  0  0  0  0  0  0
   -5.3000   23.5610  -31.4040 C   0  0  0  0  0  0  0  0  0  0  0  0
   -4.7020   24.7090  -30.8620 O   0  0  0  0  0  0  0  0  0  0  0  0
   -5.4100   25.8960  -30.5160 C   0  0  0  0  0  0  0  0  0  0  0  0
   -4.6927   26.7064  -30.3193 H   0  0  0  0  0  0  0  0  0  0  0  0
   -6.0704   26.1839  -31.3472 H   0  0  0  0  0  0  0  0  0  0  0  0
   -6.2440   25.6450  -29.2710 C   0  0  0  0  0  0  0  0  0  0  0  0
   -5.6315   25.8293  -28.3761 H   0  0  0  0  0  0  0  0  0  0  0  0
   -7.1110   26.3220  -29.2678 H   0  0  0  0  0  0  0  0  0  0  0  0
   -6.5933   24.6019  -29.2678 H   0  0  0  0  0  0  0  0  0  0  0  0
   -4.4980   22.6860  -32.1630 C   0  0  0  0  0  0  0  0  0  0  0  0
   -3.4334   22.9196  -32.3114 H   0  0  0  0  0  0  0  0  0  0  0  0
   -5.0350   21.5210  -32.7330 C   0  0  0  0  0  0  0  0  0  0  0  0
   -4.3991   20.8432  -33.3214 H   0  0  0  0  0  0  0  0  0  0  0  0
   -6.3950   21.2340  -32.5410 C   0  0  0  0  0  0  0  0  0  0  0  0
   -7.0630   20.1430  -33.0300 N   0  0  0  0  0  0  0  0  0  0  0  0
   -6.4730   19.1020  -33.8870 C   0  0  0  0  0  0  0  0  0  0  0  0
   -7.0898   18.9942  -34.7914 H   0  0  0  0  0  0  0  0  0  0  0  0
   -5.4478   19.4098  -34.1405 H   0  0  0  0  0  0  0  0  0  0  0  0
   -6.3990   17.7400  -33.1690 C   0  0  0  0  0  0  0  0  0  0  0  0
   -6.2378   17.9254  -32.0968 H   0  0  0  0  0  0  0  0  0  0  0  0
   -7.3476   17.2242  -33.3791 H   0  0  0  0  0  0  0  0  0  0  0  0
   -5.2710   16.8080  -33.6730 C   0  0  0  0  0  0  0  0  0  0  0  0
   -5.4606   15.7939  -33.2914 H   0  0  0  0  0  0  0  0  0  0  0  0
   -5.2840   16.8490  -34.7722 H   0  0  0  0  0  0  0  0  0  0  0  0
   -3.9130   17.2300  -33.2350 N   0  0  2  0  0  0  0  0  0  0  0  0
   -3.9980   17.6630  -32.2880 H   0  0  0  0  0  0  0  0  0  0  0  0
   -3.3240   18.2030  -34.2060 C   0  0  0  0  0  0  0  0  0  0  0  0
   -2.6405   17.6620  -34.8769 H   0  0  0  0  0  0  0  0  0  0  0  0
   -4.1537   18.6652  -34.7610 H   0  0  0  0  0  0  0  0  0  0  0  0
   -2.5540   19.3130  -33.5200 C   0  0  0  0  0  0  0  0  0  0  0  0
   -1.7070   20.1520  -34.2660 C   0  0  0  0  0  0  0  0  0  0  0  0
   -1.6173   20.0116  -35.3533 H   0  0  0  0  0  0  0  0  0  0  0  0
   -0.9780   21.1640  -33.6330 C   0  0  0  0  0  0  0  0  0  0  0  0
   -0.3263   21.8241  -34.2243 H   0  0  0  0  0  0  0  0  0  0  0  0
   -1.0770   21.3370  -32.2500 C   0  0  0  0  0  0  0  0  0  0  0  0
   -0.5091   22.1380  -31.7540 H   0  0  0  0  0  0  0  0  0  0  0  0
   -1.8970   20.4930  -31.4970 C   0  0  0  0  0  0  0  0  0  0  0  0
   -1.9688   20.6263  -30.4075 H   0  0  0  0  0  0  0  0  0  0  0  0
   -2.6260   19.4800  -32.1250 C   0  0  0  0  0  0  0  0  0  0  0  0
   -3.2595   18.8096  -31.5256 H   0  0  0  0  0  0  0  0  0  0  0  0
   -3.0570   16.0240  -33.0810 C   0  0  0  0  0  0  0  0  0  0  0  0
   -2.5277   15.8463  -34.0288 H   0  0  0  0  0  0  0  0  0  0  0  0
   -2.3603   16.2183  -32.2522 H   0  0  0  0  0  0  0  0  0  0  0  0
   -3.8550   14.7660  -32.7240 C   0  0  0  0  0  0  0  0  0  0  0  0
   -3.9165   14.6690  -31.6300 H   0  0  0  0  0  0  0  0  0  0  0  0
   -4.8692   14.8440  -33.1428 H   0  0  0  0  0  0  0  0  0  0  0  0
   -3.3523   13.8818  -33.1428 H   0  0  0  0  0  0  0  0  0  0  0  0
  1  2  1  0
  2  3  2  0
  3  4  1  0
  4  5  1  0
  5  6  2  0
  6  7  1  0
  6  8  1  0
  8  9  1  0
  9 10  1  0
 10 11  1  0
 10 12  1  0
 10 13  1  0
 13 14  1  0
 13 15  1  0
 13 16  1  0
  8 17  2  0
 17 18  1  0
 17 19  1  0
 19 20  1  0
 19 21  2  0
 21 22  1  0
 22 23  1  0
 23 24  1  0
 23 25  1  0
 23 26  1  0
 26 27  1  0
 26 28  1  0
 26 29  1  0
 29 30  1  0
 29 31  1  0
 29 32  1  0
 32 33  1  1
 32 34  1  0
 34 35  1  0
 34 36  1  0
 34 37  1  0
 37 38  2  0
 38 39  1  0
 38 40  1  0
 40 41  1  0
 40 42  2  0
 42 43  1  0
 42 44  1  0
 44 45  1  0
 44 46  2  0
 46 47  1  0
 32 48  1  0
 48 49  1  0
 48 50  1  0
 48 51  1  0
 51 52  1  0
 51 53  1  0
 51 54  1  0
 22  3  1  0
 46 37  1  0
 21  5  1  0
M  CHG  1  32   1
M  END
>  <UniqueID>  (34) 
33

>  <SMILES>  (34) 
[H]/N=c1\sc2cc(OCC)ccc2n1CCC[N@@H+](CC)Cc1ccccc1

>  <Energy>  (34) 
90.3022213068173

>  <Genealogy>  (34) 
CCOc1ccc2c(c1)sc(=N)n2CCC[NH+](CC)Cc1ccccc1 (protonated)
CCOc1ccc2c(c1)sc(=N)n2CCC[N@@H+](CC)Cc1ccccc1 (chirality)
[H]/N=c1\sc2cc(OCC)ccc2n1CCC[N@@H+](CC)Cc1ccccc1 (cis-trans isomerization)
[H]/N=c1\sc2cc(OCC)ccc2n1CCC[N@@H+](CC)Cc1ccccc1 (3D coordinates assigned)
[H]/N=c1\sc2cc(OCC)ccc2n1CCC[N@@H+](CC)Cc1ccccc1 (optimized conformer: 90.3022213068173 kcal/mol)

>  <smiles>  (34) 
CCOc1ccc2c(c1)sc(=N)n2CCCN(CC)Cc1ccccc1

>  <score_type>  (34) 
oracle

>  <origin>  (34) 
adg

>  <m_score__min__energy>  (34) 
-7.21

>  <m_primary>  (34) 
energy

$$$$
34:0
     RDKit          3D

 39 40  0  0  0  0  0  0  0  0999 V2000
   -3.8070   19.7390  -33.4600 C   0  0  0  0  0  0  0  0  0  0  0  0
   -5.1140   19.5010  -33.9710 O   0  0  0  0  0  0  0  0  0  0  0  0
   -6.2780   19.4420  -33.1860 C   0  0  0  0  0  0  0  0  0  0  0  0
   -6.9070   20.6050  -32.7010 C   0  0  0  0  0  0  0  0  0  0  0  0
   -8.0640   20.5130  -31.9140 C   0  0  0  0  0  0  0  0  0  0  0  0
   -8.8310   21.9690  -31.2810 S   0  0  0  0  0  0  0  0  0  0  0  0
   -9.7160   22.5790  -32.3340 O   0  0  0  0  0  0  0  0  0  0  0  0
   -9.6830   21.5930  -30.1000 O   0  0  0  0  0  0  0  0  0  0  0  0
   -7.6130   23.1170  -30.7830 N   0  0  0  0  0  0  0  0  0  0  0  0
   -6.5930   22.4400  -29.9550 C   0  0  0  0  0  0  0  0  0  0  0  0
   -5.2960   23.2590  -29.8950 C   0  0  0  0  0  0  0  0  0  0  0  0
   -4.6960   23.4660  -31.2380 N   0  0  0  0  0  0  0  0  0  0  0  0
   -3.5370   22.5850  -31.4500 C   0  0  0  0  0  0  0  0  0  0  0  0
   -5.6630   23.3190  -32.3500 C   0  0  0  0  0  0  0  0  0  0  0  0
   -7.0520   23.8370  -31.9520 C   0  0  0  0  0  0  0  0  0  0  0  0
   -8.5910   19.2570  -31.6000 C   0  0  0  0  0  0  0  0  0  0  0  0
   -7.9770   18.0980  -32.0790 C   0  0  0  0  0  0  0  0  0  0  0  0
   -6.8250   18.1800  -32.8760 C   0  0  0  0  0  0  0  0  0  0  0  0
   -6.1650   16.9270  -33.3780 C   0  0  0  0  0  0  0  0  0  0  0  0
   -3.8366   19.7336  -32.3604 H   0  0  0  0  0  0  0  0  0  0  0  0
   -3.1263   18.9500  -33.8123 H   0  0  0  0  0  0  0  0  0  0  0  0
   -3.4481   20.7173  -33.8123 H   0  0  0  0  0  0  0  0  0  0  0  0
   -6.4875   21.5931  -32.9414 H   0  0  0  0  0  0  0  0  0  0  0  0
   -6.9850   22.3129  -28.9351 H   0  0  0  0  0  0  0  0  0  0  0  0
   -6.3682   21.4630  -30.4078 H   0  0  0  0  0  0  0  0  0  0  0  0
   -5.5182   24.2410  -29.4519 H   0  0  0  0  0  0  0  0  0  0  0  0
   -4.5719   22.6975  -29.2864 H   0  0  0  0  0  0  0  0  0  0  0  0
   -3.1292   22.2750  -30.4766 H   0  0  0  0  0  0  0  0  0  0  0  0
   -3.8511   21.6956  -32.0160 H   0  0  0  0  0  0  0  0  0  0  0  0
   -2.7641   23.1257  -32.0160 H   0  0  0  0  0  0  0  0  0  0  0  0
   -5.3019   23.8914  -33.2172 H   0  0  0  0  0  0  0  0  0  0  0  0
   -5.7482   22.2506  -32.5976 H   0  0  0  0  0  0  0  0  0  0  0  0
   -6.9721   24.9055  -31.7031 H   0  0  0  0  0  0  0  0  0  0  0  0
   -7.7279   23.6696  -32.8036 H   0  0  0  0  0  0  0  0  0  0  0  0
   -9.4921   19.1814  -30.9737 H   0  0  0  0  0  0  0  0  0  0  0  0
   -8.3995   17.1134  -31.8297 H   0  0  0  0  0  0  0  0  0  0  0  0
   -5.8425   16.3147  -32.5230 H   0  0  0  0  0  0  0  0  0  0  0  0
   -6.8793   16.3559  -33.9893 H   0  0  0  0  0  0  0  0  0  0  0  0
   -5.2900   17.1931  -33.9893 H   0  0  0  0  0  0  0  0  0  0  0  0
  1  2  1  0
  2  3  1  0
  3  4  2  0
  4  5  1  0
  5  6  1  0
  6  7  2  0
  6  8  2  0
  6  9  1  0
  9 10  1  0
 10 11  1  0
 11 12  1  0
 12 13  1  0
 12 14  1  0
 14 15  1  0
  5 16  2  0
 16 17  1  0
 17 18  2  0
 18 19  1  0
 18  3  1  0
 15  9  1  0
  1 20  1  0
  1 21  1  0
  1 22  1  0
  4 23  1  0
 10 24  1  0
 10 25  1  0
 11 26  1  0
 11 27  1  0
 13 28  1  0
 13 29  1  0
 13 30  1  0
 14 31  1  0
 14 32  1  0
 15 33  1  0
 15 34  1  0
 16 35  1  0
 17 36  1  0
 19 37  1  0
 19 38  1  0
 19 39  1  0
M  END
>  <UniqueID>  (35) 
34

>  <SMILES>  (35) 
COc1cc(S(=O)(=O)N2CCN(C)CC2)ccc1C

>  <Energy>  (35) 
46.88091501154209

>  <Genealogy>  (35) 
COc1cc(S(=O)(=O)N2CCN(C)CC2)ccc1C (3D coordinates assigned)
COc1cc(S(=O)(=O)N2CCN(C)CC2)ccc1C (nonaromatic ring conformer: 46.88091501154209 kcal/mol)

>  <smiles>  (35) 
COc1cc(S(=O)(=O)N2CCN(C)CC2)ccc1C

>  <score_type>  (35) 
oracle

>  <origin>  (35) 
adg

>  <m_score__min__energy>  (35) 
-7.6200000000000001

>  <m_primary>  (35) 
energy

$$$$
35:0
     RDKit          3D

 45 47  0  0  0  0  0  0  0  0999 V2000
   -9.9110   21.1660  -31.9330 C   0  0  0  0  0  0  0  0  0  0  0  0
   -8.4940   20.7010  -31.9950 C   0  0  0  0  0  0  0  0  0  0  0  0
   -8.0660   19.7140  -32.7410 O   0  0  0  0  0  0  0  0  0  0  0  0
   -6.7730   19.5990  -32.5240 C   0  0  0  0  0  0  0  0  0  0  0  0
   -5.9180   18.5940  -33.1860 C   0  0  0  0  0  0  0  0  0  0  0  0
   -5.7620   18.6070  -34.5830 C   0  0  0  0  0  0  0  0  0  0  0  0
   -4.9480   17.6590  -35.2110 C   0  0  0  0  0  0  0  0  0  0  0  0
   -4.2850   16.6900  -34.4530 C   0  0  0  0  0  0  0  0  0  0  0  0
   -3.1690   15.4020  -35.3120 Br  0  0  0  0  0  0  0  0  0  0  0  0
   -4.4370   16.6680  -33.0630 C   0  0  0  0  0  0  0  0  0  0  0  0
   -5.2500   17.6140  -32.4310 C   0  0  0  0  0  0  0  0  0  0  0  0
   -6.3130   20.5050  -31.6300 N   0  0  0  0  0  0  0  0  0  0  0  0
   -7.4170   21.1950  -31.2900 C   0  0  0  0  0  0  0  0  0  0  0  0
   -7.4190   22.3520  -30.3450 C   0  0  0  0  0  0  0  0  0  0  0  0
   -7.2960   23.9090  -31.2890 S   0  0  0  0  0  0  0  0  0  0  0  0
   -6.1560   24.7390  -30.1300 C   0  0  0  0  0  0  0  0  0  0  0  0
   -4.7400   24.3790  -30.4510 C   0  0  0  0  0  0  0  0  0  0  0  0
   -3.8620   25.2820  -30.4890 O   0  0  0  0  0  0  0  0  0  0  0  0
   -4.3840   23.0090  -30.6810 N   0  0  0  0  0  0  0  0  0  0  0  0
   -3.0090   22.5320  -30.5660 C   0  0  0  0  0  0  0  0  0  0  0  0
   -2.7550   21.4740  -31.6030 C   0  0  0  0  0  0  0  0  0  0  0  0
   -3.3900   21.5400  -32.8540 C   0  0  0  0  0  0  0  0  0  0  0  0
   -3.1230   20.5750  -33.8310 C   0  0  0  0  0  0  0  0  0  0  0  0
   -2.2150   19.5440  -33.5690 C   0  0  0  0  0  0  0  0  0  0  0  0
   -1.9660   18.6020  -34.5110 F   0  0  0  0  0  0  0  0  0  0  0  0
   -1.5650   19.4850  -32.3330 C   0  0  0  0  0  0  0  0  0  0  0  0
   -1.8270   20.4500  -31.3560 C   0  0  0  0  0  0  0  0  0  0  0  0
  -10.2182   21.2668  -30.8816 H   0  0  0  0  0  0  0  0  0  0  0  0
   -9.9995   22.1403  -32.4359 H   0  0  0  0  0  0  0  0  0  0  0  0
  -10.5596   20.4336  -32.4359 H   0  0  0  0  0  0  0  0  0  0  0  0
   -6.2826   19.3664  -35.1850 H   0  0  0  0  0  0  0  0  0  0  0  0
   -4.8293   17.6761  -36.3044 H   0  0  0  0  0  0  0  0  0  0  0  0
   -3.9161   15.9052  -32.4658 H   0  0  0  0  0  0  0  0  0  0  0  0
   -5.3675   17.5913  -31.3375 H   0  0  0  0  0  0  0  0  0  0  0  0
   -8.3526   22.3487  -29.7633 H   0  0  0  0  0  0  0  0  0  0  0  0
   -6.5609   22.2688  -29.6618 H   0  0  0  0  0  0  0  0  0  0  0  0
   -6.2819   25.8285  -30.2142 H   0  0  0  0  0  0  0  0  0  0  0  0
   -6.3857   24.4124  -29.1050 H   0  0  0  0  0  0  0  0  0  0  0  0
   -5.1460   22.2950  -30.7340 H   0  0  0  0  0  0  0  0  0  0  0  0
   -2.3158   23.3717  -30.7220 H   0  0  0  0  0  0  0  0  0  0  0  0
   -2.8520   22.1069  -29.5637 H   0  0  0  0  0  0  0  0  0  0  0  0
   -4.0997   22.3532  -33.0663 H   0  0  0  0  0  0  0  0  0  0  0  0
   -3.6280   20.6272  -34.8068 H   0  0  0  0  0  0  0  0  0  0  0  0
   -0.8461   18.6779  -32.1287 H   0  0  0  0  0  0  0  0  0  0  0  0
   -1.3037   20.4067  -30.3894 H   0  0  0  0  0  0  0  0  0  0  0  0
  1  2  1  0
  2  3  1  0
  3  4  1  0
  4  5  1  0
  5  6  2  0
  6  7  1  0
  7  8  2  0
  8  9  1  0
  8 10  1  0
 10 11  2  0
  4 12  2  0
 12 13  1  0
 13 14  1  0
 14 15  1  0
 15 16  1  0
 16 17  1  0
 17 18  2  0
 17 19  1  0
 19 20  1  0
 20 21  1  0
 21 22  2  0
 22 23  1  0
 23 24  2  0
 24 25  1  0
 24 26  1  0
 26 27  2  0
 13  2  2  0
 27 21  1  0
 11  5  1  0
  1 28  1  0
  1 29  1  0
  1 30  1  0
  6 31  1  0
  7 32  1  0
 10 33  1  0
 11 34  1  0
 14 35  1  0
 14 36  1  0
 16 37  1  0
 16 38  1  0
 19 39  1  0
 20 40  1  0
 20 41  1  0
 22 42  1  0
 23 43  1  0
 26 44  1  0
 27 45  1  0
M  END
>  <UniqueID>  (36) 
35

>  <SMILES>  (36) 
Cc1oc(-c2ccc(Br)cc2)nc1CSCC(=O)NCc1ccc(F)cc1

>  <Energy>  (36) 
64.6368956815699

>  <Genealogy>  (36) 
Cc1oc(-c2ccc(Br)cc2)nc1CSCC(=O)NCc1ccc(F)cc1 (3D coordinates assigned)
Cc1oc(-c2ccc(Br)cc2)nc1CSCC(=O)NCc1ccc(F)cc1 (optimized conformer: 64.6368956815699 kcal/mol)

>  <smiles>  (36) 
Cc1oc(-c2ccc(Br)cc2)nc1CSCC(=O)NCc1ccc(F)cc1

>  <score_type>  (36) 
oracle

>  <origin>  (36) 
adg

>  <m_score__min__energy>  (36) 
-8.4600000000000009

>  <m_primary>  (36) 
energy

$$$$
36:0
     RDKit          3D

 29 31  0  0  0  0  0  0  0  0999 V2000
   -4.6870   23.1840  -29.3150 C   0  0  0  0  0  0  0  0  0  0  0  0
   -4.7330   24.4250  -28.6770 C   0  0  0  0  0  0  0  0  0  0  0  0
   -5.7280   25.3060  -28.9670 N   0  0  0  0  0  0  0  0  0  0  0  0
   -6.7010   25.0070  -29.8710 C   0  0  0  0  0  0  0  0  0  0  0  0
   -6.7020   23.7660  -30.5260 C   0  0  0  0  0  0  0  0  0  0  0  0
   -7.7490   23.4440  -31.5560 C   0  0  0  0  0  0  0  0  0  0  0  0
   -7.6260   22.0140  -31.9800 C   0  0  0  0  0  0  0  0  0  0  0  0
   -8.3860   20.9610  -31.4760 C   0  0  0  0  0  0  0  0  0  0  0  0
   -7.8790   19.8360  -32.0880 C   0  0  0  0  0  0  0  0  0  0  0  0
   -8.2420   18.4960  -31.9640 C   0  0  0  0  0  0  0  0  0  0  0  0
   -7.5220   17.5500  -32.7180 C   0  0  0  0  0  0  0  0  0  0  0  0
   -6.4670   17.9620  -33.5630 C   0  0  0  0  0  0  0  0  0  0  0  0
   -6.1230   19.3230  -33.6630 C   0  0  0  0  0  0  0  0  0  0  0  0
   -6.8560   20.2360  -32.9070 C   0  0  0  0  0  0  0  0  0  0  0  0
   -6.6860   21.5680  -32.8470 N   0  0  0  0  0  0  0  0  0  0  0  0
   -5.6730   22.8560  -30.2470 C   0  0  0  0  0  0  0  0  0  0  0  0
   -3.8812   22.4713  -29.0853 H   0  0  0  0  0  0  0  0  0  0  0  0
   -3.9628   24.6909  -27.9381 H   0  0  0  0  0  0  0  0  0  0  0  0
   -5.7460   26.2340  -28.4860 H   0  0  0  0  0  0  0  0  0  0  0  0
   -7.4901   25.7417  -30.0890 H   0  0  0  0  0  0  0  0  0  0  0  0
   -8.7473   23.6119  -31.1257 H   0  0  0  0  0  0  0  0  0  0  0  0
   -7.6065   24.0942  -32.4318 H   0  0  0  0  0  0  0  0  0  0  0  0
   -9.2098   21.0158  -30.7491 H   0  0  0  0  0  0  0  0  0  0  0  0
   -9.0630   18.1882  -31.2997 H   0  0  0  0  0  0  0  0  0  0  0  0
   -7.7823   16.4835  -32.6489 H   0  0  0  0  0  0  0  0  0  0  0  0
   -5.9107   17.2137  -34.1467 H   0  0  0  0  0  0  0  0  0  0  0  0
   -5.3027   19.6552  -34.3163 H   0  0  0  0  0  0  0  0  0  0  0  0
   -5.9690   22.1360  -33.3500 H   0  0  0  0  0  0  0  0  0  0  0  0
   -5.6425   21.8845  -30.7619 H   0  0  0  0  0  0  0  0  0  0  0  0
  1  2  2  0
  2  3  1  0
  3  4  2  0
  4  5  1  0
  5  6  1  0
  6  7  1  0
  7  8  2  0
  8  9  1  0
  9 10  2  0
 10 11  1  0
 11 12  2  0
 12 13  1  0
 13 14  2  0
 14 15  1  0
  5 16  2  0
 16  1  1  0
 15  7  1  0
 14  9  1  0
  1 17  1  0
  2 18  1  0
  3 19  1  0
  4 20  1  0
  6 21  1  0
  6 22  1  0
  8 23  1  0
 10 24  1  0
 11 25  1  0
 12 26  1  0
 13 27  1  0
 15 28  1  0
 16 29  1  0
M  CHG  1   3   1
M  END
>  <UniqueID>  (37) 
36

>  <SMILES>  (37) 
c1c[nH+]cc(Cc2cc3ccccc3[nH]2)c1

>  <Energy>  (37) 
61.8261279531938

>  <Genealogy>  (37) 
c1c[nH+]cc(Cc2cc3ccccc3[nH]2)c1 (protonated)
c1c[nH+]cc(Cc2cc3ccccc3[nH]2)c1 (3D coordinates assigned)
c1c[nH+]cc(Cc2cc3ccccc3[nH]2)c1 (optimized conformer: 61.8261279531938 kcal/mol)

>  <smiles>  (37) 
c1cncc(Cc2cc3ccccc3[nH]2)c1

>  <score_type>  (37) 
oracle

>  <origin>  (37) 
adg

>  <m_score__min__energy>  (37) 
-7

>  <m_primary>  (37) 
energy

$$$$
37:0
     RDKit          3D

 67 70  0  0  0  0  0  0  0  0999 V2000
   -8.9070   18.3420  -31.6320 C   0  0  0  0  0  0  0  0  0  0  0  0
   -9.0540   19.4670  -32.4920 O   0  0  0  0  0  0  0  0  0  0  0  0
   -8.3960   20.6940  -32.3180 C   0  0  0  0  0  0  0  0  0  0  0  0
   -9.0840   21.8610  -31.9270 C   0  0  0  0  0  0  0  0  0  0  0  0
   -8.3900   23.0590  -31.7380 C   0  0  0  0  0  0  0  0  0  0  0  0
   -7.0100   23.1090  -31.9360 C   0  0  0  0  0  0  0  0  0  0  0  0
   -6.3190   21.9620  -32.3280 C   0  0  0  0  0  0  0  0  0  0  0  0
   -7.0050   20.7520  -32.5280 C   0  0  0  0  0  0  0  0  0  0  0  0
   -6.2860   19.5770  -32.9370 N   0  0  0  0  0  0  0  0  0  0  0  0
   -6.1090   19.3000  -34.3630 C   0  0  0  0  0  0  0  0  0  0  0  0
   -6.1100   17.7850  -34.5950 C   0  0  0  0  0  0  0  0  0  0  0  0
   -5.1240   17.0960  -33.7380 N   0  0  0  0  0  0  0  0  0  0  0  0
   -3.7260   17.3360  -34.1600 C   0  0  0  0  0  0  0  0  0  0  0  0
   -2.7570   16.5370  -33.2810 C   0  0  0  0  0  0  0  0  0  0  0  0
   -1.5930   17.4140  -32.8020 C   0  0  0  0  0  0  0  0  0  0  0  0
   -1.1840   18.4210  -33.8790 C   0  0  0  0  0  0  0  0  0  0  0  0
   -1.1530   19.7770  -33.3210 N   0  0  0  0  0  0  0  0  0  0  0  0
   -2.0200   20.8250  -33.8570 C   0  0  0  0  0  0  0  0  0  0  0  0
   -3.0400   21.5770  -32.5350 S   0  0  0  0  0  0  0  0  0  0  0  0
   -1.8320   21.6420  -31.1180 C   0  0  0  0  0  0  0  0  0  0  0  0
   -1.9440   23.0400  -30.4590 C   0  0  0  0  0  0  0  0  0  0  0  0
   -3.3430   23.3340  -29.8740 C   0  0  0  0  0  0  0  0  0  0  0  0
   -4.0690   22.0830  -29.3470 C   0  0  0  0  0  0  0  0  0  0  0  0
   -3.0830   20.9990  -28.9120 C   0  0  0  0  0  0  0  0  0  0  0  0
   -2.1990   20.5250  -30.0830 C   0  0  0  0  0  0  0  0  0  0  0  0
   -0.3710   21.4540  -31.6010 C   0  0  0  0  0  0  0  0  0  0  0  0
   -0.2090   20.1420  -32.3060 C   0  0  0  0  0  0  0  0  0  0  0  0
    0.7400   19.3710  -31.9970 O   0  0  0  0  0  0  0  0  0  0  0  0
   -5.3660   17.3790  -32.3030 C   0  0  0  0  0  0  0  0  0  0  0  0
   -5.4150   18.8840  -31.9860 C   0  0  0  0  0  0  0  0  0  0  0  0
   -8.9503   18.6735  -30.5840 H   0  0  0  0  0  0  0  0  0  0  0  0
   -9.7191   17.6253  -31.8237 H   0  0  0  0  0  0  0  0  0  0  0  0
   -7.9380   17.8580  -31.8237 H   0  0  0  0  0  0  0  0  0  0  0  0
  -10.1722   21.8282  -31.7700 H   0  0  0  0  0  0  0  0  0  0  0  0
   -8.9334   23.9652  -31.4322 H   0  0  0  0  0  0  0  0  0  0  0  0
   -6.4664   24.0530  -31.7830 H   0  0  0  0  0  0  0  0  0  0  0  0
   -5.2306   22.0052  -32.4814 H   0  0  0  0  0  0  0  0  0  0  0  0
   -6.9327   19.7580  -34.9302 H   0  0  0  0  0  0  0  0  0  0  0  0
   -5.1509   19.7214  -34.7014 H   0  0  0  0  0  0  0  0  0  0  0  0
   -7.1125   17.3916  -34.3708 H   0  0  0  0  0  0  0  0  0  0  0  0
   -5.8372   17.6006  -35.6446 H   0  0  0  0  0  0  0  0  0  0  0  0
   -3.6053   17.0245  -35.2080 H   0  0  0  0  0  0  0  0  0  0  0  0
   -3.5011   18.4077  -34.0555 H   0  0  0  0  0  0  0  0  0  0  0  0
   -3.3005   16.1521  -32.4055 H   0  0  0  0  0  0  0  0  0  0  0  0
   -2.3472   15.7085  -33.8773 H   0  0  0  0  0  0  0  0  0  0  0  0
   -1.9023   17.9598  -31.8984 H   0  0  0  0  0  0  0  0  0  0  0  0
   -0.7320   16.7647  -32.5850 H   0  0  0  0  0  0  0  0  0  0  0  0
   -0.1845   18.1614  -34.2580 H   0  0  0  0  0  0  0  0  0  0  0  0
   -1.9175   18.3873  -34.6981 H   0  0  0  0  0  0  0  0  0  0  0  0
   -1.3971   21.6056  -34.3181 H   0  0  0  0  0  0  0  0  0  0  0  0
   -2.6915   20.3752  -34.6032 H   0  0  0  0  0  0  0  0  0  0  0  0
   -1.2062   23.1017  -29.6455 H   0  0  0  0  0  0  0  0  0  0  0  0
   -1.7591   23.7852  -31.2467 H   0  0  0  0  0  0  0  0  0  0  0  0
   -3.2293   24.0455  -29.0428 H   0  0  0  0  0  0  0  0  0  0  0  0
   -3.9551   23.7396  -30.6930 H   0  0  0  0  0  0  0  0  0  0  0  0
   -4.6894   22.3676  -28.4844 H   0  0  0  0  0  0  0  0  0  0  0  0
   -4.6881   21.6772  -30.1607 H   0  0  0  0  0  0  0  0  0  0  0  0
   -2.4367   21.4032  -28.1190 H   0  0  0  0  0  0  0  0  0  0  0  0
   -3.6615   20.1364  -28.5496 H   0  0  0  0  0  0  0  0  0  0  0  0
   -1.2638   20.1233  -29.6659 H   0  0  0  0  0  0  0  0  0  0  0  0
   -2.7855   19.7731  -30.6313 H   0  0  0  0  0  0  0  0  0  0  0  0
   -0.1119   22.2694  -32.2923 H   0  0  0  0  0  0  0  0  0  0  0  0
    0.2947   21.4686  -30.7254 H   0  0  0  0  0  0  0  0  0  0  0  0
   -6.3272   16.9287  -32.0143 H   0  0  0  0  0  0  0  0  0  0  0  0
   -4.5252   16.9512  -31.7373 H   0  0  0  0  0  0  0  0  0  0  0  0
   -5.8039   19.0275  -30.9671 H   0  0  0  0  0  0  0  0  0  0  0  0
   -4.3992   19.2987  -32.0643 H   0  0  0  0  0  0  0  0  0  0  0  0
  1  2  1  0
  2  3  1  0
  3  4  2  0
  4  5  1  0
  5  6  2  0
  6  7  1  0
  7  8  2  0
  8  9  1  0
  9 10  1  0
 10 11  1  0
 11 12  1  0
 12 13  1  0
 13 14  1  0
 14 15  1  0
 15 16  1  0
 16 17  1  0
 17 18  1  0
 18 19  1  0
 19 20  1  0
 20 21  1  0
 21 22  1  0
 22 23  1  0
 23 24  1  0
 24 25  1  0
 20 26  1  0
 26 27  1  0
 27 28  2  0
 12 29  1  0
 29 30  1  0
  8  3  1  0
 30  9  1  0
 27 17  1  0
 25 20  1  0
  1 31  1  0
  1 32  1  0
  1 33  1  0
  4 34  1  0
  5 35  1  0
  6 36  1  0
  7 37  1  0
 10 38  1  0
 10 39  1  0
 11 40  1  0
 11 41  1  0
 13 42  1  0
 13 43  1  0
 14 44  1  0
 14 45  1  0
 15 46  1  0
 15 47  1  0
 16 48  1  0
 16 49  1  0
 18 50  1  0
 18 51  1  0
 21 52  1  0
 21 53  1  0
 22 54  1  0
 22 55  1  0
 23 56  1  0
 23 57  1  0
 24 58  1  0
 24 59  1  0
 25 60  1  0
 25 61  1  0
 26 62  1  0
 26 63  1  0
 29 64  1  0
 29 65  1  0
 30 66  1  0
 30 67  1  0
M  END
>  <UniqueID>  (38) 
37

>  <SMILES>  (38) 
COc1ccccc1N1CCN(CCCCN2CSC3(CCCCC3)CC2=O)CC1

>  <Energy>  (38) 
75.13549937187223

>  <Genealogy>  (38) 
COc1ccccc1N1CCN(CCCCN2CSC3(CCCCC3)CC2=O)CC1 (3D coordinates assigned)
COc1ccccc1N1CCN(CCCCN2CSC3(CCCCC3)CC2=O)CC1 (nonaromatic ring conformer: 75.13549937187223 kcal/mol)

>  <smiles>  (38) 
COc1ccccc1N1CCN(CCCCN2CSC3(CCCCC3)CC2=O)CC1

>  <score_type>  (38) 
oracle

>  <origin>  (38) 
adg

>  <m_score__min__energy>  (38) 
-9.5600000000000005

>  <m_primary>  (38) 
energy

$$$$
38:0
     RDKit          3D

 41 42  0  0  0  0  0  0  0  0999 V2000
   -6.5060   15.4330  -34.2220 C   0  0  0  0  0  0  0  0  0  0  0  0
   -6.3240   16.8660  -33.8180 C   0  0  0  0  0  0  0  0  0  0  0  0
   -5.5010   17.7140  -34.5720 C   0  0  0  0  0  0  0  0  0  0  0  0
   -5.3580   19.0590  -34.2170 C   0  0  0  0  0  0  0  0  0  0  0  0
   -6.0490   19.5820  -33.1090 C   0  0  0  0  0  0  0  0  0  0  0  0
   -5.9110   21.0050  -32.7190 C   0  0  0  0  0  0  0  0  0  0  0  0
   -6.8810   21.8320  -32.1740 C   0  0  0  0  0  0  0  0  0  0  0  0
   -6.2950   23.0270  -31.9870 N   0  0  0  0  0  0  0  0  0  0  0  0
   -6.8900   24.2070  -31.3660 C   0  0  0  0  0  0  0  0  0  0  0  0
   -6.7740   24.1110  -29.8410 C   0  0  0  0  0  0  0  0  0  0  0  0
   -5.6630   25.0100  -29.2810 C   0  0  0  0  0  0  0  0  0  0  0  0
   -4.3060   24.6070  -29.8020 C   0  0  0  0  0  0  0  0  0  0  0  0
   -3.8730   25.1900  -30.8340 O   0  0  0  0  0  0  0  0  0  0  0  0
   -3.4810   23.6180  -29.1450 N   0  0  0  0  0  0  0  0  0  0  0  0
   -2.0950   23.4440  -29.5930 C   0  0  0  0  0  0  0  0  0  0  0  0
   -4.0110   22.7770  -28.0670 C   0  0  0  0  0  0  0  0  0  0  0  0
   -5.0350   22.9310  -32.3780 N   0  0  0  0  0  0  0  0  0  0  0  0
   -4.7680   21.7180  -32.8340 N   0  0  0  0  0  0  0  0  0  0  0  0
   -6.8880   18.7300  -32.3680 C   0  0  0  0  0  0  0  0  0  0  0  0
   -7.0280   17.3860  -32.7240 C   0  0  0  0  0  0  0  0  0  0  0  0
   -6.5857   14.8056  -33.3220 H   0  0  0  0  0  0  0  0  0  0  0  0
   -7.4239   15.3344  -34.8201 H   0  0  0  0  0  0  0  0  0  0  0  0
   -5.6419   15.1081  -34.8201 H   0  0  0  0  0  0  0  0  0  0  0  0
   -4.9648   17.3193  -35.4476 H   0  0  0  0  0  0  0  0  0  0  0  0
   -4.7003   19.7128  -34.8086 H   0  0  0  0  0  0  0  0  0  0  0  0
   -7.9221   21.5638  -31.9412 H   0  0  0  0  0  0  0  0  0  0  0  0
   -6.3634   25.1073  -31.7155 H   0  0  0  0  0  0  0  0  0  0  0  0
   -7.9526   24.2648  -31.6445 H   0  0  0  0  0  0  0  0  0  0  0  0
   -7.7324   24.4138  -29.3940 H   0  0  0  0  0  0  0  0  0  0  0  0
   -6.5225   23.0703  -29.5886 H   0  0  0  0  0  0  0  0  0  0  0  0
   -5.8637   26.0507  -29.5755 H   0  0  0  0  0  0  0  0  0  0  0  0
   -5.6556   24.9056  -28.1860 H   0  0  0  0  0  0  0  0  0  0  0  0
   -1.4343   23.3611  -28.7174 H   0  0  0  0  0  0  0  0  0  0  0  0
   -2.0176   22.5291  -30.1988 H   0  0  0  0  0  0  0  0  0  0  0  0
   -1.7938   24.3114  -30.1988 H   0  0  0  0  0  0  0  0  0  0  0  0
   -3.7370   23.2117  -27.0944 H   0  0  0  0  0  0  0  0  0  0  0  0
   -5.1066   22.7231  -28.1490 H   0  0  0  0  0  0  0  0  0  0  0  0
   -3.5869   21.7653  -28.1490 H   0  0  0  0  0  0  0  0  0  0  0  0
   -4.3360   23.7050  -32.3260 H   0  0  0  0  0  0  0  0  0  0  0  0
   -7.4383   19.1250  -31.5013 H   0  0  0  0  0  0  0  0  0  0  0  0
   -7.6947   16.7326  -32.1420 H   0  0  0  0  0  0  0  0  0  0  0  0
  1  2  1  0
  2  3  2  0
  3  4  1  0
  4  5  2  0
  5  6  1  0
  6  7  2  0
  7  8  1  0
  8  9  1  0
  9 10  1  0
 10 11  1  0
 11 12  1  0
 12 13  2  0
 12 14  1  0
 14 15  1  0
 14 16  1  0
  8 17  1  0
 17 18  2  0
  5 19  1  0
 19 20  2  0
 20  2  1  0
 18  6  1  0
  1 21  1  0
  1 22  1  0
  1 23  1  0
  3 24  1  0
  4 25  1  0
  7 26  1  0
  9 27  1  0
  9 28  1  0
 10 29  1  0
 10 30  1  0
 11 31  1  0
 11 32  1  0
 15 33  1  0
 15 34  1  0
 15 35  1  0
 16 36  1  0
 16 37  1  0
 16 38  1  0
 17 39  1  0
 19 40  1  0
 20 41  1  0
M  CHG  1  17   1
M  END
>  <UniqueID>  (39) 
38

>  <SMILES>  (39) 
Cc1ccc(-c2cn(CCCC(=O)N(C)C)[nH+]n2)cc1

>  <Energy>  (39) 
68.49340952178306

>  <Genealogy>  (39) 
Cc1ccc(-c2cn(CCCC(=O)N(C)C)[nH+]n2)cc1 (protonated)
Cc1ccc(-c2cn(CCCC(=O)N(C)C)[nH+]n2)cc1 (3D coordinates assigned)
Cc1ccc(-c2cn(CCCC(=O)N(C)C)[nH+]n2)cc1 (optimized conformer: 68.49340952178306 kcal/mol)

>  <smiles>  (39) 
Cc1ccc(-c2cn(CCCC(=O)N(C)C)nn2)cc1

>  <score_type>  (39) 
oracle

>  <origin>  (39) 
adg

>  <m_score__min__energy>  (39) 
-7.2699999999999996

>  <m_primary>  (39) 
energy

$$$$
39:0
     RDKit          3D

 33 35  0  0  0  0  0  0  0  0999 V2000
   -5.7450   16.8860  -34.2530 C   0  0  0  0  0  0  0  0  0  0  0  0
   -6.5030   16.7250  -33.0940 C   0  0  0  0  0  0  0  0  0  0  0  0
   -7.0630   17.8400  -32.4660 C   0  0  0  0  0  0  0  0  0  0  0  0
   -6.8500   19.1230  -33.0090 C   0  0  0  0  0  0  0  0  0  0  0  0
   -7.4220   20.3490  -32.4040 C   0  0  0  0  0  0  0  0  0  0  0  0
   -8.8040   20.5950  -32.3520 C   0  0  0  0  0  0  0  0  0  0  0  0
   -9.2530   21.7700  -31.7540 C   0  0  0  0  0  0  0  0  0  0  0  0
   -8.3620   22.6480  -31.2270 N   0  0  0  0  0  0  0  0  0  0  0  0
   -7.0240   22.4040  -31.2680 C   0  0  0  0  0  0  0  0  0  0  0  0
   -6.0960   23.3480  -30.6950 N   0  0  0  0  0  0  0  0  0  0  0  0
   -6.5180   24.7430  -30.5080 C   0  0  0  0  0  0  0  0  0  0  0  0
   -5.3950   25.5800  -29.8910 C   0  0  0  0  0  0  0  0  0  0  0  0
   -4.1260   25.3030  -30.5700 N   0  0  0  0  0  0  0  0  0  0  0  0
   -3.6820   23.9060  -30.3990 C   0  0  0  0  0  0  0  0  0  0  0  0
   -4.8200   22.8990  -30.1180 C   0  0  0  0  0  0  0  0  0  0  0  0
   -6.5740   21.2590  -31.8500 N   0  0  0  0  0  0  0  0  0  0  0  0
   -6.1140   19.2410  -34.1510 N   0  0  0  0  0  0  0  0  0  0  0  0
   -5.5630   18.1670  -34.7760 C   0  0  0  0  0  0  0  0  0  0  0  0
   -5.2956   16.0134  -34.7495 H   0  0  0  0  0  0  0  0  0  0  0  0
   -6.6600   15.7204  -32.6743 H   0  0  0  0  0  0  0  0  0  0  0  0
   -7.6659   17.7175  -31.5542 H   0  0  0  0  0  0  0  0  0  0  0  0
   -9.5180   19.8734  -32.7755 H   0  0  0  0  0  0  0  0  0  0  0  0
  -10.3305   21.9867  -31.7087 H   0  0  0  0  0  0  0  0  0  0  0  0
   -6.7896   25.1702  -31.4846 H   0  0  0  0  0  0  0  0  0  0  0  0
   -7.3808   24.7587  -29.8259 H   0  0  0  0  0  0  0  0  0  0  0  0
   -5.6378   26.6477  -29.9960 H   0  0  0  0  0  0  0  0  0  0  0  0
   -5.2969   25.3202  -28.8266 H   0  0  0  0  0  0  0  0  0  0  0  0
   -4.2460   25.4990  -31.5920 H   0  0  0  0  0  0  0  0  0  0  0  0
   -3.1677   23.5943  -31.3201 H   0  0  0  0  0  0  0  0  0  0  0  0
   -3.0285   23.8927  -29.5143 H   0  0  0  0  0  0  0  0  0  0  0  0
   -4.5524   21.9265  -30.5570 H   0  0  0  0  0  0  0  0  0  0  0  0
   -4.9454   22.8174  -29.0282 H   0  0  0  0  0  0  0  0  0  0  0  0
   -4.9736   18.3076  -35.6941 H   0  0  0  0  0  0  0  0  0  0  0  0
  1  2  2  0
  2  3  1  0
  3  4  2  0
  4  5  1  0
  5  6  2  0
  6  7  1  0
  7  8  2  0
  8  9  1  0
  9 10  1  0
 10 11  1  0
 11 12  1  0
 12 13  1  0
 13 14  1  0
 14 15  1  0
  9 16  2  0
  4 17  1  0
 17 18  2  0
 18  1  1  0
 16  5  1  0
 15 10  1  0
  1 19  1  0
  2 20  1  0
  3 21  1  0
  6 22  1  0
  7 23  1  0
 11 24  1  0
 11 25  1  0
 12 26  1  0
 12 27  1  0
 13 28  1  0
 14 29  1  0
 14 30  1  0
 15 31  1  0
 15 32  1  0
 18 33  1  0
M  END
>  <UniqueID>  (40) 
39

>  <SMILES>  (40) 
c1ccc(-c2ccnc(N3CCNCC3)n2)nc1

>  <Energy>  (40) 
43.50612337481516

>  <Genealogy>  (40) 
c1ccc(-c2ccnc(N3CCNCC3)n2)nc1 (3D coordinates assigned)
c1ccc(-c2ccnc(N3CCNCC3)n2)nc1 (nonaromatic ring conformer: 43.50612337481516 kcal/mol)

>  <smiles>  (40) 
c1ccc(-c2ccnc(N3CCNCC3)n2)nc1

>  <score_type>  (40) 
oracle

>  <origin>  (40) 
adg

>  <m_score__min__energy>  (40) 
-7.9400000000000004

>  <m_primary>  (40) 
energy

$$$$
40:0
     RDKit          3D

 32 34  0  0  0  0  0  0  0  0999 V2000
   -3.5000   25.3020  -30.4630 O   0  0  0  0  0  0  0  0  0  0  0  0
   -3.5920   23.9140  -30.3790 C   0  0  0  0  0  0  0  0  0  0  0  0
   -2.5190   23.1700  -29.8380 C   0  0  0  0  0  0  0  0  0  0  0  0
   -1.2680   23.9090  -29.4010 C   0  0  0  0  0  0  0  0  0  0  0  0
   -1.5220   24.6930  -28.1370 C   0  0  0  0  0  0  0  0  0  0  0  0
   -0.6150   25.6820  -27.7210 C   0  0  0  0  0  0  0  0  0  0  0  0
   -0.8390   26.3940  -26.5370 C   0  0  0  0  0  0  0  0  0  0  0  0
   -1.9670   26.1230  -25.7600 C   0  0  0  0  0  0  0  0  0  0  0  0
   -2.8740   25.1400  -26.1640 C   0  0  0  0  0  0  0  0  0  0  0  0
   -2.6530   24.4250  -27.3470 C   0  0  0  0  0  0  0  0  0  0  0  0
   -2.6270   21.7550  -29.7670 C   0  0  0  0  0  0  0  0  0  0  0  0
   -1.6170   20.9360  -29.2550 O   0  0  0  0  0  0  0  0  0  0  0  0
   -3.7870   21.1220  -30.2220 C   0  0  0  0  0  0  0  0  0  0  0  0
   -4.8510   21.8580  -30.7510 C   0  0  0  0  0  0  0  0  0  0  0  0
   -6.0100   21.2060  -31.2030 C   0  0  0  0  0  0  0  0  0  0  0  0
   -7.0720   21.9450  -31.7340 C   0  0  0  0  0  0  0  0  0  0  0  0
   -8.5150   21.1240  -32.2970 Cl  0  0  0  0  0  0  0  0  0  0  0  0
   -6.9820   23.3360  -31.8170 C   0  0  0  0  0  0  0  0  0  0  0  0
   -5.8340   23.9970  -31.3700 C   0  0  0  0  0  0  0  0  0  0  0  0
   -4.7570   23.2660  -30.8330 C   0  0  0  0  0  0  0  0  0  0  0  0
   -0.4643   23.1805  -29.2180 H   0  0  0  0  0  0  0  0  0  0  0  0
   -0.9763   24.6095  -30.1974 H   0  0  0  0  0  0  0  0  0  0  0  0
    0.2759   25.8979  -28.3290 H   0  0  0  0  0  0  0  0  0  0  0  0
   -0.1255   27.1681  -26.2182 H   0  0  0  0  0  0  0  0  0  0  0  0
   -2.1416   26.6835  -24.8297 H   0  0  0  0  0  0  0  0  0  0  0  0
   -3.7628   24.9277  -25.5517 H   0  0  0  0  0  0  0  0  0  0  0  0
   -3.3679   23.6497  -27.6597 H   0  0  0  0  0  0  0  0  0  0  0  0
   -1.7640   20.1910  -28.5890 H   0  0  0  0  0  0  0  0  0  0  0  0
   -3.8639   20.0263  -30.1628 H   0  0  0  0  0  0  0  0  0  0  0  0
   -6.0827   20.1103  -31.1391 H   0  0  0  0  0  0  0  0  0  0  0  0
   -7.8184   23.9145  -32.2361 H   0  0  0  0  0  0  0  0  0  0  0  0
   -5.7718   25.0931  -31.4381 H   0  0  0  0  0  0  0  0  0  0  0  0
  1  2  1  0
  2  3  2  0
  3  4  1  0
  4  5  1  0
  5  6  2  0
  6  7  1  0
  7  8  2  0
  8  9  1  0
  9 10  2  0
  3 11  1  0
 11 12  1  0
 11 13  2  0
 13 14  1  0
 14 15  2  0
 15 16  1  0
 16 17  1  0
 16 18  2  0
 18 19  1  0
 19 20  2  0
 20  2  1  0
 10  5  1  0
 20 14  1  0
  4 21  1  0
  4 22  1  0
  6 23  1  0
  7 24  1  0
  8 25  1  0
  9 26  1  0
 10 27  1  0
 12 28  1  0
 13 29  1  0
 15 30  1  0
 18 31  1  0
 19 32  1  0
M  CHG  1   1  -1
M  END
>  <UniqueID>  (41) 
40

>  <SMILES>  (41) 
[O-]c1c(Cc2ccccc2)c(O)cc2cc(Cl)ccc12

>  <Energy>  (41) 
41.7677175360524

>  <Genealogy>  (41) 
[O-]c1c(Cc2ccccc2)c(O)cc2cc(Cl)ccc12 (protonated)
[O-]c1c(Cc2ccccc2)c(O)cc2cc(Cl)ccc12 (3D coordinates assigned)
[O-]c1c(Cc2ccccc2)c(O)cc2cc(Cl)ccc12 (optimized conformer: 41.7677175360524 kcal/mol)

>  <smiles>  (41) 
Oc1cc2cc(Cl)ccc2c(O)c1Cc1ccccc1

>  <score_type>  (41) 
oracle

>  <origin>  (41) 
adg

>  <m_score__min__energy>  (41) 
-9.7400000000000002

>  <m_primary>  (41) 
energy

$$$$
41:0
     RDKit          3D

 34 36  0  0  0  0  0  0  0  0999 V2000
   -3.1180   15.9420  -35.7410 C   0  0  0  0  0  0  0  0  0  0  0  0
   -4.0470   17.0130  -35.8570 O   0  0  0  0  0  0  0  0  0  0  0  0
   -4.6170   17.6880  -34.7680 C   0  0  0  0  0  0  0  0  0  0  0  0
   -3.9930   18.7890  -34.1500 C   0  0  0  0  0  0  0  0  0  0  0  0
   -4.6020   19.4280  -33.0650 C   0  0  0  0  0  0  0  0  0  0  0  0
   -5.8370   18.9700  -32.5710 C   0  0  0  0  0  0  0  0  0  0  0  0
   -6.4900   19.6230  -31.4680 N   0  0  0  0  0  0  0  0  0  0  0  0
   -6.9450   20.9880  -31.5010 C   0  0  0  0  0  0  0  0  0  0  0  0
   -8.2750   21.2650  -31.8560 C   0  0  0  0  0  0  0  0  0  0  0  0
   -8.7310   22.5800  -31.9460 C   0  0  0  0  0  0  0  0  0  0  0  0
   -7.8640   23.6420  -31.6920 C   0  0  0  0  0  0  0  0  0  0  0  0
   -6.5300   23.3970  -31.3430 C   0  0  0  0  0  0  0  0  0  0  0  0
   -5.6600   24.4680  -31.0860 C   0  0  0  0  0  0  0  0  0  0  0  0
   -4.3330   24.2270  -30.7250 C   0  0  0  0  0  0  0  0  0  0  0  0
   -3.4780   25.2930  -30.4720 O   0  0  0  0  0  0  0  0  0  0  0  0
   -3.8640   22.9170  -30.6140 C   0  0  0  0  0  0  0  0  0  0  0  0
   -4.7170   21.8390  -30.8660 C   0  0  0  0  0  0  0  0  0  0  0  0
   -6.0560   22.0610  -31.2440 C   0  0  0  0  0  0  0  0  0  0  0  0
   -6.4630   17.8850  -33.1990 C   0  0  0  0  0  0  0  0  0  0  0  0
   -5.8530   17.2460  -34.2840 C   0  0  0  0  0  0  0  0  0  0  0  0
   -2.9340   15.7298  -34.6775 H   0  0  0  0  0  0  0  0  0  0  0  0
   -3.5293   15.0455  -36.2279 H   0  0  0  0  0  0  0  0  0  0  0  0
   -2.1724   16.2225  -36.2279 H   0  0  0  0  0  0  0  0  0  0  0  0
   -3.0222   19.1481  -34.5223 H   0  0  0  0  0  0  0  0  0  0  0  0
   -4.1124   20.2938  -32.5952 H   0  0  0  0  0  0  0  0  0  0  0  0
   -6.5880   19.0970  -30.5690 H   0  0  0  0  0  0  0  0  0  0  0  0
   -8.9656   20.4349  -32.0657 H   0  0  0  0  0  0  0  0  0  0  0  0
   -9.7779   22.7799  -32.2182 H   0  0  0  0  0  0  0  0  0  0  0  0
   -8.2294   24.6769  -31.7661 H   0  0  0  0  0  0  0  0  0  0  0  0
   -6.0254   25.5022  -31.1694 H   0  0  0  0  0  0  0  0  0  0  0  0
   -2.8183   22.7323  -30.3269 H   0  0  0  0  0  0  0  0  0  0  0  0
   -4.3404   20.8101  -30.7686 H   0  0  0  0  0  0  0  0  0  0  0  0
   -7.4403   17.5334  -32.8367 H   0  0  0  0  0  0  0  0  0  0  0  0
   -6.3498   16.3882  -34.7609 H   0  0  0  0  0  0  0  0  0  0  0  0
  1  2  1  0
  2  3  1  0
  3  4  2  0
  4  5  1  0
  5  6  2  0
  6  7  1  0
  7  8  1  0
  8  9  2  0
  9 10  1  0
 10 11  2  0
 11 12  1  0
 12 13  2  0
 13 14  1  0
 14 15  1  0
 14 16  2  0
 16 17  1  0
 17 18  2  0
  6 19  1  0
 19 20  2  0
 20  3  1  0
 18  8  1  0
 18 12  1  0
  1 21  1  0
  1 22  1  0
  1 23  1  0
  4 24  1  0
  5 25  1  0
  7 26  1  0
  9 27  1  0
 10 28  1  0
 11 29  1  0
 13 30  1  0
 16 31  1  0
 17 32  1  0
 19 33  1  0
 20 34  1  0
M  CHG  1  15  -1
M  END
>  <UniqueID>  (42) 
41

>  <SMILES>  (42) 
COc1ccc(Nc2cccc3cc([O-])ccc23)cc1

>  <Energy>  (42) 
46.646739256290836

>  <Genealogy>  (42) 
COc1ccc(Nc2cccc3cc([O-])ccc23)cc1 (protonated)
COc1ccc(Nc2cccc3cc([O-])ccc23)cc1 (3D coordinates assigned)
COc1ccc(Nc2cccc3cc([O-])ccc23)cc1 (optimized conformer: 46.646739256290836 kcal/mol)

>  <smiles>  (42) 
COc1ccc(Nc2cccc3cc(O)ccc23)cc1

>  <score_type>  (42) 
oracle

>  <origin>  (42) 
adg

>  <m_score__min__energy>  (42) 
-10.15

>  <m_primary>  (42) 
energy

$$$$
42:0
     RDKit          3D

 52 54  0  0  0  0  0  0  0  0999 V2000
   -2.7340   15.8750  -33.4600 C   0  0  0  0  0  0  0  0  0  0  0  0
   -3.0820   16.8330  -34.6040 C   0  0  0  0  0  0  0  0  0  0  0  0
   -4.5040   16.7740  -34.9870 N   0  0  0  0  0  0  0  0  0  0  0  0
   -5.3680   17.7260  -34.2560 C   0  0  0  0  0  0  0  0  0  0  0  0
   -4.5520   18.9910  -33.8590 C   0  0  0  0  0  0  0  0  0  0  0  0
   -4.9740   19.6060  -32.5140 C   0  0  0  0  0  0  0  0  0  0  0  0
   -6.4080   19.4020  -32.2840 N   0  0  0  0  0  0  0  0  0  0  0  0
   -7.2920   20.5190  -32.0510 C   0  0  0  0  0  0  0  0  0  0  0  0
   -8.6730   20.3960  -32.2900 C   0  0  0  0  0  0  0  0  0  0  0  0
   -9.5270   21.4810  -32.0730 C   0  0  0  0  0  0  0  0  0  0  0  0
   -9.0180   22.6950  -31.6070 C   0  0  0  0  0  0  0  0  0  0  0  0
   -7.6470   22.8290  -31.3440 C   0  0  0  0  0  0  0  0  0  0  0  0
   -7.0850   24.1390  -30.8610 C   0  0  0  0  0  0  0  0  0  0  0  0
   -6.0520   23.9010  -29.8550 N   0  0  0  0  0  0  0  0  0  0  0  0
   -4.6520   23.9680  -30.1660 C   0  0  0  0  0  0  0  0  0  0  0  0
   -4.2740   24.5770  -31.2040 O   0  0  0  0  0  0  0  0  0  0  0  0
   -3.6410   23.3460  -29.2790 C   0  0  0  0  0  0  0  0  0  0  0  0
   -3.8760   22.0640  -28.7470 C   0  0  0  0  0  0  0  0  0  0  0  0
   -2.9390   21.4650  -27.8990 C   0  0  0  0  0  0  0  0  0  0  0  0
   -1.7630   22.1400  -27.5700 C   0  0  0  0  0  0  0  0  0  0  0  0
   -1.5230   23.4190  -28.0790 C   0  0  0  0  0  0  0  0  0  0  0  0
   -2.4580   24.0270  -28.9250 C   0  0  0  0  0  0  0  0  0  0  0  0
   -2.2220   25.2950  -29.3500 F   0  0  0  0  0  0  0  0  0  0  0  0
   -6.7890   21.7390  -31.5680 C   0  0  0  0  0  0  0  0  0  0  0  0
   -6.9390   18.0300  -32.2960 C   0  0  0  0  0  0  0  0  0  0  0  0
   -5.9780   17.0610  -33.0050 C   0  0  0  0  0  0  0  0  0  0  0  0
   -2.9151   16.3736  -32.4963 H   0  0  0  0  0  0  0  0  0  0  0  0
   -3.3627   14.9752  -33.5312 H   0  0  0  0  0  0  0  0  0  0  0  0
   -1.6744   15.5885  -33.5312 H   0  0  0  0  0  0  0  0  0  0  0  0
   -2.8460   17.8595  -34.2867 H   0  0  0  0  0  0  0  0  0  0  0  0
   -2.4905   16.5301  -35.4806 H   0  0  0  0  0  0  0  0  0  0  0  0
   -4.8400   15.7940  -34.8460 H   0  0  0  0  0  0  0  0  0  0  0  0
   -6.1928   18.0295  -34.9175 H   0  0  0  0  0  0  0  0  0  0  0  0
   -3.4898   18.7123  -33.7947 H   0  0  0  0  0  0  0  0  0  0  0  0
   -4.7424   19.7502  -34.6318 H   0  0  0  0  0  0  0  0  0  0  0  0
   -4.4055   19.1276  -31.7028 H   0  0  0  0  0  0  0  0  0  0  0  0
   -4.7671   20.6861  -32.5359 H   0  0  0  0  0  0  0  0  0  0  0  0
   -9.0829   19.4407  -32.6496 H   0  0  0  0  0  0  0  0  0  0  0  0
  -10.6043   21.3782  -32.2701 H   0  0  0  0  0  0  0  0  0  0  0  0
   -9.6938   23.5479  -31.4459 H   0  0  0  0  0  0  0  0  0  0  0  0
   -6.6469   24.6826  -31.7110 H   0  0  0  0  0  0  0  0  0  0  0  0
   -7.8939   24.7349  -30.4130 H   0  0  0  0  0  0  0  0  0  0  0  0
   -6.3530   23.6880  -28.8770 H   0  0  0  0  0  0  0  0  0  0  0  0
   -4.8035   21.5295  -29.0002 H   0  0  0  0  0  0  0  0  0  0  0  0
   -3.1292   20.4613  -27.4912 H   0  0  0  0  0  0  0  0  0  0  0  0
   -1.0236   21.6645  -26.9088 H   0  0  0  0  0  0  0  0  0  0  0  0
   -0.5966   23.9497  -27.8141 H   0  0  0  0  0  0  0  0  0  0  0  0
   -5.7131   21.8417  -31.3633 H   0  0  0  0  0  0  0  0  0  0  0  0
   -7.0850   17.6939  -31.2588 H   0  0  0  0  0  0  0  0  0  0  0  0
   -7.8928   18.0334  -32.8439 H   0  0  0  0  0  0  0  0  0  0  0  0
   -5.1699   16.7812  -32.3131 H   0  0  0  0  0  0  0  0  0  0  0  0
   -6.5382   16.1663  -33.3144 H   0  0  0  0  0  0  0  0  0  0  0  0
  1  2  1  0
  2  3  1  0
  3  4  1  0
  4  5  1  0
  5  6  1  0
  6  7  1  0
  7  8  1  0
  8  9  2  0
  9 10  1  0
 10 11  2  0
 11 12  1  0
 12 13  1  0
 13 14  1  0
 14 15  1  0
 15 16  2  0
 15 17  1  0
 17 18  2  0
 18 19  1  0
 19 20  2  0
 20 21  1  0
 21 22  2  0
 22 23  1  0
 12 24  2  0
  7 25  1  0
 25 26  1  0
 26  4  1  0
 24  8  1  0
 22 17  1  0
  1 27  1  0
  1 28  1  0
  1 29  1  0
  2 30  1  0
  2 31  1  0
  3 32  1  0
  4 33  1  0
  5 34  1  0
  5 35  1  0
  6 36  1  0
  6 37  1  0
  9 38  1  0
 10 39  1  0
 11 40  1  0
 13 41  1  0
 13 42  1  0
 14 43  1  0
 18 44  1  0
 19 45  1  0
 20 46  1  0
 21 47  1  0
 24 48  1  0
 25 49  1  0
 25 50  1  0
 26 51  1  0
 26 52  1  0
M  END
>  <UniqueID>  (43) 
42

>  <SMILES>  (43) 
CCNC1CCN(c2cccc(CNC(=O)c3ccccc3F)c2)CC1

>  <Energy>  (43) 
61.28228009089986

>  <Genealogy>  (43) 
CCNC1CCN(c2cccc(CNC(=O)c3ccccc3F)c2)CC1 (3D coordinates assigned)
CCNC1CCN(c2cccc(CNC(=O)c3ccccc3F)c2)CC1 (nonaromatic ring conformer: 61.28228009089986 kcal/mol)

>  <smiles>  (43) 
CCNC1CCN(c2cccc(CNC(=O)c3ccccc3F)c2)CC1

>  <score_type>  (43) 
oracle

>  <origin>  (43) 
adg

>  <m_score__min__energy>  (43) 
-9.5600000000000005

>  <m_primary>  (43) 
energy

$$$$
43:0
     RDKit          3D

 59 61  0  0  0  0  0  0  0  0999 V2000
   -8.2940   19.8140  -31.8210 C   0  0  0  0  0  0  0  0  0  0  0  0
   -9.4090   20.8280  -32.0590 C   0  0  0  0  0  0  0  0  0  0  0  0
   -9.1180   22.0650  -31.4070 O   0  0  0  0  0  0  0  0  0  0  0  0
   -7.8390   22.6170  -31.2380 C   0  0  0  0  0  0  0  0  0  0  0  0
   -7.2120   22.7210  -29.9790 C   0  0  0  0  0  0  0  0  0  0  0  0
   -5.9270   23.2640  -29.8750 C   0  0  0  0  0  0  0  0  0  0  0  0
   -5.2610   23.7320  -31.0200 C   0  0  0  0  0  0  0  0  0  0  0  0
   -3.9140   24.2220  -30.9450 N   0  0  0  0  0  0  0  0  0  0  0  0
   -2.9810   23.9860  -30.0600 C   0  0  0  0  0  0  0  0  0  0  0  0
   -2.6940   24.9900  -29.2010 N   0  0  0  0  0  0  0  0  0  0  0  0
   -1.6070   24.9450  -28.4010 C   0  0  0  0  0  0  0  0  0  0  0  0
   -1.3840   25.9090  -27.6200 O   0  0  0  0  0  0  0  0  0  0  0  0
   -0.7480   23.8840  -28.4760 N   0  0  0  0  0  0  0  0  0  0  0  0
    0.5010   23.8640  -27.6860 C   0  0  0  0  0  0  0  0  0  0  0  0
    0.2660   23.2920  -26.2770 C   0  0  0  0  0  0  0  0  0  0  0  0
   -0.9770   22.4030  -26.1910 C   0  0  0  0  0  0  0  0  0  0  0  0
   -0.6300   21.0700  -26.5010 O   0  0  0  0  0  0  0  0  0  0  0  0
   -1.7950   20.3480  -26.8330 C   0  0  0  0  0  0  0  0  0  0  0  0
   -1.0710   22.8260  -29.2850 C   0  0  0  0  0  0  0  0  0  0  0  0
   -0.2990   21.8260  -29.3380 O   0  0  0  0  0  0  0  0  0  0  0  0
   -2.2400   22.8220  -30.0090 N   0  0  0  0  0  0  0  0  0  0  0  0
   -2.7800   21.5000  -30.4150 C   0  0  0  0  0  0  0  0  0  0  0  0
   -2.1900   21.0770  -31.7390 C   0  0  0  0  0  0  0  0  0  0  0  0
   -2.9070   20.2460  -32.6160 C   0  0  0  0  0  0  0  0  0  0  0  0
   -2.3580   19.8800  -33.8500 C   0  0  0  0  0  0  0  0  0  0  0  0
   -1.0780   20.3380  -34.2210 C   0  0  0  0  0  0  0  0  0  0  0  0
   -0.4760   19.9890  -35.4410 O   0  0  0  0  0  0  0  0  0  0  0  0
    0.5670   20.7340  -36.0640 C   0  0  0  0  0  0  0  0  0  0  0  0
   -0.3690   21.1700  -33.3460 C   0  0  0  0  0  0  0  0  0  0  0  0
   -0.9210   21.5440  -32.1170 C   0  0  0  0  0  0  0  0  0  0  0  0
   -5.8790   23.6180  -32.2710 C   0  0  0  0  0  0  0  0  0  0  0  0
   -7.1640   23.0790  -32.3760 C   0  0  0  0  0  0  0  0  0  0  0  0
   -8.1457   19.6792  -30.7394 H   0  0  0  0  0  0  0  0  0  0  0  0
   -8.5705   18.8514  -32.2760 H   0  0  0  0  0  0  0  0  0  0  0  0
   -7.3619   20.1804  -32.2760 H   0  0  0  0  0  0  0  0  0  0  0  0
   -9.5104   21.0053  -33.1399 H   0  0  0  0  0  0  0  0  0  0  0  0
  -10.3459   20.4246  -31.6473 H   0  0  0  0  0  0  0  0  0  0  0  0
   -7.7352   22.3740  -29.0758 H   0  0  0  0  0  0  0  0  0  0  0  0
   -5.4360   23.3248  -28.8926 H   0  0  0  0  0  0  0  0  0  0  0  0
    1.2432   23.2405  -28.2060 H   0  0  0  0  0  0  0  0  0  0  0  0
    0.8621   24.8980  -27.5837 H   0  0  0  0  0  0  0  0  0  0  0  0
    1.1443   22.6949  -25.9903 H   0  0  0  0  0  0  0  0  0  0  0  0
    0.1085   24.1435  -25.5987 H   0  0  0  0  0  0  0  0  0  0  0  0
   -1.3880   22.4464  -25.1716 H   0  0  0  0  0  0  0  0  0  0  0  0
   -1.7309   22.7598  -26.9082 H   0  0  0  0  0  0  0  0  0  0  0  0
   -2.3054   20.0317  -25.9114 H   0  0  0  0  0  0  0  0  0  0  0  0
   -2.4673   20.9880  -27.4233 H   0  0  0  0  0  0  0  0  0  0  0  0
   -1.5210   19.4612  -27.4233 H   0  0  0  0  0  0  0  0  0  0  0  0
   -2.5249   20.7530  -29.6489 H   0  0  0  0  0  0  0  0  0  0  0  0
   -3.8725   21.5761  -30.5181 H   0  0  0  0  0  0  0  0  0  0  0  0
   -3.9049   19.8813  -32.3312 H   0  0  0  0  0  0  0  0  0  0  0  0
   -2.9276   19.2325  -34.5328 H   0  0  0  0  0  0  0  0  0  0  0  0
    1.2043   21.1892  -35.2915 H   0  0  0  0  0  0  0  0  0  0  0  0
    1.1729   20.0631  -36.6907 H   0  0  0  0  0  0  0  0  0  0  0  0
    0.1289   21.5248  -36.6907 H   0  0  0  0  0  0  0  0  0  0  0  0
    0.6306   21.5324  -33.6278 H   0  0  0  0  0  0  0  0  0  0  0  0
   -0.3585   22.2071  -31.4432 H   0  0  0  0  0  0  0  0  0  0  0  0
   -5.3507   23.9542  -33.1754 H   0  0  0  0  0  0  0  0  0  0  0  0
   -7.6501   23.0168  -33.3608 H   0  0  0  0  0  0  0  0  0  0  0  0
  1  2  1  0
  2  3  1  0
  3  4  1  0
  4  5  2  0
  5  6  1  0
  6  7  2  0
  7  8  1  0
  8  9  2  3
  9 10  1  0
 10 11  1  0
 11 12  2  0
 11 13  1  0
 13 14  1  0
 14 15  1  0
 15 16  1  0
 16 17  1  0
 17 18  1  0
 13 19  1  0
 19 20  2  0
 19 21  1  0
 21 22  1  0
 22 23  1  0
 23 24  2  0
 24 25  1  0
 25 26  2  0
 26 27  1  0
 27 28  1  0
 26 29  1  0
 29 30  2  0
  7 31  1  0
 31 32  2  0
 32  4  1  0
 21  9  1  0
 30 23  1  0
  1 33  1  0
  1 34  1  0
  1 35  1  0
  2 36  1  0
  2 37  1  0
  5 38  1  0
  6 39  1  0
 14 40  1  0
 14 41  1  0
 15 42  1  0
 15 43  1  0
 16 44  1  0
 16 45  1  0
 18 46  1  0
 18 47  1  0
 18 48  1  0
 22 49  1  0
 22 50  1  0
 24 51  1  0
 25 52  1  0
 28 53  1  0
 28 54  1  0
 28 55  1  0
 29 56  1  0
 30 57  1  0
 31 58  1  0
 32 59  1  0
M  CHG  1  10  -1
M  END
>  <UniqueID>  (44) 
43

>  <SMILES>  (44) 
CCOc1ccc(N=c2[n-]c(=O)n(CCCOC)c(=O)n2Cc2ccc(OC)cc2)cc1

>  <Energy>  (44) 
84.25480765825316

>  <Genealogy>  (44) 
CCOc1ccc(N=c2[n-]c(=O)n(CCCOC)c(=O)n2Cc2ccc(OC)cc2)cc1 (protonated)
CCOc1ccc(N=c2[n-]c(=O)n(CCCOC)c(=O)n2Cc2ccc(OC)cc2)cc1 (3D coordinates assigned)
CCOc1ccc(N=c2[n-]c(=O)n(CCCOC)c(=O)n2Cc2ccc(OC)cc2)cc1 (optimized conformer: 84.25480765825316 kcal/mol)

>  <smiles>  (44) 
CCOc1ccc(N=c2[nH]c(=O)n(CCCOC)c(=O)n2Cc2ccc(OC)cc2)cc1

>  <score_type>  (44) 
oracle

>  <origin>  (44) 
adg

>  <m_score__min__energy>  (44) 
-8.0600000000000005

>  <m_primary>  (44) 
energy

$$$$
44:0
     RDKit          3D

 50 53  0  0  0  0  0  0  0  0999 V2000
   -1.2660   26.9750  -24.7440 C   0  0  0  0  0  0  0  0  0  0  0  0
   -1.5710   26.1120  -25.9320 C   0  0  0  0  0  0  0  0  0  0  0  0
   -2.7320   25.3240  -25.9550 C   0  0  0  0  0  0  0  0  0  0  0  0
   -3.0360   24.5480  -27.0780 C   0  0  0  0  0  0  0  0  0  0  0  0
   -2.1980   24.5730  -28.2020 C   0  0  0  0  0  0  0  0  0  0  0  0
   -2.5270   23.7500  -29.3810 C   0  0  0  0  0  0  0  0  0  0  0  0
   -3.3060   24.1910  -30.3890 N   0  0  0  0  0  0  0  0  0  0  0  0
   -3.3520   23.2270  -31.2960 N   0  0  0  0  0  0  0  0  0  0  0  0
   -2.5940   22.2170  -30.8310 C   0  0  0  0  0  0  0  0  0  0  0  0
   -2.3320   20.6840  -31.7300 S   0  0  0  0  0  0  0  0  0  0  0  0
   -3.0760   21.2860  -33.2860 C   0  0  0  0  0  0  0  0  0  0  0  0
   -4.5610   21.0740  -33.2950 C   0  0  0  0  0  0  0  0  0  0  0  0
   -5.0320   20.0320  -33.8270 O   0  0  0  0  0  0  0  0  0  0  0  0
   -5.4280   22.0650  -32.7200 N   0  0  0  0  0  0  0  0  0  0  0  0
   -6.8060   21.8590  -32.3550 C   0  0  0  0  0  0  0  0  0  0  0  0
   -7.7180   22.9260  -32.2460 C   0  0  0  0  0  0  0  0  0  0  0  0
   -9.0630   22.6800  -31.9560 C   0  0  0  0  0  0  0  0  0  0  0  0
   -9.5160   21.3720  -31.7790 C   0  0  0  0  0  0  0  0  0  0  0  0
   -8.6240   20.3010  -31.8990 C   0  0  0  0  0  0  0  0  0  0  0  0
   -9.0940   18.9500  -31.7380 C   0  0  0  0  0  0  0  0  0  0  0  0
   -9.4720   17.8640  -31.6080 N   0  0  0  0  0  0  0  0  0  0  0  0
   -7.2750   20.5450  -32.1880 C   0  0  0  0  0  0  0  0  0  0  0  0
   -2.0600   22.5060  -29.6270 N   0  0  0  0  0  0  0  0  0  0  0  0
   -0.9890   21.7810  -28.9380 C   0  0  0  0  0  0  0  0  0  0  0  0
   -1.5730   20.7180  -28.0640 C   0  0  0  0  0  0  0  0  0  0  0  0
   -0.8710   19.7050  -27.4440 C   0  0  0  0  0  0  0  0  0  0  0  0
   -1.8160   18.9500  -26.7860 C   0  0  0  0  0  0  0  0  0  0  0  0
   -3.0340   19.5460  -27.0480 C   0  0  0  0  0  0  0  0  0  0  0  0
   -2.8560   20.5970  -27.8160 O   0  0  0  0  0  0  0  0  0  0  0  0
   -1.0350   25.3570  -28.1770 C   0  0  0  0  0  0  0  0  0  0  0  0
   -0.7300   26.1320  -27.0550 C   0  0  0  0  0  0  0  0  0  0  0  0
   -1.4652   26.4114  -23.8206 H   0  0  0  0  0  0  0  0  0  0  0  0
   -0.2077   27.2740  -24.7700 H   0  0  0  0  0  0  0  0  0  0  0  0
   -1.9014   27.8726  -24.7700 H   0  0  0  0  0  0  0  0  0  0  0  0
   -3.4060   25.3167  -25.0857 H   0  0  0  0  0  0  0  0  0  0  0  0
   -3.9360   23.9155  -27.0796 H   0  0  0  0  0  0  0  0  0  0  0  0
   -2.8664   22.3607  -33.3917 H   0  0  0  0  0  0  0  0  0  0  0  0
   -2.6385   20.7213  -34.1225 H   0  0  0  0  0  0  0  0  0  0  0  0
   -5.0260   23.0170  -32.5630 H   0  0  0  0  0  0  0  0  0  0  0  0
   -7.3700   23.9595  -32.3899 H   0  0  0  0  0  0  0  0  0  0  0  0
   -9.7670   23.5205  -31.8670 H   0  0  0  0  0  0  0  0  0  0  0  0
  -10.5741   21.1831  -31.5452 H   0  0  0  0  0  0  0  0  0  0  0  0
   -6.5769   19.7005  -32.2850 H   0  0  0  0  0  0  0  0  0  0  0  0
   -0.3254   21.3169  -29.6825 H   0  0  0  0  0  0  0  0  0  0  0  0
   -0.4167   22.4858  -28.3169 H   0  0  0  0  0  0  0  0  0  0  0  0
    0.2156   19.5359  -27.4699 H   0  0  0  0  0  0  0  0  0  0  0  0
   -1.6369   18.0531  -26.1749 H   0  0  0  0  0  0  0  0  0  0  0  0
   -4.0056   19.1942  -26.6709 H   0  0  0  0  0  0  0  0  0  0  0  0
   -0.3596   25.3617  -29.0452 H   0  0  0  0  0  0  0  0  0  0  0  0
    0.1729   26.7602  -27.0521 H   0  0  0  0  0  0  0  0  0  0  0  0
  1  2  1  0
  2  3  2  0
  3  4  1  0
  4  5  2  0
  5  6  1  0
  6  7  2  0
  7  8  1  0
  8  9  2  0
  9 10  1  0
 10 11  1  0
 11 12  1  0
 12 13  2  0
 12 14  1  0
 14 15  1  0
 15 16  2  0
 16 17  1  0
 17 18  2  0
 18 19  1  0
 19 20  1  0
 20 21  3  0
 19 22  2  0
  9 23  1  0
 23 24  1  0
 24 25  1  0
 25 26  2  0
 26 27  1  0
 27 28  2  0
 28 29  1  0
  5 30  1  0
 30 31  2  0
 31  2  1  0
 23  6  1  0
 29 25  1  0
 22 15  1  0
  1 32  1  0
  1 33  1  0
  1 34  1  0
  3 35  1  0
  4 36  1  0
 11 37  1  0
 11 38  1  0
 14 39  1  0
 16 40  1  0
 17 41  1  0
 18 42  1  0
 22 43  1  0
 24 44  1  0
 24 45  1  0
 26 46  1  0
 27 47  1  0
 28 48  1  0
 30 49  1  0
 31 50  1  0
M  END
>  <UniqueID>  (45) 
44

>  <SMILES>  (45) 
Cc1ccc(-c2nnc(SCC(=O)Nc3cccc(C#N)c3)n2Cc2ccco2)cc1

>  <Energy>  (45) 
110.3193973438271

>  <Genealogy>  (45) 
Cc1ccc(-c2nnc(SCC(=O)Nc3cccc(C#N)c3)n2Cc2ccco2)cc1 (3D coordinates assigned)
Cc1ccc(-c2nnc(SCC(=O)Nc3cccc(C#N)c3)n2Cc2ccco2)cc1 (optimized conformer: 110.3193973438271 kcal/mol)

>  <smiles>  (45) 
Cc1ccc(-c2nnc(SCC(=O)Nc3cccc(C#N)c3)n2Cc2ccco2)cc1

>  <score_type>  (45) 
oracle

>  <origin>  (45) 
adg

>  <m_score__min__energy>  (45) 
-9.9100000000000001

>  <m_primary>  (45) 
energy

$$$$
45:0
     RDKit          3D

 47 49  0  0  0  0  0  0  0  0999 V2000
   -0.7370   21.3910  -30.4310 C   0  0  0  0  0  0  0  0  0  0  0  0
   -0.9730   20.3430  -31.5150 C   0  0  0  0  0  0  0  0  0  0  0  0
   -1.7690   20.9440  -32.6920 C   0  0  0  0  0  0  0  0  0  0  0  0
   -3.2170   20.5920  -32.7330 N   0  0  2  0  0  0  0  0  0  0  0  0
   -3.5740   19.6820  -33.8570 C   0  0  0  0  0  0  0  0  0  0  0  0
   -4.7060   18.7480  -33.4960 C   0  0  0  0  0  0  0  0  0  0  0  0
   -5.0150   18.5020  -32.1470 C   0  0  0  0  0  0  0  0  0  0  0  0
   -6.0490   17.6240  -31.8090 C   0  0  0  0  0  0  0  0  0  0  0  0
   -6.7800   16.9830  -32.8130 C   0  0  0  0  0  0  0  0  0  0  0  0
   -6.4770   17.2190  -34.1570 C   0  0  0  0  0  0  0  0  0  0  0  0
   -5.4450   18.0970  -34.4990 C   0  0  0  0  0  0  0  0  0  0  0  0
   -4.1270   21.7750  -32.5840 C   0  0  1  0  0  0  0  0  0  0  0  0
   -5.6580   21.4410  -32.7170 C   0  0  0  0  0  0  0  0  0  0  0  0
   -6.4760   21.7150  -31.4470 C   0  0  0  0  0  0  0  0  0  0  0  0
   -6.1990   23.1070  -30.9580 C   0  0  0  0  0  0  0  0  0  0  0  0
   -7.2370   23.9530  -30.5390 C   0  0  0  0  0  0  0  0  0  0  0  0
   -6.9470   25.2400  -30.0770 C   0  0  0  0  0  0  0  0  0  0  0  0
   -5.6230   25.6810  -30.0190 C   0  0  0  0  0  0  0  0  0  0  0  0
   -4.5800   24.8410  -30.4220 C   0  0  0  0  0  0  0  0  0  0  0  0
   -3.2680   25.2930  -30.3320 O   0  0  0  0  0  0  0  0  0  0  0  0
   -4.8670   23.5500  -30.9080 C   0  0  0  0  0  0  0  0  0  0  0  0
   -3.7780   22.5780  -31.2920 C   0  0  0  0  0  0  0  0  0  0  0  0
   -0.8421   20.9241  -29.4405 H   0  0  0  0  0  0  0  0  0  0  0  0
    0.2768   21.8048  -30.5356 H   0  0  0  0  0  0  0  0  0  0  0  0
   -1.4756   22.1994  -30.5356 H   0  0  0  0  0  0  0  0  0  0  0  0
   -0.0022   19.9802  -31.8837 H   0  0  0  0  0  0  0  0  0  0  0  0
   -1.5524   19.5132  -31.0839 H   0  0  0  0  0  0  0  0  0  0  0  0
   -1.6880   22.0394  -32.6318 H   0  0  0  0  0  0  0  0  0  0  0  0
   -1.3281   20.5165  -33.6046 H   0  0  0  0  0  0  0  0  0  0  0  0
   -3.3450   20.0300  -31.8560 H   0  0  0  0  0  0  0  0  0  0  0  0
   -3.8779   20.2895  -34.7222 H   0  0  0  0  0  0  0  0  0  0  0  0
   -2.6907   19.0690  -34.0896 H   0  0  0  0  0  0  0  0  0  0  0  0
   -4.4406   19.0026  -31.3537 H   0  0  0  0  0  0  0  0  0  0  0  0
   -6.2876   17.4374  -30.7515 H   0  0  0  0  0  0  0  0  0  0  0  0
   -7.5937   16.2928  -32.5456 H   0  0  0  0  0  0  0  0  0  0  0  0
   -7.0517   16.7129  -34.9466 H   0  0  0  0  0  0  0  0  0  0  0  0
   -5.2099   18.2795  -35.5580 H   0  0  0  0  0  0  0  0  0  0  0  0
   -3.9348   22.4280  -33.4481 H   0  0  0  0  0  0  0  0  0  0  0  0
   -6.0740   22.0500  -33.5331 H   0  0  0  0  0  0  0  0  0  0  0  0
   -5.7295   20.3607  -32.9113 H   0  0  0  0  0  0  0  0  0  0  0  0
   -7.5477   21.6133  -31.6732 H   0  0  0  0  0  0  0  0  0  0  0  0
   -6.1929   20.9919  -30.6680 H   0  0  0  0  0  0  0  0  0  0  0  0
   -8.2794   23.6033  -30.5741 H   0  0  0  0  0  0  0  0  0  0  0  0
   -7.7624   25.9062  -29.7588 H   0  0  0  0  0  0  0  0  0  0  0  0
   -5.3994   26.6944  -29.6544 H   0  0  0  0  0  0  0  0  0  0  0  0
   -2.8481   23.1395  -31.4652 H   0  0  0  0  0  0  0  0  0  0  0  0
   -3.6657   21.8572  -30.4687 H   0  0  0  0  0  0  0  0  0  0  0  0
  1  2  1  0
  2  3  1  0
  3  4  1  0
  4  5  1  0
  5  6  1  0
  6  7  2  0
  7  8  1  0
  8  9  2  0
  9 10  1  0
 10 11  2  0
  4 12  1  0
 12 13  1  0
 13 14  1  0
 14 15  1  0
 15 16  2  0
 16 17  1  0
 17 18  2  0
 18 19  1  0
 19 20  1  0
 19 21  2  0
 21 22  1  0
 11  6  1  0
 22 12  1  0
 21 15  1  0
  1 23  1  0
  1 24  1  0
  1 25  1  0
  2 26  1  0
  2 27  1  0
  3 28  1  0
  3 29  1  0
  4 30  1  1
  5 31  1  0
  5 32  1  0
  7 33  1  0
  8 34  1  0
  9 35  1  0
 10 36  1  0
 11 37  1  0
 12 38  1  6
 13 39  1  0
 13 40  1  0
 14 41  1  0
 14 42  1  0
 16 43  1  0
 17 44  1  0
 18 45  1  0
 22 46  1  0
 22 47  1  0
M  CHG  2   4   1  20  -1
M  END
>  <UniqueID>  (46) 
45

>  <SMILES>  (46) 
CCC[N@H+](Cc1ccccc1)[C@H]1CCc2cccc([O-])c2C1

>  <Energy>  (46) 
63.844109360347865

>  <Genealogy>  (46) 
CCC[NH+](Cc1ccccc1)C1CCc2cccc([O-])c2C1 (protonated)
CCC[N@H+](Cc1ccccc1)[C@H]1CCc2cccc([O-])c2C1 (chirality)
CCC[N@H+](Cc1ccccc1)[C@H]1CCc2cccc([O-])c2C1 (3D coordinates assigned)
CCC[N@H+](Cc1ccccc1)[C@H]1CCc2cccc([O-])c2C1 (nonaromatic ring conformer: 63.844109360347865 kcal/mol)

>  <smiles>  (46) 
CCCN(Cc1ccccc1)C1CCc2cccc(O)c2C1

>  <score_type>  (46) 
oracle

>  <origin>  (46) 
adg

>  <m_score__min__energy>  (46) 
-10.19

>  <m_primary>  (46) 
energy

$$$$
