0:0
     RDKit          3D

 56 58  0  0  0  0  0  0  0  0999 V2000
   -2.2350   23.6370  -29.6640 C   0  0  0  0  0  0  0  0  0  0  0  0
   -3.4090   24.5380  -29.3270 C   0  0  0  0  0  0  0  0  0  0  0  0
   -3.8770   25.2720  -30.4610 N   0  0  0  0  0  0  0  0  0  0  0  0
   -5.2920   25.4980  -30.4680 C   0  0  0  0  0  0  0  0  0  0  0  0
   -6.0070   24.4890  -31.3160 C   0  0  0  0  0  0  0  0  0  0  0  0
   -5.7200   23.0640  -30.9830 C   0  0  0  0  0  0  0  0  0  0  0  0
   -4.5620   22.4470  -31.7160 C   0  0  0  0  0  0  0  0  0  0  0  0
   -4.9270   21.8170  -32.9460 N   0  0  0  0  0  0  0  0  0  0  0  0
   -5.3070   20.4540  -33.0640 C   0  0  0  0  0  0  0  0  0  0  0  0
   -6.5580   19.9650  -32.7790 C   0  0  0  0  0  0  0  0  0  0  0  0
   -7.5060   20.8700  -32.3560 C   0  0  0  0  0  0  0  0  0  0  0  0
   -8.7890   20.4830  -32.0530 C   0  0  0  0  0  0  0  0  0  0  0  0
   -9.1040   19.1490  -32.1860 C   0  0  0  0  0  0  0  0  0  0  0  0
   -8.1390   18.2330  -32.6160 C   0  0  0  0  0  0  0  0  0  0  0  0
   -6.8480   18.6120  -32.9220 C   0  0  0  0  0  0  0  0  0  0  0  0
   -5.9250   17.7220  -33.3410 N   0  0  0  0  0  0  0  0  0  0  0  0
   -6.2430   16.3190  -33.4630 C   0  0  0  0  0  0  0  0  0  0  0  0
   -4.6880   18.2040  -33.6230 C   0  0  0  0  0  0  0  0  0  0  0  0
   -3.6810   17.3710  -34.0670 C   0  0  0  0  0  0  0  0  0  0  0  0
   -2.4100   17.8400  -34.3660 C   0  0  0  0  0  0  0  0  0  0  0  0
   -2.1100   19.1800  -34.2270 C   0  0  0  0  0  0  0  0  0  0  0  0
   -0.7900   19.5970  -34.5480 N   0  0  0  0  0  0  0  0  0  0  0  0
   -0.2260   20.7980  -34.0230 C   0  0  0  0  0  0  0  0  0  0  0  0
    1.1790   21.1130  -34.4460 C   0  0  0  0  0  0  0  0  0  0  0  0
   -0.8760   21.5420  -33.2500 O   0  0  0  0  0  0  0  0  0  0  0  0
   -3.0980   20.0300  -33.7880 C   0  0  0  0  0  0  0  0  0  0  0  0
   -4.3640   19.5410  -33.4940 C   0  0  0  0  0  0  0  0  0  0  0  0
   -1.7687   23.2791  -28.7342 H   0  0  0  0  0  0  0  0  0  0  0  0
   -2.5895   22.7769  -30.2510 H   0  0  0  0  0  0  0  0  0  0  0  0
   -1.4959   24.2019  -30.2510 H   0  0  0  0  0  0  0  0  0  0  0  0
   -4.2322   23.9169  -28.9442 H   0  0  0  0  0  0  0  0  0  0  0  0
   -3.0683   25.2648  -28.5749 H   0  0  0  0  0  0  0  0  0  0  0  0
   -3.5260   24.9420  -31.3720 H   0  0  0  0  0  0  0  0  0  0  0  0
   -5.6696   25.4300  -29.4371 H   0  0  0  0  0  0  0  0  0  0  0  0
   -5.4792   26.4967  -30.8894 H   0  0  0  0  0  0  0  0  0  0  0  0
   -7.0886   24.6540  -31.2026 H   0  0  0  0  0  0  0  0  0  0  0  0
   -5.6453   24.6418  -32.3435 H   0  0  0  0  0  0  0  0  0  0  0  0
   -5.5090   23.0041  -29.9051 H   0  0  0  0  0  0  0  0  0  0  0  0
   -6.6098   22.4969  -31.2939 H   0  0  0  0  0  0  0  0  0  0  0  0
   -3.8296   23.2378  -31.9355 H   0  0  0  0  0  0  0  0  0  0  0  0
   -4.1517   21.6621  -31.0636 H   0  0  0  0  0  0  0  0  0  0  0  0
   -4.9260   22.3710  -33.8430 H   0  0  0  0  0  0  0  0  0  0  0  0
   -7.2288   21.9300  -32.2582 H   0  0  0  0  0  0  0  0  0  0  0  0
   -9.5389   21.2137  -31.7157 H   0  0  0  0  0  0  0  0  0  0  0  0
  -10.1213   18.8018  -31.9525 H   0  0  0  0  0  0  0  0  0  0  0  0
   -8.4187   17.1736  -32.7137 H   0  0  0  0  0  0  0  0  0  0  0  0
   -6.3431   15.8772  -32.4606 H   0  0  0  0  0  0  0  0  0  0  0  0
   -7.1900   16.2040  -34.0107 H   0  0  0  0  0  0  0  0  0  0  0  0
   -5.4381   15.8069  -34.0107 H   0  0  0  0  0  0  0  0  0  0  0  0
   -3.8935   16.2985  -34.1879 H   0  0  0  0  0  0  0  0  0  0  0  0
   -1.6370   17.1399  -34.7158 H   0  0  0  0  0  0  0  0  0  0  0  0
   -0.2350   18.9830  -35.1930 H   0  0  0  0  0  0  0  0  0  0  0  0
    1.8075   21.2539  -33.5543 H   0  0  0  0  0  0  0  0  0  0  0  0
    1.5761   20.2816  -35.0469 H   0  0  0  0  0  0  0  0  0  0  0  0
    1.1832   22.0344  -35.0469 H   0  0  0  0  0  0  0  0  0  0  0  0
   -2.8843   21.1025  -33.6692 H   0  0  0  0  0  0  0  0  0  0  0  0
  1  2  1  0
  2  3  1  0
  3  4  1  0
  4  5  1  0
  5  6  1  0
  6  7  1  0
  7  8  1  0
  8  9  1  0
  9 10  2  0
 10 11  1  0
 11 12  2  0
 12 13  1  0
 13 14  2  0
 14 15  1  0
 15 16  2  0
 16 17  1  0
 16 18  1  0
 18 19  2  0
 19 20  1  0
 20 21  2  0
 21 22  1  0
 22 23  1  0
 23 24  1  0
 23 25  2  0
 21 26  1  0
 26 27  2  0
 27  9  1  0
 15 10  1  0
 27 18  1  0
  1 28  1  0
  1 29  1  0
  1 30  1  0
  2 31  1  0
  2 32  1  0
  3 33  1  0
  4 34  1  0
  4 35  1  0
  5 36  1  0
  5 37  1  0
  6 38  1  0
  6 39  1  0
  7 40  1  0
  7 41  1  0
  8 42  1  0
 11 43  1  0
 12 44  1  0
 13 45  1  0
 14 46  1  0
 17 47  1  0
 17 48  1  0
 17 49  1  0
 19 50  1  0
 20 51  1  0
 22 52  1  0
 24 53  1  0
 24 54  1  0
 24 55  1  0
 26 56  1  0
M  CHG  1  16   1
M  END
>  <smiles>  (1) 
CCNCCCCNc1c2ccccc2[n+](C)c2ccc(NC(C)=O)cc12

>  <score_type>  (1) 
oracle

>  <origin>  (1) 
adg

>  <m_score__min__energy>  (1) 
-9.6300000000000008

>  <m_primary>  (1) 
energy

$$$$
1:0
     RDKit          3D

 52 54  0  0  1  0  0  0  0  0999 V2000
   -1.1810   21.2260  -31.3790 C   0  0  0  0  0  0  0  0  0  0  0  0
   -1.8430   21.2990  -30.0600 C   0  0  0  0  0  0  0  0  0  0  0  0
   -1.8590   20.2710  -29.1890 N   0  0  0  0  0  0  0  0  0  0  0  0
   -2.5360   20.5890  -28.1100 N   0  0  0  0  0  0  0  0  0  0  0  0
   -2.7340   19.6860  -26.9940 C   0  0  0  0  0  0  0  0  0  0  0  0
   -2.9740   21.8490  -28.2690 C   0  0  0  0  0  0  0  0  0  0  0  0
   -2.5490   22.3440  -29.5110 C   0  0  0  0  0  0  0  0  0  0  0  0
   -2.8410   23.6940  -29.9730 C   0  0  0  0  0  0  0  0  0  0  0  0
   -4.1980   23.9450  -30.2740 N   0  0  0  0  0  0  0  0  0  0  0  0
   -4.6280   25.2690  -30.5170 C   0  0  0  0  0  0  0  0  0  0  0  0
   -6.0920   25.3360  -30.8250 C   0  0  0  0  0  0  0  0  0  0  0  0
   -6.9090   24.3860  -29.9830 C   0  0  0  0  0  0  0  0  0  0  0  0
   -7.1410   23.1120  -30.5700 N   0  0  0  0  0  0  0  0  0  0  0  0
   -7.8400   23.1830  -31.8470 C   0  0  0  0  0  0  0  0  0  0  0  0
   -9.0640   22.4030  -31.9020 C   0  0  0  0  0  0  0  0  0  0  0  0
   -9.2120   21.1380  -32.1190 C   0  0  0  0  0  0  0  0  0  0  0  0
   -8.2190   20.1370  -32.3950 C   0  0  0  0  0  0  0  0  0  0  0  0
   -7.1450   20.2240  -33.2350 C   0  0  0  0  0  0  0  0  0  0  0  0
   -6.2930   19.1690  -33.5250 C   0  0  0  0  0  0  0  0  0  0  0  0
   -6.5060   17.9430  -32.9530 C   0  0  0  0  0  0  0  0  0  0  0  0
   -7.5850   17.8370  -32.0990 C   0  0  0  0  0  0  0  0  0  0  0  0
   -8.4270   18.8840  -31.8140 C   0  0  0  0  0  0  0  0  0  0  0  0
   -5.9580   22.2820  -30.6730 C   0  0  0  0  0  0  0  0  0  0  0  0
   -4.7660   23.0000  -31.2200 C   0  0  0  0  0  0  0  0  0  0  0  0
   -0.0965   21.1064  -31.2388 H   0  0  0  0  0  0  0  0  0  0  0  0
   -1.5753   20.3659  -31.9400 H   0  0  0  0  0  0  0  0  0  0  0  0
   -1.3784   22.1514  -31.9400 H   0  0  0  0  0  0  0  0  0  0  0  0
   -2.6130   20.2377  -26.0500 H   0  0  0  0  0  0  0  0  0  0  0  0
   -3.7469   19.2598  -27.0424 H   0  0  0  0  0  0  0  0  0  0  0  0
   -1.9923   18.8751  -27.0424 H   0  0  0  0  0  0  0  0  0  0  0  0
   -3.5748   22.4079  -27.5364 H   0  0  0  0  0  0  0  0  0  0  0  0
   -2.5308   24.3977  -29.1864 H   0  0  0  0  0  0  0  0  0  0  0  0
   -2.2900   23.8202  -30.9167 H   0  0  0  0  0  0  0  0  0  0  0  0
   -4.4248   25.8779  -29.6237 H   0  0  0  0  0  0  0  0  0  0  0  0
   -4.0792   25.6493  -31.3912 H   0  0  0  0  0  0  0  0  0  0  0  0
   -6.4439   26.3617  -30.6400 H   0  0  0  0  0  0  0  0  0  0  0  0
   -6.2236   25.0441  -31.8774 H   0  0  0  0  0  0  0  0  0  0  0  0
   -6.3798   24.2321  -29.0310 H   0  0  0  0  0  0  0  0  0  0  0  0
   -7.8972   24.8538  -29.8620 H   0  0  0  0  0  0  0  0  0  0  0  0
   -8.0929   24.2354  -32.0434 H   0  0  0  0  0  0  0  0  0  0  0  0
   -7.1616   22.7586  -32.6017 H   0  0  0  0  0  0  0  0  0  0  0  0
   -9.9935   22.9673  -31.7359 H   0  0  0  0  0  0  0  0  0  0  0  0
  -10.2497   20.7743  -32.0879 H   0  0  0  0  0  0  0  0  0  0  0  0
   -6.9430   21.1942  -33.7124 H   0  0  0  0  0  0  0  0  0  0  0  0
   -5.4477   19.3166  -34.2132 H   0  0  0  0  0  0  0  0  0  0  0  0
   -5.8499   17.0856  -33.1637 H   0  0  0  0  0  0  0  0  0  0  0  0
   -7.7805   16.8650  -31.6226 H   0  0  0  0  0  0  0  0  0  0  0  0
   -9.2705   18.7348  -31.1238 H   0  0  0  0  0  0  0  0  0  0  0  0
   -5.7077   21.9079  -29.6693 H   0  0  0  0  0  0  0  0  0  0  0  0
   -6.1951   21.4701  -31.3763 H   0  0  0  0  0  0  0  0  0  0  0  0
   -3.9971   22.2578  -31.4807 H   0  0  0  0  0  0  0  0  0  0  0  0
   -5.0966   23.5697  -32.1010 H   0  0  0  0  0  0  0  0  0  0  0  0
  1  2  1  0
  2  3  2  0
  3  4  1  0
  4  5  1  0
  4  6  1  0
  6  7  2  0
  7  8  1  0
  8  9  1  0
  9 10  1  0
 10 11  1  0
 11 12  1  0
 12 13  1  0
 13 14  1  0
 14 15  1  0
 15 16  2  0
 16 17  1  0
 17 18  2  0
 18 19  1  0
 19 20  2  0
 20 21  1  0
 21 22  2  0
 13 23  1  0
 23 24  1  0
  7  2  1  0
 24  9  1  0
 22 17  1  0
  1 25  1  0
  1 26  1  0
  1 27  1  0
  5 28  1  0
  5 29  1  0
  5 30  1  0
  6 31  1  0
  8 32  1  0
  8 33  1  0
 10 34  1  0
 10 35  1  0
 11 36  1  0
 11 37  1  0
 12 38  1  0
 12 39  1  0
 14 40  1  0
 14 41  1  0
 15 42  1  0
 16 43  1  0
 18 44  1  0
 19 45  1  0
 20 46  1  0
 21 47  1  0
 22 48  1  0
 23 49  1  0
 23 50  1  0
 24 51  1  0
 24 52  1  0
M  END
>  <smiles>  (2) 
Cc1nn(C)cc1CN1CCCN(CC=Cc2ccccc2)CC1

>  <score_type>  (2) 
oracle

>  <origin>  (2) 
adg

>  <m_score__min__energy>  (2) 
-7.0300000000000002

>  <m_primary>  (2) 
energy

$$$$
2:0
     RDKit          3D

 27 28  0  0  0  0  0  0  0  0999 V2000
   -8.9550   19.4020  -31.5920 C   0  0  0  0  0  0  0  0  0  0  0  0
   -8.4230   20.2270  -32.7430 C   0  0  0  0  0  0  0  0  0  0  0  0
   -7.9180   21.4760  -32.1730 N   0  0  0  0  0  0  0  0  0  0  0  0
   -8.6870   22.4090  -31.6070 C   0  0  0  0  0  0  0  0  0  0  0  0
   -7.9480   23.4340  -31.1800 N   0  0  0  0  0  0  0  0  0  0  0  0
   -6.6660   23.1280  -31.4890 C   0  0  0  0  0  0  0  0  0  0  0  0
   -5.5250   23.9250  -31.2250 C   0  0  0  0  0  0  0  0  0  0  0  0
   -4.6130   24.5720  -30.9930 N   0  0  0  0  0  0  0  0  0  0  0  0
   -6.6290   21.8970  -32.1160 C   0  0  0  0  0  0  0  0  0  0  0  0
   -5.2170   20.9990  -32.7430 S   0  0  0  0  0  0  0  0  0  0  0  0
   -5.6140   19.2720  -33.0000 C   0  0  0  0  0  0  0  0  0  0  0  0
   -5.7960   18.3880  -31.9560 C   0  0  0  0  0  0  0  0  0  0  0  0
   -6.1040   17.0520  -32.1690 C   0  0  0  0  0  0  0  0  0  0  0  0
   -6.2410   16.5580  -33.4700 C   0  0  0  0  0  0  0  0  0  0  0  0
   -6.0620   17.4350  -34.5170 C   0  0  0  0  0  0  0  0  0  0  0  0
   -5.7560   18.7550  -34.2910 C   0  0  0  0  0  0  0  0  0  0  0  0
   -8.6563   19.8652  -30.6400 H   0  0  0  0  0  0  0  0  0  0  0  0
  -10.0526   19.3572  -31.6495 H   0  0  0  0  0  0  0  0  0  0  0  0
   -8.5430   18.3837  -31.6495 H   0  0  0  0  0  0  0  0  0  0  0  0
   -7.6103   19.6874  -33.2513 H   0  0  0  0  0  0  0  0  0  0  0  0
   -9.2116   20.4231  -33.4843 H   0  0  0  0  0  0  0  0  0  0  0  0
   -9.7803   22.3417  -31.5065 H   0  0  0  0  0  0  0  0  0  0  0  0
   -5.6938   18.7537  -30.9236 H   0  0  0  0  0  0  0  0  0  0  0  0
   -6.2411   16.3782  -31.3104 H   0  0  0  0  0  0  0  0  0  0  0  0
   -6.4844   15.5008  -33.6518 H   0  0  0  0  0  0  0  0  0  0  0  0
   -6.1657   17.0726  -35.5504 H   0  0  0  0  0  0  0  0  0  0  0  0
   -5.6185   19.4255  -35.1521 H   0  0  0  0  0  0  0  0  0  0  0  0
  1  2  1  0
  2  3  1  0
  3  4  1  0
  4  5  2  0
  5  6  1  0
  6  7  1  0
  7  8  3  0
  6  9  2  0
  9 10  1  0
 10 11  1  0
 11 12  2  0
 12 13  1  0
 13 14  2  0
 14 15  1  0
 15 16  2  0
  9  3  1  0
 16 11  1  0
  1 17  1  0
  1 18  1  0
  1 19  1  0
  2 20  1  0
  2 21  1  0
  4 22  1  0
 12 23  1  0
 13 24  1  0
 14 25  1  0
 15 26  1  0
 16 27  1  0
M  END
>  <smiles>  (3) 
CCn1cnc(C#N)c1Sc1ccccc1

>  <score_type>  (3) 
oracle

>  <origin>  (3) 
adg

>  <m_score__min__energy>  (3) 
-6.5599999999999996

>  <m_primary>  (3) 
energy

$$$$
3:0
     RDKit          3D

 27 28  0  0  0  0  0  0  0  0999 V2000
   -6.2950   16.9990  -34.1740 C   0  0  0  0  0  0  0  0  0  0  0  0
   -6.1090   18.3750  -33.5940 C   0  0  0  0  0  0  0  0  0  0  0  0
   -5.0690   19.2060  -33.7480 N   0  0  0  0  0  0  0  0  0  0  0  0
   -5.2490   20.3310  -33.0940 N   0  0  0  0  0  0  0  0  0  0  0  0
   -4.3390   21.4390  -33.0400 C   0  0  0  0  0  0  0  0  0  0  0  0
   -6.4220   20.2700  -32.4860 C   0  0  0  0  0  0  0  0  0  0  0  0
   -7.0130   19.0370  -32.7740 C   0  0  0  0  0  0  0  0  0  0  0  0
   -8.3360   18.4850  -32.3270 C   0  0  0  0  0  0  0  0  0  0  0  0
   -9.3400   19.4290  -32.7830 N   0  0  0  0  0  0  0  0  0  0  0  0
   -9.4540   20.5780  -31.9140 C   0  0  0  0  0  0  0  0  0  0  0  0
   -8.4180   21.6100  -32.2820 C   0  0  0  0  0  0  0  0  0  0  0  0
   -7.0670   21.3050  -31.6230 C   0  0  0  0  0  0  0  0  0  0  0  0
   -6.3939   16.2676  -33.3584 H   0  0  0  0  0  0  0  0  0  0  0  0
   -7.2036   16.9821  -34.7938 H   0  0  0  0  0  0  0  0  0  0  0  0
   -5.4235   16.7415  -34.7938 H   0  0  0  0  0  0  0  0  0  0  0  0
   -4.1312   21.6920  -31.9898 H   0  0  0  0  0  0  0  0  0  0  0  0
   -3.4000   21.1672  -33.5444 H   0  0  0  0  0  0  0  0  0  0  0  0
   -4.7881   22.3073  -33.5444 H   0  0  0  0  0  0  0  0  0  0  0  0
   -8.5090   17.4963  -32.7771 H   0  0  0  0  0  0  0  0  0  0  0  0
   -8.3703   18.3576  -31.2349 H   0  0  0  0  0  0  0  0  0  0  0  0
   -9.2430   19.6930  -33.7860 H   0  0  0  0  0  0  0  0  0  0  0  0
  -10.4575   21.0160  -32.0195 H   0  0  0  0  0  0  0  0  0  0  0  0
   -9.2922   20.2602  -30.8734 H   0  0  0  0  0  0  0  0  0  0  0  0
   -8.2904   21.6155  -33.3746 H   0  0  0  0  0  0  0  0  0  0  0  0
   -8.7641   22.5912  -31.9250 H   0  0  0  0  0  0  0  0  0  0  0  0
   -6.4462   22.2122  -31.5827 H   0  0  0  0  0  0  0  0  0  0  0  0
   -7.1899   20.9524  -30.5883 H   0  0  0  0  0  0  0  0  0  0  0  0
  1  2  1  0
  2  3  2  0
  3  4  1  0
  4  5  1  0
  4  6  1  0
  6  7  2  0
  7  8  1  0
  8  9  1  0
  9 10  1  0
 10 11  1  0
 11 12  1  0
  7  2  1  0
 12  6  1  0
  1 13  1  0
  1 14  1  0
  1 15  1  0
  5 16  1  0
  5 17  1  0
  5 18  1  0
  8 19  1  0
  8 20  1  0
  9 21  1  0
 10 22  1  0
 10 23  1  0
 11 24  1  0
 11 25  1  0
 12 26  1  0
 12 27  1  0
M  END
>  <smiles>  (4) 
Cc1nn(C)c2c1CNCCC2

>  <score_type>  (4) 
oracle

>  <origin>  (4) 
adg

>  <m_score__min__energy>  (4) 
-4.1500000000000004

>  <m_primary>  (4) 
energy

$$$$
4:0
     RDKit          3D

 52 54  0  0  0  0  0  0  0  0999 V2000
   -8.4970   19.3530  -31.6080 C   0  0  0  0  0  0  0  0  0  0  0  0
   -8.2830   20.8510  -31.5540 C   0  0  0  0  0  0  0  0  0  0  0  0
   -9.5390   21.5960  -31.9710 C   0  0  0  0  0  0  0  0  0  0  0  0
   -7.1920   21.2910  -32.5040 C   0  0  0  0  0  0  0  0  0  0  0  0
   -7.0540   22.7380  -32.4550 N   0  0  0  0  0  0  0  0  0  0  0  0
   -6.9290   23.1990  -31.0810 C   0  0  0  0  0  0  0  0  0  0  0  0
   -5.5410   23.6860  -30.8110 C   0  0  0  0  0  0  0  0  0  0  0  0
   -5.1590   25.0080  -30.8650 C   0  0  0  0  0  0  0  0  0  0  0  0
   -3.8700   25.0750  -30.5640 N   0  0  0  0  0  0  0  0  0  0  0  0
   -3.4250   23.8610  -30.3230 N   0  0  0  0  0  0  0  0  0  0  0  0
   -4.4200   22.9870  -30.4650 C   0  0  0  0  0  0  0  0  0  0  0  0
   -4.1690   21.5720  -30.2470 C   0  0  0  0  0  0  0  0  0  0  0  0
   -2.8400   21.1680  -30.7160 N   0  0  0  0  0  0  0  0  0  0  0  0
   -2.7510   21.5100  -32.1190 C   0  0  0  0  0  0  0  0  0  0  0  0
   -3.8320   21.0160  -32.9170 C   0  0  0  0  0  0  0  0  0  0  0  0
   -4.6080   21.9000  -33.4640 O   0  0  0  0  0  0  0  0  0  0  0  0
   -4.2320   19.6760  -33.2260 N   0  0  0  0  0  0  0  0  0  0  0  0
   -5.3810   19.4990  -34.1410 C   0  0  0  0  0  0  0  0  0  0  0  0
   -5.2590   18.0900  -34.5790 C   0  0  0  0  0  0  0  0  0  0  0  0
   -4.8450   17.4310  -33.2450 C   0  0  0  0  0  0  0  0  0  0  0  0
   -3.7510   18.4090  -32.7540 C   0  0  0  0  0  0  0  0  0  0  0  0
   -1.8490   21.9720  -29.9700 C   0  0  0  0  0  0  0  0  0  0  0  0
   -2.1100   23.4280  -29.9490 C   0  0  0  0  0  0  0  0  0  0  0  0
   -8.5541   18.9536  -30.5846 H   0  0  0  0  0  0  0  0  0  0  0  0
   -9.4353   19.1356  -32.1393 H   0  0  0  0  0  0  0  0  0  0  0  0
   -7.6571   18.8815  -32.1393 H   0  0  0  0  0  0  0  0  0  0  0  0
   -8.0094   21.0813  -30.5138 H   0  0  0  0  0  0  0  0  0  0  0  0
  -10.0872   21.9211  -31.0744 H   0  0  0  0  0  0  0  0  0  0  0  0
   -9.2616   22.4757  -32.5703 H   0  0  0  0  0  0  0  0  0  0  0  0
  -10.1780   20.9308  -32.5703 H   0  0  0  0  0  0  0  0  0  0  0  0
   -6.2408   20.8228  -32.2106 H   0  0  0  0  0  0  0  0  0  0  0  0
   -7.4543   20.9844  -33.5273 H   0  0  0  0  0  0  0  0  0  0  0  0
   -6.1560   22.9680  -32.9330 H   0  0  0  0  0  0  0  0  0  0  0  0
   -7.6397   24.0209  -30.9098 H   0  0  0  0  0  0  0  0  0  0  0  0
   -7.1468   22.3590  -30.4050 H   0  0  0  0  0  0  0  0  0  0  0  0
   -5.8097   25.8592  -31.1143 H   0  0  0  0  0  0  0  0  0  0  0  0
   -4.2444   21.3604  -29.1702 H   0  0  0  0  0  0  0  0  0  0  0  0
   -4.9169   21.0036  -30.8193 H   0  0  0  0  0  0  0  0  0  0  0  0
   -2.7324   22.6064  -32.2055 H   0  0  0  0  0  0  0  0  0  0  0  0
   -1.8355   21.0346  -32.5009 H   0  0  0  0  0  0  0  0  0  0  0  0
   -6.3323   19.6663  -33.6147 H   0  0  0  0  0  0  0  0  0  0  0  0
   -5.3749   20.2108  -34.9796 H   0  0  0  0  0  0  0  0  0  0  0  0
   -6.2153   17.6936  -34.9509 H   0  0  0  0  0  0  0  0  0  0  0  0
   -4.5635   17.9225  -35.4146 H   0  0  0  0  0  0  0  0  0  0  0  0
   -5.6883   17.3827  -32.5404 H   0  0  0  0  0  0  0  0  0  0  0  0
   -4.5083   16.3883  -33.3417 H   0  0  0  0  0  0  0  0  0  0  0  0
   -3.6712   18.3978  -31.6570 H   0  0  0  0  0  0  0  0  0  0  0  0
   -2.7438   18.1590  -33.1187 H   0  0  0  0  0  0  0  0  0  0  0  0
   -1.8328   21.6137  -28.9301 H   0  0  0  0  0  0  0  0  0  0  0  0
   -0.8908   21.8401  -30.4938 H   0  0  0  0  0  0  0  0  0  0  0  0
   -1.9227   23.7836  -28.9251 H   0  0  0  0  0  0  0  0  0  0  0  0
   -1.4429   23.8480  -30.7162 H   0  0  0  0  0  0  0  0  0  0  0  0
  1  2  1  0
  2  3  1  0
  2  4  1  0
  4  5  1  0
  5  6  1  0
  6  7  1  0
  7  8  1  0
  8  9  2  0
  9 10  1  0
 10 11  1  0
 11 12  1  0
 12 13  1  0
 13 14  1  0
 14 15  1  0
 15 16  2  0
 15 17  1  0
 17 18  1  0
 18 19  1  0
 19 20  1  0
 20 21  1  0
 13 22  1  0
 22 23  1  0
 11  7  2  0
 21 17  1  0
 23 10  1  0
  1 24  1  0
  1 25  1  0
  1 26  1  0
  2 27  1  0
  3 28  1  0
  3 29  1  0
  3 30  1  0
  4 31  1  0
  4 32  1  0
  5 33  1  0
  6 34  1  0
  6 35  1  0
  8 36  1  0
 12 37  1  0
 12 38  1  0
 14 39  1  0
 14 40  1  0
 18 41  1  0
 18 42  1  0
 19 43  1  0
 19 44  1  0
 20 45  1  0
 20 46  1  0
 21 47  1  0
 21 48  1  0
 22 49  1  0
 22 50  1  0
 23 51  1  0
 23 52  1  0
M  END
>  <smiles>  (5) 
CC(C)CNCc1cnn2c1CN(CC(=O)N1CCCC1)CC2

>  <score_type>  (5) 
oracle

>  <origin>  (5) 
adg

>  <m_score__min__energy>  (5) 
-7.9100000000000001

>  <m_primary>  (5) 
energy

$$$$
5:0
     RDKit          3D

 51 53  0  0  0  0  0  0  0  0999 V2000
   -1.4860   21.5370  -27.7680 C   0  0  0  0  0  0  0  0  0  0  0  0
   -1.0100   22.2250  -29.0310 C   0  0  0  0  0  0  0  0  0  0  0  0
   -2.0650   23.1070  -29.5220 N   0  0  0  0  0  0  0  0  0  0  0  0
   -2.0390   24.4330  -29.3150 C   0  0  0  0  0  0  0  0  0  0  0  0
   -1.1610   25.1240  -28.6970 O   0  0  0  0  0  0  0  0  0  0  0  0
   -3.1150   24.9440  -29.8760 O   0  0  0  0  0  0  0  0  0  0  0  0
   -3.8310   24.0030  -30.4320 C   0  0  0  0  0  0  0  0  0  0  0  0
   -5.0340   23.9680  -31.1460 C   0  0  0  0  0  0  0  0  0  0  0  0
   -5.5500   22.7670  -31.6240 C   0  0  0  0  0  0  0  0  0  0  0  0
   -6.7590   22.8040  -32.3360 O   0  0  0  0  0  0  0  0  0  0  0  0
   -7.9440   23.0280  -31.6020 C   0  0  0  0  0  0  0  0  0  0  0  0
   -8.7960   21.8130  -31.6380 C   0  0  0  0  0  0  0  0  0  0  0  0
   -9.8820   21.8770  -30.9700 O   0  0  0  0  0  0  0  0  0  0  0  0
   -8.4780   20.6350  -32.3440 N   0  0  0  0  0  0  0  0  0  0  0  0
   -9.3160   19.4620  -32.3550 C   0  0  0  0  0  0  0  0  0  0  0  0
   -8.6150   18.2080  -31.8890 C   0  0  0  0  0  0  0  0  0  0  0  0
   -7.1310   18.3810  -32.0820 C   0  0  0  0  0  0  0  0  0  0  0  0
   -6.8020   18.6190  -33.4600 N   0  0  0  0  0  0  0  0  0  0  0  0
   -5.7990   19.6190  -33.5720 C   0  0  0  0  0  0  0  0  0  0  0  0
   -4.3900   18.9970  -33.5740 C   0  0  0  0  0  0  0  0  0  0  0  0
   -4.1940   18.1320  -34.6210 O   0  0  0  0  0  0  0  0  0  0  0  0
   -5.3660   17.6260  -35.1410 C   0  0  0  0  0  0  0  0  0  0  0  0
   -6.3730   17.3610  -34.0400 C   0  0  0  0  0  0  0  0  0  0  0  0
   -4.8730   21.5840  -31.3950 C   0  0  0  0  0  0  0  0  0  0  0  0
   -3.6760   21.5930  -30.6880 C   0  0  0  0  0  0  0  0  0  0  0  0
   -3.1690   22.7870  -30.2170 C   0  0  0  0  0  0  0  0  0  0  0  0
   -1.1093   22.0815  -26.8896 H   0  0  0  0  0  0  0  0  0  0  0  0
   -2.5858   21.5260  -27.7487 H   0  0  0  0  0  0  0  0  0  0  0  0
   -1.1086   20.5040  -27.7487 H   0  0  0  0  0  0  0  0  0  0  0  0
   -0.1087   22.8160  -28.8111 H   0  0  0  0  0  0  0  0  0  0  0  0
   -0.7716   21.4713  -29.7959 H   0  0  0  0  0  0  0  0  0  0  0  0
   -5.5804   24.9043  -31.3324 H   0  0  0  0  0  0  0  0  0  0  0  0
   -7.6880   23.2635  -30.5585 H   0  0  0  0  0  0  0  0  0  0  0  0
   -8.4936   23.8699  -32.0483 H   0  0  0  0  0  0  0  0  0  0  0  0
   -7.6020   20.6110  -32.8820 H   0  0  0  0  0  0  0  0  0  0  0  0
  -10.1765   19.6442  -31.6944 H   0  0  0  0  0  0  0  0  0  0  0  0
   -9.6159   19.2922  -33.3996 H   0  0  0  0  0  0  0  0  0  0  0  0
   -8.8319   18.0372  -30.8242 H   0  0  0  0  0  0  0  0  0  0  0  0
   -8.9692   17.3439  -32.4703 H   0  0  0  0  0  0  0  0  0  0  0  0
   -6.7900   19.2365  -31.4805 H   0  0  0  0  0  0  0  0  0  0  0  0
   -6.6319   17.4538  -31.7639 H   0  0  0  0  0  0  0  0  0  0  0  0
   -5.9479   20.1730  -34.5105 H   0  0  0  0  0  0  0  0  0  0  0  0
   -5.8810   20.2930  -32.7065 H   0  0  0  0  0  0  0  0  0  0  0  0
   -3.6482   19.8064  -33.6427 H   0  0  0  0  0  0  0  0  0  0  0  0
   -4.2797   18.4217  -32.6429 H   0  0  0  0  0  0  0  0  0  0  0  0
   -5.7895   18.3529  -35.8498 H   0  0  0  0  0  0  0  0  0  0  0  0
   -5.1444   16.6774  -35.6519 H   0  0  0  0  0  0  0  0  0  0  0  0
   -7.2437   16.8353  -34.4590 H   0  0  0  0  0  0  0  0  0  0  0  0
   -5.9074   16.7395  -33.2609 H   0  0  0  0  0  0  0  0  0  0  0  0
   -5.2815   20.6349  -31.7723 H   0  0  0  0  0  0  0  0  0  0  0  0
   -3.1354   20.6527  -30.5048 H   0  0  0  0  0  0  0  0  0  0  0  0
  1  2  1  0
  2  3  1  0
  3  4  1  0
  4  5  2  0
  4  6  1  0
  6  7  1  0
  7  8  2  0
  8  9  1  0
  9 10  1  0
 10 11  1  0
 11 12  1  0
 12 13  2  0
 12 14  1  0
 14 15  1  0
 15 16  1  0
 16 17  1  0
 17 18  1  0
 18 19  1  0
 19 20  1  0
 20 21  1  0
 21 22  1  0
 22 23  1  0
  9 24  2  0
 24 25  1  0
 25 26  2  0
 26  3  1  0
 26  7  1  0
 23 18  1  0
  1 27  1  0
  1 28  1  0
  1 29  1  0
  2 30  1  0
  2 31  1  0
  8 32  1  0
 11 33  1  0
 11 34  1  0
 14 35  1  0
 15 36  1  0
 15 37  1  0
 16 38  1  0
 16 39  1  0
 17 40  1  0
 17 41  1  0
 19 42  1  0
 19 43  1  0
 20 44  1  0
 20 45  1  0
 22 46  1  0
 22 47  1  0
 23 48  1  0
 23 49  1  0
 24 50  1  0
 25 51  1  0
M  END
>  <smiles>  (6) 
CCn1c(=O)oc2cc(OCC(=O)NCCCN3CCOCC3)ccc21

>  <score_type>  (6) 
oracle

>  <origin>  (6) 
adg

>  <m_score__min__energy>  (6) 
-8.4700000000000006

>  <m_primary>  (6) 
energy

$$$$
6:0
     RDKit          3D

 42 44  0  0  0  0  0  0  0  0999 V2000
   -6.1070   25.6390  -29.9990 C   0  0  0  0  0  0  0  0  0  0  0  0
   -5.5840   24.4770  -30.7500 C   0  0  0  0  0  0  0  0  0  0  0  0
   -4.2610   24.1410  -30.8510 N   0  0  0  0  0  0  0  0  0  0  0  0
   -4.1490   23.0210  -31.5700 C   0  0  0  0  0  0  0  0  0  0  0  0
   -3.0630   22.2540  -31.9690 C   0  0  0  0  0  0  0  0  0  0  0  0
   -3.1990   21.1170  -32.7170 C   0  0  0  0  0  0  0  0  0  0  0  0
   -4.4710   20.7380  -33.0790 C   0  0  0  0  0  0  0  0  0  0  0  0
   -5.5490   21.5130  -32.6760 C   0  0  0  0  0  0  0  0  0  0  0  0
   -5.3830   22.6390  -31.9300 N   0  0  0  0  0  0  0  0  0  0  0  0
   -6.3070   23.5250  -31.4370 C   0  0  0  0  0  0  0  0  0  0  0  0
   -7.7430   23.3950  -31.7090 C   0  0  0  0  0  0  0  0  0  0  0  0
   -8.4130   22.3010  -31.1160 N   0  0  0  0  0  0  0  0  0  0  0  0
   -9.4710   21.6630  -31.7730 C   0  0  0  0  0  0  0  0  0  0  0  0
   -9.1030   20.3880  -32.4910 C   0  0  0  0  0  0  0  0  0  0  0  0
   -8.5040   19.3700  -31.5460 C   0  0  0  0  0  0  0  0  0  0  0  0
   -7.4110   18.5860  -32.1610 C   0  0  0  0  0  0  0  0  0  0  0  0
   -6.7420   17.6500  -31.3780 C   0  0  0  0  0  0  0  0  0  0  0  0
   -5.7150   16.8700  -31.8800 C   0  0  0  0  0  0  0  0  0  0  0  0
   -5.3080   16.9960  -33.2100 C   0  0  0  0  0  0  0  0  0  0  0  0
   -5.9760   17.9250  -33.9770 C   0  0  0  0  0  0  0  0  0  0  0  0
   -7.0060   18.7040  -33.4640 C   0  0  0  0  0  0  0  0  0  0  0  0
   -6.0205   25.4469  -28.9194 H   0  0  0  0  0  0  0  0  0  0  0  0
   -5.5257   26.5358  -30.2596 H   0  0  0  0  0  0  0  0  0  0  0  0
   -7.1637   25.7985  -30.2596 H   0  0  0  0  0  0  0  0  0  0  0  0
   -2.0531   22.5732  -31.6719 H   0  0  0  0  0  0  0  0  0  0  0  0
   -2.3216   20.5260  -33.0187 H   0  0  0  0  0  0  0  0  0  0  0  0
   -4.6315   19.8313  -33.6808 H   0  0  0  0  0  0  0  0  0  0  0  0
   -6.5652   21.2091  -32.9674 H   0  0  0  0  0  0  0  0  0  0  0  0
   -8.2321   24.3146  -31.3553 H   0  0  0  0  0  0  0  0  0  0  0  0
   -7.8131   23.2189  -32.7926 H   0  0  0  0  0  0  0  0  0  0  0  0
   -7.9240   21.8260  -30.3570 H   0  0  0  0  0  0  0  0  0  0  0  0
  -10.2412   21.4228  -31.0252 H   0  0  0  0  0  0  0  0  0  0  0  0
   -9.8163   22.3625  -32.5485 H   0  0  0  0  0  0  0  0  0  0  0  0
  -10.0082   19.9616  -32.9480 H   0  0  0  0  0  0  0  0  0  0  0  0
   -8.3522   20.6293  -33.2578 H   0  0  0  0  0  0  0  0  0  0  0  0
   -8.1053   19.8987  -30.6676 H   0  0  0  0  0  0  0  0  0  0  0  0
   -9.3023   18.6645  -31.2722 H   0  0  0  0  0  0  0  0  0  0  0  0
   -7.0391   17.5262  -30.3262 H   0  0  0  0  0  0  0  0  0  0  0  0
   -5.2138   16.1428  -31.2243 H   0  0  0  0  0  0  0  0  0  0  0  0
   -4.4939   16.3834  -33.6248 H   0  0  0  0  0  0  0  0  0  0  0  0
   -5.6846   18.0544  -35.0298 H   0  0  0  0  0  0  0  0  0  0  0  0
   -7.5073   19.4317  -34.1191 H   0  0  0  0  0  0  0  0  0  0  0  0
  1  2  1  0
  2  3  1  0
  3  4  2  0
  4  5  1  0
  5  6  2  0
  6  7  1  0
  7  8  2  0
  8  9  1  0
  9 10  1  0
 10 11  1  0
 11 12  1  0
 12 13  1  0
 13 14  1  0
 14 15  1  0
 15 16  1  0
 16 17  2  0
 17 18  1  0
 18 19  2  0
 19 20  1  0
 20 21  2  0
 10  2  2  0
 21 16  1  0
  9  4  1  0
  1 22  1  0
  1 23  1  0
  1 24  1  0
  5 25  1  0
  6 26  1  0
  7 27  1  0
  8 28  1  0
 11 29  1  0
 11 30  1  0
 12 31  1  0
 13 32  1  0
 13 33  1  0
 14 34  1  0
 14 35  1  0
 15 36  1  0
 15 37  1  0
 17 38  1  0
 18 39  1  0
 19 40  1  0
 20 41  1  0
 21 42  1  0
M  END
>  <smiles>  (7) 
Cc1nc2ccccn2c1CNCCCc1ccccc1

>  <score_type>  (7) 
oracle

>  <origin>  (7) 
adg

>  <m_score__min__energy>  (7) 
-8.0999999999999996

>  <m_primary>  (7) 
energy

$$$$
7:0
     RDKit          3D

 68 70  0  0  0  0  0  0  0  0999 V2000
   -2.0140   20.7890  -29.8010 C   0  0  0  0  0  0  0  0  0  0  0  0
   -2.6440   20.5280  -28.4710 C   0  0  0  0  0  0  0  0  0  0  0  0
   -1.8120   20.5500  -27.3390 N   0  0  0  0  0  0  0  0  0  0  0  0
   -1.9750   19.5870  -26.3320 C   0  0  0  0  0  0  0  0  0  0  0  0
   -3.3240   18.9050  -26.4120 C   0  0  0  0  0  0  0  0  0  0  0  0
   -0.7140   21.4300  -27.3120 C   0  0  0  0  0  0  0  0  0  0  0  0
   -0.5420   22.2390  -26.0550 C   0  0  0  0  0  0  0  0  0  0  0  0
   -1.2690   23.4410  -26.0720 O   0  0  0  0  0  0  0  0  0  0  0  0
   -1.4200   23.9920  -27.3180 C   0  0  0  0  0  0  0  0  0  0  0  0
   -2.8900   23.9220  -27.7390 C   0  0  0  0  0  0  0  0  0  0  0  0
   -3.0590   24.5480  -29.1210 C   0  0  0  0  0  0  0  0  0  0  0  0
   -4.3150   23.9900  -29.8230 C   0  0  0  0  0  0  0  0  0  0  0  0
   -4.0760   23.9830  -31.2110 N   0  0  0  0  0  0  0  0  0  0  0  0
   -4.7050   23.0350  -32.0340 C   0  0  0  0  0  0  0  0  0  0  0  0
   -4.4720   21.5820  -31.8370 C   0  0  0  0  0  0  0  0  0  0  0  0
   -5.5160   20.6620  -32.2670 C   0  0  0  0  0  0  0  0  0  0  0  0
   -6.8360   20.8520  -31.8630 C   0  0  0  0  0  0  0  0  0  0  0  0
   -7.8470   19.9760  -32.3050 C   0  0  0  0  0  0  0  0  0  0  0  0
   -7.6080   18.9490  -33.1050 N   0  0  0  0  0  0  0  0  0  0  0  0
   -6.3530   18.7400  -33.5040 C   0  0  0  0  0  0  0  0  0  0  0  0
   -6.1400   17.6360  -34.3270 C   0  0  0  0  0  0  0  0  0  0  0  0
   -4.8640   17.3390  -34.7660 C   0  0  0  0  0  0  0  0  0  0  0  0
   -3.8390   18.1730  -34.3570 C   0  0  0  0  0  0  0  0  0  0  0  0
   -4.0690   19.2610  -33.5430 C   0  0  0  0  0  0  0  0  0  0  0  0
   -5.3180   19.5670  -33.1040 C   0  0  0  0  0  0  0  0  0  0  0  0
   -9.2390   20.2150  -31.8550 C   0  0  0  0  0  0  0  0  0  0  0  0
   -9.5840   21.6590  -31.8970 C   0  0  0  0  0  0  0  0  0  0  0  0
   -8.4400   22.6110  -31.6500 C   0  0  0  0  0  0  0  0  0  0  0  0
   -7.2860   21.9020  -30.9440 C   0  0  0  0  0  0  0  0  0  0  0  0
   -1.0069   21.2062  -29.6541 H   0  0  0  0  0  0  0  0  0  0  0  0
   -1.9420   19.8467  -30.3639 H   0  0  0  0  0  0  0  0  0  0  0  0
   -2.6295   21.5062  -30.3639 H   0  0  0  0  0  0  0  0  0  0  0  0
   -3.4229   21.2901  -28.3212 H   0  0  0  0  0  0  0  0  0  0  0  0
   -3.0031   19.4901  -28.5322 H   0  0  0  0  0  0  0  0  0  0  0  0
   -1.1863   18.8273  -26.4362 H   0  0  0  0  0  0  0  0  0  0  0  0
   -1.9098   20.0978  -25.3599 H   0  0  0  0  0  0  0  0  0  0  0  0
   -3.6997   18.7151  -25.3957 H   0  0  0  0  0  0  0  0  0  0  0  0
   -4.0315   19.5537  -26.9492 H   0  0  0  0  0  0  0  0  0  0  0  0
   -3.2211   17.9506  -26.9492 H   0  0  0  0  0  0  0  0  0  0  0  0
    0.1986   20.8325  -27.4541 H   0  0  0  0  0  0  0  0  0  0  0  0
   -0.9042   22.1628  -28.1101 H   0  0  0  0  0  0  0  0  0  0  0  0
   -0.8823   21.6356  -25.2005 H   0  0  0  0  0  0  0  0  0  0  0  0
    0.5236   22.5001  -25.9750 H   0  0  0  0  0  0  0  0  0  0  0  0
   -1.0961   25.0430  -27.2946 H   0  0  0  0  0  0  0  0  0  0  0  0
   -0.8074   23.4324  -28.0402 H   0  0  0  0  0  0  0  0  0  0  0  0
   -3.2114   22.8705  -27.7720 H   0  0  0  0  0  0  0  0  0  0  0  0
   -3.5042   24.4730  -27.0116 H   0  0  0  0  0  0  0  0  0  0  0  0
   -3.1596   25.6381  -29.0137 H   0  0  0  0  0  0  0  0  0  0  0  0
   -2.1760   24.3042  -29.7299 H   0  0  0  0  0  0  0  0  0  0  0  0
   -4.5128   22.9658  -29.4739 H   0  0  0  0  0  0  0  0  0  0  0  0
   -5.1897   24.6153  -29.5909 H   0  0  0  0  0  0  0  0  0  0  0  0
   -3.1500   24.3410  -31.5160 H   0  0  0  0  0  0  0  0  0  0  0  0
   -5.7878   23.1962  -31.9270 H   0  0  0  0  0  0  0  0  0  0  0  0
   -4.2481   23.2240  -33.0166 H   0  0  0  0  0  0  0  0  0  0  0  0
   -3.5563   21.3191  -32.3869 H   0  0  0  0  0  0  0  0  0  0  0  0
   -4.4234   21.4549  -30.7454 H   0  0  0  0  0  0  0  0  0  0  0  0
   -6.9870   17.0014  -34.6270 H   0  0  0  0  0  0  0  0  0  0  0  0
   -4.6707   16.4727  -35.4157 H   0  0  0  0  0  0  0  0  0  0  0  0
   -2.8123   17.9620  -34.6906 H   0  0  0  0  0  0  0  0  0  0  0  0
   -3.2226   19.8958  -33.2420 H   0  0  0  0  0  0  0  0  0  0  0  0
   -9.9270   19.6638  -32.5129 H   0  0  0  0  0  0  0  0  0  0  0  0
   -9.3299   19.8684  -30.8150 H   0  0  0  0  0  0  0  0  0  0  0  0
   -9.9983   21.8790  -32.8920 H   0  0  0  0  0  0  0  0  0  0  0  0
  -10.2941   21.8223  -31.0729 H   0  0  0  0  0  0  0  0  0  0  0  0
   -8.0851   23.0058  -32.6134 H   0  0  0  0  0  0  0  0  0  0  0  0
   -8.7958   23.4301  -31.0078 H   0  0  0  0  0  0  0  0  0  0  0  0
   -6.4685   22.6097  -30.7421 H   0  0  0  0  0  0  0  0  0  0  0  0
   -7.6007   21.4838  -29.9765 H   0  0  0  0  0  0  0  0  0  0  0  0
  1  2  1  0
  2  3  1  0
  3  4  1  0
  4  5  1  0
  3  6  1  0
  6  7  1  0
  7  8  1  0
  8  9  1  0
  9 10  1  0
 10 11  1  0
 11 12  1  0
 12 13  1  0
 13 14  1  0
 14 15  1  0
 15 16  1  0
 16 17  2  0
 17 18  1  0
 18 19  2  0
 19 20  1  0
 20 21  2  0
 21 22  1  0
 22 23  2  0
 23 24  1  0
 24 25  2  0
 18 26  1  0
 26 27  1  0
 27 28  1  0
 28 29  1  0
 25 16  1  0
 29 17  1  0
 25 20  1  0
  1 30  1  0
  1 31  1  0
  1 32  1  0
  2 33  1  0
  2 34  1  0
  4 35  1  0
  4 36  1  0
  5 37  1  0
  5 38  1  0
  5 39  1  0
  6 40  1  0
  6 41  1  0
  7 42  1  0
  7 43  1  0
  9 44  1  0
  9 45  1  0
 10 46  1  0
 10 47  1  0
 11 48  1  0
 11 49  1  0
 12 50  1  0
 12 51  1  0
 13 52  1  0
 14 53  1  0
 14 54  1  0
 15 55  1  0
 15 56  1  0
 21 57  1  0
 22 58  1  0
 23 59  1  0
 24 60  1  0
 26 61  1  0
 26 62  1  0
 27 63  1  0
 27 64  1  0
 28 65  1  0
 28 66  1  0
 29 67  1  0
 29 68  1  0
M  END
>  <smiles>  (8) 
CCN(CC)CCOCCCCNCCc1c2c(nc3ccccc13)CCCC2

>  <score_type>  (8) 
oracle

>  <origin>  (8) 
adg

>  <m_score__min__energy>  (8) 
-9.7699999999999996

>  <m_primary>  (8) 
energy

$$$$
9:0
     RDKit          3D

 61 64  0  0  0  0  0  0  0  0999 V2000
   -5.7300   25.5510  -30.0660 C   0  0  0  0  0  0  0  0  0  0  0  0
   -4.6010   24.5610  -30.2600 C   0  0  0  0  0  0  0  0  0  0  0  0
   -3.8650   24.3470  -29.0310 N   0  0  0  0  0  0  0  0  0  0  0  0
   -2.4640   24.4190  -29.2940 C   0  0  0  0  0  0  0  0  0  0  0  0
   -4.2640   23.1350  -28.3600 C   0  0  0  0  0  0  0  0  0  0  0  0
   -3.3710   22.0080  -28.7530 C   0  0  0  0  0  0  0  0  0  0  0  0
   -3.8170   21.2380  -29.8100 O   0  0  0  0  0  0  0  0  0  0  0  0
   -2.8260   20.5990  -30.5080 C   0  0  0  0  0  0  0  0  0  0  0  0
   -2.4600   21.1980  -31.8210 C   0  0  0  0  0  0  0  0  0  0  0  0
   -3.3570   22.2900  -32.2810 C   0  0  0  0  0  0  0  0  0  0  0  0
   -4.3160   21.8970  -33.2710 N   0  0  0  0  0  0  0  0  0  0  0  0
   -5.3760   20.9910  -32.9970 C   0  0  0  0  0  0  0  0  0  0  0  0
   -5.2820   19.6270  -33.2840 C   0  0  0  0  0  0  0  0  0  0  0  0
   -6.3180   18.7680  -33.0140 C   0  0  0  0  0  0  0  0  0  0  0  0
   -7.4920   19.2020  -32.4520 N   0  0  0  0  0  0  0  0  0  0  0  0
   -8.5470   18.2580  -32.1890 C   0  0  0  0  0  0  0  0  0  0  0  0
   -7.5670   20.5160  -32.1810 C   0  0  0  0  0  0  0  0  0  0  0  0
   -8.7160   21.0570  -31.6110 C   0  0  0  0  0  0  0  0  0  0  0  0
   -8.8190   22.4100  -31.3230 C   0  0  0  0  0  0  0  0  0  0  0  0
   -7.7930   23.2660  -31.5890 C   0  0  0  0  0  0  0  0  0  0  0  0
   -6.6500   22.7650  -32.1510 C   0  0  0  0  0  0  0  0  0  0  0  0
   -6.5520   21.4160  -32.4360 C   0  0  0  0  0  0  0  0  0  0  0  0
   -5.8550   17.4400  -33.4450 C   0  0  0  0  0  0  0  0  0  0  0  0
   -6.4230   16.1840  -33.4380 C   0  0  0  0  0  0  0  0  0  0  0  0
   -5.7500   15.0630  -33.9160 C   0  0  0  0  0  0  0  0  0  0  0  0
   -4.4600   15.1730  -34.4270 C   0  0  0  0  0  0  0  0  0  0  0  0
   -3.8860   16.4270  -34.4360 C   0  0  0  0  0  0  0  0  0  0  0  0
   -4.5760   17.5260  -33.9550 C   0  0  0  0  0  0  0  0  0  0  0  0
   -4.1250   18.9320  -33.8860 C   0  0  0  0  0  0  0  0  0  0  0  0
   -5.9035   25.7031  -28.9905 H   0  0  0  0  0  0  0  0  0  0  0  0
   -5.4612   26.5099  -30.5333 H   0  0  0  0  0  0  0  0  0  0  0  0
   -6.6455   25.1593  -30.5333 H   0  0  0  0  0  0  0  0  0  0  0  0
   -5.0209   23.6017  -30.5968 H   0  0  0  0  0  0  0  0  0  0  0  0
   -3.9083   24.9704  -31.0100 H   0  0  0  0  0  0  0  0  0  0  0  0
   -1.9132   24.4473  -28.3422 H   0  0  0  0  0  0  0  0  0  0  0  0
   -2.1534   23.5356  -29.8712 H   0  0  0  0  0  0  0  0  0  0  0  0
   -2.2456   25.3296  -29.8712 H   0  0  0  0  0  0  0  0  0  0  0  0
   -4.2015   23.2851  -27.2721 H   0  0  0  0  0  0  0  0  0  0  0  0
   -5.2970   22.8901  -28.6479 H   0  0  0  0  0  0  0  0  0  0  0  0
   -2.3937   22.4303  -29.0297 H   0  0  0  0  0  0  0  0  0  0  0  0
   -3.3324   21.3352  -27.8836 H   0  0  0  0  0  0  0  0  0  0  0  0
   -1.9236   20.5905  -29.8791 H   0  0  0  0  0  0  0  0  0  0  0  0
   -3.2240   19.5999  -30.7393 H   0  0  0  0  0  0  0  0  0  0  0  0
   -1.4410   21.6041  -31.7394 H   0  0  0  0  0  0  0  0  0  0  0  0
   -2.5485   20.3917  -32.5640 H   0  0  0  0  0  0  0  0  0  0  0  0
   -3.9036   22.6758  -31.4079 H   0  0  0  0  0  0  0  0  0  0  0  0
   -2.7119   23.0450  -32.7541 H   0  0  0  0  0  0  0  0  0  0  0  0
   -4.2300   22.2960  -34.2370 H   0  0  0  0  0  0  0  0  0  0  0  0
   -8.6745   18.1439  -31.1024 H   0  0  0  0  0  0  0  0  0  0  0  0
   -9.4851   18.6238  -32.6318 H   0  0  0  0  0  0  0  0  0  0  0  0
   -8.2873   17.2851  -32.6318 H   0  0  0  0  0  0  0  0  0  0  0  0
   -9.5641   20.3945  -31.3831 H   0  0  0  0  0  0  0  0  0  0  0  0
   -9.7443   22.7982  -30.8724 H   0  0  0  0  0  0  0  0  0  0  0  0
   -7.8814   24.3376  -31.3569 H   0  0  0  0  0  0  0  0  0  0  0  0
   -5.8084   23.4366  -32.3761 H   0  0  0  0  0  0  0  0  0  0  0  0
   -7.4420   16.0635  -33.0415 H   0  0  0  0  0  0  0  0  0  0  0  0
   -6.2429   14.0800  -33.8896 H   0  0  0  0  0  0  0  0  0  0  0  0
   -3.9195   14.2942  -34.8087 H   0  0  0  0  0  0  0  0  0  0  0  0
   -2.8672   16.5552  -34.8304 H   0  0  0  0  0  0  0  0  0  0  0  0
   -3.2320   19.0294  -33.2511 H   0  0  0  0  0  0  0  0  0  0  0  0
   -3.8366   19.3417  -34.8653 H   0  0  0  0  0  0  0  0  0  0  0  0
  1  2  1  0
  2  3  1  0
  3  4  1  0
  3  5  1  0
  5  6  1  0
  6  7  1  0
  7  8  1  0
  8  9  1  0
  9 10  1  0
 10 11  1  0
 11 12  1  0
 12 13  2  0
 13 14  1  0
 14 15  2  0
 15 16  1  0
 15 17  1  0
 17 18  2  0
 18 19  1  0
 19 20  2  0
 20 21  1  0
 21 22  2  0
 14 23  1  0
 23 24  2  0
 24 25  1  0
 25 26  2  0
 26 27  1  0
 27 28  2  0
 28 29  1  0
 22 12  1  0
 28 23  1  0
 29 13  1  0
 22 17  1  0
  1 30  1  0
  1 31  1  0
  1 32  1  0
  2 33  1  0
  2 34  1  0
  4 35  1  0
  4 36  1  0
  4 37  1  0
  5 38  1  0
  5 39  1  0
  6 40  1  0
  6 41  1  0
  8 42  1  0
  8 43  1  0
  9 44  1  0
  9 45  1  0
 10 46  1  0
 10 47  1  0
 11 48  1  0
 16 49  1  0
 16 50  1  0
 16 51  1  0
 18 52  1  0
 19 53  1  0
 20 54  1  0
 21 55  1  0
 24 56  1  0
 25 57  1  0
 26 58  1  0
 27 59  1  0
 29 60  1  0
 29 61  1  0
M  CHG  1  15   1
M  END
>  <smiles>  (9) 
CCN(C)CCOCCCNc1c2c([n+](C)c3ccccc13)-c1ccccc1C2

>  <score_type>  (9) 
oracle

>  <origin>  (9) 
adg

>  <m_score__min__energy>  (9) 
-9.1500000000000004

>  <m_primary>  (9) 
energy

$$$$
10:0
     RDKit          3D

 52 54  0  0  0  0  0  0  0  0999 V2000
   -5.7570   25.3910  -30.0880 C   0  0  0  0  0  0  0  0  0  0  0  0
   -4.7000   24.6100  -29.3910 C   0  0  0  0  0  0  0  0  0  0  0  0
   -3.4230   24.6330  -30.0670 N   0  0  0  0  0  0  0  0  0  0  0  0
   -2.3090   24.4410  -29.2020 C   0  0  0  0  0  0  0  0  0  0  0  0
   -1.4990   23.2620  -29.7080 C   0  0  0  0  0  0  0  0  0  0  0  0
   -2.0950   22.6950  -30.8210 O   0  0  0  0  0  0  0  0  0  0  0  0
   -3.1810   21.9590  -30.5210 N   0  0  0  0  0  0  0  0  0  0  0  0
   -3.3950   20.8460  -31.4220 C   0  0  0  0  0  0  0  0  0  0  0  0
   -3.2030   21.3900  -32.8410 C   0  0  0  0  0  0  0  0  0  0  0  0
   -4.4740   21.4200  -33.5400 N   0  0  0  0  0  0  0  0  0  0  0  0
   -5.6070   20.6770  -33.1690 C   0  0  0  0  0  0  0  0  0  0  0  0
   -6.6930   21.2900  -32.5840 C   0  0  0  0  0  0  0  0  0  0  0  0
   -6.6000   22.6560  -32.3870 C   0  0  0  0  0  0  0  0  0  0  0  0
   -7.6380   23.3500  -31.8120 C   0  0  0  0  0  0  0  0  0  0  0  0
   -8.7600   22.6470  -31.4440 C   0  0  0  0  0  0  0  0  0  0  0  0
   -8.8440   21.2820  -31.6450 C   0  0  0  0  0  0  0  0  0  0  0  0
   -7.8040   20.5530  -32.2270 C   0  0  0  0  0  0  0  0  0  0  0  0
   -7.8950   19.2180  -32.4230 N   0  0  0  0  0  0  0  0  0  0  0  0
   -9.0840   18.5350  -32.0040 C   0  0  0  0  0  0  0  0  0  0  0  0
   -6.8320   18.6260  -32.9960 C   0  0  0  0  0  0  0  0  0  0  0  0
   -6.8500   17.2830  -33.2340 C   0  0  0  0  0  0  0  0  0  0  0  0
   -5.7550   16.6600  -33.8330 C   0  0  0  0  0  0  0  0  0  0  0  0
   -5.7600   14.9260  -34.1500 Cl  0  0  0  0  0  0  0  0  0  0  0  0
   -4.6230   17.3510  -34.2060 C   0  0  0  0  0  0  0  0  0  0  0  0
   -4.6060   18.7070  -33.9650 C   0  0  0  0  0  0  0  0  0  0  0  0
   -5.6920   19.3180  -33.3740 C   0  0  0  0  0  0  0  0  0  0  0  0
   -6.4083   25.8723  -29.3436 H   0  0  0  0  0  0  0  0  0  0  0  0
   -5.2884   26.1615  -30.7179 H   0  0  0  0  0  0  0  0  0  0  0  0
   -6.3559   24.7168  -30.7179 H   0  0  0  0  0  0  0  0  0  0  0  0
   -4.5670   25.0279  -28.3822 H   0  0  0  0  0  0  0  0  0  0  0  0
   -5.0346   23.5623  -29.3691 H   0  0  0  0  0  0  0  0  0  0  0  0
   -3.3750   24.1240  -30.9510 H   0  0  0  0  0  0  0  0  0  0  0  0
   -1.6832   25.3457  -29.1977 H   0  0  0  0  0  0  0  0  0  0  0  0
   -2.6588   24.2440  -28.1779 H   0  0  0  0  0  0  0  0  0  0  0  0
   -0.4896   23.6071  -29.9764 H   0  0  0  0  0  0  0  0  0  0  0  0
   -1.4468   22.5040  -28.9126 H   0  0  0  0  0  0  0  0  0  0  0  0
   -4.0120   22.5990  -30.6760 H   0  0  0  0  0  0  0  0  0  0  0  0
   -2.6657   20.0478  -31.2194 H   0  0  0  0  0  0  0  0  0  0  0  0
   -4.4003   20.4184  -31.2932 H   0  0  0  0  0  0  0  0  0  0  0  0
   -2.7932   22.4094  -32.7874 H   0  0  0  0  0  0  0  0  0  0  0  0
   -2.5076   20.7351  -33.3865 H   0  0  0  0  0  0  0  0  0  0  0  0
   -4.5620   22.0450  -34.3940 H   0  0  0  0  0  0  0  0  0  0  0  0
   -5.6887   23.1909  -32.6927 H   0  0  0  0  0  0  0  0  0  0  0  0
   -7.5724   24.4362  -31.6512 H   0  0  0  0  0  0  0  0  0  0  0  0
   -9.6047   23.1790  -30.9821 H   0  0  0  0  0  0  0  0  0  0  0  0
   -9.7582   20.7533  -31.3371 H   0  0  0  0  0  0  0  0  0  0  0  0
   -9.1253   18.5113  -30.9050 H   0  0  0  0  0  0  0  0  0  0  0  0
   -9.9668   19.0637  -32.3928 H   0  0  0  0  0  0  0  0  0  0  0  0
   -9.0721   17.5061  -32.3928 H   0  0  0  0  0  0  0  0  0  0  0  0
   -7.7318   16.6887  -32.9524 H   0  0  0  0  0  0  0  0  0  0  0  0
   -3.7691   16.8415  -34.6763 H   0  0  0  0  0  0  0  0  0  0  0  0
   -3.7250   19.3035  -34.2443 H   0  0  0  0  0  0  0  0  0  0  0  0
  1  2  1  0
  2  3  1  0
  3  4  1  0
  4  5  1  0
  5  6  1  0
  6  7  1  0
  7  8  1  0
  8  9  1  0
  9 10  1  0
 10 11  1  0
 11 12  2  0
 12 13  1  0
 13 14  2  0
 14 15  1  0
 15 16  2  0
 16 17  1  0
 17 18  2  0
 18 19  1  0
 18 20  1  0
 20 21  2  0
 21 22  1  0
 22 23  1  0
 22 24  2  0
 24 25  1  0
 25 26  2  0
 26 11  1  0
 17 12  1  0
 26 20  1  0
  1 27  1  0
  1 28  1  0
  1 29  1  0
  2 30  1  0
  2 31  1  0
  3 32  1  0
  4 33  1  0
  4 34  1  0
  5 35  1  0
  5 36  1  0
  7 37  1  0
  8 38  1  0
  8 39  1  0
  9 40  1  0
  9 41  1  0
 10 42  1  0
 13 43  1  0
 14 44  1  0
 15 45  1  0
 16 46  1  0
 19 47  1  0
 19 48  1  0
 19 49  1  0
 21 50  1  0
 24 51  1  0
 25 52  1  0
M  CHG  1  18   1
M  END
>  <smiles>  (10) 
CCNCCONCCNc1c2ccccc2[n+](C)c2cc(Cl)ccc12

>  <score_type>  (10) 
oracle

>  <origin>  (10) 
adg

>  <m_score__min__energy>  (10) 
-9.6199999999999992

>  <m_primary>  (10) 
energy

$$$$
11:0
     RDKit          3D

 36 37  0  0  1  0  0  0  0  0999 V2000
   -6.1450   25.3540  -29.9710 C   0  0  0  0  0  0  0  0  0  0  0  0
   -4.8690   24.6270  -29.6620 C   0  0  0  0  0  0  0  0  0  0  0  0
   -4.2150   24.2320  -30.8700 O   0  0  0  0  0  0  0  0  0  0  0  0
   -4.5540   23.0420  -31.4630 C   0  0  0  0  0  0  0  0  0  0  0  0
   -3.5440   22.3010  -32.0650 C   0  0  0  0  0  0  0  0  0  0  0  0
   -3.8930   21.1070  -32.6600 C   0  0  0  0  0  0  0  0  0  0  0  0
   -2.8350   20.2800  -33.3170 C   0  0  0  0  0  0  0  0  0  0  0  0
   -5.1810   20.6920  -32.6450 N   0  0  0  0  0  0  0  0  0  0  0  0
   -6.1630   21.4100  -32.0610 C   0  0  0  0  0  0  0  0  0  0  0  0
   -7.5060   20.9240  -32.0760 N   0  0  0  0  0  0  0  0  0  0  0  0
   -8.6140   21.7090  -31.5620 C   0  0  0  0  0  0  0  0  0  0  0  0
   -9.8690   21.0430  -32.0040 C   0  0  0  0  0  0  0  0  0  0  0  0
   -9.4520   19.7660  -32.6540 C   0  0  0  0  0  0  0  0  0  0  0  0
   -7.9640   19.6600  -32.5690 C   0  0  2  0  0  0  0  0  0  0  0  0
   -7.5670   18.5180  -31.6400 C   0  0  0  0  0  0  0  0  0  0  0  0
   -6.2180   18.2210  -31.7930 O   0  0  0  0  0  0  0  0  0  0  0  0
   -5.8120   22.5730  -31.4840 N   0  0  0  0  0  0  0  0  0  0  0  0
   -6.6423   25.6373  -29.0316 H   0  0  0  0  0  0  0  0  0  0  0  0
   -5.9194   26.2591  -30.5539 H   0  0  0  0  0  0  0  0  0  0  0  0
   -6.8086   24.6984  -30.5539 H   0  0  0  0  0  0  0  0  0  0  0  0
   -4.2035   25.2902  -29.0898 H   0  0  0  0  0  0  0  0  0  0  0  0
   -5.1043   23.7280  -29.0735 H   0  0  0  0  0  0  0  0  0  0  0  0
   -2.5024   22.6547  -32.0668 H   0  0  0  0  0  0  0  0  0  0  0  0
   -2.2164   19.7965  -32.5466 H   0  0  0  0  0  0  0  0  0  0  0  0
   -3.3082   19.5099  -33.9439 H   0  0  0  0  0  0  0  0  0  0  0  0
   -2.2019   20.9251  -33.9439 H   0  0  0  0  0  0  0  0  0  0  0  0
   -8.5730   21.7441  -30.4633 H   0  0  0  0  0  0  0  0  0  0  0  0
   -8.5675   22.7419  -31.9376 H   0  0  0  0  0  0  0  0  0  0  0  0
  -10.5173   20.8376  -31.1394 H   0  0  0  0  0  0  0  0  0  0  0  0
  -10.4396   21.6792  -32.6965 H   0  0  0  0  0  0  0  0  0  0  0  0
   -9.9158   18.9151  -32.1336 H   0  0  0  0  0  0  0  0  0  0  0  0
   -9.7732   19.7538  -33.7060 H   0  0  0  0  0  0  0  0  0  0  0  0
   -7.5110   19.4369  -33.5463 H   0  0  0  0  0  0  0  0  0  0  0  0
   -7.7578   18.8143  -30.5980 H   0  0  0  0  0  0  0  0  0  0  0  0
   -8.1612   17.6273  -31.8923 H   0  0  0  0  0  0  0  0  0  0  0  0
   -5.7890   18.9870  -32.2530 H   0  0  0  0  0  0  0  0  0  0  0  0
  1  2  1  0
  2  3  1  0
  3  4  1  0
  4  5  2  0
  5  6  1  0
  6  7  1  0
  6  8  2  0
  8  9  1  0
  9 10  1  0
 10 11  1  0
 11 12  1  0
 12 13  1  0
 13 14  1  0
 14 15  1  0
 15 16  1  0
  9 17  2  0
 17  4  1  0
 14 10  1  0
  1 18  1  0
  1 19  1  0
  1 20  1  0
  2 21  1  0
  2 22  1  0
  5 23  1  0
  7 24  1  0
  7 25  1  0
  7 26  1  0
 11 27  1  0
 11 28  1  0
 12 29  1  0
 12 30  1  0
 13 31  1  0
 13 32  1  0
 14 33  1  6
 15 34  1  0
 15 35  1  0
 16 36  1  0
M  END
>  <smiles>  (11) 
CCOc1cc(C)nc(N2CCCC2CO)n1

>  <score_type>  (11) 
oracle

>  <origin>  (11) 
adg

>  <m_score__min__energy>  (11) 
-6.5599999999999996

>  <m_primary>  (11) 
energy

$$$$
12:0
     RDKit          3D

 59 60  0  0  1  0  0  0  0  0999 V2000
   -7.2930   18.1840  -31.8660 C   0  0  0  0  0  0  0  0  0  0  0  0
   -7.1330   19.1120  -33.0900 C   0  0  0  0  0  0  0  0  0  0  0  0
   -8.1490   20.0340  -33.1030 O   0  0  0  0  0  0  0  0  0  0  0  0
   -8.7020   20.3110  -31.8840 C   0  0  0  0  0  0  0  0  0  0  0  0
   -9.0600   21.7700  -31.7800 C   0  0  0  0  0  0  0  0  0  0  0  0
   -7.8250   22.6100  -32.0440 C   0  0  0  0  0  0  0  0  0  0  0  0
   -6.6650   22.1560  -31.1620 C   0  0  0  0  0  0  0  0  0  0  0  0
   -5.3470   22.7080  -31.6230 C   0  0  0  0  0  0  0  0  0  0  0  0
   -5.3700   23.9770  -31.8340 N   0  0  0  0  0  0  0  0  0  0  0  0
   -4.8450   24.9670  -31.1490 O   0  0  0  0  0  0  0  0  0  0  0  0
   -5.4410   25.7020  -30.1010 C   0  0  0  0  0  0  0  0  0  0  0  0
   -6.7650   25.0470  -29.7790 C   0  0  0  0  0  0  0  0  0  0  0  0
   -4.1500   21.9430  -31.7910 C   0  0  0  0  0  0  0  0  0  0  0  0
   -4.1350   20.7490  -32.4800 C   0  0  0  0  0  0  0  0  0  0  0  0
   -3.0090   19.9460  -32.6080 C   0  0  0  0  0  0  0  0  0  0  0  0
   -3.0520   18.4390  -33.4970 Cl  0  0  0  0  0  0  0  0  0  0  0  0
   -1.8190   20.3140  -32.0390 C   0  0  0  0  0  0  0  0  0  0  0  0
   -1.8060   21.5020  -31.3450 C   0  0  0  0  0  0  0  0  0  0  0  0
   -2.9160   22.3030  -31.2130 C   0  0  0  0  0  0  0  0  0  0  0  0
   -2.7450   23.5180  -30.4950 N   0  0  0  0  0  0  0  0  0  0  0  0
   -1.7980   23.7910  -29.1380 S   0  0  0  0  0  0  0  0  0  0  0  0
   -2.6400   24.0440  -27.8920 O   0  0  0  0  0  0  0  0  0  0  0  0
   -1.0600   25.1270  -29.3300 O   0  0  0  0  0  0  0  0  0  0  0  0
   -0.5720   22.6220  -28.7060 C   0  0  0  0  0  0  0  0  0  0  0  0
   -1.0670   21.3630  -28.1230 C   0  0  0  0  0  0  0  0  0  0  0  0
   -0.3610   20.3020  -27.6700 C   0  0  0  0  0  0  0  0  0  0  0  0
   -0.9840   19.1770  -27.1140 C   0  0  0  0  0  0  0  0  0  0  0  0
   -2.3540   19.0930  -26.9990 C   0  0  0  0  0  0  0  0  0  0  0  0
   -3.0820   20.1700  -27.4600 C   0  0  0  0  0  0  0  0  0  0  0  0
   -2.4690   21.2720  -28.0050 C   0  0  0  0  0  0  0  0  0  0  0  0
   -7.1913   18.7737  -30.9430 H   0  0  0  0  0  0  0  0  0  0  0  0
   -8.2859   17.7113  -31.8916 H   0  0  0  0  0  0  0  0  0  0  0  0
   -6.5157   17.4061  -31.8916 H   0  0  0  0  0  0  0  0  0  0  0  0
   -6.1661   19.6332  -33.0307 H   0  0  0  0  0  0  0  0  0  0  0  0
   -7.1714   18.5123  -34.0113 H   0  0  0  0  0  0  0  0  0  0  0  0
   -9.6116   19.7061  -31.7545 H   0  0  0  0  0  0  0  0  0  0  0  0
   -7.9683   20.0706  -31.1004 H   0  0  0  0  0  0  0  0  0  0  0  0
   -9.8345   22.0120  -32.5227 H   0  0  0  0  0  0  0  0  0  0  0  0
   -9.4422   21.9843  -30.7711 H   0  0  0  0  0  0  0  0  0  0  0  0
   -7.5371   22.5067  -33.1006 H   0  0  0  0  0  0  0  0  0  0  0  0
   -8.0555   23.6603  -31.8121 H   0  0  0  0  0  0  0  0  0  0  0  0
   -6.8498   22.4958  -30.1323 H   0  0  0  0  0  0  0  0  0  0  0  0
   -6.6084   21.0590  -31.2197 H   0  0  0  0  0  0  0  0  0  0  0  0
   -4.7897   25.6870  -29.2147 H   0  0  0  0  0  0  0  0  0  0  0  0
   -5.5910   26.7498  -30.4005 H   0  0  0  0  0  0  0  0  0  0  0  0
   -6.8881   24.9861  -28.6876 H   0  0  0  0  0  0  0  0  0  0  0  0
   -7.5834   25.6442  -30.2076 H   0  0  0  0  0  0  0  0  0  0  0  0
   -6.7868   24.0342  -30.2076 H   0  0  0  0  0  0  0  0  0  0  0  0
   -5.0682   20.4130  -32.9556 H   0  0  0  0  0  0  0  0  0  0  0  0
   -0.9177   19.6904  -32.1322 H   0  0  0  0  0  0  0  0  0  0  0  0
   -0.8657   21.8255  -30.8747 H   0  0  0  0  0  0  0  0  0  0  0  0
   -3.2560   24.3510  -30.9250 H   0  0  0  0  0  0  0  0  0  0  0  0
   -0.0063   22.3736  -29.6161 H   0  0  0  0  0  0  0  0  0  0  0  0
    0.0332   23.0985  -27.9207 H   0  0  0  0  0  0  0  0  0  0  0  0
    0.7365   20.3230  -27.7403 H   0  0  0  0  0  0  0  0  0  0  0  0
   -0.3637   18.3401  -26.7606 H   0  0  0  0  0  0  0  0  0  0  0  0
   -2.8434   18.2105  -26.5611 H   0  0  0  0  0  0  0  0  0  0  0  0
   -4.1795   20.1460  -27.3896 H   0  0  0  0  0  0  0  0  0  0  0  0
   -3.0901   22.1077  -28.3597 H   0  0  0  0  0  0  0  0  0  0  0  0
  1  2  1  0
  2  3  1  0
  3  4  1  0
  4  5  1  0
  5  6  1  0
  6  7  1  0
  7  8  1  0
  8  9  2  0
  9 10  1  0
 10 11  1  0
 11 12  1  0
  8 13  1  0
 13 14  2  0
 14 15  1  0
 15 16  1  0
 15 17  2  0
 17 18  1  0
 18 19  2  0
 19 20  1  0
 20 21  1  0
 21 22  2  0
 21 23  2  0
 21 24  1  0
 24 25  1  0
 25 26  2  0
 26 27  1  0
 27 28  2  0
 28 29  1  0
 29 30  2  0
 19 13  1  0
 30 25  1  0
  1 31  1  0
  1 32  1  0
  1 33  1  0
  2 34  1  0
  2 35  1  0
  4 36  1  0
  4 37  1  0
  5 38  1  0
  5 39  1  0
  6 40  1  0
  6 41  1  0
  7 42  1  0
  7 43  1  0
 11 44  1  0
 11 45  1  0
 12 46  1  0
 12 47  1  0
 12 48  1  0
 14 49  1  0
 17 50  1  0
 18 51  1  0
 20 52  1  0
 24 53  1  0
 24 54  1  0
 26 55  1  0
 27 56  1  0
 28 57  1  0
 29 58  1  0
 30 59  1  0
M  END
>  <smiles>  (12) 
CCOCCCCC(=NOCC)c1cc(Cl)ccc1NS(=O)(=O)Cc1ccccc1

>  <score_type>  (12) 
oracle

>  <origin>  (12) 
adg

>  <m_score__min__energy>  (12) 
-9.7699999999999996

>  <m_primary>  (12) 
energy

$$$$
13:0
     RDKit          3D

 79 82  0  0  0  0  0  0  0  0999 V2000
   -0.0950   20.4240  -35.0490 C   0  0  0  0  0  0  0  0  0  0  0  0
   -0.8290   21.1990  -33.9650 C   0  0  0  0  0  0  0  0  0  0  0  0
   -0.7530   20.5250  -32.7060 N   0  0  0  0  0  0  0  0  0  0  0  0
   -1.3080   21.2520  -31.5960 C   0  0  0  0  0  0  0  0  0  0  0  0
   -2.3570   20.4530  -30.8680 C   0  0  0  0  0  0  0  0  0  0  0  0
   -3.6920   21.1310  -31.1180 C   0  0  0  0  0  0  0  0  0  0  0  0
   -3.5360   22.1860  -32.1880 C   0  0  0  0  0  0  0  0  0  0  0  0
   -4.4100   21.8310  -33.3190 N   0  0  0  0  0  0  0  0  0  0  0  0
   -5.4350   20.9130  -33.0340 C   0  0  0  0  0  0  0  0  0  0  0  0
   -5.1080   19.5680  -33.2950 C   0  0  0  0  0  0  0  0  0  0  0  0
   -3.8720   19.2650  -33.8340 C   0  0  0  0  0  0  0  0  0  0  0  0
   -3.4590   17.9800  -34.1200 C   0  0  0  0  0  0  0  0  0  0  0  0
   -4.3410   16.9650  -33.8470 C   0  0  0  0  0  0  0  0  0  0  0  0
   -5.5950   17.2520  -33.3020 C   0  0  0  0  0  0  0  0  0  0  0  0
   -5.9840   18.5460  -33.0240 C   0  0  0  0  0  0  0  0  0  0  0  0
   -7.1870   18.8140  -32.5000 N   0  0  0  0  0  0  0  0  0  0  0  0
   -8.1550   17.8060  -32.2010 C   0  0  0  0  0  0  0  0  0  0  0  0
   -7.5300   20.1020  -32.2390 C   0  0  0  0  0  0  0  0  0  0  0  0
   -8.7670   20.3330  -31.6800 C   0  0  0  0  0  0  0  0  0  0  0  0
   -9.1380   21.6220  -31.3880 C   0  0  0  0  0  0  0  0  0  0  0  0
   -8.2700   22.6550  -31.6610 C   0  0  0  0  0  0  0  0  0  0  0  0
   -7.0140   22.4720  -32.2240 C   0  0  0  0  0  0  0  0  0  0  0  0
   -6.2570   23.6100  -32.5080 N   0  0  0  0  0  0  0  0  0  0  0  0
   -5.7490   24.4960  -31.4270 C   0  0  0  0  0  0  0  0  0  0  0  0
   -5.7990   23.8620  -30.0910 C   0  0  0  0  0  0  0  0  0  0  0  0
   -5.0500   24.5640  -29.0490 C   0  0  0  0  0  0  0  0  0  0  0  0
   -3.9650   24.0510  -28.3380 N   0  0  0  0  0  0  0  0  0  0  0  0
   -3.6060   24.5440  -27.0630 C   0  0  0  0  0  0  0  0  0  0  0  0
   -2.7610   24.1070  -29.2030 C   0  0  0  0  0  0  0  0  0  0  0  0
   -1.5500   23.5410  -28.5670 C   0  0  0  0  0  0  0  0  0  0  0  0
   -1.7150   22.1590  -28.0090 C   0  0  0  0  0  0  0  0  0  0  0  0
   -3.1140   21.8480  -27.5720 C   0  0  0  0  0  0  0  0  0  0  0  0
   -4.1810   22.5700  -28.2800 C   0  0  0  0  0  0  0  0  0  0  0  0
   -6.6620   21.1690  -32.5030 C   0  0  0  0  0  0  0  0  0  0  0  0
    0.5900   19.7007  -34.5826 H   0  0  0  0  0  0  0  0  0  0  0  0
   -0.8243   19.8879  -35.6741 H   0  0  0  0  0  0  0  0  0  0  0  0
    0.4799   21.1231  -35.6741 H   0  0  0  0  0  0  0  0  0  0  0  0
   -0.3745   22.1958  -33.8664 H   0  0  0  0  0  0  0  0  0  0  0  0
   -1.8876   21.2821  -34.2523 H   0  0  0  0  0  0  0  0  0  0  0  0
    0.1880   20.2000  -32.4660 H   0  0  0  0  0  0  0  0  0  0  0  0
   -0.4989   21.5000  -30.8933 H   0  0  0  0  0  0  0  0  0  0  0  0
   -1.7851   22.1618  -31.9893 H   0  0  0  0  0  0  0  0  0  0  0  0
   -2.3799   19.4226  -31.2523 H   0  0  0  0  0  0  0  0  0  0  0  0
   -2.1369   20.4095  -29.7911 H   0  0  0  0  0  0  0  0  0  0  0  0
   -4.4264   20.3815  -31.4481 H   0  0  0  0  0  0  0  0  0  0  0  0
   -4.0393   21.6046  -30.1879 H   0  0  0  0  0  0  0  0  0  0  0  0
   -3.8271   23.1681  -31.7871 H   0  0  0  0  0  0  0  0  0  0  0  0
   -2.4886   22.2367  -32.5201 H   0  0  0  0  0  0  0  0  0  0  0  0
   -4.2290   22.2290  -34.2900 H   0  0  0  0  0  0  0  0  0  0  0  0
   -3.1800   20.0932  -34.0465 H   0  0  0  0  0  0  0  0  0  0  0  0
   -2.4661   17.7781  -34.5481 H   0  0  0  0  0  0  0  0  0  0  0  0
   -4.0600   15.9226  -34.0578 H   0  0  0  0  0  0  0  0  0  0  0  0
   -6.2893   16.4257  -33.0893 H   0  0  0  0  0  0  0  0  0  0  0  0
   -8.2531   17.7039  -31.1101 H   0  0  0  0  0  0  0  0  0  0  0  0
   -9.1263   18.0912  -32.6314 H   0  0  0  0  0  0  0  0  0  0  0  0
   -7.8307   16.8470  -32.6314 H   0  0  0  0  0  0  0  0  0  0  0  0
   -9.4489   19.4957  -31.4702 H   0  0  0  0  0  0  0  0  0  0  0  0
  -10.1211   21.8278  -30.9394 H   0  0  0  0  0  0  0  0  0  0  0  0
   -8.5884   23.6800  -31.4203 H   0  0  0  0  0  0  0  0  0  0  0  0
   -5.9930   24.0040  -33.4270 H   0  0  0  0  0  0  0  0  0  0  0  0
   -4.7050   24.7600  -31.6513 H   0  0  0  0  0  0  0  0  0  0  0  0
   -6.3982   25.3834  -31.3955 H   0  0  0  0  0  0  0  0  0  0  0  0
   -6.8520   23.8077  -29.7775 H   0  0  0  0  0  0  0  0  0  0  0  0
   -5.3262   22.8747  -30.1996 H   0  0  0  0  0  0  0  0  0  0  0  0
   -4.6743   25.4794  -29.5296 H   0  0  0  0  0  0  0  0  0  0  0  0
   -5.8073   24.5834  -28.2514 H   0  0  0  0  0  0  0  0  0  0  0  0
   -4.0636   23.9156  -26.2847 H   0  0  0  0  0  0  0  0  0  0  0  0
   -2.5115   24.5213  -26.9560 H   0  0  0  0  0  0  0  0  0  0  0  0
   -3.9635   25.5788  -26.9560 H   0  0  0  0  0  0  0  0  0  0  0  0
   -2.9672   23.5416  -30.1238 H   0  0  0  0  0  0  0  0  0  0  0  0
   -2.5552   25.1690  -29.4027 H   0  0  0  0  0  0  0  0  0  0  0  0
   -0.7503   23.5112  -29.3217 H   0  0  0  0  0  0  0  0  0  0  0  0
   -1.3186   24.1926  -27.7115 H   0  0  0  0  0  0  0  0  0  0  0  0
   -1.4244   21.4347  -28.7842 H   0  0  0  0  0  0  0  0  0  0  0  0
   -1.0777   22.0957  -27.1147 H   0  0  0  0  0  0  0  0  0  0  0  0
   -3.2814   20.7706  -27.7177 H   0  0  0  0  0  0  0  0  0  0  0  0
   -3.1785   22.1731  -26.5231 H   0  0  0  0  0  0  0  0  0  0  0  0
   -4.2373   22.1860  -29.3093 H   0  0  0  0  0  0  0  0  0  0  0  0
   -5.1123   22.4011  -27.7195 H   0  0  0  0  0  0  0  0  0  0  0  0
  1  2  1  0
  2  3  1  0
  3  4  1  0
  4  5  1  0
  5  6  1  0
  6  7  1  0
  7  8  1  0
  8  9  1  0
  9 10  2  0
 10 11  1  0
 11 12  2  0
 12 13  1  0
 13 14  2  0
 14 15  1  0
 15 16  2  0
 16 17  1  0
 16 18  1  0
 18 19  2  0
 19 20  1  0
 20 21  2  0
 21 22  1  0
 22 23  1  0
 23 24  1  0
 24 25  1  0
 25 26  1  0
 26 27  1  0
 27 28  1  0
 27 29  1  0
 29 30  1  0
 30 31  1  0
 31 32  1  0
 32 33  1  0
 22 34  2  0
 34  9  1  0
 15 10  1  0
 34 18  1  0
 33 27  1  0
  1 35  1  0
  1 36  1  0
  1 37  1  0
  2 38  1  0
  2 39  1  0
  3 40  1  0
  4 41  1  0
  4 42  1  0
  5 43  1  0
  5 44  1  0
  6 45  1  0
  6 46  1  0
  7 47  1  0
  7 48  1  0
  8 49  1  0
 11 50  1  0
 12 51  1  0
 13 52  1  0
 14 53  1  0
 17 54  1  0
 17 55  1  0
 17 56  1  0
 19 57  1  0
 20 58  1  0
 21 59  1  0
 23 60  1  0
 24 61  1  0
 24 62  1  0
 25 63  1  0
 25 64  1  0
 26 65  1  0
 26 66  1  0
 28 67  1  0
 28 68  1  0
 28 69  1  0
 29 70  1  0
 29 71  1  0
 30 72  1  0
 30 73  1  0
 31 74  1  0
 31 75  1  0
 32 76  1  0
 32 77  1  0
 33 78  1  0
 33 79  1  0
M  CHG  2  16   1  27   1
M  END
>  <smiles>  (13) 
CCNCCCCNc1c2ccccc2[n+](C)c2cccc(NCCC[N+]3(C)CCCCC3)c12

>  <score_type>  (13) 
oracle

>  <origin>  (13) 
adg

>  <m_score__min__energy>  (13) 
-10.289999999999999

>  <m_primary>  (13) 
energy

$$$$
14:0
     RDKit          3D

 53 55  0  0  0  0  0  0  0  0999 V2000
   -9.0480   19.8930  -32.2940 C   0  0  0  0  0  0  0  0  0  0  0  0
   -8.2000   21.0770  -31.9830 C   0  0  0  0  0  0  0  0  0  0  0  0
   -8.7840   22.3260  -31.9560 C   0  0  0  0  0  0  0  0  0  0  0  0
   -7.9830   23.4100  -31.6580 C   0  0  0  0  0  0  0  0  0  0  0  0
   -6.6420   23.2440  -31.3990 C   0  0  0  0  0  0  0  0  0  0  0  0
   -5.9010   24.3280  -31.1070 N   0  0  0  0  0  0  0  0  0  0  0  0
   -4.5700   24.2220  -30.8350 C   0  0  0  0  0  0  0  0  0  0  0  0
   -3.9870   25.3030  -30.5840 O   0  0  0  0  0  0  0  0  0  0  0  0
   -3.9060   23.0220  -30.8380 C   0  0  0  0  0  0  0  0  0  0  0  0
   -2.5150   22.7840  -30.5010 C   0  0  0  0  0  0  0  0  0  0  0  0
   -2.1640   22.9500  -29.0860 N   0  0  0  0  0  0  0  0  0  0  0  0
   -3.1390   22.4560  -28.2140 C   0  0  0  0  0  0  0  0  0  0  0  0
   -3.1160   21.0780  -27.7080 C   0  0  0  0  0  0  0  0  0  0  0  0
   -1.8540   20.3380  -27.7910 C   0  0  0  0  0  0  0  0  0  0  0  0
   -1.7470   19.3110  -26.7300 N   0  0  0  0  0  0  0  0  0  0  0  0
   -3.0360   18.9300  -26.2280 C   0  0  0  0  0  0  0  0  0  0  0  0
   -0.8900   18.2290  -27.0990 C   0  0  0  0  0  0  0  0  0  0  0  0
   -1.7570   24.3010  -28.8760 C   0  0  0  0  0  0  0  0  0  0  0  0
   -1.5090   24.5660  -27.4250 C   0  0  0  0  0  0  0  0  0  0  0  0
   -1.9660   25.5830  -26.6070 C   0  0  0  0  0  0  0  0  0  0  0  0
   -1.6100   25.6100  -25.3310 C   0  0  0  0  0  0  0  0  0  0  0  0
   -0.7930   24.6460  -24.8000 C   0  0  0  0  0  0  0  0  0  0  0  0
   -0.4810   23.5320  -26.3370 S   0  0  0  0  0  0  0  0  0  0  0  0
   -4.6920   21.9000  -31.1460 C   0  0  0  0  0  0  0  0  0  0  0  0
   -6.0380   22.0090  -31.4200 C   0  0  0  0  0  0  0  0  0  0  0  0
   -6.8360   20.9220  -31.7170 C   0  0  0  0  0  0  0  0  0  0  0  0
   -9.3829   19.4254  -31.3563 H   0  0  0  0  0  0  0  0  0  0  0  0
   -9.9239   20.2125  -32.8777 H   0  0  0  0  0  0  0  0  0  0  0  0
   -8.4636   19.1665  -32.8777 H   0  0  0  0  0  0  0  0  0  0  0  0
   -9.8561   22.4546  -32.1657 H   0  0  0  0  0  0  0  0  0  0  0  0
   -8.4219   24.4182  -31.6273 H   0  0  0  0  0  0  0  0  0  0  0  0
   -6.3720   25.2670  -31.0950 H   0  0  0  0  0  0  0  0  0  0  0  0
   -2.2692   21.7518  -30.7910 H   0  0  0  0  0  0  0  0  0  0  0  0
   -1.9407   23.5495  -31.0434 H   0  0  0  0  0  0  0  0  0  0  0  0
   -3.1158   23.1077  -27.3281 H   0  0  0  0  0  0  0  0  0  0  0  0
   -4.0329   22.4473  -28.8549 H   0  0  0  0  0  0  0  0  0  0  0  0
   -3.4057   21.1136  -26.6474 H   0  0  0  0  0  0  0  0  0  0  0  0
   -3.8015   20.5294  -28.3707 H   0  0  0  0  0  0  0  0  0  0  0  0
   -1.7951   19.8438  -28.7719 H   0  0  0  0  0  0  0  0  0  0  0  0
   -1.0292   21.0535  -27.6581 H   0  0  0  0  0  0  0  0  0  0  0  0
   -3.0174   18.9355  -25.1282 H   0  0  0  0  0  0  0  0  0  0  0  0
   -3.7940   19.6425  -26.5855 H   0  0  0  0  0  0  0  0  0  0  0  0
   -3.2848   17.9199  -26.5855 H   0  0  0  0  0  0  0  0  0  0  0  0
   -0.5038   17.7414  -26.1918 H   0  0  0  0  0  0  0  0  0  0  0  0
   -1.4573   17.4987  -27.6947 H   0  0  0  0  0  0  0  0  0  0  0  0
   -0.0492   18.6140  -27.6947 H   0  0  0  0  0  0  0  0  0  0  0  0
   -0.8314   24.4897  -29.4396 H   0  0  0  0  0  0  0  0  0  0  0  0
   -2.5610   24.9673  -29.2218 H   0  0  0  0  0  0  0  0  0  0  0  0
   -2.6224   26.3663  -27.0139 H   0  0  0  0  0  0  0  0  0  0  0  0
   -1.9771   26.4215  -24.6855 H   0  0  0  0  0  0  0  0  0  0  0  0
   -0.4170   24.5384  -23.7719 H   0  0  0  0  0  0  0  0  0  0  0  0
   -4.2202   20.9066  -31.1692 H   0  0  0  0  0  0  0  0  0  0  0  0
   -6.3909   19.9165  -31.7448 H   0  0  0  0  0  0  0  0  0  0  0  0
  1  2  1  0
  2  3  2  0
  3  4  1  0
  4  5  2  0
  5  6  1  0
  6  7  1  0
  7  8  2  0
  7  9  1  0
  9 10  1  0
 10 11  1  0
 11 12  1  0
 12 13  1  0
 13 14  1  0
 14 15  1  0
 15 16  1  0
 15 17  1  0
 11 18  1  0
 18 19  1  0
 19 20  2  0
 20 21  1  0
 21 22  2  0
 22 23  1  0
  9 24  2  0
 24 25  1  0
 25 26  2  0
 26  2  1  0
 25  5  1  0
 23 19  1  0
  1 27  1  0
  1 28  1  0
  1 29  1  0
  3 30  1  0
  4 31  1  0
  6 32  1  0
 10 33  1  0
 10 34  1  0
 12 35  1  0
 12 36  1  0
 13 37  1  0
 13 38  1  0
 14 39  1  0
 14 40  1  0
 16 41  1  0
 16 42  1  0
 16 43  1  0
 17 44  1  0
 17 45  1  0
 17 46  1  0
 18 47  1  0
 18 48  1  0
 20 49  1  0
 21 50  1  0
 22 51  1  0
 24 52  1  0
 26 53  1  0
M  END
>  <smiles>  (14) 
Cc1ccc2[nH]c(=O)c(CN(CCCN(C)C)Cc3cccs3)cc2c1

>  <score_type>  (14) 
oracle

>  <origin>  (14) 
adg

>  <m_score__min__energy>  (14) 
-8.8399999999999999

>  <m_primary>  (14) 
energy

$$$$
15:0
     RDKit          3D

 40 43  0  0  1  0  0  0  0  0999 V2000
   -4.3610   21.7110  -32.2180 C   0  0  0  0  0  0  0  0  0  0  0  0
   -4.5720   23.0330  -31.6790 N   0  0  0  0  0  0  0  0  0  0  0  0
   -3.7150   23.7860  -30.9960 N   0  0  0  0  0  0  0  0  0  0  0  0
   -4.2980   24.9200  -30.6880 N   0  0  0  0  0  0  0  0  0  0  0  0
   -5.5350   24.9380  -31.1540 N   0  0  0  0  0  0  0  0  0  0  0  0
   -5.7090   23.7410  -31.7840 C   0  0  0  0  0  0  0  0  0  0  0  0
   -7.2500   23.3130  -32.5800 S   0  0  0  0  0  0  0  0  0  0  0  0
   -8.0610   22.0660  -31.5490 C   0  0  0  0  0  0  0  0  0  0  0  0
   -9.1680   21.3380  -32.2660 C   0  0  0  0  0  0  0  0  0  0  0  0
   -8.6640   20.0710  -32.6530 N   0  0  0  0  0  0  0  0  0  0  0  0
   -8.8140   18.9950  -31.7440 C   0  0  0  0  0  0  0  0  0  0  0  0
   -7.4610   18.3460  -31.5450 C   0  0  2  0  0  0  0  0  0  0  0  0
   -6.2710   19.1740  -31.2170 C   0  0  0  0  0  0  0  0  0  0  0  0
   -6.6100   18.9190  -32.6550 C   0  0  1  0  0  0  0  0  0  0  0  0
   -5.8330   17.9780  -33.4460 C   0  0  0  0  0  0  0  0  0  0  0  0
   -4.7490   18.3800  -34.2020 C   0  0  0  0  0  0  0  0  0  0  0  0
   -3.9810   17.5260  -34.9520 C   0  0  0  0  0  0  0  0  0  0  0  0
   -4.2640   16.1980  -34.9830 C   0  0  0  0  0  0  0  0  0  0  0  0
   -3.5650   15.2750  -35.6920 F   0  0  0  0  0  0  0  0  0  0  0  0
   -5.3380   15.7480  -34.2420 C   0  0  0  0  0  0  0  0  0  0  0  0
   -6.1220   16.6190  -33.4780 C   0  0  0  0  0  0  0  0  0  0  0  0
   -7.3960   20.0350  -33.2930 C   0  0  0  0  0  0  0  0  0  0  0  0
   -4.2463   20.9926  -31.3929 H   0  0  0  0  0  0  0  0  0  0  0  0
   -5.2248   21.4248  -32.8360 H   0  0  0  0  0  0  0  0  0  0  0  0
   -3.4510   21.7079  -32.8360 H   0  0  0  0  0  0  0  0  0  0  0  0
   -7.3073   21.3310  -31.2300 H   0  0  0  0  0  0  0  0  0  0  0  0
   -8.5122   22.5897  -30.6933 H   0  0  0  0  0  0  0  0  0  0  0  0
  -10.0299   21.2102  -31.5946 H   0  0  0  0  0  0  0  0  0  0  0  0
   -9.5001   21.9081  -33.1462 H   0  0  0  0  0  0  0  0  0  0  0  0
   -9.1907   19.3715  -30.7815 H   0  0  0  0  0  0  0  0  0  0  0  0
   -9.5305   18.2612  -32.1416 H   0  0  0  0  0  0  0  0  0  0  0  0
   -7.7879   17.3964  -31.0962 H   0  0  0  0  0  0  0  0  0  0  0  0
   -6.4039   20.1803  -30.7931 H   0  0  0  0  0  0  0  0  0  0  0  0
   -5.3746   19.0274  -30.5965 H   0  0  0  0  0  0  0  0  0  0  0  0
   -4.4861   19.4481  -34.2026 H   0  0  0  0  0  0  0  0  0  0  0  0
   -3.1320   17.9185  -35.5310 H   0  0  0  0  0  0  0  0  0  0  0  0
   -5.5840   14.6759  -34.2525 H   0  0  0  0  0  0  0  0  0  0  0  0
   -6.9714   16.2263  -32.8998 H   0  0  0  0  0  0  0  0  0  0  0  0
   -6.8743   20.9930  -33.1513 H   0  0  0  0  0  0  0  0  0  0  0  0
   -7.5076   19.8672  -34.3744 H   0  0  0  0  0  0  0  0  0  0  0  0
  1  2  1  0
  2  3  1  0
  3  4  2  0
  4  5  1  0
  5  6  2  0
  6  7  1  0
  7  8  1  0
  8  9  1  0
  9 10  1  0
 10 11  1  0
 11 12  1  0
 12 13  1  0
 13 14  1  0
 14 15  1  6
 15 16  2  0
 16 17  1  0
 17 18  2  0
 18 19  1  0
 18 20  1  0
 20 21  2  0
 14 22  1  0
  6  2  1  0
 22 10  1  0
 14 12  1  0
 21 15  1  0
  1 23  1  0
  1 24  1  0
  1 25  1  0
  8 26  1  0
  8 27  1  0
  9 28  1  0
  9 29  1  0
 11 30  1  0
 11 31  1  0
 12 32  1  1
 13 33  1  0
 13 34  1  0
 16 35  1  0
 17 36  1  0
 20 37  1  0
 21 38  1  0
 22 39  1  0
 22 40  1  0
M  END
>  <smiles>  (15) 
Cn1nnnc1SCCN1CC2CC2(c2ccc(F)cc2)C1

>  <score_type>  (15) 
oracle

>  <origin>  (15) 
adg

>  <m_score__min__energy>  (15) 
-9.4800000000000004

>  <m_primary>  (15) 
energy

$$$$
16:0
     RDKit          3D

 51 54  0  0  1  0  0  0  0  0999 V2000
   -6.2680   25.6730  -29.5680 C   0  0  0  0  0  0  0  0  0  0  0  0
   -5.4680   24.6660  -30.2440 N   0  0  0  0  0  0  0  0  0  0  0  0
   -4.2080   24.8090  -30.6590 N   0  0  0  0  0  0  0  0  0  0  0  0
   -3.8550   23.6640  -31.2190 N   0  0  0  0  0  0  0  0  0  0  0  0
   -4.8510   22.8040  -31.1700 N   0  0  0  0  0  0  0  0  0  0  0  0
   -5.8830   23.4250  -30.5540 C   0  0  0  0  0  0  0  0  0  0  0  0
   -7.4850   22.7870  -30.1980 S   0  0  0  0  0  0  0  0  0  0  0  0
   -8.5340   22.7640  -31.7030 C   0  0  0  0  0  0  0  0  0  0  0  0
   -9.5360   21.6450  -31.5930 C   0  0  0  0  0  0  0  0  0  0  0  0
   -9.1740   20.4010  -32.3230 C   0  0  0  0  0  0  0  0  0  0  0  0
   -8.1900   19.5670  -31.6900 N   0  0  0  0  0  0  0  0  0  0  0  0
   -8.3180   18.1760  -32.0090 C   0  0  0  0  0  0  0  0  0  0  0  0
   -6.9510   17.7640  -32.3500 C   0  0  1  0  0  0  0  0  0  0  0  0
   -6.7760   16.7540  -33.4330 C   0  0  0  0  0  0  0  0  0  0  0  0
   -5.4280   17.1920  -34.0050 C   0  0  0  0  0  0  0  0  0  0  0  0
   -5.2960   18.6060  -33.5690 N   0  0  0  0  0  0  0  0  0  0  0  0
   -4.0220   19.2380  -33.6140 C   0  0  0  0  0  0  0  0  0  0  0  0
   -2.9030   18.5250  -34.0350 C   0  0  0  0  0  0  0  0  0  0  0  0
   -1.6410   19.1240  -34.0890 C   0  0  0  0  0  0  0  0  0  0  0  0
   -1.4660   20.4420  -33.7230 C   0  0  0  0  0  0  0  0  0  0  0  0
   -0.0960   21.0240  -33.8010 C   0  0  0  0  0  0  0  0  0  0  0  0
    0.7570   20.0950  -34.3360 F   0  0  0  0  0  0  0  0  0  0  0  0
    0.2880   21.4700  -32.5520 F   0  0  0  0  0  0  0  0  0  0  0  0
   -0.1930   22.1010  -34.6630 F   0  0  0  0  0  0  0  0  0  0  0  0
   -2.5670   21.1590  -33.3040 C   0  0  0  0  0  0  0  0  0  0  0  0
   -3.8060   20.5490  -33.2590 C   0  0  0  0  0  0  0  0  0  0  0  0
   -6.5790   19.0070  -33.1890 C   0  0  2  0  0  0  0  0  0  0  0  0
   -6.8810   20.0170  -32.2070 C   0  0  0  0  0  0  0  0  0  0  0  0
   -6.1697   25.5493  -28.4794 H   0  0  0  0  0  0  0  0  0  0  0  0
   -5.9167   26.6747  -29.8564 H   0  0  0  0  0  0  0  0  0  0  0  0
   -7.3232   25.5574  -29.8564 H   0  0  0  0  0  0  0  0  0  0  0  0
   -9.0634   23.7236  -31.7968 H   0  0  0  0  0  0  0  0  0  0  0  0
   -7.9028   22.6081  -32.5903 H   0  0  0  0  0  0  0  0  0  0  0  0
   -9.6513   21.3941  -30.5282 H   0  0  0  0  0  0  0  0  0  0  0  0
  -10.4615   22.0153  -32.0582 H   0  0  0  0  0  0  0  0  0  0  0  0
  -10.0901   19.8053  -32.4492 H   0  0  0  0  0  0  0  0  0  0  0  0
   -8.7206   20.7317  -33.2691 H   0  0  0  0  0  0  0  0  0  0  0  0
   -8.6932   17.6092  -31.1442 H   0  0  0  0  0  0  0  0  0  0  0  0
   -9.0322   17.9922  -32.8252 H   0  0  0  0  0  0  0  0  0  0  0  0
   -6.4479   17.4060  -31.4397 H   0  0  0  0  0  0  0  0  0  0  0  0
   -6.7339   15.7308  -33.0315 H   0  0  0  0  0  0  0  0  0  0  0  0
   -7.5960   16.7196  -34.1654 H   0  0  0  0  0  0  0  0  0  0  0  0
   -4.6116   16.5787  -33.5959 H   0  0  0  0  0  0  0  0  0  0  0  0
   -5.3745   17.0788  -35.0978 H   0  0  0  0  0  0  0  0  0  0  0  0
   -3.0138   17.4712  -34.3305 H   0  0  0  0  0  0  0  0  0  0  0  0
   -0.7755   18.5358  -34.4282 H   0  0  0  0  0  0  0  0  0  0  0  0
   -2.4592   22.2126  -33.0067 H   0  0  0  0  0  0  0  0  0  0  0  0
   -4.6667   21.1446  -32.9207 H   0  0  0  0  0  0  0  0  0  0  0  0
   -7.0343   19.3868  -34.1155 H   0  0  0  0  0  0  0  0  0  0  0  0
   -6.1231   20.0379  -31.4101 H   0  0  0  0  0  0  0  0  0  0  0  0
   -6.8942   21.0389  -32.6138 H   0  0  0  0  0  0  0  0  0  0  0  0
  1  2  1  0
  2  3  1  0
  3  4  2  0
  4  5  1  0
  5  6  2  0
  6  7  1  0
  7  8  1  0
  8  9  1  0
  9 10  1  0
 10 11  1  0
 11 12  1  0
 12 13  1  0
 13 14  1  0
 14 15  1  0
 15 16  1  0
 16 17  1  0
 17 18  2  0
 18 19  1  0
 19 20  2  0
 20 21  1  0
 21 22  1  0
 21 23  1  0
 21 24  1  0
 20 25  1  0
 25 26  2  0
 16 27  1  0
 27 28  1  0
  6  2  1  0
 28 11  1  0
 27 13  1  0
 26 17  1  0
  1 29  1  0
  1 30  1  0
  1 31  1  0
  8 32  1  0
  8 33  1  0
  9 34  1  0
  9 35  1  0
 10 36  1  0
 10 37  1  0
 12 38  1  0
 12 39  1  0
 13 40  1  1
 14 41  1  0
 14 42  1  0
 15 43  1  0
 15 44  1  0
 18 45  1  0
 19 46  1  0
 25 47  1  0
 26 48  1  0
 27 49  1  6
 28 50  1  0
 28 51  1  0
M  END
>  <smiles>  (16) 
Cn1nnnc1SCCCN1CC2CCN(c3ccc(C(F)(F)F)cc3)C2C1

>  <score_type>  (16) 
oracle

>  <origin>  (16) 
adg

>  <m_score__min__energy>  (16) 
-10.130000000000001

>  <m_primary>  (16) 
energy

$$$$
