0:0
     RDKit          3D

 36 37  0  0  0  0  0  0  0  0999 V2000
   -9.0430   18.5910  -31.7900 C   0  0  0  0  0  0  0  0  0  0  0  0
   -7.9770   19.3880  -31.2840 O   0  0  0  0  0  0  0  0  0  0  0  0
   -7.8240   20.7660  -31.5040 C   0  0  0  0  0  0  0  0  0  0  0  0
   -8.9440   21.5810  -31.7670 C   0  0  0  0  0  0  0  0  0  0  0  0
   -8.7910   22.9470  -31.9950 C   0  0  0  0  0  0  0  0  0  0  0  0
   -7.5260   23.5230  -31.9710 C   0  0  0  0  0  0  0  0  0  0  0  0
   -6.3900   22.7370  -31.7260 C   0  0  0  0  0  0  0  0  0  0  0  0
   -5.0330   23.3950  -31.6800 C   0  0  0  0  0  0  0  0  0  0  0  0
   -5.0250   24.5020  -30.6740 C   0  0  0  0  0  0  0  0  0  0  0  0
   -3.8560   25.2990  -30.4990 N   0  0  0  0  0  0  0  0  0  0  0  0
   -6.0400   24.7110  -29.9590 O   0  0  0  0  0  0  0  0  0  0  0  0
   -6.5320   21.3530  -31.4710 C   0  0  0  0  0  0  0  0  0  0  0  0
   -5.3570   20.6280  -31.1920 O   0  0  0  0  0  0  0  0  0  0  0  0
   -4.4670   20.0440  -32.1380 C   0  0  0  0  0  0  0  0  0  0  0  0
   -5.1760   18.9220  -32.8360 C   0  0  0  0  0  0  0  0  0  0  0  0
   -5.6280   17.8110  -32.1050 C   0  0  0  0  0  0  0  0  0  0  0  0
   -6.2450   16.7400  -32.7610 C   0  0  0  0  0  0  0  0  0  0  0  0
   -6.4050   16.7670  -34.1490 C   0  0  0  0  0  0  0  0  0  0  0  0
   -5.9420   17.8620  -34.8850 C   0  0  0  0  0  0  0  0  0  0  0  0
   -5.3230   18.9340  -34.2330 C   0  0  0  0  0  0  0  0  0  0  0  0
   -9.6127   18.1651  -30.9509 H   0  0  0  0  0  0  0  0  0  0  0  0
   -9.7077   19.2154  -32.4050 H   0  0  0  0  0  0  0  0  0  0  0  0
   -8.6321   17.7768  -32.4050 H   0  0  0  0  0  0  0  0  0  0  0  0
   -9.9487   21.1339  -31.7924 H   0  0  0  0  0  0  0  0  0  0  0  0
   -9.6741   23.5717  -32.1947 H   0  0  0  0  0  0  0  0  0  0  0  0
   -7.4149   24.6034  -32.1455 H   0  0  0  0  0  0  0  0  0  0  0  0
   -4.2764   22.6466  -31.4017 H   0  0  0  0  0  0  0  0  0  0  0  0
   -4.8045   23.8121  -32.6719 H   0  0  0  0  0  0  0  0  0  0  0  0
   -3.5590   25.9840  -31.2290 H   0  0  0  0  0  0  0  0  0  0  0  0
   -4.1592   20.8018  -32.8735 H   0  0  0  0  0  0  0  0  0  0  0  0
   -3.5730   19.6606  -31.6245 H   0  0  0  0  0  0  0  0  0  0  0  0
   -5.4965   17.7828  -31.0133 H   0  0  0  0  0  0  0  0  0  0  0  0
   -6.6046   15.8757  -32.1834 H   0  0  0  0  0  0  0  0  0  0  0  0
   -6.8952   15.9268  -34.6626 H   0  0  0  0  0  0  0  0  0  0  0  0
   -6.0646   17.8806  -35.9780 H   0  0  0  0  0  0  0  0  0  0  0  0
   -4.9502   19.7890  -34.8162 H   0  0  0  0  0  0  0  0  0  0  0  0
  1  2  1  0
  2  3  1  0
  3  4  2  0
  4  5  1  0
  5  6  2  0
  6  7  1  0
  7  8  1  0
  8  9  1  0
  9 10  1  0
  9 11  2  0
  7 12  2  0
 12 13  1  0
 13 14  1  0
 14 15  1  0
 15 16  2  0
 16 17  1  0
 17 18  2  0
 18 19  1  0
 19 20  2  0
 12  3  1  0
 20 15  1  0
  1 21  1  0
  1 22  1  0
  1 23  1  0
  4 24  1  0
  5 25  1  0
  6 26  1  0
  8 27  1  0
  8 28  1  0
 10 29  1  0
 14 30  1  0
 14 31  1  0
 16 32  1  0
 17 33  1  0
 18 34  1  0
 19 35  1  0
 20 36  1  0
M  CHG  1  10  -1
M  END
>  <UniqueID>  (1) 
1

>  <SMILES>  (1) 
COc1cccc(CC([NH-])=O)c1OCc1ccccc1

>  <Energy>  (1) 
35.370475014549726

>  <Genealogy>  (1) 
COc1cccc(CC([NH-])=O)c1OCc1ccccc1 (protonated)
COc1cccc(CC([NH-])=O)c1OCc1ccccc1 (3D coordinates assigned)
COc1cccc(CC([NH-])=O)c1OCc1ccccc1 (optimized conformer: 35.370475014549726 kcal/mol)

>  <smiles>  (1) 
COc1cccc(CC(N)=O)c1OCc1ccccc1

>  <score_type>  (1) 
oracle

>  <origin>  (1) 
adg

>  <m_score__min__energy>  (1) 
-9.5800000000000001

>  <m_primary>  (1) 
energy

$$$$
1:0
     RDKit          3D

 40 42  0  0  0  0  0  0  0  0999 V2000
    0.3090   22.1460  -35.4160 C   0  0  0  0  0  0  0  0  0  0  0  0
   -0.2320   20.8040  -34.9330 C   0  0  0  0  0  0  0  0  0  0  0  0
   -0.8400   20.9390  -33.5680 C   0  0  0  0  0  0  0  0  0  0  0  0
   -2.2280   20.8580  -33.3890 C   0  0  0  0  0  0  0  0  0  0  0  0
   -2.7660   21.0180  -32.1120 C   0  0  0  0  0  0  0  0  0  0  0  0
   -1.9180   21.2620  -31.0180 C   0  0  0  0  0  0  0  0  0  0  0  0
   -2.3930   21.4150  -29.7060 O   0  0  0  0  0  0  0  0  0  0  0  0
   -3.7090   21.8410  -29.3490 C   0  0  0  0  0  0  0  0  0  0  0  0
   -4.0240   23.1920  -29.9380 C   0  0  0  0  0  0  0  0  0  0  0  0
   -5.0610   23.5610  -30.7850 C   0  0  0  0  0  0  0  0  0  0  0  0
   -6.1490   22.7130  -31.3130 C   0  0  0  0  0  0  0  0  0  0  0  0
   -7.4810   22.9070  -30.9120 C   0  0  0  0  0  0  0  0  0  0  0  0
   -8.4950   22.0850  -31.4130 C   0  0  0  0  0  0  0  0  0  0  0  0
   -8.1900   21.0740  -32.3270 C   0  0  0  0  0  0  0  0  0  0  0  0
   -6.8710   20.8870  -32.7480 C   0  0  0  0  0  0  0  0  0  0  0  0
   -5.8540   21.7070  -32.2480 C   0  0  0  0  0  0  0  0  0  0  0  0
   -4.9090   24.8590  -31.1240 N   0  0  0  0  0  0  0  0  0  0  0  0
   -3.8500   25.2980  -30.5090 O   0  0  0  0  0  0  0  0  0  0  0  0
   -3.2920   24.3550  -29.7890 C   0  0  0  0  0  0  0  0  0  0  0  0
   -2.0490   24.5380  -28.9810 C   0  0  0  0  0  0  0  0  0  0  0  0
   -0.5420   21.3510  -31.2440 C   0  0  0  0  0  0  0  0  0  0  0  0
   -0.0380   21.1920  -32.4970 N   0  0  0  0  0  0  0  0  0  0  0  0
    0.5618   22.7731  -34.5484 H   0  0  0  0  0  0  0  0  0  0  0  0
    1.2107   21.9805  -36.0240 H   0  0  0  0  0  0  0  0  0  0  0  0
   -0.4554   22.6521  -36.0240 H   0  0  0  0  0  0  0  0  0  0  0  0
   -0.9993   20.4493  -35.6369 H   0  0  0  0  0  0  0  0  0  0  0  0
    0.5989   20.0851  -34.8811 H   0  0  0  0  0  0  0  0  0  0  0  0
   -2.8877   20.6697  -34.2488 H   0  0  0  0  0  0  0  0  0  0  0  0
   -3.8537   20.9532  -31.9612 H   0  0  0  0  0  0  0  0  0  0  0  0
   -4.4376   21.1074  -29.7244 H   0  0  0  0  0  0  0  0  0  0  0  0
   -3.7646   21.9177  -28.2531 H   0  0  0  0  0  0  0  0  0  0  0  0
   -7.7275   23.7091  -30.2007 H   0  0  0  0  0  0  0  0  0  0  0  0
   -9.5348   22.2348  -31.0867 H   0  0  0  0  0  0  0  0  0  0  0  0
   -8.9885   20.4248  -32.7155 H   0  0  0  0  0  0  0  0  0  0  0  0
   -6.6322   20.0948  -33.4728 H   0  0  0  0  0  0  0  0  0  0  0  0
   -4.8180   21.5633  -32.5887 H   0  0  0  0  0  0  0  0  0  0  0  0
   -2.2989   24.5012  -27.9104 H   0  0  0  0  0  0  0  0  0  0  0  0
   -1.3356   23.7352  -29.2188 H   0  0  0  0  0  0  0  0  0  0  0  0
   -1.5972   25.5123  -29.2188 H   0  0  0  0  0  0  0  0  0  0  0  0
    0.1380   21.5510  -30.4028 H   0  0  0  0  0  0  0  0  0  0  0  0
  1  2  1  0
  2  3  1  0
  3  4  2  0
  4  5  1  0
  5  6  2  0
  6  7  1  0
  7  8  1  0
  8  9  1  0
  9 10  1  0
 10 11  1  0
 11 12  2  0
 12 13  1  0
 13 14  2  0
 14 15  1  0
 15 16  2  0
 10 17  2  0
 17 18  1  0
 18 19  1  0
 19 20  1  0
  6 21  1  0
 21 22  2  0
 22  3  1  0
 19  9  2  0
 16 11  1  0
  1 23  1  0
  1 24  1  0
  1 25  1  0
  2 26  1  0
  2 27  1  0
  4 28  1  0
  5 29  1  0
  8 30  1  0
  8 31  1  0
 12 32  1  0
 13 33  1  0
 14 34  1  0
 15 35  1  0
 16 36  1  0
 20 37  1  0
 20 38  1  0
 20 39  1  0
 21 40  1  0
M  END
>  <UniqueID>  (2) 
2

>  <SMILES>  (2) 
CCc1ccc(OCc2c(-c3ccccc3)noc2C)cn1

>  <Energy>  (2) 
71.28717238193528

>  <Genealogy>  (2) 
CCc1ccc(OCc2c(-c3ccccc3)noc2C)cn1 (3D coordinates assigned)
CCc1ccc(OCc2c(-c3ccccc3)noc2C)cn1 (optimized conformer: 71.28717238193528 kcal/mol)

>  <smiles>  (2) 
CCc1ccc(OCc2c(-c3ccccc3)noc2C)cn1

>  <score_type>  (2) 
oracle

>  <origin>  (2) 
adg

>  <m_score__min__energy>  (2) 
-8.0099999999999998

>  <m_primary>  (2) 
energy

$$$$
2:0
     RDKit          3D

 35 37  0  0  0  0  0  0  0  0999 V2000
   -9.5310   21.5300  -31.9220 C   0  0  0  0  0  0  0  0  0  0  0  0
   -8.1560   21.1210  -32.3370 C   0  0  0  0  0  0  0  0  0  0  0  0
   -7.8660   20.0350  -33.0950 N   0  0  0  0  0  0  0  0  0  0  0  0
   -6.5590   20.0130  -33.3370 N   0  0  0  0  0  0  0  0  0  0  0  0
   -5.8860   19.0410  -34.1910 C   0  0  0  0  0  0  0  0  0  0  0  0
   -6.0170   21.0990  -32.7590 C   0  0  0  0  0  0  0  0  0  0  0  0
   -4.7230   21.4960  -32.8060 N   0  0  0  0  0  0  0  0  0  0  0  0
   -4.3660   22.6570  -32.1770 C   0  0  0  0  0  0  0  0  0  0  0  0
   -5.3350   23.4460  -31.4930 C   0  0  0  0  0  0  0  0  0  0  0  0
   -4.9420   24.7060  -30.8230 C   0  0  0  0  0  0  0  0  0  0  0  0
   -5.8130   25.5830  -30.5660 O   0  0  0  0  0  0  0  0  0  0  0  0
   -3.5740   24.9370  -30.4670 N   0  0  0  0  0  0  0  0  0  0  0  0
   -2.7730   24.0010  -29.6860 C   0  0  0  0  0  0  0  0  0  0  0  0
   -2.0690   24.7250  -28.5770 C   0  0  0  0  0  0  0  0  0  0  0  0
   -2.6250   24.8050  -27.2950 C   0  0  0  0  0  0  0  0  0  0  0  0
   -1.9230   25.4660  -26.2890 C   0  0  0  0  0  0  0  0  0  0  0  0
   -0.6820   26.0270  -26.5830 C   0  0  0  0  0  0  0  0  0  0  0  0
   -0.1790   25.9190  -27.8410 N   0  0  0  0  0  0  0  0  0  0  0  0
   -0.8500   25.2860  -28.8060 N   0  0  0  0  0  0  0  0  0  0  0  0
   -6.6820   23.0110  -31.4730 C   0  0  0  0  0  0  0  0  0  0  0  0
   -6.9810   21.8190  -32.1210 C   0  0  0  0  0  0  0  0  0  0  0  0
   -9.5924   21.5483  -30.8239 H   0  0  0  0  0  0  0  0  0  0  0  0
   -9.7507   22.5324  -32.3182 H   0  0  0  0  0  0  0  0  0  0  0  0
  -10.2628   20.8106  -32.3182 H   0  0  0  0  0  0  0  0  0  0  0  0
   -8.5510   19.3340  -33.4560 H   0  0  0  0  0  0  0  0  0  0  0  0
   -5.3711   18.2973  -33.5650 H   0  0  0  0  0  0  0  0  0  0  0  0
   -6.6281   18.5350  -34.8261 H   0  0  0  0  0  0  0  0  0  0  0  0
   -5.1512   19.5575  -34.8261 H   0  0  0  0  0  0  0  0  0  0  0  0
   -3.3165   22.9858  -32.1996 H   0  0  0  0  0  0  0  0  0  0  0  0
   -3.4298   23.2296  -29.2575 H   0  0  0  0  0  0  0  0  0  0  0  0
   -2.0245   23.5331  -30.3424 H   0  0  0  0  0  0  0  0  0  0  0  0
   -3.6047   24.3514  -27.0841 H   0  0  0  0  0  0  0  0  0  0  0  0
   -2.3433   25.5439  -25.2755 H   0  0  0  0  0  0  0  0  0  0  0  0
   -0.1133   26.5536  -25.8024 H   0  0  0  0  0  0  0  0  0  0  0  0
   -7.4627   23.5949  -30.9635 H   0  0  0  0  0  0  0  0  0  0  0  0
  1  2  1  0
  2  3  2  0
  3  4  1  0
  4  5  1  0
  4  6  1  0
  6  7  2  0
  7  8  1  0
  8  9  2  0
  9 10  1  0
 10 11  2  0
 10 12  1  0
 12 13  1  0
 13 14  1  0
 14 15  2  0
 15 16  1  0
 16 17  2  0
 17 18  1  0
 18 19  2  0
  9 20  1  0
 20 21  2  0
 21  2  1  0
 21  6  1  0
 19 14  1  0
  1 22  1  0
  1 23  1  0
  1 24  1  0
  3 25  1  0
  5 26  1  0
  5 27  1  0
  5 28  1  0
  8 29  1  0
 13 30  1  0
 13 31  1  0
 15 32  1  0
 16 33  1  0
 17 34  1  0
 20 35  1  0
M  CHG  2   3   1  12  -1
M  END
>  <UniqueID>  (3) 
3

>  <SMILES>  (3) 
Cc1[nH+]n(C)c2ncc(C(=O)[N-]Cc3cccnn3)cc12

>  <Energy>  (3) 
76.44372404034715

>  <Genealogy>  (3) 
Cc1[nH+]n(C)c2ncc(C(=O)[N-]Cc3cccnn3)cc12 (protonated)
Cc1[nH+]n(C)c2ncc(C(=O)[N-]Cc3cccnn3)cc12 (3D coordinates assigned)
Cc1[nH+]n(C)c2ncc(C(=O)[N-]Cc3cccnn3)cc12 (optimized conformer: 76.44372404034715 kcal/mol)

>  <smiles>  (3) 
Cc1nn(C)c2ncc(C(=O)NCc3cccnn3)cc12

>  <score_type>  (3) 
oracle

>  <origin>  (3) 
adg

>  <m_score__min__energy>  (3) 
-9.8900000000000006

>  <m_primary>  (3) 
energy

$$$$
3:0
     RDKit          3D

 38 41  0  0  0  0  0  0  0  0999 V2000
   -3.2250   22.6330  -32.0840 F   0  0  0  0  0  0  0  0  0  0  0  0
   -4.1260   21.6240  -32.1920 C   0  0  0  0  0  0  0  0  0  0  0  0
   -3.6650   20.3030  -32.2160 C   0  0  0  0  0  0  0  0  0  0  0  0
   -4.5720   19.2460  -32.3120 C   0  0  0  0  0  0  0  0  0  0  0  0
   -5.9420   19.5030  -32.3710 C   0  0  0  0  0  0  0  0  0  0  0  0
   -6.4100   20.8210  -32.3520 C   0  0  0  0  0  0  0  0  0  0  0  0
   -5.5060   21.8960  -32.2870 C   0  0  0  0  0  0  0  0  0  0  0  0
   -6.0220   23.3220  -32.3110 C   0  0  0  0  0  0  0  0  0  0  0  0
   -6.4290   23.8630  -30.9860 N   0  0  2  0  0  0  0  0  0  0  0  0
   -6.1020   25.2960  -30.7950 C   0  0  0  0  0  0  0  0  0  0  0  0
   -4.7230   25.4890  -30.4820 O   0  0  0  0  0  0  0  0  0  0  0  0
   -4.0030   24.5660  -29.7260 C   0  0  0  0  0  0  0  0  0  0  0  0
   -2.7250   24.8450  -29.3540 N   0  0  0  0  0  0  0  0  0  0  0  0
   -1.9750   23.9520  -28.6540 C   0  0  0  0  0  0  0  0  0  0  0  0
   -0.6600   24.2700  -28.2950 C   0  0  0  0  0  0  0  0  0  0  0  0
    0.1120   23.3490  -27.5790 C   0  0  0  0  0  0  0  0  0  0  0  0
    1.9070   23.7830  -27.0930 Br  0  0  0  0  0  0  0  0  0  0  0  0
   -0.4290   22.1100  -27.2170 C   0  0  0  0  0  0  0  0  0  0  0  0
   -1.7430   21.7840  -27.5700 C   0  0  0  0  0  0  0  0  0  0  0  0
   -2.5220   22.7010  -28.2900 C   0  0  0  0  0  0  0  0  0  0  0  0
   -3.8390   22.4020  -28.6650 C   0  0  0  0  0  0  0  0  0  0  0  0
   -4.5800   23.3320  -29.4030 C   0  0  0  0  0  0  0  0  0  0  0  0
   -5.9940   23.0360  -29.8320 C   0  0  0  0  0  0  0  0  0  0  0  0
   -2.5860   20.0970  -32.1591 H   0  0  0  0  0  0  0  0  0  0  0  0
   -4.2059   18.2091  -32.3412 H   0  0  0  0  0  0  0  0  0  0  0  0
   -6.6552   18.6678  -32.4326 H   0  0  0  0  0  0  0  0  0  0  0  0
   -7.4917   21.0177  -32.3881 H   0  0  0  0  0  0  0  0  0  0  0  0
   -5.2267   23.9665  -32.7136 H   0  0  0  0  0  0  0  0  0  0  0  0
   -6.9298   23.3113  -32.9321 H   0  0  0  0  0  0  0  0  0  0  0  0
   -7.4760   23.8140  -30.9880 H   0  0  0  0  0  0  0  0  0  0  0  0
   -6.3363   25.8410  -31.7213 H   0  0  0  0  0  0  0  0  0  0  0  0
   -6.6994   25.6730  -29.9519 H   0  0  0  0  0  0  0  0  0  0  0  0
   -0.2336   25.2443  -28.5759 H   0  0  0  0  0  0  0  0  0  0  0  0
    0.1814   21.3896  -26.6527 H   0  0  0  0  0  0  0  0  0  0  0  0
   -2.1645   20.8093  -27.2830 H   0  0  0  0  0  0  0  0  0  0  0  0
   -4.2888   21.4394  -28.3801 H   0  0  0  0  0  0  0  0  0  0  0  0
   -6.0610   21.9750  -30.1146 H   0  0  0  0  0  0  0  0  0  0  0  0
   -6.6544   23.2746  -28.9853 H   0  0  0  0  0  0  0  0  0  0  0  0
  1  2  1  0
  2  3  2  0
  3  4  1  0
  4  5  2  0
  5  6  1  0
  6  7  2  0
  7  8  1  0
  8  9  1  0
  9 10  1  0
 10 11  1  0
 11 12  1  0
 12 13  2  0
 13 14  1  0
 14 15  2  0
 15 16  1  0
 16 17  1  0
 16 18  2  0
 18 19  1  0
 19 20  2  0
 20 21  1  0
 21 22  2  0
 22 23  1  0
  7  2  1  0
 23  9  1  0
 22 12  1  0
 20 14  1  0
  3 24  1  0
  4 25  1  0
  5 26  1  0
  6 27  1  0
  8 28  1  0
  8 29  1  0
  9 30  1  6
 10 31  1  0
 10 32  1  0
 15 33  1  0
 18 34  1  0
 19 35  1  0
 21 36  1  0
 23 37  1  0
 23 38  1  0
M  CHG  1   9   1
M  END
>  <UniqueID>  (4) 
4

>  <SMILES>  (4) 
Fc1ccccc1C[N@@H+]1COc2nc3cc(Br)ccc3cc2C1

>  <Energy>  (4) 
52.54838012188099

>  <Genealogy>  (4) 
Fc1ccccc1C[NH+]1COc2nc3cc(Br)ccc3cc2C1 (protonated)
Fc1ccccc1C[N@@H+]1COc2nc3cc(Br)ccc3cc2C1 (chirality)
Fc1ccccc1C[N@@H+]1COc2nc3cc(Br)ccc3cc2C1 (3D coordinates assigned)
Fc1ccccc1C[N@@H+]1COc2nc3cc(Br)ccc3cc2C1 (nonaromatic ring conformer: 52.54838012188099 kcal/mol)

>  <smiles>  (4) 
Fc1ccccc1CN1COc2nc3cc(Br)ccc3cc2C1

>  <score_type>  (4) 
oracle

>  <origin>  (4) 
adg

>  <m_score__min__energy>  (4) 
-7.9800000000000004

>  <m_primary>  (4) 
energy

$$$$
4:0
     RDKit          3D

 60 62  0  0  0  0  0  0  0  0999 V2000
   -1.2290   26.4910  -26.3910 C   0  0  0  0  0  0  0  0  0  0  0  0
   -0.8570   26.9490  -27.7910 C   0  0  0  0  0  0  0  0  0  0  0  0
   -1.4020   26.0460  -28.7450 O   0  0  0  0  0  0  0  0  0  0  0  0
   -1.2360   24.6590  -28.6570 C   0  0  0  0  0  0  0  0  0  0  0  0
   -0.1460   24.1280  -29.0060 O   0  0  0  0  0  0  0  0  0  0  0  0
   -2.3630   23.7790  -28.1650 C   0  0  2  0  0  0  0  0  0  0  0  0
   -2.4120   22.4110  -28.8720 C   0  0  0  0  0  0  0  0  0  0  0  0
   -2.8880   22.4800  -30.3400 C   0  0  0  0  0  0  0  0  0  0  0  0
   -3.5120   23.8270  -30.7340 C   0  0  0  0  0  0  0  0  0  0  0  0
   -4.3100   24.3850  -29.6330 N   0  0  0  0  0  0  0  0  0  0  0  0
   -5.6390   24.8920  -29.8900 C   0  0  0  0  0  0  0  0  0  0  0  0
   -6.2130   25.6190  -29.0340 O   0  0  0  0  0  0  0  0  0  0  0  0
   -6.3710   24.5770  -31.1670 C   0  0  0  0  0  0  0  0  0  0  0  0
   -7.1130   23.3640  -31.0390 O   0  0  0  0  0  0  0  0  0  0  0  0
   -6.8350   22.1610  -31.7100 C   0  0  0  0  0  0  0  0  0  0  0  0
   -5.5810   21.9050  -32.2980 C   0  0  0  0  0  0  0  0  0  0  0  0
   -5.3450   20.7040  -32.9670 C   0  0  0  0  0  0  0  0  0  0  0  0
   -6.3510   19.7340  -33.0550 C   0  0  0  0  0  0  0  0  0  0  0  0
   -6.0410   18.2070  -33.8830 S   0  0  0  0  0  0  0  0  0  0  0  0
   -7.2400   17.3110  -33.7300 O   0  0  0  0  0  0  0  0  0  0  0  0
   -5.8450   18.4710  -35.3500 O   0  0  0  0  0  0  0  0  0  0  0  0
   -4.6260   17.3900  -33.2470 N   0  0  0  0  0  0  0  0  0  0  0  0
   -5.0060   16.2750  -32.3740 C   0  0  0  0  0  0  0  0  0  0  0  0
   -4.9290   14.9860  -33.1800 C   0  0  0  0  0  0  0  0  0  0  0  0
   -4.1690   15.3330  -34.4450 C   0  0  0  0  0  0  0  0  0  0  0  0
   -3.8200   16.8090  -34.3260 C   0  0  0  0  0  0  0  0  0  0  0  0
   -7.6010   19.9820  -32.4750 C   0  0  0  0  0  0  0  0  0  0  0  0
   -7.8460   21.1840  -31.7920 C   0  0  0  0  0  0  0  0  0  0  0  0
   -9.1980   21.4420  -31.1890 C   0  0  0  0  0  0  0  0  0  0  0  0
   -3.7320   24.4820  -28.2800 C   0  0  0  0  0  0  0  0  0  0  0  0
   -0.7163   27.1223  -25.6503 H   0  0  0  0  0  0  0  0  0  0  0  0
   -2.3172   26.5758  -26.2545 H   0  0  0  0  0  0  0  0  0  0  0  0
   -0.9229   25.4433  -26.2545 H   0  0  0  0  0  0  0  0  0  0  0  0
   -1.2616   27.9567  -27.9669 H   0  0  0  0  0  0  0  0  0  0  0  0
    0.2382   26.9714  -27.8909 H   0  0  0  0  0  0  0  0  0  0  0  0
   -2.1482   23.5939  -27.1022 H   0  0  0  0  0  0  0  0  0  0  0  0
   -1.4015   21.9768  -28.8559 H   0  0  0  0  0  0  0  0  0  0  0  0
   -3.1450   21.7973  -28.3279 H   0  0  0  0  0  0  0  0  0  0  0  0
   -2.0221   22.2962  -30.9930 H   0  0  0  0  0  0  0  0  0  0  0  0
   -3.6751   21.7201  -30.4544 H   0  0  0  0  0  0  0  0  0  0  0  0
   -2.7086   24.5338  -30.9890 H   0  0  0  0  0  0  0  0  0  0  0  0
   -4.1743   23.6651  -31.5972 H   0  0  0  0  0  0  0  0  0  0  0  0
   -7.0627   25.4003  -31.3989 H   0  0  0  0  0  0  0  0  0  0  0  0
   -5.6348   24.4568  -31.9754 H   0  0  0  0  0  0  0  0  0  0  0  0
   -4.7819   22.6577  -32.2291 H   0  0  0  0  0  0  0  0  0  0  0  0
   -4.3636   20.5180  -33.4278 H   0  0  0  0  0  0  0  0  0  0  0  0
   -4.3158   16.2205  -31.5192 H   0  0  0  0  0  0  0  0  0  0  0  0
   -6.0279   16.4232  -31.9947 H   0  0  0  0  0  0  0  0  0  0  0  0
   -4.3935   14.2109  -32.6122 H   0  0  0  0  0  0  0  0  0  0  0  0
   -5.9301   14.5898  -33.4056 H   0  0  0  0  0  0  0  0  0  0  0  0
   -3.2536   14.7276  -34.5204 H   0  0  0  0  0  0  0  0  0  0  0  0
   -4.7667   15.1292  -35.3457 H   0  0  0  0  0  0  0  0  0  0  0  0
   -2.7509   16.9202  -34.0923 H   0  0  0  0  0  0  0  0  0  0  0  0
   -4.0305   17.3247  -35.2746 H   0  0  0  0  0  0  0  0  0  0  0  0
   -8.3982   19.2284  -32.5551 H   0  0  0  0  0  0  0  0  0  0  0  0
   -9.1191   21.4269  -30.0919 H   0  0  0  0  0  0  0  0  0  0  0  0
   -9.5639   22.4262  -31.5168 H   0  0  0  0  0  0  0  0  0  0  0  0
   -9.9006   20.6617  -31.5168 H   0  0  0  0  0  0  0  0  0  0  0  0
   -3.6040   25.5449  -28.0275 H   0  0  0  0  0  0  0  0  0  0  0  0
   -4.4227   23.9793  -27.5870 H   0  0  0  0  0  0  0  0  0  0  0  0
  1  2  1  0
  2  3  1  0
  3  4  1  0
  4  5  2  0
  4  6  1  0
  6  7  1  0
  7  8  1  0
  8  9  1  0
  9 10  1  0
 10 11  1  0
 11 12  2  0
 11 13  1  0
 13 14  1  0
 14 15  1  0
 15 16  2  0
 16 17  1  0
 17 18  2  0
 18 19  1  0
 19 20  2  0
 19 21  2  0
 19 22  1  0
 22 23  1  0
 23 24  1  0
 24 25  1  0
 25 26  1  0
 18 27  1  0
 27 28  2  0
 28 29  1  0
 10 30  1  0
 30  6  1  0
 28 15  1  0
 26 22  1  0
  1 31  1  0
  1 32  1  0
  1 33  1  0
  2 34  1  0
  2 35  1  0
  6 36  1  1
  7 37  1  0
  7 38  1  0
  8 39  1  0
  8 40  1  0
  9 41  1  0
  9 42  1  0
 13 43  1  0
 13 44  1  0
 16 45  1  0
 17 46  1  0
 23 47  1  0
 23 48  1  0
 24 49  1  0
 24 50  1  0
 25 51  1  0
 25 52  1  0
 26 53  1  0
 26 54  1  0
 27 55  1  0
 29 56  1  0
 29 57  1  0
 29 58  1  0
 30 59  1  0
 30 60  1  0
M  END
>  <UniqueID>  (5) 
5

>  <SMILES>  (5) 
CCOC(=O)[C@@H]1CCCN(C(=O)COc2ccc(S(=O)(=O)N3CCCC3)cc2C)C1

>  <Energy>  (5) 
56.41210573803449

>  <Genealogy>  (5) 
CCOC(=O)[C@@H]1CCCN(C(=O)COc2ccc(S(=O)(=O)N3CCCC3)cc2C)C1 (chirality)
CCOC(=O)[C@@H]1CCCN(C(=O)COc2ccc(S(=O)(=O)N3CCCC3)cc2C)C1 (3D coordinates assigned)
CCOC(=O)[C@@H]1CCCN(C(=O)COc2ccc(S(=O)(=O)N3CCCC3)cc2C)C1 (nonaromatic ring conformer: 56.41210573803449 kcal/mol)

>  <smiles>  (5) 
CCOC(=O)C1CCCN(C(=O)COc2ccc(S(=O)(=O)N3CCCC3)cc2C)C1

>  <score_type>  (5) 
oracle

>  <origin>  (5) 
adg

>  <m_score__min__energy>  (5) 
-9.4499999999999993

>  <m_primary>  (5) 
energy

$$$$
5:0
     RDKit          3D

 40 41  0  0  0  0  0  0  0  0999 V2000
   -6.0650   24.4050  -31.0520 C   0  0  0  0  0  0  0  0  0  0  0  0
   -5.2890   25.6240  -30.5680 C   0  0  0  0  0  0  0  0  0  0  0  0
   -3.8710   25.3100  -30.4360 N   0  0  0  0  0  0  0  0  0  0  0  0
   -3.3670   23.9870  -30.2170 C   0  0  0  0  0  0  0  0  0  0  0  0
   -3.0080   23.2800  -31.1990 O   0  0  0  0  0  0  0  0  0  0  0  0
   -3.3440   23.4020  -28.8180 C   0  0  1  0  0  0  0  0  0  0  0  0
   -4.4790   23.9790  -27.9470 C   0  0  0  0  0  0  0  0  0  0  0  0
   -3.4550   21.8670  -28.8930 C   0  0  0  0  0  0  0  0  0  0  0  0
   -2.5080   21.3350  -27.8250 C   0  0  0  0  0  0  0  0  0  0  0  0
   -1.4670   22.4270  -27.6210 C   0  0  0  0  0  0  0  0  0  0  0  0
   -2.0560   23.6440  -28.1610 N   0  0  0  0  0  0  0  0  0  0  0  0
   -1.4450   24.9400  -28.0010 C   0  0  0  0  0  0  0  0  0  0  0  0
   -1.2250   25.6710  -29.0030 O   0  0  0  0  0  0  0  0  0  0  0  0
   -1.0550   25.4320  -26.6690 C   0  0  0  0  0  0  0  0  0  0  0  0
   -1.9750   26.1490  -25.8980 C   0  0  0  0  0  0  0  0  0  0  0  0
   -1.6270   26.5960  -24.6630 N   0  0  0  0  0  0  0  0  0  0  0  0
   -0.3880   26.3560  -24.1600 C   0  0  0  0  0  0  0  0  0  0  0  0
    0.5230   25.6660  -24.8930 N   0  0  0  0  0  0  0  0  0  0  0  0
    0.2250   25.1980  -26.1350 C   0  0  0  0  0  0  0  0  0  0  0  0
    1.2740   24.4520  -26.9050 C   0  0  0  0  0  0  0  0  0  0  0  0
   -6.4286   23.8339  -30.1851 H   0  0  0  0  0  0  0  0  0  0  0  0
   -6.9209   24.7329  -31.6602 H   0  0  0  0  0  0  0  0  0  0  0  0
   -5.4056   23.7683  -31.6602 H   0  0  0  0  0  0  0  0  0  0  0  0
   -5.4122   26.4423  -31.2928 H   0  0  0  0  0  0  0  0  0  0  0  0
   -5.6788   25.9252  -29.5845 H   0  0  0  0  0  0  0  0  0  0  0  0
   -4.2268   23.8508  -26.8840 H   0  0  0  0  0  0  0  0  0  0  0  0
   -4.6027   25.0495  -28.1680 H   0  0  0  0  0  0  0  0  0  0  0  0
   -5.4168   23.4482  -28.1680 H   0  0  0  0  0  0  0  0  0  0  0  0
   -4.4865   21.5461  -28.6858 H   0  0  0  0  0  0  0  0  0  0  0  0
   -3.1950   21.4885  -29.8926 H   0  0  0  0  0  0  0  0  0  0  0  0
   -3.0531   21.1443  -26.8888 H   0  0  0  0  0  0  0  0  0  0  0  0
   -2.0462   20.3835  -28.1275 H   0  0  0  0  0  0  0  0  0  0  0  0
   -1.2467   22.5507  -26.5504 H   0  0  0  0  0  0  0  0  0  0  0  0
   -0.5188   22.1803  -28.1211 H   0  0  0  0  0  0  0  0  0  0  0  0
   -2.9819   26.3515  -26.2918 H   0  0  0  0  0  0  0  0  0  0  0  0
   -2.3210   27.1290  -24.0930 H   0  0  0  0  0  0  0  0  0  0  0  0
   -0.1224   26.7214  -23.1570 H   0  0  0  0  0  0  0  0  0  0  0  0
    1.9643   23.9611  -26.2032 H   0  0  0  0  0  0  0  0  0  0  0  0
    0.7930   23.6920  -27.5382 H   0  0  0  0  0  0  0  0  0  0  0  0
    1.8340   25.1558  -27.5382 H   0  0  0  0  0  0  0  0  0  0  0  0
  1  2  1  0
  2  3  1  0
  3  4  1  0
  4  5  2  0
  4  6  1  0
  6  7  1  1
  6  8  1  0
  8  9  1  0
  9 10  1  0
 10 11  1  0
 11 12  1  0
 12 13  2  0
 12 14  1  0
 14 15  2  0
 15 16  1  0
 16 17  2  0
 17 18  1  0
 18 19  2  0
 19 20  1  0
 11  6  1  0
 19 14  1  0
  1 21  1  0
  1 22  1  0
  1 23  1  0
  2 24  1  0
  2 25  1  0
  7 26  1  0
  7 27  1  0
  7 28  1  0
  8 29  1  0
  8 30  1  0
  9 31  1  0
  9 32  1  0
 10 33  1  0
 10 34  1  0
 15 35  1  0
 16 36  1  0
 17 37  1  0
 20 38  1  0
 20 39  1  0
 20 40  1  0
M  CHG  2   3  -1  16   1
M  END
>  <UniqueID>  (6) 
6

>  <SMILES>  (6) 
CC[N-]C(=O)[C@@]1(C)CCCN1C(=O)c1c[nH+]cnc1C

>  <Energy>  (6) 
41.268564737822004

>  <Genealogy>  (6) 
CC[N-]C(=O)C1(C)CCCN1C(=O)c1c[nH+]cnc1C (protonated)
CC[N-]C(=O)[C@@]1(C)CCCN1C(=O)c1c[nH+]cnc1C (chirality)
CC[N-]C(=O)[C@@]1(C)CCCN1C(=O)c1c[nH+]cnc1C (3D coordinates assigned)
CC[N-]C(=O)[C@@]1(C)CCCN1C(=O)c1c[nH+]cnc1C (nonaromatic ring conformer: 41.268564737822004 kcal/mol)

>  <smiles>  (6) 
CCNC(=O)C1(C)CCCN1C(=O)c1cncnc1C

>  <score_type>  (6) 
oracle

>  <origin>  (6) 
adg

>  <m_score__min__energy>  (6) 
-8.7599999999999998

>  <m_primary>  (6) 
energy

$$$$
6:0
     RDKit          3D

 48 50  0  0  0  0  0  0  0  0999 V2000
   -0.8750   26.6960  -23.7640 C   0  0  0  0  0  0  0  0  0  0  0  0
   -1.1340   26.3700  -25.2060 C   0  0  0  0  0  0  0  0  0  0  0  0
   -2.2050   25.5380  -25.5650 C   0  0  0  0  0  0  0  0  0  0  0  0
   -2.4130   25.1980  -26.9060 C   0  0  0  0  0  0  0  0  0  0  0  0
   -1.5410   25.6590  -27.9000 C   0  0  0  0  0  0  0  0  0  0  0  0
   -1.7930   25.2920  -29.2640 N   0  0  0  0  0  0  0  0  0  0  0  0
   -2.9230   24.5550  -29.7520 C   0  0  0  0  0  0  0  0  0  0  0  0
   -3.8610   25.1610  -30.3390 O   0  0  0  0  0  0  0  0  0  0  0  0
   -2.9650   23.0770  -29.5980 C   0  0  0  0  0  0  0  0  0  0  0  0
   -2.3760   22.4890  -28.4630 C   0  0  0  0  0  0  0  0  0  0  0  0
   -2.4210   21.1060  -28.2690 C   0  0  0  0  0  0  0  0  0  0  0  0
   -1.6260   20.3330  -26.7150 Br  0  0  0  0  0  0  0  0  0  0  0  0
   -3.0530   20.2920  -29.2070 C   0  0  0  0  0  0  0  0  0  0  0  0
   -3.6340   20.8530  -30.3440 C   0  0  0  0  0  0  0  0  0  0  0  0
   -3.5960   22.2470  -30.5580 C   0  0  0  0  0  0  0  0  0  0  0  0
   -4.1460   22.8310  -31.7130 O   0  0  0  0  0  0  0  0  0  0  0  0
   -5.0560   22.2070  -32.6200 C   0  0  0  0  0  0  0  0  0  0  0  0
   -6.4600   22.1130  -32.0110 C   0  0  0  0  0  0  0  0  0  0  0  0
   -7.2600   21.0710  -32.6900 N   0  0  0  0  0  0  0  0  0  0  0  0
   -8.5150   20.8150  -31.9550 C   0  0  0  0  0  0  0  0  0  0  0  0
   -9.1280   19.4660  -32.3720 C   0  0  0  0  0  0  0  0  0  0  0  0
   -8.2860   18.3440  -32.1440 O   0  0  0  0  0  0  0  0  0  0  0  0
   -6.9110   18.6760  -32.0200 C   0  0  0  0  0  0  0  0  0  0  0  0
   -6.4820   19.8310  -32.9410 C   0  0  0  0  0  0  0  0  0  0  0  0
   -0.4760   26.5050  -27.5410 C   0  0  0  0  0  0  0  0  0  0  0  0
   -0.2670   26.8460  -26.2010 C   0  0  0  0  0  0  0  0  0  0  0  0
   -1.4315   25.9955  -23.1240 H   0  0  0  0  0  0  0  0  0  0  0  0
    0.2014   26.6070  -23.5556 H   0  0  0  0  0  0  0  0  0  0  0  0
   -1.2050   27.7244  -23.5556 H   0  0  0  0  0  0  0  0  0  0  0  0
   -2.8832   25.1518  -24.7898 H   0  0  0  0  0  0  0  0  0  0  0  0
   -3.2682   24.5636  -27.1818 H   0  0  0  0  0  0  0  0  0  0  0  0
   -1.8742   23.1259  -27.7197 H   0  0  0  0  0  0  0  0  0  0  0  0
   -3.0937   19.2040  -29.0502 H   0  0  0  0  0  0  0  0  0  0  0  0
   -4.1268   20.2021  -31.0813 H   0  0  0  0  0  0  0  0  0  0  0  0
   -5.1042   22.7992  -33.5457 H   0  0  0  0  0  0  0  0  0  0  0  0
   -4.6969   21.1892  -32.8323 H   0  0  0  0  0  0  0  0  0  0  0  0
   -6.3736   21.8624  -30.9434 H   0  0  0  0  0  0  0  0  0  0  0  0
   -6.9643   23.0823  -32.1381 H   0  0  0  0  0  0  0  0  0  0  0  0
   -8.3034   20.7966  -30.8757 H   0  0  0  0  0  0  0  0  0  0  0  0
   -9.2313   21.6156  -32.1914 H   0  0  0  0  0  0  0  0  0  0  0  0
  -10.0579   19.3198  -31.8028 H   0  0  0  0  0  0  0  0  0  0  0  0
   -9.2944   19.5186  -33.4581 H   0  0  0  0  0  0  0  0  0  0  0  0
   -6.7143   18.9681  -30.9779 H   0  0  0  0  0  0  0  0  0  0  0  0
   -6.3321   17.7888  -32.3163 H   0  0  0  0  0  0  0  0  0  0  0  0
   -5.4159   20.0418  -32.7708 H   0  0  0  0  0  0  0  0  0  0  0  0
   -6.6694   19.5206  -33.9795 H   0  0  0  0  0  0  0  0  0  0  0  0
    0.1953   26.9000  -28.3177 H   0  0  0  0  0  0  0  0  0  0  0  0
    0.5810   27.4903  -25.9258 H   0  0  0  0  0  0  0  0  0  0  0  0
  1  2  1  0
  2  3  2  0
  3  4  1  0
  4  5  2  0
  5  6  1  0
  6  7  1  0
  7  8  2  0
  7  9  1  0
  9 10  2  0
 10 11  1  0
 11 12  1  0
 11 13  2  0
 13 14  1  0
 14 15  2  0
 15 16  1  0
 16 17  1  0
 17 18  1  0
 18 19  1  0
 19 20  1  0
 20 21  1  0
 21 22  1  0
 22 23  1  0
 23 24  1  0
  5 25  1  0
 25 26  2  0
 26  2  1  0
 15  9  1  0
 24 19  1  0
  1 27  1  0
  1 28  1  0
  1 29  1  0
  3 30  1  0
  4 31  1  0
 10 32  1  0
 13 33  1  0
 14 34  1  0
 17 35  1  0
 17 36  1  0
 18 37  1  0
 18 38  1  0
 20 39  1  0
 20 40  1  0
 21 41  1  0
 21 42  1  0
 23 43  1  0
 23 44  1  0
 24 45  1  0
 24 46  1  0
 25 47  1  0
 26 48  1  0
M  CHG  1   6  -1
M  END
>  <UniqueID>  (7) 
7

>  <SMILES>  (7) 
Cc1ccc([N-]C(=O)c2cc(Br)ccc2OCCN2CCOCC2)cc1

>  <Energy>  (7) 
67.67255989470321

>  <Genealogy>  (7) 
Cc1ccc([N-]C(=O)c2cc(Br)ccc2OCCN2CCOCC2)cc1 (protonated)
Cc1ccc([N-]C(=O)c2cc(Br)ccc2OCCN2CCOCC2)cc1 (3D coordinates assigned)
Cc1ccc([N-]C(=O)c2cc(Br)ccc2OCCN2CCOCC2)cc1 (nonaromatic ring conformer: 67.67255989470321 kcal/mol)

>  <smiles>  (7) 
Cc1ccc(NC(=O)c2cc(Br)ccc2OCCN2CCOCC2)cc1

>  <score_type>  (7) 
oracle

>  <origin>  (7) 
adg

>  <m_score__min__energy>  (7) 
-10.1

>  <m_primary>  (7) 
energy

$$$$
7:0
     RDKit          3D

 37 39  0  0  0  0  0  0  0  0999 V2000
   -1.6170   21.2400  -29.1200 C   0  0  0  0  0  0  0  0  0  0  0  0
   -2.4650   21.6130  -30.2640 N   0  0  0  0  0  0  0  0  0  0  0  0
   -2.4350   20.7680  -31.3360 C   0  0  0  0  0  0  0  0  0  0  0  0
   -3.4400   20.7840  -32.2910 C   0  0  0  0  0  0  0  0  0  0  0  0
   -4.5370   21.6390  -32.1470 C   0  0  0  0  0  0  0  0  0  0  0  0
   -5.6320   21.5380  -33.0930 N   0  0  0  0  0  0  0  0  0  0  0  0
   -6.6150   20.5740  -32.6530 C   0  0  0  0  0  0  0  0  0  0  0  0
   -6.4440   19.2000  -32.9170 C   0  0  0  0  0  0  0  0  0  0  0  0
   -7.4120   18.2740  -32.5150 C   0  0  0  0  0  0  0  0  0  0  0  0
   -8.5690   18.7080  -31.8660 C   0  0  0  0  0  0  0  0  0  0  0  0
   -9.5080   17.8080  -31.4790 F   0  0  0  0  0  0  0  0  0  0  0  0
   -8.7660   20.0700  -31.6250 C   0  0  0  0  0  0  0  0  0  0  0  0
   -7.8010   20.9990  -32.0240 C   0  0  0  0  0  0  0  0  0  0  0  0
   -4.5300   22.5750  -31.0780 C   0  0  0  0  0  0  0  0  0  0  0  0
   -5.6160   23.4430  -30.8550 C   0  0  0  0  0  0  0  0  0  0  0  0
   -5.5810   24.3740  -29.8270 C   0  0  0  0  0  0  0  0  0  0  0  0
   -4.4250   24.5450  -29.0790 C   0  0  0  0  0  0  0  0  0  0  0  0
   -3.2870   23.7550  -29.3170 C   0  0  0  0  0  0  0  0  0  0  0  0
   -1.9650   24.2670  -28.7620 C   0  0  0  0  0  0  0  0  0  0  0  0
   -0.9050   23.8280  -29.5370 F   0  0  0  0  0  0  0  0  0  0  0  0
   -1.9390   25.6480  -28.7560 F   0  0  0  0  0  0  0  0  0  0  0  0
   -1.7490   23.7770  -27.4870 F   0  0  0  0  0  0  0  0  0  0  0  0
   -3.3970   22.6350  -30.2090 C   0  0  0  0  0  0  0  0  0  0  0  0
   -2.1435   21.4716  -28.1824 H   0  0  0  0  0  0  0  0  0  0  0  0
   -1.3985   20.1627  -29.1614 H   0  0  0  0  0  0  0  0  0  0  0  0
   -0.6753   21.8070  -29.1614 H   0  0  0  0  0  0  0  0  0  0  0  0
   -1.5985   20.0619  -31.4439 H   0  0  0  0  0  0  0  0  0  0  0  0
   -3.3740   20.1209  -33.1662 H   0  0  0  0  0  0  0  0  0  0  0  0
   -6.0540   22.4820  -33.2470 H   0  0  0  0  0  0  0  0  0  0  0  0
   -5.2800   21.2310  -34.0300 H   0  0  0  0  0  0  0  0  0  0  0  0
   -5.5424   18.8534  -33.4432 H   0  0  0  0  0  0  0  0  0  0  0  0
   -7.2613   17.2021  -32.7106 H   0  0  0  0  0  0  0  0  0  0  0  0
   -9.6818   20.4117  -31.1205 H   0  0  0  0  0  0  0  0  0  0  0  0
   -7.9694   22.0712  -31.8452 H   0  0  0  0  0  0  0  0  0  0  0  0
   -6.5025   23.3822  -31.5034 H   0  0  0  0  0  0  0  0  0  0  0  0
   -6.4726   24.9785  -29.6042 H   0  0  0  0  0  0  0  0  0  0  0  0
   -4.3987   25.3096  -28.2886 H   0  0  0  0  0  0  0  0  0  0  0  0
  1  2  1  0
  2  3  2  0
  3  4  1  0
  4  5  2  0
  5  6  1  0
  6  7  1  0
  7  8  2  0
  8  9  1  0
  9 10  2  0
 10 11  1  0
 10 12  1  0
 12 13  2  0
  5 14  1  0
 14 15  2  0
 15 16  1  0
 16 17  2  0
 17 18  1  0
 18 19  1  0
 19 20  1  0
 19 21  1  0
 19 22  1  0
 18 23  2  0
 23  2  1  0
 13  7  1  0
 23 14  1  0
  1 24  1  0
  1 25  1  0
  1 26  1  0
  3 27  1  0
  4 28  1  0
  6 29  1  0
  6 30  1  0
  8 31  1  0
  9 32  1  0
 12 33  1  0
 13 34  1  0
 15 35  1  0
 16 36  1  0
 17 37  1  0
M  CHG  2   2   1   6   1
M  END
>  <UniqueID>  (8) 
8

>  <SMILES>  (8) 
C[n+]1ccc([NH2+]c2ccc(F)cc2)c2cccc(C(F)(F)F)c21

>  <Energy>  (8) 
70.50909006779212

>  <Genealogy>  (8) 
C[n+]1ccc([NH2+]c2ccc(F)cc2)c2cccc(C(F)(F)F)c21 (protonated)
C[n+]1ccc([NH2+]c2ccc(F)cc2)c2cccc(C(F)(F)F)c21 (3D coordinates assigned)
C[n+]1ccc([NH2+]c2ccc(F)cc2)c2cccc(C(F)(F)F)c21 (optimized conformer: 70.50909006779212 kcal/mol)

>  <smiles>  (8) 
C[n+]1ccc(Nc2ccc(F)cc2)c2cccc(C(F)(F)F)c21

>  <score_type>  (8) 
oracle

>  <origin>  (8) 
adg

>  <m_score__min__energy>  (8) 
-6.4100000000000001

>  <m_primary>  (8) 
energy

$$$$
8:0
     RDKit          3D

 44 46  0  0  0  0  0  0  0  0999 V2000
   -1.6870   25.0610  -28.0630 C   0  0  0  0  0  0  0  0  0  0  0  0
   -2.3670   25.2880  -29.2940 O   0  0  0  0  0  0  0  0  0  0  0  0
   -3.2640   24.3820  -29.8810 C   0  0  0  0  0  0  0  0  0  0  0  0
   -4.6530   24.6010  -29.9030 C   0  0  0  0  0  0  0  0  0  0  0  0
   -5.5050   23.6680  -30.5000 C   0  0  0  0  0  0  0  0  0  0  0  0
   -4.9890   22.4990  -31.0890 C   0  0  0  0  0  0  0  0  0  0  0  0
   -5.8700   21.5350  -31.7050 N   0  0  0  0  0  0  0  0  0  0  0  0
   -7.3170   21.7860  -31.7760 C   0  0  0  0  0  0  0  0  0  0  0  0
   -8.0750   20.4570  -31.8470 C   0  0  0  0  0  0  0  0  0  0  0  0
   -7.6620   19.6450  -33.0230 N   0  0  0  0  0  0  0  0  0  0  0  0
   -8.1080   18.2300  -32.9180 C   0  0  0  0  0  0  0  0  0  0  0  0
   -6.9880   17.2080  -32.9930 C   0  0  0  0  0  0  0  0  0  0  0  0
   -6.8220   16.4030  -34.1350 C   0  0  0  0  0  0  0  0  0  0  0  0
   -5.7920   15.4590  -34.1930 C   0  0  0  0  0  0  0  0  0  0  0  0
   -4.9300   15.2950  -33.1060 C   0  0  0  0  0  0  0  0  0  0  0  0
   -5.1050   16.0640  -31.9540 C   0  0  0  0  0  0  0  0  0  0  0  0
   -6.1350   17.0080  -31.8920 C   0  0  0  0  0  0  0  0  0  0  0  0
   -6.2230   19.7810  -33.3930 C   0  0  0  0  0  0  0  0  0  0  0  0
   -5.3450   20.2680  -32.2320 C   0  0  0  0  0  0  0  0  0  0  0  0
   -3.5990   22.2870  -31.0620 C   0  0  0  0  0  0  0  0  0  0  0  0
   -2.7480   23.2200  -30.4640 C   0  0  0  0  0  0  0  0  0  0  0  0
   -2.3621   25.2863  -27.2242 H   0  0  0  0  0  0  0  0  0  0  0  0
   -1.3713   24.0088  -28.0071 H   0  0  0  0  0  0  0  0  0  0  0  0
   -0.8025   25.7126  -28.0071 H   0  0  0  0  0  0  0  0  0  0  0  0
   -5.0708   25.5112  -29.4480 H   0  0  0  0  0  0  0  0  0  0  0  0
   -6.5899   23.8493  -30.5096 H   0  0  0  0  0  0  0  0  0  0  0  0
   -7.6353   22.3398  -30.8804 H   0  0  0  0  0  0  0  0  0  0  0  0
   -7.5378   22.3768  -32.6772 H   0  0  0  0  0  0  0  0  0  0  0  0
   -7.8736   19.8833  -30.9303 H   0  0  0  0  0  0  0  0  0  0  0  0
   -9.1473   20.6811  -31.9471 H   0  0  0  0  0  0  0  0  0  0  0  0
   -8.2020   20.0360  -33.8340 H   0  0  0  0  0  0  0  0  0  0  0  0
   -8.6243   18.1034  -31.9550 H   0  0  0  0  0  0  0  0  0  0  0  0
   -8.7596   18.0430  -33.7843 H   0  0  0  0  0  0  0  0  0  0  0  0
   -7.5071   16.5170  -34.9880 H   0  0  0  0  0  0  0  0  0  0  0  0
   -5.6603   14.8446  -35.0959 H   0  0  0  0  0  0  0  0  0  0  0  0
   -4.1133   14.5599  -33.1577 H   0  0  0  0  0  0  0  0  0  0  0  0
   -4.4323   15.9273  -31.0945 H   0  0  0  0  0  0  0  0  0  0  0  0
   -6.2794   17.5987  -30.9754 H   0  0  0  0  0  0  0  0  0  0  0  0
   -5.8526   18.7995  -33.7240 H   0  0  0  0  0  0  0  0  0  0  0  0
   -6.1598   20.5361  -34.1904 H   0  0  0  0  0  0  0  0  0  0  0  0
   -5.3454   19.5124  -31.4326 H   0  0  0  0  0  0  0  0  0  0  0  0
   -4.3186   20.4246  -32.5953 H   0  0  0  0  0  0  0  0  0  0  0  0
   -3.1777   21.3779  -31.5160 H   0  0  0  0  0  0  0  0  0  0  0  0
   -1.6630   23.0391  -30.4516 H   0  0  0  0  0  0  0  0  0  0  0  0
  1  2  1  0
  2  3  1  0
  3  4  2  0
  4  5  1  0
  5  6  2  0
  6  7  1  0
  7  8  1  0
  8  9  1  0
  9 10  1  0
 10 11  1  0
 11 12  1  0
 12 13  2  0
 13 14  1  0
 14 15  2  0
 15 16  1  0
 16 17  2  0
 10 18  1  0
 18 19  1  0
  6 20  1  0
 20 21  2  0
 21  3  1  0
 19  7  1  0
 17 12  1  0
  1 22  1  0
  1 23  1  0
  1 24  1  0
  4 25  1  0
  5 26  1  0
  8 27  1  0
  8 28  1  0
  9 29  1  0
  9 30  1  0
 10 31  1  0
 11 32  1  0
 11 33  1  0
 13 34  1  0
 14 35  1  0
 15 36  1  0
 16 37  1  0
 17 38  1  0
 18 39  1  0
 18 40  1  0
 19 41  1  0
 19 42  1  0
 20 43  1  0
 21 44  1  0
M  CHG  1  10   1
M  END
>  <UniqueID>  (9) 
9

>  <SMILES>  (9) 
COc1ccc(N2CC[NH+](Cc3ccccc3)CC2)cc1

>  <Energy>  (9) 
58.412186473717476

>  <Genealogy>  (9) 
COc1ccc(N2CC[NH+](Cc3ccccc3)CC2)cc1 (protonated)
COc1ccc(N2CC[NH+](Cc3ccccc3)CC2)cc1 (3D coordinates assigned)
COc1ccc(N2CC[NH+](Cc3ccccc3)CC2)cc1 (nonaromatic ring conformer: 58.412186473717476 kcal/mol)

>  <smiles>  (9) 
COc1ccc(N2CCN(Cc3ccccc3)CC2)cc1

>  <score_type>  (9) 
oracle

>  <origin>  (9) 
adg

>  <m_score__min__energy>  (9) 
-7.0999999999999996

>  <m_primary>  (9) 
energy

$$$$
9:0
     RDKit          3D

 30 31  0  0  0  0  0  0  0  0999 V2000
   -2.9350   23.7140  -31.0210 H   0  0  0  0  0  0  0  0  0  0  0  0
   -2.3240   23.3740  -30.2450 N   0  0  0  0  0  0  0  0  0  0  0  0
   -2.4880   23.7890  -29.0300 C   0  0  0  0  0  0  0  0  0  0  0  0
   -1.2590   23.8910  -27.8870 S   0  0  0  0  0  0  0  0  0  0  0  0
   -2.2910   24.4600  -26.6820 C   0  0  0  0  0  0  0  0  0  0  0  0
   -2.0004   24.7143  -25.6520 H   0  0  0  0  0  0  0  0  0  0  0  0
   -3.5750   24.5530  -27.2140 C   0  0  0  0  0  0  0  0  0  0  0  0
   -4.4376   24.8953  -26.6235 H   0  0  0  0  0  0  0  0  0  0  0  0
   -3.6800   24.1870  -28.5230 N   0  0  0  0  0  0  0  0  0  0  0  0
   -4.9530   24.1750  -29.2510 C   0  0  0  0  0  0  0  0  0  0  0  0
   -5.3139   23.1392  -29.3337 H   0  0  0  0  0  0  0  0  0  0  0  0
   -5.6845   24.7865  -28.7023 H   0  0  0  0  0  0  0  0  0  0  0  0
   -4.7720   24.7490  -30.6300 C   0  0  0  0  0  0  0  0  0  0  0  0
   -3.9070   25.6440  -30.8160 O   0  0  0  0  0  0  0  0  0  0  0  0
   -5.5280   24.2740  -31.7530 N   0  0  0  0  0  0  0  0  0  0  0  0
   -5.9870   22.9310  -31.9660 C   0  0  0  0  0  0  0  0  0  0  0  0
   -7.3520   22.6060  -31.8670 C   0  0  0  0  0  0  0  0  0  0  0  0
   -8.0824   23.3843  -31.6010 H   0  0  0  0  0  0  0  0  0  0  0  0
   -7.7840   21.2990  -32.1050 C   0  0  0  0  0  0  0  0  0  0  0  0
   -9.4870   20.9000  -31.9710 Cl  0  0  0  0  0  0  0  0  0  0  0  0
   -6.8620   20.3130  -32.4620 C   0  0  0  0  0  0  0  0  0  0  0  0
   -7.2025   19.2828  -32.6428 H   0  0  0  0  0  0  0  0  0  0  0  0
   -5.5090   20.6320  -32.5900 C   0  0  0  0  0  0  0  0  0  0  0  0
   -4.7885   19.8530  -32.8799 H   0  0  0  0  0  0  0  0  0  0  0  0
   -5.0610   21.9460  -32.3500 C   0  0  0  0  0  0  0  0  0  0  0  0
   -3.7100   22.3080  -32.4760 O   0  0  0  0  0  0  0  0  0  0  0  0
   -2.6960   21.4630  -33.0090 C   0  0  0  0  0  0  0  0  0  0  0  0
   -2.1365   20.9967  -32.1846 H   0  0  0  0  0  0  0  0  0  0  0  0
   -3.1589   20.6797  -33.6271 H   0  0  0  0  0  0  0  0  0  0  0  0
   -2.0090   22.0596  -33.6271 H   0  0  0  0  0  0  0  0  0  0  0  0
  1  2  1  0
  2  3  2  0
  3  4  1  0
  4  5  1  0
  5  6  1  0
  5  7  2  0
  7  8  1  0
  7  9  1  0
  9 10  1  0
 10 11  1  0
 10 12  1  0
 10 13  1  0
 13 14  2  0
 13 15  1  0
 15 16  1  0
 16 17  2  0
 17 18  1  0
 17 19  1  0
 19 20  1  0
 19 21  2  0
 21 22  1  0
 21 23  1  0
 23 24  1  0
 23 25  2  0
 25 26  1  0
 26 27  1  0
 27 28  1  0
 27 29  1  0
 27 30  1  0
  9  3  1  0
 25 16  1  0
M  CHG  1  15  -1
M  END
>  <UniqueID>  (10) 
10

>  <SMILES>  (10) 
[H]/N=c1\sccn1CC(=O)[N-]c1cc(Cl)ccc1OC

>  <Energy>  (10) 
64.24480824308466

>  <Genealogy>  (10) 
COc1ccc(Cl)cc1[N-]C(=O)Cn1ccsc1=N (protonated)
[H]/N=c1\sccn1CC(=O)[N-]c1cc(Cl)ccc1OC (cis-trans isomerization)
[H]/N=c1\sccn1CC(=O)[N-]c1cc(Cl)ccc1OC (3D coordinates assigned)
[H]/N=c1\sccn1CC(=O)[N-]c1cc(Cl)ccc1OC (optimized conformer: 64.24480824308466 kcal/mol)

>  <smiles>  (10) 
COc1ccc(Cl)cc1NC(=O)Cn1ccsc1=N

>  <score_type>  (10) 
oracle

>  <origin>  (10) 
adg

>  <m_score__min__energy>  (10) 
-8.1300000000000008

>  <m_primary>  (10) 
energy

$$$$
10:0
     RDKit          3D

 61 66  0  0  0  0  0  0  0  0999 V2000
   -3.3580   14.7840  -32.5700 C   0  0  0  0  0  0  0  0  0  0  0  0
   -4.0280   16.0500  -32.8530 N   0  0  0  0  0  0  0  0  0  0  0  0
   -5.2700   16.3880  -32.4630 C   0  0  0  0  0  0  0  0  0  0  0  0
   -5.5170   17.6800  -32.8800 C   0  0  0  0  0  0  0  0  0  0  0  0
   -6.7530   18.4330  -32.5960 C   0  0  0  0  0  0  0  0  0  0  0  0
   -7.0540   19.5910  -33.3300 C   0  0  0  0  0  0  0  0  0  0  0  0
   -8.2280   20.3040  -33.0680 C   0  0  0  0  0  0  0  0  0  0  0  0
   -9.0990   19.8740  -32.0630 C   0  0  0  0  0  0  0  0  0  0  0  0
   -8.7940   18.7350  -31.3150 C   0  0  0  0  0  0  0  0  0  0  0  0
   -7.6230   18.0180  -31.5740 C   0  0  0  0  0  0  0  0  0  0  0  0
   -4.4190   18.1590  -33.5170 N   0  0  0  0  0  0  0  0  0  0  0  0
   -4.1540   19.5570  -33.8900 C   0  0  0  0  0  0  0  0  0  0  0  0
   -3.7260   20.3470  -32.6820 C   0  0  0  0  0  0  0  0  0  0  0  0
   -4.5930   20.5000  -31.5880 C   0  0  0  0  0  0  0  0  0  0  0  0
   -4.1760   21.1910  -30.4470 C   0  0  0  0  0  0  0  0  0  0  0  0
   -2.8890   21.7500  -30.3870 C   0  0  0  0  0  0  0  0  0  0  0  0
   -2.4420   22.4760  -29.1750 C   0  0  0  0  0  0  0  0  0  0  0  0
   -1.4190   21.9040  -28.3980 C   0  0  0  0  0  0  0  0  0  0  0  0
   -1.0260   22.4930  -27.1950 C   0  0  0  0  0  0  0  0  0  0  0  0
   -1.6520   23.6560  -26.7490 C   0  0  0  0  0  0  0  0  0  0  0  0
   -2.6610   24.2450  -27.5130 C   0  0  0  0  0  0  0  0  0  0  0  0
   -3.0540   23.6810  -28.7400 C   0  0  0  0  0  0  0  0  0  0  0  0
   -4.0750   24.3940  -29.5410 C   0  0  0  0  0  0  0  0  0  0  0  0
   -3.9160   24.7470  -30.8310 N   0  0  0  0  0  0  0  0  0  0  0  0
   -5.0670   25.3040  -31.1810 N   0  0  0  0  0  0  0  0  0  0  0  0
   -5.9070   25.2860  -30.1560 N   0  0  0  0  0  0  0  0  0  0  0  0
   -5.3110   24.7190  -29.1230 N   0  0  0  0  0  0  0  0  0  0  0  0
   -2.0200   21.5900  -31.4780 C   0  0  0  0  0  0  0  0  0  0  0  0
   -2.4370   20.8980  -32.6170 C   0  0  0  0  0  0  0  0  0  0  0  0
   -3.5200   17.1420  -33.4720 C   0  0  0  0  0  0  0  0  0  0  0  0
   -2.1390   17.2200  -33.9920 C   0  0  0  0  0  0  0  0  0  0  0  0
   -1.1470   17.8990  -33.2660 C   0  0  0  0  0  0  0  0  0  0  0  0
    0.1580   17.9730  -33.7620 C   0  0  0  0  0  0  0  0  0  0  0  0
    0.4780   17.3770  -34.9840 C   0  0  0  0  0  0  0  0  0  0  0  0
   -0.5070   16.7070  -35.7150 C   0  0  0  0  0  0  0  0  0  0  0  0
   -1.8130   16.6310  -35.2240 C   0  0  0  0  0  0  0  0  0  0  0  0
   -3.2838   14.6437  -31.4815 H   0  0  0  0  0  0  0  0  0  0  0  0
   -3.9366   13.9571  -33.0076 H   0  0  0  0  0  0  0  0  0  0  0  0
   -2.3489   14.7973  -33.0076 H   0  0  0  0  0  0  0  0  0  0  0  0
   -5.9686   15.7452  -31.9073 H   0  0  0  0  0  0  0  0  0  0  0  0
   -6.3645   19.9385  -34.1134 H   0  0  0  0  0  0  0  0  0  0  0  0
   -8.4663   21.2043  -33.6535 H   0  0  0  0  0  0  0  0  0  0  0  0
  -10.0247   20.4328  -31.8613 H   0  0  0  0  0  0  0  0  0  0  0  0
   -9.4772   18.4014  -30.5200 H   0  0  0  0  0  0  0  0  0  0  0  0
   -7.3818   17.1266  -30.9763 H   0  0  0  0  0  0  0  0  0  0  0  0
   -3.3543   19.5860  -34.6448 H   0  0  0  0  0  0  0  0  0  0  0  0
   -5.0743   19.9991  -34.2995 H   0  0  0  0  0  0  0  0  0  0  0  0
   -5.6061   20.0736  -31.6293 H   0  0  0  0  0  0  0  0  0  0  0  0
   -4.8593   21.2976  -29.5916 H   0  0  0  0  0  0  0  0  0  0  0  0
   -0.9238   20.9838  -28.7414 H   0  0  0  0  0  0  0  0  0  0  0  0
   -0.2213   22.0389  -26.5982 H   0  0  0  0  0  0  0  0  0  0  0  0
   -1.3504   24.1102  -25.7936 H   0  0  0  0  0  0  0  0  0  0  0  0
   -3.1538   25.1597  -27.1516 H   0  0  0  0  0  0  0  0  0  0  0  0
   -5.7570   24.5390  -28.1970 H   0  0  0  0  0  0  0  0  0  0  0  0
   -1.0051   22.0121  -31.4354 H   0  0  0  0  0  0  0  0  0  0  0  0
   -1.7505   20.7840  -33.4689 H   0  0  0  0  0  0  0  0  0  0  0  0
   -1.3972   18.3734  -32.3056 H   0  0  0  0  0  0  0  0  0  0  0  0
    0.9341   18.5015  -33.1889 H   0  0  0  0  0  0  0  0  0  0  0  0
    1.5059   17.4350  -35.3713 H   0  0  0  0  0  0  0  0  0  0  0  0
   -0.2539   16.2391  -36.6778 H   0  0  0  0  0  0  0  0  0  0  0  0
   -2.5877   16.1083  -35.8043 H   0  0  0  0  0  0  0  0  0  0  0  0
  1  2  1  0
  2  3  1  0
  3  4  2  0
  4  5  1  0
  5  6  2  0
  6  7  1  0
  7  8  2  0
  8  9  1  0
  9 10  2  0
  4 11  1  0
 11 12  1  0
 12 13  1  0
 13 14  2  0
 14 15  1  0
 15 16  2  0
 16 17  1  0
 17 18  2  0
 18 19  1  0
 19 20  2  0
 20 21  1  0
 21 22  2  0
 22 23  1  0
 23 24  2  0
 24 25  1  0
 25 26  1  0
 26 27  2  0
 16 28  1  0
 28 29  2  0
 11 30  1  0
 30 31  1  0
 31 32  2  0
 32 33  1  0
 33 34  2  0
 34 35  1  0
 35 36  2  0
 30  2  2  0
 36 31  1  0
 10  5  1  0
 29 13  1  0
 22 17  1  0
 27 23  1  0
  1 37  1  0
  1 38  1  0
  1 39  1  0
  3 40  1  0
  6 41  1  0
  7 42  1  0
  8 43  1  0
  9 44  1  0
 10 45  1  0
 12 46  1  0
 12 47  1  0
 14 48  1  0
 15 49  1  0
 18 50  1  0
 19 51  1  0
 20 52  1  0
 21 53  1  0
 27 54  1  0
 28 55  1  0
 29 56  1  0
 32 57  1  0
 33 58  1  0
 34 59  1  0
 35 60  1  0
 36 61  1  0
M  CHG  3   2   1  25  -1  27   1
M  END
>  <UniqueID>  (11) 
11

>  <SMILES>  (11) 
C[n+]1cc(-c2ccccc2)n(Cc2ccc(-c3ccccc3-c3n[n-]n[nH+]3)cc2)c1-c1ccccc1

>  <Energy>  (11) 
159.29913644207622

>  <Genealogy>  (11) 
C[n+]1cc(-c2ccccc2)n(Cc2ccc(-c3ccccc3-c3n[n-]n[nH+]3)cc2)c1-c1ccccc1 (protonated)
C[n+]1cc(-c2ccccc2)n(Cc2ccc(-c3ccccc3-c3n[n-]n[nH+]3)cc2)c1-c1ccccc1 (3D coordinates assigned)
C[n+]1cc(-c2ccccc2)n(Cc2ccc(-c3ccccc3-c3n[n-]n[nH+]3)cc2)c1-c1ccccc1 (optimized conformer: 159.29913644207622 kcal/mol)

>  <smiles>  (11) 
C[n+]1cc(-c2ccccc2)n(Cc2ccc(-c3ccccc3-c3nn[nH]n3)cc2)c1-c1ccccc1

>  <score_type>  (11) 
oracle

>  <origin>  (11) 
adg

>  <m_score__min__energy>  (11) 
-10.91

>  <m_primary>  (11) 
energy

$$$$
11:0
     RDKit          3D

 44 46  0  0  0  0  0  0  0  0999 V2000
   -8.7360   18.2060  -31.5950 C   0  0  0  0  0  0  0  0  0  0  0  0
   -8.7160   19.2330  -32.7250 C   0  0  0  0  0  0  0  0  0  0  0  0
   -7.8390   20.3800  -32.3850 N   0  0  0  0  0  0  0  0  0  0  0  0
   -8.3900   21.5470  -31.8880 C   0  0  0  0  0  0  0  0  0  0  0  0
   -9.8670   21.6850  -31.5960 C   0  0  0  0  0  0  0  0  0  0  0  0
   -7.5720   22.6480  -31.6040 C   0  0  0  0  0  0  0  0  0  0  0  0
   -6.2000   22.5760  -31.8180 C   0  0  0  0  0  0  0  0  0  0  0  0
   -5.6360   21.4020  -32.3210 C   0  0  0  0  0  0  0  0  0  0  0  0
   -6.4760   20.3030  -32.6210 C   0  0  0  0  0  0  0  0  0  0  0  0
   -5.8650   19.0760  -33.1890 C   0  0  0  0  0  0  0  0  0  0  0  0
   -5.3710   18.0780  -32.3380 C   0  0  0  0  0  0  0  0  0  0  0  0
   -4.7650   16.9370  -32.8710 C   0  0  0  0  0  0  0  0  0  0  0  0
   -4.6520   16.7740  -34.2620 C   0  0  0  0  0  0  0  0  0  0  0  0
   -3.9550   15.5660  -34.8360 C   0  0  0  0  0  0  0  0  0  0  0  0
   -3.4270   15.8520  -36.0830 F   0  0  0  0  0  0  0  0  0  0  0  0
   -4.8400   14.5110  -34.9730 F   0  0  0  0  0  0  0  0  0  0  0  0
   -2.9300   15.1880  -33.9890 F   0  0  0  0  0  0  0  0  0  0  0  0
   -5.1130   17.7980  -35.1090 C   0  0  0  0  0  0  0  0  0  0  0  0
   -5.7170   18.9390  -34.5750 C   0  0  0  0  0  0  0  0  0  0  0  0
   -4.1390   21.4000  -32.5600 C   0  0  0  0  0  0  0  0  0  0  0  0
   -3.3990   22.0260  -31.3670 C   0  0  0  0  0  0  0  0  0  0  0  0
   -4.0110   23.3590  -30.8650 C   0  0  0  0  0  0  0  0  0  0  0  0
   -5.3130   23.7700  -31.5740 C   0  0  0  0  0  0  0  0  0  0  0  0
   -8.7259   18.7267  -30.6261 H   0  0  0  0  0  0  0  0  0  0  0  0
   -9.6462   17.5933  -31.6725 H   0  0  0  0  0  0  0  0  0  0  0  0
   -7.8503   17.5583  -31.6725 H   0  0  0  0  0  0  0  0  0  0  0  0
   -8.3414   18.7528  -33.6410 H   0  0  0  0  0  0  0  0  0  0  0  0
   -9.7392   19.6070  -32.8770 H   0  0  0  0  0  0  0  0  0  0  0  0
  -10.0258   21.6998  -30.5076 H   0  0  0  0  0  0  0  0  0  0  0  0
  -10.2414   22.6220  -32.0340 H   0  0  0  0  0  0  0  0  0  0  0  0
  -10.4085   20.8335  -32.0340 H   0  0  0  0  0  0  0  0  0  0  0  0
   -8.0169   23.5736  -31.2100 H   0  0  0  0  0  0  0  0  0  0  0  0
   -5.4605   18.1931  -31.2477 H   0  0  0  0  0  0  0  0  0  0  0  0
   -4.3737   16.1610  -32.1967 H   0  0  0  0  0  0  0  0  0  0  0  0
   -4.9972   17.6998  -36.1985 H   0  0  0  0  0  0  0  0  0  0  0  0
   -6.0777   19.7328  -35.2457 H   0  0  0  0  0  0  0  0  0  0  0  0
   -3.7959   20.3636  -32.6945 H   0  0  0  0  0  0  0  0  0  0  0  0
   -3.9233   21.9927  -33.4612 H   0  0  0  0  0  0  0  0  0  0  0  0
   -3.4138   21.3055  -30.5359 H   0  0  0  0  0  0  0  0  0  0  0  0
   -2.3811   22.2576  -31.7139 H   0  0  0  0  0  0  0  0  0  0  0  0
   -4.2224   23.2568  -29.7904 H   0  0  0  0  0  0  0  0  0  0  0  0
   -3.2733   24.1446  -31.0853 H   0  0  0  0  0  0  0  0  0  0  0  0
   -5.8511   24.4943  -30.9449 H   0  0  0  0  0  0  0  0  0  0  0  0
   -5.0550   24.2170  -32.5454 H   0  0  0  0  0  0  0  0  0  0  0  0
  1  2  1  0
  2  3  1  0
  3  4  2  0
  4  5  1  0
  4  6  1  0
  6  7  2  0
  7  8  1  0
  8  9  2  0
  9 10  1  0
 10 11  2  0
 11 12  1  0
 12 13  2  0
 13 14  1  0
 14 15  1  0
 14 16  1  0
 14 17  1  0
 13 18  1  0
 18 19  2  0
  8 20  1  0
 20 21  1  0
 21 22  1  0
 22 23  1  0
  9  3  1  0
 19 10  1  0
 23  7  1  0
  1 24  1  0
  1 25  1  0
  1 26  1  0
  2 27  1  0
  2 28  1  0
  5 29  1  0
  5 30  1  0
  5 31  1  0
  6 32  1  0
 11 33  1  0
 12 34  1  0
 18 35  1  0
 19 36  1  0
 20 37  1  0
 20 38  1  0
 21 39  1  0
 21 40  1  0
 22 41  1  0
 22 42  1  0
 23 43  1  0
 23 44  1  0
M  CHG  1   3   1
M  END
>  <UniqueID>  (12) 
12

>  <SMILES>  (12) 
CC[n+]1c(C)cc2c(c1-c1ccc(C(F)(F)F)cc1)CCCC2

>  <Energy>  (12) 
62.23688275905747

>  <Genealogy>  (12) 
CC[n+]1c(C)cc2c(c1-c1ccc(C(F)(F)F)cc1)CCCC2 (3D coordinates assigned)
CC[n+]1c(C)cc2c(c1-c1ccc(C(F)(F)F)cc1)CCCC2 (nonaromatic ring conformer: 62.23688275905747 kcal/mol)

>  <smiles>  (12) 
CC[n+]1c(C)cc2c(c1-c1ccc(C(F)(F)F)cc1)CCCC2

>  <score_type>  (12) 
oracle

>  <origin>  (12) 
adg

>  <m_score__min__energy>  (12) 
-7.2199999999999998

>  <m_primary>  (12) 
energy

$$$$
12:0
     RDKit          3D

 26 27  0  0  0  0  0  0  0  0999 V2000
   -6.2390   25.6610  -29.4770 C   0  0  0  0  0  0  0  0  0  0  0  0
   -5.4140   25.6260  -30.7570 C   0  0  0  0  0  0  0  0  0  0  0  0
   -4.0530   25.3090  -30.4710 O   0  0  0  0  0  0  0  0  0  0  0  0
   -3.6020   24.0090  -30.2110 C   0  0  0  0  0  0  0  0  0  0  0  0
   -2.8520   23.4100  -31.0290 O   0  0  0  0  0  0  0  0  0  0  0  0
   -4.0700   23.3040  -28.9800 C   0  0  0  0  0  0  0  0  0  0  0  0
   -3.7330   24.0920  -27.8020 N   0  0  0  0  0  0  0  0  0  0  0  0
   -4.6110   24.5550  -26.9130 N   0  0  0  0  0  0  0  0  0  0  0  0
   -3.9930   25.3060  -26.0020 N   0  0  0  0  0  0  0  0  0  0  0  0
   -2.6900   25.3300  -26.3340 C   0  0  0  0  0  0  0  0  0  0  0  0
   -1.6210   25.9910  -25.7450 C   0  0  0  0  0  0  0  0  0  0  0  0
   -0.3650   25.8410  -26.3670 C   0  0  0  0  0  0  0  0  0  0  0  0
   -0.2450   25.0500  -27.5410 C   0  0  0  0  0  0  0  0  0  0  0  0
    0.8770   24.9220  -28.0980 O   0  0  0  0  0  0  0  0  0  0  0  0
   -1.3410   24.4270  -28.0760 N   0  0  0  0  0  0  0  0  0  0  0  0
   -2.5340   24.5810  -27.4500 C   0  0  0  0  0  0  0  0  0  0  0  0
   -5.5669   25.6325  -28.6067 H   0  0  0  0  0  0  0  0  0  0  0  0
   -6.8349   26.5852  -29.4500 H   0  0  0  0  0  0  0  0  0  0  0  0
   -6.9110   24.7906  -29.4500 H   0  0  0  0  0  0  0  0  0  0  0  0
   -5.8281   24.8632  -31.4328 H   0  0  0  0  0  0  0  0  0  0  0  0
   -5.4541   26.6179  -31.2309 H   0  0  0  0  0  0  0  0  0  0  0  0
   -5.1605   23.1685  -29.0290 H   0  0  0  0  0  0  0  0  0  0  0  0
   -3.5773   22.3228  -28.9138 H   0  0  0  0  0  0  0  0  0  0  0  0
   -4.4570   25.7890  -25.2020 H   0  0  0  0  0  0  0  0  0  0  0  0
   -1.7476   26.6011  -24.8385 H   0  0  0  0  0  0  0  0  0  0  0  0
    0.5215   26.3360  -25.9438 H   0  0  0  0  0  0  0  0  0  0  0  0
  1  2  1  0
  2  3  1  0
  3  4  1  0
  4  5  2  0
  4  6  1  0
  6  7  1  0
  7  8  1  0
  8  9  2  0
  9 10  1  0
 10 11  1  0
 11 12  2  0
 12 13  1  0
 13 14  2  0
 13 15  1  0
 15 16  1  0
 16  7  1  0
 16 10  2  0
  1 17  1  0
  1 18  1  0
  1 19  1  0
  2 20  1  0
  2 21  1  0
  6 22  1  0
  6 23  1  0
  9 24  1  0
 11 25  1  0
 12 26  1  0
M  CHG  2   9   1  15  -1
M  END
>  <UniqueID>  (13) 
13

>  <SMILES>  (13) 
CCOC(=O)Cn1n[nH+]c2ccc(=O)[n-]c21

>  <Energy>  (13) 
68.36687164537905

>  <Genealogy>  (13) 
CCOC(=O)Cn1n[nH+]c2ccc(=O)[n-]c21 (protonated)
CCOC(=O)Cn1n[nH+]c2ccc(=O)[n-]c21 (3D coordinates assigned)
CCOC(=O)Cn1n[nH+]c2ccc(=O)[n-]c21 (optimized conformer: 68.36687164537905 kcal/mol)

>  <smiles>  (13) 
CCOC(=O)Cn1nnc2ccc(=O)[nH]c21

>  <score_type>  (13) 
oracle

>  <origin>  (13) 
adg

>  <m_score__min__energy>  (13) 
-6.4800000000000004

>  <m_primary>  (13) 
energy

$$$$
13:0
     RDKit          3D

 52 55  0  0  0  0  0  0  0  0999 V2000
    1.7730   20.3980  -34.4600 C   0  0  0  0  0  0  0  0  0  0  0  0
    0.4610   20.7590  -33.7550 C   0  0  0  0  0  0  0  0  0  0  0  0
   -0.7650   20.4280  -34.6500 C   0  0  0  0  0  0  0  0  0  0  0  0
   -1.9910   19.9560  -33.8490 C   0  0  0  0  0  0  0  0  0  0  0  0
   -2.0450   20.6280  -32.5430 N   0  0  0  0  0  0  0  0  0  0  0  0
   -3.1980   21.4000  -32.1530 C   0  0  0  0  0  0  0  0  0  0  0  0
   -3.0360   22.6270  -31.4950 C   0  0  0  0  0  0  0  0  0  0  0  0
   -4.1540   23.3840  -31.1310 C   0  0  0  0  0  0  0  0  0  0  0  0
   -3.9420   24.6860  -30.4680 C   0  0  0  0  0  0  0  0  0  0  0  0
   -4.6070   25.6820  -30.8490 O   0  0  0  0  0  0  0  0  0  0  0  0
   -2.9690   24.8490  -29.4310 N   0  0  0  0  0  0  0  0  0  0  0  0
   -2.8910   24.0320  -28.2180 C   0  0  2  0  0  0  0  0  0  0  0  0
   -2.7210   24.9360  -26.9830 C   0  0  0  0  0  0  0  0  0  0  0  0
   -1.2590   25.3620  -26.8820 C   0  0  0  0  0  0  0  0  0  0  0  0
   -0.3400   24.0180  -27.5640 S   0  0  0  0  0  0  0  0  0  0  0  0
    0.3450   23.2120  -26.4950 O   0  0  0  0  0  0  0  0  0  0  0  0
    0.6470   24.4890  -28.5950 O   0  0  0  0  0  0  0  0  0  0  0  0
   -1.6680   23.1120  -28.3010 C   0  0  0  0  0  0  0  0  0  0  0  0
   -5.4470   22.8860  -31.3990 C   0  0  0  0  0  0  0  0  0  0  0  0
   -6.6130   23.6010  -31.0560 C   0  0  0  0  0  0  0  0  0  0  0  0
   -7.8740   23.0710  -31.3340 C   0  0  0  0  0  0  0  0  0  0  0  0
   -7.9930   21.8320  -31.9660 C   0  0  0  0  0  0  0  0  0  0  0  0
   -6.8460   21.1110  -32.3160 C   0  0  0  0  0  0  0  0  0  0  0  0
   -5.5710   21.6280  -32.0400 C   0  0  0  0  0  0  0  0  0  0  0  0
   -4.4560   20.9260  -32.3930 N   0  0  0  0  0  0  0  0  0  0  0  0
   -0.8900   20.5370  -31.6390 C   0  0  0  0  0  0  0  0  0  0  0  0
    0.3710   20.0690  -32.3810 C   0  0  0  0  0  0  0  0  0  0  0  0
    2.5469   20.1851  -33.7078 H   0  0  0  0  0  0  0  0  0  0  0  0
    1.6186   19.5090  -35.0891 H   0  0  0  0  0  0  0  0  0  0  0  0
    2.0952   21.2409  -35.0891 H   0  0  0  0  0  0  0  0  0  0  0  0
    0.4507   21.8450  -33.5806 H   0  0  0  0  0  0  0  0  0  0  0  0
   -1.0417   21.3322  -35.2121 H   0  0  0  0  0  0  0  0  0  0  0  0
   -0.4710   19.6020  -35.3143 H   0  0  0  0  0  0  0  0  0  0  0  0
   -2.9048   20.1909  -34.4146 H   0  0  0  0  0  0  0  0  0  0  0  0
   -1.9126   18.8709  -33.6868 H   0  0  0  0  0  0  0  0  0  0  0  0
   -2.0257   22.9958  -31.2641 H   0  0  0  0  0  0  0  0  0  0  0  0
   -3.8159   23.4429  -28.1310 H   0  0  0  0  0  0  0  0  0  0  0  0
   -3.3591   25.8261  -27.0859 H   0  0  0  0  0  0  0  0  0  0  0  0
   -3.0137   24.3875  -26.0755 H   0  0  0  0  0  0  0  0  0  0  0  0
   -1.0840   26.2818  -27.4594 H   0  0  0  0  0  0  0  0  0  0  0  0
   -0.9637   25.5788  -25.8448 H   0  0  0  0  0  0  0  0  0  0  0  0
   -1.4359   22.8756  -29.3499 H   0  0  0  0  0  0  0  0  0  0  0  0
   -1.8427   22.1555  -27.7867 H   0  0  0  0  0  0  0  0  0  0  0  0
   -6.5283   24.5824  -30.5664 H   0  0  0  0  0  0  0  0  0  0  0  0
   -8.7778   23.6320  -31.0539 H   0  0  0  0  0  0  0  0  0  0  0  0
   -8.9892   21.4222  -32.1890 H   0  0  0  0  0  0  0  0  0  0  0  0
   -6.9444   20.1333  -32.8104 H   0  0  0  0  0  0  0  0  0  0  0  0
   -4.5650   20.0070  -32.8800 H   0  0  0  0  0  0  0  0  0  0  0  0
   -0.6999   21.5281  -31.2013 H   0  0  0  0  0  0  0  0  0  0  0  0
   -1.1224   19.8006  -30.8556 H   0  0  0  0  0  0  0  0  0  0  0  0
    1.2599   20.3253  -31.7859 H   0  0  0  0  0  0  0  0  0  0  0  0
    0.3206   18.9799  -32.5268 H   0  0  0  0  0  0  0  0  0  0  0  0
  1  2  1  0
  2  3  1  0
  3  4  1  0
  4  5  1  0
  5  6  1  0
  6  7  2  0
  7  8  1  0
  8  9  1  0
  9 10  2  0
  9 11  1  0
 11 12  1  0
 12 13  1  0
 13 14  1  0
 14 15  1  0
 15 16  2  0
 15 17  2  0
 15 18  1  0
  8 19  2  0
 19 20  1  0
 20 21  2  0
 21 22  1  0
 22 23  2  0
 23 24  1  0
 24 25  2  0
  5 26  1  0
 26 27  1  0
 27  2  1  0
 25  6  1  0
 18 12  1  0
 24 19  1  0
  1 28  1  0
  1 29  1  0
  1 30  1  0
  2 31  1  0
  3 32  1  0
  3 33  1  0
  4 34  1  0
  4 35  1  0
  7 36  1  0
 12 37  1  1
 13 38  1  0
 13 39  1  0
 14 40  1  0
 14 41  1  0
 18 42  1  0
 18 43  1  0
 20 44  1  0
 21 45  1  0
 22 46  1  0
 23 47  1  0
 25 48  1  0
 26 49  1  0
 26 50  1  0
 27 51  1  0
 27 52  1  0
M  CHG  2  11  -1  25   1
M  END
>  <UniqueID>  (14) 
14

>  <SMILES>  (14) 
CC1CCN(c2cc(C(=O)[N-][C@@H]3CCS(=O)(=O)C3)c3ccccc3[nH+]2)CC1

>  <Energy>  (14) 
65.43644597869206

>  <Genealogy>  (14) 
CC1CCN(c2cc(C(=O)[N-]C3CCS(=O)(=O)C3)c3ccccc3[nH+]2)CC1 (protonated)
CC1CCN(c2cc(C(=O)[N-][C@@H]3CCS(=O)(=O)C3)c3ccccc3[nH+]2)CC1 (chirality)
CC1CCN(c2cc(C(=O)[N-][C@@H]3CCS(=O)(=O)C3)c3ccccc3[nH+]2)CC1 (3D coordinates assigned)
CC1CCN(c2cc(C(=O)[N-][C@@H]3CCS(=O)(=O)C3)c3ccccc3[nH+]2)CC1 (nonaromatic ring conformer: 65.43644597869206 kcal/mol)

>  <smiles>  (14) 
CC1CCN(c2cc(C(=O)NC3CCS(=O)(=O)C3)c3ccccc3n2)CC1

>  <score_type>  (14) 
oracle

>  <origin>  (14) 
adg

>  <m_score__min__energy>  (14) 
-10.140000000000001

>  <m_primary>  (14) 
energy

$$$$
14:0
     RDKit          3D

 42 44  0  0  0  0  0  0  0  0999 V2000
   -4.6100   17.7270  -32.8370 C   0  0  0  0  0  0  0  0  0  0  0  0
   -5.9430   18.4060  -32.7290 C   0  0  0  0  0  0  0  0  0  0  0  0
   -6.8560   18.0180  -31.7380 C   0  0  0  0  0  0  0  0  0  0  0  0
   -8.0830   18.6740  -31.6150 C   0  0  0  0  0  0  0  0  0  0  0  0
   -8.4140   19.7310  -32.4780 C   0  0  0  0  0  0  0  0  0  0  0  0
   -9.7360   20.4370  -32.3360 C   0  0  0  0  0  0  0  0  0  0  0  0
   -9.5490   21.7900  -31.8100 N   0  0  0  0  0  0  0  0  0  0  0  0
   -8.2720   22.3550  -31.4500 C   0  0  0  0  0  0  0  0  0  0  0  0
   -7.6870   22.1280  -30.1890 C   0  0  0  0  0  0  0  0  0  0  0  0
   -6.4450   22.6880  -29.8740 C   0  0  0  0  0  0  0  0  0  0  0  0
   -5.7720   23.4830  -30.8100 C   0  0  0  0  0  0  0  0  0  0  0  0
   -4.2200   24.2160  -30.4170 S   0  0  0  0  0  0  0  0  0  0  0  0
   -4.2440   25.6620  -30.8270 O   0  0  0  0  0  0  0  0  0  0  0  0
   -3.1030   23.5290  -31.1530 O   0  0  0  0  0  0  0  0  0  0  0  0
   -3.9360   24.1110  -28.7090 N   0  0  0  0  0  0  0  0  0  0  0  0
   -2.8980   24.6160  -28.1180 C   0  0  0  0  0  0  0  0  0  0  0  0
   -2.7090   24.3880  -26.7910 N   0  0  0  0  0  0  0  0  0  0  0  0
   -1.6310   24.8980  -26.1390 C   0  0  0  0  0  0  0  0  0  0  0  0
   -0.6990   25.6700  -26.8320 C   0  0  0  0  0  0  0  0  0  0  0  0
   -0.9060   25.8960  -28.1920 C   0  0  0  0  0  0  0  0  0  0  0  0
   -1.9960   25.3690  -28.8070 N   0  0  0  0  0  0  0  0  0  0  0  0
   -6.3530   23.7210  -32.0590 C   0  0  0  0  0  0  0  0  0  0  0  0
   -7.5940   23.1610  -32.3770 C   0  0  0  0  0  0  0  0  0  0  0  0
   -7.4860   20.1390  -33.4500 C   0  0  0  0  0  0  0  0  0  0  0  0
   -6.2580   19.4830  -33.5730 C   0  0  0  0  0  0  0  0  0  0  0  0
   -4.2176   17.5271  -31.8290 H   0  0  0  0  0  0  0  0  0  0  0  0
   -4.7251   16.7777  -33.3806 H   0  0  0  0  0  0  0  0  0  0  0  0
   -3.9097   18.3783  -33.3806 H   0  0  0  0  0  0  0  0  0  0  0  0
   -6.6049   17.1935  -31.0545 H   0  0  0  0  0  0  0  0  0  0  0  0
   -8.7946   18.3605  -30.8370 H   0  0  0  0  0  0  0  0  0  0  0  0
  -10.2204   20.4971  -33.3218 H   0  0  0  0  0  0  0  0  0  0  0  0
  -10.3650   19.8697  -31.6341 H   0  0  0  0  0  0  0  0  0  0  0  0
  -10.3990   22.3940  -31.7360 H   0  0  0  0  0  0  0  0  0  0  0  0
   -8.2103   21.5064  -29.4475 H   0  0  0  0  0  0  0  0  0  0  0  0
   -5.9950   22.5034  -28.8874 H   0  0  0  0  0  0  0  0  0  0  0  0
   -1.4938   24.7019  -25.0653 H   0  0  0  0  0  0  0  0  0  0  0  0
    0.1780   26.0903  -26.3181 H   0  0  0  0  0  0  0  0  0  0  0  0
   -0.1878   26.5001  -28.7658 H   0  0  0  0  0  0  0  0  0  0  0  0
   -5.8318   24.3513  -32.7945 H   0  0  0  0  0  0  0  0  0  0  0  0
   -8.0428   23.3540  -33.3626 H   0  0  0  0  0  0  0  0  0  0  0  0
   -7.7269   20.9792  -34.1179 H   0  0  0  0  0  0  0  0  0  0  0  0
   -5.5352   19.8118  -34.3342 H   0  0  0  0  0  0  0  0  0  0  0  0
  1  2  1  0
  2  3  2  0
  3  4  1  0
  4  5  2  0
  5  6  1  0
  6  7  1  0
  7  8  1  0
  8  9  2  0
  9 10  1  0
 10 11  2  0
 11 12  1  0
 12 13  2  0
 12 14  2  0
 12 15  1  0
 15 16  2  3
 16 17  1  0
 17 18  2  0
 18 19  1  0
 19 20  2  0
 20 21  1  0
 11 22  1  0
 22 23  2  0
  5 24  1  0
 24 25  2  0
 25  2  1  0
 23  8  1  0
 21 16  1  0
  1 26  1  0
  1 27  1  0
  1 28  1  0
  3 29  1  0
  4 30  1  0
  6 31  1  0
  6 32  1  0
  7 33  1  0
  9 34  1  0
 10 35  1  0
 18 36  1  0
 19 37  1  0
 20 38  1  0
 22 39  1  0
 23 40  1  0
 24 41  1  0
 25 42  1  0
M  CHG  1  21  -1
M  END
>  <UniqueID>  (15) 
15

>  <SMILES>  (15) 
Cc1ccc(CNc2ccc(S(=O)(=O)N=c3nccc[n-]3)cc2)cc1

>  <Energy>  (15) 
46.89152017328414

>  <Genealogy>  (15) 
Cc1ccc(CNc2ccc(S(=O)(=O)N=c3nccc[n-]3)cc2)cc1 (protonated)
Cc1ccc(CNc2ccc(S(=O)(=O)N=c3nccc[n-]3)cc2)cc1 (3D coordinates assigned)
Cc1ccc(CNc2ccc(S(=O)(=O)N=c3nccc[n-]3)cc2)cc1 (optimized conformer: 46.89152017328414 kcal/mol)

>  <smiles>  (15) 
Cc1ccc(CNc2ccc(S(=O)(=O)N=c3nccc[nH]3)cc2)cc1

>  <score_type>  (15) 
oracle

>  <origin>  (15) 
adg

>  <m_score__min__energy>  (15) 
-10.5

>  <m_primary>  (15) 
energy

$$$$
15:0
     RDKit          3D

 43 45  0  0  0  0  0  0  0  0999 V2000
   -0.8210   26.9140  -27.9530 C   0  0  0  0  0  0  0  0  0  0  0  0
   -1.2980   26.0290  -28.9610 O   0  0  0  0  0  0  0  0  0  0  0  0
   -1.7620   24.7260  -28.7210 C   0  0  0  0  0  0  0  0  0  0  0  0
   -1.0650   23.8250  -27.8910 C   0  0  0  0  0  0  0  0  0  0  0  0
   -1.5560   22.5350  -27.6790 C   0  0  0  0  0  0  0  0  0  0  0  0
   -2.7390   22.1270  -28.2970 C   0  0  0  0  0  0  0  0  0  0  0  0
   -3.4370   23.0090  -29.1240 C   0  0  0  0  0  0  0  0  0  0  0  0
   -2.9640   24.3190  -29.3250 C   0  0  0  0  0  0  0  0  0  0  0  0
   -3.6600   25.2360  -30.1830 N   0  0  0  0  0  0  0  0  0  0  0  0
   -4.9070   24.9870  -30.8460 C   0  0  0  0  0  0  0  0  0  0  0  0
   -5.7620   25.9100  -30.8950 O   0  0  0  0  0  0  0  0  0  0  0  0
   -5.2400   23.6670  -31.4140 C   0  0  0  0  0  0  0  0  0  0  0  0
   -6.4120   22.9520  -31.2200 C   0  0  0  0  0  0  0  0  0  0  0  0
   -6.2450   21.8010  -31.9710 C   0  0  0  0  0  0  0  0  0  0  0  0
   -7.2070   20.6800  -32.0510 C   0  0  0  0  0  0  0  0  0  0  0  0
   -6.7100   19.3670  -32.1220 C   0  0  0  0  0  0  0  0  0  0  0  0
   -7.5820   18.2780  -32.1670 C   0  0  0  0  0  0  0  0  0  0  0  0
   -7.0890   17.0170  -32.2290 F   0  0  0  0  0  0  0  0  0  0  0  0
   -8.9610   18.4870  -32.1350 C   0  0  0  0  0  0  0  0  0  0  0  0
   -9.4720   19.7850  -32.0660 C   0  0  0  0  0  0  0  0  0  0  0  0
   -8.6080   20.8930  -32.0380 C   0  0  0  0  0  0  0  0  0  0  0  0
   -9.2000   22.2770  -31.9740 C   0  0  0  0  0  0  0  0  0  0  0  0
   -5.0420   21.8520  -32.5860 N   0  0  0  0  0  0  0  0  0  0  0  0
   -4.4530   20.8420  -33.4620 C   0  0  0  0  0  0  0  0  0  0  0  0
   -4.4360   22.9790  -32.2480 N   0  0  0  0  0  0  0  0  0  0  0  0
   -1.0465   26.4955  -26.9610 H   0  0  0  0  0  0  0  0  0  0  0  0
    0.2667   27.0390  -28.0596 H   0  0  0  0  0  0  0  0  0  0  0  0
   -1.3146   27.8913  -28.0596 H   0  0  0  0  0  0  0  0  0  0  0  0
   -0.1286   24.1399  -27.4073 H   0  0  0  0  0  0  0  0  0  0  0  0
   -1.0099   21.8398  -27.0244 H   0  0  0  0  0  0  0  0  0  0  0  0
   -3.1220   21.1091  -28.1322 H   0  0  0  0  0  0  0  0  0  0  0  0
   -4.3610   22.6784  -29.6208 H   0  0  0  0  0  0  0  0  0  0  0  0
   -7.2800   23.2357  -30.6068 H   0  0  0  0  0  0  0  0  0  0  0  0
   -5.6235   19.1961  -32.1423 H   0  0  0  0  0  0  0  0  0  0  0  0
   -9.6472   17.6278  -32.1642 H   0  0  0  0  0  0  0  0  0  0  0  0
  -10.5603   19.9414  -32.0333 H   0  0  0  0  0  0  0  0  0  0  0  0
   -9.3267   22.5733  -30.9223 H   0  0  0  0  0  0  0  0  0  0  0  0
   -8.5270   22.9873  -32.4765 H   0  0  0  0  0  0  0  0  0  0  0  0
  -10.1785   22.2808  -32.4765 H   0  0  0  0  0  0  0  0  0  0  0  0
   -3.9919   20.0513  -32.8519 H   0  0  0  0  0  0  0  0  0  0  0  0
   -5.2377   20.4046  -34.0968 H   0  0  0  0  0  0  0  0  0  0  0  0
   -3.6860   21.3096  -34.0968 H   0  0  0  0  0  0  0  0  0  0  0  0
   -3.4880   23.2680  -32.5770 H   0  0  0  0  0  0  0  0  0  0  0  0
  1  2  1  0
  2  3  1  0
  3  4  2  0
  4  5  1  0
  5  6  2  0
  6  7  1  0
  7  8  2  0
  8  9  1  0
  9 10  1  0
 10 11  2  0
 10 12  1  0
 12 13  1  0
 13 14  2  0
 14 15  1  0
 15 16  2  0
 16 17  1  0
 17 18  1  0
 17 19  2  0
 19 20  1  0
 20 21  2  0
 21 22  1  0
 14 23  1  0
 23 24  1  0
 23 25  1  0
  8  3  1  0
 25 12  2  0
 21 15  1  0
  1 26  1  0
  1 27  1  0
  1 28  1  0
  4 29  1  0
  5 30  1  0
  6 31  1  0
  7 32  1  0
 13 33  1  0
 16 34  1  0
 19 35  1  0
 20 36  1  0
 22 37  1  0
 22 38  1  0
 22 39  1  0
 24 40  1  0
 24 41  1  0
 24 42  1  0
 25 43  1  0
M  CHG  2   9  -1  25   1
M  END
>  <UniqueID>  (16) 
16

>  <SMILES>  (16) 
COc1ccccc1[N-]C(=O)c1cc(-c2cc(F)ccc2C)n(C)[nH+]1

>  <Energy>  (16) 
86.02153712122468

>  <Genealogy>  (16) 
COc1ccccc1[N-]C(=O)c1cc(-c2cc(F)ccc2C)n(C)[nH+]1 (protonated)
COc1ccccc1[N-]C(=O)c1cc(-c2cc(F)ccc2C)n(C)[nH+]1 (3D coordinates assigned)
COc1ccccc1[N-]C(=O)c1cc(-c2cc(F)ccc2C)n(C)[nH+]1 (optimized conformer: 86.02153712122468 kcal/mol)

>  <smiles>  (16) 
COc1ccccc1NC(=O)c1cc(-c2cc(F)ccc2C)n(C)n1

>  <score_type>  (16) 
oracle

>  <origin>  (16) 
adg

>  <m_score__min__energy>  (16) 
-10.49

>  <m_primary>  (16) 
energy

$$$$
16:0
     RDKit          3D

 49 50  0  0  0  0  0  0  0  0999 V2000
   -4.2030   18.1470  -34.6600 C   0  0  0  0  0  0  0  0  0  0  0  0
   -3.1180   18.4470  -33.6170 C   0  0  0  0  0  0  0  0  0  0  0  0
   -2.1640   17.2500  -33.4990 C   0  0  0  0  0  0  0  0  0  0  0  0
   -2.3720   19.7470  -33.9910 C   0  0  0  0  0  0  0  0  0  0  0  0
   -2.4540   20.8160  -32.8990 C   0  0  0  0  0  0  0  0  0  0  0  0
   -3.7360   20.7530  -32.2800 O   0  0  0  0  0  0  0  0  0  0  0  0
   -4.4170   21.8540  -31.7400 C   0  0  0  0  0  0  0  0  0  0  0  0
   -3.7520   23.0250  -31.3440 C   0  0  0  0  0  0  0  0  0  0  0  0
   -4.4760   24.0860  -30.7940 C   0  0  0  0  0  0  0  0  0  0  0  0
   -3.8620   25.1310  -30.4450 O   0  0  0  0  0  0  0  0  0  0  0  0
   -5.8340   23.9910  -30.6350 N   0  0  0  0  0  0  0  0  0  0  0  0
   -6.5860   25.1130  -30.0610 C   0  0  0  0  0  0  0  0  0  0  0  0
   -6.4980   22.8590  -31.0210 C   0  0  0  0  0  0  0  0  0  0  0  0
   -5.8080   21.7770  -31.5820 C   0  0  0  0  0  0  0  0  0  0  0  0
   -6.5250   20.5970  -31.9830 N   0  0  0  0  0  0  0  0  0  0  0  0
   -7.7910   20.7720  -32.7190 C   0  0  0  0  0  0  0  0  0  0  0  0
   -9.0160   20.2050  -31.9810 C   0  0  0  0  0  0  0  0  0  0  0  0
   -8.7950   18.7980  -31.3930 C   0  0  0  0  0  0  0  0  0  0  0  0
   -8.0420   17.8160  -32.3090 C   0  0  0  0  0  0  0  0  0  0  0  0
   -6.5460   18.1310  -32.4710 C   0  0  0  0  0  0  0  0  0  0  0  0
   -6.0110   19.2750  -31.5830 C   0  0  0  0  0  0  0  0  0  0  0  0
   -5.1416   17.8875  -34.1485 H   0  0  0  0  0  0  0  0  0  0  0  0
   -4.3619   19.0349  -35.2896 H   0  0  0  0  0  0  0  0  0  0  0  0
   -3.8832   17.3036  -35.2896 H   0  0  0  0  0  0  0  0  0  0  0  0
   -3.5814   18.6029  -32.6316 H   0  0  0  0  0  0  0  0  0  0  0  0
   -1.9858   17.0264  -32.4368 H   0  0  0  0  0  0  0  0  0  0  0  0
   -2.6137   16.3732  -33.9878 H   0  0  0  0  0  0  0  0  0  0  0  0
   -1.2089   17.4927  -33.9878 H   0  0  0  0  0  0  0  0  0  0  0  0
   -1.3133   19.5058  -34.1673 H   0  0  0  0  0  0  0  0  0  0  0  0
   -2.8539   20.1568  -34.8909 H   0  0  0  0  0  0  0  0  0  0  0  0
   -1.6724   20.6346  -32.1466 H   0  0  0  0  0  0  0  0  0  0  0  0
   -2.3054   21.8114  -33.3430 H   0  0  0  0  0  0  0  0  0  0  0  0
   -2.6620   23.1073  -31.4665 H   0  0  0  0  0  0  0  0  0  0  0  0
   -6.5480   25.0564  -28.9631 H   0  0  0  0  0  0  0  0  0  0  0  0
   -6.1407   26.0618  -30.3948 H   0  0  0  0  0  0  0  0  0  0  0  0
   -7.6329   25.0618  -30.3948 H   0  0  0  0  0  0  0  0  0  0  0  0
   -7.5883   22.7977  -30.8890 H   0  0  0  0  0  0  0  0  0  0  0  0
   -7.9515   21.8477  -32.8839 H   0  0  0  0  0  0  0  0  0  0  0  0
   -7.6957   20.2138  -33.6620 H   0  0  0  0  0  0  0  0  0  0  0  0
   -9.2711   20.8883  -31.1576 H   0  0  0  0  0  0  0  0  0  0  0  0
   -9.8234   20.1176  -32.7230 H   0  0  0  0  0  0  0  0  0  0  0  0
   -8.2190   18.9048  -30.4619 H   0  0  0  0  0  0  0  0  0  0  0  0
   -9.7967   18.3689  -31.2430 H   0  0  0  0  0  0  0  0  0  0  0  0
   -8.1384   16.8053  -31.8856 H   0  0  0  0  0  0  0  0  0  0  0  0
   -8.4947   17.9029  -33.3078 H   0  0  0  0  0  0  0  0  0  0  0  0
   -5.9791   17.2199  -32.2291 H   0  0  0  0  0  0  0  0  0  0  0  0
   -6.4177   18.4682  -33.5102 H   0  0  0  0  0  0  0  0  0  0  0  0
   -6.3107   19.0816  -30.5424 H   0  0  0  0  0  0  0  0  0  0  0  0
   -4.9170   19.2973  -31.6954 H   0  0  0  0  0  0  0  0  0  0  0  0
  1  2  1  0
  2  3  1  0
  2  4  1  0
  4  5  1  0
  5  6  1  0
  6  7  1  0
  7  8  2  0
  8  9  1  0
  9 10  2  0
  9 11  1  0
 11 12  1  0
 11 13  1  0
 13 14  2  0
 14 15  1  0
 15 16  1  0
 16 17  1  0
 17 18  1  0
 18 19  1  0
 19 20  1  0
 20 21  1  0
 14  7  1  0
 21 15  1  0
  1 22  1  0
  1 23  1  0
  1 24  1  0
  2 25  1  0
  3 26  1  0
  3 27  1  0
  3 28  1  0
  4 29  1  0
  4 30  1  0
  5 31  1  0
  5 32  1  0
  8 33  1  0
 12 34  1  0
 12 35  1  0
 12 36  1  0
 13 37  1  0
 16 38  1  0
 16 39  1  0
 17 40  1  0
 17 41  1  0
 18 42  1  0
 18 43  1  0
 19 44  1  0
 19 45  1  0
 20 46  1  0
 20 47  1  0
 21 48  1  0
 21 49  1  0
M  END
>  <UniqueID>  (17) 
17

>  <SMILES>  (17) 
CC(C)CCOc1cc(=O)n(C)cc1N1CCCCCC1

>  <Energy>  (17) 
50.62652688044581

>  <Genealogy>  (17) 
CC(C)CCOc1cc(=O)n(C)cc1N1CCCCCC1 (3D coordinates assigned)
CC(C)CCOc1cc(=O)n(C)cc1N1CCCCCC1 (nonaromatic ring conformer: 50.62652688044581 kcal/mol)

>  <smiles>  (17) 
CC(C)CCOc1cc(=O)n(C)cc1N1CCCCCC1

>  <score_type>  (17) 
oracle

>  <origin>  (17) 
adg

>  <m_score__min__energy>  (17) 
-5.0899999999999999

>  <m_primary>  (17) 
energy

$$$$
17:0
     RDKit          3D

 45 47  0  0  0  0  0  0  0  0999 V2000
   -1.8910   21.0970  -32.1990 C   0  0  0  0  0  0  0  0  0  0  0  0
   -3.2220   21.5900  -31.6030 C   0  0  2  0  0  0  0  0  0  0  0  0
   -4.2050   22.0180  -32.7190 C   0  0  0  0  0  0  0  0  0  0  0  0
   -5.2030   20.9480  -33.0950 C   0  0  0  0  0  0  0  0  0  0  0  0
   -4.8190   19.9500  -33.7650 O   0  0  0  0  0  0  0  0  0  0  0  0
   -6.6020   20.9960  -32.5930 C   0  0  0  0  0  0  0  0  0  0  0  0
   -7.2490   22.2430  -32.4830 C   0  0  0  0  0  0  0  0  0  0  0  0
   -8.5300   22.3370  -31.9390 C   0  0  0  0  0  0  0  0  0  0  0  0
   -9.1860   21.1930  -31.4890 C   0  0  0  0  0  0  0  0  0  0  0  0
   -8.5690   19.9470  -31.5950 C   0  0  0  0  0  0  0  0  0  0  0  0
   -7.2850   19.8300  -32.1550 C   0  0  0  0  0  0  0  0  0  0  0  0
   -6.7140   18.4750  -32.3190 C   0  0  0  0  0  0  0  0  0  0  0  0
   -6.5750   17.9080  -33.5940 C   0  0  0  0  0  0  0  0  0  0  0  0
   -6.0290   16.6320  -33.7320 C   0  0  0  0  0  0  0  0  0  0  0  0
   -5.6160   15.9360  -32.5940 C   0  0  0  0  0  0  0  0  0  0  0  0
   -5.7410   16.5030  -31.3640 N   0  0  0  0  0  0  0  0  0  0  0  0
   -6.2710   17.7470  -31.2050 C   0  0  0  0  0  0  0  0  0  0  0  0
   -2.9880   22.7750  -30.6380 C   0  0  0  0  0  0  0  0  0  0  0  0
   -4.2340   23.5940  -30.4350 C   0  0  0  0  0  0  0  0  0  0  0  0
   -5.3910   23.0220  -29.8870 C   0  0  0  0  0  0  0  0  0  0  0  0
   -6.5360   23.8080  -29.7340 C   0  0  0  0  0  0  0  0  0  0  0  0
   -6.5180   25.1460  -30.1270 C   0  0  0  0  0  0  0  0  0  0  0  0
   -5.3510   25.6820  -30.6730 C   0  0  0  0  0  0  0  0  0  0  0  0
   -4.2450   24.9020  -30.8170 N   0  0  0  0  0  0  0  0  0  0  0  0
   -1.1975   20.8401  -31.3847 H   0  0  0  0  0  0  0  0  0  0  0  0
   -2.0742   20.2071  -32.8191 H   0  0  0  0  0  0  0  0  0  0  0  0
   -1.4503   21.8915  -32.8191 H   0  0  0  0  0  0  0  0  0  0  0  0
   -3.6631   20.7527  -31.0422 H   0  0  0  0  0  0  0  0  0  0  0  0
   -4.7591   22.9029  -32.3727 H   0  0  0  0  0  0  0  0  0  0  0  0
   -3.6021   22.2235  -33.6158 H   0  0  0  0  0  0  0  0  0  0  0  0
   -6.7378   23.1530  -32.8302 H   0  0  0  0  0  0  0  0  0  0  0  0
   -9.0238   23.3172  -31.8650 H   0  0  0  0  0  0  0  0  0  0  0  0
  -10.1914   21.2729  -31.0498 H   0  0  0  0  0  0  0  0  0  0  0  0
   -9.0917   19.0477  -31.2372 H   0  0  0  0  0  0  0  0  0  0  0  0
   -6.8962   18.4688  -34.4841 H   0  0  0  0  0  0  0  0  0  0  0  0
   -5.9246   16.1779  -34.7285 H   0  0  0  0  0  0  0  0  0  0  0  0
   -5.1887   14.9272  -32.6925 H   0  0  0  0  0  0  0  0  0  0  0  0
   -5.4220   15.9740  -30.5220 H   0  0  0  0  0  0  0  0  0  0  0  0
   -6.3521   18.1831  -30.1984 H   0  0  0  0  0  0  0  0  0  0  0  0
   -2.6603   22.3806  -29.6648 H   0  0  0  0  0  0  0  0  0  0  0  0
   -2.2222   23.4277  -31.0824 H   0  0  0  0  0  0  0  0  0  0  0  0
   -5.3972   21.9655  -29.5808 H   0  0  0  0  0  0  0  0  0  0  0  0
   -7.4500   23.3722  -29.3043 H   0  0  0  0  0  0  0  0  0  0  0  0
   -7.4144   25.7723  -30.0078 H   0  0  0  0  0  0  0  0  0  0  0  0
   -5.3250   26.7358  -30.9873 H   0  0  0  0  0  0  0  0  0  0  0  0
  1  2  1  0
  2  3  1  0
  3  4  1  0
  4  5  2  0
  4  6  1  0
  6  7  2  0
  7  8  1  0
  8  9  2  0
  9 10  1  0
 10 11  2  0
 11 12  1  0
 12 13  2  0
 13 14  1  0
 14 15  2  0
 15 16  1  0
 16 17  2  0
  2 18  1  0
 18 19  1  0
 19 20  2  0
 20 21  1  0
 21 22  2  0
 22 23  1  0
 23 24  2  0
 11  6  1  0
 17 12  1  0
 24 19  1  0
  1 25  1  0
  1 26  1  0
  1 27  1  0
  2 28  1  1
  3 29  1  0
  3 30  1  0
  7 31  1  0
  8 32  1  0
  9 33  1  0
 10 34  1  0
 13 35  1  0
 14 36  1  0
 15 37  1  0
 16 38  1  0
 17 39  1  0
 18 40  1  0
 18 41  1  0
 20 42  1  0
 21 43  1  0
 22 44  1  0
 23 45  1  0
M  CHG  1  16   1
M  END
>  <UniqueID>  (18) 
18

>  <SMILES>  (18) 
C[C@H](CC(=O)c1ccccc1-c1ccc[nH+]c1)Cc1ccccn1

>  <Energy>  (18) 
54.487314200106965

>  <Genealogy>  (18) 
CC(CC(=O)c1ccccc1-c1ccc[nH+]c1)Cc1ccccn1 (protonated)
C[C@H](CC(=O)c1ccccc1-c1ccc[nH+]c1)Cc1ccccn1 (chirality)
C[C@H](CC(=O)c1ccccc1-c1ccc[nH+]c1)Cc1ccccn1 (3D coordinates assigned)
C[C@H](CC(=O)c1ccccc1-c1ccc[nH+]c1)Cc1ccccn1 (optimized conformer: 54.487314200106965 kcal/mol)

>  <smiles>  (18) 
CC(CC(=O)c1ccccc1-c1cccnc1)Cc1ccccn1

>  <score_type>  (18) 
oracle

>  <origin>  (18) 
adg

>  <m_score__min__energy>  (18) 
-9.0999999999999996

>  <m_primary>  (18) 
energy

$$$$
18:0
     RDKit          3D

 39 40  0  0  0  0  0  0  0  0999 V2000
   -7.9337   21.7563  -29.6716 H   0  0  0  0  0  0  0  0  0  0  0  0
   -7.6210   22.4700  -30.4480 C   0  0  0  0  0  0  0  0  0  0  0  0
   -8.3660   22.6440  -31.4940 N   0  0  0  0  0  0  0  0  0  0  0  0
   -9.1220   21.5570  -32.1060 C   0  0  0  0  0  0  0  0  0  0  0  0
   -8.8291   21.4604  -33.1619 H   0  0  0  0  0  0  0  0  0  0  0  0
  -10.1963   21.7818  -32.0329 H   0  0  0  0  0  0  0  0  0  0  0  0
   -8.8370   20.2380  -31.3790 C   0  0  0  0  0  0  0  0  0  0  0  0
   -9.7420   19.6137  -31.4128 H   0  0  0  0  0  0  0  0  0  0  0  0
   -8.5521   20.4808  -30.3446 H   0  0  0  0  0  0  0  0  0  0  0  0
   -7.7170   19.4850  -31.9900 N   0  0  0  0  0  0  0  0  0  0  0  0
   -8.1440   18.1030  -32.2670 C   0  0  0  0  0  0  0  0  0  0  0  0
   -8.3079   17.5726  -31.3174 H   0  0  0  0  0  0  0  0  0  0  0  0
   -9.0796   18.1172  -32.8453 H   0  0  0  0  0  0  0  0  0  0  0  0
   -7.3634   17.5870  -32.8453 H   0  0  0  0  0  0  0  0  0  0  0  0
   -7.1980   20.1280  -33.2230 C   0  0  0  0  0  0  0  0  0  0  0  0
   -7.5350   19.5575  -34.1010 H   0  0  0  0  0  0  0  0  0  0  0  0
   -7.5775   21.1589  -33.2801 H   0  0  0  0  0  0  0  0  0  0  0  0
   -5.6910   20.1560  -33.1940 C   0  0  0  0  0  0  0  0  0  0  0  0
   -5.0140   21.3800  -33.0540 C   0  0  0  0  0  0  0  0  0  0  0  0
   -5.5868   22.3126  -32.9439 H   0  0  0  0  0  0  0  0  0  0  0  0
   -3.6170   21.4180  -33.0540 C   0  0  0  0  0  0  0  0  0  0  0  0
   -3.0937   22.3799  -32.9491 H   0  0  0  0  0  0  0  0  0  0  0  0
   -2.8840   20.2360  -33.1870 C   0  0  0  0  0  0  0  0  0  0  0  0
   -1.7845   20.2683  -33.1965 H   0  0  0  0  0  0  0  0  0  0  0  0
   -3.5490   19.0120  -33.3080 C   0  0  0  0  0  0  0  0  0  0  0  0
   -2.9715   18.0809  -33.4058 H   0  0  0  0  0  0  0  0  0  0  0  0
   -4.9470   18.9690  -33.3050 C   0  0  0  0  0  0  0  0  0  0  0  0
   -5.4659   18.0028  -33.3898 H   0  0  0  0  0  0  0  0  0  0  0  0
   -6.3600   23.2160  -30.2850 C   0  0  0  0  0  0  0  0  0  0  0  0
   -6.3280   24.6220  -30.3380 C   0  0  0  0  0  0  0  0  0  0  0  0
   -7.2527   25.1835  -30.5370 H   0  0  0  0  0  0  0  0  0  0  0  0
   -5.1270   25.3080  -30.1390 C   0  0  0  0  0  0  0  0  0  0  0  0
   -5.1099   26.4070  -30.1815 H   0  0  0  0  0  0  0  0  0  0  0  0
   -3.9470   24.6020  -29.8860 C   0  0  0  0  0  0  0  0  0  0  0  0
   -2.7590   25.2960  -29.6870 O   0  0  0  0  0  0  0  0  0  0  0  0
   -3.9690   23.2010  -29.8340 C   0  0  0  0  0  0  0  0  0  0  0  0
   -2.3680   22.2140  -29.4820 Br  0  0  0  0  0  0  0  0  0  0  0  0
   -5.1700   22.5140  -30.0340 C   0  0  0  0  0  0  0  0  0  0  0  0
   -5.1829   21.4148  -29.9944 H   0  0  0  0  0  0  0  0  0  0  0  0
  1  2  1  0
  2  3  2  0
  3  4  1  0
  4  5  1  0
  4  6  1  0
  4  7  1  0
  7  8  1  0
  7  9  1  0
  7 10  1  0
 10 11  1  0
 11 12  1  0
 11 13  1  0
 11 14  1  0
 10 15  1  0
 15 16  1  0
 15 17  1  0
 15 18  1  0
 18 19  2  0
 19 20  1  0
 19 21  1  0
 21 22  1  0
 21 23  2  0
 23 24  1  0
 23 25  1  0
 25 26  1  0
 25 27  2  0
 27 28  1  0
  2 29  1  0
 29 30  2  0
 30 31  1  0
 30 32  1  0
 32 33  1  0
 32 34  2  0
 34 35  1  0
 34 36  1  0
 36 37  1  0
 36 38  2  0
 38 39  1  0
 27 18  1  0
 38 29  1  0
M  CHG  1  35  -1
M  END
>  <UniqueID>  (19) 
19

>  <SMILES>  (19) 
CN(CC/N=C/c1ccc([O-])c(Br)c1)Cc1ccccc1

>  <Energy>  (19) 
34.49173352183515

>  <Genealogy>  (19) 
CN(CCN=Cc1ccc([O-])c(Br)c1)Cc1ccccc1 (protonated)
CN(CC/N=C/c1ccc([O-])c(Br)c1)Cc1ccccc1 (cis-trans isomerization)
CN(CC/N=C/c1ccc([O-])c(Br)c1)Cc1ccccc1 (3D coordinates assigned)
CN(CC/N=C/c1ccc([O-])c(Br)c1)Cc1ccccc1 (optimized conformer: 34.49173352183515 kcal/mol)

>  <smiles>  (19) 
CN(CCN=Cc1ccc(O)c(Br)c1)Cc1ccccc1

>  <score_type>  (19) 
oracle

>  <origin>  (19) 
adg

>  <m_score__min__energy>  (19) 
-10.970000000000001

>  <m_primary>  (19) 
energy

$$$$
19:0
     RDKit          3D

 33 34  0  0  0  0  0  0  0  0999 V2000
   -5.0090   24.8400  -29.8810 C   0  0  0  0  0  0  0  0  0  0  0  0
   -3.7010   24.7030  -30.4260 O   0  0  0  0  0  0  0  0  0  0  0  0
   -3.1220   23.4840  -30.8110 C   0  0  0  0  0  0  0  0  0  0  0  0
   -3.6870   22.6780  -31.8200 C   0  0  0  0  0  0  0  0  0  0  0  0
   -3.0920   21.4650  -32.1710 C   0  0  0  0  0  0  0  0  0  0  0  0
   -1.9290   21.0420  -31.5260 C   0  0  0  0  0  0  0  0  0  0  0  0
   -1.1300   19.3730  -31.9980 Br  0  0  0  0  0  0  0  0  0  0  0  0
   -1.3570   21.8330  -30.5280 C   0  0  0  0  0  0  0  0  0  0  0  0
   -1.9520   23.0500  -30.1600 C   0  0  0  0  0  0  0  0  0  0  0  0
   -1.2590   24.0080  -28.8470 S   0  0  0  0  0  0  0  0  0  0  0  0
    0.2380   23.9680  -28.9620 O   0  0  0  0  0  0  0  0  0  0  0  0
   -1.6520   23.4360  -27.5130 O   0  0  0  0  0  0  0  0  0  0  0  0
   -1.7930   25.6630  -28.9540 N   0  0  0  0  0  0  0  0  0  0  0  0
   -0.8570   26.5720  -28.2870 C   0  0  0  0  0  0  0  0  0  0  0  0
   -0.5610   26.1100  -26.8860 C   0  0  0  0  0  0  0  0  0  0  0  0
    0.6830   25.5440  -26.5750 C   0  0  0  0  0  0  0  0  0  0  0  0
    0.9560   25.1570  -25.2610 C   0  0  0  0  0  0  0  0  0  0  0  0
    0.0160   25.3200  -24.2910 N   0  0  0  0  0  0  0  0  0  0  0  0
   -1.2060   25.8520  -24.5690 C   0  0  0  0  0  0  0  0  0  0  0  0
   -1.5190   26.2500  -25.8700 C   0  0  0  0  0  0  0  0  0  0  0  0
   -4.9510   24.8339  -28.7825 H   0  0  0  0  0  0  0  0  0  0  0  0
   -5.4498   25.7892  -30.2197 H   0  0  0  0  0  0  0  0  0  0  0  0
   -5.6369   24.0027  -30.2197 H   0  0  0  0  0  0  0  0  0  0  0  0
   -4.6023   23.0069  -32.3339 H   0  0  0  0  0  0  0  0  0  0  0  0
   -3.5409   20.8411  -32.9579 H   0  0  0  0  0  0  0  0  0  0  0  0
   -0.4355   21.5010  -30.0275 H   0  0  0  0  0  0  0  0  0  0  0  0
    0.0813   26.6060  -28.8601 H   0  0  0  0  0  0  0  0  0  0  0  0
   -1.3149   27.5709  -28.2368 H   0  0  0  0  0  0  0  0  0  0  0  0
    1.4398   25.4054  -27.3611 H   0  0  0  0  0  0  0  0  0  0  0  0
    1.9334   24.7193  -25.0098 H   0  0  0  0  0  0  0  0  0  0  0  0
    0.2370   25.0320  -23.3120 H   0  0  0  0  0  0  0  0  0  0  0  0
   -1.9489   25.9686  -23.7662 H   0  0  0  0  0  0  0  0  0  0  0  0
   -2.5097   26.6705  -26.0972 H   0  0  0  0  0  0  0  0  0  0  0  0
  1  2  1  0
  2  3  1  0
  3  4  2  0
  4  5  1  0
  5  6  2  0
  6  7  1  0
  6  8  1  0
  8  9  2  0
  9 10  1  0
 10 11  2  0
 10 12  2  0
 10 13  1  0
 13 14  1  0
 14 15  1  0
 15 16  2  0
 16 17  1  0
 17 18  2  0
 18 19  1  0
 19 20  2  0
  9  3  1  0
 20 15  1  0
  1 21  1  0
  1 22  1  0
  1 23  1  0
  4 24  1  0
  5 25  1  0
  8 26  1  0
 14 27  1  0
 14 28  1  0
 16 29  1  0
 17 30  1  0
 18 31  1  0
 19 32  1  0
 20 33  1  0
M  CHG  2  13  -1  18   1
M  END
>  <UniqueID>  (20) 
20

>  <SMILES>  (20) 
COc1ccc(Br)cc1S(=O)(=O)[N-]Cc1cc[nH+]cc1

>  <Energy>  (20) 
28.066718935649188

>  <Genealogy>  (20) 
COc1ccc(Br)cc1S(=O)(=O)[N-]Cc1cc[nH+]cc1 (protonated)
COc1ccc(Br)cc1S(=O)(=O)[N-]Cc1cc[nH+]cc1 (3D coordinates assigned)
COc1ccc(Br)cc1S(=O)(=O)[N-]Cc1cc[nH+]cc1 (optimized conformer: 28.066718935649188 kcal/mol)

>  <smiles>  (20) 
COc1ccc(Br)cc1S(=O)(=O)NCc1ccncc1

>  <score_type>  (20) 
oracle

>  <origin>  (20) 
adg

>  <m_score__min__energy>  (20) 
-8.1899999999999995

>  <m_primary>  (20) 
energy

$$$$
20:0
     RDKit          3D

 35 37  0  0  0  0  0  0  0  0999 V2000
    2.1670   24.8480  -26.6070 C   0  0  0  0  0  0  0  0  0  0  0  0
    1.1940   25.3500  -27.5180 O   0  0  0  0  0  0  0  0  0  0  0  0
   -0.1820   25.1030  -27.4200 C   0  0  0  0  0  0  0  0  0  0  0  0
   -0.9100   25.3360  -26.2370 C   0  0  0  0  0  0  0  0  0  0  0  0
   -2.2830   25.0790  -26.1920 C   0  0  0  0  0  0  0  0  0  0  0  0
   -2.9430   24.5870  -27.3210 C   0  0  0  0  0  0  0  0  0  0  0  0
   -2.2300   24.3440  -28.5050 C   0  0  0  0  0  0  0  0  0  0  0  0
   -2.9350   23.8360  -29.7340 C   0  0  0  0  0  0  0  0  0  0  0  0
   -3.5280   24.9470  -30.4710 N   0  0  0  0  0  0  0  0  0  0  0  0
   -4.9390   25.1130  -30.6590 C   0  0  0  0  0  0  0  0  0  0  0  0
   -5.4670   26.2420  -30.4710 O   0  0  0  0  0  0  0  0  0  0  0  0
   -5.7750   23.9610  -31.0690 C   0  0  0  0  0  0  0  0  0  0  0  0
   -7.1160   23.8470  -30.6090 C   0  0  0  0  0  0  0  0  0  0  0  0
   -7.9210   22.7590  -30.9920 C   0  0  0  0  0  0  0  0  0  0  0  0
   -7.3610   21.8050  -31.8350 C   0  0  0  0  0  0  0  0  0  0  0  0
   -7.8880   20.6540  -32.3720 C   0  0  0  0  0  0  0  0  0  0  0  0
   -6.8550   20.1180  -33.1320 C   0  0  0  0  0  0  0  0  0  0  0  0
   -5.7830   20.8870  -33.0600 O   0  0  0  0  0  0  0  0  0  0  0  0
   -6.0750   21.9020  -32.2860 C   0  0  0  0  0  0  0  0  0  0  0  0
   -5.2490   22.9640  -31.9250 C   0  0  0  0  0  0  0  0  0  0  0  0
   -0.8510   24.6100  -28.5480 C   0  0  0  0  0  0  0  0  0  0  0  0
    1.8280   25.0229  -25.5753 H   0  0  0  0  0  0  0  0  0  0  0  0
    2.3004   23.7685  -26.7711 H   0  0  0  0  0  0  0  0  0  0  0  0
    3.1240   25.3649  -26.7711 H   0  0  0  0  0  0  0  0  0  0  0  0
   -0.3956   25.7220  -25.3446 H   0  0  0  0  0  0  0  0  0  0  0  0
   -2.8456   25.2646  -25.2652 H   0  0  0  0  0  0  0  0  0  0  0  0
   -4.0244   24.3896  -27.2816 H   0  0  0  0  0  0  0  0  0  0  0  0
   -2.2112   23.3171  -30.3796 H   0  0  0  0  0  0  0  0  0  0  0  0
   -3.7320   23.1418  -29.4291 H   0  0  0  0  0  0  0  0  0  0  0  0
   -7.5292   24.6202  -29.9447 H   0  0  0  0  0  0  0  0  0  0  0  0
   -8.9579   22.6659  -30.6369 H   0  0  0  0  0  0  0  0  0  0  0  0
   -8.9007   20.2482  -32.2315 H   0  0  0  0  0  0  0  0  0  0  0  0
   -6.9207   19.1854  -33.7115 H   0  0  0  0  0  0  0  0  0  0  0  0
   -4.2151   23.0262  -32.2954 H   0  0  0  0  0  0  0  0  0  0  0  0
   -0.2907   24.4293  -29.4772 H   0  0  0  0  0  0  0  0  0  0  0  0
  1  2  1  0
  2  3  1  0
  3  4  2  0
  4  5  1  0
  5  6  2  0
  6  7  1  0
  7  8  1  0
  8  9  1  0
  9 10  1  0
 10 11  2  0
 10 12  1  0
 12 13  2  0
 13 14  1  0
 14 15  2  0
 15 16  1  0
 16 17  2  0
 17 18  1  0
 18 19  1  0
 19 20  2  0
  7 21  2  0
 21  3  1  0
 20 12  1  0
 19 15  1  0
  1 22  1  0
  1 23  1  0
  1 24  1  0
  4 25  1  0
  5 26  1  0
  6 27  1  0
  8 28  1  0
  8 29  1  0
 13 30  1  0
 14 31  1  0
 16 32  1  0
 17 33  1  0
 20 34  1  0
 21 35  1  0
M  CHG  1   9  -1
M  END
>  <UniqueID>  (21) 
21

>  <SMILES>  (21) 
COc1cccc(C[N-]C(=O)c2ccc3ccoc3c2)c1

>  <Energy>  (21) 
68.73940101885452

>  <Genealogy>  (21) 
COc1cccc(C[N-]C(=O)c2ccc3ccoc3c2)c1 (protonated)
COc1cccc(C[N-]C(=O)c2ccc3ccoc3c2)c1 (3D coordinates assigned)
COc1cccc(C[N-]C(=O)c2ccc3ccoc3c2)c1 (optimized conformer: 68.73940101885452 kcal/mol)

>  <smiles>  (21) 
COc1cccc(CNC(=O)c2ccc3ccoc3c2)c1

>  <score_type>  (21) 
oracle

>  <origin>  (21) 
adg

>  <m_score__min__energy>  (21) 
-9.0399999999999991

>  <m_primary>  (21) 
energy

$$$$
21:0
     RDKit          3D

 38 41  0  0  0  0  0  0  0  0999 V2000
   -1.6300   24.9920  -28.1650 C   0  0  0  0  0  0  0  0  0  0  0  0
   -2.3640   25.2950  -29.3450 O   0  0  0  0  0  0  0  0  0  0  0  0
   -3.3890   24.4760  -29.8280 C   0  0  0  0  0  0  0  0  0  0  0  0
   -3.4420   23.1380  -29.4350 C   0  0  0  0  0  0  0  0  0  0  0  0
   -4.4630   22.3180  -29.9170 C   0  0  0  0  0  0  0  0  0  0  0  0
   -5.4290   22.8330  -30.8000 C   0  0  0  0  0  0  0  0  0  0  0  0
   -6.5360   21.9950  -31.3270 C   0  0  0  0  0  0  0  0  0  0  0  0
   -7.8830   22.2860  -31.0520 C   0  0  0  0  0  0  0  0  0  0  0  0
   -8.8830   21.4590  -31.5660 C   0  0  0  0  0  0  0  0  0  0  0  0
   -8.5460   20.3510  -32.3430 C   0  0  0  0  0  0  0  0  0  0  0  0
   -7.1940   20.0760  -32.6020 C   0  0  0  0  0  0  0  0  0  0  0  0
   -6.7900   18.9380  -33.3900 N   0  0  0  0  0  0  0  0  0  0  0  0
   -7.0190   17.6480  -33.0690 C   0  0  0  0  0  0  0  0  0  0  0  0
   -6.4700   16.8520  -34.0570 C   0  0  0  0  0  0  0  0  0  0  0  0
   -6.4740   15.3860  -34.1260 C   0  0  0  0  0  0  0  0  0  0  0  0
   -7.5010   14.6670  -34.6290 N   0  0  0  0  0  0  0  0  0  0  0  0
   -7.2580   13.3300  -34.5790 C   0  0  0  0  0  0  0  0  0  0  0  0
   -6.0310   12.9730  -34.0330 C   0  0  0  0  0  0  0  0  0  0  0  0
   -5.2280   14.3870  -33.6010 S   0  0  0  0  0  0  0  0  0  0  0  0
   -5.9070   17.7270  -34.9650 C   0  0  0  0  0  0  0  0  0  0  0  0
   -6.1170   18.9840  -34.5320 N   0  0  0  0  0  0  0  0  0  0  0  0
   -6.2400   20.9000  -32.0830 N   0  0  0  0  0  0  0  0  0  0  0  0
   -5.3410   24.1900  -31.1600 C   0  0  0  0  0  0  0  0  0  0  0  0
   -4.3350   24.9660  -30.6760 N   0  0  0  0  0  0  0  0  0  0  0  0
   -2.2361   25.2422  -27.2818 H   0  0  0  0  0  0  0  0  0  0  0  0
   -1.3858   23.9195  -28.1503 H   0  0  0  0  0  0  0  0  0  0  0  0
   -0.7004   25.5799  -28.1503 H   0  0  0  0  0  0  0  0  0  0  0  0
   -2.6835   22.7322  -28.7494 H   0  0  0  0  0  0  0  0  0  0  0  0
   -4.5125   21.2643  -29.6050 H   0  0  0  0  0  0  0  0  0  0  0  0
   -8.1472   23.1586  -30.4366 H   0  0  0  0  0  0  0  0  0  0  0  0
   -9.9399   21.6818  -31.3577 H   0  0  0  0  0  0  0  0  0  0  0  0
   -9.3327   19.6983  -32.7493 H   0  0  0  0  0  0  0  0  0  0  0  0
   -7.5510   17.2909  -32.1749 H   0  0  0  0  0  0  0  0  0  0  0  0
   -7.9803   12.5851  -34.9442 H   0  0  0  0  0  0  0  0  0  0  0  0
   -5.6521   11.9482  -33.9058 H   0  0  0  0  0  0  0  0  0  0  0  0
   -5.3766   17.4445  -35.8863 H   0  0  0  0  0  0  0  0  0  0  0  0
   -5.7770   19.8460  -35.0120 H   0  0  0  0  0  0  0  0  0  0  0  0
   -6.0905   24.6258  -31.8370 H   0  0  0  0  0  0  0  0  0  0  0  0
  1  2  1  0
  2  3  1  0
  3  4  2  0
  4  5  1  0
  5  6  2  0
  6  7  1  0
  7  8  2  0
  8  9  1  0
  9 10  2  0
 10 11  1  0
 11 12  1  0
 12 13  1  0
 13 14  2  0
 14 15  1  0
 15 16  2  0
 16 17  1  0
 17 18  2  0
 18 19  1  0
 14 20  1  0
 20 21  2  0
 11 22  2  0
  6 23  1  0
 23 24  2  0
 24  3  1  0
 22  7  1  0
 21 12  1  0
 19 15  1  0
  1 25  1  0
  1 26  1  0
  1 27  1  0
  4 28  1  0
  5 29  1  0
  8 30  1  0
  9 31  1  0
 10 32  1  0
 13 33  1  0
 17 34  1  0
 18 35  1  0
 20 36  1  0
 21 37  1  0
 23 38  1  0
M  CHG  1  21   1
M  END
>  <UniqueID>  (22) 
22

>  <SMILES>  (22) 
COc1ccc(-c2cccc(-n3cc(-c4nccs4)c[nH+]3)n2)cn1

>  <Energy>  (22) 
107.09019258551363

>  <Genealogy>  (22) 
COc1ccc(-c2cccc(-n3cc(-c4nccs4)c[nH+]3)n2)cn1 (protonated)
COc1ccc(-c2cccc(-n3cc(-c4nccs4)c[nH+]3)n2)cn1 (3D coordinates assigned)
COc1ccc(-c2cccc(-n3cc(-c4nccs4)c[nH+]3)n2)cn1 (optimized conformer: 107.09019258551363 kcal/mol)

>  <smiles>  (22) 
COc1ccc(-c2cccc(-n3cc(-c4nccs4)cn3)n2)cn1

>  <score_type>  (22) 
oracle

>  <origin>  (22) 
adg

>  <m_score__min__energy>  (22) 
-8.7400000000000002

>  <m_primary>  (22) 
energy

$$$$
22:0
     RDKit          3D

 30 31  0  0  0  0  0  0  0  0999 V2000
   -5.6790   21.7970  -33.6160 H   0  0  0  0  0  0  0  0  0  0  0  0
   -5.6740   20.7970  -33.4710 O   0  0  0  0  0  0  0  0  0  0  0  0
   -6.7220   20.0870  -32.8800 C   0  0  0  0  0  0  0  0  0  0  0  0
   -6.7070   18.6910  -33.0060 C   0  0  0  0  0  0  0  0  0  0  0  0
   -5.9059   18.2049  -33.5821 H   0  0  0  0  0  0  0  0  0  0  0  0
   -7.6980   17.9120  -32.4080 C   0  0  0  0  0  0  0  0  0  0  0  0
   -7.6754   16.8173  -32.5138 H   0  0  0  0  0  0  0  0  0  0  0  0
   -8.7160   18.5200  -31.6770 C   0  0  0  0  0  0  0  0  0  0  0  0
   -9.4913   17.9039  -31.1982 H   0  0  0  0  0  0  0  0  0  0  0  0
   -8.7540   19.9100  -31.5510 C   0  0  0  0  0  0  0  0  0  0  0  0
   -9.5630   20.3813  -30.9735 H   0  0  0  0  0  0  0  0  0  0  0  0
   -7.7680   20.7170  -32.1550 C   0  0  0  0  0  0  0  0  0  0  0  0
   -7.8660   22.1920  -32.0440 C   0  0  0  0  0  0  0  0  0  0  0  0
   -8.7639   22.6481  -31.6016 H   0  0  0  0  0  0  0  0  0  0  0  0
   -6.8980   22.9500  -32.4660 N   0  0  0  0  0  0  0  0  0  0  0  0
   -5.8160   23.4820  -31.6800 C   0  0  0  0  0  0  0  0  0  0  0  0
   -4.5670   22.8390  -31.5650 C   0  0  0  0  0  0  0  0  0  0  0  0
   -4.3927   21.8843  -32.0828 H   0  0  0  0  0  0  0  0  0  0  0  0
   -3.5480   23.4100  -30.7950 C   0  0  0  0  0  0  0  0  0  0  0  0
   -2.5783   22.8984  -30.7057 H   0  0  0  0  0  0  0  0  0  0  0  0
   -3.7560   24.6350  -30.1340 C   0  0  0  0  0  0  0  0  0  0  0  0
   -2.7660   25.2440  -29.3500 O   0  0  0  0  0  0  0  0  0  0  0  0
   -2.2710   24.7150  -28.1240 C   0  0  0  0  0  0  0  0  0  0  0  0
   -2.7536   25.2307  -27.2807 H   0  0  0  0  0  0  0  0  0  0  0  0
   -2.4943   23.6392  -28.0721 H   0  0  0  0  0  0  0  0  0  0  0  0
   -1.1827   24.8665  -28.0721 H   0  0  0  0  0  0  0  0  0  0  0  0
   -4.9920   25.2760  -30.2620 C   0  0  0  0  0  0  0  0  0  0  0  0
   -5.1640   26.2355  -29.7524 H   0  0  0  0  0  0  0  0  0  0  0  0
   -6.0110   24.7080  -31.0320 C   0  0  0  0  0  0  0  0  0  0  0  0
   -6.9749   25.2288  -31.1298 H   0  0  0  0  0  0  0  0  0  0  0  0
  1  2  1  0
  2  3  1  0
  3  4  2  0
  4  5  1  0
  4  6  1  0
  6  7  1  0
  6  8  2  0
  8  9  1  0
  8 10  1  0
 10 11  1  0
 10 12  2  0
 12 13  1  0
 13 14  1  0
 13 15  2  0
 15 16  1  0
 16 17  2  0
 17 18  1  0
 17 19  1  0
 19 20  1  0
 19 21  2  0
 21 22  1  0
 22 23  1  0
 23 24  1  0
 23 25  1  0
 23 26  1  0
 21 27  1  0
 27 28  1  0
 27 29  2  0
 29 30  1  0
 12  3  1  0
 29 16  1  0
M  END
>  <UniqueID>  (23) 
23

>  <SMILES>  (23) 
COc1ccc(/N=C/c2ccccc2O)cc1

>  <Energy>  (23) 
36.07260091528528

>  <Genealogy>  (23) 
COc1ccc(/N=C/c2ccccc2O)cc1 (cis-trans isomerization)
COc1ccc(/N=C/c2ccccc2O)cc1 (3D coordinates assigned)
COc1ccc(/N=C/c2ccccc2O)cc1 (optimized conformer: 36.07260091528528 kcal/mol)

>  <smiles>  (23) 
COc1ccc(N=Cc2ccccc2O)cc1

>  <score_type>  (23) 
oracle

>  <origin>  (23) 
adg

>  <m_score__min__energy>  (23) 
-6.8300000000000001

>  <m_primary>  (23) 
energy

$$$$
23:0
     RDKit          3D

 28 29  0  0  0  0  0  0  0  0999 V2000
   -3.3180   23.7520  -30.0050 C   0  0  0  0  0  0  0  0  0  0  0  0
   -3.8430   24.9340  -30.5970 O   0  0  0  0  0  0  0  0  0  0  0  0
   -5.1990   25.2670  -30.5410 C   0  0  0  0  0  0  0  0  0  0  0  0
   -5.5610   26.4740  -30.4750 O   0  0  0  0  0  0  0  0  0  0  0  0
   -6.2080   24.2020  -30.5580 C   0  0  0  0  0  0  0  0  0  0  0  0
   -6.9840   23.8040  -31.6270 C   0  0  0  0  0  0  0  0  0  0  0  0
   -7.7530   22.7950  -31.1760 N   0  0  0  0  0  0  0  0  0  0  0  0
   -8.6900   21.9990  -31.9600 C   0  0  0  0  0  0  0  0  0  0  0  0
   -8.1540   20.6040  -32.1380 C   0  0  0  0  0  0  0  0  0  0  0  0
   -8.9480   19.4980  -31.7910 C   0  0  0  0  0  0  0  0  0  0  0  0
   -8.4730   18.1980  -31.9890 C   0  0  0  0  0  0  0  0  0  0  0  0
   -7.2080   17.9920  -32.5460 C   0  0  0  0  0  0  0  0  0  0  0  0
   -6.7500   16.7300  -32.7390 F   0  0  0  0  0  0  0  0  0  0  0  0
   -6.4190   19.0860  -32.9100 C   0  0  0  0  0  0  0  0  0  0  0  0
   -6.8880   20.3890  -32.7150 C   0  0  0  0  0  0  0  0  0  0  0  0
   -6.1120   21.4370  -33.0900 F   0  0  0  0  0  0  0  0  0  0  0  0
   -7.4580   22.5670  -29.9050 N   0  0  0  0  0  0  0  0  0  0  0  0
   -6.5260   23.4190  -29.5090 N   0  0  0  0  0  0  0  0  0  0  0  0
   -3.3579   23.8418  -28.9094 H   0  0  0  0  0  0  0  0  0  0  0  0
   -3.9159   22.8855  -30.3239 H   0  0  0  0  0  0  0  0  0  0  0  0
   -2.2742   23.6146  -30.3239 H   0  0  0  0  0  0  0  0  0  0  0  0
   -6.9761   24.2259  -32.6428 H   0  0  0  0  0  0  0  0  0  0  0  0
   -9.6568   21.9542  -31.4372 H   0  0  0  0  0  0  0  0  0  0  0  0
   -8.8223   22.4646  -32.9478 H   0  0  0  0  0  0  0  0  0  0  0  0
   -9.9483   19.6557  -31.3614 H   0  0  0  0  0  0  0  0  0  0  0  0
   -9.0957   17.3365  -31.7060 H   0  0  0  0  0  0  0  0  0  0  0  0
   -5.4250   18.9218  -33.3517 H   0  0  0  0  0  0  0  0  0  0  0  0
   -6.1170   23.4490  -28.5490 H   0  0  0  0  0  0  0  0  0  0  0  0
  1  2  1  0
  2  3  1  0
  3  4  2  0
  3  5  1  0
  5  6  2  0
  6  7  1  0
  7  8  1  0
  8  9  1  0
  9 10  2  0
 10 11  1  0
 11 12  2  0
 12 13  1  0
 12 14  1  0
 14 15  2  0
 15 16  1  0
  7 17  1  0
 17 18  2  0
 18  5  1  0
 15  9  1  0
  1 19  1  0
  1 20  1  0
  1 21  1  0
  6 22  1  0
  8 23  1  0
  8 24  1  0
 10 25  1  0
 11 26  1  0
 14 27  1  0
 18 28  1  0
M  CHG  1  18   1
M  END
>  <UniqueID>  (24) 
24

>  <SMILES>  (24) 
COC(=O)c1cn(Cc2ccc(F)cc2F)n[nH+]1

>  <Energy>  (24) 
59.49806380989456

>  <Genealogy>  (24) 
COC(=O)c1cn(Cc2ccc(F)cc2F)n[nH+]1 (protonated)
COC(=O)c1cn(Cc2ccc(F)cc2F)n[nH+]1 (3D coordinates assigned)
COC(=O)c1cn(Cc2ccc(F)cc2F)n[nH+]1 (optimized conformer: 59.49806380989456 kcal/mol)

>  <smiles>  (24) 
COC(=O)c1cn(Cc2ccc(F)cc2F)nn1

>  <score_type>  (24) 
oracle

>  <origin>  (24) 
adg

>  <m_score__min__energy>  (24) 
-6.8200000000000003

>  <m_primary>  (24) 
energy

$$$$
24:0
     RDKit          3D

 28 29  0  0  0  0  0  0  0  0999 V2000
   -2.7430   19.8230  -26.8650 C   0  0  0  0  0  0  0  0  0  0  0  0
   -2.6340   20.9300  -27.8600 C   0  0  0  0  0  0  0  0  0  0  0  0
   -2.1690   20.7700  -29.1180 N   0  0  0  0  0  0  0  0  0  0  0  0
   -2.0950   21.9430  -29.8090 C   0  0  0  0  0  0  0  0  0  0  0  0
   -1.6040   21.9820  -31.2250 C   0  0  0  0  0  0  0  0  0  0  0  0
   -2.5010   23.0700  -29.0750 C   0  0  0  0  0  0  0  0  0  0  0  0
   -2.5390   24.4810  -29.5060 C   0  0  0  0  0  0  0  0  0  0  0  0
   -1.7430   25.3040  -28.9810 O   0  0  0  0  0  0  0  0  0  0  0  0
   -3.5050   24.9250  -30.4670 N   0  0  0  0  0  0  0  0  0  0  0  0
   -4.7590   24.2990  -30.7760 C   0  0  0  0  0  0  0  0  0  0  0  0
   -5.9270   24.8220  -30.2040 C   0  0  0  0  0  0  0  0  0  0  0  0
   -7.1680   24.2310  -30.4620 C   0  0  0  0  0  0  0  0  0  0  0  0
   -7.2470   23.1020  -31.2820 C   0  0  0  0  0  0  0  0  0  0  0  0
   -6.0850   22.5580  -31.8360 C   0  0  0  0  0  0  0  0  0  0  0  0
   -4.8430   23.1480  -31.5810 C   0  0  0  0  0  0  0  0  0  0  0  0
   -2.9490   22.5470  -27.5340 S   0  0  0  0  0  0  0  0  0  0  0  0
   -2.7020   20.2391  -25.8476 H   0  0  0  0  0  0  0  0  0  0  0  0
   -3.6975   19.2950  -27.0070 H   0  0  0  0  0  0  0  0  0  0  0  0
   -1.9098   19.1190  -27.0070 H   0  0  0  0  0  0  0  0  0  0  0  0
   -1.8880   19.8440  -29.5110 H   0  0  0  0  0  0  0  0  0  0  0  0
   -0.5075   22.0691  -31.2306 H   0  0  0  0  0  0  0  0  0  0  0  0
   -1.9010   21.0574  -31.7417 H   0  0  0  0  0  0  0  0  0  0  0  0
   -2.0433   22.8481  -31.7417 H   0  0  0  0  0  0  0  0  0  0  0  0
   -5.8671   25.7029  -29.5480 H   0  0  0  0  0  0  0  0  0  0  0  0
   -8.0817   24.6547  -30.0196 H   0  0  0  0  0  0  0  0  0  0  0  0
   -8.2238   22.6416  -31.4913 H   0  0  0  0  0  0  0  0  0  0  0  0
   -6.1474   21.6640  -32.4739 H   0  0  0  0  0  0  0  0  0  0  0  0
   -3.9295   22.7112  -32.0108 H   0  0  0  0  0  0  0  0  0  0  0  0
  1  2  1  0
  2  3  2  0
  3  4  1  0
  4  5  1  0
  4  6  2  0
  6  7  1  0
  7  8  2  0
  7  9  1  0
  9 10  1  0
 10 11  2  0
 11 12  1  0
 12 13  2  0
 13 14  1  0
 14 15  2  0
  6 16  1  0
 16  2  1  0
 15 10  1  0
  1 17  1  0
  1 18  1  0
  1 19  1  0
  3 20  1  0
  5 21  1  0
  5 22  1  0
  5 23  1  0
 11 24  1  0
 12 25  1  0
 13 26  1  0
 14 27  1  0
 15 28  1  0
M  CHG  2   3   1   9  -1
M  END
>  <UniqueID>  (25) 
25

>  <SMILES>  (25) 
Cc1[nH+]c(C)c(C(=O)[N-]c2ccccc2)s1

>  <Energy>  (25) 
59.045413531025474

>  <Genealogy>  (25) 
Cc1[nH+]c(C)c(C(=O)[N-]c2ccccc2)s1 (protonated)
Cc1[nH+]c(C)c(C(=O)[N-]c2ccccc2)s1 (3D coordinates assigned)
Cc1[nH+]c(C)c(C(=O)[N-]c2ccccc2)s1 (optimized conformer: 59.045413531025474 kcal/mol)

>  <smiles>  (25) 
Cc1nc(C)c(C(=O)Nc2ccccc2)s1

>  <score_type>  (25) 
oracle

>  <origin>  (25) 
adg

>  <m_score__min__energy>  (25) 
-7.7400000000000002

>  <m_primary>  (25) 
energy

$$$$
25:0
     RDKit          3D

 32 34  0  0  0  0  0  0  0  0999 V2000
   -4.4790   20.2320  -33.4990 C   0  0  0  0  0  0  0  0  0  0  0  0
   -5.2580   18.9420  -33.4810 C   0  0  0  0  0  0  0  0  0  0  0  0
   -4.6570   17.7810  -33.9990 C   0  0  0  0  0  0  0  0  0  0  0  0
   -5.3340   16.5600  -33.9750 C   0  0  0  0  0  0  0  0  0  0  0  0
   -6.6200   16.4820  -33.4400 C   0  0  0  0  0  0  0  0  0  0  0  0
   -7.2390   17.6290  -32.9380 C   0  0  0  0  0  0  0  0  0  0  0  0
   -6.5790   18.8690  -32.9690 C   0  0  0  0  0  0  0  0  0  0  0  0
   -7.2920   20.0590  -32.4490 C   0  0  0  0  0  0  0  0  0  0  0  0
   -8.6920   20.1120  -32.4730 C   0  0  0  0  0  0  0  0  0  0  0  0
   -9.3430   21.2330  -31.9680 C   0  0  0  0  0  0  0  0  0  0  0  0
   -8.6040   22.2850  -31.4320 C   0  0  0  0  0  0  0  0  0  0  0  0
   -7.2010   22.2050  -31.3970 C   0  0  0  0  0  0  0  0  0  0  0  0
   -6.4060   23.3180  -30.8200 C   0  0  0  0  0  0  0  0  0  0  0  0
   -6.8990   24.4300  -30.1360 C   0  0  0  0  0  0  0  0  0  0  0  0
   -5.9010   25.3160  -29.7120 C   0  0  0  0  0  0  0  0  0  0  0  0
   -4.6170   24.9200  -30.0560 C   0  0  0  0  0  0  0  0  0  0  0  0
   -4.7260   23.4670  -30.8890 S   0  0  0  0  0  0  0  0  0  0  0  0
   -6.5850   21.0940  -31.9060 N   0  0  0  0  0  0  0  0  0  0  0  0
   -4.2831   20.5565  -32.4664 H   0  0  0  0  0  0  0  0  0  0  0  0
   -3.5238   20.0763  -34.0219 H   0  0  0  0  0  0  0  0  0  0  0  0
   -5.0615   21.0048  -34.0219 H   0  0  0  0  0  0  0  0  0  0  0  0
   -3.6450   17.8352  -34.4267 H   0  0  0  0  0  0  0  0  0  0  0  0
   -4.8521   15.6574  -34.3789 H   0  0  0  0  0  0  0  0  0  0  0  0
   -7.1468   15.5167  -33.4135 H   0  0  0  0  0  0  0  0  0  0  0  0
   -8.2520   17.5610  -32.5147 H   0  0  0  0  0  0  0  0  0  0  0  0
   -9.2716   19.2741  -32.8877 H   0  0  0  0  0  0  0  0  0  0  0  0
  -10.4413   21.2886  -31.9920 H   0  0  0  0  0  0  0  0  0  0  0  0
   -9.1163   23.1750  -31.0376 H   0  0  0  0  0  0  0  0  0  0  0  0
   -7.9702   24.5949  -29.9477 H   0  0  0  0  0  0  0  0  0  0  0  0
   -6.1156   26.2412  -29.1570 H   0  0  0  0  0  0  0  0  0  0  0  0
   -3.6893   25.4634  -29.8235 H   0  0  0  0  0  0  0  0  0  0  0  0
   -5.5420   21.0330  -31.9110 H   0  0  0  0  0  0  0  0  0  0  0  0
  1  2  1  0
  2  3  2  0
  3  4  1  0
  4  5  2  0
  5  6  1  0
  6  7  2  0
  7  8  1  0
  8  9  2  0
  9 10  1  0
 10 11  2  0
 11 12  1  0
 12 13  1  0
 13 14  2  0
 14 15  1  0
 15 16  2  0
 16 17  1  0
 12 18  2  0
  7  2  1  0
 18  8  1  0
 17 13  1  0
  1 19  1  0
  1 20  1  0
  1 21  1  0
  3 22  1  0
  4 23  1  0
  5 24  1  0
  6 25  1  0
  9 26  1  0
 10 27  1  0
 11 28  1  0
 14 29  1  0
 15 30  1  0
 16 31  1  0
 18 32  1  0
M  CHG  1  18   1
M  END
>  <UniqueID>  (26) 
26

>  <SMILES>  (26) 
Cc1ccccc1-c1cccc(-c2cccs2)[nH+]1

>  <Energy>  (26) 
69.85297957487407

>  <Genealogy>  (26) 
Cc1ccccc1-c1cccc(-c2cccs2)[nH+]1 (protonated)
Cc1ccccc1-c1cccc(-c2cccs2)[nH+]1 (3D coordinates assigned)
Cc1ccccc1-c1cccc(-c2cccs2)[nH+]1 (optimized conformer: 69.85297957487407 kcal/mol)

>  <smiles>  (26) 
Cc1ccccc1-c1cccc(-c2cccs2)n1

>  <score_type>  (26) 
oracle

>  <origin>  (26) 
adg

>  <m_score__min__energy>  (26) 
-7.25

>  <m_primary>  (26) 
energy

$$$$
26:0
     RDKit          3D

 43 44  0  0  0  0  0  0  0  0999 V2000
   -5.7120   17.9690  -34.9530 C   0  0  0  0  0  0  0  0  0  0  0  0
   -4.6970   18.6130  -33.9990 C   0  0  0  0  0  0  0  0  0  0  0  0
   -5.3520   19.4460  -32.9560 N   0  0  0  0  0  0  0  0  0  0  0  0
   -5.3880   18.7210  -31.6560 C   0  0  0  0  0  0  0  0  0  0  0  0
   -6.5990   17.7860  -31.5440 C   0  0  0  0  0  0  0  0  0  0  0  0
   -4.6290   20.7380  -32.8000 C   0  0  0  0  0  0  0  0  0  0  0  0
   -5.4780   21.7900  -32.1030 C   0  0  0  0  0  0  0  0  0  0  0  0
   -4.8660   22.9150  -31.5010 C   0  0  0  0  0  0  0  0  0  0  0  0
   -3.4830   23.0960  -31.6040 O   0  0  0  0  0  0  0  0  0  0  0  0
   -2.5690   22.4060  -30.7590 C   0  0  0  0  0  0  0  0  0  0  0  0
   -5.6420   23.8390  -30.7660 C   0  0  0  0  0  0  0  0  0  0  0  0
   -4.9880   24.9800  -30.0250 C   0  0  0  0  0  0  0  0  0  0  0  0
   -4.0600   25.6290  -30.8510 O   0  0  0  0  0  0  0  0  0  0  0  0
   -7.0290   23.6640  -30.6750 C   0  0  0  0  0  0  0  0  0  0  0  0
   -7.6490   22.5790  -31.3020 C   0  0  0  0  0  0  0  0  0  0  0  0
   -9.0330   22.3950  -31.2250 C   0  0  0  0  0  0  0  0  0  0  0  0
   -9.6140   21.2930  -31.8500 C   0  0  0  0  0  0  0  0  0  0  0  0
   -8.7930   20.3970  -32.5380 C   0  0  0  0  0  0  0  0  0  0  0  0
   -9.2960   19.3950  -33.1090 O   0  0  0  0  0  0  0  0  0  0  0  0
   -7.4800   20.5970  -32.5940 O   0  0  0  0  0  0  0  0  0  0  0  0
   -6.8770   21.6350  -32.0130 C   0  0  0  0  0  0  0  0  0  0  0  0
   -6.4989   17.4697  -34.3686 H   0  0  0  0  0  0  0  0  0  0  0  0
   -6.1635   18.7462  -35.5871 H   0  0  0  0  0  0  0  0  0  0  0  0
   -5.2011   17.2295  -35.5871 H   0  0  0  0  0  0  0  0  0  0  0  0
   -4.1210   17.8165  -33.5053 H   0  0  0  0  0  0  0  0  0  0  0  0
   -4.0459   19.2700  -34.5943 H   0  0  0  0  0  0  0  0  0  0  0  0
   -6.3360   19.6420  -33.2590 H   0  0  0  0  0  0  0  0  0  0  0  0
   -4.4696   18.1235  -31.5587 H   0  0  0  0  0  0  0  0  0  0  0  0
   -5.4665   19.4706  -30.8548 H   0  0  0  0  0  0  0  0  0  0  0  0
   -6.8285   17.6088  -30.4829 H   0  0  0  0  0  0  0  0  0  0  0  0
   -7.4673   18.2503  -32.0344 H   0  0  0  0  0  0  0  0  0  0  0  0
   -6.3695   16.8285  -32.0344 H   0  0  0  0  0  0  0  0  0  0  0  0
   -3.7196   20.5657  -32.2056 H   0  0  0  0  0  0  0  0  0  0  0  0
   -4.3848   21.1123  -33.8051 H   0  0  0  0  0  0  0  0  0  0  0  0
   -2.8250   22.5992  -29.7068 H   0  0  0  0  0  0  0  0  0  0  0  0
   -2.6289   21.3259  -30.9586 H   0  0  0  0  0  0  0  0  0  0  0  0
   -1.5467   22.7596  -30.9586 H   0  0  0  0  0  0  0  0  0  0  0  0
   -5.7596   25.6987  -29.7117 H   0  0  0  0  0  0  0  0  0  0  0  0
   -4.4644   24.5806  -29.1439 H   0  0  0  0  0  0  0  0  0  0  0  0
   -3.4840   24.9190  -31.2400 H   0  0  0  0  0  0  0  0  0  0  0  0
   -7.6344   24.3852  -30.1063 H   0  0  0  0  0  0  0  0  0  0  0  0
   -9.6582   23.1142  -30.6756 H   0  0  0  0  0  0  0  0  0  0  0  0
  -10.7011   21.1317  -31.8021 H   0  0  0  0  0  0  0  0  0  0  0  0
  1  2  1  0
  2  3  1  0
  3  4  1  0
  4  5  1  0
  3  6  1  0
  6  7  1  0
  7  8  2  0
  8  9  1  0
  9 10  1  0
  8 11  1  0
 11 12  1  0
 12 13  1  0
 11 14  2  0
 14 15  1  0
 15 16  1  0
 16 17  2  0
 17 18  1  0
 18 19  2  0
 18 20  1  0
 20 21  1  0
 21  7  1  0
 21 15  2  0
  1 22  1  0
  1 23  1  0
  1 24  1  0
  2 25  1  0
  2 26  1  0
  3 27  1  0
  4 28  1  0
  4 29  1  0
  5 30  1  0
  5 31  1  0
  5 32  1  0
  6 33  1  0
  6 34  1  0
 10 35  1  0
 10 36  1  0
 10 37  1  0
 12 38  1  0
 12 39  1  0
 13 40  1  0
 14 41  1  0
 16 42  1  0
 17 43  1  0
M  CHG  1   3   1
M  END
>  <UniqueID>  (27) 
27

>  <SMILES>  (27) 
CC[NH+](CC)Cc1c(OC)c(CO)cc2ccc(=O)oc12

>  <Energy>  (27) 
55.321622158659146

>  <Genealogy>  (27) 
CC[NH+](CC)Cc1c(OC)c(CO)cc2ccc(=O)oc12 (protonated)
CC[NH+](CC)Cc1c(OC)c(CO)cc2ccc(=O)oc12 (3D coordinates assigned)
CC[NH+](CC)Cc1c(OC)c(CO)cc2ccc(=O)oc12 (optimized conformer: 55.321622158659146 kcal/mol)

>  <smiles>  (27) 
CCN(CC)Cc1c(OC)c(CO)cc2ccc(=O)oc12

>  <score_type>  (27) 
oracle

>  <origin>  (27) 
adg

>  <m_score__min__energy>  (27) 
-7.1399999999999997

>  <m_primary>  (27) 
energy

$$$$
27:0
     RDKit          3D

 40 42  0  0  0  0  0  0  0  0999 V2000
   -5.0680   26.0470  -30.5680 O   0  0  0  0  0  0  0  0  0  0  0  0
   -4.4630   24.9520  -30.4030 C   0  0  0  0  0  0  0  0  0  0  0  0
   -3.1120   24.9260  -29.9220 N   0  0  0  0  0  0  0  0  0  0  0  0
   -2.4310   23.8160  -29.3140 C   0  0  0  0  0  0  0  0  0  0  0  0
   -1.5550   22.9960  -30.0500 C   0  0  0  0  0  0  0  0  0  0  0  0
   -0.9390   21.9010  -29.4430 C   0  0  0  0  0  0  0  0  0  0  0  0
   -1.2100   21.5980  -28.1030 C   0  0  0  0  0  0  0  0  0  0  0  0
   -2.0930   22.3950  -27.3730 C   0  0  0  0  0  0  0  0  0  0  0  0
   -2.7100   23.4970  -27.9720 C   0  0  0  0  0  0  0  0  0  0  0  0
   -3.8270   24.4750  -27.0290 Cl  0  0  0  0  0  0  0  0  0  0  0  0
   -5.1530   23.6500  -30.7210 C   0  0  2  0  0  0  0  0  0  0  0  0
   -4.5550   23.0490  -32.0000 C   0  0  0  0  0  0  0  0  0  0  0  0
   -5.3420   21.8030  -32.4150 C   0  0  0  0  0  0  0  0  0  0  0  0
   -6.7740   22.0940  -32.6930 N   0  0  1  0  0  0  0  0  0  0  0  0
   -7.6320   20.9720  -32.3530 C   0  0  0  0  0  0  0  0  0  0  0  0
   -8.6940   21.1880  -31.7040 O   0  0  0  0  0  0  0  0  0  0  0  0
   -7.2930   19.5640  -32.6560 C   0  0  0  0  0  0  0  0  0  0  0  0
   -7.6480   18.4210  -31.9440 C   0  0  0  0  0  0  0  0  0  0  0  0
   -7.1190   17.2430  -32.4800 C   0  0  0  0  0  0  0  0  0  0  0  0
   -6.3300   17.4450  -33.6040 C   0  0  0  0  0  0  0  0  0  0  0  0
   -6.2870   19.0970  -33.9210 S   0  0  0  0  0  0  0  0  0  0  0  0
   -7.2890   23.3870  -32.1610 C   0  0  0  0  0  0  0  0  0  0  0  0
   -6.6950   23.8040  -30.8000 C   0  0  0  0  0  0  0  0  0  0  0  0
   -1.3552   23.2194  -31.1084 H   0  0  0  0  0  0  0  0  0  0  0  0
   -0.2400   21.2754  -30.0175 H   0  0  0  0  0  0  0  0  0  0  0  0
   -0.7272   20.7323  -27.6260 H   0  0  0  0  0  0  0  0  0  0  0  0
   -2.3045   22.1547  -26.3206 H   0  0  0  0  0  0  0  0  0  0  0  0
   -4.9732   22.9480  -29.8934 H   0  0  0  0  0  0  0  0  0  0  0  0
   -4.6011   23.7941  -32.8079 H   0  0  0  0  0  0  0  0  0  0  0  0
   -3.5090   22.7668  -31.8097 H   0  0  0  0  0  0  0  0  0  0  0  0
   -4.8851   21.3849  -33.3241 H   0  0  0  0  0  0  0  0  0  0  0  0
   -5.3044   21.0920  -31.5765 H   0  0  0  0  0  0  0  0  0  0  0  0
   -6.8390   22.1970  -33.7370 H   0  0  0  0  0  0  0  0  0  0  0  0
   -8.2834   18.4429  -31.0464 H   0  0  0  0  0  0  0  0  0  0  0  0
   -7.3103   16.2484  -32.0508 H   0  0  0  0  0  0  0  0  0  0  0  0
   -5.8217   16.6620  -34.1858 H   0  0  0  0  0  0  0  0  0  0  0  0
   -7.0575   24.1754  -32.8923 H   0  0  0  0  0  0  0  0  0  0  0  0
   -8.3687   23.2502  -32.0010 H   0  0  0  0  0  0  0  0  0  0  0  0
   -6.9488   24.8588  -30.6185 H   0  0  0  0  0  0  0  0  0  0  0  0
   -7.1251   23.1333  -30.0416 H   0  0  0  0  0  0  0  0  0  0  0  0
  1  2  2  0
  2  3  1  0
  3  4  1  0
  4  5  2  0
  5  6  1  0
  6  7  2  0
  7  8  1  0
  8  9  2  0
  9 10  1  0
  2 11  1  0
 11 12  1  0
 12 13  1  0
 13 14  1  0
 14 15  1  0
 15 16  2  0
 15 17  1  0
 17 18  2  0
 18 19  1  0
 19 20  2  0
 20 21  1  0
 14 22  1  0
 22 23  1  0
  9  4  1  0
 23 11  1  0
 21 17  1  0
  5 24  1  0
  6 25  1  0
  7 26  1  0
  8 27  1  0
 11 28  1  1
 12 29  1  0
 12 30  1  0
 13 31  1  0
 13 32  1  0
 14 33  1  6
 18 34  1  0
 19 35  1  0
 20 36  1  0
 22 37  1  0
 22 38  1  0
 23 39  1  0
 23 40  1  0
M  CHG  2   3  -1  14   1
M  END
>  <UniqueID>  (28) 
28

>  <SMILES>  (28) 
O=C([N-]c1ccccc1Cl)C1CC[NH+](C(=O)c2cccs2)CC1

>  <Energy>  (28) 
89.30146781966486

>  <Genealogy>  (28) 
O=C([N-]c1ccccc1Cl)C1CC[NH+](C(=O)c2cccs2)CC1 (protonated)
O=C([N-]c1ccccc1Cl)C1CC[NH+](C(=O)c2cccs2)CC1 (3D coordinates assigned)
O=C([N-]c1ccccc1Cl)C1CC[NH+](C(=O)c2cccs2)CC1 (nonaromatic ring conformer: 89.30146781966486 kcal/mol)

>  <smiles>  (28) 
O=C(Nc1ccccc1Cl)C1CCN(C(=O)c2cccs2)CC1

>  <score_type>  (28) 
oracle

>  <origin>  (28) 
adg

>  <m_score__min__energy>  (28) 
-9.8599999999999994

>  <m_primary>  (28) 
energy

$$$$
28:0
     RDKit          3D

 51 53  0  0  0  0  0  0  0  0999 V2000
   -7.9740   20.3770  -31.7760 C   0  0  0  0  0  0  0  0  0  0  0  0
   -8.4400   18.6300  -31.5740 S   0  0  0  0  0  0  0  0  0  0  0  0
   -7.0390   18.0220  -32.5160 C   0  0  0  0  0  0  0  0  0  0  0  0
   -7.1080   16.7750  -33.1430 C   0  0  0  0  0  0  0  0  0  0  0  0
   -6.0210   16.3060  -33.8840 C   0  0  0  0  0  0  0  0  0  0  0  0
   -4.8620   17.0780  -33.9980 C   0  0  0  0  0  0  0  0  0  0  0  0
   -4.7760   18.3320  -33.3640 C   0  0  0  0  0  0  0  0  0  0  0  0
   -3.5900   19.1420  -33.4860 N   0  0  0  0  0  0  0  0  0  0  0  0
   -2.2320   18.6410  -33.4430 C   0  0  0  0  0  0  0  0  0  0  0  0
   -1.3390   19.8950  -33.4880 C   0  0  0  0  0  0  0  0  0  0  0  0
   -2.2050   21.0940  -33.3610 N   0  0  2  0  0  0  0  0  0  0  0  0
   -2.0360   21.7580  -32.0440 C   0  0  0  0  0  0  0  0  0  0  0  0
   -3.2430   21.5160  -31.0950 C   0  0  0  0  0  0  0  0  0  0  0  0
   -4.1410   22.6850  -30.9400 N   0  0  0  0  0  0  0  0  0  0  0  0
   -5.4720   22.3230  -30.4050 C   0  0  0  0  0  0  0  0  0  0  0  0
   -6.5520   23.1780  -31.0790 C   0  0  0  0  0  0  0  0  0  0  0  0
   -6.7840   24.5490  -30.4170 C   0  0  0  0  0  0  0  0  0  0  0  0
   -5.5260   25.3300  -30.0250 C   0  0  0  0  0  0  0  0  0  0  0  0
   -4.4800   24.5030  -29.2630 C   0  0  0  0  0  0  0  0  0  0  0  0
   -3.4970   23.7930  -30.2080 C   0  0  0  0  0  0  0  0  0  0  0  0
   -3.5230   20.5550  -33.4970 C   0  0  0  0  0  0  0  0  0  0  0  0
   -4.5340   21.2800  -33.7030 O   0  0  0  0  0  0  0  0  0  0  0  0
   -5.8820   18.8010  -32.6320 C   0  0  0  0  0  0  0  0  0  0  0  0
   -7.8504   20.8403  -30.7860 H   0  0  0  0  0  0  0  0  0  0  0  0
   -7.0271   20.4420  -32.3320 H   0  0  0  0  0  0  0  0  0  0  0  0
   -8.7627   20.9049  -32.3320 H   0  0  0  0  0  0  0  0  0  0  0  0
   -8.0178   16.1633  -33.0530 H   0  0  0  0  0  0  0  0  0  0  0  0
   -6.0775   15.3256  -34.3795 H   0  0  0  0  0  0  0  0  0  0  0  0
   -4.0116   16.7037  -34.5867 H   0  0  0  0  0  0  0  0  0  0  0  0
   -2.0581   18.0764  -32.5151 H   0  0  0  0  0  0  0  0  0  0  0  0
   -2.0199   17.9544  -34.2758 H   0  0  0  0  0  0  0  0  0  0  0  0
   -0.6187   19.8677  -32.6571 H   0  0  0  0  0  0  0  0  0  0  0  0
   -0.7844   19.9292  -34.4373 H   0  0  0  0  0  0  0  0  0  0  0  0
   -2.0100   21.7570  -34.1480 H   0  0  0  0  0  0  0  0  0  0  0  0
   -1.1268   21.3653  -31.5653 H   0  0  0  0  0  0  0  0  0  0  0  0
   -1.9640   22.8410  -32.2230 H   0  0  0  0  0  0  0  0  0  0  0  0
   -3.8335   20.6787  -31.4953 H   0  0  0  0  0  0  0  0  0  0  0  0
   -2.8241   21.3064  -30.0997 H   0  0  0  0  0  0  0  0  0  0  0  0
   -5.6696   21.2597  -30.6059 H   0  0  0  0  0  0  0  0  0  0  0  0
   -5.4893   22.5043  -29.3202 H   0  0  0  0  0  0  0  0  0  0  0  0
   -6.2543   23.3468  -32.1244 H   0  0  0  0  0  0  0  0  0  0  0  0
   -7.4961   22.6211  -30.9862 H   0  0  0  0  0  0  0  0  0  0  0  0
   -7.3587   25.1690  -31.1208 H   0  0  0  0  0  0  0  0  0  0  0  0
   -7.3058   24.3362  -29.4723 H   0  0  0  0  0  0  0  0  0  0  0  0
   -5.0587   25.7140  -30.9438 H   0  0  0  0  0  0  0  0  0  0  0  0
   -5.8516   26.1302  -29.3441 H   0  0  0  0  0  0  0  0  0  0  0  0
   -3.9126   25.1736  -28.6010 H   0  0  0  0  0  0  0  0  0  0  0  0
   -5.0138   23.7305  -28.6900 H   0  0  0  0  0  0  0  0  0  0  0  0
   -3.1120   24.5233  -30.9349 H   0  0  0  0  0  0  0  0  0  0  0  0
   -2.6827   23.3723  -29.5998 H   0  0  0  0  0  0  0  0  0  0  0  0
   -5.8372   19.7874  -32.1472 H   0  0  0  0  0  0  0  0  0  0  0  0
  1  2  1  0
  2  3  1  0
  3  4  2  0
  4  5  1  0
  5  6  2  0
  6  7  1  0
  7  8  1  0
  8  9  1  0
  9 10  1  0
 10 11  1  0
 11 12  1  0
 12 13  1  0
 13 14  1  0
 14 15  1  0
 15 16  1  0
 16 17  1  0
 17 18  1  0
 18 19  1  0
 19 20  1  0
 11 21  1  0
 21 22  2  0
  7 23  2  0
 23  3  1  0
 21  8  1  0
 20 14  1  0
  1 24  1  0
  1 25  1  0
  1 26  1  0
  4 27  1  0
  5 28  1  0
  6 29  1  0
  9 30  1  0
  9 31  1  0
 10 32  1  0
 10 33  1  0
 11 34  1  6
 12 35  1  0
 12 36  1  0
 13 37  1  0
 13 38  1  0
 15 39  1  0
 15 40  1  0
 16 41  1  0
 16 42  1  0
 17 43  1  0
 17 44  1  0
 18 45  1  0
 18 46  1  0
 19 47  1  0
 19 48  1  0
 20 49  1  0
 20 50  1  0
 23 51  1  0
M  CHG  1  11   1
M  END
>  <UniqueID>  (29) 
29

>  <SMILES>  (29) 
CSc1cccc(N2CC[N@H+](CCN3CCCCCC3)C2=O)c1

>  <Energy>  (29) 
70.90346200801073

>  <Genealogy>  (29) 
CSc1cccc(N2CC[NH+](CCN3CCCCCC3)C2=O)c1 (protonated)
CSc1cccc(N2CC[N@H+](CCN3CCCCCC3)C2=O)c1 (chirality)
CSc1cccc(N2CC[N@H+](CCN3CCCCCC3)C2=O)c1 (3D coordinates assigned)
CSc1cccc(N2CC[N@H+](CCN3CCCCCC3)C2=O)c1 (nonaromatic ring conformer: 70.90346200801073 kcal/mol)

>  <smiles>  (29) 
CSc1cccc(N2CCN(CCN3CCCCCC3)C2=O)c1

>  <score_type>  (29) 
oracle

>  <origin>  (29) 
adg

>  <m_score__min__energy>  (29) 
-5.7999999999999998

>  <m_primary>  (29) 
energy

$$$$
29:0
     RDKit          3D

 63 66  0  0  0  0  0  0  0  0999 V2000
   -2.4470   24.6080  -28.5090 C   0  0  0  0  0  0  0  0  0  0  0  0
   -3.1050   25.0670  -29.6850 O   0  0  0  0  0  0  0  0  0  0  0  0
   -4.3240   24.5600  -30.1670 C   0  0  0  0  0  0  0  0  0  0  0  0
   -5.5080   25.3230  -30.1320 C   0  0  0  0  0  0  0  0  0  0  0  0
   -6.7100   24.7870  -30.6000 C   0  0  0  0  0  0  0  0  0  0  0  0
   -6.7560   23.4780  -31.0970 C   0  0  0  0  0  0  0  0  0  0  0  0
   -8.0460   22.9110  -31.6260 C   0  0  0  0  0  0  0  0  0  0  0  0
   -7.8690   21.4560  -31.9620 C   0  0  0  0  0  0  0  0  0  0  0  0
   -8.5650   20.4720  -31.2450 C   0  0  0  0  0  0  0  0  0  0  0  0
   -8.3660   19.1600  -31.5320 N   0  0  0  0  0  0  0  0  0  0  0  0
   -7.4970   18.7770  -32.5020 C   0  0  0  0  0  0  0  0  0  0  0  0
   -7.3030   17.4200  -32.7860 C   0  0  0  0  0  0  0  0  0  0  0  0
   -6.3990   17.0390  -33.7840 C   0  0  0  0  0  0  0  0  0  0  0  0
   -5.6900   18.0090  -34.4980 C   0  0  0  0  0  0  0  0  0  0  0  0
   -5.8790   19.3680  -34.2210 C   0  0  0  0  0  0  0  0  0  0  0  0
   -6.7840   19.7600  -33.2220 C   0  0  0  0  0  0  0  0  0  0  0  0
   -6.9850   21.0760  -32.9310 N   0  0  0  0  0  0  0  0  0  0  0  0
   -5.5790   22.7200  -31.1490 C   0  0  0  0  0  0  0  0  0  0  0  0
   -4.3610   23.2540  -30.6970 C   0  0  0  0  0  0  0  0  0  0  0  0
   -3.1190   22.3980  -30.7340 C   0  0  0  0  0  0  0  0  0  0  0  0
   -3.4860   20.9200  -30.9050 C   0  0  0  0  0  0  0  0  0  0  0  0
   -3.4290   20.5480  -32.3370 N   0  0  0  0  0  0  0  0  0  0  0  0
   -2.7480   21.5600  -33.1720 C   0  0  0  0  0  0  0  0  0  0  0  0
   -1.2220   21.5010  -33.0040 C   0  0  0  0  0  0  0  0  0  0  0  0
   -0.6830   20.1640  -33.3490 N   0  0  0  0  0  0  0  0  0  0  0  0
   -0.7360   19.8170  -34.8060 C   0  0  0  0  0  0  0  0  0  0  0  0
    0.0190   20.8460  -35.6730 C   0  0  0  0  0  0  0  0  0  0  0  0
   -0.1120   18.4300  -35.0610 C   0  0  0  0  0  0  0  0  0  0  0  0
   -1.3290   19.1590  -32.4720 C   0  0  0  0  0  0  0  0  0  0  0  0
   -2.8720   19.1940  -32.5610 C   0  0  0  0  0  0  0  0  0  0  0  0
   -2.9802   24.9799  -27.6216 H   0  0  0  0  0  0  0  0  0  0  0  0
   -2.4400   23.5081  -28.4983 H   0  0  0  0  0  0  0  0  0  0  0  0
   -1.4123   24.9813  -28.4983 H   0  0  0  0  0  0  0  0  0  0  0  0
   -5.4856   26.3480  -29.7333 H   0  0  0  0  0  0  0  0  0  0  0  0
   -7.6257   25.3962  -30.5782 H   0  0  0  0  0  0  0  0  0  0  0  0
   -8.8303   23.0156  -30.8618 H   0  0  0  0  0  0  0  0  0  0  0  0
   -8.3352   23.4588  -32.5350 H   0  0  0  0  0  0  0  0  0  0  0  0
   -9.2702   20.7624  -30.4523 H   0  0  0  0  0  0  0  0  0  0  0  0
   -7.8601   16.6546  -32.2257 H   0  0  0  0  0  0  0  0  0  0  0  0
   -6.2460   15.9728  -34.0072 H   0  0  0  0  0  0  0  0  0  0  0  0
   -4.9805   17.7032  -35.2810 H   0  0  0  0  0  0  0  0  0  0  0  0
   -5.3190   20.1280  -34.7855 H   0  0  0  0  0  0  0  0  0  0  0  0
   -6.4530   21.8090  -33.4540 H   0  0  0  0  0  0  0  0  0  0  0  0
   -5.6090   21.6954  -31.5482 H   0  0  0  0  0  0  0  0  0  0  0  0
   -2.4878   22.7135  -31.5778 H   0  0  0  0  0  0  0  0  0  0  0  0
   -2.5761   22.5206  -29.7852 H   0  0  0  0  0  0  0  0  0  0  0  0
   -2.7754   20.3000  -30.3387 H   0  0  0  0  0  0  0  0  0  0  0  0
   -4.5063   20.7548  -30.5287 H   0  0  0  0  0  0  0  0  0  0  0  0
   -2.9978   21.3779  -34.2277 H   0  0  0  0  0  0  0  0  0  0  0  0
   -3.0902   22.5553  -32.8522 H   0  0  0  0  0  0  0  0  0  0  0  0
   -0.7617   22.2517  -33.6632 H   0  0  0  0  0  0  0  0  0  0  0  0
   -0.9854   21.7040  -31.9491 H   0  0  0  0  0  0  0  0  0  0  0  0
   -1.7997   19.8181  -35.0863 H   0  0  0  0  0  0  0  0  0  0  0  0
    0.5432   21.5604  -35.0212 H   0  0  0  0  0  0  0  0  0  0  0  0
    0.7502   20.3243  -36.3080 H   0  0  0  0  0  0  0  0  0  0  0  0
   -0.6981   21.3869  -36.3080 H   0  0  0  0  0  0  0  0  0  0  0  0
    0.1067   17.9438  -34.0988 H   0  0  0  0  0  0  0  0  0  0  0  0
   -0.8179   17.8099  -35.6330 H   0  0  0  0  0  0  0  0  0  0  0  0
    0.8203   18.5469  -35.6330 H   0  0  0  0  0  0  0  0  0  0  0  0
   -0.9819   18.1582  -32.7684 H   0  0  0  0  0  0  0  0  0  0  0  0
   -1.0504   19.3951  -31.4344 H   0  0  0  0  0  0  0  0  0  0  0  0
   -3.1743   18.8506  -33.5614 H   0  0  0  0  0  0  0  0  0  0  0  0
   -3.2645   18.5391  -31.7691 H   0  0  0  0  0  0  0  0  0  0  0  0
  1  2  1  0
  2  3  1  0
  3  4  2  0
  4  5  1  0
  5  6  2  0
  6  7  1  0
  7  8  1  0
  8  9  2  0
  9 10  1  0
 10 11  2  0
 11 12  1  0
 12 13  2  0
 13 14  1  0
 14 15  2  0
 15 16  1  0
 16 17  2  0
  6 18  1  0
 18 19  2  0
 19 20  1  0
 20 21  1  0
 21 22  1  0
 22 23  1  0
 23 24  1  0
 24 25  1  0
 25 26  1  0
 26 27  1  0
 26 28  1  0
 25 29  1  0
 29 30  1  0
 19  3  1  0
 30 22  1  0
 17  8  1  0
 16 11  1  0
  1 31  1  0
  1 32  1  0
  1 33  1  0
  4 34  1  0
  5 35  1  0
  7 36  1  0
  7 37  1  0
  9 38  1  0
 12 39  1  0
 13 40  1  0
 14 41  1  0
 15 42  1  0
 17 43  1  0
 18 44  1  0
 20 45  1  0
 20 46  1  0
 21 47  1  0
 21 48  1  0
 23 49  1  0
 23 50  1  0
 24 51  1  0
 24 52  1  0
 26 53  1  0
 27 54  1  0
 27 55  1  0
 27 56  1  0
 28 57  1  0
 28 58  1  0
 28 59  1  0
 29 60  1  0
 29 61  1  0
 30 62  1  0
 30 63  1  0
M  CHG  1  17   1
M  END
>  <UniqueID>  (30) 
30

>  <SMILES>  (30) 
COc1ccc(Cc2cnc3ccccc3[nH+]2)cc1CCN1CCN(C(C)C)CC1

>  <Energy>  (30) 
76.7127152966501

>  <Genealogy>  (30) 
COc1ccc(Cc2cnc3ccccc3[nH+]2)cc1CCN1CCN(C(C)C)CC1 (protonated)
COc1ccc(Cc2cnc3ccccc3[nH+]2)cc1CCN1CCN(C(C)C)CC1 (3D coordinates assigned)
COc1ccc(Cc2cnc3ccccc3[nH+]2)cc1CCN1CCN(C(C)C)CC1 (nonaromatic ring conformer: 76.7127152966501 kcal/mol)

>  <smiles>  (30) 
COc1ccc(Cc2cnc3ccccc3n2)cc1CCN1CCN(C(C)C)CC1

>  <score_type>  (30) 
oracle

>  <origin>  (30) 
adg

>  <m_score__min__energy>  (30) 
-9.3599999999999994

>  <m_primary>  (30) 
energy

$$$$
30:0
     RDKit          3D

 38 40  0  0  0  0  0  0  0  0999 V2000
   -5.8020   25.7430  -30.9040 O   0  0  0  0  0  0  0  0  0  0  0  0
   -5.1040   24.6970  -30.9720 C   0  0  0  0  0  0  0  0  0  0  0  0
   -3.8870   24.6060  -30.4650 O   0  0  0  0  0  0  0  0  0  0  0  0
   -3.4800   23.3910  -30.7420 C   0  0  0  0  0  0  0  0  0  0  0  0
   -2.2610   22.7930  -30.4390 C   0  0  0  0  0  0  0  0  0  0  0  0
   -2.0630   21.4650  -30.8600 C   0  0  0  0  0  0  0  0  0  0  0  0
   -3.0780   20.7770  -31.5640 C   0  0  0  0  0  0  0  0  0  0  0  0
   -4.3020   21.4100  -31.8540 C   0  0  0  0  0  0  0  0  0  0  0  0
   -4.4640   22.7290  -31.4250 C   0  0  0  0  0  0  0  0  0  0  0  0
   -5.5150   23.5560  -31.5810 N   0  0  0  0  0  0  0  0  0  0  0  0
   -6.7600   23.3260  -32.3240 C   0  0  0  0  0  0  0  0  0  0  0  0
   -7.9800   23.4110  -31.3970 C   0  0  0  0  0  0  0  0  0  0  0  0
   -8.4520   22.0240  -30.9240 C   0  0  0  0  0  0  0  0  0  0  0  0
   -9.4250   21.3750  -31.9190 C   0  0  0  0  0  0  0  0  0  0  0  0
   -9.1810   19.9730  -32.0520 O   0  0  0  0  0  0  0  0  0  0  0  0
   -7.9570   19.3890  -32.4180 C   0  0  0  0  0  0  0  0  0  0  0  0
   -7.1620   19.8860  -33.4700 C   0  0  0  0  0  0  0  0  0  0  0  0
   -5.9350   19.2850  -33.7680 C   0  0  0  0  0  0  0  0  0  0  0  0
   -5.5000   18.1780  -33.0350 C   0  0  0  0  0  0  0  0  0  0  0  0
   -6.2940   17.6660  -32.0060 C   0  0  0  0  0  0  0  0  0  0  0  0
   -5.8720   16.5910  -31.2960 F   0  0  0  0  0  0  0  0  0  0  0  0
   -7.5180   18.2680  -31.7020 C   0  0  0  0  0  0  0  0  0  0  0  0
   -1.4797   23.3389  -29.8898 H   0  0  0  0  0  0  0  0  0  0  0  0
   -1.1117   20.9585  -30.6398 H   0  0  0  0  0  0  0  0  0  0  0  0
   -2.9102   19.7392  -31.8877 H   0  0  0  0  0  0  0  0  0  0  0  0
   -5.1008   20.8850  -32.3982 H   0  0  0  0  0  0  0  0  0  0  0  0
   -6.8539   24.0875  -33.1122 H   0  0  0  0  0  0  0  0  0  0  0  0
   -6.7240   22.3179  -32.7628 H   0  0  0  0  0  0  0  0  0  0  0  0
   -7.7136   24.0135  -30.5160 H   0  0  0  0  0  0  0  0  0  0  0  0
   -8.8025   23.8710  -31.9644 H   0  0  0  0  0  0  0  0  0  0  0  0
   -7.5744   21.3709  -30.8087 H   0  0  0  0  0  0  0  0  0  0  0  0
   -8.9810   22.1538  -29.9683 H   0  0  0  0  0  0  0  0  0  0  0  0
  -10.4545   21.5263  -31.5624 H   0  0  0  0  0  0  0  0  0  0  0  0
   -9.2778   21.8456  -32.9023 H   0  0  0  0  0  0  0  0  0  0  0  0
   -7.5075   20.7489  -34.0583 H   0  0  0  0  0  0  0  0  0  0  0  0
   -5.3111   19.6846  -34.5811 H   0  0  0  0  0  0  0  0  0  0  0  0
   -4.5324   17.7096  -33.2681 H   0  0  0  0  0  0  0  0  0  0  0  0
   -8.1417   17.8582  -30.8939 H   0  0  0  0  0  0  0  0  0  0  0  0
  1  2  2  0
  2  3  1  0
  3  4  1  0
  4  5  2  0
  5  6  1  0
  6  7  2  0
  7  8  1  0
  8  9  2  0
  9 10  1  0
 10 11  1  0
 11 12  1  0
 12 13  1  0
 13 14  1  0
 14 15  1  0
 15 16  1  0
 16 17  2  0
 17 18  1  0
 18 19  2  0
 19 20  1  0
 20 21  1  0
 20 22  2  0
 10  2  1  0
 22 16  1  0
  9  4  1  0
  5 23  1  0
  6 24  1  0
  7 25  1  0
  8 26  1  0
 11 27  1  0
 11 28  1  0
 12 29  1  0
 12 30  1  0
 13 31  1  0
 13 32  1  0
 14 33  1  0
 14 34  1  0
 17 35  1  0
 18 36  1  0
 19 37  1  0
 22 38  1  0
M  END
>  <UniqueID>  (31) 
31

>  <SMILES>  (31) 
O=c1oc2ccccc2n1CCCCOc1cccc(F)c1

>  <Energy>  (31) 
72.73805540255218

>  <Genealogy>  (31) 
O=c1oc2ccccc2n1CCCCOc1cccc(F)c1 (3D coordinates assigned)
O=c1oc2ccccc2n1CCCCOc1cccc(F)c1 (optimized conformer: 72.73805540255218 kcal/mol)

>  <smiles>  (31) 
O=c1oc2ccccc2n1CCCCOc1cccc(F)c1

>  <score_type>  (31) 
oracle

>  <origin>  (31) 
adg

>  <m_score__min__energy>  (31) 
-7.9400000000000004

>  <m_primary>  (31) 
energy

$$$$
31:0
     RDKit          3D

 58 60  0  0  0  0  0  0  0  0999 V2000
   -8.9700   18.9350  -32.3050 C   0  0  0  0  0  0  0  0  0  0  0  0
   -7.6480   18.1660  -32.2070 C   0  0  0  0  0  0  0  0  0  0  0  0
   -6.8420   18.2680  -33.4560 N   0  0  0  0  0  0  0  0  0  0  0  0
   -6.7210   16.9330  -34.1020 C   0  0  0  0  0  0  0  0  0  0  0  0
   -5.2630   16.4670  -34.2040 C   0  0  0  0  0  0  0  0  0  0  0  0
   -5.4930   18.8210  -33.1550 C   0  0  0  0  0  0  0  0  0  0  0  0
   -5.5530   20.3110  -32.7660 C   0  0  0  0  0  0  0  0  0  0  0  0
   -5.8570   20.5390  -31.2710 C   0  0  0  0  0  0  0  0  0  0  0  0
   -5.8030   21.9810  -30.9050 N   0  0  0  0  0  0  0  0  0  0  0  0
   -6.9160   22.7720  -31.1500 C   0  0  0  0  0  0  0  0  0  0  0  0
   -8.2260   22.2030  -31.6580 C   0  0  0  0  0  0  0  0  0  0  0  0
   -6.8900   24.1420  -30.8700 C   0  0  0  0  0  0  0  0  0  0  0  0
   -5.7520   24.7340  -30.3510 C   0  0  0  0  0  0  0  0  0  0  0  0
   -5.7580   25.9740  -30.1190 O   0  0  0  0  0  0  0  0  0  0  0  0
   -4.6220   23.9530  -30.0850 C   0  0  0  0  0  0  0  0  0  0  0  0
   -3.4630   24.5460  -29.5460 C   0  0  0  0  0  0  0  0  0  0  0  0
   -2.3320   23.7780  -29.2720 C   0  0  0  0  0  0  0  0  0  0  0  0
   -0.9000   24.5270  -28.5730 S   0  0  0  0  0  0  0  0  0  0  0  0
    0.3250   24.1020  -29.3360 O   0  0  0  0  0  0  0  0  0  0  0  0
   -1.0080   26.0240  -28.6620 O   0  0  0  0  0  0  0  0  0  0  0  0
   -0.7620   24.0340  -26.8910 C   0  0  0  0  0  0  0  0  0  0  0  0
   -0.6020   22.6800  -26.5640 C   0  0  0  0  0  0  0  0  0  0  0  0
   -0.4710   22.2910  -25.2270 C   0  0  0  0  0  0  0  0  0  0  0  0
   -0.4920   23.2530  -24.2130 C   0  0  0  0  0  0  0  0  0  0  0  0
   -0.6420   24.6050  -24.5340 C   0  0  0  0  0  0  0  0  0  0  0  0
   -0.7740   24.9960  -25.8710 C   0  0  0  0  0  0  0  0  0  0  0  0
   -2.3560   22.4080  -29.5150 C   0  0  0  0  0  0  0  0  0  0  0  0
   -3.4930   21.8020  -30.0470 C   0  0  0  0  0  0  0  0  0  0  0  0
   -4.6580   22.5550  -30.3590 C   0  0  0  0  0  0  0  0  0  0  0  0
   -9.3436   19.1523  -31.2935 H   0  0  0  0  0  0  0  0  0  0  0  0
   -8.8060   19.8787  -32.8459 H   0  0  0  0  0  0  0  0  0  0  0  0
   -9.7092   18.3260  -32.8459 H   0  0  0  0  0  0  0  0  0  0  0  0
   -7.0608   18.5764  -31.3723 H   0  0  0  0  0  0  0  0  0  0  0  0
   -7.8867   17.1044  -32.0457 H   0  0  0  0  0  0  0  0  0  0  0  0
   -7.3320   18.9170  -34.1180 H   0  0  0  0  0  0  0  0  0  0  0  0
   -7.2862   16.1998  -33.5080 H   0  0  0  0  0  0  0  0  0  0  0  0
   -7.1208   17.0153  -35.1235 H   0  0  0  0  0  0  0  0  0  0  0  0
   -4.8488   16.3346  -33.1936 H   0  0  0  0  0  0  0  0  0  0  0  0
   -5.2208   15.5106  -34.7458 H   0  0  0  0  0  0  0  0  0  0  0  0
   -4.6739   17.2216  -34.7458 H   0  0  0  0  0  0  0  0  0  0  0  0
   -5.0547   18.2536  -32.3207 H   0  0  0  0  0  0  0  0  0  0  0  0
   -4.8790   18.7316  -34.0633 H   0  0  0  0  0  0  0  0  0  0  0  0
   -4.5820   20.7722  -32.9992 H   0  0  0  0  0  0  0  0  0  0  0  0
   -6.3753   20.7646  -33.3388 H   0  0  0  0  0  0  0  0  0  0  0  0
   -6.8635   20.1540  -31.0504 H   0  0  0  0  0  0  0  0  0  0  0  0
   -5.0916   20.0103  -30.6839 H   0  0  0  0  0  0  0  0  0  0  0  0
   -8.8616   21.9269  -30.8038 H   0  0  0  0  0  0  0  0  0  0  0  0
   -8.7413   22.9584  -32.2694 H   0  0  0  0  0  0  0  0  0  0  0  0
   -8.0257   21.3108  -32.2694 H   0  0  0  0  0  0  0  0  0  0  0  0
   -7.7826   24.7548  -31.0642 H   0  0  0  0  0  0  0  0  0  0  0  0
   -3.4504   25.6263  -29.3392 H   0  0  0  0  0  0  0  0  0  0  0  0
   -0.5795   21.9220  -27.3608 H   0  0  0  0  0  0  0  0  0  0  0  0
   -0.3514   21.2274  -24.9732 H   0  0  0  0  0  0  0  0  0  0  0  0
   -0.3904   22.9457  -23.1617 H   0  0  0  0  0  0  0  0  0  0  0  0
   -0.6563   25.3616  -23.7357 H   0  0  0  0  0  0  0  0  0  0  0  0
   -0.8875   26.0608  -26.1225 H   0  0  0  0  0  0  0  0  0  0  0  0
   -1.4700   21.7979  -29.2852 H   0  0  0  0  0  0  0  0  0  0  0  0
   -3.4888   20.7172  -30.2295 H   0  0  0  0  0  0  0  0  0  0  0  0
  1  2  1  0
  2  3  1  0
  3  4  1  0
  4  5  1  0
  3  6  1  0
  6  7  1  0
  7  8  1  0
  8  9  1  0
  9 10  1  0
 10 11  1  0
 10 12  2  0
 12 13  1  0
 13 14  2  0
 13 15  1  0
 15 16  2  0
 16 17  1  0
 17 18  1  0
 18 19  2  0
 18 20  2  0
 18 21  1  0
 21 22  2  0
 22 23  1  0
 23 24  2  0
 24 25  1  0
 25 26  2  0
 17 27  2  0
 27 28  1  0
 28 29  2  0
 29  9  1  0
 29 15  1  0
 26 21  1  0
  1 30  1  0
  1 31  1  0
  1 32  1  0
  2 33  1  0
  2 34  1  0
  3 35  1  0
  4 36  1  0
  4 37  1  0
  5 38  1  0
  5 39  1  0
  5 40  1  0
  6 41  1  0
  6 42  1  0
  7 43  1  0
  7 44  1  0
  8 45  1  0
  8 46  1  0
 11 47  1  0
 11 48  1  0
 11 49  1  0
 12 50  1  0
 16 51  1  0
 22 52  1  0
 23 53  1  0
 24 54  1  0
 25 55  1  0
 26 56  1  0
 27 57  1  0
 28 58  1  0
M  CHG  1   3   1
M  END
>  <UniqueID>  (32) 
32

>  <SMILES>  (32) 
CC[NH+](CC)CCCn1c(C)cc(=O)c2cc(S(=O)(=O)c3ccccc3)ccc21

>  <Energy>  (32) 
75.91384136472287

>  <Genealogy>  (32) 
CC[NH+](CC)CCCn1c(C)cc(=O)c2cc(S(=O)(=O)c3ccccc3)ccc21 (protonated)
CC[NH+](CC)CCCn1c(C)cc(=O)c2cc(S(=O)(=O)c3ccccc3)ccc21 (3D coordinates assigned)
CC[NH+](CC)CCCn1c(C)cc(=O)c2cc(S(=O)(=O)c3ccccc3)ccc21 (optimized conformer: 75.91384136472287 kcal/mol)

>  <smiles>  (32) 
CCN(CC)CCCn1c(C)cc(=O)c2cc(S(=O)(=O)c3ccccc3)ccc21

>  <score_type>  (32) 
oracle

>  <origin>  (32) 
adg

>  <m_score__min__energy>  (32) 
-8.6600000000000001

>  <m_primary>  (32) 
energy

$$$$
32:0
     RDKit          3D

 39 42  0  0  0  0  0  0  0  0999 V2000
   -6.0860   14.3700  -34.1720 C   0  0  0  0  0  0  0  0  0  0  0  0
   -6.8770   15.5470  -34.0440 O   0  0  0  0  0  0  0  0  0  0  0  0
   -6.3570   16.8340  -33.8390 C   0  0  0  0  0  0  0  0  0  0  0  0
   -5.0280   17.1650  -34.1470 C   0  0  0  0  0  0  0  0  0  0  0  0
   -4.5520   18.4540  -33.9080 C   0  0  0  0  0  0  0  0  0  0  0  0
   -5.3920   19.4320  -33.3560 C   0  0  0  0  0  0  0  0  0  0  0  0
   -6.7420   19.1270  -33.0790 C   0  0  0  0  0  0  0  0  0  0  0  0
   -7.2040   17.8140  -33.3060 C   0  0  0  0  0  0  0  0  0  0  0  0
   -7.6230   20.1920  -32.5160 C   0  0  0  0  0  0  0  0  0  0  0  0
   -9.0270   20.0910  -32.4970 C   0  0  0  0  0  0  0  0  0  0  0  0
   -9.7960   21.1180  -31.9520 C   0  0  0  0  0  0  0  0  0  0  0  0
   -9.1660   22.2510  -31.4440 C   0  0  0  0  0  0  0  0  0  0  0  0
   -7.8110   22.3560  -31.4840 N   0  0  0  0  0  0  0  0  0  0  0  0
   -7.0280   21.3610  -31.9990 C   0  0  0  0  0  0  0  0  0  0  0  0
   -5.5930   21.5050  -32.0570 N   0  0  0  0  0  0  0  0  0  0  0  0
   -4.8890   22.3590  -31.1340 C   0  0  0  0  0  0  0  0  0  0  0  0
   -4.0980   21.8000  -30.1160 C   0  0  0  0  0  0  0  0  0  0  0  0
   -3.4070   22.6260  -29.2230 C   0  0  0  0  0  0  0  0  0  0  0  0
   -3.4990   24.0160  -29.3420 C   0  0  0  0  0  0  0  0  0  0  0  0
   -4.2790   24.5820  -30.3540 C   0  0  0  0  0  0  0  0  0  0  0  0
   -4.3670   25.9310  -30.4680 F   0  0  0  0  0  0  0  0  0  0  0  0
   -4.9700   23.7580  -31.2490 C   0  0  0  0  0  0  0  0  0  0  0  0
   -4.8580   20.8250  -33.1310 C   0  0  0  0  0  0  0  0  0  0  0  0
   -5.8303   13.9895  -33.1721 H   0  0  0  0  0  0  0  0  0  0  0  0
   -6.6538   13.6046  -34.7214 H   0  0  0  0  0  0  0  0  0  0  0  0
   -5.1629   14.6066  -34.7214 H   0  0  0  0  0  0  0  0  0  0  0  0
   -4.3597   16.4051  -34.5783 H   0  0  0  0  0  0  0  0  0  0  0  0
   -3.5098   18.7054  -34.1543 H   0  0  0  0  0  0  0  0  0  0  0  0
   -8.2448   17.5557  -33.0609 H   0  0  0  0  0  0  0  0  0  0  0  0
   -9.5185   19.1993  -32.9133 H   0  0  0  0  0  0  0  0  0  0  0  0
  -10.8924   21.0339  -31.9235 H   0  0  0  0  0  0  0  0  0  0  0  0
   -9.7663   23.0636  -31.0090 H   0  0  0  0  0  0  0  0  0  0  0  0
   -7.3800   23.2380  -31.1280 H   0  0  0  0  0  0  0  0  0  0  0  0
   -4.0217   20.7068  -30.0207 H   0  0  0  0  0  0  0  0  0  0  0  0
   -2.7912   22.1818  -28.4271 H   0  0  0  0  0  0  0  0  0  0  0  0
   -2.9569   24.6648  -28.6383 H   0  0  0  0  0  0  0  0  0  0  0  0
   -5.5798   24.2070  -32.0468 H   0  0  0  0  0  0  0  0  0  0  0  0
   -4.9620   21.4042  -34.0603 H   0  0  0  0  0  0  0  0  0  0  0  0
   -3.8002   20.7510  -32.8384 H   0  0  0  0  0  0  0  0  0  0  0  0
  1  2  1  0
  2  3  1  0
  3  4  2  0
  4  5  1  0
  5  6  2  0
  6  7  1  0
  7  8  2  0
  7  9  1  0
  9 10  2  0
 10 11  1  0
 11 12  2  0
 12 13  1  0
 13 14  2  0
 14 15  1  0
 15 16  1  0
 16 17  2  0
 17 18  1  0
 18 19  2  0
 19 20  1  0
 20 21  1  0
 20 22  2  0
 15 23  1  0
  8  3  1  0
 14  9  1  0
 22 16  1  0
 23  6  1  0
  1 24  1  0
  1 25  1  0
  1 26  1  0
  4 27  1  0
  5 28  1  0
  8 29  1  0
 10 30  1  0
 11 31  1  0
 12 32  1  0
 13 33  1  0
 17 34  1  0
 18 35  1  0
 19 36  1  0
 22 37  1  0
 23 38  1  0
 23 39  1  0
M  CHG  1  13   1
M  END
>  <UniqueID>  (33) 
33

>  <SMILES>  (33) 
COc1ccc2c(c1)-c1ccc[nH+]c1N(c1cccc(F)c1)C2

>  <Energy>  (33) 
56.2019769656236

>  <Genealogy>  (33) 
COc1ccc2c(c1)-c1ccc[nH+]c1N(c1cccc(F)c1)C2 (protonated)
COc1ccc2c(c1)-c1ccc[nH+]c1N(c1cccc(F)c1)C2 (3D coordinates assigned)
COc1ccc2c(c1)-c1ccc[nH+]c1N(c1cccc(F)c1)C2 (nonaromatic ring conformer: 56.2019769656236 kcal/mol)

>  <smiles>  (33) 
COc1ccc2c(c1)-c1cccnc1N(c1cccc(F)c1)C2

>  <score_type>  (33) 
oracle

>  <origin>  (33) 
adg

>  <m_score__min__energy>  (33) 
-7.4199999999999999

>  <m_primary>  (33) 
energy

$$$$
33:0
     RDKit          3D

 32 34  0  0  0  0  0  0  0  0999 V2000
   -9.1440   23.4230  -32.3300 C   0  0  0  0  0  0  0  0  0  0  0  0
   -9.4690   22.0420  -31.7720 C   0  0  0  0  0  0  0  0  0  0  0  0
   -8.4600   21.6280  -30.6950 C   0  0  0  0  0  0  0  0  0  0  0  0
   -7.1270   21.2880  -31.3160 C   0  0  0  0  0  0  0  0  0  0  0  0
   -6.0230   22.1630  -31.3600 C   0  0  0  0  0  0  0  0  0  0  0  0
   -5.9480   23.5490  -30.8620 C   0  0  0  0  0  0  0  0  0  0  0  0
   -6.8060   24.0310  -30.0310 N   0  0  0  0  0  0  0  0  0  0  0  0
   -6.4540   25.4110  -29.7240 C   0  0  0  0  0  0  0  0  0  0  0  0
   -5.1840   25.6750  -30.5430 C   0  0  0  0  0  0  0  0  0  0  0  0
   -4.9620   24.4480  -31.2120 O   0  0  0  0  0  0  0  0  0  0  0  0
   -4.7370   21.3940  -32.1440 S   0  0  0  0  0  0  0  0  0  0  0  0
   -5.5630   19.9720  -32.4560 C   0  0  0  0  0  0  0  0  0  0  0  0
   -5.0930   18.8440  -33.1240 C   0  0  0  0  0  0  0  0  0  0  0  0
   -5.9700   17.7630  -33.3000 C   0  0  0  0  0  0  0  0  0  0  0  0
   -5.3740   16.1940  -34.2120 Br  0  0  0  0  0  0  0  0  0  0  0  0
   -7.2870   17.8350  -32.8140 C   0  0  0  0  0  0  0  0  0  0  0  0
   -7.7400   18.9840  -32.1440 C   0  0  0  0  0  0  0  0  0  0  0  0
   -6.8560   20.0600  -31.9610 C   0  0  0  0  0  0  0  0  0  0  0  0
   -8.9789   24.1246  -31.4991 H   0  0  0  0  0  0  0  0  0  0  0  0
   -8.2350   23.3647  -32.9468 H   0  0  0  0  0  0  0  0  0  0  0  0
   -9.9836   23.7761  -32.9468 H   0  0  0  0  0  0  0  0  0  0  0  0
  -10.4767   22.0611  -31.3313 H   0  0  0  0  0  0  0  0  0  0  0  0
   -9.4192   21.3133  -32.5945 H   0  0  0  0  0  0  0  0  0  0  0  0
   -8.3269   22.4587  -29.9863 H   0  0  0  0  0  0  0  0  0  0  0  0
   -8.8442   20.7392  -30.1730 H   0  0  0  0  0  0  0  0  0  0  0  0
   -7.2609   26.0946  -30.0267 H   0  0  0  0  0  0  0  0  0  0  0  0
   -6.2985   25.5733  -28.6472 H   0  0  0  0  0  0  0  0  0  0  0  0
   -5.3426   26.4920  -31.2623 H   0  0  0  0  0  0  0  0  0  0  0  0
   -4.3305   25.9854  -29.9224 H   0  0  0  0  0  0  0  0  0  0  0  0
   -4.0614   18.8016  -33.5036 H   0  0  0  0  0  0  0  0  0  0  0  0
   -7.9690   16.9843  -32.9595 H   0  0  0  0  0  0  0  0  0  0  0  0
   -8.7723   19.0400  -31.7682 H   0  0  0  0  0  0  0  0  0  0  0  0
  1  2  1  0
  2  3  1  0
  3  4  1  0
  4  5  2  0
  5  6  1  0
  6  7  2  0
  7  8  1  0
  8  9  1  0
  9 10  1  0
  5 11  1  0
 11 12  1  0
 12 13  2  0
 13 14  1  0
 14 15  1  0
 14 16  2  0
 16 17  1  0
 17 18  2  0
 18  4  1  0
 10  6  1  0
 18 12  1  0
  1 19  1  0
  1 20  1  0
  1 21  1  0
  2 22  1  0
  2 23  1  0
  3 24  1  0
  3 25  1  0
  8 26  1  0
  8 27  1  0
  9 28  1  0
  9 29  1  0
 13 30  1  0
 16 31  1  0
 17 32  1  0
M  END
>  <UniqueID>  (34) 
34

>  <SMILES>  (34) 
CCCc1c(C2=NCCO2)sc2cc(Br)ccc12

>  <Energy>  (34) 
72.71373489076691

>  <Genealogy>  (34) 
CCCc1c(C2=NCCO2)sc2cc(Br)ccc12 (3D coordinates assigned)
CCCc1c(C2=NCCO2)sc2cc(Br)ccc12 (nonaromatic ring conformer: 72.71373489076691 kcal/mol)

>  <smiles>  (34) 
CCCc1c(C2=NCCO2)sc2cc(Br)ccc12

>  <score_type>  (34) 
oracle

>  <origin>  (34) 
adg

>  <m_score__min__energy>  (34) 
-7.8300000000000001

>  <m_primary>  (34) 
energy

$$$$
34:0
     RDKit          3D

 34 37  0  0  0  0  0  0  0  0999 V2000
   -2.1700   23.7060  -29.3230 C   0  0  0  0  0  0  0  0  0  0  0  0
   -3.4480   23.8430  -30.0760 C   0  0  0  0  0  0  0  0  0  0  0  0
   -3.8550   24.9780  -30.6730 N   0  0  0  0  0  0  0  0  0  0  0  0
   -5.0370   24.7110  -31.2060 N   0  0  0  0  0  0  0  0  0  0  0  0
   -5.3070   23.4230  -30.9090 C   0  0  0  0  0  0  0  0  0  0  0  0
   -6.5340   22.7120  -31.3140 C   0  0  0  0  0  0  0  0  0  0  0  0
   -7.7690   23.4020  -31.4020 C   0  0  0  0  0  0  0  0  0  0  0  0
   -8.9450   22.7240  -31.7670 C   0  0  0  0  0  0  0  0  0  0  0  0
   -8.8550   21.3650  -32.0530 C   0  0  0  0  0  0  0  0  0  0  0  0
   -9.8640   20.5420  -32.3830 N   0  0  0  0  0  0  0  0  0  0  0  0
   -9.3130   19.3190  -32.5380 C   0  0  0  0  0  0  0  0  0  0  0  0
   -7.9380   19.3680  -32.3150 C   0  0  0  0  0  0  0  0  0  0  0  0
   -7.0130   18.2250  -32.4190 C   0  0  0  0  0  0  0  0  0  0  0  0
   -6.4170   17.5060  -31.3950 C   0  0  0  0  0  0  0  0  0  0  0  0
   -5.6040   16.5700  -31.9260 N   0  0  0  0  0  0  0  0  0  0  0  0
   -5.6610   16.6920  -33.2430 N   0  0  0  0  0  0  0  0  0  0  0  0
   -4.9600   15.8150  -34.1700 C   0  0  0  0  0  0  0  0  0  0  0  0
   -6.5060   17.6820  -33.5810 C   0  0  0  0  0  0  0  0  0  0  0  0
   -7.6620   20.6890  -31.9930 C   0  0  0  0  0  0  0  0  0  0  0  0
   -6.4820   21.3300  -31.6070 C   0  0  0  0  0  0  0  0  0  0  0  0
   -4.3340   22.8860  -30.2110 O   0  0  0  0  0  0  0  0  0  0  0  0
   -2.3767   23.7282  -28.2428 H   0  0  0  0  0  0  0  0  0  0  0  0
   -1.6905   22.7513  -29.5851 H   0  0  0  0  0  0  0  0  0  0  0  0
   -1.4991   24.5374  -29.5851 H   0  0  0  0  0  0  0  0  0  0  0  0
   -7.8076   24.4792  -31.1824 H   0  0  0  0  0  0  0  0  0  0  0  0
   -9.9082   23.2521  -31.8249 H   0  0  0  0  0  0  0  0  0  0  0  0
  -10.8720   20.7900  -32.4910 H   0  0  0  0  0  0  0  0  0  0  0  0
   -9.8721   18.4096  -32.8036 H   0  0  0  0  0  0  0  0  0  0  0  0
   -6.5810   17.6723  -30.3201 H   0  0  0  0  0  0  0  0  0  0  0  0
   -4.3712   15.0784  -33.6037 H   0  0  0  0  0  0  0  0  0  0  0  0
   -5.6912   15.2913  -34.8033 H   0  0  0  0  0  0  0  0  0  0  0  0
   -4.2880   16.4128  -34.8033 H   0  0  0  0  0  0  0  0  0  0  0  0
   -6.7500   18.0025  -34.6046 H   0  0  0  0  0  0  0  0  0  0  0  0
   -5.5362   20.7732  -31.5330 H   0  0  0  0  0  0  0  0  0  0  0  0
  1  2  1  0
  2  3  2  0
  3  4  1  0
  4  5  2  0
  5  6  1  0
  6  7  2  0
  7  8  1  0
  8  9  2  0
  9 10  1  0
 10 11  1  0
 11 12  2  0
 12 13  1  0
 13 14  1  0
 14 15  2  0
 15 16  1  0
 16 17  1  0
 16 18  1  0
 12 19  1  0
 19 20  2  0
  5 21  1  0
 21  2  1  0
 20  6  1  0
 19  9  1  0
 18 13  2  0
  1 22  1  0
  1 23  1  0
  1 24  1  0
  7 25  1  0
  8 26  1  0
 10 27  1  0
 11 28  1  0
 14 29  1  0
 17 30  1  0
 17 31  1  0
 17 32  1  0
 18 33  1  0
 20 34  1  0
M  END
>  <UniqueID>  (35) 
35

>  <SMILES>  (35) 
Cc1nnc(-c2ccc3[nH]cc(-c4cnn(C)c4)c3c2)o1

>  <Energy>  (35) 
135.57013202007735

>  <Genealogy>  (35) 
Cc1nnc(-c2ccc3[nH]cc(-c4cnn(C)c4)c3c2)o1 (3D coordinates assigned)
Cc1nnc(-c2ccc3[nH]cc(-c4cnn(C)c4)c3c2)o1 (optimized conformer: 135.57013202007735 kcal/mol)

>  <smiles>  (35) 
Cc1nnc(-c2ccc3[nH]cc(-c4cnn(C)c4)c3c2)o1

>  <score_type>  (35) 
oracle

>  <origin>  (35) 
adg

>  <m_score__min__energy>  (35) 
-8.5099999999999998

>  <m_primary>  (35) 
energy

$$$$
35:0
     RDKit          3D

 42 43  0  0  0  0  0  0  0  0999 V2000
   -5.3640   25.7990  -30.4700 C   0  0  0  0  0  0  0  0  0  0  0  0
   -4.0710   25.2020  -30.5120 O   0  0  0  0  0  0  0  0  0  0  0  0
   -3.8130   23.8260  -30.4050 C   0  0  0  0  0  0  0  0  0  0  0  0
   -4.0390   22.9660  -31.4970 C   0  0  0  0  0  0  0  0  0  0  0  0
   -3.7910   21.5900  -31.4040 C   0  0  0  0  0  0  0  0  0  0  0  0
   -4.0290   20.7250  -32.5340 N   0  0  0  0  0  0  0  0  0  0  0  0
   -3.0710   20.6730  -33.6410 C   0  0  0  0  0  0  0  0  0  0  0  0
   -5.4710   19.7510  -32.6110 S   0  0  0  0  0  0  0  0  0  0  0  0
   -5.6240   19.1620  -33.9860 O   0  0  0  0  0  0  0  0  0  0  0  0
   -5.3500   18.6210  -31.6270 O   0  0  0  0  0  0  0  0  0  0  0  0
   -6.8840   20.7370  -32.2400 C   0  0  0  0  0  0  0  0  0  0  0  0
   -8.0770   20.1410  -31.8020 C   0  0  0  0  0  0  0  0  0  0  0  0
   -9.1840   20.9360  -31.4870 C   0  0  0  0  0  0  0  0  0  0  0  0
   -9.1070   22.3250  -31.6110 C   0  0  0  0  0  0  0  0  0  0  0  0
   -7.9210   22.9230  -32.0490 C   0  0  0  0  0  0  0  0  0  0  0  0
   -6.8120   22.1310  -32.3630 C   0  0  0  0  0  0  0  0  0  0  0  0
   -3.2990   21.0710  -30.1990 C   0  0  0  0  0  0  0  0  0  0  0  0
   -3.0640   21.9090  -29.0950 C   0  0  0  0  0  0  0  0  0  0  0  0
   -2.5740   21.4100  -27.8760 O   0  0  0  0  0  0  0  0  0  0  0  0
   -2.7320   20.0670  -27.4290 C   0  0  0  0  0  0  0  0  0  0  0  0
   -3.3190   23.2860  -29.1920 C   0  0  0  0  0  0  0  0  0  0  0  0
   -3.0590   24.0590  -28.0410 O   0  0  0  0  0  0  0  0  0  0  0  0
   -4.0090   24.4750  -27.0670 C   0  0  0  0  0  0  0  0  0  0  0  0
   -5.6690   25.9398  -29.4226 H   0  0  0  0  0  0  0  0  0  0  0  0
   -5.3341   26.7745  -30.9775 H   0  0  0  0  0  0  0  0  0  0  0  0
   -6.0871   25.1436  -30.9775 H   0  0  0  0  0  0  0  0  0  0  0  0
   -4.4178   23.3828  -32.4419 H   0  0  0  0  0  0  0  0  0  0  0  0
   -2.0487   20.6175  -33.2389 H   0  0  0  0  0  0  0  0  0  0  0  0
   -3.2712   19.7844  -34.2577 H   0  0  0  0  0  0  0  0  0  0  0  0
   -3.1738   21.5780  -34.2577 H   0  0  0  0  0  0  0  0  0  0  0  0
   -8.1415   19.0471  -31.7063 H   0  0  0  0  0  0  0  0  0  0  0  0
  -10.1167   20.4664  -31.1411 H   0  0  0  0  0  0  0  0  0  0  0  0
   -9.9790   22.9485  -31.3642 H   0  0  0  0  0  0  0  0  0  0  0  0
   -7.8605   24.0170  -32.1466 H   0  0  0  0  0  0  0  0  0  0  0  0
   -5.8804   22.6037  -32.7075 H   0  0  0  0  0  0  0  0  0  0  0  0
   -3.0939   19.9935  -30.1158 H   0  0  0  0  0  0  0  0  0  0  0  0
   -2.7346   20.0445  -26.3292 H   0  0  0  0  0  0  0  0  0  0  0  0
   -3.6837   19.6646  -27.8063 H   0  0  0  0  0  0  0  0  0  0  0  0
   -1.8997   19.4547  -27.8063 H   0  0  0  0  0  0  0  0  0  0  0  0
   -3.6035   24.2974  -26.0600 H   0  0  0  0  0  0  0  0  0  0  0  0
   -4.2187   25.5473  -27.1940 H   0  0  0  0  0  0  0  0  0  0  0  0
   -4.9393   23.9019  -27.1940 H   0  0  0  0  0  0  0  0  0  0  0  0
  1  2  1  0
  2  3  1  0
  3  4  2  0
  4  5  1  0
  5  6  1  0
  6  7  1  0
  6  8  1  0
  8  9  2  0
  8 10  2  0
  8 11  1  0
 11 12  2  0
 12 13  1  0
 13 14  2  0
 14 15  1  0
 15 16  2  0
  5 17  2  0
 17 18  1  0
 18 19  1  0
 19 20  1  0
 18 21  2  0
 21 22  1  0
 22 23  1  0
 21  3  1  0
 16 11  1  0
  1 24  1  0
  1 25  1  0
  1 26  1  0
  4 27  1  0
  7 28  1  0
  7 29  1  0
  7 30  1  0
 12 31  1  0
 13 32  1  0
 14 33  1  0
 15 34  1  0
 16 35  1  0
 17 36  1  0
 20 37  1  0
 20 38  1  0
 20 39  1  0
 23 40  1  0
 23 41  1  0
 23 42  1  0
M  END
>  <UniqueID>  (36) 
36

>  <SMILES>  (36) 
COc1cc(N(C)S(=O)(=O)c2ccccc2)cc(OC)c1OC

>  <Energy>  (36) 
47.24460987650981

>  <Genealogy>  (36) 
COc1cc(N(C)S(=O)(=O)c2ccccc2)cc(OC)c1OC (3D coordinates assigned)
COc1cc(N(C)S(=O)(=O)c2ccccc2)cc(OC)c1OC (optimized conformer: 47.24460987650981 kcal/mol)

>  <smiles>  (36) 
COc1cc(N(C)S(=O)(=O)c2ccccc2)cc(OC)c1OC

>  <score_type>  (36) 
oracle

>  <origin>  (36) 
adg

>  <m_score__min__energy>  (36) 
-7.2400000000000002

>  <m_primary>  (36) 
energy

$$$$
36:0
     RDKit          3D

 55 58  0  0  0  0  0  0  0  0999 V2000
    1.2820   23.3860  -36.0710 C   0  0  0  0  0  0  0  0  0  0  0  0
    1.4630   21.9770  -35.9830 O   0  0  0  0  0  0  0  0  0  0  0  0
    0.6150   21.1100  -35.2780 C   0  0  0  0  0  0  0  0  0  0  0  0
    0.3030   19.8180  -35.7400 C   0  0  0  0  0  0  0  0  0  0  0  0
   -0.5420   18.9890  -35.0000 C   0  0  0  0  0  0  0  0  0  0  0  0
   -1.0950   19.4340  -33.7830 C   0  0  0  0  0  0  0  0  0  0  0  0
   -1.9190   18.6110  -32.9990 O   0  0  0  0  0  0  0  0  0  0  0  0
   -3.3380   18.5580  -33.1010 C   0  0  0  0  0  0  0  0  0  0  0  0
   -0.7970   20.7320  -33.3260 C   0  0  0  0  0  0  0  0  0  0  0  0
   -1.3590   21.2230  -32.0970 N   0  0  0  0  0  0  0  0  0  0  0  0
   -2.5420   21.8480  -31.9250 C   0  0  0  0  0  0  0  0  0  0  0  0
   -3.4290   22.1370  -32.9600 O   0  0  0  0  0  0  0  0  0  0  0  0
   -2.6960   22.1750  -30.5860 C   0  0  0  0  0  0  0  0  0  0  0  0
   -3.8550   22.9050  -29.9680 C   0  0  0  0  0  0  0  0  0  0  0  0
   -4.2730   24.0530  -30.8440 C   0  0  0  0  0  0  0  0  0  0  0  0
   -3.8740   25.2140  -30.5630 O   0  0  0  0  0  0  0  0  0  0  0  0
   -5.1910   23.8830  -31.9320 N   0  0  0  0  0  0  0  0  0  0  0  0
   -6.3220   23.0030  -31.9550 C   0  0  0  0  0  0  0  0  0  0  0  0
   -7.6130   23.4560  -31.6330 C   0  0  0  0  0  0  0  0  0  0  0  0
   -8.6930   22.5680  -31.6460 C   0  0  0  0  0  0  0  0  0  0  0  0
   -8.4890   21.2220  -31.9580 C   0  0  0  0  0  0  0  0  0  0  0  0
   -7.2020   20.7590  -32.2500 C   0  0  0  0  0  0  0  0  0  0  0  0
   -6.1200   21.6450  -32.2390 C   0  0  0  0  0  0  0  0  0  0  0  0
   -1.5780   21.7840  -29.9290 N   0  0  0  0  0  0  0  0  0  0  0  0
   -1.2800   21.9170  -28.5000 C   0  0  0  0  0  0  0  0  0  0  0  0
   -1.7770   20.7230  -27.7470 C   0  0  0  0  0  0  0  0  0  0  0  0
   -3.1030   20.4410  -27.4450 C   0  0  0  0  0  0  0  0  0  0  0  0
   -3.2650   19.2310  -26.7610 C   0  0  0  0  0  0  0  0  0  0  0  0
   -2.0730   18.5540  -26.5330 C   0  0  0  0  0  0  0  0  0  0  0  0
   -0.8170   19.4620  -27.1850 S   0  0  0  0  0  0  0  0  0  0  0  0
   -0.7970   21.2060  -30.8690 C   0  0  0  0  0  0  0  0  0  0  0  0
    0.3280   20.6920  -30.6230 O   0  0  0  0  0  0  0  0  0  0  0  0
    0.0630   21.5540  -34.0730 C   0  0  0  0  0  0  0  0  0  0  0  0
    1.2272   23.8126  -35.0586 H   0  0  0  0  0  0  0  0  0  0  0  0
    2.1303   23.8316  -36.6112 H   0  0  0  0  0  0  0  0  0  0  0  0
    0.3486   23.6028  -36.6112 H   0  0  0  0  0  0  0  0  0  0  0  0
    0.7272   19.4593  -36.6894 H   0  0  0  0  0  0  0  0  0  0  0  0
   -0.7779   17.9803  -35.3700 H   0  0  0  0  0  0  0  0  0  0  0  0
   -3.7777   18.5416  -32.0928 H   0  0  0  0  0  0  0  0  0  0  0  0
   -3.6999   19.4433  -33.6445 H   0  0  0  0  0  0  0  0  0  0  0  0
   -3.6328   17.6482  -33.6445 H   0  0  0  0  0  0  0  0  0  0  0  0
   -4.1590   22.8300  -32.8600 H   0  0  0  0  0  0  0  0  0  0  0  0
   -4.7004   22.2111  -29.8506 H   0  0  0  0  0  0  0  0  0  0  0  0
   -3.5502   23.2957  -28.9859 H   0  0  0  0  0  0  0  0  0  0  0  0
   -7.7741   24.5119  -31.3701 H   0  0  0  0  0  0  0  0  0  0  0  0
   -9.7046   22.9300  -31.4102 H   0  0  0  0  0  0  0  0  0  0  0  0
   -9.3407   20.5260  -31.9741 H   0  0  0  0  0  0  0  0  0  0  0  0
   -7.0407   19.6973  -32.4885 H   0  0  0  0  0  0  0  0  0  0  0  0
   -5.1066   21.2750  -32.4540 H   0  0  0  0  0  0  0  0  0  0  0  0
   -0.1919   22.0036  -28.3638 H   0  0  0  0  0  0  0  0  0  0  0  0
   -1.7835   22.8156  -28.1140 H   0  0  0  0  0  0  0  0  0  0  0  0
   -3.9401   21.1012  -27.7158 H   0  0  0  0  0  0  0  0  0  0  0  0
   -4.2443   18.8512  -26.4343 H   0  0  0  0  0  0  0  0  0  0  0  0
   -1.9690   17.5893  -26.0147 H   0  0  0  0  0  0  0  0  0  0  0  0
    0.3055   22.5616  -33.7044 H   0  0  0  0  0  0  0  0  0  0  0  0
  1  2  1  0
  2  3  1  0
  3  4  2  0
  4  5  1  0
  5  6  2  0
  6  7  1  0
  7  8  1  0
  6  9  1  0
  9 10  1  0
 10 11  1  0
 11 12  1  0
 11 13  2  0
 13 14  1  0
 14 15  1  0
 15 16  2  0
 15 17  1  0
 17 18  1  0
 18 19  2  0
 19 20  1  0
 20 21  2  0
 21 22  1  0
 22 23  2  0
 13 24  1  0
 24 25  1  0
 25 26  1  0
 26 27  2  0
 27 28  1  0
 28 29  2  0
 29 30  1  0
 24 31  1  0
 31 32  2  0
  9 33  2  0
 33  3  1  0
 31 10  1  0
 23 18  1  0
 30 26  1  0
  1 34  1  0
  1 35  1  0
  1 36  1  0
  4 37  1  0
  5 38  1  0
  8 39  1  0
  8 40  1  0
  8 41  1  0
 12 42  1  0
 14 43  1  0
 14 44  1  0
 19 45  1  0
 20 46  1  0
 21 47  1  0
 22 48  1  0
 23 49  1  0
 25 50  1  0
 25 51  1  0
 27 52  1  0
 28 53  1  0
 29 54  1  0
 33 55  1  0
M  CHG  1  17  -1
M  END
>  <UniqueID>  (37) 
37

>  <SMILES>  (37) 
COc1ccc(OC)c(-n2c(O)c(CC(=O)[N-]c3ccccc3)n(Cc3cccs3)c2=O)c1

>  <Energy>  (37) 
123.04974610037843

>  <Genealogy>  (37) 
COc1ccc(OC)c(-n2c(O)c(CC(=O)[N-]c3ccccc3)n(Cc3cccs3)c2=O)c1 (protonated)
COc1ccc(OC)c(-n2c(O)c(CC(=O)[N-]c3ccccc3)n(Cc3cccs3)c2=O)c1 (3D coordinates assigned)
COc1ccc(OC)c(-n2c(O)c(CC(=O)[N-]c3ccccc3)n(Cc3cccs3)c2=O)c1 (optimized conformer: 123.04974610037843 kcal/mol)

>  <smiles>  (37) 
COc1ccc(OC)c(-n2c(O)c(CC(=O)Nc3ccccc3)n(Cc3cccs3)c2=O)c1

>  <score_type>  (37) 
oracle

>  <origin>  (37) 
adg

>  <m_score__min__energy>  (37) 
-10.220000000000001

>  <m_primary>  (37) 
energy

$$$$
37:0
     RDKit          3D

 40 42  0  0  0  0  0  0  0  0999 V2000
   -4.7320   23.9320  -28.7270 C   0  0  0  0  0  0  0  0  0  0  0  0
   -5.3630   24.5100  -30.2900 S   0  0  0  0  0  0  0  0  0  0  0  0
   -6.3940   25.5650  -29.9970 O   0  0  0  0  0  0  0  0  0  0  0  0
   -4.2590   25.1360  -31.0940 O   0  0  0  0  0  0  0  0  0  0  0  0
   -6.1090   23.1840  -31.2050 C   0  0  0  0  0  0  0  0  0  0  0  0
   -7.5040   23.1720  -31.3470 C   0  0  0  0  0  0  0  0  0  0  0  0
   -8.1520   22.1030  -31.9680 C   0  0  0  0  0  0  0  0  0  0  0  0
   -7.4210   21.0130  -32.4560 C   0  0  0  0  0  0  0  0  0  0  0  0
   -8.1240   19.9120  -33.0650 N   0  0  0  0  0  0  0  0  0  0  0  0
   -8.0180   18.5190  -32.6280 C   0  0  0  0  0  0  0  0  0  0  0  0
   -6.7130   17.9170  -33.0810 C   0  0  0  0  0  0  0  0  0  0  0  0
   -6.1130   18.3310  -34.2830 C   0  0  0  0  0  0  0  0  0  0  0  0
   -4.9000   17.7710  -34.6950 C   0  0  0  0  0  0  0  0  0  0  0  0
   -4.2820   16.7870  -33.9170 C   0  0  0  0  0  0  0  0  0  0  0  0
   -4.8790   16.3620  -32.7260 C   0  0  0  0  0  0  0  0  0  0  0  0
   -6.0910   16.9200  -32.3100 C   0  0  0  0  0  0  0  0  0  0  0  0
   -6.0210   21.0280  -32.3410 C   0  0  0  0  0  0  0  0  0  0  0  0
   -5.3570   22.1060  -31.7360 C   0  0  0  0  0  0  0  0  0  0  0  0
   -3.8870   22.0500  -31.6740 C   0  0  0  0  0  0  0  0  0  0  0  0
   -3.0510   21.4370  -32.5870 C   0  0  0  0  0  0  0  0  0  0  0  0
   -1.7760   21.6050  -32.0930 C   0  0  0  0  0  0  0  0  0  0  0  0
   -1.9120   22.2980  -30.9070 C   0  0  0  0  0  0  0  0  0  0  0  0
   -3.1820   22.5430  -30.6820 O   0  0  0  0  0  0  0  0  0  0  0  0
   -5.2730   24.4275  -27.9073 H   0  0  0  0  0  0  0  0  0  0  0  0
   -4.8734   22.8435  -28.6544 H   0  0  0  0  0  0  0  0  0  0  0  0
   -3.6601   24.1681  -28.6544 H   0  0  0  0  0  0  0  0  0  0  0  0
   -8.0956   24.0165  -30.9638 H   0  0  0  0  0  0  0  0  0  0  0  0
   -9.2467   22.1170  -32.0750 H   0  0  0  0  0  0  0  0  0  0  0  0
   -8.7990   20.1180  -33.8370 H   0  0  0  0  0  0  0  0  0  0  0  0
   -8.0720   18.4798  -31.5300 H   0  0  0  0  0  0  0  0  0  0  0  0
   -8.8452   17.9452  -33.0713 H   0  0  0  0  0  0  0  0  0  0  0  0
   -6.6000   19.0989  -34.9021 H   0  0  0  0  0  0  0  0  0  0  0  0
   -4.4312   18.1049  -35.6324 H   0  0  0  0  0  0  0  0  0  0  0  0
   -3.3272   16.3477  -34.2415 H   0  0  0  0  0  0  0  0  0  0  0  0
   -4.3936   15.5867  -32.1151 H   0  0  0  0  0  0  0  0  0  0  0  0
   -6.5598   16.5776  -31.3757 H   0  0  0  0  0  0  0  0  0  0  0  0
   -5.4364   20.1818  -32.7311 H   0  0  0  0  0  0  0  0  0  0  0  0
   -3.3424   20.9224  -33.5145 H   0  0  0  0  0  0  0  0  0  0  0  0
   -0.8385   21.2570  -32.5513 H   0  0  0  0  0  0  0  0  0  0  0  0
   -1.0825   22.5992  -30.2503 H   0  0  0  0  0  0  0  0  0  0  0  0
  1  2  1  0
  2  3  2  0
  2  4  2  0
  2  5  1  0
  5  6  2  0
  6  7  1  0
  7  8  2  0
  8  9  1  0
  9 10  1  0
 10 11  1  0
 11 12  2  0
 12 13  1  0
 13 14  2  0
 14 15  1  0
 15 16  2  0
  8 17  1  0
 17 18  2  0
 18 19  1  0
 19 20  2  0
 20 21  1  0
 21 22  2  0
 22 23  1  0
 18  5  1  0
 23 19  1  0
 16 11  1  0
  1 24  1  0
  1 25  1  0
  1 26  1  0
  6 27  1  0
  7 28  1  0
  9 29  1  0
 10 30  1  0
 10 31  1  0
 12 32  1  0
 13 33  1  0
 14 34  1  0
 15 35  1  0
 16 36  1  0
 17 37  1  0
 20 38  1  0
 21 39  1  0
 22 40  1  0
M  END
>  <UniqueID>  (38) 
38

>  <SMILES>  (38) 
CS(=O)(=O)c1ccc(NCc2ccccc2)cc1-c1ccco1

>  <Energy>  (38) 
72.90038350894467

>  <Genealogy>  (38) 
CS(=O)(=O)c1ccc(NCc2ccccc2)cc1-c1ccco1 (3D coordinates assigned)
CS(=O)(=O)c1ccc(NCc2ccccc2)cc1-c1ccco1 (optimized conformer: 72.90038350894467 kcal/mol)

>  <smiles>  (38) 
CS(=O)(=O)c1ccc(NCc2ccccc2)cc1-c1ccco1

>  <score_type>  (38) 
oracle

>  <origin>  (38) 
adg

>  <m_score__min__energy>  (38) 
-9.6199999999999992

>  <m_primary>  (38) 
energy

$$$$
38:0
     RDKit          3D

 31 33  0  0  0  0  0  0  0  0999 V2000
   -2.7620   24.5430  -29.3380 C   0  0  0  0  0  0  0  0  0  0  0  0
   -3.5680   24.9270  -30.4480 O   0  0  0  0  0  0  0  0  0  0  0  0
   -4.7540   24.2810  -30.8290 C   0  0  0  0  0  0  0  0  0  0  0  0
   -5.9690   24.8780  -30.4950 C   0  0  0  0  0  0  0  0  0  0  0  0
   -7.1750   24.2770  -30.8500 C   0  0  0  0  0  0  0  0  0  0  0  0
   -7.1970   23.0510  -31.5280 C   0  0  0  0  0  0  0  0  0  0  0  0
   -5.9690   22.4370  -31.8930 C   0  0  0  0  0  0  0  0  0  0  0  0
   -4.7600   23.0640  -31.5340 C   0  0  0  0  0  0  0  0  0  0  0  0
   -5.8940   21.1850  -32.6860 C   0  0  0  0  0  0  0  0  0  0  0  0
   -4.9600   21.0440  -33.5230 O   0  0  0  0  0  0  0  0  0  0  0  0
   -6.8200   20.1070  -32.4850 N   0  0  0  0  0  0  0  0  0  0  0  0
   -6.6220   18.7830  -33.0490 C   0  0  0  0  0  0  0  0  0  0  0  0
   -7.5920   17.8730  -32.3080 C   0  0  0  0  0  0  0  0  0  0  0  0
   -8.6250   18.8000  -31.6720 C   0  0  0  0  0  0  0  0  0  0  0  0
   -7.9430   20.1700  -31.5730 C   0  0  2  0  0  0  0  0  0  0  0  0
   -8.8540   21.2960  -31.9690 C   0  0  0  0  0  0  0  0  0  0  0  0
   -8.4870   22.5390  -31.9060 N   0  0  0  0  0  0  0  0  0  0  0  0
   -3.2841   24.7917  -28.4023 H   0  0  0  0  0  0  0  0  0  0  0  0
   -2.5761   23.4595  -29.3773 H   0  0  0  0  0  0  0  0  0  0  0  0
   -1.8035   25.0812  -29.3773 H   0  0  0  0  0  0  0  0  0  0  0  0
   -5.9755   25.8315  -29.9466 H   0  0  0  0  0  0  0  0  0  0  0  0
   -8.1234   24.7722  -30.5943 H   0  0  0  0  0  0  0  0  0  0  0  0
   -3.8044   22.5940  -31.8096 H   0  0  0  0  0  0  0  0  0  0  0  0
   -6.8458   18.7870  -34.1260 H   0  0  0  0  0  0  0  0  0  0  0  0
   -5.5812   18.4448  -32.9380 H   0  0  0  0  0  0  0  0  0  0  0  0
   -8.0793   17.1797  -33.0094 H   0  0  0  0  0  0  0  0  0  0  0  0
   -7.0775   17.2602  -31.5532 H   0  0  0  0  0  0  0  0  0  0  0  0
   -9.5242   18.8632  -32.3025 H   0  0  0  0  0  0  0  0  0  0  0  0
   -8.9487   18.4340  -30.6865 H   0  0  0  0  0  0  0  0  0  0  0  0
   -7.6438   20.3727  -30.5341 H   0  0  0  0  0  0  0  0  0  0  0  0
   -9.8675   21.0590  -32.3248 H   0  0  0  0  0  0  0  0  0  0  0  0
  1  2  1  0
  2  3  1  0
  3  4  2  0
  4  5  1  0
  5  6  2  0
  6  7  1  0
  7  8  2  0
  7  9  1  0
  9 10  2  0
  9 11  1  0
 11 12  1  0
 12 13  1  0
 13 14  1  0
 14 15  1  0
 15 16  1  0
 16 17  2  0
  8  3  1  0
 15 11  1  0
 17  6  1  0
  1 18  1  0
  1 19  1  0
  1 20  1  0
  4 21  1  0
  5 22  1  0
  8 23  1  0
 12 24  1  0
 12 25  1  0
 13 26  1  0
 13 27  1  0
 14 28  1  0
 14 29  1  0
 15 30  1  1
 16 31  1  0
M  END
>  <UniqueID>  (39) 
39

>  <SMILES>  (39) 
COc1ccc2c(c1)C(=O)N1CCC[C@@H]1C=N2

>  <Energy>  (39) 
43.8644813606941

>  <Genealogy>  (39) 
COc1ccc2c(c1)C(=O)N1CCC[C@@H]1C=N2 (chirality)
COc1ccc2c(c1)C(=O)N1CCC[C@@H]1C=N2 (3D coordinates assigned)
COc1ccc2c(c1)C(=O)N1CCC[C@@H]1C=N2 (nonaromatic ring conformer: 43.8644813606941 kcal/mol)

>  <smiles>  (39) 
COc1ccc2c(c1)C(=O)N1CCCC1C=N2

>  <score_type>  (39) 
oracle

>  <origin>  (39) 
adg

>  <m_score__min__energy>  (39) 
-6.7000000000000002

>  <m_primary>  (39) 
energy

$$$$
39:0
     RDKit          3D

 37 38  0  0  0  0  0  0  0  0999 V2000
   -4.3640   25.6720  -30.7420 N   0  0  0  0  0  0  0  0  0  0  0  0
   -4.2520   23.9760  -30.4380 S   0  0  0  0  0  0  0  0  0  0  0  0
   -4.0720   23.7390  -28.9650 O   0  0  0  0  0  0  0  0  0  0  0  0
   -3.0600   23.4210  -31.1650 O   0  0  0  0  0  0  0  0  0  0  0  0
   -5.7230   23.1790  -30.9870 C   0  0  0  0  0  0  0  0  0  0  0  0
   -6.0810   21.9360  -30.4530 C   0  0  0  0  0  0  0  0  0  0  0  0
   -7.2670   21.3130  -30.8520 C   0  0  0  0  0  0  0  0  0  0  0  0
   -8.1180   21.9370  -31.7780 C   0  0  0  0  0  0  0  0  0  0  0  0
   -9.4320   21.2960  -32.1610 C   0  0  0  0  0  0  0  0  0  0  0  0
   -9.2520   20.0310  -32.8950 N   0  0  0  0  0  0  0  0  0  0  0  0
   -8.8210   18.9080  -32.0440 C   0  0  0  0  0  0  0  0  0  0  0  0
   -7.4620   18.3930  -32.4260 C   0  0  0  0  0  0  0  0  0  0  0  0
   -6.9960   17.3770  -31.8440 O   0  0  0  0  0  0  0  0  0  0  0  0
   -6.7380   19.0370  -33.4830 N   0  0  0  0  0  0  0  0  0  0  0  0
   -5.3490   19.4030  -33.5050 C   0  0  0  0  0  0  0  0  0  0  0  0
   -5.0080   20.7310  -33.2180 C   0  0  0  0  0  0  0  0  0  0  0  0
   -3.6710   21.1390  -33.2270 C   0  0  0  0  0  0  0  0  0  0  0  0
   -2.6600   20.2170  -33.5090 C   0  0  0  0  0  0  0  0  0  0  0  0
   -2.9870   18.8840  -33.7710 C   0  0  0  0  0  0  0  0  0  0  0  0
   -4.3230   18.4720  -33.7620 C   0  0  0  0  0  0  0  0  0  0  0  0
   -7.7460   23.1740  -32.3260 C   0  0  0  0  0  0  0  0  0  0  0  0
   -6.5550   23.7920  -31.9330 C   0  0  0  0  0  0  0  0  0  0  0  0
   -3.4790   25.9590  -31.2180 H   0  0  0  0  0  0  0  0  0  0  0  0
   -5.4265   21.4472  -29.7163 H   0  0  0  0  0  0  0  0  0  0  0  0
   -7.5347   20.3294  -30.4386 H   0  0  0  0  0  0  0  0  0  0  0  0
  -10.0055   21.0931  -31.2445 H   0  0  0  0  0  0  0  0  0  0  0  0
   -9.9626   21.9942  -32.8250 H   0  0  0  0  0  0  0  0  0  0  0  0
   -8.6030   20.1630  -33.7070 H   0  0  0  0  0  0  0  0  0  0  0  0
   -8.7895   19.2481  -30.9984 H   0  0  0  0  0  0  0  0  0  0  0  0
   -9.5419   18.0880  -32.1777 H   0  0  0  0  0  0  0  0  0  0  0  0
   -5.7988   21.4588  -32.9836 H   0  0  0  0  0  0  0  0  0  0  0  0
   -3.4147   22.1869  -33.0119 H   0  0  0  0  0  0  0  0  0  0  0  0
   -1.6085   20.5398  -33.5248 H   0  0  0  0  0  0  0  0  0  0  0  0
   -2.1905   18.1562  -33.9851 H   0  0  0  0  0  0  0  0  0  0  0  0
   -4.5737   17.4187  -33.9560 H   0  0  0  0  0  0  0  0  0  0  0  0
   -8.3951   23.6603  -33.0691 H   0  0  0  0  0  0  0  0  0  0  0  0
   -6.2706   24.7617  -32.3675 H   0  0  0  0  0  0  0  0  0  0  0  0
  1  2  1  0
  2  3  2  0
  2  4  2  0
  2  5  1  0
  5  6  2  0
  6  7  1  0
  7  8  2  0
  8  9  1  0
  9 10  1  0
 10 11  1  0
 11 12  1  0
 12 13  2  0
 12 14  1  0
 14 15  1  0
 15 16  2  0
 16 17  1  0
 17 18  2  0
 18 19  1  0
 19 20  2  0
  8 21  1  0
 21 22  2  0
 22  5  1  0
 20 15  1  0
  1 23  1  0
  6 24  1  0
  7 25  1  0
  9 26  1  0
  9 27  1  0
 10 28  1  0
 11 29  1  0
 11 30  1  0
 16 31  1  0
 17 32  1  0
 18 33  1  0
 19 34  1  0
 20 35  1  0
 21 36  1  0
 22 37  1  0
M  CHG  2   1  -1  14  -1
M  END
>  <UniqueID>  (40) 
40

>  <SMILES>  (40) 
[NH-]S(=O)(=O)c1ccc(CNCC(=O)[N-]c2ccccc2)cc1

>  <Energy>  (40) 
37.61638505419136

>  <Genealogy>  (40) 
[NH-]S(=O)(=O)c1ccc(CNCC(=O)[N-]c2ccccc2)cc1 (protonated)
[NH-]S(=O)(=O)c1ccc(CNCC(=O)[N-]c2ccccc2)cc1 (3D coordinates assigned)
[NH-]S(=O)(=O)c1ccc(CNCC(=O)[N-]c2ccccc2)cc1 (optimized conformer: 37.61638505419136 kcal/mol)

>  <smiles>  (40) 
NS(=O)(=O)c1ccc(CNCC(=O)Nc2ccccc2)cc1

>  <score_type>  (40) 
oracle

>  <origin>  (40) 
adg

>  <m_score__min__energy>  (40) 
-9.8399999999999999

>  <m_primary>  (40) 
energy

$$$$
40:0
     RDKit          3D

 34 37  0  0  0  0  0  0  0  0999 V2000
   -5.7290   18.6170  -34.2590 C   0  0  0  0  0  0  0  0  0  0  0  0
   -6.8750   18.8600  -33.4520 O   0  0  0  0  0  0  0  0  0  0  0  0
   -7.0480   20.0390  -32.7210 C   0  0  0  0  0  0  0  0  0  0  0  0
   -8.3400   20.4390  -32.3590 C   0  0  0  0  0  0  0  0  0  0  0  0
   -8.5240   21.6220  -31.6370 C   0  0  0  0  0  0  0  0  0  0  0  0
   -7.4160   22.3940  -31.2800 C   0  0  0  0  0  0  0  0  0  0  0  0
   -7.5750   23.5750  -30.6040 N   0  0  0  0  0  0  0  0  0  0  0  0
   -6.5110   24.3650  -30.2670 C   0  0  0  0  0  0  0  0  0  0  0  0
   -6.7290   25.6660  -29.5610 C   0  0  0  0  0  0  0  0  0  0  0  0
   -5.2320   23.9360  -30.6320 C   0  0  0  0  0  0  0  0  0  0  0  0
   -4.0630   24.5750  -30.4570 N   0  0  0  0  0  0  0  0  0  0  0  0
   -3.1120   23.8090  -30.9850 N   0  0  0  0  0  0  0  0  0  0  0  0
   -3.6740   22.6850  -31.4890 C   0  0  0  0  0  0  0  0  0  0  0  0
   -2.8960   21.6090  -32.1270 C   0  0  0  0  0  0  0  0  0  0  0  0
   -1.9200   20.9200  -31.3960 C   0  0  0  0  0  0  0  0  0  0  0  0
   -1.1990   19.8850  -31.9950 C   0  0  0  0  0  0  0  0  0  0  0  0
   -1.4770   19.5350  -33.3180 C   0  0  0  0  0  0  0  0  0  0  0  0
   -2.4470   20.1920  -34.0060 N   0  0  0  0  0  0  0  0  0  0  0  0
   -3.1580   21.2070  -33.4460 C   0  0  0  0  0  0  0  0  0  0  0  0
   -5.0420   22.7510  -31.2840 C   0  0  0  0  0  0  0  0  0  0  0  0
   -6.1240   21.9480  -31.6510 C   0  0  0  0  0  0  0  0  0  0  0  0
   -5.9760   20.8010  -32.3620 N   0  0  0  0  0  0  0  0  0  0  0  0
   -4.8581   18.4323  -33.6129 H   0  0  0  0  0  0  0  0  0  0  0  0
   -5.9077   17.7368  -34.8940 H   0  0  0  0  0  0  0  0  0  0  0  0
   -5.5351   19.4940  -34.8940 H   0  0  0  0  0  0  0  0  0  0  0  0
   -9.2074   19.8245  -32.6417 H   0  0  0  0  0  0  0  0  0  0  0  0
   -9.5365   21.9433  -31.3514 H   0  0  0  0  0  0  0  0  0  0  0  0
   -6.7016   25.5022  -28.4736 H   0  0  0  0  0  0  0  0  0  0  0  0
   -5.9371   26.3746  -29.8452 H   0  0  0  0  0  0  0  0  0  0  0  0
   -7.7087   26.0777  -29.8452 H   0  0  0  0  0  0  0  0  0  0  0  0
   -1.7213   21.1943  -30.3495 H   0  0  0  0  0  0  0  0  0  0  0  0
   -0.4203   19.3510  -31.4307 H   0  0  0  0  0  0  0  0  0  0  0  0
   -0.9102   18.7268  -33.8034 H   0  0  0  0  0  0  0  0  0  0  0  0
   -3.9409   21.7146  -34.0286 H   0  0  0  0  0  0  0  0  0  0  0  0
  1  2  1  0
  2  3  1  0
  3  4  2  0
  4  5  1  0
  5  6  2  0
  6  7  1  0
  7  8  2  0
  8  9  1  0
  8 10  1  0
 10 11  2  0
 11 12  1  0
 12 13  1  0
 13 14  1  0
 14 15  2  0
 15 16  1  0
 16 17  2  0
 17 18  1  0
 18 19  2  0
 13 20  2  0
 20 21  1  0
 21 22  2  0
 22  3  1  0
 21  6  1  0
 20 10  1  0
 19 14  1  0
  1 23  1  0
  1 24  1  0
  1 25  1  0
  4 26  1  0
  5 27  1  0
  9 28  1  0
  9 29  1  0
  9 30  1  0
 15 31  1  0
 16 32  1  0
 17 33  1  0
 19 34  1  0
M  CHG  1  12  -1
M  END
>  <UniqueID>  (41) 
41

>  <SMILES>  (41) 
COc1ccc2nc(C)c3n[n-]c(-c4cccnc4)c3c2n1

>  <Energy>  (41) 
82.97984344524616

>  <Genealogy>  (41) 
COc1ccc2nc(C)c3n[n-]c(-c4cccnc4)c3c2n1 (protonated)
COc1ccc2nc(C)c3n[n-]c(-c4cccnc4)c3c2n1 (3D coordinates assigned)
COc1ccc2nc(C)c3n[n-]c(-c4cccnc4)c3c2n1 (optimized conformer: 82.97984344524616 kcal/mol)

>  <smiles>  (41) 
COc1ccc2nc(C)c3n[nH]c(-c4cccnc4)c3c2n1

>  <score_type>  (41) 
oracle

>  <origin>  (41) 
adg

>  <m_score__min__energy>  (41) 
-8.4399999999999995

>  <m_primary>  (41) 
energy

$$$$
41:0
     RDKit          3D

 40 41  0  0  0  0  0  0  0  0999 V2000
  -10.3556   20.1749  -32.8395 H   0  0  0  0  0  0  0  0  0  0  0  0
   -9.4860   20.3740  -32.1960 C   0  0  0  0  0  0  0  0  0  0  0  0
   -8.5960   19.2340  -31.8870 C   0  0  0  0  0  0  0  0  0  0  0  0
   -9.1280   18.1180  -31.6340 O   0  0  0  0  0  0  0  0  0  0  0  0
   -7.1580   19.3270  -32.0610 N   0  0  2  0  0  0  0  0  0  0  0  0
   -6.8000   20.0810  -31.4320 H   0  0  0  0  0  0  0  0  0  0  0  0
   -6.8730   19.7670  -33.4500 C   0  0  0  0  0  0  0  0  0  0  0  0
   -7.1194   20.8353  -33.5390 H   0  0  0  0  0  0  0  0  0  0  0  0
   -7.4847   19.1526  -34.1270 H   0  0  0  0  0  0  0  0  0  0  0  0
   -5.3940   19.5660  -33.8430 C   0  0  1  0  0  0  0  0  0  0  0  0
   -5.2965   19.8220  -34.9083 H   0  0  0  0  0  0  0  0  0  0  0  0
   -4.4740   20.5140  -33.0580 C   0  0  0  0  0  0  0  0  0  0  0  0
   -4.6234   20.3600  -31.9791 H   0  0  0  0  0  0  0  0  0  0  0  0
   -3.4255   20.3048  -33.3165 H   0  0  0  0  0  0  0  0  0  0  0  0
   -4.7145   21.5558  -33.3165 H   0  0  0  0  0  0  0  0  0  0  0  0
   -4.9590   18.0850  -33.6900 C   0  0  0  0  0  0  0  0  0  0  0  0
   -3.9811   18.0570  -33.1871 H   0  0  0  0  0  0  0  0  0  0  0  0
   -4.9143   17.6491  -34.6990 H   0  0  0  0  0  0  0  0  0  0  0  0
   -5.9590   17.2450  -32.8680 C   0  0  1  0  0  0  0  0  0  0  0  0
   -6.8152   16.9941  -33.5115 H   0  0  0  0  0  0  0  0  0  0  0  0
   -5.3190   15.9300  -32.4070 C   0  0  0  0  0  0  0  0  0  0  0  0
   -5.3024   15.8959  -31.3077 H   0  0  0  0  0  0  0  0  0  0  0  0
   -5.9053   15.0823  -32.7913 H   0  0  0  0  0  0  0  0  0  0  0  0
   -4.2902   15.8684  -32.7913 H   0  0  0  0  0  0  0  0  0  0  0  0
   -6.4760   18.0580  -31.6640 C   0  0  0  0  0  0  0  0  0  0  0  0
   -5.6216   18.3075  -31.0176 H   0  0  0  0  0  0  0  0  0  0  0  0
   -7.2192   17.4359  -31.1438 H   0  0  0  0  0  0  0  0  0  0  0  0
   -9.3210   21.6300  -31.7570 C   0  0  0  0  0  0  0  0  0  0  0  0
  -10.2253   22.1920  -31.4806 H   0  0  0  0  0  0  0  0  0  0  0  0
   -8.0260   22.3180  -31.6150 C   0  0  0  0  0  0  0  0  0  0  0  0
   -7.0820   21.9130  -30.7970 O   0  0  0  0  0  0  0  0  0  0  0  0
   -6.0530   22.7180  -30.9220 C   0  0  0  0  0  0  0  0  0  0  0  0
   -4.7780   22.5700  -30.1630 C   0  0  0  0  0  0  0  0  0  0  0  0
   -4.9888   22.5945  -29.0837 H   0  0  0  0  0  0  0  0  0  0  0  0
   -4.3059   21.6110  -30.4227 H   0  0  0  0  0  0  0  0  0  0  0  0
   -4.0988   23.3953  -30.4227 H   0  0  0  0  0  0  0  0  0  0  0  0
   -6.3150   23.6840  -31.8720 C   0  0  0  0  0  0  0  0  0  0  0  0
   -5.6457   24.4934  -32.1990 H   0  0  0  0  0  0  0  0  0  0  0  0
   -7.5910   23.4230  -32.3260 C   0  0  0  0  0  0  0  0  0  0  0  0
   -8.1481   23.9786  -33.0947 H   0  0  0  0  0  0  0  0  0  0  0  0
  1  2  1  0
  2  3  1  0
  3  4  2  0
  3  5  1  0
  5  6  1  1
  5  7  1  0
  7  8  1  0
  7  9  1  0
  7 10  1  0
 10 11  1  6
 10 12  1  0
 12 13  1  0
 12 14  1  0
 12 15  1  0
 10 16  1  0
 16 17  1  0
 16 18  1  0
 16 19  1  0
 19 20  1  6
 19 21  1  0
 21 22  1  0
 21 23  1  0
 21 24  1  0
 19 25  1  0
 25 26  1  0
 25 27  1  0
  2 28  2  0
 28 29  1  0
 28 30  1  0
 30 31  1  0
 31 32  1  0
 32 33  1  0
 33 34  1  0
 33 35  1  0
 33 36  1  0
 32 37  2  0
 37 38  1  0
 37 39  1  0
 39 40  1  0
 25  5  1  0
 39 30  2  0
M  CHG  1   5   1
M  END
>  <UniqueID>  (42) 
42

>  <SMILES>  (42) 
Cc1ccc(/C=C\C(=O)[NH+]2C[C@H](C)C[C@H](C)C2)o1

>  <Energy>  (42) 
78.21654667415058

>  <Genealogy>  (42) 
Cc1ccc(C=CC(=O)[NH+]2CC(C)CC(C)C2)o1 (protonated)
Cc1ccc(C=CC(=O)[NH+]2C[C@H](C)C[C@H](C)C2)o1 (chirality)
Cc1ccc(/C=C\C(=O)[NH+]2C[C@H](C)C[C@H](C)C2)o1 (cis-trans isomerization)
Cc1ccc(/C=C\C(=O)[NH+]2C[C@H](C)C[C@H](C)C2)o1 (3D coordinates assigned)
Cc1ccc(/C=C\C(=O)[NH+]2C[C@H](C)C[C@H](C)C2)o1 (nonaromatic ring conformer: 78.21654667415058 kcal/mol)

>  <smiles>  (42) 
Cc1ccc(C=CC(=O)N2CC(C)CC(C)C2)o1

>  <score_type>  (42) 
oracle

>  <origin>  (42) 
adg

>  <m_score__min__energy>  (42) 
-7.29

>  <m_primary>  (42) 
energy

$$$$
42:0
     RDKit          3D

 28 29  0  0  0  0  0  0  0  0999 V2000
   -5.3610   25.6390  -30.4560 C   0  0  0  0  0  0  0  0  0  0  0  0
   -4.7190   24.5910  -31.1740 O   0  0  0  0  0  0  0  0  0  0  0  0
   -5.3960   23.4500  -31.6140 C   0  0  0  0  0  0  0  0  0  0  0  0
   -4.6930   22.4610  -32.3040 C   0  0  0  0  0  0  0  0  0  0  0  0
   -5.3580   21.3030  -32.7520 C   0  0  0  0  0  0  0  0  0  0  0  0
   -4.6920   20.2800  -33.4520 O   0  0  0  0  0  0  0  0  0  0  0  0
   -4.5520   18.9270  -33.0210 C   0  0  0  0  0  0  0  0  0  0  0  0
   -4.9740   17.9630  -34.1260 C   0  0  0  0  0  0  0  0  0  0  0  0
   -6.3400   16.7550  -33.4720 Br  0  0  0  0  0  0  0  0  0  0  0  0
   -6.7380   21.1720  -32.4970 C   0  0  0  0  0  0  0  0  0  0  0  0
   -7.4630   20.0430  -32.9200 C   0  0  0  0  0  0  0  0  0  0  0  0
   -8.8310   19.9420  -32.6480 C   0  0  0  0  0  0  0  0  0  0  0  0
   -9.4870   20.9620  -31.9550 C   0  0  0  0  0  0  0  0  0  0  0  0
   -8.7800   22.0890  -31.5280 C   0  0  0  0  0  0  0  0  0  0  0  0
   -7.4100   22.2000  -31.7950 C   0  0  0  0  0  0  0  0  0  0  0  0
   -6.7280   23.2970  -31.3770 N   0  0  0  0  0  0  0  0  0  0  0  0
   -5.2531   25.4629  -29.3756 H   0  0  0  0  0  0  0  0  0  0  0  0
   -4.8972   26.6012  -30.7188 H   0  0  0  0  0  0  0  0  0  0  0  0
   -6.4289   25.6629  -30.7188 H   0  0  0  0  0  0  0  0  0  0  0  0
   -3.6176   22.5862  -32.4983 H   0  0  0  0  0  0  0  0  0  0  0  0
   -3.5004   18.7383  -32.7592 H   0  0  0  0  0  0  0  0  0  0  0  0
   -5.1979   18.7660  -32.1452 H   0  0  0  0  0  0  0  0  0  0  0  0
   -5.3723   18.5363  -34.9761 H   0  0  0  0  0  0  0  0  0  0  0  0
   -4.0994   17.3774  -34.4456 H   0  0  0  0  0  0  0  0  0  0  0  0
   -6.9520   19.2368  -33.4667 H   0  0  0  0  0  0  0  0  0  0  0  0
   -9.3922   19.0564  -32.9809 H   0  0  0  0  0  0  0  0  0  0  0  0
  -10.5634   20.8778  -31.7448 H   0  0  0  0  0  0  0  0  0  0  0  0
   -9.3001   22.8896  -30.9817 H   0  0  0  0  0  0  0  0  0  0  0  0
  1  2  1  0
  2  3  1  0
  3  4  2  0
  4  5  1  0
  5  6  1  0
  6  7  1  0
  7  8  1  0
  8  9  1  0
  5 10  2  0
 10 11  1  0
 11 12  2  0
 12 13  1  0
 13 14  2  0
 14 15  1  0
 15 16  2  0
 16  3  1  0
 15 10  1  0
  1 17  1  0
  1 18  1  0
  1 19  1  0
  4 20  1  0
  7 21  1  0
  7 22  1  0
  8 23  1  0
  8 24  1  0
 11 25  1  0
 12 26  1  0
 13 27  1  0
 14 28  1  0
M  END
>  <UniqueID>  (43) 
43

>  <SMILES>  (43) 
COc1cc(OCCBr)c2ccccc2n1

>  <Energy>  (43) 
27.78026276241117

>  <Genealogy>  (43) 
COc1cc(OCCBr)c2ccccc2n1 (3D coordinates assigned)
COc1cc(OCCBr)c2ccccc2n1 (optimized conformer: 27.78026276241117 kcal/mol)

>  <smiles>  (43) 
COc1cc(OCCBr)c2ccccc2n1

>  <score_type>  (43) 
oracle

>  <origin>  (43) 
adg

>  <m_score__min__energy>  (43) 
-6.46

>  <m_primary>  (43) 
energy

$$$$
43:0
     RDKit          3D

 55 59  0  0  0  0  0  0  0  0999 V2000
    1.0211   17.9450  -28.8124 H   0  0  0  0  0  0  0  0  0  0  0  0
    0.5450   18.9310  -28.9180 C   0  0  0  0  0  0  0  0  0  0  0  0
    0.4680   19.7900  -27.8190 C   0  0  0  0  0  0  0  0  0  0  0  0
    0.8839   19.4804  -26.8489 H   0  0  0  0  0  0  0  0  0  0  0  0
   -0.1380   21.0440  -27.9520 C   0  0  0  0  0  0  0  0  0  0  0  0
   -0.1957   21.7197  -27.0860 H   0  0  0  0  0  0  0  0  0  0  0  0
   -0.6720   21.4420  -29.1860 C   0  0  0  0  0  0  0  0  0  0  0  0
   -1.3140   22.7160  -29.3100 N   0  0  0  0  0  0  0  0  0  0  0  0
   -0.6250   23.9010  -28.7690 C   0  0  0  0  0  0  0  0  0  0  0  0
    0.3463   24.0064  -29.2744 H   0  0  0  0  0  0  0  0  0  0  0  0
   -0.5017   23.7522  -27.6861 H   0  0  0  0  0  0  0  0  0  0  0  0
   -1.4170   25.1690  -28.9720 C   0  0  0  0  0  0  0  0  0  0  0  0
   -0.8680   26.2870  -28.7850 O   0  0  0  0  0  0  0  0  0  0  0  0
   -2.7990   25.1180  -29.3390 N   0  0  0  0  0  0  0  0  0  0  0  0
   -3.4910   23.8410  -29.4340 C   0  0  0  0  0  0  0  0  0  0  0  0
   -4.3931   23.9575  -30.0526 H   0  0  0  0  0  0  0  0  0  0  0  0
   -3.7788   23.5032  -28.4275 H   0  0  0  0  0  0  0  0  0  0  0  0
   -2.5650   22.8090  -30.0730 C   0  0  0  0  0  0  0  0  0  0  0  0
   -2.3398   23.1119  -31.1062 H   0  0  0  0  0  0  0  0  0  0  0  0
   -3.0624   21.8279  -30.0718 H   0  0  0  0  0  0  0  0  0  0  0  0
   -0.6120   20.5720  -30.2880 C   0  0  0  0  0  0  0  0  0  0  0  0
   -1.1380   20.9910  -31.5570 N   0  0  0  0  0  0  0  0  0  0  0  0
   -1.9950   20.3370  -32.2920 C   0  0  0  0  0  0  0  0  0  0  0  0
   -1.5340   19.2740  -33.0740 C   0  0  0  0  0  0  0  0  0  0  0  0
   -0.4645   19.0168  -33.0780 H   0  0  0  0  0  0  0  0  0  0  0  0
   -2.4300   18.5410  -33.8480 C   0  0  0  0  0  0  0  0  0  0  0  0
   -2.0691   17.7004  -34.4589 H   0  0  0  0  0  0  0  0  0  0  0  0
   -3.7880   18.8730  -33.8490 C   0  0  0  0  0  0  0  0  0  0  0  0
   -4.6990   18.1460  -34.6280 C   0  0  0  0  0  0  0  0  0  0  0  0
   -4.3489   17.2953  -35.2311 H   0  0  0  0  0  0  0  0  0  0  0  0
   -6.0480   18.4990  -34.6400 C   0  0  0  0  0  0  0  0  0  0  0  0
   -6.7576   17.9301  -35.2587 H   0  0  0  0  0  0  0  0  0  0  0  0
   -6.5010   19.5700  -33.8710 C   0  0  0  0  0  0  0  0  0  0  0  0
   -7.5662   19.8435  -33.8940 H   0  0  0  0  0  0  0  0  0  0  0  0
   -5.6130   20.3040  -33.0670 C   0  0  0  0  0  0  0  0  0  0  0  0
   -6.1590   21.4010  -32.2350 C   0  0  0  0  0  0  0  0  0  0  0  0
   -7.3390   21.2110  -31.4940 C   0  0  0  0  0  0  0  0  0  0  0  0
   -7.8657   20.2463  -31.5394 H   0  0  0  0  0  0  0  0  0  0  0  0
   -7.8440   22.2430  -30.7010 C   0  0  0  0  0  0  0  0  0  0  0  0
   -8.7592   22.0852  -30.1115 H   0  0  0  0  0  0  0  0  0  0  0  0
   -7.1880   23.4770  -30.6550 C   0  0  0  0  0  0  0  0  0  0  0  0
   -7.5896   24.2854  -30.0264 H   0  0  0  0  0  0  0  0  0  0  0  0
   -6.0220   23.6920  -31.4040 C   0  0  0  0  0  0  0  0  0  0  0  0
   -5.4060   24.9520  -31.3330 O   0  0  0  0  0  0  0  0  0  0  0  0
   -5.7200   25.9470  -30.3610 C   0  0  0  0  0  0  0  0  0  0  0  0
   -5.5880   25.5287  -29.3522 H   0  0  0  0  0  0  0  0  0  0  0  0
   -5.0506   26.8102  -30.4905 H   0  0  0  0  0  0  0  0  0  0  0  0
   -6.7636   26.2696  -30.4905 H   0  0  0  0  0  0  0  0  0  0  0  0
   -5.5100   22.6460  -32.1970 C   0  0  0  0  0  0  0  0  0  0  0  0
   -4.5970   22.8053  -32.7896 H   0  0  0  0  0  0  0  0  0  0  0  0
   -4.2340   19.9640  -33.0620 C   0  0  0  0  0  0  0  0  0  0  0  0
   -3.3210   20.6820  -32.3330 N   0  0  0  0  0  0  0  0  0  0  0  0
   -3.6320   21.5410  -31.8330 H   0  0  0  0  0  0  0  0  0  0  0  0
    0.0180   19.3230  -30.1510 C   0  0  0  0  0  0  0  0  0  0  0  0
    0.0964   18.6512  -31.0185 H   0  0  0  0  0  0  0  0  0  0  0  0
  1  2  1  0
  2  3  2  0
  3  4  1  0
  3  5  1  0
  5  6  1  0
  5  7  2  0
  7  8  1  0
  8  9  1  0
  9 10  1  0
  9 11  1  0
  9 12  1  0
 12 13  2  0
 12 14  1  0
 14 15  1  0
 15 16  1  0
 15 17  1  0
 15 18  1  0
 18 19  1  0
 18 20  1  0
  7 21  1  0
 21 22  1  0
 22 23  2  0
 23 24  1  0
 24 25  1  0
 24 26  2  0
 26 27  1  0
 26 28  1  0
 28 29  2  0
 29 30  1  0
 29 31  1  0
 31 32  1  0
 31 33  2  0
 33 34  1  0
 33 35  1  0
 35 36  1  0
 36 37  2  0
 37 38  1  0
 37 39  1  0
 39 40  1  0
 39 41  2  0
 41 42  1  0
 41 43  1  0
 43 44  1  0
 44 45  1  0
 45 46  1  0
 45 47  1  0
 45 48  1  0
 43 49  2  0
 49 50  1  0
 35 51  2  0
 51 52  1  0
 52 53  1  0
 21 54  2  0
 54 55  1  0
 54  2  1  0
 18  8  1  0
 52 23  1  0
 51 28  1  0
 49 36  1  0
M  CHG  1  14  -1
M  END
>  <UniqueID>  (44) 
44

>  <SMILES>  (44) 
COc1cccc(-c2cccc3cc/c(=N/c4ccccc4N4CC[N-]C(=O)C4)[nH]c23)c1

>  <Energy>  (44) 
84.04672928350891

>  <Genealogy>  (44) 
COc1cccc(-c2cccc3ccc(=Nc4ccccc4N4CC[N-]C(=O)C4)[nH]c23)c1 (protonated)
COc1cccc(-c2cccc3cc/c(=N/c4ccccc4N4CC[N-]C(=O)C4)[nH]c23)c1 (cis-trans isomerization)
COc1cccc(-c2cccc3cc/c(=N/c4ccccc4N4CC[N-]C(=O)C4)[nH]c23)c1 (3D coordinates assigned)
COc1cccc(-c2cccc3cc/c(=N/c4ccccc4N4CC[N-]C(=O)C4)[nH]c23)c1 (nonaromatic ring conformer: 84.04672928350891 kcal/mol)

>  <smiles>  (44) 
COc1cccc(-c2cccc3ccc(=Nc4ccccc4N4CCNC(=O)C4)[nH]c23)c1

>  <score_type>  (44) 
oracle

>  <origin>  (44) 
adg

>  <m_score__min__energy>  (44) 
-11.619999999999999

>  <m_primary>  (44) 
energy

$$$$
44:0
     RDKit          3D

 38 39  0  0  0  0  0  0  0  0999 V2000
   -1.5780   26.2210  -25.3730 C   0  0  0  0  0  0  0  0  0  0  0  0
   -0.5830   26.2680  -26.5240 C   0  0  0  0  0  0  0  0  0  0  0  0
   -0.9150   25.2580  -27.5230 N   0  0  0  0  0  0  0  0  0  0  0  0
   -2.1580   24.8950  -27.8910 C   0  0  0  0  0  0  0  0  0  0  0  0
   -2.0320   23.9610  -28.8960 C   0  0  0  0  0  0  0  0  0  0  0  0
   -3.0740   23.3610  -29.6730 N   0  0  0  0  0  0  0  0  0  0  0  0
   -4.0120   24.0810  -30.4780 C   0  0  0  0  0  0  0  0  0  0  0  0
   -3.8690   25.3250  -30.6200 O   0  0  0  0  0  0  0  0  0  0  0  0
   -5.0790   23.4020  -31.1530 N   0  0  0  0  0  0  0  0  0  0  0  0
   -6.2540   24.1260  -31.6370 C   0  0  0  0  0  0  0  0  0  0  0  0
   -7.5550   23.4110  -31.2530 C   0  0  0  0  0  0  0  0  0  0  0  0
   -7.5930   22.0010  -31.7610 C   0  0  0  0  0  0  0  0  0  0  0  0
   -8.6480   21.1720  -31.5940 N   0  0  0  0  0  0  0  0  0  0  0  0
   -8.2470   20.0400  -32.2040 C   0  0  0  0  0  0  0  0  0  0  0  0
   -9.0980   18.8190  -32.3400 C   0  0  0  0  0  0  0  0  0  0  0  0
   -6.9880   20.2310  -32.7330 C   0  0  0  0  0  0  0  0  0  0  0  0
   -6.1840   19.2640  -33.5390 C   0  0  0  0  0  0  0  0  0  0  0  0
   -6.6110   21.4500  -32.4400 O   0  0  0  0  0  0  0  0  0  0  0  0
   -0.6790   23.8220  -29.1190 C   0  0  0  0  0  0  0  0  0  0  0  0
   -0.0150   24.6260  -28.2640 N   0  0  0  0  0  0  0  0  0  0  0  0
   -1.0343   26.2467  -24.4171 H   0  0  0  0  0  0  0  0  0  0  0  0
   -2.2517   27.0883  -25.4351 H   0  0  0  0  0  0  0  0  0  0  0  0
   -2.1670   25.2940  -25.4351 H   0  0  0  0  0  0  0  0  0  0  0  0
   -0.6147   27.2637  -26.9904 H   0  0  0  0  0  0  0  0  0  0  0  0
    0.4253   26.0664  -26.1333 H   0  0  0  0  0  0  0  0  0  0  0  0
   -3.0999   25.2739  -27.4677 H   0  0  0  0  0  0  0  0  0  0  0  0
   -5.0110   22.3670  -31.2850 H   0  0  0  0  0  0  0  0  0  0  0  0
   -6.2579   25.1345  -31.1979 H   0  0  0  0  0  0  0  0  0  0  0  0
   -6.1996   24.1758  -32.7345 H   0  0  0  0  0  0  0  0  0  0  0  0
   -7.6413   23.3957  -30.1565 H   0  0  0  0  0  0  0  0  0  0  0  0
   -8.3915   23.9593  -31.7108 H   0  0  0  0  0  0  0  0  0  0  0  0
   -9.3607   18.4420  -31.3406 H   0  0  0  0  0  0  0  0  0  0  0  0
  -10.0166   19.0717  -32.8898 H   0  0  0  0  0  0  0  0  0  0  0  0
   -8.5430   18.0446  -32.8898 H   0  0  0  0  0  0  0  0  0  0  0  0
   -5.6289   18.5963  -32.8637 H   0  0  0  0  0  0  0  0  0  0  0  0
   -6.8561   18.6676  -34.1734 H   0  0  0  0  0  0  0  0  0  0  0  0
   -5.4749   19.8160  -34.1734 H   0  0  0  0  0  0  0  0  0  0  0  0
   -0.2173   23.1642  -29.8700 H   0  0  0  0  0  0  0  0  0  0  0  0
  1  2  1  0
  2  3  1  0
  3  4  1  0
  4  5  2  0
  5  6  1  0
  6  7  1  0
  7  8  2  0
  7  9  1  0
  9 10  1  0
 10 11  1  0
 11 12  1  0
 12 13  2  0
 13 14  1  0
 14 15  1  0
 14 16  2  0
 16 17  1  0
 16 18  1  0
  5 19  1  0
 19 20  2  0
 20  3  1  0
 18 12  1  0
  1 21  1  0
  1 22  1  0
  1 23  1  0
  2 24  1  0
  2 25  1  0
  4 26  1  0
  9 27  1  0
 10 28  1  0
 10 29  1  0
 11 30  1  0
 11 31  1  0
 15 32  1  0
 15 33  1  0
 15 34  1  0
 17 35  1  0
 17 36  1  0
 17 37  1  0
 19 38  1  0
M  CHG  1   6  -1
M  END
>  <UniqueID>  (45) 
45

>  <SMILES>  (45) 
CCn1cc([N-]C(=O)NCCc2nc(C)c(C)o2)cn1

>  <Energy>  (45) 
86.47619489597503

>  <Genealogy>  (45) 
CCn1cc([N-]C(=O)NCCc2nc(C)c(C)o2)cn1 (protonated)
CCn1cc([N-]C(=O)NCCc2nc(C)c(C)o2)cn1 (3D coordinates assigned)
CCn1cc([N-]C(=O)NCCc2nc(C)c(C)o2)cn1 (optimized conformer: 86.47619489597503 kcal/mol)

>  <smiles>  (45) 
CCn1cc(NC(=O)NCCc2nc(C)c(C)o2)cn1

>  <score_type>  (45) 
oracle

>  <origin>  (45) 
adg

>  <m_score__min__energy>  (45) 
-7.7199999999999998

>  <m_primary>  (45) 
energy

$$$$
