0:0
     RDKit          3D

 52 55  0  0  0  0  0  0  0  0999 V2000
   -6.8510   24.1880  -30.8610 C   0  0  0  0  0  0  0  0  0  0  0  0
   -6.4550   23.0350  -31.5960 O   0  0  0  0  0  0  0  0  0  0  0  0
   -7.2810   21.9280  -31.8490 C   0  0  0  0  0  0  0  0  0  0  0  0
   -8.6850   22.0050  -31.7550 C   0  0  0  0  0  0  0  0  0  0  0  0
   -9.4710   20.8740  -31.9930 C   0  0  0  0  0  0  0  0  0  0  0  0
   -8.8690   19.6580  -32.3230 C   0  0  0  0  0  0  0  0  0  0  0  0
   -7.4780   19.5710  -32.4210 C   0  0  0  0  0  0  0  0  0  0  0  0
   -6.6820   20.7020  -32.1930 C   0  0  0  0  0  0  0  0  0  0  0  0
   -5.2560   20.5970  -32.2850 N   0  0  0  0  0  0  0  0  0  0  0  0
   -4.5470   21.0920  -33.4650 C   0  0  0  0  0  0  0  0  0  0  0  0
   -3.3700   21.9560  -33.0060 C   0  0  0  0  0  0  0  0  0  0  0  0
   -2.4500   21.2390  -32.0740 N   0  0  0  0  0  0  0  0  0  0  0  0
   -1.8130   22.1480  -31.0820 C   0  0  0  0  0  0  0  0  0  0  0  0
   -2.7450   22.6650  -30.0000 C   0  0  0  0  0  0  0  0  0  0  0  0
   -3.5010   23.8210  -30.1010 C   0  0  0  0  0  0  0  0  0  0  0  0
   -4.2500   23.9110  -28.9460 C   0  0  0  0  0  0  0  0  0  0  0  0
   -3.9100   22.8240  -28.1700 C   0  0  0  0  0  0  0  0  0  0  0  0
   -2.9830   22.0760  -28.8010 N   0  0  0  0  0  0  0  0  0  0  0  0
   -2.3640   20.9090  -28.2380 C   0  0  0  0  0  0  0  0  0  0  0  0
   -1.0060   20.6400  -28.4670 C   0  0  0  0  0  0  0  0  0  0  0  0
   -0.4070   19.5100  -27.9030 C   0  0  0  0  0  0  0  0  0  0  0  0
   -1.1570   18.6500  -27.0940 C   0  0  0  0  0  0  0  0  0  0  0  0
   -2.5040   18.9260  -26.8420 C   0  0  0  0  0  0  0  0  0  0  0  0
   -3.1040   20.0570  -27.4040 C   0  0  0  0  0  0  0  0  0  0  0  0
   -3.0000   19.9950  -31.4680 C   0  0  0  0  0  0  0  0  0  0  0  0
   -4.5010   20.0790  -31.1450 C   0  0  0  0  0  0  0  0  0  0  0  0
   -6.7791   23.9785  -29.7835 H   0  0  0  0  0  0  0  0  0  0  0  0
   -6.1905   25.0299  -31.1158 H   0  0  0  0  0  0  0  0  0  0  0  0
   -7.8894   24.4465  -31.1158 H   0  0  0  0  0  0  0  0  0  0  0  0
   -9.1646   22.9597  -31.4931 H   0  0  0  0  0  0  0  0  0  0  0  0
  -10.5665   20.9420  -31.9202 H   0  0  0  0  0  0  0  0  0  0  0  0
   -9.4899   18.7686  -32.5058 H   0  0  0  0  0  0  0  0  0  0  0  0
   -7.0058   18.6114  -32.6780 H   0  0  0  0  0  0  0  0  0  0  0  0
   -4.1739   20.2424  -34.0557 H   0  0  0  0  0  0  0  0  0  0  0  0
   -5.2290   21.6894  -34.0879 H   0  0  0  0  0  0  0  0  0  0  0  0
   -2.7980   22.2687  -33.8920 H   0  0  0  0  0  0  0  0  0  0  0  0
   -3.7856   22.8167  -32.4615 H   0  0  0  0  0  0  0  0  0  0  0  0
   -1.6530   20.9120  -32.6730 H   0  0  0  0  0  0  0  0  0  0  0  0
   -0.9928   21.6009  -30.5942 H   0  0  0  0  0  0  0  0  0  0  0  0
   -1.4730   23.0300  -31.6445 H   0  0  0  0  0  0  0  0  0  0  0  0
   -3.5037   24.5312  -30.9410 H   0  0  0  0  0  0  0  0  0  0  0  0
   -4.9769   24.6971  -28.6936 H   0  0  0  0  0  0  0  0  0  0  0  0
   -4.3334   22.5995  -27.1799 H   0  0  0  0  0  0  0  0  0  0  0  0
   -0.4105   21.3210  -29.0928 H   0  0  0  0  0  0  0  0  0  0  0  0
    0.6549   19.2969  -28.0955 H   0  0  0  0  0  0  0  0  0  0  0  0
   -0.6871   17.7569  -26.6563 H   0  0  0  0  0  0  0  0  0  0  0  0
   -3.0924   18.2529  -26.2011 H   0  0  0  0  0  0  0  0  0  0  0  0
   -4.1601   20.2797  -27.1916 H   0  0  0  0  0  0  0  0  0  0  0  0
   -2.8419   19.1655  -32.1729 H   0  0  0  0  0  0  0  0  0  0  0  0
   -2.4731   19.8403  -30.5148 H   0  0  0  0  0  0  0  0  0  0  0  0
   -4.8717   19.0739  -30.8953 H   0  0  0  0  0  0  0  0  0  0  0  0
   -4.6379   20.7635  -30.2949 H   0  0  0  0  0  0  0  0  0  0  0  0
  1  2  1  0
  2  3  1  0
  3  4  2  0
  4  5  1  0
  5  6  2  0
  6  7  1  0
  7  8  2  0
  8  9  1  0
  9 10  1  0
 10 11  1  0
 11 12  1  0
 12 13  1  0
 13 14  1  0
 14 15  2  0
 15 16  1  0
 16 17  2  0
 17 18  1  0
 18 19  1  0
 19 20  2  0
 20 21  1  0
 21 22  2  0
 22 23  1  0
 23 24  2  0
 12 25  1  0
 25 26  1  0
  8  3  1  0
 26  9  1  0
 18 14  1  0
 24 19  1  0
  1 27  1  0
  1 28  1  0
  1 29  1  0
  4 30  1  0
  5 31  1  0
  6 32  1  0
  7 33  1  0
 10 34  1  0
 10 35  1  0
 11 36  1  0
 11 37  1  0
 12 38  1  0
 13 39  1  0
 13 40  1  0
 15 41  1  0
 16 42  1  0
 17 43  1  0
 20 44  1  0
 21 45  1  0
 22 46  1  0
 23 47  1  0
 24 48  1  0
 25 49  1  0
 25 50  1  0
 26 51  1  0
 26 52  1  0
M  CHG  1  12   1
M  END
>  <UniqueID>  (1) 
1

>  <SMILES>  (1) 
COc1ccccc1N1CC[NH+](Cc2cccn2-c2ccccc2)CC1

>  <Energy>  (1) 
100.7011590602732

>  <Genealogy>  (1) 
COc1ccccc1N1CC[NH+](Cc2cccn2-c2ccccc2)CC1 (protonated)
COc1ccccc1N1CC[NH+](Cc2cccn2-c2ccccc2)CC1 (3D coordinates assigned)
COc1ccccc1N1CC[NH+](Cc2cccn2-c2ccccc2)CC1 (nonaromatic ring conformer: 100.7011590602732 kcal/mol)

>  <smiles>  (1) 
COc1ccccc1N1CCN(Cc2cccn2-c2ccccc2)CC1

>  <score_type>  (1) 
oracle

>  <origin>  (1) 
adg

>  <m_score__min__energy>  (1) 
-7.8300000000000001

>  <m_primary>  (1) 
energy

$$$$
1:0
     RDKit          3D

 39 41  0  0  0  0  0  0  0  0999 V2000
   -2.7300   19.0480  -26.4120 C   0  0  0  0  0  0  0  0  0  0  0  0
   -2.7960   20.0790  -27.5400 C   0  0  0  0  0  0  0  0  0  0  0  0
   -2.3120   21.4650  -27.0930 C   0  0  0  0  0  0  0  0  0  0  0  0
   -3.0780   22.5610  -27.7660 C   0  0  0  0  0  0  0  0  0  0  0  0
   -3.4970   22.5740  -29.0840 C   0  0  0  0  0  0  0  0  0  0  0  0
   -4.1710   23.7760  -29.1980 C   0  0  0  0  0  0  0  0  0  0  0  0
   -4.8310   24.2970  -30.4060 C   0  0  0  0  0  0  0  0  0  0  0  0
   -4.4880   25.4160  -30.8740 O   0  0  0  0  0  0  0  0  0  0  0  0
   -5.8470   23.5290  -31.0710 N   0  0  0  0  0  0  0  0  0  0  0  0
   -7.2430   23.7890  -30.6840 C   0  0  0  0  0  0  0  0  0  0  0  0
   -8.2200   23.2310  -31.7200 C   0  0  0  0  0  0  0  0  0  0  0  0
   -7.9630   21.7410  -31.9340 C   0  0  0  0  0  0  0  0  0  0  0  0
   -6.5290   21.4950  -32.3180 C   0  0  0  0  0  0  0  0  0  0  0  0
   -6.2000   20.3620  -33.0780 C   0  0  0  0  0  0  0  0  0  0  0  0
   -4.8740   20.1090  -33.4300 C   0  0  0  0  0  0  0  0  0  0  0  0
   -3.8640   20.9810  -33.0210 C   0  0  0  0  0  0  0  0  0  0  0  0
   -4.1740   22.1000  -32.2450 C   0  0  0  0  0  0  0  0  0  0  0  0
   -5.5070   22.3630  -31.8630 C   0  0  0  0  0  0  0  0  0  0  0  0
   -4.1470   24.4060  -28.0080 N   0  0  0  0  0  0  0  0  0  0  0  0
   -3.4860   23.6600  -27.1720 O   0  0  0  0  0  0  0  0  0  0  0  0
   -2.7630   19.5641  -25.4411 H   0  0  0  0  0  0  0  0  0  0  0  0
   -3.5861   18.3619  -26.4918 H   0  0  0  0  0  0  0  0  0  0  0  0
   -1.7934   18.4766  -26.4918 H   0  0  0  0  0  0  0  0  0  0  0  0
   -2.1631   19.7346  -28.3712 H   0  0  0  0  0  0  0  0  0  0  0  0
   -3.8479   20.1735  -27.8476 H   0  0  0  0  0  0  0  0  0  0  0  0
   -2.4429   21.5547  -26.0045 H   0  0  0  0  0  0  0  0  0  0  0  0
   -1.2526   21.5652  -27.3715 H   0  0  0  0  0  0  0  0  0  0  0  0
   -3.3330   21.8096  -29.8578 H   0  0  0  0  0  0  0  0  0  0  0  0
   -7.4402   23.3125  -29.7124 H   0  0  0  0  0  0  0  0  0  0  0  0
   -7.3887   24.8774  -30.6203 H   0  0  0  0  0  0  0  0  0  0  0  0
   -9.2504   23.3749  -31.3630 H   0  0  0  0  0  0  0  0  0  0  0  0
   -8.0766   23.7617  -32.6728 H   0  0  0  0  0  0  0  0  0  0  0  0
   -8.1847   21.1995  -31.0025 H   0  0  0  0  0  0  0  0  0  0  0  0
   -8.6116   21.3850  -32.7480 H   0  0  0  0  0  0  0  0  0  0  0  0
   -6.9923   19.6693  -33.3980 H   0  0  0  0  0  0  0  0  0  0  0  0
   -4.6244   19.2217  -34.0303 H   0  0  0  0  0  0  0  0  0  0  0  0
   -2.8208   20.7864  -33.3107 H   0  0  0  0  0  0  0  0  0  0  0  0
   -3.3717   22.7828  -31.9285 H   0  0  0  0  0  0  0  0  0  0  0  0
   -4.5710   25.3310  -27.7740 H   0  0  0  0  0  0  0  0  0  0  0  0
  1  2  1  0
  2  3  1  0
  3  4  1  0
  4  5  2  0
  5  6  1  0
  6  7  1  0
  7  8  2  0
  7  9  1  0
  9 10  1  0
 10 11  1  0
 11 12  1  0
 12 13  1  0
 13 14  2  0
 14 15  1  0
 15 16  2  0
 16 17  1  0
 17 18  2  0
  6 19  2  0
 19 20  1  0
 20  4  1  0
 18  9  1  0
 18 13  1  0
  1 21  1  0
  1 22  1  0
  1 23  1  0
  2 24  1  0
  2 25  1  0
  3 26  1  0
  3 27  1  0
  5 28  1  0
 10 29  1  0
 10 30  1  0
 11 31  1  0
 11 32  1  0
 12 33  1  0
 12 34  1  0
 14 35  1  0
 15 36  1  0
 16 37  1  0
 17 38  1  0
 19 39  1  0
M  CHG  1  19   1
M  END
>  <UniqueID>  (2) 
2

>  <SMILES>  (2) 
CCCc1cc(C(=O)N2CCCc3ccccc32)[nH+]o1

>  <Energy>  (2) 
71.8039404376286

>  <Genealogy>  (2) 
CCCc1cc(C(=O)N2CCCc3ccccc32)[nH+]o1 (protonated)
CCCc1cc(C(=O)N2CCCc3ccccc32)[nH+]o1 (3D coordinates assigned)
CCCc1cc(C(=O)N2CCCc3ccccc32)[nH+]o1 (nonaromatic ring conformer: 71.8039404376286 kcal/mol)

>  <smiles>  (2) 
CCCc1cc(C(=O)N2CCCc3ccccc32)no1

>  <score_type>  (2) 
oracle

>  <origin>  (2) 
adg

>  <m_score__min__energy>  (2) 
-7.7400000000000002

>  <m_primary>  (2) 
energy

$$$$
2:0
     RDKit          3D

 50 52  0  0  0  0  0  0  0  0999 V2000
    0.2920   25.9290  -27.0550 C   0  0  0  0  0  0  0  0  0  0  0  0
    0.2590   25.1010  -28.2120 O   0  0  0  0  0  0  0  0  0  0  0  0
   -0.9000   24.4490  -28.6400 C   0  0  0  0  0  0  0  0  0  0  0  0
   -1.0480   23.0830  -28.4000 C   0  0  0  0  0  0  0  0  0  0  0  0
   -2.2020   22.4190  -28.8370 C   0  0  0  0  0  0  0  0  0  0  0  0
   -2.3360   21.0040  -28.6110 N   0  0  0  0  0  0  0  0  0  0  0  0
   -3.1160   20.5010  -27.4800 C   0  0  0  0  0  0  0  0  0  0  0  0
   -1.6320   20.0650  -29.4820 C   0  0  0  0  0  0  0  0  0  0  0  0
   -3.2010   23.1440  -29.5160 C   0  0  0  0  0  0  0  0  0  0  0  0
   -4.4190   22.4950  -29.9180 N   0  0  0  0  0  0  0  0  0  0  0  0
   -4.9040   22.5240  -31.2690 C   0  0  0  0  0  0  0  0  0  0  0  0
   -4.2070   23.0480  -32.1800 O   0  0  0  0  0  0  0  0  0  0  0  0
   -6.2050   21.9170  -31.6050 C   0  0  0  0  0  0  0  0  0  0  0  0
   -7.4170   22.5970  -31.4910 C   0  0  0  0  0  0  0  0  0  0  0  0
   -8.6460   21.5440  -31.9510 S   0  0  0  0  0  0  0  0  0  0  0  0
   -7.5880   20.2820  -32.2900 C   0  0  0  0  0  0  0  0  0  0  0  0
   -8.0000   18.9090  -32.7090 C   0  0  0  0  0  0  0  0  0  0  0  0
   -6.7900   18.1110  -33.1060 C   0  0  0  0  0  0  0  0  0  0  0  0
   -6.2970   17.1030  -32.2600 C   0  0  0  0  0  0  0  0  0  0  0  0
   -5.1490   16.3870  -32.6130 C   0  0  0  0  0  0  0  0  0  0  0  0
   -4.4820   16.6760  -33.8080 C   0  0  0  0  0  0  0  0  0  0  0  0
   -4.9600   17.6860  -34.6470 C   0  0  0  0  0  0  0  0  0  0  0  0
   -6.1070   18.4050  -34.2980 C   0  0  0  0  0  0  0  0  0  0  0  0
   -6.3080   20.6320  -32.0410 N   0  0  0  0  0  0  0  0  0  0  0  0
   -3.0250   24.5250  -29.7170 C   0  0  0  0  0  0  0  0  0  0  0  0
   -4.0300   25.2750  -30.3370 O   0  0  0  0  0  0  0  0  0  0  0  0
   -5.3750   25.2950  -29.8740 C   0  0  0  0  0  0  0  0  0  0  0  0
   -1.8850   25.1320  -29.2850 N   0  0  0  0  0  0  0  0  0  0  0  0
    0.2669   25.2999  -26.1530 H   0  0  0  0  0  0  0  0  0  0  0  0
    1.2147   26.5278  -27.0588 H   0  0  0  0  0  0  0  0  0  0  0  0
   -0.5801   26.5993  -27.0588 H   0  0  0  0  0  0  0  0  0  0  0  0
   -0.2606   22.5282  -27.8689 H   0  0  0  0  0  0  0  0  0  0  0  0
   -2.6377   20.8094  -26.5387 H   0  0  0  0  0  0  0  0  0  0  0  0
   -4.1351   20.9125  -27.5255 H   0  0  0  0  0  0  0  0  0  0  0  0
   -3.1616   19.4029  -27.5255 H   0  0  0  0  0  0  0  0  0  0  0  0
   -1.0846   19.3349  -28.8677 H   0  0  0  0  0  0  0  0  0  0  0  0
   -2.3594   19.5379  -30.1169 H   0  0  0  0  0  0  0  0  0  0  0  0
   -0.9221   20.6154  -30.1169 H   0  0  0  0  0  0  0  0  0  0  0  0
   -4.8910   21.8700  -29.2250 H   0  0  0  0  0  0  0  0  0  0  0  0
   -7.5467   23.6377  -31.1591 H   0  0  0  0  0  0  0  0  0  0  0  0
   -8.5080   18.4090  -31.8712 H   0  0  0  0  0  0  0  0  0  0  0  0
   -8.6835   18.9821  -33.5678 H   0  0  0  0  0  0  0  0  0  0  0  0
   -6.8159   16.8765  -31.3169 H   0  0  0  0  0  0  0  0  0  0  0  0
   -4.7699   15.5953  -31.9500 H   0  0  0  0  0  0  0  0  0  0  0  0
   -3.5819   16.1086  -34.0871 H   0  0  0  0  0  0  0  0  0  0  0  0
   -4.4324   17.9159  -35.5845 H   0  0  0  0  0  0  0  0  0  0  0  0
   -6.4759   19.2034  -34.9587 H   0  0  0  0  0  0  0  0  0  0  0  0
   -5.3842   25.2951  -28.7740 H   0  0  0  0  0  0  0  0  0  0  0  0
   -5.8771   26.2007  -30.2450 H   0  0  0  0  0  0  0  0  0  0  0  0
   -5.9038   24.4046  -30.2450 H   0  0  0  0  0  0  0  0  0  0  0  0
  1  2  1  0
  2  3  1  0
  3  4  2  0
  4  5  1  0
  5  6  1  0
  6  7  1  0
  6  8  1  0
  5  9  2  0
  9 10  1  0
 10 11  1  0
 11 12  2  0
 11 13  1  0
 13 14  2  0
 14 15  1  0
 15 16  1  0
 16 17  1  0
 17 18  1  0
 18 19  2  0
 19 20  1  0
 20 21  2  0
 21 22  1  0
 22 23  2  0
 16 24  2  0
  9 25  1  0
 25 26  1  0
 26 27  1  0
 25 28  2  0
 28  3  1  0
 24 13  1  0
 23 18  1  0
  1 29  1  0
  1 30  1  0
  1 31  1  0
  4 32  1  0
  7 33  1  0
  7 34  1  0
  7 35  1  0
  8 36  1  0
  8 37  1  0
  8 38  1  0
 10 39  1  0
 14 40  1  0
 17 41  1  0
 17 42  1  0
 19 43  1  0
 20 44  1  0
 21 45  1  0
 22 46  1  0
 23 47  1  0
 27 48  1  0
 27 49  1  0
 27 50  1  0
M  END
>  <UniqueID>  (3) 
3

>  <SMILES>  (3) 
COc1cc(N(C)C)c(NC(=O)c2csc(Cc3ccccc3)n2)c(OC)n1

>  <Energy>  (3) 
82.11633984106089

>  <Genealogy>  (3) 
COc1cc(N(C)C)c(NC(=O)c2csc(Cc3ccccc3)n2)c(OC)n1 (3D coordinates assigned)
COc1cc(N(C)C)c(NC(=O)c2csc(Cc3ccccc3)n2)c(OC)n1 (optimized conformer: 82.11633984106089 kcal/mol)

>  <smiles>  (3) 
COc1cc(N(C)C)c(NC(=O)c2csc(Cc3ccccc3)n2)c(OC)n1

>  <score_type>  (3) 
oracle

>  <origin>  (3) 
adg

>  <m_score__min__energy>  (3) 
-8.7300000000000004

>  <m_primary>  (3) 
energy

$$$$
3:0
     RDKit          3D

 47 49  0  0  0  0  0  0  0  0999 V2000
   -3.9700   24.4948  -28.4744 H   0  0  0  0  0  0  0  0  0  0  0  0
   -4.7020   24.2560  -29.2600 C   0  0  0  0  0  0  0  0  0  0  0  0
   -5.0660   25.2290  -30.1940 C   0  0  0  0  0  0  0  0  0  0  0  0
   -4.6229   26.2344  -30.1411 H   0  0  0  0  0  0  0  0  0  0  0  0
   -5.9930   24.9260  -31.1960 C   0  0  0  0  0  0  0  0  0  0  0  0
   -6.2830   25.6964  -31.9257 H   0  0  0  0  0  0  0  0  0  0  0  0
   -6.5560   23.6390  -31.2740 C   0  0  0  0  0  0  0  0  0  0  0  0
   -7.5640   23.3150  -32.3450 C   0  0  0  0  0  0  0  0  0  0  0  0
   -7.0322   23.0064  -33.2571 H   0  0  0  0  0  0  0  0  0  0  0  0
   -8.1712   24.2122  -32.5357 H   0  0  0  0  0  0  0  0  0  0  0  0
   -8.4330   22.2590  -31.9320 O   0  0  0  0  0  0  0  0  0  0  0  0
   -8.1820   20.8870  -32.1010 C   0  0  0  0  0  0  0  0  0  0  0  0
   -9.0190   19.9790  -31.4440 C   0  0  0  0  0  0  0  0  0  0  0  0
   -9.8434   20.3510  -30.8178 H   0  0  0  0  0  0  0  0  0  0  0  0
   -8.8160   18.6050  -31.5770 C   0  0  0  0  0  0  0  0  0  0  0  0
   -9.4800   17.9001  -31.0553 H   0  0  0  0  0  0  0  0  0  0  0  0
   -7.7730   18.1210  -32.3700 C   0  0  0  0  0  0  0  0  0  0  0  0
   -7.6197   17.0363  -32.4699 H   0  0  0  0  0  0  0  0  0  0  0  0
   -6.9170   19.0140  -33.0420 C   0  0  0  0  0  0  0  0  0  0  0  0
   -5.8130   18.5030  -33.8890 C   0  0  0  0  0  0  0  0  0  0  0  0
   -5.8590   17.3220  -34.3290 O   0  0  0  0  0  0  0  0  0  0  0  0
   -4.7060   19.3630  -34.2120 N   0  0  0  0  0  0  0  0  0  0  0  0
   -4.0190   20.1140  -33.4000 C   0  0  0  0  0  0  0  0  0  0  0  0
   -2.7730   19.6130  -32.3710 S   0  0  0  0  0  0  0  0  0  0  0  0
   -2.5430   21.1590  -31.7410 C   0  0  0  0  0  0  0  0  0  0  0  0
   -1.5260   21.5230  -30.7040 C   0  0  0  0  0  0  0  0  0  0  0  0
   -0.7168   22.0983  -31.1775 H   0  0  0  0  0  0  0  0  0  0  0  0
   -1.1264   20.5996  -30.2594 H   0  0  0  0  0  0  0  0  0  0  0  0
   -2.1410   22.3380  -29.6370 N   0  0  0  0  0  0  0  0  0  0  0  0
   -1.2740   23.4830  -29.3170 C   0  0  0  0  0  0  0  0  0  0  0  0
   -1.1941   23.5885  -28.2250 H   0  0  0  0  0  0  0  0  0  0  0  0
   -0.2738   23.3160  -29.7434 H   0  0  0  0  0  0  0  0  0  0  0  0
   -1.7059   24.4004  -29.7434 H   0  0  0  0  0  0  0  0  0  0  0  0
   -2.3620   21.5330  -28.4220 C   0  0  0  0  0  0  0  0  0  0  0  0
   -2.1907   22.1571  -27.5325 H   0  0  0  0  0  0  0  0  0  0  0  0
   -3.3962   21.1584  -28.4134 H   0  0  0  0  0  0  0  0  0  0  0  0
   -1.6640   20.6829  -28.4134 H   0  0  0  0  0  0  0  0  0  0  0  0
   -3.4410   22.0270  -32.3550 C   0  0  0  0  0  0  0  0  0  0  0  0
   -3.4883   23.1003  -32.1189 H   0  0  0  0  0  0  0  0  0  0  0  0
   -4.2550   21.4380  -33.2710 N   0  0  0  0  0  0  0  0  0  0  0  0
   -4.9820   21.9570  -33.8120 H   0  0  0  0  0  0  0  0  0  0  0  0
   -7.1280   20.3990  -32.8990 C   0  0  0  0  0  0  0  0  0  0  0  0
   -6.4633   21.1071  -33.4155 H   0  0  0  0  0  0  0  0  0  0  0  0
   -6.1950   22.6720  -30.3210 C   0  0  0  0  0  0  0  0  0  0  0  0
   -6.6445   21.6688  -30.3607 H   0  0  0  0  0  0  0  0  0  0  0  0
   -5.2670   22.9800  -29.3230 C   0  0  0  0  0  0  0  0  0  0  0  0
   -4.9806   22.2160  -28.5852 H   0  0  0  0  0  0  0  0  0  0  0  0
  1  2  1  0
  2  3  2  0
  3  4  1  0
  3  5  1  0
  5  6  1  0
  5  7  2  0
  7  8  1  0
  8  9  1  0
  8 10  1  0
  8 11  1  0
 11 12  1  0
 12 13  2  0
 13 14  1  0
 13 15  1  0
 15 16  1  0
 15 17  2  0
 17 18  1  0
 17 19  1  0
 19 20  1  0
 20 21  2  0
 20 22  1  0
 22 23  2  0
 23 24  1  0
 24 25  1  0
 25 26  1  0
 26 27  1  0
 26 28  1  0
 26 29  1  0
 29 30  1  0
 30 31  1  0
 30 32  1  0
 30 33  1  0
 29 34  1  0
 34 35  1  0
 34 36  1  0
 34 37  1  0
 25 38  2  0
 38 39  1  0
 38 40  1  0
 40 41  1  0
 19 42  2  0
 42 43  1  0
  7 44  1  0
 44 45  1  0
 44 46  2  0
 46 47  1  0
 46  2  1  0
 42 12  1  0
 40 23  1  0
M  END
>  <UniqueID>  (4) 
4

>  <SMILES>  (4) 
CN(C)Cc1c[nH]/c(=N/C(=O)c2cccc(OCc3ccccc3)c2)s1

>  <Energy>  (4) 
82.13138461911836

>  <Genealogy>  (4) 
CN(C)Cc1c[nH]/c(=N/C(=O)c2cccc(OCc3ccccc3)c2)s1 (cis-trans isomerization)
CN(C)Cc1c[nH]/c(=N/C(=O)c2cccc(OCc3ccccc3)c2)s1 (3D coordinates assigned)
CN(C)Cc1c[nH]/c(=N/C(=O)c2cccc(OCc3ccccc3)c2)s1 (optimized conformer: 82.13138461911836 kcal/mol)

>  <smiles>  (4) 
CN(C)Cc1c[nH]c(=NC(=O)c2cccc(OCc3ccccc3)c2)s1

>  <score_type>  (4) 
oracle

>  <origin>  (4) 
adg

>  <m_score__min__energy>  (4) 
-9.0899999999999999

>  <m_primary>  (4) 
energy

$$$$
4:0
     RDKit          3D

 38 40  0  0  0  0  0  0  0  0999 V2000
   -5.8860   17.5560  -34.0420 C   0  0  0  0  0  0  0  0  0  0  0  0
   -5.7280   18.9110  -34.4030 C   0  0  0  0  0  0  0  0  0  0  0  0
   -6.5350   19.9050  -33.8180 C   0  0  0  0  0  0  0  0  0  0  0  0
   -7.4890   19.5020  -32.8780 C   0  0  0  0  0  0  0  0  0  0  0  0
   -7.6390   18.1830  -32.5310 C   0  0  0  0  0  0  0  0  0  0  0  0
   -6.8540   17.1780  -33.0940 C   0  0  0  0  0  0  0  0  0  0  0  0
   -8.6500   18.1080  -31.5970 C   0  0  0  0  0  0  0  0  0  0  0  0
   -9.0790   19.4190  -31.4160 C   0  0  0  0  0  0  0  0  0  0  0  0
   -8.3660   20.2660  -32.1980 N   0  0  0  0  0  0  0  0  0  0  0  0
   -8.5650   21.7140  -32.3020 C   0  0  0  0  0  0  0  0  0  0  0  0
   -7.4850   22.4830  -31.5280 C   0  0  0  0  0  0  0  0  0  0  0  0
   -6.1950   22.6540  -32.3430 C   0  0  0  0  0  0  0  0  0  0  0  0
   -5.3130   23.6550  -31.7080 N   0  0  0  0  0  0  0  0  0  0  0  0
   -6.1080   24.7220  -31.0640 C   0  0  0  0  0  0  0  0  0  0  0  0
   -5.2220   25.6180  -30.1750 C   0  0  0  0  0  0  0  0  0  0  0  0
   -3.8530   25.4180  -30.4650 O   0  0  0  0  0  0  0  0  0  0  0  0
   -3.4760   24.0990  -30.1100 C   0  0  0  0  0  0  0  0  0  0  0  0
   -4.4180   23.0340  -30.7110 C   0  0  0  0  0  0  0  0  0  0  0  0
   -5.2474   16.7896  -34.5054 H   0  0  0  0  0  0  0  0  0  0  0  0
   -4.9685   19.1926  -35.1472 H   0  0  0  0  0  0  0  0  0  0  0  0
   -6.4191   20.9642  -34.0913 H   0  0  0  0  0  0  0  0  0  0  0  0
   -6.9871   16.1246  -32.8065 H   0  0  0  0  0  0  0  0  0  0  0  0
   -9.0351   17.2049  -31.1010 H   0  0  0  0  0  0  0  0  0  0  0  0
   -9.8850   19.7256  -30.7331 H   0  0  0  0  0  0  0  0  0  0  0  0
   -8.5229   22.0062  -33.3616 H   0  0  0  0  0  0  0  0  0  0  0  0
   -9.5452   21.9616  -31.8685 H   0  0  0  0  0  0  0  0  0  0  0  0
   -7.8755   23.4786  -31.2705 H   0  0  0  0  0  0  0  0  0  0  0  0
   -7.2393   21.9027  -30.6264 H   0  0  0  0  0  0  0  0  0  0  0  0
   -5.6692   21.6893  -32.3958 H   0  0  0  0  0  0  0  0  0  0  0  0
   -6.4553   22.9987  -33.3546 H   0  0  0  0  0  0  0  0  0  0  0  0
   -6.5761   25.3409  -31.8436 H   0  0  0  0  0  0  0  0  0  0  0  0
   -6.8742   24.2514  -30.4304 H   0  0  0  0  0  0  0  0  0  0  0  0
   -5.4786   26.6721  -30.3565 H   0  0  0  0  0  0  0  0  0  0  0  0
   -5.4007   25.3557  -29.1218 H   0  0  0  0  0  0  0  0  0  0  0  0
   -2.4550   23.9134  -30.4749 H   0  0  0  0  0  0  0  0  0  0  0  0
   -3.5345   24.0176  -29.0146 H   0  0  0  0  0  0  0  0  0  0  0  0
   -3.8185   22.2507  -31.1978 H   0  0  0  0  0  0  0  0  0  0  0  0
   -5.0249   22.5938  -29.9061 H   0  0  0  0  0  0  0  0  0  0  0  0
  1  2  2  0
  2  3  1  0
  3  4  2  0
  4  5  1  0
  5  6  2  0
  5  7  1  0
  7  8  2  0
  8  9  1  0
  9 10  1  0
 10 11  1  0
 11 12  1  0
 12 13  1  0
 13 14  1  0
 14 15  1  0
 15 16  1  0
 16 17  1  0
 17 18  1  0
  6  1  1  0
 18 13  1  0
  9  4  1  0
  1 19  1  0
  2 20  1  0
  3 21  1  0
  6 22  1  0
  7 23  1  0
  8 24  1  0
 10 25  1  0
 10 26  1  0
 11 27  1  0
 11 28  1  0
 12 29  1  0
 12 30  1  0
 14 31  1  0
 14 32  1  0
 15 33  1  0
 15 34  1  0
 17 35  1  0
 17 36  1  0
 18 37  1  0
 18 38  1  0
M  END
>  <UniqueID>  (5) 
5

>  <SMILES>  (5) 
c1ccc2c(c1)ccn2CCCN1CCOCC1

>  <Energy>  (5) 
77.74620854939009

>  <Genealogy>  (5) 
c1ccc2c(c1)ccn2CCCN1CCOCC1 (3D coordinates assigned)
c1ccc2c(c1)ccn2CCCN1CCOCC1 (nonaromatic ring conformer: 77.74620854939009 kcal/mol)

>  <smiles>  (5) 
c1ccc2c(c1)ccn2CCCN1CCOCC1

>  <score_type>  (5) 
oracle

>  <origin>  (5) 
adg

>  <m_score__min__energy>  (5) 
-8.2200000000000006

>  <m_primary>  (5) 
energy

$$$$
5:0
     RDKit          3D

 59 65  0  0  0  0  0  0  0  0999 V2000
    0.4870   18.0710  -30.2720 Cl  0  0  0  0  0  0  0  0  0  0  0  0
   -0.4320   19.5650  -30.2520 C   0  0  0  0  0  0  0  0  0  0  0  0
   -0.9890   20.0280  -29.0560 C   0  0  0  0  0  0  0  0  0  0  0  0
   -1.7170   21.2200  -29.0370 C   0  0  0  0  0  0  0  0  0  0  0  0
   -1.8940   21.9630  -30.2170 C   0  0  0  0  0  0  0  0  0  0  0  0
   -2.6680   23.2620  -30.1930 C   0  0  2  0  0  0  0  0  0  0  0  0
   -2.2380   24.1170  -29.0060 C   0  0  0  0  0  0  0  0  0  0  0  0
   -0.9240   24.6030  -28.9350 C   0  0  0  0  0  0  0  0  0  0  0  0
   -0.5100   25.3730  -27.8450 C   0  0  0  0  0  0  0  0  0  0  0  0
   -1.4020   25.6730  -26.8010 C   0  0  0  0  0  0  0  0  0  0  0  0
   -0.9540   26.4840  -25.6390 C   0  0  0  0  0  0  0  0  0  0  0  0
   -0.9110   25.9420  -24.4100 C   0  0  0  0  0  0  0  0  0  0  0  0
   -0.4780   26.7530  -23.2180 C   0  0  0  0  0  0  0  0  0  0  0  0
    0.3920   27.8090  -23.5830 O   0  0  0  0  0  0  0  0  0  0  0  0
   -0.2430   28.6350  -24.5390 C   0  0  0  0  0  0  0  0  0  0  0  0
   -0.4140   27.8800  -25.8630 C   0  0  0  0  0  0  0  0  0  0  0  0
   -2.7210   25.1910  -26.8710 C   0  0  0  0  0  0  0  0  0  0  0  0
   -3.1460   24.4280  -27.9630 C   0  0  0  0  0  0  0  0  0  0  0  0
   -4.4740   23.9890  -28.0140 O   0  0  0  0  0  0  0  0  0  0  0  0
   -4.9170   23.2840  -29.1250 C   0  0  0  0  0  0  0  0  0  0  0  0
   -6.1780   22.8440  -29.3170 N   0  0  0  0  0  0  0  0  0  0  0  0
   -6.0720   22.2460  -30.5310 C   0  0  0  0  0  0  0  0  0  0  0  0
   -7.1800   21.5200  -31.1920 C   0  0  0  0  0  0  0  0  0  0  0  0
   -8.4190   22.1730  -31.3020 C   0  0  0  0  0  0  0  0  0  0  0  0
   -9.4840   21.5750  -31.9760 C   0  0  0  0  0  0  0  0  0  0  0  0
   -9.3340   20.3150  -32.5490 C   0  0  0  0  0  0  0  0  0  0  0  0
   -8.1200   19.6250  -32.4320 C   0  0  0  0  0  0  0  0  0  0  0  0
   -7.9890   18.3410  -32.9870 C   0  0  0  0  0  0  0  0  0  0  0  0
   -6.7960   17.6330  -32.8470 C   0  0  0  0  0  0  0  0  0  0  0  0
   -5.7290   18.1910  -32.1440 C   0  0  0  0  0  0  0  0  0  0  0  0
   -5.8410   19.4680  -31.5870 C   0  0  0  0  0  0  0  0  0  0  0  0
   -7.0280   20.2170  -31.7400 C   0  0  0  0  0  0  0  0  0  0  0  0
   -4.8150   22.3110  -31.0240 N   0  0  0  0  0  0  0  0  0  0  0  0
   -4.1030   22.9730  -30.1370 N   0  0  0  0  0  0  0  0  0  0  0  0
   -1.3360   21.4850  -31.4170 C   0  0  0  0  0  0  0  0  0  0  0  0
   -0.6070   20.2920  -31.4320 C   0  0  0  0  0  0  0  0  0  0  0  0
   -0.8537   19.4525  -28.1284 H   0  0  0  0  0  0  0  0  0  0  0  0
   -2.1541   21.5791  -28.0936 H   0  0  0  0  0  0  0  0  0  0  0  0
   -2.4551   23.8298  -31.1107 H   0  0  0  0  0  0  0  0  0  0  0  0
   -0.2139   24.3761  -29.7439 H   0  0  0  0  0  0  0  0  0  0  0  0
    0.5234   25.7478  -27.8036 H   0  0  0  0  0  0  0  0  0  0  0  0
   -1.1968   24.8887  -24.2728 H   0  0  0  0  0  0  0  0  0  0  0  0
   -1.3700   27.1785  -22.7349 H   0  0  0  0  0  0  0  0  0  0  0  0
    0.0656   26.0862  -22.5325 H   0  0  0  0  0  0  0  0  0  0  0  0
   -1.2319   28.9338  -24.1611 H   0  0  0  0  0  0  0  0  0  0  0  0
    0.3785   29.5259  -24.7121 H   0  0  0  0  0  0  0  0  0  0  0  0
   -1.1145   28.4358  -26.5037 H   0  0  0  0  0  0  0  0  0  0  0  0
    0.5724   27.7960  -26.3426 H   0  0  0  0  0  0  0  0  0  0  0  0
   -3.4264   25.4167  -26.0577 H   0  0  0  0  0  0  0  0  0  0  0  0
   -8.5509   23.1677  -30.8513 H   0  0  0  0  0  0  0  0  0  0  0  0
  -10.4467   22.1014  -32.0551 H   0  0  0  0  0  0  0  0  0  0  0  0
  -10.1723   19.8591  -33.0961 H   0  0  0  0  0  0  0  0  0  0  0  0
   -8.8311   17.8924  -33.5343 H   0  0  0  0  0  0  0  0  0  0  0  0
   -6.6964   16.6320  -33.2921 H   0  0  0  0  0  0  0  0  0  0  0  0
   -4.7941   17.6232  -32.0271 H   0  0  0  0  0  0  0  0  0  0  0  0
   -4.9968   19.8933  -31.0244 H   0  0  0  0  0  0  0  0  0  0  0  0
   -4.4540   21.9160  -31.9220 H   0  0  0  0  0  0  0  0  0  0  0  0
   -1.4741   22.0532  -32.3487 H   0  0  0  0  0  0  0  0  0  0  0  0
   -0.1711   19.9258  -32.3732 H   0  0  0  0  0  0  0  0  0  0  0  0
  1  2  1  0
  2  3  2  0
  3  4  1  0
  4  5  2  0
  5  6  1  0
  6  7  1  0
  7  8  2  0
  8  9  1  0
  9 10  2  0
 10 11  1  0
 11 12  2  0
 12 13  1  0
 13 14  1  0
 14 15  1  0
 15 16  1  0
 10 17  1  0
 17 18  2  0
 18 19  1  0
 19 20  1  0
 20 21  2  0
 21 22  1  0
 22 23  1  0
 23 24  2  0
 24 25  1  0
 25 26  2  0
 26 27  1  0
 27 28  2  0
 28 29  1  0
 29 30  2  0
 30 31  1  0
 31 32  2  0
 22 33  2  0
 33 34  1  0
  5 35  1  0
 35 36  2  0
 36  2  1  0
 34  6  1  0
 18  7  1  0
 34 20  1  0
 16 11  1  0
 32 23  1  0
 32 27  1  0
  3 37  1  0
  4 38  1  0
  6 39  1  6
  8 40  1  0
  9 41  1  0
 12 42  1  0
 13 43  1  0
 13 44  1  0
 15 45  1  0
 15 46  1  0
 16 47  1  0
 16 48  1  0
 17 49  1  0
 24 50  1  0
 25 51  1  0
 26 52  1  0
 28 53  1  0
 29 54  1  0
 30 55  1  0
 31 56  1  0
 33 57  1  0
 35 58  1  0
 36 59  1  0
M  CHG  1  33   1
M  END
>  <UniqueID>  (6) 
6

>  <SMILES>  (6) 
Clc1ccc([C@@H]2c3ccc(C4=CCOCC4)cc3Oc3nc(-c4cccc5ccccc45)[nH+]n32)cc1

>  <Energy>  (6) 
124.77834785851601

>  <Genealogy>  (6) 
Clc1ccc(C2c3ccc(C4=CCOCC4)cc3Oc3nc(-c4cccc5ccccc45)[nH+]n32)cc1 (protonated)
Clc1ccc([C@@H]2c3ccc(C4=CCOCC4)cc3Oc3nc(-c4cccc5ccccc45)[nH+]n32)cc1 (chirality)
Clc1ccc([C@@H]2c3ccc(C4=CCOCC4)cc3Oc3nc(-c4cccc5ccccc45)[nH+]n32)cc1 (3D coordinates assigned)
Clc1ccc([C@@H]2c3ccc(C4=CCOCC4)cc3Oc3nc(-c4cccc5ccccc45)[nH+]n32)cc1 (nonaromatic ring conformer: 124.77834785851601 kcal/mol)

>  <smiles>  (6) 
Clc1ccc(C2c3ccc(C4=CCOCC4)cc3Oc3nc(-c4cccc5ccccc45)nn32)cc1

>  <score_type>  (6) 
oracle

>  <origin>  (6) 
adg

>  <m_score__min__energy>  (6) 
-10.35

>  <m_primary>  (6) 
energy

$$$$
6:0
     RDKit          3D

 34 36  0  0  0  0  0  0  0  0999 V2000
   -3.2450   19.8980  -33.4660 C   0  0  0  0  0  0  0  0  0  0  0  0
   -4.0590   21.1760  -33.2740 C   0  0  0  0  0  0  0  0  0  0  0  0
   -4.9450   21.0920  -32.1070 N   0  0  0  0  0  0  0  0  0  0  0  0
   -6.2640   20.5450  -32.2180 C   0  0  0  0  0  0  0  0  0  0  0  0
   -6.4040   19.2540  -32.6290 N   0  0  0  0  0  0  0  0  0  0  0  0
   -7.6110   18.6420  -32.7170 C   0  0  0  0  0  0  0  0  0  0  0  0
   -8.7660   19.3370  -32.3730 C   0  0  0  0  0  0  0  0  0  0  0  0
   -8.6660   20.6620  -31.9540 C   0  0  0  0  0  0  0  0  0  0  0  0
   -7.4120   21.2980  -31.8690 C   0  0  0  0  0  0  0  0  0  0  0  0
   -7.3650   22.7490  -31.5220 C   0  0  0  0  0  0  0  0  0  0  0  0
   -8.4220   23.4270  -31.6520 O   0  0  0  0  0  0  0  0  0  0  0  0
   -6.1710   23.4190  -31.0610 N   0  0  0  0  0  0  0  0  0  0  0  0
   -6.1020   24.8810  -31.1550 C   0  0  0  0  0  0  0  0  0  0  0  0
   -5.1660   22.7250  -30.3020 C   0  0  0  0  0  0  0  0  0  0  0  0
   -4.7500   23.2070  -29.0520 C   0  0  0  0  0  0  0  0  0  0  0  0
   -3.7240   22.5640  -28.3620 C   0  0  0  0  0  0  0  0  0  0  0  0
   -3.1140   21.4470  -28.9310 C   0  0  0  0  0  0  0  0  0  0  0  0
   -3.5200   20.9910  -30.1470 N   0  0  0  0  0  0  0  0  0  0  0  0
   -4.5260   21.6020  -30.8380 C   0  0  0  0  0  0  0  0  0  0  0  0
   -2.9795   19.4812  -32.4832 H   0  0  0  0  0  0  0  0  0  0  0  0
   -3.8421   19.1637  -34.0265 H   0  0  0  0  0  0  0  0  0  0  0  0
   -2.3271   20.1287  -34.0265 H   0  0  0  0  0  0  0  0  0  0  0  0
   -3.3676   22.0202  -33.1352 H   0  0  0  0  0  0  0  0  0  0  0  0
   -4.6852   21.3180  -34.1671 H   0  0  0  0  0  0  0  0  0  0  0  0
   -7.6766   17.5987  -33.0595 H   0  0  0  0  0  0  0  0  0  0  0  0
   -9.7483   18.8454  -32.4312 H   0  0  0  0  0  0  0  0  0  0  0  0
   -9.5768   21.2178  -31.6865 H   0  0  0  0  0  0  0  0  0  0  0  0
   -6.0816   25.3129  -30.1435 H   0  0  0  0  0  0  0  0  0  0  0  0
   -5.1892   25.1710  -31.6960 H   0  0  0  0  0  0  0  0  0  0  0  0
   -6.9835   25.2557  -31.6960 H   0  0  0  0  0  0  0  0  0  0  0  0
   -5.2341   24.0933  -28.6160 H   0  0  0  0  0  0  0  0  0  0  0  0
   -3.3988   22.9340  -27.3785 H   0  0  0  0  0  0  0  0  0  0  0  0
   -2.3023   20.9329  -28.3955 H   0  0  0  0  0  0  0  0  0  0  0  0
   -3.0580   20.1440  -30.5410 H   0  0  0  0  0  0  0  0  0  0  0  0
  1  2  1  0
  2  3  1  0
  3  4  1  0
  4  5  2  0
  5  6  1  0
  6  7  2  0
  7  8  1  0
  8  9  2  0
  9 10  1  0
 10 11  2  0
 10 12  1  0
 12 13  1  0
 12 14  1  0
 14 15  2  0
 15 16  1  0
 16 17  2  0
 17 18  1  0
 18 19  2  0
 19  3  1  0
  9  4  1  0
 19 14  1  0
  1 20  1  0
  1 21  1  0
  1 22  1  0
  2 23  1  0
  2 24  1  0
  6 25  1  0
  7 26  1  0
  8 27  1  0
 13 28  1  0
 13 29  1  0
 13 30  1  0
 15 31  1  0
 16 32  1  0
 17 33  1  0
 18 34  1  0
M  CHG  1  18   1
M  END
>  <UniqueID>  (7) 
7

>  <SMILES>  (7) 
CCN1c2ncccc2C(=O)N(C)c2ccc[nH+]c21

>  <Energy>  (7) 
58.7573160184473

>  <Genealogy>  (7) 
CCN1c2ncccc2C(=O)N(C)c2ccc[nH+]c21 (protonated)
CCN1c2ncccc2C(=O)N(C)c2ccc[nH+]c21 (3D coordinates assigned)
CCN1c2ncccc2C(=O)N(C)c2ccc[nH+]c21 (nonaromatic ring conformer: 58.7573160184473 kcal/mol)

>  <smiles>  (7) 
CCN1c2ncccc2C(=O)N(C)c2cccnc21

>  <score_type>  (7) 
oracle

>  <origin>  (7) 
adg

>  <m_score__min__energy>  (7) 
-5.5300000000000002

>  <m_primary>  (7) 
energy

$$$$
7:0
     RDKit          3D

 73 77  0  0  0  0  0  0  0  0999 V2000
   -9.4430   21.5080  -30.4560 C   0  0  0  0  0  0  0  0  0  0  0  0
   -9.4220   21.0830  -31.9260 C   0  0  0  0  0  0  0  0  0  0  0  0
   -8.0910   20.5030  -32.3730 C   0  0  0  0  0  0  0  0  0  0  0  0
   -8.0180   19.1650  -32.6070 N   0  0  0  0  0  0  0  0  0  0  0  0
   -6.8890   18.5700  -33.0500 C   0  0  0  0  0  0  0  0  0  0  0  0
   -6.8700   17.1930  -33.2750 C   0  0  0  0  0  0  0  0  0  0  0  0
   -5.7170   16.5750  -33.7580 C   0  0  0  0  0  0  0  0  0  0  0  0
   -4.5460   17.3220  -34.0410 C   0  0  0  0  0  0  0  0  0  0  0  0
   -3.3470   16.6810  -34.5820 N   0  0  0  0  0  0  0  0  0  0  0  0
   -3.4400   15.2870  -35.0750 C   0  0  0  0  0  0  0  0  0  0  0  0
   -2.1580   14.7330  -35.7200 C   0  0  0  0  0  0  0  0  0  0  0  0
   -0.9260   15.2360  -35.0970 N   0  0  0  0  0  0  0  0  0  0  0  0
   -0.7450   14.7450  -33.7170 C   0  0  0  0  0  0  0  0  0  0  0  0
   -0.8890   16.7020  -35.1940 C   0  0  0  0  0  0  0  0  0  0  0  0
   -2.0490   17.3780  -34.4560 C   0  0  0  0  0  0  0  0  0  0  0  0
   -4.5810   18.7150  -33.7770 C   0  0  0  0  0  0  0  0  0  0  0  0
   -5.7460   19.3390  -33.2890 C   0  0  0  0  0  0  0  0  0  0  0  0
   -5.8100   20.7220  -33.0360 C   0  0  0  0  0  0  0  0  0  0  0  0
   -4.7840   21.4320  -33.2320 O   0  0  0  0  0  0  0  0  0  0  0  0
   -6.9790   21.2980  -32.5860 N   0  0  0  0  0  0  0  0  0  0  0  0
   -7.0340   22.7650  -32.3830 C   0  0  0  0  0  0  0  0  0  0  0  0
   -6.2360   23.1760  -31.1700 C   0  0  0  0  0  0  0  0  0  0  0  0
   -6.1010   24.5310  -30.8280 C   0  0  0  0  0  0  0  0  0  0  0  0
   -5.3240   24.9090  -29.7300 C   0  0  0  0  0  0  0  0  0  0  0  0
   -4.6800   23.9360  -28.9530 C   0  0  0  0  0  0  0  0  0  0  0  0
   -3.8250   24.3400  -27.8180 C   0  0  0  0  0  0  0  0  0  0  0  0
   -4.4340   24.9340  -26.6990 C   0  0  0  0  0  0  0  0  0  0  0  0
   -3.6730   25.3010  -25.5880 C   0  0  0  0  0  0  0  0  0  0  0  0
   -2.2950   25.0840  -25.5820 C   0  0  0  0  0  0  0  0  0  0  0  0
   -1.6730   24.5080  -26.6910 C   0  0  0  0  0  0  0  0  0  0  0  0
   -2.4200   24.1410  -27.8220 C   0  0  0  0  0  0  0  0  0  0  0  0
   -1.5580   23.4710  -29.2200 S   0  0  0  0  0  0  0  0  0  0  0  0
   -2.3850   23.6840  -30.4570 O   0  0  0  0  0  0  0  0  0  0  0  0
   -0.2230   24.1390  -29.4050 O   0  0  0  0  0  0  0  0  0  0  0  0
   -1.3010   21.7700  -29.0100 N   0  0  0  0  0  0  0  0  0  0  0  0
   -2.2030   20.7540  -29.4650 C   0  0  0  0  0  0  0  0  0  0  0  0
   -2.4500   20.5140  -30.9230 C   0  0  0  0  0  0  0  0  0  0  0  0
   -2.8190   20.0600  -28.6130 O   0  0  0  0  0  0  0  0  0  0  0  0
   -4.8600   22.5800  -29.2580 C   0  0  0  0  0  0  0  0  0  0  0  0
   -5.6270   22.2030  -30.3620 C   0  0  0  0  0  0  0  0  0  0  0  0
   -9.3989   20.6148  -29.8154 H   0  0  0  0  0  0  0  0  0  0  0  0
   -8.5756   22.1516  -30.2480 H   0  0  0  0  0  0  0  0  0  0  0  0
  -10.3697   22.0630  -30.2480 H   0  0  0  0  0  0  0  0  0  0  0  0
  -10.2017   20.3223  -32.0791 H   0  0  0  0  0  0  0  0  0  0  0  0
   -9.5968   21.9884  -32.5258 H   0  0  0  0  0  0  0  0  0  0  0  0
   -7.7685   16.5923  -33.0705 H   0  0  0  0  0  0  0  0  0  0  0  0
   -5.7162   15.4874  -33.9225 H   0  0  0  0  0  0  0  0  0  0  0  0
   -3.6985   14.6413  -34.2228 H   0  0  0  0  0  0  0  0  0  0  0  0
   -4.2020   15.2942  -35.8682 H   0  0  0  0  0  0  0  0  0  0  0  0
   -2.1699   13.6365  -35.6331 H   0  0  0  0  0  0  0  0  0  0  0  0
   -2.1515   15.0675  -36.7679 H   0  0  0  0  0  0  0  0  0  0  0  0
   -0.1220   14.8680  -35.6620 H   0  0  0  0  0  0  0  0  0  0  0  0
   -1.0354   15.5329  -33.0064 H   0  0  0  0  0  0  0  0  0  0  0  0
   -1.3750   13.8574  -33.5580 H   0  0  0  0  0  0  0  0  0  0  0  0
    0.3104   14.4787  -33.5580 H   0  0  0  0  0  0  0  0  0  0  0  0
    0.0575   17.0586  -34.7615 H   0  0  0  0  0  0  0  0  0  0  0  0
   -0.9774   16.9646  -36.2585 H   0  0  0  0  0  0  0  0  0  0  0  0
   -1.7910   17.4328  -33.3881 H   0  0  0  0  0  0  0  0  0  0  0  0
   -2.1795   18.3672  -34.9191 H   0  0  0  0  0  0  0  0  0  0  0  0
   -3.6804   19.3204  -33.9569 H   0  0  0  0  0  0  0  0  0  0  0  0
   -6.6216   23.2663  -33.2711 H   0  0  0  0  0  0  0  0  0  0  0  0
   -8.0829   23.0569  -32.2264 H   0  0  0  0  0  0  0  0  0  0  0  0
   -6.6100   25.2996  -31.4281 H   0  0  0  0  0  0  0  0  0  0  0  0
   -5.2173   25.9736  -29.4744 H   0  0  0  0  0  0  0  0  0  0  0  0
   -5.5196   25.1111  -26.6989 H   0  0  0  0  0  0  0  0  0  0  0  0
   -4.1604   25.7619  -24.7162 H   0  0  0  0  0  0  0  0  0  0  0  0
   -1.6980   25.3671  -24.7025 H   0  0  0  0  0  0  0  0  0  0  0  0
   -0.5860   24.3398  -26.6788 H   0  0  0  0  0  0  0  0  0  0  0  0
   -3.2343   19.7519  -31.0414 H   0  0  0  0  0  0  0  0  0  0  0  0
   -2.7744   21.4511  -31.3991 H   0  0  0  0  0  0  0  0  0  0  0  0
   -1.5226   20.1628  -31.3991 H   0  0  0  0  0  0  0  0  0  0  0  0
   -4.3952   21.8097  -28.6251 H   0  0  0  0  0  0  0  0  0  0  0  0
   -5.7549   21.1367  -30.6002 H   0  0  0  0  0  0  0  0  0  0  0  0
  1  2  1  0
  2  3  1  0
  3  4  2  0
  4  5  1  0
  5  6  2  0
  6  7  1  0
  7  8  2  0
  8  9  1  0
  9 10  1  0
 10 11  1  0
 11 12  1  0
 12 13  1  0
 12 14  1  0
 14 15  1  0
  8 16  1  0
 16 17  2  0
 17 18  1  0
 18 19  2  0
 18 20  1  0
 20 21  1  0
 21 22  1  0
 22 23  2  0
 23 24  1  0
 24 25  2  0
 25 26  1  0
 26 27  2  0
 27 28  1  0
 28 29  2  0
 29 30  1  0
 30 31  2  0
 31 32  1  0
 32 33  2  0
 32 34  2  0
 32 35  1  0
 35 36  1  0
 36 37  1  0
 36 38  2  0
 25 39  1  0
 39 40  2  0
 20  3  1  0
 40 22  1  0
 17  5  1  0
 31 26  1  0
 15  9  1  0
  1 41  1  0
  1 42  1  0
  1 43  1  0
  2 44  1  0
  2 45  1  0
  6 46  1  0
  7 47  1  0
 10 48  1  0
 10 49  1  0
 11 50  1  0
 11 51  1  0
 12 52  1  0
 13 53  1  0
 13 54  1  0
 13 55  1  0
 14 56  1  0
 14 57  1  0
 15 58  1  0
 15 59  1  0
 16 60  1  0
 21 61  1  0
 21 62  1  0
 23 63  1  0
 24 64  1  0
 27 65  1  0
 28 66  1  0
 29 67  1  0
 30 68  1  0
 37 69  1  0
 37 70  1  0
 37 71  1  0
 39 72  1  0
 40 73  1  0
M  CHG  2  12   1  35  -1
M  END
>  <UniqueID>  (8) 
8

>  <SMILES>  (8) 
CCc1nc2ccc(N3CC[NH+](C)CC3)cc2c(=O)n1Cc1ccc(-c2ccccc2S(=O)(=O)[N-]C(C)=O)cc1

>  <Energy>  (8) 
105.36113934614782

>  <Genealogy>  (8) 
CCc1nc2ccc(N3CC[NH+](C)CC3)cc2c(=O)n1Cc1ccc(-c2ccccc2S(=O)(=O)[N-]C(C)=O)cc1 (protonated)
CCc1nc2ccc(N3CC[NH+](C)CC3)cc2c(=O)n1Cc1ccc(-c2ccccc2S(=O)(=O)[N-]C(C)=O)cc1 (3D coordinates assigned)
CCc1nc2ccc(N3CC[NH+](C)CC3)cc2c(=O)n1Cc1ccc(-c2ccccc2S(=O)(=O)[N-]C(C)=O)cc1 (nonaromatic ring conformer: 105.36113934614782 kcal/mol)

>  <smiles>  (8) 
CCc1nc2ccc(N3CCN(C)CC3)cc2c(=O)n1Cc1ccc(-c2ccccc2S(=O)(=O)NC(C)=O)cc1

>  <score_type>  (8) 
oracle

>  <origin>  (8) 
adg

>  <m_score__min__energy>  (8) 
-12.19

>  <m_primary>  (8) 
energy

$$$$
8:0
     RDKit          3D

 41 42  0  0  0  0  0  0  0  0999 V2000
   -6.0340   16.9340  -33.1160 C   0  0  0  0  0  0  0  0  0  0  0  0
   -6.0840   18.0680  -34.1320 C   0  0  0  0  0  0  0  0  0  0  0  0
   -6.4680   19.3190  -33.4750 N   0  0  0  0  0  0  0  0  0  0  0  0
   -7.7110   19.6070  -33.1220 N   0  0  0  0  0  0  0  0  0  0  0  0
   -7.7300   20.8280  -32.5560 C   0  0  0  0  0  0  0  0  0  0  0  0
   -8.9850   21.5360  -32.1530 C   0  0  0  0  0  0  0  0  0  0  0  0
   -6.4390   21.3390  -32.5430 C   0  0  0  0  0  0  0  0  0  0  0  0
   -6.0140   22.7340  -32.1790 C   0  0  0  0  0  0  0  0  0  0  0  0
   -5.5890   22.7760  -30.7760 N   0  0  0  0  0  0  0  0  0  0  0  0
   -6.3890   23.4640  -29.7600 C   0  0  0  0  0  0  0  0  0  0  0  0
   -4.3080   22.2410  -30.4120 C   0  0  0  0  0  0  0  0  0  0  0  0
   -4.1090   21.0020  -30.5270 O   0  0  0  0  0  0  0  0  0  0  0  0
   -3.2340   23.1150  -29.8850 C   0  0  0  0  0  0  0  0  0  0  0  0
   -2.0480   22.5590  -29.3780 C   0  0  0  0  0  0  0  0  0  0  0  0
   -1.0480   23.3870  -28.8650 C   0  0  0  0  0  0  0  0  0  0  0  0
   -1.2420   24.7700  -28.8560 C   0  0  0  0  0  0  0  0  0  0  0  0
   -0.3500   25.5320  -28.3980 O   0  0  0  0  0  0  0  0  0  0  0  0
   -2.3990   25.2960  -29.3380 N   0  0  0  0  0  0  0  0  0  0  0  0
   -3.3870   24.5110  -29.8440 C   0  0  0  0  0  0  0  0  0  0  0  0
   -5.6590   20.3440  -33.1210 C   0  0  0  0  0  0  0  0  0  0  0  0
   -4.2000   20.4450  -33.4590 C   0  0  0  0  0  0  0  0  0  0  0  0
   -6.0524   17.3521  -32.0987 H   0  0  0  0  0  0  0  0  0  0  0  0
   -6.9040   16.2760  -33.2578 H   0  0  0  0  0  0  0  0  0  0  0  0
   -5.1095   16.3551  -33.2578 H   0  0  0  0  0  0  0  0  0  0  0  0
   -5.0917   18.1885  -34.5912 H   0  0  0  0  0  0  0  0  0  0  0  0
   -6.8284   17.8251  -34.9046 H   0  0  0  0  0  0  0  0  0  0  0  0
   -8.5380   18.9910  -33.2950 H   0  0  0  0  0  0  0  0  0  0  0  0
   -9.0493   21.5723  -31.0555 H   0  0  0  0  0  0  0  0  0  0  0  0
   -8.9729   22.5604  -32.5536 H   0  0  0  0  0  0  0  0  0  0  0  0
   -9.8555   20.9959  -32.5536 H   0  0  0  0  0  0  0  0  0  0  0  0
   -5.1765   23.0399  -32.8232 H   0  0  0  0  0  0  0  0  0  0  0  0
   -6.8622   23.4198  -32.3213 H   0  0  0  0  0  0  0  0  0  0  0  0
   -6.0439   23.1672  -28.7586 H   0  0  0  0  0  0  0  0  0  0  0  0
   -6.2763   24.5517  -29.8792 H   0  0  0  0  0  0  0  0  0  0  0  0
   -7.4476   23.1898  -29.8792 H   0  0  0  0  0  0  0  0  0  0  0  0
   -1.9068   21.4681  -29.3852 H   0  0  0  0  0  0  0  0  0  0  0  0
   -0.1163   22.9543  -28.4717 H   0  0  0  0  0  0  0  0  0  0  0  0
   -4.3112   24.9714  -30.2234 H   0  0  0  0  0  0  0  0  0  0  0  0
   -3.6106   20.4858  -32.5311 H   0  0  0  0  0  0  0  0  0  0  0  0
   -3.8981   19.5656  -34.0468 H   0  0  0  0  0  0  0  0  0  0  0  0
   -4.0221   21.3576  -34.0468 H   0  0  0  0  0  0  0  0  0  0  0  0
  1  2  1  0
  2  3  1  0
  3  4  1  0
  4  5  2  0
  5  6  1  0
  5  7  1  0
  7  8  1  0
  8  9  1  0
  9 10  1  0
  9 11  1  0
 11 12  2  0
 11 13  1  0
 13 14  1  0
 14 15  2  0
 15 16  1  0
 16 17  2  0
 16 18  1  0
 18 19  1  0
  7 20  2  0
 20 21  1  0
 20  3  1  0
 19 13  2  0
  1 22  1  0
  1 23  1  0
  1 24  1  0
  2 25  1  0
  2 26  1  0
  4 27  1  0
  6 28  1  0
  6 29  1  0
  6 30  1  0
  8 31  1  0
  8 32  1  0
 10 33  1  0
 10 34  1  0
 10 35  1  0
 14 36  1  0
 15 37  1  0
 19 38  1  0
 21 39  1  0
 21 40  1  0
 21 41  1  0
M  CHG  2   4   1  18  -1
M  END
>  <UniqueID>  (9) 
9

>  <SMILES>  (9) 
CCn1[nH+]c(C)c(CN(C)C(=O)c2ccc(=O)[n-]c2)c1C

>  <Energy>  (9) 
68.1317414622186

>  <Genealogy>  (9) 
CCn1[nH+]c(C)c(CN(C)C(=O)c2ccc(=O)[n-]c2)c1C (protonated)
CCn1[nH+]c(C)c(CN(C)C(=O)c2ccc(=O)[n-]c2)c1C (3D coordinates assigned)
CCn1[nH+]c(C)c(CN(C)C(=O)c2ccc(=O)[n-]c2)c1C (optimized conformer: 68.1317414622186 kcal/mol)

>  <smiles>  (9) 
CCn1nc(C)c(CN(C)C(=O)c2ccc(=O)[nH]c2)c1C

>  <score_type>  (9) 
oracle

>  <origin>  (9) 
adg

>  <m_score__min__energy>  (9) 
-8.9800000000000004

>  <m_primary>  (9) 
energy

$$$$
9:0
     RDKit          3D

 36 36  0  0  0  0  0  0  0  0999 V2000
   -8.6950   19.4400  -31.9380 C   0  0  0  0  0  0  0  0  0  0  0  0
   -7.8440   20.6340  -32.3540 C   0  0  0  0  0  0  0  0  0  0  0  0
   -7.8000   21.6070  -31.3130 O   0  0  0  0  0  0  0  0  0  0  0  0
   -7.9520   22.9800  -31.5370 C   0  0  0  0  0  0  0  0  0  0  0  0
   -8.7270   23.4080  -32.4360 O   0  0  0  0  0  0  0  0  0  0  0  0
   -7.1500   23.9470  -30.7260 C   0  0  0  0  0  0  0  0  0  0  0  0
   -5.9180   24.4080  -31.5130 C   0  0  0  0  0  0  0  0  0  0  0  0
   -5.2330   25.6090  -30.8510 C   0  0  0  0  0  0  0  0  0  0  0  0
   -3.8600   25.2880  -30.4690 N   0  0  0  0  0  0  0  0  0  0  0  0
   -3.5130   24.5220  -29.3090 C   0  0  0  0  0  0  0  0  0  0  0  0
   -4.4280   24.0060  -28.6120 O   0  0  0  0  0  0  0  0  0  0  0  0
   -2.0790   24.3430  -28.9370 C   0  0  0  0  0  0  0  0  0  0  0  0
   -1.3230   25.4740  -28.5720 C   0  0  0  0  0  0  0  0  0  0  0  0
   -0.0170   25.3530  -28.2200 N   0  0  0  0  0  0  0  0  0  0  0  0
    0.6100   24.1530  -28.2060 C   0  0  0  0  0  0  0  0  0  0  0  0
   -0.0820   22.9970  -28.5580 C   0  0  0  0  0  0  0  0  0  0  0  0
   -1.4400   23.0740  -28.9310 C   0  0  0  0  0  0  0  0  0  0  0  0
   -2.1100   22.0080  -29.2750 N   0  0  0  0  0  0  0  0  0  0  0  0
   -2.7990   21.0850  -28.3770 C   0  0  0  0  0  0  0  0  0  0  0  0
   -8.7354   19.3833  -30.8402 H   0  0  0  0  0  0  0  0  0  0  0  0
   -9.7133   19.5588  -32.3368 H   0  0  0  0  0  0  0  0  0  0  0  0
   -8.2505   18.5162  -32.3368 H   0  0  0  0  0  0  0  0  0  0  0  0
   -6.8217   20.2909  -32.5713 H   0  0  0  0  0  0  0  0  0  0  0  0
   -8.2903   21.0925  -33.2488 H   0  0  0  0  0  0  0  0  0  0  0  0
   -7.7728   24.8204  -30.4825 H   0  0  0  0  0  0  0  0  0  0  0  0
   -6.8191   23.4507  -29.8018 H   0  0  0  0  0  0  0  0  0  0  0  0
   -5.2005   23.5761  -31.5697 H   0  0  0  0  0  0  0  0  0  0  0  0
   -6.2495   24.7149  -32.5159 H   0  0  0  0  0  0  0  0  0  0  0  0
   -5.2212   26.4508  -31.5590 H   0  0  0  0  0  0  0  0  0  0  0  0
   -5.7947   25.8743  -29.9432 H   0  0  0  0  0  0  0  0  0  0  0  0
   -1.7961   26.4671  -28.5721 H   0  0  0  0  0  0  0  0  0  0  0  0
    1.6692   24.0911  -27.9157 H   0  0  0  0  0  0  0  0  0  0  0  0
    0.4305   22.0238  -28.5451 H   0  0  0  0  0  0  0  0  0  0  0  0
   -2.5905   21.3643  -27.3337 H   0  0  0  0  0  0  0  0  0  0  0  0
   -3.8824   21.1350  -28.5605 H   0  0  0  0  0  0  0  0  0  0  0  0
   -2.4430   20.0605  -28.5605 H   0  0  0  0  0  0  0  0  0  0  0  0
  1  2  1  0
  2  3  1  0
  3  4  1  0
  4  5  2  0
  4  6  1  0
  6  7  1  0
  7  8  1  0
  8  9  1  0
  9 10  1  0
 10 11  2  0
 10 12  1  0
 12 13  2  0
 13 14  1  0
 14 15  1  0
 15 16  2  0
 16 17  1  0
 17 18  2  3
 18 19  1  0
 17 12  1  0
  1 20  1  0
  1 21  1  0
  1 22  1  0
  2 23  1  0
  2 24  1  0
  6 25  1  0
  6 26  1  0
  7 27  1  0
  7 28  1  0
  8 29  1  0
  8 30  1  0
 13 31  1  0
 15 32  1  0
 16 33  1  0
 19 34  1  0
 19 35  1  0
 19 36  1  0
M  CHG  2   9  -1  14  -1
M  END
>  <UniqueID>  (10) 
10

>  <SMILES>  (10) 
CCOC(=O)CCC[N-]C(=O)c1c[n-]ccc1=NC

>  <Energy>  (10) 
27.944221224997943

>  <Genealogy>  (10) 
CCOC(=O)CCC[N-]C(=O)c1c[n-]ccc1=NC (protonated)
CCOC(=O)CCC[N-]C(=O)c1c[n-]ccc1=NC (3D coordinates assigned)
CCOC(=O)CCC[N-]C(=O)c1c[n-]ccc1=NC (optimized conformer: 27.944221224997943 kcal/mol)

>  <smiles>  (10) 
CCOC(=O)CCCNC(=O)c1c[nH]ccc1=NC

>  <score_type>  (10) 
oracle

>  <origin>  (10) 
adg

>  <m_score__min__energy>  (10) 
-7.54

>  <m_primary>  (10) 
energy

$$$$
10:0
     RDKit          3D

 27 27  0  0  0  0  0  0  0  0999 V2000
   -9.0970   18.9720  -32.3420 C   0  0  0  0  0  0  0  0  0  0  0  0
   -8.2290   20.1400  -31.9780 C   0  0  0  0  0  0  0  0  0  0  0  0
   -8.7380   21.1800  -31.1860 C   0  0  0  0  0  0  0  0  0  0  0  0
   -7.9410   22.2870  -30.8800 C   0  0  0  0  0  0  0  0  0  0  0  0
   -6.6320   22.3730  -31.3730 C   0  0  0  0  0  0  0  0  0  0  0  0
   -5.6310   23.7770  -30.9960 S   0  0  0  0  0  0  0  0  0  0  0  0
   -5.9840   24.9000  -31.9320 O   0  0  0  0  0  0  0  0  0  0  0  0
   -4.1860   23.4260  -31.2140 O   0  0  0  0  0  0  0  0  0  0  0  0
   -5.8620   24.2990  -29.3450 N   0  0  0  0  0  0  0  0  0  0  0  0
   -4.6060   24.1830  -28.5930 C   0  0  0  0  0  0  0  0  0  0  0  0
   -6.3600   25.6810  -29.3130 C   0  0  0  0  0  0  0  0  0  0  0  0
   -6.1280   21.3440  -32.1800 C   0  0  0  0  0  0  0  0  0  0  0  0
   -6.9250   20.2360  -32.4870 C   0  0  0  0  0  0  0  0  0  0  0  0
   -9.4593   18.4845  -31.4249 H   0  0  0  0  0  0  0  0  0  0  0  0
   -9.9550   19.3232  -32.9340 H   0  0  0  0  0  0  0  0  0  0  0  0
   -8.5132   18.2518  -32.9340 H   0  0  0  0  0  0  0  0  0  0  0  0
   -9.7681   21.1242  -30.8043 H   0  0  0  0  0  0  0  0  0  0  0  0
   -8.3430   23.0939  -30.2496 H   0  0  0  0  0  0  0  0  0  0  0  0
   -6.5770   23.6740  -28.9040 H   0  0  0  0  0  0  0  0  0  0  0  0
   -4.8212   24.2029  -27.5144 H   0  0  0  0  0  0  0  0  0  0  0  0
   -4.1106   23.2353  -28.8506 H   0  0  0  0  0  0  0  0  0  0  0  0
   -3.9454   25.0240  -28.8506 H   0  0  0  0  0  0  0  0  0  0  0  0
   -6.4766   26.0046  -28.2682 H   0  0  0  0  0  0  0  0  0  0  0  0
   -5.6431   26.3410  -29.8234 H   0  0  0  0  0  0  0  0  0  0  0  0
   -7.3331   25.7320  -29.8234 H   0  0  0  0  0  0  0  0  0  0  0  0
   -5.1027   21.4077  -32.5732 H   0  0  0  0  0  0  0  0  0  0  0  0
   -6.5278   19.4368  -33.1300 H   0  0  0  0  0  0  0  0  0  0  0  0
  1  2  1  0
  2  3  2  0
  3  4  1  0
  4  5  2  0
  5  6  1  0
  6  7  2  0
  6  8  2  0
  6  9  1  0
  9 10  1  0
  9 11  1  0
  5 12  1  0
 12 13  2  0
 13  2  1  0
  1 14  1  0
  1 15  1  0
  1 16  1  0
  3 17  1  0
  4 18  1  0
  9 19  1  0
 10 20  1  0
 10 21  1  0
 10 22  1  0
 11 23  1  0
 11 24  1  0
 11 25  1  0
 12 26  1  0
 13 27  1  0
M  CHG  1   9   1
M  END
>  <UniqueID>  (11) 
11

>  <SMILES>  (11) 
Cc1ccc(S(=O)(=O)[NH+](C)C)cc1

>  <Energy>  (11) 
21.203372479121683

>  <Genealogy>  (11) 
Cc1ccc(S(=O)(=O)[NH+](C)C)cc1 (protonated)
Cc1ccc(S(=O)(=O)[NH+](C)C)cc1 (3D coordinates assigned)
Cc1ccc(S(=O)(=O)[NH+](C)C)cc1 (optimized conformer: 21.203372479121683 kcal/mol)

>  <smiles>  (11) 
Cc1ccc(S(=O)(=O)N(C)C)cc1

>  <score_type>  (11) 
oracle

>  <origin>  (11) 
adg

>  <m_score__min__energy>  (11) 
-5.6200000000000001

>  <m_primary>  (11) 
energy

$$$$
11:0
     RDKit          3D

 34 35  0  0  0  0  0  0  0  0999 V2000
   -1.0352   23.8971  -26.5631 H   0  0  0  0  0  0  0  0  0  0  0  0
   -1.6690   24.0020  -27.4560 C   0  0  0  0  0  0  0  0  0  0  0  0
   -1.6190   25.1670  -28.2250 C   0  0  0  0  0  0  0  0  0  0  0  0
   -0.5430   26.4760  -27.7820 Cl  0  0  0  0  0  0  0  0  0  0  0  0
   -2.4090   25.2890  -29.3250 N   0  0  0  0  0  0  0  0  0  0  0  0
   -3.2700   24.3040  -29.7110 C   0  0  0  0  0  0  0  0  0  0  0  0
   -4.0040   24.4280  -30.7790 N   0  0  0  0  0  0  0  0  0  0  0  0
   -4.8390   23.4180  -31.3720 C   0  0  0  0  0  0  0  0  0  0  0  0
   -6.2220   23.5410  -31.2550 C   0  0  0  0  0  0  0  0  0  0  0  0
   -6.6469   24.3902  -30.6997 H   0  0  0  0  0  0  0  0  0  0  0  0
   -7.0810   22.5930  -31.8380 C   0  0  0  0  0  0  0  0  0  0  0  0
   -8.4770   22.6850  -31.7170 O   0  0  0  0  0  0  0  0  0  0  0  0
   -9.2970   21.7260  -31.0560 C   0  0  0  0  0  0  0  0  0  0  0  0
   -9.1953   21.8449  -29.9672 H   0  0  0  0  0  0  0  0  0  0  0  0
  -10.3471   21.8799  -31.3452 H   0  0  0  0  0  0  0  0  0  0  0  0
   -8.9818   20.7126  -31.3452 H   0  0  0  0  0  0  0  0  0  0  0  0
   -6.5470   21.5160  -32.5670 C   0  0  0  0  0  0  0  0  0  0  0  0
   -7.4720   20.6040  -33.1110 O   0  0  0  0  0  0  0  0  0  0  0  0
   -7.6520   19.2460  -32.7260 C   0  0  0  0  0  0  0  0  0  0  0  0
   -7.6615   19.1742  -31.6284 H   0  0  0  0  0  0  0  0  0  0  0  0
   -8.6072   18.8750  -33.1260 H   0  0  0  0  0  0  0  0  0  0  0  0
   -6.8265   18.6390  -33.1260 H   0  0  0  0  0  0  0  0  0  0  0  0
   -5.1420   21.4020  -32.7240 C   0  0  0  0  0  0  0  0  0  0  0  0
   -4.6030   20.3390  -33.4660 O   0  0  0  0  0  0  0  0  0  0  0  0
   -3.2940   19.8020  -33.2950 C   0  0  0  0  0  0  0  0  0  0  0  0
   -3.0724   19.7111  -32.2214 H   0  0  0  0  0  0  0  0  0  0  0  0
   -3.2405   18.8093  -33.7658 H   0  0  0  0  0  0  0  0  0  0  0  0
   -2.5588   20.4712  -33.7658 H   0  0  0  0  0  0  0  0  0  0  0  0
   -4.3040   22.3660  -32.1320 C   0  0  0  0  0  0  0  0  0  0  0  0
   -3.2147   22.2938  -32.2669 H   0  0  0  0  0  0  0  0  0  0  0  0
   -3.3350   23.1180  -28.9680 C   0  0  0  0  0  0  0  0  0  0  0  0
   -4.0126   22.3079  -29.2755 H   0  0  0  0  0  0  0  0  0  0  0  0
   -2.5330   22.9720  -27.8340 C   0  0  0  0  0  0  0  0  0  0  0  0
   -2.5900   21.8320  -27.1040 F   0  0  0  0  0  0  0  0  0  0  0  0
  1  2  1  0
  2  3  2  0
  3  4  1  0
  3  5  1  0
  5  6  1  0
  6  7  2  0
  7  8  1  0
  8  9  2  0
  9 10  1  0
  9 11  1  0
 11 12  1  0
 12 13  1  0
 13 14  1  0
 13 15  1  0
 13 16  1  0
 11 17  2  0
 17 18  1  0
 18 19  1  0
 19 20  1  0
 19 21  1  0
 19 22  1  0
 17 23  1  0
 23 24  1  0
 24 25  1  0
 25 26  1  0
 25 27  1  0
 25 28  1  0
 23 29  2  0
 29 30  1  0
  6 31  1  0
 31 32  1  0
 31 33  2  0
 33 34  1  0
 33  2  1  0
 29  8  1  0
M  CHG  1   5  -1
M  END
>  <UniqueID>  (12) 
12

>  <SMILES>  (12) 
COc1cc(/N=c2/cc(F)cc(Cl)[n-]2)cc(OC)c1OC

>  <Energy>  (12) 
42.596334798795404

>  <Genealogy>  (12) 
COc1cc(N=c2cc(F)cc(Cl)[n-]2)cc(OC)c1OC (protonated)
COc1cc(/N=c2/cc(F)cc(Cl)[n-]2)cc(OC)c1OC (cis-trans isomerization)
COc1cc(/N=c2/cc(F)cc(Cl)[n-]2)cc(OC)c1OC (3D coordinates assigned)
COc1cc(/N=c2/cc(F)cc(Cl)[n-]2)cc(OC)c1OC (optimized conformer: 42.596334798795404 kcal/mol)

>  <smiles>  (12) 
COc1cc(N=c2cc(F)cc(Cl)[nH]2)cc(OC)c1OC

>  <score_type>  (12) 
oracle

>  <origin>  (12) 
adg

>  <m_score__min__energy>  (12) 
-7.1500000000000004

>  <m_primary>  (12) 
energy

$$$$
12:0
     RDKit          3D

 34 36  0  0  0  0  0  0  0  0999 V2000
   -2.2160   24.1640  -29.3100 C   0  0  0  0  0  0  0  0  0  0  0  0
   -3.1410   24.9110  -30.0950 O   0  0  0  0  0  0  0  0  0  0  0  0
   -4.4790   24.5460  -30.3010 C   0  0  0  0  0  0  0  0  0  0  0  0
   -5.5540   25.3280  -29.8400 C   0  0  0  0  0  0  0  0  0  0  0  0
   -6.8680   24.9200  -30.0720 C   0  0  0  0  0  0  0  0  0  0  0  0
   -7.1270   23.7320  -30.7610 C   0  0  0  0  0  0  0  0  0  0  0  0
   -6.0660   22.9340  -31.2280 C   0  0  0  0  0  0  0  0  0  0  0  0
   -6.3180   21.6690  -31.9610 C   0  0  0  0  0  0  0  0  0  0  0  0
   -5.5060   20.5440  -31.9890 C   0  0  0  0  0  0  0  0  0  0  0  0
   -6.1820   19.6550  -32.8020 C   0  0  0  0  0  0  0  0  0  0  0  0
   -5.7490   18.2610  -33.1830 C   0  0  1  0  0  0  0  0  0  0  0  0
   -6.7190   17.1990  -32.7510 C   0  0  0  0  0  0  0  0  0  0  0  0
   -6.5240   16.1250  -33.8050 C   0  0  0  0  0  0  0  0  0  0  0  0
   -5.9420   16.6900  -34.9600 O   0  0  0  0  0  0  0  0  0  0  0  0
   -5.6660   18.0450  -34.6840 C   0  0  0  0  0  0  0  0  0  0  0  0
   -7.3220   20.2300  -33.2230 N   0  0  0  0  0  0  0  0  0  0  0  0
   -7.4140   21.4490  -32.7180 N   0  0  0  0  0  0  0  0  0  0  0  0
   -4.7450   23.3560  -30.9900 C   0  0  0  0  0  0  0  0  0  0  0  0
   -2.4225   24.3308  -28.2425 H   0  0  0  0  0  0  0  0  0  0  0  0
   -2.3199   23.0935  -29.5407 H   0  0  0  0  0  0  0  0  0  0  0  0
   -1.1914   24.4910  -29.5407 H   0  0  0  0  0  0  0  0  0  0  0  0
   -5.3580   26.2634  -29.2953 H   0  0  0  0  0  0  0  0  0  0  0  0
   -7.7043   25.5365  -29.7108 H   0  0  0  0  0  0  0  0  0  0  0  0
   -8.1663   23.4188  -30.9393 H   0  0  0  0  0  0  0  0  0  0  0  0
   -4.5427   20.3942  -31.4795 H   0  0  0  0  0  0  0  0  0  0  0  0
   -4.7720   18.1780  -32.6845 H   0  0  0  0  0  0  0  0  0  0  0  0
   -6.4728   16.8205  -31.7479 H   0  0  0  0  0  0  0  0  0  0  0  0
   -7.7564   17.5573  -32.6778 H   0  0  0  0  0  0  0  0  0  0  0  0
   -5.8625   15.3404  -33.4091 H   0  0  0  0  0  0  0  0  0  0  0  0
   -7.5000   15.6897  -34.0655 H   0  0  0  0  0  0  0  0  0  0  0  0
   -4.6560   18.2972  -35.0393 H   0  0  0  0  0  0  0  0  0  0  0  0
   -6.3955   18.6889  -35.1970 H   0  0  0  0  0  0  0  0  0  0  0  0
   -8.0390   19.8010  -33.8500 H   0  0  0  0  0  0  0  0  0  0  0  0
   -3.9074   22.7412  -31.3510 H   0  0  0  0  0  0  0  0  0  0  0  0
  1  2  1  0
  2  3  1  0
  3  4  2  0
  4  5  1  0
  5  6  2  0
  6  7  1  0
  7  8  1  0
  8  9  1  0
  9 10  2  0
 10 11  1  0
 11 12  1  0
 12 13  1  0
 13 14  1  0
 14 15  1  0
 10 16  1  0
 16 17  1  0
  7 18  2  0
 18  3  1  0
 17  8  2  0
 15 11  1  0
  1 19  1  0
  1 20  1  0
  1 21  1  0
  4 22  1  0
  5 23  1  0
  6 24  1  0
  9 25  1  0
 11 26  1  1
 12 27  1  0
 12 28  1  0
 13 29  1  0
 13 30  1  0
 15 31  1  0
 15 32  1  0
 16 33  1  0
 18 34  1  0
M  END
>  <UniqueID>  (13) 
13

>  <SMILES>  (13) 
COc1cccc(-c2cc([C@H]3CCOC3)[nH]n2)c1

>  <Energy>  (13) 
66.19267519838775

>  <Genealogy>  (13) 
COc1cccc(-c2cc([C@H]3CCOC3)[nH]n2)c1 (chirality)
COc1cccc(-c2cc([C@H]3CCOC3)[nH]n2)c1 (3D coordinates assigned)
COc1cccc(-c2cc([C@H]3CCOC3)[nH]n2)c1 (nonaromatic ring conformer: 66.19267519838775 kcal/mol)

>  <smiles>  (13) 
COc1cccc(-c2cc(C3CCOC3)[nH]n2)c1

>  <score_type>  (13) 
oracle

>  <origin>  (13) 
adg

>  <m_score__min__energy>  (13) 
-7.71

>  <m_primary>  (13) 
energy

$$$$
13:0
     RDKit          3D

 43 46  0  0  0  0  0  0  0  0999 V2000
   -7.8629   22.3590  -32.1428 H   0  0  0  0  0  0  0  0  0  0  0  0
   -6.8800   21.8870  -32.2880 C   0  0  0  0  0  0  0  0  0  0  0  0
   -5.8020   22.5940  -32.1380 N   0  0  0  0  0  0  0  0  0  0  0  0
   -5.0070   22.6480  -30.9440 C   0  0  0  0  0  0  0  0  0  0  0  0
   -4.2520   21.6110  -30.5370 N   0  0  0  0  0  0  0  0  0  0  0  0
   -3.5890   21.9890  -29.4540 N   0  0  0  0  0  0  0  0  0  0  0  0
   -2.7240   21.1010  -28.7270 C   0  0  0  0  0  0  0  0  0  0  0  0
   -3.1230   20.5510  -27.4960 C   0  0  0  0  0  0  0  0  0  0  0  0
   -4.1063   20.8074  -27.0749 H   0  0  0  0  0  0  0  0  0  0  0  0
   -2.2750   19.6790  -26.8040 C   0  0  0  0  0  0  0  0  0  0  0  0
   -2.5879   19.2609  -25.8359 H   0  0  0  0  0  0  0  0  0  0  0  0
   -1.0310   19.3390  -27.3420 C   0  0  0  0  0  0  0  0  0  0  0  0
   -0.3631   18.6567  -26.7957 H   0  0  0  0  0  0  0  0  0  0  0  0
   -0.6360   19.8660  -28.5740 C   0  0  0  0  0  0  0  0  0  0  0  0
    0.3415   19.5946  -28.9992 H   0  0  0  0  0  0  0  0  0  0  0  0
   -1.4800   20.7370  -29.2670 C   0  0  0  0  0  0  0  0  0  0  0  0
   -1.1682   21.1402  -30.2418 H   0  0  0  0  0  0  0  0  0  0  0  0
   -3.8910   23.2810  -29.1660 C   0  0  0  0  0  0  0  0  0  0  0  0
   -3.2330   24.1110  -28.1310 C   0  0  0  0  0  0  0  0  0  0  0  0
   -3.9450   24.5140  -26.9890 C   0  0  0  0  0  0  0  0  0  0  0  0
   -4.9944   24.2094  -26.8629 H   0  0  0  0  0  0  0  0  0  0  0  0
   -3.3270   25.3000  -26.0120 C   0  0  0  0  0  0  0  0  0  0  0  0
   -3.8896   25.6090  -25.1187 H   0  0  0  0  0  0  0  0  0  0  0  0
   -1.9940   25.6940  -26.1690 C   0  0  0  0  0  0  0  0  0  0  0  0
   -1.2180   26.6770  -24.9420 Cl  0  0  0  0  0  0  0  0  0  0  0  0
   -1.2820   25.3040  -27.3080 C   0  0  0  0  0  0  0  0  0  0  0  0
   -0.2347   25.6162  -27.4335 H   0  0  0  0  0  0  0  0  0  0  0  0
   -1.8970   24.5190  -28.2870 C   0  0  0  0  0  0  0  0  0  0  0  0
   -1.3335   24.2193  -29.1829 H   0  0  0  0  0  0  0  0  0  0  0  0
   -4.8060   23.7330  -30.1020 C   0  0  0  0  0  0  0  0  0  0  0  0
   -5.2420   25.0940  -30.2870 C   0  0  0  0  0  0  0  0  0  0  0  0
   -5.5890   26.1880  -30.4360 N   0  0  0  0  0  0  0  0  0  0  0  0
   -6.8050   20.4570  -32.6510 C   0  0  0  0  0  0  0  0  0  0  0  0
   -5.7710   20.0120  -33.4900 C   0  0  0  0  0  0  0  0  0  0  0  0
   -5.0276   20.7286  -33.8693 H   0  0  0  0  0  0  0  0  0  0  0  0
   -5.6810   18.6630  -33.8460 C   0  0  0  0  0  0  0  0  0  0  0  0
   -4.8679   18.3222  -34.5038 H   0  0  0  0  0  0  0  0  0  0  0  0
   -6.6220   17.7460  -33.3680 C   0  0  0  0  0  0  0  0  0  0  0  0
   -6.4950   15.9040  -33.8550 Br  0  0  0  0  0  0  0  0  0  0  0  0
   -7.6550   18.1800  -32.5320 C   0  0  0  0  0  0  0  0  0  0  0  0
   -8.3955   17.4592  -32.1551 H   0  0  0  0  0  0  0  0  0  0  0  0
   -7.7490   19.5280  -32.1740 C   0  0  0  0  0  0  0  0  0  0  0  0
   -8.5643   19.8643  -31.5166 H   0  0  0  0  0  0  0  0  0  0  0  0
  1  2  1  0
  2  3  2  0
  3  4  1  0
  4  5  2  0
  5  6  1  0
  6  7  1  0
  7  8  2  0
  8  9  1  0
  8 10  1  0
 10 11  1  0
 10 12  2  0
 12 13  1  0
 12 14  1  0
 14 15  1  0
 14 16  2  0
 16 17  1  0
  6 18  1  0
 18 19  1  0
 19 20  2  0
 20 21  1  0
 20 22  1  0
 22 23  1  0
 22 24  2  0
 24 25  1  0
 24 26  1  0
 26 27  1  0
 26 28  2  0
 28 29  1  0
 18 30  2  0
 30 31  1  0
 31 32  3  0
  2 33  1  0
 33 34  2  0
 34 35  1  0
 34 36  1  0
 36 37  1  0
 36 38  2  0
 38 39  1  0
 38 40  1  0
 40 41  1  0
 40 42  2  0
 42 43  1  0
 30  4  1  0
 42 33  1  0
 16  7  1  0
 28 19  1  0
M  END
>  <UniqueID>  (14) 
14

>  <SMILES>  (14) 
N#Cc1c(/N=C/c2ccc(Br)cc2)nn(-c2ccccc2)c1-c1ccc(Cl)cc1

>  <Energy>  (14) 
91.61331059618757

>  <Genealogy>  (14) 
N#Cc1c(/N=C/c2ccc(Br)cc2)nn(-c2ccccc2)c1-c1ccc(Cl)cc1 (cis-trans isomerization)
N#Cc1c(/N=C/c2ccc(Br)cc2)nn(-c2ccccc2)c1-c1ccc(Cl)cc1 (3D coordinates assigned)
N#Cc1c(/N=C/c2ccc(Br)cc2)nn(-c2ccccc2)c1-c1ccc(Cl)cc1 (optimized conformer: 91.61331059618757 kcal/mol)

>  <smiles>  (14) 
N#Cc1c(N=Cc2ccc(Br)cc2)nn(-c2ccccc2)c1-c1ccc(Cl)cc1

>  <score_type>  (14) 
oracle

>  <origin>  (14) 
adg

>  <m_score__min__energy>  (14) 
-9.8000000000000007

>  <m_primary>  (14) 
energy

$$$$
14:0
     RDKit          3D

 35 37  0  0  0  0  0  0  0  0999 V2000
   -9.2130   22.6160  -31.9680 C   0  0  0  0  0  0  0  0  0  0  0  0
   -9.3870   21.2100  -32.1130 O   0  0  0  0  0  0  0  0  0  0  0  0
   -8.3360   20.2960  -32.2810 C   0  0  0  0  0  0  0  0  0  0  0  0
   -8.6350   18.9290  -32.2580 C   0  0  0  0  0  0  0  0  0  0  0  0
   -7.6230   17.9800  -32.4210 C   0  0  0  0  0  0  0  0  0  0  0  0
   -6.3000   18.3900  -32.5990 C   0  0  0  0  0  0  0  0  0  0  0  0
   -5.9780   19.7540  -32.6040 C   0  0  0  0  0  0  0  0  0  0  0  0
   -4.5730   20.1730  -32.7650 C   0  0  0  0  0  0  0  0  0  0  0  0
   -3.8310   19.8130  -33.8330 N   0  0  0  0  0  0  0  0  0  0  0  0
   -2.6120   20.3330  -33.5840 C   0  0  0  0  0  0  0  0  0  0  0  0
   -2.6260   20.9820  -32.3700 C   0  0  0  0  0  0  0  0  0  0  0  0
   -3.8620   20.8790  -31.8510 N   0  0  0  0  0  0  0  0  0  0  0  0
   -4.2670   21.3290  -30.5150 C   0  0  0  0  0  0  0  0  0  0  0  0
   -4.7330   22.7610  -30.5510 C   0  0  0  0  0  0  0  0  0  0  0  0
   -6.0810   23.0860  -30.3370 C   0  0  0  0  0  0  0  0  0  0  0  0
   -6.4860   24.4210  -30.3460 C   0  0  0  0  0  0  0  0  0  0  0  0
   -5.5420   25.4220  -30.5800 C   0  0  0  0  0  0  0  0  0  0  0  0
   -4.2410   25.0930  -30.7960 N   0  0  0  0  0  0  0  0  0  0  0  0
   -3.8200   23.8000  -30.7900 C   0  0  0  0  0  0  0  0  0  0  0  0
   -7.0020   20.7060  -32.4680 C   0  0  0  0  0  0  0  0  0  0  0  0
   -9.1812   22.8732  -30.8990 H   0  0  0  0  0  0  0  0  0  0  0  0
   -8.2704   22.9201  -32.4465 H   0  0  0  0  0  0  0  0  0  0  0  0
  -10.0531   23.1407  -32.4465 H   0  0  0  0  0  0  0  0  0  0  0  0
   -9.6741   18.5996  -32.1105 H   0  0  0  0  0  0  0  0  0  0  0  0
   -7.8687   16.9078  -32.4091 H   0  0  0  0  0  0  0  0  0  0  0  0
   -5.5075   17.6395  -32.7358 H   0  0  0  0  0  0  0  0  0  0  0  0
   -1.7398   20.2511  -34.2492 H   0  0  0  0  0  0  0  0  0  0  0  0
   -1.7724   21.4965  -31.9045 H   0  0  0  0  0  0  0  0  0  0  0  0
   -5.0874   20.6918  -30.1532 H   0  0  0  0  0  0  0  0  0  0  0  0
   -3.4005   21.2572  -29.8412 H   0  0  0  0  0  0  0  0  0  0  0  0
   -6.8182   22.2885  -30.1622 H   0  0  0  0  0  0  0  0  0  0  0  0
   -7.5400   24.6823  -30.1702 H   0  0  0  0  0  0  0  0  0  0  0  0
   -5.8510   26.4777  -30.5896 H   0  0  0  0  0  0  0  0  0  0  0  0
   -2.7605   23.5675  -30.9730 H   0  0  0  0  0  0  0  0  0  0  0  0
   -6.7602   21.7784  -32.5078 H   0  0  0  0  0  0  0  0  0  0  0  0
  1  2  1  0
  2  3  1  0
  3  4  2  0
  4  5  1  0
  5  6  2  0
  6  7  1  0
  7  8  1  0
  8  9  2  0
  9 10  1  0
 10 11  2  0
 11 12  1  0
 12 13  1  0
 13 14  1  0
 14 15  2  0
 15 16  1  0
 16 17  2  0
 17 18  1  0
 18 19  2  0
  7 20  2  0
 20  3  1  0
 12  8  1  0
 19 14  1  0
  1 21  1  0
  1 22  1  0
  1 23  1  0
  4 24  1  0
  5 25  1  0
  6 26  1  0
 10 27  1  0
 11 28  1  0
 13 29  1  0
 13 30  1  0
 15 31  1  0
 16 32  1  0
 17 33  1  0
 19 34  1  0
 20 35  1  0
M  END
>  <UniqueID>  (15) 
15

>  <SMILES>  (15) 
COc1cccc(-c2nccn2Cc2cccnc2)c1

>  <Energy>  (15) 
69.58467218863323

>  <Genealogy>  (15) 
COc1cccc(-c2nccn2Cc2cccnc2)c1 (3D coordinates assigned)
COc1cccc(-c2nccn2Cc2cccnc2)c1 (optimized conformer: 69.58467218863323 kcal/mol)

>  <smiles>  (15) 
COc1cccc(-c2nccn2Cc2cccnc2)c1

>  <score_type>  (15) 
oracle

>  <origin>  (15) 
adg

>  <m_score__min__energy>  (15) 
-7.1399999999999997

>  <m_primary>  (15) 
energy

$$$$
15:0
     RDKit          3D

 50 52  0  0  0  0  0  0  0  0999 V2000
   -9.8450   21.6060  -30.4190 C   0  0  0  0  0  0  0  0  0  0  0  0
   -9.7290   20.7860  -31.5800 O   0  0  0  0  0  0  0  0  0  0  0  0
   -8.5110   20.3810  -32.1510 C   0  0  0  0  0  0  0  0  0  0  0  0
   -8.2230   19.0270  -32.4070 C   0  0  0  0  0  0  0  0  0  0  0  0
   -6.9950   18.6600  -32.9600 C   0  0  0  0  0  0  0  0  0  0  0  0
   -6.0390   19.6370  -33.2810 C   0  0  0  0  0  0  0  0  0  0  0  0
   -4.7000   19.2270  -33.8580 C   0  0  0  0  0  0  0  0  0  0  0  0
   -3.5900   19.4750  -32.9010 N   0  0  0  0  0  0  0  0  0  0  0  0
   -2.7140   20.5800  -33.3840 C   0  0  0  0  0  0  0  0  0  0  0  0
   -3.2300   21.9680  -32.9700 C   0  0  0  0  0  0  0  0  0  0  0  0
   -3.4540   22.0280  -31.5190 N   0  0  0  0  0  0  0  0  0  0  0  0
   -3.8970   23.2610  -30.9230 C   0  0  0  0  0  0  0  0  0  0  0  0
   -4.6320   24.0390  -31.5910 O   0  0  0  0  0  0  0  0  0  0  0  0
   -3.5220   23.6350  -29.5380 C   0  0  0  0  0  0  0  0  0  0  0  0
   -4.5220   23.8510  -28.5720 C   0  0  0  0  0  0  0  0  0  0  0  0
   -4.1740   24.2090  -27.2650 C   0  0  0  0  0  0  0  0  0  0  0  0
   -2.8300   24.3680  -26.9140 C   0  0  0  0  0  0  0  0  0  0  0  0
   -1.8310   24.1730  -27.8710 C   0  0  0  0  0  0  0  0  0  0  0  0
   -2.1730   23.8110  -29.1780 C   0  0  0  0  0  0  0  0  0  0  0  0
   -3.3800   20.7860  -30.7380 C   0  0  0  0  0  0  0  0  0  0  0  0
   -4.1070   19.6730  -31.5090 C   0  0  0  0  0  0  0  0  0  0  0  0
   -6.3290   20.9910  -33.0420 C   0  0  0  0  0  0  0  0  0  0  0  0
   -7.5610   21.3690  -32.4720 C   0  0  0  0  0  0  0  0  0  0  0  0
   -7.8790   22.7120  -32.2110 O   0  0  0  0  0  0  0  0  0  0  0  0
   -7.3510   23.4710  -31.1240 C   0  0  0  0  0  0  0  0  0  0  0  0
   -9.7566   20.9809  -29.5182 H   0  0  0  0  0  0  0  0  0  0  0  0
   -9.0447   22.3606  -30.4216 H   0  0  0  0  0  0  0  0  0  0  0  0
  -10.8232   22.1090  -30.4216 H   0  0  0  0  0  0  0  0  0  0  0  0
   -8.9693   18.2544  -32.1701 H   0  0  0  0  0  0  0  0  0  0  0  0
   -6.7748   17.5984  -33.1455 H   0  0  0  0  0  0  0  0  0  0  0  0
   -4.7294   18.1543  -34.0997 H   0  0  0  0  0  0  0  0  0  0  0  0
   -4.5163   19.8293  -34.7599 H   0  0  0  0  0  0  0  0  0  0  0  0
   -2.9870   18.6160  -32.8950 H   0  0  0  0  0  0  0  0  0  0  0  0
   -1.7065   20.4395  -32.9654 H   0  0  0  0  0  0  0  0  0  0  0  0
   -2.7056   20.5421  -34.4833 H   0  0  0  0  0  0  0  0  0  0  0  0
   -2.4869   22.7283  -33.2523 H   0  0  0  0  0  0  0  0  0  0  0  0
   -4.1844   22.1577  -33.4830 H   0  0  0  0  0  0  0  0  0  0  0  0
   -5.5815   23.7380  -28.8454 H   0  0  0  0  0  0  0  0  0  0  0  0
   -4.9599   24.3658  -26.5115 H   0  0  0  0  0  0  0  0  0  0  0  0
   -2.5593   24.6465  -25.8848 H   0  0  0  0  0  0  0  0  0  0  0  0
   -0.7740   24.3043  -27.5962 H   0  0  0  0  0  0  0  0  0  0  0  0
   -1.3829   23.6630  -29.9289 H   0  0  0  0  0  0  0  0  0  0  0  0
   -2.3270   20.5053  -30.5885 H   0  0  0  0  0  0  0  0  0  0  0  0
   -3.8545   20.9325  -29.7565 H   0  0  0  0  0  0  0  0  0  0  0  0
   -3.9867   18.7301  -30.9554 H   0  0  0  0  0  0  0  0  0  0  0  0
   -5.1614   19.9744  -31.5951 H   0  0  0  0  0  0  0  0  0  0  0  0
   -5.5885   21.7618  -33.3019 H   0  0  0  0  0  0  0  0  0  0  0  0
   -7.6665   23.0175  -30.1728 H   0  0  0  0  0  0  0  0  0  0  0  0
   -6.2525   23.4774  -31.1807 H   0  0  0  0  0  0  0  0  0  0  0  0
   -7.7271   24.5032  -31.1807 H   0  0  0  0  0  0  0  0  0  0  0  0
  1  2  1  0
  2  3  1  0
  3  4  2  0
  4  5  1  0
  5  6  2  0
  6  7  1  0
  7  8  1  0
  8  9  1  0
  9 10  1  0
 10 11  1  0
 11 12  1  0
 12 13  2  0
 12 14  1  0
 14 15  2  0
 15 16  1  0
 16 17  2  0
 17 18  1  0
 18 19  2  0
 11 20  1  0
 20 21  1  0
  6 22  1  0
 22 23  2  0
 23 24  1  0
 24 25  1  0
 23  3  1  0
 21  8  1  0
 19 14  1  0
  1 26  1  0
  1 27  1  0
  1 28  1  0
  4 29  1  0
  5 30  1  0
  7 31  1  0
  7 32  1  0
  8 33  1  0
  9 34  1  0
  9 35  1  0
 10 36  1  0
 10 37  1  0
 15 38  1  0
 16 39  1  0
 17 40  1  0
 18 41  1  0
 19 42  1  0
 20 43  1  0
 20 44  1  0
 21 45  1  0
 21 46  1  0
 22 47  1  0
 25 48  1  0
 25 49  1  0
 25 50  1  0
M  CHG  1   8   1
M  END
>  <UniqueID>  (16) 
16

>  <SMILES>  (16) 
COc1ccc(C[NH+]2CCN(C(=O)c3ccccc3)CC2)cc1OC

>  <Energy>  (16) 
63.41722213391745

>  <Genealogy>  (16) 
COc1ccc(C[NH+]2CCN(C(=O)c3ccccc3)CC2)cc1OC (protonated)
COc1ccc(C[NH+]2CCN(C(=O)c3ccccc3)CC2)cc1OC (3D coordinates assigned)
COc1ccc(C[NH+]2CCN(C(=O)c3ccccc3)CC2)cc1OC (nonaromatic ring conformer: 63.41722213391745 kcal/mol)

>  <smiles>  (16) 
COc1ccc(CN2CCN(C(=O)c3ccccc3)CC2)cc1OC

>  <score_type>  (16) 
oracle

>  <origin>  (16) 
adg

>  <m_score__min__energy>  (16) 
-6.8499999999999996

>  <m_primary>  (16) 
energy

$$$$
16:0
     RDKit          3D

 50 53  0  0  0  0  0  0  0  0999 V2000
   -6.1280   15.1130  -34.1280 C   0  0  0  0  0  0  0  0  0  0  0  0
   -5.8720   16.5730  -33.9010 C   0  0  0  0  0  0  0  0  0  0  0  0
   -4.6220   17.1370  -34.2570 C   0  0  0  0  0  0  0  0  0  0  0  0
   -4.3760   18.5110  -34.0820 C   0  0  0  0  0  0  0  0  0  0  0  0
   -5.4020   19.3050  -33.5650 C   0  0  0  0  0  0  0  0  0  0  0  0
   -6.6250   18.7550  -33.2320 C   0  0  0  0  0  0  0  0  0  0  0  0
   -6.8960   17.3980  -33.3900 C   0  0  0  0  0  0  0  0  0  0  0  0
   -7.3910   19.7850  -32.7370 C   0  0  0  0  0  0  0  0  0  0  0  0
   -8.6850   19.8020  -32.2190 C   0  0  0  0  0  0  0  0  0  0  0  0
   -9.1830   21.0270  -31.7430 C   0  0  0  0  0  0  0  0  0  0  0  0
   -8.3860   22.1920  -31.7920 C   0  0  0  0  0  0  0  0  0  0  0  0
   -7.0830   22.1460  -32.3200 C   0  0  0  0  0  0  0  0  0  0  0  0
   -6.6040   20.9180  -32.7920 C   0  0  0  0  0  0  0  0  0  0  0  0
   -5.3780   20.6370  -33.3060 N   0  0  0  0  0  0  0  0  0  0  0  0
   -4.2300   21.5420  -33.4400 C   0  0  0  0  0  0  0  0  0  0  0  0
   -3.0820   21.1300  -32.5060 C   0  0  0  0  0  0  0  0  0  0  0  0
   -3.0610   21.9660  -31.2210 C   0  0  0  0  0  0  0  0  0  0  0  0
   -4.2440   21.6170  -30.3030 C   0  0  0  0  0  0  0  0  0  0  0  0
   -4.6720   22.7420  -29.4420 N   0  0  0  0  0  0  0  0  0  0  0  0
   -3.6030   23.3270  -28.6040 C   0  0  0  0  0  0  0  0  0  0  0  0
   -2.8930   24.5300  -29.2740 C   0  0  0  0  0  0  0  0  0  0  0  0
   -3.5190   24.9640  -30.4650 O   0  0  0  0  0  0  0  0  0  0  0  0
   -4.9030   25.1080  -30.2450 C   0  0  0  0  0  0  0  0  0  0  0  0
   -5.5590   23.7290  -30.1010 C   0  0  0  0  0  0  0  0  0  0  0  0
   -6.2177   14.6014  -33.1584 H   0  0  0  0  0  0  0  0  0  0  0  0
   -7.0617   14.9884  -34.6961 H   0  0  0  0  0  0  0  0  0  0  0  0
   -5.2924   14.6782  -34.6961 H   0  0  0  0  0  0  0  0  0  0  0  0
   -3.8345   16.4928  -34.6752 H   0  0  0  0  0  0  0  0  0  0  0  0
   -3.4016   18.9483  -34.3453 H   0  0  0  0  0  0  0  0  0  0  0  0
   -7.8790   16.9820  -33.1243 H   0  0  0  0  0  0  0  0  0  0  0  0
   -9.2956   18.8877  -32.1840 H   0  0  0  0  0  0  0  0  0  0  0  0
  -10.2009   21.0788  -31.3293 H   0  0  0  0  0  0  0  0  0  0  0  0
   -8.7877   23.1437  -31.4139 H   0  0  0  0  0  0  0  0  0  0  0  0
   -6.4576   23.0500  -32.3609 H   0  0  0  0  0  0  0  0  0  0  0  0
   -3.8727   21.5158  -34.4800 H   0  0  0  0  0  0  0  0  0  0  0  0
   -4.5540   22.5566  -33.1650 H   0  0  0  0  0  0  0  0  0  0  0  0
   -3.2044   20.0701  -32.2385 H   0  0  0  0  0  0  0  0  0  0  0  0
   -2.1337   21.2985  -33.0373 H   0  0  0  0  0  0  0  0  0  0  0  0
   -2.1215   21.7713  -30.6831 H   0  0  0  0  0  0  0  0  0  0  0  0
   -3.1404   23.0275  -31.4982 H   0  0  0  0  0  0  0  0  0  0  0  0
   -5.0952   21.3151  -30.9309 H   0  0  0  0  0  0  0  0  0  0  0  0
   -3.9104   20.8074  -29.6372 H   0  0  0  0  0  0  0  0  0  0  0  0
   -4.0474   23.6664  -27.6567 H   0  0  0  0  0  0  0  0  0  0  0  0
   -2.8451   22.5453  -28.4476 H   0  0  0  0  0  0  0  0  0  0  0  0
   -2.8816   25.3681  -28.5616 H   0  0  0  0  0  0  0  0  0  0  0  0
   -1.8799   24.1975  -29.5443 H   0  0  0  0  0  0  0  0  0  0  0  0
   -5.0669   25.6870  -29.3242 H   0  0  0  0  0  0  0  0  0  0  0  0
   -5.3515   25.6329  -31.1014 H   0  0  0  0  0  0  0  0  0  0  0  0
   -6.4748   23.8355  -29.5010 H   0  0  0  0  0  0  0  0  0  0  0  0
   -5.7778   23.3569  -31.1128 H   0  0  0  0  0  0  0  0  0  0  0  0
  1  2  1  0
  2  3  2  0
  3  4  1  0
  4  5  2  0
  5  6  1  0
  6  7  2  0
  6  8  1  0
  8  9  2  0
  9 10  1  0
 10 11  2  0
 11 12  1  0
 12 13  2  0
 13 14  1  0
 14 15  1  0
 15 16  1  0
 16 17  1  0
 17 18  1  0
 18 19  1  0
 19 20  1  0
 20 21  1  0
 21 22  1  0
 22 23  1  0
 23 24  1  0
  7  2  1  0
 13  8  1  0
 24 19  1  0
 14  5  1  0
  1 25  1  0
  1 26  1  0
  1 27  1  0
  3 28  1  0
  4 29  1  0
  7 30  1  0
  9 31  1  0
 10 32  1  0
 11 33  1  0
 12 34  1  0
 15 35  1  0
 15 36  1  0
 16 37  1  0
 16 38  1  0
 17 39  1  0
 17 40  1  0
 18 41  1  0
 18 42  1  0
 20 43  1  0
 20 44  1  0
 21 45  1  0
 21 46  1  0
 23 47  1  0
 23 48  1  0
 24 49  1  0
 24 50  1  0
M  END
>  <UniqueID>  (17) 
17

>  <SMILES>  (17) 
Cc1ccc2c(c1)c1ccccc1n2CCCCN1CCOCC1

>  <Energy>  (17) 
101.16498397409526

>  <Genealogy>  (17) 
Cc1ccc2c(c1)c1ccccc1n2CCCCN1CCOCC1 (3D coordinates assigned)
Cc1ccc2c(c1)c1ccccc1n2CCCCN1CCOCC1 (nonaromatic ring conformer: 101.16498397409526 kcal/mol)

>  <smiles>  (17) 
Cc1ccc2c(c1)c1ccccc1n2CCCCN1CCOCC1

>  <score_type>  (17) 
oracle

>  <origin>  (17) 
adg

>  <m_score__min__energy>  (17) 
-9.3300000000000001

>  <m_primary>  (17) 
energy

$$$$
17:0
     RDKit          3D

 43 45  0  0  0  0  0  0  0  0999 V2000
   -9.0430   22.7310  -32.1560 O   0  0  0  0  0  0  0  0  0  0  0  0
   -7.9460   22.1420  -31.9580 C   0  0  0  0  0  0  0  0  0  0  0  0
   -7.8600   20.6830  -32.2100 C   0  0  0  0  0  0  0  0  0  0  0  0
   -8.7160   19.8010  -31.5260 C   0  0  0  0  0  0  0  0  0  0  0  0
   -8.6330   18.4220  -31.7450 C   0  0  0  0  0  0  0  0  0  0  0  0
   -7.6880   17.9100  -32.6380 C   0  0  0  0  0  0  0  0  0  0  0  0
   -6.8220   18.7750  -33.3100 C   0  0  0  0  0  0  0  0  0  0  0  0
   -6.9020   20.1550  -33.0960 C   0  0  0  0  0  0  0  0  0  0  0  0
   -6.7850   22.9340  -31.4810 C   0  0  0  0  0  0  0  0  0  0  0  0
   -5.4690   22.5040  -31.7210 C   0  0  0  0  0  0  0  0  0  0  0  0
   -4.3830   23.2640  -31.2760 C   0  0  0  0  0  0  0  0  0  0  0  0
   -4.5970   24.4610  -30.5750 C   0  0  0  0  0  0  0  0  0  0  0  0
   -3.5030   25.2710  -30.1280 N   0  0  0  0  0  0  0  0  0  0  0  0
   -2.3850   24.8300  -29.3450 C   0  0  0  0  0  0  0  0  0  0  0  0
   -1.5590   25.6890  -28.9360 O   0  0  0  0  0  0  0  0  0  0  0  0
   -2.2460   23.3930  -28.8870 C   0  0  0  0  0  0  0  0  0  0  0  0
   -0.8840   23.1510  -28.1830 C   0  0  0  0  0  0  0  0  0  0  0  0
   -0.9190   21.9960  -27.1610 C   0  0  0  0  0  0  0  0  0  0  0  0
   -1.9550   20.9340  -27.5380 C   0  0  0  0  0  0  0  0  0  0  0  0
   -3.3810   21.5190  -27.5830 C   0  0  0  0  0  0  0  0  0  0  0  0
   -3.4200   23.0140  -27.9680 C   0  0  0  0  0  0  0  0  0  0  0  0
   -5.9050   24.9170  -30.3800 C   0  0  0  0  0  0  0  0  0  0  0  0
   -6.9920   24.1580  -30.8240 C   0  0  0  0  0  0  0  0  0  0  0  0
   -9.4551   20.1981  -30.8146 H   0  0  0  0  0  0  0  0  0  0  0  0
   -9.3126   17.7396  -31.2135 H   0  0  0  0  0  0  0  0  0  0  0  0
   -7.6263   16.8255  -32.8116 H   0  0  0  0  0  0  0  0  0  0  0  0
   -6.0753   18.3704  -34.0091 H   0  0  0  0  0  0  0  0  0  0  0  0
   -6.2127   20.8312  -33.6228 H   0  0  0  0  0  0  0  0  0  0  0  0
   -5.2919   21.5631  -32.2626 H   0  0  0  0  0  0  0  0  0  0  0  0
   -3.3567   22.9224  -31.4761 H   0  0  0  0  0  0  0  0  0  0  0  0
   -2.2728   22.7446  -29.7752 H   0  0  0  0  0  0  0  0  0  0  0  0
   -0.1320   22.9149  -28.9503 H   0  0  0  0  0  0  0  0  0  0  0  0
   -0.6380   24.0683  -27.6279 H   0  0  0  0  0  0  0  0  0  0  0  0
    0.0746   21.5257  -27.1211 H   0  0  0  0  0  0  0  0  0  0  0  0
   -1.1984   22.4138  -26.1826 H   0  0  0  0  0  0  0  0  0  0  0  0
   -1.7048   20.5280  -28.5292 H   0  0  0  0  0  0  0  0  0  0  0  0
   -1.9320   20.1452  -26.7716 H   0  0  0  0  0  0  0  0  0  0  0  0
   -3.9665   20.9533  -28.3227 H   0  0  0  0  0  0  0  0  0  0  0  0
   -3.7983   21.4344  -26.5687 H   0  0  0  0  0  0  0  0  0  0  0  0
   -4.3648   23.2234  -28.4910 H   0  0  0  0  0  0  0  0  0  0  0  0
   -3.3411   23.6088  -27.0461 H   0  0  0  0  0  0  0  0  0  0  0  0
   -6.0793   25.8783  -29.8744 H   0  0  0  0  0  0  0  0  0  0  0  0
   -8.0166   24.5220  -30.6576 H   0  0  0  0  0  0  0  0  0  0  0  0
  1  2  2  0
  2  3  1  0
  3  4  2  0
  4  5  1  0
  5  6  2  0
  6  7  1  0
  7  8  2  0
  2  9  1  0
  9 10  2  0
 10 11  1  0
 11 12  2  0
 12 13  1  0
 13 14  1  0
 14 15  2  0
 14 16  1  0
 16 17  1  0
 17 18  1  0
 18 19  1  0
 19 20  1  0
 20 21  1  0
 12 22  1  0
 22 23  2  0
  8  3  1  0
 23  9  1  0
 21 16  1  0
  4 24  1  0
  5 25  1  0
  6 26  1  0
  7 27  1  0
  8 28  1  0
 10 29  1  0
 11 30  1  0
 16 31  1  0
 17 32  1  0
 17 33  1  0
 18 34  1  0
 18 35  1  0
 19 36  1  0
 19 37  1  0
 20 38  1  0
 20 39  1  0
 21 40  1  0
 21 41  1  0
 22 42  1  0
 23 43  1  0
M  CHG  1  13  -1
M  END
>  <UniqueID>  (18) 
18

>  <SMILES>  (18) 
O=C(c1ccccc1)c1ccc([N-]C(=O)C2CCCCC2)cc1

>  <Energy>  (18) 
57.20732128520941

>  <Genealogy>  (18) 
O=C(c1ccccc1)c1ccc([N-]C(=O)C2CCCCC2)cc1 (protonated)
O=C(c1ccccc1)c1ccc([N-]C(=O)C2CCCCC2)cc1 (3D coordinates assigned)
O=C(c1ccccc1)c1ccc([N-]C(=O)C2CCCCC2)cc1 (nonaromatic ring conformer: 57.20732128520941 kcal/mol)

>  <smiles>  (18) 
O=C(c1ccccc1)c1ccc(NC(=O)C2CCCCC2)cc1

>  <score_type>  (18) 
oracle

>  <origin>  (18) 
adg

>  <m_score__min__energy>  (18) 
-11.359999999999999

>  <m_primary>  (18) 
energy

$$$$
18:0
     RDKit          3D

 32 34  0  0  0  0  0  0  0  0999 V2000
   -0.9500   22.9510  -30.1510 N   0  0  0  0  0  0  0  0  0  0  0  0
   -0.7010   22.7500  -28.7570 C   0  0  0  0  0  0  0  0  0  0  0  0
   -0.1660   21.6710  -28.3860 O   0  0  0  0  0  0  0  0  0  0  0  0
   -1.0590   23.7800  -27.7510 C   0  0  0  0  0  0  0  0  0  0  0  0
   -0.6920   23.7100  -26.3930 C   0  0  0  0  0  0  0  0  0  0  0  0
   -1.1380   24.7830  -25.6320 C   0  0  0  0  0  0  0  0  0  0  0  0
   -1.9900   25.8310  -26.6310 S   0  0  0  0  0  0  0  0  0  0  0  0
   -1.8050   24.9250  -28.0380 C   0  0  0  0  0  0  0  0  0  0  0  0
   -2.2910   25.2760  -29.3410 N   0  0  0  0  0  0  0  0  0  0  0  0
   -3.5180   24.8400  -29.9400 C   0  0  0  0  0  0  0  0  0  0  0  0
   -4.0840   25.5240  -30.8350 O   0  0  0  0  0  0  0  0  0  0  0  0
   -4.1080   23.5310  -29.5250 C   0  0  0  0  0  0  0  0  0  0  0  0
   -4.6040   22.8160  -30.7020 N   0  0  0  0  0  0  0  0  0  0  0  0
   -3.8810   22.2860  -31.7210 C   0  0  0  0  0  0  0  0  0  0  0  0
   -2.6320   22.4080  -31.8260 O   0  0  0  0  0  0  0  0  0  0  0  0
   -4.6220   21.6170  -32.5880 O   0  0  0  0  0  0  0  0  0  0  0  0
   -5.8510   21.6930  -32.1340 C   0  0  0  0  0  0  0  0  0  0  0  0
   -7.0100   21.1420  -32.6710 C   0  0  0  0  0  0  0  0  0  0  0  0
   -8.2150   21.3500  -31.9730 C   0  0  0  0  0  0  0  0  0  0  0  0
   -8.2280   22.0950  -30.7710 C   0  0  0  0  0  0  0  0  0  0  0  0
   -7.0380   22.6430  -30.2580 C   0  0  0  0  0  0  0  0  0  0  0  0
   -5.8610   22.4200  -30.9750 C   0  0  0  0  0  0  0  0  0  0  0  0
   -1.4780   23.7770  -30.5050 H   0  0  0  0  0  0  0  0  0  0  0  0
   -0.6530   22.2260  -30.8410 H   0  0  0  0  0  0  0  0  0  0  0  0
   -0.1049   22.8801  -25.9728 H   0  0  0  0  0  0  0  0  0  0  0  0
   -0.9626   24.9231  -24.5551 H   0  0  0  0  0  0  0  0  0  0  0  0
   -3.3373   22.9244  -29.0270 H   0  0  0  0  0  0  0  0  0  0  0  0
   -4.9423   23.7120  -28.8313 H   0  0  0  0  0  0  0  0  0  0  0  0
   -6.9859   20.5647  -33.6070 H   0  0  0  0  0  0  0  0  0  0  0  0
   -9.1529   20.9301  -32.3654 H   0  0  0  0  0  0  0  0  0  0  0  0
   -9.1754   22.2472  -30.2332 H   0  0  0  0  0  0  0  0  0  0  0  0
   -7.0351   23.2263  -29.3254 H   0  0  0  0  0  0  0  0  0  0  0  0
  1  2  1  0
  2  3  2  0
  2  4  1  0
  4  5  1  0
  5  6  2  0
  6  7  1  0
  7  8  1  0
  8  9  1  0
  9 10  1  0
 10 11  2  0
 10 12  1  0
 12 13  1  0
 13 14  1  0
 14 15  2  0
 14 16  1  0
 16 17  1  0
 17 18  2  0
 18 19  1  0
 19 20  2  0
 20 21  1  0
 21 22  2  0
  8  4  2  0
 22 13  1  0
 22 17  1  0
  1 23  1  0
  1 24  1  0
  5 25  1  0
  6 26  1  0
 12 27  1  0
 12 28  1  0
 18 29  1  0
 19 30  1  0
 20 31  1  0
 21 32  1  0
M  CHG  1   9  -1
M  END
>  <UniqueID>  (19) 
19

>  <SMILES>  (19) 
NC(=O)c1ccsc1[N-]C(=O)Cn1c(=O)oc2ccccc21

>  <Energy>  (19) 
101.36205475874138

>  <Genealogy>  (19) 
NC(=O)c1ccsc1[N-]C(=O)Cn1c(=O)oc2ccccc21 (protonated)
NC(=O)c1ccsc1[N-]C(=O)Cn1c(=O)oc2ccccc21 (3D coordinates assigned)
NC(=O)c1ccsc1[N-]C(=O)Cn1c(=O)oc2ccccc21 (optimized conformer: 101.36205475874138 kcal/mol)

>  <smiles>  (19) 
NC(=O)c1ccsc1NC(=O)Cn1c(=O)oc2ccccc21

>  <score_type>  (19) 
oracle

>  <origin>  (19) 
adg

>  <m_score__min__energy>  (19) 
-9.3900000000000006

>  <m_primary>  (19) 
energy

$$$$
19:0
     RDKit          3D

 51 53  0  0  0  0  0  0  0  0999 V2000
   -4.4710   13.1910  -30.8800 C   0  0  0  0  0  0  0  0  0  0  0  0
   -4.8800   13.1700  -32.3510 C   0  0  0  0  0  0  0  0  0  0  0  0
   -4.3980   14.3770  -33.0450 N   0  0  0  0  0  0  0  0  0  0  0  0
   -3.0200   14.4080  -33.5580 C   0  0  0  0  0  0  0  0  0  0  0  0
   -2.6400   15.8190  -33.9990 C   0  0  0  0  0  0  0  0  0  0  0  0
   -5.2530   15.5390  -33.1580 C   0  0  0  0  0  0  0  0  0  0  0  0
   -6.0280   15.8230  -34.2340 N   0  0  0  0  0  0  0  0  0  0  0  0
   -6.7170   16.9560  -34.1210 N   0  0  0  0  0  0  0  0  0  0  0  0
   -6.5080   17.6060  -32.9520 C   0  0  0  0  0  0  0  0  0  0  0  0
   -7.1620   18.8860  -32.5960 C   0  0  0  0  0  0  0  0  0  0  0  0
   -8.5470   18.9520  -32.3870 C   0  0  0  0  0  0  0  0  0  0  0  0
   -9.1570   20.1660  -32.0690 C   0  0  0  0  0  0  0  0  0  0  0  0
   -8.4000   21.3420  -31.9480 C   0  0  0  0  0  0  0  0  0  0  0  0
   -9.1110   22.6290  -31.6260 C   0  0  0  0  0  0  0  0  0  0  0  0
   -6.9940   21.2780  -32.1100 C   0  0  0  0  0  0  0  0  0  0  0  0
   -5.9520   22.7060  -31.9450 S   0  0  0  0  0  0  0  0  0  0  0  0
   -4.5960   22.3480  -32.4850 O   0  0  0  0  0  0  0  0  0  0  0  0
   -6.5090   23.8570  -32.7340 O   0  0  0  0  0  0  0  0  0  0  0  0
   -5.8140   23.1660  -30.2580 N   0  0  0  0  0  0  0  0  0  0  0  0
   -6.3520   24.5180  -30.0130 C   0  0  0  0  0  0  0  0  0  0  0  0
   -5.3820   25.6400  -30.4580 C   0  0  0  0  0  0  0  0  0  0  0  0
   -4.0700   25.1760  -30.7200 O   0  0  0  0  0  0  0  0  0  0  0  0
   -3.6510   24.3170  -29.6850 C   0  0  0  0  0  0  0  0  0  0  0  0
   -4.4400   22.9980  -29.7350 C   0  0  0  0  0  0  0  0  0  0  0  0
   -6.3980   20.0560  -32.4620 C   0  0  0  0  0  0  0  0  0  0  0  0
   -5.4110   16.7520  -31.9920 S   0  0  0  0  0  0  0  0  0  0  0  0
   -5.3706   13.1448  -30.2486 H   0  0  0  0  0  0  0  0  0  0  0  0
   -3.8278   12.3247  -30.6658 H   0  0  0  0  0  0  0  0  0  0  0  0
   -3.9200   14.1186  -30.6658 H   0  0  0  0  0  0  0  0  0  0  0  0
   -4.4483   12.2803  -32.8327 H   0  0  0  0  0  0  0  0  0  0  0  0
   -5.9780   13.1431  -32.4115 H   0  0  0  0  0  0  0  0  0  0  0  0
   -2.3320   14.0800  -32.7649 H   0  0  0  0  0  0  0  0  0  0  0  0
   -2.9505   13.7356  -34.4257 H   0  0  0  0  0  0  0  0  0  0  0  0
   -2.4708   16.4473  -33.1121 H   0  0  0  0  0  0  0  0  0  0  0  0
   -1.7204   15.7797  -34.6014 H   0  0  0  0  0  0  0  0  0  0  0  0
   -3.4549   16.2468  -34.6014 H   0  0  0  0  0  0  0  0  0  0  0  0
   -6.0990   15.2310  -35.0880 H   0  0  0  0  0  0  0  0  0  0  0  0
   -9.1567   18.0406  -32.4743 H   0  0  0  0  0  0  0  0  0  0  0  0
  -10.2450   20.2020  -31.9111 H   0  0  0  0  0  0  0  0  0  0  0  0
   -9.1769   22.7483  -30.5345 H   0  0  0  0  0  0  0  0  0  0  0  0
   -8.5517   23.4739  -32.0541 H   0  0  0  0  0  0  0  0  0  0  0  0
  -10.1240   22.6053  -32.0541 H   0  0  0  0  0  0  0  0  0  0  0  0
   -7.2946   24.6273  -30.5694 H   0  0  0  0  0  0  0  0  0  0  0  0
   -6.5036   24.6224  -28.9285 H   0  0  0  0  0  0  0  0  0  0  0  0
   -5.7787   26.1010  -31.3746 H   0  0  0  0  0  0  0  0  0  0  0  0
   -5.3133   26.3588  -29.6282 H   0  0  0  0  0  0  0  0  0  0  0  0
   -2.5784   24.1031  -29.8026 H   0  0  0  0  0  0  0  0  0  0  0  0
   -3.8332   24.8069  -28.7171 H   0  0  0  0  0  0  0  0  0  0  0  0
   -3.9016   22.2918  -30.3842 H   0  0  0  0  0  0  0  0  0  0  0  0
   -4.5237   22.6252  -28.7035 H   0  0  0  0  0  0  0  0  0  0  0  0
   -5.3126   20.0149  -32.6359 H   0  0  0  0  0  0  0  0  0  0  0  0
  1  2  1  0
  2  3  1  0
  3  4  1  0
  4  5  1  0
  3  6  1  0
  6  7  2  0
  7  8  1  0
  8  9  2  0
  9 10  1  0
 10 11  2  0
 11 12  1  0
 12 13  2  0
 13 14  1  0
 13 15  1  0
 15 16  1  0
 16 17  2  0
 16 18  2  0
 16 19  1  0
 19 20  1  0
 20 21  1  0
 21 22  1  0
 22 23  1  0
 23 24  1  0
 15 25  2  0
  9 26  1  0
 26  6  1  0
 25 10  1  0
 24 19  1  0
  1 27  1  0
  1 28  1  0
  1 29  1  0
  2 30  1  0
  2 31  1  0
  4 32  1  0
  4 33  1  0
  5 34  1  0
  5 35  1  0
  5 36  1  0
  7 37  1  0
 11 38  1  0
 12 39  1  0
 14 40  1  0
 14 41  1  0
 14 42  1  0
 20 43  1  0
 20 44  1  0
 21 45  1  0
 21 46  1  0
 23 47  1  0
 23 48  1  0
 24 49  1  0
 24 50  1  0
 25 51  1  0
M  CHG  1   7   1
M  END
>  <UniqueID>  (20) 
20

>  <SMILES>  (20) 
CCN(CC)c1[nH+]nc(-c2ccc(C)c(S(=O)(=O)N3CCOCC3)c2)s1

>  <Energy>  (20) 
93.66053130077604

>  <Genealogy>  (20) 
CCN(CC)c1[nH+]nc(-c2ccc(C)c(S(=O)(=O)N3CCOCC3)c2)s1 (protonated)
CCN(CC)c1[nH+]nc(-c2ccc(C)c(S(=O)(=O)N3CCOCC3)c2)s1 (3D coordinates assigned)
CCN(CC)c1[nH+]nc(-c2ccc(C)c(S(=O)(=O)N3CCOCC3)c2)s1 (nonaromatic ring conformer: 93.66053130077604 kcal/mol)

>  <smiles>  (20) 
CCN(CC)c1nnc(-c2ccc(C)c(S(=O)(=O)N3CCOCC3)c2)s1

>  <score_type>  (20) 
oracle

>  <origin>  (20) 
adg

>  <m_score__min__energy>  (20) 
-9.8300000000000001

>  <m_primary>  (20) 
energy

$$$$
20:0
     RDKit          3D

 57 60  0  0  0  0  0  0  0  0999 V2000
   -6.4540   21.0710  -32.6950 C   0  0  0  0  0  0  0  0  0  0  0  0
   -5.2630   20.2960  -32.6460 O   0  0  0  0  0  0  0  0  0  0  0  0
   -4.9450   19.2620  -33.5410 C   0  0  0  0  0  0  0  0  0  0  0  0
   -5.9200   18.6840  -34.3820 C   0  0  0  0  0  0  0  0  0  0  0  0
   -5.5680   17.6810  -35.2890 C   0  0  0  0  0  0  0  0  0  0  0  0
   -4.2460   17.2410  -35.3650 C   0  0  0  0  0  0  0  0  0  0  0  0
   -3.2710   17.8000  -34.5320 C   0  0  0  0  0  0  0  0  0  0  0  0
   -3.6100   18.8070  -33.6100 C   0  0  0  0  0  0  0  0  0  0  0  0
   -2.5880   19.3710  -32.7600 N   0  0  0  0  0  0  0  0  0  0  0  0
   -1.6260   18.5030  -32.0700 C   0  0  0  0  0  0  0  0  0  0  0  0
   -0.3060   19.2520  -31.8340 C   0  0  0  0  0  0  0  0  0  0  0  0
   -0.4890   20.5350  -31.1030 N   0  0  0  0  0  0  0  0  0  0  0  0
   -0.2350   20.3480  -29.6860 C   0  0  0  0  0  0  0  0  0  0  0  0
   -0.1210   19.1780  -29.2160 O   0  0  0  0  0  0  0  0  0  0  0  0
   -0.0890   21.5000  -28.7650 C   0  0  0  0  0  0  0  0  0  0  0  0
    0.9350   21.5400  -27.8080 C   0  0  0  0  0  0  0  0  0  0  0  0
    1.0530   22.6360  -26.9490 C   0  0  0  0  0  0  0  0  0  0  0  0
    0.1550   23.7030  -27.0400 C   0  0  0  0  0  0  0  0  0  0  0  0
   -0.8740   23.6730  -27.9890 C   0  0  0  0  0  0  0  0  0  0  0  0
   -1.9810   25.0280  -28.1680 S   0  0  0  0  0  0  0  0  0  0  0  0
   -3.0180   24.9640  -27.0840 O   0  0  0  0  0  0  0  0  0  0  0  0
   -1.2570   26.3410  -28.0620 O   0  0  0  0  0  0  0  0  0  0  0  0
   -2.7610   24.9200  -29.7120 N   0  0  0  0  0  0  0  0  0  0  0  0
   -4.1080   24.4770  -29.9270 C   0  0  0  0  0  0  0  0  0  0  0  0
   -5.1060   25.3280  -30.4460 C   0  0  0  0  0  0  0  0  0  0  0  0
   -6.4190   24.8640  -30.6080 C   0  0  0  0  0  0  0  0  0  0  0  0
   -6.7390   23.5440  -30.2750 C   0  0  0  0  0  0  0  0  0  0  0  0
   -5.7480   22.6890  -29.7830 C   0  0  0  0  0  0  0  0  0  0  0  0
   -4.4370   23.1530  -29.6080 C   0  0  0  0  0  0  0  0  0  0  0  0
   -0.9990   22.5680  -28.8370 C   0  0  0  0  0  0  0  0  0  0  0  0
   -1.8150   21.1830  -31.3060 C   0  0  0  0  0  0  0  0  0  0  0  0
   -2.4380   20.8270  -32.6590 C   0  0  0  0  0  0  0  0  0  0  0  0
   -6.7911   21.2904  -31.6712 H   0  0  0  0  0  0  0  0  0  0  0  0
   -6.2563   22.0139  -33.2259 H   0  0  0  0  0  0  0  0  0  0  0  0
   -7.2360   20.5083  -33.2259 H   0  0  0  0  0  0  0  0  0  0  0  0
   -6.9640   19.0254  -34.3231 H   0  0  0  0  0  0  0  0  0  0  0  0
   -6.3333   17.2381  -35.9433 H   0  0  0  0  0  0  0  0  0  0  0  0
   -3.9700   16.4531  -36.0813 H   0  0  0  0  0  0  0  0  0  0  0  0
   -2.2306   17.4492  -34.5985 H   0  0  0  0  0  0  0  0  0  0  0  0
   -2.0459   18.1938  -31.1015 H   0  0  0  0  0  0  0  0  0  0  0  0
   -1.4292   17.6193  -32.6948 H   0  0  0  0  0  0  0  0  0  0  0  0
    0.3635   18.6062  -31.2468 H   0  0  0  0  0  0  0  0  0  0  0  0
    0.1171   19.4925  -32.8205 H   0  0  0  0  0  0  0  0  0  0  0  0
    0.2190   21.2060  -31.4810 H   0  0  0  0  0  0  0  0  0  0  0  0
    1.6480   20.7057  -27.7331 H   0  0  0  0  0  0  0  0  0  0  0  0
    1.8563   22.6590  -26.1979 H   0  0  0  0  0  0  0  0  0  0  0  0
    0.2566   24.5664  -26.3660 H   0  0  0  0  0  0  0  0  0  0  0  0
   -4.8527   26.3614  -30.7252 H   0  0  0  0  0  0  0  0  0  0  0  0
   -7.1969   25.5377  -30.9967 H   0  0  0  0  0  0  0  0  0  0  0  0
   -7.7690   23.1788  -30.4000 H   0  0  0  0  0  0  0  0  0  0  0  0
   -5.9984   21.6476  -29.5322 H   0  0  0  0  0  0  0  0  0  0  0  0
   -3.6633   22.4749  -29.2186 H   0  0  0  0  0  0  0  0  0  0  0  0
   -1.8194   22.5346  -29.5690 H   0  0  0  0  0  0  0  0  0  0  0  0
   -2.4950   20.8539  -30.5065 H   0  0  0  0  0  0  0  0  0  0  0  0
   -1.6629   22.2722  -31.2831 H   0  0  0  0  0  0  0  0  0  0  0  0
   -3.4253   21.3042  -32.7451 H   0  0  0  0  0  0  0  0  0  0  0  0
   -1.7858   21.1856  -33.4689 H   0  0  0  0  0  0  0  0  0  0  0  0
  1  2  1  0
  2  3  1  0
  3  4  2  0
  4  5  1  0
  5  6  2  0
  6  7  1  0
  7  8  2  0
  8  9  1  0
  9 10  1  0
 10 11  1  0
 11 12  1  0
 12 13  1  0
 13 14  2  0
 13 15  1  0
 15 16  2  0
 16 17  1  0
 17 18  2  0
 18 19  1  0
 19 20  1  0
 20 21  2  0
 20 22  2  0
 20 23  1  0
 23 24  1  0
 24 25  2  0
 25 26  1  0
 26 27  2  0
 27 28  1  0
 28 29  2  0
 19 30  2  0
 12 31  1  0
 31 32  1  0
  8  3  1  0
 32  9  1  0
 30 15  1  0
 29 24  1  0
  1 33  1  0
  1 34  1  0
  1 35  1  0
  4 36  1  0
  5 37  1  0
  6 38  1  0
  7 39  1  0
 10 40  1  0
 10 41  1  0
 11 42  1  0
 11 43  1  0
 12 44  1  0
 16 45  1  0
 17 46  1  0
 18 47  1  0
 25 48  1  0
 26 49  1  0
 27 50  1  0
 28 51  1  0
 29 52  1  0
 30 53  1  0
 31 54  1  0
 31 55  1  0
 32 56  1  0
 32 57  1  0
M  CHG  2  12   1  23  -1
M  END
>  <UniqueID>  (21) 
21

>  <SMILES>  (21) 
COc1ccccc1N1CC[NH+](C(=O)c2cccc(S(=O)(=O)[N-]c3ccccc3)c2)CC1

>  <Energy>  (21) 
80.55296050941644

>  <Genealogy>  (21) 
COc1ccccc1N1CC[NH+](C(=O)c2cccc(S(=O)(=O)[N-]c3ccccc3)c2)CC1 (protonated)
COc1ccccc1N1CC[NH+](C(=O)c2cccc(S(=O)(=O)[N-]c3ccccc3)c2)CC1 (3D coordinates assigned)
COc1ccccc1N1CC[NH+](C(=O)c2cccc(S(=O)(=O)[N-]c3ccccc3)c2)CC1 (nonaromatic ring conformer: 80.55296050941644 kcal/mol)

>  <smiles>  (21) 
COc1ccccc1N1CCN(C(=O)c2cccc(S(=O)(=O)Nc3ccccc3)c2)CC1

>  <score_type>  (21) 
oracle

>  <origin>  (21) 
adg

>  <m_score__min__energy>  (21) 
-10.9

>  <m_primary>  (21) 
energy

$$$$
21:0
     RDKit          3D

 43 45  0  0  0  0  0  0  0  0999 V2000
   -2.3690   19.3740  -26.3660 C   0  0  0  0  0  0  0  0  0  0  0  0
   -1.8440   20.3140  -27.4510 C   0  0  0  0  0  0  0  0  0  0  0  0
   -1.3180   21.6360  -26.8760 C   0  0  0  0  0  0  0  0  0  0  0  0
   -1.6630   22.8050  -27.7540 C   0  0  0  0  0  0  0  0  0  0  0  0
   -0.9690   24.0150  -27.6430 C   0  0  0  0  0  0  0  0  0  0  0  0
   -1.3490   25.0780  -28.4610 C   0  0  0  0  0  0  0  0  0  0  0  0
   -0.7450   26.1800  -28.3910 O   0  0  0  0  0  0  0  0  0  0  0  0
   -2.3770   24.9250  -29.3360 N   0  0  0  0  0  0  0  0  0  0  0  0
   -3.0540   23.7470  -29.4340 C   0  0  0  0  0  0  0  0  0  0  0  0
   -4.1470   23.6020  -30.3630 N   0  0  0  0  0  0  0  0  0  0  0  0
   -5.3250   24.4840  -30.2900 C   0  0  0  0  0  0  0  0  0  0  0  0
   -6.6120   23.6870  -30.5410 C   0  0  0  0  0  0  0  0  0  0  0  0
   -6.4620   22.7400  -31.6560 N   0  0  0  0  0  0  0  0  0  0  0  0
   -7.5020   21.7810  -31.9240 C   0  0  0  0  0  0  0  0  0  0  0  0
   -8.8480   22.1140  -31.7040 C   0  0  0  0  0  0  0  0  0  0  0  0
   -9.8420   21.1710  -31.9660 C   0  0  0  0  0  0  0  0  0  0  0  0
   -9.4930   19.9070  -32.4390 C   0  0  0  0  0  0  0  0  0  0  0  0
   -8.1450   19.6030  -32.6410 C   0  0  0  0  0  0  0  0  0  0  0  0
   -7.1860   20.5330  -32.3820 N   0  0  0  0  0  0  0  0  0  0  0  0
   -5.2130   22.7170  -32.4240 C   0  0  0  0  0  0  0  0  0  0  0  0
   -4.0240   22.6310  -31.4650 C   0  0  0  0  0  0  0  0  0  0  0  0
   -2.6880   22.7010  -28.6400 N   0  0  0  0  0  0  0  0  0  0  0  0
   -2.1360   19.7912  -25.3752 H   0  0  0  0  0  0  0  0  0  0  0  0
   -3.4586   19.2651  -26.4710 H   0  0  0  0  0  0  0  0  0  0  0  0
   -1.8903   18.3892  -26.4710 H   0  0  0  0  0  0  0  0  0  0  0  0
   -1.0256   19.8118  -27.9876 H   0  0  0  0  0  0  0  0  0  0  0  0
   -2.6817   20.5507  -28.1235 H   0  0  0  0  0  0  0  0  0  0  0  0
   -1.7630   21.7938  -25.8825 H   0  0  0  0  0  0  0  0  0  0  0  0
   -0.2219   21.5684  -26.8132 H   0  0  0  0  0  0  0  0  0  0  0  0
   -0.1419   24.1250  -26.9262 H   0  0  0  0  0  0  0  0  0  0  0  0
   -5.3724   24.9421  -29.2911 H   0  0  0  0  0  0  0  0  0  0  0  0
   -5.2336   25.2627  -31.0615 H   0  0  0  0  0  0  0  0  0  0  0  0
   -6.8663   23.1259  -29.6297 H   0  0  0  0  0  0  0  0  0  0  0  0
   -7.4082   24.3991  -30.8034 H   0  0  0  0  0  0  0  0  0  0  0  0
   -9.1170   23.1119  -31.3275 H   0  0  0  0  0  0  0  0  0  0  0  0
  -10.8994   21.4244  -31.7996 H   0  0  0  0  0  0  0  0  0  0  0  0
  -10.2702   19.1579  -32.6506 H   0  0  0  0  0  0  0  0  0  0  0  0
   -7.8573   18.6078  -33.0109 H   0  0  0  0  0  0  0  0  0  0  0  0
   -6.1860   20.2650  -32.5190 H   0  0  0  0  0  0  0  0  0  0  0  0
   -5.2094   21.8426  -33.0914 H   0  0  0  0  0  0  0  0  0  0  0  0
   -5.1345   23.6365  -33.0226 H   0  0  0  0  0  0  0  0  0  0  0  0
   -3.9776   21.6160  -31.0435 H   0  0  0  0  0  0  0  0  0  0  0  0
   -3.1085   22.8633  -32.0289 H   0  0  0  0  0  0  0  0  0  0  0  0
  1  2  1  0
  2  3  1  0
  3  4  1  0
  4  5  2  0
  5  6  1  0
  6  7  2  0
  6  8  1  0
  8  9  1  0
  9 10  1  0
 10 11  1  0
 11 12  1  0
 12 13  1  0
 13 14  1  0
 14 15  2  0
 15 16  1  0
 16 17  2  0
 17 18  1  0
 18 19  2  0
 13 20  1  0
 20 21  1  0
  9 22  2  0
 22  4  1  0
 21 10  1  0
 19 14  1  0
  1 23  1  0
  1 24  1  0
  1 25  1  0
  2 26  1  0
  2 27  1  0
  3 28  1  0
  3 29  1  0
  5 30  1  0
 11 31  1  0
 11 32  1  0
 12 33  1  0
 12 34  1  0
 15 35  1  0
 16 36  1  0
 17 37  1  0
 18 38  1  0
 19 39  1  0
 20 40  1  0
 20 41  1  0
 21 42  1  0
 21 43  1  0
M  CHG  2   8  -1  19   1
M  END
>  <UniqueID>  (22) 
22

>  <SMILES>  (22) 
CCCc1cc(=O)[n-]c(N2CCN(c3cccc[nH+]3)CC2)n1

>  <Energy>  (22) 
44.259465857890056

>  <Genealogy>  (22) 
CCCc1cc(=O)[n-]c(N2CCN(c3cccc[nH+]3)CC2)n1 (protonated)
CCCc1cc(=O)[n-]c(N2CCN(c3cccc[nH+]3)CC2)n1 (3D coordinates assigned)
CCCc1cc(=O)[n-]c(N2CCN(c3cccc[nH+]3)CC2)n1 (nonaromatic ring conformer: 44.259465857890056 kcal/mol)

>  <smiles>  (22) 
CCCc1cc(=O)[nH]c(N2CCN(c3ccccn3)CC2)n1

>  <score_type>  (22) 
oracle

>  <origin>  (22) 
adg

>  <m_score__min__energy>  (22) 
-7.7999999999999998

>  <m_primary>  (22) 
energy

$$$$
22:0
     RDKit          3D

 27 27  0  0  0  0  0  0  0  0999 V2000
   -6.2380   20.8710  -32.6680 C   0  0  0  0  0  0  0  0  0  0  0  0
   -5.4980   22.1740  -32.3440 C   0  0  0  0  0  0  0  0  0  0  0  0
   -6.2800   23.1010  -31.4720 N   0  0  0  0  0  0  0  0  0  0  0  0
   -7.5960   22.5210  -31.0920 C   0  0  0  0  0  0  0  0  0  0  0  0
   -8.7740   22.9720  -31.9640 C   0  0  0  0  0  0  0  0  0  0  0  0
   -5.5650   23.6930  -30.2940 C   0  0  1  0  0  0  0  0  0  0  0  0
   -4.3210   22.9220  -29.7790 C   0  0  0  0  0  0  0  0  0  0  0  0
   -3.0980   23.7930  -30.1220 C   0  0  0  0  0  0  0  0  0  0  0  0
   -3.6160   25.0640  -30.4640 O   0  0  0  0  0  0  0  0  0  0  0  0
   -4.9870   25.0280  -30.5950 C   0  0  0  0  0  0  0  0  0  0  0  0
   -5.6660   26.0390  -30.9110 O   0  0  0  0  0  0  0  0  0  0  0  0
   -6.5232   20.3688  -31.7318 H   0  0  0  0  0  0  0  0  0  0  0  0
   -7.1419   21.0982  -33.2523 H   0  0  0  0  0  0  0  0  0  0  0  0
   -5.5799   20.2111  -33.2523 H   0  0  0  0  0  0  0  0  0  0  0  0
   -4.5582   21.9225  -31.8307 H   0  0  0  0  0  0  0  0  0  0  0  0
   -5.3255   22.6944  -33.2976 H   0  0  0  0  0  0  0  0  0  0  0  0
   -6.5520   23.9110  -32.0800 H   0  0  0  0  0  0  0  0  0  0  0  0
   -7.5196   21.4258  -31.1600 H   0  0  0  0  0  0  0  0  0  0  0  0
   -7.8096   22.8791  -30.0741 H   0  0  0  0  0  0  0  0  0  0  0  0
   -9.6064   23.2907  -31.3194 H   0  0  0  0  0  0  0  0  0  0  0  0
   -8.4592   23.8132  -32.5991 H   0  0  0  0  0  0  0  0  0  0  0  0
   -9.1014   22.1356  -32.5991 H   0  0  0  0  0  0  0  0  0  0  0  0
   -6.3750   23.6851  -29.5498 H   0  0  0  0  0  0  0  0  0  0  0  0
   -4.3890   22.7729  -28.6913 H   0  0  0  0  0  0  0  0  0  0  0  0
   -4.2464   21.9282  -30.2445 H   0  0  0  0  0  0  0  0  0  0  0  0
   -2.4285   23.8731  -29.2529 H   0  0  0  0  0  0  0  0  0  0  0  0
   -2.5096   23.3601  -30.9444 H   0  0  0  0  0  0  0  0  0  0  0  0
  1  2  1  0
  2  3  1  0
  3  4  1  0
  4  5  1  0
  3  6  1  0
  6  7  1  0
  7  8  1  0
  8  9  1  0
  9 10  1  0
 10 11  2  0
 10  6  1  0
  1 12  1  0
  1 13  1  0
  1 14  1  0
  2 15  1  0
  2 16  1  0
  3 17  1  0
  4 18  1  0
  4 19  1  0
  5 20  1  0
  5 21  1  0
  5 22  1  0
  6 23  1  1
  7 24  1  0
  7 25  1  0
  8 26  1  0
  8 27  1  0
M  CHG  1   3   1
M  END
>  <UniqueID>  (23) 
23

>  <SMILES>  (23) 
CC[NH+](CC)[C@H]1CCOC1=O

>  <Energy>  (23) 
42.77537390010942

>  <Genealogy>  (23) 
CC[NH+](CC)C1CCOC1=O (protonated)
CC[NH+](CC)[C@H]1CCOC1=O (chirality)
CC[NH+](CC)[C@H]1CCOC1=O (3D coordinates assigned)
CC[NH+](CC)[C@H]1CCOC1=O (nonaromatic ring conformer: 42.77537390010942 kcal/mol)

>  <smiles>  (23) 
CCN(CC)C1CCOC1=O

>  <score_type>  (23) 
oracle

>  <origin>  (23) 
adg

>  <m_score__min__energy>  (23) 
-3.9900000000000002

>  <m_primary>  (23) 
energy

$$$$
23:0
     RDKit          3D

 53 56  0  0  0  0  0  0  0  0999 V2000
   -2.6070   16.9140  -33.9420 C   0  0  0  0  0  0  0  0  0  0  0  0
   -2.2180   18.3120  -34.1030 N   0  0  0  0  0  0  0  0  0  0  0  0
   -3.0110   19.3640  -33.8570 C   0  0  0  0  0  0  0  0  0  0  0  0
   -4.3900   19.4190  -33.3960 C   0  0  0  0  0  0  0  0  0  0  0  0
   -5.4820   19.2790  -34.2250 C   0  0  0  0  0  0  0  0  0  0  0  0
   -6.7790   19.3420  -33.7160 C   0  0  0  0  0  0  0  0  0  0  0  0
   -7.0360   19.5450  -32.3770 C   0  0  0  0  0  0  0  0  0  0  0  0
   -8.3970   19.6110  -31.8340 C   0  0  0  0  0  0  0  0  0  0  0  0
   -8.7030   20.7840  -31.0670 N   0  0  0  0  0  0  0  0  0  0  0  0
   -9.2700   21.8590  -31.8500 C   0  0  0  0  0  0  0  0  0  0  0  0
   -8.3960   23.0690  -31.9370 C   0  0  0  0  0  0  0  0  0  0  0  0
   -7.0960   22.9380  -31.3870 N   0  0  0  0  0  0  0  0  0  0  0  0
   -6.8640   24.0150  -30.4620 C   0  0  0  0  0  0  0  0  0  0  0  0
   -5.4560   24.0420  -29.9280 C   0  0  0  0  0  0  0  0  0  0  0  0
   -4.6300   24.2270  -31.0380 O   0  0  0  0  0  0  0  0  0  0  0  0
   -4.6710   23.0450  -31.7600 C   0  0  0  0  0  0  0  0  0  0  0  0
   -6.0410   22.7180  -32.3160 C   0  0  0  0  0  0  0  0  0  0  0  0
   -5.9340   19.6870  -31.5400 C   0  0  0  0  0  0  0  0  0  0  0  0
   -4.6530   19.6230  -32.0420 C   0  0  0  0  0  0  0  0  0  0  0  0
   -2.2600   20.5120  -34.1340 C   0  0  0  0  0  0  0  0  0  0  0  0
   -0.9970   20.1360  -34.5520 C   0  0  0  0  0  0  0  0  0  0  0  0
    0.1400   20.8120  -34.9500 C   0  0  0  0  0  0  0  0  0  0  0  0
    0.1140   22.1180  -34.9670 N   0  0  0  0  0  0  0  0  0  0  0  0
    1.2360   20.1340  -35.3080 N   0  0  0  0  0  0  0  0  0  0  0  0
    1.2400   18.7880  -35.2820 C   0  0  0  0  0  0  0  0  0  0  0  0
    0.1340   18.0900  -34.8930 N   0  0  0  0  0  0  0  0  0  0  0  0
   -1.0030   18.7440  -34.5220 C   0  0  0  0  0  0  0  0  0  0  0  0
   -2.6740   16.6731  -32.8708 H   0  0  0  0  0  0  0  0  0  0  0  0
   -3.5853   16.7486  -34.4170 H   0  0  0  0  0  0  0  0  0  0  0  0
   -1.8547   16.2671  -34.4170 H   0  0  0  0  0  0  0  0  0  0  0  0
   -5.3287   19.1155  -35.3019 H   0  0  0  0  0  0  0  0  0  0  0  0
   -7.6266   19.2256  -34.4074 H   0  0  0  0  0  0  0  0  0  0  0  0
   -9.1006   19.5659  -32.6783 H   0  0  0  0  0  0  0  0  0  0  0  0
   -8.4836   18.7648  -31.1365 H   0  0  0  0  0  0  0  0  0  0  0  0
   -7.8270   21.0740  -30.5740 H   0  0  0  0  0  0  0  0  0  0  0  0
   -9.4503   21.4875  -32.8696 H   0  0  0  0  0  0  0  0  0  0  0  0
  -10.1965   22.1690  -31.3445 H   0  0  0  0  0  0  0  0  0  0  0  0
   -8.2869   23.3295  -33.0001 H   0  0  0  0  0  0  0  0  0  0  0  0
   -8.8968   23.8403  -31.3334 H   0  0  0  0  0  0  0  0  0  0  0  0
   -7.0617   24.9670  -30.9764 H   0  0  0  0  0  0  0  0  0  0  0  0
   -7.5369   23.8624  -29.6053 H   0  0  0  0  0  0  0  0  0  0  0  0
   -5.3324   24.8717  -29.2164 H   0  0  0  0  0  0  0  0  0  0  0  0
   -5.2096   23.1141  -29.3910 H   0  0  0  0  0  0  0  0  0  0  0  0
   -3.9658   23.1268  -32.6002 H   0  0  0  0  0  0  0  0  0  0  0  0
   -4.4045   22.2348  -31.0653 H   0  0  0  0  0  0  0  0  0  0  0  0
   -6.2179   23.3483  -33.2000 H   0  0  0  0  0  0  0  0  0  0  0  0
   -6.0438   21.6459  -32.5620 H   0  0  0  0  0  0  0  0  0  0  0  0
   -6.0876   19.8525  -30.4634 H   0  0  0  0  0  0  0  0  0  0  0  0
   -3.8062   19.7370  -31.3492 H   0  0  0  0  0  0  0  0  0  0  0  0
   -2.6174   21.5476  -34.0350 H   0  0  0  0  0  0  0  0  0  0  0  0
   -0.8220   22.5510  -35.1100 H   0  0  0  0  0  0  0  0  0  0  0  0
    2.1482   18.2429  -35.5787 H   0  0  0  0  0  0  0  0  0  0  0  0
    0.1460   17.0250  -34.8760 H   0  0  0  0  0  0  0  0  0  0  0  0
  1  2  1  0
  2  3  1  0
  3  4  1  0
  4  5  2  0
  5  6  1  0
  6  7  2  0
  7  8  1  0
  8  9  1  0
  9 10  1  0
 10 11  1  0
 11 12  1  0
 12 13  1  0
 13 14  1  0
 14 15  1  0
 15 16  1  0
 16 17  1  0
  7 18  1  0
 18 19  2  0
  3 20  2  0
 20 21  1  0
 21 22  1  0
 22 23  2  3
 22 24  1  0
 24 25  2  0
 25 26  1  0
 26 27  1  0
 27  2  1  0
 19  4  1  0
 27 21  2  0
 17 12  1  0
  1 28  1  0
  1 29  1  0
  1 30  1  0
  5 31  1  0
  6 32  1  0
  8 33  1  0
  8 34  1  0
  9 35  1  0
 10 36  1  0
 10 37  1  0
 11 38  1  0
 11 39  1  0
 13 40  1  0
 13 41  1  0
 14 42  1  0
 14 43  1  0
 16 44  1  0
 16 45  1  0
 17 46  1  0
 17 47  1  0
 18 48  1  0
 19 49  1  0
 20 50  1  0
 23 51  1  0
 25 52  1  0
 26 53  1  0
M  END
>  <smiles>  (24) 
Cn1c(-c2ccc(CNCCN3CCOCC3)cc2)cc2c(=N)nc[nH]c21

>  <score_type>  (24) 
oracle

>  <origin>  (24) 
adg

>  <m_score__min__energy>  (24) 
-8.6500000000000004

>  <m_primary>  (24) 
energy

$$$$
24:0
     RDKit          3D

 21 21  0  0  0  0  0  0  0  0999 V2000
   -7.6550   18.6080  -32.2840 C   0  0  0  0  0  0  0  0  0  0  0  0
   -7.1180   19.9260  -32.2690 O   0  0  0  0  0  0  0  0  0  0  0  0
   -7.8140   21.0190  -31.7410 C   0  0  0  0  0  0  0  0  0  0  0  0
   -9.0720   21.0510  -31.7880 O   0  0  0  0  0  0  0  0  0  0  0  0
   -7.0510   22.1430  -31.1620 C   0  0  0  0  0  0  0  0  0  0  0  0
   -7.4600   22.8840  -30.0690 C   0  0  0  0  0  0  0  0  0  0  0  0
   -6.5000   23.7760  -29.7730 N   0  0  0  0  0  0  0  0  0  0  0  0
   -5.5210   23.5710  -30.6770 C   0  0  0  0  0  0  0  0  0  0  0  0
   -4.2770   24.2850  -30.6480 N   0  0  0  0  0  0  0  0  0  0  0  0
   -3.2100   23.6740  -30.8620 O   0  0  0  0  0  0  0  0  0  0  0  0
   -4.2530   25.6580  -30.5860 O   0  0  0  0  0  0  0  0  0  0  0  0
   -5.8360   22.5940  -31.5640 N   0  0  0  0  0  0  0  0  0  0  0  0
   -5.0510   22.1470  -32.7160 C   0  0  0  0  0  0  0  0  0  0  0  0
   -7.7975   18.2583  -31.2508 H   0  0  0  0  0  0  0  0  0  0  0  0
   -8.6230   18.6124  -32.8064 H   0  0  0  0  0  0  0  0  0  0  0  0
   -6.9595   17.9346  -32.8064 H   0  0  0  0  0  0  0  0  0  0  0  0
   -8.4122   22.7634  -29.5316 H   0  0  0  0  0  0  0  0  0  0  0  0
   -6.5030   24.4570  -28.9800 H   0  0  0  0  0  0  0  0  0  0  0  0
   -4.1452   21.6312  -32.3646 H   0  0  0  0  0  0  0  0  0  0  0  0
   -5.6534   21.4565  -33.3245 H   0  0  0  0  0  0  0  0  0  0  0  0
   -4.7646   23.0174  -33.3245 H   0  0  0  0  0  0  0  0  0  0  0  0
  1  2  1  0
  2  3  1  0
  3  4  2  0
  3  5  1  0
  5  6  2  0
  6  7  1  0
  7  8  2  0
  8  9  1  0
  9 10  2  0
  9 11  1  0
  8 12  1  0
 12 13  1  0
 12  5  1  0
  1 14  1  0
  1 15  1  0
  1 16  1  0
  6 17  1  0
  7 18  1  0
 13 19  1  0
 13 20  1  0
 13 21  1  0
M  CHG  3   7   1   9   1  11  -1
M  END
>  <UniqueID>  (25) 
24

>  <SMILES>  (25) 
COC(=O)c1c[nH+]c([N+](=O)[O-])n1C

>  <Energy>  (25) 
51.29013732342515

>  <Genealogy>  (25) 
COC(=O)c1c[nH+]c([N+](=O)[O-])n1C (protonated)
COC(=O)c1c[nH+]c([N+](=O)[O-])n1C (3D coordinates assigned)
COC(=O)c1c[nH+]c([N+](=O)[O-])n1C (optimized conformer: 51.29013732342515 kcal/mol)

>  <smiles>  (25) 
COC(=O)c1cnc([N+](=O)[O-])n1C

>  <score_type>  (25) 
oracle

>  <origin>  (25) 
adg

>  <m_score__min__energy>  (25) 
-4.71

>  <m_primary>  (25) 
energy

$$$$
25:0
     RDKit          3D

 46 49  0  0  0  0  0  0  0  0999 V2000
   -6.4730   24.9600  -28.2700 H   0  0  0  0  0  0  0  0  0  0  0  0
   -5.8930   25.1530  -29.1070 N   0  0  0  0  0  0  0  0  0  0  0  0
   -4.8790   24.4570  -29.5170 C   0  0  0  0  0  0  0  0  0  0  0  0
   -3.6800   24.7570  -29.0130 O   0  0  0  0  0  0  0  0  0  0  0  0
   -2.5650   24.0820  -29.3100 C   0  0  0  0  0  0  0  0  0  0  0  0
   -1.3090   24.4740  -28.7230 N   0  0  0  0  0  0  0  0  0  0  0  0
   -1.1410   25.8470  -28.2310 C   0  0  0  0  0  0  0  0  0  0  0  0
   -0.8846   26.5050  -29.0744 H   0  0  0  0  0  0  0  0  0  0  0  0
   -2.0820   26.1760  -27.7660 H   0  0  0  0  0  0  0  0  0  0  0  0
   -0.0230   25.9090  -27.1850 C   0  0  0  0  0  0  0  0  0  0  0  0
    0.1909   26.9616  -26.9478 H   0  0  0  0  0  0  0  0  0  0  0  0
   -0.3538   25.3728  -26.2833 H   0  0  0  0  0  0  0  0  0  0  0  0
    1.1540   25.2950  -27.6710 O   0  0  0  0  0  0  0  0  0  0  0  0
    0.9250   23.9100  -27.8440 C   0  0  0  0  0  0  0  0  0  0  0  0
    1.8711   23.4193  -28.1162 H   0  0  0  0  0  0  0  0  0  0  0  0
    0.5364   23.4965  -26.9016 H   0  0  0  0  0  0  0  0  0  0  0  0
   -0.1050   23.6630  -28.9500 C   0  0  0  0  0  0  0  0  0  0  0  0
    0.3352   23.9327  -29.9213 H   0  0  0  0  0  0  0  0  0  0  0  0
   -0.3861   22.5995  -28.9430 H   0  0  0  0  0  0  0  0  0  0  0  0
   -2.6250   23.0230  -30.1630 N   0  0  0  0  0  0  0  0  0  0  0  0
   -3.8140   22.6880  -30.7070 C   0  0  0  0  0  0  0  0  0  0  0  0
   -4.0770   21.4220  -31.7720 S   0  0  0  0  0  0  0  0  0  0  0  0
   -5.7230   21.7430  -31.9230 C   0  0  0  0  0  0  0  0  0  0  0  0
   -6.0780   22.8690  -31.1760 C   0  0  0  0  0  0  0  0  0  0  0  0
   -4.9800   23.3880  -30.4390 C   0  0  0  0  0  0  0  0  0  0  0  0
   -7.4940   23.3830  -31.2120 C   0  0  0  0  0  0  0  0  0  0  0  0
   -7.9731   23.1712  -30.2447 H   0  0  0  0  0  0  0  0  0  0  0  0
   -7.4573   24.4643  -31.4105 H   0  0  0  0  0  0  0  0  0  0  0  0
   -8.3230   22.7210  -32.3340 C   0  0  0  0  0  0  0  0  0  0  0  0
   -9.3902   22.8821  -32.1217 H   0  0  0  0  0  0  0  0  0  0  0  0
   -8.0163   23.1837  -33.2837 H   0  0  0  0  0  0  0  0  0  0  0  0
   -8.0810   21.2600  -32.4560 N   0  0  2  0  0  0  0  0  0  0  0  0
   -8.6570   20.9100  -33.2560 H   0  0  0  0  0  0  0  0  0  0  0  0
   -8.4560   20.4780  -31.2450 C   0  0  0  0  0  0  0  0  0  0  0  0
   -7.5914   20.4624  -30.5651 H   0  0  0  0  0  0  0  0  0  0  0  0
   -9.3359   20.9761  -30.8118 H   0  0  0  0  0  0  0  0  0  0  0  0
   -8.8730   19.0200  -31.5270 C   0  0  0  0  0  0  0  0  0  0  0  0
   -9.3171   18.6005  -30.6122 H   0  0  0  0  0  0  0  0  0  0  0  0
   -9.5883   19.0411  -32.3624 H   0  0  0  0  0  0  0  0  0  0  0  0
   -7.7060   18.1300  -31.9520 C   0  0  0  0  0  0  0  0  0  0  0  0
   -7.1966   17.7415  -31.0578 H   0  0  0  0  0  0  0  0  0  0  0  0
   -8.0853   17.2897  -32.5521 H   0  0  0  0  0  0  0  0  0  0  0  0
   -6.9960   18.7180  -32.5521 H   0  0  0  0  0  0  0  0  0  0  0  0
   -6.6670   21.0080  -32.8270 C   0  0  0  0  0  0  0  0  0  0  0  0
   -6.4650   19.9292  -32.7539 H   0  0  0  0  0  0  0  0  0  0  0  0
   -6.5104   21.3666  -33.8550 H   0  0  0  0  0  0  0  0  0  0  0  0
  1  2  1  0
  2  3  2  0
  3  4  1  0
  4  5  1  0
  5  6  1  0
  6  7  1  0
  7  8  1  0
  7  9  1  0
  7 10  1  0
 10 11  1  0
 10 12  1  0
 10 13  1  0
 13 14  1  0
 14 15  1  0
 14 16  1  0
 14 17  1  0
 17 18  1  0
 17 19  1  0
  5 20  2  0
 20 21  1  0
 21 22  1  0
 22 23  1  0
 23 24  2  0
 24 25  1  0
 24 26  1  0
 26 27  1  0
 26 28  1  0
 26 29  1  0
 29 30  1  0
 29 31  1  0
 29 32  1  0
 32 33  1  6
 32 34  1  0
 34 35  1  0
 34 36  1  0
 34 37  1  0
 37 38  1  0
 37 39  1  0
 37 40  1  0
 40 41  1  0
 40 42  1  0
 40 43  1  0
 32 44  1  0
 44 45  1  0
 44 46  1  0
 25  3  1  0
 17  6  1  0
 25 21  2  0
 44 23  1  0
M  CHG  1  32   1
M  END
>  <UniqueID>  (26) 
25

>  <SMILES>  (26) 
[H]/N=c1/oc(N2CCOCC2)nc2sc3c(c12)CC[N@H+](CCC)C3

>  <Energy>  (26) 
94.32496147974074

>  <Genealogy>  (26) 
CCC[NH+]1CCc2c(sc3nc(N4CCOCC4)oc(=N)c23)C1 (protonated)
CCC[N@H+]1CCc2c(sc3nc(N4CCOCC4)oc(=N)c23)C1 (chirality)
[H]/N=c1/oc(N2CCOCC2)nc2sc3c(c12)CC[N@H+](CCC)C3 (cis-trans isomerization)
[H]/N=c1/oc(N2CCOCC2)nc2sc3c(c12)CC[N@H+](CCC)C3 (3D coordinates assigned)
[H]/N=c1/oc(N2CCOCC2)nc2sc3c(c12)CC[N@H+](CCC)C3 (nonaromatic ring conformer: 94.32496147974074 kcal/mol)

>  <smiles>  (26) 
CCCN1CCc2c(sc3nc(N4CCOCC4)oc(=N)c23)C1

>  <score_type>  (26) 
oracle

>  <origin>  (26) 
adg

>  <m_score__min__energy>  (26) 
-6.7699999999999996

>  <m_primary>  (26) 
energy

$$$$
26:0
     RDKit          3D

 33 34  0  0  0  0  0  0  0  0999 V2000
   -8.4500   21.7050  -31.6190 C   0  0  0  0  0  0  0  0  0  0  0  0
   -7.2980   22.6510  -31.5750 C   0  0  0  0  0  0  0  0  0  0  0  0
   -7.1350   23.6970  -30.6950 C   0  0  0  0  0  0  0  0  0  0  0  0
   -5.9390   24.2600  -31.0880 C   0  0  0  0  0  0  0  0  0  0  0  0
   -5.3110   25.4810  -30.5050 C   0  0  0  0  0  0  0  0  0  0  0  0
   -3.8660   25.3020  -30.4590 N   0  0  0  0  0  0  0  0  0  0  0  0
   -3.1930   24.3120  -29.6720 C   0  0  0  0  0  0  0  0  0  0  0  0
   -3.0370   24.5180  -28.4400 O   0  0  0  0  0  0  0  0  0  0  0  0
   -2.6810   23.0620  -30.2630 C   0  0  0  0  0  0  0  0  0  0  0  0
   -3.3230   22.3630  -31.2210 N   0  0  0  0  0  0  0  0  0  0  0  0
   -2.5530   21.3570  -31.6100 N   0  0  0  0  0  0  0  0  0  0  0  0
   -2.9260   20.4020  -32.6490 C   0  0  0  0  0  0  0  0  0  0  0  0
   -1.3960   21.3840  -30.9090 C   0  0  0  0  0  0  0  0  0  0  0  0
   -0.2610   20.4150  -31.0680 C   0  0  0  0  0  0  0  0  0  0  0  0
   -1.4410   22.4740  -30.0470 C   0  0  0  0  0  0  0  0  0  0  0  0
   -0.4370   22.8810  -29.1040 N   0  0  0  0  0  0  0  0  0  0  0  0
    0.1090   22.0420  -28.3580 O   0  0  0  0  0  0  0  0  0  0  0  0
   -0.1040   24.2080  -28.9680 O   0  0  0  0  0  0  0  0  0  0  0  0
   -5.4480   23.5920  -32.1510 N   0  0  0  0  0  0  0  0  0  0  0  0
   -6.2870   22.6320  -32.4120 O   0  0  0  0  0  0  0  0  0  0  0  0
   -8.7569   21.4530  -30.5932 H   0  0  0  0  0  0  0  0  0  0  0  0
   -9.2914   22.1762  -32.1481 H   0  0  0  0  0  0  0  0  0  0  0  0
   -8.1514   20.7880  -32.1481 H   0  0  0  0  0  0  0  0  0  0  0  0
   -7.7991   24.0088  -29.8754 H   0  0  0  0  0  0  0  0  0  0  0  0
   -5.5538   26.3534  -31.1295 H   0  0  0  0  0  0  0  0  0  0  0  0
   -5.6954   25.6439  -29.4873 H   0  0  0  0  0  0  0  0  0  0  0  0
   -4.2490   22.5970  -31.6430 H   0  0  0  0  0  0  0  0  0  0  0  0
   -3.2883   19.4745  -32.1816 H   0  0  0  0  0  0  0  0  0  0  0  0
   -3.7220   20.8327  -33.2742 H   0  0  0  0  0  0  0  0  0  0  0  0
   -2.0488   20.1792  -33.2742 H   0  0  0  0  0  0  0  0  0  0  0  0
    0.0999   20.1069  -30.0756 H   0  0  0  0  0  0  0  0  0  0  0  0
   -0.6087   19.5309  -31.6225 H   0  0  0  0  0  0  0  0  0  0  0  0
    0.5577   20.8970  -31.6225 H   0  0  0  0  0  0  0  0  0  0  0  0
  1  2  1  0
  2  3  2  0
  3  4  1  0
  4  5  1  0
  5  6  1  0
  6  7  1  0
  7  8  2  0
  7  9  1  0
  9 10  2  0
 10 11  1  0
 11 12  1  0
 11 13  1  0
 13 14  1  0
 13 15  2  0
 15 16  1  0
 16 17  2  0
 16 18  1  0
  4 19  2  0
 19 20  1  0
 20  2  1  0
 15  9  1  0
  1 21  1  0
  1 22  1  0
  1 23  1  0
  3 24  1  0
  5 25  1  0
  5 26  1  0
 10 27  1  0
 12 28  1  0
 12 29  1  0
 12 30  1  0
 14 31  1  0
 14 32  1  0
 14 33  1  0
M  CHG  4   6  -1  10   1  16   1  18  -1
M  END
>  <UniqueID>  (27) 
26

>  <SMILES>  (27) 
Cc1cc(C[N-]C(=O)c2[nH+]n(C)c(C)c2[N+](=O)[O-])no1

>  <Energy>  (27) 
96.48346331533914

>  <Genealogy>  (27) 
Cc1cc(C[N-]C(=O)c2[nH+]n(C)c(C)c2[N+](=O)[O-])no1 (protonated)
Cc1cc(C[N-]C(=O)c2[nH+]n(C)c(C)c2[N+](=O)[O-])no1 (3D coordinates assigned)
Cc1cc(C[N-]C(=O)c2[nH+]n(C)c(C)c2[N+](=O)[O-])no1 (optimized conformer: 96.48346331533914 kcal/mol)

>  <smiles>  (27) 
Cc1cc(CNC(=O)c2nn(C)c(C)c2[N+](=O)[O-])no1

>  <score_type>  (27) 
oracle

>  <origin>  (27) 
adg

>  <m_score__min__energy>  (27) 
-7.0999999999999996

>  <m_primary>  (27) 
energy

$$$$
27:0
     RDKit          3D

 59 58  0  0  0  0  0  0  0  0999 V2000
   -8.1042   24.1990  -30.8381 H   0  0  0  0  0  0  0  0  0  0  0  0
   -7.2870   23.5320  -31.1500 C   0  0  0  0  0  0  0  0  0  0  0  0
   -7.4790   22.2050  -31.0280 C   0  0  0  0  0  0  0  0  0  0  0  0
   -6.7881   21.6450  -30.3807 H   0  0  0  0  0  0  0  0  0  0  0  0
   -8.5750   21.4340  -31.7170 C   0  0  0  0  0  0  0  0  0  0  0  0
   -9.0969   22.0989  -32.4210 H   0  0  0  0  0  0  0  0  0  0  0  0
   -9.2757   21.0585  -30.9567 H   0  0  0  0  0  0  0  0  0  0  0  0
   -7.9950   20.2400  -32.4870 C   0  0  0  0  0  0  0  0  0  0  0  0
   -6.9385   20.4482  -32.7116 H   0  0  0  0  0  0  0  0  0  0  0  0
   -8.5941   20.1172  -33.4013 H   0  0  0  0  0  0  0  0  0  0  0  0
   -8.0780   18.9160  -31.7020 C   0  0  0  0  0  0  0  0  0  0  0  0
   -9.0311   18.4282  -31.9542 H   0  0  0  0  0  0  0  0  0  0  0  0
   -7.9936   19.1821  -30.6380 H   0  0  0  0  0  0  0  0  0  0  0  0
   -6.9400   17.9200  -31.9900 C   0  0  0  0  0  0  0  0  0  0  0  0
   -7.0932   17.0232  -31.3718 H   0  0  0  0  0  0  0  0  0  0  0  0
   -5.9915   18.4234  -31.7515 H   0  0  0  0  0  0  0  0  0  0  0  0
   -6.8790   17.4940  -33.4670 C   0  0  0  0  0  0  0  0  0  0  0  0
   -7.8663   17.6614  -33.9223 H   0  0  0  0  0  0  0  0  0  0  0  0
   -6.5923   16.4324  -33.4943 H   0  0  0  0  0  0  0  0  0  0  0  0
   -5.8290   18.2780  -34.2690 C   0  0  0  0  0  0  0  0  0  0  0  0
   -6.1070   19.3423  -34.2706 H   0  0  0  0  0  0  0  0  0  0  0  0
   -5.8084   17.8673  -35.2893 H   0  0  0  0  0  0  0  0  0  0  0  0
   -4.4170   18.1360  -33.6750 C   0  0  0  0  0  0  0  0  0  0  0  0
   -3.6946   18.0768  -34.5024 H   0  0  0  0  0  0  0  0  0  0  0  0
   -4.4141   17.2267  -33.0560 H   0  0  0  0  0  0  0  0  0  0  0  0
   -4.0190   19.3100  -32.7620 C   0  0  0  0  0  0  0  0  0  0  0  0
   -3.0037   19.1170  -32.3853 H   0  0  0  0  0  0  0  0  0  0  0  0
   -4.7847   19.3517  -31.9733 H   0  0  0  0  0  0  0  0  0  0  0  0
   -4.0220   20.7010  -33.4280 C   0  0  0  0  0  0  0  0  0  0  0  0
   -4.9220   20.7869  -34.0546 H   0  0  0  0  0  0  0  0  0  0  0  0
   -3.0981   20.7827  -34.0194 H   0  0  0  0  0  0  0  0  0  0  0  0
   -4.0200   21.8570  -32.4140 C   0  0  0  0  0  0  0  0  0  0  0  0
   -4.8613   21.7157  -31.7196 H   0  0  0  0  0  0  0  0  0  0  0  0
   -4.1102   22.7940  -32.9831 H   0  0  0  0  0  0  0  0  0  0  0  0
   -2.7180   21.9380  -31.5970 C   0  0  0  0  0  0  0  0  0  0  0  0
   -1.9539   22.4239  -32.2215 H   0  0  0  0  0  0  0  0  0  0  0  0
   -2.4660   20.9036  -31.3203 H   0  0  0  0  0  0  0  0  0  0  0  0
   -2.8220   22.7220  -30.2740 C   0  0  0  0  0  0  0  0  0  0  0  0
   -3.0955   23.7599  -30.5146 H   0  0  0  0  0  0  0  0  0  0  0  0
   -1.8408   22.6267  -29.7860 H   0  0  0  0  0  0  0  0  0  0  0  0
   -3.8540   22.1790  -29.2660 C   0  0  0  0  0  0  0  0  0  0  0  0
   -3.4724   21.2286  -28.8646 H   0  0  0  0  0  0  0  0  0  0  0  0
   -4.7983   22.0697  -29.8195 H   0  0  0  0  0  0  0  0  0  0  0  0
   -4.1540   23.1130  -28.0800 C   0  0  0  0  0  0  0  0  0  0  0  0
   -4.1867   22.5120  -27.1592 H   0  0  0  0  0  0  0  0  0  0  0  0
   -5.1172   23.6045  -28.2817 H   0  0  0  0  0  0  0  0  0  0  0  0
   -3.1050   24.2110  -27.9090 C   0  0  0  0  0  0  0  0  0  0  0  0
   -2.9335   24.3905  -26.8374 H   0  0  0  0  0  0  0  0  0  0  0  0
   -2.1638   23.8960  -28.3833 H   0  0  0  0  0  0  0  0  0  0  0  0
   -3.4626   25.1368  -28.3833 H   0  0  0  0  0  0  0  0  0  0  0  0
   -6.0260   24.1670  -31.6860 C   0  0  0  0  0  0  0  0  0  0  0  0
   -5.3050   23.3706  -31.9225 H   0  0  0  0  0  0  0  0  0  0  0  0
   -6.3021   24.7472  -32.5788 H   0  0  0  0  0  0  0  0  0  0  0  0
   -5.3860   25.1210  -30.7050 C   0  0  0  0  0  0  0  0  0  0  0  0
   -4.2170   25.4580  -30.8270 O   0  0  0  0  0  0  0  0  0  0  0  0
   -6.1820   25.6640  -29.5570 C   0  0  0  0  0  0  0  0  0  0  0  0
   -5.7205   25.3492  -28.6094 H   0  0  0  0  0  0  0  0  0  0  0  0
   -6.1987   26.7626  -29.6095 H   0  0  0  0  0  0  0  0  0  0  0  0
   -7.2110   25.2787  -29.6095 H   0  0  0  0  0  0  0  0  0  0  0  0
  1  2  1  0
  2  3  2  0
  3  4  1  0
  3  5  1  0
  5  6  1  0
  5  7  1  0
  5  8  1  0
  8  9  1  0
  8 10  1  0
  8 11  1  0
 11 12  1  0
 11 13  1  0
 11 14  1  0
 14 15  1  0
 14 16  1  0
 14 17  1  0
 17 18  1  0
 17 19  1  0
 17 20  1  0
 20 21  1  0
 20 22  1  0
 20 23  1  0
 23 24  1  0
 23 25  1  0
 23 26  1  0
 26 27  1  0
 26 28  1  0
 26 29  1  0
 29 30  1  0
 29 31  1  0
 29 32  1  0
 32 33  1  0
 32 34  1  0
 32 35  1  0
 35 36  1  0
 35 37  1  0
 35 38  1  0
 38 39  1  0
 38 40  1  0
 38 41  1  0
 41 42  1  0
 41 43  1  0
 41 44  1  0
 44 45  1  0
 44 46  1  0
 44 47  1  0
 47 48  1  0
 47 49  1  0
 47 50  1  0
  2 51  1  0
 51 52  1  0
 51 53  1  0
 51 54  1  0
 54 55  2  0
 54 56  1  0
 56 57  1  0
 56 58  1  0
 56 59  1  0
M  END
>  <UniqueID>  (28) 
27

>  <SMILES>  (28) 
CCCCCCCCCCCCCCC/C=C\CC(C)=O

>  <Energy>  (28) 
26.339200855415974

>  <Genealogy>  (28) 
CCCCCCCCCCCCCCC/C=C\CC(C)=O (cis-trans isomerization)
CCCCCCCCCCCCCCC/C=C\CC(C)=O (3D coordinates assigned)
CCCCCCCCCCCCCCC/C=C\CC(C)=O (optimized conformer: 26.339200855415974 kcal/mol)

>  <smiles>  (28) 
CCCCCCCCCCCCCCCC=CCC(C)=O

>  <score_type>  (28) 
oracle

>  <origin>  (28) 
adg

>  <m_score__min__energy>  (28) 
-7.1799999999999997

>  <m_primary>  (28) 
energy

$$$$
28:0
     RDKit          3D

 47 48  0  0  0  0  0  0  0  0999 V2000
   -8.4650   18.9330  -32.0950 C   0  0  0  0  0  0  0  0  0  0  0  0
   -7.6080   20.1670  -32.3480 C   0  0  0  0  0  0  0  0  0  0  0  0
   -8.5300   21.6900  -31.9360 S   0  0  0  0  0  0  0  0  0  0  0  0
   -7.0810   22.6370  -31.4600 C   0  0  0  0  0  0  0  0  0  0  0  0
   -5.8090   22.2260  -31.8630 C   0  0  0  0  0  0  0  0  0  0  0  0
   -4.6860   22.9730  -31.5050 C   0  0  0  0  0  0  0  0  0  0  0  0
   -4.8210   24.1430  -30.7470 C   0  0  0  0  0  0  0  0  0  0  0  0
   -3.6370   24.9080  -30.4700 N   0  0  0  0  0  0  0  0  0  0  0  0
   -2.5860   24.5360  -29.5660 C   0  0  0  0  0  0  0  0  0  0  0  0
   -2.0160   25.4420  -28.9010 O   0  0  0  0  0  0  0  0  0  0  0  0
   -2.1630   23.1260  -29.3810 C   0  0  0  0  0  0  0  0  0  0  0  0
   -2.4410   22.4660  -28.1790 C   0  0  0  0  0  0  0  0  0  0  0  0
   -2.0190   21.1410  -27.9720 C   0  0  0  0  0  0  0  0  0  0  0  0
   -2.2750   20.4620  -26.7700 O   0  0  0  0  0  0  0  0  0  0  0  0
   -3.0980   19.3040  -26.6520 C   0  0  0  0  0  0  0  0  0  0  0  0
   -1.3150   20.4610  -28.9790 C   0  0  0  0  0  0  0  0  0  0  0  0
   -0.9170   19.1410  -28.6910 O   0  0  0  0  0  0  0  0  0  0  0  0
    0.1750   18.7430  -27.8690 C   0  0  0  0  0  0  0  0  0  0  0  0
   -1.0420   21.1150  -30.2080 C   0  0  0  0  0  0  0  0  0  0  0  0
   -0.3260   20.4490  -31.2160 O   0  0  0  0  0  0  0  0  0  0  0  0
   -0.7300   20.3600  -32.5790 C   0  0  0  0  0  0  0  0  0  0  0  0
   -1.4920   22.4350  -30.3990 C   0  0  0  0  0  0  0  0  0  0  0  0
   -6.1000   24.5220  -30.2690 C   0  0  0  0  0  0  0  0  0  0  0  0
   -6.3030   25.7000  -29.3560 C   0  0  0  0  0  0  0  0  0  0  0  0
   -7.2240   23.7740  -30.6580 C   0  0  0  0  0  0  0  0  0  0  0  0
   -8.5730   18.7775  -31.0114 H   0  0  0  0  0  0  0  0  0  0  0  0
   -9.4581   19.0776  -32.5455 H   0  0  0  0  0  0  0  0  0  0  0  0
   -7.9827   18.0530  -32.5455 H   0  0  0  0  0  0  0  0  0  0  0  0
   -6.7037   20.1126  -31.7241 H   0  0  0  0  0  0  0  0  0  0  0  0
   -7.3358   20.1959  -33.4134 H   0  0  0  0  0  0  0  0  0  0  0  0
   -5.6919   21.3119  -32.4636 H   0  0  0  0  0  0  0  0  0  0  0  0
   -3.6863   22.6401  -31.8208 H   0  0  0  0  0  0  0  0  0  0  0  0
   -2.9961   22.9898  -27.3869 H   0  0  0  0  0  0  0  0  0  0  0  0
   -3.2600   19.0761  -25.5881 H   0  0  0  0  0  0  0  0  0  0  0  0
   -4.0666   19.4915  -27.1384 H   0  0  0  0  0  0  0  0  0  0  0  0
   -2.6025   18.4509  -27.1384 H   0  0  0  0  0  0  0  0  0  0  0  0
   -0.1064   18.8456  -26.8106 H   0  0  0  0  0  0  0  0  0  0  0  0
    0.4300   17.6941  -28.0806 H   0  0  0  0  0  0  0  0  0  0  0  0
    1.0451   19.3818  -28.0806 H   0  0  0  0  0  0  0  0  0  0  0  0
   -1.8031   20.1236  -32.6287 H   0  0  0  0  0  0  0  0  0  0  0  0
   -0.5426   21.3210  -33.0805 H   0  0  0  0  0  0  0  0  0  0  0  0
   -0.1562   19.5667  -33.0805 H   0  0  0  0  0  0  0  0  0  0  0  0
   -1.3140   22.9326  -31.3637 H   0  0  0  0  0  0  0  0  0  0  0  0
   -6.2456   25.3668  -28.3093 H   0  0  0  0  0  0  0  0  0  0  0  0
   -5.5208   26.4499  -29.5455 H   0  0  0  0  0  0  0  0  0  0  0  0
   -7.2910   26.1448  -29.5455 H   0  0  0  0  0  0  0  0  0  0  0  0
   -8.2262   24.0856  -30.3286 H   0  0  0  0  0  0  0  0  0  0  0  0
  1  2  1  0
  2  3  1  0
  3  4  1  0
  4  5  2  0
  5  6  1  0
  6  7  2  0
  7  8  1  0
  8  9  1  0
  9 10  2  0
  9 11  1  0
 11 12  2  0
 12 13  1  0
 13 14  1  0
 14 15  1  0
 13 16  2  0
 16 17  1  0
 17 18  1  0
 16 19  1  0
 19 20  1  0
 20 21  1  0
 19 22  2  0
  7 23  1  0
 23 24  1  0
 23 25  2  0
 25  4  1  0
 22 11  1  0
  1 26  1  0
  1 27  1  0
  1 28  1  0
  2 29  1  0
  2 30  1  0
  5 31  1  0
  6 32  1  0
 12 33  1  0
 15 34  1  0
 15 35  1  0
 15 36  1  0
 18 37  1  0
 18 38  1  0
 18 39  1  0
 21 40  1  0
 21 41  1  0
 21 42  1  0
 22 43  1  0
 24 44  1  0
 24 45  1  0
 24 46  1  0
 25 47  1  0
M  CHG  1   8  -1
M  END
>  <UniqueID>  (29) 
28

>  <SMILES>  (29) 
CCSc1ccc([N-]C(=O)c2cc(OC)c(OC)c(OC)c2)c(C)c1

>  <Energy>  (29) 
49.461668381807605

>  <Genealogy>  (29) 
CCSc1ccc([N-]C(=O)c2cc(OC)c(OC)c(OC)c2)c(C)c1 (protonated)
CCSc1ccc([N-]C(=O)c2cc(OC)c(OC)c(OC)c2)c(C)c1 (3D coordinates assigned)
CCSc1ccc([N-]C(=O)c2cc(OC)c(OC)c(OC)c2)c(C)c1 (optimized conformer: 49.461668381807605 kcal/mol)

>  <smiles>  (29) 
CCSc1ccc(NC(=O)c2cc(OC)c(OC)c(OC)c2)c(C)c1

>  <score_type>  (29) 
oracle

>  <origin>  (29) 
adg

>  <m_score__min__energy>  (29) 
-9.0299999999999994

>  <m_primary>  (29) 
energy

$$$$
29:0
     RDKit          3D

 65 70  0  0  0  0  0  0  0  0999 V2000
    2.3570   13.7470  -29.6310 C   0  0  0  0  0  0  0  0  0  0  0  0
    1.3640   14.7430  -29.1900 N   0  0  0  0  0  0  0  0  0  0  0  0
    1.5270   16.0230  -29.9260 C   0  0  0  0  0  0  0  0  0  0  0  0
    2.3220   17.0640  -29.1180 C   0  0  0  0  0  0  0  0  0  0  0  0
    1.6680   17.4100  -27.8200 N   0  0  0  0  0  0  0  0  0  0  0  0
    0.9210   18.7060  -27.9000 C   0  0  2  0  0  0  0  0  0  0  0  0
   -0.4570   18.5820  -27.2070 C   0  0  0  0  0  0  0  0  0  0  0  0
   -1.1280   19.9580  -27.1190 C   0  0  0  0  0  0  0  0  0  0  0  0
   -1.3560   20.5950  -28.5210 C   0  0  1  0  0  0  0  0  0  0  0  0
   -1.0840   22.0560  -28.5810 N   0  0  0  0  0  0  0  0  0  0  0  0
    0.1180   22.5990  -28.1520 C   0  0  0  0  0  0  0  0  0  0  0  0
    1.1040   21.8650  -27.8910 O   0  0  0  0  0  0  0  0  0  0  0  0
    0.2660   23.9520  -28.0100 N   0  0  0  0  0  0  0  0  0  0  0  0
   -0.7290   24.8210  -28.3220 C   0  0  0  0  0  0  0  0  0  0  0  0
   -0.5690   26.0600  -28.1650 O   0  0  0  0  0  0  0  0  0  0  0  0
   -1.8970   24.3060  -28.8530 C   0  0  0  0  0  0  0  0  0  0  0  0
   -2.9490   24.9960  -29.3350 N   0  0  0  0  0  0  0  0  0  0  0  0
   -3.7540   24.0610  -29.8770 C   0  0  0  0  0  0  0  0  0  0  0  0
   -4.9290   24.3030  -30.5810 C   0  0  0  0  0  0  0  0  0  0  0  0
   -5.5760   23.2190  -31.1900 C   0  0  0  0  0  0  0  0  0  0  0  0
   -5.0240   21.9150  -31.1260 C   0  0  0  0  0  0  0  0  0  0  0  0
   -5.6880   20.7890  -31.8290 C   0  0  0  0  0  0  0  0  0  0  0  0
   -7.0490   20.5060  -31.6030 C   0  0  0  0  0  0  0  0  0  0  0  0
   -7.6710   19.4460  -32.2680 C   0  0  0  0  0  0  0  0  0  0  0  0
   -6.9460   18.6580  -33.1650 C   0  0  0  0  0  0  0  0  0  0  0  0
   -7.5550   17.6310  -33.8090 F   0  0  0  0  0  0  0  0  0  0  0  0
   -5.5940   18.9280  -33.3970 C   0  0  0  0  0  0  0  0  0  0  0  0
   -4.8890   18.1670  -34.2690 F   0  0  0  0  0  0  0  0  0  0  0  0
   -4.9670   19.9870  -32.7320 C   0  0  0  0  0  0  0  0  0  0  0  0
   -3.8210   21.7010  -30.4110 C   0  0  0  0  0  0  0  0  0  0  0  0
   -3.2270   22.7860  -29.7460 C   0  0  0  0  0  0  0  0  0  0  0  0
   -2.0330   22.9460  -29.0330 C   0  0  0  0  0  0  0  0  0  0  0  0
   -0.6660   19.8430  -29.6810 C   0  0  0  0  0  0  0  0  0  0  0  0
    0.7240   19.2520  -29.3600 C   0  0  0  0  0  0  0  0  0  0  0  0
    0.8630   16.2730  -27.2880 C   0  0  0  0  0  0  0  0  0  0  0  0
    1.4270   14.9110  -27.7190 C   0  0  0  0  0  0  0  0  0  0  0  0
    2.8231   13.2795  -28.7511 H   0  0  0  0  0  0  0  0  0  0  0  0
    1.8584   12.9750  -30.2355 H   0  0  0  0  0  0  0  0  0  0  0  0
    3.1305   14.2432  -30.2355 H   0  0  0  0  0  0  0  0  0  0  0  0
    0.4190   14.3570  -29.4280 H   0  0  0  0  0  0  0  0  0  0  0  0
    2.0595   15.8242  -30.8677 H   0  0  0  0  0  0  0  0  0  0  0  0
    0.5240   16.4350  -30.1110 H   0  0  0  0  0  0  0  0  0  0  0  0
    3.3231   16.6582  -28.9103 H   0  0  0  0  0  0  0  0  0  0  0  0
    2.3720   17.9834  -29.7198 H   0  0  0  0  0  0  0  0  0  0  0  0
    1.5539   19.4375  -27.3762 H   0  0  0  0  0  0  0  0  0  0  0  0
   -1.0967   17.9017  -27.7883 H   0  0  0  0  0  0  0  0  0  0  0  0
   -0.3148   18.1851  -26.1910 H   0  0  0  0  0  0  0  0  0  0  0  0
   -2.1013   19.8456  -26.6190 H   0  0  0  0  0  0  0  0  0  0  0  0
   -0.4595   20.6227  -26.5521 H   0  0  0  0  0  0  0  0  0  0  0  0
   -2.4386   20.4744  -28.6738 H   0  0  0  0  0  0  0  0  0  0  0  0
   -3.0790   26.0330  -29.3510 H   0  0  0  0  0  0  0  0  0  0  0  0
   -5.3404   25.3203  -30.6579 H   0  0  0  0  0  0  0  0  0  0  0  0
   -6.5237   23.3822  -31.7241 H   0  0  0  0  0  0  0  0  0  0  0  0
   -7.6260   21.1232  -30.8986 H   0  0  0  0  0  0  0  0  0  0  0  0
   -8.7342   19.2316  -32.0846 H   0  0  0  0  0  0  0  0  0  0  0  0
   -3.9025   20.1940  -32.9166 H   0  0  0  0  0  0  0  0  0  0  0  0
   -3.3599   20.7029  -30.3769 H   0  0  0  0  0  0  0  0  0  0  0  0
   -1.3233   19.0155  -29.9862 H   0  0  0  0  0  0  0  0  0  0  0  0
   -0.4996   20.5926  -30.4686 H   0  0  0  0  0  0  0  0  0  0  0  0
    0.9052   18.4208  -30.0573 H   0  0  0  0  0  0  0  0  0  0  0  0
    1.4318   20.0879  -29.4615 H   0  0  0  0  0  0  0  0  0  0  0  0
    0.8610   16.3239  -26.1892 H   0  0  0  0  0  0  0  0  0  0  0  0
   -0.1553   16.3608  -27.6947 H   0  0  0  0  0  0  0  0  0  0  0  0
    2.4756   14.8386  -27.3947 H   0  0  0  0  0  0  0  0  0  0  0  0
    0.8200   14.1208  -27.2531 H   0  0  0  0  0  0  0  0  0  0  0  0
  1  2  1  0
  2  3  1  0
  3  4  1  0
  4  5  1  0
  5  6  1  0
  6  7  1  0
  7  8  1  0
  8  9  1  0
  9 10  1  0
 10 11  1  0
 11 12  2  0
 11 13  1  0
 13 14  1  0
 14 15  2  0
 14 16  1  0
 16 17  1  0
 17 18  1  0
 18 19  2  0
 19 20  1  0
 20 21  2  0
 21 22  1  0
 22 23  2  0
 23 24  1  0
 24 25  2  0
 25 26  1  0
 25 27  1  0
 27 28  1  0
 27 29  2  0
 21 30  1  0
 30 31  2  0
 31 32  1  0
  9 33  1  0
 33 34  1  0
  5 35  1  0
 35 36  1  0
 36  2  1  0
 34  6  1  0
 32 10  1  0
 32 16  2  0
 31 18  1  0
 29 22  1  0
  1 37  1  0
  1 38  1  0
  1 39  1  0
  2 40  1  0
  3 41  1  0
  3 42  1  0
  4 43  1  0
  4 44  1  0
  6 45  1  1
  7 46  1  0
  7 47  1  0
  8 48  1  0
  8 49  1  0
  9 50  1  6
 17 51  1  0
 19 52  1  0
 20 53  1  0
 23 54  1  0
 24 55  1  0
 29 56  1  0
 30 57  1  0
 33 58  1  0
 33 59  1  0
 34 60  1  0
 34 61  1  0
 35 62  1  0
 35 63  1  0
 36 64  1  0
 36 65  1  0
M  CHG  2   2   1  13  -1
M  END
>  <UniqueID>  (30) 
29

>  <SMILES>  (30) 
C[NH+]1CCN(C2CCC(n3c(=O)[n-]c(=O)c4[nH]c5ccc(-c6ccc(F)c(F)c6)cc5c43)CC2)CC1

>  <Energy>  (30) 
162.4685835251587

>  <Genealogy>  (30) 
C[NH+]1CCN(C2CCC(n3c(=O)[n-]c(=O)c4[nH]c5ccc(-c6ccc(F)c(F)c6)cc5c43)CC2)CC1 (protonated)
C[NH+]1CCN(C2CCC(n3c(=O)[n-]c(=O)c4[nH]c5ccc(-c6ccc(F)c(F)c6)cc5c43)CC2)CC1 (3D coordinates assigned)
C[NH+]1CCN(C2CCC(n3c(=O)[n-]c(=O)c4[nH]c5ccc(-c6ccc(F)c(F)c6)cc5c43)CC2)CC1 (nonaromatic ring conformer: 162.4685835251587 kcal/mol)

>  <smiles>  (30) 
CN1CCN(C2CCC(n3c(=O)[nH]c(=O)c4[nH]c5ccc(-c6ccc(F)c(F)c6)cc5c43)CC2)CC1

>  <score_type>  (30) 
oracle

>  <origin>  (30) 
adg

>  <m_score__min__energy>  (30) 
-10.93

>  <m_primary>  (30) 
energy

$$$$
30:0
     RDKit          3D

 49 51  0  0  0  0  0  0  0  0999 V2000
   -5.2570   25.7000  -30.5810 C   0  0  0  0  0  0  0  0  0  0  0  0
   -3.9250   25.2090  -30.4600 O   0  0  0  0  0  0  0  0  0  0  0  0
   -3.5830   23.9850  -29.8690 C   0  0  0  0  0  0  0  0  0  0  0  0
   -2.8300   23.0030  -30.5440 C   0  0  0  0  0  0  0  0  0  0  0  0
   -2.5130   21.7980  -29.9090 C   0  0  0  0  0  0  0  0  0  0  0  0
   -2.9390   21.5610  -28.5980 C   0  0  0  0  0  0  0  0  0  0  0  0
   -2.5220   20.0540  -27.8020 S   0  0  0  0  0  0  0  0  0  0  0  0
   -3.7010   19.6150  -26.6900 O   0  0  0  0  0  0  0  0  0  0  0  0
   -0.8960   20.0780  -27.0690 C   0  0  0  0  0  0  0  0  0  0  0  0
   -0.4910   21.4870  -26.7380 C   0  0  0  0  0  0  0  0  0  0  0  0
   -0.8430   22.0530  -25.5040 C   0  0  0  0  0  0  0  0  0  0  0  0
   -0.4170   23.3420  -25.1690 C   0  0  0  0  0  0  0  0  0  0  0  0
    0.3710   24.0850  -26.0700 C   0  0  0  0  0  0  0  0  0  0  0  0
    0.8340   25.3810  -25.7880 O   0  0  0  0  0  0  0  0  0  0  0  0
    0.0330   26.5670  -25.7470 C   0  0  0  0  0  0  0  0  0  0  0  0
   -1.1530   26.3430  -24.7870 C   0  0  0  0  0  0  0  0  0  0  0  0
   -0.8510   26.7860  -23.3400 C   0  0  0  0  0  0  0  0  0  0  0  0
    0.5810   26.6630  -23.0280 N   0  0  0  0  0  0  0  0  0  0  0  0
    1.4120   27.5690  -23.8480 C   0  0  0  0  0  0  0  0  0  0  0  0
    0.8740   27.7670  -25.2830 C   0  0  0  0  0  0  0  0  0  0  0  0
    0.7250   23.5120  -27.2970 C   0  0  0  0  0  0  0  0  0  0  0  0
    0.3020   22.2230  -27.6300 C   0  0  0  0  0  0  0  0  0  0  0  0
   -3.6940   22.5300  -27.9270 C   0  0  0  0  0  0  0  0  0  0  0  0
   -4.0100   23.7360  -28.5580 C   0  0  0  0  0  0  0  0  0  0  0  0
   -5.6824   25.8568  -29.5788 H   0  0  0  0  0  0  0  0  0  0  0  0
   -5.2478   26.6538  -31.1288 H   0  0  0  0  0  0  0  0  0  0  0  0
   -5.8691   24.9684  -31.1288 H   0  0  0  0  0  0  0  0  0  0  0  0
   -2.4904   23.1852  -31.5743 H   0  0  0  0  0  0  0  0  0  0  0  0
   -1.9271   21.0346  -30.4419 H   0  0  0  0  0  0  0  0  0  0  0  0
   -4.0480   18.7500  -27.0250 H   0  0  0  0  0  0  0  0  0  0  0  0
   -0.9050   19.4775  -26.1474 H   0  0  0  0  0  0  0  0  0  0  0  0
   -0.1751   19.6588  -27.7864 H   0  0  0  0  0  0  0  0  0  0  0  0
   -1.4581   21.4792  -24.7952 H   0  0  0  0  0  0  0  0  0  0  0  0
   -0.6981   23.7774  -24.1987 H   0  0  0  0  0  0  0  0  0  0  0  0
   -0.3473   26.7843  -26.7560 H   0  0  0  0  0  0  0  0  0  0  0  0
   -2.0158   26.9169  -25.1562 H   0  0  0  0  0  0  0  0  0  0  0  0
   -1.3574   25.2624  -24.7639 H   0  0  0  0  0  0  0  0  0  0  0  0
   -1.1551   27.8359  -23.2165 H   0  0  0  0  0  0  0  0  0  0  0  0
   -1.4116   26.1335  -22.6545 H   0  0  0  0  0  0  0  0  0  0  0  0
    0.7240   26.8950  -22.0180 H   0  0  0  0  0  0  0  0  0  0  0  0
    0.8840   25.6710  -23.1710 H   0  0  0  0  0  0  0  0  0  0  0  0
    1.4512   28.5501  -23.3521 H   0  0  0  0  0  0  0  0  0  0  0  0
    2.4062   27.1065  -23.9355 H   0  0  0  0  0  0  0  0  0  0  0  0
    0.2481   28.6713  -25.3072 H   0  0  0  0  0  0  0  0  0  0  0  0
    1.7348   27.8643  -25.9609 H   0  0  0  0  0  0  0  0  0  0  0  0
    1.3426   24.0825  -28.0063 H   0  0  0  0  0  0  0  0  0  0  0  0
    0.5921   21.7836  -28.5958 H   0  0  0  0  0  0  0  0  0  0  0  0
   -4.0396   22.3415  -26.8998 H   0  0  0  0  0  0  0  0  0  0  0  0
   -4.5981   24.4953  -28.0217 H   0  0  0  0  0  0  0  0  0  0  0  0
  1  2  1  0
  2  3  1  0
  3  4  2  0
  4  5  1  0
  5  6  2  0
  6  7  1  0
  7  8  1  1
  7  9  1  0
  9 10  1  0
 10 11  2  0
 11 12  1  0
 12 13  2  0
 13 14  1  0
 14 15  1  0
 15 16  1  0
 16 17  1  0
 17 18  1  0
 18 19  1  0
 19 20  1  0
 13 21  1  0
 21 22  2  0
  6 23  1  0
 23 24  2  0
 24  3  1  0
 22 10  1  0
 20 15  1  0
  1 25  1  0
  1 26  1  0
  1 27  1  0
  4 28  1  0
  5 29  1  0
  8 30  1  0
  9 31  1  0
  9 32  1  0
 11 33  1  0
 12 34  1  0
 15 35  1  0
 16 36  1  0
 16 37  1  0
 17 38  1  0
 17 39  1  0
 18 40  1  0
 18 41  1  0
 19 42  1  0
 19 43  1  0
 20 44  1  0
 20 45  1  0
 21 46  1  0
 22 47  1  0
 23 48  1  0
 24 49  1  0
M  CHG  2   7   1  18   1
M  END
>  <UniqueID>  (31) 
30

>  <SMILES>  (31) 
COc1ccc([S@+](O)Cc2ccc(OC3CC[NH2+]CC3)cc2)cc1

>  <Energy>  (31) 
47.809429134098544

>  <Genealogy>  (31) 
COc1ccc([S+](O)Cc2ccc(OC3CC[NH2+]CC3)cc2)cc1 (protonated)
COc1ccc([S@+](O)Cc2ccc(OC3CC[NH2+]CC3)cc2)cc1 (chirality)
COc1ccc([S@+](O)Cc2ccc(OC3CC[NH2+]CC3)cc2)cc1 (3D coordinates assigned)
COc1ccc([S@+](O)Cc2ccc(OC3CC[NH2+]CC3)cc2)cc1 (nonaromatic ring conformer: 47.809429134098544 kcal/mol)

>  <smiles>  (31) 
COc1ccc([S+]([O-])Cc2ccc(OC3CCNCC3)cc2)cc1

>  <score_type>  (31) 
oracle

>  <origin>  (31) 
adg

>  <m_score__min__energy>  (31) 
-8.4600000000000009

>  <m_primary>  (31) 
energy

$$$$
31:0
     RDKit          3D

 40 42  0  0  0  0  0  0  0  0999 V2000
   -6.4810   25.7480  -29.3400 C   0  0  0  0  0  0  0  0  0  0  0  0
   -5.6760   25.2960  -30.4240 O   0  0  0  0  0  0  0  0  0  0  0  0
   -5.6740   23.9820  -30.9230 C   0  0  0  0  0  0  0  0  0  0  0  0
   -6.8680   23.3000  -31.2160 C   0  0  0  0  0  0  0  0  0  0  0  0
   -6.8400   21.9900  -31.7010 C   0  0  0  0  0  0  0  0  0  0  0  0
   -8.0720   21.3110  -31.9990 N   0  0  0  0  0  0  0  0  0  0  0  0
   -9.2640   21.8690  -31.8860 N   0  0  0  0  0  0  0  0  0  0  0  0
  -10.1680   21.0140  -32.3340 N   0  0  0  0  0  0  0  0  0  0  0  0
   -9.5960   19.8910  -32.7450 N   0  0  0  0  0  0  0  0  0  0  0  0
   -8.2790   20.0820  -32.5280 C   0  0  0  0  0  0  0  0  0  0  0  0
   -7.2580   19.0400  -32.7690 C   0  0  0  0  0  0  0  0  0  0  0  0
   -6.4600   19.0610  -33.9270 C   0  0  0  0  0  0  0  0  0  0  0  0
   -5.4990   18.0680  -34.1380 C   0  0  0  0  0  0  0  0  0  0  0  0
   -5.3140   17.0580  -33.1890 C   0  0  0  0  0  0  0  0  0  0  0  0
   -6.0850   17.0460  -32.0240 C   0  0  0  0  0  0  0  0  0  0  0  0
   -7.0490   18.0360  -31.8100 C   0  0  0  0  0  0  0  0  0  0  0  0
   -5.6060   21.3710  -31.9330 C   0  0  0  0  0  0  0  0  0  0  0  0
   -4.3960   22.0270  -31.6340 C   0  0  0  0  0  0  0  0  0  0  0  0
   -3.1640   21.3860  -31.8340 O   0  0  0  0  0  0  0  0  0  0  0  0
   -2.6490   20.9840  -33.1000 C   0  0  0  0  0  0  0  0  0  0  0  0
   -4.4350   23.3500  -31.1240 C   0  0  0  0  0  0  0  0  0  0  0  0
   -3.2860   24.0960  -30.7970 O   0  0  0  0  0  0  0  0  0  0  0  0
   -2.3910   23.8460  -29.7190 C   0  0  0  0  0  0  0  0  0  0  0  0
   -5.9999   25.4778  -28.3884 H   0  0  0  0  0  0  0  0  0  0  0  0
   -6.5928   26.8408  -29.3971 H   0  0  0  0  0  0  0  0  0  0  0  0
   -7.4722   25.2745  -29.3971 H   0  0  0  0  0  0  0  0  0  0  0  0
   -7.8341   23.8029  -31.0618 H   0  0  0  0  0  0  0  0  0  0  0  0
  -11.1940   21.1980  -32.3620 H   0  0  0  0  0  0  0  0  0  0  0  0
   -6.5926   19.8618  -34.6694 H   0  0  0  0  0  0  0  0  0  0  0  0
   -4.8873   18.0812  -35.0522 H   0  0  0  0  0  0  0  0  0  0  0  0
   -4.5620   16.2735  -33.3595 H   0  0  0  0  0  0  0  0  0  0  0  0
   -5.9334   16.2562  -31.2736 H   0  0  0  0  0  0  0  0  0  0  0  0
   -7.6462   18.0282  -30.8863 H   0  0  0  0  0  0  0  0  0  0  0  0
   -5.5809   20.3558  -32.3557 H   0  0  0  0  0  0  0  0  0  0  0  0
   -1.7900   20.3135  -32.9502 H   0  0  0  0  0  0  0  0  0  0  0  0
   -3.4323   20.4561  -33.6636 H   0  0  0  0  0  0  0  0  0  0  0  0
   -2.3270   21.8721  -33.6636 H   0  0  0  0  0  0  0  0  0  0  0  0
   -2.9170   23.9929  -28.7641 H   0  0  0  0  0  0  0  0  0  0  0  0
   -2.0238   22.8109  -29.7798 H   0  0  0  0  0  0  0  0  0  0  0  0
   -1.5405   24.5410  -29.7798 H   0  0  0  0  0  0  0  0  0  0  0  0
  1  2  1  0
  2  3  1  0
  3  4  2  0
  4  5  1  0
  5  6  1  0
  6  7  1  0
  7  8  2  0
  8  9  1  0
  9 10  2  0
 10 11  1  0
 11 12  2  0
 12 13  1  0
 13 14  2  0
 14 15  1  0
 15 16  2  0
  5 17  2  0
 17 18  1  0
 18 19  1  0
 19 20  1  0
 18 21  2  0
 21 22  1  0
 22 23  1  0
 21  3  1  0
 10  6  1  0
 16 11  1  0
  1 24  1  0
  1 25  1  0
  1 26  1  0
  4 27  1  0
  8 28  1  0
 12 29  1  0
 13 30  1  0
 14 31  1  0
 15 32  1  0
 16 33  1  0
 17 34  1  0
 20 35  1  0
 20 36  1  0
 20 37  1  0
 23 38  1  0
 23 39  1  0
 23 40  1  0
M  CHG  1   8   1
M  END
>  <UniqueID>  (32) 
31

>  <SMILES>  (32) 
COc1cc(-n2n[nH+]nc2-c2ccccc2)cc(OC)c1OC

>  <Energy>  (32) 
91.7678234274186

>  <Genealogy>  (32) 
COc1cc(-n2n[nH+]nc2-c2ccccc2)cc(OC)c1OC (protonated)
COc1cc(-n2n[nH+]nc2-c2ccccc2)cc(OC)c1OC (3D coordinates assigned)
COc1cc(-n2n[nH+]nc2-c2ccccc2)cc(OC)c1OC (optimized conformer: 91.7678234274186 kcal/mol)

>  <smiles>  (32) 
COc1cc(-n2nnnc2-c2ccccc2)cc(OC)c1OC

>  <score_type>  (32) 
oracle

>  <origin>  (32) 
adg

>  <m_score__min__energy>  (32) 
-7.6399999999999997

>  <m_primary>  (32) 
energy

$$$$
33:0
     RDKit          3D

 42 44  0  0  0  0  0  0  0  0999 V2000
   -6.1530   16.4420  -33.7940 C   0  0  0  0  0  0  0  0  0  0  0  0
   -6.3840   16.9820  -32.4970 O   0  0  0  0  0  0  0  0  0  0  0  0
   -7.0810   18.1750  -32.2490 C   0  0  0  0  0  0  0  0  0  0  0  0
   -8.4260   18.1890  -31.8390 C   0  0  0  0  0  0  0  0  0  0  0  0
   -9.0770   19.4030  -31.6110 C   0  0  0  0  0  0  0  0  0  0  0  0
   -8.3980   20.6090  -31.7910 C   0  0  0  0  0  0  0  0  0  0  0  0
   -7.0530   20.6170  -32.2020 C   0  0  0  0  0  0  0  0  0  0  0  0
   -6.3610   21.8630  -32.4500 N   0  0  0  0  0  0  0  0  0  0  0  0
   -4.9310   21.9110  -32.7600 C   0  0  0  0  0  0  0  0  0  0  0  0
   -4.1930   22.6630  -31.6460 C   0  0  0  0  0  0  0  0  0  0  0  0
   -4.9680   23.8080  -31.1030 N   0  0  0  0  0  0  0  0  0  0  0  0
   -5.2160   23.7720  -29.6450 C   0  0  0  0  0  0  0  0  0  0  0  0
   -3.9910   24.0460  -28.8170 C   0  0  0  0  0  0  0  0  0  0  0  0
   -3.7620   23.5860  -27.5320 C   0  0  0  0  0  0  0  0  0  0  0  0
   -2.5240   24.0760  -27.1680 C   0  0  0  0  0  0  0  0  0  0  0  0
   -2.0860   24.8020  -28.2570 C   0  0  0  0  0  0  0  0  0  0  0  0
   -0.8570   25.5260  -28.3300 N   0  0  0  0  0  0  0  0  0  0  0  0
   -0.8680   26.7470  -28.5880 O   0  0  0  0  0  0  0  0  0  0  0  0
    0.3390   24.8980  -28.0720 O   0  0  0  0  0  0  0  0  0  0  0  0
   -2.9680   24.7590  -29.2270 O   0  0  0  0  0  0  0  0  0  0  0  0
   -6.1020   24.2780  -31.9310 C   0  0  0  0  0  0  0  0  0  0  0  0
   -7.0650   23.1440  -32.3290 C   0  0  0  0  0  0  0  0  0  0  0  0
   -6.4060   19.3880  -32.4250 C   0  0  0  0  0  0  0  0  0  0  0  0
   -5.7219   15.4343  -33.7002 H   0  0  0  0  0  0  0  0  0  0  0  0
   -7.1051   16.3840  -34.3419 H   0  0  0  0  0  0  0  0  0  0  0  0
   -5.4535   17.0905  -34.3419 H   0  0  0  0  0  0  0  0  0  0  0  0
   -8.9665   17.2414  -31.6976 H   0  0  0  0  0  0  0  0  0  0  0  0
  -10.1286   19.4089  -31.2884 H   0  0  0  0  0  0  0  0  0  0  0  0
   -8.9189   21.5608  -31.6100 H   0  0  0  0  0  0  0  0  0  0  0  0
   -4.5371   20.8866  -32.8345 H   0  0  0  0  0  0  0  0  0  0  0  0
   -4.7799   22.4317  -33.7171 H   0  0  0  0  0  0  0  0  0  0  0  0
   -3.9869   21.9595  -30.8259 H   0  0  0  0  0  0  0  0  0  0  0  0
   -3.2687   23.0700  -32.0818 H   0  0  0  0  0  0  0  0  0  0  0  0
   -5.9755   24.5300  -29.4030 H   0  0  0  0  0  0  0  0  0  0  0  0
   -5.5482   22.7523  -29.4003 H   0  0  0  0  0  0  0  0  0  0  0  0
   -4.4303   22.9580  -26.9246 H   0  0  0  0  0  0  0  0  0  0  0  0
   -1.9988   23.9210  -26.2140 H   0  0  0  0  0  0  0  0  0  0  0  0
   -6.6644   25.0317  -31.3603 H   0  0  0  0  0  0  0  0  0  0  0  0
   -5.6825   24.6951  -32.8584 H   0  0  0  0  0  0  0  0  0  0  0  0
   -7.8466   23.0518  -31.5605 H   0  0  0  0  0  0  0  0  0  0  0  0
   -7.5060   23.3907  -33.3061 H   0  0  0  0  0  0  0  0  0  0  0  0
   -5.3529   19.3804  -32.7427 H   0  0  0  0  0  0  0  0  0  0  0  0
  1  2  1  0
  2  3  1  0
  3  4  2  0
  4  5  1  0
  5  6  2  0
  6  7  1  0
  7  8  1  0
  8  9  1  0
  9 10  1  0
 10 11  1  0
 11 12  1  0
 12 13  1  0
 13 14  2  0
 14 15  1  0
 15 16  2  0
 16 17  1  0
 17 18  2  0
 17 19  1  0
 16 20  1  0
 11 21  1  0
 21 22  1  0
  7 23  2  0
 23  3  1  0
 22  8  1  0
 20 13  1  0
  1 24  1  0
  1 25  1  0
  1 26  1  0
  4 27  1  0
  5 28  1  0
  6 29  1  0
  9 30  1  0
  9 31  1  0
 10 32  1  0
 10 33  1  0
 12 34  1  0
 12 35  1  0
 14 36  1  0
 15 37  1  0
 21 38  1  0
 21 39  1  0
 22 40  1  0
 22 41  1  0
 23 42  1  0
M  CHG  2  17   1  19  -1
M  END
>  <UniqueID>  (33) 
32

>  <SMILES>  (33) 
COc1cccc(N2CCN(Cc3ccc([N+](=O)[O-])o3)CC2)c1

>  <Energy>  (33) 
80.27262541396225

>  <Genealogy>  (33) 
COc1cccc(N2CCN(Cc3ccc([N+](=O)[O-])o3)CC2)c1 (3D coordinates assigned)
COc1cccc(N2CCN(Cc3ccc([N+](=O)[O-])o3)CC2)c1 (nonaromatic ring conformer: 80.27262541396225 kcal/mol)

>  <smiles>  (33) 
COc1cccc(N2CCN(Cc3ccc([N+](=O)[O-])o3)CC2)c1

>  <score_type>  (33) 
oracle

>  <origin>  (33) 
adg

>  <m_score__min__energy>  (33) 
-8.3699999999999992

>  <m_primary>  (33) 
energy

$$$$
34:0
     RDKit          3D

 32 34  0  0  0  0  0  0  0  0999 V2000
   -9.0860   18.4770  -31.2430 C   0  0  0  0  0  0  0  0  0  0  0  0
   -8.0650   19.0630  -32.1100 N   0  0  0  0  0  0  0  0  0  0  0  0
   -7.8460   20.3760  -32.3820 C   0  0  0  0  0  0  0  0  0  0  0  0
   -8.7400   21.7300  -31.6130 S   0  0  0  0  0  0  0  0  0  0  0  0
   -7.6770   23.0340  -32.3250 C   0  0  0  0  0  0  0  0  0  0  0  0
   -6.4670   23.2750  -31.4640 C   0  0  0  0  0  0  0  0  0  0  0  0
   -5.8390   22.2060  -30.8020 C   0  0  0  0  0  0  0  0  0  0  0  0
   -4.6940   22.4300  -30.0310 C   0  0  0  0  0  0  0  0  0  0  0  0
   -4.1680   23.7200  -29.9160 C   0  0  0  0  0  0  0  0  0  0  0  0
   -4.7850   24.7880  -30.5750 C   0  0  0  0  0  0  0  0  0  0  0  0
   -4.2700   26.0380  -30.4660 F   0  0  0  0  0  0  0  0  0  0  0  0
   -5.9290   24.5670  -31.3490 C   0  0  0  0  0  0  0  0  0  0  0  0
   -6.8680   20.5830  -33.3020 N   0  0  0  0  0  0  0  0  0  0  0  0
   -6.4760   19.3340  -33.6110 C   0  0  0  0  0  0  0  0  0  0  0  0
   -5.4930   18.9550  -34.5210 C   0  0  0  0  0  0  0  0  0  0  0  0
   -5.2610   17.5780  -34.6990 C   0  0  0  0  0  0  0  0  0  0  0  0
   -6.0130   16.6250  -33.9740 C   0  0  0  0  0  0  0  0  0  0  0  0
   -7.0000   17.0420  -33.0620 C   0  0  0  0  0  0  0  0  0  0  0  0
   -7.1980   18.4150  -32.9040 C   0  0  0  0  0  0  0  0  0  0  0  0
   -8.8087   18.6362  -30.1905 H   0  0  0  0  0  0  0  0  0  0  0  0
  -10.0558   18.9559  -31.4431 H   0  0  0  0  0  0  0  0  0  0  0  0
   -9.1617   17.3980  -31.4431 H   0  0  0  0  0  0  0  0  0  0  0  0
   -7.3485   22.7224  -33.3275 H   0  0  0  0  0  0  0  0  0  0  0  0
   -8.2576   23.9666  -32.3814 H   0  0  0  0  0  0  0  0  0  0  0  0
   -6.2497   21.1894  -30.8907 H   0  0  0  0  0  0  0  0  0  0  0  0
   -4.2067   21.5900  -29.5144 H   0  0  0  0  0  0  0  0  0  0  0  0
   -3.2688   23.8950  -29.3071 H   0  0  0  0  0  0  0  0  0  0  0  0
   -6.4091   25.4087  -31.8697 H   0  0  0  0  0  0  0  0  0  0  0  0
   -4.9172   19.7059  -35.0818 H   0  0  0  0  0  0  0  0  0  0  0  0
   -4.4894   17.2411  -35.4069 H   0  0  0  0  0  0  0  0  0  0  0  0
   -5.8253   15.5515  -34.1238 H   0  0  0  0  0  0  0  0  0  0  0  0
   -7.5947   16.3119  -32.4935 H   0  0  0  0  0  0  0  0  0  0  0  0
  1  2  1  0
  2  3  1  0
  3  4  1  0
  4  5  1  0
  5  6  1  0
  6  7  2  0
  7  8  1  0
  8  9  2  0
  9 10  1  0
 10 11  1  0
 10 12  2  0
  3 13  2  0
 13 14  1  0
 14 15  2  0
 15 16  1  0
 16 17  2  0
 17 18  1  0
 18 19  2  0
 19  2  1  0
 12  6  1  0
 19 14  1  0
  1 20  1  0
  1 21  1  0
  1 22  1  0
  5 23  1  0
  5 24  1  0
  7 25  1  0
  8 26  1  0
  9 27  1  0
 12 28  1  0
 15 29  1  0
 16 30  1  0
 17 31  1  0
 18 32  1  0
M  END
>  <UniqueID>  (34) 
33

>  <SMILES>  (34) 
Cn1c(SCc2cccc(F)c2)nc2ccccc21

>  <Energy>  (34) 
66.62739320306991

>  <Genealogy>  (34) 
Cn1c(SCc2cccc(F)c2)nc2ccccc21 (3D coordinates assigned)
Cn1c(SCc2cccc(F)c2)nc2ccccc21 (optimized conformer: 66.62739320306991 kcal/mol)

>  <smiles>  (34) 
Cn1c(SCc2cccc(F)c2)nc2ccccc21

>  <score_type>  (34) 
oracle

>  <origin>  (34) 
adg

>  <m_score__min__energy>  (34) 
-7.5700000000000003

>  <m_primary>  (34) 
energy

$$$$
35:0
     RDKit          3D

 54 57  0  0  0  0  0  0  0  0999 V2000
    0.2400   24.8500  -24.9000 C   0  0  0  0  0  0  0  0  0  0  0  0
    0.1800   26.3220  -24.9230 N   0  0  0  0  0  0  0  0  0  0  0  0
   -0.8540   26.7880  -23.9860 C   0  0  0  0  0  0  0  0  0  0  0  0
   -0.1090   26.8180  -26.2830 C   0  0  0  0  0  0  0  0  0  0  0  0
   -0.3870   25.6740  -27.2230 C   0  0  0  0  0  0  0  0  0  0  0  0
    0.5810   25.1820  -27.8660 O   0  0  0  0  0  0  0  0  0  0  0  0
   -1.7200   25.1420  -27.4050 N   0  0  0  0  0  0  0  0  0  0  0  0
   -2.7300   25.2960  -26.3420 C   0  0  0  0  0  0  0  0  0  0  0  0
   -4.0900   24.7320  -26.7620 C   0  0  0  0  0  0  0  0  0  0  0  0
   -3.9260   23.3170  -27.3240 C   0  0  0  0  0  0  0  0  0  0  0  0
   -2.9180   23.2410  -28.5270 C   0  0  1  0  0  0  0  0  0  0  0  0
   -1.9250   22.0560  -28.3010 C   0  0  0  0  0  0  0  0  0  0  0  0
   -1.3540   22.0090  -26.9440 C   0  0  0  0  0  0  0  0  0  0  0  0
   -0.9060   21.9750  -25.8780 N   0  0  0  0  0  0  0  0  0  0  0  0
   -3.6770   23.0050  -29.7760 N   0  0  0  0  0  0  0  0  0  0  0  0
   -4.0060   21.8000  -30.2930 C   0  0  0  0  0  0  0  0  0  0  0  0
   -4.7590   22.0030  -31.4310 C   0  0  0  0  0  0  0  0  0  0  0  0
   -5.3520   20.9750  -32.3120 C   0  0  0  0  0  0  0  0  0  0  0  0
   -4.5440   20.1700  -33.1510 C   0  0  0  0  0  0  0  0  0  0  0  0
   -3.1970   20.3340  -33.1850 F   0  0  0  0  0  0  0  0  0  0  0  0
   -5.1390   19.2060  -33.9940 C   0  0  0  0  0  0  0  0  0  0  0  0
   -6.4930   19.0320  -34.0070 N   0  0  0  0  0  0  0  0  0  0  0  0
   -7.2640   19.8030  -33.2020 C   0  0  0  0  0  0  0  0  0  0  0  0
   -8.5970   19.7200  -33.0800 N   0  0  0  0  0  0  0  0  0  0  0  0
   -8.9290   20.6320  -32.1390 C   0  0  0  0  0  0  0  0  0  0  0  0
   -7.7980   21.2910  -31.6660 C   0  0  0  0  0  0  0  0  0  0  0  0
   -6.7360   20.7510  -32.3680 C   0  0  0  0  0  0  0  0  0  0  0  0
   -4.8720   23.3750  -31.5430 C   0  0  0  0  0  0  0  0  0  0  0  0
   -4.2100   23.9600  -30.5270 N   0  0  0  0  0  0  0  0  0  0  0  0
   -2.1160   24.5690  -28.7020 C   0  0  0  0  0  0  0  0  0  0  0  0
    0.2543   24.4999  -23.8573 H   0  0  0  0  0  0  0  0  0  0  0  0
   -0.6421   24.4390  -25.4128 H   0  0  0  0  0  0  0  0  0  0  0  0
    1.1527   24.5122  -25.4128 H   0  0  0  0  0  0  0  0  0  0  0  0
   -0.5095   26.6327  -22.9529 H   0  0  0  0  0  0  0  0  0  0  0  0
   -1.0438   27.8587  -24.1522 H   0  0  0  0  0  0  0  0  0  0  0  0
   -1.7818   26.2210  -24.1522 H   0  0  0  0  0  0  0  0  0  0  0  0
   -0.9891   27.4769  -26.2469 H   0  0  0  0  0  0  0  0  0  0  0  0
    0.7686   27.3702  -26.6503 H   0  0  0  0  0  0  0  0  0  0  0  0
   -2.3855   24.7624  -25.4439 H   0  0  0  0  0  0  0  0  0  0  0  0
   -2.8533   26.3705  -26.1414 H   0  0  0  0  0  0  0  0  0  0  0  0
   -4.7559   24.7004  -25.8871 H   0  0  0  0  0  0  0  0  0  0  0  0
   -4.5217   25.3789  -27.5399 H   0  0  0  0  0  0  0  0  0  0  0  0
   -3.5603   22.6617  -26.5197 H   0  0  0  0  0  0  0  0  0  0  0  0
   -4.9093   22.9994  -27.7012 H   0  0  0  0  0  0  0  0  0  0  0  0
   -2.4622   21.1137  -28.4840 H   0  0  0  0  0  0  0  0  0  0  0  0
   -1.0858   22.2043  -28.9966 H   0  0  0  0  0  0  0  0  0  0  0  0
   -3.7213   20.8225  -29.8765 H   0  0  0  0  0  0  0  0  0  0  0  0
   -4.5048   18.5887  -34.6472 H   0  0  0  0  0  0  0  0  0  0  0  0
   -9.2420   19.0760  -33.5890 H   0  0  0  0  0  0  0  0  0  0  0  0
   -9.9550   20.8270  -31.7936 H   0  0  0  0  0  0  0  0  0  0  0  0
   -7.7575   22.0757  -30.8962 H   0  0  0  0  0  0  0  0  0  0  0  0
   -5.4171   23.9061  -32.3372 H   0  0  0  0  0  0  0  0  0  0  0  0
   -1.2107   24.3634  -29.2920 H   0  0  0  0  0  0  0  0  0  0  0  0
   -2.7641   25.2956  -29.2139 H   0  0  0  0  0  0  0  0  0  0  0  0
  1  2  1  0
  2  3  1  0
  2  4  1  0
  4  5  1  0
  5  6  2  0
  5  7  1  0
  7  8  1  0
  8  9  1  0
  9 10  1  0
 10 11  1  0
 11 12  1  1
 12 13  1  0
 13 14  3  0
 11 15  1  0
 15 16  1  0
 16 17  2  0
 17 18  1  0
 18 19  2  0
 19 20  1  0
 19 21  1  0
 21 22  2  0
 22 23  1  0
 23 24  1  0
 24 25  1  0
 25 26  2  0
 26 27  1  0
 17 28  1  0
 28 29  2  0
 11 30  1  0
 30  7  1  0
 29 15  1  0
 27 18  1  0
 27 23  2  0
  1 31  1  0
  1 32  1  0
  1 33  1  0
  3 34  1  0
  3 35  1  0
  3 36  1  0
  4 37  1  0
  4 38  1  0
  8 39  1  0
  8 40  1  0
  9 41  1  0
  9 42  1  0
 10 43  1  0
 10 44  1  0
 12 45  1  0
 12 46  1  0
 16 47  1  0
 21 48  1  0
 24 49  1  0
 25 50  1  0
 26 51  1  0
 28 52  1  0
 30 53  1  0
 30 54  1  0
M  END
>  <UniqueID>  (35) 
34

>  <SMILES>  (35) 
CN(C)CC(=O)N1CCC[C@@](CC#N)(n2cc(-c3c(F)cnc4[nH]ccc34)cn2)C1

>  <Energy>  (35) 
130.53038892421927

>  <Genealogy>  (35) 
CN(C)CC(=O)N1CCC[C@@](CC#N)(n2cc(-c3c(F)cnc4[nH]ccc34)cn2)C1 (chirality)
CN(C)CC(=O)N1CCC[C@@](CC#N)(n2cc(-c3c(F)cnc4[nH]ccc34)cn2)C1 (3D coordinates assigned)
CN(C)CC(=O)N1CCC[C@@](CC#N)(n2cc(-c3c(F)cnc4[nH]ccc34)cn2)C1 (nonaromatic ring conformer: 130.53038892421927 kcal/mol)

>  <smiles>  (35) 
CN(C)CC(=O)N1CCCC(CC#N)(n2cc(-c3c(F)cnc4[nH]ccc34)cn2)C1

>  <score_type>  (35) 
oracle

>  <origin>  (35) 
adg

>  <m_score__min__energy>  (35) 
-8.5399999999999991

>  <m_primary>  (35) 
energy

$$$$
36:0
     RDKit          3D

 42 43  0  0  0  0  0  0  0  0999 V2000
   -9.0280   19.1760  -32.3270 C   0  0  0  0  0  0  0  0  0  0  0  0
   -8.9820   20.6680  -32.1880 C   0  0  0  0  0  0  0  0  0  0  0  0
  -10.0610   21.3130  -32.2950 O   0  0  0  0  0  0  0  0  0  0  0  0
   -7.7100   21.3950  -31.9280 C   0  0  0  0  0  0  0  0  0  0  0  0
   -7.7060   22.7290  -31.4770 C   0  0  0  0  0  0  0  0  0  0  0  0
   -6.5020   23.3980  -31.2400 C   0  0  0  0  0  0  0  0  0  0  0  0
   -5.2740   22.7510  -31.4620 C   0  0  0  0  0  0  0  0  0  0  0  0
   -4.0170   23.3930  -31.2090 N   0  0  0  0  0  0  0  0  0  0  0  0
   -3.7950   24.5560  -30.4000 C   0  0  0  0  0  0  0  0  0  0  0  0
   -4.2460   25.6750  -30.7630 O   0  0  0  0  0  0  0  0  0  0  0  0
   -3.0140   24.4560  -29.1920 N   0  0  0  0  0  0  0  0  0  0  0  0
   -3.6940   24.5100  -27.8930 C   0  0  0  0  0  0  0  0  0  0  0  0
   -1.5590   24.2490  -29.2560 C   0  0  0  0  0  0  0  0  0  0  0  0
   -0.9160   24.3630  -27.8660 C   0  0  0  0  0  0  0  0  0  0  0  0
   -0.6630   25.8200  -27.4670 C   0  0  0  0  0  0  0  0  0  0  0  0
   -0.6890   25.9530  -26.0130 N   0  0  0  0  0  0  0  0  0  0  0  0
   -1.3530   26.8820  -25.3000 C   0  0  0  0  0  0  0  0  0  0  0  0
   -1.0430   26.7000  -23.9680 C   0  0  0  0  0  0  0  0  0  0  0  0
   -0.1840   25.6690  -23.8630 N   0  0  0  0  0  0  0  0  0  0  0  0
    0.0210   25.2360  -25.1210 C   0  0  0  0  0  0  0  0  0  0  0  0
   -5.2740   21.4180  -31.8850 C   0  0  0  0  0  0  0  0  0  0  0  0
   -6.4760   20.7480  -32.1240 C   0  0  0  0  0  0  0  0  0  0  0  0
   -9.0422   18.7150  -31.3284 H   0  0  0  0  0  0  0  0  0  0  0  0
   -9.9355   18.8868  -32.8773 H   0  0  0  0  0  0  0  0  0  0  0  0
   -8.1401   18.8315  -32.8773 H   0  0  0  0  0  0  0  0  0  0  0  0
   -8.6603   23.2499  -31.3095 H   0  0  0  0  0  0  0  0  0  0  0  0
   -6.5154   24.4366  -30.8778 H   0  0  0  0  0  0  0  0  0  0  0  0
   -2.9486   24.4508  -27.0862 H   0  0  0  0  0  0  0  0  0  0  0  0
   -4.2505   25.4552  -27.8095 H   0  0  0  0  0  0  0  0  0  0  0  0
   -4.3927   23.6645  -27.8095 H   0  0  0  0  0  0  0  0  0  0  0  0
   -1.3574   23.2470  -29.6627 H   0  0  0  0  0  0  0  0  0  0  0  0
   -1.1264   25.0265  -29.9028 H   0  0  0  0  0  0  0  0  0  0  0  0
   -1.5875   23.9038  -27.1256 H   0  0  0  0  0  0  0  0  0  0  0  0
    0.0548   23.8467  -27.8980 H   0  0  0  0  0  0  0  0  0  0  0  0
    0.3213   26.1349  -27.8438 H   0  0  0  0  0  0  0  0  0  0  0  0
   -1.4499   26.4544  -27.9011 H   0  0  0  0  0  0  0  0  0  0  0  0
   -2.0250   27.6514  -25.7079 H   0  0  0  0  0  0  0  0  0  0  0  0
   -1.4329   27.2979  -23.1311 H   0  0  0  0  0  0  0  0  0  0  0  0
    0.2460   25.2920  -22.9890 H   0  0  0  0  0  0  0  0  0  0  0  0
    0.6855   24.4008  -25.3872 H   0  0  0  0  0  0  0  0  0  0  0  0
   -4.3187   20.8924  -32.0308 H   0  0  0  0  0  0  0  0  0  0  0  0
   -6.4577   19.7037  -32.4690 H   0  0  0  0  0  0  0  0  0  0  0  0
  1  2  1  0
  2  3  2  0
  2  4  1  0
  4  5  2  0
  5  6  1  0
  6  7  2  0
  7  8  1  0
  8  9  1  0
  9 10  2  0
  9 11  1  0
 11 12  1  0
 11 13  1  0
 13 14  1  0
 14 15  1  0
 15 16  1  0
 16 17  1  0
 17 18  2  0
 18 19  1  0
 19 20  2  0
  7 21  1  0
 21 22  2  0
 22  4  1  0
 20 16  1  0
  1 23  1  0
  1 24  1  0
  1 25  1  0
  5 26  1  0
  6 27  1  0
 12 28  1  0
 12 29  1  0
 12 30  1  0
 13 31  1  0
 13 32  1  0
 14 33  1  0
 14 34  1  0
 15 35  1  0
 15 36  1  0
 17 37  1  0
 18 38  1  0
 19 39  1  0
 20 40  1  0
 21 41  1  0
 22 42  1  0
M  CHG  2   8  -1  19   1
M  END
>  <UniqueID>  (36) 
35

>  <SMILES>  (36) 
CC(=O)c1ccc([N-]C(=O)N(C)CCCn2cc[nH+]c2)cc1

>  <Energy>  (36) 
67.64618043114136

>  <Genealogy>  (36) 
CC(=O)c1ccc([N-]C(=O)N(C)CCCn2cc[nH+]c2)cc1 (protonated)
CC(=O)c1ccc([N-]C(=O)N(C)CCCn2cc[nH+]c2)cc1 (3D coordinates assigned)
CC(=O)c1ccc([N-]C(=O)N(C)CCCn2cc[nH+]c2)cc1 (optimized conformer: 67.64618043114136 kcal/mol)

>  <smiles>  (36) 
CC(=O)c1ccc(NC(=O)N(C)CCCn2ccnc2)cc1

>  <score_type>  (36) 
oracle

>  <origin>  (36) 
adg

>  <m_score__min__energy>  (36) 
-8.9199999999999999

>  <m_primary>  (36) 
energy

$$$$
37:0
     RDKit          3D

 42 43  0  0  0  0  0  0  0  0999 V2000
   -4.0300   24.0890  -28.1570 C   0  0  0  0  0  0  0  0  0  0  0  0
   -3.0410   23.9930  -29.3130 C   0  0  0  0  0  0  0  0  0  0  0  0
   -3.5980   24.6010  -30.5170 N   0  0  0  0  0  0  0  0  0  0  0  0
   -5.0010   24.6330  -30.8140 C   0  0  0  0  0  0  0  0  0  0  0  0
   -5.5340   25.7060  -31.2100 O   0  0  0  0  0  0  0  0  0  0  0  0
   -5.7980   23.4400  -30.6350 N   0  0  1  0  0  0  0  0  0  0  0  0
   -7.2360   23.7790  -30.4870 C   0  0  0  0  0  0  0  0  0  0  0  0
   -8.1450   23.4130  -31.6750 C   0  0  0  0  0  0  0  0  0  0  0  0
   -8.5700   21.9390  -31.7960 C   0  0  0  0  0  0  0  0  0  0  0  0
   -7.5000   21.0010  -32.2030 N   0  0  0  0  0  0  0  0  0  0  0  0
   -8.0640   19.3540  -32.3530 S   0  0  0  0  0  0  0  0  0  0  0  0
   -9.3830   19.3150  -33.0750 O   0  0  0  0  0  0  0  0  0  0  0  0
   -8.2580   18.7670  -30.9820 O   0  0  0  0  0  0  0  0  0  0  0  0
   -6.8800   18.3750  -33.2170 C   0  0  0  0  0  0  0  0  0  0  0  0
   -6.1130   18.9300  -34.2520 C   0  0  0  0  0  0  0  0  0  0  0  0
   -5.1620   18.1500  -34.9170 C   0  0  0  0  0  0  0  0  0  0  0  0
   -4.9700   16.8150  -34.5490 C   0  0  0  0  0  0  0  0  0  0  0  0
   -4.0470   16.0600  -35.1930 F   0  0  0  0  0  0  0  0  0  0  0  0
   -5.7280   16.2590  -33.5140 C   0  0  0  0  0  0  0  0  0  0  0  0
   -6.6800   17.0380  -32.8480 C   0  0  0  0  0  0  0  0  0  0  0  0
   -6.2120   21.0710  -31.4740 C   0  0  0  0  0  0  0  0  0  0  0  0
   -5.4510   22.4030  -31.6470 C   0  0  0  0  0  0  0  0  0  0  0  0
   -3.4851   24.0361  -27.2029 H   0  0  0  0  0  0  0  0  0  0  0  0
   -4.5725   25.0440  -28.2169 H   0  0  0  0  0  0  0  0  0  0  0  0
   -4.7461   23.2561  -28.2169 H   0  0  0  0  0  0  0  0  0  0  0  0
   -2.1132   24.5168  -29.0395 H   0  0  0  0  0  0  0  0  0  0  0  0
   -2.8333   22.9318  -29.5150 H   0  0  0  0  0  0  0  0  0  0  0  0
   -5.5220   23.0380  -29.7070 H   0  0  0  0  0  0  0  0  0  0  0  0
   -7.6156   23.2525  -29.5989 H   0  0  0  0  0  0  0  0  0  0  0  0
   -7.2745   24.8758  -30.4130 H   0  0  0  0  0  0  0  0  0  0  0  0
   -9.0603   24.0174  -31.5920 H   0  0  0  0  0  0  0  0  0  0  0  0
   -7.5402   23.6124  -32.5719 H   0  0  0  0  0  0  0  0  0  0  0  0
   -8.9514   21.6143  -30.8167 H   0  0  0  0  0  0  0  0  0  0  0  0
   -9.3231   21.9056  -32.5971 H   0  0  0  0  0  0  0  0  0  0  0  0
   -6.2600   19.9811  -34.5411 H   0  0  0  0  0  0  0  0  0  0  0  0
   -4.5644   18.5872  -35.7305 H   0  0  0  0  0  0  0  0  0  0  0  0
   -5.5757   15.2090  -33.2235 H   0  0  0  0  0  0  0  0  0  0  0  0
   -7.2735   16.5997  -32.0321 H   0  0  0  0  0  0  0  0  0  0  0  0
   -6.4153   20.9279  -30.4025 H   0  0  0  0  0  0  0  0  0  0  0  0
   -5.5690   20.2856  -31.8980 H   0  0  0  0  0  0  0  0  0  0  0  0
   -4.3730   22.1966  -31.5738 H   0  0  0  0  0  0  0  0  0  0  0  0
   -5.7415   22.8082  -32.6275 H   0  0  0  0  0  0  0  0  0  0  0  0
  1  2  1  0
  2  3  1  0
  3  4  1  0
  4  5  2  0
  4  6  1  0
  6  7  1  0
  7  8  1  0
  8  9  1  0
  9 10  1  0
 10 11  1  0
 11 12  2  0
 11 13  2  0
 11 14  1  0
 14 15  2  0
 15 16  1  0
 16 17  2  0
 17 18  1  0
 17 19  1  0
 19 20  2  0
 10 21  1  0
 21 22  1  0
 22  6  1  0
 20 14  1  0
  1 23  1  0
  1 24  1  0
  1 25  1  0
  2 26  1  0
  2 27  1  0
  6 28  1  1
  7 29  1  0
  7 30  1  0
  8 31  1  0
  8 32  1  0
  9 33  1  0
  9 34  1  0
 15 35  1  0
 16 36  1  0
 19 37  1  0
 20 38  1  0
 21 39  1  0
 21 40  1  0
 22 41  1  0
 22 42  1  0
M  CHG  2   3  -1   6   1
M  END
>  <UniqueID>  (37) 
36

>  <SMILES>  (37) 
CC[N-]C(=O)[N@H+]1CCCN(S(=O)(=O)c2ccc(F)cc2)CC1

>  <Energy>  (37) 
59.73778361270028

>  <Genealogy>  (37) 
CC[N-]C(=O)[NH+]1CCCN(S(=O)(=O)c2ccc(F)cc2)CC1 (protonated)
CC[N-]C(=O)[N@H+]1CCCN(S(=O)(=O)c2ccc(F)cc2)CC1 (chirality)
CC[N-]C(=O)[N@H+]1CCCN(S(=O)(=O)c2ccc(F)cc2)CC1 (3D coordinates assigned)
CC[N-]C(=O)[N@H+]1CCCN(S(=O)(=O)c2ccc(F)cc2)CC1 (nonaromatic ring conformer: 59.73778361270028 kcal/mol)

>  <smiles>  (37) 
CCNC(=O)N1CCCN(S(=O)(=O)c2ccc(F)cc2)CC1

>  <score_type>  (37) 
oracle

>  <origin>  (37) 
adg

>  <m_score__min__energy>  (37) 
-6.8600000000000003

>  <m_primary>  (37) 
energy

$$$$
38:0
     RDKit          3D

 35 37  0  0  0  0  0  0  0  0999 V2000
   -3.7230   21.4550  -33.3280 C   0  0  0  0  0  0  0  0  0  0  0  0
   -4.5010   21.4590  -32.2450 C   0  0  0  0  0  0  0  0  0  0  0  0
   -4.7260   22.6650  -31.4050 C   0  0  0  0  0  0  0  0  0  0  0  0
   -3.6330   23.4460  -30.9750 C   0  0  0  0  0  0  0  0  0  0  0  0
   -3.8260   24.5380  -30.1250 C   0  0  0  0  0  0  0  0  0  0  0  0
   -2.7380   25.2970  -29.7120 O   0  0  0  0  0  0  0  0  0  0  0  0
   -5.1080   24.8620  -29.6830 C   0  0  0  0  0  0  0  0  0  0  0  0
   -6.2010   24.0970  -30.0900 C   0  0  0  0  0  0  0  0  0  0  0  0
   -6.0290   23.0000  -30.9510 C   0  0  0  0  0  0  0  0  0  0  0  0
   -7.2300   22.2480  -31.3880 C   0  0  0  0  0  0  0  0  0  0  0  0
   -8.4260   22.9290  -31.6500 C   0  0  0  0  0  0  0  0  0  0  0  0
   -9.5380   22.2180  -32.0960 C   0  0  0  0  0  0  0  0  0  0  0  0
   -9.4530   20.8390  -32.2800 C   0  0  0  0  0  0  0  0  0  0  0  0
   -8.2480   20.1760  -32.0020 C   0  0  0  0  0  0  0  0  0  0  0  0
   -8.1470   18.7160  -32.2230 C   0  0  0  0  0  0  0  0  0  0  0  0
   -8.9520   17.9490  -31.6300 O   0  0  0  0  0  0  0  0  0  0  0  0
   -7.1200   18.1280  -33.1050 C   0  0  0  0  0  0  0  0  0  0  0  0
   -6.7660   16.7830  -33.1480 C   0  0  0  0  0  0  0  0  0  0  0  0
   -5.7170   16.5130  -34.0360 C   0  0  0  0  0  0  0  0  0  0  0  0
   -5.2300   17.6380  -34.6840 C   0  0  0  0  0  0  0  0  0  0  0  0
   -6.1030   18.9710  -34.1490 S   0  0  0  0  0  0  0  0  0  0  0  0
   -7.1660   20.8950  -31.5780 N   0  0  0  0  0  0  0  0  0  0  0  0
   -3.5952   20.5303  -33.9100 H   0  0  0  0  0  0  0  0  0  0  0  0
   -3.2091   22.3764  -33.6394 H   0  0  0  0  0  0  0  0  0  0  0  0
   -5.0018   20.5224  -31.9585 H   0  0  0  0  0  0  0  0  0  0  0  0
   -2.6173   23.1925  -31.3126 H   0  0  0  0  0  0  0  0  0  0  0  0
   -5.2576   25.7214  -29.0129 H   0  0  0  0  0  0  0  0  0  0  0  0
   -7.2089   24.3554  -29.7330 H   0  0  0  0  0  0  0  0  0  0  0  0
   -8.4866   24.0177  -31.5046 H   0  0  0  0  0  0  0  0  0  0  0  0
  -10.4817   22.7441  -32.3026 H   0  0  0  0  0  0  0  0  0  0  0  0
  -10.3251   20.2740  -32.6409 H   0  0  0  0  0  0  0  0  0  0  0  0
   -7.2611   16.0082  -32.5442 H   0  0  0  0  0  0  0  0  0  0  0  0
   -5.3167   15.5023  -34.2038 H   0  0  0  0  0  0  0  0  0  0  0  0
   -4.4134   17.6551  -35.4208 H   0  0  0  0  0  0  0  0  0  0  0  0
   -6.2510   20.4100  -31.4350 H   0  0  0  0  0  0  0  0  0  0  0  0
  1  2  2  0
  2  3  1  0
  3  4  2  0
  4  5  1  0
  5  6  1  0
  5  7  2  0
  7  8  1  0
  8  9  2  0
  9 10  1  0
 10 11  2  0
 11 12  1  0
 12 13  2  0
 13 14  1  0
 14 15  1  0
 15 16  2  0
 15 17  1  0
 17 18  2  0
 18 19  1  0
 19 20  2  0
 20 21  1  0
 14 22  2  0
  9  3  1  0
 22 10  1  0
 21 17  1  0
  1 23  1  0
  1 24  1  0
  2 25  1  0
  4 26  1  0
  7 27  1  0
  8 28  1  0
 11 29  1  0
 12 30  1  0
 13 31  1  0
 18 32  1  0
 19 33  1  0
 20 34  1  0
 22 35  1  0
M  CHG  2   6  -1  22   1
M  END
>  <UniqueID>  (38) 
37

>  <SMILES>  (38) 
C=Cc1cc([O-])ccc1-c1cccc(C(=O)c2cccs2)[nH+]1

>  <Energy>  (38) 
76.14903412064359

>  <Genealogy>  (38) 
C=Cc1cc([O-])ccc1-c1cccc(C(=O)c2cccs2)[nH+]1 (protonated)
C=Cc1cc([O-])ccc1-c1cccc(C(=O)c2cccs2)[nH+]1 (3D coordinates assigned)
C=Cc1cc([O-])ccc1-c1cccc(C(=O)c2cccs2)[nH+]1 (optimized conformer: 76.14903412064359 kcal/mol)

>  <smiles>  (38) 
C=Cc1cc(O)ccc1-c1cccc(C(=O)c2cccs2)n1

>  <score_type>  (38) 
oracle

>  <origin>  (38) 
adg

>  <m_score__min__energy>  (38) 
-11.619999999999999

>  <m_primary>  (38) 
energy

$$$$
39:0
     RDKit          3D

 36 38  0  0  0  0  0  0  0  0999 V2000
   -5.3760   25.9130  -30.4700 C   0  0  0  0  0  0  0  0  0  0  0  0
   -4.1960   25.1940  -30.8140 O   0  0  0  0  0  0  0  0  0  0  0  0
   -4.0910   23.7960  -30.8080 C   0  0  0  0  0  0  0  0  0  0  0  0
   -3.1630   23.2000  -29.9460 C   0  0  0  0  0  0  0  0  0  0  0  0
   -3.0150   21.8120  -29.9140 C   0  0  0  0  0  0  0  0  0  0  0  0
   -3.7940   21.0040  -30.7440 C   0  0  0  0  0  0  0  0  0  0  0  0
   -4.7320   21.5800  -31.6120 C   0  0  0  0  0  0  0  0  0  0  0  0
   -5.5290   20.7520  -32.4770 N   0  0  0  0  0  0  0  0  0  0  0  0
   -5.1130   19.9120  -33.4600 C   0  0  0  0  0  0  0  0  0  0  0  0
   -3.7180   19.4790  -33.6950 C   0  0  0  0  0  0  0  0  0  0  0  0
   -3.3880   18.1190  -33.8110 C   0  0  0  0  0  0  0  0  0  0  0  0
   -2.0600   17.7480  -34.0360 C   0  0  0  0  0  0  0  0  0  0  0  0
   -1.0960   18.7000  -34.1570 N   0  0  0  0  0  0  0  0  0  0  0  0
   -1.3900   20.0250  -34.0680 C   0  0  0  0  0  0  0  0  0  0  0  0
   -2.7050   20.4380  -33.8430 C   0  0  0  0  0  0  0  0  0  0  0  0
   -6.1470   19.5000  -34.2250 N   0  0  0  0  0  0  0  0  0  0  0  0
   -7.2290   20.0790  -33.7310 N   0  0  0  0  0  0  0  0  0  0  0  0
   -6.8600   20.8330  -32.6830 C   0  0  0  0  0  0  0  0  0  0  0  0
   -7.9880   21.9030  -31.7860 S   0  0  0  0  0  0  0  0  0  0  0  0
   -9.3970   20.7630  -31.9580 C   0  0  0  0  0  0  0  0  0  0  0  0
   -4.8810   22.9770  -31.6380 C   0  0  0  0  0  0  0  0  0  0  0  0
   -5.4659   25.9678  -29.3750 H   0  0  0  0  0  0  0  0  0  0  0  0
   -5.3195   26.9303  -30.8846 H   0  0  0  0  0  0  0  0  0  0  0  0
   -6.2542   25.3963  -30.8846 H   0  0  0  0  0  0  0  0  0  0  0  0
   -2.5456   23.8300  -29.2888 H   0  0  0  0  0  0  0  0  0  0  0  0
   -2.2826   21.3540  -29.2329 H   0  0  0  0  0  0  0  0  0  0  0  0
   -3.6713   19.9112  -30.7168 H   0  0  0  0  0  0  0  0  0  0  0  0
   -4.1703   17.3505  -33.7252 H   0  0  0  0  0  0  0  0  0  0  0  0
   -1.7934   16.6838  -34.1155 H   0  0  0  0  0  0  0  0  0  0  0  0
   -0.5903   20.7729  -34.1735 H   0  0  0  0  0  0  0  0  0  0  0  0
   -2.9451   21.5097  -33.7821 H   0  0  0  0  0  0  0  0  0  0  0  0
   -8.1910   19.9740  -34.1230 H   0  0  0  0  0  0  0  0  0  0  0  0
   -9.7569   20.4718  -30.9602 H   0  0  0  0  0  0  0  0  0  0  0  0
  -10.2076   21.2624  -32.5089 H   0  0  0  0  0  0  0  0  0  0  0  0
   -9.0778   19.8660  -32.5089 H   0  0  0  0  0  0  0  0  0  0  0  0
   -5.6204   23.4345  -32.3118 H   0  0  0  0  0  0  0  0  0  0  0  0
  1  2  1  0
  2  3  1  0
  3  4  2  0
  4  5  1  0
  5  6  2  0
  6  7  1  0
  7  8  1  0
  8  9  1  0
  9 10  1  0
 10 11  2  0
 11 12  1  0
 12 13  2  0
 13 14  1  0
 14 15  2  0
  9 16  2  0
 16 17  1  0
 17 18  2  0
 18 19  1  0
 19 20  1  0
  7 21  2  0
 21  3  1  0
 18  8  1  0
 15 10  1  0
  1 22  1  0
  1 23  1  0
  1 24  1  0
  4 25  1  0
  5 26  1  0
  6 27  1  0
 11 28  1  0
 12 29  1  0
 14 30  1  0
 15 31  1  0
 17 32  1  0
 20 33  1  0
 20 34  1  0
 20 35  1  0
 21 36  1  0
M  CHG  1  17   1
M  END
>  <UniqueID>  (39) 
38

>  <SMILES>  (39) 
COc1cccc(-n2c(-c3ccncc3)n[nH+]c2SC)c1

>  <Energy>  (39) 
79.3313652761314

>  <Genealogy>  (39) 
COc1cccc(-n2c(-c3ccncc3)n[nH+]c2SC)c1 (protonated)
COc1cccc(-n2c(-c3ccncc3)n[nH+]c2SC)c1 (3D coordinates assigned)
COc1cccc(-n2c(-c3ccncc3)n[nH+]c2SC)c1 (optimized conformer: 79.3313652761314 kcal/mol)

>  <smiles>  (39) 
COc1cccc(-n2c(SC)nnc2-c2ccncc2)c1

>  <score_type>  (39) 
oracle

>  <origin>  (39) 
adg

>  <m_score__min__energy>  (39) 
-7.4400000000000004

>  <m_primary>  (39) 
energy

$$$$
40:0
     RDKit          3D

 43 44  0  0  0  0  0  0  0  0999 V2000
   -6.8180   15.7430  -34.2290 C   0  0  0  0  0  0  0  0  0  0  0  0
   -6.1470   17.0800  -34.5840 C   0  0  0  0  0  0  0  0  0  0  0  0
   -5.3120   17.6490  -33.4990 N   0  0  0  0  0  0  0  0  0  0  0  0
   -5.2730   16.7970  -32.2910 C   0  0  0  0  0  0  0  0  0  0  0  0
   -6.1310   17.4000  -31.1810 C   0  0  0  0  0  0  0  0  0  0  0  0
   -3.9690   18.0710  -33.9620 C   0  0  0  0  0  0  0  0  0  0  0  0
   -3.6970   19.5260  -33.5590 C   0  0  0  0  0  0  0  0  0  0  0  0
   -4.9350   20.2120  -33.1650 N   0  0  0  0  0  0  0  0  0  0  0  0
   -4.6150   21.4240  -32.4720 C   0  0  0  0  0  0  0  0  0  0  0  0
   -5.2650   22.6240  -32.2520 C   0  0  0  0  0  0  0  0  0  0  0  0
   -6.5250   23.1670  -32.6550 N   0  0  0  0  0  0  0  0  0  0  0  0
   -7.7650   22.8310  -31.9660 C   0  0  0  0  0  0  0  0  0  0  0  0
   -8.0820   21.3800  -32.1460 C   0  0  0  0  0  0  0  0  0  0  0  0
   -9.1040   20.6940  -31.5210 C   0  0  0  0  0  0  0  0  0  0  0  0
   -9.0080   19.3950  -31.9750 C   0  0  0  0  0  0  0  0  0  0  0  0
   -7.9370   19.3710  -32.8460 C   0  0  0  0  0  0  0  0  0  0  0  0
   -7.4050   20.5690  -32.9270 O   0  0  0  0  0  0  0  0  0  0  0  0
   -4.1970   23.0600  -31.4900 C   0  0  0  0  0  0  0  0  0  0  0  0
   -3.9230   24.1140  -30.8580 O   0  0  0  0  0  0  0  0  0  0  0  0
   -3.5570   21.8560  -31.6960 C   0  0  0  0  0  0  0  0  0  0  0  0
   -2.4610   21.3550  -31.3280 O   0  0  0  0  0  0  0  0  0  0  0  0
   -6.8706   15.6382  -33.1353 H   0  0  0  0  0  0  0  0  0  0  0  0
   -7.8345   15.7200  -34.6489 H   0  0  0  0  0  0  0  0  0  0  0  0
   -6.2290   14.9143  -34.6489 H   0  0  0  0  0  0  0  0  0  0  0  0
   -5.5070   16.9215  -35.4645 H   0  0  0  0  0  0  0  0  0  0  0  0
   -6.9573   17.8004  -34.7695 H   0  0  0  0  0  0  0  0  0  0  0  0
   -5.6562   15.7968  -32.5414 H   0  0  0  0  0  0  0  0  0  0  0  0
   -4.2333   16.7285  -31.9384 H   0  0  0  0  0  0  0  0  0  0  0  0
   -5.7202   17.1113  -30.2023 H   0  0  0  0  0  0  0  0  0  0  0  0
   -6.1290   18.4963  -31.2706 H   0  0  0  0  0  0  0  0  0  0  0  0
   -7.1618   17.0267  -31.2706 H   0  0  0  0  0  0  0  0  0  0  0  0
   -3.2077   17.4205  -33.5067 H   0  0  0  0  0  0  0  0  0  0  0  0
   -3.9281   17.9909  -35.0583 H   0  0  0  0  0  0  0  0  0  0  0  0
   -2.9957   19.5378  -32.7116 H   0  0  0  0  0  0  0  0  0  0  0  0
   -3.2698   20.0518  -34.4256 H   0  0  0  0  0  0  0  0  0  0  0  0
   -5.5010   20.4550  -34.0100 H   0  0  0  0  0  0  0  0  0  0  0  0
   -5.4970   19.6030  -32.5260 H   0  0  0  0  0  0  0  0  0  0  0  0
   -6.5530   23.8160  -33.4720 H   0  0  0  0  0  0  0  0  0  0  0  0
   -7.6544   23.0480  -30.8933 H   0  0  0  0  0  0  0  0  0  0  0  0
   -8.5837   23.4314  -32.3893 H   0  0  0  0  0  0  0  0  0  0  0  0
   -9.8400   21.0982  -30.8105 H   0  0  0  0  0  0  0  0  0  0  0  0
   -9.6544   18.5489  -31.6988 H   0  0  0  0  0  0  0  0  0  0  0  0
   -7.5829   18.4828  -33.3898 H   0  0  0  0  0  0  0  0  0  0  0  0
  1  2  1  0
  2  3  1  0
  3  4  1  0
  4  5  1  0
  3  6  1  0
  6  7  1  0
  7  8  1  0
  8  9  1  0
  9 10  2  0
 10 11  1  0
 11 12  1  0
 12 13  1  0
 13 14  2  0
 14 15  1  0
 15 16  2  0
 16 17  1  0
 10 18  1  0
 18 19  2  0
 18 20  1  0
 20 21  2  0
 20  9  1  0
 17 13  1  0
  1 22  1  0
  1 23  1  0
  1 24  1  0
  2 25  1  0
  2 26  1  0
  4 27  1  0
  4 28  1  0
  5 29  1  0
  5 30  1  0
  5 31  1  0
  6 32  1  0
  6 33  1  0
  7 34  1  0
  7 35  1  0
  8 36  1  0
  8 37  1  0
 11 38  1  0
 12 39  1  0
 12 40  1  0
 14 41  1  0
 15 42  1  0
 16 43  1  0
M  CHG  1   8   1
M  END
>  <UniqueID>  (40) 
39

>  <SMILES>  (40) 
CCN(CC)CC[NH2+]c1c(NCc2ccco2)c(=O)c1=O

>  <Energy>  (40) 
53.75614845306889

>  <Genealogy>  (40) 
CCN(CC)CC[NH2+]c1c(NCc2ccco2)c(=O)c1=O (protonated)
CCN(CC)CC[NH2+]c1c(NCc2ccco2)c(=O)c1=O (3D coordinates assigned)
CCN(CC)CC[NH2+]c1c(NCc2ccco2)c(=O)c1=O (optimized conformer: 53.75614845306889 kcal/mol)

>  <smiles>  (40) 
CCN(CC)CCNc1c(NCc2ccco2)c(=O)c1=O

>  <score_type>  (40) 
oracle

>  <origin>  (40) 
adg

>  <m_score__min__energy>  (40) 
-6.0599999999999996

>  <m_primary>  (40) 
energy

$$$$
41:0
     RDKit          3D

 31 32  0  0  0  0  0  0  0  0999 V2000
   -4.0120   22.2300  -32.2140 C   0  0  0  0  0  0  0  0  0  0  0  0
   -3.5170   21.0420  -33.0360 C   0  0  0  0  0  0  0  0  0  0  0  0
   -3.8590   19.6900  -32.3900 C   0  0  0  0  0  0  0  0  0  0  0  0
   -4.4360   18.7490  -33.3550 N   0  0  0  0  0  0  0  0  0  0  0  0
   -3.6470   17.9850  -34.3140 C   0  0  0  0  0  0  0  0  0  0  0  0
   -4.6780   17.4810  -35.3360 C   0  0  0  0  0  0  0  0  0  0  0  0
   -5.9490   18.0150  -34.8720 N   0  0  0  0  0  0  0  0  0  0  0  0
   -5.7910   18.6910  -33.7860 C   0  0  0  0  0  0  0  0  0  0  0  0
   -6.9260   19.3120  -33.0710 C   0  0  0  0  0  0  0  0  0  0  0  0
   -7.9980   18.5290  -32.6180 C   0  0  0  0  0  0  0  0  0  0  0  0
   -9.0720   19.1240  -31.9490 C   0  0  0  0  0  0  0  0  0  0  0  0
   -9.0860   20.5050  -31.7370 C   0  0  0  0  0  0  0  0  0  0  0  0
   -8.0290   21.2950  -32.2000 C   0  0  0  0  0  0  0  0  0  0  0  0
   -8.0500   23.0290  -31.9380 Cl  0  0  0  0  0  0  0  0  0  0  0  0
   -6.9540   20.7020  -32.8710 C   0  0  0  0  0  0  0  0  0  0  0  0
   -3.9161   21.9999  -31.1426 H   0  0  0  0  0  0  0  0  0  0  0  0
   -3.4091   23.1183  -32.4536 H   0  0  0  0  0  0  0  0  0  0  0  0
   -5.0673   22.4275  -32.4536 H   0  0  0  0  0  0  0  0  0  0  0  0
   -3.9831   21.0843  -34.0315 H   0  0  0  0  0  0  0  0  0  0  0  0
   -2.4210   21.1135  -33.0965 H   0  0  0  0  0  0  0  0  0  0  0  0
   -2.9393   19.2526  -31.9742 H   0  0  0  0  0  0  0  0  0  0  0  0
   -4.6062   19.8695  -31.6029 H   0  0  0  0  0  0  0  0  0  0  0  0
   -2.8970   18.6260  -34.8004 H   0  0  0  0  0  0  0  0  0  0  0  0
   -3.0882   17.1644  -33.8403 H   0  0  0  0  0  0  0  0  0  0  0  0
   -4.4430   17.8580  -36.3423 H   0  0  0  0  0  0  0  0  0  0  0  0
   -4.6894   16.3835  -35.4092 H   0  0  0  0  0  0  0  0  0  0  0  0
   -6.8670   17.8460  -35.3410 H   0  0  0  0  0  0  0  0  0  0  0  0
   -7.9937   17.4425  -32.7897 H   0  0  0  0  0  0  0  0  0  0  0  0
   -9.9066   18.5043  -31.5893 H   0  0  0  0  0  0  0  0  0  0  0  0
   -9.9289   20.9711  -31.2056 H   0  0  0  0  0  0  0  0  0  0  0  0
   -6.1282   21.3262  -33.2430 H   0  0  0  0  0  0  0  0  0  0  0  0
  1  2  1  0
  2  3  1  0
  3  4  1  0
  4  5  1  0
  5  6  1  0
  6  7  1  0
  7  8  2  0
  8  9  1  0
  9 10  2  0
 10 11  1  0
 11 12  2  0
 12 13  1  0
 13 14  1  0
 13 15  2  0
  8  4  1  0
 15  9  1  0
  1 16  1  0
  1 17  1  0
  1 18  1  0
  2 19  1  0
  2 20  1  0
  3 21  1  0
  3 22  1  0
  5 23  1  0
  5 24  1  0
  6 25  1  0
  6 26  1  0
  7 27  1  0
 10 28  1  0
 11 29  1  0
 12 30  1  0
 15 31  1  0
M  CHG  1   7   1
M  END
>  <UniqueID>  (41) 
40

>  <SMILES>  (41) 
CCCN1CC[NH+]=C1c1cccc(Cl)c1

>  <Energy>  (41) 
40.1205419124699

>  <Genealogy>  (41) 
CCCN1CC[NH+]=C1c1cccc(Cl)c1 (protonated)
CCCN1CC[NH+]=C1c1cccc(Cl)c1 (3D coordinates assigned)
CCCN1CC[NH+]=C1c1cccc(Cl)c1 (nonaromatic ring conformer: 40.1205419124699 kcal/mol)

>  <smiles>  (41) 
CCCN1CCN=C1c1cccc(Cl)c1

>  <score_type>  (41) 
oracle

>  <origin>  (41) 
adg

>  <m_score__min__energy>  (41) 
-5.6600000000000001

>  <m_primary>  (41) 
energy

$$$$
42:0
     RDKit          3D

 45 48  0  0  0  0  0  0  0  0999 V2000
   -2.4740   21.1760  -28.3660 C   0  0  0  0  0  0  0  0  0  0  0  0
   -2.7360   21.8500  -29.6390 N   0  0  0  0  0  0  0  0  0  0  0  0
   -1.5930   22.2740  -30.4450 C   0  0  0  0  0  0  0  0  0  0  0  0
   -3.9930   22.5210  -29.8180 C   0  0  0  0  0  0  0  0  0  0  0  0
   -4.9700   21.9020  -30.5310 N   0  0  0  0  0  0  0  0  0  0  0  0
   -6.1660   22.4950  -30.7880 C   0  0  0  0  0  0  0  0  0  0  0  0
   -7.1720   21.7850  -31.5470 N   0  0  0  0  0  0  0  0  0  0  0  0
   -8.4130   22.4670  -31.9420 C   0  0  0  0  0  0  0  0  0  0  0  0
   -9.6070   21.4910  -31.9590 C   0  0  0  0  0  0  0  0  0  0  0  0
   -9.2870   20.1250  -32.4260 N   0  0  0  0  0  0  0  0  0  0  0  0
   -7.9800   20.0210  -33.0820 C   0  0  0  0  0  0  0  0  0  0  0  0
   -6.8670   20.4720  -32.1320 C   0  0  0  0  0  0  0  0  0  0  0  0
   -6.3910   23.7600  -30.3260 N   0  0  0  0  0  0  0  0  0  0  0  0
   -5.4500   24.4190  -29.6010 C   0  0  0  0  0  0  0  0  0  0  0  0
   -4.2210   23.8150  -29.3070 C   0  0  0  0  0  0  0  0  0  0  0  0
   -3.2380   24.5280  -28.4540 C   0  0  0  0  0  0  0  0  0  0  0  0
   -3.2920   24.5270  -27.0930 N   0  0  0  0  0  0  0  0  0  0  0  0
   -2.2460   25.2940  -26.7550 C   0  0  0  0  0  0  0  0  0  0  0  0
   -1.8190   25.6370  -25.4750 C   0  0  0  0  0  0  0  0  0  0  0  0
   -0.6880   26.4680  -25.3640 C   0  0  0  0  0  0  0  0  0  0  0  0
   -0.2330   26.8310  -24.1390 F   0  0  0  0  0  0  0  0  0  0  0  0
   -0.0230   26.9270  -26.5260 C   0  0  0  0  0  0  0  0  0  0  0  0
   -0.4870   26.5580  -27.8040 C   0  0  0  0  0  0  0  0  0  0  0  0
   -1.6090   25.7350  -27.8710 C   0  0  0  0  0  0  0  0  0  0  0  0
   -2.2200   25.2670  -28.9690 N   0  0  0  0  0  0  0  0  0  0  0  0
   -2.7351   21.8477  -27.5349 H   0  0  0  0  0  0  0  0  0  0  0  0
   -3.0821   20.2615  -28.3033 H   0  0  0  0  0  0  0  0  0  0  0  0
   -1.4079   20.9124  -28.3033 H   0  0  0  0  0  0  0  0  0  0  0  0
   -0.7700   22.5793  -29.7821 H   0  0  0  0  0  0  0  0  0  0  0  0
   -1.2620   21.4388  -31.0798 H   0  0  0  0  0  0  0  0  0  0  0  0
   -1.8867   23.1230  -31.0798 H   0  0  0  0  0  0  0  0  0  0  0  0
   -8.6212   23.2756  -31.2259 H   0  0  0  0  0  0  0  0  0  0  0  0
   -8.2798   22.8708  -32.9565 H   0  0  0  0  0  0  0  0  0  0  0  0
  -10.0036   21.4182  -30.9356 H   0  0  0  0  0  0  0  0  0  0  0  0
  -10.3312   21.9015  -32.6781 H   0  0  0  0  0  0  0  0  0  0  0  0
   -9.2920   19.4770  -31.6020 H   0  0  0  0  0  0  0  0  0  0  0  0
   -7.8042   18.9755  -33.3755 H   0  0  0  0  0  0  0  0  0  0  0  0
   -7.9747   20.6697  -33.9704 H   0  0  0  0  0  0  0  0  0  0  0  0
   -6.7634   19.7335  -31.3234 H   0  0  0  0  0  0  0  0  0  0  0  0
   -5.9306   20.5526  -32.7035 H   0  0  0  0  0  0  0  0  0  0  0  0
   -7.2890   24.2530  -30.5210 H   0  0  0  0  0  0  0  0  0  0  0  0
   -5.6555   25.4379  -29.2410 H   0  0  0  0  0  0  0  0  0  0  0  0
   -2.3468   25.2715  -24.5818 H   0  0  0  0  0  0  0  0  0  0  0  0
    0.8606   27.5752  -26.4308 H   0  0  0  0  0  0  0  0  0  0  0  0
    0.0186   26.9073  -28.7164 H   0  0  0  0  0  0  0  0  0  0  0  0
  1  2  1  0
  2  3  1  0
  2  4  1  0
  4  5  2  0
  5  6  1  0
  6  7  1  0
  7  8  1  0
  8  9  1  0
  9 10  1  0
 10 11  1  0
 11 12  1  0
  6 13  2  0
 13 14  1  0
 14 15  2  0
 15 16  1  0
 16 17  2  0
 17 18  1  0
 18 19  2  0
 19 20  1  0
 20 21  1  0
 20 22  2  0
 22 23  1  0
 23 24  2  0
 24 25  1  0
 15  4  1  0
 25 16  1  0
 12  7  1  0
 24 18  1  0
  1 26  1  0
  1 27  1  0
  1 28  1  0
  3 29  1  0
  3 30  1  0
  3 31  1  0
  8 32  1  0
  8 33  1  0
  9 34  1  0
  9 35  1  0
 10 36  1  0
 11 37  1  0
 11 38  1  0
 12 39  1  0
 12 40  1  0
 13 41  1  0
 14 42  1  0
 19 43  1  0
 22 44  1  0
 23 45  1  0
M  CHG  2  13   1  25  -1
M  END
>  <UniqueID>  (42) 
41

>  <SMILES>  (42) 
CN(C)c1nc(N2CCNCC2)[nH+]cc1-c1nc2cc(F)ccc2[n-]1

>  <Energy>  (42) 
94.70811218078913

>  <Genealogy>  (42) 
CN(C)c1nc(N2CCNCC2)[nH+]cc1-c1nc2cc(F)ccc2[n-]1 (protonated)
CN(C)c1nc(N2CCNCC2)[nH+]cc1-c1nc2cc(F)ccc2[n-]1 (3D coordinates assigned)
CN(C)c1nc(N2CCNCC2)[nH+]cc1-c1nc2cc(F)ccc2[n-]1 (nonaromatic ring conformer: 94.70811218078913 kcal/mol)

>  <smiles>  (42) 
CN(C)c1nc(N2CCNCC2)ncc1-c1nc2cc(F)ccc2[nH]1

>  <score_type>  (42) 
oracle

>  <origin>  (42) 
adg

>  <m_score__min__energy>  (42) 
-7

>  <m_primary>  (42) 
energy

$$$$
43:0
     RDKit          3D

 42 44  0  0  0  0  0  0  0  0999 V2000
   -0.8740   26.6410  -27.7210 C   0  0  0  0  0  0  0  0  0  0  0  0
   -1.2600   26.0490  -28.9410 O   0  0  0  0  0  0  0  0  0  0  0  0
   -0.9750   24.6670  -28.9000 C   0  0  0  0  0  0  0  0  0  0  0  0
   -2.2080   23.9080  -28.4130 C   0  0  0  0  0  0  0  0  0  0  0  0
   -3.4380   24.5510  -28.8760 N   0  0  0  0  0  0  0  0  0  0  0  0
   -3.9220   24.5610  -30.2250 C   0  0  0  0  0  0  0  0  0  0  0  0
   -3.9890   25.6590  -30.8360 O   0  0  0  0  0  0  0  0  0  0  0  0
   -4.3310   23.3270  -30.9240 C   0  0  0  0  0  0  0  0  0  0  0  0
   -5.6700   23.1140  -31.2760 C   0  0  0  0  0  0  0  0  0  0  0  0
   -6.0470   21.9490  -31.9510 C   0  0  0  0  0  0  0  0  0  0  0  0
   -5.0850   20.9840  -32.3040 C   0  0  0  0  0  0  0  0  0  0  0  0
   -5.4550   19.7790  -33.0050 N   0  0  0  0  0  0  0  0  0  0  0  0
   -5.2070   18.5020  -32.6440 C   0  0  0  0  0  0  0  0  0  0  0  0
   -5.7700   17.6930  -33.6170 C   0  0  0  0  0  0  0  0  0  0  0  0
   -5.7780   16.2080  -33.6620 C   0  0  0  0  0  0  0  0  0  0  0  0
   -6.8600   15.5130  -34.2370 C   0  0  0  0  0  0  0  0  0  0  0  0
   -6.8620   14.1150  -34.2860 C   0  0  0  0  0  0  0  0  0  0  0  0
   -5.7880   13.3950  -33.7610 C   0  0  0  0  0  0  0  0  0  0  0  0
   -4.7110   14.0690  -33.1860 C   0  0  0  0  0  0  0  0  0  0  0  0
   -4.7020   15.4660  -33.1360 C   0  0  0  0  0  0  0  0  0  0  0  0
   -6.3370   18.5110  -34.5280 N   0  0  0  0  0  0  0  0  0  0  0  0
   -6.1380   19.7610  -34.1400 N   0  0  0  0  0  0  0  0  0  0  0  0
   -3.7400   21.2110  -31.9610 C   0  0  0  0  0  0  0  0  0  0  0  0
   -3.3660   22.3770  -31.2860 C   0  0  0  0  0  0  0  0  0  0  0  0
   -1.2638   26.0432  -26.8839 H   0  0  0  0  0  0  0  0  0  0  0  0
    0.2238   26.6803  -27.6636 H   0  0  0  0  0  0  0  0  0  0  0  0
   -1.2809   27.6614  -27.6636 H   0  0  0  0  0  0  0  0  0  0  0  0
   -0.7038   24.3183  -29.9074 H   0  0  0  0  0  0  0  0  0  0  0  0
   -0.1365   24.4854  -28.2115 H   0  0  0  0  0  0  0  0  0  0  0  0
   -2.1727   22.8789  -28.8000 H   0  0  0  0  0  0  0  0  0  0  0  0
   -2.2064   23.9071  -27.3130 H   0  0  0  0  0  0  0  0  0  0  0  0
   -6.4293   23.8676  -31.0199 H   0  0  0  0  0  0  0  0  0  0  0  0
   -7.1039   21.7853  -32.2082 H   0  0  0  0  0  0  0  0  0  0  0  0
   -4.6622   18.1680  -31.7487 H   0  0  0  0  0  0  0  0  0  0  0  0
   -7.7106   16.0744  -34.6510 H   0  0  0  0  0  0  0  0  0  0  0  0
   -7.7113   13.5825  -34.7390 H   0  0  0  0  0  0  0  0  0  0  0  0
   -5.7909   12.2957  -33.8007 H   0  0  0  0  0  0  0  0  0  0  0  0
   -3.8663   13.4998  -32.7707 H   0  0  0  0  0  0  0  0  0  0  0  0
   -3.8479   15.9902  -32.6823 H   0  0  0  0  0  0  0  0  0  0  0  0
   -6.8420   18.2470  -35.4010 H   0  0  0  0  0  0  0  0  0  0  0  0
   -2.9761   20.4652  -32.2259 H   0  0  0  0  0  0  0  0  0  0  0  0
   -2.3084   22.5498  -31.0376 H   0  0  0  0  0  0  0  0  0  0  0  0
  1  2  1  0
  2  3  1  0
  3  4  1  0
  4  5  1  0
  5  6  1  0
  6  7  2  0
  6  8  1  0
  8  9  2  0
  9 10  1  0
 10 11  2  0
 11 12  1  0
 12 13  1  0
 13 14  2  0
 14 15  1  0
 15 16  2  0
 16 17  1  0
 17 18  2  0
 18 19  1  0
 19 20  2  0
 14 21  1  0
 21 22  2  0
 11 23  1  0
 23 24  2  0
 24  8  1  0
 22 12  1  0
 20 15  1  0
  1 25  1  0
  1 26  1  0
  1 27  1  0
  3 28  1  0
  3 29  1  0
  4 30  1  0
  4 31  1  0
  9 32  1  0
 10 33  1  0
 13 34  1  0
 16 35  1  0
 17 36  1  0
 18 37  1  0
 19 38  1  0
 20 39  1  0
 21 40  1  0
 23 41  1  0
 24 42  1  0
M  CHG  2   5  -1  21   1
M  END
>  <UniqueID>  (43) 
42

>  <SMILES>  (43) 
COCC[N-]C(=O)c1ccc(-n2cc(-c3ccccc3)[nH+]n2)cc1

>  <Energy>  (43) 
86.9672829291993

>  <Genealogy>  (43) 
COCC[N-]C(=O)c1ccc(-n2cc(-c3ccccc3)[nH+]n2)cc1 (protonated)
COCC[N-]C(=O)c1ccc(-n2cc(-c3ccccc3)[nH+]n2)cc1 (3D coordinates assigned)
COCC[N-]C(=O)c1ccc(-n2cc(-c3ccccc3)[nH+]n2)cc1 (optimized conformer: 86.9672829291993 kcal/mol)

>  <smiles>  (43) 
COCCNC(=O)c1ccc(-n2cc(-c3ccccc3)nn2)cc1

>  <score_type>  (43) 
oracle

>  <origin>  (43) 
adg

>  <m_score__min__energy>  (43) 
-9.6799999999999997

>  <m_primary>  (43) 
energy

$$$$
44:0
     RDKit          3D

 47 50  0  0  0  0  0  0  0  0999 V2000
   -7.7620   21.8190  -31.9680 C   0  0  0  0  0  0  0  0  0  0  0  0
   -8.0500   20.3900  -32.0300 N   0  0  0  0  0  0  0  0  0  0  0  0
   -9.1370   19.7930  -31.5040 C   0  0  0  0  0  0  0  0  0  0  0  0
   -9.1170   18.4430  -31.7920 C   0  0  0  0  0  0  0  0  0  0  0  0
   -7.9670   18.2080  -32.5200 C   0  0  0  0  0  0  0  0  0  0  0  0
   -7.3200   19.4240  -32.6300 C   0  0  0  0  0  0  0  0  0  0  0  0
   -6.0470   19.6290  -33.3480 C   0  0  0  0  0  0  0  0  0  0  0  0
   -6.0050   19.3560  -34.5790 O   0  0  0  0  0  0  0  0  0  0  0  0
   -4.8580   20.1010  -32.6770 N   0  0  0  0  0  0  0  0  0  0  0  0
   -4.5670   19.6580  -31.3040 C   0  0  0  0  0  0  0  0  0  0  0  0
   -3.8110   20.7260  -30.4850 C   0  0  0  0  0  0  0  0  0  0  0  0
   -2.9290   21.7000  -31.3370 C   0  0  0  0  0  0  0  0  0  0  0  0
   -2.5380   21.0290  -32.6720 C   0  0  0  0  0  0  0  0  0  0  0  0
   -3.7810   20.6720  -33.5010 C   0  0  0  0  0  0  0  0  0  0  0  0
   -3.6760   23.0440  -31.5750 C   0  0  0  0  0  0  0  0  0  0  0  0
   -3.1310   23.9200  -30.5180 C   0  0  0  0  0  0  0  0  0  0  0  0
   -3.5710   25.0760  -30.2790 O   0  0  0  0  0  0  0  0  0  0  0  0
   -1.9970   23.3640  -29.8740 N   0  0  0  0  0  0  0  0  0  0  0  0
   -1.2240   23.9790  -28.8240 C   0  0  0  0  0  0  0  0  0  0  0  0
    0.1790   23.9180  -28.8390 C   0  0  0  0  0  0  0  0  0  0  0  0
    0.9020   24.4900  -27.8380 N   0  0  0  0  0  0  0  0  0  0  0  0
    0.3050   25.1240  -26.7950 C   0  0  0  0  0  0  0  0  0  0  0  0
   -1.0870   25.1980  -26.7280 C   0  0  0  0  0  0  0  0  0  0  0  0
   -1.9370   26.0680  -25.2560 Br  0  0  0  0  0  0  0  0  0  0  0  0
   -1.8530   24.6190  -27.7440 C   0  0  0  0  0  0  0  0  0  0  0  0
   -1.6560   22.1140  -30.5360 C   0  0  0  0  0  0  0  0  0  0  0  0
   -7.6983   22.1349  -30.9163 H   0  0  0  0  0  0  0  0  0  0  0  0
   -6.8048   22.0223  -32.4705 H   0  0  0  0  0  0  0  0  0  0  0  0
   -8.5657   22.3772  -32.4705 H   0  0  0  0  0  0  0  0  0  0  0  0
   -9.9236   20.3050  -30.9303 H   0  0  0  0  0  0  0  0  0  0  0  0
   -9.8714   17.6982  -31.4984 H   0  0  0  0  0  0  0  0  0  0  0  0
   -7.6325   17.2440  -32.9308 H   0  0  0  0  0  0  0  0  0  0  0  0
   -5.5170   19.4324  -30.7975 H   0  0  0  0  0  0  0  0  0  0  0  0
   -3.9221   18.7693  -31.3696 H   0  0  0  0  0  0  0  0  0  0  0  0
   -4.5524   21.3258  -29.9368 H   0  0  0  0  0  0  0  0  0  0  0  0
   -3.1218   20.1804  -29.8237 H   0  0  0  0  0  0  0  0  0  0  0  0
   -1.9081   21.7211  -33.2501 H   0  0  0  0  0  0  0  0  0  0  0  0
   -1.9914   20.1011  -32.4478 H   0  0  0  0  0  0  0  0  0  0  0  0
   -4.1548   21.5844  -33.9886 H   0  0  0  0  0  0  0  0  0  0  0  0
   -3.4852   19.9131  -34.2403 H   0  0  0  0  0  0  0  0  0  0  0  0
   -3.4558   23.4469  -32.5746 H   0  0  0  0  0  0  0  0  0  0  0  0
   -4.7707   22.9443  -31.5331 H   0  0  0  0  0  0  0  0  0  0  0  0
    0.6959   23.4055  -29.6637 H   0  0  0  0  0  0  0  0  0  0  0  0
    0.9188   25.5789  -26.0036 H   0  0  0  0  0  0  0  0  0  0  0  0
   -2.9510   24.6649  -27.6973 H   0  0  0  0  0  0  0  0  0  0  0  0
   -0.8049   22.2605  -31.2173 H   0  0  0  0  0  0  0  0  0  0  0  0
   -1.3610   21.3390  -29.8133 H   0  0  0  0  0  0  0  0  0  0  0  0
  1  2  1  0
  2  3  1  0
  3  4  2  0
  4  5  1  0
  5  6  2  0
  6  7  1  0
  7  8  2  0
  7  9  1  0
  9 10  1  0
 10 11  1  0
 11 12  1  0
 12 13  1  0
 13 14  1  0
 12 15  1  0
 15 16  1  0
 16 17  2  0
 16 18  1  0
 18 19  1  0
 19 20  2  0
 20 21  1  0
 21 22  2  0
 22 23  1  0
 23 24  1  0
 23 25  2  0
 18 26  1  0
  6  2  1  0
 14  9  1  0
 25 19  1  0
 26 12  1  0
  1 27  1  0
  1 28  1  0
  1 29  1  0
  3 30  1  0
  4 31  1  0
  5 32  1  0
 10 33  1  0
 10 34  1  0
 11 35  1  0
 11 36  1  0
 13 37  1  0
 13 38  1  0
 14 39  1  0
 14 40  1  0
 15 41  1  0
 15 42  1  0
 20 43  1  0
 22 44  1  0
 25 45  1  0
 26 46  1  0
 26 47  1  0
M  END
>  <UniqueID>  (44) 
43

>  <SMILES>  (44) 
Cn1cccc1C(=O)N1CCC2(CC1)CC(=O)N(c1cncc(Br)c1)C2

>  <Energy>  (44) 
98.70782449965485

>  <Genealogy>  (44) 
Cn1cccc1C(=O)N1CCC2(CC1)CC(=O)N(c1cncc(Br)c1)C2 (3D coordinates assigned)
Cn1cccc1C(=O)N1CCC2(CC1)CC(=O)N(c1cncc(Br)c1)C2 (nonaromatic ring conformer: 98.70782449965485 kcal/mol)

>  <smiles>  (44) 
Cn1cccc1C(=O)N1CCC2(CC1)CC(=O)N(c1cncc(Br)c1)C2

>  <score_type>  (44) 
oracle

>  <origin>  (44) 
adg

>  <m_score__min__energy>  (44) 
-9.2799999999999994

>  <m_primary>  (44) 
energy

$$$$
45:0
     RDKit          3D

 49 51  0  0  0  0  0  0  0  0999 V2000
   -1.8130   22.5850  -30.4880 C   0  0  0  0  0  0  0  0  0  0  0  0
   -3.2120   22.9440  -29.9250 C   0  0  1  0  0  0  0  0  0  0  0  0
   -3.3150   22.4650  -28.4410 C   0  0  0  0  0  0  0  0  0  0  0  0
   -2.8840   23.5180  -27.3760 C   0  0  0  0  0  0  0  0  0  0  0  0
   -1.4410   23.8790  -27.4720 N   0  0  0  0  0  0  0  0  0  0  0  0
   -0.9820   24.7330  -26.3330 C   0  0  0  0  0  0  0  0  0  0  0  0
   -0.1570   23.9860  -25.2640 C   0  0  0  0  0  0  0  0  0  0  0  0
   -0.6310   22.5470  -25.1040 C   0  0  0  0  0  0  0  0  0  0  0  0
   -0.5070   21.7740  -26.4250 C   0  0  0  0  0  0  0  0  0  0  0  0
   -0.5750   22.6890  -27.6680 C   0  0  0  0  0  0  0  0  0  0  0  0
   -3.3040   24.4640  -29.9920 C   0  0  0  0  0  0  0  0  0  0  0  0
   -2.3390   25.2890  -29.3380 N   0  0  0  0  0  0  0  0  0  0  0  0
   -4.1990   25.0110  -30.6940 O   0  0  0  0  0  0  0  0  0  0  0  0
   -4.3750   22.3380  -30.7370 C   0  0  0  0  0  0  0  0  0  0  0  0
   -4.1660   21.4720  -31.8350 C   0  0  0  0  0  0  0  0  0  0  0  0
   -5.2440   20.8860  -32.5030 C   0  0  0  0  0  0  0  0  0  0  0  0
   -6.5570   21.1400  -32.0890 C   0  0  0  0  0  0  0  0  0  0  0  0
   -7.6440   20.5450  -32.7500 C   0  0  0  0  0  0  0  0  0  0  0  0
   -8.9490   20.8020  -32.3220 C   0  0  0  0  0  0  0  0  0  0  0  0
   -9.1790   21.6490  -31.2350 C   0  0  0  0  0  0  0  0  0  0  0  0
   -8.1050   22.2450  -30.5690 C   0  0  0  0  0  0  0  0  0  0  0  0
   -6.7880   21.9980  -30.9910 C   0  0  0  0  0  0  0  0  0  0  0  0
   -5.7030   22.5860  -30.3260 C   0  0  0  0  0  0  0  0  0  0  0  0
   -1.1173   22.4065  -29.6549 H   0  0  0  0  0  0  0  0  0  0  0  0
   -1.8878   21.6769  -31.1043 H   0  0  0  0  0  0  0  0  0  0  0  0
   -1.4413   23.4169  -31.1043 H   0  0  0  0  0  0  0  0  0  0  0  0
   -4.3614   22.1891  -28.2436 H   0  0  0  0  0  0  0  0  0  0  0  0
   -2.6142   21.6231  -28.3411 H   0  0  0  0  0  0  0  0  0  0  0  0
   -3.4844   24.4285  -27.5190 H   0  0  0  0  0  0  0  0  0  0  0  0
   -3.0487   23.0723  -26.3839 H   0  0  0  0  0  0  0  0  0  0  0  0
   -1.3260   24.4670  -28.3300 H   0  0  0  0  0  0  0  0  0  0  0  0
   -0.3614   25.5446  -26.7406 H   0  0  0  0  0  0  0  0  0  0  0  0
   -1.8898   25.0966  -25.8294 H   0  0  0  0  0  0  0  0  0  0  0  0
    0.9009   23.9833  -25.5652 H   0  0  0  0  0  0  0  0  0  0  0  0
   -0.2866   24.5030  -24.3018 H   0  0  0  0  0  0  0  0  0  0  0  0
   -0.0178   22.0499  -24.3379 H   0  0  0  0  0  0  0  0  0  0  0  0
   -1.6893   22.5590  -24.8043 H   0  0  0  0  0  0  0  0  0  0  0  0
    0.4569   21.2441  -26.4320 H   0  0  0  0  0  0  0  0  0  0  0  0
   -1.3578   21.0790  -26.4809 H   0  0  0  0  0  0  0  0  0  0  0  0
    0.4427   23.0326  -27.9052 H   0  0  0  0  0  0  0  0  0  0  0  0
   -1.0127   22.0975  -28.4856 H   0  0  0  0  0  0  0  0  0  0  0  0
   -1.5250   25.6810  -29.8610 H   0  0  0  0  0  0  0  0  0  0  0  0
   -3.1400   21.2566  -32.1680 H   0  0  0  0  0  0  0  0  0  0  0  0
   -5.0600   20.2209  -33.3596 H   0  0  0  0  0  0  0  0  0  0  0  0
   -7.4678   19.8761  -33.6053 H   0  0  0  0  0  0  0  0  0  0  0  0
   -9.7984   20.3358  -32.8428 H   0  0  0  0  0  0  0  0  0  0  0  0
  -10.2086   21.8472  -30.9025 H   0  0  0  0  0  0  0  0  0  0  0  0
   -8.2911   22.9092  -29.7122 H   0  0  0  0  0  0  0  0  0  0  0  0
   -5.8892   23.2514  -29.4701 H   0  0  0  0  0  0  0  0  0  0  0  0
  2  1  1  6
  2  3  1  0
  3  4  1  0
  4  5  1  0
  5  6  1  0
  6  7  1  0
  7  8  1  0
  8  9  1  0
  9 10  1  0
  2 11  1  0
 11 12  1  0
 11 13  2  0
  2 14  1  0
 14 15  2  0
 15 16  1  0
 16 17  2  0
 17 18  1  0
 18 19  2  0
 19 20  1  0
 20 21  2  0
 21 22  1  0
 22 23  2  0
 10  5  1  0
 23 14  1  0
 22 17  1  0
  1 24  1  0
  1 25  1  0
  1 26  1  0
  3 27  1  0
  3 28  1  0
  4 29  1  0
  4 30  1  0
  5 31  1  0
  6 32  1  0
  6 33  1  0
  7 34  1  0
  7 35  1  0
  8 36  1  0
  8 37  1  0
  9 38  1  0
  9 39  1  0
 10 40  1  0
 10 41  1  0
 12 42  1  0
 15 43  1  0
 16 44  1  0
 18 45  1  0
 19 46  1  0
 20 47  1  0
 21 48  1  0
 23 49  1  0
M  CHG  2   5   1  12  -1
M  END
>  <UniqueID>  (45) 
44

>  <SMILES>  (45) 
C[C@@](CC[NH+]1CCCCC1)(C([NH-])=O)c1ccc2ccccc2c1

>  <Energy>  (45) 
69.6921610105626

>  <Genealogy>  (45) 
CC(CC[NH+]1CCCCC1)(C([NH-])=O)c1ccc2ccccc2c1 (protonated)
C[C@@](CC[NH+]1CCCCC1)(C([NH-])=O)c1ccc2ccccc2c1 (chirality)
C[C@@](CC[NH+]1CCCCC1)(C([NH-])=O)c1ccc2ccccc2c1 (3D coordinates assigned)
C[C@@](CC[NH+]1CCCCC1)(C([NH-])=O)c1ccc2ccccc2c1 (nonaromatic ring conformer: 69.6921610105626 kcal/mol)

>  <smiles>  (45) 
CC(CCN1CCCCC1)(C(N)=O)c1ccc2ccccc2c1

>  <score_type>  (45) 
oracle

>  <origin>  (45) 
adg

>  <m_score__min__energy>  (45) 
-10.550000000000001

>  <m_primary>  (45) 
energy

$$$$
46:0
     RDKit          3D

 35 37  0  0  0  0  0  0  0  0999 V2000
   -2.1850   24.9270  -28.7130 C   0  0  0  0  0  0  0  0  0  0  0  0
   -3.1200   25.2970  -29.7210 O   0  0  0  0  0  0  0  0  0  0  0  0
   -4.2600   24.5560  -30.0710 C   0  0  0  0  0  0  0  0  0  0  0  0
   -5.5430   24.9150  -29.5750 C   0  0  0  0  0  0  0  0  0  0  0  0
   -6.6810   24.1760  -29.9200 C   0  0  0  0  0  0  0  0  0  0  0  0
   -6.5320   23.1000  -30.7880 C   0  0  0  0  0  0  0  0  0  0  0  0
   -5.3000   22.7240  -31.2610 C   0  0  0  0  0  0  0  0  0  0  0  0
   -4.1360   23.4230  -30.9280 C   0  0  0  0  0  0  0  0  0  0  0  0
   -2.9210   22.9590  -31.4630 O   0  0  0  0  0  0  0  0  0  0  0  0
   -2.1020   21.9300  -30.9200 C   0  0  0  0  0  0  0  0  0  0  0  0
   -5.4420   21.5020  -32.1080 C   0  0  0  0  0  0  0  0  0  0  0  0
   -6.8930   21.4450  -32.3720 N   0  0  1  0  0  0  0  0  0  0  0  0
   -7.4880   20.1180  -32.5800 C   0  0  0  0  0  0  0  0  0  0  0  0
   -9.0220   20.1930  -32.3530 C   0  0  0  0  0  0  0  0  0  0  0  0
   -9.5470   21.6650  -32.3300 C   0  0  0  0  0  0  0  0  0  0  0  0
   -8.7960   22.5990  -31.5420 O   0  0  0  0  0  0  0  0  0  0  0  0
   -7.5230   22.0850  -31.2040 C   0  0  2  0  0  0  0  0  0  0  0  0
   -2.6269   25.1019  -27.7210 H   0  0  0  0  0  0  0  0  0  0  0  0
   -1.9333   23.8615  -28.8196 H   0  0  0  0  0  0  0  0  0  0  0  0
   -1.2724   25.5318  -28.8196 H   0  0  0  0  0  0  0  0  0  0  0  0
   -5.6431   25.7859  -28.9106 H   0  0  0  0  0  0  0  0  0  0  0  0
   -7.6688   24.4401  -29.5143 H   0  0  0  0  0  0  0  0  0  0  0  0
   -2.1374   21.9745  -29.8215 H   0  0  0  0  0  0  0  0  0  0  0  0
   -2.4704   20.9507  -31.2594 H   0  0  0  0  0  0  0  0  0  0  0  0
   -1.0650   22.0693  -31.2594 H   0  0  0  0  0  0  0  0  0  0  0  0
   -4.8738   21.6024  -33.0445 H   0  0  0  0  0  0  0  0  0  0  0  0
   -5.0543   20.5932  -31.6246 H   0  0  0  0  0  0  0  0  0  0  0  0
   -7.0760   22.0290  -33.2260 H   0  0  0  0  0  0  0  0  0  0  0  0
   -7.2861   19.7835  -33.6083 H   0  0  0  0  0  0  0  0  0  0  0  0
   -7.0480   19.4049  -31.8674 H   0  0  0  0  0  0  0  0  0  0  0  0
   -9.5268   19.6501  -33.1656 H   0  0  0  0  0  0  0  0  0  0  0  0
   -9.2396   19.7428  -31.3732 H   0  0  0  0  0  0  0  0  0  0  0  0
   -9.5559   22.0331  -33.3665 H   0  0  0  0  0  0  0  0  0  0  0  0
  -10.5381   21.6137  -31.8555 H   0  0  0  0  0  0  0  0  0  0  0  0
   -7.7424   21.4012  -30.3707 H   0  0  0  0  0  0  0  0  0  0  0  0
  1  2  1  0
  2  3  1  0
  3  4  2  0
  4  5  1  0
  5  6  2  0
  6  7  1  0
  7  8  2  0
  8  9  1  0
  9 10  1  0
  7 11  1  0
 11 12  1  0
 12 13  1  0
 13 14  1  0
 14 15  1  0
 15 16  1  0
 16 17  1  0
  8  3  1  0
 17 12  1  0
 17  6  1  0
  1 18  1  0
  1 19  1  0
  1 20  1  0
  4 21  1  0
  5 22  1  0
 10 23  1  0
 10 24  1  0
 10 25  1  0
 11 26  1  0
 11 27  1  0
 12 28  1  6
 13 29  1  0
 13 30  1  0
 14 31  1  0
 14 32  1  0
 15 33  1  0
 15 34  1  0
 17 35  1  1
M  CHG  1  12   1
M  END
>  <UniqueID>  (46) 
45

>  <SMILES>  (46) 
COc1ccc2c(c1OC)C[N@H+]1CCCO[C@H]21

>  <Energy>  (46) 
69.56988032915763

>  <Genealogy>  (46) 
COc1ccc2c(c1OC)C[NH+]1CCCOC21 (protonated)
COc1ccc2c(c1OC)C[N@H+]1CCCO[C@H]21 (chirality)
COc1ccc2c(c1OC)C[N@H+]1CCCO[C@H]21 (3D coordinates assigned)
COc1ccc2c(c1OC)C[N@H+]1CCCO[C@H]21 (nonaromatic ring conformer: 69.56988032915763 kcal/mol)

>  <smiles>  (46) 
COc1ccc2c(c1OC)CN1CCCOC21

>  <score_type>  (46) 
oracle

>  <origin>  (46) 
adg

>  <m_score__min__energy>  (46) 
-6.0700000000000003

>  <m_primary>  (46) 
energy

$$$$
