0:0
     RDKit          3D

 54 57  0  0  0  0  0  0  0  0999 V2000
   -1.0330   21.8400  -30.3450 C   0  0  0  0  0  0  0  0  0  0  0  0
   -0.2620   21.1730  -31.4810 C   0  0  0  0  0  0  0  0  0  0  0  0
   -0.9330   19.9430  -31.9700 N   0  0  0  0  0  0  0  0  0  0  0  0
    0.0190   18.8210  -31.8650 C   0  0  0  0  0  0  0  0  0  0  0  0
   -1.4190   20.0750  -33.3690 C   0  0  0  0  0  0  0  0  0  0  0  0
   -2.7750   20.7960  -33.4340 C   0  0  0  0  0  0  0  0  0  0  0  0
   -3.5160   20.7090  -32.1720 N   0  0  0  0  0  0  0  0  0  0  0  0
   -4.9410   20.5430  -32.1160 C   0  0  0  0  0  0  0  0  0  0  0  0
   -5.5810   19.3690  -32.5810 C   0  0  0  0  0  0  0  0  0  0  0  0
   -4.8300   18.2340  -32.9480 C   0  0  0  0  0  0  0  0  0  0  0  0
   -5.4620   17.0800  -33.4050 C   0  0  0  0  0  0  0  0  0  0  0  0
   -6.8500   17.0220  -33.4750 C   0  0  0  0  0  0  0  0  0  0  0  0
   -7.6210   18.1130  -33.0790 C   0  0  0  0  0  0  0  0  0  0  0  0
   -7.0160   19.3110  -32.6260 C   0  0  0  0  0  0  0  0  0  0  0  0
   -7.7740   20.3940  -32.2060 N   0  0  0  0  0  0  0  0  0  0  0  0
   -9.2430   20.4050  -32.3440 C   0  0  0  0  0  0  0  0  0  0  0  0
   -7.1270   21.4540  -31.6280 C   0  0  0  0  0  0  0  0  0  0  0  0
   -7.7060   22.5370  -31.0500 N   0  0  0  0  0  0  0  0  0  0  0  0
   -6.6790   23.3160  -30.6550 C   0  0  0  0  0  0  0  0  0  0  0  0
   -6.7700   24.5510  -30.0190 C   0  0  0  0  0  0  0  0  0  0  0  0
   -5.5770   25.2210  -29.7000 C   0  0  0  0  0  0  0  0  0  0  0  0
   -4.3160   24.6490  -30.0210 C   0  0  0  0  0  0  0  0  0  0  0  0
   -3.1060   25.2930  -29.7250 O   0  0  0  0  0  0  0  0  0  0  0  0
   -2.1440   24.8080  -28.7930 C   0  0  0  0  0  0  0  0  0  0  0  0
   -4.2610   23.3960  -30.6610 C   0  0  0  0  0  0  0  0  0  0  0  0
   -5.4630   22.7490  -30.9630 C   0  0  0  0  0  0  0  0  0  0  0  0
   -5.7500   21.5430  -31.5830 C   0  0  0  0  0  0  0  0  0  0  0  0
   -0.6345   21.4952  -29.3794 H   0  0  0  0  0  0  0  0  0  0  0  0
   -0.9225   22.9320  -30.4184 H   0  0  0  0  0  0  0  0  0  0  0  0
   -2.0977   21.5735  -30.4184 H   0  0  0  0  0  0  0  0  0  0  0  0
   -0.1754   21.8845  -32.3155 H   0  0  0  0  0  0  0  0  0  0  0  0
    0.7269   20.8861  -31.0940 H   0  0  0  0  0  0  0  0  0  0  0  0
    0.2079   18.5984  -30.8044 H   0  0  0  0  0  0  0  0  0  0  0  0
   -0.4053   17.9329  -32.3561 H   0  0  0  0  0  0  0  0  0  0  0  0
    0.9643   19.0951  -32.3561 H   0  0  0  0  0  0  0  0  0  0  0  0
   -0.6819   20.6489  -33.9498 H   0  0  0  0  0  0  0  0  0  0  0  0
   -1.5476   19.0645  -33.7842 H   0  0  0  0  0  0  0  0  0  0  0  0
   -2.6002   21.8564  -33.6685 H   0  0  0  0  0  0  0  0  0  0  0  0
   -3.3786   20.3050  -34.2116 H   0  0  0  0  0  0  0  0  0  0  0  0
   -2.9880   20.7550  -31.2720 H   0  0  0  0  0  0  0  0  0  0  0  0
   -3.7329   18.2599  -32.8727 H   0  0  0  0  0  0  0  0  0  0  0  0
   -4.8612   16.2111  -33.7117 H   0  0  0  0  0  0  0  0  0  0  0  0
   -7.3415   16.1101  -33.8449 H   0  0  0  0  0  0  0  0  0  0  0  0
   -8.7180   18.0428  -33.1188 H   0  0  0  0  0  0  0  0  0  0  0  0
   -9.7050   20.4085  -31.3457 H   0  0  0  0  0  0  0  0  0  0  0  0
   -9.5528   21.3055  -32.8946 H   0  0  0  0  0  0  0  0  0  0  0  0
   -9.5663   19.5093  -32.8946 H   0  0  0  0  0  0  0  0  0  0  0  0
   -8.7180   22.7440  -30.9030 H   0  0  0  0  0  0  0  0  0  0  0  0
   -7.7483   24.9899  -29.7732 H   0  0  0  0  0  0  0  0  0  0  0  0
   -5.6193   26.1982  -29.1967 H   0  0  0  0  0  0  0  0  0  0  0  0
   -2.5023   24.9886  -27.7688 H   0  0  0  0  0  0  0  0  0  0  0  0
   -1.9978   23.7284  -28.9453 H   0  0  0  0  0  0  0  0  0  0  0  0
   -1.1891   25.3324  -28.9453 H   0  0  0  0  0  0  0  0  0  0  0  0
   -3.2948   22.9369  -30.9174 H   0  0  0  0  0  0  0  0  0  0  0  0
  1  2  1  0
  2  3  1  0
  3  4  1  0
  3  5  1  0
  5  6  1  0
  6  7  1  0
  7  8  1  0
  8  9  2  0
  9 10  1  0
 10 11  2  0
 11 12  1  0
 12 13  2  0
 13 14  1  0
 14 15  2  0
 15 16  1  0
 15 17  1  0
 17 18  1  0
 18 19  1  0
 19 20  2  0
 20 21  1  0
 21 22  2  0
 22 23  1  0
 23 24  1  0
 22 25  1  0
 25 26  2  0
 26 27  1  0
 27  8  1  0
 14  9  1  0
 27 17  2  0
 26 19  1  0
  1 28  1  0
  1 29  1  0
  1 30  1  0
  2 31  1  0
  2 32  1  0
  4 33  1  0
  4 34  1  0
  4 35  1  0
  5 36  1  0
  5 37  1  0
  6 38  1  0
  6 39  1  0
  7 40  1  0
 10 41  1  0
 11 42  1  0
 12 43  1  0
 13 44  1  0
 16 45  1  0
 16 46  1  0
 16 47  1  0
 18 48  1  0
 20 49  1  0
 21 50  1  0
 24 51  1  0
 24 52  1  0
 24 53  1  0
 25 54  1  0
M  CHG  1  15   1
M  END
>  <UniqueID>  (1) 
1

>  <SMILES>  (1) 
CCN(C)CCNc1c2ccccc2[n+](C)c2[nH]c3ccc(OC)cc3c12

>  <Energy>  (1) 
111.6086059445191

>  <Genealogy>  (1) 
CCN(C)CCNc1c2ccccc2[n+](C)c2[nH]c3ccc(OC)cc3c12 (3D coordinates assigned)
CCN(C)CCNc1c2ccccc2[n+](C)c2[nH]c3ccc(OC)cc3c12 (optimized conformer: 111.6086059445191 kcal/mol)

>  <smiles>  (1) 
CCN(C)CCNc1c2ccccc2[n+](C)c2[nH]c3ccc(OC)cc3c12

>  <score_type>  (1) 
oracle

>  <origin>  (1) 
adg

>  <m_score__min__energy>  (1) 
-8.9199999999999999

>  <m_primary>  (1) 
energy

$$$$
1:0
     RDKit          3D

 45 47  0  0  0  0  0  0  0  0999 V2000
   -1.8670   21.5560  -32.2110 C   0  0  0  0  0  0  0  0  0  0  0  0
   -1.2380   21.4250  -30.8290 C   0  0  0  0  0  0  0  0  0  0  0  0
   -1.3050   22.7080  -30.1210 N   0  0  0  0  0  0  0  0  0  0  0  0
   -1.7610   22.5060  -28.7400 C   0  0  0  0  0  0  0  0  0  0  0  0
   -2.9800   23.3860  -28.4420 C   0  0  0  0  0  0  0  0  0  0  0  0
   -2.7980   24.8130  -28.9760 C   0  0  0  0  0  0  0  0  0  0  0  0
   -3.4920   24.9780  -30.2130 O   0  0  0  0  0  0  0  0  0  0  0  0
   -4.6320   24.2590  -30.6100 C   0  0  0  0  0  0  0  0  0  0  0  0
   -5.8850   24.8480  -30.4100 C   0  0  0  0  0  0  0  0  0  0  0  0
   -7.0570   24.1830  -30.7840 C   0  0  0  0  0  0  0  0  0  0  0  0
   -6.9860   22.9090  -31.3710 C   0  0  0  0  0  0  0  0  0  0  0  0
   -8.1310   22.1970  -31.7570 C   0  0  0  0  0  0  0  0  0  0  0  0
   -9.2850   22.6770  -31.5860 O   0  0  0  0  0  0  0  0  0  0  0  0
   -7.9900   20.9340  -32.3360 C   0  0  0  0  0  0  0  0  0  0  0  0
   -6.7020   20.4020  -32.5250 C   0  0  0  0  0  0  0  0  0  0  0  0
   -6.4870   19.0650  -33.1340 C   0  0  0  0  0  0  0  0  0  0  0  0
   -7.1060   17.9380  -32.5650 C   0  0  0  0  0  0  0  0  0  0  0  0
   -6.9110   16.6660  -33.1150 C   0  0  0  0  0  0  0  0  0  0  0  0
   -6.0920   16.5050  -34.2320 C   0  0  0  0  0  0  0  0  0  0  0  0
   -5.4600   17.6130  -34.8000 C   0  0  0  0  0  0  0  0  0  0  0  0
   -5.6510   18.8870  -34.2550 C   0  0  0  0  0  0  0  0  0  0  0  0
   -5.6390   21.1050  -32.1360 O   0  0  0  0  0  0  0  0  0  0  0  0
   -5.7260   22.3100  -31.5810 C   0  0  0  0  0  0  0  0  0  0  0  0
   -4.5590   22.9830  -31.2030 C   0  0  0  0  0  0  0  0  0  0  0  0
   -2.9390   21.7793  -32.1063 H   0  0  0  0  0  0  0  0  0  0  0  0
   -1.3749   22.3709  -32.7621 H   0  0  0  0  0  0  0  0  0  0  0  0
   -1.7411   20.6124  -32.7621 H   0  0  0  0  0  0  0  0  0  0  0  0
   -1.7821   20.6624  -30.2524 H   0  0  0  0  0  0  0  0  0  0  0  0
   -0.1842   21.1294  -30.9396 H   0  0  0  0  0  0  0  0  0  0  0  0
   -2.0140   23.3070  -30.6090 H   0  0  0  0  0  0  0  0  0  0  0  0
   -2.0344   21.4497  -28.6001 H   0  0  0  0  0  0  0  0  0  0  0  0
   -0.9472   22.7818  -28.0532 H   0  0  0  0  0  0  0  0  0  0  0  0
   -3.8662   22.9389  -28.9162 H   0  0  0  0  0  0  0  0  0  0  0  0
   -3.1015   23.4428  -27.3502 H   0  0  0  0  0  0  0  0  0  0  0  0
   -3.1951   25.5279  -28.2403 H   0  0  0  0  0  0  0  0  0  0  0  0
   -1.7262   24.9956  -29.1431 H   0  0  0  0  0  0  0  0  0  0  0  0
   -5.9492   25.8465  -29.9529 H   0  0  0  0  0  0  0  0  0  0  0  0
   -8.0352   24.6581  -30.6183 H   0  0  0  0  0  0  0  0  0  0  0  0
   -8.8778   20.3608  -32.6413 H   0  0  0  0  0  0  0  0  0  0  0  0
   -7.7488   18.0571  -31.6803 H   0  0  0  0  0  0  0  0  0  0  0  0
   -7.4046   15.7918  -32.6654 H   0  0  0  0  0  0  0  0  0  0  0  0
   -5.9438   15.5050  -34.6657 H   0  0  0  0  0  0  0  0  0  0  0  0
   -4.8103   17.4837  -35.6782 H   0  0  0  0  0  0  0  0  0  0  0  0
   -5.1459   19.7550  -34.7038 H   0  0  0  0  0  0  0  0  0  0  0  0
   -3.5785   22.5130  -31.3698 H   0  0  0  0  0  0  0  0  0  0  0  0
  1  2  1  0
  2  3  1  0
  3  4  1  0
  4  5  1  0
  5  6  1  0
  6  7  1  0
  7  8  1  0
  8  9  2  0
  9 10  1  0
 10 11  2  0
 11 12  1  0
 12 13  2  0
 12 14  1  0
 14 15  2  0
 15 16  1  0
 16 17  2  0
 17 18  1  0
 18 19  2  0
 19 20  1  0
 20 21  2  0
 15 22  1  0
 22 23  1  0
 23 24  2  0
 24  8  1  0
 23 11  1  0
 21 16  1  0
  1 25  1  0
  1 26  1  0
  1 27  1  0
  2 28  1  0
  2 29  1  0
  3 30  1  0
  4 31  1  0
  4 32  1  0
  5 33  1  0
  5 34  1  0
  6 35  1  0
  6 36  1  0
  9 37  1  0
 10 38  1  0
 14 39  1  0
 17 40  1  0
 18 41  1  0
 19 42  1  0
 20 43  1  0
 21 44  1  0
 24 45  1  0
M  END
>  <UniqueID>  (2) 
2

>  <SMILES>  (2) 
CCNCCCOc1ccc2c(=O)cc(-c3ccccc3)oc2c1

>  <Energy>  (2) 
47.78392229253071

>  <Genealogy>  (2) 
CCNCCCOc1ccc2c(=O)cc(-c3ccccc3)oc2c1 (3D coordinates assigned)
CCNCCCOc1ccc2c(=O)cc(-c3ccccc3)oc2c1 (optimized conformer: 47.78392229253071 kcal/mol)

>  <smiles>  (2) 
CCNCCCOc1ccc2c(=O)cc(-c3ccccc3)oc2c1

>  <score_type>  (2) 
oracle

>  <origin>  (2) 
adg

>  <m_score__min__energy>  (2) 
-8.6600000000000001

>  <m_primary>  (2) 
energy

$$$$
2:0
     RDKit          3D

 40 41  0  0  0  0  0  0  0  0999 V2000
   -6.0970   25.6060  -29.7190 C   0  0  0  0  0  0  0  0  0  0  0  0
   -5.2370   25.0530  -30.8450 C   0  0  0  0  0  0  0  0  0  0  0  0
   -3.8660   25.2980  -30.5570 O   0  0  0  0  0  0  0  0  0  0  0  0
   -3.1370   24.5340  -29.6410 C   0  0  0  0  0  0  0  0  0  0  0  0
   -2.0200   24.9340  -29.2130 O   0  0  0  0  0  0  0  0  0  0  0  0
   -3.6760   23.2100  -29.1980 C   0  0  0  0  0  0  0  0  0  0  0  0
   -2.6110   22.1080  -29.2660 C   0  0  0  0  0  0  0  0  0  0  0  0
   -1.5770   22.1980  -30.7760 S   0  0  0  0  0  0  0  0  0  0  0  0
   -2.6410   21.1540  -31.7710 C   0  0  0  0  0  0  0  0  0  0  0  0
   -3.9880   21.3120  -31.6980 N   0  0  0  0  0  0  0  0  0  0  0  0
   -4.8370   20.5450  -32.4330 C   0  0  0  0  0  0  0  0  0  0  0  0
   -6.3000   20.7480  -32.2930 C   0  0  0  0  0  0  0  0  0  0  0  0
   -6.8310   21.9740  -31.8480 C   0  0  0  0  0  0  0  0  0  0  0  0
   -8.2140   22.1380  -31.7090 C   0  0  0  0  0  0  0  0  0  0  0  0
   -9.0790   21.0830  -32.0070 C   0  0  0  0  0  0  0  0  0  0  0  0
  -10.4180   21.2440  -31.8700 F   0  0  0  0  0  0  0  0  0  0  0  0
   -8.5640   19.8600  -32.4420 C   0  0  0  0  0  0  0  0  0  0  0  0
   -7.1830   19.6910  -32.5820 C   0  0  0  0  0  0  0  0  0  0  0  0
   -4.3020   19.5660  -33.2840 C   0  0  0  0  0  0  0  0  0  0  0  0
   -2.9120   19.4280  -33.3680 C   0  0  0  0  0  0  0  0  0  0  0  0
   -2.3130   18.3640  -34.2380 C   0  0  0  0  0  0  0  0  0  0  0  0
   -2.1080   20.2190  -32.6020 N   0  0  0  0  0  0  0  0  0  0  0  0
   -5.6585   25.3241  -28.7504 H   0  0  0  0  0  0  0  0  0  0  0  0
   -6.1415   26.7024  -29.7961 H   0  0  0  0  0  0  0  0  0  0  0  0
   -7.1130   25.1915  -29.7961 H   0  0  0  0  0  0  0  0  0  0  0  0
   -5.4047   23.9697  -30.9367 H   0  0  0  0  0  0  0  0  0  0  0  0
   -5.5076   25.5466  -31.7901 H   0  0  0  0  0  0  0  0  0  0  0  0
   -4.0300   23.2991  -28.1603 H   0  0  0  0  0  0  0  0  0  0  0  0
   -4.4978   22.9325  -29.8744 H   0  0  0  0  0  0  0  0  0  0  0  0
   -1.9557   22.2000  -28.3873 H   0  0  0  0  0  0  0  0  0  0  0  0
   -3.1390   21.1432  -29.2876 H   0  0  0  0  0  0  0  0  0  0  0  0
   -6.1548   22.8078  -31.6082 H   0  0  0  0  0  0  0  0  0  0  0  0
   -8.6205   23.1002  -31.3642 H   0  0  0  0  0  0  0  0  0  0  0  0
   -9.2456   19.0286  -32.6748 H   0  0  0  0  0  0  0  0  0  0  0  0
   -6.7835   18.7238  -32.9209 H   0  0  0  0  0  0  0  0  0  0  0  0
   -4.9647   18.9173  -33.8757 H   0  0  0  0  0  0  0  0  0  0  0  0
   -1.8713   17.5794  -33.6061 H   0  0  0  0  0  0  0  0  0  0  0  0
   -3.0968   17.9254  -34.8731 H   0  0  0  0  0  0  0  0  0  0  0  0
   -1.5315   18.8066  -34.8731 H   0  0  0  0  0  0  0  0  0  0  0  0
   -1.0700   20.1050  -32.6430 H   0  0  0  0  0  0  0  0  0  0  0  0
  1  2  1  0
  2  3  1  0
  3  4  1  0
  4  5  2  0
  4  6  1  0
  6  7  1  0
  7  8  1  0
  8  9  1  0
  9 10  2  0
 10 11  1  0
 11 12  1  0
 12 13  2  0
 13 14  1  0
 14 15  2  0
 15 16  1  0
 15 17  1  0
 17 18  2  0
 11 19  2  0
 19 20  1  0
 20 21  1  0
 20 22  2  0
 22  9  1  0
 18 12  1  0
  1 23  1  0
  1 24  1  0
  1 25  1  0
  2 26  1  0
  2 27  1  0
  6 28  1  0
  6 29  1  0
  7 30  1  0
  7 31  1  0
 13 32  1  0
 14 33  1  0
 17 34  1  0
 18 35  1  0
 19 36  1  0
 21 37  1  0
 21 38  1  0
 21 39  1  0
 22 40  1  0
M  CHG  1  22   1
M  END
>  <UniqueID>  (3) 
3

>  <SMILES>  (3) 
CCOC(=O)CCSc1nc(-c2ccc(F)cc2)cc(C)[nH+]1

>  <Energy>  (3) 
29.610434476368273

>  <Genealogy>  (3) 
CCOC(=O)CCSc1nc(-c2ccc(F)cc2)cc(C)[nH+]1 (protonated)
CCOC(=O)CCSc1nc(-c2ccc(F)cc2)cc(C)[nH+]1 (3D coordinates assigned)
CCOC(=O)CCSc1nc(-c2ccc(F)cc2)cc(C)[nH+]1 (optimized conformer: 29.610434476368273 kcal/mol)

>  <smiles>  (3) 
CCOC(=O)CCSc1nc(C)cc(-c2ccc(F)cc2)n1

>  <score_type>  (3) 
oracle

>  <origin>  (3) 
adg

>  <m_score__min__energy>  (3) 
-7.4500000000000002

>  <m_primary>  (3) 
energy

$$$$
3:0
     RDKit          3D

 46 48  0  0  0  0  0  0  0  0999 V2000
   -6.1140   25.3170  -29.4590 C   0  0  0  0  0  0  0  0  0  0  0  0
   -5.2980   25.6400  -30.7050 C   0  0  0  0  0  0  0  0  0  0  0  0
   -3.8860   25.3030  -30.4810 N   0  0  0  0  0  0  0  0  0  0  0  0
   -3.7400   23.9480  -29.9290 C   0  0  0  0  0  0  0  0  0  0  0  0
   -2.8220   23.1050  -30.8210 C   0  0  0  0  0  0  0  0  0  0  0  0
   -3.4510   21.7380  -31.1200 C   0  0  0  0  0  0  0  0  0  0  0  0
   -3.1910   21.2800  -32.5600 C   0  0  0  0  0  0  0  0  0  0  0  0
   -4.4030   21.3800  -33.3770 N   0  0  0  0  0  0  0  0  0  0  0  0
   -5.6030   20.6820  -33.0140 C   0  0  0  0  0  0  0  0  0  0  0  0
   -6.7420   21.3490  -32.5170 C   0  0  0  0  0  0  0  0  0  0  0  0
   -6.7160   22.7370  -32.2740 C   0  0  0  0  0  0  0  0  0  0  0  0
   -7.8580   23.4040  -31.8380 C   0  0  0  0  0  0  0  0  0  0  0  0
   -9.0420   22.7030  -31.6350 C   0  0  0  0  0  0  0  0  0  0  0  0
   -9.0870   21.3230  -31.8320 C   0  0  0  0  0  0  0  0  0  0  0  0
   -7.9350   20.6040  -32.2390 C   0  0  0  0  0  0  0  0  0  0  0  0
   -7.9470   19.2210  -32.3770 N   0  0  0  0  0  0  0  0  0  0  0  0
   -9.1270   18.4320  -31.9690 C   0  0  0  0  0  0  0  0  0  0  0  0
   -6.8380   18.5950  -32.8980 C   0  0  0  0  0  0  0  0  0  0  0  0
   -6.7170   17.2240  -33.2180 C   0  0  0  0  0  0  0  0  0  0  0  0
   -5.4670   16.8870  -33.7290 C   0  0  0  0  0  0  0  0  0  0  0  0
   -4.5140   18.2720  -33.8040 S   0  0  0  0  0  0  0  0  0  0  0  0
   -5.6850   19.3070  -33.1850 C   0  0  0  0  0  0  0  0  0  0  0  0
   -5.5219   25.5514  -28.5620 H   0  0  0  0  0  0  0  0  0  0  0  0
   -7.0351   25.9184  -29.4578 H   0  0  0  0  0  0  0  0  0  0  0  0
   -6.3739   24.2482  -29.4578 H   0  0  0  0  0  0  0  0  0  0  0  0
   -5.6820   25.0552  -31.5539 H   0  0  0  0  0  0  0  0  0  0  0  0
   -5.3828   26.7146  -30.9241 H   0  0  0  0  0  0  0  0  0  0  0  0
   -3.5100   25.9770  -29.7730 H   0  0  0  0  0  0  0  0  0  0  0  0
   -3.3063   24.0122  -28.9202 H   0  0  0  0  0  0  0  0  0  0  0  0
   -4.7305   23.4717  -29.8844 H   0  0  0  0  0  0  0  0  0  0  0  0
   -2.6522   23.6379  -31.7682 H   0  0  0  0  0  0  0  0  0  0  0  0
   -1.8702   22.9452  -30.2931 H   0  0  0  0  0  0  0  0  0  0  0  0
   -3.0256   20.9944  -30.4301 H   0  0  0  0  0  0  0  0  0  0  0  0
   -4.5390   21.8322  -30.9882 H   0  0  0  0  0  0  0  0  0  0  0  0
   -2.4077   21.9136  -33.0017 H   0  0  0  0  0  0  0  0  0  0  0  0
   -2.8730   20.2272  -32.5376 H   0  0  0  0  0  0  0  0  0  0  0  0
   -4.4950   22.2090  -34.0070 H   0  0  0  0  0  0  0  0  0  0  0  0
   -5.7837   23.2994  -32.4304 H   0  0  0  0  0  0  0  0  0  0  0  0
   -7.8236   24.4879  -31.6537 H   0  0  0  0  0  0  0  0  0  0  0  0
   -9.9479   23.2400  -31.3173 H   0  0  0  0  0  0  0  0  0  0  0  0
  -10.0318   20.7837  -31.6689 H   0  0  0  0  0  0  0  0  0  0  0  0
   -9.1818   18.3954  -30.8710 H   0  0  0  0  0  0  0  0  0  0  0  0
  -10.0382   18.9031  -32.3661 H   0  0  0  0  0  0  0  0  0  0  0  0
   -9.0398   17.4099  -32.3661 H   0  0  0  0  0  0  0  0  0  0  0  0
   -7.5294   16.4959  -33.0773 H   0  0  0  0  0  0  0  0  0  0  0  0
   -5.1527   15.8781  -34.0345 H   0  0  0  0  0  0  0  0  0  0  0  0
  1  2  1  0
  2  3  1  0
  3  4  1  0
  4  5  1  0
  5  6  1  0
  6  7  1  0
  7  8  1  0
  8  9  1  0
  9 10  2  0
 10 11  1  0
 11 12  2  0
 12 13  1  0
 13 14  2  0
 14 15  1  0
 15 16  2  0
 16 17  1  0
 16 18  1  0
 18 19  1  0
 19 20  2  0
 20 21  1  0
 21 22  1  0
 22  9  1  0
 15 10  1  0
 22 18  2  0
  1 23  1  0
  1 24  1  0
  1 25  1  0
  2 26  1  0
  2 27  1  0
  3 28  1  0
  4 29  1  0
  4 30  1  0
  5 31  1  0
  5 32  1  0
  6 33  1  0
  6 34  1  0
  7 35  1  0
  7 36  1  0
  8 37  1  0
 11 38  1  0
 12 39  1  0
 13 40  1  0
 14 41  1  0
 17 42  1  0
 17 43  1  0
 17 44  1  0
 19 45  1  0
 20 46  1  0
M  CHG  1  16   1
M  END
>  <UniqueID>  (4) 
4

>  <SMILES>  (4) 
CCNCCCCNc1c2ccccc2[n+](C)c2ccsc12

>  <Energy>  (4) 
85.39233038116522

>  <Genealogy>  (4) 
CCNCCCCNc1c2ccccc2[n+](C)c2ccsc12 (3D coordinates assigned)
CCNCCCCNc1c2ccccc2[n+](C)c2ccsc12 (optimized conformer: 85.39233038116522 kcal/mol)

>  <smiles>  (4) 
CCNCCCCNc1c2ccccc2[n+](C)c2ccsc12

>  <score_type>  (4) 
oracle

>  <origin>  (4) 
adg

>  <m_score__min__energy>  (4) 
-8.7899999999999991

>  <m_primary>  (4) 
energy

$$$$
4:0
     RDKit          3D

 57 60  0  0  0  0  0  0  0  0999 V2000
   -9.4150   21.7600  -31.7800 C   0  0  0  0  0  0  0  0  0  0  0  0
   -8.7220   20.7140  -30.8990 C   0  0  0  0  0  0  0  0  0  0  0  0
   -8.6170   19.3940  -31.5670 N   0  0  1  0  0  0  0  0  0  0  0  0
   -9.5410   19.3530  -32.7170 C   0  0  0  0  0  0  0  0  0  0  0  0
   -7.2240   19.0940  -32.0110 C   0  0  0  0  0  0  0  0  0  0  0  0
   -6.7230   20.0530  -33.1140 C   0  0  0  0  0  0  0  0  0  0  0  0
   -5.1950   20.0260  -33.3060 C   0  0  0  0  0  0  0  0  0  0  0  0
   -4.6300   21.3740  -33.3790 N   0  0  0  0  0  0  0  0  0  0  0  0
   -4.0170   21.9960  -32.2330 C   0  0  0  0  0  0  0  0  0  0  0  0
   -2.6880   21.6920  -31.8940 C   0  0  0  0  0  0  0  0  0  0  0  0
   -1.9100   20.8310  -32.6970 C   0  0  0  0  0  0  0  0  0  0  0  0
   -0.5990   20.5170  -32.3450 C   0  0  0  0  0  0  0  0  0  0  0  0
   -0.0390   21.0550  -31.1920 C   0  0  0  0  0  0  0  0  0  0  0  0
   -0.7870   21.9120  -30.3850 C   0  0  0  0  0  0  0  0  0  0  0  0
   -2.1200   22.2460  -30.7230 C   0  0  0  0  0  0  0  0  0  0  0  0
   -2.8970   23.1130  -29.9170 C   0  0  0  0  0  0  0  0  0  0  0  0
   -2.2960   23.6770  -28.6800 C   0  0  0  0  0  0  0  0  0  0  0  0
   -2.1760   22.8830  -27.5310 C   0  0  0  0  0  0  0  0  0  0  0  0
   -1.6100   23.4130  -26.3680 C   0  0  0  0  0  0  0  0  0  0  0  0
   -1.1630   24.7390  -26.3480 C   0  0  0  0  0  0  0  0  0  0  0  0
   -0.4530   25.4040  -24.8880 Cl  0  0  0  0  0  0  0  0  0  0  0  0
   -1.2820   25.5350  -27.4940 C   0  0  0  0  0  0  0  0  0  0  0  0
   -1.8480   25.0060  -28.6580 C   0  0  0  0  0  0  0  0  0  0  0  0
   -4.1890   23.4400  -30.2850 N   0  0  0  0  0  0  0  0  0  0  0  0
   -4.9330   24.3050  -29.5120 C   0  0  0  0  0  0  0  0  0  0  0  0
   -6.2270   24.6750  -29.8740 C   0  0  0  0  0  0  0  0  0  0  0  0
   -6.7810   24.1720  -31.0380 C   0  0  0  0  0  0  0  0  0  0  0  0
   -6.0480   23.2930  -31.8240 C   0  0  0  0  0  0  0  0  0  0  0  0
   -4.7480   22.9060  -31.4350 C   0  0  0  0  0  0  0  0  0  0  0  0
   -9.9099   22.5070  -31.1419 H   0  0  0  0  0  0  0  0  0  0  0  0
   -8.6674   22.2578  -32.4151 H   0  0  0  0  0  0  0  0  0  0  0  0
  -10.1649   21.2657  -32.4151 H   0  0  0  0  0  0  0  0  0  0  0  0
   -7.7094   21.0698  -30.6580 H   0  0  0  0  0  0  0  0  0  0  0  0
   -9.3295   20.5837  -29.9912 H   0  0  0  0  0  0  0  0  0  0  0  0
   -8.9570   18.6730  -30.8940 H   0  0  0  0  0  0  0  0  0  0  0  0
  -10.5779   19.3070  -32.3528 H   0  0  0  0  0  0  0  0  0  0  0  0
   -9.4067   20.2580  -33.3277 H   0  0  0  0  0  0  0  0  0  0  0  0
   -9.3271   18.4635  -33.3277 H   0  0  0  0  0  0  0  0  0  0  0  0
   -6.5536   19.1773  -31.1429 H   0  0  0  0  0  0  0  0  0  0  0  0
   -7.2244   18.0782  -32.4330 H   0  0  0  0  0  0  0  0  0  0  0  0
   -7.1982   19.7686  -34.0644 H   0  0  0  0  0  0  0  0  0  0  0  0
   -6.9912   21.0730  -32.8014 H   0  0  0  0  0  0  0  0  0  0  0  0
   -4.7393   19.4949  -32.4573 H   0  0  0  0  0  0  0  0  0  0  0  0
   -4.9799   19.5144  -34.2557 H   0  0  0  0  0  0  0  0  0  0  0  0
   -4.6210   21.8830  -34.2900 H   0  0  0  0  0  0  0  0  0  0  0  0
   -2.3441   20.4024  -33.6124 H   0  0  0  0  0  0  0  0  0  0  0  0
   -0.0063   19.8425  -32.9803 H   0  0  0  0  0  0  0  0  0  0  0  0
    0.9958   20.8044  -30.9157 H   0  0  0  0  0  0  0  0  0  0  0  0
   -0.3354   22.3334  -29.4748 H   0  0  0  0  0  0  0  0  0  0  0  0
   -2.5279   21.8409  -27.5446 H   0  0  0  0  0  0  0  0  0  0  0  0
   -1.5159   22.7875  -25.4680 H   0  0  0  0  0  0  0  0  0  0  0  0
   -0.9300   26.5770  -27.4784 H   0  0  0  0  0  0  0  0  0  0  0  0
   -1.9420   25.6326  -29.5572 H   0  0  0  0  0  0  0  0  0  0  0  0
   -4.4957   24.7125  -28.5886 H   0  0  0  0  0  0  0  0  0  0  0  0
   -6.8043   25.3626  -29.2384 H   0  0  0  0  0  0  0  0  0  0  0  0
   -7.7970   24.4671  -31.3391 H   0  0  0  0  0  0  0  0  0  0  0  0
   -6.4824   22.8967  -32.7536 H   0  0  0  0  0  0  0  0  0  0  0  0
  1  2  1  0
  2  3  1  0
  3  4  1  0
  3  5  1  0
  5  6  1  0
  6  7  1  0
  7  8  1  0
  8  9  1  0
  9 10  2  0
 10 11  1  0
 11 12  2  0
 12 13  1  0
 13 14  2  0
 14 15  1  0
 15 16  2  0
 16 17  1  0
 17 18  2  0
 18 19  1  0
 19 20  2  0
 20 21  1  0
 20 22  1  0
 22 23  2  0
 16 24  1  0
 24 25  2  0
 25 26  1  0
 26 27  2  0
 27 28  1  0
 28 29  2  0
 29  9  1  0
 15 10  1  0
 23 17  1  0
 29 24  1  0
  1 30  1  0
  1 31  1  0
  1 32  1  0
  2 33  1  0
  2 34  1  0
  3 35  1  1
  4 36  1  0
  4 37  1  0
  4 38  1  0
  5 39  1  0
  5 40  1  0
  6 41  1  0
  6 42  1  0
  7 43  1  0
  7 44  1  0
  8 45  1  0
 11 46  1  0
 12 47  1  0
 13 48  1  0
 14 49  1  0
 18 50  1  0
 19 51  1  0
 22 52  1  0
 23 53  1  0
 25 54  1  0
 26 55  1  0
 27 56  1  0
 28 57  1  0
M  CHG  2   3   1  24   1
M  END
>  <UniqueID>  (5) 
5

>  <SMILES>  (5) 
CC[N@@H+](C)CCCNc1c2ccccc2c(-c2ccc(Cl)cc2)[n+]2ccccc12

>  <Energy>  (5) 
90.9803564223621

>  <Genealogy>  (5) 
CC[NH+](C)CCCNc1c2ccccc2c(-c2ccc(Cl)cc2)[n+]2ccccc12 (protonated)
CC[N@@H+](C)CCCNc1c2ccccc2c(-c2ccc(Cl)cc2)[n+]2ccccc12 (chirality)
CC[N@@H+](C)CCCNc1c2ccccc2c(-c2ccc(Cl)cc2)[n+]2ccccc12 (3D coordinates assigned)
CC[N@@H+](C)CCCNc1c2ccccc2c(-c2ccc(Cl)cc2)[n+]2ccccc12 (optimized conformer: 90.9803564223621 kcal/mol)

>  <smiles>  (5) 
CCN(C)CCCNc1c2ccccc2c(-c2ccc(Cl)cc2)[n+]2ccccc12

>  <score_type>  (5) 
oracle

>  <origin>  (5) 
adg

>  <m_score__min__energy>  (5) 
-7.96

>  <m_primary>  (5) 
energy

$$$$
5:0
     RDKit          3D

 34 35  0  0  0  0  0  0  0  0999 V2000
   -3.6860   23.6790  -28.3870 C   0  0  0  0  0  0  0  0  0  0  0  0
   -3.4820   24.1750  -29.8150 C   0  0  0  0  0  0  0  0  0  0  0  0
   -4.7750   24.3400  -30.4980 N   0  0  0  0  0  0  0  0  0  0  0  0
   -5.4580   25.6440  -30.4580 C   0  0  0  0  0  0  0  0  0  0  0  0
   -6.4970   25.6740  -29.3420 C   0  0  0  0  0  0  0  0  0  0  0  0
   -5.4050   23.2100  -31.1420 C   0  0  0  0  0  0  0  0  0  0  0  0
   -4.6960   22.4170  -31.9890 N   0  0  0  0  0  0  0  0  0  0  0  0
   -5.2670   21.3500  -32.6030 C   0  0  0  0  0  0  0  0  0  0  0  0
   -6.6100   21.0390  -32.3670 C   0  0  0  0  0  0  0  0  0  0  0  0
   -7.3430   21.8850  -31.5130 C   0  0  0  0  0  0  0  0  0  0  0  0
   -6.7190   22.9340  -30.9140 N   0  0  0  0  0  0  0  0  0  0  0  0
   -8.7790   21.6000  -31.1590 C   0  0  0  0  0  0  0  0  0  0  0  0
   -9.4620   20.6820  -32.1780 C   0  0  0  0  0  0  0  0  0  0  0  0
   -8.5860   19.4640  -32.4730 C   0  0  0  0  0  0  0  0  0  0  0  0
   -7.2600   19.8970  -33.1090 C   0  0  0  0  0  0  0  0  0  0  0  0
   -3.3657   24.4577  -27.6791 H   0  0  0  0  0  0  0  0  0  0  0  0
   -4.7503   23.4525  -28.2261 H   0  0  0  0  0  0  0  0  0  0  0  0
   -3.0891   22.7692  -28.2261 H   0  0  0  0  0  0  0  0  0  0  0  0
   -2.9607   25.1433  -29.7899 H   0  0  0  0  0  0  0  0  0  0  0  0
   -2.8837   23.4336  -30.3648 H   0  0  0  0  0  0  0  0  0  0  0  0
   -4.7150   26.4356  -30.2810 H   0  0  0  0  0  0  0  0  0  0  0  0
   -5.9669   25.8065  -31.4196 H   0  0  0  0  0  0  0  0  0  0  0  0
   -5.9882   25.6593  -28.3669 H   0  0  0  0  0  0  0  0  0  0  0  0
   -7.1002   26.5899  -29.4271 H   0  0  0  0  0  0  0  0  0  0  0  0
   -7.1520   24.7944  -29.4271 H   0  0  0  0  0  0  0  0  0  0  0  0
   -4.6721   20.7281  -33.2881 H   0  0  0  0  0  0  0  0  0  0  0  0
   -8.8098   21.1161  -30.1716 H   0  0  0  0  0  0  0  0  0  0  0  0
   -9.3196   22.5580  -31.1562 H   0  0  0  0  0  0  0  0  0  0  0  0
  -10.4266   20.3442  -31.7714 H   0  0  0  0  0  0  0  0  0  0  0  0
   -9.6192   21.2417  -33.1118 H   0  0  0  0  0  0  0  0  0  0  0  0
   -8.3796   18.9306  -31.5334 H   0  0  0  0  0  0  0  0  0  0  0  0
   -9.1183   18.8048  -33.1745 H   0  0  0  0  0  0  0  0  0  0  0  0
   -6.5718   19.0389  -33.1090 H   0  0  0  0  0  0  0  0  0  0  0  0
   -7.4759   20.2417  -34.1310 H   0  0  0  0  0  0  0  0  0  0  0  0
  1  2  1  0
  2  3  1  0
  3  4  1  0
  4  5  1  0
  3  6  1  0
  6  7  2  0
  7  8  1  0
  8  9  2  0
  9 10  1  0
 10 11  2  0
 10 12  1  0
 12 13  1  0
 13 14  1  0
 14 15  1  0
 11  6  1  0
 15  9  1  0
  1 16  1  0
  1 17  1  0
  1 18  1  0
  2 19  1  0
  2 20  1  0
  4 21  1  0
  4 22  1  0
  5 23  1  0
  5 24  1  0
  5 25  1  0
  8 26  1  0
 12 27  1  0
 12 28  1  0
 13 29  1  0
 13 30  1  0
 14 31  1  0
 14 32  1  0
 15 33  1  0
 15 34  1  0
M  END
>  <UniqueID>  (6) 
6

>  <SMILES>  (6) 
CCN(CC)c1ncc2c(n1)CCCC2

>  <Energy>  (6) 
25.57163132945818

>  <Genealogy>  (6) 
CCN(CC)c1ncc2c(n1)CCCC2 (3D coordinates assigned)
CCN(CC)c1ncc2c(n1)CCCC2 (nonaromatic ring conformer: 25.57163132945818 kcal/mol)

>  <smiles>  (6) 
CCN(CC)c1ncc2c(n1)CCCC2

>  <score_type>  (6) 
oracle

>  <origin>  (6) 
adg

>  <m_score__min__energy>  (6) 
-6.1200000000000001

>  <m_primary>  (6) 
energy

$$$$
6:0
     RDKit          3D

 32 34  0  0  0  0  0  0  0  0999 V2000
   -0.8120   22.8690  -25.8570 C   0  0  0  0  0  0  0  0  0  0  0  0
   -1.5160   23.4480  -27.0530 C   0  0  0  0  0  0  0  0  0  0  0  0
   -2.8030   22.9990  -27.3940 C   0  0  0  0  0  0  0  0  0  0  0  0
   -3.4700   23.5240  -28.5100 C   0  0  0  0  0  0  0  0  0  0  0  0
   -2.8550   24.5290  -29.2770 C   0  0  0  0  0  0  0  0  0  0  0  0
   -1.5730   24.9730  -28.9460 C   0  0  0  0  0  0  0  0  0  0  0  0
   -0.9000   24.4410  -27.8410 C   0  0  0  0  0  0  0  0  0  0  0  0
    0.7120   25.0420  -27.4680 Cl  0  0  0  0  0  0  0  0  0  0  0  0
   -3.5110   25.0740  -30.3840 O   0  0  0  0  0  0  0  0  0  0  0  0
   -4.8820   24.8030  -30.6580 C   0  0  0  0  0  0  0  0  0  0  0  0
   -5.2230   23.4440  -30.2260 N   0  0  0  0  0  0  0  0  0  0  0  0
   -6.2050   22.6780  -30.9490 C   0  0  0  0  0  0  0  0  0  0  0  0
   -7.5620   22.7490  -30.5880 C   0  0  0  0  0  0  0  0  0  0  0  0
   -8.5180   22.0060  -31.2860 C   0  0  0  0  0  0  0  0  0  0  0  0
   -8.1290   21.1850  -32.3470 C   0  0  0  0  0  0  0  0  0  0  0  0
   -6.7830   21.1050  -32.7120 C   0  0  0  0  0  0  0  0  0  0  0  0
   -5.8230   21.8470  -32.0170 C   0  0  0  0  0  0  0  0  0  0  0  0
   -4.8540   23.0450  -28.8600 C   0  0  0  0  0  0  0  0  0  0  0  0
   -1.2774   23.2518  -24.9367 H   0  0  0  0  0  0  0  0  0  0  0  0
   -0.8923   21.7722  -25.8797 H   0  0  0  0  0  0  0  0  0  0  0  0
    0.2487   23.1595  -25.8797 H   0  0  0  0  0  0  0  0  0  0  0  0
   -3.2918   22.2285  -26.7797 H   0  0  0  0  0  0  0  0  0  0  0  0
   -1.0885   25.7472  -29.5591 H   0  0  0  0  0  0  0  0  0  0  0  0
   -5.5109   25.5253  -30.1169 H   0  0  0  0  0  0  0  0  0  0  0  0
   -5.0572   24.8914  -31.7404 H   0  0  0  0  0  0  0  0  0  0  0  0
   -7.8728   23.3927  -29.7519 H   0  0  0  0  0  0  0  0  0  0  0  0
   -9.5782   22.0678  -30.9995 H   0  0  0  0  0  0  0  0  0  0  0  0
   -8.8829   20.6012  -32.8954 H   0  0  0  0  0  0  0  0  0  0  0  0
   -6.4779   20.4575  -33.5472 H   0  0  0  0  0  0  0  0  0  0  0  0
   -4.7640   21.7803  -32.3071 H   0  0  0  0  0  0  0  0  0  0  0  0
   -5.5745   23.4801  -28.1517 H   0  0  0  0  0  0  0  0  0  0  0  0
   -4.8687   21.9467  -28.8011 H   0  0  0  0  0  0  0  0  0  0  0  0
  1  2  1  0
  2  3  2  0
  3  4  1  0
  4  5  2  0
  5  6  1  0
  6  7  2  0
  7  8  1  0
  5  9  1  0
  9 10  1  0
 10 11  1  0
 11 12  1  0
 12 13  2  0
 13 14  1  0
 14 15  2  0
 15 16  1  0
 16 17  2  0
 11 18  1  0
  7  2  1  0
 17 12  1  0
 18  4  1  0
  1 19  1  0
  1 20  1  0
  1 21  1  0
  3 22  1  0
  6 23  1  0
 10 24  1  0
 10 25  1  0
 13 26  1  0
 14 27  1  0
 15 28  1  0
 16 29  1  0
 17 30  1  0
 18 31  1  0
 18 32  1  0
M  END
>  <UniqueID>  (7) 
7

>  <SMILES>  (7) 
Cc1cc2c(cc1Cl)OCN(c1ccccc1)C2

>  <Energy>  (7) 
40.93725767168638

>  <Genealogy>  (7) 
Cc1cc2c(cc1Cl)OCN(c1ccccc1)C2 (3D coordinates assigned)
Cc1cc2c(cc1Cl)OCN(c1ccccc1)C2 (nonaromatic ring conformer: 40.93725767168638 kcal/mol)

>  <smiles>  (7) 
Cc1cc2c(cc1Cl)OCN(c1ccccc1)C2

>  <score_type>  (7) 
oracle

>  <origin>  (7) 
adg

>  <m_score__min__energy>  (7) 
-7.1699999999999999

>  <m_primary>  (7) 
energy

$$$$
7:0
     RDKit          3D

 67 69  0  0  0  0  0  0  0  0999 V2000
   -2.4950   25.2770  -26.3550 C   0  0  0  0  0  0  0  0  0  0  0  0
   -1.5990   25.4540  -27.5770 C   0  0  0  0  0  0  0  0  0  0  0  0
   -2.1740   24.7830  -28.7660 N   0  0  0  0  0  0  0  0  0  0  0  0
   -1.2480   23.7810  -29.3500 C   0  0  0  0  0  0  0  0  0  0  0  0
   -0.9920   22.5710  -28.4380 C   0  0  0  0  0  0  0  0  0  0  0  0
   -3.5410   24.2430  -28.5400 C   0  0  0  0  0  0  0  0  0  0  0  0
   -4.0730   23.5680  -29.8130 C   0  0  0  0  0  0  0  0  0  0  0  0
   -4.2710   24.5160  -30.8490 O   0  0  0  0  0  0  0  0  0  0  0  0
   -5.6340   24.8610  -30.9840 C   0  0  0  0  0  0  0  0  0  0  0  0
   -6.3470   23.7860  -31.8110 C   0  0  0  0  0  0  0  0  0  0  0  0
   -7.6810   23.3570  -31.1780 C   0  0  0  0  0  0  0  0  0  0  0  0
   -8.4010   22.4120  -32.0470 N   0  0  0  0  0  0  0  0  0  0  0  0
   -9.1810   21.4150  -31.2970 C   0  0  0  0  0  0  0  0  0  0  0  0
   -8.7700   19.9670  -31.6420 C   0  0  0  0  0  0  0  0  0  0  0  0
   -8.2760   19.8830  -33.0310 N   0  0  0  0  0  0  0  0  0  0  0  0
   -6.8660   19.5570  -33.0910 C   0  0  0  0  0  0  0  0  0  0  0  0
   -6.4230   18.2280  -32.9770 C   0  0  0  0  0  0  0  0  0  0  0  0
   -5.0610   17.9290  -33.0230 C   0  0  0  0  0  0  0  0  0  0  0  0
   -4.0900   18.9490  -33.1160 C   0  0  0  0  0  0  0  0  0  0  0  0
   -4.5330   20.3020  -33.0840 C   0  0  0  0  0  0  0  0  0  0  0  0
   -5.9040   20.5840  -33.1220 C   0  0  0  0  0  0  0  0  0  0  0  0
   -3.6720   21.4000  -32.9620 O   0  0  0  0  0  0  0  0  0  0  0  0
   -2.3620   21.3270  -32.4170 C   0  0  0  0  0  0  0  0  0  0  0  0
   -1.4440   20.7550  -33.4480 C   0  0  0  0  0  0  0  0  0  0  0  0
   -0.4140   21.5450  -33.9940 C   0  0  0  0  0  0  0  0  0  0  0  0
    0.4330   21.0210  -34.9730 C   0  0  0  0  0  0  0  0  0  0  0  0
    0.2800   19.6970  -35.3890 C   0  0  0  0  0  0  0  0  0  0  0  0
   -0.7410   18.9060  -34.8560 C   0  0  0  0  0  0  0  0  0  0  0  0
   -1.6210   19.4270  -33.8860 C   0  0  0  0  0  0  0  0  0  0  0  0
   -2.6630   18.5410  -33.3080 C   0  0  0  0  0  0  0  0  0  0  0  0
   -2.3440   17.3400  -33.0760 O   0  0  0  0  0  0  0  0  0  0  0  0
   -1.8954   25.3955  -25.4404 H   0  0  0  0  0  0  0  0  0  0  0  0
   -3.2919   26.0351  -26.3717 H   0  0  0  0  0  0  0  0  0  0  0  0
   -2.9438   24.2728  -26.3717 H   0  0  0  0  0  0  0  0  0  0  0  0
   -1.4898   26.5278  -27.7890 H   0  0  0  0  0  0  0  0  0  0  0  0
   -0.6211   24.9995  -27.3600 H   0  0  0  0  0  0  0  0  0  0  0  0
   -1.6794   23.4186  -30.2948 H   0  0  0  0  0  0  0  0  0  0  0  0
   -0.2806   24.2839  -29.4959 H   0  0  0  0  0  0  0  0  0  0  0  0
   -1.0583   22.8845  -27.3857 H   0  0  0  0  0  0  0  0  0  0  0  0
   -1.7459   21.7953  -28.6377 H   0  0  0  0  0  0  0  0  0  0  0  0
    0.0115   22.1671  -28.6377 H   0  0  0  0  0  0  0  0  0  0  0  0
   -3.5077   23.5040  -27.7259 H   0  0  0  0  0  0  0  0  0  0  0  0
   -4.2107   25.0737  -28.2728 H   0  0  0  0  0  0  0  0  0  0  0  0
   -3.3466   22.8139  -30.1501 H   0  0  0  0  0  0  0  0  0  0  0  0
   -5.0397   23.0972  -29.5809 H   0  0  0  0  0  0  0  0  0  0  0  0
   -6.0972   24.9265  -29.9884 H   0  0  0  0  0  0  0  0  0  0  0  0
   -5.7203   25.8339  -31.4900 H   0  0  0  0  0  0  0  0  0  0  0  0
   -6.5442   24.1854  -32.8168 H   0  0  0  0  0  0  0  0  0  0  0  0
   -5.6930   22.9025  -31.8527 H   0  0  0  0  0  0  0  0  0  0  0  0
   -7.4804   22.8738  -30.2104 H   0  0  0  0  0  0  0  0  0  0  0  0
   -8.3063   24.2516  -31.0415 H   0  0  0  0  0  0  0  0  0  0  0  0
   -7.7230   21.9320  -32.6850 H   0  0  0  0  0  0  0  0  0  0  0  0
   -9.0241   21.5801  -30.2208 H   0  0  0  0  0  0  0  0  0  0  0  0
  -10.2385   21.5389  -31.5732 H   0  0  0  0  0  0  0  0  0  0  0  0
   -7.9738   19.6440  -30.9552 H   0  0  0  0  0  0  0  0  0  0  0  0
   -9.6498   19.3149  -31.5389 H   0  0  0  0  0  0  0  0  0  0  0  0
   -8.8330   19.1520  -33.5370 H   0  0  0  0  0  0  0  0  0  0  0  0
   -8.4250   20.8030  -33.5150 H   0  0  0  0  0  0  0  0  0  0  0  0
   -7.1558   17.4174  -32.8505 H   0  0  0  0  0  0  0  0  0  0  0  0
   -4.7378   16.8782  -32.9861 H   0  0  0  0  0  0  0  0  0  0  0  0
   -6.2365   21.6311  -33.1773 H   0  0  0  0  0  0  0  0  0  0  0  0
   -2.0213   22.3346  -32.1366 H   0  0  0  0  0  0  0  0  0  0  0  0
   -2.3642   20.6877  -31.5218 H   0  0  0  0  0  0  0  0  0  0  0  0
   -0.2759   22.5799  -33.6477 H   0  0  0  0  0  0  0  0  0  0  0  0
    1.2193   21.6502  -35.4156 H   0  0  0  0  0  0  0  0  0  0  0  0
    0.9655   19.2753  -36.1388 H   0  0  0  0  0  0  0  0  0  0  0  0
   -0.8592   17.8668  -35.1966 H   0  0  0  0  0  0  0  0  0  0  0  0
  1  2  1  0
  2  3  1  0
  3  4  1  0
  4  5  1  0
  3  6  1  0
  6  7  1  0
  7  8  1  0
  8  9  1  0
  9 10  1  0
 10 11  1  0
 11 12  1  0
 12 13  1  0
 13 14  1  0
 14 15  1  0
 15 16  1  0
 16 17  2  0
 17 18  1  0
 18 19  2  0
 19 20  1  0
 20 21  2  0
 20 22  1  0
 22 23  1  0
 23 24  1  0
 24 25  2  0
 25 26  1  0
 26 27  2  0
 27 28  1  0
 28 29  2  0
 29 30  1  0
 30 31  2  0
 21 16  1  0
 29 24  1  0
 30 19  1  0
  1 32  1  0
  1 33  1  0
  1 34  1  0
  2 35  1  0
  2 36  1  0
  4 37  1  0
  4 38  1  0
  5 39  1  0
  5 40  1  0
  5 41  1  0
  6 42  1  0
  6 43  1  0
  7 44  1  0
  7 45  1  0
  9 46  1  0
  9 47  1  0
 10 48  1  0
 10 49  1  0
 11 50  1  0
 11 51  1  0
 12 52  1  0
 13 53  1  0
 13 54  1  0
 14 55  1  0
 14 56  1  0
 15 57  1  0
 15 58  1  0
 17 59  1  0
 18 60  1  0
 21 61  1  0
 23 62  1  0
 23 63  1  0
 25 64  1  0
 26 65  1  0
 27 66  1  0
 28 67  1  0
M  CHG  1  15   1
M  END
>  <UniqueID>  (8) 
8

>  <SMILES>  (8) 
CCN(CC)CCOCCCNCC[NH2+]c1ccc2c(c1)OCc1ccccc1C2=O

>  <Energy>  (8) 
86.25662926694018

>  <Genealogy>  (8) 
CCN(CC)CCOCCCNCC[NH2+]c1ccc2c(c1)OCc1ccccc1C2=O (protonated)
CCN(CC)CCOCCCNCC[NH2+]c1ccc2c(c1)OCc1ccccc1C2=O (3D coordinates assigned)
CCN(CC)CCOCCCNCC[NH2+]c1ccc2c(c1)OCc1ccccc1C2=O (nonaromatic ring conformer: 86.25662926694018 kcal/mol)

>  <smiles>  (8) 
CCN(CC)CCOCCCNCCNc1ccc2c(c1)OCc1ccccc1C2=O

>  <score_type>  (8) 
oracle

>  <origin>  (8) 
adg

>  <m_score__min__energy>  (8) 
-7.7300000000000004

>  <m_primary>  (8) 
energy

$$$$
8:0
     RDKit          3D

 30 32  0  0  0  0  0  0  0  0999 V2000
   -9.0140   20.4240  -32.3710 C   0  0  0  0  0  0  0  0  0  0  0  0
   -7.8010   21.1830  -32.0120 N   0  0  0  0  0  0  0  0  0  0  0  0
   -6.5520   20.6040  -32.0860 C   0  0  0  0  0  0  0  0  0  0  0  0
   -6.3380   19.2340  -32.6010 C   0  0  0  0  0  0  0  0  0  0  0  0
   -6.3090   18.1480  -31.7110 C   0  0  0  0  0  0  0  0  0  0  0  0
   -6.0810   16.8530  -32.1860 C   0  0  0  0  0  0  0  0  0  0  0  0
   -5.8660   16.6350  -33.5510 C   0  0  0  0  0  0  0  0  0  0  0  0
   -5.5520   14.8650  -34.1980 Br  0  0  0  0  0  0  0  0  0  0  0  0
   -5.8720   17.7140  -34.4390 C   0  0  0  0  0  0  0  0  0  0  0  0
   -6.0990   19.0100  -33.9680 C   0  0  0  0  0  0  0  0  0  0  0  0
   -5.4560   21.2960  -31.6800 N   0  0  0  0  0  0  0  0  0  0  0  0
   -5.5400   22.5710  -31.2350 C   0  0  0  0  0  0  0  0  0  0  0  0
   -4.3850   23.2490  -30.8300 C   0  0  0  0  0  0  0  0  0  0  0  0
   -4.4690   24.5720  -30.3880 C   0  0  0  0  0  0  0  0  0  0  0  0
   -5.7060   25.2220  -30.3510 C   0  0  0  0  0  0  0  0  0  0  0  0
   -6.8640   24.5500  -30.7550 C   0  0  0  0  0  0  0  0  0  0  0  0
   -6.7890   23.2160  -31.2000 C   0  0  0  0  0  0  0  0  0  0  0  0
   -7.9220   22.4920  -31.6070 C   0  0  0  0  0  0  0  0  0  0  0  0
   -9.0540   23.0520  -31.5970 O   0  0  0  0  0  0  0  0  0  0  0  0
   -9.5294   20.1015  -31.4543 H   0  0  0  0  0  0  0  0  0  0  0  0
   -9.6849   21.0637  -32.9632 H   0  0  0  0  0  0  0  0  0  0  0  0
   -8.7321   19.5409  -32.9632 H   0  0  0  0  0  0  0  0  0  0  0  0
   -6.4664   18.3170  -30.6355 H   0  0  0  0  0  0  0  0  0  0  0  0
   -6.0707   16.0047  -31.4858 H   0  0  0  0  0  0  0  0  0  0  0  0
   -5.6976   17.5428  -35.5115 H   0  0  0  0  0  0  0  0  0  0  0  0
   -6.0906   19.8575  -34.6692 H   0  0  0  0  0  0  0  0  0  0  0  0
   -3.4102   22.7402  -30.8596 H   0  0  0  0  0  0  0  0  0  0  0  0
   -3.5601   25.1029  -30.0686 H   0  0  0  0  0  0  0  0  0  0  0  0
   -5.7687   26.2638  -30.0035 H   0  0  0  0  0  0  0  0  0  0  0  0
   -7.8357   25.0646  -30.7251 H   0  0  0  0  0  0  0  0  0  0  0  0
  1  2  1  0
  2  3  1  0
  3  4  1  0
  4  5  2  0
  5  6  1  0
  6  7  2  0
  7  8  1  0
  7  9  1  0
  9 10  2  0
  3 11  2  0
 11 12  1  0
 12 13  2  0
 13 14  1  0
 14 15  2  0
 15 16  1  0
 16 17  2  0
 17 18  1  0
 18 19  2  0
 18  2  1  0
 10  4  1  0
 17 12  1  0
  1 20  1  0
  1 21  1  0
  1 22  1  0
  5 23  1  0
  6 24  1  0
  9 25  1  0
 10 26  1  0
 13 27  1  0
 14 28  1  0
 15 29  1  0
 16 30  1  0
M  END
>  <UniqueID>  (9) 
9

>  <SMILES>  (9) 
Cn1c(-c2ccc(Br)cc2)nc2ccccc2c1=O

>  <Energy>  (9) 
47.60533886086785

>  <Genealogy>  (9) 
Cn1c(-c2ccc(Br)cc2)nc2ccccc2c1=O (3D coordinates assigned)
Cn1c(-c2ccc(Br)cc2)nc2ccccc2c1=O (optimized conformer: 47.60533886086785 kcal/mol)

>  <smiles>  (9) 
Cn1c(-c2ccc(Br)cc2)nc2ccccc2c1=O

>  <score_type>  (9) 
oracle

>  <origin>  (9) 
adg

>  <m_score__min__energy>  (9) 
-7.6600000000000001

>  <m_primary>  (9) 
energy

$$$$
9:0
     RDKit          3D

 41 43  0  0  0  0  0  0  0  0999 V2000
   -6.6390   25.3190  -29.8190 C   0  0  0  0  0  0  0  0  0  0  0  0
   -5.3530   24.5270  -29.5530 C   0  0  0  0  0  0  0  0  0  0  0  0
   -4.6120   24.1560  -30.7800 N   0  0  0  0  0  0  0  0  0  0  0  0
   -3.2540   23.6170  -30.5490 C   0  0  0  0  0  0  0  0  0  0  0  0
   -3.1800   22.0910  -30.7170 C   0  0  0  0  0  0  0  0  0  0  0  0
   -3.7870   21.6520  -31.9830 N   0  0  0  0  0  0  0  0  0  0  0  0
   -3.5250   20.3090  -32.4530 C   0  0  0  0  0  0  0  0  0  0  0  0
   -2.6530   19.6030  -31.8730 O   0  0  0  0  0  0  0  0  0  0  0  0
   -4.2490   19.7090  -33.6240 C   0  0  0  0  0  0  0  0  0  0  0  0
   -5.3800   18.8950  -33.1760 N   0  0  0  0  0  0  0  0  0  0  0  0
   -5.3250   17.5770  -33.0190 N   0  0  0  0  0  0  0  0  0  0  0  0
   -6.4840   17.1370  -32.4810 C   0  0  0  0  0  0  0  0  0  0  0  0
   -7.2950   18.2350  -32.2800 C   0  0  0  0  0  0  0  0  0  0  0  0
   -8.5630   18.3640  -31.7160 C   0  0  0  0  0  0  0  0  0  0  0  0
   -9.1050   19.6610  -31.6180 C   0  0  0  0  0  0  0  0  0  0  0  0
   -8.3730   20.7810  -32.0730 C   0  0  0  0  0  0  0  0  0  0  0  0
   -9.0610   22.3850  -31.9330 Cl  0  0  0  0  0  0  0  0  0  0  0  0
   -7.0910   20.6150  -32.6320 C   0  0  0  0  0  0  0  0  0  0  0  0
   -6.5790   19.3160  -32.7210 C   0  0  0  0  0  0  0  0  0  0  0  0
   -4.6030   22.6070  -32.7450 C   0  0  0  0  0  0  0  0  0  0  0  0
   -5.4420   23.4460  -31.7780 C   0  0  0  0  0  0  0  0  0  0  0  0
   -7.0996   25.6027  -28.8612 H   0  0  0  0  0  0  0  0  0  0  0  0
   -6.3989   26.2259  -30.3933 H   0  0  0  0  0  0  0  0  0  0  0  0
   -7.3409   24.6964  -30.3933 H   0  0  0  0  0  0  0  0  0  0  0  0
   -4.6929   25.1402  -28.9219 H   0  0  0  0  0  0  0  0  0  0  0  0
   -5.6518   23.5879  -29.0643 H   0  0  0  0  0  0  0  0  0  0  0  0
   -2.5643   24.0832  -31.2680 H   0  0  0  0  0  0  0  0  0  0  0  0
   -2.9792   23.8485  -29.5093 H   0  0  0  0  0  0  0  0  0  0  0  0
   -2.1245   21.7816  -30.7018 H   0  0  0  0  0  0  0  0  0  0  0  0
   -3.7390   21.6279  -29.8905 H   0  0  0  0  0  0  0  0  0  0  0  0
   -4.6207   20.5175  -34.2707 H   0  0  0  0  0  0  0  0  0  0  0  0
   -3.5498   19.0655  -34.1780 H   0  0  0  0  0  0  0  0  0  0  0  0
   -4.4950   16.9870  -33.2460 H   0  0  0  0  0  0  0  0  0  0  0  0
   -6.7354   16.0923  -32.2458 H   0  0  0  0  0  0  0  0  0  0  0  0
   -9.1205   17.4850  -31.3602 H   0  0  0  0  0  0  0  0  0  0  0  0
  -10.1057   19.8028  -31.1839 H   0  0  0  0  0  0  0  0  0  0  0  0
   -6.5107   21.4792  -32.9874 H   0  0  0  0  0  0  0  0  0  0  0  0
   -3.9451   23.2680  -33.3282 H   0  0  0  0  0  0  0  0  0  0  0  0
   -5.2689   22.0581  -33.4272 H   0  0  0  0  0  0  0  0  0  0  0  0
   -6.0107   24.1886  -32.3568 H   0  0  0  0  0  0  0  0  0  0  0  0
   -6.1093   22.7620  -31.2332 H   0  0  0  0  0  0  0  0  0  0  0  0
  1  2  1  0
  2  3  1  0
  3  4  1  0
  4  5  1  0
  5  6  1  0
  6  7  1  0
  7  8  2  0
  7  9  1  0
  9 10  1  0
 10 11  1  0
 11 12  2  0
 12 13  1  0
 13 14  2  0
 14 15  1  0
 15 16  2  0
 16 17  1  0
 16 18  1  0
 18 19  2  0
  6 20  1  0
 20 21  1  0
 21  3  1  0
 19 10  1  0
 19 13  1  0
  1 22  1  0
  1 23  1  0
  1 24  1  0
  2 25  1  0
  2 26  1  0
  4 27  1  0
  4 28  1  0
  5 29  1  0
  5 30  1  0
  9 31  1  0
  9 32  1  0
 11 33  1  0
 12 34  1  0
 14 35  1  0
 15 36  1  0
 18 37  1  0
 20 38  1  0
 20 39  1  0
 21 40  1  0
 21 41  1  0
M  CHG  1  11   1
M  END
>  <UniqueID>  (10) 
10

>  <SMILES>  (10) 
CCN1CCN(C(=O)Cn2[nH+]cc3ccc(Cl)cc32)CC1

>  <Energy>  (10) 
89.3629437235884

>  <Genealogy>  (10) 
CCN1CCN(C(=O)Cn2[nH+]cc3ccc(Cl)cc32)CC1 (protonated)
CCN1CCN(C(=O)Cn2[nH+]cc3ccc(Cl)cc32)CC1 (3D coordinates assigned)
CCN1CCN(C(=O)Cn2[nH+]cc3ccc(Cl)cc32)CC1 (nonaromatic ring conformer: 89.3629437235884 kcal/mol)

>  <smiles>  (10) 
CCN1CCN(C(=O)Cn2ncc3ccc(Cl)cc32)CC1

>  <score_type>  (10) 
oracle

>  <origin>  (10) 
adg

>  <m_score__min__energy>  (10) 
-7.4900000000000002

>  <m_primary>  (10) 
energy

$$$$
10:0
     RDKit          3D

 64 67  0  0  0  0  0  0  0  0999 V2000
   -0.0390   19.9580  -31.3740 C   0  0  0  0  0  0  0  0  0  0  0  0
   -0.1980   21.4720  -31.4410 C   0  0  0  0  0  0  0  0  0  0  0  0
   -1.3480   21.9080  -30.6370 N   0  0  0  0  0  0  0  0  0  0  0  0
   -1.3530   22.3450  -29.3460 C   0  0  0  0  0  0  0  0  0  0  0  0
   -0.1440   22.5160  -28.4650 C   0  0  0  0  0  0  0  0  0  0  0  0
   -0.4220   23.5290  -27.3490 C   0  0  0  0  0  0  0  0  0  0  0  0
    0.4160   23.2210  -26.1670 N   0  0  0  0  0  0  0  0  0  0  0  0
   -0.3740   23.0070  -24.9330 C   0  0  0  0  0  0  0  0  0  0  0  0
   -0.8600   24.3280  -24.3000 C   0  0  0  0  0  0  0  0  0  0  0  0
    0.2700   25.2560  -24.0910 N   0  0  0  0  0  0  0  0  0  0  0  0
   -0.1310   26.4990  -23.3870 C   0  0  0  0  0  0  0  0  0  0  0  0
   -0.8580   27.5370  -24.2560 C   0  0  0  0  0  0  0  0  0  0  0  0
    0.9690   25.5190  -25.3650 C   0  0  0  0  0  0  0  0  0  0  0  0
    1.5000   24.2040  -25.9570 C   0  0  0  0  0  0  0  0  0  0  0  0
   -2.6400   22.7030  -28.9520 C   0  0  0  0  0  0  0  0  0  0  0  0
   -3.4310   22.4850  -30.0550 C   0  0  0  0  0  0  0  0  0  0  0  0
   -4.7950   22.7000  -30.2350 C   0  0  0  0  0  0  0  0  0  0  0  0
   -5.3490   22.4250  -31.5020 C   0  0  0  0  0  0  0  0  0  0  0  0
   -7.0740   22.6780  -31.7860 S   0  0  0  0  0  0  0  0  0  0  0  0
   -7.7150   23.1580  -30.5130 O   0  0  0  0  0  0  0  0  0  0  0  0
   -7.2450   23.7500  -32.8260 O   0  0  0  0  0  0  0  0  0  0  0  0
   -7.8940   21.2300  -32.3220 N   0  0  0  0  0  0  0  0  0  0  0  0
   -6.9580   20.2020  -32.7710 C   0  0  0  0  0  0  0  0  0  0  0  0
   -7.6720   18.8710  -32.6060 C   0  0  0  0  0  0  0  0  0  0  0  0
   -8.7880   19.1350  -31.6050 C   0  0  0  0  0  0  0  0  0  0  0  0
   -8.6710   20.6090  -31.2510 C   0  0  0  0  0  0  0  0  0  0  0  0
   -4.5210   21.9340  -32.5400 C   0  0  0  0  0  0  0  0  0  0  0  0
   -3.1470   21.7290  -32.3270 C   0  0  0  0  0  0  0  0  0  0  0  0
   -2.6270   22.0130  -31.0600 C   0  0  0  0  0  0  0  0  0  0  0  0
   -0.0055   19.6390  -30.3218 H   0  0  0  0  0  0  0  0  0  0  0  0
   -0.8916   19.4772  -31.8759 H   0  0  0  0  0  0  0  0  0  0  0  0
    0.8949   19.6648  -31.8759 H   0  0  0  0  0  0  0  0  0  0  0  0
    0.7148   21.9487  -31.0543 H   0  0  0  0  0  0  0  0  0  0  0  0
   -0.3663   21.7646  -32.4879 H   0  0  0  0  0  0  0  0  0  0  0  0
    0.1145   21.5460  -28.0152 H   0  0  0  0  0  0  0  0  0  0  0  0
    0.6895   22.8880  -29.0789 H   0  0  0  0  0  0  0  0  0  0  0  0
   -0.1867   24.5415  -27.7088 H   0  0  0  0  0  0  0  0  0  0  0  0
   -1.4831   23.4720  -27.0649 H   0  0  0  0  0  0  0  0  0  0  0  0
   -1.2515   22.3911  -25.1794 H   0  0  0  0  0  0  0  0  0  0  0  0
    0.2802   22.5093  -24.2020 H   0  0  0  0  0  0  0  0  0  0  0  0
   -1.5950   24.7995  -24.9689 H   0  0  0  0  0  0  0  0  0  0  0  0
   -1.3178   24.1045  -23.3251 H   0  0  0  0  0  0  0  0  0  0  0  0
    0.9500   24.7790  -23.4510 H   0  0  0  0  0  0  0  0  0  0  0  0
   -0.7991   26.2206  -22.5587 H   0  0  0  0  0  0  0  0  0  0  0  0
    0.8026   26.9775  -23.0563 H   0  0  0  0  0  0  0  0  0  0  0  0
   -1.3679   28.2651  -23.6080 H   0  0  0  0  0  0  0  0  0  0  0  0
   -0.1276   28.0597  -24.8910 H   0  0  0  0  0  0  0  0  0  0  0  0
   -1.5989   27.0292  -24.8910 H   0  0  0  0  0  0  0  0  0  0  0  0
    0.2683   25.9813  -26.0758 H   0  0  0  0  0  0  0  0  0  0  0  0
    1.8146   26.1973  -25.1784 H   0  0  0  0  0  0  0  0  0  0  0  0
    1.9804   24.4166  -26.9234 H   0  0  0  0  0  0  0  0  0  0  0  0
    2.2195   23.7736  -25.2449 H   0  0  0  0  0  0  0  0  0  0  0  0
   -2.9561   23.0798  -27.9681 H   0  0  0  0  0  0  0  0  0  0  0  0
   -5.4223   23.0737  -29.4123 H   0  0  0  0  0  0  0  0  0  0  0  0
   -6.6930   20.3634  -33.8263 H   0  0  0  0  0  0  0  0  0  0  0  0
   -6.0255   20.2295  -32.1882 H   0  0  0  0  0  0  0  0  0  0  0  0
   -8.0882   18.5353  -33.5673 H   0  0  0  0  0  0  0  0  0  0  0  0
   -6.9901   18.0800  -32.2606 H   0  0  0  0  0  0  0  0  0  0  0  0
   -9.7685   18.9242  -32.0570 H   0  0  0  0  0  0  0  0  0  0  0  0
   -8.7016   18.4923  -30.7165 H   0  0  0  0  0  0  0  0  0  0  0  0
   -9.6696   21.0663  -31.1911 H   0  0  0  0  0  0  0  0  0  0  0  0
   -8.1850   20.7472  -30.2739 H   0  0  0  0  0  0  0  0  0  0  0  0
   -4.9580   21.7104  -33.5244 H   0  0  0  0  0  0  0  0  0  0  0  0
   -2.4990   21.3558  -33.1338 H   0  0  0  0  0  0  0  0  0  0  0  0
  1  2  1  0
  2  3  1  0
  3  4  1  0
  4  5  1  0
  5  6  1  0
  6  7  1  0
  7  8  1  0
  8  9  1  0
  9 10  1  0
 10 11  1  0
 11 12  1  0
 10 13  1  0
 13 14  1  0
  4 15  2  0
 15 16  1  0
 16 17  2  0
 17 18  1  0
 18 19  1  0
 19 20  2  0
 19 21  2  0
 19 22  1  0
 22 23  1  0
 23 24  1  0
 24 25  1  0
 25 26  1  0
 18 27  2  0
 27 28  1  0
 28 29  2  0
 29  3  1  0
 14  7  1  0
 29 16  1  0
 26 22  1  0
  1 30  1  0
  1 31  1  0
  1 32  1  0
  2 33  1  0
  2 34  1  0
  5 35  1  0
  5 36  1  0
  6 37  1  0
  6 38  1  0
  8 39  1  0
  8 40  1  0
  9 41  1  0
  9 42  1  0
 10 43  1  0
 11 44  1  0
 11 45  1  0
 12 46  1  0
 12 47  1  0
 12 48  1  0
 13 49  1  0
 13 50  1  0
 14 51  1  0
 14 52  1  0
 15 53  1  0
 17 54  1  0
 23 55  1  0
 23 56  1  0
 24 57  1  0
 24 58  1  0
 25 59  1  0
 25 60  1  0
 26 61  1  0
 26 62  1  0
 27 63  1  0
 28 64  1  0
M  CHG  1  10   1
M  END
>  <UniqueID>  (11) 
11

>  <SMILES>  (11) 
CCn1c(CCN2CC[NH+](CC)CC2)cc2cc(S(=O)(=O)N3CCCC3)ccc21

>  <Energy>  (11) 
101.21421738868769

>  <Genealogy>  (11) 
CCn1c(CCN2CC[NH+](CC)CC2)cc2cc(S(=O)(=O)N3CCCC3)ccc21 (protonated)
CCn1c(CCN2CC[NH+](CC)CC2)cc2cc(S(=O)(=O)N3CCCC3)ccc21 (3D coordinates assigned)
CCn1c(CCN2CC[NH+](CC)CC2)cc2cc(S(=O)(=O)N3CCCC3)ccc21 (nonaromatic ring conformer: 101.21421738868769 kcal/mol)

>  <smiles>  (11) 
CCN1CCN(CCc2cc3cc(S(=O)(=O)N4CCCC4)ccc3n2CC)CC1

>  <score_type>  (11) 
oracle

>  <origin>  (11) 
adg

>  <m_score__min__energy>  (11) 
-9.5099999999999998

>  <m_primary>  (11) 
energy

$$$$
11:0
     RDKit          3D

 40 42  0  0  0  0  0  0  0  0999 V2000
   -3.1100   21.5700  -27.8500 C   0  0  0  0  0  0  0  0  0  0  0  0
   -3.2900   22.2660  -29.1950 C   0  0  0  0  0  0  0  0  0  0  0  0
   -3.6010   23.6870  -29.0080 N   0  0  0  0  0  0  0  0  0  0  0  0
   -2.8760   24.4810  -28.0510 C   0  0  0  0  0  0  0  0  0  0  0  0
   -1.6180   25.0180  -28.3750 C   0  0  0  0  0  0  0  0  0  0  0  0
   -0.9240   25.7970  -27.4460 C   0  0  0  0  0  0  0  0  0  0  0  0
   -1.4790   26.0480  -26.1870 C   0  0  0  0  0  0  0  0  0  0  0  0
   -0.8040   26.8050  -25.2870 F   0  0  0  0  0  0  0  0  0  0  0  0
   -2.7300   25.5200  -25.8580 C   0  0  0  0  0  0  0  0  0  0  0  0
   -3.4270   24.7390  -26.7860 C   0  0  0  0  0  0  0  0  0  0  0  0
   -4.8620   24.4130  -29.9600 S   0  0  0  0  0  0  0  0  0  0  0  0
   -4.2370   25.3190  -30.9840 O   0  0  0  0  0  0  0  0  0  0  0  0
   -5.7820   25.2180  -29.0860 O   0  0  0  0  0  0  0  0  0  0  0  0
   -5.8040   23.1510  -30.7450 C   0  0  0  0  0  0  0  0  0  0  0  0
   -7.1640   22.9750  -30.3940 C   0  0  0  0  0  0  0  0  0  0  0  0
   -7.9370   21.9710  -31.0040 C   0  0  0  0  0  0  0  0  0  0  0  0
   -7.3210   21.1620  -31.9600 C   0  0  0  0  0  0  0  0  0  0  0  0
   -6.0050   21.3340  -32.3030 C   0  0  0  0  0  0  0  0  0  0  0  0
   -5.6990   20.3960  -33.2660 C   0  0  0  0  0  0  0  0  0  0  0  0
   -6.8750   19.6790  -33.4660 C   0  0  0  0  0  0  0  0  0  0  0  0
   -7.8590   20.1490  -32.6660 N   0  0  0  0  0  0  0  0  0  0  0  0
   -9.2330   19.6610  -32.6010 C   0  0  0  0  0  0  0  0  0  0  0  0
   -5.2130   22.3190  -31.7190 C   0  0  0  0  0  0  0  0  0  0  0  0
   -3.2957   22.2882  -27.0378 H   0  0  0  0  0  0  0  0  0  0  0  0
   -3.8218   20.7350  -27.7711 H   0  0  0  0  0  0  0  0  0  0  0  0
   -2.0827   21.1848  -27.7711 H   0  0  0  0  0  0  0  0  0  0  0  0
   -2.3607   22.1736  -29.7762 H   0  0  0  0  0  0  0  0  0  0  0  0
   -4.1248   21.7896  -29.7299 H   0  0  0  0  0  0  0  0  0  0  0  0
   -1.1781   24.8240  -29.3644 H   0  0  0  0  0  0  0  0  0  0  0  0
    0.0605   26.2136  -27.7051 H   0  0  0  0  0  0  0  0  0  0  0  0
   -3.1673   25.7186  -24.8684 H   0  0  0  0  0  0  0  0  0  0  0  0
   -4.4116   24.3250  -26.5231 H   0  0  0  0  0  0  0  0  0  0  0  0
   -7.6205   23.6297  -29.6370 H   0  0  0  0  0  0  0  0  0  0  0  0
   -8.9942   21.8278  -30.7360 H   0  0  0  0  0  0  0  0  0  0  0  0
   -4.7321   20.2463  -33.7688 H   0  0  0  0  0  0  0  0  0  0  0  0
   -6.9883   18.8463  -34.1757 H   0  0  0  0  0  0  0  0  0  0  0  0
   -9.5347   19.5539  -31.5486 H   0  0  0  0  0  0  0  0  0  0  0  0
   -9.9005   20.3770  -33.1027 H   0  0  0  0  0  0  0  0  0  0  0  0
   -9.2993   18.6843  -33.1027 H   0  0  0  0  0  0  0  0  0  0  0  0
   -4.1591   22.4446  -32.0081 H   0  0  0  0  0  0  0  0  0  0  0  0
  1  2  1  0
  2  3  1  0
  3  4  1  0
  4  5  2  0
  5  6  1  0
  6  7  2  0
  7  8  1  0
  7  9  1  0
  9 10  2  0
  3 11  1  0
 11 12  2  0
 11 13  2  0
 11 14  1  0
 14 15  2  0
 15 16  1  0
 16 17  2  0
 17 18  1  0
 18 19  1  0
 19 20  2  0
 20 21  1  0
 21 22  1  0
 18 23  2  0
 10  4  1  0
 23 14  1  0
 21 17  1  0
  1 24  1  0
  1 25  1  0
  1 26  1  0
  2 27  1  0
  2 28  1  0
  5 29  1  0
  6 30  1  0
  9 31  1  0
 10 32  1  0
 15 33  1  0
 16 34  1  0
 19 35  1  0
 20 36  1  0
 22 37  1  0
 22 38  1  0
 22 39  1  0
 23 40  1  0
M  END
>  <UniqueID>  (12) 
12

>  <SMILES>  (12) 
CCN(c1ccc(F)cc1)S(=O)(=O)c1ccc2c(ccn2C)c1

>  <Energy>  (12) 
76.79864504941443

>  <Genealogy>  (12) 
CCN(c1ccc(F)cc1)S(=O)(=O)c1ccc2c(ccn2C)c1 (3D coordinates assigned)
CCN(c1ccc(F)cc1)S(=O)(=O)c1ccc2c(ccn2C)c1 (optimized conformer: 76.79864504941443 kcal/mol)

>  <smiles>  (12) 
CCN(c1ccc(F)cc1)S(=O)(=O)c1ccc2c(ccn2C)c1

>  <score_type>  (12) 
oracle

>  <origin>  (12) 
adg

>  <m_score__min__energy>  (12) 
-8.4000000000000004

>  <m_primary>  (12) 
energy

$$$$
12:0
     RDKit          3D

 74 78  0  0  0  0  0  0  0  0999 V2000
   -4.0910   24.2020  -28.7410 C   0  0  0  0  0  0  0  0  0  0  0  0
   -3.3740   24.5460  -30.0410 C   0  0  0  0  0  0  0  0  0  0  0  0
   -4.2120   25.4520  -30.8410 N   0  0  0  0  0  0  0  0  0  0  0  0
   -5.6230   25.4070  -30.4270 C   0  0  0  0  0  0  0  0  0  0  0  0
   -6.3010   24.0840  -30.8240 C   0  0  0  0  0  0  0  0  0  0  0  0
   -5.6530   23.4710  -31.9890 N   0  0  0  0  0  0  0  0  0  0  0  0
   -5.8000   22.0720  -32.2940 C   0  0  0  0  0  0  0  0  0  0  0  0
   -7.0780   21.4760  -32.3000 C   0  0  0  0  0  0  0  0  0  0  0  0
   -8.2170   22.2170  -31.9240 C   0  0  0  0  0  0  0  0  0  0  0  0
   -9.4830   21.6380  -31.9490 C   0  0  0  0  0  0  0  0  0  0  0  0
   -9.6390   20.3160  -32.3500 C   0  0  0  0  0  0  0  0  0  0  0  0
   -8.5300   19.5650  -32.7300 C   0  0  0  0  0  0  0  0  0  0  0  0
   -7.2260   20.1220  -32.7100 C   0  0  0  0  0  0  0  0  0  0  0  0
   -6.1170   19.3880  -33.0910 N   0  0  0  0  0  0  0  0  0  0  0  0
   -6.2750   17.9830  -33.5290 C   0  0  0  0  0  0  0  0  0  0  0  0
   -4.8630   19.9610  -33.0700 C   0  0  0  0  0  0  0  0  0  0  0  0
   -3.7720   19.2460  -33.4800 N   0  0  0  0  0  0  0  0  0  0  0  0
   -2.5070   19.7420  -33.4370 C   0  0  0  0  0  0  0  0  0  0  0  0
   -1.4340   18.9720  -33.9000 C   0  0  0  0  0  0  0  0  0  0  0  0
   -0.1250   19.4660  -33.8420 C   0  0  0  0  0  0  0  0  0  0  0  0
    0.9030   18.6770  -34.3740 O   0  0  0  0  0  0  0  0  0  0  0  0
    1.7210   17.7700  -33.6350 C   0  0  0  0  0  0  0  0  0  0  0  0
    1.9990   18.3360  -32.2190 C   0  0  0  0  0  0  0  0  0  0  0  0
    1.3140   17.6480  -31.0670 N   0  0  0  0  0  0  0  0  0  0  0  0
    1.2590   16.1780  -31.3060 C   0  0  0  0  0  0  0  0  0  0  0  0
    2.1600   17.8890  -29.8390 C   0  0  0  0  0  0  0  0  0  0  0  0
    1.3460   17.9200  -28.5310 C   0  0  0  0  0  0  0  0  0  0  0  0
    0.3180   19.0680  -28.5570 C   0  0  0  0  0  0  0  0  0  0  0  0
   -0.1490   19.4060  -29.9860 C   0  0  0  0  0  0  0  0  0  0  0  0
   -0.0860   18.1590  -30.8800 C   0  0  0  0  0  0  0  0  0  0  0  0
    0.1040   20.7380  -33.2820 C   0  0  0  0  0  0  0  0  0  0  0  0
   -0.9670   21.5220  -32.8360 C   0  0  0  0  0  0  0  0  0  0  0  0
   -2.2750   21.0320  -32.9220 C   0  0  0  0  0  0  0  0  0  0  0  0
   -3.3680   21.8060  -32.5160 C   0  0  0  0  0  0  0  0  0  0  0  0
   -4.6790   21.2950  -32.6270 C   0  0  0  0  0  0  0  0  0  0  0  0
   -3.4659   24.5019  -27.8870 H   0  0  0  0  0  0  0  0  0  0  0  0
   -5.0508   24.7377  -28.6988 H   0  0  0  0  0  0  0  0  0  0  0  0
   -4.2738   23.1181  -28.6988 H   0  0  0  0  0  0  0  0  0  0  0  0
   -2.4173   25.0383  -29.8124 H   0  0  0  0  0  0  0  0  0  0  0  0
   -3.1863   23.6236  -30.6101 H   0  0  0  0  0  0  0  0  0  0  0  0
   -3.8650   26.4280  -30.6820 H   0  0  0  0  0  0  0  0  0  0  0  0
   -5.6756   25.5184  -29.3339 H   0  0  0  0  0  0  0  0  0  0  0  0
   -6.1520   26.2252  -30.9376 H   0  0  0  0  0  0  0  0  0  0  0  0
   -6.2443   23.3857  -29.9759 H   0  0  0  0  0  0  0  0  0  0  0  0
   -7.3470   24.2999  -31.0872 H   0  0  0  0  0  0  0  0  0  0  0  0
   -4.9870   24.0440  -32.5590 H   0  0  0  0  0  0  0  0  0  0  0  0
   -8.1042   23.2644  -31.6073 H   0  0  0  0  0  0  0  0  0  0  0  0
  -10.3621   22.2281  -31.6507 H   0  0  0  0  0  0  0  0  0  0  0  0
  -10.6409   19.8623  -32.3671 H   0  0  0  0  0  0  0  0  0  0  0  0
   -8.6676   18.5220  -33.0512 H   0  0  0  0  0  0  0  0  0  0  0  0
   -6.3484   17.3300  -32.6469 H   0  0  0  0  0  0  0  0  0  0  0  0
   -7.1895   17.8878  -34.1328 H   0  0  0  0  0  0  0  0  0  0  0  0
   -5.4045   17.6871  -34.1328 H   0  0  0  0  0  0  0  0  0  0  0  0
   -1.6206   17.9698  -34.3132 H   0  0  0  0  0  0  0  0  0  0  0  0
    1.2033   16.8036  -33.5453 H   0  0  0  0  0  0  0  0  0  0  0  0
    2.6766   17.6352  -34.1628 H   0  0  0  0  0  0  0  0  0  0  0  0
    3.0835   18.2780  -32.0442 H   0  0  0  0  0  0  0  0  0  0  0  0
    1.5884   19.3564  -32.2307 H   0  0  0  0  0  0  0  0  0  0  0  0
    1.2392   15.6501  -30.3411 H   0  0  0  0  0  0  0  0  0  0  0  0
    0.3511   15.9330  -31.8766 H   0  0  0  0  0  0  0  0  0  0  0  0
    2.1461   15.8658  -31.8766 H   0  0  0  0  0  0  0  0  0  0  0  0
    2.9061   17.0840  -29.7663 H   0  0  0  0  0  0  0  0  0  0  0  0
    2.6258   18.8788  -29.9549 H   0  0  0  0  0  0  0  0  0  0  0  0
    0.8162   16.9633  -28.4125 H   0  0  0  0  0  0  0  0  0  0  0  0
    2.0352   18.0811  -27.6889 H   0  0  0  0  0  0  0  0  0  0  0  0
   -0.5572   18.7720  -27.9600 H   0  0  0  0  0  0  0  0  0  0  0  0
    0.8045   19.9633  -28.1425 H   0  0  0  0  0  0  0  0  0  0  0  0
   -1.1848   19.7746  -29.9509 H   0  0  0  0  0  0  0  0  0  0  0  0
    0.5136   20.1781  -30.4042 H   0  0  0  0  0  0  0  0  0  0  0  0
   -0.6915   17.3648  -30.4189 H   0  0  0  0  0  0  0  0  0  0  0  0
   -0.4709   18.4417  -31.8709 H   0  0  0  0  0  0  0  0  0  0  0  0
    1.1324   21.1185  -33.1944 H   0  0  0  0  0  0  0  0  0  0  0  0
   -0.7804   22.5224  -32.4183 H   0  0  0  0  0  0  0  0  0  0  0  0
   -3.2050   22.8150  -32.1094 H   0  0  0  0  0  0  0  0  0  0  0  0
  1  2  1  0
  2  3  1  0
  3  4  1  0
  4  5  1  0
  5  6  1  0
  6  7  1  0
  7  8  2  0
  8  9  1  0
  9 10  2  0
 10 11  1  0
 11 12  2  0
 12 13  1  0
 13 14  2  0
 14 15  1  0
 14 16  1  0
 16 17  2  0
 17 18  1  0
 18 19  2  0
 19 20  1  0
 20 21  1  0
 21 22  1  0
 22 23  1  0
 23 24  1  0
 24 25  1  0
 24 26  1  0
 26 27  1  0
 27 28  1  0
 28 29  1  0
 29 30  1  0
 20 31  2  0
 31 32  1  0
 32 33  2  0
 33 34  1  0
 34 35  2  0
 35  7  1  0
 13  8  1  0
 35 16  1  0
 33 18  1  0
 30 24  1  0
  1 36  1  0
  1 37  1  0
  1 38  1  0
  2 39  1  0
  2 40  1  0
  3 41  1  0
  4 42  1  0
  4 43  1  0
  5 44  1  0
  5 45  1  0
  6 46  1  0
  9 47  1  0
 10 48  1  0
 11 49  1  0
 12 50  1  0
 15 51  1  0
 15 52  1  0
 15 53  1  0
 19 54  1  0
 22 55  1  0
 22 56  1  0
 23 57  1  0
 23 58  1  0
 25 59  1  0
 25 60  1  0
 25 61  1  0
 26 62  1  0
 26 63  1  0
 27 64  1  0
 27 65  1  0
 28 66  1  0
 28 67  1  0
 29 68  1  0
 29 69  1  0
 30 70  1  0
 30 71  1  0
 31 72  1  0
 32 73  1  0
 34 74  1  0
M  CHG  2  14   1  24   1
M  END
>  <UniqueID>  (13) 
13

>  <SMILES>  (13) 
CCNCCNc1c2ccccc2[n+](C)c2nc3cc(OCC[N+]4(C)CCCCC4)ccc3cc12

>  <Energy>  (13) 
114.71346226714985

>  <Genealogy>  (13) 
CCNCCNc1c2ccccc2[n+](C)c2nc3cc(OCC[N+]4(C)CCCCC4)ccc3cc12 (3D coordinates assigned)
CCNCCNc1c2ccccc2[n+](C)c2nc3cc(OCC[N+]4(C)CCCCC4)ccc3cc12 (nonaromatic ring conformer: 114.71346226714985 kcal/mol)

>  <smiles>  (13) 
CCNCCNc1c2ccccc2[n+](C)c2nc3cc(OCC[N+]4(C)CCCCC4)ccc3cc12

>  <score_type>  (13) 
oracle

>  <origin>  (13) 
adg

>  <m_score__min__energy>  (13) 
-9.1400000000000006

>  <m_primary>  (13) 
energy

$$$$
13:0
     RDKit          3D

 36 37  0  0  0  0  0  0  0  0999 V2000
   -2.1210   25.5880  -26.0130 C   0  0  0  0  0  0  0  0  0  0  0  0
   -1.4030   26.0310  -27.2860 C   0  0  0  0  0  0  0  0  0  0  0  0
   -1.8760   25.2420  -28.4440 N   0  0  0  0  0  0  0  0  0  0  0  0
   -0.7700   24.4490  -29.0080 C   0  0  0  0  0  0  0  0  0  0  0  0
   -3.0150   24.3650  -28.0790 C   0  0  0  0  0  0  0  0  0  0  0  0
   -3.8860   24.0890  -29.3070 C   0  0  0  0  0  0  0  0  0  0  0  0
   -3.7900   25.2030  -30.2580 N   0  0  0  0  0  0  0  0  0  0  0  0
   -5.1020   25.4850  -30.8490 C   0  0  0  0  0  0  0  0  0  0  0  0
   -5.7900   24.2000  -31.1740 C   0  0  0  0  0  0  0  0  0  0  0  0
   -5.2740   23.2750  -32.0210 N   0  0  0  0  0  0  0  0  0  0  0  0
   -6.0680   22.1750  -32.0790 C   0  0  0  0  0  0  0  0  0  0  0  0
   -5.8080   21.0550  -32.8680 C   0  0  0  0  0  0  0  0  0  0  0  0
   -6.7100   19.9780  -32.8320 C   0  0  0  0  0  0  0  0  0  0  0  0
   -7.8550   20.0320  -32.0110 C   0  0  0  0  0  0  0  0  0  0  0  0
   -9.0690   18.5580  -31.9720 Br  0  0  0  0  0  0  0  0  0  0  0  0
   -8.1060   21.1660  -31.2190 C   0  0  0  0  0  0  0  0  0  0  0  0
   -7.1970   22.2180  -31.2760 C   0  0  0  0  0  0  0  0  0  0  0  0
   -7.2280   23.6770  -30.4460 S   0  0  0  0  0  0  0  0  0  0  0  0
   -1.5577   25.9356  -25.1344 H   0  0  0  0  0  0  0  0  0  0  0  0
   -3.1328   26.0190  -25.9938 H   0  0  0  0  0  0  0  0  0  0  0  0
   -2.1896   24.4903  -25.9938 H   0  0  0  0  0  0  0  0  0  0  0  0
   -1.6073   27.0968  -27.4655 H   0  0  0  0  0  0  0  0  0  0  0  0
   -0.3220   25.8699  -27.1612 H   0  0  0  0  0  0  0  0  0  0  0  0
   -0.1720   24.0203  -28.1903 H   0  0  0  0  0  0  0  0  0  0  0  0
   -1.1794   23.6374  -29.6274 H   0  0  0  0  0  0  0  0  0  0  0  0
   -0.1327   25.0972  -29.6274 H   0  0  0  0  0  0  0  0  0  0  0  0
   -2.6288   23.4128  -27.6863 H   0  0  0  0  0  0  0  0  0  0  0  0
   -3.6239   24.8683  -27.3136 H   0  0  0  0  0  0  0  0  0  0  0  0
   -3.5436   23.1644  -29.7948 H   0  0  0  0  0  0  0  0  0  0  0  0
   -4.9328   23.9797  -28.9871 H   0  0  0  0  0  0  0  0  0  0  0  0
   -3.4870   26.0540  -29.7260 H   0  0  0  0  0  0  0  0  0  0  0  0
   -5.7113   26.0559  -30.1329 H   0  0  0  0  0  0  0  0  0  0  0  0
   -4.9701   26.0725  -31.7696 H   0  0  0  0  0  0  0  0  0  0  0  0
   -4.9134   21.0153  -33.5068 H   0  0  0  0  0  0  0  0  0  0  0  0
   -6.5215   19.0868  -33.4485 H   0  0  0  0  0  0  0  0  0  0  0  0
   -8.9948   21.2201  -30.5732 H   0  0  0  0  0  0  0  0  0  0  0  0
  1  2  1  0
  2  3  1  0
  3  4  1  0
  3  5  1  0
  5  6  1  0
  6  7  1  0
  7  8  1  0
  8  9  1  0
  9 10  2  0
 10 11  1  0
 11 12  2  0
 12 13  1  0
 13 14  2  0
 14 15  1  0
 14 16  1  0
 16 17  2  0
 17 18  1  0
 18  9  1  0
 17 11  1  0
  1 19  1  0
  1 20  1  0
  1 21  1  0
  2 22  1  0
  2 23  1  0
  4 24  1  0
  4 25  1  0
  4 26  1  0
  5 27  1  0
  5 28  1  0
  6 29  1  0
  6 30  1  0
  7 31  1  0
  8 32  1  0
  8 33  1  0
 12 34  1  0
 13 35  1  0
 16 36  1  0
M  END
>  <UniqueID>  (14) 
14

>  <SMILES>  (14) 
CCN(C)CCNCc1nc2ccc(Br)cc2s1

>  <Energy>  (14) 
64.63989717749286

>  <Genealogy>  (14) 
CCN(C)CCNCc1nc2ccc(Br)cc2s1 (3D coordinates assigned)
CCN(C)CCNCc1nc2ccc(Br)cc2s1 (optimized conformer: 64.63989717749286 kcal/mol)

>  <smiles>  (14) 
CCN(C)CCNCc1nc2ccc(Br)cc2s1

>  <score_type>  (14) 
oracle

>  <origin>  (14) 
adg

>  <m_score__min__energy>  (14) 
-7.79

>  <m_primary>  (14) 
energy

$$$$
14:0
     RDKit          3D

 51 52  0  0  0  0  0  0  0  0999 V2000
   -6.0150   25.3240  -29.5210 C   0  0  0  0  0  0  0  0  0  0  0  0
   -5.2750   25.3440  -30.8500 C   0  0  0  0  0  0  0  0  0  0  0  0
   -3.8850   25.2990  -30.6080 O   0  0  0  0  0  0  0  0  0  0  0  0
   -3.5910   24.4180  -29.5370 C   0  0  0  0  0  0  0  0  0  0  0  0
   -3.4190   22.9970  -30.0630 C   0  0  0  0  0  0  0  0  0  0  0  0
   -3.1800   23.0390  -31.4540 O   0  0  0  0  0  0  0  0  0  0  0  0
   -2.3500   21.9620  -31.8320 C   0  0  0  0  0  0  0  0  0  0  0  0
   -3.2010   20.6900  -32.0230 C   0  0  0  0  0  0  0  0  0  0  0  0
   -4.6120   20.9180  -32.4420 N   0  0  0  0  0  0  0  0  0  0  0  0
   -5.6090   20.8560  -31.3260 C   0  0  0  0  0  0  0  0  0  0  0  0
   -6.9680   21.4640  -31.6010 C   0  0  0  0  0  0  0  0  0  0  0  0
   -8.1440   20.7100  -31.4400 C   0  0  0  0  0  0  0  0  0  0  0  0
   -9.3970   21.3000  -31.6340 C   0  0  0  0  0  0  0  0  0  0  0  0
   -9.4900   22.6550  -31.9630 C   0  0  0  0  0  0  0  0  0  0  0  0
   -8.3320   23.4240  -32.0880 C   0  0  0  0  0  0  0  0  0  0  0  0
   -7.0760   22.8360  -31.9000 C   0  0  0  0  0  0  0  0  0  0  0  0
   -5.0000   20.3310  -33.7640 C   0  0  0  0  0  0  0  0  0  0  0  0
   -5.3770   18.8600  -33.7590 C   0  0  0  0  0  0  0  0  0  0  0  0
   -4.5480   17.9120  -34.3900 C   0  0  0  0  0  0  0  0  0  0  0  0
   -4.8880   16.5550  -34.3820 C   0  0  0  0  0  0  0  0  0  0  0  0
   -6.0710   16.1340  -33.7740 C   0  0  0  0  0  0  0  0  0  0  0  0
   -6.9270   17.0700  -33.1920 C   0  0  0  0  0  0  0  0  0  0  0  0
   -6.5910   18.4270  -33.2000 C   0  0  0  0  0  0  0  0  0  0  0  0
   -5.2877   25.3437  -28.6960 H   0  0  0  0  0  0  0  0  0  0  0  0
   -6.6705   26.2048  -29.4530 H   0  0  0  0  0  0  0  0  0  0  0  0
   -6.6219   24.4091  -29.4530 H   0  0  0  0  0  0  0  0  0  0  0  0
   -5.5724   24.4713  -31.4499 H   0  0  0  0  0  0  0  0  0  0  0  0
   -5.5251   26.2642  -31.3984 H   0  0  0  0  0  0  0  0  0  0  0  0
   -2.6609   24.7396  -29.0455 H   0  0  0  0  0  0  0  0  0  0  0  0
   -4.4206   24.4379  -28.8149 H   0  0  0  0  0  0  0  0  0  0  0  0
   -2.5665   22.5192  -29.5581 H   0  0  0  0  0  0  0  0  0  0  0  0
   -4.3327   22.4177  -29.8639 H   0  0  0  0  0  0  0  0  0  0  0  0
   -1.8414   22.2066  -32.7762 H   0  0  0  0  0  0  0  0  0  0  0  0
   -1.6029   21.7848  -31.0443 H   0  0  0  0  0  0  0  0  0  0  0  0
   -2.7156   20.0700  -32.7911 H   0  0  0  0  0  0  0  0  0  0  0  0
   -3.2538   20.2113  -31.0340 H   0  0  0  0  0  0  0  0  0  0  0  0
   -4.5960   21.9430  -32.6660 H   0  0  0  0  0  0  0  0  0  0  0  0
   -5.7617   19.7966  -31.0725 H   0  0  0  0  0  0  0  0  0  0  0  0
   -5.1773   21.4615  -30.5154 H   0  0  0  0  0  0  0  0  0  0  0  0
   -8.0779   19.6484  -31.1594 H   0  0  0  0  0  0  0  0  0  0  0  0
  -10.3106   20.6967  -31.5275 H   0  0  0  0  0  0  0  0  0  0  0  0
  -10.4760   23.1155  -32.1235 H   0  0  0  0  0  0  0  0  0  0  0  0
   -8.4066   24.4934  -32.3346 H   0  0  0  0  0  0  0  0  0  0  0  0
   -6.1671   23.4495  -31.9863 H   0  0  0  0  0  0  0  0  0  0  0  0
   -5.8636   20.8976  -34.1425 H   0  0  0  0  0  0  0  0  0  0  0  0
   -4.1008   20.4026  -34.3935 H   0  0  0  0  0  0  0  0  0  0  0  0
   -3.6266   18.2411  -34.8927 H   0  0  0  0  0  0  0  0  0  0  0  0
   -4.2217   15.8190  -34.8557 H   0  0  0  0  0  0  0  0  0  0  0  0
   -6.3289   15.0649  -33.7534 H   0  0  0  0  0  0  0  0  0  0  0  0
   -7.8672   16.7396  -32.7264 H   0  0  0  0  0  0  0  0  0  0  0  0
   -7.2835   19.1625  -32.7646 H   0  0  0  0  0  0  0  0  0  0  0  0
  1  2  1  0
  2  3  1  0
  3  4  1  0
  4  5  1  0
  5  6  1  0
  6  7  1  0
  7  8  1  0
  8  9  1  0
  9 10  1  0
 10 11  1  0
 11 12  2  0
 12 13  1  0
 13 14  2  0
 14 15  1  0
 15 16  2  0
  9 17  1  0
 17 18  1  0
 18 19  2  0
 19 20  1  0
 20 21  2  0
 21 22  1  0
 22 23  2  0
 16 11  1  0
 23 18  1  0
  1 24  1  0
  1 25  1  0
  1 26  1  0
  2 27  1  0
  2 28  1  0
  4 29  1  0
  4 30  1  0
  5 31  1  0
  5 32  1  0
  7 33  1  0
  7 34  1  0
  8 35  1  0
  8 36  1  0
  9 37  1  0
 10 38  1  0
 10 39  1  0
 12 40  1  0
 13 41  1  0
 14 42  1  0
 15 43  1  0
 16 44  1  0
 17 45  1  0
 17 46  1  0
 19 47  1  0
 20 48  1  0
 21 49  1  0
 22 50  1  0
 23 51  1  0
M  CHG  1   9   1
M  END
>  <UniqueID>  (15) 
15

>  <SMILES>  (15) 
CCOCCOCC[NH+](Cc1ccccc1)Cc1ccccc1

>  <Energy>  (15) 
68.914785870705

>  <Genealogy>  (15) 
CCOCCOCC[NH+](Cc1ccccc1)Cc1ccccc1 (protonated)
CCOCCOCC[NH+](Cc1ccccc1)Cc1ccccc1 (3D coordinates assigned)
CCOCCOCC[NH+](Cc1ccccc1)Cc1ccccc1 (optimized conformer: 68.914785870705 kcal/mol)

>  <smiles>  (15) 
CCOCCOCCN(Cc1ccccc1)Cc1ccccc1

>  <score_type>  (15) 
oracle

>  <origin>  (15) 
adg

>  <m_score__min__energy>  (15) 
-6.5700000000000003

>  <m_primary>  (15) 
energy

$$$$
15:0
     RDKit          3D

 34 35  0  0  0  0  0  0  0  0999 V2000
   -6.2120   25.0650  -29.8250 C   0  0  0  0  0  0  0  0  0  0  0  0
   -5.1990   25.6470  -30.8040 C   0  0  0  0  0  0  0  0  0  0  0  0
   -3.8920   25.1330  -30.5450 O   0  0  0  0  0  0  0  0  0  0  0  0
   -3.5940   23.9880  -29.7850 C   0  0  0  0  0  0  0  0  0  0  0  0
   -3.4720   24.0290  -28.3800 C   0  0  0  0  0  0  0  0  0  0  0  0
   -3.1840   22.8680  -27.6600 C   0  0  0  0  0  0  0  0  0  0  0  0
   -3.0170   21.6520  -28.3260 C   0  0  0  0  0  0  0  0  0  0  0  0
   -2.6300   20.0660  -27.3350 Br  0  0  0  0  0  0  0  0  0  0  0  0
   -3.1370   21.5970  -29.7160 C   0  0  0  0  0  0  0  0  0  0  0  0
   -3.4230   22.7580  -30.4530 C   0  0  0  0  0  0  0  0  0  0  0  0
   -3.5690   22.6750  -31.9530 C   0  0  0  0  0  0  0  0  0  0  0  0
   -4.9870   22.7040  -32.3350 N   0  0  0  0  0  0  0  0  0  0  0  0
   -5.5520   21.3490  -32.3890 C   0  0  0  0  0  0  0  0  0  0  0  0
   -7.0210   21.4110  -32.1280 C   0  0  0  0  0  0  0  0  0  0  0  0
   -7.7350   22.5470  -31.7710 C   0  0  0  0  0  0  0  0  0  0  0  0
   -9.1130   22.3220  -31.6710 C   0  0  0  0  0  0  0  0  0  0  0  0
   -9.4870   21.0160  -31.9630 C   0  0  0  0  0  0  0  0  0  0  0  0
   -8.1020   20.1430  -32.3500 S   0  0  0  0  0  0  0  0  0  0  0  0
   -5.8781   25.2568  -28.7946 H   0  0  0  0  0  0  0  0  0  0  0  0
   -7.1919   25.5378  -29.9869 H   0  0  0  0  0  0  0  0  0  0  0  0
   -6.2970   23.9803  -29.9869 H   0  0  0  0  0  0  0  0  0  0  0  0
   -5.4946   25.3812  -31.8297 H   0  0  0  0  0  0  0  0  0  0  0  0
   -5.1789   26.7401  -30.6831 H   0  0  0  0  0  0  0  0  0  0  0  0
   -3.6048   24.9826  -27.8480 H   0  0  0  0  0  0  0  0  0  0  0  0
   -3.0884   22.9112  -26.5650 H   0  0  0  0  0  0  0  0  0  0  0  0
   -3.0066   20.6374  -30.2377 H   0  0  0  0  0  0  0  0  0  0  0  0
   -3.0523   23.5294  -32.4147 H   0  0  0  0  0  0  0  0  0  0  0  0
   -3.1263   21.7302  -32.3015 H   0  0  0  0  0  0  0  0  0  0  0  0
   -5.0470   23.1120  -33.2990 H   0  0  0  0  0  0  0  0  0  0  0  0
   -5.3745   20.9173  -33.3850 H   0  0  0  0  0  0  0  0  0  0  0  0
   -5.0703   20.7204  -31.6255 H   0  0  0  0  0  0  0  0  0  0  0  0
   -7.2656   23.5244  -31.5856 H   0  0  0  0  0  0  0  0  0  0  0  0
   -9.8318   23.1051  -31.3880 H   0  0  0  0  0  0  0  0  0  0  0  0
  -10.5133   20.6205  -31.9443 H   0  0  0  0  0  0  0  0  0  0  0  0
  1  2  1  0
  2  3  1  0
  3  4  1  0
  4  5  2  0
  5  6  1  0
  6  7  2  0
  7  8  1  0
  7  9  1  0
  9 10  2  0
 10 11  1  0
 11 12  1  0
 12 13  1  0
 13 14  1  0
 14 15  2  0
 15 16  1  0
 16 17  2  0
 17 18  1  0
 10  4  1  0
 18 14  1  0
  1 19  1  0
  1 20  1  0
  1 21  1  0
  2 22  1  0
  2 23  1  0
  5 24  1  0
  6 25  1  0
  9 26  1  0
 11 27  1  0
 11 28  1  0
 12 29  1  0
 13 30  1  0
 13 31  1  0
 15 32  1  0
 16 33  1  0
 17 34  1  0
M  END
>  <UniqueID>  (16) 
16

>  <SMILES>  (16) 
CCOc1ccc(Br)cc1CNCc1cccs1

>  <Energy>  (16) 
55.271239063951576

>  <Genealogy>  (16) 
CCOc1ccc(Br)cc1CNCc1cccs1 (3D coordinates assigned)
CCOc1ccc(Br)cc1CNCc1cccs1 (optimized conformer: 55.271239063951576 kcal/mol)

>  <smiles>  (16) 
CCOc1ccc(Br)cc1CNCc1cccs1

>  <score_type>  (16) 
oracle

>  <origin>  (16) 
adg

>  <m_score__min__energy>  (16) 
-7.6500000000000004

>  <m_primary>  (16) 
energy

$$$$
16:0
     RDKit          3D

 66 69  0  0  0  0  0  0  0  0999 V2000
   -2.8600   21.5450  -33.1160 C   0  0  0  0  0  0  0  0  0  0  0  0
   -1.3520   21.4920  -32.8970 C   0  0  0  0  0  0  0  0  0  0  0  0
   -0.6440   21.8310  -34.1430 N   0  0  0  0  0  0  0  0  0  0  0  0
    0.6610   21.1540  -34.2600 C   0  0  0  0  0  0  0  0  0  0  0  0
    0.5690   19.6480  -33.9360 C   0  0  0  0  0  0  0  0  0  0  0  0
   -0.3230   18.8830  -34.9420 C   0  0  2  0  0  0  0  0  0  0  0  0
   -1.7600   18.7020  -34.3860 C   0  0  0  0  0  0  0  0  0  0  0  0
   -1.9470   17.3200  -33.7410 C   0  0  0  0  0  0  0  0  0  0  0  0
   -1.7180   16.2060  -34.7030 N   0  0  1  0  0  0  0  0  0  0  0  0
   -2.9730   15.7430  -35.2710 C   0  0  0  0  0  0  0  0  0  0  0  0
   -3.1020   15.6540  -36.4860 O   0  0  0  0  0  0  0  0  0  0  0  0
   -4.1360   15.3690  -34.3820 C   0  0  1  0  0  0  0  0  0  0  0  0
   -3.6310   14.5720  -33.3190 O   0  0  0  0  0  0  0  0  0  0  0  0
   -4.6500   14.2870  -32.3810 C   0  0  0  0  0  0  0  0  0  0  0  0
   -4.9960   15.5540  -31.6010 C   0  0  0  0  0  0  0  0  0  0  0  0
   -5.3250   16.6670  -32.5560 C   0  0  0  0  0  0  0  0  0  0  0  0
   -6.0740   17.7660  -32.1140 C   0  0  0  0  0  0  0  0  0  0  0  0
   -6.4200   18.8030  -32.9980 C   0  0  0  0  0  0  0  0  0  0  0  0
   -7.2820   19.9240  -32.5400 C   0  0  0  0  0  0  0  0  0  0  0  0
   -8.6630   19.7370  -32.3520 C   0  0  0  0  0  0  0  0  0  0  0  0
   -9.4780   20.8100  -31.9820 C   0  0  0  0  0  0  0  0  0  0  0  0
   -8.9300   22.0810  -31.7980 C   0  0  0  0  0  0  0  0  0  0  0  0
   -7.5480   22.2870  -31.9680 C   0  0  0  0  0  0  0  0  0  0  0  0
   -6.9480   23.5430  -31.7950 O   0  0  0  0  0  0  0  0  0  0  0  0
   -6.7050   24.1480  -30.5290 C   0  0  0  0  0  0  0  0  0  0  0  0
   -6.7340   21.2050  -32.3320 C   0  0  0  0  0  0  0  0  0  0  0  0
   -5.9840   18.7290  -34.3330 C   0  0  0  0  0  0  0  0  0  0  0  0
   -5.2280   17.6400  -34.7760 C   0  0  0  0  0  0  0  0  0  0  0  0
   -4.8660   16.6130  -33.8860 C   0  0  0  0  0  0  0  0  0  0  0  0
   -0.7650   16.5310  -35.7970 C   0  0  0  0  0  0  0  0  0  0  0  0
    0.3100   17.5260  -35.3450 C   0  0  0  0  0  0  0  0  0  0  0  0
   -3.3715   21.5630  -32.1423 H   0  0  0  0  0  0  0  0  0  0  0  0
   -3.1167   22.4527  -33.6818 H   0  0  0  0  0  0  0  0  0  0  0  0
   -3.1798   20.6575  -33.6818 H   0  0  0  0  0  0  0  0  0  0  0  0
   -1.0733   22.2120  -32.1135 H   0  0  0  0  0  0  0  0  0  0  0  0
   -1.0699   20.4741  -32.5899 H   0  0  0  0  0  0  0  0  0  0  0  0
   -1.2500   21.5810  -34.9600 H   0  0  0  0  0  0  0  0  0  0  0  0
    1.0304   21.2727  -35.2893 H   0  0  0  0  0  0  0  0  0  0  0  0
    1.3459   21.6141  -33.5326 H   0  0  0  0  0  0  0  0  0  0  0  0
    1.5812   19.2181  -33.9631 H   0  0  0  0  0  0  0  0  0  0  0  0
    0.1149   19.5460  -32.9393 H   0  0  0  0  0  0  0  0  0  0  0  0
   -0.3945   19.4902  -35.8564 H   0  0  0  0  0  0  0  0  0  0  0  0
   -1.9505   19.4777  -33.6296 H   0  0  0  0  0  0  0  0  0  0  0  0
   -2.4668   18.7889  -35.2244 H   0  0  0  0  0  0  0  0  0  0  0  0
   -1.2345   17.2197  -32.9090 H   0  0  0  0  0  0  0  0  0  0  0  0
   -2.9881   17.2519  -33.3923 H   0  0  0  0  0  0  0  0  0  0  0  0
   -1.3000   15.4150  -34.1550 H   0  0  0  0  0  0  0  0  0  0  0  0
   -4.8834   14.7882  -34.9424 H   0  0  0  0  0  0  0  0  0  0  0  0
   -5.5446   13.9269  -32.9101 H   0  0  0  0  0  0  0  0  0  0  0  0
   -4.2987   13.5125  -31.6833 H   0  0  0  0  0  0  0  0  0  0  0  0
   -5.8644   15.3590  -30.9546 H   0  0  0  0  0  0  0  0  0  0  0  0
   -4.1333   15.8477  -30.9849 H   0  0  0  0  0  0  0  0  0  0  0  0
   -6.3949   17.8178  -31.0631 H   0  0  0  0  0  0  0  0  0  0  0  0
   -9.1044   18.7399  -32.4971 H   0  0  0  0  0  0  0  0  0  0  0  0
  -10.5567   20.6526  -31.8349 H   0  0  0  0  0  0  0  0  0  0  0  0
   -9.5800   22.9235  -31.5195 H   0  0  0  0  0  0  0  0  0  0  0  0
   -6.9861   23.4482  -29.7282 H   0  0  0  0  0  0  0  0  0  0  0  0
   -5.6372   24.3968  -30.4404 H   0  0  0  0  0  0  0  0  0  0  0  0
   -7.3040   25.0663  -30.4404 H   0  0  0  0  0  0  0  0  0  0  0  0
   -5.6520   21.3586  -32.4570 H   0  0  0  0  0  0  0  0  0  0  0  0
   -6.2404   19.5359  -35.0353 H   0  0  0  0  0  0  0  0  0  0  0  0
   -4.9138   17.5858  -35.8288 H   0  0  0  0  0  0  0  0  0  0  0  0
   -0.2742   15.6038  -36.1277 H   0  0  0  0  0  0  0  0  0  0  0  0
   -1.3337   16.9942  -36.6168 H   0  0  0  0  0  0  0  0  0  0  0  0
    0.8461   17.1081  -34.4801 H   0  0  0  0  0  0  0  0  0  0  0  0
    1.0030   17.6973  -36.1819 H   0  0  0  0  0  0  0  0  0  0  0  0
  1  2  1  0
  2  3  1  0
  3  4  1  0
  4  5  1  0
  5  6  1  0
  6  7  1  0
  7  8  1  0
  8  9  1  0
  9 10  1  0
 10 11  2  0
 10 12  1  0
 12 13  1  0
 13 14  1  0
 14 15  1  0
 15 16  1  0
 16 17  2  0
 17 18  1  0
 18 19  1  0
 19 20  2  0
 20 21  1  0
 21 22  2  0
 22 23  1  0
 23 24  1  0
 24 25  1  0
 23 26  2  0
 18 27  2  0
 27 28  1  0
 28 29  2  0
  9 30  1  0
 30 31  1  0
 31  6  1  0
 29 12  1  0
 29 16  1  0
 26 19  1  0
  1 32  1  0
  1 33  1  0
  1 34  1  0
  2 35  1  0
  2 36  1  0
  3 37  1  0
  4 38  1  0
  4 39  1  0
  5 40  1  0
  5 41  1  0
  6 42  1  6
  7 43  1  0
  7 44  1  0
  8 45  1  0
  8 46  1  0
  9 47  1  1
 12 48  1  6
 14 49  1  0
 14 50  1  0
 15 51  1  0
 15 52  1  0
 17 53  1  0
 20 54  1  0
 21 55  1  0
 22 56  1  0
 25 57  1  0
 25 58  1  0
 25 59  1  0
 26 60  1  0
 27 61  1  0
 28 62  1  0
 30 63  1  0
 30 64  1  0
 31 65  1  0
 31 66  1  0
M  CHG  1   9   1
M  END
>  <UniqueID>  (17) 
17

>  <SMILES>  (17) 
CCNCCC1CC[NH+](C(=O)[C@H]2OCCc3cc(-c4cccc(OC)c4)ccc32)CC1

>  <Energy>  (17) 
81.92061034470287

>  <Genealogy>  (17) 
CCNCCC1CC[NH+](C(=O)C2OCCc3cc(-c4cccc(OC)c4)ccc32)CC1 (protonated)
CCNCCC1CC[NH+](C(=O)[C@H]2OCCc3cc(-c4cccc(OC)c4)ccc32)CC1 (chirality)
CCNCCC1CC[NH+](C(=O)[C@H]2OCCc3cc(-c4cccc(OC)c4)ccc32)CC1 (3D coordinates assigned)
CCNCCC1CC[NH+](C(=O)[C@H]2OCCc3cc(-c4cccc(OC)c4)ccc32)CC1 (nonaromatic ring conformer: 81.92061034470287 kcal/mol)

>  <smiles>  (17) 
CCNCCC1CCN(C(=O)C2OCCc3cc(-c4cccc(OC)c4)ccc32)CC1

>  <score_type>  (17) 
oracle

>  <origin>  (17) 
adg

>  <m_score__min__energy>  (17) 
-8.8699999999999992

>  <m_primary>  (17) 
energy

$$$$
17:0
     RDKit          3D

 61 62  0  0  0  0  0  0  0  0999 V2000
   -2.7350   19.1090  -26.7160 C   0  0  0  0  0  0  0  0  0  0  0  0
   -1.9730   19.8600  -27.8040 C   0  0  0  0  0  0  0  0  0  0  0  0
   -2.7670   21.0790  -28.2960 C   0  0  0  0  0  0  0  0  0  0  0  0
   -3.0800   21.0160  -29.8000 C   0  0  0  0  0  0  0  0  0  0  0  0
   -1.8320   20.7320  -30.6530 C   0  0  0  0  0  0  0  0  0  0  0  0
   -1.8990   21.4050  -32.0340 C   0  0  0  0  0  0  0  0  0  0  0  0
   -2.7290   20.6020  -33.0460 C   0  0  0  0  0  0  0  0  0  0  0  0
   -4.1630   20.7960  -32.7950 N   0  0  0  0  0  0  0  0  0  0  0  0
   -4.6380   22.0490  -32.5310 C   0  0  0  0  0  0  0  0  0  0  0  0
   -6.0030   22.2760  -32.2920 C   0  0  0  0  0  0  0  0  0  0  0  0
   -6.4490   23.6910  -31.9910 C   0  0  0  0  0  0  0  0  0  0  0  0
   -5.2970   24.4990  -31.5770 N   0  0  0  0  0  0  0  0  0  0  0  0
   -5.6690   25.5120  -30.5740 C   0  0  0  0  0  0  0  0  0  0  0  0
   -5.5580   24.9240  -29.1630 C   0  0  0  0  0  0  0  0  0  0  0  0
   -4.2380   24.1710  -28.9270 C   0  0  0  0  0  0  0  0  0  0  0  0
   -3.1530   24.7280  -29.7500 N   0  0  0  0  0  0  0  0  0  0  0  0
   -1.8410   24.2230  -29.3260 C   0  0  0  0  0  0  0  0  0  0  0  0
   -1.5680   24.6300  -27.8840 C   0  0  0  0  0  0  0  0  0  0  0  0
   -6.8870   21.1670  -32.2850 C   0  0  0  0  0  0  0  0  0  0  0  0
   -8.2700   21.2990  -32.0290 C   0  0  0  0  0  0  0  0  0  0  0  0
   -9.1060   20.1790  -32.0400 C   0  0  0  0  0  0  0  0  0  0  0  0
   -8.5820   18.9130  -32.2950 C   0  0  0  0  0  0  0  0  0  0  0  0
   -7.2160   18.7570  -32.5400 C   0  0  0  0  0  0  0  0  0  0  0  0
   -6.3660   19.8750  -32.5410 C   0  0  0  0  0  0  0  0  0  0  0  0
   -4.9980   19.7180  -32.7910 C   0  0  0  0  0  0  0  0  0  0  0  0
   -2.3914   19.4476  -25.7274 H   0  0  0  0  0  0  0  0  0  0  0  0
   -3.8119   19.3087  -26.8181 H   0  0  0  0  0  0  0  0  0  0  0  0
   -2.5510   18.0293  -26.8181 H   0  0  0  0  0  0  0  0  0  0  0  0
   -1.0088   20.1997  -27.3978 H   0  0  0  0  0  0  0  0  0  0  0  0
   -1.8170   19.1792  -28.6538 H   0  0  0  0  0  0  0  0  0  0  0  0
   -3.7154   21.1285  -27.7410 H   0  0  0  0  0  0  0  0  0  0  0  0
   -2.1471   21.9711  -28.1228 H   0  0  0  0  0  0  0  0  0  0  0  0
   -3.8148   20.2160  -29.9736 H   0  0  0  0  0  0  0  0  0  0  0  0
   -3.4717   21.9991  -30.1000 H   0  0  0  0  0  0  0  0  0  0  0  0
   -0.9466   21.1082  -30.1195 H   0  0  0  0  0  0  0  0  0  0  0  0
   -1.7756   19.6451  -30.8125 H   0  0  0  0  0  0  0  0  0  0  0  0
   -2.3523   22.4006  -31.9185 H   0  0  0  0  0  0  0  0  0  0  0  0
   -0.8719   21.4678  -32.4227 H   0  0  0  0  0  0  0  0  0  0  0  0
   -2.4892   20.9427  -34.0640 H   0  0  0  0  0  0  0  0  0  0  0  0
   -2.4878   19.5340  -32.9402 H   0  0  0  0  0  0  0  0  0  0  0  0
   -3.9377   22.8969  -32.5051 H   0  0  0  0  0  0  0  0  0  0  0  0
   -6.8985   24.1316  -32.8931 H   0  0  0  0  0  0  0  0  0  0  0  0
   -7.1899   23.6725  -31.1781 H   0  0  0  0  0  0  0  0  0  0  0  0
   -4.5770   23.8620  -31.1590 H   0  0  0  0  0  0  0  0  0  0  0  0
   -4.9937   26.3758  -30.6620 H   0  0  0  0  0  0  0  0  0  0  0  0
   -6.7076   25.8283  -30.7508 H   0  0  0  0  0  0  0  0  0  0  0  0
   -5.6279   25.7454  -28.4347 H   0  0  0  0  0  0  0  0  0  0  0  0
   -6.3761   24.1984  -29.0440 H   0  0  0  0  0  0  0  0  0  0  0  0
   -3.9622   24.2545  -27.8654 H   0  0  0  0  0  0  0  0  0  0  0  0
   -4.3829   23.1175  -29.2085 H   0  0  0  0  0  0  0  0  0  0  0  0
   -3.3090   24.4140  -30.7370 H   0  0  0  0  0  0  0  0  0  0  0  0
   -1.8306   23.1258  -29.4031 H   0  0  0  0  0  0  0  0  0  0  0  0
   -1.0625   24.6498  -29.9754 H   0  0  0  0  0  0  0  0  0  0  0  0
   -2.0493   23.9125  -27.2031 H   0  0  0  0  0  0  0  0  0  0  0  0
   -0.4829   24.6354  -27.7037 H   0  0  0  0  0  0  0  0  0  0  0  0
   -1.9747   25.6360  -27.7037 H   0  0  0  0  0  0  0  0  0  0  0  0
   -8.6929   22.2925  -31.8190 H   0  0  0  0  0  0  0  0  0  0  0  0
  -10.1824   20.2973  -31.8465 H   0  0  0  0  0  0  0  0  0  0  0  0
   -9.2452   18.0355  -32.3033 H   0  0  0  0  0  0  0  0  0  0  0  0
   -6.8045   17.7553  -32.7328 H   0  0  0  0  0  0  0  0  0  0  0  0
   -4.5921   18.7145  -32.9863 H   0  0  0  0  0  0  0  0  0  0  0  0
  1  2  1  0
  2  3  1  0
  3  4  1  0
  4  5  1  0
  5  6  1  0
  6  7  1  0
  7  8  1  0
  8  9  2  0
  9 10  1  0
 10 11  1  0
 11 12  1  0
 12 13  1  0
 13 14  1  0
 14 15  1  0
 15 16  1  0
 16 17  1  0
 17 18  1  0
 10 19  2  0
 19 20  1  0
 20 21  2  0
 21 22  1  0
 22 23  2  0
 23 24  1  0
 24 25  2  0
 25  8  1  0
 24 19  1  0
  1 26  1  0
  1 27  1  0
  1 28  1  0
  2 29  1  0
  2 30  1  0
  3 31  1  0
  3 32  1  0
  4 33  1  0
  4 34  1  0
  5 35  1  0
  5 36  1  0
  6 37  1  0
  6 38  1  0
  7 39  1  0
  7 40  1  0
  9 41  1  0
 11 42  1  0
 11 43  1  0
 12 44  1  0
 13 45  1  0
 13 46  1  0
 14 47  1  0
 14 48  1  0
 15 49  1  0
 15 50  1  0
 16 51  1  0
 17 52  1  0
 17 53  1  0
 18 54  1  0
 18 55  1  0
 18 56  1  0
 20 57  1  0
 21 58  1  0
 22 59  1  0
 23 60  1  0
 25 61  1  0
M  CHG  1   8   1
M  END
>  <UniqueID>  (18) 
18

>  <SMILES>  (18) 
CCCCCCC[n+]1cc(CNCCCNCC)c2ccccc2c1

>  <Energy>  (18) 
47.69916599604094

>  <Genealogy>  (18) 
CCCCCCC[n+]1cc(CNCCCNCC)c2ccccc2c1 (3D coordinates assigned)
CCCCCCC[n+]1cc(CNCCCNCC)c2ccccc2c1 (optimized conformer: 47.69916599604094 kcal/mol)

>  <smiles>  (18) 
CCCCCCC[n+]1cc(CNCCCNCC)c2ccccc2c1

>  <score_type>  (18) 
oracle

>  <origin>  (18) 
adg

>  <m_score__min__energy>  (18) 
-7.4800000000000004

>  <m_primary>  (18) 
energy

$$$$
18:0
     RDKit          3D

 48 50  0  0  0  0  0  0  0  0999 V2000
   -5.9610   25.3050  -30.1650 C   0  0  0  0  0  0  0  0  0  0  0  0
   -4.6910   24.4860  -29.9750 C   0  0  0  0  0  0  0  0  0  0  0  0
   -4.3500   23.7930  -31.2240 N   0  0  0  0  0  0  0  0  0  0  0  0
   -3.6890   22.5040  -30.9600 C   0  0  0  0  0  0  0  0  0  0  0  0
   -3.4930   21.7300  -32.2710 C   0  0  0  0  0  0  0  0  0  0  0  0
   -4.6030   21.9310  -33.2260 N   0  0  0  0  0  0  0  0  0  0  0  0
   -5.7090   21.0070  -33.0030 C   0  0  0  0  0  0  0  0  0  0  0  0
   -6.9720   21.4620  -32.5190 C   0  0  0  0  0  0  0  0  0  0  0  0
   -7.2510   22.8370  -32.3080 C   0  0  0  0  0  0  0  0  0  0  0  0
   -8.5080   23.2640  -31.8900 C   0  0  0  0  0  0  0  0  0  0  0  0
   -9.5230   22.3450  -31.6810 C   0  0  0  0  0  0  0  0  0  0  0  0
   -9.2780   20.9870  -31.8590 C   0  0  0  0  0  0  0  0  0  0  0  0
   -7.9970   20.5120  -32.2400 C   0  0  0  0  0  0  0  0  0  0  0  0
   -7.7460   19.1610  -32.3520 N   0  0  0  0  0  0  0  0  0  0  0  0
   -8.6810   18.1830  -31.7490 C   0  0  0  0  0  0  0  0  0  0  0  0
   -6.6120   18.7180  -32.9990 C   0  0  0  0  0  0  0  0  0  0  0  0
   -6.4750   17.3630  -33.3930 C   0  0  0  0  0  0  0  0  0  0  0  0
   -5.3060   16.8940  -33.9850 C   0  0  0  0  0  0  0  0  0  0  0  0
   -4.2380   17.7630  -34.2180 C   0  0  0  0  0  0  0  0  0  0  0  0
   -3.0340   17.3350  -34.7990 O   0  0  0  0  0  0  0  0  0  0  0  0
   -2.7850   16.0090  -35.2530 C   0  0  0  0  0  0  0  0  0  0  0  0
   -4.3670   19.1100  -33.8780 C   0  0  0  0  0  0  0  0  0  0  0  0
   -5.5550   19.6210  -33.2940 C   0  0  0  0  0  0  0  0  0  0  0  0
   -6.3755   25.5723  -29.1818 H   0  0  0  0  0  0  0  0  0  0  0  0
   -5.7256   26.2219  -30.7252 H   0  0  0  0  0  0  0  0  0  0  0  0
   -6.6991   24.7123  -30.7252 H   0  0  0  0  0  0  0  0  0  0  0  0
   -3.8649   25.1549  -29.6921 H   0  0  0  0  0  0  0  0  0  0  0  0
   -4.8560   23.7417  -29.1820 H   0  0  0  0  0  0  0  0  0  0  0  0
   -5.2470   23.5940  -31.7270 H   0  0  0  0  0  0  0  0  0  0  0  0
   -2.7085   22.6868  -30.4960 H   0  0  0  0  0  0  0  0  0  0  0  0
   -4.3200   21.9092  -30.2831 H   0  0  0  0  0  0  0  0  0  0  0  0
   -2.5583   22.0679  -32.7423 H   0  0  0  0  0  0  0  0  0  0  0  0
   -3.4603   20.6591  -32.0217 H   0  0  0  0  0  0  0  0  0  0  0  0
   -4.2500   21.9180  -34.2060 H   0  0  0  0  0  0  0  0  0  0  0  0
   -4.9550   22.9110  -33.1390 H   0  0  0  0  0  0  0  0  0  0  0  0
   -6.4582   23.5803  -32.4781 H   0  0  0  0  0  0  0  0  0  0  0  0
   -8.6961   24.3352  -31.7250 H   0  0  0  0  0  0  0  0  0  0  0  0
  -10.5220   22.6885  -31.3745 H   0  0  0  0  0  0  0  0  0  0  0  0
  -10.0945   20.2670  -31.7010 H   0  0  0  0  0  0  0  0  0  0  0  0
   -8.6207   18.2461  -30.6525 H   0  0  0  0  0  0  0  0  0  0  0  0
   -9.7075   18.4090  -32.0734 H   0  0  0  0  0  0  0  0  0  0  0  0
   -8.4091   17.1677  -32.0734 H   0  0  0  0  0  0  0  0  0  0  0  0
   -7.3108   16.6673  -33.2272 H   0  0  0  0  0  0  0  0  0  0  0  0
   -5.2230   15.8349  -34.2704 H   0  0  0  0  0  0  0  0  0  0  0  0
   -2.6598   15.3424  -34.3870 H   0  0  0  0  0  0  0  0  0  0  0  0
   -3.6341   15.6642  -35.8614 H   0  0  0  0  0  0  0  0  0  0  0  0
   -1.8687   15.9957  -35.8614 H   0  0  0  0  0  0  0  0  0  0  0  0
   -3.5262   19.7934  -34.0675 H   0  0  0  0  0  0  0  0  0  0  0  0
  1  2  1  0
  2  3  1  0
  3  4  1  0
  4  5  1  0
  5  6  1  0
  6  7  1  0
  7  8  2  0
  8  9  1  0
  9 10  2  0
 10 11  1  0
 11 12  2  0
 12 13  1  0
 13 14  2  0
 14 15  1  0
 14 16  1  0
 16 17  2  0
 17 18  1  0
 18 19  2  0
 19 20  1  0
 20 21  1  0
 19 22  1  0
 22 23  2  0
 23  7  1  0
 13  8  1  0
 23 16  1  0
  1 24  1  0
  1 25  1  0
  1 26  1  0
  2 27  1  0
  2 28  1  0
  3 29  1  0
  4 30  1  0
  4 31  1  0
  5 32  1  0
  5 33  1  0
  6 34  1  0
  6 35  1  0
  9 36  1  0
 10 37  1  0
 11 38  1  0
 12 39  1  0
 15 40  1  0
 15 41  1  0
 15 42  1  0
 17 43  1  0
 18 44  1  0
 21 45  1  0
 21 46  1  0
 21 47  1  0
 22 48  1  0
M  CHG  2   6   1  14   1
M  END
>  <UniqueID>  (19) 
19

>  <SMILES>  (19) 
CCNCC[NH2+]c1c2ccccc2[n+](C)c2ccc(OC)cc12

>  <Energy>  (19) 
74.43710958929186

>  <Genealogy>  (19) 
CCNCC[NH2+]c1c2ccccc2[n+](C)c2ccc(OC)cc12 (protonated)
CCNCC[NH2+]c1c2ccccc2[n+](C)c2ccc(OC)cc12 (3D coordinates assigned)
CCNCC[NH2+]c1c2ccccc2[n+](C)c2ccc(OC)cc12 (optimized conformer: 74.43710958929186 kcal/mol)

>  <smiles>  (19) 
CCNCCNc1c2ccccc2[n+](C)c2ccc(OC)cc12

>  <score_type>  (19) 
oracle

>  <origin>  (19) 
adg

>  <m_score__min__energy>  (19) 
-7.6200000000000001

>  <m_primary>  (19) 
energy

$$$$
19:0
     RDKit          3D

 51 55  0  0  0  0  0  0  0  0999 V2000
   -6.5030   23.8460  -31.0840 C   0  0  0  0  0  0  0  0  0  0  0  0
   -6.8860   22.8760  -32.2110 C   0  0  0  0  0  0  0  0  0  0  0  0
   -7.3370   21.5360  -31.7580 N   0  0  0  0  0  0  0  0  0  0  0  0
   -8.5190   21.5380  -30.8700 C   0  0  0  0  0  0  0  0  0  0  0  0
   -9.8540   21.5490  -31.6190 C   0  0  0  0  0  0  0  0  0  0  0  0
   -7.3380   20.4570  -32.7690 C   0  0  0  0  0  0  0  0  0  0  0  0
   -5.9580   19.8690  -32.9290 C   0  0  0  0  0  0  0  0  0  0  0  0
   -5.7120   18.5260  -32.5990 C   0  0  0  0  0  0  0  0  0  0  0  0
   -4.4330   17.9820  -32.7380 C   0  0  0  0  0  0  0  0  0  0  0  0
   -3.3760   18.7760  -33.2010 C   0  0  0  0  0  0  0  0  0  0  0  0
   -2.0820   18.2390  -33.3480 C   0  0  0  0  0  0  0  0  0  0  0  0
   -1.0740   19.0790  -33.8080 C   0  0  0  0  0  0  0  0  0  0  0  0
   -1.3490   20.3920  -34.1070 C   0  0  0  0  0  0  0  0  0  0  0  0
   -2.5850   20.9340  -33.9750 N   0  0  0  0  0  0  0  0  0  0  0  0
   -3.6120   20.1470  -33.5260 C   0  0  0  0  0  0  0  0  0  0  0  0
   -4.9010   20.6770  -33.3790 C   0  0  0  0  0  0  0  0  0  0  0  0
   -0.1210   20.9940  -34.5520 C   0  0  0  0  0  0  0  0  0  0  0  0
    0.0770   22.2730  -34.9500 N   0  0  0  0  0  0  0  0  0  0  0  0
    1.3230   22.6620  -35.3410 C   0  0  0  0  0  0  0  0  0  0  0  0
    1.5440   23.9810  -35.7540 C   0  0  0  0  0  0  0  0  0  0  0  0
    2.8200   24.3850  -36.1550 C   0  0  0  0  0  0  0  0  0  0  0  0
    3.8830   23.4770  -36.1470 C   0  0  0  0  0  0  0  0  0  0  0  0
    3.6790   22.1560  -35.7370 C   0  0  0  0  0  0  0  0  0  0  0  0
    2.4010   21.7340  -35.3300 C   0  0  0  0  0  0  0  0  0  0  0  0
    2.1420   20.4140  -34.9080 C   0  0  0  0  0  0  0  0  0  0  0  0
    3.0580   19.5460  -34.8770 O   0  0  0  0  0  0  0  0  0  0  0  0
    0.8780   20.0890  -34.5300 N   0  0  0  0  0  0  0  0  0  0  0  0
    0.3800   18.7890  -34.0590 C   0  0  0  0  0  0  0  0  0  0  0  0
   -6.6911   23.3696  -30.1105 H   0  0  0  0  0  0  0  0  0  0  0  0
   -5.4364   24.1018  -31.1671 H   0  0  0  0  0  0  0  0  0  0  0  0
   -7.1071   24.7615  -31.1671 H   0  0  0  0  0  0  0  0  0  0  0  0
   -7.7011   23.3323  -32.7918 H   0  0  0  0  0  0  0  0  0  0  0  0
   -5.9711   22.7104  -32.7988 H   0  0  0  0  0  0  0  0  0  0  0  0
   -8.4817   20.6365  -30.2408 H   0  0  0  0  0  0  0  0  0  0  0  0
   -8.4749   22.4652  -30.2798 H   0  0  0  0  0  0  0  0  0  0  0  0
  -10.6812   21.5558  -30.8939 H   0  0  0  0  0  0  0  0  0  0  0  0
   -9.9127   22.4477  -32.2506 H   0  0  0  0  0  0  0  0  0  0  0  0
   -9.9275   20.6514  -32.2506 H   0  0  0  0  0  0  0  0  0  0  0  0
   -8.0322   19.6654  -32.4504 H   0  0  0  0  0  0  0  0  0  0  0  0
   -7.6544   20.8795  -33.7341 H   0  0  0  0  0  0  0  0  0  0  0  0
   -6.5343   17.8968  -32.2276 H   0  0  0  0  0  0  0  0  0  0  0  0
   -4.2553   16.9268  -32.4831 H   0  0  0  0  0  0  0  0  0  0  0  0
   -1.8751   17.1861  -33.1060 H   0  0  0  0  0  0  0  0  0  0  0  0
   -2.7400   21.9380  -34.2170 H   0  0  0  0  0  0  0  0  0  0  0  0
   -5.0864   21.7346  -33.6180 H   0  0  0  0  0  0  0  0  0  0  0  0
    0.7120   24.7005  -35.7629 H   0  0  0  0  0  0  0  0  0  0  0  0
    2.9890   25.4226  -36.4786 H   0  0  0  0  0  0  0  0  0  0  0  0
    4.8843   23.8033  -36.4647 H   0  0  0  0  0  0  0  0  0  0  0  0
    4.5192   21.4461  -35.7328 H   0  0  0  0  0  0  0  0  0  0  0  0
    0.5050   18.0117  -34.8272 H   0  0  0  0  0  0  0  0  0  0  0  0
    0.9128   18.4050  -33.1766 H   0  0  0  0  0  0  0  0  0  0  0  0
  1  2  1  0
  2  3  1  0
  3  4  1  0
  4  5  1  0
  3  6  1  0
  6  7  1  0
  7  8  2  0
  8  9  1  0
  9 10  2  0
 10 11  1  0
 11 12  2  0
 12 13  1  0
 13 14  2  0
 14 15  1  0
 15 16  2  0
 13 17  1  0
 17 18  2  0
 18 19  1  0
 19 20  2  0
 20 21  1  0
 21 22  2  0
 22 23  1  0
 23 24  2  0
 24 25  1  0
 25 26  2  0
 25 27  1  0
 27 28  1  0
 16  7  1  0
 27 17  1  0
 15 10  1  0
 24 19  1  0
 28 12  1  0
  1 29  1  0
  1 30  1  0
  1 31  1  0
  2 32  1  0
  2 33  1  0
  4 34  1  0
  4 35  1  0
  5 36  1  0
  5 37  1  0
  5 38  1  0
  6 39  1  0
  6 40  1  0
  8 41  1  0
  9 42  1  0
 11 43  1  0
 14 44  1  0
 16 45  1  0
 20 46  1  0
 21 47  1  0
 22 48  1  0
 23 49  1  0
 28 50  1  0
 28 51  1  0
M  CHG  1  14   1
M  END
>  <UniqueID>  (20) 
20

>  <SMILES>  (20) 
CCN(CC)Cc1ccc2cc3c([nH+]c2c1)-c1nc2ccccc2c(=O)n1C3

>  <Energy>  (20) 
96.39550112568278

>  <Genealogy>  (20) 
CCN(CC)Cc1ccc2cc3c([nH+]c2c1)-c1nc2ccccc2c(=O)n1C3 (protonated)
CCN(CC)Cc1ccc2cc3c([nH+]c2c1)-c1nc2ccccc2c(=O)n1C3 (3D coordinates assigned)
CCN(CC)Cc1ccc2cc3c([nH+]c2c1)-c1nc2ccccc2c(=O)n1C3 (nonaromatic ring conformer: 96.39550112568278 kcal/mol)

>  <smiles>  (20) 
CCN(CC)Cc1ccc2cc3c(nc2c1)-c1nc2ccccc2c(=O)n1C3

>  <score_type>  (20) 
oracle

>  <origin>  (20) 
adg

>  <m_score__min__energy>  (20) 
-7.7999999999999998

>  <m_primary>  (20) 
energy

$$$$
20:0
     RDKit          3D

 49 50  0  0  0  0  0  0  0  0999 V2000
   -4.3970   14.0280  -31.9780 C   0  0  0  0  0  0  0  0  0  0  0  0
   -3.9880   14.5630  -33.3550 C   0  0  0  0  0  0  0  0  0  0  0  0
   -3.7310   16.0150  -33.3540 N   0  0  0  0  0  0  0  0  0  0  0  0
   -2.3060   16.3940  -33.4310 C   0  0  0  0  0  0  0  0  0  0  0  0
   -2.0650   17.7090  -34.1960 C   0  0  0  0  0  0  0  0  0  0  0  0
   -3.2870   18.4120  -34.4250 O   0  0  0  0  0  0  0  0  0  0  0  0
   -3.7600   19.5090  -33.6830 C   0  0  0  0  0  0  0  0  0  0  0  0
   -2.8920   20.4920  -33.1700 C   0  0  0  0  0  0  0  0  0  0  0  0
   -3.3940   21.5770  -32.4500 C   0  0  0  0  0  0  0  0  0  0  0  0
   -4.7730   21.7100  -32.2280 C   0  0  0  0  0  0  0  0  0  0  0  0
   -5.3060   22.8700  -31.4690 C   0  0  0  0  0  0  0  0  0  0  0  0
   -6.6940   23.0830  -31.3660 C   0  0  0  0  0  0  0  0  0  0  0  0
   -7.1930   24.1760  -30.6520 C   0  0  0  0  0  0  0  0  0  0  0  0
   -6.3150   25.0680  -30.0320 C   0  0  0  0  0  0  0  0  0  0  0  0
   -4.9350   24.8680  -30.1250 C   0  0  0  0  0  0  0  0  0  0  0  0
   -4.4320   23.7760  -30.8400 C   0  0  0  0  0  0  0  0  0  0  0  0
   -5.6410   20.7310  -32.7370 C   0  0  0  0  0  0  0  0  0  0  0  0
   -5.1460   19.6290  -33.4530 C   0  0  0  0  0  0  0  0  0  0  0  0
   -6.1220   18.6020  -33.9790 C   0  0  0  0  0  0  0  0  0  0  0  0
   -5.9890   17.3310  -33.2370 N   0  0  0  0  0  0  0  0  0  0  0  0
   -6.8490   16.3020  -33.8450 C   0  0  0  0  0  0  0  0  0  0  0  0
   -6.3590   17.5070  -31.8220 C   0  0  0  0  0  0  0  0  0  0  0  0
   -3.9290   14.6402  -31.1930 H   0  0  0  0  0  0  0  0  0  0  0  0
   -5.4913   14.0754  -31.8764 H   0  0  0  0  0  0  0  0  0  0  0  0
   -4.0642   12.9845  -31.8764 H   0  0  0  0  0  0  0  0  0  0  0  0
   -3.0720   14.0448  -33.6748 H   0  0  0  0  0  0  0  0  0  0  0  0
   -4.8256   14.3768  -34.0433 H   0  0  0  0  0  0  0  0  0  0  0  0
   -4.2330   16.4470  -34.1640 H   0  0  0  0  0  0  0  0  0  0  0  0
   -4.1440   16.4250  -32.4830 H   0  0  0  0  0  0  0  0  0  0  0  0
   -1.9199   16.5098  -32.4075 H   0  0  0  0  0  0  0  0  0  0  0  0
   -1.7865   15.5966  -33.9826 H   0  0  0  0  0  0  0  0  0  0  0  0
   -1.3904   18.3472  -33.6064 H   0  0  0  0  0  0  0  0  0  0  0  0
   -1.6191   17.4645  -35.1714 H   0  0  0  0  0  0  0  0  0  0  0  0
   -1.8085   20.4039  -33.3383 H   0  0  0  0  0  0  0  0  0  0  0  0
   -2.7024   22.3347  -32.0530 H   0  0  0  0  0  0  0  0  0  0  0  0
   -7.3910   22.3838  -31.8512 H   0  0  0  0  0  0  0  0  0  0  0  0
   -8.2791   24.3340  -30.5782 H   0  0  0  0  0  0  0  0  0  0  0  0
   -6.7097   25.9277  -29.4706 H   0  0  0  0  0  0  0  0  0  0  0  0
   -4.2438   25.5699  -29.6355 H   0  0  0  0  0  0  0  0  0  0  0  0
   -3.3448   23.6243  -30.9111 H   0  0  0  0  0  0  0  0  0  0  0  0
   -6.7243   20.8285  -32.5726 H   0  0  0  0  0  0  0  0  0  0  0  0
   -7.1469   18.9837  -33.8615 H   0  0  0  0  0  0  0  0  0  0  0  0
   -5.9045   18.4172  -35.0413 H   0  0  0  0  0  0  0  0  0  0  0  0
   -7.3378   15.7172  -33.0519 H   0  0  0  0  0  0  0  0  0  0  0  0
   -7.6150   16.7860  -34.4687 H   0  0  0  0  0  0  0  0  0  0  0  0
   -6.2367   15.6341  -34.4687 H   0  0  0  0  0  0  0  0  0  0  0  0
   -5.5515   17.1229  -31.1814 H   0  0  0  0  0  0  0  0  0  0  0  0
   -6.5151   18.5758  -31.6140 H   0  0  0  0  0  0  0  0  0  0  0  0
   -7.2867   16.9537  -31.6140 H   0  0  0  0  0  0  0  0  0  0  0  0
  1  2  1  0
  2  3  1  0
  3  4  1  0
  4  5  1  0
  5  6  1  0
  6  7  1  0
  7  8  2  0
  8  9  1  0
  9 10  2  0
 10 11  1  0
 11 12  2  0
 12 13  1  0
 13 14  2  0
 14 15  1  0
 15 16  2  0
 10 17  1  0
 17 18  2  0
 18 19  1  0
 19 20  1  0
 20 21  1  0
 20 22  1  0
 18  7  1  0
 16 11  1  0
  1 23  1  0
  1 24  1  0
  1 25  1  0
  2 26  1  0
  2 27  1  0
  3 28  1  0
  3 29  1  0
  4 30  1  0
  4 31  1  0
  5 32  1  0
  5 33  1  0
  8 34  1  0
  9 35  1  0
 12 36  1  0
 13 37  1  0
 14 38  1  0
 15 39  1  0
 16 40  1  0
 17 41  1  0
 19 42  1  0
 19 43  1  0
 21 44  1  0
 21 45  1  0
 21 46  1  0
 22 47  1  0
 22 48  1  0
 22 49  1  0
M  CHG  1   3   1
M  END
>  <UniqueID>  (21) 
21

>  <SMILES>  (21) 
CC[NH2+]CCOc1ccc(-c2ccccc2)cc1CN(C)C

>  <Energy>  (21) 
51.92524836614819

>  <Genealogy>  (21) 
CC[NH2+]CCOc1ccc(-c2ccccc2)cc1CN(C)C (protonated)
CC[NH2+]CCOc1ccc(-c2ccccc2)cc1CN(C)C (3D coordinates assigned)
CC[NH2+]CCOc1ccc(-c2ccccc2)cc1CN(C)C (optimized conformer: 51.92524836614819 kcal/mol)

>  <smiles>  (21) 
CCNCCOc1ccc(-c2ccccc2)cc1CN(C)C

>  <score_type>  (21) 
oracle

>  <origin>  (21) 
adg

>  <m_score__min__energy>  (21) 
-6.0599999999999996

>  <m_primary>  (21) 
energy

$$$$
21:0
     RDKit          3D

 78 81  0  0  0  0  0  0  0  0999 V2000
   -9.2040   21.4590  -31.8830 C   0  0  0  0  0  0  0  0  0  0  0  0
   -9.2900   20.1150  -32.6160 C   0  0  0  0  0  0  0  0  0  0  0  0
   -7.9590   19.4640  -32.7680 N   0  0  0  0  0  0  0  0  0  0  0  0
   -7.9650   18.1200  -32.1270 C   0  0  0  0  0  0  0  0  0  0  0  0
   -7.2410   17.0720  -32.9790 C   0  0  0  0  0  0  0  0  0  0  0  0
   -6.9040   20.3270  -32.1730 C   0  0  0  0  0  0  0  0  0  0  0  0
   -5.5090   20.0980  -32.8010 C   0  0  0  0  0  0  0  0  0  0  0  0
   -5.6230   19.5350  -34.0940 O   0  0  0  0  0  0  0  0  0  0  0  0
   -4.7160   18.4640  -34.2560 C   0  0  0  0  0  0  0  0  0  0  0  0
   -3.4400   18.7590  -33.4640 C   0  0  0  0  0  0  0  0  0  0  0  0
   -2.5740   19.7240  -34.1840 N   0  0  0  0  0  0  0  0  0  0  0  0
   -1.1570   19.2930  -34.2560 C   0  0  0  0  0  0  0  0  0  0  0  0
   -0.2770   19.8910  -33.1400 C   0  0  0  0  0  0  0  0  0  0  0  0
   -1.1000   20.1950  -31.9550 N   0  0  0  0  0  0  0  0  0  0  0  0
   -0.2640   20.5750  -30.7940 C   0  0  0  0  0  0  0  0  0  0  0  0
   -0.8830   20.0620  -29.4910 C   0  0  0  0  0  0  0  0  0  0  0  0
   -1.6670   21.1140  -28.8500 N   0  0  0  0  0  0  0  0  0  0  0  0
   -2.7270   20.9400  -27.9300 C   0  0  0  0  0  0  0  0  0  0  0  0
   -2.9670   19.8520  -27.3440 O   0  0  0  0  0  0  0  0  0  0  0  0
   -3.5220   22.1050  -27.7520 N   0  0  0  0  0  0  0  0  0  0  0  0
   -2.9810   23.1530  -28.6260 C   0  0  0  0  0  0  0  0  0  0  0  0
   -2.4010   24.3200  -27.8240 C   0  0  0  0  0  0  0  0  0  0  0  0
   -2.9060   24.5970  -26.5360 C   0  0  0  0  0  0  0  0  0  0  0  0
   -2.3940   25.6560  -25.7830 C   0  0  0  0  0  0  0  0  0  0  0  0
   -1.3750   26.4570  -26.3030 C   0  0  0  0  0  0  0  0  0  0  0  0
   -0.8750   26.2070  -27.5810 C   0  0  0  0  0  0  0  0  0  0  0  0
   -1.3850   25.1510  -28.3420 C   0  0  0  0  0  0  0  0  0  0  0  0
   -4.0900   23.6010  -29.5790 C   0  0  0  0  0  0  0  0  0  0  0  0
   -4.3160   22.9540  -30.8130 C   0  0  0  0  0  0  0  0  0  0  0  0
   -5.3570   23.3620  -31.6510 C   0  0  0  0  0  0  0  0  0  0  0  0
   -6.2050   24.4010  -31.2630 C   0  0  0  0  0  0  0  0  0  0  0  0
   -6.0300   25.0190  -30.0230 C   0  0  0  0  0  0  0  0  0  0  0  0
   -4.9930   24.6110  -29.1810 C   0  0  0  0  0  0  0  0  0  0  0  0
   -1.8390   22.4430  -29.3190 C   0  0  0  0  0  0  0  0  0  0  0  0
   -1.1160   22.9540  -30.2170 O   0  0  0  0  0  0  0  0  0  0  0  0
   -2.0630   21.2740  -32.2720 C   0  0  0  0  0  0  0  0  0  0  0  0
   -2.6900   21.1070  -33.6740 C   0  0  0  0  0  0  0  0  0  0  0  0
   -9.2151   21.2856  -30.7968 H   0  0  0  0  0  0  0  0  0  0  0  0
   -8.2713   21.9704  -32.1632 H   0  0  0  0  0  0  0  0  0  0  0  0
  -10.0639   22.0851  -32.1632 H   0  0  0  0  0  0  0  0  0  0  0  0
   -9.9485   19.4433  -32.0458 H   0  0  0  0  0  0  0  0  0  0  0  0
   -9.6857   20.3079  -33.6241 H   0  0  0  0  0  0  0  0  0  0  0  0
   -7.7550   19.3520  -33.7920 H   0  0  0  0  0  0  0  0  0  0  0  0
   -7.4641   18.1906  -31.1502 H   0  0  0  0  0  0  0  0  0  0  0  0
   -9.0122   17.8020  -32.0164 H   0  0  0  0  0  0  0  0  0  0  0  0
   -6.7400   16.3468  -32.3208 H   0  0  0  0  0  0  0  0  0  0  0  0
   -7.9706   16.5479  -33.6139 H   0  0  0  0  0  0  0  0  0  0  0  0
   -6.4927   17.5689  -33.6139 H   0  0  0  0  0  0  0  0  0  0  0  0
   -7.1869   21.3795  -32.3222 H   0  0  0  0  0  0  0  0  0  0  0  0
   -6.8307   20.0682  -31.1064 H   0  0  0  0  0  0  0  0  0  0  0  0
   -4.9840   21.0619  -32.8730 H   0  0  0  0  0  0  0  0  0  0  0  0
   -4.9467   19.4006  -32.1627 H   0  0  0  0  0  0  0  0  0  0  0  0
   -5.1733   17.5354  -33.8837 H   0  0  0  0  0  0  0  0  0  0  0  0
   -4.4700   18.3469  -35.3217 H   0  0  0  0  0  0  0  0  0  0  0  0
   -3.7141   19.1826  -32.4865 H   0  0  0  0  0  0  0  0  0  0  0  0
   -2.8835   17.8188  -33.3365 H   0  0  0  0  0  0  0  0  0  0  0  0
   -1.1218   18.1964  -34.1777 H   0  0  0  0  0  0  0  0  0  0  0  0
   -0.7561   19.6548  -35.2143 H   0  0  0  0  0  0  0  0  0  0  0  0
    0.5038   19.1668  -32.8648 H   0  0  0  0  0  0  0  0  0  0  0  0
    0.1862   20.8196  -33.5049 H   0  0  0  0  0  0  0  0  0  0  0  0
    0.7391   20.1396  -30.9133 H   0  0  0  0  0  0  0  0  0  0  0  0
   -0.2005   21.6722  -30.7477 H   0  0  0  0  0  0  0  0  0  0  0  0
   -1.5378   19.2065  -29.7132 H   0  0  0  0  0  0  0  0  0  0  0  0
   -0.0759   19.7539  -28.8101 H   0  0  0  0  0  0  0  0  0  0  0  0
   -3.7109   23.9727  -26.1208 H   0  0  0  0  0  0  0  0  0  0  0  0
   -2.7940   25.8595  -24.7787 H   0  0  0  0  0  0  0  0  0  0  0  0
   -0.9667   27.2850  -25.7048 H   0  0  0  0  0  0  0  0  0  0  0  0
   -0.0767   26.8429  -27.9914 H   0  0  0  0  0  0  0  0  0  0  0  0
   -0.9912   24.9665  -29.3524 H   0  0  0  0  0  0  0  0  0  0  0  0
   -3.6662   22.1204  -31.1179 H   0  0  0  0  0  0  0  0  0  0  0  0
   -5.5089   22.8630  -32.6195 H   0  0  0  0  0  0  0  0  0  0  0  0
   -7.0110   24.7328  -31.9340 H   0  0  0  0  0  0  0  0  0  0  0  0
   -6.7082   25.8264  -29.7097 H   0  0  0  0  0  0  0  0  0  0  0  0
   -4.8781   25.0830  -28.1941 H   0  0  0  0  0  0  0  0  0  0  0  0
   -2.8669   21.2624  -31.5213 H   0  0  0  0  0  0  0  0  0  0  0  0
   -1.5155   22.2280  -32.2597 H   0  0  0  0  0  0  0  0  0  0  0  0
   -3.7555   21.3744  -33.6182 H   0  0  0  0  0  0  0  0  0  0  0  0
   -2.1439   21.7656  -34.3654 H   0  0  0  0  0  0  0  0  0  0  0  0
  1  2  1  0
  2  3  1  0
  3  4  1  0
  4  5  1  0
  3  6  1  0
  6  7  1  0
  7  8  1  0
  8  9  1  0
  9 10  1  0
 10 11  1  0
 11 12  1  0
 12 13  1  0
 13 14  1  0
 14 15  1  0
 15 16  1  0
 16 17  1  0
 17 18  1  0
 18 19  2  0
 18 20  1  0
 20 21  1  0
 21 22  1  0
 22 23  2  0
 23 24  1  0
 24 25  2  0
 25 26  1  0
 26 27  2  0
 21 28  1  0
 28 29  2  0
 29 30  1  0
 30 31  2  0
 31 32  1  0
 32 33  2  0
 21 34  1  0
 34 35  2  0
 14 36  1  0
 36 37  1  0
 37 11  1  0
 34 17  1  0
 27 22  1  0
 33 28  1  0
  1 38  1  0
  1 39  1  0
  1 40  1  0
  2 41  1  0
  2 42  1  0
  3 43  1  0
  4 44  1  0
  4 45  1  0
  5 46  1  0
  5 47  1  0
  5 48  1  0
  6 49  1  0
  6 50  1  0
  7 51  1  0
  7 52  1  0
  9 53  1  0
  9 54  1  0
 10 55  1  0
 10 56  1  0
 12 57  1  0
 12 58  1  0
 13 59  1  0
 13 60  1  0
 15 61  1  0
 15 62  1  0
 16 63  1  0
 16 64  1  0
 23 65  1  0
 24 66  1  0
 25 67  1  0
 26 68  1  0
 27 69  1  0
 29 70  1  0
 30 71  1  0
 31 72  1  0
 32 73  1  0
 33 74  1  0
 36 75  1  0
 36 76  1  0
 37 77  1  0
 37 78  1  0
M  CHG  2   3   1  20  -1
M  END
>  <UniqueID>  (22) 
22

>  <SMILES>  (22) 
CC[NH+](CC)CCOCCN1CCN(CCN2C(=O)[N-]C(c3ccccc3)(c3ccccc3)C2=O)CC1

>  <Energy>  (22) 
118.37272105957013

>  <Genealogy>  (22) 
CC[NH+](CC)CCOCCN1CCN(CCN2C(=O)[N-]C(c3ccccc3)(c3ccccc3)C2=O)CC1 (protonated)
CC[NH+](CC)CCOCCN1CCN(CCN2C(=O)[N-]C(c3ccccc3)(c3ccccc3)C2=O)CC1 (3D coordinates assigned)
CC[NH+](CC)CCOCCN1CCN(CCN2C(=O)[N-]C(c3ccccc3)(c3ccccc3)C2=O)CC1 (nonaromatic ring conformer: 118.37272105957013 kcal/mol)

>  <smiles>  (22) 
CCN(CC)CCOCCN1CCN(CCN2C(=O)NC(c3ccccc3)(c3ccccc3)C2=O)CC1

>  <score_type>  (22) 
oracle

>  <origin>  (22) 
adg

>  <m_score__min__energy>  (22) 
-8.9700000000000006

>  <m_primary>  (22) 
energy

$$$$
22:0
     RDKit          3D

 44 46  0  0  0  0  0  0  0  0999 V2000
   -4.9010   18.1170  -33.5670 C   0  0  0  0  0  0  0  0  0  0  0  0
   -4.1820   19.4340  -33.8400 C   0  0  0  0  0  0  0  0  0  0  0  0
   -2.8540   19.5110  -33.0750 C   0  0  0  0  0  0  0  0  0  0  0  0
   -2.2100   20.8160  -33.2790 N   0  0  0  0  0  0  0  0  0  0  0  0
   -2.7030   21.7650  -32.3130 C   0  0  0  0  0  0  0  0  0  0  0  0
   -1.8880   22.1610  -31.2200 C   0  0  0  0  0  0  0  0  0  0  0  0
   -2.3650   23.0640  -30.2550 C   0  0  0  0  0  0  0  0  0  0  0  0
   -3.6640   23.5460  -30.3980 C   0  0  0  0  0  0  0  0  0  0  0  0
   -4.2960   24.4230  -29.6000 N   0  0  0  0  0  0  0  0  0  0  0  0
   -5.5260   24.5960  -30.1380 C   0  0  0  0  0  0  0  0  0  0  0  0
   -6.5260   25.5690  -29.5970 C   0  0  0  0  0  0  0  0  0  0  0  0
   -5.6720   23.8240  -31.2940 C   0  0  0  0  0  0  0  0  0  0  0  0
   -6.8420   23.8040  -32.2390 C   0  0  0  0  0  0  0  0  0  0  0  0
   -7.5490   22.4770  -32.1730 C   0  0  0  0  0  0  0  0  0  0  0  0
   -6.9400   21.3180  -32.6830 C   0  0  0  0  0  0  0  0  0  0  0  0
   -7.5890   20.0830  -32.5940 C   0  0  0  0  0  0  0  0  0  0  0  0
   -8.8480   19.9940  -31.9950 C   0  0  0  0  0  0  0  0  0  0  0  0
   -9.4610   21.1420  -31.4830 C   0  0  0  0  0  0  0  0  0  0  0  0
   -8.8150   22.3790  -31.5700 C   0  0  0  0  0  0  0  0  0  0  0  0
   -4.4660   23.1620  -31.4430 C   0  0  0  0  0  0  0  0  0  0  0  0
   -4.0200   22.2700  -32.4190 C   0  0  0  0  0  0  0  0  0  0  0  0
   -4.9849   17.9633  -32.4810 H   0  0  0  0  0  0  0  0  0  0  0  0
   -5.9067   18.1493  -34.0115 H   0  0  0  0  0  0  0  0  0  0  0  0
   -4.3300   17.2885  -34.0115 H   0  0  0  0  0  0  0  0  0  0  0  0
   -3.9801   19.5156  -34.9182 H   0  0  0  0  0  0  0  0  0  0  0  0
   -4.8265   20.2589  -33.5022 H   0  0  0  0  0  0  0  0  0  0  0  0
   -3.0472   19.3679  -32.0016 H   0  0  0  0  0  0  0  0  0  0  0  0
   -2.1838   18.7241  -33.4513 H   0  0  0  0  0  0  0  0  0  0  0  0
   -2.4130   21.1640  -34.2470 H   0  0  0  0  0  0  0  0  0  0  0  0
   -1.1730   20.7190  -33.1810 H   0  0  0  0  0  0  0  0  0  0  0  0
   -0.8697   21.7555  -31.1274 H   0  0  0  0  0  0  0  0  0  0  0  0
   -1.7322   23.3805  -29.4127 H   0  0  0  0  0  0  0  0  0  0  0  0
   -3.9090   24.8890  -28.7490 H   0  0  0  0  0  0  0  0  0  0  0  0
   -6.5023   25.5459  -28.4975 H   0  0  0  0  0  0  0  0  0  0  0  0
   -6.2790   26.5819  -29.9479 H   0  0  0  0  0  0  0  0  0  0  0  0
   -7.5317   25.2944  -29.9479 H   0  0  0  0  0  0  0  0  0  0  0  0
   -7.5452   24.6032  -31.9618 H   0  0  0  0  0  0  0  0  0  0  0  0
   -6.4748   23.9613  -33.2639 H   0  0  0  0  0  0  0  0  0  0  0  0
   -5.9482   21.3827  -33.1544 H   0  0  0  0  0  0  0  0  0  0  0  0
   -7.1074   19.1796  -32.9964 H   0  0  0  0  0  0  0  0  0  0  0  0
   -9.3570   19.0213  -31.9261 H   0  0  0  0  0  0  0  0  0  0  0  0
  -10.4523   21.0717  -31.0114 H   0  0  0  0  0  0  0  0  0  0  0  0
   -9.2996   23.2795  -31.1648 H   0  0  0  0  0  0  0  0  0  0  0  0
   -4.6754   21.9675  -33.2490 H   0  0  0  0  0  0  0  0  0  0  0  0
  1  2  1  0
  2  3  1  0
  3  4  1  0
  4  5  1  0
  5  6  2  0
  6  7  1  0
  7  8  2  0
  8  9  1  0
  9 10  1  0
 10 11  1  0
 10 12  2  0
 12 13  1  0
 13 14  1  0
 14 15  2  0
 15 16  1  0
 16 17  2  0
 17 18  1  0
 18 19  2  0
 12 20  1  0
 20 21  2  0
 21  5  1  0
 20  8  1  0
 19 14  1  0
  1 22  1  0
  1 23  1  0
  1 24  1  0
  2 25  1  0
  2 26  1  0
  3 27  1  0
  3 28  1  0
  4 29  1  0
  4 30  1  0
  6 31  1  0
  7 32  1  0
  9 33  1  0
 11 34  1  0
 11 35  1  0
 11 36  1  0
 13 37  1  0
 13 38  1  0
 15 39  1  0
 16 40  1  0
 17 41  1  0
 18 42  1  0
 19 43  1  0
 21 44  1  0
M  CHG  1   4   1
M  END
>  <UniqueID>  (23) 
23

>  <SMILES>  (23) 
CCC[NH2+]c1ccc2[nH]c(C)c(Cc3ccccc3)c2c1

>  <Energy>  (23) 
70.65707028767288

>  <Genealogy>  (23) 
CCC[NH2+]c1ccc2[nH]c(C)c(Cc3ccccc3)c2c1 (protonated)
CCC[NH2+]c1ccc2[nH]c(C)c(Cc3ccccc3)c2c1 (3D coordinates assigned)
CCC[NH2+]c1ccc2[nH]c(C)c(Cc3ccccc3)c2c1 (optimized conformer: 70.65707028767288 kcal/mol)

>  <smiles>  (23) 
CCCNc1ccc2[nH]c(C)c(Cc3ccccc3)c2c1

>  <score_type>  (23) 
oracle

>  <origin>  (23) 
adg

>  <m_score__min__energy>  (23) 
-7.25

>  <m_primary>  (23) 
energy

$$$$
23:0
     RDKit          3D

 23 25  0  0  0  0  0  0  0  0999 V2000
   -6.4730   25.8960  -29.3300 C   0  0  0  0  0  0  0  0  0  0  0  0
   -6.2150   24.6950  -30.1230 N   0  0  0  0  0  0  0  0  0  0  0  0
   -7.1320   23.7210  -30.1370 N   0  0  0  0  0  0  0  0  0  0  0  0
   -6.9410   22.5880  -30.8550 C   0  0  0  0  0  0  0  0  0  0  0  0
   -7.8750   21.6010  -30.8660 N   0  0  0  0  0  0  0  0  0  0  0  0
   -7.6740   20.4670  -31.5910 C   0  0  0  0  0  0  0  0  0  0  0  0
   -8.6350   19.4500  -31.6030 C   0  0  0  0  0  0  0  0  0  0  0  0
   -8.4110   18.2900  -32.3540 C   0  0  0  0  0  0  0  0  0  0  0  0
   -7.2310   18.1440  -33.0920 C   0  0  0  0  0  0  0  0  0  0  0  0
   -6.2660   19.1570  -33.0840 C   0  0  0  0  0  0  0  0  0  0  0  0
   -6.4810   20.3190  -32.3360 C   0  0  0  0  0  0  0  0  0  0  0  0
   -5.5530   21.3130  -32.3190 N   0  0  0  0  0  0  0  0  0  0  0  0
   -5.7600   22.4430  -31.5930 C   0  0  0  0  0  0  0  0  0  0  0  0
   -4.8390   23.4360  -31.5720 N   0  0  0  0  0  0  0  0  0  0  0  0
   -5.0550   24.5610  -30.8420 C   0  0  0  0  0  0  0  0  0  0  0  0
   -4.1850   25.4720  -30.8370 O   0  0  0  0  0  0  0  0  0  0  0  0
   -6.4196   25.6472  -28.2598 H   0  0  0  0  0  0  0  0  0  0  0  0
   -5.7187   26.6608  -29.5668 H   0  0  0  0  0  0  0  0  0  0  0  0
   -7.4749   26.2835  -29.5668 H   0  0  0  0  0  0  0  0  0  0  0  0
   -9.5637   19.5617  -31.0241 H   0  0  0  0  0  0  0  0  0  0  0  0
   -9.1658   17.4899  -32.3640 H   0  0  0  0  0  0  0  0  0  0  0  0
   -7.0617   17.2300  -33.6802 H   0  0  0  0  0  0  0  0  0  0  0  0
   -5.3395   19.0397  -33.6652 H   0  0  0  0  0  0  0  0  0  0  0  0
  1  2  1  0
  2  3  1  0
  3  4  2  0
  4  5  1  0
  5  6  2  0
  6  7  1  0
  7  8  2  0
  8  9  1  0
  9 10  2  0
 10 11  1  0
 11 12  2  0
 12 13  1  0
 13 14  2  0
 14 15  1  0
 15 16  2  0
 15  2  1  0
 13  4  1  0
 11  6  1  0
  1 17  1  0
  1 18  1  0
  1 19  1  0
  7 20  1  0
  8 21  1  0
  9 22  1  0
 10 23  1  0
M  END
>  <UniqueID>  (24) 
24

>  <SMILES>  (24) 
Cn1nc2nc3ccccc3nc2nc1=O

>  <Energy>  (24) 
33.43732096435236

>  <Genealogy>  (24) 
Cn1nc2nc3ccccc3nc2nc1=O (3D coordinates assigned)
Cn1nc2nc3ccccc3nc2nc1=O (optimized conformer: 33.43732096435236 kcal/mol)

>  <smiles>  (24) 
Cn1nc2nc3ccccc3nc2nc1=O

>  <score_type>  (24) 
oracle

>  <origin>  (24) 
adg

>  <m_score__min__energy>  (24) 
-7.5300000000000002

>  <m_primary>  (24) 
energy

$$$$
24:0
     RDKit          3D

 33 35  0  0  0  0  0  0  0  0999 V2000
   -5.3420   14.2810  -33.3740 C   0  0  0  0  0  0  0  0  0  0  0  0
   -5.6840   15.7170  -33.5860 C   0  0  0  0  0  0  0  0  0  0  0  0
   -6.4700   16.1690  -34.5810 N   0  0  0  0  0  0  0  0  0  0  0  0
   -6.5170   17.4820  -34.4240 N   0  0  0  0  0  0  0  0  0  0  0  0
   -5.7630   17.7890  -33.3520 C   0  0  0  0  0  0  0  0  0  0  0  0
   -5.5300   19.1540  -32.8370 C   0  0  0  0  0  0  0  0  0  0  0  0
   -6.5830   19.8790  -32.2640 C   0  0  0  0  0  0  0  0  0  0  0  0
   -6.3630   21.1650  -31.7670 C   0  0  0  0  0  0  0  0  0  0  0  0
   -5.0840   21.7340  -31.8570 C   0  0  0  0  0  0  0  0  0  0  0  0
   -4.8220   23.0680  -31.3750 N   0  0  0  0  0  0  0  0  0  0  0  0
   -5.7230   24.1750  -31.7070 C   0  0  0  0  0  0  0  0  0  0  0  0
   -5.6320   25.2750  -30.6440 C   0  0  0  0  0  0  0  0  0  0  0  0
   -4.2840   25.6450  -30.4170 O   0  0  0  0  0  0  0  0  0  0  0  0
   -3.5810   24.5510  -29.8550 C   0  0  0  0  0  0  0  0  0  0  0  0
   -3.4920   23.3900  -30.8480 C   0  0  0  0  0  0  0  0  0  0  0  0
   -4.0820   21.0160  -32.4350 N   0  0  0  0  0  0  0  0  0  0  0  0
   -4.2690   19.7590  -32.9150 C   0  0  0  0  0  0  0  0  0  0  0  0
   -5.2430   16.7010  -32.8350 O   0  0  0  0  0  0  0  0  0  0  0  0
   -5.2921   14.0714  -32.2953 H   0  0  0  0  0  0  0  0  0  0  0  0
   -6.1145   13.6481  -33.8352 H   0  0  0  0  0  0  0  0  0  0  0  0
   -4.3671   14.0643  -33.8352 H   0  0  0  0  0  0  0  0  0  0  0  0
   -7.0310   18.1340  -35.0580 H   0  0  0  0  0  0  0  0  0  0  0  0
   -7.5870   19.4333  -32.2055 H   0  0  0  0  0  0  0  0  0  0  0  0
   -7.1881   21.7289  -31.3074 H   0  0  0  0  0  0  0  0  0  0  0  0
   -5.4402   24.5917  -32.6849 H   0  0  0  0  0  0  0  0  0  0  0  0
   -6.7553   23.7967  -31.7416 H   0  0  0  0  0  0  0  0  0  0  0  0
   -6.1947   26.1556  -30.9873 H   0  0  0  0  0  0  0  0  0  0  0  0
   -6.0556   24.8924  -29.7037 H   0  0  0  0  0  0  0  0  0  0  0  0
   -2.5643   24.8752  -29.5881 H   0  0  0  0  0  0  0  0  0  0  0  0
   -4.1223   24.2077  -28.9610 H   0  0  0  0  0  0  0  0  0  0  0  0
   -2.8310   23.6740  -31.6801 H   0  0  0  0  0  0  0  0  0  0  0  0
   -3.0886   22.5069  -30.3308 H   0  0  0  0  0  0  0  0  0  0  0  0
   -3.4269   19.2141  -33.3667 H   0  0  0  0  0  0  0  0  0  0  0  0
  1  2  1  0
  2  3  2  0
  3  4  1  0
  4  5  2  0
  5  6  1  0
  6  7  2  0
  7  8  1  0
  8  9  2  0
  9 10  1  0
 10 11  1  0
 11 12  1  0
 12 13  1  0
 13 14  1  0
 14 15  1  0
  9 16  1  0
 16 17  2  0
  5 18  1  0
 18  2  1  0
 17  6  1  0
 15 10  1  0
  1 19  1  0
  1 20  1  0
  1 21  1  0
  4 22  1  0
  7 23  1  0
  8 24  1  0
 11 25  1  0
 11 26  1  0
 12 27  1  0
 12 28  1  0
 14 29  1  0
 14 30  1  0
 15 31  1  0
 15 32  1  0
 17 33  1  0
M  CHG  1   4   1
M  END
>  <UniqueID>  (25) 
25

>  <SMILES>  (25) 
Cc1n[nH+]c(-c2ccc(N3CCOCC3)nc2)o1

>  <Energy>  (25) 
74.24964109385347

>  <Genealogy>  (25) 
Cc1n[nH+]c(-c2ccc(N3CCOCC3)nc2)o1 (protonated)
Cc1n[nH+]c(-c2ccc(N3CCOCC3)nc2)o1 (3D coordinates assigned)
Cc1n[nH+]c(-c2ccc(N3CCOCC3)nc2)o1 (nonaromatic ring conformer: 74.24964109385347 kcal/mol)

>  <smiles>  (25) 
Cc1nnc(-c2ccc(N3CCOCC3)nc2)o1

>  <score_type>  (25) 
oracle

>  <origin>  (25) 
adg

>  <m_score__min__energy>  (25) 
-5.9699999999999998

>  <m_primary>  (25) 
energy

$$$$
25:0
     RDKit          3D

 57 59  0  0  0  0  0  0  0  0999 V2000
   -7.7940   23.4480  -31.9690 C   0  0  0  0  0  0  0  0  0  0  0  0
   -6.7900   23.5010  -30.8910 N   0  0  0  0  0  0  0  0  0  0  0  0
   -7.2480   22.6930  -29.7480 C   0  0  0  0  0  0  0  0  0  0  0  0
   -6.5310   24.8970  -30.4690 C   0  0  0  0  0  0  0  0  0  0  0  0
   -5.0230   25.2030  -30.4830 C   0  0  0  0  0  0  0  0  0  0  0  0
   -4.2230   24.0530  -30.9430 N   0  0  0  0  0  0  0  0  0  0  0  0
   -3.1270   23.7100  -30.0270 C   0  0  0  0  0  0  0  0  0  0  0  0
   -2.5440   22.3270  -30.3560 C   0  0  0  0  0  0  0  0  0  0  0  0
   -3.6150   21.2170  -30.4980 C   0  0  0  0  0  0  0  0  0  0  0  0
   -4.5670   21.4360  -31.6180 N   0  0  0  0  0  0  0  0  0  0  0  0
   -4.8750   20.2390  -32.3990 C   0  0  0  0  0  0  0  0  0  0  0  0
   -6.1790   19.6880  -32.3770 C   0  0  0  0  0  0  0  0  0  0  0  0
   -7.3160   20.4810  -32.0990 C   0  0  0  0  0  0  0  0  0  0  0  0
   -8.5880   19.9140  -32.0590 C   0  0  0  0  0  0  0  0  0  0  0  0
   -8.7570   18.5580  -32.3110 C   0  0  0  0  0  0  0  0  0  0  0  0
   -7.6550   17.7600  -32.6130 C   0  0  0  0  0  0  0  0  0  0  0  0
   -6.3480   18.3040  -32.6470 C   0  0  0  0  0  0  0  0  0  0  0  0
   -5.2460   17.5220  -32.9210 N   0  0  0  0  0  0  0  0  0  0  0  0
   -5.3320   16.0510  -32.7990 C   0  0  0  0  0  0  0  0  0  0  0  0
   -4.0680   18.1240  -33.3170 C   0  0  0  0  0  0  0  0  0  0  0  0
   -3.0280   17.3740  -33.9180 C   0  0  0  0  0  0  0  0  0  0  0  0
   -1.8460   17.9840  -34.3240 C   0  0  0  0  0  0  0  0  0  0  0  0
   -1.6970   19.3590  -34.2160 C   0  0  0  0  0  0  0  0  0  0  0  0
   -2.7210   20.1470  -33.6820 C   0  0  0  0  0  0  0  0  0  0  0  0
   -2.6100   21.5670  -33.8230 N   0  0  0  0  0  0  0  0  0  0  0  0
   -3.8860   19.5290  -33.1380 C   0  0  0  0  0  0  0  0  0  0  0  0
   -8.8011   23.3948  -31.5298 H   0  0  0  0  0  0  0  0  0  0  0  0
   -7.7124   24.3517  -32.5908 H   0  0  0  0  0  0  0  0  0  0  0  0
   -7.6177   22.5579  -32.5908 H   0  0  0  0  0  0  0  0  0  0  0  0
   -6.9651   23.1920  -28.8094 H   0  0  0  0  0  0  0  0  0  0  0  0
   -8.3418   22.5846  -29.7904 H   0  0  0  0  0  0  0  0  0  0  0  0
   -6.7791   21.6988  -29.7904 H   0  0  0  0  0  0  0  0  0  0  0  0
   -7.0443   25.5831  -31.1588 H   0  0  0  0  0  0  0  0  0  0  0  0
   -6.9076   25.0304  -29.4441 H   0  0  0  0  0  0  0  0  0  0  0  0
   -4.8407   26.0530  -31.1570 H   0  0  0  0  0  0  0  0  0  0  0  0
   -4.7171   25.4350  -29.4522 H   0  0  0  0  0  0  0  0  0  0  0  0
   -4.8300   23.2100  -31.0720 H   0  0  0  0  0  0  0  0  0  0  0  0
   -2.3328   24.4656  -30.1180 H   0  0  0  0  0  0  0  0  0  0  0  0
   -3.5231   23.6873  -29.0010 H   0  0  0  0  0  0  0  0  0  0  0  0
   -1.9916   22.3998  -31.3044 H   0  0  0  0  0  0  0  0  0  0  0  0
   -1.8964   22.0427  -29.5135 H   0  0  0  0  0  0  0  0  0  0  0  0
   -3.1005   20.2589  -30.6636 H   0  0  0  0  0  0  0  0  0  0  0  0
   -4.2068   21.2250  -29.5708 H   0  0  0  0  0  0  0  0  0  0  0  0
   -4.2140   22.1860  -32.2480 H   0  0  0  0  0  0  0  0  0  0  0  0
   -5.4300   21.8390  -31.1960 H   0  0  0  0  0  0  0  0  0  0  0  0
   -7.1949   21.5582  -31.9121 H   0  0  0  0  0  0  0  0  0  0  0  0
   -9.4611   20.5417  -31.8272 H   0  0  0  0  0  0  0  0  0  0  0  0
   -9.7625   18.1135  -32.2721 H   0  0  0  0  0  0  0  0  0  0  0  0
   -7.8027   16.6914  -32.8282 H   0  0  0  0  0  0  0  0  0  0  0  0
   -5.3483   15.7716  -31.7352 H   0  0  0  0  0  0  0  0  0  0  0  0
   -6.2524   15.6959  -33.2855 H   0  0  0  0  0  0  0  0  0  0  0  0
   -4.4592   15.5911  -33.2855 H   0  0  0  0  0  0  0  0  0  0  0  0
   -3.1571   16.2917  -34.0661 H   0  0  0  0  0  0  0  0  0  0  0  0
   -1.0265   17.3742  -34.7321 H   0  0  0  0  0  0  0  0  0  0  0  0
   -0.7641   19.8339  -34.5538 H   0  0  0  0  0  0  0  0  0  0  0  0
   -3.4670   22.1610  -33.8120 H   0  0  0  0  0  0  0  0  0  0  0  0
   -1.7450   21.9900  -34.2270 H   0  0  0  0  0  0  0  0  0  0  0  0
  1  2  1  0
  2  3  1  0
  2  4  1  0
  4  5  1  0
  5  6  1  0
  6  7  1  0
  7  8  1  0
  8  9  1  0
  9 10  1  0
 10 11  1  0
 11 12  2  0
 12 13  1  0
 13 14  2  0
 14 15  1  0
 15 16  2  0
 16 17  1  0
 17 18  2  0
 18 19  1  0
 18 20  1  0
 20 21  2  0
 21 22  1  0
 22 23  2  0
 23 24  1  0
 24 25  1  0
 24 26  2  0
 26 11  1  0
 17 12  1  0
 26 20  1  0
  1 27  1  0
  1 28  1  0
  1 29  1  0
  3 30  1  0
  3 31  1  0
  3 32  1  0
  4 33  1  0
  4 34  1  0
  5 35  1  0
  5 36  1  0
  6 37  1  0
  7 38  1  0
  7 39  1  0
  8 40  1  0
  8 41  1  0
  9 42  1  0
  9 43  1  0
 10 44  1  0
 10 45  1  0
 13 46  1  0
 14 47  1  0
 15 48  1  0
 16 49  1  0
 19 50  1  0
 19 51  1  0
 19 52  1  0
 21 53  1  0
 22 54  1  0
 23 55  1  0
 25 56  1  0
 25 57  1  0
M  CHG  2  10   1  18   1
M  END
>  <UniqueID>  (26) 
26

>  <SMILES>  (26) 
CN(C)CCNCCC[NH2+]c1c2ccccc2[n+](C)c2cccc(N)c12

>  <Energy>  (26) 
98.6493699099338

>  <Genealogy>  (26) 
CN(C)CCNCCC[NH2+]c1c2ccccc2[n+](C)c2cccc(N)c12 (protonated)
CN(C)CCNCCC[NH2+]c1c2ccccc2[n+](C)c2cccc(N)c12 (3D coordinates assigned)
CN(C)CCNCCC[NH2+]c1c2ccccc2[n+](C)c2cccc(N)c12 (optimized conformer: 98.6493699099338 kcal/mol)

>  <smiles>  (26) 
CN(C)CCNCCCNc1c2ccccc2[n+](C)c2cccc(N)c12

>  <score_type>  (26) 
oracle

>  <origin>  (26) 
adg

>  <m_score__min__energy>  (26) 
-7.04

>  <m_primary>  (26) 
energy

$$$$
26:0
     RDKit          3D

 44 46  0  0  0  0  0  0  0  0999 V2000
   -6.1740   24.7170  -29.7160 C   0  0  0  0  0  0  0  0  0  0  0  0
   -5.3080   25.6800  -30.5100 C   0  0  0  0  0  0  0  0  0  0  0  0
   -3.9650   25.2100  -30.5280 O   0  0  0  0  0  0  0  0  0  0  0  0
   -3.6330   23.8540  -30.6310 C   0  0  0  0  0  0  0  0  0  0  0  0
   -4.2700   23.0580  -31.5350 N   0  0  0  0  0  0  0  0  0  0  0  0
   -4.0040   21.7290  -31.6380 C   0  0  0  0  0  0  0  0  0  0  0  0
   -3.0630   21.1380  -30.7950 C   0  0  0  0  0  0  0  0  0  0  0  0
   -2.3930   21.9280  -29.8600 C   0  0  0  0  0  0  0  0  0  0  0  0
   -2.6560   23.3020  -29.7830 C   0  0  0  0  0  0  0  0  0  0  0  0
   -1.9430   24.1260  -28.7850 C   0  0  0  0  0  0  0  0  0  0  0  0
   -0.6360   24.4710  -28.9380 N   0  0  0  0  0  0  0  0  0  0  0  0
   -0.3880   25.1920  -27.8310 C   0  0  0  0  0  0  0  0  0  0  0  0
    0.8010   25.8000  -27.4560 C   0  0  0  0  0  0  0  0  0  0  0  0
    0.8230   26.4920  -26.2790 N   0  0  0  0  0  0  0  0  0  0  0  0
   -0.2750   26.6090  -25.4590 C   0  0  0  0  0  0  0  0  0  0  0  0
   -0.1600   27.3640  -24.2260 N   0  0  0  0  0  0  0  0  0  0  0  0
   -0.4870   26.6980  -22.9600 C   0  0  0  0  0  0  0  0  0  0  0  0
    0.2790   28.7680  -24.1970 C   0  0  0  0  0  0  0  0  0  0  0  0
   -0.4660   29.5850  -25.2490 C   0  0  0  0  0  0  0  0  0  0  0  0
   -1.4920   25.9870  -25.8470 C   0  0  0  0  0  0  0  0  0  0  0  0
   -1.4950   25.2850  -27.0520 C   0  0  0  0  0  0  0  0  0  0  0  0
   -2.5020   24.6250  -27.6470 N   0  0  0  0  0  0  0  0  0  0  0  0
   -3.8850   24.5230  -27.1800 C   0  0  0  0  0  0  0  0  0  0  0  0
   -6.0206   24.8876  -28.6402 H   0  0  0  0  0  0  0  0  0  0  0  0
   -7.2321   24.8836  -29.9664 H   0  0  0  0  0  0  0  0  0  0  0  0
   -5.8964   23.6825  -29.9664 H   0  0  0  0  0  0  0  0  0  0  0  0
   -5.6861   25.7477  -31.5408 H   0  0  0  0  0  0  0  0  0  0  0  0
   -5.3411   26.6739  -30.0398 H   0  0  0  0  0  0  0  0  0  0  0  0
   -4.5311   21.1193  -32.3866 H   0  0  0  0  0  0  0  0  0  0  0  0
   -2.8513   20.0609  -30.8664 H   0  0  0  0  0  0  0  0  0  0  0  0
   -1.6570   21.4711  -29.1821 H   0  0  0  0  0  0  0  0  0  0  0  0
    1.6987   25.7270  -28.0874 H   0  0  0  0  0  0  0  0  0  0  0  0
   -0.1744   27.3348  -22.1193 H   0  0  0  0  0  0  0  0  0  0  0  0
   -1.5721   26.5258  -22.9058 H   0  0  0  0  0  0  0  0  0  0  0  0
    0.0403   25.7342  -22.9058 H   0  0  0  0  0  0  0  0  0  0  0  0
    0.0765   29.1897  -23.2014 H   0  0  0  0  0  0  0  0  0  0  0  0
    1.3565   28.8075  -24.4146 H   0  0  0  0  0  0  0  0  0  0  0  0
   -1.1267   30.3095  -24.7504 H   0  0  0  0  0  0  0  0  0  0  0  0
    0.2595   30.1223  -25.8774 H   0  0  0  0  0  0  0  0  0  0  0  0
   -1.0678   28.9120  -25.8774 H   0  0  0  0  0  0  0  0  0  0  0  0
   -2.3949   26.0563  -25.2225 H   0  0  0  0  0  0  0  0  0  0  0  0
   -3.9015   24.5218  -26.0801 H   0  0  0  0  0  0  0  0  0  0  0  0
   -4.4627   25.3810  -27.5544 H   0  0  0  0  0  0  0  0  0  0  0  0
   -4.3305   23.5896  -27.5544 H   0  0  0  0  0  0  0  0  0  0  0  0
  1  2  1  0
  2  3  1  0
  3  4  1  0
  4  5  2  0
  5  6  1  0
  6  7  2  0
  7  8  1  0
  8  9  2  0
  9 10  1  0
 10 11  2  0
 11 12  1  0
 12 13  2  0
 13 14  1  0
 14 15  2  0
 15 16  1  0
 16 17  1  0
 16 18  1  0
 18 19  1  0
 15 20  1  0
 20 21  2  0
 21 22  1  0
 22 23  1  0
  9  4  1  0
 22 10  1  0
 21 12  1  0
  1 24  1  0
  1 25  1  0
  1 26  1  0
  2 27  1  0
  2 28  1  0
  6 29  1  0
  7 30  1  0
  8 31  1  0
 13 32  1  0
 17 33  1  0
 17 34  1  0
 17 35  1  0
 18 36  1  0
 18 37  1  0
 19 38  1  0
 19 39  1  0
 19 40  1  0
 20 41  1  0
 23 42  1  0
 23 43  1  0
 23 44  1  0
M  END
>  <UniqueID>  (27) 
27

>  <SMILES>  (27) 
CCOc1ncccc1-c1nc2cnc(N(C)CC)cc2n1C

>  <Energy>  (27) 
83.1410658606087

>  <Genealogy>  (27) 
CCOc1ncccc1-c1nc2cnc(N(C)CC)cc2n1C (3D coordinates assigned)
CCOc1ncccc1-c1nc2cnc(N(C)CC)cc2n1C (optimized conformer: 83.1410658606087 kcal/mol)

>  <smiles>  (27) 
CCOc1ncccc1-c1nc2cnc(N(C)CC)cc2n1C

>  <score_type>  (27) 
oracle

>  <origin>  (27) 
adg

>  <m_score__min__energy>  (27) 
-6.79

>  <m_primary>  (27) 
energy

$$$$
