0:0
     RDKit          3D

 64 66  0  0  0  0  0  0  0  0999 V2000
   -1.2370   26.1210  -26.7610 C   0  0  0  0  0  0  0  0  0  0  0  0
   -1.2340   25.8060  -28.2590 C   0  0  0  0  0  0  0  0  0  0  0  0
   -1.7710   24.4670  -28.6050 N   0  0  0  0  0  0  0  0  0  0  0  0
   -2.8730   23.9930  -27.7310 C   0  0  0  0  0  0  0  0  0  0  0  0
   -4.2820   24.1760  -28.3190 C   0  0  0  0  0  0  0  0  0  0  0  0
   -0.7630   23.4450  -28.9660 C   0  0  0  0  0  0  0  0  0  0  0  0
   -1.2870   22.5150  -30.0700 C   0  0  0  0  0  0  0  0  0  0  0  0
   -2.5220   23.0410  -30.6570 N   0  0  0  0  0  0  0  0  0  0  0  0
   -3.4450   22.2310  -31.4180 C   0  0  0  0  0  0  0  0  0  0  0  0
   -4.7610   22.0100  -30.9670 C   0  0  0  0  0  0  0  0  0  0  0  0
   -5.6520   21.2260  -31.7070 C   0  0  0  0  0  0  0  0  0  0  0  0
   -5.2370   20.6480  -32.9210 C   0  0  0  0  0  0  0  0  0  0  0  0
   -3.9260   20.8520  -33.3680 C   0  0  0  0  0  0  0  0  0  0  0  0
   -3.0250   21.6430  -32.6300 C   0  0  0  0  0  0  0  0  0  0  0  0
   -1.7080   21.8600  -33.0690 O   0  0  0  0  0  0  0  0  0  0  0  0
   -0.9320   20.9180  -33.8030 C   0  0  0  0  0  0  0  0  0  0  0  0
   -6.1650   19.7350  -33.7040 C   0  0  1  0  0  0  0  0  0  0  0  0
   -5.8590   18.2720  -33.4230 C   0  0  0  0  0  0  0  0  0  0  0  0
   -5.5350   17.4120  -34.4830 C   0  0  0  0  0  0  0  0  0  0  0  0
   -5.2610   16.0620  -34.2490 C   0  0  0  0  0  0  0  0  0  0  0  0
   -5.3120   15.5310  -32.9450 C   0  0  0  0  0  0  0  0  0  0  0  0
   -5.0250   14.1290  -32.6990 N   0  0  0  0  0  0  0  0  0  0  0  0
   -5.1870   13.1350  -33.7680 C   0  0  0  0  0  0  0  0  0  0  0  0
   -4.5620   13.6820  -31.3790 C   0  0  0  0  0  0  0  0  0  0  0  0
   -5.6500   16.3960  -31.8850 C   0  0  0  0  0  0  0  0  0  0  0  0
   -5.9230   17.7460  -32.1210 C   0  0  0  0  0  0  0  0  0  0  0  0
   -7.6570   20.0570  -33.4700 C   0  0  0  0  0  0  0  0  0  0  0  0
   -7.9550   20.3350  -32.0280 C   0  0  0  0  0  0  0  0  0  0  0  0
   -9.0830   20.0480  -31.5480 O   0  0  0  0  0  0  0  0  0  0  0  0
   -6.9820   21.0010  -31.2180 N   0  0  0  0  0  0  0  0  0  0  0  0
   -1.2281   25.1816  -26.1888 H   0  0  0  0  0  0  0  0  0  0  0  0
   -0.3444   26.7124  -26.5089 H   0  0  0  0  0  0  0  0  0  0  0  0
   -2.1407   26.6953  -26.5089 H   0  0  0  0  0  0  0  0  0  0  0  0
   -1.8444   26.5643  -28.7712 H   0  0  0  0  0  0  0  0  0  0  0  0
   -0.1817   25.8145  -28.5794 H   0  0  0  0  0  0  0  0  0  0  0  0
   -2.7193   22.9213  -27.5362 H   0  0  0  0  0  0  0  0  0  0  0  0
   -2.8338   24.6079  -26.8197 H   0  0  0  0  0  0  0  0  0  0  0  0
   -5.0112   24.2707  -27.5009 H   0  0  0  0  0  0  0  0  0  0  0  0
   -4.3057   25.0848  -28.9383 H   0  0  0  0  0  0  0  0  0  0  0  0
   -4.5370   23.3034  -28.9383 H   0  0  0  0  0  0  0  0  0  0  0  0
    0.1471   23.9490  -29.3233 H   0  0  0  0  0  0  0  0  0  0  0  0
   -0.5457   22.8393  -28.0739 H   0  0  0  0  0  0  0  0  0  0  0  0
   -0.5240   22.4257  -30.8573 H   0  0  0  0  0  0  0  0  0  0  0  0
   -1.5007   21.5310  -29.6272 H   0  0  0  0  0  0  0  0  0  0  0  0
   -2.7490   24.0500  -30.5060 H   0  0  0  0  0  0  0  0  0  0  0  0
   -5.0925   22.4602  -30.0197 H   0  0  0  0  0  0  0  0  0  0  0  0
   -3.5953   20.3878  -34.3089 H   0  0  0  0  0  0  0  0  0  0  0  0
   -0.3924   20.2629  -33.1032 H   0  0  0  0  0  0  0  0  0  0  0  0
   -1.5954   20.3107  -34.4363 H   0  0  0  0  0  0  0  0  0  0  0  0
   -0.2089   21.4528  -34.4363 H   0  0  0  0  0  0  0  0  0  0  0  0
   -5.9721   19.9258  -34.7700 H   0  0  0  0  0  0  0  0  0  0  0  0
   -5.4962   17.8048  -35.5097 H   0  0  0  0  0  0  0  0  0  0  0  0
   -5.0023   15.4058  -35.0931 H   0  0  0  0  0  0  0  0  0  0  0  0
   -5.3489   12.1418  -33.3237 H   0  0  0  0  0  0  0  0  0  0  0  0
   -6.0532   13.4038  -34.3905 H   0  0  0  0  0  0  0  0  0  0  0  0
   -4.2803   13.1149  -34.3905 H   0  0  0  0  0  0  0  0  0  0  0  0
   -5.1170   14.2179  -30.5949 H   0  0  0  0  0  0  0  0  0  0  0  0
   -4.7349   12.6005  -31.2767 H   0  0  0  0  0  0  0  0  0  0  0  0
   -3.4872   13.8928  -31.2767 H   0  0  0  0  0  0  0  0  0  0  0  0
   -5.6996   16.0034  -30.8586 H   0  0  0  0  0  0  0  0  0  0  0  0
   -6.1904   18.4030  -31.2803 H   0  0  0  0  0  0  0  0  0  0  0  0
   -7.9262   20.9423  -34.0647 H   0  0  0  0  0  0  0  0  0  0  0  0
   -8.2446   19.1780  -33.7736 H   0  0  0  0  0  0  0  0  0  0  0  0
   -7.2480   21.3140  -30.2570 H   0  0  0  0  0  0  0  0  0  0  0  0
  1  2  1  0
  2  3  1  0
  3  4  1  0
  4  5  1  0
  3  6  1  0
  6  7  1  0
  7  8  1  0
  8  9  1  0
  9 10  2  0
 10 11  1  0
 11 12  2  0
 12 13  1  0
 13 14  2  0
 14 15  1  0
 15 16  1  0
 12 17  1  0
 17 18  1  0
 18 19  2  0
 19 20  1  0
 20 21  2  0
 21 22  1  0
 22 23  1  0
 22 24  1  0
 21 25  1  0
 25 26  2  0
 17 27  1  0
 27 28  1  0
 28 29  2  0
 28 30  1  0
 14  9  1  0
 26 18  1  0
 30 11  1  0
  1 31  1  0
  1 32  1  0
  1 33  1  0
  2 34  1  0
  2 35  1  0
  4 36  1  0
  4 37  1  0
  5 38  1  0
  5 39  1  0
  5 40  1  0
  6 41  1  0
  6 42  1  0
  7 43  1  0
  7 44  1  0
  8 45  1  0
 10 46  1  0
 13 47  1  0
 16 48  1  0
 16 49  1  0
 16 50  1  0
 17 51  1  6
 19 52  1  0
 20 53  1  0
 23 54  1  0
 23 55  1  0
 23 56  1  0
 24 57  1  0
 24 58  1  0
 24 59  1  0
 25 60  1  0
 26 61  1  0
 27 62  1  0
 27 63  1  0
 30 64  1  0
M  END
>  <UniqueID>  (1) 
1

>  <SMILES>  (1) 
CCN(CC)CCNc1cc2c(cc1OC)[C@@H](c1ccc(N(C)C)cc1)CC(=O)N2

>  <Energy>  (1) 
72.68540422290042

>  <Genealogy>  (1) 
CCN(CC)CCNc1cc2c(cc1OC)[C@@H](c1ccc(N(C)C)cc1)CC(=O)N2 (chirality)
CCN(CC)CCNc1cc2c(cc1OC)[C@@H](c1ccc(N(C)C)cc1)CC(=O)N2 (3D coordinates assigned)
CCN(CC)CCNc1cc2c(cc1OC)[C@@H](c1ccc(N(C)C)cc1)CC(=O)N2 (nonaromatic ring conformer: 72.68540422290042 kcal/mol)

>  <smiles>  (1) 
CCN(CC)CCNc1cc2c(cc1OC)C(c1ccc(N(C)C)cc1)CC(=O)N2

>  <score_type>  (1) 
oracle

>  <origin>  (1) 
adg

>  <m_score__min__energy>  (1) 
-7.7800000000000002

>  <m_primary>  (1) 
energy

$$$$
1:0
     RDKit          3D

 44 46  0  0  0  0  0  0  0  0999 V2000
   -8.2790   22.3220  -31.0410 C   0  0  0  0  0  0  0  0  0  0  0  0
   -7.3800   21.6510  -31.7790 C   0  0  0  0  0  0  0  0  0  0  0  0
   -6.0130   21.9420  -31.8820 C   0  0  0  0  0  0  0  0  0  0  0  0
   -5.3560   22.9750  -31.3180 C   0  0  0  0  0  0  0  0  0  0  0  0
   -4.0010   22.8830  -30.7350 C   0  0  0  0  0  0  0  0  0  0  0  0
   -3.2550   21.4750  -30.1840 S   0  0  0  0  0  0  0  0  0  0  0  0
   -1.9290   22.2850  -29.5520 C   0  0  0  0  0  0  0  0  0  0  0  0
   -0.6820   21.5240  -28.8090 S   0  0  0  0  0  0  0  0  0  0  0  0
   -2.0350   23.6290  -29.7270 N   0  0  0  0  0  0  0  0  0  0  0  0
   -1.0630   24.6180  -29.2370 C   0  0  0  0  0  0  0  0  0  0  0  0
   -1.4920   25.1640  -27.9000 C   0  0  0  0  0  0  0  0  0  0  0  0
   -0.6580   26.0390  -27.1830 C   0  0  0  0  0  0  0  0  0  0  0  0
   -1.0530   26.5260  -25.9350 C   0  0  0  0  0  0  0  0  0  0  0  0
   -2.2830   26.1450  -25.3910 C   0  0  0  0  0  0  0  0  0  0  0  0
   -3.1190   25.2770  -26.0970 C   0  0  0  0  0  0  0  0  0  0  0  0
   -2.7270   24.7860  -27.3470 C   0  0  0  0  0  0  0  0  0  0  0  0
   -3.1940   23.9650  -30.3720 C   0  0  0  0  0  0  0  0  0  0  0  0
   -3.5240   25.2930  -30.6470 O   0  0  0  0  0  0  0  0  0  0  0  0
   -5.4750   20.9780  -32.7230 C   0  0  0  0  0  0  0  0  0  0  0  0
   -6.5100   20.1410  -33.0840 C   0  0  0  0  0  0  0  0  0  0  0  0
   -6.3680   18.9680  -34.0050 C   0  0  0  0  0  0  0  0  0  0  0  0
   -7.6730   20.5560  -32.5270 N   0  0  0  0  0  0  0  0  0  0  0  0
   -8.9770   19.8920  -32.6720 C   0  0  0  0  0  0  0  0  0  0  0  0
   -9.0290   18.6280  -31.8200 C   0  0  0  0  0  0  0  0  0  0  0  0
   -9.3321   22.0043  -31.0343 H   0  0  0  0  0  0  0  0  0  0  0  0
   -7.9623   23.1893  -30.4431 H   0  0  0  0  0  0  0  0  0  0  0  0
   -5.8619   23.9513  -31.2898 H   0  0  0  0  0  0  0  0  0  0  0  0
   -0.0791   24.1372  -29.1326 H   0  0  0  0  0  0  0  0  0  0  0  0
   -1.0061   25.4472  -29.9575 H   0  0  0  0  0  0  0  0  0  0  0  0
    0.3108   26.3418  -27.6069 H   0  0  0  0  0  0  0  0  0  0  0  0
   -0.3952   27.2104  -25.3793 H   0  0  0  0  0  0  0  0  0  0  0  0
   -2.5923   26.5286  -24.4075 H   0  0  0  0  0  0  0  0  0  0  0  0
   -4.0876   24.9788  -25.6693 H   0  0  0  0  0  0  0  0  0  0  0  0
   -3.3881   24.1016  -27.8988 H   0  0  0  0  0  0  0  0  0  0  0  0
   -3.6040   25.6420  -31.5940 H   0  0  0  0  0  0  0  0  0  0  0  0
   -4.4250   20.8971  -33.0406 H   0  0  0  0  0  0  0  0  0  0  0  0
   -6.2566   18.0480  -33.4125 H   0  0  0  0  0  0  0  0  0  0  0  0
   -7.2632   18.8894  -34.6394 H   0  0  0  0  0  0  0  0  0  0  0  0
   -5.4799   19.1053  -34.6394 H   0  0  0  0  0  0  0  0  0  0  0  0
   -9.7718   20.5800  -32.3482 H   0  0  0  0  0  0  0  0  0  0  0  0
   -9.1213   19.6167  -33.7272 H   0  0  0  0  0  0  0  0  0  0  0  0
   -9.0177   18.9030  -30.7550 H   0  0  0  0  0  0  0  0  0  0  0  0
   -9.9508   18.0716  -32.0453 H   0  0  0  0  0  0  0  0  0  0  0  0
   -8.1560   17.9978  -32.0453 H   0  0  0  0  0  0  0  0  0  0  0  0
  1  2  2  0
  2  3  1  0
  3  4  2  3
  4  5  1  0
  5  6  1  0
  6  7  1  0
  7  8  2  0
  7  9  1  0
  9 10  1  0
 10 11  1  0
 11 12  2  0
 12 13  1  0
 13 14  2  0
 14 15  1  0
 15 16  2  0
  9 17  1  0
 17 18  1  0
  3 19  1  0
 19 20  2  0
 20 21  1  0
 20 22  1  0
 22 23  1  0
 23 24  1  0
 22  2  1  0
 17  5  2  0
 16 11  1  0
  1 25  1  0
  1 26  1  0
  4 27  1  0
 10 28  1  0
 10 29  1  0
 12 30  1  0
 13 31  1  0
 14 32  1  0
 15 33  1  0
 16 34  1  0
 18 35  1  0
 19 36  1  0
 21 37  1  0
 21 38  1  0
 21 39  1  0
 23 40  1  0
 23 41  1  0
 24 42  1  0
 24 43  1  0
 24 44  1  0
M  END
>  <UniqueID>  (2) 
2

>  <SMILES>  (2) 
C=c1c(=Cc2sc(=S)n(Cc3ccccc3)c2O)cc(C)n1CC

>  <Energy>  (2) 
108.05452076565372

>  <Genealogy>  (2) 
C=c1c(=Cc2sc(=S)n(Cc3ccccc3)c2O)cc(C)n1CC (3D coordinates assigned)
C=c1c(=Cc2sc(=S)n(Cc3ccccc3)c2O)cc(C)n1CC (optimized conformer: 108.05452076565372 kcal/mol)

>  <smiles>  (2) 
C=c1c(=Cc2sc(=S)n(Cc3ccccc3)c2O)cc(C)n1CC

>  <score_type>  (2) 
oracle

>  <origin>  (2) 
adg

>  <m_score__min__energy>  (2) 
-9.3000000000000007

>  <m_primary>  (2) 
energy

$$$$
2:0
     RDKit          3D

 47 49  0  0  0  0  0  0  0  0999 V2000
   -6.0880   24.8030  -29.6970 C   0  0  0  0  0  0  0  0  0  0  0  0
   -5.1480   25.0650  -30.8700 C   0  0  0  0  0  0  0  0  0  0  0  0
   -3.9240   24.2390  -30.7400 N   0  0  0  0  0  0  0  0  0  0  0  0
   -3.2290   24.5100  -29.4600 C   0  0  0  0  0  0  0  0  0  0  0  0
   -3.3130   23.2900  -28.5480 C   0  0  0  0  0  0  0  0  0  0  0  0
   -4.2260   22.7980  -30.8950 C   0  0  0  0  0  0  0  0  0  0  0  0
   -3.5770   22.2650  -32.1820 C   0  0  0  0  0  0  0  0  0  0  0  0
   -4.5420   22.1140  -33.2880 N   0  0  0  0  0  0  0  0  0  0  0  0
   -5.5940   21.1620  -32.9720 C   0  0  0  0  0  0  0  0  0  0  0  0
   -6.8920   21.5460  -32.5210 C   0  0  0  0  0  0  0  0  0  0  0  0
   -7.2470   22.9010  -32.3250 C   0  0  0  0  0  0  0  0  0  0  0  0
   -8.5380   23.2590  -31.9490 C   0  0  0  0  0  0  0  0  0  0  0  0
   -9.5090   22.2860  -31.7670 C   0  0  0  0  0  0  0  0  0  0  0  0
   -9.1910   20.9410  -31.9270 C   0  0  0  0  0  0  0  0  0  0  0  0
   -7.8790   20.5300  -32.2720 C   0  0  0  0  0  0  0  0  0  0  0  0
   -7.5550   19.1850  -32.3840 N   0  0  0  0  0  0  0  0  0  0  0  0
   -8.5090   18.1380  -31.9650 C   0  0  0  0  0  0  0  0  0  0  0  0
   -6.3280   18.8370  -32.8930 C   0  0  0  0  0  0  0  0  0  0  0  0
   -5.8940   17.5290  -33.2080 C   0  0  0  0  0  0  0  0  0  0  0  0
   -4.5910   17.4800  -33.6900 C   0  0  0  0  0  0  0  0  0  0  0  0
   -3.9800   19.0440  -33.7490 S   0  0  0  0  0  0  0  0  0  0  0  0
   -5.3680   19.7960  -33.1630 C   0  0  0  0  0  0  0  0  0  0  0  0
   -5.5459   24.9541  -28.7519 H   0  0  0  0  0  0  0  0  0  0  0  0
   -6.9390   25.4982  -29.7468 H   0  0  0  0  0  0  0  0  0  0  0  0
   -6.4567   23.7678  -29.7468 H   0  0  0  0  0  0  0  0  0  0  0  0
   -5.6600   24.8104  -31.8097 H   0  0  0  0  0  0  0  0  0  0  0  0
   -4.8649   26.1279  -30.8724 H   0  0  0  0  0  0  0  0  0  0  0  0
   -2.1726   24.7412  -29.6617 H   0  0  0  0  0  0  0  0  0  0  0  0
   -3.7114   25.3644  -28.9628 H   0  0  0  0  0  0  0  0  0  0  0  0
   -3.2906   23.6153  -27.4974 H   0  0  0  0  0  0  0  0  0  0  0  0
   -4.2505   22.7492  -28.7445 H   0  0  0  0  0  0  0  0  0  0  0  0
   -2.4585   22.6258  -28.7445 H   0  0  0  0  0  0  0  0  0  0  0  0
   -3.8284   22.2466  -30.0302 H   0  0  0  0  0  0  0  0  0  0  0  0
   -5.3157   22.6598  -30.9539 H   0  0  0  0  0  0  0  0  0  0  0  0
   -2.7899   22.9666  -32.4955 H   0  0  0  0  0  0  0  0  0  0  0  0
   -3.1693   21.2679  -31.9593 H   0  0  0  0  0  0  0  0  0  0  0  0
   -4.0520   21.9010  -34.1810 H   0  0  0  0  0  0  0  0  0  0  0  0
   -4.9820   23.0480  -33.4550 H   0  0  0  0  0  0  0  0  0  0  0  0
   -6.4897   23.6851  -32.4723 H   0  0  0  0  0  0  0  0  0  0  0  0
   -8.7894   24.3188  -31.7954 H   0  0  0  0  0  0  0  0  0  0  0  0
  -10.5340   22.5784  -31.4952 H   0  0  0  0  0  0  0  0  0  0  0  0
   -9.9734   20.1813  -31.7829 H   0  0  0  0  0  0  0  0  0  0  0  0
   -8.5477   18.0956  -30.8665 H   0  0  0  0  0  0  0  0  0  0  0  0
   -9.5088   18.3743  -32.3582 H   0  0  0  0  0  0  0  0  0  0  0  0
   -8.1810   17.1645  -32.3582 H   0  0  0  0  0  0  0  0  0  0  0  0
   -6.5257   16.6371  -33.0838 H   0  0  0  0  0  0  0  0  0  0  0  0
   -4.0498   16.5686  -33.9840 H   0  0  0  0  0  0  0  0  0  0  0  0
  1  2  1  0
  2  3  1  0
  3  4  1  0
  4  5  1  0
  3  6  1  0
  6  7  1  0
  7  8  1  0
  8  9  1  0
  9 10  2  0
 10 11  1  0
 11 12  2  0
 12 13  1  0
 13 14  2  0
 14 15  1  0
 15 16  2  0
 16 17  1  0
 16 18  1  0
 18 19  1  0
 19 20  2  0
 20 21  1  0
 21 22  1  0
 22  9  1  0
 15 10  1  0
 22 18  2  0
  1 23  1  0
  1 24  1  0
  1 25  1  0
  2 26  1  0
  2 27  1  0
  4 28  1  0
  4 29  1  0
  5 30  1  0
  5 31  1  0
  5 32  1  0
  6 33  1  0
  6 34  1  0
  7 35  1  0
  7 36  1  0
  8 37  1  0
  8 38  1  0
 11 39  1  0
 12 40  1  0
 13 41  1  0
 14 42  1  0
 17 43  1  0
 17 44  1  0
 17 45  1  0
 19 46  1  0
 20 47  1  0
M  CHG  2   8   1  16   1
M  END
>  <UniqueID>  (3) 
3

>  <SMILES>  (3) 
CCN(CC)CC[NH2+]c1c2ccccc2[n+](C)c2ccsc12

>  <Energy>  (3) 
94.22751429586592

>  <Genealogy>  (3) 
CCN(CC)CC[NH2+]c1c2ccccc2[n+](C)c2ccsc12 (protonated)
CCN(CC)CC[NH2+]c1c2ccccc2[n+](C)c2ccsc12 (3D coordinates assigned)
CCN(CC)CC[NH2+]c1c2ccccc2[n+](C)c2ccsc12 (optimized conformer: 94.22751429586592 kcal/mol)

>  <smiles>  (3) 
CCN(CC)CCNc1c2ccccc2[n+](C)c2ccsc12

>  <score_type>  (3) 
oracle

>  <origin>  (3) 
adg

>  <m_score__min__energy>  (3) 
-7.6600000000000001

>  <m_primary>  (3) 
energy

$$$$
3:0
     RDKit          3D

 35 37  0  0  0  0  0  0  0  0999 V2000
   -9.1670   20.7780  -32.1060 C   0  0  0  0  0  0  0  0  0  0  0  0
   -7.9320   20.6750  -31.2150 C   0  0  0  0  0  0  0  0  0  0  0  0
   -6.7070   20.6380  -32.0230 N   0  0  0  0  0  0  0  0  0  0  0  0
   -5.6980   21.5580  -32.1040 C   0  0  0  0  0  0  0  0  0  0  0  0
   -5.6710   22.8560  -31.3970 C   0  0  0  0  0  0  0  0  0  0  0  0
   -6.8740   23.5360  -31.1540 C   0  0  0  0  0  0  0  0  0  0  0  0
   -6.8690   24.7560  -30.4720 C   0  0  0  0  0  0  0  0  0  0  0  0
   -5.6650   25.2990  -30.0170 C   0  0  0  0  0  0  0  0  0  0  0  0
   -4.4570   24.6250  -30.2290 C   0  0  0  0  0  0  0  0  0  0  0  0
   -3.2760   25.2080  -29.7450 O   0  0  0  0  0  0  0  0  0  0  0  0
   -2.3560   24.5540  -28.8770 C   0  0  0  0  0  0  0  0  0  0  0  0
   -4.4670   23.3940  -30.9130 C   0  0  0  0  0  0  0  0  0  0  0  0
   -4.6500   21.1420  -32.8650 N   0  0  0  0  0  0  0  0  0  0  0  0
   -5.0440   19.9240  -33.2740 C   0  0  0  0  0  0  0  0  0  0  0  0
   -4.3330   19.0650  -34.0480 N   0  0  0  0  0  0  0  0  0  0  0  0
   -4.8650   17.8380  -34.3340 C   0  0  0  0  0  0  0  0  0  0  0  0
   -6.1310   17.4670  -33.8220 C   0  0  0  0  0  0  0  0  0  0  0  0
   -6.8580   15.7460  -34.2140 Br  0  0  0  0  0  0  0  0  0  0  0  0
   -6.8490   18.3680  -33.0150 C   0  0  0  0  0  0  0  0  0  0  0  0
   -6.2660   19.6110  -32.7710 C   0  0  0  0  0  0  0  0  0  0  0  0
  -10.0670   20.8531  -31.4780 H   0  0  0  0  0  0  0  0  0  0  0  0
   -9.0874   21.6726  -32.7411 H   0  0  0  0  0  0  0  0  0  0  0  0
   -9.2367   19.8825  -32.7411 H   0  0  0  0  0  0  0  0  0  0  0  0
   -7.8964   21.5474  -30.5460 H   0  0  0  0  0  0  0  0  0  0  0  0
   -7.9963   19.7457  -30.6299 H   0  0  0  0  0  0  0  0  0  0  0  0
   -7.8253   23.1070  -31.5018 H   0  0  0  0  0  0  0  0  0  0  0  0
   -7.8144   25.2893  -30.2933 H   0  0  0  0  0  0  0  0  0  0  0  0
   -5.6665   26.2635  -29.4881 H   0  0  0  0  0  0  0  0  0  0  0  0
   -2.6344   24.7519  -27.8314 H   0  0  0  0  0  0  0  0  0  0  0  0
   -2.3818   23.4704  -29.0645 H   0  0  0  0  0  0  0  0  0  0  0  0
   -1.3411   24.9345  -29.0645 H   0  0  0  0  0  0  0  0  0  0  0  0
   -3.5242   22.8493  -31.0695 H   0  0  0  0  0  0  0  0  0  0  0  0
   -3.3930   19.3330  -34.4140 H   0  0  0  0  0  0  0  0  0  0  0  0
   -4.3046   17.1341  -34.9668 H   0  0  0  0  0  0  0  0  0  0  0  0
   -7.8300   18.1030  -32.5937 H   0  0  0  0  0  0  0  0  0  0  0  0
  1  2  1  0
  2  3  1  0
  3  4  1  0
  4  5  1  0
  5  6  2  0
  6  7  1  0
  7  8  2  0
  8  9  1  0
  9 10  1  0
 10 11  1  0
  9 12  2  0
  4 13  2  0
 13 14  1  0
 14 15  2  0
 15 16  1  0
 16 17  2  0
 17 18  1  0
 17 19  1  0
 19 20  2  0
 20  3  1  0
 12  5  1  0
 20 14  1  0
  1 21  1  0
  1 22  1  0
  1 23  1  0
  2 24  1  0
  2 25  1  0
  6 26  1  0
  7 27  1  0
  8 28  1  0
 11 29  1  0
 11 30  1  0
 11 31  1  0
 12 32  1  0
 15 33  1  0
 16 34  1  0
 19 35  1  0
M  CHG  1  15   1
M  END
>  <UniqueID>  (4) 
4

>  <SMILES>  (4) 
CCn1c(-c2cccc(OC)c2)nc2[nH+]cc(Br)cc21

>  <Energy>  (4) 
77.49601132541314

>  <Genealogy>  (4) 
CCn1c(-c2cccc(OC)c2)nc2[nH+]cc(Br)cc21 (protonated)
CCn1c(-c2cccc(OC)c2)nc2[nH+]cc(Br)cc21 (3D coordinates assigned)
CCn1c(-c2cccc(OC)c2)nc2[nH+]cc(Br)cc21 (optimized conformer: 77.49601132541314 kcal/mol)

>  <smiles>  (4) 
CCn1c(-c2cccc(OC)c2)nc2ncc(Br)cc21

>  <score_type>  (4) 
oracle

>  <origin>  (4) 
adg

>  <m_score__min__energy>  (4) 
-7.7400000000000002

>  <m_primary>  (4) 
energy

$$$$
4:0
     RDKit          3D

 24 24  0  0  0  0  0  0  0  0999 V2000
   -6.1020   24.6570  -30.5510 C   0  0  0  0  0  0  0  0  0  0  0  0
   -6.5440   23.7360  -31.4120 C   0  0  0  0  0  0  0  0  0  0  0  0
   -6.4470   22.2670  -31.1150 C   0  0  0  0  0  0  0  0  0  0  0  0
   -7.5130   21.5270  -31.7920 N   0  0  0  0  0  0  0  0  0  0  0  0
   -8.8320   21.6140  -31.5310 C   0  0  0  0  0  0  0  0  0  0  0  0
   -9.4950   20.7040  -32.3290 C   0  0  0  0  0  0  0  0  0  0  0  0
   -8.5900   20.0520  -33.0820 N   0  0  0  0  0  0  0  0  0  0  0  0
   -7.3970   20.5790  -32.7480 C   0  0  0  0  0  0  0  0  0  0  0  0
   -5.8410   20.0220  -33.4570 S   0  0  0  0  0  0  0  0  0  0  0  0
   -6.2730   18.2460  -33.4620 C   0  0  0  0  0  0  0  0  0  0  0  0
   -6.6680   17.7550  -32.0760 C   0  0  0  0  0  0  0  0  0  0  0  0
   -6.1870   25.7257  -30.7971 H   0  0  0  0  0  0  0  0  0  0  0  0
   -5.6531   24.3466  -29.5960 H   0  0  0  0  0  0  0  0  0  0  0  0
   -6.9905   24.0620  -32.3630 H   0  0  0  0  0  0  0  0  0  0  0  0
   -5.4724   21.8929  -31.4616 H   0  0  0  0  0  0  0  0  0  0  0  0
   -6.5506   22.1197  -30.0298 H   0  0  0  0  0  0  0  0  0  0  0  0
   -9.3007   22.2947  -30.8051 H   0  0  0  0  0  0  0  0  0  0  0  0
  -10.5824   20.5390  -32.3467 H   0  0  0  0  0  0  0  0  0  0  0  0
   -8.7780   19.2970  -33.7790 H   0  0  0  0  0  0  0  0  0  0  0  0
   -7.1167   18.0870  -34.1497 H   0  0  0  0  0  0  0  0  0  0  0  0
   -5.3868   17.6800  -33.7849 H   0  0  0  0  0  0  0  0  0  0  0  0
   -6.1713   18.3724  -31.3130 H   0  0  0  0  0  0  0  0  0  0  0  0
   -7.7588   17.8319  -31.9568 H   0  0  0  0  0  0  0  0  0  0  0  0
   -6.3592   16.7060  -31.9568 H   0  0  0  0  0  0  0  0  0  0  0  0
  1  2  2  0
  2  3  1  0
  3  4  1  0
  4  5  1  0
  5  6  2  0
  6  7  1  0
  7  8  2  0
  8  9  1  0
  9 10  1  0
 10 11  1  0
  8  4  1  0
  1 12  1  0
  1 13  1  0
  2 14  1  0
  3 15  1  0
  3 16  1  0
  5 17  1  0
  6 18  1  0
  7 19  1  0
 10 20  1  0
 10 21  1  0
 11 22  1  0
 11 23  1  0
 11 24  1  0
M  CHG  1   7   1
M  END
>  <UniqueID>  (5) 
5

>  <SMILES>  (5) 
C=CCn1cc[nH+]c1SCC

>  <Energy>  (5) 
42.66589374133723

>  <Genealogy>  (5) 
C=CCn1cc[nH+]c1SCC (protonated)
C=CCn1cc[nH+]c1SCC (3D coordinates assigned)
C=CCn1cc[nH+]c1SCC (optimized conformer: 42.66589374133723 kcal/mol)

>  <smiles>  (5) 
C=CCn1ccnc1SCC

>  <score_type>  (5) 
oracle

>  <origin>  (5) 
adg

>  <m_score__min__energy>  (5) 
-4.0999999999999996

>  <m_primary>  (5) 
energy

$$$$
5:0
     RDKit          3D

 47 47  0  0  0  0  0  0  0  0999 V2000
   -4.9920   17.7230  -34.9840 C   0  0  0  0  0  0  0  0  0  0  0  0
   -5.7310   18.4160  -34.3310 C   0  0  0  0  0  0  0  0  0  0  0  0
   -6.6240   19.2680  -33.5360 C   0  0  0  0  0  0  0  0  0  0  0  0
   -7.5580   18.4290  -32.7630 N   0  0  0  0  0  0  0  0  0  0  0  0
   -6.8780   17.8490  -31.5930 C   0  0  0  0  0  0  0  0  0  0  0  0
   -8.7600   19.1850  -32.3440 C   0  0  0  0  0  0  0  0  0  0  0  0
   -8.3430   20.3320  -31.5350 C   0  0  0  0  0  0  0  0  0  0  0  0
   -8.0380   21.3070  -30.8970 C   0  0  0  0  0  0  0  0  0  0  0  0
   -7.6410   22.4640  -30.0840 C   0  0  0  0  0  0  0  0  0  0  0  0
   -6.8350   23.4370  -30.8630 N   0  0  1  0  0  0  0  0  0  0  0  0
   -7.3250   23.4590  -32.2540 C   0  0  0  0  0  0  0  0  0  0  0  0
   -6.8900   24.8110  -30.2850 C   0  0  0  0  0  0  0  0  0  0  0  0
   -5.5010   25.4910  -30.1970 C   0  0  0  0  0  0  0  0  0  0  0  0
   -4.5420   24.8690  -31.1230 N   0  0  0  0  0  0  0  0  0  0  0  0
   -3.6210   23.9360  -30.4510 C   0  0  0  0  0  0  0  0  0  0  0  0
   -3.3830   22.6810  -31.2590 C   0  0  0  0  0  0  0  0  0  0  0  0
   -2.3220   21.8200  -30.9330 C   0  0  0  0  0  0  0  0  0  0  0  0
   -2.1140   20.6470  -31.6660 C   0  0  0  0  0  0  0  0  0  0  0  0
   -2.9600   20.3270  -32.7320 C   0  0  0  0  0  0  0  0  0  0  0  0
   -4.0110   21.1830  -33.0690 C   0  0  0  0  0  0  0  0  0  0  0  0
   -4.2250   22.3550  -32.3380 C   0  0  0  0  0  0  0  0  0  0  0  0
   -4.3176   17.0905  -35.5799 H   0  0  0  0  0  0  0  0  0  0  0  0
   -6.0254   19.8798  -32.8451 H   0  0  0  0  0  0  0  0  0  0  0  0
   -7.1965   19.9224  -34.2099 H   0  0  0  0  0  0  0  0  0  0  0  0
   -7.3357   18.2394  -30.6721 H   0  0  0  0  0  0  0  0  0  0  0  0
   -6.9780   16.7538  -31.6164 H   0  0  0  0  0  0  0  0  0  0  0  0
   -5.8123   18.1205  -31.6164 H   0  0  0  0  0  0  0  0  0  0  0  0
   -9.3021   19.5385  -33.2335 H   0  0  0  0  0  0  0  0  0  0  0  0
   -9.4215   18.5342  -31.7534 H   0  0  0  0  0  0  0  0  0  0  0  0
   -8.5469   22.9672  -29.7151 H   0  0  0  0  0  0  0  0  0  0  0  0
   -7.0230   22.0991  -29.2504 H   0  0  0  0  0  0  0  0  0  0  0  0
   -5.8450   23.0990  -30.9030 H   0  0  0  0  0  0  0  0  0  0  0  0
   -8.4239   23.5083  -32.2549 H   0  0  0  0  0  0  0  0  0  0  0  0
   -6.9180   24.3398  -32.7722 H   0  0  0  0  0  0  0  0  0  0  0  0
   -6.9986   22.5453  -32.7722 H   0  0  0  0  0  0  0  0  0  0  0  0
   -7.5433   25.4305  -30.9170 H   0  0  0  0  0  0  0  0  0  0  0  0
   -7.2751   24.7192  -29.2587 H   0  0  0  0  0  0  0  0  0  0  0  0
   -5.6065   26.5558  -30.4521 H   0  0  0  0  0  0  0  0  0  0  0  0
   -5.1206   25.3724  -29.1717 H   0  0  0  0  0  0  0  0  0  0  0  0
   -3.9860   25.6240  -31.5890 H   0  0  0  0  0  0  0  0  0  0  0  0
   -2.6575   24.4427  -30.2930 H   0  0  0  0  0  0  0  0  0  0  0  0
   -4.0808   23.6390  -29.4968 H   0  0  0  0  0  0  0  0  0  0  0  0
   -1.6516   22.0694  -30.0973 H   0  0  0  0  0  0  0  0  0  0  0  0
   -1.2835   19.9753  -31.4033 H   0  0  0  0  0  0  0  0  0  0  0  0
   -2.7981   19.4020  -33.3048 H   0  0  0  0  0  0  0  0  0  0  0  0
   -4.6722   20.9341  -33.9121 H   0  0  0  0  0  0  0  0  0  0  0  0
   -5.0548   23.0250  -32.6073 H   0  0  0  0  0  0  0  0  0  0  0  0
  1  2  3  0
  2  3  1  0
  3  4  1  0
  4  5  1  0
  4  6  1  0
  6  7  1  0
  7  8  3  0
  8  9  1  0
  9 10  1  0
 10 11  1  0
 10 12  1  0
 12 13  1  0
 13 14  1  0
 14 15  1  0
 15 16  1  0
 16 17  2  0
 17 18  1  0
 18 19  2  0
 19 20  1  0
 20 21  2  0
 21 16  1  0
  1 22  1  0
  3 23  1  0
  3 24  1  0
  5 25  1  0
  5 26  1  0
  5 27  1  0
  6 28  1  0
  6 29  1  0
  9 30  1  0
  9 31  1  0
 10 32  1  6
 11 33  1  0
 11 34  1  0
 11 35  1  0
 12 36  1  0
 12 37  1  0
 13 38  1  0
 13 39  1  0
 14 40  1  0
 15 41  1  0
 15 42  1  0
 17 43  1  0
 18 44  1  0
 19 45  1  0
 20 46  1  0
 21 47  1  0
M  CHG  1  10   1
M  END
>  <UniqueID>  (6) 
6

>  <SMILES>  (6) 
C#CCN(C)CC#CC[N@@H+](C)CCNCc1ccccc1

>  <Energy>  (6) 
39.92675079377279

>  <Genealogy>  (6) 
C#CCN(C)CC#CC[NH+](C)CCNCc1ccccc1 (protonated)
C#CCN(C)CC#CC[N@@H+](C)CCNCc1ccccc1 (chirality)
C#CCN(C)CC#CC[N@@H+](C)CCNCc1ccccc1 (3D coordinates assigned)
C#CCN(C)CC#CC[N@@H+](C)CCNCc1ccccc1 (optimized conformer: 39.92675079377279 kcal/mol)

>  <smiles>  (6) 
C#CCN(C)CC#CCN(C)CCNCc1ccccc1

>  <score_type>  (6) 
oracle

>  <origin>  (6) 
adg

>  <m_score__min__energy>  (6) 
-5.6399999999999997

>  <m_primary>  (6) 
energy

$$$$
6:0
     RDKit          3D

 47 48  0  0  0  0  0  0  0  0999 V2000
   -6.2910   25.5620  -29.6480 C   0  0  0  0  0  0  0  0  0  0  0  0
   -5.0090   25.2990  -30.4370 C   0  0  0  0  0  0  0  0  0  0  0  0
   -3.9900   24.6050  -29.6110 N   0  0  0  0  0  0  0  0  0  0  0  0
   -4.5310   24.0160  -28.3610 C   0  0  0  0  0  0  0  0  0  0  0  0
   -3.8590   24.5280  -27.0790 C   0  0  0  0  0  0  0  0  0  0  0  0
   -3.2190   23.6220  -30.4060 C   0  0  0  0  0  0  0  0  0  0  0  0
   -2.6330   22.5260  -29.5080 C   0  0  0  0  0  0  0  0  0  0  0  0
   -3.0740   20.8500  -30.1000 S   0  0  0  0  0  0  0  0  0  0  0  0
   -1.7850   20.7510  -31.3530 C   0  0  0  0  0  0  0  0  0  0  0  0
   -0.6590   19.8810  -31.1350 S   0  0  0  0  0  0  0  0  0  0  0  0
   -1.9210   21.5290  -32.6370 C   0  0  0  0  0  0  0  0  0  0  0  0
   -2.6590   20.7630  -33.6530 N   0  0  0  0  0  0  0  0  0  0  0  0
   -4.0520   20.6790  -33.2860 C   0  0  0  0  0  0  0  0  0  0  0  0
   -4.7370   19.4580  -33.3830 C   0  0  0  0  0  0  0  0  0  0  0  0
   -6.0760   19.3610  -32.9980 C   0  0  0  0  0  0  0  0  0  0  0  0
   -6.7590   20.4830  -32.4940 C   0  0  0  0  0  0  0  0  0  0  0  0
   -8.1130   20.4140  -32.0950 C   0  0  0  0  0  0  0  0  0  0  0  0
   -9.0530   18.9260  -32.2040 Cl  0  0  0  0  0  0  0  0  0  0  0  0
   -8.7510   21.5550  -31.5950 C   0  0  0  0  0  0  0  0  0  0  0  0
   -8.0610   22.7620  -31.4860 C   0  0  0  0  0  0  0  0  0  0  0  0
   -6.7240   22.8460  -31.8760 C   0  0  0  0  0  0  0  0  0  0  0  0
   -6.0640   21.7150  -32.3800 C   0  0  0  0  0  0  0  0  0  0  0  0
   -4.7190   21.8020  -32.7730 C   0  0  0  0  0  0  0  0  0  0  0  0
   -6.0741   25.5175  -28.5705 H   0  0  0  0  0  0  0  0  0  0  0  0
   -6.6804   26.5587  -29.9028 H   0  0  0  0  0  0  0  0  0  0  0  0
   -7.0414   24.7991  -29.9028 H   0  0  0  0  0  0  0  0  0  0  0  0
   -5.2488   24.6722  -31.3086 H   0  0  0  0  0  0  0  0  0  0  0  0
   -4.5943   26.2682  -30.7512 H   0  0  0  0  0  0  0  0  0  0  0  0
   -5.6040   24.2517  -28.3053 H   0  0  0  0  0  0  0  0  0  0  0  0
   -4.3328   22.9351  -28.4105 H   0  0  0  0  0  0  0  0  0  0  0  0
   -4.3873   24.1255  -26.2022 H   0  0  0  0  0  0  0  0  0  0  0  0
   -2.8098   24.1983  -27.0582 H   0  0  0  0  0  0  0  0  0  0  0  0
   -3.8984   25.6271  -27.0582 H   0  0  0  0  0  0  0  0  0  0  0  0
   -3.8847   23.1597  -31.1497 H   0  0  0  0  0  0  0  0  0  0  0  0
   -2.3903   24.1471  -30.9035 H   0  0  0  0  0  0  0  0  0  0  0  0
   -1.5373   22.6227  -29.4977 H   0  0  0  0  0  0  0  0  0  0  0  0
   -3.0516   22.6522  -28.4986 H   0  0  0  0  0  0  0  0  0  0  0  0
   -2.4609   22.4654  -32.4326 H   0  0  0  0  0  0  0  0  0  0  0  0
   -0.9127   21.7364  -33.0246 H   0  0  0  0  0  0  0  0  0  0  0  0
   -2.5700   21.2260  -34.5870 H   0  0  0  0  0  0  0  0  0  0  0  0
   -2.2560   19.7990  -33.7290 H   0  0  0  0  0  0  0  0  0  0  0  0
   -4.2144   18.5690  -33.7659 H   0  0  0  0  0  0  0  0  0  0  0  0
   -6.6012   18.3989  -33.0896 H   0  0  0  0  0  0  0  0  0  0  0  0
   -9.8051   21.4993  -31.2855 H   0  0  0  0  0  0  0  0  0  0  0  0
   -8.5731   23.6517  -31.0908 H   0  0  0  0  0  0  0  0  0  0  0  0
   -6.1859   23.8014  -31.7881 H   0  0  0  0  0  0  0  0  0  0  0  0
   -4.1837   22.7582  -32.6780 H   0  0  0  0  0  0  0  0  0  0  0  0
  1  2  1  0
  2  3  1  0
  3  4  1  0
  4  5  1  0
  3  6  1  0
  6  7  1  0
  7  8  1  0
  8  9  1  0
  9 10  2  0
  9 11  1  0
 11 12  1  0
 12 13  1  0
 13 14  2  0
 14 15  1  0
 15 16  2  0
 16 17  1  0
 17 18  1  0
 17 19  2  0
 19 20  1  0
 20 21  2  0
 21 22  1  0
 22 23  2  0
 23 13  1  0
 22 16  1  0
  1 24  1  0
  1 25  1  0
  1 26  1  0
  2 27  1  0
  2 28  1  0
  4 29  1  0
  4 30  1  0
  5 31  1  0
  5 32  1  0
  5 33  1  0
  6 34  1  0
  6 35  1  0
  7 36  1  0
  7 37  1  0
 11 38  1  0
 11 39  1  0
 12 40  1  0
 12 41  1  0
 14 42  1  0
 15 43  1  0
 19 44  1  0
 20 45  1  0
 21 46  1  0
 23 47  1  0
M  CHG  1  12   1
M  END
>  <UniqueID>  (7) 
7

>  <SMILES>  (7) 
CCN(CC)CCSC(=S)C[NH2+]c1ccc2c(Cl)cccc2c1

>  <Energy>  (7) 
46.947777190174556

>  <Genealogy>  (7) 
CCN(CC)CCSC(=S)C[NH2+]c1ccc2c(Cl)cccc2c1 (protonated)
CCN(CC)CCSC(=S)C[NH2+]c1ccc2c(Cl)cccc2c1 (3D coordinates assigned)
CCN(CC)CCSC(=S)C[NH2+]c1ccc2c(Cl)cccc2c1 (optimized conformer: 46.947777190174556 kcal/mol)

>  <smiles>  (7) 
CCN(CC)CCSC(=S)CNc1ccc2c(Cl)cccc2c1

>  <score_type>  (7) 
oracle

>  <origin>  (7) 
adg

>  <m_score__min__energy>  (7) 
-7.6100000000000003

>  <m_primary>  (7) 
energy

$$$$
7:0
     RDKit          3D

 68 70  0  0  0  0  0  0  0  0999 V2000
   -0.8450   27.9230  -25.2560 C   0  0  0  0  0  0  0  0  0  0  0  0
   -0.6900   27.4300  -26.6990 C   0  0  0  0  0  0  0  0  0  0  0  0
   -1.3150   26.1030  -26.9440 N   0  0  0  0  0  0  0  0  0  0  0  0
   -1.6160   25.4550  -25.6400 C   0  0  0  0  0  0  0  0  0  0  0  0
   -0.5920   24.3850  -25.2430 C   0  0  0  0  0  0  0  0  0  0  0  0
   -0.5330   25.2360  -27.8720 C   0  0  0  0  0  0  0  0  0  0  0  0
   -1.3770   24.4400  -28.8880 C   0  0  0  0  0  0  0  0  0  0  0  0
   -2.6360   25.0650  -29.0570 O   0  0  0  0  0  0  0  0  0  0  0  0
   -3.6010   24.5420  -28.1610 C   0  0  0  0  0  0  0  0  0  0  0  0
   -4.3270   23.3330  -28.7710 C   0  0  0  0  0  0  0  0  0  0  0  0
   -4.8640   23.5740  -30.1990 C   0  0  0  0  0  0  0  0  0  0  0  0
   -3.8150   23.6940  -31.2230 N   0  0  0  0  0  0  0  0  0  0  0  0
   -2.8800   22.5610  -31.2150 C   0  0  0  0  0  0  0  0  0  0  0  0
   -3.1830   21.6240  -32.3840 C   0  0  0  0  0  0  0  0  0  0  0  0
   -4.4750   21.9390  -32.9920 N   0  0  0  0  0  0  0  0  0  0  0  0
   -5.5940   21.0410  -32.8960 C   0  0  0  0  0  0  0  0  0  0  0  0
   -6.8540   21.5220  -32.5020 C   0  0  0  0  0  0  0  0  0  0  0  0
   -7.0710   22.9010  -32.3020 C   0  0  0  0  0  0  0  0  0  0  0  0
   -8.3250   23.3780  -31.9330 C   0  0  0  0  0  0  0  0  0  0  0  0
   -9.3870   22.4950  -31.7790 C   0  0  0  0  0  0  0  0  0  0  0  0
   -9.1970   21.1270  -31.9700 C   0  0  0  0  0  0  0  0  0  0  0  0
   -7.9210   20.6050  -32.3040 C   0  0  0  0  0  0  0  0  0  0  0  0
   -7.7050   19.2470  -32.4490 N   0  0  0  0  0  0  0  0  0  0  0  0
   -8.7170   18.2800  -31.9710 C   0  0  0  0  0  0  0  0  0  0  0  0
   -6.5370   18.7930  -33.0350 C   0  0  0  0  0  0  0  0  0  0  0  0
   -6.3900   17.4490  -33.4640 C   0  0  0  0  0  0  0  0  0  0  0  0
   -5.1960   17.0010  -34.0320 C   0  0  0  0  0  0  0  0  0  0  0  0
   -4.1320   17.8780  -34.2070 C   0  0  0  0  0  0  0  0  0  0  0  0
   -4.2580   19.2120  -33.8290 C   0  0  0  0  0  0  0  0  0  0  0  0
   -5.4510   19.6860  -33.2420 C   0  0  0  0  0  0  0  0  0  0  0  0
   -0.5892   27.1095  -24.5611 H   0  0  0  0  0  0  0  0  0  0  0  0
   -0.1717   28.7760  -25.0856 H   0  0  0  0  0  0  0  0  0  0  0  0
   -1.8853   28.2373  -25.0856 H   0  0  0  0  0  0  0  0  0  0  0  0
   -1.1590   28.1647  -27.3700 H   0  0  0  0  0  0  0  0  0  0  0  0
    0.3879   27.3194  -26.8886 H   0  0  0  0  0  0  0  0  0  0  0  0
   -2.2360   26.2870  -27.4080 H   0  0  0  0  0  0  0  0  0  0  0  0
   -1.6306   26.2305  -24.8600 H   0  0  0  0  0  0  0  0  0  0  0  0
   -2.5888   24.9521  -25.7433 H   0  0  0  0  0  0  0  0  0  0  0  0
   -0.5328   24.3231  -24.1463 H   0  0  0  0  0  0  0  0  0  0  0  0
   -0.9032   23.4111  -25.6489 H   0  0  0  0  0  0  0  0  0  0  0  0
    0.3946   24.6531  -25.6489 H   0  0  0  0  0  0  0  0  0  0  0  0
    0.1618   25.8774  -28.4340 H   0  0  0  0  0  0  0  0  0  0  0  0
   -0.0267   24.4899  -27.2419 H   0  0  0  0  0  0  0  0  0  0  0  0
   -0.8520   24.4083  -29.8541 H   0  0  0  0  0  0  0  0  0  0  0  0
   -1.5261   23.4161  -28.5145 H   0  0  0  0  0  0  0  0  0  0  0  0
   -3.0978   24.2285  -27.2345 H   0  0  0  0  0  0  0  0  0  0  0  0
   -4.3439   25.3259  -27.9523 H   0  0  0  0  0  0  0  0  0  0  0  0
   -3.6231   22.4884  -28.8047 H   0  0  0  0  0  0  0  0  0  0  0  0
   -5.2007   23.1330  -28.1333 H   0  0  0  0  0  0  0  0  0  0  0  0
   -5.5161   22.7305  -30.4697 H   0  0  0  0  0  0  0  0  0  0  0  0
   -5.3987   24.5351  -30.1787 H   0  0  0  0  0  0  0  0  0  0  0  0
   -3.2880   24.5900  -31.1000 H   0  0  0  0  0  0  0  0  0  0  0  0
   -1.8507   22.9377  -31.3076 H   0  0  0  0  0  0  0  0  0  0  0  0
   -2.9917   22.0077  -30.2708 H   0  0  0  0  0  0  0  0  0  0  0  0
   -2.3938   21.7300  -33.1429 H   0  0  0  0  0  0  0  0  0  0  0  0
   -3.2188   20.5924  -32.0038 H   0  0  0  0  0  0  0  0  0  0  0  0
   -4.6050   22.8620  -33.4640 H   0  0  0  0  0  0  0  0  0  0  0  0
   -6.2393   23.6077  -32.4393 H   0  0  0  0  0  0  0  0  0  0  0  0
   -8.4757   24.4543  -31.7632 H   0  0  0  0  0  0  0  0  0  0  0  0
  -10.3816   22.8769  -31.5053 H   0  0  0  0  0  0  0  0  0  0  0  0
  -10.0502   20.4415  -31.8599 H   0  0  0  0  0  0  0  0  0  0  0  0
   -8.7256   18.2718  -30.8711 H   0  0  0  0  0  0  0  0  0  0  0  0
   -9.7095   18.5739  -32.3432 H   0  0  0  0  0  0  0  0  0  0  0  0
   -8.4686   17.2752  -32.3432 H   0  0  0  0  0  0  0  0  0  0  0  0
   -7.2301   16.7486  -33.3473 H   0  0  0  0  0  0  0  0  0  0  0  0
   -5.0969   15.9503  -34.3421 H   0  0  0  0  0  0  0  0  0  0  0  0
   -3.1893   17.5177  -34.6446 H   0  0  0  0  0  0  0  0  0  0  0  0
   -3.4185   19.9044  -33.9896 H   0  0  0  0  0  0  0  0  0  0  0  0
  1  2  1  0
  2  3  1  0
  3  4  1  0
  4  5  1  0
  3  6  1  0
  6  7  1  0
  7  8  1  0
  8  9  1  0
  9 10  1  0
 10 11  1  0
 11 12  1  0
 12 13  1  0
 13 14  1  0
 14 15  1  0
 15 16  1  0
 16 17  2  0
 17 18  1  0
 18 19  2  0
 19 20  1  0
 20 21  2  0
 21 22  1  0
 22 23  2  0
 23 24  1  0
 23 25  1  0
 25 26  2  0
 26 27  1  0
 27 28  2  0
 28 29  1  0
 29 30  2  0
 30 16  1  0
 22 17  1  0
 30 25  1  0
  1 31  1  0
  1 32  1  0
  1 33  1  0
  2 34  1  0
  2 35  1  0
  3 36  1  0
  4 37  1  0
  4 38  1  0
  5 39  1  0
  5 40  1  0
  5 41  1  0
  6 42  1  0
  6 43  1  0
  7 44  1  0
  7 45  1  0
  9 46  1  0
  9 47  1  0
 10 48  1  0
 10 49  1  0
 11 50  1  0
 11 51  1  0
 12 52  1  0
 13 53  1  0
 13 54  1  0
 14 55  1  0
 14 56  1  0
 15 57  1  0
 18 58  1  0
 19 59  1  0
 20 60  1  0
 21 61  1  0
 24 62  1  0
 24 63  1  0
 24 64  1  0
 26 65  1  0
 27 66  1  0
 28 67  1  0
 29 68  1  0
M  CHG  2   3   1  23   1
M  END
>  <UniqueID>  (8) 
8

>  <SMILES>  (8) 
CC[NH+](CC)CCOCCCNCCNc1c2ccccc2[n+](C)c2ccccc12

>  <Energy>  (8) 
95.62708957114232

>  <Genealogy>  (8) 
CC[NH+](CC)CCOCCCNCCNc1c2ccccc2[n+](C)c2ccccc12 (protonated)
CC[NH+](CC)CCOCCCNCCNc1c2ccccc2[n+](C)c2ccccc12 (3D coordinates assigned)
CC[NH+](CC)CCOCCCNCCNc1c2ccccc2[n+](C)c2ccccc12 (optimized conformer: 95.62708957114232 kcal/mol)

>  <smiles>  (8) 
CCN(CC)CCOCCCNCCNc1c2ccccc2[n+](C)c2ccccc12

>  <score_type>  (8) 
oracle

>  <origin>  (8) 
adg

>  <m_score__min__energy>  (8) 
-10.140000000000001

>  <m_primary>  (8) 
energy

$$$$
8:0
     RDKit          3D

 55 58  0  0  0  0  0  0  0  0999 V2000
   -2.1720   15.7410  -35.7060 C   0  0  0  0  0  0  0  0  0  0  0  0
   -2.4150   17.0820  -35.2890 O   0  0  0  0  0  0  0  0  0  0  0  0
   -3.5860   17.5180  -34.6450 C   0  0  0  0  0  0  0  0  0  0  0  0
   -4.7360   16.7080  -34.5700 C   0  0  0  0  0  0  0  0  0  0  0  0
   -5.8920   17.1770  -33.9440 C   0  0  0  0  0  0  0  0  0  0  0  0
   -5.9250   18.4600  -33.3830 C   0  0  0  0  0  0  0  0  0  0  0  0
   -7.1170   18.9440  -32.7440 N   0  0  0  0  0  0  0  0  0  0  0  0
   -8.1240   18.1770  -32.2620 C   0  0  0  0  0  0  0  0  0  0  0  0
   -9.1210   18.9700  -31.7080 C   0  0  0  0  0  0  0  0  0  0  0  0
   -8.6780   20.2630  -31.8580 C   0  0  0  0  0  0  0  0  0  0  0  0
   -9.2570   21.4610  -31.4610 C   0  0  0  0  0  0  0  0  0  0  0  0
   -8.5490   22.6460  -31.7170 C   0  0  0  0  0  0  0  0  0  0  0  0
   -7.2880   22.6060  -32.3480 C   0  0  0  0  0  0  0  0  0  0  0  0
   -6.7260   21.3820  -32.7360 C   0  0  0  0  0  0  0  0  0  0  0  0
   -7.4600   20.2190  -32.4860 C   0  0  0  0  0  0  0  0  0  0  0  0
   -4.7790   19.2660  -33.4390 C   0  0  0  0  0  0  0  0  0  0  0  0
   -3.6090   18.8050  -34.0670 C   0  0  0  0  0  0  0  0  0  0  0  0
   -2.4190   19.7230  -34.1930 C   0  0  0  0  0  0  0  0  0  0  0  0
   -2.6980   20.9930  -33.5040 N   0  0  0  0  0  0  0  0  0  0  0  0
   -1.5880   21.3910  -32.6270 C   0  0  0  0  0  0  0  0  0  0  0  0
   -2.0790   21.5220  -31.1690 C   0  0  0  0  0  0  0  0  0  0  0  0
   -2.7450   22.8110  -30.8690 N   0  0  0  0  0  0  0  0  0  0  0  0
   -2.2000   23.4870  -29.6670 C   0  0  0  0  0  0  0  0  0  0  0  0
   -3.1690   24.5440  -29.1100 C   0  0  0  0  0  0  0  0  0  0  0  0
   -3.9200   25.1330  -30.2210 N   0  0  0  0  0  0  0  0  0  0  0  0
   -4.8250   24.1560  -30.8410 C   0  0  0  0  0  0  0  0  0  0  0  0
   -4.2190   22.7350  -30.8720 C   0  0  0  0  0  0  0  0  0  0  0  0
   -2.0554   15.0974  -34.8216 H   0  0  0  0  0  0  0  0  0  0  0  0
   -3.0203   15.3851  -36.3091 H   0  0  0  0  0  0  0  0  0  0  0  0
   -1.2528   15.7054  -36.3091 H   0  0  0  0  0  0  0  0  0  0  0  0
   -4.7229   15.6989  -35.0078 H   0  0  0  0  0  0  0  0  0  0  0  0
   -6.7833   16.5346  -33.8909 H   0  0  0  0  0  0  0  0  0  0  0  0
   -8.1489   17.0781  -32.3035 H   0  0  0  0  0  0  0  0  0  0  0  0
  -10.0626   18.6354  -31.2481 H   0  0  0  0  0  0  0  0  0  0  0  0
  -10.2374   21.4809  -30.9627 H   0  0  0  0  0  0  0  0  0  0  0  0
   -8.9813   23.6139  -31.4230 H   0  0  0  0  0  0  0  0  0  0  0  0
   -6.7419   23.5420  -32.5369 H   0  0  0  0  0  0  0  0  0  0  0  0
   -5.7398   21.3381  -33.2213 H   0  0  0  0  0  0  0  0  0  0  0  0
   -4.7957   20.2688  -32.9871 H   0  0  0  0  0  0  0  0  0  0  0  0
   -1.5389   19.2455  -33.7377 H   0  0  0  0  0  0  0  0  0  0  0  0
   -2.2224   19.9210  -35.2570 H   0  0  0  0  0  0  0  0  0  0  0  0
   -2.8030   21.7360  -34.2360 H   0  0  0  0  0  0  0  0  0  0  0  0
   -0.7955   20.6298  -32.6762 H   0  0  0  0  0  0  0  0  0  0  0  0
   -1.1973   22.3631  -32.9622 H   0  0  0  0  0  0  0  0  0  0  0  0
   -2.7935   20.7095  -30.9707 H   0  0  0  0  0  0  0  0  0  0  0  0
   -1.1869   21.4688  -30.5277 H   0  0  0  0  0  0  0  0  0  0  0  0
   -2.0130   22.7319  -28.8892 H   0  0  0  0  0  0  0  0  0  0  0  0
   -1.2704   23.9984  -29.9574 H   0  0  0  0  0  0  0  0  0  0  0  0
   -3.8662   24.0697  -28.4036 H   0  0  0  0  0  0  0  0  0  0  0  0
   -2.6031   25.3283  -28.5860 H   0  0  0  0  0  0  0  0  0  0  0  0
   -4.4840   25.9350  -29.8560 H   0  0  0  0  0  0  0  0  0  0  0  0
   -5.7630   24.1284  -30.2671 H   0  0  0  0  0  0  0  0  0  0  0  0
   -5.0000   24.4707  -31.8804 H   0  0  0  0  0  0  0  0  0  0  0  0
   -4.5561   22.1765  -29.9863 H   0  0  0  0  0  0  0  0  0  0  0  0
   -4.5508   22.2224  -31.7870 H   0  0  0  0  0  0  0  0  0  0  0  0
  1  2  1  0
  2  3  1  0
  3  4  2  0
  4  5  1  0
  5  6  2  0
  6  7  1  0
  7  8  1  0
  8  9  2  0
  9 10  1  0
 10 11  2  0
 11 12  1  0
 12 13  2  0
 13 14  1  0
 14 15  2  0
  6 16  1  0
 16 17  2  0
 17 18  1  0
 18 19  1  0
 19 20  1  0
 20 21  1  0
 21 22  1  0
 22 23  1  0
 23 24  1  0
 24 25  1  0
 25 26  1  0
 26 27  1  0
 17  3  1  0
 27 22  1  0
 15  7  1  0
 15 10  1  0
  1 28  1  0
  1 29  1  0
  1 30  1  0
  4 31  1  0
  5 32  1  0
  8 33  1  0
  9 34  1  0
 11 35  1  0
 12 36  1  0
 13 37  1  0
 14 38  1  0
 16 39  1  0
 18 40  1  0
 18 41  1  0
 19 42  1  0
 20 43  1  0
 20 44  1  0
 21 45  1  0
 21 46  1  0
 23 47  1  0
 23 48  1  0
 24 49  1  0
 24 50  1  0
 25 51  1  0
 26 52  1  0
 26 53  1  0
 27 54  1  0
 27 55  1  0
M  END
>  <UniqueID>  (9) 
9

>  <SMILES>  (9) 
COc1ccc(-n2ccc3ccccc32)cc1CNCCN1CCNCC1

>  <Energy>  (9) 
105.60939120060779

>  <Genealogy>  (9) 
COc1ccc(-n2ccc3ccccc32)cc1CNCCN1CCNCC1 (3D coordinates assigned)
COc1ccc(-n2ccc3ccccc32)cc1CNCCN1CCNCC1 (nonaromatic ring conformer: 105.60939120060779 kcal/mol)

>  <smiles>  (9) 
COc1ccc(-n2ccc3ccccc32)cc1CNCCN1CCNCC1

>  <score_type>  (9) 
oracle

>  <origin>  (9) 
adg

>  <m_score__min__energy>  (9) 
-9.5

>  <m_primary>  (9) 
energy

$$$$
9:0
     RDKit          3D

 45 47  0  0  0  0  0  0  0  0999 V2000
   -4.4990   20.5790  -31.2570 C   0  0  0  0  0  0  0  0  0  0  0  0
   -4.6090   21.7960  -32.0670 N   0  0  0  0  0  0  0  0  0  0  0  0
   -3.8620   21.8870  -33.3260 C   0  0  0  0  0  0  0  0  0  0  0  0
   -2.6670   20.9730  -33.2960 C   0  0  0  0  0  0  0  0  0  0  0  0
   -2.7500   19.6920  -33.8570 C   0  0  0  0  0  0  0  0  0  0  0  0
   -1.6440   18.8410  -33.7950 C   0  0  0  0  0  0  0  0  0  0  0  0
   -0.5000   19.2530  -33.1860 N   0  0  0  0  0  0  0  0  0  0  0  0
   -0.3960   20.4860  -32.6260 C   0  0  0  0  0  0  0  0  0  0  0  0
   -1.4780   21.3690  -32.6660 C   0  0  0  0  0  0  0  0  0  0  0  0
   -5.0960   22.9980  -31.4520 C   0  0  0  0  0  0  0  0  0  0  0  0
   -4.2070   23.8390  -30.8550 N   0  0  0  0  0  0  0  0  0  0  0  0
   -4.5980   24.9700  -30.2150 C   0  0  0  0  0  0  0  0  0  0  0  0
   -5.9510   25.2950  -30.1410 C   0  0  0  0  0  0  0  0  0  0  0  0
   -6.8900   24.4620  -30.7480 C   0  0  0  0  0  0  0  0  0  0  0  0
   -6.4760   23.3030  -31.4330 C   0  0  0  0  0  0  0  0  0  0  0  0
   -7.4200   22.4610  -32.1310 N   0  0  0  0  0  0  0  0  0  0  0  0
   -8.6630   21.9450  -31.5550 C   0  0  0  0  0  0  0  0  0  0  0  0
   -9.1580   20.7080  -32.3130 C   0  0  0  0  0  0  0  0  0  0  0  0
   -8.0300   19.7670  -32.6250 C   0  0  0  0  0  0  0  0  0  0  0  0
   -7.8830   18.5620  -31.9220 C   0  0  0  0  0  0  0  0  0  0  0  0
   -6.8310   17.7030  -32.2460 C   0  0  0  0  0  0  0  0  0  0  0  0
   -5.9480   18.0430  -33.2720 C   0  0  0  0  0  0  0  0  0  0  0  0
   -6.1320   19.2440  -33.9610 C   0  0  0  0  0  0  0  0  0  0  0  0
   -7.1580   20.0710  -33.6270 N   0  0  0  0  0  0  0  0  0  0  0  0
   -4.5231   20.8453  -30.1900 H   0  0  0  0  0  0  0  0  0  0  0  0
   -5.3402   19.9084  -31.4866 H   0  0  0  0  0  0  0  0  0  0  0  0
   -3.5512   20.0701  -31.4866 H   0  0  0  0  0  0  0  0  0  0  0  0
   -4.5193   21.5966  -34.1589 H   0  0  0  0  0  0  0  0  0  0  0  0
   -3.5153   22.9222  -33.4603 H   0  0  0  0  0  0  0  0  0  0  0  0
   -3.6791   19.3588  -34.3426 H   0  0  0  0  0  0  0  0  0  0  0  0
   -1.6985   17.8362  -34.2394 H   0  0  0  0  0  0  0  0  0  0  0  0
    0.5426   20.7902  -32.1397 H   0  0  0  0  0  0  0  0  0  0  0  0
   -1.3982   22.3657  -32.2076 H   0  0  0  0  0  0  0  0  0  0  0  0
   -3.8475   25.6297  -29.7550 H   0  0  0  0  0  0  0  0  0  0  0  0
   -6.2755   26.2010  -29.6082 H   0  0  0  0  0  0  0  0  0  0  0  0
   -7.9599   24.7113  -30.6916 H   0  0  0  0  0  0  0  0  0  0  0  0
   -7.2150   22.1740  -33.1140 H   0  0  0  0  0  0  0  0  0  0  0  0
   -8.4850   21.6735  -30.5040 H   0  0  0  0  0  0  0  0  0  0  0  0
   -9.4315   22.7284  -31.6304 H   0  0  0  0  0  0  0  0  0  0  0  0
   -9.9009   20.1831  -31.6945 H   0  0  0  0  0  0  0  0  0  0  0  0
   -9.6038   21.0399  -33.2623 H   0  0  0  0  0  0  0  0  0  0  0  0
   -8.5903   18.2962  -31.1226 H   0  0  0  0  0  0  0  0  0  0  0  0
   -6.6985   16.7608  -31.6941 H   0  0  0  0  0  0  0  0  0  0  0  0
   -5.1165   17.3727  -33.5351 H   0  0  0  0  0  0  0  0  0  0  0  0
   -5.4458   19.5210  -34.7749 H   0  0  0  0  0  0  0  0  0  0  0  0
  1  2  1  0
  2  3  1  0
  3  4  1  0
  4  5  2  0
  5  6  1  0
  6  7  2  0
  7  8  1  0
  8  9  2  0
  2 10  1  0
 10 11  2  0
 11 12  1  0
 12 13  2  0
 13 14  1  0
 14 15  2  0
 15 16  1  0
 16 17  1  0
 17 18  1  0
 18 19  1  0
 19 20  2  0
 20 21  1  0
 21 22  2  0
 22 23  1  0
 23 24  2  0
  9  4  1  0
 15 10  1  0
 24 19  1  0
  1 25  1  0
  1 26  1  0
  1 27  1  0
  3 28  1  0
  3 29  1  0
  5 30  1  0
  6 31  1  0
  8 32  1  0
  9 33  1  0
 12 34  1  0
 13 35  1  0
 14 36  1  0
 16 37  1  0
 17 38  1  0
 17 39  1  0
 18 40  1  0
 18 41  1  0
 20 42  1  0
 21 43  1  0
 22 44  1  0
 23 45  1  0
M  END
>  <UniqueID>  (10) 
10

>  <SMILES>  (10) 
CN(Cc1ccncc1)c1ncccc1NCCc1ccccn1

>  <Energy>  (10) 
48.52138237895268

>  <Genealogy>  (10) 
CN(Cc1ccncc1)c1ncccc1NCCc1ccccn1 (3D coordinates assigned)
CN(Cc1ccncc1)c1ncccc1NCCc1ccccn1 (optimized conformer: 48.52138237895268 kcal/mol)

>  <smiles>  (10) 
CN(Cc1ccncc1)c1ncccc1NCCc1ccccn1

>  <score_type>  (10) 
oracle

>  <origin>  (10) 
adg

>  <m_score__min__energy>  (10) 
-7.54

>  <m_primary>  (10) 
energy

$$$$
10:0
     RDKit          3D

 54 57  0  0  0  0  0  0  0  0999 V2000
   -2.2390   23.0220  -30.1300 C   0  0  0  0  0  0  0  0  0  0  0  0
   -3.0910   23.9140  -30.8400 O   0  0  0  0  0  0  0  0  0  0  0  0
   -4.4860   23.9580  -30.6970 C   0  0  0  0  0  0  0  0  0  0  0  0
   -5.1500   25.0400  -30.0890 C   0  0  0  0  0  0  0  0  0  0  0  0
   -6.5420   25.0380  -29.9740 C   0  0  0  0  0  0  0  0  0  0  0  0
   -7.2840   23.9570  -30.4550 C   0  0  0  0  0  0  0  0  0  0  0  0
   -6.6350   22.8620  -31.0440 C   0  0  0  0  0  0  0  0  0  0  0  0
   -7.4280   21.7270  -31.5670 C   0  0  0  0  0  0  0  0  0  0  0  0
   -8.8120   21.9110  -31.7300 C   0  0  0  0  0  0  0  0  0  0  0  0
   -9.6120   20.8850  -32.2340 C   0  0  0  0  0  0  0  0  0  0  0  0
   -9.0410   19.6620  -32.5810 C   0  0  0  0  0  0  0  0  0  0  0  0
   -7.6720   19.4560  -32.4150 C   0  0  0  0  0  0  0  0  0  0  0  0
   -6.8460   20.4750  -31.9040 C   0  0  0  0  0  0  0  0  0  0  0  0
   -5.3750   20.1560  -31.6800 C   0  0  0  0  0  0  0  0  0  0  0  0
   -4.6410   19.9620  -32.9550 N   0  0  0  0  0  0  0  0  0  0  0  0
   -4.1270   21.2660  -33.4680 C   0  0  0  0  0  0  0  0  0  0  0  0
   -2.6430   21.4970  -33.1540 C   0  0  0  0  0  0  0  0  0  0  0  0
   -1.8390   20.3940  -33.6980 N   0  0  0  0  0  0  0  0  0  0  0  0
   -0.4580   20.6020  -34.0680 C   0  0  0  0  0  0  0  0  0  0  0  0
    0.5700   19.8680  -33.4470 C   0  0  0  0  0  0  0  0  0  0  0  0
    1.9070   20.0700  -33.8100 C   0  0  0  0  0  0  0  0  0  0  0  0
    2.2310   21.0060  -34.7940 C   0  0  0  0  0  0  0  0  0  0  0  0
    1.2210   21.7420  -35.4180 C   0  0  0  0  0  0  0  0  0  0  0  0
   -0.1160   21.5430  -35.0600 C   0  0  0  0  0  0  0  0  0  0  0  0
   -2.4610   19.0720  -33.8350 C   0  0  0  0  0  0  0  0  0  0  0  0
   -3.5860   18.9200  -32.8070 C   0  0  0  0  0  0  0  0  0  0  0  0
   -5.2380   22.8790  -31.1800 C   0  0  0  0  0  0  0  0  0  0  0  0
   -2.3768   23.1663  -29.0483 H   0  0  0  0  0  0  0  0  0  0  0  0
   -2.4903   21.9848  -30.3965 H   0  0  0  0  0  0  0  0  0  0  0  0
   -1.1914   23.2255  -30.3965 H   0  0  0  0  0  0  0  0  0  0  0  0
   -4.5700   25.8911  -29.7026 H   0  0  0  0  0  0  0  0  0  0  0  0
   -7.0550   25.8898  -29.5035 H   0  0  0  0  0  0  0  0  0  0  0  0
   -8.3808   23.9644  -30.3716 H   0  0  0  0  0  0  0  0  0  0  0  0
   -9.2690   22.8737  -31.4574 H   0  0  0  0  0  0  0  0  0  0  0  0
  -10.6938   21.0415  -32.3575 H   0  0  0  0  0  0  0  0  0  0  0  0
   -9.6718   18.8573  -32.9868 H   0  0  0  0  0  0  0  0  0  0  0  0
   -7.2319   18.4852  -32.6867 H   0  0  0  0  0  0  0  0  0  0  0  0
   -4.9125   20.9878  -31.1285 H   0  0  0  0  0  0  0  0  0  0  0  0
   -5.3170   19.2160  -31.1116 H   0  0  0  0  0  0  0  0  0  0  0  0
   -5.3290   19.6120  -33.6640 H   0  0  0  0  0  0  0  0  0  0  0  0
   -4.2611   21.2895  -34.5595 H   0  0  0  0  0  0  0  0  0  0  0  0
   -4.6952   22.0620  -32.9644 H   0  0  0  0  0  0  0  0  0  0  0  0
   -2.3173   22.4444  -33.6083 H   0  0  0  0  0  0  0  0  0  0  0  0
   -2.5063   21.5412  -32.0634 H   0  0  0  0  0  0  0  0  0  0  0  0
    0.3210   19.1299  -32.6704 H   0  0  0  0  0  0  0  0  0  0  0  0
    2.7030   19.4906  -33.3194 H   0  0  0  0  0  0  0  0  0  0  0  0
    3.2819   21.1639  -35.0779 H   0  0  0  0  0  0  0  0  0  0  0  0
    1.4779   22.4796  -36.1926 H   0  0  0  0  0  0  0  0  0  0  0  0
   -0.9066   22.1251  -35.5562 H   0  0  0  0  0  0  0  0  0  0  0  0
   -2.8755   18.9665  -34.8485 H   0  0  0  0  0  0  0  0  0  0  0  0
   -1.7030   18.2938  -33.6622 H   0  0  0  0  0  0  0  0  0  0  0  0
   -4.0482   17.9299  -32.9341 H   0  0  0  0  0  0  0  0  0  0  0  0
   -3.1419   19.0346  -31.8072 H   0  0  0  0  0  0  0  0  0  0  0  0
   -4.7285   22.0366  -31.6708 H   0  0  0  0  0  0  0  0  0  0  0  0
  1  2  1  0
  2  3  1  0
  3  4  2  0
  4  5  1  0
  5  6  2  0
  6  7  1  0
  7  8  1  0
  8  9  2  0
  9 10  1  0
 10 11  2  0
 11 12  1  0
 12 13  2  0
 13 14  1  0
 14 15  1  0
 15 16  1  0
 16 17  1  0
 17 18  1  0
 18 19  1  0
 19 20  2  0
 20 21  1  0
 21 22  2  0
 22 23  1  0
 23 24  2  0
 18 25  1  0
 25 26  1  0
  7 27  2  0
 27  3  1  0
 13  8  1  0
 26 15  1  0
 24 19  1  0
  1 28  1  0
  1 29  1  0
  1 30  1  0
  4 31  1  0
  5 32  1  0
  6 33  1  0
  9 34  1  0
 10 35  1  0
 11 36  1  0
 12 37  1  0
 14 38  1  0
 14 39  1  0
 15 40  1  0
 16 41  1  0
 16 42  1  0
 17 43  1  0
 17 44  1  0
 20 45  1  0
 21 46  1  0
 22 47  1  0
 23 48  1  0
 24 49  1  0
 25 50  1  0
 25 51  1  0
 26 52  1  0
 26 53  1  0
 27 54  1  0
M  CHG  1  15   1
M  END
>  <UniqueID>  (11) 
11

>  <SMILES>  (11) 
COc1cccc(-c2ccccc2C[NH+]2CCN(c3ccccc3)CC2)c1

>  <Energy>  (11) 
75.9691631162873

>  <Genealogy>  (11) 
COc1cccc(-c2ccccc2C[NH+]2CCN(c3ccccc3)CC2)c1 (protonated)
COc1cccc(-c2ccccc2C[NH+]2CCN(c3ccccc3)CC2)c1 (3D coordinates assigned)
COc1cccc(-c2ccccc2C[NH+]2CCN(c3ccccc3)CC2)c1 (nonaromatic ring conformer: 75.9691631162873 kcal/mol)

>  <smiles>  (11) 
COc1cccc(-c2ccccc2CN2CCN(c3ccccc3)CC2)c1

>  <score_type>  (11) 
oracle

>  <origin>  (11) 
adg

>  <m_score__min__energy>  (11) 
-8.6799999999999997

>  <m_primary>  (11) 
energy

$$$$
11:0
     RDKit          3D

 38 40  0  0  0  0  0  0  0  0999 V2000
   -2.7170   17.8890  -33.3730 C   0  0  0  0  0  0  0  0  0  0  0  0
   -3.8680   17.7170  -34.3620 C   0  0  0  0  0  0  0  0  0  0  0  0
   -5.1490   18.1320  -33.7500 N   0  0  0  0  0  0  0  0  0  0  0  0
   -6.0950   17.2030  -33.3650 C   0  0  0  0  0  0  0  0  0  0  0  0
   -5.8910   15.7220  -33.5840 C   0  0  0  0  0  0  0  0  0  0  0  0
   -7.2670   17.6140  -32.8010 N   0  0  0  0  0  0  0  0  0  0  0  0
   -7.5270   18.9280  -32.5770 C   0  0  0  0  0  0  0  0  0  0  0  0
   -8.7400   19.3240  -31.9880 C   0  0  0  0  0  0  0  0  0  0  0  0
   -9.0030   20.6770  -31.7570 C   0  0  0  0  0  0  0  0  0  0  0  0
   -8.0580   21.6450  -32.1120 C   0  0  0  0  0  0  0  0  0  0  0  0
   -8.4030   23.3810  -31.8210 S   0  0  0  0  0  0  0  0  0  0  0  0
   -6.8660   23.6310  -30.9320 C   0  0  0  0  0  0  0  0  0  0  0  0
   -6.4510   22.6980  -29.9720 C   0  0  0  0  0  0  0  0  0  0  0  0
   -5.2560   22.8960  -29.2740 C   0  0  0  0  0  0  0  0  0  0  0  0
   -4.4720   24.0250  -29.5360 C   0  0  0  0  0  0  0  0  0  0  0  0
   -4.8830   24.9550  -30.4960 C   0  0  0  0  0  0  0  0  0  0  0  0
   -6.0780   24.7580  -31.1950 C   0  0  0  0  0  0  0  0  0  0  0  0
   -6.8450   21.2600  -32.6930 C   0  0  0  0  0  0  0  0  0  0  0  0
   -6.5740   19.8980  -32.9320 C   0  0  0  0  0  0  0  0  0  0  0  0
   -5.3750   19.4690  -33.5230 C   0  0  0  0  0  0  0  0  0  0  0  0
   -4.5020   20.3250  -33.8430 O   0  0  0  0  0  0  0  0  0  0  0  0
   -3.1049   17.8310  -32.3453 H   0  0  0  0  0  0  0  0  0  0  0  0
   -1.9758   17.0916  -33.5307 H   0  0  0  0  0  0  0  0  0  0  0  0
   -2.2413   18.8682  -33.5307 H   0  0  0  0  0  0  0  0  0  0  0  0
   -3.6755   18.3352  -35.2512 H   0  0  0  0  0  0  0  0  0  0  0  0
   -3.9375   16.6558  -34.6430 H   0  0  0  0  0  0  0  0  0  0  0  0
   -5.8210   15.2137  -32.6110 H   0  0  0  0  0  0  0  0  0  0  0  0
   -6.7415   15.3145  -34.1502 H   0  0  0  0  0  0  0  0  0  0  0  0
   -4.9620   15.5596  -34.1502 H   0  0  0  0  0  0  0  0  0  0  0  0
   -7.9850   16.9020  -32.5310 H   0  0  0  0  0  0  0  0  0  0  0  0
   -9.4858   18.5656  -31.7075 H   0  0  0  0  0  0  0  0  0  0  0  0
   -9.9542   20.9809  -31.2955 H   0  0  0  0  0  0  0  0  0  0  0  0
   -7.0661   21.8092  -29.7676 H   0  0  0  0  0  0  0  0  0  0  0  0
   -4.9321   22.1645  -28.5190 H   0  0  0  0  0  0  0  0  0  0  0  0
   -3.5319   24.1810  -28.9865 H   0  0  0  0  0  0  0  0  0  0  0  0
   -4.2659   25.8421  -30.7014 H   0  0  0  0  0  0  0  0  0  0  0  0
   -6.3991   25.4888  -31.9518 H   0  0  0  0  0  0  0  0  0  0  0  0
   -6.1004   22.0229  -32.9641 H   0  0  0  0  0  0  0  0  0  0  0  0
  1  2  1  0
  2  3  1  0
  3  4  1  0
  4  5  1  0
  4  6  2  0
  6  7  1  0
  7  8  2  0
  8  9  1  0
  9 10  2  0
 10 11  1  0
 11 12  1  0
 12 13  2  0
 13 14  1  0
 14 15  2  0
 15 16  1  0
 16 17  2  0
 10 18  1  0
 18 19  2  0
 19 20  1  0
 20 21  2  0
 20  3  1  0
 19  7  1  0
 17 12  1  0
  1 22  1  0
  1 23  1  0
  1 24  1  0
  2 25  1  0
  2 26  1  0
  5 27  1  0
  5 28  1  0
  5 29  1  0
  6 30  1  0
  8 31  1  0
  9 32  1  0
 13 33  1  0
 14 34  1  0
 15 35  1  0
 16 36  1  0
 17 37  1  0
 18 38  1  0
M  CHG  1   6   1
M  END
>  <UniqueID>  (12) 
12

>  <SMILES>  (12) 
CCn1c(C)[nH+]c2ccc(Sc3ccccc3)cc2c1=O

>  <Energy>  (12) 
41.82093867124276

>  <Genealogy>  (12) 
CCn1c(C)[nH+]c2ccc(Sc3ccccc3)cc2c1=O (protonated)
CCn1c(C)[nH+]c2ccc(Sc3ccccc3)cc2c1=O (3D coordinates assigned)
CCn1c(C)[nH+]c2ccc(Sc3ccccc3)cc2c1=O (optimized conformer: 41.82093867124276 kcal/mol)

>  <smiles>  (12) 
CCn1c(C)nc2ccc(Sc3ccccc3)cc2c1=O

>  <score_type>  (12) 
oracle

>  <origin>  (12) 
adg

>  <m_score__min__energy>  (12) 
-7.3200000000000003

>  <m_primary>  (12) 
energy

$$$$
12:0
     RDKit          3D

 58 60  0  0  0  0  0  0  0  0999 V2000
   -1.4060   26.0750  -26.4710 C   0  0  0  0  0  0  0  0  0  0  0  0
   -0.8790   26.4360  -27.8540 C   0  0  0  0  0  0  0  0  0  0  0  0
   -0.7820   25.2760  -28.6790 O   0  0  0  0  0  0  0  0  0  0  0  0
   -0.4460   23.9840  -28.2420 C   0  0  0  0  0  0  0  0  0  0  0  0
    0.7540   23.7100  -27.5540 C   0  0  0  0  0  0  0  0  0  0  0  0
    1.0620   22.4030  -27.1650 C   0  0  0  0  0  0  0  0  0  0  0  0
    0.1830   21.3590  -27.4530 C   0  0  0  0  0  0  0  0  0  0  0  0
   -1.0130   21.6190  -28.1240 C   0  0  0  0  0  0  0  0  0  0  0  0
   -1.3390   22.9280  -28.5120 C   0  0  0  0  0  0  0  0  0  0  0  0
   -2.5730   23.1800  -29.2010 N   0  0  0  0  0  0  0  0  0  0  0  0
   -3.0170   22.2610  -30.2510 C   0  0  0  0  0  0  0  0  0  0  0  0
   -3.7940   23.0150  -31.3470 C   0  0  0  0  0  0  0  0  0  0  0  0
   -4.5930   24.1710  -30.8520 N   0  0  0  0  0  0  0  0  0  0  0  0
   -5.8630   24.3160  -31.5940 C   0  0  0  0  0  0  0  0  0  0  0  0
   -7.0670   24.1620  -30.6530 C   0  0  0  0  0  0  0  0  0  0  0  0
   -7.5500   22.7080  -30.6060 C   0  0  0  0  0  0  0  0  0  0  0  0
   -8.0670   22.2560  -31.9740 C   0  0  0  0  0  0  0  0  0  0  0  0
   -7.2940   21.1120  -32.4550 N   0  0  0  0  0  0  0  0  0  0  0  0
   -6.0090   21.1890  -32.7650 N   0  0  0  0  0  0  0  0  0  0  0  0
   -5.6130   19.9580  -33.1430 C   0  0  0  0  0  0  0  0  0  0  0  0
   -4.2120   19.6140  -33.5240 C   0  0  0  0  0  0  0  0  0  0  0  0
   -6.6660   19.0670  -33.0450 C   0  0  0  0  0  0  0  0  0  0  0  0
   -7.7190   19.8390  -32.5990 C   0  0  0  0  0  0  0  0  0  0  0  0
   -9.1120   19.3530  -32.3500 C   0  0  0  0  0  0  0  0  0  0  0  0
   -4.8440   24.1180  -29.3990 C   0  0  0  0  0  0  0  0  0  0  0  0
   -3.5130   24.1590  -28.6470 C   0  0  0  0  0  0  0  0  0  0  0  0
   -0.7561   26.5202  -25.7033 H   0  0  0  0  0  0  0  0  0  0  0  0
   -2.4288   26.4630  -26.3556 H   0  0  0  0  0  0  0  0  0  0  0  0
   -1.4136   24.9811  -26.3556 H   0  0  0  0  0  0  0  0  0  0  0  0
   -1.5645   27.1564  -28.3242 H   0  0  0  0  0  0  0  0  0  0  0  0
    0.1235   26.8755  -27.7451 H   0  0  0  0  0  0  0  0  0  0  0  0
    1.4512   24.5287  -27.3222 H   0  0  0  0  0  0  0  0  0  0  0  0
    2.0008   22.1972  -26.6299 H   0  0  0  0  0  0  0  0  0  0  0  0
    0.4323   20.3310  -27.1514 H   0  0  0  0  0  0  0  0  0  0  0  0
   -1.7039   20.7935  -28.3500 H   0  0  0  0  0  0  0  0  0  0  0  0
   -2.1381   21.7762  -30.7010 H   0  0  0  0  0  0  0  0  0  0  0  0
   -3.6822   21.5086  -29.8022 H   0  0  0  0  0  0  0  0  0  0  0  0
   -3.0703   23.3887  -32.0863 H   0  0  0  0  0  0  0  0  0  0  0  0
   -4.5111   22.2977  -31.7726 H   0  0  0  0  0  0  0  0  0  0  0  0
   -5.8958   25.3113  -32.0611 H   0  0  0  0  0  0  0  0  0  0  0  0
   -5.9137   23.5299  -32.3618 H   0  0  0  0  0  0  0  0  0  0  0  0
   -6.7736   24.4757  -29.6403 H   0  0  0  0  0  0  0  0  0  0  0  0
   -7.8874   24.7900  -31.0306 H   0  0  0  0  0  0  0  0  0  0  0  0
   -6.7128   22.0606  -30.3062 H   0  0  0  0  0  0  0  0  0  0  0  0
   -8.3729   22.6359  -29.8796 H   0  0  0  0  0  0  0  0  0  0  0  0
   -9.1249   21.9678  -31.8852 H   0  0  0  0  0  0  0  0  0  0  0  0
   -7.9616   23.0855  -32.6887 H   0  0  0  0  0  0  0  0  0  0  0  0
   -3.6105   19.4663  -32.6149 H   0  0  0  0  0  0  0  0  0  0  0  0
   -4.2105   18.6888  -34.1190 H   0  0  0  0  0  0  0  0  0  0  0  0
   -3.7821   20.4333  -34.1190 H   0  0  0  0  0  0  0  0  0  0  0  0
   -6.6645   17.9904  -33.2707 H   0  0  0  0  0  0  0  0  0  0  0  0
   -9.2904   19.2908  -31.2663 H   0  0  0  0  0  0  0  0  0  0  0  0
   -9.8307   20.0535  -32.8003 H   0  0  0  0  0  0  0  0  0  0  0  0
   -9.2390   18.3575  -32.8003 H   0  0  0  0  0  0  0  0  0  0  0  0
   -5.4591   24.9803  -29.1020 H   0  0  0  0  0  0  0  0  0  0  0  0
   -5.3739   23.1859  -29.1534 H   0  0  0  0  0  0  0  0  0  0  0  0
   -3.0793   25.1660  -28.7357 H   0  0  0  0  0  0  0  0  0  0  0  0
   -3.6966   23.9136  -27.5906 H   0  0  0  0  0  0  0  0  0  0  0  0
  1  2  1  0
  2  3  1  0
  3  4  1  0
  4  5  2  0
  5  6  1  0
  6  7  2  0
  7  8  1  0
  8  9  2  0
  9 10  1  0
 10 11  1  0
 11 12  1  0
 12 13  1  0
 13 14  1  0
 14 15  1  0
 15 16  1  0
 16 17  1  0
 17 18  1  0
 18 19  1  0
 19 20  2  0
 20 21  1  0
 20 22  1  0
 22 23  2  0
 23 24  1  0
 13 25  1  0
 25 26  1  0
  9  4  1  0
 26 10  1  0
 23 18  1  0
  1 27  1  0
  1 28  1  0
  1 29  1  0
  2 30  1  0
  2 31  1  0
  5 32  1  0
  6 33  1  0
  7 34  1  0
  8 35  1  0
 11 36  1  0
 11 37  1  0
 12 38  1  0
 12 39  1  0
 14 40  1  0
 14 41  1  0
 15 42  1  0
 15 43  1  0
 16 44  1  0
 16 45  1  0
 17 46  1  0
 17 47  1  0
 21 48  1  0
 21 49  1  0
 21 50  1  0
 22 51  1  0
 24 52  1  0
 24 53  1  0
 24 54  1  0
 25 55  1  0
 25 56  1  0
 26 57  1  0
 26 58  1  0
M  END
>  <UniqueID>  (13) 
13

>  <SMILES>  (13) 
CCOc1ccccc1N1CCN(CCCCn2nc(C)cc2C)CC1

>  <Energy>  (13) 
88.25474516440961

>  <Genealogy>  (13) 
CCOc1ccccc1N1CCN(CCCCn2nc(C)cc2C)CC1 (3D coordinates assigned)
CCOc1ccccc1N1CCN(CCCCn2nc(C)cc2C)CC1 (nonaromatic ring conformer: 88.25474516440961 kcal/mol)

>  <smiles>  (13) 
CCOc1ccccc1N1CCN(CCCCn2nc(C)cc2C)CC1

>  <score_type>  (13) 
oracle

>  <origin>  (13) 
adg

>  <m_score__min__energy>  (13) 
-8.1400000000000006

>  <m_primary>  (13) 
energy

$$$$
13:0
     RDKit          3D

 37 40  0  0  0  0  0  0  0  0999 V2000
   -9.7730   21.7320  -30.8670 C   0  0  0  0  0  0  0  0  0  0  0  0
   -8.3240   21.7920  -31.2560 C   0  0  0  0  0  0  0  0  0  0  0  0
   -7.5780   22.9040  -30.9930 N   0  0  0  0  0  0  0  0  0  0  0  0
   -6.2840   23.0310  -31.4250 C   0  0  0  0  0  0  0  0  0  0  0  0
   -5.5460   24.3200  -31.1380 C   0  0  0  0  0  0  0  0  0  0  0  0
   -4.5760   24.1190  -30.0040 C   0  0  0  0  0  0  0  0  0  0  0  0
   -3.2400   23.7770  -30.2740 C   0  0  0  0  0  0  0  0  0  0  0  0
   -2.3260   23.6240  -29.2270 C   0  0  0  0  0  0  0  0  0  0  0  0
   -2.7380   23.8140  -27.9050 C   0  0  0  0  0  0  0  0  0  0  0  0
   -4.0630   24.1570  -27.6280 C   0  0  0  0  0  0  0  0  0  0  0  0
   -4.9800   24.3120  -28.6720 C   0  0  0  0  0  0  0  0  0  0  0  0
   -5.6490   21.9540  -32.0980 C   0  0  0  0  0  0  0  0  0  0  0  0
   -4.2340   22.2880  -33.1000 Cl  0  0  0  0  0  0  0  0  0  0  0  0
   -6.3450   20.7280  -32.1980 C   0  0  0  0  0  0  0  0  0  0  0  0
   -7.7010   20.7080  -31.8750 C   0  0  0  0  0  0  0  0  0  0  0  0
   -8.4200   19.2720  -32.3890 S   0  0  0  0  0  0  0  0  0  0  0  0
   -6.9860   18.6200  -32.9700 C   0  0  0  0  0  0  0  0  0  0  0  0
   -6.8270   17.3590  -33.5380 C   0  0  0  0  0  0  0  0  0  0  0  0
   -5.5340   16.9230  -33.8370 C   0  0  0  0  0  0  0  0  0  0  0  0
   -4.4260   17.7120  -33.4890 C   0  0  0  0  0  0  0  0  0  0  0  0
   -4.5970   18.9730  -32.8870 C   0  0  0  0  0  0  0  0  0  0  0  0
   -3.1970   19.6330  -32.0490 Cl  0  0  0  0  0  0  0  0  0  0  0  0
   -5.9100   19.4810  -32.7300 C   0  0  0  0  0  0  0  0  0  0  0  0
   -9.8584   21.7285  -29.7703 H   0  0  0  0  0  0  0  0  0  0  0  0
  -10.2982   22.6092  -31.2728 H   0  0  0  0  0  0  0  0  0  0  0  0
  -10.2239   20.8144  -31.2728 H   0  0  0  0  0  0  0  0  0  0  0  0
   -8.0250   23.7020  -30.4880 H   0  0  0  0  0  0  0  0  0  0  0  0
   -4.9948   24.6317  -32.0374 H   0  0  0  0  0  0  0  0  0  0  0  0
   -6.2729   25.0963  -30.8569 H   0  0  0  0  0  0  0  0  0  0  0  0
   -2.9119   23.6290  -31.3134 H   0  0  0  0  0  0  0  0  0  0  0  0
   -1.2820   23.3539  -29.4439 H   0  0  0  0  0  0  0  0  0  0  0  0
   -2.0180   23.6933  -27.0822 H   0  0  0  0  0  0  0  0  0  0  0  0
   -4.3857   24.3055  -26.5869 H   0  0  0  0  0  0  0  0  0  0  0  0
   -6.0219   24.5861  -28.4498 H   0  0  0  0  0  0  0  0  0  0  0  0
   -7.6987   16.7212  -33.7464 H   0  0  0  0  0  0  0  0  0  0  0  0
   -5.3836   15.9596  -34.3461 H   0  0  0  0  0  0  0  0  0  0  0  0
   -3.4105   17.3398  -33.6895 H   0  0  0  0  0  0  0  0  0  0  0  0
  1  2  1  0
  2  3  2  0
  3  4  1  0
  4  5  1  0
  5  6  1  0
  6  7  2  0
  7  8  1  0
  8  9  2  0
  9 10  1  0
 10 11  2  0
  4 12  2  0
 12 13  1  0
 12 14  1  0
 14 15  2  0
 15 16  1  0
 16 17  1  0
 17 18  2  0
 18 19  1  0
 19 20  2  0
 20 21  1  0
 21 22  1  0
 21 23  2  0
 15  2  1  0
 23 17  1  0
 11  6  1  0
 23 14  1  0
  1 24  1  0
  1 25  1  0
  1 26  1  0
  3 27  1  0
  5 28  1  0
  5 29  1  0
  7 30  1  0
  8 31  1  0
  9 32  1  0
 10 33  1  0
 11 34  1  0
 18 35  1  0
 19 36  1  0
 20 37  1  0
M  CHG  1   3   1
M  END
>  <UniqueID>  (14) 
14

>  <SMILES>  (14) 
Cc1[nH+]c(Cc2ccccc2)c(Cl)c2c1sc1cccc(Cl)c12

>  <Energy>  (14) 
96.56536467339625

>  <Genealogy>  (14) 
Cc1[nH+]c(Cc2ccccc2)c(Cl)c2c1sc1cccc(Cl)c12 (protonated)
Cc1[nH+]c(Cc2ccccc2)c(Cl)c2c1sc1cccc(Cl)c12 (3D coordinates assigned)
Cc1[nH+]c(Cc2ccccc2)c(Cl)c2c1sc1cccc(Cl)c12 (optimized conformer: 96.56536467339625 kcal/mol)

>  <smiles>  (14) 
Cc1nc(Cc2ccccc2)c(Cl)c2c1sc1cccc(Cl)c12

>  <score_type>  (14) 
oracle

>  <origin>  (14) 
adg

>  <m_score__min__energy>  (14) 
-8.2599999999999998

>  <m_primary>  (14) 
energy

$$$$
14:0
     RDKit          3D

 54 57  0  0  0  0  0  0  0  0999 V2000
   -6.2960   25.3240  -29.6980 C   0  0  0  0  0  0  0  0  0  0  0  0
   -4.9980   25.5880  -30.4750 C   0  0  0  0  0  0  0  0  0  0  0  0
   -4.0210   24.4670  -30.4620 N   0  0  0  0  0  0  0  0  0  0  0  0
   -3.0230   24.5490  -29.3690 C   0  0  0  0  0  0  0  0  0  0  0  0
   -3.5620   23.9920  -28.0500 C   0  0  0  0  0  0  0  0  0  0  0  0
   -4.6550   23.1260  -30.4960 C   0  0  0  0  0  0  0  0  0  0  0  0
   -3.9990   22.1970  -31.5350 C   0  0  0  0  0  0  0  0  0  0  0  0
   -4.8990   21.9060  -32.6530 N   0  0  0  0  0  0  0  0  0  0  0  0
   -5.3240   20.5650  -32.9070 C   0  0  0  0  0  0  0  0  0  0  0  0
   -4.3910   19.6580  -33.3990 C   0  0  0  0  0  0  0  0  0  0  0  0
   -4.7150   18.3320  -33.5860 C   0  0  0  0  0  0  0  0  0  0  0  0
   -5.9880   17.8650  -33.3950 N   0  0  0  0  0  0  0  0  0  0  0  0
   -6.3670   16.5370  -33.9070 C   0  0  0  0  0  0  0  0  0  0  0  0
   -6.9170   18.6970  -32.7910 C   0  0  0  0  0  0  0  0  0  0  0  0
   -8.1580   18.1900  -32.3400 C   0  0  0  0  0  0  0  0  0  0  0  0
   -9.1220   19.0280  -31.7970 C   0  0  0  0  0  0  0  0  0  0  0  0
   -8.8880   20.3900  -31.6960 C   0  0  0  0  0  0  0  0  0  0  0  0
   -7.6670   20.9400  -32.0900 C   0  0  0  0  0  0  0  0  0  0  0  0
   -7.5930   22.8600  -31.9770 Br  0  0  0  0  0  0  0  0  0  0  0  0
   -6.6300   20.0950  -32.5920 C   0  0  0  0  0  0  0  0  0  0  0  0
   -3.5040   17.6340  -34.0410 C   0  0  0  0  0  0  0  0  0  0  0  0
   -3.2100   16.2680  -34.1750 C   0  0  0  0  0  0  0  0  0  0  0  0
   -1.9130   15.8920  -34.5590 C   0  0  0  0  0  0  0  0  0  0  0  0
   -0.9190   16.8650  -34.7610 C   0  0  0  0  0  0  0  0  0  0  0  0
   -1.2080   18.2220  -34.5560 C   0  0  0  0  0  0  0  0  0  0  0  0
   -2.5050   18.5830  -34.1860 C   0  0  0  0  0  0  0  0  0  0  0  0
   -2.9740   19.9470  -33.8010 C   0  0  0  0  0  0  0  0  0  0  0  0
   -6.0917   25.3656  -28.6179 H   0  0  0  0  0  0  0  0  0  0  0  0
   -7.0420   26.0888  -29.9597 H   0  0  0  0  0  0  0  0  0  0  0  0
   -6.6840   24.3285  -29.9597 H   0  0  0  0  0  0  0  0  0  0  0  0
   -5.2631   25.7980  -31.5217 H   0  0  0  0  0  0  0  0  0  0  0  0
   -4.5044   26.4330  -29.9727 H   0  0  0  0  0  0  0  0  0  0  0  0
   -2.1321   23.9726  -29.6590 H   0  0  0  0  0  0  0  0  0  0  0  0
   -2.7803   25.6105  -29.2128 H   0  0  0  0  0  0  0  0  0  0  0  0
   -3.0694   24.5011  -27.2084 H   0  0  0  0  0  0  0  0  0  0  0  0
   -4.6475   24.1618  -27.9966 H   0  0  0  0  0  0  0  0  0  0  0  0
   -3.3566   22.9127  -27.9966 H   0  0  0  0  0  0  0  0  0  0  0  0
   -4.5629   22.6655  -29.5013 H   0  0  0  0  0  0  0  0  0  0  0  0
   -5.7093   23.2586  -30.7804 H   0  0  0  0  0  0  0  0  0  0  0  0
   -3.0930   22.6836  -31.9253 H   0  0  0  0  0  0  0  0  0  0  0  0
   -3.7558   21.2468  -31.0371 H   0  0  0  0  0  0  0  0  0  0  0  0
   -5.2180   22.6570  -33.3060 H   0  0  0  0  0  0  0  0  0  0  0  0
   -6.5603   15.8597  -33.0620 H   0  0  0  0  0  0  0  0  0  0  0  0
   -7.2755   16.6262  -34.5207 H   0  0  0  0  0  0  0  0  0  0  0  0
   -5.5482   16.1333  -34.5207 H   0  0  0  0  0  0  0  0  0  0  0  0
   -8.3628   17.1123  -32.4210 H   0  0  0  0  0  0  0  0  0  0  0  0
  -10.0763   18.6089  -31.4452 H   0  0  0  0  0  0  0  0  0  0  0  0
   -9.6758   21.0474  -31.2996 H   0  0  0  0  0  0  0  0  0  0  0  0
   -3.9807   15.5070  -33.9829 H   0  0  0  0  0  0  0  0  0  0  0  0
   -1.6730   14.8282  -34.7028 H   0  0  0  0  0  0  0  0  0  0  0  0
    0.0887   16.5612  -35.0809 H   0  0  0  0  0  0  0  0  0  0  0  0
   -0.4280   18.9870  -34.6842 H   0  0  0  0  0  0  0  0  0  0  0  0
   -2.3905   20.3531  -32.9616 H   0  0  0  0  0  0  0  0  0  0  0  0
   -2.8720   20.7028  -34.5937 H   0  0  0  0  0  0  0  0  0  0  0  0
  1  2  1  0
  2  3  1  0
  3  4  1  0
  4  5  1  0
  3  6  1  0
  6  7  1  0
  7  8  1  0
  8  9  1  0
  9 10  2  0
 10 11  1  0
 11 12  2  0
 12 13  1  0
 12 14  1  0
 14 15  2  0
 15 16  1  0
 16 17  2  0
 17 18  1  0
 18 19  1  0
 18 20  2  0
 11 21  1  0
 21 22  2  0
 22 23  1  0
 23 24  2  0
 24 25  1  0
 25 26  2  0
 26 27  1  0
 20  9  1  0
 26 21  1  0
 27 10  1  0
 20 14  1  0
  1 28  1  0
  1 29  1  0
  1 30  1  0
  2 31  1  0
  2 32  1  0
  4 33  1  0
  4 34  1  0
  5 35  1  0
  5 36  1  0
  5 37  1  0
  6 38  1  0
  6 39  1  0
  7 40  1  0
  7 41  1  0
  8 42  1  0
 13 43  1  0
 13 44  1  0
 13 45  1  0
 15 46  1  0
 16 47  1  0
 17 48  1  0
 22 49  1  0
 23 50  1  0
 24 51  1  0
 25 52  1  0
 27 53  1  0
 27 54  1  0
M  CHG  1  12   1
M  END
>  <UniqueID>  (15) 
15

>  <SMILES>  (15) 
CCN(CC)CCNc1c2c([n+](C)c3cccc(Br)c13)-c1ccccc1C2

>  <Energy>  (15) 
109.81405396328935

>  <Genealogy>  (15) 
CCN(CC)CCNc1c2c([n+](C)c3cccc(Br)c13)-c1ccccc1C2 (3D coordinates assigned)
CCN(CC)CCNc1c2c([n+](C)c3cccc(Br)c13)-c1ccccc1C2 (nonaromatic ring conformer: 109.81405396328935 kcal/mol)

>  <smiles>  (15) 
CCN(CC)CCNc1c2c([n+](C)c3cccc(Br)c13)-c1ccccc1C2

>  <score_type>  (15) 
oracle

>  <origin>  (15) 
adg

>  <m_score__min__energy>  (15) 
-9.7300000000000004

>  <m_primary>  (15) 
energy

$$$$
15:0
     RDKit          3D

 64 67  0  0  0  0  0  0  0  0999 V2000
   -8.4240   18.2390  -31.5860 C   0  0  0  0  0  0  0  0  0  0  0  0
   -9.1200   19.5840  -31.8360 C   0  0  0  0  0  0  0  0  0  0  0  0
   -8.2410   20.7480  -31.5420 N   0  0  0  0  0  0  0  0  0  0  0  0
   -8.9920   21.9000  -30.9610 C   0  0  0  0  0  0  0  0  0  0  0  0
   -9.1660   23.0510  -31.9570 C   0  0  0  0  0  0  0  0  0  0  0  0
   -7.4320   21.1420  -32.7310 C   0  0  0  0  0  0  0  0  0  0  0  0
   -6.1580   21.9720  -32.4390 C   0  0  0  0  0  0  0  0  0  0  0  0
   -4.9910   21.4930  -33.1840 N   0  0  0  0  0  0  0  0  0  0  0  0
   -4.2070   20.3860  -32.6900 C   0  0  0  0  0  0  0  0  0  0  0  0
   -4.4940   19.0860  -33.1370 C   0  0  0  0  0  0  0  0  0  0  0  0
   -5.7980   18.7350  -33.5390 C   0  0  0  0  0  0  0  0  0  0  0  0
   -6.0900   17.4300  -33.9310 C   0  0  0  0  0  0  0  0  0  0  0  0
   -5.0930   16.4590  -33.9170 C   0  0  0  0  0  0  0  0  0  0  0  0
   -3.7940   16.7920  -33.5360 C   0  0  0  0  0  0  0  0  0  0  0  0
   -3.4600   18.1190  -33.1650 C   0  0  0  0  0  0  0  0  0  0  0  0
   -2.1670   18.4930  -32.8570 N   0  0  0  0  0  0  0  0  0  0  0  0
   -1.0340   17.6260  -33.2540 C   0  0  0  0  0  0  0  0  0  0  0  0
   -1.9370   19.6800  -32.1820 C   0  0  0  0  0  0  0  0  0  0  0  0
   -0.6540   20.0110  -31.6840 C   0  0  0  0  0  0  0  0  0  0  0  0
   -0.4160   21.2280  -31.0540 C   0  0  0  0  0  0  0  0  0  0  0  0
   -1.4720   22.0910  -30.7660 C   0  0  0  0  0  0  0  0  0  0  0  0
   -1.2300   23.2750  -30.0530 C   0  0  0  0  0  0  0  0  0  0  0  0
   -2.2980   24.0870  -29.6330 C   0  0  0  0  0  0  0  0  0  0  0  0
   -2.0930   25.3000  -28.9550 O   0  0  0  0  0  0  0  0  0  0  0  0
   -1.6190   25.4070  -27.6180 C   0  0  0  0  0  0  0  0  0  0  0  0
   -3.6130   23.6740  -29.8750 C   0  0  0  0  0  0  0  0  0  0  0  0
   -4.6610   24.4720  -29.3890 O   0  0  0  0  0  0  0  0  0  0  0  0
   -5.7700   24.9060  -30.1700 C   0  0  0  0  0  0  0  0  0  0  0  0
   -3.8500   22.4870  -30.5910 C   0  0  0  0  0  0  0  0  0  0  0  0
   -2.7890   21.7440  -31.1460 C   0  0  0  0  0  0  0  0  0  0  0  0
   -3.0000   20.6100  -31.9870 C   0  0  0  0  0  0  0  0  0  0  0  0
   -8.3354   18.0677  -30.5030 H   0  0  0  0  0  0  0  0  0  0  0  0
   -9.0166   17.4299  -32.0379 H   0  0  0  0  0  0  0  0  0  0  0  0
   -7.4212   18.2555  -32.0379 H   0  0  0  0  0  0  0  0  0  0  0  0
   -9.4256   19.6314  -32.8916 H   0  0  0  0  0  0  0  0  0  0  0  0
   -9.9854   19.6415  -31.1594 H   0  0  0  0  0  0  0  0  0  0  0  0
   -7.5310   20.4240  -30.8420 H   0  0  0  0  0  0  0  0  0  0  0  0
   -9.9872   21.5506  -30.6488 H   0  0  0  0  0  0  0  0  0  0  0  0
   -8.4107   22.2814  -30.1086 H   0  0  0  0  0  0  0  0  0  0  0  0
   -9.3084   23.9931  -31.4074 H   0  0  0  0  0  0  0  0  0  0  0  0
   -8.2692   23.1274  -32.5894 H   0  0  0  0  0  0  0  0  0  0  0  0
  -10.0453   22.8589  -32.5894 H   0  0  0  0  0  0  0  0  0  0  0  0
   -7.1231   20.2216  -33.2481 H   0  0  0  0  0  0  0  0  0  0  0  0
   -8.0826   21.7970  -33.3291 H   0  0  0  0  0  0  0  0  0  0  0  0
   -6.3482   23.0191  -32.7172 H   0  0  0  0  0  0  0  0  0  0  0  0
   -5.9332   21.8717  -31.3669 H   0  0  0  0  0  0  0  0  0  0  0  0
   -4.5770   22.1670  -33.8610 H   0  0  0  0  0  0  0  0  0  0  0  0
   -6.5915   19.4968  -33.5435 H   0  0  0  0  0  0  0  0  0  0  0  0
   -7.1089   17.1672  -34.2516 H   0  0  0  0  0  0  0  0  0  0  0  0
   -5.3309   15.4251  -34.2076 H   0  0  0  0  0  0  0  0  0  0  0  0
   -3.0167   16.0137  -33.5230 H   0  0  0  0  0  0  0  0  0  0  0  0
   -0.5327   17.2424  -32.3532 H   0  0  0  0  0  0  0  0  0  0  0  0
   -1.4097   16.7825  -33.8519 H   0  0  0  0  0  0  0  0  0  0  0  0
   -0.3181   18.2091  -33.8519 H   0  0  0  0  0  0  0  0  0  0  0  0
    0.1707   19.2919  -31.7974 H   0  0  0  0  0  0  0  0  0  0  0  0
    0.6114   21.5110  -30.7815 H   0  0  0  0  0  0  0  0  0  0  0  0
   -0.1961   23.5703  -29.8208 H   0  0  0  0  0  0  0  0  0  0  0  0
   -2.4476   25.2199  -26.9191 H   0  0  0  0  0  0  0  0  0  0  0  0
   -0.8237   24.6658  -27.4505 H   0  0  0  0  0  0  0  0  0  0  0  0
   -1.2192   26.4180  -27.4505 H   0  0  0  0  0  0  0  0  0  0  0  0
   -6.5852   25.2250  -29.5038 H   0  0  0  0  0  0  0  0  0  0  0  0
   -5.4634   25.7505  -30.8047 H   0  0  0  0  0  0  0  0  0  0  0  0
   -6.1180   24.0777  -30.8047 H   0  0  0  0  0  0  0  0  0  0  0  0
   -4.8830   22.1319  -30.7202 H   0  0  0  0  0  0  0  0  0  0  0  0
  1  2  1  0
  2  3  1  0
  3  4  1  0
  4  5  1  0
  3  6  1  0
  6  7  1  0
  7  8  1  0
  8  9  1  0
  9 10  2  0
 10 11  1  0
 11 12  2  0
 12 13  1  0
 13 14  2  0
 14 15  1  0
 15 16  2  0
 16 17  1  0
 16 18  1  0
 18 19  2  0
 19 20  1  0
 20 21  2  0
 21 22  1  0
 22 23  2  0
 23 24  1  0
 24 25  1  0
 23 26  1  0
 26 27  1  0
 27 28  1  0
 26 29  2  0
 29 30  1  0
 30 31  2  0
 31  9  1  0
 15 10  1  0
 31 18  1  0
 30 21  1  0
  1 32  1  0
  1 33  1  0
  1 34  1  0
  2 35  1  0
  2 36  1  0
  3 37  1  0
  4 38  1  0
  4 39  1  0
  5 40  1  0
  5 41  1  0
  5 42  1  0
  6 43  1  0
  6 44  1  0
  7 45  1  0
  7 46  1  0
  8 47  1  0
 11 48  1  0
 12 49  1  0
 13 50  1  0
 14 51  1  0
 17 52  1  0
 17 53  1  0
 17 54  1  0
 19 55  1  0
 20 56  1  0
 22 57  1  0
 25 58  1  0
 25 59  1  0
 25 60  1  0
 28 61  1  0
 28 62  1  0
 28 63  1  0
 29 64  1  0
M  CHG  2   3   1  16   1
M  END
>  <UniqueID>  (16) 
16

>  <SMILES>  (16) 
CC[NH+](CC)CCNc1c2ccccc2[n+](C)c2ccc3cc(OC)c(OC)cc3c12

>  <Energy>  (16) 
115.40315776255727

>  <Genealogy>  (16) 
CC[NH+](CC)CCNc1c2ccccc2[n+](C)c2ccc3cc(OC)c(OC)cc3c12 (protonated)
CC[NH+](CC)CCNc1c2ccccc2[n+](C)c2ccc3cc(OC)c(OC)cc3c12 (3D coordinates assigned)
CC[NH+](CC)CCNc1c2ccccc2[n+](C)c2ccc3cc(OC)c(OC)cc3c12 (optimized conformer: 115.40315776255727 kcal/mol)

>  <smiles>  (16) 
CCN(CC)CCNc1c2ccccc2[n+](C)c2ccc3cc(OC)c(OC)cc3c12

>  <score_type>  (16) 
oracle

>  <origin>  (16) 
adg

>  <m_score__min__energy>  (16) 
-7.6699999999999999

>  <m_primary>  (16) 
energy

$$$$
16:0
     RDKit          3D

 42 45  0  0  0  0  0  0  0  0999 V2000
   -5.2470   25.6610  -30.4840 C   0  0  0  0  0  0  0  0  0  0  0  0
   -3.8660   25.3180  -30.4820 O   0  0  0  0  0  0  0  0  0  0  0  0
   -3.3320   24.1360  -29.9450 C   0  0  0  0  0  0  0  0  0  0  0  0
   -2.6530   24.1340  -28.7100 C   0  0  0  0  0  0  0  0  0  0  0  0
   -2.1640   22.9420  -28.1710 C   0  0  0  0  0  0  0  0  0  0  0  0
   -2.3470   21.7390  -28.8530 C   0  0  0  0  0  0  0  0  0  0  0  0
   -3.0110   21.7270  -30.0800 C   0  0  0  0  0  0  0  0  0  0  0  0
   -3.4930   22.9140  -30.6460 C   0  0  0  0  0  0  0  0  0  0  0  0
   -4.1330   22.8220  -31.8950 O   0  0  0  0  0  0  0  0  0  0  0  0
   -4.9350   21.7500  -32.3150 C   0  0  0  0  0  0  0  0  0  0  0  0
   -4.3350   20.6460  -32.9330 C   0  0  0  0  0  0  0  0  0  0  0  0
   -2.9530   20.6490  -33.2100 C   0  0  0  0  0  0  0  0  0  0  0  0
   -2.3590   19.5690  -33.8580 C   0  0  0  0  0  0  0  0  0  0  0  0
   -3.1330   18.4800  -34.2480 C   0  0  0  0  0  0  0  0  0  0  0  0
   -4.4990   18.4500  -33.9660 C   0  0  0  0  0  0  0  0  0  0  0  0
   -5.1250   19.5170  -33.2710 C   0  0  0  0  0  0  0  0  0  0  0  0
   -6.4650   19.4820  -32.9310 N   0  0  0  0  0  0  0  0  0  0  0  0
   -7.2180   18.2110  -33.0120 C   0  0  0  0  0  0  0  0  0  0  0  0
   -7.0960   20.6340  -32.4950 C   0  0  0  0  0  0  0  0  0  0  0  0
   -8.5080   20.7200  -32.3910 C   0  0  0  0  0  0  0  0  0  0  0  0
   -9.1260   21.8790  -31.9220 C   0  0  0  0  0  0  0  0  0  0  0  0
   -8.3620   22.9870  -31.5690 C   0  0  0  0  0  0  0  0  0  0  0  0
   -6.9770   22.9460  -31.6960 C   0  0  0  0  0  0  0  0  0  0  0  0
   -6.3300   21.7820  -32.1580 C   0  0  0  0  0  0  0  0  0  0  0  0
   -5.6043   25.7497  -29.4474 H   0  0  0  0  0  0  0  0  0  0  0  0
   -5.3857   26.6209  -31.0031 H   0  0  0  0  0  0  0  0  0  0  0  0
   -5.8186   24.8775  -31.0031 H   0  0  0  0  0  0  0  0  0  0  0  0
   -2.5070   25.0790  -28.1662 H   0  0  0  0  0  0  0  0  0  0  0  0
   -1.6338   22.9518  -27.2073 H   0  0  0  0  0  0  0  0  0  0  0  0
   -1.9679   20.8000  -28.4235 H   0  0  0  0  0  0  0  0  0  0  0  0
   -3.1577   20.7739  -30.6092 H   0  0  0  0  0  0  0  0  0  0  0  0
   -2.3387   21.5114  -32.9119 H   0  0  0  0  0  0  0  0  0  0  0  0
   -1.2780   19.5766  -34.0616 H   0  0  0  0  0  0  0  0  0  0  0  0
   -2.6655   17.6390  -34.7811 H   0  0  0  0  0  0  0  0  0  0  0  0
   -5.0997   17.5863  -34.2872 H   0  0  0  0  0  0  0  0  0  0  0  0
   -7.4336   17.8472  -31.9965 H   0  0  0  0  0  0  0  0  0  0  0  0
   -8.1629   18.3782  -33.5498 H   0  0  0  0  0  0  0  0  0  0  0  0
   -6.6174   17.4626  -33.5498 H   0  0  0  0  0  0  0  0  0  0  0  0
   -9.1256   19.8586  -32.6850 H   0  0  0  0  0  0  0  0  0  0  0  0
  -10.2215   21.9173  -31.8308 H   0  0  0  0  0  0  0  0  0  0  0  0
   -8.8529   23.8953  -31.1895 H   0  0  0  0  0  0  0  0  0  0  0  0
   -6.3803   23.8318  -31.4329 H   0  0  0  0  0  0  0  0  0  0  0  0
  1  2  1  0
  2  3  1  0
  3  4  2  0
  4  5  1  0
  5  6  2  0
  6  7  1  0
  7  8  2  0
  8  9  1  0
  9 10  1  0
 10 11  1  0
 11 12  2  0
 12 13  1  0
 13 14  2  0
 14 15  1  0
 15 16  2  0
 16 17  1  0
 17 18  1  0
 17 19  2  0
 19 20  1  0
 20 21  2  0
 21 22  1  0
 22 23  2  0
 23 24  1  0
  8  3  1  0
 24 10  2  0
 16 11  1  0
 24 19  1  0
  1 25  1  0
  1 26  1  0
  1 27  1  0
  4 28  1  0
  5 29  1  0
  6 30  1  0
  7 31  1  0
 12 32  1  0
 13 33  1  0
 14 34  1  0
 15 35  1  0
 18 36  1  0
 18 37  1  0
 18 38  1  0
 20 39  1  0
 21 40  1  0
 22 41  1  0
 23 42  1  0
M  CHG  1  17   1
M  END
>  <UniqueID>  (17) 
17

>  <SMILES>  (17) 
COc1ccccc1Oc1c2ccccc2[n+](C)c2ccccc12

>  <Energy>  (17) 
75.3162728150248

>  <Genealogy>  (17) 
COc1ccccc1Oc1c2ccccc2[n+](C)c2ccccc12 (3D coordinates assigned)
COc1ccccc1Oc1c2ccccc2[n+](C)c2ccccc12 (optimized conformer: 75.3162728150248 kcal/mol)

>  <smiles>  (17) 
COc1ccccc1Oc1c2ccccc2[n+](C)c2ccccc12

>  <score_type>  (17) 
oracle

>  <origin>  (17) 
adg

>  <m_score__min__energy>  (17) 
-8.9800000000000004

>  <m_primary>  (17) 
energy

$$$$
17:0
     RDKit          3D

 42 45  0  0  0  0  0  0  0  0999 V2000
   -2.3710   17.7190  -33.0860 C   0  0  0  0  0  0  0  0  0  0  0  0
   -3.7520   18.0520  -33.5640 C   0  0  0  0  0  0  0  0  0  0  0  0
   -4.5680   17.1050  -34.1080 N   0  0  0  0  0  0  0  0  0  0  0  0
   -5.7540   17.5980  -34.5230 C   0  0  0  0  0  0  0  0  0  0  0  0
   -5.8370   19.2490  -34.2330 S   0  0  0  0  0  0  0  0  0  0  0  0
   -4.3050   19.3400  -33.5330 C   0  0  0  0  0  0  0  0  0  0  0  0
   -3.6640   20.6000  -32.9900 C   0  0  0  0  0  0  0  0  0  0  0  0
   -4.1420   20.9730  -31.6370 N   0  0  0  0  0  0  0  0  0  0  0  0
   -5.4300   20.3410  -31.2690 C   0  0  0  0  0  0  0  0  0  0  0  0
   -6.5980   21.2450  -31.5660 C   0  0  0  0  0  0  0  0  0  0  0  0
   -7.7770   20.7510  -32.1420 C   0  0  0  0  0  0  0  0  0  0  0  0
   -8.8680   21.6000  -32.3320 C   0  0  0  0  0  0  0  0  0  0  0  0
   -8.7980   22.9350  -31.9220 C   0  0  0  0  0  0  0  0  0  0  0  0
   -9.8730   23.7470  -32.0790 F   0  0  0  0  0  0  0  0  0  0  0  0
   -7.6280   23.4300  -31.3370 C   0  0  0  0  0  0  0  0  0  0  0  0
   -6.5030   22.5940  -31.1920 C   0  0  0  0  0  0  0  0  0  0  0  0
   -5.1990   23.0310  -30.5570 C   0  0  2  0  0  0  0  0  0  0  0  0
   -4.9760   24.5680  -30.4430 C   0  0  0  0  0  0  0  0  0  0  0  0
   -3.6050   24.9560  -30.4580 O   0  0  0  0  0  0  0  0  0  0  0  0
   -2.7900   24.0230  -29.7720 C   0  0  0  0  0  0  0  0  0  0  0  0
   -2.7140   22.6860  -30.5390 C   0  0  0  0  0  0  0  0  0  0  0  0
   -4.0060   22.4290  -31.3370 C   0  0  1  0  0  0  0  0  0  0  0  0
   -2.3547   17.7151  -31.9861 H   0  0  0  0  0  0  0  0  0  0  0  0
   -2.0829   16.7257  -33.4605 H   0  0  0  0  0  0  0  0  0  0  0  0
   -1.6619   18.4719  -33.4605 H   0  0  0  0  0  0  0  0  0  0  0  0
   -4.3060   16.0990  -34.2070 H   0  0  0  0  0  0  0  0  0  0  0  0
   -6.5538   17.0015  -34.9862 H   0  0  0  0  0  0  0  0  0  0  0  0
   -2.5760   20.4447  -32.9440 H   0  0  0  0  0  0  0  0  0  0  0  0
   -3.9409   21.4209  -33.6678 H   0  0  0  0  0  0  0  0  0  0  0  0
   -5.5461   19.4086  -31.8410 H   0  0  0  0  0  0  0  0  0  0  0  0
   -5.4174   20.1404  -30.1875 H   0  0  0  0  0  0  0  0  0  0  0  0
   -7.8419   19.6952  -32.4438 H   0  0  0  0  0  0  0  0  0  0  0  0
   -9.7848   21.2184  -32.8052 H   0  0  0  0  0  0  0  0  0  0  0  0
   -7.5860   24.4729  -30.9898 H   0  0  0  0  0  0  0  0  0  0  0  0
   -5.2638   22.6554  -29.5251 H   0  0  0  0  0  0  0  0  0  0  0  0
   -5.4829   25.0550  -31.2891 H   0  0  0  0  0  0  0  0  0  0  0  0
   -5.3846   24.8782  -29.4700 H   0  0  0  0  0  0  0  0  0  0  0  0
   -1.7762   24.4375  -29.6702 H   0  0  0  0  0  0  0  0  0  0  0  0
   -3.2304   23.8344  -28.7818 H   0  0  0  0  0  0  0  0  0  0  0  0
   -1.8628   22.7192  -31.2349 H   0  0  0  0  0  0  0  0  0  0  0  0
   -2.5866   21.8723  -29.8099 H   0  0  0  0  0  0  0  0  0  0  0  0
   -3.9783   22.9291  -32.3163 H   0  0  0  0  0  0  0  0  0  0  0  0
  1  2  1  0
  2  3  1  0
  3  4  2  0
  4  5  1  0
  5  6  1  0
  6  7  1  0
  7  8  1  0
  8  9  1  0
  9 10  1  0
 10 11  2  0
 11 12  1  0
 12 13  2  0
 13 14  1  0
 13 15  1  0
 15 16  2  0
 16 17  1  0
 17 18  1  0
 18 19  1  0
 19 20  1  0
 20 21  1  0
 21 22  1  0
  6  2  2  0
 22  8  1  0
 16 10  1  0
 22 17  1  0
  1 23  1  0
  1 24  1  0
  1 25  1  0
  3 26  1  0
  4 27  1  0
  7 28  1  0
  7 29  1  0
  9 30  1  0
  9 31  1  0
 11 32  1  0
 12 33  1  0
 15 34  1  0
 17 35  1  1
 18 36  1  0
 18 37  1  0
 20 38  1  0
 20 39  1  0
 21 40  1  0
 21 41  1  0
 22 42  1  6
M  CHG  1   3   1
M  END
>  <UniqueID>  (18) 
18

>  <SMILES>  (18) 
Cc1[nH+]csc1CN1Cc2ccc(F)cc2[C@@H]2COCC[C@H]21

>  <Energy>  (18) 
97.23159157476032

>  <Genealogy>  (18) 
Cc1[nH+]csc1CN1Cc2ccc(F)cc2C2COCCC21 (protonated)
Cc1[nH+]csc1CN1Cc2ccc(F)cc2[C@@H]2COCC[C@H]21 (chirality)
Cc1[nH+]csc1CN1Cc2ccc(F)cc2[C@@H]2COCC[C@H]21 (3D coordinates assigned)
Cc1[nH+]csc1CN1Cc2ccc(F)cc2[C@@H]2COCC[C@H]21 (nonaromatic ring conformer: 97.23159157476032 kcal/mol)

>  <smiles>  (18) 
Cc1ncsc1CN1Cc2ccc(F)cc2C2COCCC21

>  <score_type>  (18) 
oracle

>  <origin>  (18) 
adg

>  <m_score__min__energy>  (18) 
-7.5999999999999996

>  <m_primary>  (18) 
energy

$$$$
18:0
     RDKit          3D

 33 33  0  0  0  0  0  0  0  0999 V2000
   -4.2450   24.0600  -28.3770 C   0  0  0  0  0  0  0  0  0  0  0  0
   -3.6140   24.3390  -29.7490 C   0  0  0  0  0  0  0  0  0  0  0  0
   -4.5980   24.5030  -30.8440 N   0  0  0  0  0  0  0  0  0  0  0  0
   -5.6890   25.4230  -30.4740 C   0  0  0  0  0  0  0  0  0  0  0  0
   -5.1070   23.2100  -31.3500 C   0  0  0  0  0  0  0  0  0  0  0  0
   -6.3420   23.4250  -32.2320 C   0  0  0  0  0  0  0  0  0  0  0  0
   -7.2860   22.2530  -32.1210 C   0  0  0  0  0  0  0  0  0  0  0  0
   -8.5840   22.4550  -31.6210 C   0  0  0  0  0  0  0  0  0  0  0  0
   -9.4830   21.3900  -31.5390 C   0  0  0  0  0  0  0  0  0  0  0  0
   -9.1010   20.1180  -31.9610 C   0  0  0  0  0  0  0  0  0  0  0  0
   -7.8200   19.9050  -32.4750 C   0  0  0  0  0  0  0  0  0  0  0  0
   -6.9010   20.9700  -32.5650 C   0  0  0  0  0  0  0  0  0  0  0  0
   -5.6100   20.7910  -33.0910 O   0  0  0  0  0  0  0  0  0  0  0  0
   -5.0440   19.5300  -33.4340 C   0  0  0  0  0  0  0  0  0  0  0  0
   -3.5483   24.3681  -27.5835 H   0  0  0  0  0  0  0  0  0  0  0  0
   -5.1826   24.6275  -28.2824 H   0  0  0  0  0  0  0  0  0  0  0  0
   -4.4562   22.9846  -28.2824 H   0  0  0  0  0  0  0  0  0  0  0  0
   -3.0215   25.2629  -29.6755 H   0  0  0  0  0  0  0  0  0  0  0  0
   -3.0013   23.4610  -30.0013 H   0  0  0  0  0  0  0  0  0  0  0  0
   -5.7614   25.4840  -29.3781 H   0  0  0  0  0  0  0  0  0  0  0  0
   -5.4808   26.4223  -30.8839 H   0  0  0  0  0  0  0  0  0  0  0  0
   -6.6388   25.0491  -30.8839 H   0  0  0  0  0  0  0  0  0  0  0  0
   -4.3209   22.7187  -31.9421 H   0  0  0  0  0  0  0  0  0  0  0  0
   -5.3880   22.5795  -30.4935 H   0  0  0  0  0  0  0  0  0  0  0  0
   -6.8616   24.3393  -31.9094 H   0  0  0  0  0  0  0  0  0  0  0  0
   -6.0174   23.5203  -33.2787 H   0  0  0  0  0  0  0  0  0  0  0  0
   -8.8933   23.4581  -31.2924 H   0  0  0  0  0  0  0  0  0  0  0  0
  -10.4949   21.5553  -31.1405 H   0  0  0  0  0  0  0  0  0  0  0  0
   -9.8099   19.2800  -31.8891 H   0  0  0  0  0  0  0  0  0  0  0  0
   -7.5264   18.8998  -32.8117 H   0  0  0  0  0  0  0  0  0  0  0  0
   -4.7960   18.9775  -32.5157 H   0  0  0  0  0  0  0  0  0  0  0  0
   -5.7688   18.9515  -34.0256 H   0  0  0  0  0  0  0  0  0  0  0  0
   -4.1300   19.6871  -34.0256 H   0  0  0  0  0  0  0  0  0  0  0  0
  1  2  1  0
  2  3  1  0
  3  4  1  0
  3  5  1  0
  5  6  1  0
  6  7  1  0
  7  8  2  0
  8  9  1  0
  9 10  2  0
 10 11  1  0
 11 12  2  0
 12 13  1  0
 13 14  1  0
 12  7  1  0
  1 15  1  0
  1 16  1  0
  1 17  1  0
  2 18  1  0
  2 19  1  0
  4 20  1  0
  4 21  1  0
  4 22  1  0
  5 23  1  0
  5 24  1  0
  6 25  1  0
  6 26  1  0
  8 27  1  0
  9 28  1  0
 10 29  1  0
 11 30  1  0
 14 31  1  0
 14 32  1  0
 14 33  1  0
M  END
>  <UniqueID>  (19) 
19

>  <SMILES>  (19) 
CCN(C)CCc1ccccc1OC

>  <Energy>  (19) 
29.84905810787824

>  <Genealogy>  (19) 
CCN(C)CCc1ccccc1OC (3D coordinates assigned)
CCN(C)CCc1ccccc1OC (optimized conformer: 29.84905810787824 kcal/mol)

>  <smiles>  (19) 
CCN(C)CCc1ccccc1OC

>  <score_type>  (19) 
oracle

>  <origin>  (19) 
adg

>  <m_score__min__energy>  (19) 
-5.6399999999999997

>  <m_primary>  (19) 
energy

$$$$
19:0
     RDKit          3D

 57 61  0  0  0  0  0  0  0  0999 V2000
   -3.6350   22.3820  -27.7180 C   0  0  0  0  0  0  0  0  0  0  0  0
   -4.2610   23.6400  -28.3230 C   0  0  0  0  0  0  0  0  0  0  0  0
   -3.9910   23.7640  -29.7760 N   0  0  0  0  0  0  0  0  0  0  0  0
   -4.7530   24.9040  -30.3400 C   0  0  0  0  0  0  0  0  0  0  0  0
   -6.1780   24.9870  -29.7910 C   0  0  0  0  0  0  0  0  0  0  0  0
   -4.1560   22.4910  -30.5300 C   0  0  0  0  0  0  0  0  0  0  0  0
   -3.5250   22.4840  -31.9350 C   0  0  0  0  0  0  0  0  0  0  0  0
   -4.5510   22.2610  -32.9540 N   0  0  0  0  0  0  0  0  0  0  0  0
   -5.5280   21.2250  -32.7810 C   0  0  0  0  0  0  0  0  0  0  0  0
   -6.8440   21.5460  -32.4150 C   0  0  0  0  0  0  0  0  0  0  0  0
   -7.2620   22.8890  -32.3030 C   0  0  0  0  0  0  0  0  0  0  0  0
   -8.5620   23.1960  -31.9100 C   0  0  0  0  0  0  0  0  0  0  0  0
   -9.4640   22.1760  -31.6260 C   0  0  0  0  0  0  0  0  0  0  0  0
   -9.0720   20.8410  -31.7340 C   0  0  0  0  0  0  0  0  0  0  0  0
   -7.7560   20.4990  -32.1300 C   0  0  0  0  0  0  0  0  0  0  0  0
   -7.3510   19.1840  -32.2270 N   0  0  0  0  0  0  0  0  0  0  0  0
   -8.0680   18.1700  -31.4240 C   0  0  0  0  0  0  0  0  0  0  0  0
   -6.1670   18.8710  -32.8750 C   0  0  0  0  0  0  0  0  0  0  0  0
   -5.1870   19.8850  -33.0300 C   0  0  0  0  0  0  0  0  0  0  0  0
   -3.8800   19.5350  -33.4130 C   0  0  0  0  0  0  0  0  0  0  0  0
   -3.5720   18.2540  -33.7200 N   0  0  0  0  0  0  0  0  0  0  0  0
   -4.5040   17.2730  -33.7310 C   0  0  0  0  0  0  0  0  0  0  0  0
   -4.1330   15.9850  -34.1660 C   0  0  0  0  0  0  0  0  0  0  0  0
   -5.1340   15.0370  -34.3190 C   0  0  0  0  0  0  0  0  0  0  0  0
   -6.4340   15.3240  -34.0800 C   0  0  0  0  0  0  0  0  0  0  0  0
   -6.8460   16.5750  -33.6330 C   0  0  0  0  0  0  0  0  0  0  0  0
   -5.8590   17.5650  -33.3730 C   0  0  0  0  0  0  0  0  0  0  0  0
   -7.2100   14.2170  -34.3660 O   0  0  0  0  0  0  0  0  0  0  0  0
   -6.3370   13.1650  -34.8020 C   0  0  0  0  0  0  0  0  0  0  0  0
   -5.0210   13.7320  -34.7600 O   0  0  0  0  0  0  0  0  0  0  0  0
   -3.6677   22.4477  -26.6204 H   0  0  0  0  0  0  0  0  0  0  0  0
   -4.1977   21.4968  -28.0493 H   0  0  0  0  0  0  0  0  0  0  0  0
   -2.5895   22.2970  -28.0493 H   0  0  0  0  0  0  0  0  0  0  0  0
   -5.3494   23.6024  -28.1680 H   0  0  0  0  0  0  0  0  0  0  0  0
   -3.8122   24.5111  -27.8233 H   0  0  0  0  0  0  0  0  0  0  0  0
   -4.2254   25.8371  -30.0933 H   0  0  0  0  0  0  0  0  0  0  0  0
   -4.8228   24.7531  -31.4274 H   0  0  0  0  0  0  0  0  0  0  0  0
   -6.1480   24.9853  -28.6914 H   0  0  0  0  0  0  0  0  0  0  0  0
   -6.6533   25.9143  -30.1434 H   0  0  0  0  0  0  0  0  0  0  0  0
   -6.7577   24.1211  -30.1434 H   0  0  0  0  0  0  0  0  0  0  0  0
   -3.6932   21.6838  -29.9434 H   0  0  0  0  0  0  0  0  0  0  0  0
   -5.2379   22.3569  -30.6766 H   0  0  0  0  0  0  0  0  0  0  0  0
   -3.0370   23.4527  -32.1180 H   0  0  0  0  0  0  0  0  0  0  0  0
   -2.7853   21.6717  -31.9898 H   0  0  0  0  0  0  0  0  0  0  0  0
   -4.5010   22.7490  -33.8770 H   0  0  0  0  0  0  0  0  0  0  0  0
   -6.5546   23.7007  -32.5282 H   0  0  0  0  0  0  0  0  0  0  0  0
   -8.8761   24.2467  -31.8240 H   0  0  0  0  0  0  0  0  0  0  0  0
  -10.4900   22.4225  -31.3152 H   0  0  0  0  0  0  0  0  0  0  0  0
   -9.7951   20.0434  -31.5084 H   0  0  0  0  0  0  0  0  0  0  0  0
   -7.9207   18.3784  -30.3540 H   0  0  0  0  0  0  0  0  0  0  0  0
   -9.1417   18.2072  -31.6604 H   0  0  0  0  0  0  0  0  0  0  0  0
   -7.6750   17.1702  -31.6604 H   0  0  0  0  0  0  0  0  0  0  0  0
   -3.1009   20.3099  -33.4634 H   0  0  0  0  0  0  0  0  0  0  0  0
   -3.0820   15.7389  -34.3777 H   0  0  0  0  0  0  0  0  0  0  0  0
   -7.9136   16.7940  -33.4837 H   0  0  0  0  0  0  0  0  0  0  0  0
   -6.4068   12.2999  -34.1261 H   0  0  0  0  0  0  0  0  0  0  0  0
   -6.5981   12.8020  -35.8070 H   0  0  0  0  0  0  0  0  0  0  0  0
  1  2  1  0
  2  3  1  0
  3  4  1  0
  4  5  1  0
  3  6  1  0
  6  7  1  0
  7  8  1  0
  8  9  1  0
  9 10  2  0
 10 11  1  0
 11 12  2  0
 12 13  1  0
 13 14  2  0
 14 15  1  0
 15 16  2  0
 16 17  1  0
 16 18  1  0
 18 19  2  0
 19 20  1  0
 20 21  2  0
 21 22  1  0
 22 23  2  0
 23 24  1  0
 24 25  2  0
 25 26  1  0
 26 27  2  0
 25 28  1  0
 28 29  1  0
 29 30  1  0
 19  9  1  0
 27 22  1  0
 15 10  1  0
 27 18  1  0
 30 24  1  0
  1 31  1  0
  1 32  1  0
  1 33  1  0
  2 34  1  0
  2 35  1  0
  4 36  1  0
  4 37  1  0
  5 38  1  0
  5 39  1  0
  5 40  1  0
  6 41  1  0
  6 42  1  0
  7 43  1  0
  7 44  1  0
  8 45  1  0
 11 46  1  0
 12 47  1  0
 13 48  1  0
 14 49  1  0
 17 50  1  0
 17 51  1  0
 17 52  1  0
 20 53  1  0
 23 54  1  0
 26 55  1  0
 29 56  1  0
 29 57  1  0
M  CHG  1  16   1
M  END
>  <UniqueID>  (20) 
20

>  <SMILES>  (20) 
CCN(CC)CCNc1c2ccccc2[n+](C)c2c1cnc1cc3c(cc12)OCO3

>  <Energy>  (20) 
132.30592300284476

>  <Genealogy>  (20) 
CCN(CC)CCNc1c2ccccc2[n+](C)c2c1cnc1cc3c(cc12)OCO3 (3D coordinates assigned)
CCN(CC)CCNc1c2ccccc2[n+](C)c2c1cnc1cc3c(cc12)OCO3 (nonaromatic ring conformer: 132.30592300284476 kcal/mol)

>  <smiles>  (20) 
CCN(CC)CCNc1c2ccccc2[n+](C)c2c1cnc1cc3c(cc12)OCO3

>  <score_type>  (20) 
oracle

>  <origin>  (20) 
adg

>  <m_score__min__energy>  (20) 
-9.3000000000000007

>  <m_primary>  (20) 
energy

$$$$
20:0
     RDKit          3D

 35 37  0  0  0  0  0  0  0  0999 V2000
   -8.0190   23.0730  -31.9690 C   0  0  0  0  0  0  0  0  0  0  0  0
   -7.2650   22.0490  -32.6100 O   0  0  0  0  0  0  0  0  0  0  0  0
   -7.4840   20.6720  -32.4390 C   0  0  0  0  0  0  0  0  0  0  0  0
   -8.5800   20.1800  -31.7010 C   0  0  0  0  0  0  0  0  0  0  0  0
   -8.7640   18.8050  -31.5430 C   0  0  0  0  0  0  0  0  0  0  0  0
   -7.8620   17.9070  -32.1120 C   0  0  0  0  0  0  0  0  0  0  0  0
   -6.7730   18.3790  -32.8460 C   0  0  0  0  0  0  0  0  0  0  0  0
   -6.5790   19.7600  -33.0210 C   0  0  0  0  0  0  0  0  0  0  0  0
   -5.3690   20.2530  -33.7740 C   0  0  0  0  0  0  0  0  0  0  0  0
   -4.7150   21.3310  -33.0300 N   0  0  0  0  0  0  0  0  0  0  0  0
   -3.5240   21.1350  -32.2480 C   0  0  0  0  0  0  0  0  0  0  0  0
   -2.8010   19.9340  -32.3710 C   0  0  0  0  0  0  0  0  0  0  0  0
   -1.6030   19.7490  -31.6800 C   0  0  0  0  0  0  0  0  0  0  0  0
   -1.1050   20.7610  -30.8640 C   0  0  0  0  0  0  0  0  0  0  0  0
   -1.8080   21.9580  -30.7250 C   0  0  0  0  0  0  0  0  0  0  0  0
   -3.0270   22.1600  -31.4000 C   0  0  0  0  0  0  0  0  0  0  0  0
   -3.7690   23.4200  -31.1550 C   0  0  0  0  0  0  0  0  0  0  0  0
   -3.3010   24.4690  -30.4560 N   0  0  0  0  0  0  0  0  0  0  0  0
   -4.2540   25.3840  -30.5330 N   0  0  0  0  0  0  0  0  0  0  0  0
   -5.2600   24.9190  -31.2560 N   0  0  0  0  0  0  0  0  0  0  0  0
   -4.9850   23.6920  -31.6670 N   0  0  0  0  0  0  0  0  0  0  0  0
   -7.9363   22.9608  -30.8779 H   0  0  0  0  0  0  0  0  0  0  0  0
   -7.6283   24.0571  -32.2670 H   0  0  0  0  0  0  0  0  0  0  0  0
   -9.0748   22.9921  -32.2670 H   0  0  0  0  0  0  0  0  0  0  0  0
   -9.2939   20.8832  -31.2473 H   0  0  0  0  0  0  0  0  0  0  0  0
   -9.6231   18.4292  -30.9679 H   0  0  0  0  0  0  0  0  0  0  0  0
   -8.0090   16.8246  -31.9821 H   0  0  0  0  0  0  0  0  0  0  0  0
   -6.0625   17.6663  -33.2901 H   0  0  0  0  0  0  0  0  0  0  0  0
   -4.6607   19.4220  -33.9076 H   0  0  0  0  0  0  0  0  0  0  0  0
   -5.6880   20.6359  -34.7546 H   0  0  0  0  0  0  0  0  0  0  0  0
   -5.1650   22.2750  -33.0440 H   0  0  0  0  0  0  0  0  0  0  0  0
   -3.1845   19.1322  -33.0191 H   0  0  0  0  0  0  0  0  0  0  0  0
   -1.0515   18.8025  -31.7801 H   0  0  0  0  0  0  0  0  0  0  0  0
   -0.1554   20.6166  -30.3278 H   0  0  0  0  0  0  0  0  0  0  0  0
   -1.4052   22.7533  -30.0805 H   0  0  0  0  0  0  0  0  0  0  0  0
  1  2  1  0
  2  3  1  0
  3  4  2  0
  4  5  1  0
  5  6  2  0
  6  7  1  0
  7  8  2  0
  8  9  1  0
  9 10  1  0
 10 11  1  0
 11 12  2  0
 12 13  1  0
 13 14  2  0
 14 15  1  0
 15 16  2  0
 16 17  1  0
 17 18  1  0
 18 19  2  0
 19 20  1  0
 20 21  1  0
  8  3  1  0
 16 11  1  0
 21 17  2  0
  1 22  1  0
  1 23  1  0
  1 24  1  0
  4 25  1  0
  5 26  1  0
  6 27  1  0
  7 28  1  0
  9 29  1  0
  9 30  1  0
 10 31  1  0
 12 32  1  0
 13 33  1  0
 14 34  1  0
 15 35  1  0
M  CHG  1  20  -1
M  END
>  <UniqueID>  (21) 
21

>  <SMILES>  (21) 
COc1ccccc1CNc1ccccc1-c1nn[n-]n1

>  <Energy>  (21) 
79.08922686814677

>  <Genealogy>  (21) 
COc1ccccc1CNc1ccccc1-c1nn[n-]n1 (protonated)
COc1ccccc1CNc1ccccc1-c1nn[n-]n1 (3D coordinates assigned)
COc1ccccc1CNc1ccccc1-c1nn[n-]n1 (optimized conformer: 79.08922686814677 kcal/mol)

>  <smiles>  (21) 
COc1ccccc1CNc1ccccc1-c1nn[nH]n1

>  <score_type>  (21) 
oracle

>  <origin>  (21) 
adg

>  <m_score__min__energy>  (21) 
-8.9700000000000006

>  <m_primary>  (21) 
energy

$$$$
21:0
     RDKit          3D

 72 76  0  0  0  0  0  0  0  0999 V2000
   -2.7320   20.8490  -29.3960 C   0  0  0  0  0  0  0  0  0  0  0  0
   -1.2770   20.4270  -29.1860 C   0  0  0  0  0  0  0  0  0  0  0  0
   -0.3800   20.9650  -30.3090 C   0  0  0  0  0  0  0  0  0  0  0  0
    0.0900   19.8620  -31.2700 C   0  0  0  0  0  0  0  0  0  0  0  0
    0.9660   20.4100  -32.4130 C   0  0  0  0  0  0  0  0  0  0  0  0
    0.1430   21.1720  -33.4600 C   0  0  0  0  0  0  0  0  0  0  0  0
   -1.2890   20.7210  -33.4820 C   0  0  0  0  0  0  0  0  0  0  0  0
   -2.2940   21.4930  -32.8790 C   0  0  0  0  0  0  0  0  0  0  0  0
   -3.5950   20.9980  -32.9260 C   0  0  0  0  0  0  0  0  0  0  0  0
   -4.7780   21.5090  -32.4320 C   0  0  0  0  0  0  0  0  0  0  0  0
   -5.0370   22.6700  -31.6980 C   0  0  0  0  0  0  0  0  0  0  0  0
   -3.9850   23.5330  -31.3580 O   0  0  0  0  0  0  0  0  0  0  0  0
   -3.7110   23.9890  -30.0370 C   0  0  0  0  0  0  0  0  0  0  0  0
   -6.3710   22.9250  -31.3270 C   0  0  0  0  0  0  0  0  0  0  0  0
   -7.3980   22.0150  -31.6530 C   0  0  0  0  0  0  0  0  0  0  0  0
   -7.1170   20.8250  -32.3670 C   0  0  0  0  0  0  0  0  0  0  0  0
   -5.7760   20.6190  -32.7960 C   0  0  0  0  0  0  0  0  0  0  0  0
   -5.2590   19.6050  -33.5510 N   0  0  0  0  0  0  0  0  0  0  0  0
   -5.9960   18.8650  -34.5760 C   0  0  0  0  0  0  0  0  0  0  0  0
   -3.9090   19.8110  -33.5570 C   0  0  0  0  0  0  0  0  0  0  0  0
   -2.8690   19.0040  -34.0800 C   0  0  0  0  0  0  0  0  0  0  0  0
   -3.0220   17.5370  -34.4310 C   0  0  0  0  0  0  0  0  0  0  0  0
   -1.7380   16.7970  -34.3640 N   0  0  0  0  0  0  0  0  0  0  0  0
   -1.6310   15.8060  -35.4550 C   0  0  0  0  0  0  0  0  0  0  0  0
   -0.3030   15.0150  -35.3590 C   0  0  0  0  0  0  0  0  0  0  0  0
    0.3900   15.2680  -34.1490 O   0  0  0  0  0  0  0  0  0  0  0  0
   -0.4800   15.0720  -33.0560 C   0  0  0  0  0  0  0  0  0  0  0  0
   -1.6030   16.1320  -33.0480 C   0  0  0  0  0  0  0  0  0  0  0  0
   -1.5960   19.5010  -34.0150 N   0  0  0  0  0  0  0  0  0  0  0  0
   -8.1660   19.7280  -32.3620 C   0  0  0  0  0  0  0  0  0  0  0  0
   -9.6270   20.2210  -32.1640 C   0  0  0  0  0  0  0  0  0  0  0  0
   -9.7620   21.6860  -32.1160 N   0  0  0  0  0  0  0  0  0  0  0  0
   -8.8000   22.2740  -31.1810 C   0  0  0  0  0  0  0  0  0  0  0  0
   -3.2176   20.9898  -28.4191 H   0  0  0  0  0  0  0  0  0  0  0  0
   -2.7623   21.7929  -29.9600 H   0  0  0  0  0  0  0  0  0  0  0  0
   -3.2626   20.0677  -29.9600 H   0  0  0  0  0  0  0  0  0  0  0  0
   -0.9233   20.8227  -28.2225 H   0  0  0  0  0  0  0  0  0  0  0  0
   -1.2265   19.3282  -29.1936 H   0  0  0  0  0  0  0  0  0  0  0  0
   -0.9450   21.7146  -30.8825 H   0  0  0  0  0  0  0  0  0  0  0  0
    0.5143   21.4018  -29.8405 H   0  0  0  0  0  0  0  0  0  0  0  0
    0.6738   19.1234  -30.7010 H   0  0  0  0  0  0  0  0  0  0  0  0
   -0.8045   19.4087  -31.7220 H   0  0  0  0  0  0  0  0  0  0  0  0
    1.7170   21.0921  -31.9879 H   0  0  0  0  0  0  0  0  0  0  0  0
    1.4409   19.5539  -32.9146 H   0  0  0  0  0  0  0  0  0  0  0  0
    0.1742   22.2460  -33.2242 H   0  0  0  0  0  0  0  0  0  0  0  0
    0.5794   20.9708  -34.4495 H   0  0  0  0  0  0  0  0  0  0  0  0
   -2.0635   22.4505  -32.3890 H   0  0  0  0  0  0  0  0  0  0  0  0
   -4.1359   23.2818  -29.3095 H   0  0  0  0  0  0  0  0  0  0  0  0
   -2.6229   24.0561  -29.8906 H   0  0  0  0  0  0  0  0  0  0  0  0
   -4.1626   24.9813  -29.8906 H   0  0  0  0  0  0  0  0  0  0  0  0
   -6.6152   23.8453  -30.7761 H   0  0  0  0  0  0  0  0  0  0  0  0
   -6.6933   18.1649  -34.0927 H   0  0  0  0  0  0  0  0  0  0  0  0
   -6.5607   19.5707  -35.2029 H   0  0  0  0  0  0  0  0  0  0  0  0
   -5.2880   18.3031  -35.2029 H   0  0  0  0  0  0  0  0  0  0  0  0
   -3.7303   17.0781  -33.7255 H   0  0  0  0  0  0  0  0  0  0  0  0
   -3.3861   17.4788  -35.4673 H   0  0  0  0  0  0  0  0  0  0  0  0
   -0.9480   17.4760  -34.4560 H   0  0  0  0  0  0  0  0  0  0  0  0
   -2.4741   15.1029  -35.3861 H   0  0  0  0  0  0  0  0  0  0  0  0
   -1.6517   16.3401  -36.4164 H   0  0  0  0  0  0  0  0  0  0  0  0
   -0.5270   13.9398  -35.4197 H   0  0  0  0  0  0  0  0  0  0  0  0
    0.3417   15.3397  -36.1890 H   0  0  0  0  0  0  0  0  0  0  0  0
   -0.9302   14.0710  -33.1291 H   0  0  0  0  0  0  0  0  0  0  0  0
    0.0986   15.1662  -32.1252 H   0  0  0  0  0  0  0  0  0  0  0  0
   -2.5549   15.6409  -32.7975 H   0  0  0  0  0  0  0  0  0  0  0  0
   -1.3461   16.8980  -32.3016 H   0  0  0  0  0  0  0  0  0  0  0  0
   -8.1114   19.1985  -33.3246 H   0  0  0  0  0  0  0  0  0  0  0  0
   -7.9372   19.0860  -31.4986 H   0  0  0  0  0  0  0  0  0  0  0  0
  -10.2355   19.8445  -32.9994 H   0  0  0  0  0  0  0  0  0  0  0  0
   -9.9634   19.8378  -31.1893 H   0  0  0  0  0  0  0  0  0  0  0  0
   -9.5870   22.0720  -33.0770 H   0  0  0  0  0  0  0  0  0  0  0  0
   -8.9687   23.3593  -31.1198 H   0  0  0  0  0  0  0  0  0  0  0  0
   -8.9364   21.8178  -30.1894 H   0  0  0  0  0  0  0  0  0  0  0  0
  1  2  1  0
  2  3  1  0
  3  4  1  0
  4  5  1  0
  5  6  1  0
  6  7  1  0
  7  8  2  0
  8  9  1  0
  9 10  1  0
 10 11  2  0
 11 12  1  0
 12 13  1  0
 11 14  1  0
 14 15  2  0
 15 16  1  0
 16 17  2  0
 17 18  1  0
 18 19  1  0
 18 20  1  0
 20 21  1  0
 21 22  1  0
 22 23  1  0
 23 24  1  0
 24 25  1  0
 25 26  1  0
 26 27  1  0
 27 28  1  0
 21 29  2  0
 16 30  1  0
 30 31  1  0
 31 32  1  0
 32 33  1  0
 29  7  1  0
 20  9  2  0
 28 23  1  0
 17 10  1  0
 33 15  1  0
  1 34  1  0
  1 35  1  0
  1 36  1  0
  2 37  1  0
  2 38  1  0
  3 39  1  0
  3 40  1  0
  4 41  1  0
  4 42  1  0
  5 43  1  0
  5 44  1  0
  6 45  1  0
  6 46  1  0
  8 47  1  0
 13 48  1  0
 13 49  1  0
 13 50  1  0
 14 51  1  0
 19 52  1  0
 19 53  1  0
 19 54  1  0
 22 55  1  0
 22 56  1  0
 23 57  1  0
 24 58  1  0
 24 59  1  0
 25 60  1  0
 25 61  1  0
 27 62  1  0
 27 63  1  0
 28 64  1  0
 28 65  1  0
 30 66  1  0
 30 67  1  0
 31 68  1  0
 31 69  1  0
 32 70  1  0
 33 71  1  0
 33 72  1  0
M  CHG  1  23   1
M  END
>  <UniqueID>  (22) 
22

>  <SMILES>  (22) 
CCCCCCc1cc2c3c(OC)cc4c(c3n(C)c2c(C[NH+]2CCOCC2)n1)CCNC4

>  <Energy>  (22) 
140.85278158998588

>  <Genealogy>  (22) 
CCCCCCc1cc2c3c(OC)cc4c(c3n(C)c2c(C[NH+]2CCOCC2)n1)CCNC4 (protonated)
CCCCCCc1cc2c3c(OC)cc4c(c3n(C)c2c(C[NH+]2CCOCC2)n1)CCNC4 (3D coordinates assigned)
CCCCCCc1cc2c3c(OC)cc4c(c3n(C)c2c(C[NH+]2CCOCC2)n1)CCNC4 (nonaromatic ring conformer: 140.85278158998588 kcal/mol)

>  <smiles>  (22) 
CCCCCCc1cc2c3c(OC)cc4c(c3n(C)c2c(CN2CCOCC2)n1)CCNC4

>  <score_type>  (22) 
oracle

>  <origin>  (22) 
adg

>  <m_score__min__energy>  (22) 
-7.71

>  <m_primary>  (22) 
energy

$$$$
22:0
     RDKit          3D

 60 63  0  0  0  0  0  0  0  0999 V2000
    0.2960   25.0850  -36.3620 C   0  0  0  0  0  0  0  0  0  0  0  0
    0.2440   23.5860  -36.0770 C   0  0  0  0  0  0  0  0  0  0  0  0
    1.4520   23.1520  -35.3370 N   0  0  0  0  0  0  0  0  0  0  0  0
    2.6810   23.4470  -36.1080 C   0  0  0  0  0  0  0  0  0  0  0  0
    3.4520   24.5950  -35.4610 C   0  0  0  0  0  0  0  0  0  0  0  0
    1.3770   21.7170  -34.9720 C   0  0  0  0  0  0  0  0  0  0  0  0
   -0.0480   21.1890  -35.1650 C   0  0  0  0  0  0  0  0  0  0  0  0
   -0.2790   20.1390  -34.2490 O   0  0  0  0  0  0  0  0  0  0  0  0
   -1.6510   19.8070  -34.2240 C   0  0  0  0  0  0  0  0  0  0  0  0
   -2.3980   20.8940  -33.4600 C   0  0  0  0  0  0  0  0  0  0  0  0
   -1.6300   21.2790  -32.3230 O   0  0  0  0  0  0  0  0  0  0  0  0
   -2.1380   21.9030  -31.1740 C   0  0  0  0  0  0  0  0  0  0  0  0
   -1.5420   21.7570  -29.8920 C   0  0  0  0  0  0  0  0  0  0  0  0
   -2.1320   22.3400  -28.7580 C   0  0  0  0  0  0  0  0  0  0  0  0
   -3.2990   23.0720  -28.9460 C   0  0  0  0  0  0  0  0  0  0  0  0
   -4.0280   23.6870  -27.9940 N   0  0  0  0  0  0  0  0  0  0  0  0
   -5.0450   24.2480  -28.6410 N   0  0  0  0  0  0  0  0  0  0  0  0
   -4.9220   23.9770  -29.9570 C   0  0  0  0  0  0  0  0  0  0  0  0
   -6.0600   24.5570  -31.2160 S   0  0  0  0  0  0  0  0  0  0  0  0
   -6.8070   22.9430  -31.4320 C   0  0  0  0  0  0  0  0  0  0  0  0
   -8.0400   22.6660  -30.8310 C   0  0  0  0  0  0  0  0  0  0  0  0
   -8.6310   21.4100  -30.9820 C   0  0  0  0  0  0  0  0  0  0  0  0
   -7.9980   20.4200  -31.7480 C   0  0  0  0  0  0  0  0  0  0  0  0
   -8.5910   19.1600  -31.9210 C   0  0  0  0  0  0  0  0  0  0  0  0
   -7.9510   18.1830  -32.6890 C   0  0  0  0  0  0  0  0  0  0  0  0
   -6.7170   18.4530  -33.2860 C   0  0  0  0  0  0  0  0  0  0  0  0
   -6.1130   19.7040  -33.1190 C   0  0  0  0  0  0  0  0  0  0  0  0
   -6.7460   20.6960  -32.3530 C   0  0  0  0  0  0  0  0  0  0  0  0
   -6.1540   21.9560  -32.1820 C   0  0  0  0  0  0  0  0  0  0  0  0
   -3.8260   23.2320  -30.1710 N   0  0  0  0  0  0  0  0  0  0  0  0
   -3.3020   22.6820  -31.2940 C   0  0  0  0  0  0  0  0  0  0  0  0
    0.3152   25.6385  -35.4116 H   0  0  0  0  0  0  0  0  0  0  0  0
    1.2027   25.3171  -36.9399 H   0  0  0  0  0  0  0  0  0  0  0  0
   -0.5925   25.3794  -36.9399 H   0  0  0  0  0  0  0  0  0  0  0  0
   -0.6485   23.3638  -35.4736 H   0  0  0  0  0  0  0  0  0  0  0  0
    0.2017   23.0451  -37.0339 H   0  0  0  0  0  0  0  0  0  0  0  0
    3.3180   22.5505  -36.1318 H   0  0  0  0  0  0  0  0  0  0  0  0
    2.3996   23.7377  -37.1309 H   0  0  0  0  0  0  0  0  0  0  0  0
    3.3921   24.5059  -34.3663 H   0  0  0  0  0  0  0  0  0  0  0  0
    4.5053   24.5524  -35.7753 H   0  0  0  0  0  0  0  0  0  0  0  0
    3.0141   25.5539  -35.7753 H   0  0  0  0  0  0  0  0  0  0  0  0
    2.0651   21.1443  -35.6112 H   0  0  0  0  0  0  0  0  0  0  0  0
    1.6588   21.6032  -33.9148 H   0  0  0  0  0  0  0  0  0  0  0  0
   -0.7690   22.0001  -34.9853 H   0  0  0  0  0  0  0  0  0  0  0  0
   -0.1699   20.8178  -36.1933 H   0  0  0  0  0  0  0  0  0  0  0  0
   -2.0364   19.7447  -35.2524 H   0  0  0  0  0  0  0  0  0  0  0  0
   -1.7943   18.8339  -33.7314 H   0  0  0  0  0  0  0  0  0  0  0  0
   -2.5496   21.7654  -34.1139 H   0  0  0  0  0  0  0  0  0  0  0  0
   -3.3759   20.5108  -33.1332 H   0  0  0  0  0  0  0  0  0  0  0  0
   -0.6101   21.1822  -29.7867 H   0  0  0  0  0  0  0  0  0  0  0  0
   -1.6873   22.2217  -27.7589 H   0  0  0  0  0  0  0  0  0  0  0  0
   -5.8000   24.8060  -28.1880 H   0  0  0  0  0  0  0  0  0  0  0  0
   -8.5459   23.4413  -30.2369 H   0  0  0  0  0  0  0  0  0  0  0  0
   -9.5958   21.1963  -30.4988 H   0  0  0  0  0  0  0  0  0  0  0  0
   -9.5613   18.9407  -31.4514 H   0  0  0  0  0  0  0  0  0  0  0  0
   -8.4208   17.1976  -32.8239 H   0  0  0  0  0  0  0  0  0  0  0  0
   -6.2188   17.6797  -33.8892 H   0  0  0  0  0  0  0  0  0  0  0  0
   -5.1401   19.9108  -33.5888 H   0  0  0  0  0  0  0  0  0  0  0  0
   -5.1757   22.1696  -32.6373 H   0  0  0  0  0  0  0  0  0  0  0  0
   -3.7756   22.8413  -32.2740 H   0  0  0  0  0  0  0  0  0  0  0  0
  1  2  1  0
  2  3  1  0
  3  4  1  0
  4  5  1  0
  3  6  1  0
  6  7  1  0
  7  8  1  0
  8  9  1  0
  9 10  1  0
 10 11  1  0
 11 12  1  0
 12 13  1  0
 13 14  2  0
 14 15  1  0
 15 16  2  0
 16 17  1  0
 17 18  2  0
 18 19  1  0
 19 20  1  0
 20 21  2  0
 21 22  1  0
 22 23  2  0
 23 24  1  0
 24 25  2  0
 25 26  1  0
 26 27  2  0
 27 28  1  0
 28 29  2  0
 18 30  1  0
 30 31  1  0
 31 12  2  0
 30 15  1  0
 29 20  1  0
 28 23  1  0
  1 32  1  0
  1 33  1  0
  1 34  1  0
  2 35  1  0
  2 36  1  0
  4 37  1  0
  4 38  1  0
  5 39  1  0
  5 40  1  0
  5 41  1  0
  6 42  1  0
  6 43  1  0
  7 44  1  0
  7 45  1  0
  9 46  1  0
  9 47  1  0
 10 48  1  0
 10 49  1  0
 13 50  1  0
 14 51  1  0
 17 52  1  0
 21 53  1  0
 22 54  1  0
 24 55  1  0
 25 56  1  0
 26 57  1  0
 27 58  1  0
 29 59  1  0
 31 60  1  0
M  CHG  1  17   1
M  END
>  <UniqueID>  (23) 
23

>  <SMILES>  (23) 
CCN(CC)CCOCCOc1ccc2n[nH+]c(Sc3ccc4ccccc4c3)n2c1

>  <Energy>  (23) 
99.38968815706211

>  <Genealogy>  (23) 
CCN(CC)CCOCCOc1ccc2n[nH+]c(Sc3ccc4ccccc4c3)n2c1 (protonated)
CCN(CC)CCOCCOc1ccc2n[nH+]c(Sc3ccc4ccccc4c3)n2c1 (3D coordinates assigned)
CCN(CC)CCOCCOc1ccc2n[nH+]c(Sc3ccc4ccccc4c3)n2c1 (optimized conformer: 99.38968815706211 kcal/mol)

>  <smiles>  (23) 
CCN(CC)CCOCCOc1ccc2nnc(Sc3ccc4ccccc4c3)n2c1

>  <score_type>  (23) 
oracle

>  <origin>  (23) 
adg

>  <m_score__min__energy>  (23) 
-8.6899999999999995

>  <m_primary>  (23) 
energy

$$$$
23:0
     RDKit          3D

 44 45  0  0  0  0  0  0  0  0999 V2000
   -3.5230   24.5540  -27.0360 C   0  0  0  0  0  0  0  0  0  0  0  0
   -2.2530   25.2620  -27.4970 C   0  0  0  0  0  0  0  0  0  0  0  0
   -2.0450   25.0830  -28.9000 O   0  0  0  0  0  0  0  0  0  0  0  0
   -2.4250   23.9800  -29.6900 C   0  0  0  0  0  0  0  0  0  0  0  0
   -1.6630   22.8070  -29.5540 C   0  0  0  0  0  0  0  0  0  0  0  0
   -0.1800   22.7450  -28.3440 Br  0  0  0  0  0  0  0  0  0  0  0  0
   -1.9860   21.6570  -30.2770 C   0  0  0  0  0  0  0  0  0  0  0  0
   -3.0700   21.6580  -31.1600 C   0  0  0  0  0  0  0  0  0  0  0  0
   -3.4470   20.4090  -31.9130 C   0  0  0  0  0  0  0  0  0  0  0  0
   -4.1890   20.7540  -33.1320 N   0  0  0  0  0  0  0  0  0  0  0  0
   -4.8080   19.5670  -33.7410 C   0  0  0  0  0  0  0  0  0  0  0  0
   -6.3260   19.7210  -33.7440 C   0  0  0  0  0  0  0  0  0  0  0  0
   -6.9540   19.7890  -32.0310 S   0  0  0  0  0  0  0  0  0  0  0  0
   -7.2860   21.5490  -32.1020 C   0  0  0  0  0  0  0  0  0  0  0  0
   -6.5070   22.4540  -32.7140 N   0  0  0  0  0  0  0  0  0  0  0  0
   -7.1140   23.6240  -32.5660 N   0  0  0  0  0  0  0  0  0  0  0  0
   -8.2380   23.4490  -31.8820 N   0  0  0  0  0  0  0  0  0  0  0  0
   -8.3590   22.1670  -31.5790 N   0  0  0  0  0  0  0  0  0  0  0  0
   -9.4910   21.5720  -30.8840 C   0  0  0  0  0  0  0  0  0  0  0  0
   -3.8190   22.8290  -31.3280 C   0  0  0  0  0  0  0  0  0  0  0  0
   -3.5090   23.9990  -30.6060 C   0  0  0  0  0  0  0  0  0  0  0  0
   -4.2480   25.1770  -30.7940 O   0  0  0  0  0  0  0  0  0  0  0  0
   -5.5630   25.4050  -30.2980 C   0  0  0  0  0  0  0  0  0  0  0  0
   -3.5545   24.5364  -25.9366 H   0  0  0  0  0  0  0  0  0  0  0  0
   -4.4025   25.0920  -27.4195 H   0  0  0  0  0  0  0  0  0  0  0  0
   -3.5278   23.5230  -27.4195 H   0  0  0  0  0  0  0  0  0  0  0  0
   -2.3423   26.3369  -27.2812 H   0  0  0  0  0  0  0  0  0  0  0  0
   -1.3967   24.8297  -26.9586 H   0  0  0  0  0  0  0  0  0  0  0  0
   -1.3841   20.7449  -30.1511 H   0  0  0  0  0  0  0  0  0  0  0  0
   -2.5336   19.8607  -32.1870 H   0  0  0  0  0  0  0  0  0  0  0  0
   -4.0840   19.7826  -31.2713 H   0  0  0  0  0  0  0  0  0  0  0  0
   -3.5110   21.1540  -33.8230 H   0  0  0  0  0  0  0  0  0  0  0  0
   -4.4498   19.4582  -34.7753 H   0  0  0  0  0  0  0  0  0  0  0  0
   -4.5342   18.6749  -33.1586 H   0  0  0  0  0  0  0  0  0  0  0  0
   -6.5963   20.6499  -34.2676 H   0  0  0  0  0  0  0  0  0  0  0  0
   -6.7741   18.8575  -34.2574 H   0  0  0  0  0  0  0  0  0  0  0  0
   -5.6070   22.2940  -33.2170 H   0  0  0  0  0  0  0  0  0  0  0  0
   -9.3378   21.6525  -29.7977 H   0  0  0  0  0  0  0  0  0  0  0  0
  -10.4132   22.1019  -31.1645 H   0  0  0  0  0  0  0  0  0  0  0  0
   -9.5775   20.5119  -31.1645 H   0  0  0  0  0  0  0  0  0  0  0  0
   -4.6623   22.8359  -32.0343 H   0  0  0  0  0  0  0  0  0  0  0  0
   -5.5457   25.4020  -29.1981 H   0  0  0  0  0  0  0  0  0  0  0  0
   -5.9262   26.3795  -30.6563 H   0  0  0  0  0  0  0  0  0  0  0  0
   -6.2331   24.6096  -30.6563 H   0  0  0  0  0  0  0  0  0  0  0  0
  1  2  1  0
  2  3  1  0
  3  4  1  0
  4  5  2  0
  5  6  1  0
  5  7  1  0
  7  8  2  0
  8  9  1  0
  9 10  1  0
 10 11  1  0
 11 12  1  0
 12 13  1  0
 13 14  1  0
 14 15  2  0
 15 16  1  0
 16 17  2  0
 17 18  1  0
 18 19  1  0
  8 20  1  0
 20 21  2  0
 21 22  1  0
 22 23  1  0
 21  4  1  0
 18 14  1  0
  1 24  1  0
  1 25  1  0
  1 26  1  0
  2 27  1  0
  2 28  1  0
  7 29  1  0
  9 30  1  0
  9 31  1  0
 10 32  1  0
 11 33  1  0
 11 34  1  0
 12 35  1  0
 12 36  1  0
 15 37  1  0
 19 38  1  0
 19 39  1  0
 19 40  1  0
 20 41  1  0
 23 42  1  0
 23 43  1  0
 23 44  1  0
M  CHG  1  15   1
M  END
>  <UniqueID>  (24) 
24

>  <SMILES>  (24) 
CCOc1c(Br)cc(CNCCSc2[nH+]nnn2C)cc1OC

>  <Energy>  (24) 
77.08123196058689

>  <Genealogy>  (24) 
CCOc1c(Br)cc(CNCCSc2[nH+]nnn2C)cc1OC (protonated)
CCOc1c(Br)cc(CNCCSc2[nH+]nnn2C)cc1OC (3D coordinates assigned)
CCOc1c(Br)cc(CNCCSc2[nH+]nnn2C)cc1OC (optimized conformer: 77.08123196058689 kcal/mol)

>  <smiles>  (24) 
CCOc1c(Br)cc(CNCCSc2nnnn2C)cc1OC

>  <score_type>  (24) 
oracle

>  <origin>  (24) 
adg

>  <m_score__min__energy>  (24) 
-7.4199999999999999

>  <m_primary>  (24) 
energy

$$$$
24:0
     RDKit          3D

 63 66  0  0  0  0  0  0  0  0999 V2000
   -4.5350   13.7570  -31.8970 C   0  0  0  0  0  0  0  0  0  0  0  0
   -4.5900   15.2290  -32.3260 C   0  0  0  0  0  0  0  0  0  0  0  0
   -4.6730   15.3940  -33.8020 N   0  0  0  0  0  0  0  0  0  0  0  0
   -3.3440   15.5460  -34.4590 C   0  0  0  0  0  0  0  0  0  0  0  0
   -2.1400   15.6460  -33.5100 C   0  0  0  0  0  0  0  0  0  0  0  0
   -5.6950   16.3650  -34.2870 C   0  0  0  0  0  0  0  0  0  0  0  0
   -6.1990   17.4040  -33.2560 C   0  0  0  0  0  0  0  0  0  0  0  0
   -6.4510   18.6970  -33.9000 N   0  0  0  0  0  0  0  0  0  0  0  0
   -6.2950   19.9250  -33.1730 C   0  0  0  0  0  0  0  0  0  0  0  0
   -7.4020   20.6010  -32.6040 C   0  0  0  0  0  0  0  0  0  0  0  0
   -8.6870   20.0220  -32.6090 C   0  0  0  0  0  0  0  0  0  0  0  0
   -9.7790   20.7070  -32.0820 C   0  0  0  0  0  0  0  0  0  0  0  0
   -9.6130   21.9770  -31.5380 C   0  0  0  0  0  0  0  0  0  0  0  0
   -8.3540   22.5740  -31.5100 C   0  0  0  0  0  0  0  0  0  0  0  0
   -7.2210   21.9090  -32.0350 C   0  0  0  0  0  0  0  0  0  0  0  0
   -5.9670   22.4980  -32.0180 N   0  0  0  0  0  0  0  0  0  0  0  0
   -5.7390   23.8340  -31.4430 C   0  0  0  0  0  0  0  0  0  0  0  0
   -4.9150   21.8040  -32.5390 C   0  0  0  0  0  0  0  0  0  0  0  0
   -3.6580   22.2070  -32.5710 O   0  0  0  0  0  0  0  0  0  0  0  0
   -2.9640   21.2360  -33.1220 C   0  0  0  0  0  0  0  0  0  0  0  0
   -1.5870   21.2000  -33.3330 C   0  0  0  0  0  0  0  0  0  0  0  0
   -1.0260   20.0260  -33.8910 C   0  0  0  0  0  0  0  0  0  0  0  0
    0.3540   19.8940  -34.1030 O   0  0  0  0  0  0  0  0  0  0  0  0
    1.0360   20.3250  -35.2480 C   0  0  0  0  0  0  0  0  0  0  0  0
    0.8710   19.7500  -36.3580 O   0  0  0  0  0  0  0  0  0  0  0  0
    2.0440   21.4240  -35.1280 C   0  0  0  0  0  0  0  0  0  0  0  0
    1.3950   22.6700  -34.9550 O   0  0  0  0  0  0  0  0  0  0  0  0
    0.2910   22.7700  -35.8270 C   0  0  0  0  0  0  0  0  0  0  0  0
   -1.8610   18.9280  -34.1980 C   0  0  0  0  0  0  0  0  0  0  0  0
   -3.2490   18.9940  -33.9840 C   0  0  0  0  0  0  0  0  0  0  0  0
   -3.7760   20.1750  -33.4620 C   0  0  0  0  0  0  0  0  0  0  0  0
   -5.0530   20.5530  -33.0930 C   0  0  0  0  0  0  0  0  0  0  0  0
   -4.5327   13.6950  -30.7988 H   0  0  0  0  0  0  0  0  0  0  0  0
   -5.4140   13.2268  -32.2923 H   0  0  0  0  0  0  0  0  0  0  0  0
   -3.6189   13.2938  -32.2923 H   0  0  0  0  0  0  0  0  0  0  0  0
   -5.4752   15.6958  -31.8694 H   0  0  0  0  0  0  0  0  0  0  0  0
   -3.6586   15.7081  -31.9900 H   0  0  0  0  0  0  0  0  0  0  0  0
   -5.0140   14.4670  -34.1580 H   0  0  0  0  0  0  0  0  0  0  0  0
   -3.1882   14.6748  -35.1122 H   0  0  0  0  0  0  0  0  0  0  0  0
   -3.3829   16.5049  -34.9966 H   0  0  0  0  0  0  0  0  0  0  0  0
   -2.4911   15.6168  -32.4679 H   0  0  0  0  0  0  0  0  0  0  0  0
   -1.4591   14.8013  -33.6913 H   0  0  0  0  0  0  0  0  0  0  0  0
   -1.6078   16.5914  -33.6913 H   0  0  0  0  0  0  0  0  0  0  0  0
   -5.2582   16.9167  -35.1324 H   0  0  0  0  0  0  0  0  0  0  0  0
   -6.5754   15.7586  -34.5460 H   0  0  0  0  0  0  0  0  0  0  0  0
   -7.1325   17.0388  -32.8029 H   0  0  0  0  0  0  0  0  0  0  0  0
   -5.4262   17.5389  -32.4850 H   0  0  0  0  0  0  0  0  0  0  0  0
   -6.5020   18.7340  -34.9440 H   0  0  0  0  0  0  0  0  0  0  0  0
   -8.8290   19.0174  -33.0341 H   0  0  0  0  0  0  0  0  0  0  0  0
  -10.7761   20.2426  -32.0958 H   0  0  0  0  0  0  0  0  0  0  0  0
  -10.4812   22.5133  -31.1274 H   0  0  0  0  0  0  0  0  0  0  0  0
   -8.2395   23.5771  -31.0733 H   0  0  0  0  0  0  0  0  0  0  0  0
   -5.7504   23.7675  -30.3451 H   0  0  0  0  0  0  0  0  0  0  0  0
   -4.7628   24.2153  -31.7772 H   0  0  0  0  0  0  0  0  0  0  0  0
   -6.5335   24.5175  -31.7772 H   0  0  0  0  0  0  0  0  0  0  0  0
   -0.9530   22.0605  -33.0730 H   0  0  0  0  0  0  0  0  0  0  0  0
    2.6918   21.2289  -34.2607 H   0  0  0  0  0  0  0  0  0  0  0  0
    2.6459   21.4591  -36.0480 H   0  0  0  0  0  0  0  0  0  0  0  0
   -0.6346   22.8538  -35.2386 H   0  0  0  0  0  0  0  0  0  0  0  0
    0.4043   23.6616  -36.4613 H   0  0  0  0  0  0  0  0  0  0  0  0
    0.2423   21.8726  -36.4613 H   0  0  0  0  0  0  0  0  0  0  0  0
   -1.4189   18.0089  -34.6101 H   0  0  0  0  0  0  0  0  0  0  0  0
   -3.8999   18.1396  -34.2212 H   0  0  0  0  0  0  0  0  0  0  0  0
  1  2  1  0
  2  3  1  0
  3  4  1  0
  4  5  1  0
  3  6  1  0
  6  7  1  0
  7  8  1  0
  8  9  1  0
  9 10  2  0
 10 11  1  0
 11 12  2  0
 12 13  1  0
 13 14  2  0
 14 15  1  0
 15 16  2  0
 16 17  1  0
 16 18  1  0
 18 19  1  0
 19 20  1  0
 20 21  2  0
 21 22  1  0
 22 23  1  0
 23 24  1  0
 24 25  2  0
 24 26  1  0
 26 27  1  0
 27 28  1  0
 22 29  2  0
 29 30  1  0
 30 31  2  0
 31 32  1  0
 32  9  1  0
 15 10  1  0
 32 18  2  0
 31 20  1  0
  1 33  1  0
  1 34  1  0
  1 35  1  0
  2 36  1  0
  2 37  1  0
  3 38  1  0
  4 39  1  0
  4 40  1  0
  5 41  1  0
  5 42  1  0
  5 43  1  0
  6 44  1  0
  6 45  1  0
  7 46  1  0
  7 47  1  0
  8 48  1  0
 11 49  1  0
 12 50  1  0
 13 51  1  0
 14 52  1  0
 17 53  1  0
 17 54  1  0
 17 55  1  0
 21 56  1  0
 26 57  1  0
 26 58  1  0
 28 59  1  0
 28 60  1  0
 28 61  1  0
 29 62  1  0
 30 63  1  0
M  CHG  2   3   1  16   1
M  END
>  <UniqueID>  (25) 
25

>  <SMILES>  (25) 
CC[NH+](CC)CCNc1c2ccccc2[n+](C)c2oc3cc(OC(=O)COC)ccc3c12

>  <Energy>  (25) 
135.31629885987175

>  <Genealogy>  (25) 
CC[NH+](CC)CCNc1c2ccccc2[n+](C)c2oc3cc(OC(=O)COC)ccc3c12 (protonated)
CC[NH+](CC)CCNc1c2ccccc2[n+](C)c2oc3cc(OC(=O)COC)ccc3c12 (3D coordinates assigned)
CC[NH+](CC)CCNc1c2ccccc2[n+](C)c2oc3cc(OC(=O)COC)ccc3c12 (optimized conformer: 135.31629885987175 kcal/mol)

>  <smiles>  (25) 
CCN(CC)CCNc1c2ccccc2[n+](C)c2oc3cc(OC(=O)COC)ccc3c12

>  <score_type>  (25) 
oracle

>  <origin>  (25) 
adg

>  <m_score__min__energy>  (25) 
-7.5700000000000003

>  <m_primary>  (25) 
energy

$$$$
25:0
     RDKit          3D

 54 56  0  0  0  0  0  0  0  0999 V2000
   -6.2560   25.5540  -29.7020 C   0  0  0  0  0  0  0  0  0  0  0  0
   -5.2180   25.3250  -30.7950 C   0  0  0  0  0  0  0  0  0  0  0  0
   -4.2800   24.2460  -30.4090 N   0  0  0  0  0  0  0  0  0  0  0  0
   -4.4930   23.0240  -31.2210 C   0  0  0  0  0  0  0  0  0  0  0  0
   -3.1530   22.3600  -31.5860 C   0  0  0  0  0  0  0  0  0  0  0  0
   -3.2970   21.2540  -32.6440 C   0  0  0  0  0  0  0  0  0  0  0  0
   -4.5750   21.3640  -33.3490 N   0  0  0  0  0  0  0  0  0  0  0  0
   -5.6380   20.4170  -33.1570 C   0  0  0  0  0  0  0  0  0  0  0  0
   -5.4190   19.0730  -33.5160 C   0  0  0  0  0  0  0  0  0  0  0  0
   -4.1760   18.7210  -34.0670 O   0  0  0  0  0  0  0  0  0  0  0  0
   -3.8670   17.4420  -34.6110 C   0  0  0  0  0  0  0  0  0  0  0  0
   -6.4290   18.1210  -33.2970 C   0  0  0  0  0  0  0  0  0  0  0  0
   -7.6460   18.4950  -32.7280 C   0  0  0  0  0  0  0  0  0  0  0  0
   -7.8890   19.8310  -32.3930 C   0  0  0  0  0  0  0  0  0  0  0  0
   -9.1240   20.2040  -31.8390 C   0  0  0  0  0  0  0  0  0  0  0  0
   -9.3830   21.5410  -31.5350 C   0  0  0  0  0  0  0  0  0  0  0  0
   -8.4210   22.5170  -31.7930 C   0  0  0  0  0  0  0  0  0  0  0  0
   -7.1860   22.1610  -32.3410 C   0  0  0  0  0  0  0  0  0  0  0  0
   -6.8900   20.8120  -32.6240 C   0  0  0  0  0  0  0  0  0  0  0  0
   -4.3920   23.9560  -28.9600 C   0  0  0  0  0  0  0  0  0  0  0  0
   -3.1800   24.4820  -28.2410 C   0  0  0  0  0  0  0  0  0  0  0  0
   -1.9650   24.6690  -28.9220 C   0  0  0  0  0  0  0  0  0  0  0  0
   -0.8400   25.1410  -28.2380 C   0  0  0  0  0  0  0  0  0  0  0  0
   -0.9200   25.4290  -26.8730 C   0  0  0  0  0  0  0  0  0  0  0  0
   -2.1240   25.2440  -26.1880 C   0  0  0  0  0  0  0  0  0  0  0  0
   -3.2510   24.7710  -26.8680 C   0  0  0  0  0  0  0  0  0  0  0  0
   -5.7796   25.4489  -28.7161 H   0  0  0  0  0  0  0  0  0  0  0  0
   -6.6752   26.5662  -29.8007 H   0  0  0  0  0  0  0  0  0  0  0  0
   -7.0621   24.8121  -29.8007 H   0  0  0  0  0  0  0  0  0  0  0  0
   -5.7307   25.0417  -31.7261 H   0  0  0  0  0  0  0  0  0  0  0  0
   -4.6473   26.2540  -30.9407 H   0  0  0  0  0  0  0  0  0  0  0  0
   -5.1017   22.3116  -30.6449 H   0  0  0  0  0  0  0  0  0  0  0  0
   -5.0067   23.3081  -32.1513 H   0  0  0  0  0  0  0  0  0  0  0  0
   -2.4745   23.1325  -31.9770 H   0  0  0  0  0  0  0  0  0  0  0  0
   -2.7595   21.8908  -30.6722 H   0  0  0  0  0  0  0  0  0  0  0  0
   -2.4765   21.3431  -33.3712 H   0  0  0  0  0  0  0  0  0  0  0  0
   -3.2596   20.2783  -32.1375 H   0  0  0  0  0  0  0  0  0  0  0  0
   -4.5960   21.9560  -34.2110 H   0  0  0  0  0  0  0  0  0  0  0  0
   -3.6944   16.7275  -33.7927 H   0  0  0  0  0  0  0  0  0  0  0  0
   -4.7070   17.0943  -35.2303 H   0  0  0  0  0  0  0  0  0  0  0  0
   -2.9609   17.5161  -35.2303 H   0  0  0  0  0  0  0  0  0  0  0  0
   -6.2581   17.0710  -33.5770 H   0  0  0  0  0  0  0  0  0  0  0  0
   -8.4191   17.7351  -32.5416 H   0  0  0  0  0  0  0  0  0  0  0  0
   -9.8903   19.4393  -31.6439 H   0  0  0  0  0  0  0  0  0  0  0  0
  -10.3482   21.8257  -31.0908 H   0  0  0  0  0  0  0  0  0  0  0  0
   -8.6353   23.5714  -31.5642 H   0  0  0  0  0  0  0  0  0  0  0  0
   -6.4386   22.9396  -32.5533 H   0  0  0  0  0  0  0  0  0  0  0  0
   -5.2940   24.4413  -28.5589 H   0  0  0  0  0  0  0  0  0  0  0  0
   -4.4596   22.8682  -28.8110 H   0  0  0  0  0  0  0  0  0  0  0  0
   -1.8985   24.4434  -29.9966 H   0  0  0  0  0  0  0  0  0  0  0  0
    0.1089   25.2857  -28.7753 H   0  0  0  0  0  0  0  0  0  0  0  0
   -0.0345   25.8016  -26.3372 H   0  0  0  0  0  0  0  0  0  0  0  0
   -2.1854   25.4705  -25.1133 H   0  0  0  0  0  0  0  0  0  0  0  0
   -4.1967   24.6247  -26.3256 H   0  0  0  0  0  0  0  0  0  0  0  0
  1  2  1  0
  2  3  1  0
  3  4  1  0
  4  5  1  0
  5  6  1  0
  6  7  1  0
  7  8  1  0
  8  9  2  0
  9 10  1  0
 10 11  1  0
  9 12  1  0
 12 13  2  0
 13 14  1  0
 14 15  2  0
 15 16  1  0
 16 17  2  0
 17 18  1  0
 18 19  2  0
  3 20  1  0
 20 21  1  0
 21 22  2  0
 22 23  1  0
 23 24  2  0
 24 25  1  0
 25 26  2  0
 19  8  1  0
 26 21  1  0
 19 14  1  0
  1 27  1  0
  1 28  1  0
  1 29  1  0
  2 30  1  0
  2 31  1  0
  4 32  1  0
  4 33  1  0
  5 34  1  0
  5 35  1  0
  6 36  1  0
  6 37  1  0
  7 38  1  0
 11 39  1  0
 11 40  1  0
 11 41  1  0
 12 42  1  0
 13 43  1  0
 15 44  1  0
 16 45  1  0
 17 46  1  0
 18 47  1  0
 20 48  1  0
 20 49  1  0
 22 50  1  0
 23 51  1  0
 24 52  1  0
 25 53  1  0
 26 54  1  0
M  END
>  <UniqueID>  (26) 
26

>  <SMILES>  (26) 
CCN(CCCNc1c(OC)ccc2ccccc12)Cc1ccccc1

>  <Energy>  (26) 
58.17962737266861

>  <Genealogy>  (26) 
CCN(CCCNc1c(OC)ccc2ccccc12)Cc1ccccc1 (3D coordinates assigned)
CCN(CCCNc1c(OC)ccc2ccccc12)Cc1ccccc1 (optimized conformer: 58.17962737266861 kcal/mol)

>  <smiles>  (26) 
CCN(CCCNc1c(OC)ccc2ccccc12)Cc1ccccc1

>  <score_type>  (26) 
oracle

>  <origin>  (26) 
adg

>  <m_score__min__energy>  (26) 
-9.1600000000000001

>  <m_primary>  (26) 
energy

$$$$
26:0
     RDKit          3D

 18 18  0  0  0  0  0  0  0  0999 V2000
   -6.1700   25.7360  -28.8210 N   0  0  0  0  0  0  0  0  0  0  0  0
   -5.7460   25.7180  -30.2200 C   0  0  0  0  0  0  0  0  0  0  0  0
   -5.9180   24.3410  -30.8100 C   0  0  0  0  0  0  0  0  0  0  0  0
   -4.7960   23.5950  -31.1990 C   0  0  0  0  0  0  0  0  0  0  0  0
   -4.9530   22.3060  -31.7150 C   0  0  0  0  0  0  0  0  0  0  0  0
   -6.2290   21.7430  -31.8380 C   0  0  0  0  0  0  0  0  0  0  0  0
   -6.3850   19.9720  -32.5500 Br  0  0  0  0  0  0  0  0  0  0  0  0
   -7.3560   22.4810  -31.4350 C   0  0  0  0  0  0  0  0  0  0  0  0
   -9.1270   21.7600  -31.5680 Br  0  0  0  0  0  0  0  0  0  0  0  0
   -7.1960   23.7720  -30.9190 C   0  0  0  0  0  0  0  0  0  0  0  0
   -6.9490   26.4230  -28.6910 H   0  0  0  0  0  0  0  0  0  0  0  0
   -5.3620   26.0230  -28.2220 H   0  0  0  0  0  0  0  0  0  0  0  0
   -6.4880   24.7830  -28.5290 H   0  0  0  0  0  0  0  0  0  0  0  0
   -6.3546   26.4345  -30.7913 H   0  0  0  0  0  0  0  0  0  0  0  0
   -4.6827   25.9951  -30.2715 H   0  0  0  0  0  0  0  0  0  0  0  0
   -3.7891   24.0260  -31.0976 H   0  0  0  0  0  0  0  0  0  0  0  0
   -4.0690   21.7302  -32.0264 H   0  0  0  0  0  0  0  0  0  0  0  0
   -8.0782   24.3446  -30.5967 H   0  0  0  0  0  0  0  0  0  0  0  0
  1  2  1  0
  2  3  1  0
  3  4  2  0
  4  5  1  0
  5  6  2  0
  6  7  1  0
  6  8  1  0
  8  9  1  0
  8 10  2  0
 10  3  1  0
  1 11  1  0
  1 12  1  0
  1 13  1  0
  2 14  1  0
  2 15  1  0
  4 16  1  0
  5 17  1  0
 10 18  1  0
M  CHG  1   1   1
M  END
>  <UniqueID>  (27) 
27

>  <SMILES>  (27) 
[NH3+]Cc1ccc(Br)c(Br)c1

>  <Energy>  (27) 
15.64074661290493

>  <Genealogy>  (27) 
[NH3+]Cc1ccc(Br)c(Br)c1 (protonated)
[NH3+]Cc1ccc(Br)c(Br)c1 (3D coordinates assigned)
[NH3+]Cc1ccc(Br)c(Br)c1 (optimized conformer: 15.64074661290493 kcal/mol)

>  <smiles>  (27) 
NCc1ccc(Br)c(Br)c1

>  <score_type>  (27) 
oracle

>  <origin>  (27) 
adg

>  <m_score__min__energy>  (27) 
-5.6299999999999999

>  <m_primary>  (27) 
energy

$$$$
27:0
     RDKit          3D

 59 62  0  0  0  0  0  0  0  0999 V2000
   -6.4850   25.6850  -29.4700 C   0  0  0  0  0  0  0  0  0  0  0  0
   -5.3690   25.9760  -30.4850 C   0  0  0  0  0  0  0  0  0  0  0  0
   -4.5490   24.7930  -30.8340 N   0  0  0  0  0  0  0  0  0  0  0  0
   -3.6050   24.4350  -29.7600 C   0  0  0  0  0  0  0  0  0  0  0  0
   -5.3700   23.6390  -31.2630 C   0  0  0  0  0  0  0  0  0  0  0  0
   -4.4770   22.5180  -31.8110 C   0  0  0  0  0  0  0  0  0  0  0  0
   -4.9990   22.0060  -33.0900 N   0  0  0  0  0  0  0  0  0  0  0  0
   -5.2260   20.5720  -33.0150 C   0  0  0  0  0  0  0  0  0  0  0  0
   -6.5440   20.0970  -32.7240 C   0  0  0  0  0  0  0  0  0  0  0  0
   -7.6660   20.9650  -32.6380 C   0  0  0  0  0  0  0  0  0  0  0  0
   -8.9150   20.4920  -32.2460 C   0  0  0  0  0  0  0  0  0  0  0  0
   -9.0890   19.1500  -31.9420 C   0  0  0  0  0  0  0  0  0  0  0  0
   -8.0220   18.2670  -32.0640 C   0  0  0  0  0  0  0  0  0  0  0  0
   -6.7460   18.7160  -32.4820 C   0  0  0  0  0  0  0  0  0  0  0  0
   -5.7170   17.8310  -32.6770 N   0  0  0  0  0  0  0  0  0  0  0  0
   -5.7350   16.5340  -31.9670 C   0  0  0  0  0  0  0  0  0  0  0  0
   -4.5960   18.2280  -33.3660 C   0  0  0  0  0  0  0  0  0  0  0  0
   -3.7980   17.2920  -34.0780 C   0  0  0  0  0  0  0  0  0  0  0  0
   -2.5090   17.6520  -34.4590 C   0  0  0  0  0  0  0  0  0  0  0  0
   -2.0650   18.9040  -34.2370 N   0  0  0  0  0  0  0  0  0  0  0  0
   -2.8370   19.8880  -33.7080 C   0  0  0  0  0  0  0  0  0  0  0  0
   -2.0950   21.1710  -33.4540 C   0  0  0  0  0  0  0  0  0  0  0  0
   -4.2070   19.6040  -33.3490 C   0  0  0  0  0  0  0  0  0  0  0  0
   -1.6270   16.6500  -35.1530 C   0  0  0  0  0  0  0  0  0  0  0  0
   -1.8450   15.2520  -34.5540 C   0  0  0  0  0  0  0  0  0  0  0  0
   -3.3380   14.8400  -34.4710 C   0  0  0  0  0  0  0  0  0  0  0  0
   -4.3230   16.0060  -34.6830 C   0  0  0  0  0  0  0  0  0  0  0  0
   -6.0883   25.7884  -28.4492 H   0  0  0  0  0  0  0  0  0  0  0  0
   -7.3095   26.3982  -29.6170 H   0  0  0  0  0  0  0  0  0  0  0  0
   -6.8562   24.6600  -29.6170 H   0  0  0  0  0  0  0  0  0  0  0  0
   -5.8309   26.3607  -31.4062 H   0  0  0  0  0  0  0  0  0  0  0  0
   -4.6926   26.7046  -30.0143 H   0  0  0  0  0  0  0  0  0  0  0  0
   -4.0767   24.6139  -28.7825 H   0  0  0  0  0  0  0  0  0  0  0  0
   -3.3354   23.3722  -29.8480 H   0  0  0  0  0  0  0  0  0  0  0  0
   -2.6984   25.0518  -29.8480 H   0  0  0  0  0  0  0  0  0  0  0  0
   -5.9394   23.2598  -30.4016 H   0  0  0  0  0  0  0  0  0  0  0  0
   -6.0569   23.9668  -32.0572 H   0  0  0  0  0  0  0  0  0  0  0  0
   -3.4617   22.9110  -31.9682 H   0  0  0  0  0  0  0  0  0  0  0  0
   -4.4622   21.6936  -31.0829 H   0  0  0  0  0  0  0  0  0  0  0  0
   -4.3390   22.2430  -33.8610 H   0  0  0  0  0  0  0  0  0  0  0  0
   -5.8400   22.5180  -33.4010 H   0  0  0  0  0  0  0  0  0  0  0  0
   -7.5452   22.0299  -32.8857 H   0  0  0  0  0  0  0  0  0  0  0  0
   -9.7667   21.1847  -32.1771 H   0  0  0  0  0  0  0  0  0  0  0  0
  -10.0702   18.7846  -31.6047 H   0  0  0  0  0  0  0  0  0  0  0  0
   -8.1716   17.2022  -31.8320 H   0  0  0  0  0  0  0  0  0  0  0  0
   -5.7326   16.7103  -30.8812 H   0  0  0  0  0  0  0  0  0  0  0  0
   -6.6410   15.9759  -32.2458 H   0  0  0  0  0  0  0  0  0  0  0  0
   -4.8449   15.9510  -32.2458 H   0  0  0  0  0  0  0  0  0  0  0  0
   -2.0018   21.3322  -32.3699 H   0  0  0  0  0  0  0  0  0  0  0  0
   -1.0927   21.1100  -33.9032 H   0  0  0  0  0  0  0  0  0  0  0  0
   -2.6477   22.0093  -33.9032 H   0  0  0  0  0  0  0  0  0  0  0  0
   -1.8732   16.6292  -36.2249 H   0  0  0  0  0  0  0  0  0  0  0  0
   -0.5748   16.9405  -35.0167 H   0  0  0  0  0  0  0  0  0  0  0  0
   -1.3158   14.5186  -35.1802 H   0  0  0  0  0  0  0  0  0  0  0  0
   -1.4589   15.2776  -33.5243 H   0  0  0  0  0  0  0  0  0  0  0  0
   -3.5305   14.0800  -35.2426 H   0  0  0  0  0  0  0  0  0  0  0  0
   -3.5074   14.4617  -33.4521 H   0  0  0  0  0  0  0  0  0  0  0  0
   -4.4746   16.1543  -35.7624 H   0  0  0  0  0  0  0  0  0  0  0  0
   -5.2710   15.7522  -34.1862 H   0  0  0  0  0  0  0  0  0  0  0  0
  1  2  1  0
  2  3  1  0
  3  4  1  0
  3  5  1  0
  5  6  1  0
  6  7  1  0
  7  8  1  0
  8  9  2  0
  9 10  1  0
 10 11  2  0
 11 12  1  0
 12 13  2  0
 13 14  1  0
 14 15  2  0
 15 16  1  0
 15 17  1  0
 17 18  2  0
 18 19  1  0
 19 20  2  0
 20 21  1  0
 21 22  1  0
 21 23  2  0
 19 24  1  0
 24 25  1  0
 25 26  1  0
 26 27  1  0
 23  8  1  0
 14  9  1  0
 23 17  1  0
 27 18  1  0
  1 28  1  0
  1 29  1  0
  1 30  1  0
  2 31  1  0
  2 32  1  0
  4 33  1  0
  4 34  1  0
  4 35  1  0
  5 36  1  0
  5 37  1  0
  6 38  1  0
  6 39  1  0
  7 40  1  0
  7 41  1  0
 10 42  1  0
 11 43  1  0
 12 44  1  0
 13 45  1  0
 16 46  1  0
 16 47  1  0
 16 48  1  0
 22 49  1  0
 22 50  1  0
 22 51  1  0
 24 52  1  0
 24 53  1  0
 25 54  1  0
 25 55  1  0
 26 56  1  0
 26 57  1  0
 27 58  1  0
 27 59  1  0
M  CHG  2   7   1  15   1
M  END
>  <UniqueID>  (28) 
28

>  <SMILES>  (28) 
CCN(C)CC[NH2+]c1c2ccccc2[n+](C)c2c3c(nc(C)c12)CCCC3

>  <Energy>  (28) 
119.78518710160769

>  <Genealogy>  (28) 
CCN(C)CC[NH2+]c1c2ccccc2[n+](C)c2c3c(nc(C)c12)CCCC3 (protonated)
CCN(C)CC[NH2+]c1c2ccccc2[n+](C)c2c3c(nc(C)c12)CCCC3 (3D coordinates assigned)
CCN(C)CC[NH2+]c1c2ccccc2[n+](C)c2c3c(nc(C)c12)CCCC3 (nonaromatic ring conformer: 119.78518710160769 kcal/mol)

>  <smiles>  (28) 
CCN(C)CCNc1c2ccccc2[n+](C)c2c3c(nc(C)c12)CCCC3

>  <score_type>  (28) 
oracle

>  <origin>  (28) 
adg

>  <m_score__min__energy>  (28) 
-9.0899999999999999

>  <m_primary>  (28) 
energy

$$$$
28:0
     RDKit          3D

 50 53  0  0  0  0  0  0  0  0999 V2000
   -6.4870   25.2550  -29.5560 N   0  0  0  0  0  0  0  0  0  0  0  0
   -5.9210   24.0790  -30.2180 C   0  0  1  0  0  0  0  0  0  0  0  0
   -6.4850   23.9610  -31.6480 C   0  0  0  0  0  0  0  0  0  0  0  0
   -7.2560   22.6800  -31.8500 C   0  0  0  0  0  0  0  0  0  0  0  0
   -6.5960   21.5180  -32.2840 C   0  0  0  0  0  0  0  0  0  0  0  0
   -7.3120   20.3330  -32.4830 C   0  0  0  0  0  0  0  0  0  0  0  0
   -8.6890   20.3000  -32.2490 C   0  0  0  0  0  0  0  0  0  0  0  0
   -9.3520   21.4500  -31.8150 C   0  0  0  0  0  0  0  0  0  0  0  0
   -8.6430   22.6390  -31.6270 C   0  0  0  0  0  0  0  0  0  0  0  0
   -4.4180   24.1900  -30.2410 C   0  0  0  0  0  0  0  0  0  0  0  0
   -3.8780   25.3090  -30.4560 O   0  0  0  0  0  0  0  0  0  0  0  0
   -3.6080   23.0260  -30.0240 N   0  0  0  0  0  0  0  0  0  0  0  0
   -2.1590   23.0290  -30.2120 C   0  0  0  0  0  0  0  0  0  0  0  0
   -1.4720   23.6090  -29.0100 C   0  0  0  0  0  0  0  0  0  0  0  0
   -1.0570   24.9040  -28.9670 N   0  0  0  0  0  0  0  0  0  0  0  0
   -0.5320   25.0150  -27.7330 C   0  0  0  0  0  0  0  0  0  0  0  0
    0.0660   26.1360  -27.1640 C   0  0  0  0  0  0  0  0  0  0  0  0
    0.5770   26.0140  -25.8580 C   0  0  0  0  0  0  0  0  0  0  0  0
    0.4810   24.7870  -25.1630 C   0  0  0  0  0  0  0  0  0  0  0  0
   -0.1280   23.6720  -25.7680 C   0  0  0  0  0  0  0  0  0  0  0  0
   -0.6300   23.8320  -27.0610 C   0  0  0  0  0  0  0  0  0  0  0  0
   -1.2140   22.9250  -27.8620 N   0  0  0  0  0  0  0  0  0  0  0  0
   -1.4940   21.5500  -27.5600 C   0  0  0  0  0  0  0  0  0  0  0  0
   -2.8180   21.1190  -27.3920 C   0  0  0  0  0  0  0  0  0  0  0  0
   -3.0910   19.7760  -27.1180 C   0  0  0  0  0  0  0  0  0  0  0  0
   -2.0430   18.8570  -27.0130 C   0  0  0  0  0  0  0  0  0  0  0  0
   -0.7230   19.2790  -27.1880 C   0  0  0  0  0  0  0  0  0  0  0  0
   -0.4480   20.6220  -27.4640 C   0  0  0  0  0  0  0  0  0  0  0  0
   -5.7200   25.9540  -29.4180 H   0  0  0  0  0  0  0  0  0  0  0  0
   -6.7970   24.9770  -28.5960 H   0  0  0  0  0  0  0  0  0  0  0  0
   -6.1983   23.1713  -29.6620 H   0  0  0  0  0  0  0  0  0  0  0  0
   -7.1559   24.8122  -31.8361 H   0  0  0  0  0  0  0  0  0  0  0  0
   -5.6363   23.9596  -32.3478 H   0  0  0  0  0  0  0  0  0  0  0  0
   -5.5117   21.5403  -32.4680 H   0  0  0  0  0  0  0  0  0  0  0  0
   -6.7906   19.4264  -32.8240 H   0  0  0  0  0  0  0  0  0  0  0  0
   -9.2512   19.3678  -32.4067 H   0  0  0  0  0  0  0  0  0  0  0  0
  -10.4343   21.4195  -31.6209 H   0  0  0  0  0  0  0  0  0  0  0  0
   -9.1726   23.5470  -31.3030 H   0  0  0  0  0  0  0  0  0  0  0  0
   -4.0610   22.1450  -29.6930 H   0  0  0  0  0  0  0  0  0  0  0  0
   -1.8119   21.9963  -30.3636 H   0  0  0  0  0  0  0  0  0  0  0  0
   -1.9165   23.6446  -31.0908 H   0  0  0  0  0  0  0  0  0  0  0  0
    0.1368   27.0848  -27.7161 H   0  0  0  0  0  0  0  0  0  0  0  0
    1.0543   26.8795  -25.3751 H   0  0  0  0  0  0  0  0  0  0  0  0
    0.8847   24.7032  -24.1432 H   0  0  0  0  0  0  0  0  0  0  0  0
   -0.2057   22.7094  -25.2414 H   0  0  0  0  0  0  0  0  0  0  0  0
   -3.6442   21.8403  -27.4762 H   0  0  0  0  0  0  0  0  0  0  0  0
   -4.1306   19.4421  -26.9850 H   0  0  0  0  0  0  0  0  0  0  0  0
   -2.2579   17.8010  -26.7925 H   0  0  0  0  0  0  0  0  0  0  0  0
    0.1008   18.5544  -27.1086 H   0  0  0  0  0  0  0  0  0  0  0  0
    0.5920   20.9510  -27.6061 H   0  0  0  0  0  0  0  0  0  0  0  0
  1  2  1  0
  2  3  1  0
  3  4  1  0
  4  5  2  0
  5  6  1  0
  6  7  2  0
  7  8  1  0
  8  9  2  0
  2 10  1  0
 10 11  2  0
 10 12  1  0
 12 13  1  0
 13 14  1  0
 14 15  2  0
 15 16  1  0
 16 17  2  0
 17 18  1  0
 18 19  2  0
 19 20  1  0
 20 21  2  0
 21 22  1  0
 22 23  1  0
 23 24  2  0
 24 25  1  0
 25 26  2  0
 26 27  1  0
 27 28  2  0
  9  4  1  0
 22 14  1  0
 28 23  1  0
 21 16  1  0
  1 29  1  0
  1 30  1  0
  2 31  1  1
  3 32  1  0
  3 33  1  0
  5 34  1  0
  6 35  1  0
  7 36  1  0
  8 37  1  0
  9 38  1  0
 12 39  1  0
 13 40  1  0
 13 41  1  0
 17 42  1  0
 18 43  1  0
 19 44  1  0
 20 45  1  0
 24 46  1  0
 25 47  1  0
 26 48  1  0
 27 49  1  0
 28 50  1  0
M  END
>  <UniqueID>  (29) 
29

>  <SMILES>  (29) 
N[C@@H](Cc1ccccc1)C(=O)NCc1nc2ccccc2n1-c1ccccc1

>  <Energy>  (29) 
85.23405274065408

>  <Genealogy>  (29) 
N[C@@H](Cc1ccccc1)C(=O)NCc1nc2ccccc2n1-c1ccccc1 (chirality)
N[C@@H](Cc1ccccc1)C(=O)NCc1nc2ccccc2n1-c1ccccc1 (3D coordinates assigned)
N[C@@H](Cc1ccccc1)C(=O)NCc1nc2ccccc2n1-c1ccccc1 (optimized conformer: 85.23405274065408 kcal/mol)

>  <smiles>  (29) 
NC(Cc1ccccc1)C(=O)NCc1nc2ccccc2n1-c1ccccc1

>  <score_type>  (29) 
oracle

>  <origin>  (29) 
adg

>  <m_score__min__energy>  (29) 
-10.050000000000001

>  <m_primary>  (29) 
energy

$$$$
29:0
     RDKit          3D

 53 55  0  0  0  0  0  0  0  0999 V2000
   -4.2850   18.4700  -33.1830 C   0  0  0  0  0  0  0  0  0  0  0  0
   -4.9890   18.5450  -34.5410 C   0  0  0  0  0  0  0  0  0  0  0  0
   -6.4410   18.3100  -34.4330 N   0  0  0  0  0  0  0  0  0  0  0  0
   -6.7670   17.3310  -33.3780 C   0  0  0  0  0  0  0  0  0  0  0  0
   -7.9090   17.8320  -32.4900 C   0  0  0  0  0  0  0  0  0  0  0  0
   -8.3020   19.1480  -32.8950 O   0  0  0  0  0  0  0  0  0  0  0  0
   -7.8750   20.3380  -32.2880 C   0  0  0  0  0  0  0  0  0  0  0  0
   -8.8160   21.3460  -32.0810 C   0  0  0  0  0  0  0  0  0  0  0  0
   -8.4410   22.5550  -31.4940 C   0  0  0  0  0  0  0  0  0  0  0  0
   -7.1150   22.7700  -31.0850 C   0  0  0  0  0  0  0  0  0  0  0  0
   -6.1620   21.7310  -31.2260 C   0  0  0  0  0  0  0  0  0  0  0  0
   -6.5550   20.5300  -31.8490 C   0  0  0  0  0  0  0  0  0  0  0  0
   -4.7150   21.8500  -30.7650 C   0  0  0  0  0  0  0  0  0  0  0  0
   -3.8650   23.0240  -31.3190 C   0  0  0  0  0  0  0  0  0  0  0  0
   -4.2630   24.3760  -30.8610 N   0  0  0  0  0  0  0  0  0  0  0  0
   -3.8540   24.7480  -29.4870 C   0  0  0  0  0  0  0  0  0  0  0  0
   -2.8430   23.7710  -28.9390 C   0  0  0  0  0  0  0  0  0  0  0  0
   -1.4930   23.8540  -29.3200 C   0  0  0  0  0  0  0  0  0  0  0  0
   -0.5530   22.9740  -28.7750 C   0  0  0  0  0  0  0  0  0  0  0  0
   -0.9530   22.0060  -27.8490 C   0  0  0  0  0  0  0  0  0  0  0  0
   -2.2930   21.9140  -27.4690 C   0  0  0  0  0  0  0  0  0  0  0  0
   -3.2380   22.7910  -28.0110 C   0  0  0  0  0  0  0  0  0  0  0  0
   -4.5350   22.6940  -27.6220 F   0  0  0  0  0  0  0  0  0  0  0  0
   -5.6400   24.7890  -31.2330 C   0  0  0  0  0  0  0  0  0  0  0  0
   -6.7560   24.0800  -30.4460 C   0  0  0  0  0  0  0  0  0  0  0  0
   -5.0309   18.5495  -32.3784 H   0  0  0  0  0  0  0  0  0  0  0  0
   -3.7544   17.5102  -33.0976 H   0  0  0  0  0  0  0  0  0  0  0  0
   -3.5641   19.2964  -33.0976 H   0  0  0  0  0  0  0  0  0  0  0  0
   -4.8234   19.5441  -34.9705 H   0  0  0  0  0  0  0  0  0  0  0  0
   -4.5675   17.7569  -35.1823 H   0  0  0  0  0  0  0  0  0  0  0  0
   -6.7740   17.9330  -35.3500 H   0  0  0  0  0  0  0  0  0  0  0  0
   -6.9390   19.2140  -34.2550 H   0  0  0  0  0  0  0  0  0  0  0  0
   -7.0680   16.3834  -33.8487 H   0  0  0  0  0  0  0  0  0  0  0  0
   -5.8756   17.1867  -32.7499 H   0  0  0  0  0  0  0  0  0  0  0  0
   -8.7678   17.1508  -32.5818 H   0  0  0  0  0  0  0  0  0  0  0  0
   -7.5675   17.8624  -31.4448 H   0  0  0  0  0  0  0  0  0  0  0  0
   -9.8618   21.1869  -32.3827 H   0  0  0  0  0  0  0  0  0  0  0  0
   -9.1909   23.3469  -31.3503 H   0  0  0  0  0  0  0  0  0  0  0  0
   -5.8152   19.7290  -31.9940 H   0  0  0  0  0  0  0  0  0  0  0  0
   -4.7282   21.9451  -29.6692 H   0  0  0  0  0  0  0  0  0  0  0  0
   -4.2266   20.9478  -31.1619 H   0  0  0  0  0  0  0  0  0  0  0  0
   -2.8207   22.8580  -31.0158 H   0  0  0  0  0  0  0  0  0  0  0  0
   -4.0188   23.0184  -32.4082 H   0  0  0  0  0  0  0  0  0  0  0  0
   -3.4091   25.7539  -29.5043 H   0  0  0  0  0  0  0  0  0  0  0  0
   -4.7437   24.7304  -28.8403 H   0  0  0  0  0  0  0  0  0  0  0  0
   -1.1747   24.6136  -30.0492 H   0  0  0  0  0  0  0  0  0  0  0  0
    0.5029   23.0434  -29.0753 H   0  0  0  0  0  0  0  0  0  0  0  0
   -0.2113   21.3164  -27.4196 H   0  0  0  0  0  0  0  0  0  0  0  0
   -2.6063   21.1503  -26.7419 H   0  0  0  0  0  0  0  0  0  0  0  0
   -5.7322   25.8713  -31.0595 H   0  0  0  0  0  0  0  0  0  0  0  0
   -5.7755   24.5080  -32.2878 H   0  0  0  0  0  0  0  0  0  0  0  0
   -6.4104   23.8962  -29.4180 H   0  0  0  0  0  0  0  0  0  0  0  0
   -7.6472   24.7248  -30.4431 H   0  0  0  0  0  0  0  0  0  0  0  0
  1  2  1  0
  2  3  1  0
  3  4  1  0
  4  5  1  0
  5  6  1  0
  6  7  1  0
  7  8  2  0
  8  9  1  0
  9 10  2  0
 10 11  1  0
 11 12  2  0
 11 13  1  0
 13 14  1  0
 14 15  1  0
 15 16  1  0
 16 17  1  0
 17 18  2  0
 18 19  1  0
 19 20  2  0
 20 21  1  0
 21 22  2  0
 22 23  1  0
 15 24  1  0
 24 25  1  0
 12  7  1  0
 22 17  1  0
 25 10  1  0
  1 26  1  0
  1 27  1  0
  1 28  1  0
  2 29  1  0
  2 30  1  0
  3 31  1  0
  3 32  1  0
  4 33  1  0
  4 34  1  0
  5 35  1  0
  5 36  1  0
  8 37  1  0
  9 38  1  0
 12 39  1  0
 13 40  1  0
 13 41  1  0
 14 42  1  0
 14 43  1  0
 16 44  1  0
 16 45  1  0
 18 46  1  0
 19 47  1  0
 20 48  1  0
 21 49  1  0
 24 50  1  0
 24 51  1  0
 25 52  1  0
 25 53  1  0
M  CHG  1   3   1
M  END
>  <UniqueID>  (30) 
30

>  <SMILES>  (30) 
CC[NH2+]CCOc1ccc2c(c1)CCN(Cc1ccccc1F)CC2

>  <Energy>  (30) 
72.10873631012042

>  <Genealogy>  (30) 
CC[NH2+]CCOc1ccc2c(c1)CCN(Cc1ccccc1F)CC2 (protonated)
CC[NH2+]CCOc1ccc2c(c1)CCN(Cc1ccccc1F)CC2 (3D coordinates assigned)
CC[NH2+]CCOc1ccc2c(c1)CCN(Cc1ccccc1F)CC2 (nonaromatic ring conformer: 72.10873631012042 kcal/mol)

>  <smiles>  (30) 
CCNCCOc1ccc2c(c1)CCN(Cc1ccccc1F)CC2

>  <score_type>  (30) 
oracle

>  <origin>  (30) 
adg

>  <m_score__min__energy>  (30) 
-6.5999999999999996

>  <m_primary>  (30) 
energy

$$$$
30:0
     RDKit          3D

 57 60  0  0  0  0  0  0  0  0999 V2000
    0.8180   21.9480  -35.4230 C   0  0  0  0  0  0  0  0  0  0  0  0
    0.2490   21.2160  -34.2090 C   0  0  0  0  0  0  0  0  0  0  0  0
   -1.0740   20.5060  -34.5190 C   0  0  0  0  0  0  0  0  0  0  0  0
   -1.8180   20.2310  -33.2620 N   0  0  0  0  0  0  0  0  0  0  0  0
   -1.3510   18.9840  -32.6130 C   0  0  0  0  0  0  0  0  0  0  0  0
   -1.0280   17.9200  -33.6600 C   0  0  0  0  0  0  0  0  0  0  0  0
   -1.7560   21.3780  -32.3280 C   0  0  0  0  0  0  0  0  0  0  0  0
   -3.0990   22.1280  -32.3150 C   0  0  0  0  0  0  0  0  0  0  0  0
   -3.9240   21.8300  -33.5010 N   0  0  0  0  0  0  0  0  0  0  0  0
   -5.0820   21.0200  -33.1700 C   0  0  0  0  0  0  0  0  0  0  0  0
   -6.1880   21.5310  -32.4260 C   0  0  0  0  0  0  0  0  0  0  0  0
   -6.2100   22.8670  -31.9650 C   0  0  0  0  0  0  0  0  0  0  0  0
   -7.2690   23.3430  -31.1950 C   0  0  0  0  0  0  0  0  0  0  0  0
   -8.3210   22.5020  -30.8560 C   0  0  0  0  0  0  0  0  0  0  0  0
   -8.3410   21.1840  -31.3070 C   0  0  0  0  0  0  0  0  0  0  0  0
   -7.3040   20.6740  -32.1270 C   0  0  0  0  0  0  0  0  0  0  0  0
   -7.3440   19.3770  -32.6120 N   0  0  0  0  0  0  0  0  0  0  0  0
   -8.5810   18.5760  -32.5760 C   0  0  0  0  0  0  0  0  0  0  0  0
   -6.2180   18.8750  -33.2060 C   0  0  0  0  0  0  0  0  0  0  0  0
   -5.1310   19.6650  -33.5230 C   0  0  0  0  0  0  0  0  0  0  0  0
   -4.1720   18.9440  -34.1520 N   0  0  0  0  0  0  0  0  0  0  0  0
   -4.6430   17.6830  -34.1990 C   0  0  0  0  0  0  0  0  0  0  0  0
   -3.9720   16.5700  -34.7020 C   0  0  0  0  0  0  0  0  0  0  0  0
   -4.5930   15.3170  -34.5890 C   0  0  0  0  0  0  0  0  0  0  0  0
   -5.8490   15.1970  -33.9610 C   0  0  0  0  0  0  0  0  0  0  0  0
   -6.5050   16.3310  -33.4520 C   0  0  0  0  0  0  0  0  0  0  0  0
   -5.8920   17.5810  -33.6170 C   0  0  0  0  0  0  0  0  0  0  0  0
    1.4604   22.7744  -35.0849 H   0  0  0  0  0  0  0  0  0  0  0  0
    1.4108   21.2471  -36.0291 H   0  0  0  0  0  0  0  0  0  0  0  0
   -0.0074   22.3495  -36.0291 H   0  0  0  0  0  0  0  0  0  0  0  0
    0.9813   20.4669  -33.8735 H   0  0  0  0  0  0  0  0  0  0  0  0
    0.0513   21.9658  -33.4288 H   0  0  0  0  0  0  0  0  0  0  0  0
   -1.6861   21.1472  -35.1703 H   0  0  0  0  0  0  0  0  0  0  0  0
   -0.8590   19.5526  -35.0238 H   0  0  0  0  0  0  0  0  0  0  0  0
   -0.4462   19.1993  -32.0257 H   0  0  0  0  0  0  0  0  0  0  0  0
   -2.1494   18.6053  -31.9579 H   0  0  0  0  0  0  0  0  0  0  0  0
   -0.7439   16.9843  -33.1563 H   0  0  0  0  0  0  0  0  0  0  0  0
   -1.9131   17.7438  -34.2889 H   0  0  0  0  0  0  0  0  0  0  0  0
   -0.1943   18.2656  -34.2889 H   0  0  0  0  0  0  0  0  0  0  0  0
   -1.5360   21.0098  -31.3151 H   0  0  0  0  0  0  0  0  0  0  0  0
   -0.9644   22.0666  -32.6584 H   0  0  0  0  0  0  0  0  0  0  0  0
   -3.6579   21.8352  -31.4139 H   0  0  0  0  0  0  0  0  0  0  0  0
   -2.8799   23.2059  -32.3226 H   0  0  0  0  0  0  0  0  0  0  0  0
   -4.2370   22.7250  -33.9400 H   0  0  0  0  0  0  0  0  0  0  0  0
   -3.3370   21.3740  -34.2350 H   0  0  0  0  0  0  0  0  0  0  0  0
   -5.3784   23.5411  -32.2180 H   0  0  0  0  0  0  0  0  0  0  0  0
   -7.2719   24.3889  -30.8542 H   0  0  0  0  0  0  0  0  0  0  0  0
   -9.1423   22.8783  -30.2284 H   0  0  0  0  0  0  0  0  0  0  0  0
   -9.1764   20.5278  -31.0215 H   0  0  0  0  0  0  0  0  0  0  0  0
   -8.8674   18.3905  -31.5303 H   0  0  0  0  0  0  0  0  0  0  0  0
   -9.3875   19.1238  -33.0854 H   0  0  0  0  0  0  0  0  0  0  0  0
   -8.4111   17.6160  -33.0854 H   0  0  0  0  0  0  0  0  0  0  0  0
   -3.2400   19.2600  -34.4980 H   0  0  0  0  0  0  0  0  0  0  0  0
   -2.9836   16.6710  -35.1742 H   0  0  0  0  0  0  0  0  0  0  0  0
   -4.0964   14.4225  -34.9931 H   0  0  0  0  0  0  0  0  0  0  0  0
   -6.3200   14.2072  -33.8684 H   0  0  0  0  0  0  0  0  0  0  0  0
   -7.4733   16.2402  -32.9380 H   0  0  0  0  0  0  0  0  0  0  0  0
  1  2  1  0
  2  3  1  0
  3  4  1  0
  4  5  1  0
  5  6  1  0
  4  7  1  0
  7  8  1  0
  8  9  1  0
  9 10  1  0
 10 11  2  0
 11 12  1  0
 12 13  2  0
 13 14  1  0
 14 15  2  0
 15 16  1  0
 16 17  2  0
 17 18  1  0
 17 19  1  0
 19 20  2  0
 20 21  1  0
 21 22  1  0
 22 23  2  0
 23 24  1  0
 24 25  2  0
 25 26  1  0
 26 27  2  0
 20 10  1  0
 27 22  1  0
 16 11  1  0
 27 19  1  0
  1 28  1  0
  1 29  1  0
  1 30  1  0
  2 31  1  0
  2 32  1  0
  3 33  1  0
  3 34  1  0
  5 35  1  0
  5 36  1  0
  6 37  1  0
  6 38  1  0
  6 39  1  0
  7 40  1  0
  7 41  1  0
  8 42  1  0
  8 43  1  0
  9 44  1  0
  9 45  1  0
 12 46  1  0
 13 47  1  0
 14 48  1  0
 15 49  1  0
 18 50  1  0
 18 51  1  0
 18 52  1  0
 21 53  1  0
 23 54  1  0
 24 55  1  0
 25 56  1  0
 26 57  1  0
M  CHG  2   9   1  17   1
M  END
>  <UniqueID>  (31) 
31

>  <SMILES>  (31) 
CCCN(CC)CC[NH2+]c1c2ccccc2[n+](C)c2c1[nH]c1ccccc12

>  <Energy>  (31) 
116.66370703819108

>  <Genealogy>  (31) 
CCCN(CC)CC[NH2+]c1c2ccccc2[n+](C)c2c1[nH]c1ccccc12 (protonated)
CCCN(CC)CC[NH2+]c1c2ccccc2[n+](C)c2c1[nH]c1ccccc12 (3D coordinates assigned)
CCCN(CC)CC[NH2+]c1c2ccccc2[n+](C)c2c1[nH]c1ccccc12 (optimized conformer: 116.66370703819108 kcal/mol)

>  <smiles>  (31) 
CCCN(CC)CCNc1c2ccccc2[n+](C)c2c1[nH]c1ccccc12

>  <score_type>  (31) 
oracle

>  <origin>  (31) 
adg

>  <m_score__min__energy>  (31) 
-8.1300000000000008

>  <m_primary>  (31) 
energy

$$$$
31:0
     RDKit          3D

 58 59  0  0  0  0  0  0  0  0999 V2000
   -2.3920   20.2460  -27.5520 C   0  0  0  0  0  0  0  0  0  0  0  0
   -1.0950   20.9040  -28.0210 C   0  0  0  0  0  0  0  0  0  0  0  0
   -1.3300   21.8390  -29.1300 N   0  0  0  0  0  0  0  0  0  0  0  0
   -1.0030   23.2260  -28.9700 C   0  0  0  0  0  0  0  0  0  0  0  0
    0.1950   23.5930  -29.1180 O   0  0  0  0  0  0  0  0  0  0  0  0
   -2.0770   24.2250  -28.5910 C   0  0  0  0  0  0  0  0  0  0  0  0
   -2.6680   23.8920  -27.1970 C   0  0  0  0  0  0  0  0  0  0  0  0
   -1.4650   25.6390  -28.5310 C   0  0  0  0  0  0  0  0  0  0  0  0
   -3.1590   24.2010  -29.6540 C   0  0  0  0  0  0  0  0  0  0  0  0
   -3.4050   25.2300  -30.3420 O   0  0  0  0  0  0  0  0  0  0  0  0
   -3.8740   22.9910  -29.9370 N   0  0  0  0  0  0  0  0  0  0  0  0
   -5.0750   22.7030  -29.1520 C   0  0  0  0  0  0  0  0  0  0  0  0
   -3.2450   21.9500  -30.7110 C   0  0  0  0  0  0  0  0  0  0  0  0
   -3.8650   21.4890  -31.8880 C   0  0  0  0  0  0  0  0  0  0  0  0
   -3.2640   20.5150  -32.6900 C   0  0  0  0  0  0  0  0  0  0  0  0
   -3.9430   20.0900  -33.8410 O   0  0  0  0  0  0  0  0  0  0  0  0
   -4.2640   18.7320  -34.1340 C   0  0  0  0  0  0  0  0  0  0  0  0
   -3.8090   17.8360  -32.9880 C   0  0  0  0  0  0  0  0  0  0  0  0
   -4.8800   17.6180  -32.0870 O   0  0  0  0  0  0  0  0  0  0  0  0
   -5.9410   16.9060  -32.6960 C   0  0  0  0  0  0  0  0  0  0  0  0
   -7.2700   17.6650  -32.5730 C   0  0  0  0  0  0  0  0  0  0  0  0
   -7.2060   18.8140  -31.5560 C   0  0  0  0  0  0  0  0  0  0  0  0
   -6.4900   19.9670  -32.1200 N   0  0  0  0  0  0  0  0  0  0  0  0
   -7.1350   20.4060  -33.3600 C   0  0  0  0  0  0  0  0  0  0  0  0
   -2.0130   19.9990  -32.3190 C   0  0  0  0  0  0  0  0  0  0  0  0
   -1.3860   20.4440  -31.1540 C   0  0  0  0  0  0  0  0  0  0  0  0
   -1.9930   21.4110  -30.3340 C   0  0  0  0  0  0  0  0  0  0  0  0
   -2.4194   20.2321  -26.4524 H   0  0  0  0  0  0  0  0  0  0  0  0
   -3.2515   20.8171  -27.9330 H   0  0  0  0  0  0  0  0  0  0  0  0
   -2.4388   19.2151  -27.9330 H   0  0  0  0  0  0  0  0  0  0  0  0
   -0.6497   21.4543  -27.1790 H   0  0  0  0  0  0  0  0  0  0  0  0
   -0.4184   20.1131  -28.3769 H   0  0  0  0  0  0  0  0  0  0  0  0
   -1.9953   24.2710  -26.4135 H   0  0  0  0  0  0  0  0  0  0  0  0
   -3.6549   24.3668  -27.0942 H   0  0  0  0  0  0  0  0  0  0  0  0
   -2.7731   22.8019  -27.0942 H   0  0  0  0  0  0  0  0  0  0  0  0
   -1.3355   25.9382  -27.4804 H   0  0  0  0  0  0  0  0  0  0  0  0
   -0.4872   25.6370  -29.0349 H   0  0  0  0  0  0  0  0  0  0  0  0
   -2.1357   26.3505  -29.0349 H   0  0  0  0  0  0  0  0  0  0  0  0
   -4.8349   22.7606  -28.0801 H   0  0  0  0  0  0  0  0  0  0  0  0
   -5.8558   23.4394  -29.3929 H   0  0  0  0  0  0  0  0  0  0  0  0
   -5.4370   21.6926  -29.3929 H   0  0  0  0  0  0  0  0  0  0  0  0
   -4.8407   21.9032  -32.1818 H   0  0  0  0  0  0  0  0  0  0  0  0
   -5.3518   18.6338  -34.2648 H   0  0  0  0  0  0  0  0  0  0  0  0
   -3.7510   18.4285  -35.0585 H   0  0  0  0  0  0  0  0  0  0  0  0
   -3.4716   16.8704  -33.3928 H   0  0  0  0  0  0  0  0  0  0  0  0
   -2.9823   18.3266  -32.4533 H   0  0  0  0  0  0  0  0  0  0  0  0
   -5.7092   16.7610  -33.7615 H   0  0  0  0  0  0  0  0  0  0  0  0
   -6.0469   15.9384  -32.1837 H   0  0  0  0  0  0  0  0  0  0  0  0
   -7.5298   18.0810  -33.5576 H   0  0  0  0  0  0  0  0  0  0  0  0
   -8.0283   16.9509  -32.2193 H   0  0  0  0  0  0  0  0  0  0  0  0
   -8.2291   19.1188  -31.2905 H   0  0  0  0  0  0  0  0  0  0  0  0
   -6.6677   18.4658  -30.6621 H   0  0  0  0  0  0  0  0  0  0  0  0
   -5.5180   19.6570  -32.3630 H   0  0  0  0  0  0  0  0  0  0  0  0
   -8.0221   21.0098  -33.1180 H   0  0  0  0  0  0  0  0  0  0  0  0
   -6.4283   21.0114  -33.9465 H   0  0  0  0  0  0  0  0  0  0  0  0
   -7.4390   19.5264  -33.9465 H   0  0  0  0  0  0  0  0  0  0  0  0
   -1.5245   19.2408  -32.9487 H   0  0  0  0  0  0  0  0  0  0  0  0
   -0.4048   20.0329  -30.8742 H   0  0  0  0  0  0  0  0  0  0  0  0
  1  2  1  0
  2  3  1  0
  3  4  1  0
  4  5  2  0
  4  6  1  0
  6  7  1  0
  6  8  1  0
  6  9  1  0
  9 10  2  0
  9 11  1  0
 11 12  1  0
 11 13  1  0
 13 14  2  0
 14 15  1  0
 15 16  1  0
 16 17  1  0
 17 18  1  0
 18 19  1  0
 19 20  1  0
 20 21  1  0
 21 22  1  0
 22 23  1  0
 23 24  1  0
 15 25  2  0
 25 26  1  0
 26 27  2  0
 27  3  1  0
 27 13  1  0
  1 28  1  0
  1 29  1  0
  1 30  1  0
  2 31  1  0
  2 32  1  0
  7 33  1  0
  7 34  1  0
  7 35  1  0
  8 36  1  0
  8 37  1  0
  8 38  1  0
 12 39  1  0
 12 40  1  0
 12 41  1  0
 14 42  1  0
 17 43  1  0
 17 44  1  0
 18 45  1  0
 18 46  1  0
 20 47  1  0
 20 48  1  0
 21 49  1  0
 21 50  1  0
 22 51  1  0
 22 52  1  0
 23 53  1  0
 24 54  1  0
 24 55  1  0
 24 56  1  0
 25 57  1  0
 26 58  1  0
M  END
>  <UniqueID>  (32) 
32

>  <SMILES>  (32) 
CCN1C(=O)C(C)(C)C(=O)N(C)c2cc(OCCOCCCNC)ccc21

>  <Energy>  (32) 
73.57718891104857

>  <Genealogy>  (32) 
CCN1C(=O)C(C)(C)C(=O)N(C)c2cc(OCCOCCCNC)ccc21 (3D coordinates assigned)
CCN1C(=O)C(C)(C)C(=O)N(C)c2cc(OCCOCCCNC)ccc21 (nonaromatic ring conformer: 73.57718891104857 kcal/mol)

>  <smiles>  (32) 
CCN1C(=O)C(C)(C)C(=O)N(C)c2cc(OCCOCCCNC)ccc21

>  <score_type>  (32) 
oracle

>  <origin>  (32) 
adg

>  <m_score__min__energy>  (32) 
-5.8799999999999999

>  <m_primary>  (32) 
energy

$$$$
32:0
     RDKit          3D

 35 38  0  0  0  0  0  0  0  0999 V2000
   -2.5820   21.0840  -32.5510 C   0  0  0  0  0  0  0  0  0  0  0  0
   -3.7760   21.2210  -33.4920 C   0  0  0  0  0  0  0  0  0  0  0  0
   -4.9910   20.6810  -32.8710 N   0  0  0  0  0  0  0  0  0  0  0  0
   -5.4860   19.4380  -33.1130 C   0  0  0  0  0  0  0  0  0  0  0  0
   -4.8980   18.4030  -33.8530 C   0  0  0  0  0  0  0  0  0  0  0  0
   -5.6080   17.1980  -33.9970 C   0  0  0  0  0  0  0  0  0  0  0  0
   -6.8830   17.0430  -33.4130 C   0  0  0  0  0  0  0  0  0  0  0  0
   -7.4570   18.0920  -32.6740 C   0  0  0  0  0  0  0  0  0  0  0  0
   -6.7260   19.2720  -32.5420 C   0  0  0  0  0  0  0  0  0  0  0  0
   -7.0200   20.4520  -31.9070 C   0  0  0  0  0  0  0  0  0  0  0  0
   -8.1760   20.8290  -31.2360 C   0  0  0  0  0  0  0  0  0  0  0  0
   -8.2450   22.1220  -30.7160 C   0  0  0  0  0  0  0  0  0  0  0  0
   -7.1460   23.0040  -30.8260 C   0  0  0  0  0  0  0  0  0  0  0  0
   -7.2370   24.2820  -30.2560 C   0  0  0  0  0  0  0  0  0  0  0  0
   -6.1460   25.1480  -30.2880 C   0  0  0  0  0  0  0  0  0  0  0  0
   -4.9440   24.7400  -30.8630 C   0  0  0  0  0  0  0  0  0  0  0  0
   -3.8510   25.6030  -30.8410 O   0  0  0  0  0  0  0  0  0  0  0  0
   -4.8370   23.4700  -31.4470 C   0  0  0  0  0  0  0  0  0  0  0  0
   -5.9440   22.5950  -31.4870 C   0  0  0  0  0  0  0  0  0  0  0  0
   -5.9310   21.2990  -32.0840 C   0  0  0  0  0  0  0  0  0  0  0  0
   -2.9304   21.1240  -31.5084 H   0  0  0  0  0  0  0  0  0  0  0  0
   -2.0800   20.1224  -32.7332 H   0  0  0  0  0  0  0  0  0  0  0  0
   -1.8752   21.9069  -32.7332 H   0  0  0  0  0  0  0  0  0  0  0  0
   -3.9318   22.2847  -33.7250 H   0  0  0  0  0  0  0  0  0  0  0  0
   -3.5678   20.6551  -34.4120 H   0  0  0  0  0  0  0  0  0  0  0  0
   -3.9055   18.5303  -34.3099 H   0  0  0  0  0  0  0  0  0  0  0  0
   -5.1659   16.3694  -34.5696 H   0  0  0  0  0  0  0  0  0  0  0  0
   -7.4304   16.0969  -33.5366 H   0  0  0  0  0  0  0  0  0  0  0  0
   -8.4508   17.9854  -32.2147 H   0  0  0  0  0  0  0  0  0  0  0  0
   -9.0147   20.1272  -31.1176 H   0  0  0  0  0  0  0  0  0  0  0  0
   -9.1647   22.4586  -30.2150 H   0  0  0  0  0  0  0  0  0  0  0  0
   -8.1757   24.6028  -29.7806 H   0  0  0  0  0  0  0  0  0  0  0  0
   -6.2337   26.1567  -29.8581 H   0  0  0  0  0  0  0  0  0  0  0  0
   -3.1990   25.6560  -31.6150 H   0  0  0  0  0  0  0  0  0  0  0  0
   -3.8774   23.1510  -31.8799 H   0  0  0  0  0  0  0  0  0  0  0  0
  1  2  1  0
  2  3  1  0
  3  4  1  0
  4  5  2  0
  5  6  1  0
  6  7  2  0
  7  8  1  0
  8  9  2  0
  9 10  1  0
 10 11  2  0
 11 12  1  0
 12 13  2  0
 13 14  1  0
 14 15  2  0
 15 16  1  0
 16 17  1  0
 16 18  2  0
 18 19  1  0
 19 20  2  0
 20  3  1  0
  9  4  1  0
 20 10  1  0
 19 13  1  0
  1 21  1  0
  1 22  1  0
  1 23  1  0
  2 24  1  0
  2 25  1  0
  5 26  1  0
  6 27  1  0
  7 28  1  0
  8 29  1  0
 11 30  1  0
 12 31  1  0
 14 32  1  0
 15 33  1  0
 17 34  1  0
 18 35  1  0
M  END
>  <UniqueID>  (33) 
33

>  <SMILES>  (33) 
CCn1c2ccccc2c2ccc3ccc(O)cc3c21

>  <Energy>  (33) 
89.95360499172686

>  <Genealogy>  (33) 
CCn1c2ccccc2c2ccc3ccc(O)cc3c21 (3D coordinates assigned)
CCn1c2ccccc2c2ccc3ccc(O)cc3c21 (optimized conformer: 89.95360499172686 kcal/mol)

>  <smiles>  (33) 
CCn1c2ccccc2c2ccc3ccc(O)cc3c21

>  <score_type>  (33) 
oracle

>  <origin>  (33) 
adg

>  <m_score__min__energy>  (33) 
-10.16

>  <m_primary>  (33) 
energy

$$$$
33:0
     RDKit          3D

 39 41  0  0  0  0  0  0  0  0999 V2000
   -1.6290   19.3810  -34.2220 C   0  0  0  0  0  0  0  0  0  0  0  0
   -1.2480   20.8000  -34.3450 N   0  0  0  0  0  0  0  0  0  0  0  0
    0.0530   20.9380  -35.0210 C   0  0  0  0  0  0  0  0  0  0  0  0
   -1.2960   21.5190  -33.0470 C   0  0  0  0  0  0  0  0  0  0  0  0
   -2.6380   21.3990  -32.2980 C   0  0  0  0  0  0  0  0  0  0  0  0
   -3.7320   21.8070  -33.1780 N   0  0  0  0  0  0  0  0  0  0  0  0
   -5.0980   21.5530  -32.8240 C   0  0  0  0  0  0  0  0  0  0  0  0
   -5.8930   22.6090  -32.3040 C   0  0  0  0  0  0  0  0  0  0  0  0
   -5.3570   23.8440  -32.1390 F   0  0  0  0  0  0  0  0  0  0  0  0
   -7.2490   22.3980  -31.9760 C   0  0  0  0  0  0  0  0  0  0  0  0
   -7.7920   21.1270  -32.1650 C   0  0  0  0  0  0  0  0  0  0  0  0
   -7.0170   20.1200  -32.6430 C   0  0  0  0  0  0  0  0  0  0  0  0
   -7.6940   18.9450  -32.7290 C   0  0  0  0  0  0  0  0  0  0  0  0
   -7.0420   17.7910  -33.1690 C   0  0  0  0  0  0  0  0  0  0  0  0
   -5.6750   17.8800  -33.5090 C   0  0  0  0  0  0  0  0  0  0  0  0
   -4.9870   19.1120  -33.4080 C   0  0  0  0  0  0  0  0  0  0  0  0
   -5.6730   20.2670  -32.9770 C   0  0  0  0  0  0  0  0  0  0  0  0
   -9.1090   19.1250  -32.2780 C   0  0  0  0  0  0  0  0  0  0  0  0
   -9.1760   20.6310  -31.8850 C   0  0  0  0  0  0  0  0  0  0  0  0
   -1.7013   19.1117  -33.1579 H   0  0  0  0  0  0  0  0  0  0  0  0
   -2.6024   19.2192  -34.7081 H   0  0  0  0  0  0  0  0  0  0  0  0
   -0.8675   18.7534  -34.7081 H   0  0  0  0  0  0  0  0  0  0  0  0
   -1.9630   21.2530  -34.9630 H   0  0  0  0  0  0  0  0  0  0  0  0
    0.8503   21.0226  -34.2679 H   0  0  0  0  0  0  0  0  0  0  0  0
    0.2350   20.0541  -35.6500 H   0  0  0  0  0  0  0  0  0  0  0  0
    0.0455   21.8404  -35.6500 H   0  0  0  0  0  0  0  0  0  0  0  0
   -0.5042   21.1132  -32.4002 H   0  0  0  0  0  0  0  0  0  0  0  0
   -1.1602   22.5863  -33.2758 H   0  0  0  0  0  0  0  0  0  0  0  0
   -2.7901   20.3554  -31.9853 H   0  0  0  0  0  0  0  0  0  0  0  0
   -2.6204   22.0513  -31.4124 H   0  0  0  0  0  0  0  0  0  0  0  0
   -3.5070   21.9190  -34.1930 H   0  0  0  0  0  0  0  0  0  0  0  0
   -7.8651   23.2185  -31.5796 H   0  0  0  0  0  0  0  0  0  0  0  0
   -7.5810   16.8354  -33.2487 H   0  0  0  0  0  0  0  0  0  0  0  0
   -5.1399   16.9836  -33.8555 H   0  0  0  0  0  0  0  0  0  0  0  0
   -3.9190   19.1693  -33.6651 H   0  0  0  0  0  0  0  0  0  0  0  0
   -9.8131   18.8994  -33.0925 H   0  0  0  0  0  0  0  0  0  0  0  0
   -9.3841   18.4536  -31.4513 H   0  0  0  0  0  0  0  0  0  0  0  0
   -9.9166   21.1649  -32.4985 H   0  0  0  0  0  0  0  0  0  0  0  0
   -9.4843   20.7880  -30.8408 H   0  0  0  0  0  0  0  0  0  0  0  0
  1  2  1  0
  2  3  1  0
  2  4  1  0
  4  5  1  0
  5  6  1  0
  6  7  1  0
  7  8  2  0
  8  9  1  0
  8 10  1  0
 10 11  2  0
 11 12  1  0
 12 13  2  0
 13 14  1  0
 14 15  2  0
 15 16  1  0
 16 17  2  0
 13 18  1  0
 18 19  1  0
 17  7  1  0
 19 11  1  0
 17 12  1  0
  1 20  1  0
  1 21  1  0
  1 22  1  0
  2 23  1  0
  3 24  1  0
  3 25  1  0
  3 26  1  0
  4 27  1  0
  4 28  1  0
  5 29  1  0
  5 30  1  0
  6 31  1  0
 10 32  1  0
 14 33  1  0
 15 34  1  0
 16 35  1  0
 18 36  1  0
 18 37  1  0
 19 38  1  0
 19 39  1  0
M  CHG  1   2   1
M  END
>  <UniqueID>  (34) 
34

>  <SMILES>  (34) 
C[NH+](C)CCNc1c(F)cc2c3c(cccc13)CC2

>  <Energy>  (34) 
66.53551296399856

>  <Genealogy>  (34) 
C[NH+](C)CCNc1c(F)cc2c3c(cccc13)CC2 (protonated)
C[NH+](C)CCNc1c(F)cc2c3c(cccc13)CC2 (3D coordinates assigned)
C[NH+](C)CCNc1c(F)cc2c3c(cccc13)CC2 (nonaromatic ring conformer: 66.53551296399856 kcal/mol)

>  <smiles>  (34) 
CN(C)CCNc1c(F)cc2c3c(cccc13)CC2

>  <score_type>  (34) 
oracle

>  <origin>  (34) 
adg

>  <m_score__min__energy>  (34) 
-6.7000000000000002

>  <m_primary>  (34) 
energy

$$$$
