0:0
     RDKit          3D

 36 38  0  0  0  0  0  0  0  0999 V2000
   -5.8350   16.5650  -34.2030 C   0  0  0  0  0  0  0  0  0  0  0  0
   -6.4660   17.7600  -33.5540 C   0  0  0  0  0  0  0  0  0  0  0  0
   -7.6100   17.6010  -32.7300 C   0  0  0  0  0  0  0  0  0  0  0  0
   -8.1920   18.7090  -32.0880 C   0  0  0  0  0  0  0  0  0  0  0  0
   -7.5960   19.9560  -32.2790 C   0  0  0  0  0  0  0  0  0  0  0  0
   -6.4860   20.1110  -33.0580 C   0  0  0  0  0  0  0  0  0  0  0  0
   -5.8840   19.0380  -33.7120 C   0  0  0  0  0  0  0  0  0  0  0  0
   -6.1260   21.4050  -33.0820 N   0  0  0  0  0  0  0  0  0  0  0  0
   -7.0510   22.0210  -32.3050 C   0  0  0  0  0  0  0  0  0  0  0  0
   -7.0740   23.7990  -32.0450 S   0  0  0  0  0  0  0  0  0  0  0  0
   -6.6140   23.7010  -30.2790 C   0  0  0  0  0  0  0  0  0  0  0  0
   -5.1400   23.4510  -30.1130 C   0  0  0  0  0  0  0  0  0  0  0  0
   -4.6310   22.1450  -30.2050 C   0  0  0  0  0  0  0  0  0  0  0  0
   -3.2670   21.9050  -30.0150 C   0  0  0  0  0  0  0  0  0  0  0  0
   -2.4020   22.9660  -29.7270 C   0  0  0  0  0  0  0  0  0  0  0  0
   -2.9020   24.2690  -29.6290 C   0  0  0  0  0  0  0  0  0  0  0  0
   -2.0650   25.2940  -29.3410 F   0  0  0  0  0  0  0  0  0  0  0  0
   -4.2660   24.5110  -29.8210 C   0  0  0  0  0  0  0  0  0  0  0  0
   -7.9610   21.1540  -31.7870 N   0  0  0  0  0  0  0  0  0  0  0  0
   -9.1030   21.4410  -30.9210 C   0  0  0  0  0  0  0  0  0  0  0  0
   -5.4710   15.8757  -33.4269 H   0  0  0  0  0  0  0  0  0  0  0  0
   -6.5797   16.0519  -34.8292 H   0  0  0  0  0  0  0  0  0  0  0  0
   -4.9913   16.8906  -34.8292 H   0  0  0  0  0  0  0  0  0  0  0  0
   -8.0464   16.6008  -32.5918 H   0  0  0  0  0  0  0  0  0  0  0  0
   -9.0861   18.5963  -31.4572 H   0  0  0  0  0  0  0  0  0  0  0  0
   -4.9857   19.1809  -34.3306 H   0  0  0  0  0  0  0  0  0  0  0  0
   -5.3330   21.8420  -33.6000 H   0  0  0  0  0  0  0  0  0  0  0  0
   -6.8744   24.6499  -29.7874 H   0  0  0  0  0  0  0  0  0  0  0  0
   -7.1625   22.8639  -29.8225 H   0  0  0  0  0  0  0  0  0  0  0  0
   -5.3086   21.3076  -30.4275 H   0  0  0  0  0  0  0  0  0  0  0  0
   -2.8734   20.8807  -30.0920 H   0  0  0  0  0  0  0  0  0  0  0  0
   -1.3289   22.7759  -29.5776 H   0  0  0  0  0  0  0  0  0  0  0  0
   -4.6562   25.5365  -29.7429 H   0  0  0  0  0  0  0  0  0  0  0  0
   -8.7936   21.3632  -29.8683 H   0  0  0  0  0  0  0  0  0  0  0  0
   -9.4685   22.4589  -31.1215 H   0  0  0  0  0  0  0  0  0  0  0  0
   -9.9063   20.7168  -31.1215 H   0  0  0  0  0  0  0  0  0  0  0  0
  1  2  1  0
  2  3  2  0
  3  4  1  0
  4  5  2  0
  5  6  1  0
  6  7  2  0
  6  8  1  0
  8  9  2  0
  9 10  1  0
 10 11  1  0
 11 12  1  0
 12 13  2  0
 13 14  1  0
 14 15  2  0
 15 16  1  0
 16 17  1  0
 16 18  2  0
  9 19  1  0
 19 20  1  0
  7  2  1  0
 18 12  1  0
 19  5  1  0
  1 21  1  0
  1 22  1  0
  1 23  1  0
  3 24  1  0
  4 25  1  0
  7 26  1  0
  8 27  1  0
 11 28  1  0
 11 29  1  0
 13 30  1  0
 14 31  1  0
 15 32  1  0
 18 33  1  0
 20 34  1  0
 20 35  1  0
 20 36  1  0
M  CHG  1   8   1
M  END
>  <UniqueID>  (1) 
1

>  <SMILES>  (1) 
Cc1ccc2c(c1)[nH+]c(SCc1cccc(F)c1)n2C

>  <Energy>  (1) 
69.5620477214629

>  <Genealogy>  (1) 
Cc1ccc2c(c1)[nH+]c(SCc1cccc(F)c1)n2C (protonated)
Cc1ccc2c(c1)[nH+]c(SCc1cccc(F)c1)n2C (3D coordinates assigned)
Cc1ccc2c(c1)[nH+]c(SCc1cccc(F)c1)n2C (optimized conformer: 69.5620477214629 kcal/mol)

>  <smiles>  (1) 
Cc1ccc2c(c1)nc(SCc1cccc(F)c1)n2C

>  <score_type>  (1) 
oracle

>  <origin>  (1) 
adg

>  <m_score__min__energy>  (1) 
-7.4400000000000004

>  <m_primary>  (1) 
energy

$$$$
1:0
     RDKit          3D

 46 48  0  0  0  0  0  0  0  0999 V2000
   -6.8070   16.0160  -33.9800 C   0  0  0  0  0  0  0  0  0  0  0  0
   -6.1560   17.0930  -33.1650 C   0  0  0  0  0  0  0  0  0  0  0  0
   -6.5240   17.4360  -31.8790 C   0  0  0  0  0  0  0  0  0  0  0  0
   -5.7470   18.5190  -31.5260 C   0  0  0  0  0  0  0  0  0  0  0  0
   -4.9250   18.7930  -32.6100 C   0  0  0  0  0  0  0  0  0  0  0  0
   -3.9350   19.9290  -32.7010 C   0  0  0  0  0  0  0  0  0  0  0  0
   -4.4480   21.0500  -33.5050 N   0  0  0  0  0  0  0  0  0  0  0  0
   -4.9400   22.1700  -32.6810 C   0  0  0  0  0  0  0  0  0  0  0  0
   -6.3260   21.9180  -32.1200 C   0  0  0  0  0  0  0  0  0  0  0  0
   -7.1660   20.9990  -32.7680 C   0  0  0  0  0  0  0  0  0  0  0  0
   -8.4660   20.7880  -32.3160 C   0  0  0  0  0  0  0  0  0  0  0  0
   -8.9270   21.4960  -31.2090 C   0  0  0  0  0  0  0  0  0  0  0  0
   -8.1050   22.3700  -30.5720 N   0  0  0  0  0  0  0  0  0  0  0  0
   -6.8260   22.5970  -30.9800 C   0  0  0  0  0  0  0  0  0  0  0  0
   -6.0180   23.5130  -30.2250 N   0  0  0  0  0  0  0  0  0  0  0  0
   -4.6850   23.0980  -29.7840 C   0  0  0  0  0  0  0  0  0  0  0  0
   -3.8220   24.3240  -29.4960 C   0  0  0  0  0  0  0  0  0  0  0  0
   -3.9920   25.2610  -30.5380 O   0  0  0  0  0  0  0  0  0  0  0  0
   -5.2710   25.8750  -30.4650 C   0  0  0  0  0  0  0  0  0  0  0  0
   -6.4250   24.9170  -30.0790 C   0  0  0  0  0  0  0  0  0  0  0  0
   -5.1990   17.9310  -33.6190 N   0  0  0  0  0  0  0  0  0  0  0  0
   -4.6390   17.9310  -34.9730 C   0  0  0  0  0  0  0  0  0  0  0  0
   -7.2578   15.2702  -33.3088 H   0  0  0  0  0  0  0  0  0  0  0  0
   -7.5890   16.4584  -34.6146 H   0  0  0  0  0  0  0  0  0  0  0  0
   -6.0518   15.5292  -34.6146 H   0  0  0  0  0  0  0  0  0  0  0  0
   -7.2866   16.9426  -31.2586 H   0  0  0  0  0  0  0  0  0  0  0  0
   -5.7736   19.0614  -30.5694 H   0  0  0  0  0  0  0  0  0  0  0  0
   -3.7175   20.2916  -31.6855 H   0  0  0  0  0  0  0  0  0  0  0  0
   -3.0278   19.5479  -33.1927 H   0  0  0  0  0  0  0  0  0  0  0  0
   -3.6820   21.3900  -34.1320 H   0  0  0  0  0  0  0  0  0  0  0  0
   -4.2437   22.3233  -31.8434 H   0  0  0  0  0  0  0  0  0  0  0  0
   -4.9993   23.0578  -33.3278 H   0  0  0  0  0  0  0  0  0  0  0  0
   -6.7943   20.4409  -33.6400 H   0  0  0  0  0  0  0  0  0  0  0  0
   -9.1224   20.0692  -32.8283 H   0  0  0  0  0  0  0  0  0  0  0  0
   -9.9563   21.3476  -30.8505 H   0  0  0  0  0  0  0  0  0  0  0  0
   -4.7761   22.4942  -28.8690 H   0  0  0  0  0  0  0  0  0  0  0  0
   -4.2117   22.5035  -30.5793 H   0  0  0  0  0  0  0  0  0  0  0  0
   -4.1291   24.7750  -28.5408 H   0  0  0  0  0  0  0  0  0  0  0  0
   -2.7647   24.0274  -29.4319 H   0  0  0  0  0  0  0  0  0  0  0  0
   -5.2244   26.6765  -29.7130 H   0  0  0  0  0  0  0  0  0  0  0  0
   -5.4976   26.2445  -31.4760 H   0  0  0  0  0  0  0  0  0  0  0  0
   -6.7103   25.1014  -29.0328 H   0  0  0  0  0  0  0  0  0  0  0  0
   -7.2754   25.1059  -30.7507 H   0  0  0  0  0  0  0  0  0  0  0  0
   -4.4989   16.8939  -35.3118 H   0  0  0  0  0  0  0  0  0  0  0  0
   -5.3288   18.4495  -35.6551 H   0  0  0  0  0  0  0  0  0  0  0  0
   -3.6689   18.4495  -34.9686 H   0  0  0  0  0  0  0  0  0  0  0  0
  1  2  1  0
  2  3  2  0
  3  4  1  0
  4  5  2  0
  5  6  1  0
  6  7  1  0
  7  8  1  0
  8  9  1  0
  9 10  2  0
 10 11  1  0
 11 12  2  0
 12 13  1  0
 13 14  2  0
 14 15  1  0
 15 16  1  0
 16 17  1  0
 17 18  1  0
 18 19  1  0
 19 20  1  0
  5 21  1  0
 21 22  1  0
 21  2  1  0
 14  9  1  0
 20 15  1  0
  1 23  1  0
  1 24  1  0
  1 25  1  0
  3 26  1  0
  4 27  1  0
  6 28  1  0
  6 29  1  0
  7 30  1  0
  8 31  1  0
  8 32  1  0
 10 33  1  0
 11 34  1  0
 12 35  1  0
 16 36  1  0
 16 37  1  0
 17 38  1  0
 17 39  1  0
 19 40  1  0
 19 41  1  0
 20 42  1  0
 20 43  1  0
 22 44  1  0
 22 45  1  0
 22 46  1  0
M  END
>  <UniqueID>  (2) 
2

>  <SMILES>  (2) 
Cc1ccc(CNCc2cccnc2N2CCOCC2)n1C

>  <Energy>  (2) 
85.00616279717632

>  <Genealogy>  (2) 
Cc1ccc(CNCc2cccnc2N2CCOCC2)n1C (3D coordinates assigned)
Cc1ccc(CNCc2cccnc2N2CCOCC2)n1C (nonaromatic ring conformer: 85.00616279717632 kcal/mol)

>  <smiles>  (2) 
Cc1ccc(CNCc2cccnc2N2CCOCC2)n1C

>  <score_type>  (2) 
oracle

>  <origin>  (2) 
adg

>  <m_score__min__energy>  (2) 
-7.9699999999999998

>  <m_primary>  (2) 
energy

$$$$
2:0
     RDKit          3D

 25 26  0  0  0  0  0  0  0  0999 V2000
   -4.3310   23.1050  -31.9010 O   0  0  0  0  0  0  0  0  0  0  0  0
   -5.4770   23.5330  -31.6030 C   0  0  0  0  0  0  0  0  0  0  0  0
   -5.6180   25.2270  -31.0220 S   0  0  0  0  0  0  0  0  0  0  0  0
   -3.9380   25.2530  -30.4750 N   0  0  0  0  0  0  0  0  0  0  0  0
   -3.5100   24.5610  -29.3000 C   0  0  0  0  0  0  0  0  0  0  0  0
   -4.3630   24.0580  -28.5200 O   0  0  0  0  0  0  0  0  0  0  0  0
   -2.1120   24.4370  -29.0100 N   0  0  0  0  0  0  0  0  0  0  0  0
   -1.3070   23.4100  -29.3280 C   0  0  0  0  0  0  0  0  0  0  0  0
   -0.0440   23.7040  -28.8640 C   0  0  0  0  0  0  0  0  0  0  0  0
   -0.0540   24.9100  -28.2570 N   0  0  0  0  0  0  0  0  0  0  0  0
   -1.3330   25.3280  -28.3660 C   0  0  0  0  0  0  0  0  0  0  0  0
   -6.6620   22.6470  -31.7360 C   0  0  0  0  0  0  0  0  0  0  0  0
   -7.9630   23.1210  -31.4720 C   0  0  0  0  0  0  0  0  0  0  0  0
   -9.0670   22.2730  -31.6060 C   0  0  0  0  0  0  0  0  0  0  0  0
   -8.8900   20.9470  -32.0050 C   0  0  0  0  0  0  0  0  0  0  0  0
   -7.6070   20.4640  -32.2700 C   0  0  0  0  0  0  0  0  0  0  0  0
   -6.4990   21.3070  -32.1370 C   0  0  0  0  0  0  0  0  0  0  0  0
   -1.6037   22.4963  -29.8639 H   0  0  0  0  0  0  0  0  0  0  0  0
    0.8380   23.0555  -28.9715 H   0  0  0  0  0  0  0  0  0  0  0  0
   -1.6982   26.2883  -27.9731 H   0  0  0  0  0  0  0  0  0  0  0  0
   -8.1109   24.1649  -31.1585 H   0  0  0  0  0  0  0  0  0  0  0  0
  -10.0781   22.6521  -31.3963 H   0  0  0  0  0  0  0  0  0  0  0  0
   -9.7607   20.2831  -32.1106 H   0  0  0  0  0  0  0  0  0  0  0  0
   -7.4675   19.4190  -32.5838 H   0  0  0  0  0  0  0  0  0  0  0  0
   -5.4911   20.9198  -32.3475 H   0  0  0  0  0  0  0  0  0  0  0  0
  1  2  2  0
  2  3  1  0
  3  4  1  0
  4  5  1  0
  5  6  2  0
  5  7  1  0
  7  8  1  0
  8  9  2  0
  9 10  1  0
 10 11  2  0
  2 12  1  0
 12 13  2  0
 13 14  1  0
 14 15  2  0
 15 16  1  0
 16 17  2  0
 11  7  1  0
 17 12  1  0
  8 18  1  0
  9 19  1  0
 11 20  1  0
 13 21  1  0
 14 22  1  0
 15 23  1  0
 16 24  1  0
 17 25  1  0
M  CHG  1   4  -1
M  END
>  <UniqueID>  (3) 
3

>  <SMILES>  (3) 
O=C(S[N-]C(=O)n1ccnc1)c1ccccc1

>  <Energy>  (3) 
52.28932509757674

>  <Genealogy>  (3) 
O=C(S[N-]C(=O)n1ccnc1)c1ccccc1 (protonated)
O=C(S[N-]C(=O)n1ccnc1)c1ccccc1 (3D coordinates assigned)
O=C(S[N-]C(=O)n1ccnc1)c1ccccc1 (optimized conformer: 52.28932509757674 kcal/mol)

>  <smiles>  (3) 
O=C(SNC(=O)n1ccnc1)c1ccccc1

>  <score_type>  (3) 
oracle

>  <origin>  (3) 
adg

>  <m_score__min__energy>  (3) 
-8.1099999999999994

>  <m_primary>  (3) 
energy

$$$$
3:0
     RDKit          3D

 56 60  0  0  0  0  0  0  0  0999 V2000
   -4.5280   19.6320  -31.7150 C   0  0  0  0  0  0  0  0  0  0  0  0
   -3.2660   19.9500  -32.4720 C   0  0  0  0  0  0  0  0  0  0  0  0
   -2.4830   21.0450  -32.0700 C   0  0  0  0  0  0  0  0  0  0  0  0
   -1.2820   21.3370  -32.7180 C   0  0  0  0  0  0  0  0  0  0  0  0
   -0.8560   20.5520  -33.7870 C   0  0  0  0  0  0  0  0  0  0  0  0
   -1.6370   19.4790  -34.2190 C   0  0  0  0  0  0  0  0  0  0  0  0
   -2.8550   19.1720  -33.5820 C   0  0  0  0  0  0  0  0  0  0  0  0
   -3.6680   17.9760  -34.0350 C   0  0  1  0  0  0  0  0  0  0  0  0
   -2.9330   16.6540  -34.2280 C   0  0  0  0  0  0  0  0  0  0  0  0
   -3.8680   16.8530  -33.0440 C   0  0  2  0  0  0  0  0  0  0  0  0
   -5.2890   16.3540  -33.2400 C   0  0  0  0  0  0  0  0  0  0  0  0
   -5.9870   17.2860  -34.1430 N   0  0  0  0  0  0  0  0  0  0  0  0
   -7.1010   18.0190  -33.4940 C   0  0  0  0  0  0  0  0  0  0  0  0
   -7.2520   17.7340  -31.9790 C   0  0  0  0  0  0  0  0  0  0  0  0
   -8.6170   18.1820  -31.4390 C   0  0  0  0  0  0  0  0  0  0  0  0
   -9.3720   19.4770  -32.4760 S   0  0  0  0  0  0  0  0  0  0  0  0
   -8.6560   20.8560  -31.5790 C   0  0  0  0  0  0  0  0  0  0  0  0
   -9.1810   21.3520  -30.4430 N   0  0  0  0  0  0  0  0  0  0  0  0
   -8.3620   22.3080  -30.0270 N   0  0  0  0  0  0  0  0  0  0  0  0
   -7.3470   22.3750  -30.9090 C   0  0  0  0  0  0  0  0  0  0  0  0
   -6.1880   23.2790  -30.7240 C   0  0  0  0  0  0  0  0  0  0  0  0
   -4.9080   22.7380  -30.5040 C   0  0  0  0  0  0  0  0  0  0  0  0
   -3.8040   23.5890  -30.3870 C   0  0  0  0  0  0  0  0  0  0  0  0
   -3.9700   24.9340  -30.4940 N   0  0  0  0  0  0  0  0  0  0  0  0
   -5.1940   25.4850  -30.7180 C   0  0  0  0  0  0  0  0  0  0  0  0
   -6.3230   24.6700  -30.8480 C   0  0  0  0  0  0  0  0  0  0  0  0
   -7.5140   21.4830  -31.9130 N   0  0  0  0  0  0  0  0  0  0  0  0
   -6.6840   21.2360  -33.0910 C   0  0  0  0  0  0  0  0  0  0  0  0
   -4.9850   18.1670  -34.7700 C   0  0  0  0  0  0  0  0  0  0  0  0
   -4.3297   19.6820  -30.6342 H   0  0  0  0  0  0  0  0  0  0  0  0
   -5.3076   20.3618  -31.9789 H   0  0  0  0  0  0  0  0  0  0  0  0
   -4.8687   18.6199  -31.9789 H   0  0  0  0  0  0  0  0  0  0  0  0
   -2.8199   21.6785  -31.2362 H   0  0  0  0  0  0  0  0  0  0  0  0
   -0.6708   22.1884  -32.3841 H   0  0  0  0  0  0  0  0  0  0  0  0
    0.0956   20.7777  -34.2905 H   0  0  0  0  0  0  0  0  0  0  0  0
   -1.2973   18.8660  -35.0668 H   0  0  0  0  0  0  0  0  0  0  0  0
   -3.2182   15.9792  -35.0485 H   0  0  0  0  0  0  0  0  0  0  0  0
   -1.8813   16.3559  -34.3511 H   0  0  0  0  0  0  0  0  0  0  0  0
   -3.7382   16.6578  -31.9693 H   0  0  0  0  0  0  0  0  0  0  0  0
   -5.2718   15.3481  -33.6848 H   0  0  0  0  0  0  0  0  0  0  0  0
   -5.8094   16.3032  -32.2722 H   0  0  0  0  0  0  0  0  0  0  0  0
   -6.9279   19.0972  -33.6265 H   0  0  0  0  0  0  0  0  0  0  0  0
   -8.0284   17.6738  -33.9743 H   0  0  0  0  0  0  0  0  0  0  0  0
   -7.1410   16.6529  -31.8090 H   0  0  0  0  0  0  0  0  0  0  0  0
   -6.4750   18.3040  -31.4486 H   0  0  0  0  0  0  0  0  0  0  0  0
   -9.2902   17.3125  -31.4109 H   0  0  0  0  0  0  0  0  0  0  0  0
   -8.4632   18.5998  -30.4331 H   0  0  0  0  0  0  0  0  0  0  0  0
   -4.7758   21.6489  -30.4242 H   0  0  0  0  0  0  0  0  0  0  0  0
   -2.8026   23.1703  -30.2086 H   0  0  0  0  0  0  0  0  0  0  0  0
   -5.2959   26.5774  -30.7972 H   0  0  0  0  0  0  0  0  0  0  0  0
   -7.3089   25.1159  -31.0459 H   0  0  0  0  0  0  0  0  0  0  0  0
   -5.6750   20.9357  -32.7722 H   0  0  0  0  0  0  0  0  0  0  0  0
   -7.1325   20.4324  -33.6936 H   0  0  0  0  0  0  0  0  0  0  0  0
   -6.6201   22.1541  -33.6936 H   0  0  0  0  0  0  0  0  0  0  0  0
   -4.8634   17.8994  -35.8300 H   0  0  0  0  0  0  0  0  0  0  0  0
   -5.3078   19.2169  -34.7104 H   0  0  0  0  0  0  0  0  0  0  0  0
  1  2  1  0
  2  3  2  0
  3  4  1  0
  4  5  2  0
  5  6  1  0
  6  7  2  0
  8  7  1  1
  8  9  1  0
  9 10  1  0
 10 11  1  0
 11 12  1  0
 12 13  1  0
 13 14  1  0
 14 15  1  0
 15 16  1  0
 16 17  1  0
 17 18  2  0
 18 19  1  0
 19 20  2  0
 20 21  1  0
 21 22  2  0
 22 23  1  0
 23 24  2  0
 24 25  1  0
 25 26  2  0
 20 27  1  0
 27 28  1  0
 12 29  1  0
  7  2  1  0
 10  8  1  0
 27 17  1  0
 29  8  1  0
 26 21  1  0
  1 30  1  0
  1 31  1  0
  1 32  1  0
  3 33  1  0
  4 34  1  0
  5 35  1  0
  6 36  1  0
  9 37  1  0
  9 38  1  0
 10 39  1  1
 11 40  1  0
 11 41  1  0
 13 42  1  0
 13 43  1  0
 14 44  1  0
 14 45  1  0
 15 46  1  0
 15 47  1  0
 22 48  1  0
 23 49  1  0
 25 50  1  0
 26 51  1  0
 28 52  1  0
 28 53  1  0
 28 54  1  0
 29 55  1  0
 29 56  1  0
M  END
>  <UniqueID>  (4) 
4

>  <SMILES>  (4) 
Cc1ccccc1[C@@]12C[C@@H]1CN(CCCSc1nnc(-c3ccncc3)n1C)C2

>  <Energy>  (4) 
367.9175114196639

>  <Genealogy>  (4) 
Cc1ccccc1[C@@]12C[C@@H]1CN(CCCSc1nnc(-c3ccncc3)n1C)C2 (chirality)
Cc1ccccc1[C@@]12C[C@@H]1CN(CCCSc1nnc(-c3ccncc3)n1C)C2 (3D coordinates assigned)
Cc1ccccc1[C@@]12C[C@@H]1CN(CCCSc1nnc(-c3ccncc3)n1C)C2 (nonaromatic ring conformer: 367.9175114196639 kcal/mol)

>  <smiles>  (4) 
Cc1ccccc1C12CC1CN(CCCSc1nnc(-c3ccncc3)n1C)C2

>  <score_type>  (4) 
oracle

>  <origin>  (4) 
adg

>  <m_score__min__energy>  (4) 
-10.18

>  <m_primary>  (4) 
energy

$$$$
4:0
     RDKit          3D

 42 44  0  0  0  0  0  0  0  0999 V2000
   -9.5570   20.8600  -32.0260 C   0  0  0  0  0  0  0  0  0  0  0  0
   -8.7390   19.5980  -31.7320 C   0  0  0  0  0  0  0  0  0  0  0  0
   -8.2950   18.9190  -32.9650 N   0  0  0  0  0  0  0  0  0  0  0  0
   -7.3380   17.8230  -32.7130 C   0  0  0  0  0  0  0  0  0  0  0  0
   -6.2590   17.7320  -33.8080 C   0  0  0  0  0  0  0  0  0  0  0  0
   -5.3470   18.9660  -33.8500 C   0  0  0  0  0  0  0  0  0  0  0  0
   -6.0820   20.1650  -33.5980 O   0  0  0  0  0  0  0  0  0  0  0  0
   -5.6810   21.2420  -32.7880 C   0  0  0  0  0  0  0  0  0  0  0  0
   -6.6720   22.1170  -32.3270 C   0  0  0  0  0  0  0  0  0  0  0  0
   -6.3410   23.2060  -31.5180 C   0  0  0  0  0  0  0  0  0  0  0  0
   -5.0110   23.4330  -31.1610 C   0  0  0  0  0  0  0  0  0  0  0  0
   -4.0060   22.5500  -31.5880 C   0  0  0  0  0  0  0  0  0  0  0  0
   -4.3390   21.4710  -32.4200 C   0  0  0  0  0  0  0  0  0  0  0  0
   -2.6730   22.6660  -31.0620 N   0  0  0  0  0  0  0  0  0  0  0  0
   -2.4720   23.1880  -29.7390 C   0  0  0  0  0  0  0  0  0  0  0  0
   -1.4450   22.6780  -28.9300 C   0  0  0  0  0  0  0  0  0  0  0  0
   -1.3530   23.0600  -27.5880 C   0  0  0  0  0  0  0  0  0  0  0  0
   -2.2870   23.9470  -27.0450 C   0  0  0  0  0  0  0  0  0  0  0  0
   -3.3020   24.4730  -27.8490 C   0  0  0  0  0  0  0  0  0  0  0  0
   -3.3850   24.1110  -29.1980 C   0  0  0  0  0  0  0  0  0  0  0  0
   -4.5660   24.9300  -30.2740 S   0  0  0  0  0  0  0  0  0  0  0  0
   -9.8610   21.3289  -31.0785 H   0  0  0  0  0  0  0  0  0  0  0  0
   -8.9449   21.5670  -32.6053 H   0  0  0  0  0  0  0  0  0  0  0  0
  -10.4523   20.5900  -32.6053 H   0  0  0  0  0  0  0  0  0  0  0  0
   -7.8528   19.8797  -31.1444 H   0  0  0  0  0  0  0  0  0  0  0  0
   -9.3836   18.9006  -31.1770 H   0  0  0  0  0  0  0  0  0  0  0  0
   -9.1270   18.5320  -33.4700 H   0  0  0  0  0  0  0  0  0  0  0  0
   -7.8610   19.6260  -33.6040 H   0  0  0  0  0  0  0  0  0  0  0  0
   -6.8465   17.9972  -31.7445 H   0  0  0  0  0  0  0  0  0  0  0  0
   -7.8994   16.8771  -32.7116 H   0  0  0  0  0  0  0  0  0  0  0  0
   -5.6392   16.8435  -33.6174 H   0  0  0  0  0  0  0  0  0  0  0  0
   -6.7757   17.6695  -34.7771 H   0  0  0  0  0  0  0  0  0  0  0  0
   -4.5638   18.8586  -33.0851 H   0  0  0  0  0  0  0  0  0  0  0  0
   -4.9040   19.0356  -34.8544 H   0  0  0  0  0  0  0  0  0  0  0  0
   -7.7223   21.9448  -32.6050 H   0  0  0  0  0  0  0  0  0  0  0  0
   -7.1292   23.8856  -31.1618 H   0  0  0  0  0  0  0  0  0  0  0  0
   -3.5489   20.7996  -32.7875 H   0  0  0  0  0  0  0  0  0  0  0  0
   -1.9070   22.1080  -31.5030 H   0  0  0  0  0  0  0  0  0  0  0  0
   -0.7108   21.9762  -29.3524 H   0  0  0  0  0  0  0  0  0  0  0  0
   -0.5439   22.6616  -26.9582 H   0  0  0  0  0  0  0  0  0  0  0  0
   -2.2231   24.2312  -25.9843 H   0  0  0  0  0  0  0  0  0  0  0  0
   -4.0359   25.1718  -27.4211 H   0  0  0  0  0  0  0  0  0  0  0  0
  1  2  1  0
  2  3  1  0
  3  4  1  0
  4  5  1  0
  5  6  1  0
  6  7  1  0
  7  8  1  0
  8  9  2  0
  9 10  1  0
 10 11  2  0
 11 12  1  0
 12 13  2  0
 12 14  1  0
 14 15  1  0
 15 16  2  0
 16 17  1  0
 17 18  2  0
 18 19  1  0
 19 20  2  0
 20 21  1  0
 13  8  1  0
 20 15  1  0
 21 11  1  0
  1 22  1  0
  1 23  1  0
  1 24  1  0
  2 25  1  0
  2 26  1  0
  3 27  1  0
  3 28  1  0
  4 29  1  0
  4 30  1  0
  5 31  1  0
  5 32  1  0
  6 33  1  0
  6 34  1  0
  9 35  1  0
 10 36  1  0
 13 37  1  0
 14 38  1  0
 16 39  1  0
 17 40  1  0
 18 41  1  0
 19 42  1  0
M  CHG  1   3   1
M  END
>  <UniqueID>  (5) 
5

>  <SMILES>  (5) 
CC[NH2+]CCCOc1ccc2c(c1)Nc1ccccc1S2

>  <Energy>  (5) 
55.968435217961776

>  <Genealogy>  (5) 
CC[NH2+]CCCOc1ccc2c(c1)Nc1ccccc1S2 (protonated)
CC[NH2+]CCCOc1ccc2c(c1)Nc1ccccc1S2 (3D coordinates assigned)
CC[NH2+]CCCOc1ccc2c(c1)Nc1ccccc1S2 (nonaromatic ring conformer: 55.968435217961776 kcal/mol)

>  <smiles>  (5) 
CCNCCCOc1ccc2c(c1)Nc1ccccc1S2

>  <score_type>  (5) 
oracle

>  <origin>  (5) 
adg

>  <m_score__min__energy>  (5) 
-7.6600000000000001

>  <m_primary>  (5) 
energy

$$$$
5:0
     RDKit          3D

 38 40  0  0  0  0  0  0  0  0999 V2000
   -5.6910   25.6660  -30.4470 C   0  0  0  0  0  0  0  0  0  0  0  0
   -5.1700   24.3400  -30.7600 N   0  0  0  0  0  0  0  0  0  0  0  0
   -3.8770   24.0640  -30.8260 N   0  0  0  0  0  0  0  0  0  0  0  0
   -3.7490   22.7600  -31.1460 C   0  0  0  0  0  0  0  0  0  0  0  0
   -2.4400   22.0830  -31.3230 C   0  0  0  0  0  0  0  0  0  0  0  0
   -1.5570   21.9680  -30.2320 C   0  0  0  0  0  0  0  0  0  0  0  0
   -0.3210   21.3340  -30.3830 C   0  0  0  0  0  0  0  0  0  0  0  0
    0.0520   20.8090  -31.6230 C   0  0  0  0  0  0  0  0  0  0  0  0
   -0.8150   20.9170  -32.7130 C   0  0  0  0  0  0  0  0  0  0  0  0
   -2.0530   21.5500  -32.5670 C   0  0  0  0  0  0  0  0  0  0  0  0
   -5.0070   22.1920  -31.2900 C   0  0  0  0  0  0  0  0  0  0  0  0
   -5.8820   23.2270  -31.0330 C   0  0  0  0  0  0  0  0  0  0  0  0
   -7.3850   23.1420  -31.1340 C   0  0  0  0  0  0  0  0  0  0  0  0
   -7.8140   22.5680  -32.4210 N   0  0  0  0  0  0  0  0  0  0  0  0
   -7.9360   21.1310  -32.3420 C   0  0  0  0  0  0  0  0  0  0  0  0
   -9.0090   20.5480  -31.6430 C   0  0  0  0  0  0  0  0  0  0  0  0
   -9.1100   19.1590  -31.5300 C   0  0  0  0  0  0  0  0  0  0  0  0
   -8.1400   18.3380  -32.1100 C   0  0  0  0  0  0  0  0  0  0  0  0
   -7.0670   18.9040  -32.8040 C   0  0  0  0  0  0  0  0  0  0  0  0
   -6.9590   20.2940  -32.9200 C   0  0  0  0  0  0  0  0  0  0  0  0
   -5.9020   20.8240  -33.5840 F   0  0  0  0  0  0  0  0  0  0  0  0
   -5.7406   25.7922  -29.3554 H   0  0  0  0  0  0  0  0  0  0  0  0
   -5.0267   26.4313  -30.8748 H   0  0  0  0  0  0  0  0  0  0  0  0
   -6.6986   25.7744  -30.8748 H   0  0  0  0  0  0  0  0  0  0  0  0
   -1.8426   22.3806  -29.2531 H   0  0  0  0  0  0  0  0  0  0  0  0
    0.3601   21.2480  -29.5235 H   0  0  0  0  0  0  0  0  0  0  0  0
    1.0261   20.3118  -31.7406 H   0  0  0  0  0  0  0  0  0  0  0  0
   -0.5228   20.5027  -33.6892 H   0  0  0  0  0  0  0  0  0  0  0  0
   -2.7295   21.6321  -33.4305 H   0  0  0  0  0  0  0  0  0  0  0  0
   -5.2512   21.1515  -31.5503 H   0  0  0  0  0  0  0  0  0  0  0  0
   -7.7616   22.5079  -30.3179 H   0  0  0  0  0  0  0  0  0  0  0  0
   -7.7913   24.1616  -31.0614 H   0  0  0  0  0  0  0  0  0  0  0  0
   -8.7210   22.9970  -32.7170 H   0  0  0  0  0  0  0  0  0  0  0  0
   -7.1070   22.8170  -33.1520 H   0  0  0  0  0  0  0  0  0  0  0  0
   -9.7738   21.1904  -31.1822 H   0  0  0  0  0  0  0  0  0  0  0  0
   -9.9538   18.7118  -30.9840 H   0  0  0  0  0  0  0  0  0  0  0  0
   -8.2208   17.2446  -32.0204 H   0  0  0  0  0  0  0  0  0  0  0  0
   -6.3053   18.2547  -33.2603 H   0  0  0  0  0  0  0  0  0  0  0  0
  1  2  1  0
  2  3  1  0
  3  4  2  0
  4  5  1  0
  5  6  2  0
  6  7  1  0
  7  8  2  0
  8  9  1  0
  9 10  2  0
  4 11  1  0
 11 12  2  0
 12 13  1  0
 13 14  1  0
 14 15  1  0
 15 16  2  0
 16 17  1  0
 17 18  2  0
 18 19  1  0
 19 20  2  0
 20 21  1  0
 12  2  1  0
 20 15  1  0
 10  5  1  0
  1 22  1  0
  1 23  1  0
  1 24  1  0
  6 25  1  0
  7 26  1  0
  8 27  1  0
  9 28  1  0
 10 29  1  0
 11 30  1  0
 13 31  1  0
 13 32  1  0
 14 33  1  0
 14 34  1  0
 16 35  1  0
 17 36  1  0
 18 37  1  0
 19 38  1  0
M  CHG  1  14   1
M  END
>  <UniqueID>  (6) 
6

>  <SMILES>  (6) 
Cn1nc(-c2ccccc2)cc1C[NH2+]c1ccccc1F

>  <Energy>  (6) 
70.39986917647022

>  <Genealogy>  (6) 
Cn1nc(-c2ccccc2)cc1C[NH2+]c1ccccc1F (protonated)
Cn1nc(-c2ccccc2)cc1C[NH2+]c1ccccc1F (3D coordinates assigned)
Cn1nc(-c2ccccc2)cc1C[NH2+]c1ccccc1F (optimized conformer: 70.39986917647022 kcal/mol)

>  <smiles>  (6) 
Cn1nc(-c2ccccc2)cc1CNc1ccccc1F

>  <score_type>  (6) 
oracle

>  <origin>  (6) 
adg

>  <m_score__min__energy>  (6) 
-7.0700000000000003

>  <m_primary>  (6) 
energy

$$$$
6:0
     RDKit          3D

 25 26  0  0  0  0  0  0  0  0999 V2000
   -9.3960   23.4200  -32.2010 C   0  0  0  0  0  0  0  0  0  0  0  0
   -8.8330   22.0470  -32.0070 C   0  0  0  0  0  0  0  0  0  0  0  0
   -9.5420   20.9220  -32.2490 N   0  0  0  0  0  0  0  0  0  0  0  0
   -8.7250   19.9120  -31.9910 N   0  0  0  0  0  0  0  0  0  0  0  0
   -9.1030   18.5070  -32.0560 C   0  0  0  0  0  0  0  0  0  0  0  0
   -7.5530   20.4220  -31.5770 C   0  0  0  0  0  0  0  0  0  0  0  0
   -6.5660   19.7250  -31.2120 O   0  0  0  0  0  0  0  0  0  0  0  0
   -7.5780   21.7680  -31.5730 N   0  0  0  0  0  0  0  0  0  0  0  0
   -6.5230   22.6690  -31.1950 C   0  0  0  0  0  0  0  0  0  0  0  0
   -5.1860   22.3840  -31.5230 C   0  0  0  0  0  0  0  0  0  0  0  0
   -4.1650   23.2670  -31.1580 C   0  0  0  0  0  0  0  0  0  0  0  0
   -4.4710   24.4430  -30.4670 C   0  0  0  0  0  0  0  0  0  0  0  0
   -3.4790   25.2990  -30.1140 F   0  0  0  0  0  0  0  0  0  0  0  0
   -5.7980   24.7390  -30.1440 C   0  0  0  0  0  0  0  0  0  0  0  0
   -6.8200   23.8580  -30.5080 C   0  0  0  0  0  0  0  0  0  0  0  0
   -9.5849   23.8808  -31.2202 H   0  0  0  0  0  0  0  0  0  0  0  0
   -8.6774   24.0349  -32.7627 H   0  0  0  0  0  0  0  0  0  0  0  0
  -10.3394   23.3534  -32.7627 H   0  0  0  0  0  0  0  0  0  0  0  0
   -9.2102   18.1086  -31.0363 H   0  0  0  0  0  0  0  0  0  0  0  0
  -10.0595   18.4090  -32.5904 H   0  0  0  0  0  0  0  0  0  0  0  0
   -8.3248   17.9423  -32.5904 H   0  0  0  0  0  0  0  0  0  0  0  0
   -4.9417   21.4613  -32.0698 H   0  0  0  0  0  0  0  0  0  0  0  0
   -3.1206   23.0361  -31.4147 H   0  0  0  0  0  0  0  0  0  0  0  0
   -6.0383   25.6661  -29.6029 H   0  0  0  0  0  0  0  0  0  0  0  0
   -7.8635   24.0970  -30.2550 H   0  0  0  0  0  0  0  0  0  0  0  0
  1  2  1  0
  2  3  2  0
  3  4  1  0
  4  5  1  0
  4  6  1  0
  6  7  2  0
  6  8  1  0
  8  9  1  0
  9 10  2  0
 10 11  1  0
 11 12  2  0
 12 13  1  0
 12 14  1  0
 14 15  2  0
  8  2  1  0
 15  9  1  0
  1 16  1  0
  1 17  1  0
  1 18  1  0
  5 19  1  0
  5 20  1  0
  5 21  1  0
 10 22  1  0
 11 23  1  0
 14 24  1  0
 15 25  1  0
M  END
>  <UniqueID>  (7) 
7

>  <SMILES>  (7) 
Cc1nn(C)c(=O)n1-c1ccc(F)cc1

>  <Energy>  (7) 
66.60597598100436

>  <Genealogy>  (7) 
Cc1nn(C)c(=O)n1-c1ccc(F)cc1 (3D coordinates assigned)
Cc1nn(C)c(=O)n1-c1ccc(F)cc1 (optimized conformer: 66.60597598100436 kcal/mol)

>  <smiles>  (7) 
Cc1nn(C)c(=O)n1-c1ccc(F)cc1

>  <score_type>  (7) 
oracle

>  <origin>  (7) 
adg

>  <m_score__min__energy>  (7) 
-5.8399999999999999

>  <m_primary>  (7) 
energy

$$$$
7:0
     RDKit          3D

 53 55  0  0  0  0  0  0  0  0999 V2000
    0.3790   25.3440  -36.7430 C   0  0  0  0  0  0  0  0  0  0  0  0
    1.4160   24.4960  -37.1840 O   0  0  0  0  0  0  0  0  0  0  0  0
    2.3750   24.3550  -36.1580 C   0  0  0  0  0  0  0  0  0  0  0  0
    2.2990   22.9420  -35.5940 C   0  0  0  0  0  0  0  0  0  0  0  0
    0.9910   22.6990  -35.1150 O   0  0  0  0  0  0  0  0  0  0  0  0
    0.3370   21.7300  -35.9140 C   0  0  0  0  0  0  0  0  0  0  0  0
   -0.0820   20.5340  -35.0540 C   0  0  0  0  0  0  0  0  0  0  0  0
   -1.3240   20.7760  -34.4210 O   0  0  0  0  0  0  0  0  0  0  0  0
   -1.1850   20.8370  -33.0130 C   0  0  0  0  0  0  0  0  0  0  0  0
   -2.5090   21.2350  -32.3550 C   0  0  0  0  0  0  0  0  0  0  0  0
   -3.5750   21.3660  -33.3480 N   0  0  0  0  0  0  0  0  0  0  0  0
   -4.9310   21.0550  -32.9970 C   0  0  0  0  0  0  0  0  0  0  0  0
   -5.4530   19.7810  -33.2740 C   0  0  0  0  0  0  0  0  0  0  0  0
   -4.6580   18.7980  -33.8990 C   0  0  0  0  0  0  0  0  0  0  0  0
   -5.1560   17.5140  -34.1140 C   0  0  0  0  0  0  0  0  0  0  0  0
   -6.4410   17.1860  -33.6980 C   0  0  0  0  0  0  0  0  0  0  0  0
   -7.2510   18.1480  -33.0940 C   0  0  0  0  0  0  0  0  0  0  0  0
   -6.7910   19.4770  -32.9020 C   0  0  0  0  0  0  0  0  0  0  0  0
   -7.5990   20.4540  -32.3510 N   0  0  0  0  0  0  0  0  0  0  0  0
   -9.0560   20.2270  -32.2330 C   0  0  0  0  0  0  0  0  0  0  0  0
   -7.0510   21.6590  -31.9460 C   0  0  0  0  0  0  0  0  0  0  0  0
   -7.7770   22.5820  -31.1510 C   0  0  0  0  0  0  0  0  0  0  0  0
   -7.2330   23.8170  -30.8030 C   0  0  0  0  0  0  0  0  0  0  0  0
   -5.9550   24.1630  -31.2280 C   0  0  0  0  0  0  0  0  0  0  0  0
   -5.1980   23.2610  -31.9720 C   0  0  0  0  0  0  0  0  0  0  0  0
   -5.7180   21.9940  -32.3100 C   0  0  0  0  0  0  0  0  0  0  0  0
    0.3604   25.3592  -35.6433 H   0  0  0  0  0  0  0  0  0  0  0  0
    0.5524   26.3624  -37.1209 H   0  0  0  0  0  0  0  0  0  0  0  0
   -0.5847   24.9718  -37.1209 H   0  0  0  0  0  0  0  0  0  0  0  0
    3.3804   24.5348  -36.5665 H   0  0  0  0  0  0  0  0  0  0  0  0
    2.1724   25.0837  -35.3593 H   0  0  0  0  0  0  0  0  0  0  0  0
    2.5410   22.2172  -36.3853 H   0  0  0  0  0  0  0  0  0  0  0  0
    3.0189   22.8356  -34.7691 H   0  0  0  0  0  0  0  0  0  0  0  0
   -0.5564   22.1793  -36.3722 H   0  0  0  0  0  0  0  0  0  0  0  0
    1.0269   21.3852  -36.6983 H   0  0  0  0  0  0  0  0  0  0  0  0
   -0.1718   19.6442  -35.6944 H   0  0  0  0  0  0  0  0  0  0  0  0
    0.6818   20.3748  -34.2786 H   0  0  0  0  0  0  0  0  0  0  0  0
   -0.8776   19.8499  -32.6374 H   0  0  0  0  0  0  0  0  0  0  0  0
   -0.4256   21.5932  -32.7651 H   0  0  0  0  0  0  0  0  0  0  0  0
   -2.7925   20.4635  -31.6239 H   0  0  0  0  0  0  0  0  0  0  0  0
   -2.3731   22.2077  -31.8596 H   0  0  0  0  0  0  0  0  0  0  0  0
   -3.3540   21.5600  -34.3510 H   0  0  0  0  0  0  0  0  0  0  0  0
   -3.6356   19.0468  -34.2197 H   0  0  0  0  0  0  0  0  0  0  0  0
   -4.5311   16.7591  -34.6137 H   0  0  0  0  0  0  0  0  0  0  0  0
   -6.8207   16.1642  -33.8455 H   0  0  0  0  0  0  0  0  0  0  0  0
   -8.2625   17.8721  -32.7612 H   0  0  0  0  0  0  0  0  0  0  0  0
   -9.3354   20.1835  -31.1700 H   0  0  0  0  0  0  0  0  0  0  0  0
   -9.5963   21.0518  -32.7206 H   0  0  0  0  0  0  0  0  0  0  0  0
   -9.3198   19.2769  -32.7206 H   0  0  0  0  0  0  0  0  0  0  0  0
   -8.7868   22.3187  -30.8031 H   0  0  0  0  0  0  0  0  0  0  0  0
   -7.8163   24.5201  -30.1903 H   0  0  0  0  0  0  0  0  0  0  0  0
   -5.5412   25.1506  -30.9762 H   0  0  0  0  0  0  0  0  0  0  0  0
   -4.1853   23.5393  -32.2990 H   0  0  0  0  0  0  0  0  0  0  0  0
  1  2  1  0
  2  3  1  0
  3  4  1  0
  4  5  1  0
  5  6  1  0
  6  7  1  0
  7  8  1  0
  8  9  1  0
  9 10  1  0
 10 11  1  0
 11 12  1  0
 12 13  2  0
 13 14  1  0
 14 15  2  0
 15 16  1  0
 16 17  2  0
 17 18  1  0
 18 19  2  0
 19 20  1  0
 19 21  1  0
 21 22  2  0
 22 23  1  0
 23 24  2  0
 24 25  1  0
 25 26  2  0
 26 12  1  0
 18 13  1  0
 26 21  1  0
  1 27  1  0
  1 28  1  0
  1 29  1  0
  3 30  1  0
  3 31  1  0
  4 32  1  0
  4 33  1  0
  6 34  1  0
  6 35  1  0
  7 36  1  0
  7 37  1  0
  9 38  1  0
  9 39  1  0
 10 40  1  0
 10 41  1  0
 11 42  1  0
 14 43  1  0
 15 44  1  0
 16 45  1  0
 17 46  1  0
 20 47  1  0
 20 48  1  0
 20 49  1  0
 22 50  1  0
 23 51  1  0
 24 52  1  0
 25 53  1  0
M  CHG  1  19   1
M  END
>  <UniqueID>  (8) 
8

>  <SMILES>  (8) 
COCCOCCOCCNc1c2ccccc2[n+](C)c2ccccc12

>  <Energy>  (8) 
80.51484588866325

>  <Genealogy>  (8) 
COCCOCCOCCNc1c2ccccc2[n+](C)c2ccccc12 (3D coordinates assigned)
COCCOCCOCCNc1c2ccccc2[n+](C)c2ccccc12 (optimized conformer: 80.51484588866325 kcal/mol)

>  <smiles>  (8) 
COCCOCCOCCNc1c2ccccc2[n+](C)c2ccccc12

>  <score_type>  (8) 
oracle

>  <origin>  (8) 
adg

>  <m_score__min__energy>  (8) 
-9.2200000000000006

>  <m_primary>  (8) 
energy

$$$$
8:0
     RDKit          3D

 46 47  0  0  0  0  0  0  0  0999 V2000
   -9.4470   21.2060  -31.9460 C   0  0  0  0  0  0  0  0  0  0  0  0
   -8.9530   22.5250  -32.0300 O   0  0  0  0  0  0  0  0  0  0  0  0
   -7.7230   22.6420  -31.3380 C   0  0  0  0  0  0  0  0  0  0  0  0
   -6.6390   23.1980  -32.2830 C   0  0  0  0  0  0  0  0  0  0  0  0
   -5.4500   23.7390  -31.5880 N   0  0  0  0  0  0  0  0  0  0  0  0
   -4.7090   22.7240  -30.8050 C   0  0  0  0  0  0  0  0  0  0  0  0
   -3.5980   23.3770  -29.9780 C   0  0  0  0  0  0  0  0  0  0  0  0
   -4.1690   24.4060  -28.9670 C   0  0  0  0  0  0  0  0  0  0  0  0
   -4.1760   23.8560  -27.5250 C   0  0  0  0  0  0  0  0  0  0  0  0
   -3.6270   24.8440  -26.5790 N   0  0  0  0  0  0  0  0  0  0  0  0
   -2.2110   25.1230  -26.8430 C   0  0  0  0  0  0  0  0  0  0  0  0
   -1.5260   25.5600  -25.5780 C   0  0  0  0  0  0  0  0  0  0  0  0
   -1.5770   26.8340  -25.0420 C   0  0  0  0  0  0  0  0  0  0  0  0
   -0.8250   26.7590  -23.8840 C   0  0  0  0  0  0  0  0  0  0  0  0
   -0.3540   25.5060  -23.7500 N   0  0  0  0  0  0  0  0  0  0  0  0
   -0.7750   24.7780  -24.7720 N   0  0  0  0  0  0  0  0  0  0  0  0
   -0.4500   23.3680  -24.9630 C   0  0  0  0  0  0  0  0  0  0  0  0
   -5.5590   24.9400  -29.3860 C   0  0  0  0  0  0  0  0  0  0  0  0
   -5.6680   25.0440  -30.9130 C   0  0  0  0  0  0  0  0  0  0  0  0
   -9.5537   20.9211  -30.8889 H   0  0  0  0  0  0  0  0  0  0  0  0
  -10.4273   21.1493  -32.4418 H   0  0  0  0  0  0  0  0  0  0  0  0
   -8.7451   20.5193  -32.4418 H   0  0  0  0  0  0  0  0  0  0  0  0
   -7.8482   23.3251  -30.4849 H   0  0  0  0  0  0  0  0  0  0  0  0
   -7.4146   21.6494  -30.9780 H   0  0  0  0  0  0  0  0  0  0  0  0
   -6.3104   22.3853  -32.9476 H   0  0  0  0  0  0  0  0  0  0  0  0
   -7.0951   24.0365  -32.8297 H   0  0  0  0  0  0  0  0  0  0  0  0
   -5.4077   22.2106  -30.1281 H   0  0  0  0  0  0  0  0  0  0  0  0
   -4.2527   22.0060  -31.5024 H   0  0  0  0  0  0  0  0  0  0  0  0
   -3.0579   22.5946  -29.4246 H   0  0  0  0  0  0  0  0  0  0  0  0
   -2.9236   23.9080  -30.6659 H   0  0  0  0  0  0  0  0  0  0  0  0
   -3.4854   25.2676  -28.9821 H   0  0  0  0  0  0  0  0  0  0  0  0
   -5.2103   23.6178  -27.2361 H   0  0  0  0  0  0  0  0  0  0  0  0
   -3.5483   22.9533  -27.4917 H   0  0  0  0  0  0  0  0  0  0  0  0
   -4.1510   25.7420  -26.7090 H   0  0  0  0  0  0  0  0  0  0  0  0
   -1.7255   24.2123  -27.2237 H   0  0  0  0  0  0  0  0  0  0  0  0
   -2.1356   25.9273  -27.5896 H   0  0  0  0  0  0  0  0  0  0  0  0
   -2.1001   27.7127  -25.4473 H   0  0  0  0  0  0  0  0  0  0  0  0
   -0.6417   27.5890  -23.1858 H   0  0  0  0  0  0  0  0  0  0  0  0
    0.2470   25.1560  -22.9690 H   0  0  0  0  0  0  0  0  0  0  0  0
   -0.3379   22.8815  -23.9828 H   0  0  0  0  0  0  0  0  0  0  0  0
   -1.2588   22.8782  -25.5251 H   0  0  0  0  0  0  0  0  0  0  0  0
    0.4916   23.2816  -25.5251 H   0  0  0  0  0  0  0  0  0  0  0  0
   -6.3350   24.2541  -29.0154 H   0  0  0  0  0  0  0  0  0  0  0  0
   -5.6949   25.9428  -28.9548 H   0  0  0  0  0  0  0  0  0  0  0  0
   -6.6722   25.4114  -31.1710 H   0  0  0  0  0  0  0  0  0  0  0  0
   -4.8843   25.7344  -31.2582 H   0  0  0  0  0  0  0  0  0  0  0  0
  1  2  1  0
  2  3  1  0
  3  4  1  0
  4  5  1  0
  5  6  1  0
  6  7  1  0
  7  8  1  0
  8  9  1  0
  9 10  1  0
 10 11  1  0
 11 12  1  0
 12 13  2  0
 13 14  1  0
 14 15  2  0
 15 16  1  0
 16 17  1  0
  8 18  1  0
 18 19  1  0
 19  5  1  0
 16 12  1  0
  1 20  1  0
  1 21  1  0
  1 22  1  0
  3 23  1  0
  3 24  1  0
  4 25  1  0
  4 26  1  0
  6 27  1  0
  6 28  1  0
  7 29  1  0
  7 30  1  0
  8 31  1  0
  9 32  1  0
  9 33  1  0
 10 34  1  0
 11 35  1  0
 11 36  1  0
 13 37  1  0
 14 38  1  0
 15 39  1  0
 17 40  1  0
 17 41  1  0
 17 42  1  0
 18 43  1  0
 18 44  1  0
 19 45  1  0
 19 46  1  0
M  CHG  1  15   1
M  END
>  <UniqueID>  (9) 
9

>  <SMILES>  (9) 
COCCN1CCC(CNCc2cc[nH+]n2C)CC1

>  <Energy>  (9) 
82.65897096594152

>  <Genealogy>  (9) 
COCCN1CCC(CNCc2cc[nH+]n2C)CC1 (protonated)
COCCN1CCC(CNCc2cc[nH+]n2C)CC1 (3D coordinates assigned)
COCCN1CCC(CNCc2cc[nH+]n2C)CC1 (nonaromatic ring conformer: 82.65897096594152 kcal/mol)

>  <smiles>  (9) 
COCCN1CCC(CNCc2ccnn2C)CC1

>  <score_type>  (9) 
oracle

>  <origin>  (9) 
adg

>  <m_score__min__energy>  (9) 
-7.2599999999999998

>  <m_primary>  (9) 
energy

$$$$
9:0
     RDKit          3D

 73 76  0  0  0  0  0  0  0  0999 V2000
   -5.7440   25.6180  -30.4050 C   0  0  0  0  0  0  0  0  0  0  0  0
   -6.2640   24.2080  -30.1290 C   0  0  0  0  0  0  0  0  0  0  0  0
   -5.2440   23.3970  -29.4230 N   0  0  0  0  0  0  0  0  0  0  0  0
   -4.1460   24.2210  -28.8480 C   0  0  0  0  0  0  0  0  0  0  0  0
   -4.0390   24.1770  -27.3150 C   0  0  0  0  0  0  0  0  0  0  0  0
   -4.7850   22.2540  -30.2480 C   0  0  0  0  0  0  0  0  0  0  0  0
   -4.1910   22.7060  -31.5880 C   0  0  0  0  0  0  0  0  0  0  0  0
   -5.0350   22.2770  -32.7060 N   0  0  0  0  0  0  0  0  0  0  0  0
   -5.3630   20.8930  -32.9120 C   0  0  0  0  0  0  0  0  0  0  0  0
   -6.6320   20.4040  -32.5510 C   0  0  0  0  0  0  0  0  0  0  0  0
   -7.6110   21.2620  -32.0060 C   0  0  0  0  0  0  0  0  0  0  0  0
   -8.8400   20.7610  -31.5840 C   0  0  0  0  0  0  0  0  0  0  0  0
   -9.1130   19.4040  -31.6920 C   0  0  0  0  0  0  0  0  0  0  0  0
   -8.1750   18.5430  -32.2600 C   0  0  0  0  0  0  0  0  0  0  0  0
   -6.9310   19.0280  -32.7400 C   0  0  0  0  0  0  0  0  0  0  0  0
   -6.0170   18.1980  -33.3630 N   0  0  0  0  0  0  0  0  0  0  0  0
   -6.4280   16.8470  -33.8100 C   0  0  0  0  0  0  0  0  0  0  0  0
   -4.7260   18.6360  -33.5930 C   0  0  0  0  0  0  0  0  0  0  0  0
   -3.6970   17.7460  -33.9860 C   0  0  0  0  0  0  0  0  0  0  0  0
   -2.4090   18.2020  -34.2580 C   0  0  0  0  0  0  0  0  0  0  0  0
   -2.0930   19.5580  -34.1360 C   0  0  0  0  0  0  0  0  0  0  0  0
   -0.7190   20.0320  -34.4260 C   0  0  0  0  0  0  0  0  0  0  0  0
    0.3740   19.2550  -34.1820 N   0  0  0  0  0  0  0  0  0  0  0  0
    1.6760   20.1750  -34.6480 S   0  0  0  0  0  0  0  0  0  0  0  0
    0.8270   21.5100  -35.1460 C   0  0  0  0  0  0  0  0  0  0  0  0
    1.4010   22.7930  -35.6720 C   0  0  0  0  0  0  0  0  0  0  0  0
    0.3940   23.8640  -35.7390 N   0  0  0  0  0  0  0  0  0  0  0  0
    0.7130   24.8460  -36.7850 C   0  0  0  0  0  0  0  0  0  0  0  0
    0.5800   26.2700  -36.2130 C   0  0  0  0  0  0  0  0  0  0  0  0
   -0.8080   26.7820  -36.1550 N   0  0  0  0  0  0  0  0  0  0  0  0
   -0.9810   27.8650  -35.1760 C   0  0  0  0  0  0  0  0  0  0  0  0
   -1.3360   27.1640  -37.4740 C   0  0  0  0  0  0  0  0  0  0  0  0
   -0.4870   21.2800  -34.9500 N   0  0  0  0  0  0  0  0  0  0  0  0
   -3.0870   20.4520  -33.7120 C   0  0  0  0  0  0  0  0  0  0  0  0
   -4.3940   20.0050  -33.4150 C   0  0  0  0  0  0  0  0  0  0  0  0
   -5.5544   26.1321  -29.4512 H   0  0  0  0  0  0  0  0  0  0  0  0
   -4.8090   25.5577  -30.9812 H   0  0  0  0  0  0  0  0  0  0  0  0
   -6.4943   26.1793  -30.9812 H   0  0  0  0  0  0  0  0  0  0  0  0
   -7.1675   24.2731  -29.5050 H   0  0  0  0  0  0  0  0  0  0  0  0
   -6.4946   23.7241  -31.0896 H   0  0  0  0  0  0  0  0  0  0  0  0
   -3.1943   23.8629  -29.2675 H   0  0  0  0  0  0  0  0  0  0  0  0
   -4.3726   25.2646  -29.1118 H   0  0  0  0  0  0  0  0  0  0  0  0
   -4.9699   24.5598  -26.8713 H   0  0  0  0  0  0  0  0  0  0  0  0
   -3.8768   23.1392  -26.9884 H   0  0  0  0  0  0  0  0  0  0  0  0
   -3.1937   24.8005  -26.9884 H   0  0  0  0  0  0  0  0  0  0  0  0
   -4.0164   21.7001  -29.6890 H   0  0  0  0  0  0  0  0  0  0  0  0
   -5.6588   21.6213  -30.4630 H   0  0  0  0  0  0  0  0  0  0  0  0
   -4.1136   23.8032  -31.5957 H   0  0  0  0  0  0  0  0  0  0  0  0
   -3.1968   22.2496  -31.7032 H   0  0  0  0  0  0  0  0  0  0  0  0
   -5.2940   22.9690  -33.4420 H   0  0  0  0  0  0  0  0  0  0  0  0
   -7.4011   22.3378  -31.9135 H   0  0  0  0  0  0  0  0  0  0  0  0
   -9.5956   21.4415  -31.1645 H   0  0  0  0  0  0  0  0  0  0  0  0
  -10.0722   19.0070  -31.3283 H   0  0  0  0  0  0  0  0  0  0  0  0
   -8.4032   17.4697  -32.3373 H   0  0  0  0  0  0  0  0  0  0  0  0
   -6.6208   16.2131  -32.9319 H   0  0  0  0  0  0  0  0  0  0  0  0
   -7.3435   16.9237  -34.4150 H   0  0  0  0  0  0  0  0  0  0  0  0
   -5.6249   16.4009  -34.4150 H   0  0  0  0  0  0  0  0  0  0  0  0
   -3.9192   16.6727  -34.0784 H   0  0  0  0  0  0  0  0  0  0  0  0
   -1.6333   17.4880  -34.5718 H   0  0  0  0  0  0  0  0  0  0  0  0
    2.2172   23.1147  -35.0084 H   0  0  0  0  0  0  0  0  0  0  0  0
    1.7661   22.6072  -36.6929 H   0  0  0  0  0  0  0  0  0  0  0  0
   -0.5440   23.4420  -35.9370 H   0  0  0  0  0  0  0  0  0  0  0  0
    1.7436   24.6866  -37.1350 H   0  0  0  0  0  0  0  0  0  0  0  0
    0.0157   24.7233  -37.6269 H   0  0  0  0  0  0  0  0  0  0  0  0
    0.9888   26.2695  -35.1918 H   0  0  0  0  0  0  0  0  0  0  0  0
    1.1297   26.9339  -36.8964 H   0  0  0  0  0  0  0  0  0  0  0  0
   -0.9152   27.4531  -34.1581 H   0  0  0  0  0  0  0  0  0  0  0  0
   -0.1917   28.6178  -35.3187 H   0  0  0  0  0  0  0  0  0  0  0  0
   -1.9655   28.3344  -35.3187 H   0  0  0  0  0  0  0  0  0  0  0  0
   -2.2209   27.8042  -37.3433 H   0  0  0  0  0  0  0  0  0  0  0  0
   -0.5645   27.7144  -38.0324 H   0  0  0  0  0  0  0  0  0  0  0  0
   -1.6174   26.2590  -38.0324 H   0  0  0  0  0  0  0  0  0  0  0  0
   -2.8448   21.5200  -33.6089 H   0  0  0  0  0  0  0  0  0  0  0  0
  1  2  1  0
  2  3  1  0
  3  4  1  0
  4  5  1  0
  3  6  1  0
  6  7  1  0
  7  8  1  0
  8  9  1  0
  9 10  2  0
 10 11  1  0
 11 12  2  0
 12 13  1  0
 13 14  2  0
 14 15  1  0
 15 16  2  0
 16 17  1  0
 16 18  1  0
 18 19  2  0
 19 20  1  0
 20 21  2  0
 21 22  1  0
 22 23  2  0
 23 24  1  0
 24 25  1  0
 25 26  1  0
 26 27  1  0
 27 28  1  0
 28 29  1  0
 29 30  1  0
 30 31  1  0
 30 32  1  0
 25 33  2  0
 21 34  1  0
 34 35  2  0
 35  9  1  0
 15 10  1  0
 35 18  1  0
 33 22  1  0
  1 36  1  0
  1 37  1  0
  1 38  1  0
  2 39  1  0
  2 40  1  0
  4 41  1  0
  4 42  1  0
  5 43  1  0
  5 44  1  0
  5 45  1  0
  6 46  1  0
  6 47  1  0
  7 48  1  0
  7 49  1  0
  8 50  1  0
 11 51  1  0
 12 52  1  0
 13 53  1  0
 14 54  1  0
 17 55  1  0
 17 56  1  0
 17 57  1  0
 19 58  1  0
 20 59  1  0
 26 60  1  0
 26 61  1  0
 27 62  1  0
 28 63  1  0
 28 64  1  0
 29 65  1  0
 29 66  1  0
 31 67  1  0
 31 68  1  0
 31 69  1  0
 32 70  1  0
 32 71  1  0
 32 72  1  0
 34 73  1  0
M  CHG  1  16   1
M  END
>  <UniqueID>  (10) 
10

>  <SMILES>  (10) 
CCN(CC)CCNc1c2ccccc2[n+](C)c2ccc(-c3nsc(CNCCN(C)C)n3)cc12

>  <Energy>  (10) 
139.48138362557742

>  <Genealogy>  (10) 
CCN(CC)CCNc1c2ccccc2[n+](C)c2ccc(-c3nsc(CNCCN(C)C)n3)cc12 (3D coordinates assigned)
CCN(CC)CCNc1c2ccccc2[n+](C)c2ccc(-c3nsc(CNCCN(C)C)n3)cc12 (optimized conformer: 139.48138362557742 kcal/mol)

>  <smiles>  (10) 
CCN(CC)CCNc1c2ccccc2[n+](C)c2ccc(-c3nsc(CNCCN(C)C)n3)cc12

>  <score_type>  (10) 
oracle

>  <origin>  (10) 
adg

>  <m_score__min__energy>  (10) 
-10.93

>  <m_primary>  (10) 
energy

$$$$
10:0
     RDKit          3D

 71 74  0  0  0  0  0  0  0  0999 V2000
   -6.2650   25.3420  -29.4300 C   0  0  0  0  0  0  0  0  0  0  0  0
   -5.4750   25.4930  -30.7240 C   0  0  0  0  0  0  0  0  0  0  0  0
   -4.0830   25.2900  -30.4830 O   0  0  0  0  0  0  0  0  0  0  0  0
   -3.4650   24.0560  -30.2070 C   0  0  0  0  0  0  0  0  0  0  0  0
   -4.0520   22.8210  -30.5450 C   0  0  0  0  0  0  0  0  0  0  0  0
   -3.3780   21.6230  -30.2930 C   0  0  0  0  0  0  0  0  0  0  0  0
   -2.1180   21.6300  -29.6660 C   0  0  0  0  0  0  0  0  0  0  0  0
   -1.2950   20.3760  -29.4390 C   0  0  0  0  0  0  0  0  0  0  0  0
   -0.2710   20.0240  -30.5290 C   0  0  0  0  0  0  0  0  0  0  0  0
   -0.8410   19.1120  -31.5300 N   0  0  0  0  0  0  0  0  0  0  0  0
    0.0360   19.0430  -32.7070 C   0  0  0  0  0  0  0  0  0  0  0  0
   -0.7820   18.7640  -33.9710 C   0  0  0  0  0  0  0  0  0  0  0  0
   -2.2160   18.4670  -33.6260 C   0  0  0  0  0  0  0  0  0  0  0  0
   -2.6390   17.2100  -33.3730 N   0  0  0  0  0  0  0  0  0  0  0  0
   -3.9400   17.3520  -33.0620 C   0  0  0  0  0  0  0  0  0  0  0  0
   -4.8280   16.2080  -32.7000 C   0  0  0  0  0  0  0  0  0  0  0  0
   -4.2890   18.6880  -33.1080 C   0  0  0  0  0  0  0  0  0  0  0  0
   -5.6360   19.2330  -32.8380 C   0  0  0  0  0  0  0  0  0  0  0  0
   -6.7790   18.4260  -32.9350 C   0  0  0  0  0  0  0  0  0  0  0  0
   -8.0400   18.9810  -32.7070 C   0  0  0  0  0  0  0  0  0  0  0  0
   -8.1570   20.3400  -32.3960 C   0  0  0  0  0  0  0  0  0  0  0  0
   -9.4090   20.9310  -32.1670 C   0  0  0  0  0  0  0  0  0  0  0  0
   -9.4920   22.2950  -31.8690 C   0  0  0  0  0  0  0  0  0  0  0  0
   -8.3310   23.0720  -31.7960 C   0  0  0  0  0  0  0  0  0  0  0  0
   -7.0790   22.4900  -32.0210 C   0  0  0  0  0  0  0  0  0  0  0  0
   -6.9870   21.1260  -32.3210 C   0  0  0  0  0  0  0  0  0  0  0  0
   -5.7730   20.5560  -32.5460 N   0  0  0  0  0  0  0  0  0  0  0  0
   -3.1950   19.3960  -33.4710 N   0  0  0  0  0  0  0  0  0  0  0  0
   -3.1220   20.8320  -33.7790 C   0  0  0  0  0  0  0  0  0  0  0  0
   -1.9310   21.4900  -33.0860 C   0  0  0  0  0  0  0  0  0  0  0  0
   -1.5420   22.8630  -29.3250 C   0  0  0  0  0  0  0  0  0  0  0  0
   -2.2070   24.0750  -29.5920 C   0  0  0  0  0  0  0  0  0  0  0  0
   -1.6470   25.3210  -29.2660 O   0  0  0  0  0  0  0  0  0  0  0  0
   -1.2290   25.7040  -27.9570 C   0  0  0  0  0  0  0  0  0  0  0  0
   -2.2210   25.1760  -26.9340 C   0  0  0  0  0  0  0  0  0  0  0  0
   -5.5900   25.4710  -28.5711 H   0  0  0  0  0  0  0  0  0  0  0  0
   -7.0563   26.1052  -29.3923 H   0  0  0  0  0  0  0  0  0  0  0  0
   -6.7191   24.3408  -29.3923 H   0  0  0  0  0  0  0  0  0  0  0  0
   -5.8288   24.7497  -31.4536 H   0  0  0  0  0  0  0  0  0  0  0  0
   -5.6248   26.5093  -31.1173 H   0  0  0  0  0  0  0  0  0  0  0  0
   -5.0483   22.7994  -31.0108 H   0  0  0  0  0  0  0  0  0  0  0  0
   -3.8359   20.6670  -30.5870 H   0  0  0  0  0  0  0  0  0  0  0  0
   -0.7473   20.5019  -28.4934 H   0  0  0  0  0  0  0  0  0  0  0  0
   -2.0187   19.5476  -29.4396 H   0  0  0  0  0  0  0  0  0  0  0  0
    0.0497   20.9492  -31.0301 H   0  0  0  0  0  0  0  0  0  0  0  0
    0.5825   19.5212  -30.0508 H   0  0  0  0  0  0  0  0  0  0  0  0
   -0.8890   18.1520  -31.1130 H   0  0  0  0  0  0  0  0  0  0  0  0
    0.5636   20.0013  -32.8217 H   0  0  0  0  0  0  0  0  0  0  0  0
    0.7588   18.2263  -32.5641 H   0  0  0  0  0  0  0  0  0  0  0  0
   -0.7444   19.6464  -34.6267 H   0  0  0  0  0  0  0  0  0  0  0  0
   -0.3540   17.8885  -34.4813 H   0  0  0  0  0  0  0  0  0  0  0  0
   -4.8919   16.1257  -31.6049 H   0  0  0  0  0  0  0  0  0  0  0  0
   -5.8327   16.3784  -33.1141 H   0  0  0  0  0  0  0  0  0  0  0  0
   -4.4137   15.2769  -33.1141 H   0  0  0  0  0  0  0  0  0  0  0  0
   -6.6826   17.3602  -33.1896 H   0  0  0  0  0  0  0  0  0  0  0  0
   -8.9394   18.3510  -32.7718 H   0  0  0  0  0  0  0  0  0  0  0  0
  -10.3237   20.3225  -32.2218 H   0  0  0  0  0  0  0  0  0  0  0  0
  -10.4737   22.7584  -31.6914 H   0  0  0  0  0  0  0  0  0  0  0  0
   -8.4028   24.1442  -31.5609 H   0  0  0  0  0  0  0  0  0  0  0  0
   -6.1679   23.1036  -31.9622 H   0  0  0  0  0  0  0  0  0  0  0  0
   -3.0189   20.9601  -34.8666 H   0  0  0  0  0  0  0  0  0  0  0  0
   -4.0427   21.3116  -33.4153 H   0  0  0  0  0  0  0  0  0  0  0  0
   -2.0570   21.4204  -31.9955 H   0  0  0  0  0  0  0  0  0  0  0  0
   -1.0047   20.9757  -33.3817 H   0  0  0  0  0  0  0  0  0  0  0  0
   -1.8733   22.5480  -33.3817 H   0  0  0  0  0  0  0  0  0  0  0  0
   -0.5544   22.8832  -28.8410 H   0  0  0  0  0  0  0  0  0  0  0  0
   -0.2330   25.2842  -27.7526 H   0  0  0  0  0  0  0  0  0  0  0  0
   -1.1846   26.8012  -27.8925 H   0  0  0  0  0  0  0  0  0  0  0  0
   -1.8441   25.3766  -25.9203 H   0  0  0  0  0  0  0  0  0  0  0  0
   -3.1905   25.6774  -27.0706 H   0  0  0  0  0  0  0  0  0  0  0  0
   -2.3465   24.0918  -27.0706 H   0  0  0  0  0  0  0  0  0  0  0  0
  1  2  1  0
  2  3  1  0
  3  4  1  0
  4  5  2  0
  5  6  1  0
  6  7  2  0
  7  8  1  0
  8  9  1  0
  9 10  1  0
 10 11  1  0
 11 12  1  0
 12 13  1  0
 13 14  2  0
 14 15  1  0
 15 16  1  0
 15 17  2  0
 17 18  1  0
 18 19  2  0
 19 20  1  0
 20 21  2  0
 21 22  1  0
 22 23  2  0
 23 24  1  0
 24 25  2  0
 25 26  1  0
 26 27  2  0
 17 28  1  0
 28 29  1  0
 29 30  1  0
  7 31  1  0
 31 32  2  0
 32 33  1  0
 33 34  1  0
 34 35  1  0
 32  4  1  0
 28 13  1  0
 27 18  1  0
 26 21  1  0
  1 36  1  0
  1 37  1  0
  1 38  1  0
  2 39  1  0
  2 40  1  0
  5 41  1  0
  6 42  1  0
  8 43  1  0
  8 44  1  0
  9 45  1  0
  9 46  1  0
 10 47  1  0
 11 48  1  0
 11 49  1  0
 12 50  1  0
 12 51  1  0
 16 52  1  0
 16 53  1  0
 16 54  1  0
 19 55  1  0
 20 56  1  0
 22 57  1  0
 23 58  1  0
 24 59  1  0
 25 60  1  0
 29 61  1  0
 29 62  1  0
 30 63  1  0
 30 64  1  0
 30 65  1  0
 31 66  1  0
 34 67  1  0
 34 68  1  0
 35 69  1  0
 35 70  1  0
 35 71  1  0
M  END
>  <UniqueID>  (11) 
11

>  <SMILES>  (11) 
CCOc1ccc(CCNCCc2nc(C)c(-c3ccc4ccccc4n3)n2CC)cc1OCC

>  <Energy>  (11) 
98.71964697224054

>  <Genealogy>  (11) 
CCOc1ccc(CCNCCc2nc(C)c(-c3ccc4ccccc4n3)n2CC)cc1OCC (3D coordinates assigned)
CCOc1ccc(CCNCCc2nc(C)c(-c3ccc4ccccc4n3)n2CC)cc1OCC (optimized conformer: 98.71964697224054 kcal/mol)

>  <smiles>  (11) 
CCOc1ccc(CCNCCc2nc(C)c(-c3ccc4ccccc4n3)n2CC)cc1OCC

>  <score_type>  (11) 
oracle

>  <origin>  (11) 
adg

>  <m_score__min__energy>  (11) 
-10.42

>  <m_primary>  (11) 
energy

$$$$
11:0
     RDKit          3D

 44 46  0  0  0  0  0  0  0  0999 V2000
    0.1050   22.1390  -27.5860 C   0  0  0  0  0  0  0  0  0  0  0  0
   -0.8980   22.9750  -28.3240 C   0  0  0  0  0  0  0  0  0  0  0  0
   -1.7060   22.4000  -29.3180 C   0  0  0  0  0  0  0  0  0  0  0  0
   -2.6660   23.1710  -29.9800 C   0  0  0  0  0  0  0  0  0  0  0  0
   -2.8330   24.5240  -29.6620 C   0  0  0  0  0  0  0  0  0  0  0  0
   -3.8350   25.2760  -30.3600 N   0  0  0  0  0  0  0  0  0  0  0  0
   -5.1260   24.8070  -30.7710 C   0  0  0  0  0  0  0  0  0  0  0  0
   -5.3610   24.5380  -31.9810 O   0  0  0  0  0  0  0  0  0  0  0  0
   -6.1700   24.5280  -29.7330 C   0  0  0  0  0  0  0  0  0  0  0  0
   -6.9140   23.2280  -30.0390 C   0  0  0  0  0  0  0  0  0  0  0  0
   -7.9990   23.4300  -31.5000 S   0  0  0  0  0  0  0  0  0  0  0  0
   -7.9940   21.6890  -31.9310 C   0  0  0  0  0  0  0  0  0  0  0  0
   -9.0750   20.8970  -31.8120 N   0  0  0  0  0  0  0  0  0  0  0  0
   -8.7180   19.6940  -32.2350 N   0  0  0  0  0  0  0  0  0  0  0  0
   -7.4260   19.7690  -32.6160 C   0  0  0  0  0  0  0  0  0  0  0  0
   -6.6830   18.6120  -33.1600 C   0  0  0  0  0  0  0  0  0  0  0  0
   -6.0570   18.7190  -34.4130 C   0  0  0  0  0  0  0  0  0  0  0  0
   -5.3270   17.6460  -34.9340 C   0  0  0  0  0  0  0  0  0  0  0  0
   -5.2050   16.4610  -34.2020 C   0  0  0  0  0  0  0  0  0  0  0  0
   -5.8050   16.3530  -32.9450 C   0  0  0  0  0  0  0  0  0  0  0  0
   -6.5350   17.4240  -32.4210 C   0  0  0  0  0  0  0  0  0  0  0  0
   -6.9330   21.0140  -32.4170 N   0  0  0  0  0  0  0  0  0  0  0  0
   -5.5860   21.5300  -32.6560 C   0  0  0  0  0  0  0  0  0  0  0  0
   -2.0540   25.0900  -28.6350 C   0  0  0  0  0  0  0  0  0  0  0  0
   -1.0940   24.3190  -27.9720 C   0  0  0  0  0  0  0  0  0  0  0  0
   -0.0418   22.2614  -26.5027 H   0  0  0  0  0  0  0  0  0  0  0  0
   -0.0288   21.0813  -27.8570 H   0  0  0  0  0  0  0  0  0  0  0  0
    1.1212   22.4612  -27.8570 H   0  0  0  0  0  0  0  0  0  0  0  0
   -1.5830   21.3380  -29.5770 H   0  0  0  0  0  0  0  0  0  0  0  0
   -3.2948   22.7111  -30.7566 H   0  0  0  0  0  0  0  0  0  0  0  0
   -5.6852   24.4419  -28.7494 H   0  0  0  0  0  0  0  0  0  0  0  0
   -6.8951   25.3552  -29.7345 H   0  0  0  0  0  0  0  0  0  0  0  0
   -6.1819   22.4321  -30.2405 H   0  0  0  0  0  0  0  0  0  0  0  0
   -7.5361   22.9644  -29.1709 H   0  0  0  0  0  0  0  0  0  0  0  0
   -6.1416   19.6529  -34.9881 H   0  0  0  0  0  0  0  0  0  0  0  0
   -4.8484   17.7343  -35.9205 H   0  0  0  0  0  0  0  0  0  0  0  0
   -4.6371   15.6145  -34.6155 H   0  0  0  0  0  0  0  0  0  0  0  0
   -5.7028   15.4232  -32.3662 H   0  0  0  0  0  0  0  0  0  0  0  0
   -6.9959   17.3374  -31.4260 H   0  0  0  0  0  0  0  0  0  0  0  0
   -5.0899   21.7200  -31.6928 H   0  0  0  0  0  0  0  0  0  0  0  0
   -5.0061   20.7904  -33.2275 H   0  0  0  0  0  0  0  0  0  0  0  0
   -5.6486   22.4678  -33.2275 H   0  0  0  0  0  0  0  0  0  0  0  0
   -2.2011   26.1430  -28.3529 H   0  0  0  0  0  0  0  0  0  0  0  0
   -0.4895   24.7685  -27.1705 H   0  0  0  0  0  0  0  0  0  0  0  0
  1  2  1  0
  2  3  2  0
  3  4  1  0
  4  5  2  0
  5  6  1  0
  6  7  1  0
  7  8  2  0
  7  9  1  0
  9 10  1  0
 10 11  1  0
 11 12  1  0
 12 13  2  0
 13 14  1  0
 14 15  2  0
 15 16  1  0
 16 17  2  0
 17 18  1  0
 18 19  2  0
 19 20  1  0
 20 21  2  0
 15 22  1  0
 22 23  1  0
  5 24  1  0
 24 25  2  0
 25  2  1  0
 22 12  1  0
 21 16  1  0
  1 26  1  0
  1 27  1  0
  1 28  1  0
  3 29  1  0
  4 30  1  0
  9 31  1  0
  9 32  1  0
 10 33  1  0
 10 34  1  0
 17 35  1  0
 18 36  1  0
 19 37  1  0
 20 38  1  0
 21 39  1  0
 23 40  1  0
 23 41  1  0
 23 42  1  0
 24 43  1  0
 25 44  1  0
M  CHG  1   6  -1
M  END
>  <UniqueID>  (12) 
12

>  <SMILES>  (12) 
Cc1ccc([N-]C(=O)CCSc2nnc(-c3ccccc3)n2C)cc1

>  <Energy>  (12) 
82.17810573777552

>  <Genealogy>  (12) 
Cc1ccc([N-]C(=O)CCSc2nnc(-c3ccccc3)n2C)cc1 (protonated)
Cc1ccc([N-]C(=O)CCSc2nnc(-c3ccccc3)n2C)cc1 (3D coordinates assigned)
Cc1ccc([N-]C(=O)CCSc2nnc(-c3ccccc3)n2C)cc1 (optimized conformer: 82.17810573777552 kcal/mol)

>  <smiles>  (12) 
Cc1ccc(NC(=O)CCSc2nnc(-c3ccccc3)n2C)cc1

>  <score_type>  (12) 
oracle

>  <origin>  (12) 
adg

>  <m_score__min__energy>  (12) 
-11.09

>  <m_primary>  (12) 
energy

$$$$
12:0
     RDKit          3D

 46 49  0  0  0  0  0  0  0  0999 V2000
   -5.2130   25.3160  -30.2010 C   0  0  0  0  0  0  0  0  0  0  0  0
   -3.8310   25.3070  -30.4830 O   0  0  0  0  0  0  0  0  0  0  0  0
   -3.1550   24.4060  -29.6240 C   0  0  0  0  0  0  0  0  0  0  0  0
   -3.2580   22.9600  -30.1470 C   0  0  1  0  0  0  0  0  0  0  0  0
   -3.8280   22.9490  -31.5900 C   0  0  0  0  0  0  0  0  0  0  0  0
   -3.6100   21.6380  -32.2290 N   0  0  0  0  0  0  0  0  0  0  0  0
   -4.7070   20.9360  -32.8500 C   0  0  0  0  0  0  0  0  0  0  0  0
   -4.4720   20.0420  -33.7080 O   0  0  0  0  0  0  0  0  0  0  0  0
   -6.1160   21.2160  -32.4820 C   0  0  0  0  0  0  0  0  0  0  0  0
   -6.5070   22.5580  -32.3390 C   0  0  0  0  0  0  0  0  0  0  0  0
   -7.8370   22.8890  -32.0760 C   0  0  0  0  0  0  0  0  0  0  0  0
   -8.7990   21.8880  -31.9490 C   0  0  0  0  0  0  0  0  0  0  0  0
   -8.4310   20.5400  -32.0620 C   0  0  0  0  0  0  0  0  0  0  0  0
   -9.3890   19.5290  -31.9240 C   0  0  0  0  0  0  0  0  0  0  0  0
   -9.0070   18.1920  -32.0140 C   0  0  0  0  0  0  0  0  0  0  0  0
   -7.6650   17.8760  -32.2230 C   0  0  0  0  0  0  0  0  0  0  0  0
   -6.7360   18.8610  -32.3540 N   0  0  0  0  0  0  0  0  0  0  0  0
   -7.0790   20.1870  -32.3070 C   0  0  0  0  0  0  0  0  0  0  0  0
   -2.2240   21.1620  -32.3780 C   0  0  0  0  0  0  0  0  0  0  0  0
   -1.4870   21.3980  -31.0970 C   0  0  0  0  0  0  0  0  0  0  0  0
   -1.9260   22.2530  -30.1190 C   0  0  0  0  0  0  0  0  0  0  0  0
   -1.0160   22.0990  -29.0850 C   0  0  0  0  0  0  0  0  0  0  0  0
   -0.0630   21.2180  -29.4610 N   0  0  0  0  0  0  0  0  0  0  0  0
   -0.3470   20.8110  -30.6900 N   0  0  0  0  0  0  0  0  0  0  0  0
    0.4080   19.7870  -31.4010 C   0  0  0  0  0  0  0  0  0  0  0  0
   -5.3649   25.3170  -29.1115 H   0  0  0  0  0  0  0  0  0  0  0  0
   -5.6701   26.2171  -30.6358 H   0  0  0  0  0  0  0  0  0  0  0  0
   -5.6818   24.4209  -30.6358 H   0  0  0  0  0  0  0  0  0  0  0  0
   -2.0946   24.6924  -29.5653 H   0  0  0  0  0  0  0  0  0  0  0  0
   -3.6230   24.4527  -28.6296 H   0  0  0  0  0  0  0  0  0  0  0  0
   -3.9409   22.4179  -29.4764 H   0  0  0  0  0  0  0  0  0  0  0  0
   -4.9075   23.1571  -31.5530 H   0  0  0  0  0  0  0  0  0  0  0  0
   -3.3096   23.7193  -32.1798 H   0  0  0  0  0  0  0  0  0  0  0  0
   -5.7566   23.3565  -32.4354 H   0  0  0  0  0  0  0  0  0  0  0  0
   -8.1276   23.9445  -31.9684 H   0  0  0  0  0  0  0  0  0  0  0  0
   -9.8488   22.1564  -31.7598 H   0  0  0  0  0  0  0  0  0  0  0  0
  -10.4425   19.7897  -31.7447 H   0  0  0  0  0  0  0  0  0  0  0  0
   -9.7573   17.3930  -31.9210 H   0  0  0  0  0  0  0  0  0  0  0  0
   -7.3552   16.8222  -32.2824 H   0  0  0  0  0  0  0  0  0  0  0  0
   -5.7440   18.5620  -32.4680 H   0  0  0  0  0  0  0  0  0  0  0  0
   -2.2263   20.0866  -32.6093 H   0  0  0  0  0  0  0  0  0  0  0  0
   -1.7302   21.7064  -33.1964 H   0  0  0  0  0  0  0  0  0  0  0  0
   -1.0622   22.6122  -28.1132 H   0  0  0  0  0  0  0  0  0  0  0  0
    0.8982   19.1222  -30.6746 H   0  0  0  0  0  0  0  0  0  0  0  0
   -0.2751   19.2000  -32.0325 H   0  0  0  0  0  0  0  0  0  0  0  0
    1.1707   20.2660  -32.0325 H   0  0  0  0  0  0  0  0  0  0  0  0
  1  2  1  0
  2  3  1  0
  3  4  1  0
  4  5  1  0
  5  6  1  0
  6  7  1  0
  7  8  2  0
  7  9  1  0
  9 10  2  0
 10 11  1  0
 11 12  2  0
 12 13  1  0
 13 14  2  0
 14 15  1  0
 15 16  2  0
 16 17  1  0
 17 18  2  0
  6 19  1  0
 19 20  1  0
 20 21  2  0
 21 22  1  0
 22 23  2  0
 23 24  1  0
 24 25  1  0
 21  4  1  0
 18  9  1  0
 24 20  1  0
 18 13  1  0
  1 26  1  0
  1 27  1  0
  1 28  1  0
  3 29  1  0
  3 30  1  0
  4 31  1  1
  5 32  1  0
  5 33  1  0
 10 34  1  0
 11 35  1  0
 12 36  1  0
 14 37  1  0
 15 38  1  0
 16 39  1  0
 17 40  1  0
 19 41  1  0
 19 42  1  0
 22 43  1  0
 25 44  1  0
 25 45  1  0
 25 46  1  0
M  CHG  1  17   1
M  END
>  <UniqueID>  (13) 
13

>  <SMILES>  (13) 
COC[C@H]1CN(C(=O)c2cccc3ccc[nH+]c23)Cc2c1cnn2C

>  <Energy>  (13) 
94.16026304768822

>  <Genealogy>  (13) 
COCC1CN(C(=O)c2cccc3ccc[nH+]c23)Cc2c1cnn2C (protonated)
COC[C@H]1CN(C(=O)c2cccc3ccc[nH+]c23)Cc2c1cnn2C (chirality)
COC[C@H]1CN(C(=O)c2cccc3ccc[nH+]c23)Cc2c1cnn2C (3D coordinates assigned)
COC[C@H]1CN(C(=O)c2cccc3ccc[nH+]c23)Cc2c1cnn2C (nonaromatic ring conformer: 94.16026304768822 kcal/mol)

>  <smiles>  (13) 
COCC1CN(C(=O)c2cccc3cccnc23)Cc2c1cnn2C

>  <score_type>  (13) 
oracle

>  <origin>  (13) 
adg

>  <m_score__min__energy>  (13) 
-8.0099999999999998

>  <m_primary>  (13) 
energy

$$$$
13:0
     RDKit          3D

 60 62  0  0  0  0  0  0  0  0999 V2000
   -2.8550   24.1790  -28.1310 C   0  0  0  0  0  0  0  0  0  0  0  0
   -4.3440   24.4590  -28.3090 C   0  0  0  0  0  0  0  0  0  0  0  0
   -4.6570   24.7120  -29.7320 N   0  0  0  0  0  0  0  0  0  0  0  0
   -5.8990   25.4950  -29.8620 C   0  0  0  0  0  0  0  0  0  0  0  0
   -4.7910   23.4450  -30.4800 C   0  0  0  0  0  0  0  0  0  0  0  0
   -3.8190   23.3750  -31.5810 N   0  0  0  0  0  0  0  0  0  0  0  0
   -3.0460   22.1250  -31.5300 C   0  0  0  0  0  0  0  0  0  0  0  0
   -3.3190   21.2760  -32.7790 C   0  0  0  0  0  0  0  0  0  0  0  0
   -4.5770   21.6520  -33.4550 N   0  0  0  0  0  0  0  0  0  0  0  0
   -5.7000   20.8160  -33.0470 C   0  0  0  0  0  0  0  0  0  0  0  0
   -6.8710   21.3890  -32.4740 C   0  0  0  0  0  0  0  0  0  0  0  0
   -7.9360   20.5360  -32.0690 C   0  0  0  0  0  0  0  0  0  0  0  0
   -7.7820   19.1660  -32.1190 N   0  0  0  0  0  0  0  0  0  0  0  0
   -8.7600   18.2850  -31.4460 C   0  0  0  0  0  0  0  0  0  0  0  0
   -6.7380   18.6120  -32.8220 C   0  0  0  0  0  0  0  0  0  0  0  0
   -5.6660   19.4140  -33.2600 C   0  0  0  0  0  0  0  0  0  0  0  0
   -4.4860   18.6880  -33.8900 C   0  0  0  0  0  0  0  0  0  0  0  0
   -4.9570   17.7040  -34.9680 C   0  0  0  0  0  0  0  0  0  0  0  0
   -6.1780   16.8570  -34.5520 C   0  0  0  0  0  0  0  0  0  0  0  0
   -6.6630   17.1180  -33.1170 C   0  0  0  0  0  0  0  0  0  0  0  0
   -9.2310   21.1330  -31.5330 C   0  0  0  0  0  0  0  0  0  0  0  0
   -9.4530   22.5760  -31.9610 C   0  0  0  0  0  0  0  0  0  0  0  0
   -8.2300   23.3910  -31.5970 C   0  0  0  0  0  0  0  0  0  0  0  0
   -7.0180   22.9070  -32.3890 C   0  0  0  0  0  0  0  0  0  0  0  0
   -2.6160   24.1341  -27.0582 H   0  0  0  0  0  0  0  0  0  0  0  0
   -2.6036   23.2178  -28.6032 H   0  0  0  0  0  0  0  0  0  0  0  0
   -2.2717   24.9832  -28.6032 H   0  0  0  0  0  0  0  0  0  0  0  0
   -4.9201   23.5890  -27.9608 H   0  0  0  0  0  0  0  0  0  0  0  0
   -4.6110   25.3502  -27.7221 H   0  0  0  0  0  0  0  0  0  0  0  0
   -6.2853   25.7386  -28.8613 H   0  0  0  0  0  0  0  0  0  0  0  0
   -5.6903   26.4252  -30.4109 H   0  0  0  0  0  0  0  0  0  0  0  0
   -6.6483   24.9056  -30.4109 H   0  0  0  0  0  0  0  0  0  0  0  0
   -4.6180   22.6027  -29.7939 H   0  0  0  0  0  0  0  0  0  0  0  0
   -5.8044   23.3956  -30.9049 H   0  0  0  0  0  0  0  0  0  0  0  0
   -3.1600   24.1790  -31.4580 H   0  0  0  0  0  0  0  0  0  0  0  0
   -1.9733   22.3639  -31.4814 H   0  0  0  0  0  0  0  0  0  0  0  0
   -3.3471   21.5553  -30.6385 H   0  0  0  0  0  0  0  0  0  0  0  0
   -2.4859   21.4090  -33.4849 H   0  0  0  0  0  0  0  0  0  0  0  0
   -3.4131   20.2284  -32.4568 H   0  0  0  0  0  0  0  0  0  0  0  0
   -4.7500   22.6690  -33.3090 H   0  0  0  0  0  0  0  0  0  0  0  0
   -4.4520   21.5840  -34.4900 H   0  0  0  0  0  0  0  0  0  0  0  0
   -8.6518   18.3825  -30.3557 H   0  0  0  0  0  0  0  0  0  0  0  0
   -9.7791   18.5758  -31.7408 H   0  0  0  0  0  0  0  0  0  0  0  0
   -8.5768   17.2412  -31.7408 H   0  0  0  0  0  0  0  0  0  0  0  0
   -3.8118   19.4270  -34.3476 H   0  0  0  0  0  0  0  0  0  0  0  0
   -3.9628   18.1228  -33.1046 H   0  0  0  0  0  0  0  0  0  0  0  0
   -5.2240   18.2778  -35.8677 H   0  0  0  0  0  0  0  0  0  0  0  0
   -4.1278   17.0031  -35.1443 H   0  0  0  0  0  0  0  0  0  0  0  0
   -7.0049   17.0805  -35.2422 H   0  0  0  0  0  0  0  0  0  0  0  0
   -5.8628   15.8040  -34.5938 H   0  0  0  0  0  0  0  0  0  0  0  0
   -7.6628   16.6769  -32.9906 H   0  0  0  0  0  0  0  0  0  0  0  0
   -5.9458   16.6613  -32.4191 H   0  0  0  0  0  0  0  0  0  0  0  0
  -10.0725   20.5270  -31.8998 H   0  0  0  0  0  0  0  0  0  0  0  0
   -9.1619   21.1266  -30.4352 H   0  0  0  0  0  0  0  0  0  0  0  0
   -9.6139   22.6177  -33.0484 H   0  0  0  0  0  0  0  0  0  0  0  0
  -10.3374   22.9838  -31.4497 H   0  0  0  0  0  0  0  0  0  0  0  0
   -8.4167   24.4498  -31.8297 H   0  0  0  0  0  0  0  0  0  0  0  0
   -8.0268   23.2723  -30.5225 H   0  0  0  0  0  0  0  0  0  0  0  0
   -7.0994   23.3005  -33.4130 H   0  0  0  0  0  0  0  0  0  0  0  0
   -6.1311   23.2737  -31.8514 H   0  0  0  0  0  0  0  0  0  0  0  0
  1  2  1  0
  2  3  1  0
  3  4  1  0
  3  5  1  0
  5  6  1  0
  6  7  1  0
  7  8  1  0
  8  9  1  0
  9 10  1  0
 10 11  2  0
 11 12  1  0
 12 13  2  0
 13 14  1  0
 13 15  1  0
 15 16  2  0
 16 17  1  0
 17 18  1  0
 18 19  1  0
 19 20  1  0
 12 21  1  0
 21 22  1  0
 22 23  1  0
 23 24  1  0
 16 10  1  0
 24 11  1  0
 20 15  1  0
  1 25  1  0
  1 26  1  0
  1 27  1  0
  2 28  1  0
  2 29  1  0
  4 30  1  0
  4 31  1  0
  4 32  1  0
  5 33  1  0
  5 34  1  0
  6 35  1  0
  7 36  1  0
  7 37  1  0
  8 38  1  0
  8 39  1  0
  9 40  1  0
  9 41  1  0
 14 42  1  0
 14 43  1  0
 14 44  1  0
 17 45  1  0
 17 46  1  0
 18 47  1  0
 18 48  1  0
 19 49  1  0
 19 50  1  0
 20 51  1  0
 20 52  1  0
 21 53  1  0
 21 54  1  0
 22 55  1  0
 22 56  1  0
 23 57  1  0
 23 58  1  0
 24 59  1  0
 24 60  1  0
M  CHG  2   9   1  13   1
M  END
>  <UniqueID>  (14) 
14

>  <SMILES>  (14) 
CCN(C)CNCC[NH2+]c1c2c([n+](C)c3c1CCCC3)CCCC2

>  <Energy>  (14) 
78.0912770292858

>  <Genealogy>  (14) 
CCN(C)CNCC[NH2+]c1c2c([n+](C)c3c1CCCC3)CCCC2 (protonated)
CCN(C)CNCC[NH2+]c1c2c([n+](C)c3c1CCCC3)CCCC2 (3D coordinates assigned)
CCN(C)CNCC[NH2+]c1c2c([n+](C)c3c1CCCC3)CCCC2 (nonaromatic ring conformer: 78.0912770292858 kcal/mol)

>  <smiles>  (14) 
CCN(C)CNCCNc1c2c([n+](C)c3c1CCCC3)CCCC2

>  <score_type>  (14) 
oracle

>  <origin>  (14) 
adg

>  <m_score__min__energy>  (14) 
-8.6500000000000004

>  <m_primary>  (14) 
energy

$$$$
14:0
     RDKit          3D

 33 35  0  0  0  0  0  0  0  0999 V2000
   -4.5270   22.5850  -31.3970 C   0  0  0  0  0  0  0  0  0  0  0  0
   -5.2260   23.6670  -30.7040 N   0  0  0  0  0  0  0  0  0  0  0  0
   -6.4890   24.1020  -30.9200 C   0  0  0  0  0  0  0  0  0  0  0  0
   -7.6170   23.4360  -32.1490 S   0  0  0  0  0  0  0  0  0  0  0  0
   -8.2080   22.0710  -31.0870 C   0  0  0  0  0  0  0  0  0  0  0  0
   -7.9470   20.7370  -31.7300 C   0  0  0  0  0  0  0  0  0  0  0  0
   -6.9050   20.5870  -32.6610 C   0  0  0  0  0  0  0  0  0  0  0  0
   -6.6480   19.3390  -33.2360 C   0  0  0  0  0  0  0  0  0  0  0  0
   -7.4280   18.2330  -32.8860 C   0  0  0  0  0  0  0  0  0  0  0  0
   -8.4650   18.3730  -31.9590 C   0  0  0  0  0  0  0  0  0  0  0  0
   -8.7240   19.6210  -31.3810 C   0  0  0  0  0  0  0  0  0  0  0  0
   -6.8220   25.1060  -30.0870 N   0  0  0  0  0  0  0  0  0  0  0  0
   -5.7600   25.3190  -29.3270 N   0  0  0  0  0  0  0  0  0  0  0  0
   -4.7920   24.4640  -29.6990 C   0  0  0  0  0  0  0  0  0  0  0  0
   -3.4640   24.4340  -29.0500 C   0  0  0  0  0  0  0  0  0  0  0  0
   -2.9990   23.5350  -28.1030 C   0  0  0  0  0  0  0  0  0  0  0  0
   -1.7030   23.9170  -27.8310 C   0  0  0  0  0  0  0  0  0  0  0  0
   -1.4510   25.0150  -28.6250 C   0  0  0  0  0  0  0  0  0  0  0  0
   -2.5150   25.2950  -29.3390 O   0  0  0  0  0  0  0  0  0  0  0  0
   -4.0852   21.9011  -30.6574 H   0  0  0  0  0  0  0  0  0  0  0  0
   -5.2395   22.0328  -32.0274 H   0  0  0  0  0  0  0  0  0  0  0  0
   -3.7307   23.0075  -32.0274 H   0  0  0  0  0  0  0  0  0  0  0  0
   -7.6835   22.1136  -30.1211 H   0  0  0  0  0  0  0  0  0  0  0  0
   -9.2925   22.1841  -30.9416 H   0  0  0  0  0  0  0  0  0  0  0  0
   -6.2891   21.4552  -32.9384 H   0  0  0  0  0  0  0  0  0  0  0  0
   -5.8314   19.2272  -33.9644 H   0  0  0  0  0  0  0  0  0  0  0  0
   -7.2257   17.2519  -33.3403 H   0  0  0  0  0  0  0  0  0  0  0  0
   -9.0777   17.5019  -31.6838 H   0  0  0  0  0  0  0  0  0  0  0  0
   -9.5394   19.7279  -30.6505 H   0  0  0  0  0  0  0  0  0  0  0  0
   -5.7080   26.0430  -28.5770 H   0  0  0  0  0  0  0  0  0  0  0  0
   -3.5498   22.6919  -27.6605 H   0  0  0  0  0  0  0  0  0  0  0  0
   -1.0091   23.4411  -27.1225 H   0  0  0  0  0  0  0  0  0  0  0  0
   -0.5026   25.5714  -28.6553 H   0  0  0  0  0  0  0  0  0  0  0  0
  1  2  1  0
  2  3  1  0
  3  4  1  0
  4  5  1  0
  5  6  1  0
  6  7  2  0
  7  8  1  0
  8  9  2  0
  9 10  1  0
 10 11  2  0
  3 12  2  0
 12 13  1  0
 13 14  2  0
 14 15  1  0
 15 16  2  0
 16 17  1  0
 17 18  2  0
 18 19  1  0
 14  2  1  0
 19 15  1  0
 11  6  1  0
  1 20  1  0
  1 21  1  0
  1 22  1  0
  5 23  1  0
  5 24  1  0
  7 25  1  0
  8 26  1  0
  9 27  1  0
 10 28  1  0
 11 29  1  0
 13 30  1  0
 16 31  1  0
 17 32  1  0
 18 33  1  0
M  CHG  1  13   1
M  END
>  <UniqueID>  (15) 
15

>  <SMILES>  (15) 
Cn1c(SCc2ccccc2)n[nH+]c1-c1ccco1

>  <Energy>  (15) 
93.82955398072322

>  <Genealogy>  (15) 
Cn1c(SCc2ccccc2)n[nH+]c1-c1ccco1 (protonated)
Cn1c(SCc2ccccc2)n[nH+]c1-c1ccco1 (3D coordinates assigned)
Cn1c(SCc2ccccc2)n[nH+]c1-c1ccco1 (optimized conformer: 93.82955398072322 kcal/mol)

>  <smiles>  (15) 
Cn1c(SCc2ccccc2)nnc1-c1ccco1

>  <score_type>  (15) 
oracle

>  <origin>  (15) 
adg

>  <m_score__min__energy>  (15) 
-7.96

>  <m_primary>  (15) 
energy

$$$$
15:0
     RDKit          3D

 47 48  0  0  0  0  0  0  0  0999 V2000
   -2.8910   24.5240  -28.5390 C   0  0  0  0  0  0  0  0  0  0  0  0
   -3.4850   25.0450  -29.7220 O   0  0  0  0  0  0  0  0  0  0  0  0
   -4.4720   24.3860  -30.4760 C   0  0  0  0  0  0  0  0  0  0  0  0
   -4.1510   23.3590  -31.3850 C   0  0  0  0  0  0  0  0  0  0  0  0
   -5.1540   22.7060  -32.1140 C   0  0  0  0  0  0  0  0  0  0  0  0
   -4.7940   21.6470  -33.0180 N   0  0  0  0  0  0  0  0  0  0  0  0
   -4.6330   20.2530  -32.6020 C   0  0  0  0  0  0  0  0  0  0  0  0
   -5.9520   19.5180  -32.6600 C   0  0  0  0  0  0  0  0  0  0  0  0
   -7.0420   19.9380  -32.0460 C   0  0  0  0  0  0  0  0  0  0  0  0
   -8.1810   19.0050  -32.2680 C   0  0  0  0  0  0  0  0  0  0  0  0
   -9.2770   19.7330  -33.0730 C   0  0  0  0  0  0  0  0  0  0  0  0
   -8.7430   18.5510  -30.9060 C   0  0  0  0  0  0  0  0  0  0  0  0
   -7.6180   17.8610  -33.0330 N   0  0  0  0  0  0  0  0  0  0  0  0
   -6.1940   18.1930  -33.3240 C   0  0  0  0  0  0  0  0  0  0  0  0
   -5.2480   17.1290  -32.7280 C   0  0  0  0  0  0  0  0  0  0  0  0
   -5.9590   18.3040  -34.8450 C   0  0  0  0  0  0  0  0  0  0  0  0
   -6.4880   23.1070  -31.9550 C   0  0  0  0  0  0  0  0  0  0  0  0
   -6.8170   24.1240  -31.0580 C   0  0  0  0  0  0  0  0  0  0  0  0
   -5.8170   24.7660  -30.3120 C   0  0  0  0  0  0  0  0  0  0  0  0
   -6.1830   25.8550  -29.3440 C   0  0  0  0  0  0  0  0  0  0  0  0
   -3.3863   24.9584  -27.6581 H   0  0  0  0  0  0  0  0  0  0  0  0
   -3.0060   23.4302  -28.5221 H   0  0  0  0  0  0  0  0  0  0  0  0
   -1.8215   24.7806  -28.5221 H   0  0  0  0  0  0  0  0  0  0  0  0
   -3.1000   23.0659  -31.5244 H   0  0  0  0  0  0  0  0  0  0  0  0
   -4.4420   21.9060  -33.9680 H   0  0  0  0  0  0  0  0  0  0  0  0
   -3.9148   19.7577  -33.2720 H   0  0  0  0  0  0  0  0  0  0  0  0
   -4.2658   20.2355  -31.5652 H   0  0  0  0  0  0  0  0  0  0  0  0
   -7.1015   20.8588  -31.4473 H   0  0  0  0  0  0  0  0  0  0  0  0
   -9.9884   20.2055  -32.3797 H   0  0  0  0  0  0  0  0  0  0  0  0
   -8.8152   20.5045  -33.7067 H   0  0  0  0  0  0  0  0  0  0  0  0
   -9.8091   19.0082  -33.7067 H   0  0  0  0  0  0  0  0  0  0  0  0
   -8.1640   19.0188  -30.0961 H   0  0  0  0  0  0  0  0  0  0  0  0
   -9.7974   18.8538  -30.8251 H   0  0  0  0  0  0  0  0  0  0  0  0
   -8.6686   17.4565  -30.8251 H   0  0  0  0  0  0  0  0  0  0  0  0
   -7.6920   16.9720  -32.4850 H   0  0  0  0  0  0  0  0  0  0  0  0
   -8.1600   17.6920  -33.9140 H   0  0  0  0  0  0  0  0  0  0  0  0
   -5.2894   17.1755  -31.6298 H   0  0  0  0  0  0  0  0  0  0  0  0
   -5.5614   16.1298  -33.0647 H   0  0  0  0  0  0  0  0  0  0  0  0
   -4.2190   17.3234  -33.0647 H   0  0  0  0  0  0  0  0  0  0  0  0
   -4.9788   18.7670  -35.0317 H   0  0  0  0  0  0  0  0  0  0  0  0
   -5.9817   17.3000  -35.2938 H   0  0  0  0  0  0  0  0  0  0  0  0
   -6.7489   18.9242  -35.2938 H   0  0  0  0  0  0  0  0  0  0  0  0
   -7.2798   22.6171  -32.5407 H   0  0  0  0  0  0  0  0  0  0  0  0
   -7.8679   24.4246  -30.9348 H   0  0  0  0  0  0  0  0  0  0  0  0
   -6.0594   25.4874  -28.3146 H   0  0  0  0  0  0  0  0  0  0  0  0
   -5.5274   26.7236  -29.5043 H   0  0  0  0  0  0  0  0  0  0  0  0
   -7.2301   26.1514  -29.5043 H   0  0  0  0  0  0  0  0  0  0  0  0
  1  2  1  0
  2  3  1  0
  3  4  2  0
  4  5  1  0
  5  6  1  0
  6  7  1  0
  7  8  1  0
  8  9  2  0
  9 10  1  0
 10 11  1  0
 10 12  1  0
 10 13  1  0
 13 14  1  0
 14 15  1  0
 14 16  1  0
  5 17  2  0
 17 18  1  0
 18 19  2  0
 19 20  1  0
 19  3  1  0
 14  8  1  0
  1 21  1  0
  1 22  1  0
  1 23  1  0
  4 24  1  0
  6 25  1  0
  7 26  1  0
  7 27  1  0
  9 28  1  0
 11 29  1  0
 11 30  1  0
 11 31  1  0
 12 32  1  0
 12 33  1  0
 12 34  1  0
 13 35  1  0
 13 36  1  0
 15 37  1  0
 15 38  1  0
 15 39  1  0
 16 40  1  0
 16 41  1  0
 16 42  1  0
 17 43  1  0
 18 44  1  0
 20 45  1  0
 20 46  1  0
 20 47  1  0
M  CHG  1  13   1
M  END
>  <UniqueID>  (16) 
16

>  <SMILES>  (16) 
COc1cc(NCC2=CC(C)(C)[NH2+]C2(C)C)ccc1C

>  <Energy>  (16) 
46.183247229937486

>  <Genealogy>  (16) 
COc1cc(NCC2=CC(C)(C)[NH2+]C2(C)C)ccc1C (protonated)
COc1cc(NCC2=CC(C)(C)[NH2+]C2(C)C)ccc1C (3D coordinates assigned)
COc1cc(NCC2=CC(C)(C)[NH2+]C2(C)C)ccc1C (nonaromatic ring conformer: 46.183247229937486 kcal/mol)

>  <smiles>  (16) 
COc1cc(NCC2=CC(C)(C)NC2(C)C)ccc1C

>  <score_type>  (16) 
oracle

>  <origin>  (16) 
adg

>  <m_score__min__energy>  (16) 
-7.4500000000000002

>  <m_primary>  (16) 
energy

$$$$
16:0
     RDKit          3D

 49 50  0  0  0  0  0  0  0  0999 V2000
   -5.6540   16.8850  -32.0030 C   0  0  0  0  0  0  0  0  0  0  0  0
   -6.7030   17.8130  -31.3880 C   0  0  0  0  0  0  0  0  0  0  0  0
   -7.9460   17.9730  -32.2790 C   0  0  0  0  0  0  0  0  0  0  0  0
   -9.0170   18.8730  -31.6420 C   0  0  0  0  0  0  0  0  0  0  0  0
   -8.5250   20.3130  -31.4310 C   0  0  0  0  0  0  0  0  0  0  0  0
   -7.8870   20.9080  -32.6950 C   0  0  0  0  0  0  0  0  0  0  0  0
   -6.4350   21.1070  -32.5070 N   0  0  0  0  0  0  0  0  0  0  0  0
   -5.9450   22.0730  -31.6430 C   0  0  0  0  0  0  0  0  0  0  0  0
   -7.0300   23.0840  -30.6130 S   0  0  0  0  0  0  0  0  0  0  0  0
   -6.1580   24.6590  -30.9480 C   0  0  0  0  0  0  0  0  0  0  0  0
   -4.9340   24.8080  -30.0910 C   0  0  0  0  0  0  0  0  0  0  0  0
   -3.8800   25.2990  -30.5830 O   0  0  0  0  0  0  0  0  0  0  0  0
   -4.9880   24.4530  -28.7050 N   0  0  0  0  0  0  0  0  0  0  0  0
   -3.7960   24.4400  -27.8530 C   0  0  0  0  0  0  0  0  0  0  0  0
   -3.1950   23.0320  -27.8230 C   0  0  0  0  0  0  0  0  0  0  0  0
   -4.1480   24.9110  -26.4370 C   0  0  0  0  0  0  0  0  0  0  0  0
   -4.6010   22.2960  -31.5440 N   0  0  0  0  0  0  0  0  0  0  0  0
   -3.7330   21.5490  -32.2610 C   0  0  0  0  0  0  0  0  0  0  0  0
   -2.3440   21.6780  -32.2380 C   0  0  0  0  0  0  0  0  0  0  0  0
   -1.7120   20.7590  -33.0750 C   0  0  0  0  0  0  0  0  0  0  0  0
   -2.8880   19.8000  -33.8290 S   0  0  0  0  0  0  0  0  0  0  0  0
   -4.1920   20.5590  -33.0900 C   0  0  0  0  0  0  0  0  0  0  0  0
   -5.5520   20.3230  -33.2180 C   0  0  0  0  0  0  0  0  0  0  0  0
   -5.9590   19.4010  -33.9750 O   0  0  0  0  0  0  0  0  0  0  0  0
   -5.0902   16.3863  -31.2008 H   0  0  0  0  0  0  0  0  0  0  0  0
   -6.1538   16.1280  -32.6252 H   0  0  0  0  0  0  0  0  0  0  0  0
   -4.9636   17.4734  -32.6252 H   0  0  0  0  0  0  0  0  0  0  0  0
   -7.0156   17.3979  -30.4185 H   0  0  0  0  0  0  0  0  0  0  0  0
   -6.2440   18.8062  -31.2750 H   0  0  0  0  0  0  0  0  0  0  0  0
   -7.6379   18.4161  -33.2375 H   0  0  0  0  0  0  0  0  0  0  0  0
   -8.3880   16.9752  -32.4172 H   0  0  0  0  0  0  0  0  0  0  0  0
   -9.8977   18.8940  -32.3008 H   0  0  0  0  0  0  0  0  0  0  0  0
   -9.2610   18.4548  -30.6543 H   0  0  0  0  0  0  0  0  0  0  0  0
   -9.3812   20.9392  -31.1399 H   0  0  0  0  0  0  0  0  0  0  0  0
   -7.7544   20.2912  -30.6463 H   0  0  0  0  0  0  0  0  0  0  0  0
   -8.0505   20.2214  -33.5387 H   0  0  0  0  0  0  0  0  0  0  0  0
   -8.3527   21.8835  -32.8988 H   0  0  0  0  0  0  0  0  0  0  0  0
   -5.8577   24.6824  -32.0060 H   0  0  0  0  0  0  0  0  0  0  0  0
   -6.8433   25.4873  -30.7149 H   0  0  0  0  0  0  0  0  0  0  0  0
   -5.9080   24.1600  -28.2950 H   0  0  0  0  0  0  0  0  0  0  0  0
   -3.0492   25.1327  -28.2682 H   0  0  0  0  0  0  0  0  0  0  0  0
   -3.0591   22.7135  -26.7789 H   0  0  0  0  0  0  0  0  0  0  0  0
   -3.8731   22.3329  -28.3343 H   0  0  0  0  0  0  0  0  0  0  0  0
   -2.2211   23.0381  -28.3343 H   0  0  0  0  0  0  0  0  0  0  0  0
   -3.6588   24.2564  -25.7006 H   0  0  0  0  0  0  0  0  0  0  0  0
   -3.7994   25.9449  -26.2972 H   0  0  0  0  0  0  0  0  0  0  0  0
   -5.2383   24.8696  -26.2972 H   0  0  0  0  0  0  0  0  0  0  0  0
   -1.8081   22.4206  -31.6286 H   0  0  0  0  0  0  0  0  0  0  0  0
   -0.6254   20.6709  -33.2220 H   0  0  0  0  0  0  0  0  0  0  0  0
  1  2  1  0
  2  3  1  0
  3  4  1  0
  4  5  1  0
  5  6  1  0
  6  7  1  0
  7  8  1  0
  8  9  1  0
  9 10  1  0
 10 11  1  0
 11 12  2  0
 11 13  1  0
 13 14  1  0
 14 15  1  0
 14 16  1  0
  8 17  2  0
 17 18  1  0
 18 19  1  0
 19 20  2  0
 20 21  1  0
 21 22  1  0
 22 23  1  0
 23 24  2  0
 23  7  1  0
 22 18  2  0
  1 25  1  0
  1 26  1  0
  1 27  1  0
  2 28  1  0
  2 29  1  0
  3 30  1  0
  3 31  1  0
  4 32  1  0
  4 33  1  0
  5 34  1  0
  5 35  1  0
  6 36  1  0
  6 37  1  0
 10 38  1  0
 10 39  1  0
 13 40  1  0
 14 41  1  0
 15 42  1  0
 15 43  1  0
 15 44  1  0
 16 45  1  0
 16 46  1  0
 16 47  1  0
 19 48  1  0
 20 49  1  0
M  END
>  <UniqueID>  (17) 
17

>  <SMILES>  (17) 
CCCCCCn1c(SCC(=O)NC(C)C)nc2ccsc2c1=O

>  <Energy>  (17) 
64.4932041742151

>  <Genealogy>  (17) 
CCCCCCn1c(SCC(=O)NC(C)C)nc2ccsc2c1=O (3D coordinates assigned)
CCCCCCn1c(SCC(=O)NC(C)C)nc2ccsc2c1=O (optimized conformer: 64.4932041742151 kcal/mol)

>  <smiles>  (17) 
CCCCCCn1c(SCC(=O)NC(C)C)nc2ccsc2c1=O

>  <score_type>  (17) 
oracle

>  <origin>  (17) 
adg

>  <m_score__min__energy>  (17) 
-8.75

>  <m_primary>  (17) 
energy

$$$$
17:0
     RDKit          3D

 59 61  0  0  0  0  0  0  0  0999 V2000
   -5.4240   25.6480  -30.4780 C   0  0  0  0  0  0  0  0  0  0  0  0
   -5.6080   24.4550  -29.5350 C   0  0  0  0  0  0  0  0  0  0  0  0
   -4.9810   24.6630  -28.2150 N   0  0  0  0  0  0  0  0  0  0  0  0
   -3.8070   23.8100  -27.9430 C   0  0  0  0  0  0  0  0  0  0  0  0
   -3.8480   22.4780  -28.7170 C   0  0  0  0  0  0  0  0  0  0  0  0
   -2.4470   21.9750  -29.0960 C   0  0  0  0  0  0  0  0  0  0  0  0
   -2.1530   22.2560  -30.5080 N   0  0  0  0  0  0  0  0  0  0  0  0
   -3.3900   22.2480  -31.2980 C   0  0  0  0  0  0  0  0  0  0  0  0
   -3.2110   21.3800  -32.5450 C   0  0  0  0  0  0  0  0  0  0  0  0
   -4.4080   21.4230  -33.3830 N   0  0  0  0  0  0  0  0  0  0  0  0
   -5.5720   20.6610  -33.0310 C   0  0  0  0  0  0  0  0  0  0  0  0
   -6.7010   21.3050  -32.5030 C   0  0  0  0  0  0  0  0  0  0  0  0
   -6.7110   22.7030  -32.3130 C   0  0  0  0  0  0  0  0  0  0  0  0
   -7.8540   23.3490  -31.8460 C   0  0  0  0  0  0  0  0  0  0  0  0
   -9.0030   22.6170  -31.5730 C   0  0  0  0  0  0  0  0  0  0  0  0
   -9.0100   21.2320  -31.7340 C   0  0  0  0  0  0  0  0  0  0  0  0
   -7.8490   20.5390  -32.1650 C   0  0  0  0  0  0  0  0  0  0  0  0
   -7.8200   19.1610  -32.2750 N   0  0  0  0  0  0  0  0  0  0  0  0
   -8.8930   18.3470  -31.6580 C   0  0  0  0  0  0  0  0  0  0  0  0
   -6.7700   18.5390  -32.9280 C   0  0  0  0  0  0  0  0  0  0  0  0
   -6.8200   17.1670  -33.2880 C   0  0  0  0  0  0  0  0  0  0  0  0
   -5.7210   16.5290  -33.8910 C   0  0  0  0  0  0  0  0  0  0  0  0
   -5.7360   15.1710  -34.2450 O   0  0  0  0  0  0  0  0  0  0  0  0
   -4.9780   14.1580  -33.5940 C   0  0  0  0  0  0  0  0  0  0  0  0
   -4.5680   17.2630  -34.1540 C   0  0  0  0  0  0  0  0  0  0  0  0
   -4.5090   18.6210  -33.8560 C   0  0  0  0  0  0  0  0  0  0  0  0
   -5.6090   19.2780  -33.2710 C   0  0  0  0  0  0  0  0  0  0  0  0
   -5.2826   26.5646  -29.8865 H   0  0  0  0  0  0  0  0  0  0  0  0
   -4.5410   25.4812  -31.1124 H   0  0  0  0  0  0  0  0  0  0  0  0
   -6.3163   25.7550  -31.1124 H   0  0  0  0  0  0  0  0  0  0  0  0
   -6.6851   24.2861  -29.3890 H   0  0  0  0  0  0  0  0  0  0  0  0
   -5.1165   23.5879  -30.0005 H   0  0  0  0  0  0  0  0  0  0  0  0
   -4.6960   25.6680  -28.1370 H   0  0  0  0  0  0  0  0  0  0  0  0
   -5.6980   24.4890  -27.4720 H   0  0  0  0  0  0  0  0  0  0  0  0
   -2.8987   24.3582  -28.2337 H   0  0  0  0  0  0  0  0  0  0  0  0
   -3.8115   23.5708  -26.8693 H   0  0  0  0  0  0  0  0  0  0  0  0
   -4.3371   21.7194  -28.0882 H   0  0  0  0  0  0  0  0  0  0  0  0
   -4.4051   22.6502  -29.6497 H   0  0  0  0  0  0  0  0  0  0  0  0
   -1.7003   22.4798  -28.4653 H   0  0  0  0  0  0  0  0  0  0  0  0
   -2.4100   20.8869  -28.9392 H   0  0  0  0  0  0  0  0  0  0  0  0
   -1.5480   21.4830  -30.8720 H   0  0  0  0  0  0  0  0  0  0  0  0
   -4.2096   21.8423  -30.6867 H   0  0  0  0  0  0  0  0  0  0  0  0
   -3.6273   23.2769  -31.6062 H   0  0  0  0  0  0  0  0  0  0  0  0
   -2.3523   21.7520  -33.1232 H   0  0  0  0  0  0  0  0  0  0  0  0
   -3.0384   20.3405  -32.2295 H   0  0  0  0  0  0  0  0  0  0  0  0
   -4.4360   22.0000  -34.2540 H   0  0  0  0  0  0  0  0  0  0  0  0
   -5.8072   23.2891  -32.5358 H   0  0  0  0  0  0  0  0  0  0  0  0
   -7.8466   24.4384  -31.6935 H   0  0  0  0  0  0  0  0  0  0  0  0
   -9.9115   23.1326  -31.2282 H   0  0  0  0  0  0  0  0  0  0  0  0
   -9.9303   20.6674  -31.5235 H   0  0  0  0  0  0  0  0  0  0  0  0
   -8.8145   18.4066  -30.5624 H   0  0  0  0  0  0  0  0  0  0  0  0
   -9.8735   18.7305  -31.9767 H   0  0  0  0  0  0  0  0  0  0  0  0
   -8.7878   17.2995  -31.9767 H   0  0  0  0  0  0  0  0  0  0  0  0
   -7.7364   16.5912  -33.0915 H   0  0  0  0  0  0  0  0  0  0  0  0
   -5.0669   14.2769  -32.5041 H   0  0  0  0  0  0  0  0  0  0  0  0
   -5.3596   13.1689  -33.8873 H   0  0  0  0  0  0  0  0  0  0  0  0
   -3.9214   14.2451  -33.8873 H   0  0  0  0  0  0  0  0  0  0  0  0
   -3.6953   16.7650  -34.6016 H   0  0  0  0  0  0  0  0  0  0  0  0
   -3.5931   19.1877  -34.0798 H   0  0  0  0  0  0  0  0  0  0  0  0
  1  2  1  0
  2  3  1  0
  3  4  1  0
  4  5  1  0
  5  6  1  0
  6  7  1  0
  7  8  1  0
  8  9  1  0
  9 10  1  0
 10 11  1  0
 11 12  2  0
 12 13  1  0
 13 14  2  0
 14 15  1  0
 15 16  2  0
 16 17  1  0
 17 18  2  0
 18 19  1  0
 18 20  1  0
 20 21  2  0
 21 22  1  0
 22 23  1  0
 23 24  1  0
 22 25  2  0
 25 26  1  0
 26 27  2  0
 27 11  1  0
 17 12  1  0
 27 20  1  0
  1 28  1  0
  1 29  1  0
  1 30  1  0
  2 31  1  0
  2 32  1  0
  3 33  1  0
  3 34  1  0
  4 35  1  0
  4 36  1  0
  5 37  1  0
  5 38  1  0
  6 39  1  0
  6 40  1  0
  7 41  1  0
  8 42  1  0
  8 43  1  0
  9 44  1  0
  9 45  1  0
 10 46  1  0
 13 47  1  0
 14 48  1  0
 15 49  1  0
 16 50  1  0
 19 51  1  0
 19 52  1  0
 19 53  1  0
 21 54  1  0
 24 55  1  0
 24 56  1  0
 24 57  1  0
 25 58  1  0
 26 59  1  0
M  CHG  2   3   1  18   1
M  END
>  <UniqueID>  (18) 
18

>  <SMILES>  (18) 
CC[NH2+]CCCNCCNc1c2ccccc2[n+](C)c2cc(OC)ccc12

>  <Energy>  (18) 
79.74500311825646

>  <Genealogy>  (18) 
CC[NH2+]CCCNCCNc1c2ccccc2[n+](C)c2cc(OC)ccc12 (protonated)
CC[NH2+]CCCNCCNc1c2ccccc2[n+](C)c2cc(OC)ccc12 (3D coordinates assigned)
CC[NH2+]CCCNCCNc1c2ccccc2[n+](C)c2cc(OC)ccc12 (optimized conformer: 79.74500311825646 kcal/mol)

>  <smiles>  (18) 
CCNCCCNCCNc1c2ccccc2[n+](C)c2cc(OC)ccc12

>  <score_type>  (18) 
oracle

>  <origin>  (18) 
adg

>  <m_score__min__energy>  (18) 
-8.6899999999999995

>  <m_primary>  (18) 
energy

$$$$
18:0
     RDKit          3D

 36 37  0  0  0  0  0  0  0  0999 V2000
   -4.7520   18.7060  -34.0040 C   0  0  0  0  0  0  0  0  0  0  0  0
   -3.7300   19.5740  -33.2770 C   0  0  0  0  0  0  0  0  0  0  0  0
   -4.0120   20.9960  -33.4750 N   0  0  0  0  0  0  0  0  0  0  0  0
   -4.9920   21.7200  -32.7070 C   0  0  0  0  0  0  0  0  0  0  0  0
   -6.3120   21.2530  -32.5600 C   0  0  0  0  0  0  0  0  0  0  0  0
   -7.2440   21.9880  -31.8190 C   0  0  0  0  0  0  0  0  0  0  0  0
   -9.0340   21.3470  -31.6350 Br  0  0  0  0  0  0  0  0  0  0  0  0
   -6.8670   23.1880  -31.2120 C   0  0  0  0  0  0  0  0  0  0  0  0
   -5.5510   23.6550  -31.3280 C   0  0  0  0  0  0  0  0  0  0  0  0
   -5.1650   24.9230  -30.6800 C   0  0  0  0  0  0  0  0  0  0  0  0
   -6.0690   25.6980  -30.2690 O   0  0  0  0  0  0  0  0  0  0  0  0
   -3.7940   25.2930  -30.4760 N   0  0  0  0  0  0  0  0  0  0  0  0
   -2.9510   24.8980  -29.3470 C   0  0  0  0  0  0  0  0  0  0  0  0
   -3.6110   23.8000  -28.5020 C   0  0  0  0  0  0  0  0  0  0  0  0
   -2.9590   22.4650  -28.7250 C   0  0  0  0  0  0  0  0  0  0  0  0
   -3.0880   21.3890  -27.8340 C   0  0  0  0  0  0  0  0  0  0  0  0
   -2.4360   20.2390  -28.2560 C   0  0  0  0  0  0  0  0  0  0  0  0
   -1.7120   20.5640  -29.7380 S   0  0  0  0  0  0  0  0  0  0  0  0
   -2.2140   22.1620  -29.8600 C   0  0  0  0  0  0  0  0  0  0  0  0
   -4.6250   22.9280  -32.0910 C   0  0  0  0  0  0  0  0  0  0  0  0
   -5.3744   18.1773  -33.2671 H   0  0  0  0  0  0  0  0  0  0  0  0
   -5.3907   19.3419  -34.6346 H   0  0  0  0  0  0  0  0  0  0  0  0
   -4.2279   17.9728  -34.6346 H   0  0  0  0  0  0  0  0  0  0  0  0
   -3.7659   19.3468  -32.2013 H   0  0  0  0  0  0  0  0  0  0  0  0
   -2.7321   19.3552  -33.6848 H   0  0  0  0  0  0  0  0  0  0  0  0
   -3.4770   21.5180  -34.2070 H   0  0  0  0  0  0  0  0  0  0  0  0
   -6.6123   20.3050  -33.0303 H   0  0  0  0  0  0  0  0  0  0  0  0
   -7.6061   23.7688  -30.6406 H   0  0  0  0  0  0  0  0  0  0  0  0
   -1.9917   24.5226  -29.7327 H   0  0  0  0  0  0  0  0  0  0  0  0
   -2.8008   25.7796  -28.7065 H   0  0  0  0  0  0  0  0  0  0  0  0
   -3.5238   24.0669  -27.4384 H   0  0  0  0  0  0  0  0  0  0  0  0
   -4.6665   23.7223  -28.8017 H   0  0  0  0  0  0  0  0  0  0  0  0
   -3.6518   21.4510  -26.8915 H   0  0  0  0  0  0  0  0  0  0  0  0
   -2.3993   19.2818  -27.7152 H   0  0  0  0  0  0  0  0  0  0  0  0
   -1.9927   22.8481  -30.6909 H   0  0  0  0  0  0  0  0  0  0  0  0
   -3.5995   23.3083  -32.2083 H   0  0  0  0  0  0  0  0  0  0  0  0
  1  2  1  0
  2  3  1  0
  3  4  1  0
  4  5  2  0
  5  6  1  0
  6  7  1  0
  6  8  2  0
  8  9  1  0
  9 10  1  0
 10 11  2  0
 10 12  1  0
 12 13  1  0
 13 14  1  0
 14 15  1  0
 15 16  1  0
 16 17  2  0
 17 18  1  0
 18 19  1  0
  9 20  2  0
 20  4  1  0
 19 15  2  0
  1 21  1  0
  1 22  1  0
  1 23  1  0
  2 24  1  0
  2 25  1  0
  3 26  1  0
  5 27  1  0
  8 28  1  0
 13 29  1  0
 13 30  1  0
 14 31  1  0
 14 32  1  0
 16 33  1  0
 17 34  1  0
 19 35  1  0
 20 36  1  0
M  CHG  1  12  -1
M  END
>  <UniqueID>  (19) 
19

>  <SMILES>  (19) 
CCNc1cc(Br)cc(C(=O)[N-]CCc2ccsc2)c1

>  <Energy>  (19) 
58.32546820944553

>  <Genealogy>  (19) 
CCNc1cc(Br)cc(C(=O)[N-]CCc2ccsc2)c1 (protonated)
CCNc1cc(Br)cc(C(=O)[N-]CCc2ccsc2)c1 (3D coordinates assigned)
CCNc1cc(Br)cc(C(=O)[N-]CCc2ccsc2)c1 (optimized conformer: 58.32546820944553 kcal/mol)

>  <smiles>  (19) 
CCNc1cc(Br)cc(C(=O)NCCc2ccsc2)c1

>  <score_type>  (19) 
oracle

>  <origin>  (19) 
adg

>  <m_score__min__energy>  (19) 
-8.75

>  <m_primary>  (19) 
energy

$$$$
