0:0
     RDKit          3D

 60 62  0  0  0  0  0  0  0  0999 V2000
   -6.0930   18.1030  -33.5540 C   0  0  0  0  0  0  0  0  0  0  0  0
   -5.9560   19.4820  -33.0340 N   0  0  0  0  0  0  0  0  0  0  0  0
   -7.0620   20.1470  -32.5430 C   0  0  0  0  0  0  0  0  0  0  0  0
   -8.3800   19.6900  -32.7950 C   0  0  0  0  0  0  0  0  0  0  0  0
   -9.4870   20.3390  -32.2470 C   0  0  0  0  0  0  0  0  0  0  0  0
   -9.3120   21.4610  -31.4460 C   0  0  0  0  0  0  0  0  0  0  0  0
   -8.0330   21.9590  -31.2100 C   0  0  0  0  0  0  0  0  0  0  0  0
   -6.8990   21.3290  -31.7700 C   0  0  0  0  0  0  0  0  0  0  0  0
   -5.6070   21.8530  -31.5710 C   0  0  0  0  0  0  0  0  0  0  0  0
   -5.4080   23.0020  -30.7260 N   0  0  0  0  0  0  0  0  0  0  0  0
   -6.2170   24.2100  -30.8840 C   0  0  0  0  0  0  0  0  0  0  0  0
   -5.4130   25.4660  -30.5320 C   0  0  0  0  0  0  0  0  0  0  0  0
   -3.9770   25.1840  -30.5700 N   0  0  0  0  0  0  0  0  0  0  0  0
   -3.5830   24.8920  -29.3020 O   0  0  0  0  0  0  0  0  0  0  0  0
   -2.4800   24.0280  -29.4180 C   0  0  0  0  0  0  0  0  0  0  0  0
   -1.5080   24.2860  -28.2750 C   0  0  0  0  0  0  0  0  0  0  0  0
   -2.2310   24.6000  -27.1030 O   0  0  0  0  0  0  0  0  0  0  0  0
   -1.4530   25.4360  -26.2710 C   0  0  0  0  0  0  0  0  0  0  0  0
   -0.8750   24.6300  -25.0950 C   0  0  0  0  0  0  0  0  0  0  0  0
   -0.0780   25.4680  -24.1570 N   0  0  0  0  0  0  0  0  0  0  0  0
   -0.8280   26.6640  -23.7270 C   0  0  0  0  0  0  0  0  0  0  0  0
    1.1840   25.8880  -24.7900 C   0  0  0  0  0  0  0  0  0  0  0  0
   -4.5200   21.2790  -32.2550 C   0  0  0  0  0  0  0  0  0  0  0  0
   -3.2460   21.8840  -32.2250 C   0  0  0  0  0  0  0  0  0  0  0  0
   -2.1810   21.3420  -32.9420 C   0  0  0  0  0  0  0  0  0  0  0  0
   -2.3720   20.2020  -33.7140 C   0  0  0  0  0  0  0  0  0  0  0  0
   -3.6210   19.5870  -33.7610 C   0  0  0  0  0  0  0  0  0  0  0  0
   -4.7170   20.0950  -33.0160 C   0  0  0  0  0  0  0  0  0  0  0  0
   -6.1630   17.3988  -32.7118 H   0  0  0  0  0  0  0  0  0  0  0  0
   -7.0027   18.0315  -34.1683 H   0  0  0  0  0  0  0  0  0  0  0  0
   -5.2152   17.8539  -34.1683 H   0  0  0  0  0  0  0  0  0  0  0  0
   -8.5328   18.8078  -33.4341 H   0  0  0  0  0  0  0  0  0  0  0  0
  -10.5003   19.9617  -32.4494 H   0  0  0  0  0  0  0  0  0  0  0  0
  -10.1855   21.9568  -30.9974 H   0  0  0  0  0  0  0  0  0  0  0  0
   -7.9043   22.8522  -30.5810 H   0  0  0  0  0  0  0  0  0  0  0  0
   -4.5580   23.0400  -30.1180 H   0  0  0  0  0  0  0  0  0  0  0  0
   -6.5549   24.2814  -31.9284 H   0  0  0  0  0  0  0  0  0  0  0  0
   -7.0771   24.1446  -30.2014 H   0  0  0  0  0  0  0  0  0  0  0  0
   -5.6452   26.2594  -31.2576 H   0  0  0  0  0  0  0  0  0  0  0  0
   -5.6850   25.7890  -29.5163 H   0  0  0  0  0  0  0  0  0  0  0  0
   -3.4850   26.0660  -30.8420 H   0  0  0  0  0  0  0  0  0  0  0  0
   -2.8260   22.9847  -29.3761 H   0  0  0  0  0  0  0  0  0  0  0  0
   -1.9729   24.2090  -30.3772 H   0  0  0  0  0  0  0  0  0  0  0  0
   -0.9001   23.3860  -28.1006 H   0  0  0  0  0  0  0  0  0  0  0  0
   -0.8503   25.1281  -28.5364 H   0  0  0  0  0  0  0  0  0  0  0  0
   -0.6272   25.8648  -26.8577 H   0  0  0  0  0  0  0  0  0  0  0  0
   -2.0907   26.2399  -25.8747 H   0  0  0  0  0  0  0  0  0  0  0  0
   -1.7073   24.1744  -24.5385 H   0  0  0  0  0  0  0  0  0  0  0  0
   -0.1999   23.8697  -25.5149 H   0  0  0  0  0  0  0  0  0  0  0  0
    0.1690   24.9130  -23.3010 H   0  0  0  0  0  0  0  0  0  0  0  0
   -0.8538   26.7051  -22.6281 H   0  0  0  0  0  0  0  0  0  0  0  0
   -0.3337   27.5663  -24.1162 H   0  0  0  0  0  0  0  0  0  0  0  0
   -1.8555   26.6120  -24.1162 H   0  0  0  0  0  0  0  0  0  0  0  0
    1.9210   26.1333  -24.0111 H   0  0  0  0  0  0  0  0  0  0  0  0
    1.5703   25.0700  -25.4158 H   0  0  0  0  0  0  0  0  0  0  0  0
    1.0031   26.7744  -25.4158 H   0  0  0  0  0  0  0  0  0  0  0  0
   -3.0913   22.7950  -31.6282 H   0  0  0  0  0  0  0  0  0  0  0  0
   -1.1895   21.8162  -32.8970 H   0  0  0  0  0  0  0  0  0  0  0  0
   -1.5335   19.7838  -34.2902 H   0  0  0  0  0  0  0  0  0  0  0  0
   -3.7602   18.6926  -34.3860 H   0  0  0  0  0  0  0  0  0  0  0  0
  1  2  1  0
  2  3  2  0
  3  4  1  0
  4  5  2  0
  5  6  1  0
  6  7  2  0
  7  8  1  0
  8  9  2  0
  9 10  1  0
 10 11  1  0
 11 12  1  0
 12 13  1  0
 13 14  1  0
 14 15  1  0
 15 16  1  0
 16 17  1  0
 17 18  1  0
 18 19  1  0
 19 20  1  0
 20 21  1  0
 20 22  1  0
  9 23  1  0
 23 24  2  0
 24 25  1  0
 25 26  2  0
 26 27  1  0
 27 28  2  0
 28  2  1  0
  8  3  1  0
 28 23  1  0
  1 29  1  0
  1 30  1  0
  1 31  1  0
  4 32  1  0
  5 33  1  0
  6 34  1  0
  7 35  1  0
 10 36  1  0
 11 37  1  0
 11 38  1  0
 12 39  1  0
 12 40  1  0
 13 41  1  0
 15 42  1  0
 15 43  1  0
 16 44  1  0
 16 45  1  0
 18 46  1  0
 18 47  1  0
 19 48  1  0
 19 49  1  0
 20 50  1  0
 21 51  1  0
 21 52  1  0
 21 53  1  0
 22 54  1  0
 22 55  1  0
 22 56  1  0
 24 57  1  0
 25 58  1  0
 26 59  1  0
 27 60  1  0
M  CHG  2   2   1  20   1
M  END
>  <UniqueID>  (1) 
1

>  <SMILES>  (1) 
C[n+]1c2ccccc2c(NCCNOCCOCC[NH+](C)C)c2ccccc21

>  <Energy>  (1) 
82.53305377001321

>  <Genealogy>  (1) 
C[n+]1c2ccccc2c(NCCNOCCOCC[NH+](C)C)c2ccccc21 (protonated)
C[n+]1c2ccccc2c(NCCNOCCOCC[NH+](C)C)c2ccccc21 (3D coordinates assigned)
C[n+]1c2ccccc2c(NCCNOCCOCC[NH+](C)C)c2ccccc21 (optimized conformer: 82.53305377001321 kcal/mol)

>  <smiles>  (1) 
CN(C)CCOCCONCCNc1c2ccccc2[n+](C)c2ccccc12

>  <score_type>  (1) 
oracle

>  <origin>  (1) 
adg

>  <m_score__min__energy>  (1) 
-9.1099999999999994

>  <m_primary>  (1) 
energy

$$$$
1:0
     RDKit          3D

 46 48  0  0  0  0  0  0  0  0999 V2000
   -2.2860   23.7720  -29.3410 C   0  0  0  0  0  0  0  0  0  0  0  0
   -3.6020   24.5370  -29.2750 C   0  0  0  0  0  0  0  0  0  0  0  0
   -3.8770   25.1460  -30.5220 O   0  0  0  0  0  0  0  0  0  0  0  0
   -5.2690   25.2970  -30.7090 C   0  0  0  0  0  0  0  0  0  0  0  0
   -5.7980   24.1540  -31.5740 C   0  0  0  0  0  0  0  0  0  0  0  0
   -5.0330   22.9250  -31.3560 N   0  0  0  0  0  0  0  0  0  0  0  0
   -5.4590   21.6570  -31.8820 C   0  0  0  0  0  0  0  0  0  0  0  0
   -6.7850   21.2320  -31.7030 C   0  0  0  0  0  0  0  0  0  0  0  0
   -7.1610   19.9400  -32.1150 C   0  0  0  0  0  0  0  0  0  0  0  0
   -6.2190   19.0620  -32.6100 N   0  0  0  0  0  0  0  0  0  0  0  0
   -6.5520   17.6300  -32.7550 C   0  0  0  0  0  0  0  0  0  0  0  0
   -4.9660   19.5270  -32.9640 C   0  0  0  0  0  0  0  0  0  0  0  0
   -4.0600   18.7350  -33.7130 C   0  0  0  0  0  0  0  0  0  0  0  0
   -2.7950   19.2150  -34.0510 C   0  0  0  0  0  0  0  0  0  0  0  0
   -2.4060   20.4950  -33.6700 C   0  0  0  0  0  0  0  0  0  0  0  0
   -0.6780   21.1510  -34.1560 Br  0  0  0  0  0  0  0  0  0  0  0  0
   -3.2840   21.3070  -32.9560 C   0  0  0  0  0  0  0  0  0  0  0  0
   -4.5640   20.8380  -32.5920 C   0  0  0  0  0  0  0  0  0  0  0  0
   -8.6240   19.5610  -31.9640 C   0  0  0  0  0  0  0  0  0  0  0  0
   -9.5160   20.7460  -32.3480 C   0  0  0  0  0  0  0  0  0  0  0  0
   -9.2090   22.0170  -31.5350 C   0  0  0  0  0  0  0  0  0  0  0  0
   -7.7910   22.0710  -30.9360 C   0  0  0  0  0  0  0  0  0  0  0  0
   -1.9305   23.5653  -28.3208 H   0  0  0  0  0  0  0  0  0  0  0  0
   -2.4401   22.8227  -29.8749 H   0  0  0  0  0  0  0  0  0  0  0  0
   -1.5373   24.3757  -29.8749 H   0  0  0  0  0  0  0  0  0  0  0  0
   -4.4151   23.8400  -29.0240 H   0  0  0  0  0  0  0  0  0  0  0  0
   -3.5247   25.3177  -28.5039 H   0  0  0  0  0  0  0  0  0  0  0  0
   -5.7735   25.2799  -29.7316 H   0  0  0  0  0  0  0  0  0  0  0  0
   -5.4679   26.2559  -31.2099 H   0  0  0  0  0  0  0  0  0  0  0  0
   -6.8522   23.9700  -31.3194 H   0  0  0  0  0  0  0  0  0  0  0  0
   -5.6980   24.4428  -32.6307 H   0  0  0  0  0  0  0  0  0  0  0  0
   -4.1300   22.9750  -30.8340 H   0  0  0  0  0  0  0  0  0  0  0  0
   -6.6577   17.1754  -31.7589 H   0  0  0  0  0  0  0  0  0  0  0  0
   -7.4979   17.5276  -33.3070 H   0  0  0  0  0  0  0  0  0  0  0  0
   -5.7483   17.1207  -33.3070 H   0  0  0  0  0  0  0  0  0  0  0  0
   -4.3594   17.7259  -34.0327 H   0  0  0  0  0  0  0  0  0  0  0  0
   -2.1021   18.5788  -34.6212 H   0  0  0  0  0  0  0  0  0  0  0  0
   -2.9763   22.3245  -32.6730 H   0  0  0  0  0  0  0  0  0  0  0  0
   -8.8488   18.7081  -32.6213 H   0  0  0  0  0  0  0  0  0  0  0  0
   -8.8193   19.2873  -30.9166 H   0  0  0  0  0  0  0  0  0  0  0  0
   -9.3653   20.9672  -33.4149 H   0  0  0  0  0  0  0  0  0  0  0  0
  -10.5557   20.4595  -32.1315 H   0  0  0  0  0  0  0  0  0  0  0  0
   -9.3344   22.8861  -32.1975 H   0  0  0  0  0  0  0  0  0  0  0  0
   -9.9060   22.0174  -30.6840 H   0  0  0  0  0  0  0  0  0  0  0  0
   -7.4494   23.1166  -30.9401 H   0  0  0  0  0  0  0  0  0  0  0  0
   -7.8507   21.6595  -29.9176 H   0  0  0  0  0  0  0  0  0  0  0  0
  1  2  1  0
  2  3  1  0
  3  4  1  0
  4  5  1  0
  5  6  1  0
  6  7  1  0
  7  8  2  0
  8  9  1  0
  9 10  2  0
 10 11  1  0
 10 12  1  0
 12 13  2  0
 13 14  1  0
 14 15  2  0
 15 16  1  0
 15 17  1  0
 17 18  2  0
  9 19  1  0
 19 20  1  0
 20 21  1  0
 21 22  1  0
 18  7  1  0
 22  8  1  0
 18 12  1  0
  1 23  1  0
  1 24  1  0
  1 25  1  0
  2 26  1  0
  2 27  1  0
  4 28  1  0
  4 29  1  0
  5 30  1  0
  5 31  1  0
  6 32  1  0
 11 33  1  0
 11 34  1  0
 11 35  1  0
 13 36  1  0
 14 37  1  0
 17 38  1  0
 19 39  1  0
 19 40  1  0
 20 41  1  0
 20 42  1  0
 21 43  1  0
 21 44  1  0
 22 45  1  0
 22 46  1  0
M  CHG  1  10   1
M  END
>  <UniqueID>  (2) 
2

>  <SMILES>  (2) 
CCOCCNc1c2c([n+](C)c3ccc(Br)cc13)CCCC2

>  <Energy>  (2) 
67.78801282066591

>  <Genealogy>  (2) 
CCOCCNc1c2c([n+](C)c3ccc(Br)cc13)CCCC2 (3D coordinates assigned)
CCOCCNc1c2c([n+](C)c3ccc(Br)cc13)CCCC2 (nonaromatic ring conformer: 67.78801282066591 kcal/mol)

>  <smiles>  (2) 
CCOCCNc1c2c([n+](C)c3ccc(Br)cc13)CCCC2

>  <score_type>  (2) 
oracle

>  <origin>  (2) 
adg

>  <m_score__min__energy>  (2) 
-8.5600000000000005

>  <m_primary>  (2) 
energy

$$$$
2:0
     RDKit          3D

 51 53  0  0  0  0  0  0  0  0999 V2000
    0.4310   21.1430  -34.4590 C   0  0  0  0  0  0  0  0  0  0  0  0
   -0.4370   19.9420  -34.7190 C   0  0  0  0  0  0  0  0  0  0  0  0
   -1.7820   20.0460  -34.2360 N   0  0  0  0  0  0  0  0  0  0  0  0
   -3.0040   20.1390  -33.7960 C   0  0  0  0  0  0  0  0  0  0  0  0
   -3.7190   21.1780  -33.1920 C   0  0  0  0  0  0  0  0  0  0  0  0
   -5.0220   21.0850  -32.7920 C   0  0  0  0  0  0  0  0  0  0  0  0
   -5.6110   22.1990  -32.2210 C   0  0  0  0  0  0  0  0  0  0  0  0
   -5.0310   23.2840  -32.0350 O   0  0  0  0  0  0  0  0  0  0  0  0
   -6.8960   22.0920  -31.8480 N   0  0  0  0  0  0  0  0  0  0  0  0
   -7.5790   23.2250  -31.2670 C   0  0  0  0  0  0  0  0  0  0  0  0
   -7.2420   23.5320  -29.8520 C   0  0  0  0  0  0  0  0  0  0  0  0
   -6.0130   24.3010  -29.8180 N   0  0  0  0  0  0  0  0  0  0  0  0
   -6.2160   25.6750  -29.4110 C   0  0  0  0  0  0  0  0  0  0  0  0
   -4.9970   23.7300  -28.9670 C   0  0  0  0  0  0  0  0  0  0  0  0
   -7.5390   20.9300  -32.0370 C   0  0  0  0  0  0  0  0  0  0  0  0
   -8.7450   20.8890  -31.6620 O   0  0  0  0  0  0  0  0  0  0  0  0
   -6.9660   19.8460  -32.5930 N   0  0  0  0  0  0  0  0  0  0  0  0
   -5.6890   19.9270  -32.9750 C   0  0  0  0  0  0  0  0  0  0  0  0
   -5.0890   18.8450  -33.5560 C   0  0  0  0  0  0  0  0  0  0  0  0
   -3.8000   18.9440  -33.9520 C   0  0  0  0  0  0  0  0  0  0  0  0
   -3.1760   17.7560  -34.6030 C   0  0  0  0  0  0  0  0  0  0  0  0
   -5.8350   17.5620  -33.7640 C   0  0  0  0  0  0  0  0  0  0  0  0
   -6.8820   17.4640  -32.6620 C   0  0  0  0  0  0  0  0  0  0  0  0
   -7.8000   18.6710  -32.7230 C   0  0  0  0  0  0  0  0  0  0  0  0
    0.5376   21.2904  -33.3741 H   0  0  0  0  0  0  0  0  0  0  0  0
    1.4230   20.9822  -34.9064 H   0  0  0  0  0  0  0  0  0  0  0  0
   -0.0329   22.0344  -34.9064 H   0  0  0  0  0  0  0  0  0  0  0  0
   -0.4773   19.7801  -35.8063 H   0  0  0  0  0  0  0  0  0  0  0  0
    0.0220   19.1082  -34.1676 H   0  0  0  0  0  0  0  0  0  0  0  0
   -1.8760   21.1570  -34.9760 H   0  0  0  0  0  0  0  0  0  0  0  0
   -3.1981   22.1329  -33.0282 H   0  0  0  0  0  0  0  0  0  0  0  0
   -7.3352   24.1113  -31.8712 H   0  0  0  0  0  0  0  0  0  0  0  0
   -8.6467   22.9606  -31.2675 H   0  0  0  0  0  0  0  0  0  0  0  0
   -8.0556   24.1159  -29.3970 H   0  0  0  0  0  0  0  0  0  0  0  0
   -7.1119   22.5963  -29.2885 H   0  0  0  0  0  0  0  0  0  0  0  0
   -5.6710   24.3110  -30.8250 H   0  0  0  0  0  0  0  0  0  0  0  0
   -6.2248   25.7346  -28.3126 H   0  0  0  0  0  0  0  0  0  0  0  0
   -5.4002   26.2986  -29.8055 H   0  0  0  0  0  0  0  0  0  0  0  0
   -7.1772   26.0361  -29.8055 H   0  0  0  0  0  0  0  0  0  0  0  0
   -5.2720   23.8846  -27.9132 H   0  0  0  0  0  0  0  0  0  0  0  0
   -4.9123   22.6521  -29.1696 H   0  0  0  0  0  0  0  0  0  0  0  0
   -4.0322   24.2181  -29.1696 H   0  0  0  0  0  0  0  0  0  0  0  0
   -2.8121   17.0632  -33.8300 H   0  0  0  0  0  0  0  0  0  0  0  0
   -3.9230   17.2467  -35.2296 H   0  0  0  0  0  0  0  0  0  0  0  0
   -2.3327   18.0820  -35.2296 H   0  0  0  0  0  0  0  0  0  0  0  0
   -6.3244   17.5664  -34.7491 H   0  0  0  0  0  0  0  0  0  0  0  0
   -5.1496   16.7024  -33.7280 H   0  0  0  0  0  0  0  0  0  0  0  0
   -7.4735   16.5469  -32.7996 H   0  0  0  0  0  0  0  0  0  0  0  0
   -6.3806   17.4355  -31.6833 H   0  0  0  0  0  0  0  0  0  0  0  0
   -8.3334   18.6913  -33.6848 H   0  0  0  0  0  0  0  0  0  0  0  0
   -8.5511   18.6329  -31.9203 H   0  0  0  0  0  0  0  0  0  0  0  0
  1  2  1  0
  2  3  1  0
  3  4  1  0
  4  5  2  0
  5  6  1  0
  6  7  1  0
  7  8  2  0
  7  9  1  0
  9 10  1  0
 10 11  1  0
 11 12  1  0
 12 13  1  0
 12 14  1  0
  9 15  1  0
 15 16  2  0
 15 17  1  0
 17 18  1  0
 18 19  1  0
 19 20  2  0
 20 21  1  0
 19 22  1  0
 22 23  1  0
 23 24  1  0
 20  4  1  0
 18  6  2  0
 24 17  1  0
  1 25  1  0
  1 26  1  0
  1 27  1  0
  2 28  1  0
  2 29  1  0
  3 30  1  0
  5 31  1  0
 10 32  1  0
 10 33  1  0
 11 34  1  0
 11 35  1  0
 12 36  1  0
 13 37  1  0
 13 38  1  0
 13 39  1  0
 14 40  1  0
 14 41  1  0
 14 42  1  0
 21 43  1  0
 21 44  1  0
 21 45  1  0
 22 46  1  0
 22 47  1  0
 23 48  1  0
 23 49  1  0
 24 50  1  0
 24 51  1  0
M  CHG  1  12   1
M  END
>  <UniqueID>  (3) 
3

>  <SMILES>  (3) 
CCNc1cc2c(=O)n(CC[NH+](C)C)c(=O)n3c2c(c1C)CCC3

>  <Energy>  (3) 
261.5533885942177

>  <Genealogy>  (3) 
CCNc1cc2c(=O)n(CC[NH+](C)C)c(=O)n3c2c(c1C)CCC3 (protonated)
CCNc1cc2c(=O)n(CC[NH+](C)C)c(=O)n3c2c(c1C)CCC3 (3D coordinates assigned)
CCNc1cc2c(=O)n(CC[NH+](C)C)c(=O)n3c2c(c1C)CCC3 (nonaromatic ring conformer: 261.5533885942177 kcal/mol)

>  <smiles>  (3) 
CCNc1cc2c(=O)n(CCN(C)C)c(=O)n3c2c(c1C)CCC3

>  <score_type>  (3) 
oracle

>  <origin>  (3) 
adg

>  <m_score__min__energy>  (3) 
-6.79

>  <m_primary>  (3) 
energy

$$$$
3:0
     RDKit          3D

 57 59  0  0  0  0  0  0  0  0999 V2000
   -2.7930   20.4250  -31.0380 C   0  0  0  0  0  0  0  0  0  0  0  0
   -2.0320   20.0570  -32.3210 C   0  0  0  0  0  0  0  0  0  0  0  0
   -2.3550   21.0750  -33.4320 C   0  0  0  0  0  0  0  0  0  0  0  0
   -2.3710   18.6110  -32.7430 C   0  0  0  0  0  0  0  0  0  0  0  0
   -2.6060   18.4720  -34.2570 C   0  0  0  0  0  0  0  0  0  0  0  0
   -3.3750   17.2500  -34.5510 N   0  0  0  0  0  0  0  0  0  0  0  0
   -4.7040   17.5440  -35.1230 C   0  0  0  0  0  0  0  0  0  0  0  0
   -5.6980   17.9750  -34.0690 C   0  0  0  0  0  0  0  0  0  0  0  0
   -6.6880   17.0870  -33.6170 C   0  0  0  0  0  0  0  0  0  0  0  0
   -7.6090   17.4930  -32.6490 C   0  0  0  0  0  0  0  0  0  0  0  0
   -7.5450   18.7830  -32.1180 C   0  0  0  0  0  0  0  0  0  0  0  0
   -6.5550   19.6850  -32.5490 C   0  0  0  0  0  0  0  0  0  0  0  0
   -6.4570   21.0390  -31.9470 C   0  0  0  0  0  0  0  0  0  0  0  0
   -7.4150   21.4850  -31.0180 C   0  0  0  0  0  0  0  0  0  0  0  0
   -7.2840   22.7380  -30.4130 C   0  0  0  0  0  0  0  0  0  0  0  0
   -6.1950   23.5630  -30.7250 C   0  0  0  0  0  0  0  0  0  0  0  0
   -5.9590   25.0990  -29.8950 S   0  0  0  0  0  0  0  0  0  0  0  0
   -5.3130   26.0680  -30.8390 O   0  0  0  0  0  0  0  0  0  0  0  0
   -7.2650   25.6640  -29.4310 O   0  0  0  0  0  0  0  0  0  0  0  0
   -4.9260   24.8630  -28.5240 N   0  0  0  0  0  0  0  0  0  0  0  0
   -3.8500   23.9010  -28.4940 C   0  0  0  0  0  0  0  0  0  0  0  0
   -2.6290   24.2100  -29.1290 C   0  0  0  0  0  0  0  0  0  0  0  0
   -1.5690   23.2930  -29.1220 C   0  0  0  0  0  0  0  0  0  0  0  0
   -1.7100   22.0630  -28.4710 C   0  0  0  0  0  0  0  0  0  0  0  0
   -2.9140   21.7470  -27.8330 C   0  0  0  0  0  0  0  0  0  0  0  0
   -3.9790   22.6590  -27.8390 C   0  0  0  0  0  0  0  0  0  0  0  0
   -5.2530   23.1360  -31.6660 C   0  0  0  0  0  0  0  0  0  0  0  0
   -5.3810   21.8850  -32.2740 C   0  0  0  0  0  0  0  0  0  0  0  0
   -5.6370   19.2720  -33.5340 C   0  0  0  0  0  0  0  0  0  0  0  0
   -2.1950   20.1358  -30.1612 H   0  0  0  0  0  0  0  0  0  0  0  0
   -2.9734   21.5099  -31.0171 H   0  0  0  0  0  0  0  0  0  0  0  0
   -3.7554   19.8928  -31.0171 H   0  0  0  0  0  0  0  0  0  0  0  0
   -0.9488   20.0997  -32.1345 H   0  0  0  0  0  0  0  0  0  0  0  0
   -2.6580   22.0299  -32.9776 H   0  0  0  0  0  0  0  0  0  0  0  0
   -1.4627   21.2325  -34.0557 H   0  0  0  0  0  0  0  0  0  0  0  0
   -3.1749   20.6893  -34.0557 H   0  0  0  0  0  0  0  0  0  0  0  0
   -1.5356   17.9558  -32.4553 H   0  0  0  0  0  0  0  0  0  0  0  0
   -3.3048   18.3279  -32.2353 H   0  0  0  0  0  0  0  0  0  0  0  0
   -3.1658   19.3474  -34.6181 H   0  0  0  0  0  0  0  0  0  0  0  0
   -1.6316   18.4090  -34.7634 H   0  0  0  0  0  0  0  0  0  0  0  0
   -3.4950   16.7010  -33.6650 H   0  0  0  0  0  0  0  0  0  0  0  0
   -4.6002   18.3513  -35.8629 H   0  0  0  0  0  0  0  0  0  0  0  0
   -5.0831   16.6213  -35.5867 H   0  0  0  0  0  0  0  0  0  0  0  0
   -6.7380   16.0676  -34.0272 H   0  0  0  0  0  0  0  0  0  0  0  0
   -8.3864   16.7953  -32.3041 H   0  0  0  0  0  0  0  0  0  0  0  0
   -8.2745   19.0964  -31.3567 H   0  0  0  0  0  0  0  0  0  0  0  0
   -8.2724   20.8435  -30.7663 H   0  0  0  0  0  0  0  0  0  0  0  0
   -8.0389   23.0781  -29.6888 H   0  0  0  0  0  0  0  0  0  0  0  0
   -5.0340   25.5290  -27.7250 H   0  0  0  0  0  0  0  0  0  0  0  0
   -2.5076   25.1795  -29.6343 H   0  0  0  0  0  0  0  0  0  0  0  0
   -0.6249   23.5409  -29.6292 H   0  0  0  0  0  0  0  0  0  0  0  0
   -0.8760   21.3459  -28.4608 H   0  0  0  0  0  0  0  0  0  0  0  0
   -3.0259   20.7783  -27.3241 H   0  0  0  0  0  0  0  0  0  0  0  0
   -4.9203   22.4042  -27.3300 H   0  0  0  0  0  0  0  0  0  0  0  0
   -4.4072   23.7883  -31.9287 H   0  0  0  0  0  0  0  0  0  0  0  0
   -4.6353   21.5587  -33.0139 H   0  0  0  0  0  0  0  0  0  0  0  0
   -4.8653   19.9717  -33.8874 H   0  0  0  0  0  0  0  0  0  0  0  0
  1  2  1  0
  2  3  1  0
  2  4  1  0
  4  5  1  0
  5  6  1  0
  6  7  1  0
  7  8  1  0
  8  9  2  0
  9 10  1  0
 10 11  2  0
 11 12  1  0
 12 13  1  0
 13 14  2  0
 14 15  1  0
 15 16  2  0
 16 17  1  0
 17 18  2  0
 17 19  2  0
 17 20  1  0
 20 21  1  0
 21 22  2  0
 22 23  1  0
 23 24  2  0
 24 25  1  0
 25 26  2  0
 16 27  1  0
 27 28  2  0
 12 29  2  0
 29  8  1  0
 28 13  1  0
 26 21  1  0
  1 30  1  0
  1 31  1  0
  1 32  1  0
  2 33  1  0
  3 34  1  0
  3 35  1  0
  3 36  1  0
  4 37  1  0
  4 38  1  0
  5 39  1  0
  5 40  1  0
  6 41  1  0
  7 42  1  0
  7 43  1  0
  9 44  1  0
 10 45  1  0
 11 46  1  0
 14 47  1  0
 15 48  1  0
 20 49  1  0
 22 50  1  0
 23 51  1  0
 24 52  1  0
 25 53  1  0
 26 54  1  0
 27 55  1  0
 28 56  1  0
 29 57  1  0
M  END
>  <UniqueID>  (4) 
4

>  <SMILES>  (4) 
CC(C)CCNCc1cccc(-c2ccc(S(=O)(=O)Nc3ccccc3)cc2)c1

>  <Energy>  (4) 
61.802369138520234

>  <Genealogy>  (4) 
CC(C)CCNCc1cccc(-c2ccc(S(=O)(=O)Nc3ccccc3)cc2)c1 (3D coordinates assigned)
CC(C)CCNCc1cccc(-c2ccc(S(=O)(=O)Nc3ccccc3)cc2)c1 (optimized conformer: 61.802369138520234 kcal/mol)

>  <smiles>  (4) 
CC(C)CCNCc1cccc(-c2ccc(S(=O)(=O)Nc3ccccc3)cc2)c1

>  <score_type>  (4) 
oracle

>  <origin>  (4) 
adg

>  <m_score__min__energy>  (4) 
-9.6300000000000008

>  <m_primary>  (4) 
energy

$$$$
4:0
     RDKit          3D

 65 67  0  0  0  0  0  0  0  0999 V2000
   -2.8030   19.3160  -26.9650 C   0  0  0  0  0  0  0  0  0  0  0  0
   -2.0970   20.5690  -27.4840 C   0  0  0  0  0  0  0  0  0  0  0  0
   -2.9330   21.3340  -28.5240 C   0  0  0  0  0  0  0  0  0  0  0  0
   -2.8940   20.6740  -29.9150 C   0  0  0  0  0  0  0  0  0  0  0  0
   -2.3810   21.6110  -30.9370 N   0  0  0  0  0  0  0  0  0  0  0  0
   -1.0480   21.1960  -31.4410 C   0  0  0  0  0  0  0  0  0  0  0  0
   -0.8440   21.5370  -32.9270 C   0  0  0  0  0  0  0  0  0  0  0  0
   -1.8580   20.8710  -33.7910 N   0  0  0  0  0  0  0  0  0  0  0  0
   -1.3920   19.5210  -34.2000 C   0  0  0  0  0  0  0  0  0  0  0  0
   -1.5920   18.4440  -33.1000 C   0  0  0  0  0  0  0  0  0  0  0  0
   -2.5800   17.3240  -33.4840 C   0  0  0  0  0  0  0  0  0  0  0  0
   -3.9880   17.6930  -33.2280 N   0  0  0  0  0  0  0  0  0  0  0  0
   -4.7630   16.5720  -32.6590 C   0  0  0  0  0  0  0  0  0  0  0  0
   -6.1870   17.0390  -32.2800 C   0  0  0  0  0  0  0  0  0  0  0  0
   -6.4890   18.3550  -32.8800 N   0  0  0  0  0  0  0  0  0  0  0  0
   -7.8540   18.8440  -32.5920 C   0  0  0  0  0  0  0  0  0  0  0  0
   -7.9310   20.3260  -32.2890 C   0  0  0  0  0  0  0  0  0  0  0  0
   -6.7750   21.1240  -32.3720 C   0  0  0  0  0  0  0  0  0  0  0  0
   -6.8380   22.4950  -32.1000 C   0  0  0  0  0  0  0  0  0  0  0  0
   -8.0550   23.0830  -31.7440 C   0  0  0  0  0  0  0  0  0  0  0  0
   -9.2100   22.3000  -31.6580 C   0  0  0  0  0  0  0  0  0  0  0  0
   -9.1520   20.9280  -31.9330 C   0  0  0  0  0  0  0  0  0  0  0  0
   -6.1430   18.3670  -34.3100 C   0  0  0  0  0  0  0  0  0  0  0  0
   -4.6210   18.1780  -34.4740 C   0  0  0  0  0  0  0  0  0  0  0  0
   -3.2030   20.8020  -33.1550 C   0  0  0  0  0  0  0  0  0  0  0  0
   -3.3690   21.8290  -32.0200 C   0  0  0  0  0  0  0  0  0  0  0  0
   -2.7995   19.3222  -25.8650 H   0  0  0  0  0  0  0  0  0  0  0  0
   -3.8412   19.3031  -27.3283 H   0  0  0  0  0  0  0  0  0  0  0  0
   -2.2762   18.4213  -27.3283 H   0  0  0  0  0  0  0  0  0  0  0  0
   -1.8959   21.2373  -26.6337 H   0  0  0  0  0  0  0  0  0  0  0  0
   -1.1679   20.2466  -27.9768 H   0  0  0  0  0  0  0  0  0  0  0  0
   -3.9772   21.3696  -28.1798 H   0  0  0  0  0  0  0  0  0  0  0  0
   -2.5038   22.3422  -28.6209 H   0  0  0  0  0  0  0  0  0  0  0  0
   -2.2380   19.7919  -29.8754 H   0  0  0  0  0  0  0  0  0  0  0  0
   -3.9182   20.3834  -30.1916 H   0  0  0  0  0  0  0  0  0  0  0  0
   -0.2735   21.7094  -30.8523 H   0  0  0  0  0  0  0  0  0  0  0  0
   -0.9787   20.1030  -31.3378 H   0  0  0  0  0  0  0  0  0  0  0  0
   -0.9256   22.6263  -33.0569 H   0  0  0  0  0  0  0  0  0  0  0  0
    0.1510   21.1767  -33.2272 H   0  0  0  0  0  0  0  0  0  0  0  0
   -1.9340   21.4540  -34.6580 H   0  0  0  0  0  0  0  0  0  0  0  0
   -1.9528   19.2143  -35.0952 H   0  0  0  0  0  0  0  0  0  0  0  0
   -0.3115   19.5935  -34.3929 H   0  0  0  0  0  0  0  0  0  0  0  0
   -0.6159   17.9844  -32.8857 H   0  0  0  0  0  0  0  0  0  0  0  0
   -2.0213   18.9589  -32.2279 H   0  0  0  0  0  0  0  0  0  0  0  0
   -2.4631   17.1037  -34.5554 H   0  0  0  0  0  0  0  0  0  0  0  0
   -2.3476   16.4478  -32.8608 H   0  0  0  0  0  0  0  0  0  0  0  0
   -4.8323   15.7648  -33.4030 H   0  0  0  0  0  0  0  0  0  0  0  0
   -4.2538   16.2092  -31.7540 H   0  0  0  0  0  0  0  0  0  0  0  0
   -6.9167   16.3012  -32.6448 H   0  0  0  0  0  0  0  0  0  0  0  0
   -6.2465   17.1305  -31.1854 H   0  0  0  0  0  0  0  0  0  0  0  0
   -8.4865   18.6376  -33.4680 H   0  0  0  0  0  0  0  0  0  0  0  0
   -8.1941   18.3182  -31.6877 H   0  0  0  0  0  0  0  0  0  0  0  0
   -5.8148   20.6666  -32.6528 H   0  0  0  0  0  0  0  0  0  0  0  0
   -5.9289   23.1107  -32.1664 H   0  0  0  0  0  0  0  0  0  0  0  0
   -8.1040   24.1612  -31.5316 H   0  0  0  0  0  0  0  0  0  0  0  0
  -10.1666   22.7626  -31.3737 H   0  0  0  0  0  0  0  0  0  0  0  0
  -10.0653   20.3181  -31.8704 H   0  0  0  0  0  0  0  0  0  0  0  0
   -6.6710   17.5488  -34.8216 H   0  0  0  0  0  0  0  0  0  0  0  0
   -6.4419   19.3295  -34.7508 H   0  0  0  0  0  0  0  0  0  0  0  0
   -4.4377   17.4459  -35.2743 H   0  0  0  0  0  0  0  0  0  0  0  0
   -4.1809   19.1551  -34.7220 H   0  0  0  0  0  0  0  0  0  0  0  0
   -3.9669   20.9968  -33.9221 H   0  0  0  0  0  0  0  0  0  0  0  0
   -3.3166   19.7987  -32.7186 H   0  0  0  0  0  0  0  0  0  0  0  0
   -3.2310   22.8401  -32.4307 H   0  0  0  0  0  0  0  0  0  0  0  0
   -4.3766   21.7114  -31.5947 H   0  0  0  0  0  0  0  0  0  0  0  0
  1  2  1  0
  2  3  1  0
  3  4  1  0
  4  5  1  0
  5  6  1  0
  6  7  1  0
  7  8  1  0
  8  9  1  0
  9 10  1  0
 10 11  1  0
 11 12  1  0
 12 13  1  0
 13 14  1  0
 14 15  1  0
 15 16  1  0
 16 17  1  0
 17 18  2  0
 18 19  1  0
 19 20  2  0
 20 21  1  0
 21 22  2  0
 15 23  1  0
 23 24  1  0
  8 25  1  0
 25 26  1  0
 26  5  1  0
 24 12  1  0
 22 17  1  0
  1 27  1  0
  1 28  1  0
  1 29  1  0
  2 30  1  0
  2 31  1  0
  3 32  1  0
  3 33  1  0
  4 34  1  0
  4 35  1  0
  6 36  1  0
  6 37  1  0
  7 38  1  0
  7 39  1  0
  8 40  1  0
  9 41  1  0
  9 42  1  0
 10 43  1  0
 10 44  1  0
 11 45  1  0
 11 46  1  0
 13 47  1  0
 13 48  1  0
 14 49  1  0
 14 50  1  0
 16 51  1  0
 16 52  1  0
 18 53  1  0
 19 54  1  0
 20 55  1  0
 21 56  1  0
 22 57  1  0
 23 58  1  0
 23 59  1  0
 24 60  1  0
 24 61  1  0
 25 62  1  0
 25 63  1  0
 26 64  1  0
 26 65  1  0
M  CHG  1   8   1
M  END
>  <UniqueID>  (5) 
5

>  <SMILES>  (5) 
CCCCN1CC[NH+](CCCN2CCN(Cc3ccccc3)CC2)CC1

>  <Energy>  (5) 
86.47837279021512

>  <Genealogy>  (5) 
CCCCN1CC[NH+](CCCN2CCN(Cc3ccccc3)CC2)CC1 (protonated)
CCCCN1CC[NH+](CCCN2CCN(Cc3ccccc3)CC2)CC1 (3D coordinates assigned)
CCCCN1CC[NH+](CCCN2CCN(Cc3ccccc3)CC2)CC1 (nonaromatic ring conformer: 86.47837279021512 kcal/mol)

>  <smiles>  (5) 
CCCCN1CCN(CCCN2CCN(Cc3ccccc3)CC2)CC1

>  <score_type>  (5) 
oracle

>  <origin>  (5) 
adg

>  <m_score__min__energy>  (5) 
-8.0899999999999999

>  <m_primary>  (5) 
energy

$$$$
5:0
     RDKit          3D

 54 57  0  0  0  0  0  0  0  0999 V2000
    1.1790   21.9170  -35.3370 C   0  0  0  0  0  0  0  0  0  0  0  0
    0.3630   21.5710  -34.2230 O   0  0  0  0  0  0  0  0  0  0  0  0
   -0.5660   20.5190  -34.2190 C   0  0  0  0  0  0  0  0  0  0  0  0
   -0.2320   19.2110  -34.6670 C   0  0  0  0  0  0  0  0  0  0  0  0
   -1.1890   18.1820  -34.6470 C   0  0  0  0  0  0  0  0  0  0  0  0
   -2.4650   18.4800  -34.1770 C   0  0  0  0  0  0  0  0  0  0  0  0
   -3.5110   17.6330  -34.0910 N   0  0  0  0  0  0  0  0  0  0  0  0
   -4.5290   18.3780  -33.5890 C   0  0  0  0  0  0  0  0  0  0  0  0
   -4.1290   19.6810  -33.3740 C   0  0  0  0  0  0  0  0  0  0  0  0
   -5.0150   20.6470  -32.9100 C   0  0  0  0  0  0  0  0  0  0  0  0
   -4.5910   22.0000  -32.7230 N   0  0  0  0  0  0  0  0  0  0  0  0
   -3.6750   22.3450  -31.6370 C   0  0  0  0  0  0  0  0  0  0  0  0
   -4.2000   23.5560  -30.8490 C   0  0  0  0  0  0  0  0  0  0  0  0
   -5.2690   24.2680  -31.5730 N   0  0  0  0  0  0  0  0  0  0  0  0
   -6.4430   24.5580  -30.7230 C   0  0  0  0  0  0  0  0  0  0  0  0
   -6.1170   25.6690  -29.7140 C   0  0  0  0  0  0  0  0  0  0  0  0
   -6.8600   23.2890  -29.9710 C   0  0  0  0  0  0  0  0  0  0  0  0
   -6.3500   20.2490  -32.6730 C   0  0  0  0  0  0  0  0  0  0  0  0
   -7.3010   21.1780  -32.2060 C   0  0  0  0  0  0  0  0  0  0  0  0
   -8.6270   20.7970  -32.0110 C   0  0  0  0  0  0  0  0  0  0  0  0
   -9.0280   19.4920  -32.2790 C   0  0  0  0  0  0  0  0  0  0  0  0
   -8.1050   18.5480  -32.7280 C   0  0  0  0  0  0  0  0  0  0  0  0
   -6.7420   18.8890  -32.9140 C   0  0  0  0  0  0  0  0  0  0  0  0
   -5.8060   17.9510  -33.3270 N   0  0  0  0  0  0  0  0  0  0  0  0
   -6.1680   16.5310  -33.4910 C   0  0  0  0  0  0  0  0  0  0  0  0
   -2.7970   19.7440  -33.7460 C   0  0  0  0  0  0  0  0  0  0  0  0
   -1.8670   20.7860  -33.7520 C   0  0  0  0  0  0  0  0  0  0  0  0
    2.1363   22.3229  -34.9782 H   0  0  0  0  0  0  0  0  0  0  0  0
    1.3662   21.0208  -35.9468 H   0  0  0  0  0  0  0  0  0  0  0  0
    0.6650   22.6746  -35.9468 H   0  0  0  0  0  0  0  0  0  0  0  0
    0.7845   19.0030  -35.0324 H   0  0  0  0  0  0  0  0  0  0  0  0
   -0.9367   17.1689  -34.9933 H   0  0  0  0  0  0  0  0  0  0  0  0
   -3.5090   16.6340  -34.3930 H   0  0  0  0  0  0  0  0  0  0  0  0
   -5.0090   22.7410  -33.3310 H   0  0  0  0  0  0  0  0  0  0  0  0
   -3.5802   21.4852  -30.9574 H   0  0  0  0  0  0  0  0  0  0  0  0
   -2.6955   22.6002  -32.0675 H   0  0  0  0  0  0  0  0  0  0  0  0
   -4.5969   23.2065  -29.8845 H   0  0  0  0  0  0  0  0  0  0  0  0
   -3.3634   24.2558  -30.7065 H   0  0  0  0  0  0  0  0  0  0  0  0
   -5.5400   23.7070  -32.4150 H   0  0  0  0  0  0  0  0  0  0  0  0
   -7.2686   24.8959  -31.3666 H   0  0  0  0  0  0  0  0  0  0  0  0
   -6.2310   25.2805  -28.6912 H   0  0  0  0  0  0  0  0  0  0  0  0
   -5.0814   26.0083  -29.8640 H   0  0  0  0  0  0  0  0  0  0  0  0
   -6.8051   26.5140  -29.8640 H   0  0  0  0  0  0  0  0  0  0  0  0
   -6.8009   23.4688  -28.8874 H   0  0  0  0  0  0  0  0  0  0  0  0
   -7.8924   23.0242  -30.2430 H   0  0  0  0  0  0  0  0  0  0  0  0
   -6.1859   22.4634  -30.2430 H   0  0  0  0  0  0  0  0  0  0  0  0
   -6.9940   22.2127  -31.9936 H   0  0  0  0  0  0  0  0  0  0  0  0
   -9.3596   21.5308  -31.6438 H   0  0  0  0  0  0  0  0  0  0  0  0
  -10.0797   19.2030  -32.1358 H   0  0  0  0  0  0  0  0  0  0  0  0
   -8.4402   17.5222  -32.9412 H   0  0  0  0  0  0  0  0  0  0  0  0
   -6.2865   16.0661  -32.5011 H   0  0  0  0  0  0  0  0  0  0  0  0
   -7.1141   16.4557  -34.0471 H   0  0  0  0  0  0  0  0  0  0  0  0
   -5.3735   16.0119  -34.0471 H   0  0  0  0  0  0  0  0  0  0  0  0
   -2.1443   21.7907  -33.4004 H   0  0  0  0  0  0  0  0  0  0  0  0
  1  2  1  0
  2  3  1  0
  3  4  2  0
  4  5  1  0
  5  6  2  0
  6  7  1  0
  7  8  1  0
  8  9  2  0
  9 10  1  0
 10 11  1  0
 11 12  1  0
 12 13  1  0
 13 14  1  0
 14 15  1  0
 15 16  1  0
 15 17  1  0
 10 18  2  0
 18 19  1  0
 19 20  2  0
 20 21  1  0
 21 22  2  0
 22 23  1  0
 23 24  2  0
 24 25  1  0
  9 26  1  0
 26 27  2  0
 27  3  1  0
 26  6  1  0
 24  8  1  0
 23 18  1  0
  1 28  1  0
  1 29  1  0
  1 30  1  0
  4 31  1  0
  5 32  1  0
  7 33  1  0
 11 34  1  0
 12 35  1  0
 12 36  1  0
 13 37  1  0
 13 38  1  0
 14 39  1  0
 15 40  1  0
 16 41  1  0
 16 42  1  0
 16 43  1  0
 17 44  1  0
 17 45  1  0
 17 46  1  0
 19 47  1  0
 20 48  1  0
 21 49  1  0
 22 50  1  0
 25 51  1  0
 25 52  1  0
 25 53  1  0
 27 54  1  0
M  CHG  1  24   1
M  END
>  <UniqueID>  (6) 
6

>  <SMILES>  (6) 
COc1ccc2[nH]c3c(c(NCCNC(C)C)c4ccccc4[n+]3C)c2c1

>  <Energy>  (6) 
110.11194782642536

>  <Genealogy>  (6) 
COc1ccc2[nH]c3c(c(NCCNC(C)C)c4ccccc4[n+]3C)c2c1 (3D coordinates assigned)
COc1ccc2[nH]c3c(c(NCCNC(C)C)c4ccccc4[n+]3C)c2c1 (optimized conformer: 110.11194782642536 kcal/mol)

>  <smiles>  (6) 
COc1ccc2[nH]c3c(c(NCCNC(C)C)c4ccccc4[n+]3C)c2c1

>  <score_type>  (6) 
oracle

>  <origin>  (6) 
adg

>  <m_score__min__energy>  (6) 
-9.5

>  <m_primary>  (6) 
energy

$$$$
6:0
     RDKit          3D

 74 79  0  0  0  0  0  0  0  0999 V2000
   -4.5380   22.0440  -32.7310 O   0  0  0  0  0  0  0  0  0  0  0  0
   -4.2850   20.8490  -33.0570 C   0  0  0  0  0  0  0  0  0  0  0  0
   -2.9430   20.5350  -33.4470 C   0  0  0  0  0  0  0  0  0  0  0  0
   -1.9550   21.5500  -33.4420 C   0  0  0  0  0  0  0  0  0  0  0  0
   -0.6400   21.2780  -33.8280 C   0  0  0  0  0  0  0  0  0  0  0  0
   -0.2770   19.9910  -34.2240 C   0  0  0  0  0  0  0  0  0  0  0  0
   -1.2270   18.9700  -34.2350 C   0  0  0  0  0  0  0  0  0  0  0  0
   -2.5440   19.2380  -33.8480 C   0  0  0  0  0  0  0  0  0  0  0  0
   -3.6910   18.0060  -33.8510 S   0  0  0  0  0  0  0  0  0  0  0  0
   -5.2060   18.5450  -33.3540 C   0  0  0  0  0  0  0  0  0  0  0  0
   -6.2780   17.6520  -33.2880 C   0  0  0  0  0  0  0  0  0  0  0  0
   -7.5350   18.0940  -32.8790 C   0  0  0  0  0  0  0  0  0  0  0  0
   -7.7310   19.4380  -32.5360 C   0  0  0  0  0  0  0  0  0  0  0  0
   -9.1000   19.9410  -32.1400 C   0  0  0  0  0  0  0  0  0  0  0  0
   -9.0100   20.9900  -31.1090 N   0  0  0  0  0  0  0  0  0  0  0  0
   -9.3700   22.3230  -31.6350 C   0  0  0  0  0  0  0  0  0  0  0  0
   -8.1310   23.1730  -31.9590 C   0  0  0  0  0  0  0  0  0  0  0  0
   -7.0750   23.1840  -30.8410 C   0  0  0  0  0  0  0  0  0  0  0  0
   -7.0450   24.5100  -30.0680 C   0  0  0  0  0  0  0  0  0  0  0  0
   -5.6270   24.9120  -29.6200 C   0  0  0  0  0  0  0  0  0  0  0  0
   -4.6590   25.1650  -30.7870 C   0  0  0  0  0  0  0  0  0  0  0  0
   -3.6100   24.1330  -30.8000 N   0  0  0  0  0  0  0  0  0  0  0  0
   -3.8970   23.0650  -29.8380 C   0  0  0  0  0  0  0  0  0  0  0  0
   -2.6690   22.7670  -28.9830 C   0  0  0  0  0  0  0  0  0  0  0  0
   -1.7960   21.6890  -29.3220 C   0  0  0  0  0  0  0  0  0  0  0  0
   -2.1050   20.7540  -30.3390 C   0  0  0  0  0  0  0  0  0  0  0  0
   -1.2270   19.7160  -30.6540 C   0  0  0  0  0  0  0  0  0  0  0  0
   -0.0220   19.5850  -29.9680 C   0  0  0  0  0  0  0  0  0  0  0  0
    0.3030   20.4830  -28.9520 C   0  0  0  0  0  0  0  0  0  0  0  0
   -0.5760   21.5250  -28.6140 C   0  0  0  0  0  0  0  0  0  0  0  0
   -0.2410   22.3960  -27.5740 C   0  0  0  0  0  0  0  0  0  0  0  0
   -1.1280   23.3940  -27.1670 C   0  0  0  0  0  0  0  0  0  0  0  0
   -0.7920   24.2160  -26.0780 C   0  0  0  0  0  0  0  0  0  0  0  0
   -1.6840   25.1850  -25.6230 C   0  0  0  0  0  0  0  0  0  0  0  0
   -2.9230   25.3340  -26.2380 C   0  0  0  0  0  0  0  0  0  0  0  0
   -3.2690   24.5360  -27.3310 C   0  0  0  0  0  0  0  0  0  0  0  0
   -2.3680   23.5700  -27.8400 C   0  0  0  0  0  0  0  0  0  0  0  0
   -6.6500   20.3330  -32.6030 C   0  0  0  0  0  0  0  0  0  0  0  0
   -5.3630   19.9060  -33.0080 C   0  0  0  0  0  0  0  0  0  0  0  0
   -2.2274   22.5688  -33.1292 H   0  0  0  0  0  0  0  0  0  0  0  0
    0.1113   22.0814  -33.8195 H   0  0  0  0  0  0  0  0  0  0  0  0
    0.7592   19.7811  -34.5278 H   0  0  0  0  0  0  0  0  0  0  0  0
   -0.9408   17.9550  -34.5477 H   0  0  0  0  0  0  0  0  0  0  0  0
   -6.1297   16.5964  -33.5597 H   0  0  0  0  0  0  0  0  0  0  0  0
   -8.3750   17.3859  -32.8254 H   0  0  0  0  0  0  0  0  0  0  0  0
   -9.6002   20.3542  -33.0283 H   0  0  0  0  0  0  0  0  0  0  0  0
   -9.6724   19.0976  -31.7266 H   0  0  0  0  0  0  0  0  0  0  0  0
   -8.0480   20.9970  -30.6940 H   0  0  0  0  0  0  0  0  0  0  0  0
   -9.6860   20.7470  -30.3450 H   0  0  0  0  0  0  0  0  0  0  0  0
   -9.9610   22.1936  -32.5537 H   0  0  0  0  0  0  0  0  0  0  0  0
   -9.9464   22.8480  -30.8590 H   0  0  0  0  0  0  0  0  0  0  0  0
   -7.6653   22.7730  -32.8718 H   0  0  0  0  0  0  0  0  0  0  0  0
   -8.4775   24.2097  -32.0821 H   0  0  0  0  0  0  0  0  0  0  0  0
   -7.3005   22.3705  -30.1358 H   0  0  0  0  0  0  0  0  0  0  0  0
   -6.0901   23.0518  -31.3127 H   0  0  0  0  0  0  0  0  0  0  0  0
   -7.4461   25.3031  -30.7162 H   0  0  0  0  0  0  0  0  0  0  0  0
   -7.6519   24.3763  -29.1604 H   0  0  0  0  0  0  0  0  0  0  0  0
   -5.6994   25.8330  -29.0229 H   0  0  0  0  0  0  0  0  0  0  0  0
   -5.2210   24.0684  -29.0425 H   0  0  0  0  0  0  0  0  0  0  0  0
   -5.2148   25.1321  -31.7357 H   0  0  0  0  0  0  0  0  0  0  0  0
   -4.1930   26.1537  -30.6633 H   0  0  0  0  0  0  0  0  0  0  0  0
   -3.5820   23.7220  -31.7620 H   0  0  0  0  0  0  0  0  0  0  0  0
   -4.7243   23.3797  -29.1849 H   0  0  0  0  0  0  0  0  0  0  0  0
   -4.1731   22.1550  -30.3909 H   0  0  0  0  0  0  0  0  0  0  0  0
   -3.0525   20.8472  -30.8899 H   0  0  0  0  0  0  0  0  0  0  0  0
   -1.4875   18.9991  -31.4466 H   0  0  0  0  0  0  0  0  0  0  0  0
    0.6733   18.7731  -30.2277 H   0  0  0  0  0  0  0  0  0  0  0  0
    1.2548   20.3745  -28.4113 H   0  0  0  0  0  0  0  0  0  0  0  0
    0.7318   22.2941  -27.0708 H   0  0  0  0  0  0  0  0  0  0  0  0
    0.1818   24.0937  -25.5813 H   0  0  0  0  0  0  0  0  0  0  0  0
   -1.4085   25.8323  -24.7774 H   0  0  0  0  0  0  0  0  0  0  0  0
   -3.6339   26.0842  -25.8615 H   0  0  0  0  0  0  0  0  0  0  0  0
   -4.2550   24.6599  -27.8026 H   0  0  0  0  0  0  0  0  0  0  0  0
   -6.8074   21.3882  -32.3349 H   0  0  0  0  0  0  0  0  0  0  0  0
  1  2  2  0
  2  3  1  0
  3  4  2  0
  4  5  1  0
  5  6  2  0
  6  7  1  0
  7  8  2  0
  8  9  1  0
  9 10  1  0
 10 11  2  0
 11 12  1  0
 12 13  2  0
 13 14  1  0
 14 15  1  0
 15 16  1  0
 16 17  1  0
 17 18  1  0
 18 19  1  0
 19 20  1  0
 20 21  1  0
 21 22  1  0
 22 23  1  0
 23 24  1  0
 24 25  1  0
 25 26  2  0
 26 27  1  0
 27 28  2  0
 28 29  1  0
 29 30  2  0
 30 31  1  0
 31 32  2  0
 32 33  1  0
 33 34  2  0
 34 35  1  0
 35 36  2  0
 36 37  1  0
 13 38  1  0
 38 39  2  0
 39  2  1  0
  8  3  1  0
 39 10  1  0
 37 24  2  0
 30 25  1  0
 37 32  1  0
  4 40  1  0
  5 41  1  0
  6 42  1  0
  7 43  1  0
 11 44  1  0
 12 45  1  0
 14 46  1  0
 14 47  1  0
 15 48  1  0
 15 49  1  0
 16 50  1  0
 16 51  1  0
 17 52  1  0
 17 53  1  0
 18 54  1  0
 18 55  1  0
 19 56  1  0
 19 57  1  0
 20 58  1  0
 20 59  1  0
 21 60  1  0
 21 61  1  0
 22 62  1  0
 23 63  1  0
 23 64  1  0
 26 65  1  0
 27 66  1  0
 28 67  1  0
 29 68  1  0
 31 69  1  0
 33 70  1  0
 34 71  1  0
 35 72  1  0
 36 73  1  0
 38 74  1  0
M  CHG  1  15   1
M  END
>  <UniqueID>  (7) 
7

>  <SMILES>  (7) 
O=c1c2ccccc2sc2ccc(C[NH2+]CCCCCCNCc3c4ccccc4cc4ccccc34)cc12

>  <Energy>  (7) 
101.99867996260659

>  <Genealogy>  (7) 
O=c1c2ccccc2sc2ccc(C[NH2+]CCCCCCNCc3c4ccccc4cc4ccccc34)cc12 (protonated)
O=c1c2ccccc2sc2ccc(C[NH2+]CCCCCCNCc3c4ccccc4cc4ccccc34)cc12 (3D coordinates assigned)
O=c1c2ccccc2sc2ccc(C[NH2+]CCCCCCNCc3c4ccccc4cc4ccccc34)cc12 (optimized conformer: 101.99867996260659 kcal/mol)

>  <smiles>  (7) 
O=c1c2ccccc2sc2ccc(CNCCCCCCNCc3c4ccccc4cc4ccccc34)cc12

>  <score_type>  (7) 
oracle

>  <origin>  (7) 
adg

>  <m_score__min__energy>  (7) 
-11.43

>  <m_primary>  (7) 
energy

$$$$
7:0
     RDKit          3D

 42 43  0  0  0  0  0  0  0  0999 V2000
   -4.5410   19.6440  -33.0990 C   0  0  0  0  0  0  0  0  0  0  0  0
   -5.9000   20.2730  -33.4120 C   0  0  0  0  0  0  0  0  0  0  0  0
   -6.8480   19.2580  -33.8990 N   0  0  0  0  0  0  0  0  0  0  0  0
   -6.8490   18.0850  -33.0070 C   0  0  0  0  0  0  0  0  0  0  0  0
   -7.6160   18.3530  -31.6990 C   0  0  0  0  0  0  0  0  0  0  0  0
   -9.0260   18.9260  -31.9130 C   0  0  0  0  0  0  0  0  0  0  0  0
   -9.0040   20.0300  -32.8040 O   0  0  0  0  0  0  0  0  0  0  0  0
   -9.5740   21.1810  -32.2110 C   0  0  0  0  0  0  0  0  0  0  0  0
   -8.5200   22.0060  -31.5420 C   0  0  0  0  0  0  0  0  0  0  0  0
   -8.1640   21.9350  -30.1980 C   0  0  0  0  0  0  0  0  0  0  0  0
   -7.1500   22.8350  -29.8510 C   0  0  0  0  0  0  0  0  0  0  0  0
   -6.7150   23.6020  -30.9220 C   0  0  0  0  0  0  0  0  0  0  0  0
   -5.4440   24.8580  -30.8570 S   0  0  0  0  0  0  0  0  0  0  0  0
   -4.3940   23.8630  -29.7980 C   0  0  0  0  0  0  0  0  0  0  0  0
   -3.6650   22.7950  -30.3380 C   0  0  0  0  0  0  0  0  0  0  0  0
   -2.8440   22.0190  -29.5120 C   0  0  0  0  0  0  0  0  0  0  0  0
   -2.7500   22.3090  -28.1450 C   0  0  0  0  0  0  0  0  0  0  0  0
   -1.7150   21.3400  -27.1120 Cl  0  0  0  0  0  0  0  0  0  0  0  0
   -3.4760   23.3770  -27.6060 C   0  0  0  0  0  0  0  0  0  0  0  0
   -4.2960   24.1540  -28.4320 C   0  0  0  0  0  0  0  0  0  0  0  0
   -7.5770   23.1770  -32.3010 S   0  0  0  0  0  0  0  0  0  0  0  0
   -4.4078   19.5824  -32.0088 H   0  0  0  0  0  0  0  0  0  0  0  0
   -4.4963   18.6336  -33.5316 H   0  0  0  0  0  0  0  0  0  0  0  0
   -3.7418   20.2638  -33.5316 H   0  0  0  0  0  0  0  0  0  0  0  0
   -6.3031   20.7333  -32.4979 H   0  0  0  0  0  0  0  0  0  0  0  0
   -5.7640   21.0323  -34.1962 H   0  0  0  0  0  0  0  0  0  0  0  0
   -7.8100   19.6730  -33.9300 H   0  0  0  0  0  0  0  0  0  0  0  0
   -6.5590   18.9640  -34.8600 H   0  0  0  0  0  0  0  0  0  0  0  0
   -7.3237   17.2419  -33.5302 H   0  0  0  0  0  0  0  0  0  0  0  0
   -5.8050   17.8562  -32.7468 H   0  0  0  0  0  0  0  0  0  0  0  0
   -7.7069   17.4043  -31.1496 H   0  0  0  0  0  0  0  0  0  0  0  0
   -7.0441   19.1093  -31.1414 H   0  0  0  0  0  0  0  0  0  0  0  0
   -9.6723   18.1405  -32.3316 H   0  0  0  0  0  0  0  0  0  0  0  0
   -9.4117   19.2709  -30.9423 H   0  0  0  0  0  0  0  0  0  0  0  0
  -10.0645   21.7835  -32.9897 H   0  0  0  0  0  0  0  0  0  0  0  0
  -10.3084   20.8640  -31.4559 H   0  0  0  0  0  0  0  0  0  0  0  0
   -8.6316   21.2427  -29.4824 H   0  0  0  0  0  0  0  0  0  0  0  0
   -6.7403   22.9249  -28.8341 H   0  0  0  0  0  0  0  0  0  0  0  0
   -3.7381   22.5665  -31.4115 H   0  0  0  0  0  0  0  0  0  0  0  0
   -2.2721   21.1808  -29.9366 H   0  0  0  0  0  0  0  0  0  0  0  0
   -3.4021   23.6059  -26.5326 H   0  0  0  0  0  0  0  0  0  0  0  0
   -4.8644   24.9946  -28.0074 H   0  0  0  0  0  0  0  0  0  0  0  0
  1  2  1  0
  2  3  1  0
  3  4  1  0
  4  5  1  0
  5  6  1  0
  6  7  1  0
  7  8  1  0
  8  9  1  0
  9 10  2  0
 10 11  1  0
 11 12  2  0
 12 13  1  0
 13 14  1  0
 14 15  2  0
 15 16  1  0
 16 17  2  0
 17 18  1  0
 17 19  1  0
 19 20  2  0
 12 21  1  0
 21  9  1  0
 20 14  1  0
  1 22  1  0
  1 23  1  0
  1 24  1  0
  2 25  1  0
  2 26  1  0
  3 27  1  0
  3 28  1  0
  4 29  1  0
  4 30  1  0
  5 31  1  0
  5 32  1  0
  6 33  1  0
  6 34  1  0
  8 35  1  0
  8 36  1  0
 10 37  1  0
 11 38  1  0
 15 39  1  0
 16 40  1  0
 19 41  1  0
 20 42  1  0
M  CHG  1   3   1
M  END
>  <UniqueID>  (8) 
8

>  <SMILES>  (8) 
CC[NH2+]CCCOCc1ccc(Sc2ccc(Cl)cc2)s1

>  <Energy>  (8) 
58.93174467737467

>  <Genealogy>  (8) 
CC[NH2+]CCCOCc1ccc(Sc2ccc(Cl)cc2)s1 (protonated)
CC[NH2+]CCCOCc1ccc(Sc2ccc(Cl)cc2)s1 (3D coordinates assigned)
CC[NH2+]CCCOCc1ccc(Sc2ccc(Cl)cc2)s1 (optimized conformer: 58.93174467737467 kcal/mol)

>  <smiles>  (8) 
CCNCCCOCc1ccc(Sc2ccc(Cl)cc2)s1

>  <score_type>  (8) 
oracle

>  <origin>  (8) 
adg

>  <m_score__min__energy>  (8) 
-8.1099999999999994

>  <m_primary>  (8) 
energy

$$$$
8:0
     RDKit          3D

 45 46  0  0  0  0  0  0  0  0999 V2000
   -6.5970   17.7840  -31.2180 C   0  0  0  0  0  0  0  0  0  0  0  0
   -5.7460   16.6320  -31.7920 C   0  0  0  0  0  0  0  0  0  0  0  0
   -5.3790   16.7390  -33.2510 N   0  0  0  0  0  0  0  0  0  0  0  0
   -6.5230   16.4970  -34.1690 C   0  0  0  0  0  0  0  0  0  0  0  0
   -4.2720   15.7740  -33.5880 C   0  0  0  0  0  0  0  0  0  0  0  0
   -4.0890   14.5710  -32.6440 C   0  0  0  0  0  0  0  0  0  0  0  0
   -4.8040   18.1040  -33.5260 C   0  0  0  0  0  0  0  0  0  0  0  0
   -5.7220   19.1950  -34.1690 C   0  0  0  0  0  0  0  0  0  0  0  0
   -5.8960   20.4180  -33.3470 N   0  0  0  0  0  0  0  0  0  0  0  0
   -4.7670   21.1610  -33.1320 C   0  0  0  0  0  0  0  0  0  0  0  0
   -4.7750   22.2810  -32.3110 C   0  0  0  0  0  0  0  0  0  0  0  0
   -5.9440   22.6650  -31.6580 C   0  0  0  0  0  0  0  0  0  0  0  0
   -5.9100   23.8820  -30.7670 C   0  0  0  0  0  0  0  0  0  0  0  0
   -7.1180   21.9020  -31.8490 C   0  0  0  0  0  0  0  0  0  0  0  0
   -8.3240   22.2480  -31.2010 C   0  0  0  0  0  0  0  0  0  0  0  0
   -9.4820   21.5050  -31.4080 C   0  0  0  0  0  0  0  0  0  0  0  0
   -9.4670   20.4160  -32.2690 C   0  0  0  0  0  0  0  0  0  0  0  0
   -8.2900   20.0490  -32.9210 C   0  0  0  0  0  0  0  0  0  0  0  0
   -7.0830   20.7650  -32.7170 C   0  0  0  0  0  0  0  0  0  0  0  0
   -6.5700   17.7474  -30.1189 H   0  0  0  0  0  0  0  0  0  0  0  0
   -6.1914   18.7466  -31.5629 H   0  0  0  0  0  0  0  0  0  0  0  0
   -7.6363   17.6793  -31.5629 H   0  0  0  0  0  0  0  0  0  0  0  0
   -4.8117   16.5842  -31.2134 H   0  0  0  0  0  0  0  0  0  0  0  0
   -6.3746   15.7329  -31.7114 H   0  0  0  0  0  0  0  0  0  0  0  0
   -7.4317   16.3048  -33.5797 H   0  0  0  0  0  0  0  0  0  0  0  0
   -6.6778   17.3823  -34.8033 H   0  0  0  0  0  0  0  0  0  0  0  0
   -6.3060   15.6249  -34.8033 H   0  0  0  0  0  0  0  0  0  0  0  0
   -4.4696   15.3794  -34.5956 H   0  0  0  0  0  0  0  0  0  0  0  0
   -3.3437   16.3568  -33.4954 H   0  0  0  0  0  0  0  0  0  0  0  0
   -4.1410   14.9131  -31.5998 H   0  0  0  0  0  0  0  0  0  0  0  0
   -4.8856   13.8353  -32.8290 H   0  0  0  0  0  0  0  0  0  0  0  0
   -3.1097   14.1054  -32.8290 H   0  0  0  0  0  0  0  0  0  0  0  0
   -4.4505   18.5051  -32.5647 H   0  0  0  0  0  0  0  0  0  0  0  0
   -4.0362   17.9188  -34.2916 H   0  0  0  0  0  0  0  0  0  0  0  0
   -5.2817   19.4893  -35.1331 H   0  0  0  0  0  0  0  0  0  0  0  0
   -6.7196   18.7429  -34.2706 H   0  0  0  0  0  0  0  0  0  0  0  0
   -3.8285   20.8632  -33.6224 H   0  0  0  0  0  0  0  0  0  0  0  0
   -3.8542   22.8675  -32.1758 H   0  0  0  0  0  0  0  0  0  0  0  0
   -5.9188   23.5655  -29.7135 H   0  0  0  0  0  0  0  0  0  0  0  0
   -4.9954   24.4588  -30.9689 H   0  0  0  0  0  0  0  0  0  0  0  0
   -6.7910   24.5090  -30.9689 H   0  0  0  0  0  0  0  0  0  0  0  0
   -8.3482   23.1151  -30.5246 H   0  0  0  0  0  0  0  0  0  0  0  0
  -10.4114   21.7810  -30.8884 H   0  0  0  0  0  0  0  0  0  0  0  0
  -10.3885   19.8395  -32.4379 H   0  0  0  0  0  0  0  0  0  0  0  0
   -8.2981   19.1884  -33.6060 H   0  0  0  0  0  0  0  0  0  0  0  0
  1  2  1  0
  2  3  1  0
  3  4  1  0
  3  5  1  0
  5  6  1  0
  3  7  1  0
  7  8  1  0
  8  9  1  0
  9 10  2  0
 10 11  1  0
 11 12  2  0
 12 13  1  0
 12 14  1  0
 14 15  2  0
 15 16  1  0
 16 17  2  0
 17 18  1  0
 18 19  2  0
 19  9  1  0
 19 14  1  0
  1 20  1  0
  1 21  1  0
  1 22  1  0
  2 23  1  0
  2 24  1  0
  4 25  1  0
  4 26  1  0
  4 27  1  0
  5 28  1  0
  5 29  1  0
  6 30  1  0
  6 31  1  0
  6 32  1  0
  7 33  1  0
  7 34  1  0
  8 35  1  0
  8 36  1  0
 10 37  1  0
 11 38  1  0
 13 39  1  0
 13 40  1  0
 13 41  1  0
 15 42  1  0
 16 43  1  0
 17 44  1  0
 18 45  1  0
M  CHG  2   3   1   9   1
M  END
>  <UniqueID>  (9) 
9

>  <SMILES>  (9) 
CC[N+](C)(CC)CC[n+]1ccc(C)c2ccccc21

>  <Energy>  (9) 
78.78233760016447

>  <Genealogy>  (9) 
CC[N+](C)(CC)CC[n+]1ccc(C)c2ccccc21 (3D coordinates assigned)
CC[N+](C)(CC)CC[n+]1ccc(C)c2ccccc21 (optimized conformer: 78.78233760016447 kcal/mol)

>  <smiles>  (9) 
CC[N+](C)(CC)CC[n+]1ccc(C)c2ccccc21

>  <score_type>  (9) 
oracle

>  <origin>  (9) 
adg

>  <m_score__min__energy>  (9) 
-5.5300000000000002

>  <m_primary>  (9) 
energy

$$$$
9:0
     RDKit          3D

 45 46  0  0  0  0  0  0  0  0999 V2000
   -2.7290   19.6260  -27.0950 C   0  0  0  0  0  0  0  0  0  0  0  0
   -2.9260   21.0840  -27.5220 C   0  0  0  0  0  0  0  0  0  0  0  0
   -1.6710   21.8270  -27.8160 N   0  0  0  0  0  0  0  0  0  0  0  0
   -1.4130   22.9150  -26.8370 C   0  0  0  0  0  0  0  0  0  0  0  0
   -2.2490   24.1680  -27.1250 C   0  0  0  0  0  0  0  0  0  0  0  0
   -0.5100   20.9340  -28.1120 C   0  0  0  0  0  0  0  0  0  0  0  0
   -0.2210   20.6510  -29.6030 C   0  0  0  0  0  0  0  0  0  0  0  0
   -0.5650   21.7700  -30.3860 O   0  0  0  0  0  0  0  0  0  0  0  0
   -1.6080   21.3910  -31.1710 N   0  0  0  0  0  0  0  0  0  0  0  0
   -2.8470   22.1170  -31.1490 C   0  0  0  0  0  0  0  0  0  0  0  0
   -3.0000   23.0560  -30.2650 N   0  0  0  0  0  0  0  0  0  0  0  0
   -4.4440   23.9860  -30.1450 S   0  0  0  0  0  0  0  0  0  0  0  0
   -4.2730   25.3030  -30.8460 O   0  0  0  0  0  0  0  0  0  0  0  0
   -4.7810   24.2010  -28.6960 O   0  0  0  0  0  0  0  0  0  0  0  0
   -5.6830   23.0360  -30.9150 C   0  0  0  0  0  0  0  0  0  0  0  0
   -7.0360   23.2720  -30.6430 C   0  0  0  0  0  0  0  0  0  0  0  0
   -8.0170   22.4840  -31.2470 C   0  0  0  0  0  0  0  0  0  0  0  0
   -7.6470   21.4580  -32.1190 C   0  0  0  0  0  0  0  0  0  0  0  0
   -6.2970   21.2240  -32.3970 C   0  0  0  0  0  0  0  0  0  0  0  0
   -5.2940   22.0190  -31.8040 C   0  0  0  0  0  0  0  0  0  0  0  0
   -3.8900   21.8040  -32.1070 N   0  0  0  0  0  0  0  0  0  0  0  0
   -3.5080   21.2220  -33.4000 C   0  0  0  0  0  0  0  0  0  0  0  0
   -2.7206   19.5635  -25.9968 H   0  0  0  0  0  0  0  0  0  0  0  0
   -3.5526   19.0135  -27.4908 H   0  0  0  0  0  0  0  0  0  0  0  0
   -1.7724   19.2541  -27.4908 H   0  0  0  0  0  0  0  0  0  0  0  0
   -3.5486   21.0931  -28.4288 H   0  0  0  0  0  0  0  0  0  0  0  0
   -3.3932   21.5948  -26.6671 H   0  0  0  0  0  0  0  0  0  0  0  0
   -1.8830   22.3060  -28.7250 H   0  0  0  0  0  0  0  0  0  0  0  0
   -1.6592   22.5496  -25.8291 H   0  0  0  0  0  0  0  0  0  0  0  0
   -0.3517   23.1934  -26.9155 H   0  0  0  0  0  0  0  0  0  0  0  0
   -2.5570   24.6296  -26.1752 H   0  0  0  0  0  0  0  0  0  0  0  0
   -1.6477   24.8851  -27.7032 H   0  0  0  0  0  0  0  0  0  0  0  0
   -3.1420   23.8881  -27.7032 H   0  0  0  0  0  0  0  0  0  0  0  0
    0.3882   21.3992  -27.6799 H   0  0  0  0  0  0  0  0  0  0  0  0
   -0.7740   19.9591  -27.6763 H   0  0  0  0  0  0  0  0  0  0  0  0
    0.8497   20.4335  -29.7307 H   0  0  0  0  0  0  0  0  0  0  0  0
   -0.8208   19.7879  -29.9274 H   0  0  0  0  0  0  0  0  0  0  0  0
   -1.5300   20.5040  -31.7180 H   0  0  0  0  0  0  0  0  0  0  0  0
   -7.3259   24.0784  -29.9533 H   0  0  0  0  0  0  0  0  0  0  0  0
   -9.0803   22.6710  -31.0364 H   0  0  0  0  0  0  0  0  0  0  0  0
   -8.4201   20.8320  -32.5886 H   0  0  0  0  0  0  0  0  0  0  0  0
   -6.0145   20.4128  -33.0842 H   0  0  0  0  0  0  0  0  0  0  0  0
   -2.9116   20.3133  -33.2312 H   0  0  0  0  0  0  0  0  0  0  0  0
   -4.4140   20.9656  -33.9687 H   0  0  0  0  0  0  0  0  0  0  0  0
   -2.9123   21.9512  -33.9687 H   0  0  0  0  0  0  0  0  0  0  0  0
  1  2  1  0
  2  3  1  0
  3  4  1  0
  4  5  1  0
  3  6  1  0
  6  7  1  0
  7  8  1  0
  8  9  1  0
  9 10  1  0
 10 11  2  0
 11 12  1  0
 12 13  2  0
 12 14  2  0
 12 15  1  0
 15 16  2  0
 16 17  1  0
 17 18  2  0
 18 19  1  0
 19 20  2  0
 20 21  1  0
 21 22  1  0
 21 10  1  0
 20 15  1  0
  1 23  1  0
  1 24  1  0
  1 25  1  0
  2 26  1  0
  2 27  1  0
  3 28  1  0
  4 29  1  0
  4 30  1  0
  5 31  1  0
  5 32  1  0
  5 33  1  0
  6 34  1  0
  6 35  1  0
  7 36  1  0
  7 37  1  0
  9 38  1  0
 16 39  1  0
 17 40  1  0
 18 41  1  0
 19 42  1  0
 22 43  1  0
 22 44  1  0
 22 45  1  0
M  CHG  1   3   1
M  END
>  <UniqueID>  (10) 
10

>  <SMILES>  (10) 
CC[NH+](CC)CCONC1=NS(=O)(=O)c2ccccc2N1C

>  <Energy>  (10) 
59.11378188003253

>  <Genealogy>  (10) 
CC[NH+](CC)CCONC1=NS(=O)(=O)c2ccccc2N1C (protonated)
CC[NH+](CC)CCONC1=NS(=O)(=O)c2ccccc2N1C (3D coordinates assigned)
CC[NH+](CC)CCONC1=NS(=O)(=O)c2ccccc2N1C (nonaromatic ring conformer: 59.11378188003253 kcal/mol)

>  <smiles>  (10) 
CCN(CC)CCONC1=NS(=O)(=O)c2ccccc2N1C

>  <score_type>  (10) 
oracle

>  <origin>  (10) 
adg

>  <m_score__min__energy>  (10) 
-5.9100000000000001

>  <m_primary>  (10) 
energy

$$$$
10:0
     RDKit          3D

 30 31  0  0  0  0  0  0  0  0999 V2000
   -5.4710   19.6050  -33.4950 C   0  0  0  0  0  0  0  0  0  0  0  0
   -4.9770   20.8870  -33.1200 O   0  0  0  0  0  0  0  0  0  0  0  0
   -5.6980   21.8220  -32.3620 C   0  0  0  0  0  0  0  0  0  0  0  0
   -7.0120   21.5080  -31.9930 C   0  0  0  0  0  0  0  0  0  0  0  0
   -7.7730   22.4100  -31.2450 C   0  0  0  0  0  0  0  0  0  0  0  0
   -7.2290   23.6360  -30.8600 C   0  0  0  0  0  0  0  0  0  0  0  0
   -5.9130   23.9680  -31.2170 C   0  0  0  0  0  0  0  0  0  0  0  0
   -5.3360   25.3010  -30.8190 C   0  0  0  0  0  0  0  0  0  0  0  0
   -3.8720   25.2790  -30.8500 N   0  0  0  0  0  0  0  0  0  0  0  0
   -3.2050   24.5340  -29.4240 S   0  0  0  0  0  0  0  0  0  0  0  0
   -1.9960   25.3040  -28.9750 O   0  0  0  0  0  0  0  0  0  0  0  0
   -4.2310   24.5710  -28.3260 O   0  0  0  0  0  0  0  0  0  0  0  0
   -2.7590   22.8630  -29.7200 C   0  0  0  0  0  0  0  0  0  0  0  0
   -3.0230   21.7960  -28.8750 C   0  0  0  0  0  0  0  0  0  0  0  0
   -2.5610   20.5750  -29.3800 C   0  0  0  0  0  0  0  0  0  0  0  0
   -1.9370   20.6830  -30.6180 C   0  0  0  0  0  0  0  0  0  0  0  0
   -1.9590   22.2990  -31.0850 S   0  0  0  0  0  0  0  0  0  0  0  0
   -5.1500   23.0570  -31.9660 C   0  0  0  0  0  0  0  0  0  0  0  0
   -5.6964   19.0201  -32.5911 H   0  0  0  0  0  0  0  0  0  0  0  0
   -6.3872   19.7253  -34.0918 H   0  0  0  0  0  0  0  0  0  0  0  0
   -4.7110   19.0794  -34.0918 H   0  0  0  0  0  0  0  0  0  0  0  0
   -7.4482   20.5442  -32.2943 H   0  0  0  0  0  0  0  0  0  0  0  0
   -8.8036   22.1530  -30.9589 H   0  0  0  0  0  0  0  0  0  0  0  0
   -7.8336   24.3445  -30.2748 H   0  0  0  0  0  0  0  0  0  0  0  0
   -5.6974   26.0705  -31.5170 H   0  0  0  0  0  0  0  0  0  0  0  0
   -5.6577   25.5251  -29.7912 H   0  0  0  0  0  0  0  0  0  0  0  0
   -3.5407   21.8982  -27.9099 H   0  0  0  0  0  0  0  0  0  0  0  0
   -2.6803   19.6198  -28.8476 H   0  0  0  0  0  0  0  0  0  0  0  0
   -1.5027   19.8527  -31.1942 H   0  0  0  0  0  0  0  0  0  0  0  0
   -4.1166   23.3104  -32.2452 H   0  0  0  0  0  0  0  0  0  0  0  0
  1  2  1  0
  2  3  1  0
  3  4  2  0
  4  5  1  0
  5  6  2  0
  6  7  1  0
  7  8  1  0
  8  9  1  0
  9 10  1  0
 10 11  2  0
 10 12  2  0
 10 13  1  0
 13 14  2  0
 14 15  1  0
 15 16  2  0
 16 17  1  0
  7 18  2  0
 18  3  1  0
 17 13  1  0
  1 19  1  0
  1 20  1  0
  1 21  1  0
  4 22  1  0
  5 23  1  0
  6 24  1  0
  8 25  1  0
  8 26  1  0
 14 27  1  0
 15 28  1  0
 16 29  1  0
 18 30  1  0
M  CHG  1   9  -1
M  END
>  <UniqueID>  (11) 
11

>  <SMILES>  (11) 
COc1cccc(C[N-]S(=O)(=O)c2cccs2)c1

>  <Energy>  (11) 
53.46919030214971

>  <Genealogy>  (11) 
COc1cccc(C[N-]S(=O)(=O)c2cccs2)c1 (protonated)
COc1cccc(C[N-]S(=O)(=O)c2cccs2)c1 (3D coordinates assigned)
COc1cccc(C[N-]S(=O)(=O)c2cccs2)c1 (optimized conformer: 53.46919030214971 kcal/mol)

>  <smiles>  (11) 
COc1cccc(CNS(=O)(=O)c2cccs2)c1

>  <score_type>  (11) 
oracle

>  <origin>  (11) 
adg

>  <m_score__min__energy>  (11) 
-7.5999999999999996

>  <m_primary>  (11) 
energy

$$$$
11:0
     RDKit          3D

 66 69  0  0  0  0  0  0  0  0999 V2000
   -6.4240   25.2060  -29.6390 C   0  0  0  0  0  0  0  0  0  0  0  0
   -5.3550   25.8910  -30.4820 C   0  0  0  0  0  0  0  0  0  0  0  0
   -4.3210   24.9240  -30.8660 N   0  0  0  0  0  0  0  0  0  0  0  0
   -4.1840   23.8910  -29.8290 C   0  0  0  0  0  0  0  0  0  0  0  0
   -3.9130   22.5150  -30.4500 C   0  0  0  0  0  0  0  0  0  0  0  0
   -4.3850   22.4420  -31.8350 N   0  0  0  0  0  0  0  0  0  0  0  0
   -5.2970   21.4150  -32.2610 C   0  0  0  0  0  0  0  0  0  0  0  0
   -6.6800   21.6330  -32.1420 C   0  0  0  0  0  0  0  0  0  0  0  0
   -7.1890   22.9240  -31.8820 C   0  0  0  0  0  0  0  0  0  0  0  0
   -8.5610   23.1460  -31.8130 C   0  0  0  0  0  0  0  0  0  0  0  0
   -9.4470   22.0940  -32.0120 C   0  0  0  0  0  0  0  0  0  0  0  0
   -8.9650   20.8080  -32.2540 C   0  0  0  0  0  0  0  0  0  0  0  0
   -7.5720   20.5450  -32.2900 C   0  0  0  0  0  0  0  0  0  0  0  0
   -7.0760   19.2660  -32.4550 N   0  0  0  0  0  0  0  0  0  0  0  0
   -7.9630   18.1010  -32.2450 C   0  0  0  0  0  0  0  0  0  0  0  0
   -5.7490   19.0800  -32.7980 C   0  0  0  0  0  0  0  0  0  0  0  0
   -5.2730   17.8130  -33.2160 C   0  0  0  0  0  0  0  0  0  0  0  0
   -3.9330   17.6110  -33.5170 C   0  0  0  0  0  0  0  0  0  0  0  0
   -3.0390   18.6690  -33.4770 C   0  0  0  0  0  0  0  0  0  0  0  0
   -3.4680   19.9580  -33.1320 C   0  0  0  0  0  0  0  0  0  0  0  0
   -2.5670   21.0610  -33.3370 N   0  0  0  0  0  0  0  0  0  0  0  0
   -1.4080   21.3360  -32.4860 C   0  0  0  0  0  0  0  0  0  0  0  0
   -1.3020   20.3050  -31.3490 C   0  0  0  0  0  0  0  0  0  0  0  0
   -0.7000   20.8830  -30.0560 C   0  0  0  0  0  0  0  0  0  0  0  0
   -1.3250   20.3070  -28.8570 N   0  0  0  0  0  0  0  0  0  0  0  0
   -2.4230   20.9120  -28.3110 C   0  0  0  0  0  0  0  0  0  0  0  0
   -3.0690   20.3520  -27.2060 C   0  0  0  0  0  0  0  0  0  0  0  0
   -2.5820   19.1640  -26.6520 C   0  0  0  0  0  0  0  0  0  0  0  0
   -3.2360   18.5690  -25.5300 N   0  0  0  0  0  0  0  0  0  0  0  0
   -1.4480   18.5640  -27.2090 C   0  0  0  0  0  0  0  0  0  0  0  0
   -0.8280   19.1520  -28.3130 C   0  0  0  0  0  0  0  0  0  0  0  0
   -4.8280   20.1680  -32.7430 C   0  0  0  0  0  0  0  0  0  0  0  0
   -6.1982   25.3507  -28.5722 H   0  0  0  0  0  0  0  0  0  0  0  0
   -7.4073   25.6427  -29.8682 H   0  0  0  0  0  0  0  0  0  0  0  0
   -6.4381   24.1302  -29.8682 H   0  0  0  0  0  0  0  0  0  0  0  0
   -5.8181   26.3080  -31.3885 H   0  0  0  0  0  0  0  0  0  0  0  0
   -4.8935   26.6975  -29.8932 H   0  0  0  0  0  0  0  0  0  0  0  0
   -4.6360   24.4680  -31.7500 H   0  0  0  0  0  0  0  0  0  0  0  0
   -3.3474   24.1567  -29.1661 H   0  0  0  0  0  0  0  0  0  0  0  0
   -5.1256   23.8385  -29.2627 H   0  0  0  0  0  0  0  0  0  0  0  0
   -2.8300   22.3231  -30.4321 H   0  0  0  0  0  0  0  0  0  0  0  0
   -4.4573   21.7609  -29.8625 H   0  0  0  0  0  0  0  0  0  0  0  0
   -4.3570   23.3230  -32.3960 H   0  0  0  0  0  0  0  0  0  0  0  0
   -6.4937   23.7632  -31.7324 H   0  0  0  0  0  0  0  0  0  0  0  0
   -8.9445   24.1549  -31.6008 H   0  0  0  0  0  0  0  0  0  0  0  0
  -10.5313   22.2762  -31.9785 H   0  0  0  0  0  0  0  0  0  0  0  0
   -9.6761   19.9852  -32.4195 H   0  0  0  0  0  0  0  0  0  0  0  0
   -8.0937   17.9294  -31.1664 H   0  0  0  0  0  0  0  0  0  0  0  0
   -8.9421   18.2977  -32.7062 H   0  0  0  0  0  0  0  0  0  0  0  0
   -7.5129   17.2096  -32.7062 H   0  0  0  0  0  0  0  0  0  0  0  0
   -5.9784   16.9735  -33.3037 H   0  0  0  0  0  0  0  0  0  0  0  0
   -3.5789   16.6056  -33.7887 H   0  0  0  0  0  0  0  0  0  0  0  0
   -1.9801   18.4952  -33.7189 H   0  0  0  0  0  0  0  0  0  0  0  0
   -2.6580   21.5950  -34.2260 H   0  0  0  0  0  0  0  0  0  0  0  0
   -0.4945   21.2926  -33.0973 H   0  0  0  0  0  0  0  0  0  0  0  0
   -1.5279   22.3356  -32.0427 H   0  0  0  0  0  0  0  0  0  0  0  0
   -2.3105   19.9268  -31.1257 H   0  0  0  0  0  0  0  0  0  0  0  0
   -0.6270   19.5081  -31.6943 H   0  0  0  0  0  0  0  0  0  0  0  0
    0.3777   20.6634  -30.0360 H   0  0  0  0  0  0  0  0  0  0  0  0
   -0.8831   21.9676  -30.0491 H   0  0  0  0  0  0  0  0  0  0  0  0
   -2.8014   21.8488  -28.7460 H   0  0  0  0  0  0  0  0  0  0  0  0
   -3.9544   20.8421  -26.7749 H   0  0  0  0  0  0  0  0  0  0  0  0
   -4.2530   18.7370  -25.3530 H   0  0  0  0  0  0  0  0  0  0  0  0
   -2.7130   17.9530  -24.8690 H   0  0  0  0  0  0  0  0  0  0  0  0
   -1.0469   17.6341  -26.7796 H   0  0  0  0  0  0  0  0  0  0  0  0
    0.0667   18.6842  -28.7496 H   0  0  0  0  0  0  0  0  0  0  0  0
  1  2  1  0
  2  3  1  0
  3  4  1  0
  4  5  1  0
  5  6  1  0
  6  7  1  0
  7  8  2  0
  8  9  1  0
  9 10  2  0
 10 11  1  0
 11 12  2  0
 12 13  1  0
 13 14  2  0
 14 15  1  0
 14 16  1  0
 16 17  2  0
 17 18  1  0
 18 19  2  0
 19 20  1  0
 20 21  1  0
 21 22  1  0
 22 23  1  0
 23 24  1  0
 24 25  1  0
 25 26  2  0
 26 27  1  0
 27 28  2  0
 28 29  1  0
 28 30  1  0
 30 31  2  0
 20 32  2  0
 32  7  1  0
 13  8  1  0
 32 16  1  0
 31 25  1  0
  1 33  1  0
  1 34  1  0
  1 35  1  0
  2 36  1  0
  2 37  1  0
  3 38  1  0
  4 39  1  0
  4 40  1  0
  5 41  1  0
  5 42  1  0
  6 43  1  0
  9 44  1  0
 10 45  1  0
 11 46  1  0
 12 47  1  0
 15 48  1  0
 15 49  1  0
 15 50  1  0
 17 51  1  0
 18 52  1  0
 19 53  1  0
 21 54  1  0
 22 55  1  0
 22 56  1  0
 23 57  1  0
 23 58  1  0
 24 59  1  0
 24 60  1  0
 26 61  1  0
 27 62  1  0
 29 63  1  0
 29 64  1  0
 30 65  1  0
 31 66  1  0
M  CHG  2  14   1  25   1
M  END
>  <UniqueID>  (12) 
12

>  <SMILES>  (12) 
CCNCCNc1c2ccccc2[n+](C)c2cccc(NCCC[n+]3ccc(N)cc3)c12

>  <Energy>  (12) 
93.67425035851441

>  <Genealogy>  (12) 
CCNCCNc1c2ccccc2[n+](C)c2cccc(NCCC[n+]3ccc(N)cc3)c12 (3D coordinates assigned)
CCNCCNc1c2ccccc2[n+](C)c2cccc(NCCC[n+]3ccc(N)cc3)c12 (optimized conformer: 93.67425035851441 kcal/mol)

>  <smiles>  (12) 
CCNCCNc1c2ccccc2[n+](C)c2cccc(NCCC[n+]3ccc(N)cc3)c12

>  <score_type>  (12) 
oracle

>  <origin>  (12) 
adg

>  <m_score__min__energy>  (12) 
-10.09

>  <m_primary>  (12) 
energy

$$$$
12:0
     RDKit          3D

 54 57  0  0  0  0  0  0  0  0999 V2000
   -3.8210   23.1200  -28.3370 C   0  0  0  0  0  0  0  0  0  0  0  0
   -3.6890   24.4970  -29.0050 C   0  0  0  0  0  0  0  0  0  0  0  0
   -3.9590   24.5000  -30.4660 N   0  0  0  0  0  0  0  0  0  0  0  0
   -5.1650   25.2870  -30.8130 C   0  0  0  0  0  0  0  0  0  0  0  0
   -6.1280   25.3010  -29.6310 C   0  0  0  0  0  0  0  0  0  0  0  0
   -3.9600   23.1630  -31.1030 C   0  0  0  0  0  0  0  0  0  0  0  0
   -5.3070   22.8440  -31.7650 C   0  0  0  0  0  0  0  0  0  0  0  0
   -5.1120   22.0860  -32.9990 N   0  0  0  0  0  0  0  0  0  0  0  0
   -5.3690   20.6780  -33.0300 C   0  0  0  0  0  0  0  0  0  0  0  0
   -4.3440   19.7980  -33.3500 C   0  0  0  0  0  0  0  0  0  0  0  0
   -4.5600   18.4330  -33.3530 C   0  0  0  0  0  0  0  0  0  0  0  0
   -5.8080   17.8930  -33.1730 N   0  0  0  0  0  0  0  0  0  0  0  0
   -6.0580   16.4810  -33.5100 C   0  0  0  0  0  0  0  0  0  0  0  0
   -6.8320   18.7260  -32.7490 C   0  0  0  0  0  0  0  0  0  0  0  0
   -8.0880   18.2150  -32.3420 C   0  0  0  0  0  0  0  0  0  0  0  0
   -9.1230   19.0720  -31.9650 C   0  0  0  0  0  0  0  0  0  0  0  0
   -8.9350   20.4510  -31.9760 C   0  0  0  0  0  0  0  0  0  0  0  0
   -7.7010   20.9870  -32.3390 C   0  0  0  0  0  0  0  0  0  0  0  0
   -6.6330   20.1430  -32.7010 C   0  0  0  0  0  0  0  0  0  0  0  0
   -3.2720   17.7930  -33.6380 C   0  0  0  0  0  0  0  0  0  0  0  0
   -2.8960   16.4890  -33.5080 N   0  0  0  0  0  0  0  0  0  0  0  0
   -1.5960   16.1330  -33.7250 C   0  0  0  0  0  0  0  0  0  0  0  0
   -0.6280   17.1090  -34.0230 C   0  0  0  0  0  0  0  0  0  0  0  0
   -0.9980   18.4600  -34.0690 C   0  0  0  0  0  0  0  0  0  0  0  0
   -2.3360   18.7850  -33.8610 C   0  0  0  0  0  0  0  0  0  0  0  0
   -2.9290   20.1490  -33.7090 C   0  0  0  0  0  0  0  0  0  0  0  0
   -3.8095   23.2402  -27.2437 H   0  0  0  0  0  0  0  0  0  0  0  0
   -4.7681   22.6526  -28.6445 H   0  0  0  0  0  0  0  0  0  0  0  0
   -2.9800   22.4812  -28.6445 H   0  0  0  0  0  0  0  0  0  0  0  0
   -4.4008   25.1829  -28.5224 H   0  0  0  0  0  0  0  0  0  0  0  0
   -2.6412   24.8072  -28.8793 H   0  0  0  0  0  0  0  0  0  0  0  0
   -4.8707   26.3184  -31.0569 H   0  0  0  0  0  0  0  0  0  0  0  0
   -5.6612   24.8289  -31.6813 H   0  0  0  0  0  0  0  0  0  0  0  0
   -5.5557   25.2927  -28.6917 H   0  0  0  0  0  0  0  0  0  0  0  0
   -6.7485   26.2083  -29.6743 H   0  0  0  0  0  0  0  0  0  0  0  0
   -6.7746   24.4122  -29.6743 H   0  0  0  0  0  0  0  0  0  0  0  0
   -3.1716   23.1340  -31.8696 H   0  0  0  0  0  0  0  0  0  0  0  0
   -3.7799   22.4125  -30.3192 H   0  0  0  0  0  0  0  0  0  0  0  0
   -5.9188   22.2503  -31.0699 H   0  0  0  0  0  0  0  0  0  0  0  0
   -5.8131   23.7899  -32.0084 H   0  0  0  0  0  0  0  0  0  0  0  0
   -4.6400   22.5210  -33.8240 H   0  0  0  0  0  0  0  0  0  0  0  0
   -6.1616   15.8959  -32.5843 H   0  0  0  0  0  0  0  0  0  0  0  0
   -6.9839   16.4029  -34.0987 H   0  0  0  0  0  0  0  0  0  0  0  0
   -5.2152   16.0898  -34.0987 H   0  0  0  0  0  0  0  0  0  0  0  0
   -8.2504   17.1272  -32.3226 H   0  0  0  0  0  0  0  0  0  0  0  0
  -10.0933   18.6550  -31.6573 H   0  0  0  0  0  0  0  0  0  0  0  0
   -9.7628   21.1196  -31.6974 H   0  0  0  0  0  0  0  0  0  0  0  0
   -7.5598   22.0779  -32.3429 H   0  0  0  0  0  0  0  0  0  0  0  0
   -3.5630   15.7510  -33.2010 H   0  0  0  0  0  0  0  0  0  0  0  0
   -1.3032   15.0743  -33.6663 H   0  0  0  0  0  0  0  0  0  0  0  0
    0.4134   16.8136  -34.2188 H   0  0  0  0  0  0  0  0  0  0  0  0
   -0.2508   19.2433  -34.2643 H   0  0  0  0  0  0  0  0  0  0  0  0
   -2.4364   20.7182  -32.9068 H   0  0  0  0  0  0  0  0  0  0  0  0
   -2.8287   20.7922  -34.5957 H   0  0  0  0  0  0  0  0  0  0  0  0
  1  2  1  0
  2  3  1  0
  3  4  1  0
  4  5  1  0
  3  6  1  0
  6  7  1  0
  7  8  1  0
  8  9  1  0
  9 10  2  0
 10 11  1  0
 11 12  2  0
 12 13  1  0
 12 14  1  0
 14 15  2  0
 15 16  1  0
 16 17  2  0
 17 18  1  0
 18 19  2  0
 11 20  1  0
 20 21  2  0
 21 22  1  0
 22 23  2  0
 23 24  1  0
 24 25  2  0
 25 26  1  0
 19  9  1  0
 25 20  1  0
 26 10  1  0
 19 14  1  0
  1 27  1  0
  1 28  1  0
  1 29  1  0
  2 30  1  0
  2 31  1  0
  4 32  1  0
  4 33  1  0
  5 34  1  0
  5 35  1  0
  5 36  1  0
  6 37  1  0
  6 38  1  0
  7 39  1  0
  7 40  1  0
  8 41  1  0
 13 42  1  0
 13 43  1  0
 13 44  1  0
 15 45  1  0
 16 46  1  0
 17 47  1  0
 18 48  1  0
 21 49  1  0
 22 50  1  0
 23 51  1  0
 24 52  1  0
 26 53  1  0
 26 54  1  0
M  CHG  2  12   1  21   1
M  END
>  <UniqueID>  (13) 
13

>  <SMILES>  (13) 
CCN(CC)CCNc1c2c([n+](C)c3ccccc13)-c1[nH+]cccc1C2

>  <Energy>  (13) 
102.73700136289976

>  <Genealogy>  (13) 
CCN(CC)CCNc1c2c([n+](C)c3ccccc13)-c1[nH+]cccc1C2 (protonated)
CCN(CC)CCNc1c2c([n+](C)c3ccccc13)-c1[nH+]cccc1C2 (3D coordinates assigned)
CCN(CC)CCNc1c2c([n+](C)c3ccccc13)-c1[nH+]cccc1C2 (nonaromatic ring conformer: 102.73700136289976 kcal/mol)

>  <smiles>  (13) 
CCN(CC)CCNc1c2c([n+](C)c3ccccc13)-c1ncccc1C2

>  <score_type>  (13) 
oracle

>  <origin>  (13) 
adg

>  <m_score__min__energy>  (13) 
-8.2599999999999998

>  <m_primary>  (13) 
energy

$$$$
13:0
     RDKit          3D

 50 53  0  0  0  0  0  0  0  0999 V2000
   -6.6550   24.9220  -30.1010 C   0  0  0  0  0  0  0  0  0  0  0  0
   -5.3930   25.7010  -30.4560 C   0  0  0  0  0  0  0  0  0  0  0  0
   -4.3610   24.8140  -30.8440 O   0  0  0  0  0  0  0  0  0  0  0  0
   -3.8060   24.1730  -29.7140 C   0  0  0  0  0  0  0  0  0  0  0  0
   -4.2400   22.7100  -29.7040 C   0  0  0  0  0  0  0  0  0  0  0  0
   -3.3200   21.8950  -30.5000 N   0  0  0  0  0  0  0  0  0  0  0  0
   -3.3810   21.5820  -31.8290 C   0  0  0  0  0  0  0  0  0  0  0  0
   -4.4790   22.0030  -32.7810 C   0  0  0  0  0  0  0  0  0  0  0  0
   -5.5100   20.9480  -32.9510 N   0  0  0  0  0  0  0  0  0  0  0  0
   -5.1530   19.7330  -33.4970 C   0  0  0  0  0  0  0  0  0  0  0  0
   -3.9900   19.5500  -33.9540 O   0  0  0  0  0  0  0  0  0  0  0  0
   -6.0770   18.6760  -33.5510 C   0  0  0  0  0  0  0  0  0  0  0  0
   -5.6970   17.3260  -34.0980 C   0  0  0  0  0  0  0  0  0  0  0  0
   -5.1520   17.4510  -35.3640 F   0  0  0  0  0  0  0  0  0  0  0  0
   -4.7650   16.7330  -33.2670 F   0  0  0  0  0  0  0  0  0  0  0  0
   -6.8170   16.5190  -34.1760 F   0  0  0  0  0  0  0  0  0  0  0  0
   -7.3420   18.8800  -33.1100 N   0  0  0  0  0  0  0  0  0  0  0  0
   -7.7430   20.0800  -32.6330 C   0  0  0  0  0  0  0  0  0  0  0  0
   -9.0690   20.2420  -32.2140 C   0  0  0  0  0  0  0  0  0  0  0  0
   -9.5100   21.4810  -31.7500 C   0  0  0  0  0  0  0  0  0  0  0  0
   -8.6320   22.5640  -31.7140 C   0  0  0  0  0  0  0  0  0  0  0  0
   -7.3060   22.4120  -32.1260 C   0  0  0  0  0  0  0  0  0  0  0  0
   -6.8260   21.1570  -32.5710 C   0  0  0  0  0  0  0  0  0  0  0  0
   -2.3510   20.7870  -32.2160 N   0  0  0  0  0  0  0  0  0  0  0  0
   -1.6110   20.6290  -31.1090 C   0  0  0  0  0  0  0  0  0  0  0  0
   -0.4270   19.9100  -30.9610 C   0  0  0  0  0  0  0  0  0  0  0  0
    0.1720   19.8940  -29.6870 C   0  0  0  0  0  0  0  0  0  0  0  0
   -0.4220   20.5880  -28.6090 C   0  0  0  0  0  0  0  0  0  0  0  0
   -1.6200   21.3040  -28.7920 C   0  0  0  0  0  0  0  0  0  0  0  0
   -2.1880   21.3000  -30.0690 C   0  0  0  0  0  0  0  0  0  0  0  0
   -6.7530   24.8615  -29.0070 H   0  0  0  0  0  0  0  0  0  0  0  0
   -7.5329   25.4356  -30.5199 H   0  0  0  0  0  0  0  0  0  0  0  0
   -6.5894   23.9070  -30.5199 H   0  0  0  0  0  0  0  0  0  0  0  0
   -5.6123   26.3880  -31.2866 H   0  0  0  0  0  0  0  0  0  0  0  0
   -5.0634   26.2693  -29.5738 H   0  0  0  0  0  0  0  0  0  0  0  0
   -2.7085   24.2310  -29.7601 H   0  0  0  0  0  0  0  0  0  0  0  0
   -4.1577   24.6693  -28.7975 H   0  0  0  0  0  0  0  0  0  0  0  0
   -4.2455   22.3414  -28.6676 H   0  0  0  0  0  0  0  0  0  0  0  0
   -5.2475   22.6356  -30.1391 H   0  0  0  0  0  0  0  0  0  0  0  0
   -4.9615   22.9094  -32.3864 H   0  0  0  0  0  0  0  0  0  0  0  0
   -4.0208   22.1884  -33.7637 H   0  0  0  0  0  0  0  0  0  0  0  0
   -9.7643   19.3904  -32.2508 H   0  0  0  0  0  0  0  0  0  0  0  0
  -10.5497   21.6040  -31.4126 H   0  0  0  0  0  0  0  0  0  0  0  0
   -8.9857   23.5433  -31.3592 H   0  0  0  0  0  0  0  0  0  0  0  0
   -6.6272   23.2773  -32.1044 H   0  0  0  0  0  0  0  0  0  0  0  0
   -2.1710   20.3850  -33.1630 H   0  0  0  0  0  0  0  0  0  0  0  0
    0.0238   19.3739  -31.8092 H   0  0  0  0  0  0  0  0  0  0  0  0
    1.1080   19.3379  -29.5299 H   0  0  0  0  0  0  0  0  0  0  0  0
    0.0558   20.5686  -27.6184 H   0  0  0  0  0  0  0  0  0  0  0  0
   -2.0921   21.8471  -27.9600 H   0  0  0  0  0  0  0  0  0  0  0  0
  1  2  1  0
  2  3  1  0
  3  4  1  0
  4  5  1  0
  5  6  1  0
  6  7  1  0
  7  8  1  0
  8  9  1  0
  9 10  1  0
 10 11  2  0
 10 12  1  0
 12 13  1  0
 13 14  1  0
 13 15  1  0
 13 16  1  0
 12 17  2  0
 17 18  1  0
 18 19  2  0
 19 20  1  0
 20 21  2  0
 21 22  1  0
 22 23  2  0
  7 24  2  0
 24 25  1  0
 25 26  2  0
 26 27  1  0
 27 28  2  0
 28 29  1  0
 29 30  2  0
 30  6  1  0
 23  9  1  0
 30 25  1  0
 23 18  1  0
  1 31  1  0
  1 32  1  0
  1 33  1  0
  2 34  1  0
  2 35  1  0
  4 36  1  0
  4 37  1  0
  5 38  1  0
  5 39  1  0
  8 40  1  0
  8 41  1  0
 19 42  1  0
 20 43  1  0
 21 44  1  0
 22 45  1  0
 24 46  1  0
 26 47  1  0
 27 48  1  0
 28 49  1  0
 29 50  1  0
M  CHG  1  24   1
M  END
>  <UniqueID>  (14) 
14

>  <SMILES>  (14) 
CCOCCn1c(Cn2c(=O)c(C(F)(F)F)nc3ccccc32)[nH+]c2ccccc21

>  <Energy>  (14) 
98.18641451230259

>  <Genealogy>  (14) 
CCOCCn1c(Cn2c(=O)c(C(F)(F)F)nc3ccccc32)[nH+]c2ccccc21 (protonated)
CCOCCn1c(Cn2c(=O)c(C(F)(F)F)nc3ccccc32)[nH+]c2ccccc21 (3D coordinates assigned)
CCOCCn1c(Cn2c(=O)c(C(F)(F)F)nc3ccccc32)[nH+]c2ccccc21 (optimized conformer: 98.18641451230259 kcal/mol)

>  <smiles>  (14) 
CCOCCn1c(Cn2c(=O)c(C(F)(F)F)nc3ccccc32)nc2ccccc21

>  <score_type>  (14) 
oracle

>  <origin>  (14) 
adg

>  <m_score__min__energy>  (14) 
-8.2400000000000002

>  <m_primary>  (14) 
energy

$$$$
14:0
     RDKit          3D

 45 47  0  0  0  0  0  0  0  0999 V2000
   -0.7870   25.6460  -24.5000 C   0  0  0  0  0  0  0  0  0  0  0  0
   -1.9240   26.4080  -25.1670 C   0  0  0  0  0  0  0  0  0  0  0  0
   -2.6160   25.5490  -26.1230 N   0  0  0  0  0  0  0  0  0  0  0  0
   -2.0750   24.9900  -27.2230 C   0  0  0  0  0  0  0  0  0  0  0  0
   -3.0790   24.3240  -27.9000 C   0  0  0  0  0  0  0  0  0  0  0  0
   -2.9730   23.6410  -29.2240 C   0  0  0  0  0  0  0  0  0  0  0  0
   -3.3800   24.5750  -30.2850 N   0  0  0  0  0  0  0  0  0  0  0  0
   -4.7230   24.3120  -30.8420 C   0  0  2  0  0  0  0  0  0  0  0  0
   -5.7240   25.4360  -30.4640 C   0  0  0  0  0  0  0  0  0  0  0  0
   -7.1150   24.9060  -30.0920 C   0  0  0  0  0  0  0  0  0  0  0  0
   -7.5680   23.7930  -31.0460 C   0  0  0  0  0  0  0  0  0  0  0  0
   -6.5770   22.7050  -31.1260 N   0  0  0  0  0  0  0  0  0  0  0  0
   -6.9510   21.4130  -31.6560 C   0  0  0  0  0  0  0  0  0  0  0  0
   -8.2010   20.8350  -31.3650 C   0  0  0  0  0  0  0  0  0  0  0  0
   -8.5230   19.5850  -31.8950 C   0  0  0  0  0  0  0  0  0  0  0  0
   -7.6090   18.9160  -32.7090 C   0  0  0  0  0  0  0  0  0  0  0  0
   -6.3790   19.5140  -32.9840 C   0  0  0  0  0  0  0  0  0  0  0  0
   -6.0820   20.7330  -32.4590 N   0  0  0  0  0  0  0  0  0  0  0  0
   -5.2480   22.8920  -30.5240 C   0  0  0  0  0  0  0  0  0  0  0  0
   -4.2320   24.5450  -27.1680 C   0  0  0  0  0  0  0  0  0  0  0  0
   -3.9150   25.2910  -26.0940 N   0  0  0  0  0  0  0  0  0  0  0  0
   -0.8906   25.7154  -23.4071 H   0  0  0  0  0  0  0  0  0  0  0  0
   -0.8245   24.5899  -24.8055 H   0  0  0  0  0  0  0  0  0  0  0  0
    0.1755   26.0821  -24.8055 H   0  0  0  0  0  0  0  0  0  0  0  0
   -2.6361   26.7435  -24.3986 H   0  0  0  0  0  0  0  0  0  0  0  0
   -1.5091   27.2760  -25.7003 H   0  0  0  0  0  0  0  0  0  0  0  0
   -1.0201   25.0527  -27.5284 H   0  0  0  0  0  0  0  0  0  0  0  0
   -1.9332   23.3240  -29.3921 H   0  0  0  0  0  0  0  0  0  0  0  0
   -3.6291   22.7582  -29.2376 H   0  0  0  0  0  0  0  0  0  0  0  0
   -2.6800   24.5120  -31.0620 H   0  0  0  0  0  0  0  0  0  0  0  0
   -4.6230   24.3327  -31.9372 H   0  0  0  0  0  0  0  0  0  0  0  0
   -5.3194   25.9900  -29.6041 H   0  0  0  0  0  0  0  0  0  0  0  0
   -5.8445   26.0779  -31.3491 H   0  0  0  0  0  0  0  0  0  0  0  0
   -7.0829   24.5071  -29.0674 H   0  0  0  0  0  0  0  0  0  0  0  0
   -7.8317   25.7371  -30.1672 H   0  0  0  0  0  0  0  0  0  0  0  0
   -8.5216   23.3804  -30.6848 H   0  0  0  0  0  0  0  0  0  0  0  0
   -7.6809   24.2277  -32.0501 H   0  0  0  0  0  0  0  0  0  0  0  0
   -8.9199   21.3657  -30.7235 H   0  0  0  0  0  0  0  0  0  0  0  0
   -9.4977   19.1271  -31.6708 H   0  0  0  0  0  0  0  0  0  0  0  0
   -7.8549   17.9294  -33.1288 H   0  0  0  0  0  0  0  0  0  0  0  0
   -5.6489   18.9993  -33.6259 H   0  0  0  0  0  0  0  0  0  0  0  0
   -5.3200   22.7651  -29.4337 H   0  0  0  0  0  0  0  0  0  0  0  0
   -4.5534   22.1469  -30.9392 H   0  0  0  0  0  0  0  0  0  0  0  0
   -5.2363   24.1742  -27.4208 H   0  0  0  0  0  0  0  0  0  0  0  0
   -4.5780   25.6380  -25.3660 H   0  0  0  0  0  0  0  0  0  0  0  0
  1  2  1  0
  2  3  1  0
  3  4  1  0
  4  5  2  0
  5  6  1  0
  6  7  1  0
  7  8  1  0
  8  9  1  0
  9 10  1  0
 10 11  1  0
 11 12  1  0
 12 13  1  0
 13 14  2  0
 14 15  1  0
 15 16  2  0
 16 17  1  0
 17 18  2  0
 12 19  1  0
  5 20  1  0
 20 21  2  0
 21  3  1  0
 19  8  1  0
 18 13  1  0
  1 22  1  0
  1 23  1  0
  1 24  1  0
  2 25  1  0
  2 26  1  0
  4 27  1  0
  6 28  1  0
  6 29  1  0
  7 30  1  0
  8 31  1  6
  9 32  1  0
  9 33  1  0
 10 34  1  0
 10 35  1  0
 11 36  1  0
 11 37  1  0
 14 38  1  0
 15 39  1  0
 16 40  1  0
 17 41  1  0
 19 42  1  0
 19 43  1  0
 20 44  1  0
 21 45  1  0
M  CHG  1  21   1
M  END
>  <UniqueID>  (15) 
15

>  <SMILES>  (15) 
CCn1cc(CN[C@@H]2CCCN(c3ccccn3)C2)c[nH+]1

>  <Energy>  (15) 
78.56447757047101

>  <Genealogy>  (15) 
CCn1cc(CNC2CCCN(c3ccccn3)C2)c[nH+]1 (protonated)
CCn1cc(CN[C@@H]2CCCN(c3ccccn3)C2)c[nH+]1 (chirality)
CCn1cc(CN[C@@H]2CCCN(c3ccccn3)C2)c[nH+]1 (3D coordinates assigned)
CCn1cc(CN[C@@H]2CCCN(c3ccccn3)C2)c[nH+]1 (nonaromatic ring conformer: 78.56447757047101 kcal/mol)

>  <smiles>  (15) 
CCn1cc(CNC2CCCN(c3ccccn3)C2)cn1

>  <score_type>  (15) 
oracle

>  <origin>  (15) 
adg

>  <m_score__min__energy>  (15) 
-7.3099999999999996

>  <m_primary>  (15) 
energy

$$$$
15:0
     RDKit          3D

 48 49  0  0  0  0  0  0  0  0999 V2000
   -3.8170   22.2830  -29.1620 C   0  0  0  0  0  0  0  0  0  0  0  0
   -3.2050   23.4570  -29.9060 C   0  0  0  0  0  0  0  0  0  0  0  0
   -4.0790   23.8660  -30.9280 O   0  0  0  0  0  0  0  0  0  0  0  0
   -4.2730   25.2010  -30.7510 N   0  0  0  0  0  0  0  0  0  0  0  0
   -5.7130   25.4560  -30.7630 C   0  0  0  0  0  0  0  0  0  0  0  0
   -6.3960   24.6990  -29.6190 C   0  0  0  0  0  0  0  0  0  0  0  0
   -7.1660   23.4820  -30.1510 C   0  0  0  0  0  0  0  0  0  0  0  0
   -7.3180   23.4970  -31.6860 C   0  0  0  0  0  0  0  0  0  0  0  0
   -6.1000   23.0660  -32.4040 N   0  0  0  0  0  0  0  0  0  0  0  0
   -6.0080   21.6230  -32.5310 C   0  0  0  0  0  0  0  0  0  0  0  0
   -7.1750   20.8730  -32.3380 C   0  0  0  0  0  0  0  0  0  0  0  0
   -7.1660   19.4960  -32.4900 C   0  0  0  0  0  0  0  0  0  0  0  0
   -6.0320   18.8260  -32.8500 N   0  0  0  0  0  0  0  0  0  0  0  0
   -6.1490   17.3620  -33.0170 C   0  0  0  0  0  0  0  0  0  0  0  0
   -6.1030   16.9770  -34.4920 C   0  0  0  0  0  0  0  0  0  0  0  0
   -4.8410   19.5110  -33.0150 C   0  0  0  0  0  0  0  0  0  0  0  0
   -3.6370   18.8360  -33.3270 C   0  0  0  0  0  0  0  0  0  0  0  0
   -2.4400   19.5300  -33.4750 C   0  0  0  0  0  0  0  0  0  0  0  0
   -2.4080   20.9080  -33.3200 C   0  0  0  0  0  0  0  0  0  0  0  0
   -3.5720   21.6080  -33.0180 C   0  0  0  0  0  0  0  0  0  0  0  0
   -4.8070   20.9350  -32.8620 C   0  0  0  0  0  0  0  0  0  0  0  0
   -3.7299   22.4501  -28.0783 H   0  0  0  0  0  0  0  0  0  0  0  0
   -4.8786   22.1895  -29.4344 H   0  0  0  0  0  0  0  0  0  0  0  0
   -3.2858   21.3591  -29.4344 H   0  0  0  0  0  0  0  0  0  0  0  0
   -3.0418   24.2903  -29.2068 H   0  0  0  0  0  0  0  0  0  0  0  0
   -2.2423   23.1544  -30.3437 H   0  0  0  0  0  0  0  0  0  0  0  0
   -3.8630   25.6760  -31.5900 H   0  0  0  0  0  0  0  0  0  0  0  0
   -5.8917   26.5346  -30.6422 H   0  0  0  0  0  0  0  0  0  0  0  0
   -6.1299   25.1103  -31.7204 H   0  0  0  0  0  0  0  0  0  0  0  0
   -5.6313   24.3578  -28.9057 H   0  0  0  0  0  0  0  0  0  0  0  0
   -7.1075   25.3766  -29.1243 H   0  0  0  0  0  0  0  0  0  0  0  0
   -6.6256   22.5692  -29.8600 H   0  0  0  0  0  0  0  0  0  0  0  0
   -8.1764   23.5130  -29.7172 H   0  0  0  0  0  0  0  0  0  0  0  0
   -8.1414   22.8214  -31.9608 H   0  0  0  0  0  0  0  0  0  0  0  0
   -7.5158   24.5380  -31.9811 H   0  0  0  0  0  0  0  0  0  0  0  0
   -6.1510   23.4640  -33.3720 H   0  0  0  0  0  0  0  0  0  0  0  0
   -5.2500   23.5060  -31.9940 H   0  0  0  0  0  0  0  0  0  0  0  0
   -8.1097   21.3833  -32.0625 H   0  0  0  0  0  0  0  0  0  0  0  0
   -8.0931   18.9298  -32.3168 H   0  0  0  0  0  0  0  0  0  0  0  0
   -5.3167   16.8718  -32.4907 H   0  0  0  0  0  0  0  0  0  0  0  0
   -7.1129   17.0365  -32.5988 H   0  0  0  0  0  0  0  0  0  0  0  0
   -5.9729   15.8885  -34.5829 H   0  0  0  0  0  0  0  0  0  0  0  0
   -7.0432   17.2759  -34.9785 H   0  0  0  0  0  0  0  0  0  0  0  0
   -5.2596   17.4890  -34.9785 H   0  0  0  0  0  0  0  0  0  0  0  0
   -3.6475   17.7435  -33.4548 H   0  0  0  0  0  0  0  0  0  0  0  0
   -1.5160   18.9839  -33.7157 H   0  0  0  0  0  0  0  0  0  0  0  0
   -1.4579   21.4500  -33.4364 H   0  0  0  0  0  0  0  0  0  0  0  0
   -3.5316   22.7008  -32.8988 H   0  0  0  0  0  0  0  0  0  0  0  0
  1  2  1  0
  2  3  1  0
  3  4  1  0
  4  5  1  0
  5  6  1  0
  6  7  1  0
  7  8  1  0
  8  9  1  0
  9 10  1  0
 10 11  2  0
 11 12  1  0
 12 13  2  0
 13 14  1  0
 14 15  1  0
 13 16  1  0
 16 17  2  0
 17 18  1  0
 18 19  2  0
 19 20  1  0
 20 21  2  0
 21 10  1  0
 21 16  1  0
  1 22  1  0
  1 23  1  0
  1 24  1  0
  2 25  1  0
  2 26  1  0
  4 27  1  0
  5 28  1  0
  5 29  1  0
  6 30  1  0
  6 31  1  0
  7 32  1  0
  7 33  1  0
  8 34  1  0
  8 35  1  0
  9 36  1  0
  9 37  1  0
 11 38  1  0
 12 39  1  0
 14 40  1  0
 14 41  1  0
 15 42  1  0
 15 43  1  0
 15 44  1  0
 17 45  1  0
 18 46  1  0
 19 47  1  0
 20 48  1  0
M  CHG  2   9   1  13   1
M  END
>  <UniqueID>  (16) 
16

>  <SMILES>  (16) 
CCONCCCC[NH2+]c1cc[n+](CC)c2ccccc12

>  <Energy>  (16) 
46.33924089515167

>  <Genealogy>  (16) 
CCONCCCC[NH2+]c1cc[n+](CC)c2ccccc12 (protonated)
CCONCCCC[NH2+]c1cc[n+](CC)c2ccccc12 (3D coordinates assigned)
CCONCCCC[NH2+]c1cc[n+](CC)c2ccccc12 (optimized conformer: 46.33924089515167 kcal/mol)

>  <smiles>  (16) 
CCONCCCCNc1cc[n+](CC)c2ccccc12

>  <score_type>  (16) 
oracle

>  <origin>  (16) 
adg

>  <m_score__min__energy>  (16) 
-7.29

>  <m_primary>  (16) 
energy

$$$$
16:0
     RDKit          3D

 33 34  0  0  0  0  0  0  0  0999 V2000
   -9.1090   19.0110  -31.5390 C   0  0  0  0  0  0  0  0  0  0  0  0
   -7.9610   19.9460  -31.8000 C   0  0  0  0  0  0  0  0  0  0  0  0
   -8.2020   21.3160  -31.9850 C   0  0  0  0  0  0  0  0  0  0  0  0
   -7.1460   22.1960  -32.2270 C   0  0  0  0  0  0  0  0  0  0  0  0
   -5.8260   21.7210  -32.3020 C   0  0  0  0  0  0  0  0  0  0  0  0
   -4.6760   22.6720  -32.5700 C   0  0  0  0  0  0  0  0  0  0  0  0
   -4.5680   23.7750  -31.5870 N   0  0  0  0  0  0  0  0  0  0  0  0
   -3.9290   23.3990  -30.3030 C   0  0  0  0  0  0  0  0  0  0  0  0
   -4.9320   23.4050  -29.1400 C   0  0  0  0  0  0  0  0  0  0  0  0
   -5.5690   24.7280  -28.9700 N   0  0  0  0  0  0  0  0  0  0  0  0
   -5.7200   25.4950  -30.2260 C   0  0  0  0  0  0  0  0  0  0  0  0
   -5.8050   24.5740  -31.4490 C   0  0  0  0  0  0  0  0  0  0  0  0
   -5.5820   20.3560  -32.0860 C   0  0  0  0  0  0  0  0  0  0  0  0
   -6.6360   19.4680  -31.8450 C   0  0  0  0  0  0  0  0  0  0  0  0
   -6.2640   17.7660  -31.5990 Cl  0  0  0  0  0  0  0  0  0  0  0  0
   -9.2494   18.8967  -30.4540 H   0  0  0  0  0  0  0  0  0  0  0  0
  -10.0260   19.4225  -31.9860 H   0  0  0  0  0  0  0  0  0  0  0  0
   -8.8916   18.0297  -31.9860 H   0  0  0  0  0  0  0  0  0  0  0  0
   -9.2319   21.6996  -31.9389 H   0  0  0  0  0  0  0  0  0  0  0  0
   -7.3487   23.2690  -32.3599 H   0  0  0  0  0  0  0  0  0  0  0  0
   -3.7387   22.0966  -32.5494 H   0  0  0  0  0  0  0  0  0  0  0  0
   -4.8659   23.1347  -33.5497 H   0  0  0  0  0  0  0  0  0  0  0  0
   -3.5032   22.3894  -30.4000 H   0  0  0  0  0  0  0  0  0  0  0  0
   -3.1467   24.1401  -30.0820 H   0  0  0  0  0  0  0  0  0  0  0  0
   -5.7133   22.6569  -29.3400 H   0  0  0  0  0  0  0  0  0  0  0  0
   -4.3846   23.1683  -28.2157 H   0  0  0  0  0  0  0  0  0  0  0  0
   -6.5130   24.5890  -28.5400 H   0  0  0  0  0  0  0  0  0  0  0  0
   -5.0000   25.2960  -28.2990 H   0  0  0  0  0  0  0  0  0  0  0  0
   -6.6397   26.0956  -30.1680 H   0  0  0  0  0  0  0  0  0  0  0  0
   -4.8348   26.1375  -30.3427 H   0  0  0  0  0  0  0  0  0  0  0  0
   -6.6624   23.8951  -31.3312 H   0  0  0  0  0  0  0  0  0  0  0  0
   -5.9297   25.1924  -32.3502 H   0  0  0  0  0  0  0  0  0  0  0  0
   -4.5487   19.9793  -32.1064 H   0  0  0  0  0  0  0  0  0  0  0  0
  1  2  1  0
  2  3  2  0
  3  4  1  0
  4  5  2  0
  5  6  1  0
  6  7  1  0
  7  8  1  0
  8  9  1  0
  9 10  1  0
 10 11  1  0
 11 12  1  0
  5 13  1  0
 13 14  2  0
 14 15  1  0
 14  2  1  0
 12  7  1  0
  1 16  1  0
  1 17  1  0
  1 18  1  0
  3 19  1  0
  4 20  1  0
  6 21  1  0
  6 22  1  0
  8 23  1  0
  8 24  1  0
  9 25  1  0
  9 26  1  0
 10 27  1  0
 10 28  1  0
 11 29  1  0
 11 30  1  0
 12 31  1  0
 12 32  1  0
 13 33  1  0
M  CHG  1  10   1
M  END
>  <UniqueID>  (17) 
17

>  <SMILES>  (17) 
Cc1ccc(CN2CC[NH2+]CC2)cc1Cl

>  <Energy>  (17) 
45.03852336327781

>  <Genealogy>  (17) 
Cc1ccc(CN2CC[NH2+]CC2)cc1Cl (protonated)
Cc1ccc(CN2CC[NH2+]CC2)cc1Cl (3D coordinates assigned)
Cc1ccc(CN2CC[NH2+]CC2)cc1Cl (nonaromatic ring conformer: 45.03852336327781 kcal/mol)

>  <smiles>  (17) 
Cc1ccc(CN2CCNCC2)cc1Cl

>  <score_type>  (17) 
oracle

>  <origin>  (17) 
adg

>  <m_score__min__energy>  (17) 
-6.54

>  <m_primary>  (17) 
energy

$$$$
17:0
     RDKit          3D

 45 47  0  0  0  0  0  0  0  0999 V2000
   -9.4110   18.5760  -31.9690 C   0  0  0  0  0  0  0  0  0  0  0  0
   -9.2540   20.0560  -32.2970 C   0  0  0  0  0  0  0  0  0  0  0  0
   -7.7990   20.4220  -32.4300 C   0  0  0  0  0  0  0  0  0  0  0  0
   -6.9500   19.6410  -33.2210 C   0  0  0  0  0  0  0  0  0  0  0  0
   -5.6050   19.9910  -33.3730 C   0  0  0  0  0  0  0  0  0  0  0  0
   -4.6840   19.1150  -34.1810 C   0  0  0  0  0  0  0  0  0  0  0  0
   -4.9510   17.6650  -33.8770 C   0  0  0  0  0  0  0  0  0  0  0  0
   -4.0740   16.9400  -33.0530 C   0  0  0  0  0  0  0  0  0  0  0  0
   -4.3020   15.5850  -32.8030 C   0  0  0  0  0  0  0  0  0  0  0  0
   -5.4010   14.9410  -33.3770 C   0  0  0  0  0  0  0  0  0  0  0  0
   -6.2730   15.6520  -34.2060 C   0  0  0  0  0  0  0  0  0  0  0  0
   -6.0490   17.0090  -34.4600 C   0  0  0  0  0  0  0  0  0  0  0  0
   -5.1050   21.1280  -32.7210 C   0  0  0  0  0  0  0  0  0  0  0  0
   -5.9410   21.9530  -31.9310 C   0  0  0  0  0  0  0  0  0  0  0  0
   -5.4190   23.1450  -31.2620 N   0  0  0  0  0  0  0  0  0  0  0  0
   -6.2710   24.3570  -31.1880 C   0  0  0  0  0  0  0  0  0  0  0  0
   -5.6580   25.5160  -30.3980 C   0  0  0  0  0  0  0  0  0  0  0  0
   -4.2220   25.6010  -30.6380 N   0  0  0  0  0  0  0  0  0  0  0  0
   -3.5910   24.4190  -30.0600 C   0  0  0  0  0  0  0  0  0  0  0  0
   -4.0040   23.1600  -30.8240 C   0  0  0  0  0  0  0  0  0  0  0  0
   -7.2990   21.5740  -31.8020 C   0  0  0  0  0  0  0  0  0  0  0  0
   -9.4252   18.4419  -30.8773 H   0  0  0  0  0  0  0  0  0  0  0  0
  -10.3537   18.2037  -32.3965 H   0  0  0  0  0  0  0  0  0  0  0  0
   -8.5674   18.0142  -32.3965 H   0  0  0  0  0  0  0  0  0  0  0  0
   -9.7685   20.2720  -33.2450 H   0  0  0  0  0  0  0  0  0  0  0  0
   -9.6934   20.6472  -31.4800 H   0  0  0  0  0  0  0  0  0  0  0  0
   -7.3428   18.7464  -33.7263 H   0  0  0  0  0  0  0  0  0  0  0  0
   -4.8533   19.2994  -35.2521 H   0  0  0  0  0  0  0  0  0  0  0  0
   -3.6417   19.3516  -33.9208 H   0  0  0  0  0  0  0  0  0  0  0  0
   -3.2045   17.4415  -32.6030 H   0  0  0  0  0  0  0  0  0  0  0  0
   -3.6149   15.0236  -32.1528 H   0  0  0  0  0  0  0  0  0  0  0  0
   -5.5799   13.8743  -33.1764 H   0  0  0  0  0  0  0  0  0  0  0  0
   -7.1367   15.1436  -34.6594 H   0  0  0  0  0  0  0  0  0  0  0  0
   -6.7339   17.5643  -35.1177 H   0  0  0  0  0  0  0  0  0  0  0  0
   -4.0404   21.3840  -32.8259 H   0  0  0  0  0  0  0  0  0  0  0  0
   -6.4642   24.7044  -32.2137 H   0  0  0  0  0  0  0  0  0  0  0  0
   -7.1868   24.0638  -30.6538 H   0  0  0  0  0  0  0  0  0  0  0  0
   -6.1328   26.4575  -30.7112 H   0  0  0  0  0  0  0  0  0  0  0  0
   -5.8275   25.3415  -29.3252 H   0  0  0  0  0  0  0  0  0  0  0  0
   -3.8630   26.4360  -30.1190 H   0  0  0  0  0  0  0  0  0  0  0  0
   -2.4979   24.5310  -30.1118 H   0  0  0  0  0  0  0  0  0  0  0  0
   -3.9144   24.3206  -29.0132 H   0  0  0  0  0  0  0  0  0  0  0  0
   -3.3669   23.0751  -31.7167 H   0  0  0  0  0  0  0  0  0  0  0  0
   -3.8825   22.3170  -30.1278 H   0  0  0  0  0  0  0  0  0  0  0  0
   -7.9764   22.1949  -31.1973 H   0  0  0  0  0  0  0  0  0  0  0  0
  1  2  1  0
  2  3  1  0
  3  4  2  0
  4  5  1  0
  5  6  1  0
  6  7  1  0
  7  8  2  0
  8  9  1  0
  9 10  2  0
 10 11  1  0
 11 12  2  0
  5 13  2  0
 13 14  1  0
 14 15  1  0
 15 16  1  0
 16 17  1  0
 17 18  1  0
 18 19  1  0
 19 20  1  0
 14 21  2  0
 21  3  1  0
 12  7  1  0
 20 15  1  0
  1 22  1  0
  1 23  1  0
  1 24  1  0
  2 25  1  0
  2 26  1  0
  4 27  1  0
  6 28  1  0
  6 29  1  0
  8 30  1  0
  9 31  1  0
 10 32  1  0
 11 33  1  0
 12 34  1  0
 13 35  1  0
 16 36  1  0
 16 37  1  0
 17 38  1  0
 17 39  1  0
 18 40  1  0
 19 41  1  0
 19 42  1  0
 20 43  1  0
 20 44  1  0
 21 45  1  0
M  END
>  <UniqueID>  (18) 
18

>  <SMILES>  (18) 
CCc1cc(Cc2ccccc2)cc(N2CCNCC2)c1

>  <Energy>  (18) 
47.036617034706744

>  <Genealogy>  (18) 
CCc1cc(Cc2ccccc2)cc(N2CCNCC2)c1 (3D coordinates assigned)
CCc1cc(Cc2ccccc2)cc(N2CCNCC2)c1 (nonaromatic ring conformer: 47.036617034706744 kcal/mol)

>  <smiles>  (18) 
CCc1cc(Cc2ccccc2)cc(N2CCNCC2)c1

>  <score_type>  (18) 
oracle

>  <origin>  (18) 
adg

>  <m_score__min__energy>  (18) 
-8.7400000000000002

>  <m_primary>  (18) 
energy

$$$$
18:0
     RDKit          3D

 56 59  0  0  0  0  0  0  0  0999 V2000
   -0.8610   21.4930  -30.1590 C   0  0  0  0  0  0  0  0  0  0  0  0
   -2.2670   21.1490  -29.6900 C   0  0  0  0  0  0  0  0  0  0  0  0
   -3.1390   22.2110  -30.0180 O   0  0  0  0  0  0  0  0  0  0  0  0
   -3.5770   22.8730  -28.8460 C   0  0  0  0  0  0  0  0  0  0  0  0
   -3.9330   24.3290  -29.1560 C   0  0  0  0  0  0  0  0  0  0  0  0
   -4.2110   24.4870  -30.5350 O   0  0  0  0  0  0  0  0  0  0  0  0
   -5.3380   25.3170  -30.7220 C   0  0  0  0  0  0  0  0  0  0  0  0
   -6.4720   24.5220  -31.3810 C   0  0  0  0  0  0  0  0  0  0  0  0
   -5.9730   23.4270  -32.3420 C   0  0  0  0  0  0  0  0  0  0  0  0
   -5.0750   22.4700  -31.6750 N   0  0  0  0  0  0  0  0  0  0  0  0
   -5.3110   21.1270  -32.1680 C   0  0  0  0  0  0  0  0  0  0  0  0
   -4.2690   20.3900  -32.7420 C   0  0  0  0  0  0  0  0  0  0  0  0
   -4.4580   19.0820  -33.1580 C   0  0  0  0  0  0  0  0  0  0  0  0
   -5.6510   18.4300  -33.0080 N   0  0  0  0  0  0  0  0  0  0  0  0
   -5.7400   16.9890  -33.3050 C   0  0  0  0  0  0  0  0  0  0  0  0
   -6.7520   19.1570  -32.5850 C   0  0  0  0  0  0  0  0  0  0  0  0
   -8.0530   18.5980  -32.6010 C   0  0  0  0  0  0  0  0  0  0  0  0
   -9.1560   19.3280  -32.1640 C   0  0  0  0  0  0  0  0  0  0  0  0
   -9.0010   20.6350  -31.7220 C   0  0  0  0  0  0  0  0  0  0  0  0
   -7.7440   21.2300  -31.7200 C   0  0  0  0  0  0  0  0  0  0  0  0
   -6.6000   20.5180  -32.1450 C   0  0  0  0  0  0  0  0  0  0  0  0
   -3.1980   18.6140  -33.7640 C   0  0  0  0  0  0  0  0  0  0  0  0
   -2.9350   17.4520  -34.4150 N   0  0  0  0  0  0  0  0  0  0  0  0
   -1.7040   17.2510  -34.9720 C   0  0  0  0  0  0  0  0  0  0  0  0
   -0.7150   18.2530  -34.9000 C   0  0  0  0  0  0  0  0  0  0  0  0
   -0.9990   19.4680  -34.2580 C   0  0  0  0  0  0  0  0  0  0  0  0
   -2.2620   19.6220  -33.6940 C   0  0  0  0  0  0  0  0  0  0  0  0
   -2.8800   20.7710  -33.0540 C   0  0  0  0  0  0  0  0  0  0  0  0
   -2.3330   21.8880  -32.8630 O   0  0  0  0  0  0  0  0  0  0  0  0
   -0.2117   21.6519  -29.2854 H   0  0  0  0  0  0  0  0  0  0  0  0
   -0.4640   20.6655  -30.7653 H   0  0  0  0  0  0  0  0  0  0  0  0
   -0.8909   22.4103  -30.7653 H   0  0  0  0  0  0  0  0  0  0  0  0
   -2.6056   20.2280  -30.1871 H   0  0  0  0  0  0  0  0  0  0  0  0
   -2.2659   20.9947  -28.6009 H   0  0  0  0  0  0  0  0  0  0  0  0
   -4.4655   22.3592  -28.4502 H   0  0  0  0  0  0  0  0  0  0  0  0
   -2.7667   22.8547  -28.1023 H   0  0  0  0  0  0  0  0  0  0  0  0
   -4.8197   24.6173  -28.5723 H   0  0  0  0  0  0  0  0  0  0  0  0
   -3.0794   24.9693  -28.8888 H   0  0  0  0  0  0  0  0  0  0  0  0
   -5.6776   25.6953  -29.7465 H   0  0  0  0  0  0  0  0  0  0  0  0
   -5.0618   26.1592  -31.3734 H   0  0  0  0  0  0  0  0  0  0  0  0
   -7.0695   24.0457  -30.5897 H   0  0  0  0  0  0  0  0  0  0  0  0
   -7.0629   25.2328  -31.9773 H   0  0  0  0  0  0  0  0  0  0  0  0
   -6.8416   22.8808  -32.7386 H   0  0  0  0  0  0  0  0  0  0  0  0
   -5.4067   23.9168  -33.1478 H   0  0  0  0  0  0  0  0  0  0  0  0
   -4.0810   22.7410  -31.8400 H   0  0  0  0  0  0  0  0  0  0  0  0
   -5.1950   22.4960  -30.6390 H   0  0  0  0  0  0  0  0  0  0  0  0
   -5.7750   16.4220  -32.3631 H   0  0  0  0  0  0  0  0  0  0  0  0
   -6.6521   16.7902  -33.8868 H   0  0  0  0  0  0  0  0  0  0  0  0
   -4.8593   16.6795  -33.8868 H   0  0  0  0  0  0  0  0  0  0  0  0
   -8.1950   17.5697  -32.9648 H   0  0  0  0  0  0  0  0  0  0  0  0
  -10.1546   18.8667  -32.1691 H   0  0  0  0  0  0  0  0  0  0  0  0
   -9.8760   21.2022  -31.3719 H   0  0  0  0  0  0  0  0  0  0  0  0
   -7.6387   22.2715  -31.3822 H   0  0  0  0  0  0  0  0  0  0  0  0
   -1.4829   16.3008  -35.4802 H   0  0  0  0  0  0  0  0  0  0  0  0
    0.2762   18.0830  -35.3457 H   0  0  0  0  0  0  0  0  0  0  0  0
   -0.2493   20.2710  -34.2024 H   0  0  0  0  0  0  0  0  0  0  0  0
  1  2  1  0
  2  3  1  0
  3  4  1  0
  4  5  1  0
  5  6  1  0
  6  7  1  0
  7  8  1  0
  8  9  1  0
  9 10  1  0
 10 11  1  0
 11 12  2  0
 12 13  1  0
 13 14  2  0
 14 15  1  0
 14 16  1  0
 16 17  2  0
 17 18  1  0
 18 19  2  0
 19 20  1  0
 20 21  2  0
 13 22  1  0
 22 23  2  0
 23 24  1  0
 24 25  2  0
 25 26  1  0
 26 27  2  0
 27 28  1  0
 28 29  2  0
 21 11  1  0
 27 22  1  0
 28 12  1  0
 21 16  1  0
  1 30  1  0
  1 31  1  0
  1 32  1  0
  2 33  1  0
  2 34  1  0
  4 35  1  0
  4 36  1  0
  5 37  1  0
  5 38  1  0
  7 39  1  0
  7 40  1  0
  8 41  1  0
  8 42  1  0
  9 43  1  0
  9 44  1  0
 10 45  1  0
 10 46  1  0
 15 47  1  0
 15 48  1  0
 15 49  1  0
 17 50  1  0
 18 51  1  0
 19 52  1  0
 20 53  1  0
 24 54  1  0
 25 55  1  0
 26 56  1  0
M  CHG  2  10   1  14   1
M  END
>  <UniqueID>  (19) 
19

>  <SMILES>  (19) 
CCOCCOCCC[NH2+]c1c2c([n+](C)c3ccccc13)-c1ncccc1C2=O

>  <Energy>  (19) 
107.3099960089642

>  <Genealogy>  (19) 
CCOCCOCCC[NH2+]c1c2c([n+](C)c3ccccc13)-c1ncccc1C2=O (protonated)
CCOCCOCCC[NH2+]c1c2c([n+](C)c3ccccc13)-c1ncccc1C2=O (3D coordinates assigned)
CCOCCOCCC[NH2+]c1c2c([n+](C)c3ccccc13)-c1ncccc1C2=O (nonaromatic ring conformer: 107.3099960089642 kcal/mol)

>  <smiles>  (19) 
CCOCCOCCCNc1c2c([n+](C)c3ccccc13)-c1ncccc1C2=O

>  <score_type>  (19) 
oracle

>  <origin>  (19) 
adg

>  <m_score__min__energy>  (19) 
-9.1099999999999994

>  <m_primary>  (19) 
energy

$$$$
19:0
     RDKit          3D

 34 35  0  0  0  0  0  0  0  0999 V2000
   -6.5000   25.0550  -29.9240 C   0  0  0  0  0  0  0  0  0  0  0  0
   -4.9930   24.9380  -30.1260 C   0  0  0  0  0  0  0  0  0  0  0  0
   -4.6970   24.0580  -31.2680 N   0  0  0  0  0  0  0  0  0  0  0  0
   -4.0500   22.7990  -30.8620 C   0  0  0  0  0  0  0  0  0  0  0  0
   -3.6850   21.9150  -32.0730 C   0  0  0  0  0  0  0  0  0  0  0  0
   -4.7020   21.9740  -33.1380 N   0  0  0  0  0  0  0  0  0  0  0  0
   -5.7120   20.9440  -32.9780 C   0  0  0  0  0  0  0  0  0  0  0  0
   -5.3870   19.6290  -33.3630 C   0  0  0  0  0  0  0  0  0  0  0  0
   -6.3110   18.5900  -33.2410 C   0  0  0  0  0  0  0  0  0  0  0  0
   -5.8310   16.8200  -33.7730 Br  0  0  0  0  0  0  0  0  0  0  0  0
   -7.5820   18.8430  -32.7330 C   0  0  0  0  0  0  0  0  0  0  0  0
   -7.9430   20.1350  -32.3470 C   0  0  0  0  0  0  0  0  0  0  0  0
   -9.1940   20.3560  -31.8600 N   0  0  0  0  0  0  0  0  0  0  0  0
   -9.6080   21.5880  -31.4750 C   0  0  0  0  0  0  0  0  0  0  0  0
   -8.7460   22.6770  -31.5760 C   0  0  0  0  0  0  0  0  0  0  0  0
   -7.4540   22.4910  -32.0700 C   0  0  0  0  0  0  0  0  0  0  0  0
   -7.0180   21.2070  -32.4660 C   0  0  0  0  0  0  0  0  0  0  0  0
   -6.7254   25.0725  -28.8475 H   0  0  0  0  0  0  0  0  0  0  0  0
   -6.8613   25.9839  -30.3894 H   0  0  0  0  0  0  0  0  0  0  0  0
   -7.0003   24.1930  -30.3894 H   0  0  0  0  0  0  0  0  0  0  0  0
   -4.5743   25.9366  -30.3194 H   0  0  0  0  0  0  0  0  0  0  0  0
   -4.5427   24.5097  -29.2184 H   0  0  0  0  0  0  0  0  0  0  0  0
   -5.5860   23.8500  -31.7810 H   0  0  0  0  0  0  0  0  0  0  0  0
   -3.1307   23.0361  -30.3065 H   0  0  0  0  0  0  0  0  0  0  0  0
   -4.7618   22.2394  -30.2374 H   0  0  0  0  0  0  0  0  0  0  0  0
   -2.7235   22.2573  -32.4833 H   0  0  0  0  0  0  0  0  0  0  0  0
   -3.6259   20.8739  -31.7228 H   0  0  0  0  0  0  0  0  0  0  0  0
   -5.1740   22.9060  -33.0750 H   0  0  0  0  0  0  0  0  0  0  0  0
   -4.2550   21.9640  -34.0800 H   0  0  0  0  0  0  0  0  0  0  0  0
   -4.3863   19.4167  -33.7674 H   0  0  0  0  0  0  0  0  0  0  0  0
   -8.3058   18.0205  -32.6352 H   0  0  0  0  0  0  0  0  0  0  0  0
  -10.6260   21.7277  -31.0824 H   0  0  0  0  0  0  0  0  0  0  0  0
   -9.0815   23.6783  -31.2681 H   0  0  0  0  0  0  0  0  0  0  0  0
   -6.7711   23.3495  -32.1515 H   0  0  0  0  0  0  0  0  0  0  0  0
  1  2  1  0
  2  3  1  0
  3  4  1  0
  4  5  1  0
  5  6  1  0
  6  7  1  0
  7  8  2  0
  8  9  1  0
  9 10  1  0
  9 11  2  0
 11 12  1  0
 12 13  2  0
 13 14  1  0
 14 15  2  0
 15 16  1  0
 16 17  2  0
 17  7  1  0
 17 12  1  0
  1 18  1  0
  1 19  1  0
  1 20  1  0
  2 21  1  0
  2 22  1  0
  3 23  1  0
  4 24  1  0
  4 25  1  0
  5 26  1  0
  5 27  1  0
  6 28  1  0
  6 29  1  0
  8 30  1  0
 11 31  1  0
 14 32  1  0
 15 33  1  0
 16 34  1  0
M  CHG  1   6   1
M  END
>  <UniqueID>  (20) 
20

>  <SMILES>  (20) 
CCNCC[NH2+]c1cc(Br)cc2ncccc12

>  <Energy>  (20) 
39.236299240284744

>  <Genealogy>  (20) 
CCNCC[NH2+]c1cc(Br)cc2ncccc12 (protonated)
CCNCC[NH2+]c1cc(Br)cc2ncccc12 (3D coordinates assigned)
CCNCC[NH2+]c1cc(Br)cc2ncccc12 (optimized conformer: 39.236299240284744 kcal/mol)

>  <smiles>  (20) 
CCNCCNc1cc(Br)cc2ncccc12

>  <score_type>  (20) 
oracle

>  <origin>  (20) 
adg

>  <m_score__min__energy>  (20) 
-7.1399999999999997

>  <m_primary>  (20) 
energy

$$$$
20:0
     RDKit          3D

 69 72  0  0  0  0  0  0  0  0999 V2000
   -0.8840   11.8790  -30.9320 C   0  0  0  0  0  0  0  0  0  0  0  0
   -1.0000   12.8410  -32.1290 C   0  0  0  0  0  0  0  0  0  0  0  0
   -2.4390   12.8100  -32.6690 C   0  0  0  0  0  0  0  0  0  0  0  0
   -0.0480   12.4960  -33.2090 N   0  0  0  0  0  0  0  0  0  0  0  0
   -0.6950   11.7800  -34.3250 C   0  0  0  0  0  0  0  0  0  0  0  0
   -0.4990   12.5230  -35.6540 C   0  0  0  0  0  0  0  0  0  0  0  0
   -0.0670   13.8670  -35.4410 O   0  0  0  0  0  0  0  0  0  0  0  0
   -0.8910   14.9420  -35.0670 C   0  0  0  0  0  0  0  0  0  0  0  0
   -0.5370   15.6850  -33.9360 C   0  0  0  0  0  0  0  0  0  0  0  0
   -1.3280   16.7560  -33.5080 C   0  0  0  0  0  0  0  0  0  0  0  0
   -2.4930   17.1110  -34.2130 C   0  0  0  0  0  0  0  0  0  0  0  0
   -3.3490   18.2370  -33.7650 C   0  0  0  0  0  0  0  0  0  0  0  0
   -2.9350   19.3620  -33.0430 C   0  0  0  0  0  0  0  0  0  0  0  0
   -3.9840   20.2700  -32.7720 C   0  0  0  0  0  0  0  0  0  0  0  0
   -5.2040   19.8290  -33.2550 C   0  0  0  0  0  0  0  0  0  0  0  0
   -5.0100   18.3630  -34.0490 S   0  0  0  0  0  0  0  0  0  0  0  0
   -6.3730   20.5520  -33.0760 C   0  0  0  0  0  0  0  0  0  0  0  0
   -7.6140   20.0690  -33.6010 N   0  0  0  0  0  0  0  0  0  0  0  0
   -8.6550   19.5740  -32.7010 C   0  0  0  0  0  0  0  0  0  0  0  0
   -8.0720   19.1680  -31.3400 C   0  0  0  0  0  0  0  0  0  0  0  0
   -7.5260   17.7910  -31.3720 N   0  0  0  0  0  0  0  0  0  0  0  0
   -7.5570   17.2690  -32.7500 C   0  0  0  0  0  0  0  0  0  0  0  0
   -6.1420   17.7520  -30.8670 C   0  0  0  0  0  0  0  0  0  0  0  0
   -6.3000   21.7480  -32.3370 C   0  0  0  0  0  0  0  0  0  0  0  0
   -7.4630   22.4970  -32.0690 C   0  0  0  0  0  0  0  0  0  0  0  0
   -7.4000   23.6500  -31.2930 C   0  0  0  0  0  0  0  0  0  0  0  0
   -6.1840   24.0670  -30.7560 C   0  0  0  0  0  0  0  0  0  0  0  0
   -6.1230   25.6260  -29.6510 Br  0  0  0  0  0  0  0  0  0  0  0  0
   -5.0160   23.3450  -31.0100 C   0  0  0  0  0  0  0  0  0  0  0  0
   -5.0350   22.1870  -31.8270 C   0  0  0  0  0  0  0  0  0  0  0  0
   -3.8770   21.4750  -32.1150 N   0  0  0  0  0  0  0  0  0  0  0  0
   -2.5500   21.9950  -31.7270 C   0  0  0  0  0  0  0  0  0  0  0  0
   -2.8410   16.3680  -35.3550 C   0  0  0  0  0  0  0  0  0  0  0  0
   -2.0480   15.3000  -35.7830 C   0  0  0  0  0  0  0  0  0  0  0  0
   -0.9529   12.4502  -29.9945 H   0  0  0  0  0  0  0  0  0  0  0  0
   -1.6998   11.1423  -30.9733 H   0  0  0  0  0  0  0  0  0  0  0  0
    0.0836   11.3573  -30.9733 H   0  0  0  0  0  0  0  0  0  0  0  0
   -0.7490   13.8532  -31.7790 H   0  0  0  0  0  0  0  0  0  0  0  0
   -3.1464   12.7948  -31.8268 H   0  0  0  0  0  0  0  0  0  0  0  0
   -2.6195   13.7045  -33.2833 H   0  0  0  0  0  0  0  0  0  0  0  0
   -2.5808   11.9086  -33.2833 H   0  0  0  0  0  0  0  0  0  0  0  0
    0.4090   13.3670  -33.5670 H   0  0  0  0  0  0  0  0  0  0  0  0
    0.6960   11.8720  -32.8160 H   0  0  0  0  0  0  0  0  0  0  0  0
   -0.2557   10.7750  -34.4084 H   0  0  0  0  0  0  0  0  0  0  0  0
   -1.7736   11.7178  -34.1183 H   0  0  0  0  0  0  0  0  0  0  0  0
    0.2583   11.9941  -36.2513 H   0  0  0  0  0  0  0  0  0  0  0  0
   -1.4640   12.5492  -36.1814 H   0  0  0  0  0  0  0  0  0  0  0  0
    0.3737   15.4240  -33.3770 H   0  0  0  0  0  0  0  0  0  0  0  0
   -1.0371   17.3255  -32.6130 H   0  0  0  0  0  0  0  0  0  0  0  0
   -1.8964   19.5237  -32.7186 H   0  0  0  0  0  0  0  0  0  0  0  0
   -7.8160   20.2260  -34.6140 H   0  0  0  0  0  0  0  0  0  0  0  0
   -9.4025   20.3664  -32.5482 H   0  0  0  0  0  0  0  0  0  0  0  0
   -9.1154   18.6863  -33.1592 H   0  0  0  0  0  0  0  0  0  0  0  0
   -7.2648   19.8665  -31.0742 H   0  0  0  0  0  0  0  0  0  0  0  0
   -8.8802   19.2015  -30.5945 H   0  0  0  0  0  0  0  0  0  0  0  0
   -7.6222   16.1712  -32.7249 H   0  0  0  0  0  0  0  0  0  0  0  0
   -8.4325   17.6763  -33.2768 H   0  0  0  0  0  0  0  0  0  0  0  0
   -6.6394   17.5699  -33.2768 H   0  0  0  0  0  0  0  0  0  0  0  0
   -6.1529   17.7523  -29.7671 H   0  0  0  0  0  0  0  0  0  0  0  0
   -5.6454   16.8395  -31.2285 H   0  0  0  0  0  0  0  0  0  0  0  0
   -5.5948   18.6351  -31.2285 H   0  0  0  0  0  0  0  0  0  0  0  0
   -8.4297   22.1670  -32.4771 H   0  0  0  0  0  0  0  0  0  0  0  0
   -8.3127   24.2339  -31.1030 H   0  0  0  0  0  0  0  0  0  0  0  0
   -4.0658   23.6804  -30.5689 H   0  0  0  0  0  0  0  0  0  0  0  0
   -2.4742   22.0247  -30.6300 H   0  0  0  0  0  0  0  0  0  0  0  0
   -1.7661   21.3375  -32.1310 H   0  0  0  0  0  0  0  0  0  0  0  0
   -2.4215   23.0100  -32.1310 H   0  0  0  0  0  0  0  0  0  0  0  0
   -3.7486   16.6307  -35.9183 H   0  0  0  0  0  0  0  0  0  0  0  0
   -2.3298   14.7362  -36.6845 H   0  0  0  0  0  0  0  0  0  0  0  0
  1  2  1  0
  2  3  1  0
  2  4  1  0
  4  5  1  0
  5  6  1  0
  6  7  1  0
  7  8  1  0
  8  9  2  0
  9 10  1  0
 10 11  2  0
 11 12  1  0
 12 13  2  0
 13 14  1  0
 14 15  2  0
 15 16  1  0
 15 17  1  0
 17 18  1  0
 18 19  1  0
 19 20  1  0
 20 21  1  0
 21 22  1  0
 21 23  1  0
 17 24  2  0
 24 25  1  0
 25 26  2  0
 26 27  1  0
 27 28  1  0
 27 29  2  0
 29 30  1  0
 30 31  2  0
 31 32  1  0
 11 33  1  0
 33 34  2  0
 34  8  1  0
 16 12  1  0
 30 24  1  0
 31 14  1  0
  1 35  1  0
  1 36  1  0
  1 37  1  0
  2 38  1  0
  3 39  1  0
  3 40  1  0
  3 41  1  0
  4 42  1  0
  4 43  1  0
  5 44  1  0
  5 45  1  0
  6 46  1  0
  6 47  1  0
  9 48  1  0
 10 49  1  0
 13 50  1  0
 18 51  1  0
 19 52  1  0
 19 53  1  0
 20 54  1  0
 20 55  1  0
 22 56  1  0
 22 57  1  0
 22 58  1  0
 23 59  1  0
 23 60  1  0
 23 61  1  0
 25 62  1  0
 26 63  1  0
 29 64  1  0
 32 65  1  0
 32 66  1  0
 32 67  1  0
 33 68  1  0
 34 69  1  0
M  CHG  2   4   1  31   1
M  END
>  <UniqueID>  (21) 
21

>  <SMILES>  (21) 
CC(C)[NH2+]CCOc1ccc(-c2cc3c(s2)c(NCCN(C)C)c2ccc(Br)cc2[n+]3C)cc1

>  <Energy>  (21) 
116.97264562022343

>  <Genealogy>  (21) 
CC(C)[NH2+]CCOc1ccc(-c2cc3c(s2)c(NCCN(C)C)c2ccc(Br)cc2[n+]3C)cc1 (protonated)
CC(C)[NH2+]CCOc1ccc(-c2cc3c(s2)c(NCCN(C)C)c2ccc(Br)cc2[n+]3C)cc1 (3D coordinates assigned)
CC(C)[NH2+]CCOc1ccc(-c2cc3c(s2)c(NCCN(C)C)c2ccc(Br)cc2[n+]3C)cc1 (optimized conformer: 116.97264562022343 kcal/mol)

>  <smiles>  (21) 
CC(C)NCCOc1ccc(-c2cc3c(s2)c(NCCN(C)C)c2ccc(Br)cc2[n+]3C)cc1

>  <score_type>  (21) 
oracle

>  <origin>  (21) 
adg

>  <m_score__min__energy>  (21) 
-8.75

>  <m_primary>  (21) 
energy

$$$$
21:0
     RDKit          3D

 63 64  0  0  0  0  0  0  0  0999 V2000
   -2.3430   20.3080  -27.9970 C   0  0  0  0  0  0  0  0  0  0  0  0
   -3.1580   21.5730  -27.7110 C   0  0  0  0  0  0  0  0  0  0  0  0
   -2.9440   22.6200  -28.7560 N   0  0  0  0  0  0  0  0  0  0  0  0
   -2.4480   23.9010  -28.1920 C   0  0  0  0  0  0  0  0  0  0  0  0
   -3.3920   24.4750  -27.1250 C   0  0  0  0  0  0  0  0  0  0  0  0
   -2.1230   22.1180  -29.9010 C   0  0  0  0  0  0  0  0  0  0  0  0
   -2.8670   21.3570  -30.9290 N   0  0  0  0  0  0  0  0  0  0  0  0
   -2.1910   21.2540  -32.2240 C   0  0  0  0  0  0  0  0  0  0  0  0
   -2.6080   20.0140  -32.8820 C   0  0  0  0  0  0  0  0  0  0  0  0
   -2.9370   18.9980  -33.4420 C   0  0  0  0  0  0  0  0  0  0  0  0
   -3.3590   17.7730  -34.1260 C   0  0  0  0  0  0  0  0  0  0  0  0
   -4.7530   17.3380  -33.6560 C   0  0  0  0  0  0  0  0  0  0  0  0
   -5.8690   18.2090  -34.2710 C   0  0  0  0  0  0  0  0  0  0  0  0
   -5.7980   19.7010  -33.8860 C   0  0  0  0  0  0  0  0  0  0  0  0
   -7.1500   20.3480  -33.4850 C   0  0  1  0  0  0  0  0  0  0  0  0
   -8.0420   19.4320  -32.6040 C   0  0  2  0  0  0  0  0  0  0  0  0
   -9.4770   19.9860  -32.6280 C   0  0  0  0  0  0  0  0  0  0  0  0
   -9.3630   21.2650  -31.7820 C   0  0  0  0  0  0  0  0  0  0  0  0
   -7.8820   21.2660  -31.3630 C   0  0  1  0  0  0  0  0  0  0  0  0
   -7.6050   19.7900  -31.2020 C   0  0  0  0  0  0  0  0  0  0  0  0
   -7.0180   21.6300  -32.5980 C   0  0  1  0  0  0  0  0  0  0  0  0
   -5.6250   21.8980  -32.2130 N   0  0  0  0  0  0  0  0  0  0  0  0
   -5.4880   23.0430  -30.9030 S   0  0  0  0  0  0  0  0  0  0  0  0
   -6.8450   24.1990  -30.8270 C   0  0  0  0  0  0  0  0  0  0  0  0
   -4.2190   23.8250  -31.0910 O   0  0  0  0  0  0  0  0  0  0  0  0
   -5.4030   22.3010  -29.6000 O   0  0  0  0  0  0  0  0  0  0  0  0
   -2.0430   19.8424  -27.0466 H   0  0  0  0  0  0  0  0  0  0  0  0
   -2.9554   19.6001  -28.5749 H   0  0  0  0  0  0  0  0  0  0  0  0
   -1.4453   20.5730  -28.5749 H   0  0  0  0  0  0  0  0  0  0  0  0
   -4.2258   21.3100  -27.6841 H   0  0  0  0  0  0  0  0  0  0  0  0
   -2.8267   21.9817  -26.7450 H   0  0  0  0  0  0  0  0  0  0  0  0
   -3.8760   22.8460  -29.1830 H   0  0  0  0  0  0  0  0  0  0  0  0
   -1.4623   23.7279  -27.7354 H   0  0  0  0  0  0  0  0  0  0  0  0
   -2.3888   24.6291  -29.0144 H   0  0  0  0  0  0  0  0  0  0  0  0
   -3.0018   24.2377  -26.1243 H   0  0  0  0  0  0  0  0  0  0  0  0
   -3.4585   25.5666  -27.2433 H   0  0  0  0  0  0  0  0  0  0  0  0
   -4.3918   24.0318  -27.2433 H   0  0  0  0  0  0  0  0  0  0  0  0
   -1.6578   22.9858  -30.3914 H   0  0  0  0  0  0  0  0  0  0  0  0
   -1.3973   21.4137  -29.4682 H   0  0  0  0  0  0  0  0  0  0  0  0
   -3.8500   21.6920  -31.0480 H   0  0  0  0  0  0  0  0  0  0  0  0
   -2.4641   22.1147  -32.8521 H   0  0  0  0  0  0  0  0  0  0  0  0
   -1.1012   21.2474  -32.0749 H   0  0  0  0  0  0  0  0  0  0  0  0
   -3.3851   17.9564  -35.2103 H   0  0  0  0  0  0  0  0  0  0  0  0
   -2.6421   16.9729  -33.8896 H   0  0  0  0  0  0  0  0  0  0  0  0
   -4.9165   16.2910  -33.9511 H   0  0  0  0  0  0  0  0  0  0  0  0
   -4.7946   17.4548  -32.5630 H   0  0  0  0  0  0  0  0  0  0  0  0
   -5.8008   18.1327  -35.3662 H   0  0  0  0  0  0  0  0  0  0  0  0
   -6.8207   17.8270  -33.8729 H   0  0  0  0  0  0  0  0  0  0  0  0
   -5.1084   19.7997  -33.0347 H   0  0  0  0  0  0  0  0  0  0  0  0
   -5.4629   20.2323  -34.7890 H   0  0  0  0  0  0  0  0  0  0  0  0
   -7.5808   20.5599  -34.4747 H   0  0  0  0  0  0  0  0  0  0  0  0
   -7.9805   18.3773  -32.9102 H   0  0  0  0  0  0  0  0  0  0  0  0
   -9.7951   20.2175  -33.6552 H   0  0  0  0  0  0  0  0  0  0  0  0
  -10.2244   19.2757  -32.2447 H   0  0  0  0  0  0  0  0  0  0  0  0
   -9.6068   22.1571  -32.3776 H   0  0  0  0  0  0  0  0  0  0  0  0
  -10.0569   21.2860  -30.9288 H   0  0  0  0  0  0  0  0  0  0  0  0
   -7.6847   21.9275  -30.5066 H   0  0  0  0  0  0  0  0  0  0  0  0
   -6.5444   19.5689  -31.0116 H   0  0  0  0  0  0  0  0  0  0  0  0
   -8.0841   19.2643  -30.3629 H   0  0  0  0  0  0  0  0  0  0  0  0
   -7.3397   22.5463  -33.1145 H   0  0  0  0  0  0  0  0  0  0  0  0
   -7.0902   24.4079  -29.7752 H   0  0  0  0  0  0  0  0  0  0  0  0
   -6.5583   25.1346  -31.3295 H   0  0  0  0  0  0  0  0  0  0  0  0
   -7.7231   23.7672  -31.3295 H   0  0  0  0  0  0  0  0  0  0  0  0
  1  2  1  0
  2  3  1  0
  3  4  1  0
  4  5  1  0
  3  6  1  0
  6  7  1  0
  7  8  1  0
  8  9  1  0
  9 10  3  0
 10 11  1  0
 11 12  1  0
 12 13  1  0
 13 14  1  0
 14 15  1  0
 15 16  1  0
 16 17  1  0
 17 18  1  0
 18 19  1  0
 19 20  1  0
 19 21  1  0
 21 22  1  0
 22 23  1  0
 23 24  1  0
 23 25  2  0
 23 26  2  0
 21 15  1  0
 20 16  1  0
  1 27  1  0
  1 28  1  0
  1 29  1  0
  2 30  1  0
  2 31  1  0
  3 32  1  0
  4 33  1  0
  4 34  1  0
  5 35  1  0
  5 36  1  0
  5 37  1  0
  6 38  1  0
  6 39  1  0
  7 40  1  0
  8 41  1  0
  8 42  1  0
 11 43  1  0
 11 44  1  0
 12 45  1  0
 12 46  1  0
 13 47  1  0
 13 48  1  0
 14 49  1  0
 14 50  1  0
 15 51  1  6
 16 52  1  6
 17 53  1  0
 17 54  1  0
 18 55  1  0
 18 56  1  0
 19 57  1  1
 20 58  1  0
 20 59  1  0
 21 60  1  6
 24 61  1  0
 24 62  1  0
 24 63  1  0
M  CHG  2   3   1  22  -1
M  END
>  <UniqueID>  (22) 
22

>  <SMILES>  (22) 
CC[NH+](CC)CNCC#CCCCC[C@@H]1C([N-]S(C)(=O)=O)C2CC[C@@H]1C2

>  <Energy>  (22) 
84.79480007115298

>  <Genealogy>  (22) 
CC[NH+](CC)CNCC#CCCCCC1C2CCC(C2)C1[N-]S(C)(=O)=O (protonated)
CC[NH+](CC)CNCC#CCCCC[C@@H]1C([N-]S(C)(=O)=O)C2CC[C@@H]1C2 (chirality)
CC[NH+](CC)CNCC#CCCCC[C@@H]1C([N-]S(C)(=O)=O)C2CC[C@@H]1C2 (3D coordinates assigned)
CC[NH+](CC)CNCC#CCCCC[C@@H]1C([N-]S(C)(=O)=O)C2CC[C@@H]1C2 (nonaromatic ring conformer: 84.79480007115298 kcal/mol)

>  <smiles>  (22) 
CCN(CC)CNCC#CCCCCC1C2CCC(C2)C1NS(C)(=O)=O

>  <score_type>  (22) 
oracle

>  <origin>  (22) 
adg

>  <m_score__min__energy>  (22) 
-9.1199999999999992

>  <m_primary>  (22) 
energy

$$$$
22:0
     RDKit          3D

 46 48  0  0  0  0  0  0  0  0999 V2000
   -6.9320   17.4930  -32.9830 C   0  0  0  0  0  0  0  0  0  0  0  0
   -8.0100   18.1690  -32.1470 C   0  0  0  0  0  0  0  0  0  0  0  0
   -8.3360   19.4810  -32.7170 N   0  0  0  0  0  0  0  0  0  0  0  0
   -8.8390   20.4120  -31.6920 C   0  0  0  0  0  0  0  0  0  0  0  0
   -8.6310   21.8620  -32.1410 C   0  0  0  0  0  0  0  0  0  0  0  0
   -7.2940   22.3860  -31.7080 C   0  0  0  0  0  0  0  0  0  0  0  0
   -7.0580   23.5640  -31.0070 C   0  0  0  0  0  0  0  0  0  0  0  0
   -5.7260   23.7750  -30.8810 N   0  0  0  0  0  0  0  0  0  0  0  0
   -5.0980   24.8910  -30.1770 C   0  0  0  0  0  0  0  0  0  0  0  0
   -4.9150   24.5460  -28.6970 C   0  0  0  0  0  0  0  0  0  0  0  0
   -3.7310   23.6340  -28.5080 C   0  0  0  0  0  0  0  0  0  0  0  0
   -3.9250   22.3250  -28.0330 C   0  0  0  0  0  0  0  0  0  0  0  0
   -2.8350   21.4610  -27.8860 C   0  0  0  0  0  0  0  0  0  0  0  0
   -1.5480   21.8920  -28.2190 C   0  0  0  0  0  0  0  0  0  0  0  0
   -0.4940   21.0520  -28.0760 F   0  0  0  0  0  0  0  0  0  0  0  0
   -1.3490   23.1870  -28.7060 C   0  0  0  0  0  0  0  0  0  0  0  0
   -2.4350   24.0560  -28.8570 C   0  0  0  0  0  0  0  0  0  0  0  0
   -2.2220   25.3050  -29.3450 F   0  0  0  0  0  0  0  0  0  0  0  0
   -5.1180   22.7350  -31.4920 C   0  0  0  0  0  0  0  0  0  0  0  0
   -3.7470   22.4980  -31.6310 C   0  0  0  0  0  0  0  0  0  0  0  0
   -3.3440   21.3490  -32.3350 C   0  0  0  0  0  0  0  0  0  0  0  0
   -4.3060   20.4710  -32.8830 C   0  0  0  0  0  0  0  0  0  0  0  0
   -3.7380   18.9200  -33.8420 Br  0  0  0  0  0  0  0  0  0  0  0  0
   -5.6790   20.7320  -32.7260 C   0  0  0  0  0  0  0  0  0  0  0  0
   -6.0490   21.8740  -32.0170 C   0  0  0  0  0  0  0  0  0  0  0  0
   -6.1899   17.0277  -32.3176 H   0  0  0  0  0  0  0  0  0  0  0  0
   -7.3908   16.7206  -33.6177 H   0  0  0  0  0  0  0  0  0  0  0  0
   -6.4365   18.2424  -33.6177 H   0  0  0  0  0  0  0  0  0  0  0  0
   -8.9127   17.5405  -32.1390 H   0  0  0  0  0  0  0  0  0  0  0  0
   -7.6403   18.3027  -31.1197 H   0  0  0  0  0  0  0  0  0  0  0  0
   -9.0870   19.3400  -33.4340 H   0  0  0  0  0  0  0  0  0  0  0  0
   -9.9126   20.2318  -31.5339 H   0  0  0  0  0  0  0  0  0  0  0  0
   -8.2864   20.2451  -30.7557 H   0  0  0  0  0  0  0  0  0  0  0  0
   -8.6949   21.9089  -33.2381 H   0  0  0  0  0  0  0  0  0  0  0  0
   -9.4114   22.4822  -31.6760 H   0  0  0  0  0  0  0  0  0  0  0  0
   -7.8405   24.2285  -30.6119 H   0  0  0  0  0  0  0  0  0  0  0  0
   -4.1154   25.0973  -30.6263 H   0  0  0  0  0  0  0  0  0  0  0  0
   -5.7432   25.7779  -30.2619 H   0  0  0  0  0  0  0  0  0  0  0  0
   -4.7522   25.4727  -28.1272 H   0  0  0  0  0  0  0  0  0  0  0  0
   -5.8192   24.0326  -28.3380 H   0  0  0  0  0  0  0  0  0  0  0  0
   -4.9372   21.9793  -27.7762 H   0  0  0  0  0  0  0  0  0  0  0  0
   -2.9911   20.4400  -27.5075 H   0  0  0  0  0  0  0  0  0  0  0  0
   -0.3359   23.5237  -28.9712 H   0  0  0  0  0  0  0  0  0  0  0  0
   -3.0061   23.1892  -31.2028 H   0  0  0  0  0  0  0  0  0  0  0  0
   -2.2728   21.1324  -32.4598 H   0  0  0  0  0  0  0  0  0  0  0  0
   -6.4370   20.0565  -33.1492 H   0  0  0  0  0  0  0  0  0  0  0  0
  1  2  1  0
  2  3  1  0
  3  4  1  0
  4  5  1  0
  5  6  1  0
  6  7  2  0
  7  8  1  0
  8  9  1  0
  9 10  1  0
 10 11  1  0
 11 12  2  0
 12 13  1  0
 13 14  2  0
 14 15  1  0
 14 16  1  0
 16 17  2  0
 17 18  1  0
  8 19  1  0
 19 20  2  0
 20 21  1  0
 21 22  2  0
 22 23  1  0
 22 24  1  0
 24 25  2  0
 25  6  1  0
 17 11  1  0
 25 19  1  0
  1 26  1  0
  1 27  1  0
  1 28  1  0
  2 29  1  0
  2 30  1  0
  3 31  1  0
  4 32  1  0
  4 33  1  0
  5 34  1  0
  5 35  1  0
  7 36  1  0
  9 37  1  0
  9 38  1  0
 10 39  1  0
 10 40  1  0
 12 41  1  0
 13 42  1  0
 16 43  1  0
 20 44  1  0
 21 45  1  0
 24 46  1  0
M  END
>  <UniqueID>  (23) 
23

>  <SMILES>  (23) 
CCNCCc1cn(CCc2ccc(F)cc2F)c2ccc(Br)cc12

>  <Energy>  (23) 
71.40887075332896

>  <Genealogy>  (23) 
CCNCCc1cn(CCc2ccc(F)cc2F)c2ccc(Br)cc12 (3D coordinates assigned)
CCNCCc1cn(CCc2ccc(F)cc2F)c2ccc(Br)cc12 (optimized conformer: 71.40887075332896 kcal/mol)

>  <smiles>  (23) 
CCNCCc1cn(CCc2ccc(F)cc2F)c2ccc(Br)cc12

>  <score_type>  (23) 
oracle

>  <origin>  (23) 
adg

>  <m_score__min__energy>  (23) 
-8.6099999999999994

>  <m_primary>  (23) 
energy

$$$$
23:0
     RDKit          3D

 56 58  0  0  0  0  0  0  0  0999 V2000
   -6.7610   25.1480  -29.7480 C   0  0  0  0  0  0  0  0  0  0  0  0
   -5.6520   24.1650  -30.0160 C   0  0  0  0  0  0  0  0  0  0  0  0
   -4.3490   24.5300  -29.6370 C   0  0  0  0  0  0  0  0  0  0  0  0
   -3.2530   23.7160  -29.9550 C   0  0  0  0  0  0  0  0  0  0  0  0
   -1.9350   24.1220  -29.7010 O   0  0  0  0  0  0  0  0  0  0  0  0
   -1.4400   24.5140  -28.4460 C   0  0  0  0  0  0  0  0  0  0  0  0
   -1.2350   25.8810  -28.2260 C   0  0  0  0  0  0  0  0  0  0  0  0
   -0.7100   26.3370  -27.0160 C   0  0  0  0  0  0  0  0  0  0  0  0
   -0.3940   25.4300  -26.0040 C   0  0  0  0  0  0  0  0  0  0  0  0
    0.1160   25.8760  -24.8310 F   0  0  0  0  0  0  0  0  0  0  0  0
   -0.6230   24.0650  -26.1930 C   0  0  0  0  0  0  0  0  0  0  0  0
   -1.1610   23.5900  -27.4000 C   0  0  0  0  0  0  0  0  0  0  0  0
   -1.4510   22.1410  -27.5250 C   0  0  0  0  0  0  0  0  0  0  0  0
   -2.7770   21.6780  -27.4570 C   0  0  0  0  0  0  0  0  0  0  0  0
   -3.0490   20.3080  -27.4940 C   0  0  0  0  0  0  0  0  0  0  0  0
   -2.0040   19.3900  -27.6130 C   0  0  0  0  0  0  0  0  0  0  0  0
   -0.6840   19.8400  -27.7060 C   0  0  0  0  0  0  0  0  0  0  0  0
    0.6270   18.6850  -27.8420 Cl  0  0  0  0  0  0  0  0  0  0  0  0
   -0.4060   21.2120  -27.6740 C   0  0  0  0  0  0  0  0  0  0  0  0
   -3.4700   22.4810  -30.5630 C   0  0  0  0  0  0  0  0  0  0  0  0
   -4.7550   22.1060  -30.9550 C   0  0  0  0  0  0  0  0  0  0  0  0
   -5.8530   22.9500  -30.7220 C   0  0  0  0  0  0  0  0  0  0  0  0
   -7.4320   22.4750  -31.3770 S   0  0  0  0  0  0  0  0  0  0  0  0
   -8.3650   22.1300  -30.2490 O   0  0  0  0  0  0  0  0  0  0  0  0
   -8.0340   23.6110  -32.1550 O   0  0  0  0  0  0  0  0  0  0  0  0
   -7.2420   21.0350  -32.4200 C   0  0  0  0  0  0  0  0  0  0  0  0
   -8.4560   20.1070  -32.3100 C   0  0  0  0  0  0  0  0  0  0  0  0
   -8.0590   18.6300  -32.4530 C   0  0  0  0  0  0  0  0  0  0  0  0
   -6.5890   18.4680  -32.5010 N   0  0  0  0  0  0  0  0  0  0  0  0
   -6.1600   17.4250  -31.5550 C   0  0  0  0  0  0  0  0  0  0  0  0
   -6.1370   18.1140  -33.8580 C   0  0  0  0  0  0  0  0  0  0  0  0
   -6.8929   25.2649  -28.6622 H   0  0  0  0  0  0  0  0  0  0  0  0
   -6.5043   26.1207  -30.1930 H   0  0  0  0  0  0  0  0  0  0  0  0
   -7.6958   24.7764  -30.1930 H   0  0  0  0  0  0  0  0  0  0  0  0
   -4.1870   25.4667  -29.0836 H   0  0  0  0  0  0  0  0  0  0  0  0
   -1.4904   26.6035  -29.0151 H   0  0  0  0  0  0  0  0  0  0  0  0
   -0.5451   27.4133  -26.8599 H   0  0  0  0  0  0  0  0  0  0  0  0
   -0.3795   23.3554  -25.3886 H   0  0  0  0  0  0  0  0  0  0  0  0
   -3.6044   22.3981  -27.3743 H   0  0  0  0  0  0  0  0  0  0  0  0
   -4.0879   19.9523  -27.4293 H   0  0  0  0  0  0  0  0  0  0  0  0
   -2.2196   18.3115  -27.6336 H   0  0  0  0  0  0  0  0  0  0  0  0
    0.6322   21.5639  -27.7656 H   0  0  0  0  0  0  0  0  0  0  0  0
   -2.6242   21.7989  -30.7345 H   0  0  0  0  0  0  0  0  0  0  0  0
   -4.9102   21.1374  -31.4527 H   0  0  0  0  0  0  0  0  0  0  0  0
   -7.1329   21.3608  -33.4650 H   0  0  0  0  0  0  0  0  0  0  0  0
   -6.3499   20.4819  -32.0909 H   0  0  0  0  0  0  0  0  0  0  0  0
   -8.9297   20.2551  -31.3283 H   0  0  0  0  0  0  0  0  0  0  0  0
   -9.1513   20.3550  -33.1256 H   0  0  0  0  0  0  0  0  0  0  0  0
   -8.4530   18.0687  -31.5929 H   0  0  0  0  0  0  0  0  0  0  0  0
   -8.4802   18.2480  -33.3946 H   0  0  0  0  0  0  0  0  0  0  0  0
   -6.3067   17.7816  -30.5248 H   0  0  0  0  0  0  0  0  0  0  0  0
   -6.7570   16.5153  -31.7166 H   0  0  0  0  0  0  0  0  0  0  0  0
   -5.0957   17.1986  -31.7166 H   0  0  0  0  0  0  0  0  0  0  0  0
   -5.2726   17.4370  -33.7916 H   0  0  0  0  0  0  0  0  0  0  0  0
   -6.9543   17.6133  -34.3977 H   0  0  0  0  0  0  0  0  0  0  0  0
   -5.8467   19.0275  -34.3977 H   0  0  0  0  0  0  0  0  0  0  0  0
  1  2  1  0
  2  3  2  0
  3  4  1  0
  4  5  1  0
  5  6  1  0
  6  7  2  0
  7  8  1  0
  8  9  2  0
  9 10  1  0
  9 11  1  0
 11 12  2  0
 12 13  1  0
 13 14  2  0
 14 15  1  0
 15 16  2  0
 16 17  1  0
 17 18  1  0
 17 19  2  0
  4 20  2  0
 20 21  1  0
 21 22  2  0
 22 23  1  0
 23 24  2  0
 23 25  2  0
 23 26  1  0
 26 27  1  0
 27 28  1  0
 28 29  1  0
 29 30  1  0
 29 31  1  0
 22  2  1  0
 12  6  1  0
 19 13  1  0
  1 32  1  0
  1 33  1  0
  1 34  1  0
  3 35  1  0
  7 36  1  0
  8 37  1  0
 11 38  1  0
 14 39  1  0
 15 40  1  0
 16 41  1  0
 19 42  1  0
 20 43  1  0
 21 44  1  0
 26 45  1  0
 26 46  1  0
 27 47  1  0
 27 48  1  0
 28 49  1  0
 28 50  1  0
 30 51  1  0
 30 52  1  0
 30 53  1  0
 31 54  1  0
 31 55  1  0
 31 56  1  0
M  END
>  <UniqueID>  (24) 
24

>  <SMILES>  (24) 
Cc1cc(Oc2ccc(F)cc2-c2cccc(Cl)c2)ccc1S(=O)(=O)CCCN(C)C

>  <Energy>  (24) 
64.84554822382393

>  <Genealogy>  (24) 
Cc1cc(Oc2ccc(F)cc2-c2cccc(Cl)c2)ccc1S(=O)(=O)CCCN(C)C (3D coordinates assigned)
Cc1cc(Oc2ccc(F)cc2-c2cccc(Cl)c2)ccc1S(=O)(=O)CCCN(C)C (optimized conformer: 64.84554822382393 kcal/mol)

>  <smiles>  (24) 
Cc1cc(Oc2ccc(F)cc2-c2cccc(Cl)c2)ccc1S(=O)(=O)CCCN(C)C

>  <score_type>  (24) 
oracle

>  <origin>  (24) 
adg

>  <m_score__min__energy>  (24) 
-10.26

>  <m_primary>  (24) 
energy

$$$$
