0:0
     RDKit          3D

 49 51  0  0  0  0  0  0  0  0999 V2000
   -3.1420   18.2610  -34.5470 C   0  0  0  0  0  0  0  0  0  0  0  0
   -2.8190   19.5770  -34.1100 O   0  0  0  0  0  0  0  0  0  0  0  0
   -2.4380   19.9150  -32.8000 C   0  0  0  0  0  0  0  0  0  0  0  0
   -1.4050   19.2260  -32.1380 C   0  0  0  0  0  0  0  0  0  0  0  0
   -1.0340   19.5820  -30.8450 C   0  0  0  0  0  0  0  0  0  0  0  0
   -1.6630   20.6450  -30.2040 C   0  0  0  0  0  0  0  0  0  0  0  0
   -2.6850   21.3620  -30.8420 C   0  0  0  0  0  0  0  0  0  0  0  0
   -3.2610   22.4890  -30.1670 N   0  0  0  0  0  0  0  0  0  0  0  0
   -3.5010   22.5780  -28.8440 C   0  0  0  0  0  0  0  0  0  0  0  0
   -3.9920   23.8380  -28.5880 C   0  0  0  0  0  0  0  0  0  0  0  0
   -4.3230   24.4220  -27.2550 C   0  0  0  0  0  0  0  0  0  0  0  0
   -3.9890   24.4880  -29.8060 C   0  0  0  0  0  0  0  0  0  0  0  0
   -3.5350   23.6450  -30.7540 N   0  0  0  0  0  0  0  0  0  0  0  0
   -3.1180   20.9660  -32.1370 C   0  0  0  0  0  0  0  0  0  0  0  0
   -4.2900   21.6490  -32.8210 C   0  0  0  0  0  0  0  0  0  0  0  0
   -5.5820   20.8890  -32.6490 C   0  0  0  0  0  0  0  0  0  0  0  0
   -5.8950   20.0520  -33.5390 O   0  0  0  0  0  0  0  0  0  0  0  0
   -6.4550   21.0700  -31.5070 N   0  0  0  0  0  0  0  0  0  0  0  0
   -7.4490   20.0090  -31.2400 C   0  0  0  0  0  0  0  0  0  0  0  0
   -8.8760   20.3500  -31.7050 C   0  0  0  0  0  0  0  0  0  0  0  0
   -9.3350   21.7620  -31.3020 C   0  0  0  0  0  0  0  0  0  0  0  0
   -8.6090   22.9080  -32.0270 C   0  0  0  0  0  0  0  0  0  0  0  0
   -7.3620   23.4180  -31.2870 C   0  0  0  0  0  0  0  0  0  0  0  0
   -6.4390   22.3160  -30.7140 C   0  0  0  0  0  0  0  0  0  0  0  0
   -3.3011   17.6130  -33.6725 H   0  0  0  0  0  0  0  0  0  0  0  0
   -4.0595   18.2907  -35.1531 H   0  0  0  0  0  0  0  0  0  0  0  0
   -2.3150   17.8626  -35.1531 H   0  0  0  0  0  0  0  0  0  0  0  0
   -0.8868   18.3996  -32.6465 H   0  0  0  0  0  0  0  0  0  0  0  0
   -0.2412   19.0215  -30.3280 H   0  0  0  0  0  0  0  0  0  0  0  0
   -1.3551   20.9257  -29.1860 H   0  0  0  0  0  0  0  0  0  0  0  0
   -3.3341   21.7845  -28.1007 H   0  0  0  0  0  0  0  0  0  0  0  0
   -3.9476   23.7596  -26.4611 H   0  0  0  0  0  0  0  0  0  0  0  0
   -3.8513   25.4113  -27.1607 H   0  0  0  0  0  0  0  0  0  0  0  0
   -5.4141   24.5255  -27.1607 H   0  0  0  0  0  0  0  0  0  0  0  0
   -4.3064   25.5275  -29.9754 H   0  0  0  0  0  0  0  0  0  0  0  0
   -4.4122   22.6543  -32.3915 H   0  0  0  0  0  0  0  0  0  0  0  0
   -4.0691   21.6935  -33.8977 H   0  0  0  0  0  0  0  0  0  0  0  0
   -7.1260   19.0949  -31.7598 H   0  0  0  0  0  0  0  0  0  0  0  0
   -7.4935   19.8851  -30.1479 H   0  0  0  0  0  0  0  0  0  0  0  0
   -8.9121   20.2725  -32.8017 H   0  0  0  0  0  0  0  0  0  0  0  0
   -9.5543   19.6378  -31.2124 H   0  0  0  0  0  0  0  0  0  0  0  0
  -10.4102   21.8470  -31.5183 H   0  0  0  0  0  0  0  0  0  0  0  0
   -9.0971   21.8717  -30.2337 H   0  0  0  0  0  0  0  0  0  0  0  0
   -8.3007   22.5499  -33.0203 H   0  0  0  0  0  0  0  0  0  0  0  0
   -9.3149   23.7497  -32.0836 H   0  0  0  0  0  0  0  0  0  0  0  0
   -6.7724   24.0235  -31.9911 H   0  0  0  0  0  0  0  0  0  0  0  0
   -7.7322   23.9867  -30.4212 H   0  0  0  0  0  0  0  0  0  0  0  0
   -5.4089   22.7011  -30.6896 H   0  0  0  0  0  0  0  0  0  0  0  0
   -6.8126   22.0678  -29.7096 H   0  0  0  0  0  0  0  0  0  0  0  0
  1  2  1  0
  2  3  1  0
  3  4  2  0
  4  5  1  0
  5  6  2  0
  6  7  1  0
  7  8  1  0
  8  9  1  0
  9 10  2  0
 10 11  1  0
 10 12  1  0
 12 13  2  0
  7 14  2  0
 14 15  1  0
 15 16  1  0
 16 17  2  0
 16 18  1  0
 18 19  1  0
 19 20  1  0
 20 21  1  0
 21 22  1  0
 22 23  1  0
 23 24  1  0
 14  3  1  0
 24 18  1  0
 13  8  1  0
  1 25  1  0
  1 26  1  0
  1 27  1  0
  4 28  1  0
  5 29  1  0
  6 30  1  0
  9 31  1  0
 11 32  1  0
 11 33  1  0
 11 34  1  0
 12 35  1  0
 15 36  1  0
 15 37  1  0
 19 38  1  0
 19 39  1  0
 20 40  1  0
 20 41  1  0
 21 42  1  0
 21 43  1  0
 22 44  1  0
 22 45  1  0
 23 46  1  0
 23 47  1  0
 24 48  1  0
 24 49  1  0
M  END
>  <UniqueID>  (1) 
1

>  <SMILES>  (1) 
COc1cccc(-n2cc(C)cn2)c1CC(=O)N1CCCCCC1

>  <Energy>  (1) 
88.05721588793452

>  <Genealogy>  (1) 
COc1cccc(-n2cc(C)cn2)c1CC(=O)N1CCCCCC1 (3D coordinates assigned)
COc1cccc(-n2cc(C)cn2)c1CC(=O)N1CCCCCC1 (nonaromatic ring conformer: 88.05721588793452 kcal/mol)

>  <smiles>  (1) 
COc1cccc(-n2cc(C)cn2)c1CC(=O)N1CCCCCC1

>  <score_type>  (1) 
oracle

>  <origin>  (1) 
adg

>  <m_score__min__energy>  (1) 
-5.4900000000000002

>  <m_primary>  (1) 
energy

$$$$
1:0
     RDKit          3D

 34 36  0  0  0  0  0  0  0  0999 V2000
   -6.7220   25.6570  -29.7080 C   0  0  0  0  0  0  0  0  0  0  0  0
   -5.5430   24.9080  -30.2400 C   0  0  0  0  0  0  0  0  0  0  0  0
   -4.3300   25.4040  -30.3050 O   0  0  0  0  0  0  0  0  0  0  0  0
   -3.4970   24.5470  -30.8200 N   0  0  0  0  0  0  0  0  0  0  0  0
   -4.1980   23.4330  -31.1110 C   0  0  0  0  0  0  0  0  0  0  0  0
   -3.5780   22.2060  -31.6490 C   0  0  0  0  0  0  0  0  0  0  0  0
   -3.7100   21.9080  -33.0160 C   0  0  0  0  0  0  0  0  0  0  0  0
   -3.1440   20.7470  -33.5460 C   0  0  0  0  0  0  0  0  0  0  0  0
   -2.4480   19.8660  -32.7150 C   0  0  0  0  0  0  0  0  0  0  0  0
   -2.3200   20.1450  -31.3530 C   0  0  0  0  0  0  0  0  0  0  0  0
   -2.8840   21.3080  -30.8110 C   0  0  0  0  0  0  0  0  0  0  0  0
   -2.6270   21.6530  -28.9410 Br  0  0  0  0  0  0  0  0  0  0  0  0
   -5.5250   23.6210  -30.7500 C   0  0  0  0  0  0  0  0  0  0  0  0
   -6.6700   22.7070  -30.9390 C   0  0  0  0  0  0  0  0  0  0  0  0
   -7.5430   22.5980  -30.0370 O   0  0  0  0  0  0  0  0  0  0  0  0
   -6.7800   21.9370  -32.1410 N   0  0  0  0  0  0  0  0  0  0  0  0
   -7.1300   20.5490  -32.1920 C   0  0  0  0  0  0  0  0  0  0  0  0
   -6.1130   19.6120  -32.4160 C   0  0  0  0  0  0  0  0  0  0  0  0
   -6.4100   18.2490  -32.4770 C   0  0  0  0  0  0  0  0  0  0  0  0
   -7.7290   17.8130  -32.3350 C   0  0  0  0  0  0  0  0  0  0  0  0
   -8.7560   18.7420  -32.1470 C   0  0  0  0  0  0  0  0  0  0  0  0
   -8.4680   20.1110  -32.0840 C   0  0  0  0  0  0  0  0  0  0  0  0
   -9.8100   21.2440  -31.9690 Cl  0  0  0  0  0  0  0  0  0  0  0  0
   -6.6996   25.6428  -28.6083 H   0  0  0  0  0  0  0  0  0  0  0  0
   -6.6854   26.6978  -30.0621 H   0  0  0  0  0  0  0  0  0  0  0  0
   -7.6486   25.1816  -30.0621 H   0  0  0  0  0  0  0  0  0  0  0  0
   -4.2635   22.5947  -33.6734 H   0  0  0  0  0  0  0  0  0  0  0  0
   -3.2462   20.5259  -34.6187 H   0  0  0  0  0  0  0  0  0  0  0  0
   -2.0007   18.9524  -33.1337 H   0  0  0  0  0  0  0  0  0  0  0  0
   -1.7731   19.4477  -30.7013 H   0  0  0  0  0  0  0  0  0  0  0  0
   -5.0747   19.9519  -32.5445 H   0  0  0  0  0  0  0  0  0  0  0  0
   -5.6040   17.5178  -32.6371 H   0  0  0  0  0  0  0  0  0  0  0  0
   -7.9597   16.7381  -32.3711 H   0  0  0  0  0  0  0  0  0  0  0  0
   -9.7955   18.3962  -32.0480 H   0  0  0  0  0  0  0  0  0  0  0  0
  1  2  1  0
  2  3  1  0
  3  4  1  0
  4  5  2  0
  5  6  1  0
  6  7  2  0
  7  8  1  0
  8  9  2  0
  9 10  1  0
 10 11  2  0
 11 12  1  0
  5 13  1  0
 13 14  1  0
 14 15  2  0
 14 16  1  0
 16 17  1  0
 17 18  2  0
 18 19  1  0
 19 20  2  0
 20 21  1  0
 21 22  2  0
 22 23  1  0
 13  2  2  0
 22 17  1  0
 11  6  1  0
  1 24  1  0
  1 25  1  0
  1 26  1  0
  7 27  1  0
  8 28  1  0
  9 29  1  0
 10 30  1  0
 18 31  1  0
 19 32  1  0
 20 33  1  0
 21 34  1  0
M  CHG  1  16  -1
M  END
>  <UniqueID>  (2) 
2

>  <SMILES>  (2) 
Cc1onc(-c2ccccc2Br)c1C(=O)[N-]c1ccccc1Cl

>  <Energy>  (2) 
80.40055732068437

>  <Genealogy>  (2) 
Cc1onc(-c2ccccc2Br)c1C(=O)[N-]c1ccccc1Cl (protonated)
Cc1onc(-c2ccccc2Br)c1C(=O)[N-]c1ccccc1Cl (3D coordinates assigned)
Cc1onc(-c2ccccc2Br)c1C(=O)[N-]c1ccccc1Cl (optimized conformer: 80.40055732068437 kcal/mol)

>  <smiles>  (2) 
Cc1onc(-c2ccccc2Br)c1C(=O)Nc1ccccc1Cl

>  <score_type>  (2) 
oracle

>  <origin>  (2) 
adg

>  <m_score__min__energy>  (2) 
-9.3200000000000003

>  <m_primary>  (2) 
energy

$$$$
2:0
     RDKit          3D

 34 35  0  0  0  0  0  0  0  0999 V2000
   -5.4110   18.8200  -34.2170 C   0  0  0  0  0  0  0  0  0  0  0  0
   -6.5400   19.1120  -33.2580 C   0  0  0  0  0  0  0  0  0  0  0  0
   -7.2980   18.0130  -32.8310 C   0  0  0  0  0  0  0  0  0  0  0  0
   -8.3660   18.1780  -31.9620 C   0  0  0  0  0  0  0  0  0  0  0  0
   -8.7200   19.4460  -31.5230 C   0  0  0  0  0  0  0  0  0  0  0  0
   -7.9900   20.5840  -31.9190 C   0  0  0  0  0  0  0  0  0  0  0  0
   -8.4980   21.9530  -31.4850 C   0  0  0  0  0  0  0  0  0  0  0  0
   -9.8620   21.9120  -31.2750 F   0  0  0  0  0  0  0  0  0  0  0  0
   -8.2490   22.9250  -32.4390 F   0  0  0  0  0  0  0  0  0  0  0  0
   -7.8600   22.3410  -30.3210 F   0  0  0  0  0  0  0  0  0  0  0  0
   -6.8310   20.4170  -32.7480 C   0  0  0  0  0  0  0  0  0  0  0  0
   -5.9630   21.5440  -33.0620 N   0  0  0  0  0  0  0  0  0  0  0  0
   -4.8250   21.6630  -32.1290 C   0  0  0  0  0  0  0  0  0  0  0  0
   -5.0060   22.7980  -31.1480 C   0  0  0  0  0  0  0  0  0  0  0  0
   -4.5290   22.6690  -29.8310 C   0  0  0  0  0  0  0  0  0  0  0  0
   -4.7150   23.7020  -28.9090 C   0  0  0  0  0  0  0  0  0  0  0  0
   -4.2560   23.5670  -27.6400 F   0  0  0  0  0  0  0  0  0  0  0  0
   -5.3780   24.8710  -29.2920 C   0  0  0  0  0  0  0  0  0  0  0  0
   -5.8550   25.0090  -30.5970 C   0  0  0  0  0  0  0  0  0  0  0  0
   -5.6750   23.9770  -31.5250 C   0  0  0  0  0  0  0  0  0  0  0  0
   -6.1650   24.1230  -32.7820 F   0  0  0  0  0  0  0  0  0  0  0  0
   -4.4991   18.5841  -33.6489 H   0  0  0  0  0  0  0  0  0  0  0  0
   -5.6806   17.9620  -34.8504 H   0  0  0  0  0  0  0  0  0  0  0  0
   -5.2308   19.7011  -34.8504 H   0  0  0  0  0  0  0  0  0  0  0  0
   -7.0421   17.0053  -33.1903 H   0  0  0  0  0  0  0  0  0  0  0  0
   -8.9345   17.3008  -31.6195 H   0  0  0  0  0  0  0  0  0  0  0  0
   -9.5854   19.5646  -30.8544 H   0  0  0  0  0  0  0  0  0  0  0  0
   -5.6020   21.4420  -34.0370 H   0  0  0  0  0  0  0  0  0  0  0  0
   -6.4690   22.4550  -33.0690 H   0  0  0  0  0  0  0  0  0  0  0  0
   -4.7275   20.7220  -31.5677 H   0  0  0  0  0  0  0  0  0  0  0  0
   -3.9226   21.8711  -32.7226 H   0  0  0  0  0  0  0  0  0  0  0  0
   -4.0069   21.7502  -29.5255 H   0  0  0  0  0  0  0  0  0  0  0  0
   -5.5242   25.6832  -28.5647 H   0  0  0  0  0  0  0  0  0  0  0  0
   -6.3738   25.9316  -30.8966 H   0  0  0  0  0  0  0  0  0  0  0  0
  1  2  1  0
  2  3  2  0
  3  4  1  0
  4  5  2  0
  5  6  1  0
  6  7  1  0
  7  8  1  0
  7  9  1  0
  7 10  1  0
  6 11  2  0
 11 12  1  0
 12 13  1  0
 13 14  1  0
 14 15  2  0
 15 16  1  0
 16 17  1  0
 16 18  2  0
 18 19  1  0
 19 20  2  0
 20 21  1  0
 11  2  1  0
 20 14  1  0
  1 22  1  0
  1 23  1  0
  1 24  1  0
  3 25  1  0
  4 26  1  0
  5 27  1  0
 12 28  1  0
 12 29  1  0
 13 30  1  0
 13 31  1  0
 15 32  1  0
 18 33  1  0
 19 34  1  0
M  CHG  1  12   1
M  END
>  <UniqueID>  (3) 
3

>  <SMILES>  (3) 
Cc1cccc(C(F)(F)F)c1[NH2+]Cc1cc(F)ccc1F

>  <Energy>  (3) 
44.07400298654956

>  <Genealogy>  (3) 
Cc1cccc(C(F)(F)F)c1[NH2+]Cc1cc(F)ccc1F (protonated)
Cc1cccc(C(F)(F)F)c1[NH2+]Cc1cc(F)ccc1F (3D coordinates assigned)
Cc1cccc(C(F)(F)F)c1[NH2+]Cc1cc(F)ccc1F (optimized conformer: 44.07400298654956 kcal/mol)

>  <smiles>  (3) 
Cc1cccc(C(F)(F)F)c1NCc1cc(F)ccc1F

>  <score_type>  (3) 
oracle

>  <origin>  (3) 
adg

>  <m_score__min__energy>  (3) 
-6.1399999999999997

>  <m_primary>  (3) 
energy

$$$$
3:0
     RDKit          3D

 44 47  0  0  0  0  0  0  0  0999 V2000
   -4.9760   15.1040  -31.6730 C   0  0  0  0  0  0  0  0  0  0  0  0
   -4.9630   16.0230  -32.8570 C   0  0  0  0  0  0  0  0  0  0  0  0
   -3.9620   15.9320  -33.8510 C   0  0  0  0  0  0  0  0  0  0  0  0
   -3.9390   16.8400  -34.9370 C   0  0  0  0  0  0  0  0  0  0  0  0
   -4.9060   17.8590  -35.0390 C   0  0  0  0  0  0  0  0  0  0  0  0
   -5.8680   17.9250  -34.0370 C   0  0  0  0  0  0  0  0  0  0  0  0
   -6.8710   18.7980  -33.8770 N   0  0  0  0  0  0  0  0  0  0  0  0
   -7.4840   18.4430  -32.7510 N   0  0  0  0  0  0  0  0  0  0  0  0
   -8.6080   19.1710  -32.1670 C   0  0  0  0  0  0  0  0  0  0  0  0
   -8.1110   20.3180  -31.2810 C   0  0  0  0  0  0  0  0  0  0  0  0
   -7.4200   21.4260  -32.1090 C   0  0  0  0  0  0  0  0  0  0  0  0
   -7.5490   22.7860  -31.5360 N   0  0  0  0  0  0  0  0  0  0  0  0
   -7.6190   22.8100  -30.0650 C   0  0  0  0  0  0  0  0  0  0  0  0
   -6.2680   23.2610  -29.5290 C   0  0  0  0  0  0  0  0  0  0  0  0
   -5.6250   23.9920  -30.7040 C   0  0  0  0  0  0  0  0  0  0  0  0
   -4.1230   23.8210  -30.8500 C   0  0  0  0  0  0  0  0  0  0  0  0
   -3.8780   25.1900  -30.6220 O   0  0  0  0  0  0  0  0  0  0  0  0
   -5.2550   25.4470  -30.4720 C   0  0  0  0  0  0  0  0  0  0  0  0
   -6.4730   23.7020  -31.9480 C   0  0  0  0  0  0  0  0  0  0  0  0
   -6.9170   17.3840  -32.1760 N   0  0  0  0  0  0  0  0  0  0  0  0
   -5.8970   17.0520  -32.9900 C   0  0  0  0  0  0  0  0  0  0  0  0
   -4.9676   15.6983  -30.7474 H   0  0  0  0  0  0  0  0  0  0  0  0
   -5.8830   14.4823  -31.7013 H   0  0  0  0  0  0  0  0  0  0  0  0
   -4.0869   14.4569  -31.7013 H   0  0  0  0  0  0  0  0  0  0  0  0
   -3.1935   15.1481  -33.7800 H   0  0  0  0  0  0  0  0  0  0  0  0
   -3.1594   16.7489  -35.7076 H   0  0  0  0  0  0  0  0  0  0  0  0
   -4.9005   18.5726  -35.8761 H   0  0  0  0  0  0  0  0  0  0  0  0
   -7.1200   19.6090  -34.4860 H   0  0  0  0  0  0  0  0  0  0  0  0
   -9.2301   19.5830  -32.9753 H   0  0  0  0  0  0  0  0  0  0  0  0
   -9.1953   18.4763  -31.5485 H   0  0  0  0  0  0  0  0  0  0  0  0
   -8.9692   20.7542  -30.7488 H   0  0  0  0  0  0  0  0  0  0  0  0
   -7.3735   19.9092  -30.5746 H   0  0  0  0  0  0  0  0  0  0  0  0
   -6.3496   21.1836  -32.1832 H   0  0  0  0  0  0  0  0  0  0  0  0
   -7.9225   21.4476  -33.0873 H   0  0  0  0  0  0  0  0  0  0  0  0
   -8.4009   23.5128  -29.7414 H   0  0  0  0  0  0  0  0  0  0  0  0
   -7.8636   21.8086  -29.6811 H   0  0  0  0  0  0  0  0  0  0  0  0
   -6.3947   23.9373  -28.6708 H   0  0  0  0  0  0  0  0  0  0  0  0
   -5.6556   22.4212  -29.1688 H   0  0  0  0  0  0  0  0  0  0  0  0
   -3.6804   23.1635  -30.0873 H   0  0  0  0  0  0  0  0  0  0  0  0
   -3.7265   23.3540  -31.7636 H   0  0  0  0  0  0  0  0  0  0  0  0
   -5.5260   25.8140  -29.4711 H   0  0  0  0  0  0  0  0  0  0  0  0
   -5.7233   26.2217  -31.0970 H   0  0  0  0  0  0  0  0  0  0  0  0
   -6.9022   24.6367  -32.3381 H   0  0  0  0  0  0  0  0  0  0  0  0
   -5.8599   23.2525  -32.7430 H   0  0  0  0  0  0  0  0  0  0  0  0
  1  2  1  0
  2  3  2  0
  3  4  1  0
  4  5  2  0
  5  6  1  0
  6  7  2  0
  7  8  1  0
  8  9  1  0
  9 10  1  0
 10 11  1  0
 11 12  1  0
 12 13  1  0
 13 14  1  0
 14 15  1  0
 15 16  1  0
 16 17  1  0
 17 18  1  0
 15 19  1  0
  8 20  1  0
 20 21  2  0
 21  2  1  0
 21  6  1  0
 19 12  1  0
 18 15  1  0
  1 22  1  0
  1 23  1  0
  1 24  1  0
  3 25  1  0
  4 26  1  0
  5 27  1  0
  7 28  1  0
  9 29  1  0
  9 30  1  0
 10 31  1  0
 10 32  1  0
 11 33  1  0
 11 34  1  0
 13 35  1  0
 13 36  1  0
 14 37  1  0
 14 38  1  0
 16 39  1  0
 16 40  1  0
 18 41  1  0
 18 42  1  0
 19 43  1  0
 19 44  1  0
M  CHG  1   7   1
M  END
>  <UniqueID>  (4) 
4

>  <SMILES>  (4) 
Cc1cccc2[nH+]n(CCCN3CCC4(COC4)C3)nc12

>  <Energy>  (4) 
158.5506714461378

>  <Genealogy>  (4) 
Cc1cccc2[nH+]n(CCCN3CCC4(COC4)C3)nc12 (protonated)
Cc1cccc2[nH+]n(CCCN3CCC4(COC4)C3)nc12 (3D coordinates assigned)
Cc1cccc2[nH+]n(CCCN3CCC4(COC4)C3)nc12 (nonaromatic ring conformer: 158.5506714461378 kcal/mol)

>  <smiles>  (4) 
Cc1cccc2nn(CCCN3CCC4(COC4)C3)nc12

>  <score_type>  (4) 
oracle

>  <origin>  (4) 
adg

>  <m_score__min__energy>  (4) 
-8.6199999999999992

>  <m_primary>  (4) 
energy

$$$$
4:0
     RDKit          3D

 46 50  0  0  0  0  0  0  0  0999 V2000
   -3.0930   17.5700  -34.8450 C   0  0  0  0  0  0  0  0  0  0  0  0
   -3.9650   18.5820  -34.2350 N   0  0  0  0  0  0  0  0  0  0  0  0
   -5.3900   18.5940  -34.5880 C   0  0  0  0  0  0  0  0  0  0  0  0
   -3.4280   19.5530  -33.3000 C   0  0  0  0  0  0  0  0  0  0  0  0
   -2.0430   19.8200  -33.2530 C   0  0  0  0  0  0  0  0  0  0  0  0
   -1.5220   20.7550  -32.3550 C   0  0  0  0  0  0  0  0  0  0  0  0
   -2.3700   21.4420  -31.4860 C   0  0  0  0  0  0  0  0  0  0  0  0
   -1.8610   22.3550  -30.6160 N   0  0  0  0  0  0  0  0  0  0  0  0
   -2.6530   23.0430  -29.7510 C   0  0  0  0  0  0  0  0  0  0  0  0
   -4.0440   22.8170  -29.7350 C   0  0  0  0  0  0  0  0  0  0  0  0
   -4.5910   21.8940  -30.6350 C   0  0  0  0  0  0  0  0  0  0  0  0
   -3.7560   21.1920  -31.5130 C   0  0  0  0  0  0  0  0  0  0  0  0
   -4.2780   20.2530  -32.4180 C   0  0  0  0  0  0  0  0  0  0  0  0
   -4.9360   23.6560  -28.8510 C   0  0  0  0  0  0  0  0  0  0  0  0
   -4.2380   24.0520  -27.5390 C   0  0  0  0  0  0  0  0  0  0  0  0
   -2.8380   24.5520  -27.7810 C   0  0  0  0  0  0  0  0  0  0  0  0
   -2.2730   25.4430  -26.9280 N   0  0  0  0  0  0  0  0  0  0  0  0
   -0.9810   25.8420  -27.0840 C   0  0  0  0  0  0  0  0  0  0  0  0
   -0.3690   26.8290  -26.1530 C   0  0  0  0  0  0  0  0  0  0  0  0
   -0.0780   26.4540  -24.8250 C   0  0  0  0  0  0  0  0  0  0  0  0
    0.4960   27.3670  -23.9360 C   0  0  0  0  0  0  0  0  0  0  0  0
    0.7890   28.6640  -24.3560 C   0  0  0  0  0  0  0  0  0  0  0  0
    0.5090   29.0530  -25.6650 C   0  0  0  0  0  0  0  0  0  0  0  0
   -0.0660   28.1480  -26.5650 C   0  0  0  0  0  0  0  0  0  0  0  0
   -0.3210   28.5710  -27.8290 F   0  0  0  0  0  0  0  0  0  0  0  0
   -0.2490   25.3130  -28.1040 N   0  0  0  0  0  0  0  0  0  0  0  0
   -0.7760   24.4230  -28.9450 N   0  0  0  0  0  0  0  0  0  0  0  0
   -2.0650   24.0170  -28.8170 C   0  0  0  0  0  0  0  0  0  0  0  0
   -2.5941   16.9910  -34.0539 H   0  0  0  0  0  0  0  0  0  0  0  0
   -3.6963   16.8942  -35.4690 H   0  0  0  0  0  0  0  0  0  0  0  0
   -2.3355   18.0668  -35.4690 H   0  0  0  0  0  0  0  0  0  0  0  0
   -5.9952   18.5991  -33.6695 H   0  0  0  0  0  0  0  0  0  0  0  0
   -5.6137   19.4941  -35.1795 H   0  0  0  0  0  0  0  0  0  0  0  0
   -5.6288   17.6978  -35.1795 H   0  0  0  0  0  0  0  0  0  0  0  0
   -1.3641   19.2844  -33.9329 H   0  0  0  0  0  0  0  0  0  0  0  0
   -0.4397   20.9501  -32.3331 H   0  0  0  0  0  0  0  0  0  0  0  0
   -5.6771   21.7204  -30.6522 H   0  0  0  0  0  0  0  0  0  0  0  0
   -5.3610   20.0614  -32.4392 H   0  0  0  0  0  0  0  0  0  0  0  0
   -5.2159   24.5705  -29.3945 H   0  0  0  0  0  0  0  0  0  0  0  0
   -5.8230   23.0572  -28.5969 H   0  0  0  0  0  0  0  0  0  0  0  0
   -4.8210   24.8470  -27.0511 H   0  0  0  0  0  0  0  0  0  0  0  0
   -4.1771   23.1586  -26.9001 H   0  0  0  0  0  0  0  0  0  0  0  0
   -0.3051   25.4327  -24.4854 H   0  0  0  0  0  0  0  0  0  0  0  0
    0.7171   27.0617  -22.9026 H   0  0  0  0  0  0  0  0  0  0  0  0
    1.2412   29.3803  -23.6543 H   0  0  0  0  0  0  0  0  0  0  0  0
    0.7412   30.0771  -25.9926 H   0  0  0  0  0  0  0  0  0  0  0  0
  1  2  1  0
  2  3  1  0
  2  4  1  0
  4  5  2  0
  5  6  1  0
  6  7  2  0
  7  8  1  0
  8  9  2  0
  9 10  1  0
 10 11  2  0
 11 12  1  0
 12 13  2  0
 10 14  1  0
 14 15  1  0
 15 16  1  0
 16 17  2  0
 17 18  1  0
 18 19  1  0
 19 20  2  0
 20 21  1  0
 21 22  2  0
 22 23  1  0
 23 24  2  0
 24 25  1  0
 18 26  2  0
 26 27  1  0
 27 28  2  0
 13  4  1  0
 28 16  1  0
 12  7  1  0
 24 19  1  0
 28  9  1  0
  1 29  1  0
  1 30  1  0
  1 31  1  0
  3 32  1  0
  3 33  1  0
  3 34  1  0
  5 35  1  0
  6 36  1  0
 11 37  1  0
 13 38  1  0
 14 39  1  0
 14 40  1  0
 15 41  1  0
 15 42  1  0
 20 43  1  0
 21 44  1  0
 22 45  1  0
 23 46  1  0
M  END
>  <UniqueID>  (5) 
5

>  <SMILES>  (5) 
CN(C)c1ccc2nc3c(cc2c1)CCc1nc(-c2ccccc2F)nnc1-3

>  <Energy>  (5) 
63.74449140508151

>  <Genealogy>  (5) 
CN(C)c1ccc2nc3c(cc2c1)CCc1nc(-c2ccccc2F)nnc1-3 (3D coordinates assigned)
CN(C)c1ccc2nc3c(cc2c1)CCc1nc(-c2ccccc2F)nnc1-3 (nonaromatic ring conformer: 63.74449140508151 kcal/mol)

>  <smiles>  (5) 
CN(C)c1ccc2nc3c(cc2c1)CCc1nc(-c2ccccc2F)nnc1-3

>  <score_type>  (5) 
oracle

>  <origin>  (5) 
adg

>  <m_score__min__energy>  (5) 
-7.7599999999999998

>  <m_primary>  (5) 
energy

$$$$
5:0
     RDKit          3D

 43 46  0  0  1  0  0  0  0  0999 V2000
   -7.8480   19.2020  -32.2990 C   0  0  0  0  0  0  0  0  0  0  0  0
   -7.4020   19.9520  -33.3650 C   0  0  0  0  0  0  0  0  0  0  0  0
   -6.0940   19.9040  -33.7970 C   0  0  0  0  0  0  0  0  0  0  0  0
   -5.1670   19.0810  -33.1570 C   0  0  0  0  0  0  0  0  0  0  0  0
   -3.7490   19.0200  -33.6150 C   0  0  0  0  0  0  0  0  0  0  0  0
   -3.2150   20.3360  -33.8520 N   0  0  0  0  0  0  0  0  0  0  0  0
   -3.1780   21.1610  -32.8600 C   0  0  0  0  0  0  0  0  0  0  0  0
   -4.2070   22.0400  -32.7460 N   0  0  0  0  0  0  0  0  0  0  0  0
   -4.2300   22.9330  -31.7260 C   0  0  0  0  0  0  0  0  0  0  0  0
   -5.1960   23.7820  -31.5910 N   0  0  0  0  0  0  0  0  0  0  0  0
   -6.5200   23.2440  -31.4450 C   0  0  0  0  0  0  0  0  0  0  0  0
   -7.4380   23.5930  -32.4140 C   0  0  0  0  0  0  0  0  0  0  0  0
   -8.7280   23.1180  -32.3440 C   0  0  0  0  0  0  0  0  0  0  0  0
   -9.0520   22.2900  -31.2790 C   0  0  0  0  0  0  0  0  0  0  0  0
   -8.1260   21.9400  -30.3060 C   0  0  0  0  0  0  0  0  0  0  0  0
   -6.8370   22.4220  -30.3860 C   0  0  0  0  0  0  0  0  0  0  0  0
   -3.2140   22.9750  -30.7800 C   0  0  0  0  0  0  0  0  0  0  0  0
   -3.2170   23.8740  -29.7350 C   0  0  0  0  0  0  0  0  0  0  0  0
   -2.1710   23.8560  -28.8330 C   0  0  0  0  0  0  0  0  0  0  0  0
   -1.1250   22.9420  -28.9730 C   0  0  0  0  0  0  0  0  0  0  0  0
   -1.1470   22.0530  -30.0270 C   0  0  0  0  0  0  0  0  0  0  0  0
   -2.1790   22.0710  -30.9170 C   0  0  0  0  0  0  0  0  0  0  0  0
   -2.1850   21.1880  -31.9520 N   0  0  0  0  0  0  0  0  0  0  0  0
   -5.6350   18.3410  -32.0980 C   0  0  0  0  0  0  0  0  0  0  0  0
   -6.9400   18.3780  -31.6530 C   0  0  0  0  0  0  0  0  0  0  0  0
   -8.8961   19.2557  -31.9696 H   0  0  0  0  0  0  0  0  0  0  0  0
   -8.1120   20.6098  -33.8878 H   0  0  0  0  0  0  0  0  0  0  0  0
   -5.7787   20.5191  -34.6527 H   0  0  0  0  0  0  0  0  0  0  0  0
   -3.1446   18.5227  -32.8421 H   0  0  0  0  0  0  0  0  0  0  0  0
   -3.7149   18.4579  -34.5599 H   0  0  0  0  0  0  0  0  0  0  0  0
   -5.0010   22.0360  -33.4520 H   0  0  0  0  0  0  0  0  0  0  0  0
   -7.1388   24.2512  -33.2430 H   0  0  0  0  0  0  0  0  0  0  0  0
   -9.4755   23.3854  -33.1054 H   0  0  0  0  0  0  0  0  0  0  0  0
  -10.0769   21.8978  -31.2031 H   0  0  0  0  0  0  0  0  0  0  0  0
   -8.4193   21.2813  -29.4753 H   0  0  0  0  0  0  0  0  0  0  0  0
   -6.0849   22.1584  -29.6278 H   0  0  0  0  0  0  0  0  0  0  0  0
   -4.0400   24.5949  -29.6211 H   0  0  0  0  0  0  0  0  0  0  0  0
   -2.1621   24.5693  -27.9956 H   0  0  0  0  0  0  0  0  0  0  0  0
   -0.2943   22.9311  -28.2521 H   0  0  0  0  0  0  0  0  0  0  0  0
   -0.3294   21.3274  -30.1497 H   0  0  0  0  0  0  0  0  0  0  0  0
   -1.3920   20.5150  -32.0330 H   0  0  0  0  0  0  0  0  0  0  0  0
   -4.9278   17.6807  -31.5747 H   0  0  0  0  0  0  0  0  0  0  0  0
   -7.2555   17.7624  -30.7977 H   0  0  0  0  0  0  0  0  0  0  0  0
  1  2  2  0
  2  3  1  0
  3  4  2  0
  4  5  1  0
  5  6  1  0
  6  7  2  0
  7  8  1  0
  8  9  1  0
  9 10  2  0
 10 11  1  0
 11 12  2  0
 12 13  1  0
 13 14  2  0
 14 15  1  0
 15 16  2  0
  9 17  1  0
 17 18  2  0
 18 19  1  0
 19 20  2  0
 20 21  1  0
 21 22  2  0
 22 23  1  0
  4 24  1  0
 24 25  2  0
 25  1  1  0
 23  7  1  0
 16 11  1  0
 22 17  1  0
  1 26  1  0
  2 27  1  0
  3 28  1  0
  5 29  1  0
  5 30  1  0
  8 31  1  0
 12 32  1  0
 13 33  1  0
 14 34  1  0
 15 35  1  0
 16 36  1  0
 18 37  1  0
 19 38  1  0
 20 39  1  0
 21 40  1  0
 23 41  1  0
 24 42  1  0
 25 43  1  0
M  END
>  <smiles>  (6) 
c1ccc(CN=c2[nH]c(=Nc3ccccc3)c3ccccc3[nH]2)cc1

>  <score_type>  (6) 
oracle

>  <origin>  (6) 
adg

>  <m_score__min__energy>  (6) 
-8.9600000000000009

>  <m_primary>  (6) 
energy

$$$$
6:0
     RDKit          3D

 22 23  0  0  0  0  0  0  0  0999 V2000
   -6.1180   25.4690  -29.4170 C   0  0  0  0  0  0  0  0  0  0  0  0
   -6.2720   24.4750  -30.4710 N   0  0  0  0  0  0  0  0  0  0  0  0
   -5.7290   24.5460  -31.6760 N   0  0  0  0  0  0  0  0  0  0  0  0
   -6.0360   23.4400  -32.3400 N   0  0  0  0  0  0  0  0  0  0  0  0
   -6.7600   22.6310  -31.5760 N   0  0  0  0  0  0  0  0  0  0  0  0
   -7.2650   21.3400  -31.9650 C   0  0  0  0  0  0  0  0  0  0  0  0
   -6.3770   20.3280  -32.3730 C   0  0  0  0  0  0  0  0  0  0  0  0
   -6.8610   19.0710  -32.7480 C   0  0  0  0  0  0  0  0  0  0  0  0
   -8.2330   18.8080  -32.7130 C   0  0  0  0  0  0  0  0  0  0  0  0
   -9.1230   19.8030  -32.3030 C   0  0  0  0  0  0  0  0  0  0  0  0
   -8.6440   21.0630  -31.9280 C   0  0  0  0  0  0  0  0  0  0  0  0
   -6.8990   23.2880  -30.4080 C   0  0  0  0  0  0  0  0  0  0  0  0
   -7.5440   22.8690  -29.4100 O   0  0  0  0  0  0  0  0  0  0  0  0
   -6.1941   24.9777  -28.4357 H   0  0  0  0  0  0  0  0  0  0  0  0
   -5.1343   25.9524  -29.5097 H   0  0  0  0  0  0  0  0  0  0  0  0
   -6.9094   26.2274  -29.5097 H   0  0  0  0  0  0  0  0  0  0  0  0
   -5.7200   23.2330  -33.3140 H   0  0  0  0  0  0  0  0  0  0  0  0
   -5.2954   20.5268  -32.3971 H   0  0  0  0  0  0  0  0  0  0  0  0
   -6.1601   18.2873  -33.0713 H   0  0  0  0  0  0  0  0  0  0  0  0
   -8.6116   17.8183  -33.0081 H   0  0  0  0  0  0  0  0  0  0  0  0
  -10.2029   19.5957  -32.2748 H   0  0  0  0  0  0  0  0  0  0  0  0
   -9.3496   21.8415  -31.6024 H   0  0  0  0  0  0  0  0  0  0  0  0
  1  2  1  0
  2  3  1  0
  3  4  2  0
  4  5  1  0
  5  6  1  0
  6  7  2  0
  7  8  1  0
  8  9  2  0
  9 10  1  0
 10 11  2  0
  5 12  1  0
 12 13  2  0
 12  2  1  0
 11  6  1  0
  1 14  1  0
  1 15  1  0
  1 16  1  0
  4 17  1  0
  7 18  1  0
  8 19  1  0
  9 20  1  0
 10 21  1  0
 11 22  1  0
M  CHG  1   4   1
M  END
>  <UniqueID>  (7) 
6

>  <SMILES>  (7) 
Cn1n[nH+]n(-c2ccccc2)c1=O

>  <Energy>  (7) 
70.2282419320711

>  <Genealogy>  (7) 
Cn1n[nH+]n(-c2ccccc2)c1=O (protonated)
Cn1n[nH+]n(-c2ccccc2)c1=O (3D coordinates assigned)
Cn1n[nH+]n(-c2ccccc2)c1=O (optimized conformer: 70.2282419320711 kcal/mol)

>  <smiles>  (7) 
Cn1nnn(-c2ccccc2)c1=O

>  <score_type>  (7) 
oracle

>  <origin>  (7) 
adg

>  <m_score__min__energy>  (7) 
-5.8799999999999999

>  <m_primary>  (7) 
energy

$$$$
7:0
     RDKit          3D

 30 31  0  0  0  0  0  0  0  0999 V2000
   -6.9740   22.9580  -30.6110 C   0  0  0  0  0  0  0  0  0  0  0  0
   -6.4540   24.3450  -30.9720 C   0  0  0  0  0  0  0  0  0  0  0  0
   -5.1880   24.6440  -30.2280 C   0  0  0  0  0  0  0  0  0  0  0  0
   -4.2560   25.2550  -30.8180 O   0  0  0  0  0  0  0  0  0  0  0  0
   -5.0110   24.1570  -28.8880 N   0  0  0  0  0  0  0  0  0  0  0  0
   -3.9160   24.5280  -28.0330 C   0  0  0  0  0  0  0  0  0  0  0  0
   -4.1280   24.9390  -26.7060 C   0  0  0  0  0  0  0  0  0  0  0  0
   -3.0480   25.2720  -25.8850 C   0  0  0  0  0  0  0  0  0  0  0  0
   -1.7290   25.1880  -26.3710 C   0  0  0  0  0  0  0  0  0  0  0  0
   -0.6010   25.5150  -25.5850 C   0  0  0  0  0  0  0  0  0  0  0  0
   -0.7290   25.9870  -24.1600 C   0  0  0  0  0  0  0  0  0  0  0  0
    0.6730   25.3910  -26.1550 C   0  0  0  0  0  0  0  0  0  0  0  0
    0.7960   24.9530  -27.4740 C   0  0  0  0  0  0  0  0  0  0  0  0
    1.9370   24.8380  -27.9950 O   0  0  0  0  0  0  0  0  0  0  0  0
   -0.2830   24.6540  -28.1880 O   0  0  0  0  0  0  0  0  0  0  0  0
   -1.5160   24.7520  -27.7000 C   0  0  0  0  0  0  0  0  0  0  0  0
   -2.6040   24.4190  -28.5140 C   0  0  0  0  0  0  0  0  0  0  0  0
   -7.0129   22.8544  -29.5166 H   0  0  0  0  0  0  0  0  0  0  0  0
   -7.9831   22.8248  -31.0280 H   0  0  0  0  0  0  0  0  0  0  0  0
   -6.3012   22.1942  -31.0280 H   0  0  0  0  0  0  0  0  0  0  0  0
   -6.2563   24.3868  -32.0533 H   0  0  0  0  0  0  0  0  0  0  0  0
   -7.2129   25.0914  -30.6947 H   0  0  0  0  0  0  0  0  0  0  0  0
   -5.6730   23.4230  -28.5470 H   0  0  0  0  0  0  0  0  0  0  0  0
   -5.1527   24.9990  -26.3106 H   0  0  0  0  0  0  0  0  0  0  0  0
   -3.2292   25.6022  -24.8515 H   0  0  0  0  0  0  0  0  0  0  0  0
   -0.5034   25.1551  -23.4765 H   0  0  0  0  0  0  0  0  0  0  0  0
   -0.0217   26.8103  -23.9815 H   0  0  0  0  0  0  0  0  0  0  0  0
   -1.7554   26.3402  -23.9815 H   0  0  0  0  0  0  0  0  0  0  0  0
    1.5695   25.6371  -25.5670 H   0  0  0  0  0  0  0  0  0  0  0  0
   -2.4281   24.0682  -29.5416 H   0  0  0  0  0  0  0  0  0  0  0  0
  1  2  1  0
  2  3  1  0
  3  4  2  0
  3  5  1  0
  5  6  1  0
  6  7  2  0
  7  8  1  0
  8  9  2  0
  9 10  1  0
 10 11  1  0
 10 12  2  0
 12 13  1  0
 13 14  2  0
 13 15  1  0
 15 16  1  0
 16 17  2  0
 17  6  1  0
 16  9  1  0
  1 18  1  0
  1 19  1  0
  1 20  1  0
  2 21  1  0
  2 22  1  0
  5 23  1  0
  7 24  1  0
  8 25  1  0
 11 26  1  0
 11 27  1  0
 11 28  1  0
 12 29  1  0
 17 30  1  0
M  END
>  <UniqueID>  (8) 
7

>  <SMILES>  (8) 
CCC(=O)Nc1ccc2c(C)cc(=O)oc2c1

>  <Energy>  (8) 
34.57375088596789

>  <Genealogy>  (8) 
CCC(=O)Nc1ccc2c(C)cc(=O)oc2c1 (3D coordinates assigned)
CCC(=O)Nc1ccc2c(C)cc(=O)oc2c1 (optimized conformer: 34.57375088596789 kcal/mol)

>  <smiles>  (8) 
CCC(=O)Nc1ccc2c(C)cc(=O)oc2c1

>  <score_type>  (8) 
oracle

>  <origin>  (8) 
adg

>  <m_score__min__energy>  (8) 
-7.0300000000000002

>  <m_primary>  (8) 
energy

$$$$
8:0
     RDKit          3D

 39 41  0  0  0  0  0  0  0  0999 V2000
   -5.2313   24.0952  -32.7906 H   0  0  0  0  0  0  0  0  0  0  0  0
   -5.4420   23.3310  -32.0280 C   0  0  0  0  0  0  0  0  0  0  0  0
   -6.6300   22.7100  -32.0830 C   0  0  0  0  0  0  0  0  0  0  0  0
   -7.5331   23.3203  -31.9348 H   0  0  0  0  0  0  0  0  0  0  0  0
   -6.8120   21.2560  -32.3300 C   0  0  0  0  0  0  0  0  0  0  0  0
   -5.8780   20.5760  -33.1290 C   0  0  0  0  0  0  0  0  0  0  0  0
   -5.0335   21.1229  -33.5736 H   0  0  0  0  0  0  0  0  0  0  0  0
   -6.0210   19.2070  -33.3590 C   0  0  0  0  0  0  0  0  0  0  0  0
   -5.1100   18.5140  -34.1720 C   0  0  0  0  0  0  0  0  0  0  0  0
   -4.2715   19.0515  -34.6389 H   0  0  0  0  0  0  0  0  0  0  0  0
   -5.2670   17.1420  -34.3890 C   0  0  0  0  0  0  0  0  0  0  0  0
   -4.5518   16.6021  -35.0270 H   0  0  0  0  0  0  0  0  0  0  0  0
   -6.3310   16.4540  -33.7970 C   0  0  0  0  0  0  0  0  0  0  0  0
   -6.4513   15.3745  -33.9706 H   0  0  0  0  0  0  0  0  0  0  0  0
   -7.2420   17.1360  -32.9850 C   0  0  0  0  0  0  0  0  0  0  0  0
   -8.0776   16.5922  -32.5201 H   0  0  0  0  0  0  0  0  0  0  0  0
   -7.0920   18.5140  -32.7620 C   0  0  0  0  0  0  0  0  0  0  0  0
   -7.9910   19.2160  -31.9500 C   0  0  0  0  0  0  0  0  0  0  0  0
   -8.8217   18.6785  -31.4694 H   0  0  0  0  0  0  0  0  0  0  0  0
   -7.8500   20.5630  -31.7460 N   0  0  0  0  0  0  0  0  0  0  0  0
   -8.8250   21.2530  -30.8900 C   0  0  0  0  0  0  0  0  0  0  0  0
   -8.5752   21.0762  -29.8334 H   0  0  0  0  0  0  0  0  0  0  0  0
   -8.7960   22.3328  -31.0979 H   0  0  0  0  0  0  0  0  0  0  0  0
   -9.8337   20.8665  -31.0979 H   0  0  0  0  0  0  0  0  0  0  0  0
   -4.3920   23.0640  -31.0160 C   0  0  0  0  0  0  0  0  0  0  0  0
   -4.0170   21.7440  -30.7040 C   0  0  0  0  0  0  0  0  0  0  0  0
   -4.5154   20.9016  -31.2060 H   0  0  0  0  0  0  0  0  0  0  0  0
   -3.0170   21.4960  -29.7620 C   0  0  0  0  0  0  0  0  0  0  0  0
   -2.7400   20.4609  -29.5134 H   0  0  0  0  0  0  0  0  0  0  0  0
   -2.3690   22.5610  -29.1360 C   0  0  0  0  0  0  0  0  0  0  0  0
   -1.5858   22.3641  -28.3891 H   0  0  0  0  0  0  0  0  0  0  0  0
   -2.7120   23.8760  -29.4550 C   0  0  0  0  0  0  0  0  0  0  0  0
   -2.1903   24.7110  -28.9645 H   0  0  0  0  0  0  0  0  0  0  0  0
   -3.7230   24.1410  -30.4020 C   0  0  0  0  0  0  0  0  0  0  0  0
   -4.0920   25.4530  -30.7430 O   0  0  0  0  0  0  0  0  0  0  0  0
   -5.3610   26.0350  -30.4620 C   0  0  0  0  0  0  0  0  0  0  0  0
   -5.5017   26.0995  -29.3729 H   0  0  0  0  0  0  0  0  0  0  0  0
   -5.4063   27.0439  -30.8980 H   0  0  0  0  0  0  0  0  0  0  0  0
   -6.1552   25.4111  -30.8980 H   0  0  0  0  0  0  0  0  0  0  0  0
  1  2  1  0
  2  3  2  0
  3  4  1  0
  3  5  1  0
  5  6  2  0
  6  7  1  0
  6  8  1  0
  8  9  2  0
  9 10  1  0
  9 11  1  0
 11 12  1  0
 11 13  2  0
 13 14  1  0
 13 15  1  0
 15 16  1  0
 15 17  2  0
 17 18  1  0
 18 19  1  0
 18 20  2  0
 20 21  1  0
 21 22  1  0
 21 23  1  0
 21 24  1  0
  2 25  1  0
 25 26  2  0
 26 27  1  0
 26 28  1  0
 28 29  1  0
 28 30  2  0
 30 31  1  0
 30 32  1  0
 32 33  1  0
 32 34  2  0
 34 35  1  0
 35 36  1  0
 36 37  1  0
 36 38  1  0
 36 39  1  0
 20  5  1  0
 34 25  1  0
 17  8  1  0
M  CHG  1  20   1
M  END
>  <UniqueID>  (9) 
8

>  <SMILES>  (9) 
COc1ccccc1/C=C\c1cc2ccccc2c[n+]1C

>  <Energy>  (9) 
56.3785290104072

>  <Genealogy>  (9) 
COc1ccccc1/C=C\c1cc2ccccc2c[n+]1C (cis-trans isomerization)
COc1ccccc1/C=C\c1cc2ccccc2c[n+]1C (3D coordinates assigned)
COc1ccccc1/C=C\c1cc2ccccc2c[n+]1C (optimized conformer: 56.3785290104072 kcal/mol)

>  <smiles>  (9) 
COc1ccccc1C=Cc1cc2ccccc2c[n+]1C

>  <score_type>  (9) 
oracle

>  <origin>  (9) 
adg

>  <m_score__min__energy>  (9) 
-8.1199999999999992

>  <m_primary>  (9) 
energy

$$$$
9:0
     RDKit          3D

 38 40  0  0  0  0  0  0  0  0999 V2000
   -3.7950   24.1160  -28.2990 C   0  0  0  0  0  0  0  0  0  0  0  0
   -2.8160   24.5800  -29.3660 C   0  0  0  0  0  0  0  0  0  0  0  0
   -3.5370   25.2920  -30.4150 N   0  0  0  0  0  0  0  0  0  0  0  0
   -4.9630   25.3370  -30.5450 C   0  0  0  0  0  0  0  0  0  0  0  0
   -5.5690   26.3860  -30.2040 O   0  0  0  0  0  0  0  0  0  0  0  0
   -5.7400   24.2100  -31.1000 C   0  0  0  0  0  0  0  0  0  0  0  0
   -7.1370   24.1690  -30.9960 C   0  0  0  0  0  0  0  0  0  0  0  0
   -7.8470   23.1000  -31.5460 C   0  0  0  0  0  0  0  0  0  0  0  0
   -7.1580   22.0870  -32.2180 C   0  0  0  0  0  0  0  0  0  0  0  0
   -7.8750   21.0060  -32.7460 O   0  0  0  0  0  0  0  0  0  0  0  0
   -7.3890   19.6970  -32.8730 C   0  0  0  0  0  0  0  0  0  0  0  0
   -7.7510   18.6720  -31.9810 C   0  0  0  0  0  0  0  0  0  0  0  0
   -7.2320   17.3840  -32.1370 C   0  0  0  0  0  0  0  0  0  0  0  0
   -6.3340   17.0950  -33.1810 C   0  0  0  0  0  0  0  0  0  0  0  0
   -5.7990   15.7650  -33.3450 N   0  0  0  0  0  0  0  0  0  0  0  0
   -4.7930   15.2000  -32.6510 C   0  0  0  0  0  0  0  0  0  0  0  0
   -4.6050   13.9240  -33.1320 C   0  0  0  0  0  0  0  0  0  0  0  0
   -5.4860   13.6800  -34.1210 N   0  0  0  0  0  0  0  0  0  0  0  0
   -6.1960   14.8220  -34.2260 C   0  0  0  0  0  0  0  0  0  0  0  0
   -5.9600   18.1300  -34.0570 C   0  0  0  0  0  0  0  0  0  0  0  0
   -6.4780   19.4180  -33.8980 C   0  0  0  0  0  0  0  0  0  0  0  0
   -5.8000   22.1490  -32.3180 N   0  0  0  0  0  0  0  0  0  0  0  0
   -5.0860   23.1800  -31.7920 C   0  0  0  0  0  0  0  0  0  0  0  0
   -3.3735   24.3158  -27.3028 H   0  0  0  0  0  0  0  0  0  0  0  0
   -4.7445   24.6599  -28.4112 H   0  0  0  0  0  0  0  0  0  0  0  0
   -3.9752   23.0367  -28.4112 H   0  0  0  0  0  0  0  0  0  0  0  0
   -2.0717   25.2513  -28.9129 H   0  0  0  0  0  0  0  0  0  0  0  0
   -2.3078   23.7064  -29.8003 H   0  0  0  0  0  0  0  0  0  0  0  0
   -7.6742   24.9791  -30.4810 H   0  0  0  0  0  0  0  0  0  0  0  0
   -8.9420   23.0555  -31.4509 H   0  0  0  0  0  0  0  0  0  0  0  0
   -8.4465   18.8853  -31.1559 H   0  0  0  0  0  0  0  0  0  0  0  0
   -7.5282   16.5887  -31.4372 H   0  0  0  0  0  0  0  0  0  0  0  0
   -4.2209   15.6754  -31.8406 H   0  0  0  0  0  0  0  0  0  0  0  0
   -3.8507   13.2125  -32.7648 H   0  0  0  0  0  0  0  0  0  0  0  0
   -7.0102   14.9691  -34.9508 H   0  0  0  0  0  0  0  0  0  0  0  0
   -5.2535   17.9237  -34.8745 H   0  0  0  0  0  0  0  0  0  0  0  0
   -6.1671   20.2194  -34.5843 H   0  0  0  0  0  0  0  0  0  0  0  0
   -3.9926   23.2063  -31.9095 H   0  0  0  0  0  0  0  0  0  0  0  0
  1  2  1  0
  2  3  1  0
  3  4  1  0
  4  5  2  0
  4  6  1  0
  6  7  2  0
  7  8  1  0
  8  9  2  0
  9 10  1  0
 10 11  1  0
 11 12  2  0
 12 13  1  0
 13 14  2  0
 14 15  1  0
 15 16  1  0
 16 17  2  0
 17 18  1  0
 18 19  2  0
 14 20  1  0
 20 21  2  0
  9 22  1  0
 22 23  2  0
 23  6  1  0
 21 11  1  0
 19 15  1  0
  1 24  1  0
  1 25  1  0
  1 26  1  0
  2 27  1  0
  2 28  1  0
  7 29  1  0
  8 30  1  0
 12 31  1  0
 13 32  1  0
 16 33  1  0
 17 34  1  0
 19 35  1  0
 20 36  1  0
 21 37  1  0
 23 38  1  0
M  CHG  1   3  -1
M  END
>  <UniqueID>  (10) 
9

>  <SMILES>  (10) 
CC[N-]C(=O)c1ccc(Oc2ccc(-n3ccnc3)cc2)nc1

>  <Energy>  (10) 
79.41195558848541

>  <Genealogy>  (10) 
CC[N-]C(=O)c1ccc(Oc2ccc(-n3ccnc3)cc2)nc1 (protonated)
CC[N-]C(=O)c1ccc(Oc2ccc(-n3ccnc3)cc2)nc1 (3D coordinates assigned)
CC[N-]C(=O)c1ccc(Oc2ccc(-n3ccnc3)cc2)nc1 (optimized conformer: 79.41195558848541 kcal/mol)

>  <smiles>  (10) 
CCNC(=O)c1ccc(Oc2ccc(-n3ccnc3)cc2)nc1

>  <score_type>  (10) 
oracle

>  <origin>  (10) 
adg

>  <m_score__min__energy>  (10) 
-9.2200000000000006

>  <m_primary>  (10) 
energy

$$$$
10:0
     RDKit          3D

 39 41  0  0  0  0  0  0  0  0999 V2000
   -9.1632   22.4204  -31.5944 H   0  0  0  0  0  0  0  0  0  0  0  0
   -8.1420   22.7560  -31.3610 C   0  0  0  0  0  0  0  0  0  0  0  0
   -7.3880   23.4230  -32.3290 C   0  0  0  0  0  0  0  0  0  0  0  0
   -7.8143   23.6088  -33.3258 H   0  0  0  0  0  0  0  0  0  0  0  0
   -6.0910   23.8550  -32.0320 C   0  0  0  0  0  0  0  0  0  0  0  0
   -5.4977   24.3723  -32.8004 H   0  0  0  0  0  0  0  0  0  0  0  0
   -5.5410   23.6320  -30.7570 C   0  0  0  0  0  0  0  0  0  0  0  0
   -4.1610   24.0800  -30.4520 C   0  0  0  0  0  0  0  0  0  0  0  0
   -3.8610   25.2950  -30.6080 O   0  0  0  0  0  0  0  0  0  0  0  0
   -3.1580   23.1600  -29.9770 N   0  0  0  0  0  0  0  0  0  0  0  0
   -2.7080   23.1410  -28.6880 C   0  0  0  0  0  0  0  0  0  0  0  0
   -3.0938   23.8201  -27.9134 H   0  0  0  0  0  0  0  0  0  0  0  0
   -1.7230   22.1940  -28.4340 C   0  0  0  0  0  0  0  0  0  0  0  0
   -1.0060   22.0080  -27.1390 C   0  0  0  0  0  0  0  0  0  0  0  0
   -1.7012   22.1883  -26.3058 H   0  0  0  0  0  0  0  0  0  0  0  0
   -0.6196   20.9799  -27.0782 H   0  0  0  0  0  0  0  0  0  0  0  0
   -0.1686   22.7186  -27.0782 H   0  0  0  0  0  0  0  0  0  0  0  0
   -1.3680   21.3850  -29.8650 S   0  0  0  0  0  0  0  0  0  0  0  0
   -2.5040   22.2620  -30.7590 C   0  0  0  0  0  0  0  0  0  0  0  0
   -2.7940   22.0730  -32.0150 N   0  0  0  0  0  0  0  0  0  0  0  0
   -3.5900   21.0100  -32.5590 C   0  0  0  0  0  0  0  0  0  0  0  0
   -3.0070   20.1310  -33.4780 C   0  0  0  0  0  0  0  0  0  0  0  0
   -1.9644   20.2826  -33.7943 H   0  0  0  0  0  0  0  0  0  0  0  0
   -3.7430   19.0600  -33.9970 C   0  0  0  0  0  0  0  0  0  0  0  0
   -3.2799   18.3870  -34.7337 H   0  0  0  0  0  0  0  0  0  0  0  0
   -5.0620   18.8370  -33.5880 C   0  0  0  0  0  0  0  0  0  0  0  0
   -5.7530   17.7490  -34.1440 O   0  0  0  0  0  0  0  0  0  0  0  0
   -6.5260   16.8020  -33.4090 C   0  0  0  0  0  0  0  0  0  0  0  0
   -5.7290   16.2370  -32.4310 F   0  0  0  0  0  0  0  0  0  0  0  0
   -6.9790   15.8000  -34.2490 F   0  0  0  0  0  0  0  0  0  0  0  0
   -7.5990   17.4300  -32.8020 F   0  0  0  0  0  0  0  0  0  0  0  0
   -5.6380   19.7020  -32.6370 C   0  0  0  0  0  0  0  0  0  0  0  0
   -6.6718   19.5348  -32.3003 H   0  0  0  0  0  0  0  0  0  0  0  0
   -4.9020   20.7720  -32.1190 C   0  0  0  0  0  0  0  0  0  0  0  0
   -5.3533   21.4310  -31.3626 H   0  0  0  0  0  0  0  0  0  0  0  0
   -6.3050   22.9460  -29.7950 C   0  0  0  0  0  0  0  0  0  0  0  0
   -5.8808   22.7477  -28.7996 H   0  0  0  0  0  0  0  0  0  0  0  0
   -7.6000   22.5150  -30.0970 C   0  0  0  0  0  0  0  0  0  0  0  0
   -8.1932   21.9849  -29.3373 H   0  0  0  0  0  0  0  0  0  0  0  0
  1  2  1  0
  2  3  2  0
  3  4  1  0
  3  5  1  0
  5  6  1  0
  5  7  2  0
  7  8  1  0
  8  9  2  0
  8 10  1  0
 10 11  1  0
 11 12  1  0
 11 13  2  0
 13 14  1  0
 14 15  1  0
 14 16  1  0
 14 17  1  0
 13 18  1  0
 18 19  1  0
 19 20  2  0
 20 21  1  0
 21 22  2  0
 22 23  1  0
 22 24  1  0
 24 25  1  0
 24 26  2  0
 26 27  1  0
 27 28  1  0
 28 29  1  0
 28 30  1  0
 28 31  1  0
 26 32  1  0
 32 33  1  0
 32 34  2  0
 34 35  1  0
  7 36  1  0
 36 37  1  0
 36 38  2  0
 38 39  1  0
 38  2  1  0
 19 10  1  0
 34 21  1  0
M  END
>  <UniqueID>  (11) 
10

>  <SMILES>  (11) 
Cc1cn(C(=O)c2ccccc2)/c(=N/c2ccc(OC(F)(F)F)cc2)s1

>  <Energy>  (11) 
84.42547941793461

>  <Genealogy>  (11) 
Cc1cn(C(=O)c2ccccc2)/c(=N/c2ccc(OC(F)(F)F)cc2)s1 (cis-trans isomerization)
Cc1cn(C(=O)c2ccccc2)/c(=N/c2ccc(OC(F)(F)F)cc2)s1 (3D coordinates assigned)
Cc1cn(C(=O)c2ccccc2)/c(=N/c2ccc(OC(F)(F)F)cc2)s1 (optimized conformer: 84.42547941793461 kcal/mol)

>  <smiles>  (11) 
Cc1cn(C(=O)c2ccccc2)c(=Nc2ccc(OC(F)(F)F)cc2)s1

>  <score_type>  (11) 
oracle

>  <origin>  (11) 
adg

>  <m_score__min__energy>  (11) 
-7.7000000000000002

>  <m_primary>  (11) 
energy

$$$$
11:0
     RDKit          3D

 41 44  0  0  0  0  0  0  0  0999 V2000
    0.1240   26.7320  -23.6000 C   0  0  0  0  0  0  0  0  0  0  0  0
   -0.5890   26.2600  -24.8320 C   0  0  0  0  0  0  0  0  0  0  0  0
    0.1410   25.8490  -25.9570 C   0  0  0  0  0  0  0  0  0  0  0  0
   -0.5220   25.3740  -27.0930 C   0  0  0  0  0  0  0  0  0  0  0  0
   -1.9260   25.2940  -27.1210 C   0  0  0  0  0  0  0  0  0  0  0  0
   -2.6360   24.7840  -28.3190 C   0  0  0  0  0  0  0  0  0  0  0  0
   -2.1100   24.9220  -29.4580 O   0  0  0  0  0  0  0  0  0  0  0  0
   -3.8900   24.0930  -28.1940 N   0  0  0  0  0  0  0  0  0  0  0  0
   -4.8250   23.9320  -29.2750 C   0  0  0  0  0  0  0  0  0  0  0  0
   -5.5770   25.0350  -29.7050 C   0  0  0  0  0  0  0  0  0  0  0  0
   -6.4760   24.9060  -30.7650 C   0  0  0  0  0  0  0  0  0  0  0  0
   -6.6230   23.6800  -31.4170 C   0  0  0  0  0  0  0  0  0  0  0  0
   -5.8630   22.5690  -31.0180 C   0  0  0  0  0  0  0  0  0  0  0  0
   -6.0110   21.2790  -31.7220 C   0  0  0  0  0  0  0  0  0  0  0  0
   -5.3660   20.9780  -32.8830 N   0  0  0  0  0  0  0  0  0  0  0  0
   -5.8020   19.7320  -33.1320 C   0  0  0  0  0  0  0  0  0  0  0  0
   -5.4720   18.9070  -34.2060 C   0  0  0  0  0  0  0  0  0  0  0  0
   -6.0620   17.6290  -34.2510 C   0  0  0  0  0  0  0  0  0  0  0  0
   -6.9550   17.2160  -33.2340 C   0  0  0  0  0  0  0  0  0  0  0  0
   -7.2650   18.0780  -32.1650 C   0  0  0  0  0  0  0  0  0  0  0  0
   -6.6620   19.3320  -32.1570 C   0  0  0  0  0  0  0  0  0  0  0  0
   -6.7850   20.2970  -31.2860 O   0  0  0  0  0  0  0  0  0  0  0  0
   -4.9590   22.7040  -29.9500 C   0  0  0  0  0  0  0  0  0  0  0  0
   -2.6510   25.6800  -25.9790 C   0  0  0  0  0  0  0  0  0  0  0  0
   -1.9870   26.1560  -24.8440 C   0  0  0  0  0  0  0  0  0  0  0  0
   -0.4121   26.3771  -22.7075 H   0  0  0  0  0  0  0  0  0  0  0  0
    1.1493   26.3336  -23.5944 H   0  0  0  0  0  0  0  0  0  0  0  0
    0.1578   27.8315  -23.5944 H   0  0  0  0  0  0  0  0  0  0  0  0
    1.2397   25.9005  -25.9457 H   0  0  0  0  0  0  0  0  0  0  0  0
    0.0596   25.0602  -27.9724 H   0  0  0  0  0  0  0  0  0  0  0  0
   -4.0810   23.5810  -27.3030 H   0  0  0  0  0  0  0  0  0  0  0  0
   -5.4577   26.0071  -29.2042 H   0  0  0  0  0  0  0  0  0  0  0  0
   -7.0707   25.7732  -31.0878 H   0  0  0  0  0  0  0  0  0  0  0  0
   -7.3379   23.5842  -32.2475 H   0  0  0  0  0  0  0  0  0  0  0  0
   -4.7764   19.2418  -34.9896 H   0  0  0  0  0  0  0  0  0  0  0  0
   -5.8272   16.9476  -35.0820 H   0  0  0  0  0  0  0  0  0  0  0  0
   -7.4097   16.2154  -33.2790 H   0  0  0  0  0  0  0  0  0  0  0  0
   -7.9573   17.7720  -31.3668 H   0  0  0  0  0  0  0  0  0  0  0  0
   -4.3506   21.8420  -29.6388 H   0  0  0  0  0  0  0  0  0  0  0  0
   -3.7486   25.6069  -25.9787 H   0  0  0  0  0  0  0  0  0  0  0  0
   -2.5649   26.4505  -23.9556 H   0  0  0  0  0  0  0  0  0  0  0  0
  1  2  1  0
  2  3  2  0
  3  4  1  0
  4  5  2  0
  5  6  1  0
  6  7  2  0
  6  8  1  0
  8  9  1  0
  9 10  2  0
 10 11  1  0
 11 12  2  0
 12 13  1  0
 13 14  1  0
 14 15  2  0
 15 16  1  0
 16 17  2  0
 17 18  1  0
 18 19  2  0
 19 20  1  0
 20 21  2  0
 21 22  1  0
 13 23  2  0
  5 24  1  0
 24 25  2  0
 25  2  1  0
 23  9  1  0
 22 14  1  0
 21 16  1  0
  1 26  1  0
  1 27  1  0
  1 28  1  0
  3 29  1  0
  4 30  1  0
  8 31  1  0
 10 32  1  0
 11 33  1  0
 12 34  1  0
 17 35  1  0
 18 36  1  0
 19 37  1  0
 20 38  1  0
 23 39  1  0
 24 40  1  0
 25 41  1  0
M  END
>  <UniqueID>  (12) 
11

>  <SMILES>  (12) 
Cc1ccc(C(=O)Nc2cccc(-c3nc4ccccc4o3)c2)cc1

>  <Energy>  (12) 
88.14127889263196

>  <Genealogy>  (12) 
Cc1ccc(C(=O)Nc2cccc(-c3nc4ccccc4o3)c2)cc1 (3D coordinates assigned)
Cc1ccc(C(=O)Nc2cccc(-c3nc4ccccc4o3)c2)cc1 (optimized conformer: 88.14127889263196 kcal/mol)

>  <smiles>  (12) 
Cc1ccc(C(=O)Nc2cccc(-c3nc4ccccc4o3)c2)cc1

>  <score_type>  (12) 
oracle

>  <origin>  (12) 
adg

>  <m_score__min__energy>  (12) 
-8.6600000000000001

>  <m_primary>  (12) 
energy

$$$$
12:0
     RDKit          3D

 55 58  0  0  0  0  0  0  0  0999 V2000
   -0.8600   26.7590  -27.9290 C   0  0  0  0  0  0  0  0  0  0  0  0
   -1.5040   25.9000  -28.8670 O   0  0  0  0  0  0  0  0  0  0  0  0
   -2.0080   24.6270  -28.5580 C   0  0  0  0  0  0  0  0  0  0  0  0
   -3.1940   24.5410  -27.8220 C   0  0  0  0  0  0  0  0  0  0  0  0
   -3.7380   23.2940  -27.5010 C   0  0  0  0  0  0  0  0  0  0  0  0
   -3.0990   22.1200  -27.9130 C   0  0  0  0  0  0  0  0  0  0  0  0
   -1.9120   22.1890  -28.6570 C   0  0  0  0  0  0  0  0  0  0  0  0
   -1.1920   20.9280  -29.0570 C   0  0  0  0  0  0  0  0  0  0  0  0
   -0.8750   20.9540  -30.5540 C   0  0  0  0  0  0  0  0  0  0  0  0
   -2.1120   20.8920  -31.3450 N   0  0  0  0  0  0  0  0  0  0  0  0
   -2.5990   22.2150  -31.7650 C   0  0  0  0  0  0  0  0  0  0  0  0
   -4.1070   22.2660  -31.8690 C   0  0  0  0  0  0  0  0  0  0  0  0
   -4.9540   21.2970  -32.4040 C   0  0  0  0  0  0  0  0  0  0  0  0
   -4.5670   20.0870  -33.1500 C   0  0  0  0  0  0  0  0  0  0  0  0
   -3.4550   20.0740  -33.7380 O   0  0  0  0  0  0  0  0  0  0  0  0
   -5.4120   18.9170  -33.1810 N   0  0  0  0  0  0  0  0  0  0  0  0
   -5.2000   17.9060  -34.2200 C   0  0  0  0  0  0  0  0  0  0  0  0
   -6.4940   17.1210  -34.4510 C   0  0  0  0  0  0  0  0  0  0  0  0
   -6.9820   16.5950  -33.2310 O   0  0  0  0  0  0  0  0  0  0  0  0
   -7.3620   17.6570  -32.3750 C   0  0  0  0  0  0  0  0  0  0  0  0
   -6.1450   18.5020  -31.9780 C   0  0  0  0  0  0  0  0  0  0  0  0
   -6.2460   21.6220  -32.1630 N   0  0  0  0  0  0  0  0  0  0  0  0
   -6.1590   22.7970  -31.5070 C   0  0  0  0  0  0  0  0  0  0  0  0
   -7.2350   23.5510  -31.0460 C   0  0  0  0  0  0  0  0  0  0  0  0
   -6.9530   24.7600  -30.3910 C   0  0  0  0  0  0  0  0  0  0  0  0
   -5.6200   25.1800  -30.2180 C   0  0  0  0  0  0  0  0  0  0  0  0
   -4.5750   24.3800  -30.7010 C   0  0  0  0  0  0  0  0  0  0  0  0
   -4.8920   23.2120  -31.3210 N   0  0  0  0  0  0  0  0  0  0  0  0
   -1.3630   23.4430  -28.9650 C   0  0  0  0  0  0  0  0  0  0  0  0
   -1.1037   26.4340  -26.9068 H   0  0  0  0  0  0  0  0  0  0  0  0
    0.2289   26.7142  -28.0782 H   0  0  0  0  0  0  0  0  0  0  0  0
   -1.2083   27.7917  -28.0782 H   0  0  0  0  0  0  0  0  0  0  0  0
   -3.7017   25.4600  -27.4938 H   0  0  0  0  0  0  0  0  0  0  0  0
   -4.6717   23.2358  -26.9224 H   0  0  0  0  0  0  0  0  0  0  0  0
   -3.5281   21.1410  -27.6531 H   0  0  0  0  0  0  0  0  0  0  0  0
   -0.2539   20.8489  -28.4880 H   0  0  0  0  0  0  0  0  0  0  0  0
   -1.8357   20.0626  -28.8409 H   0  0  0  0  0  0  0  0  0  0  0  0
   -0.3385   21.8838  -30.7940 H   0  0  0  0  0  0  0  0  0  0  0  0
   -0.2521   20.0814  -30.8002 H   0  0  0  0  0  0  0  0  0  0  0  0
   -1.9340   20.3050  -32.1930 H   0  0  0  0  0  0  0  0  0  0  0  0
   -2.2698   22.9630  -31.0287 H   0  0  0  0  0  0  0  0  0  0  0  0
   -2.1860   22.4240  -32.7629 H   0  0  0  0  0  0  0  0  0  0  0  0
   -4.9011   18.4010  -35.1557 H   0  0  0  0  0  0  0  0  0  0  0  0
   -4.4080   17.2141  -33.8975 H   0  0  0  0  0  0  0  0  0  0  0  0
   -7.2510   17.7913  -34.8842 H   0  0  0  0  0  0  0  0  0  0  0  0
   -6.2855   16.2878  -35.1383 H   0  0  0  0  0  0  0  0  0  0  0  0
   -8.0901   18.2964  -32.8957 H   0  0  0  0  0  0  0  0  0  0  0  0
   -7.8071   17.2317  -31.4634 H   0  0  0  0  0  0  0  0  0  0  0  0
   -6.4831   19.3943  -31.4307 H   0  0  0  0  0  0  0  0  0  0  0  0
   -5.4810   17.9030  -31.3375 H   0  0  0  0  0  0  0  0  0  0  0  0
   -8.2710   23.2107  -31.1902 H   0  0  0  0  0  0  0  0  0  0  0  0
   -7.7768   25.3821  -30.0112 H   0  0  0  0  0  0  0  0  0  0  0  0
   -5.4003   26.1292  -29.7074 H   0  0  0  0  0  0  0  0  0  0  0  0
   -3.5261   24.6890  -30.5816 H   0  0  0  0  0  0  0  0  0  0  0  0
   -0.4206   23.5019  -29.5293 H   0  0  0  0  0  0  0  0  0  0  0  0
  1  2  1  0
  2  3  1  0
  3  4  2  0
  4  5  1  0
  5  6  2  0
  6  7  1  0
  7  8  1  0
  8  9  1  0
  9 10  1  0
 10 11  1  0
 11 12  1  0
 12 13  2  0
 13 14  1  0
 14 15  2  0
 14 16  1  0
 16 17  1  0
 17 18  1  0
 18 19  1  0
 19 20  1  0
 20 21  1  0
 13 22  1  0
 22 23  2  0
 23 24  1  0
 24 25  2  0
 25 26  1  0
 26 27  2  0
 27 28  1  0
  7 29  2  0
 29  3  1  0
 28 12  1  0
 21 16  1  0
 28 23  1  0
  1 30  1  0
  1 31  1  0
  1 32  1  0
  4 33  1  0
  5 34  1  0
  6 35  1  0
  8 36  1  0
  8 37  1  0
  9 38  1  0
  9 39  1  0
 10 40  1  0
 11 41  1  0
 11 42  1  0
 17 43  1  0
 17 44  1  0
 18 45  1  0
 18 46  1  0
 20 47  1  0
 20 48  1  0
 21 49  1  0
 21 50  1  0
 24 51  1  0
 25 52  1  0
 26 53  1  0
 27 54  1  0
 29 55  1  0
M  END
>  <UniqueID>  (13) 
12

>  <SMILES>  (13) 
COc1cccc(CCNCc2c(C(=O)N3CCOCC3)nc3ccccn23)c1

>  <Energy>  (13) 
93.71299210011153

>  <Genealogy>  (13) 
COc1cccc(CCNCc2c(C(=O)N3CCOCC3)nc3ccccn23)c1 (3D coordinates assigned)
COc1cccc(CCNCc2c(C(=O)N3CCOCC3)nc3ccccn23)c1 (nonaromatic ring conformer: 93.71299210011153 kcal/mol)

>  <smiles>  (13) 
COc1cccc(CCNCc2c(C(=O)N3CCOCC3)nc3ccccn23)c1

>  <score_type>  (13) 
oracle

>  <origin>  (13) 
adg

>  <m_score__min__energy>  (13) 
-8.7599999999999998

>  <m_primary>  (13) 
energy

$$$$
13:0
     RDKit          3D

 40 42  0  0  0  0  0  0  0  0999 V2000
   -1.6260   18.5460  -26.7540 C   0  0  0  0  0  0  0  0  0  0  0  0
   -1.8440   19.9900  -27.0950 C   0  0  0  0  0  0  0  0  0  0  0  0
   -0.7770   20.9010  -27.0320 C   0  0  0  0  0  0  0  0  0  0  0  0
   -0.9720   22.2390  -27.3870 C   0  0  0  0  0  0  0  0  0  0  0  0
   -2.2320   22.6780  -27.8120 C   0  0  0  0  0  0  0  0  0  0  0  0
   -2.4730   24.3980  -28.2710 S   0  0  0  0  0  0  0  0  0  0  0  0
   -4.2410   24.2100  -28.7150 C   0  0  0  0  0  0  0  0  0  0  0  0
   -4.4700   24.2990  -30.2030 C   0  0  0  0  0  0  0  0  0  0  0  0
   -3.9870   25.2720  -30.8450 O   0  0  0  0  0  0  0  0  0  0  0  0
   -5.1990   23.2730  -30.9130 N   0  0  0  0  0  0  0  0  0  0  0  0
   -4.5190   22.0350  -31.3370 C   0  0  0  0  0  0  0  0  0  0  0  0
   -5.1820   21.4240  -32.5700 C   0  0  0  0  0  0  0  0  0  0  0  0
   -6.6510   21.2500  -32.3300 C   0  0  0  0  0  0  0  0  0  0  0  0
   -7.3350   20.1390  -32.8490 C   0  0  0  0  0  0  0  0  0  0  0  0
   -8.7120   20.0080  -32.6490 C   0  0  0  0  0  0  0  0  0  0  0  0
   -9.4140   20.9900  -31.9470 C   0  0  0  0  0  0  0  0  0  0  0  0
   -8.7410   22.1060  -31.4420 C   0  0  0  0  0  0  0  0  0  0  0  0
   -7.3550   22.2390  -31.6230 C   0  0  0  0  0  0  0  0  0  0  0  0
   -6.6460   23.4760  -31.1240 C   0  0  0  0  0  0  0  0  0  0  0  0
   -3.2910   21.7680  -27.9040 C   0  0  0  0  0  0  0  0  0  0  0  0
   -3.0980   20.4290  -27.5500 C   0  0  0  0  0  0  0  0  0  0  0  0
   -1.6079   18.4261  -25.6607 H   0  0  0  0  0  0  0  0  0  0  0  0
   -2.4432   17.9423  -27.1756 H   0  0  0  0  0  0  0  0  0  0  0  0
   -0.6670   18.2104  -27.1756 H   0  0  0  0  0  0  0  0  0  0  0  0
    0.2156   20.5605  -26.7022 H   0  0  0  0  0  0  0  0  0  0  0  0
   -0.1335   22.9488  -27.3323 H   0  0  0  0  0  0  0  0  0  0  0  0
   -4.5923   23.2295  -28.3610 H   0  0  0  0  0  0  0  0  0  0  0  0
   -4.7967   25.0315  -28.2393 H   0  0  0  0  0  0  0  0  0  0  0  0
   -3.4700   22.2668  -31.5735 H   0  0  0  0  0  0  0  0  0  0  0  0
   -4.5844   21.3073  -30.5147 H   0  0  0  0  0  0  0  0  0  0  0  0
   -5.0303   22.0897  -33.4325 H   0  0  0  0  0  0  0  0  0  0  0  0
   -4.7308   20.4415  -32.7726 H   0  0  0  0  0  0  0  0  0  0  0  0
   -6.7864   19.3708  -33.4137 H   0  0  0  0  0  0  0  0  0  0  0  0
   -9.2435   19.1302  -33.0451 H   0  0  0  0  0  0  0  0  0  0  0  0
  -10.4979   20.8851  -31.7913 H   0  0  0  0  0  0  0  0  0  0  0  0
   -9.2996   22.8836  -30.9004 H   0  0  0  0  0  0  0  0  0  0  0  0
   -6.7820   24.2789  -31.8635 H   0  0  0  0  0  0  0  0  0  0  0  0
   -7.0852   23.7329  -30.1488 H   0  0  0  0  0  0  0  0  0  0  0  0
   -4.2769   22.1065  -28.2554 H   0  0  0  0  0  0  0  0  0  0  0  0
   -3.9322   19.7163  -27.6283 H   0  0  0  0  0  0  0  0  0  0  0  0
  1  2  1  0
  2  3  2  0
  3  4  1  0
  4  5  2  0
  5  6  1  0
  6  7  1  0
  7  8  1  0
  8  9  2  0
  8 10  1  0
 10 11  1  0
 11 12  1  0
 12 13  1  0
 13 14  2  0
 14 15  1  0
 15 16  2  0
 16 17  1  0
 17 18  2  0
 18 19  1  0
  5 20  1  0
 20 21  2  0
 21  2  1  0
 19 10  1  0
 18 13  1  0
  1 22  1  0
  1 23  1  0
  1 24  1  0
  3 25  1  0
  4 26  1  0
  7 27  1  0
  7 28  1  0
 11 29  1  0
 11 30  1  0
 12 31  1  0
 12 32  1  0
 14 33  1  0
 15 34  1  0
 16 35  1  0
 17 36  1  0
 19 37  1  0
 19 38  1  0
 20 39  1  0
 21 40  1  0
M  END
>  <UniqueID>  (14) 
13

>  <SMILES>  (14) 
Cc1ccc(SCC(=O)N2CCc3ccccc3C2)cc1

>  <Energy>  (14) 
41.167608037222635

>  <Genealogy>  (14) 
Cc1ccc(SCC(=O)N2CCc3ccccc3C2)cc1 (3D coordinates assigned)
Cc1ccc(SCC(=O)N2CCc3ccccc3C2)cc1 (nonaromatic ring conformer: 41.167608037222635 kcal/mol)

>  <smiles>  (14) 
Cc1ccc(SCC(=O)N2CCc3ccccc3C2)cc1

>  <score_type>  (14) 
oracle

>  <origin>  (14) 
adg

>  <m_score__min__energy>  (14) 
-8.7400000000000002

>  <m_primary>  (14) 
energy

$$$$
14:0
     RDKit          3D

 46 49  0  0  0  0  0  0  0  0999 V2000
   -1.1930   20.3630  -27.7860 C   0  0  0  0  0  0  0  0  0  0  0  0
   -0.5770   21.6080  -27.2740 C   0  0  0  0  0  0  0  0  0  0  0  0
    0.6860   21.5630  -27.0780 O   0  0  0  0  0  0  0  0  0  0  0  0
   -1.3270   22.7870  -27.0140 N   0  0  0  0  0  0  0  0  0  0  0  0
   -2.7420   22.7460  -27.2630 C   0  0  0  0  0  0  0  0  0  0  0  0
   -3.2560   24.1450  -27.3990 C   0  0  0  0  0  0  0  0  0  0  0  0
   -2.2440   24.9670  -28.0480 N   0  0  0  0  0  0  0  0  0  0  0  0
   -1.8820   24.4760  -29.3410 C   0  0  0  0  0  0  0  0  0  0  0  0
   -3.0700   23.9690  -30.0970 C   0  0  0  0  0  0  0  0  0  0  0  0
   -4.0280   24.8690  -30.3680 N   0  0  0  0  0  0  0  0  0  0  0  0
   -5.1060   24.4150  -31.0530 C   0  0  0  0  0  0  0  0  0  0  0  0
   -6.0500   25.1750  -31.3520 O   0  0  0  0  0  0  0  0  0  0  0  0
   -5.1570   23.0980  -31.4210 C   0  0  0  0  0  0  0  0  0  0  0  0
   -6.4210   22.1520  -32.3320 S   0  0  0  0  0  0  0  0  0  0  0  0
   -5.5270   20.6360  -32.2540 C   0  0  0  0  0  0  0  0  0  0  0  0
   -5.9660   19.3620  -32.8160 C   0  0  0  0  0  0  0  0  0  0  0  0
   -5.4810   18.9010  -34.0190 C   0  0  0  0  0  0  0  0  0  0  0  0
   -5.8970   17.6870  -34.5580 C   0  0  0  0  0  0  0  0  0  0  0  0
   -6.8210   16.9420  -33.8530 C   0  0  0  0  0  0  0  0  0  0  0  0
   -7.2470   15.7430  -34.3630 F   0  0  0  0  0  0  0  0  0  0  0  0
   -7.3020   17.4110  -32.6480 C   0  0  0  0  0  0  0  0  0  0  0  0
   -6.8870   18.6150  -32.1160 C   0  0  0  0  0  0  0  0  0  0  0  0
   -4.3870   20.9110  -31.5830 C   0  0  0  0  0  0  0  0  0  0  0  0
   -4.1680   22.1580  -31.1450 C   0  0  0  0  0  0  0  0  0  0  0  0
   -3.1050   22.6800  -30.4500 N   0  0  0  0  0  0  0  0  0  0  0  0
   -1.1320   25.1980  -27.1570 C   0  0  0  0  0  0  0  0  0  0  0  0
   -0.6220   23.9510  -26.5130 C   0  0  0  0  0  0  0  0  0  0  0  0
   -1.5046   19.7332  -26.9397 H   0  0  0  0  0  0  0  0  0  0  0  0
   -2.0710   20.6137  -28.3994 H   0  0  0  0  0  0  0  0  0  0  0  0
   -0.4610   19.8171  -28.3994 H   0  0  0  0  0  0  0  0  0  0  0  0
   -2.9366   22.1901  -28.1921 H   0  0  0  0  0  0  0  0  0  0  0  0
   -3.2510   22.2438  -26.4271 H   0  0  0  0  0  0  0  0  0  0  0  0
   -4.1729   24.1425  -28.0067 H   0  0  0  0  0  0  0  0  0  0  0  0
   -3.4808   24.5541  -26.4030 H   0  0  0  0  0  0  0  0  0  0  0  0
   -1.4172   25.2918  -29.9141 H   0  0  0  0  0  0  0  0  0  0  0  0
   -1.1816   23.6389  -29.2045 H   0  0  0  0  0  0  0  0  0  0  0  0
   -4.7459   19.5075  -34.5684 H   0  0  0  0  0  0  0  0  0  0  0  0
   -5.5001   17.3307  -35.5200 H   0  0  0  0  0  0  0  0  0  0  0  0
   -8.0375   16.8080  -32.0953 H   0  0  0  0  0  0  0  0  0  0  0  0
   -7.2835   18.9703  -31.1534 H   0  0  0  0  0  0  0  0  0  0  0  0
   -3.6462   20.1191  -31.3982 H   0  0  0  0  0  0  0  0  0  0  0  0
   -2.2900   22.0910  -30.1740 H   0  0  0  0  0  0  0  0  0  0  0  0
   -0.3127   25.6541  -27.7321 H   0  0  0  0  0  0  0  0  0  0  0  0
   -1.4907   25.8569  -26.3525 H   0  0  0  0  0  0  0  0  0  0  0  0
    0.4507   23.8448  -26.7321 H   0  0  0  0  0  0  0  0  0  0  0  0
   -0.7861   24.0223  -25.4276 H   0  0  0  0  0  0  0  0  0  0  0  0
  1  2  1  0
  2  3  2  0
  2  4  1  0
  4  5  1  0
  5  6  1  0
  6  7  1  0
  7  8  1  0
  8  9  1  0
  9 10  2  0
 10 11  1  0
 11 12  2  0
 11 13  1  0
 13 14  1  0
 14 15  1  0
 15 16  1  0
 16 17  2  0
 17 18  1  0
 18 19  2  0
 19 20  1  0
 19 21  1  0
 21 22  2  0
 15 23  2  0
 23 24  1  0
 24 25  1  0
  7 26  1  0
 26 27  1  0
 27  4  1  0
 25  9  1  0
 24 13  2  0
 22 16  1  0
  1 28  1  0
  1 29  1  0
  1 30  1  0
  5 31  1  0
  5 32  1  0
  6 33  1  0
  6 34  1  0
  8 35  1  0
  8 36  1  0
 17 37  1  0
 18 38  1  0
 21 39  1  0
 22 40  1  0
 23 41  1  0
 25 42  1  0
 26 43  1  0
 26 44  1  0
 27 45  1  0
 27 46  1  0
M  END
>  <smiles>  (15) 
CC(=O)N1CCN(Cc2nc(=O)c3sc(-c4ccc(F)cc4)cc3[nH]2)CC1

>  <score_type>  (15) 
oracle

>  <origin>  (15) 
adg

>  <m_score__min__energy>  (15) 
-8.0600000000000005

>  <m_primary>  (15) 
energy

$$$$
15:0
     RDKit          3D

 48 50  0  0  0  0  0  0  0  0999 V2000
   -2.4630   18.8040  -26.3530 C   0  0  0  0  0  0  0  0  0  0  0  0
   -2.5660   19.9470  -27.3730 C   0  0  0  0  0  0  0  0  0  0  0  0
   -1.2660   20.3370  -27.9640 N   0  0  0  0  0  0  0  0  0  0  0  0
   -0.4840   21.2290  -27.0780 C   0  0  0  0  0  0  0  0  0  0  0  0
   -1.2640   22.5010  -26.7530 C   0  0  0  0  0  0  0  0  0  0  0  0
   -0.4890   19.1790  -28.4690 C   0  0  0  0  0  0  0  0  0  0  0  0
   -0.2140   19.3690  -29.9690 C   0  0  0  0  0  0  0  0  0  0  0  0
   -0.5880   20.7130  -30.4400 N   0  0  0  0  0  0  0  0  0  0  0  0
   -1.9230   20.7320  -30.9860 C   0  0  0  0  0  0  0  0  0  0  0  0
   -2.9600   21.4470  -30.3250 C   0  0  0  0  0  0  0  0  0  0  0  0
   -4.2740   21.4440  -30.8290 C   0  0  0  0  0  0  0  0  0  0  0  0
   -4.5180   20.7270  -32.0010 C   0  0  0  0  0  0  0  0  0  0  0  0
   -3.5280   20.0320  -32.6340 C   0  0  0  0  0  0  0  0  0  0  0  0
   -4.1300   19.4160  -33.7100 C   0  0  0  0  0  0  0  0  0  0  0  0
   -5.4440   19.7460  -33.7060 N   0  0  0  0  0  0  0  0  0  0  0  0
   -5.6760   20.5410  -32.6660 N   0  0  0  0  0  0  0  0  0  0  0  0
   -6.9600   21.1120  -32.3670 C   0  0  0  0  0  0  0  0  0  0  0  0
   -7.0930   22.5050  -32.2390 C   0  0  0  0  0  0  0  0  0  0  0  0
   -8.3400   23.0740  -31.9720 C   0  0  0  0  0  0  0  0  0  0  0  0
   -9.4660   22.2610  -31.8340 C   0  0  0  0  0  0  0  0  0  0  0  0
   -9.3470   20.8750  -31.9630 C   0  0  0  0  0  0  0  0  0  0  0  0
   -8.1020   20.2940  -32.2330 C   0  0  0  0  0  0  0  0  0  0  0  0
   -7.9940   18.5420  -32.3420 Cl  0  0  0  0  0  0  0  0  0  0  0  0
   -2.2190   20.0080  -32.1660 C   0  0  0  0  0  0  0  0  0  0  0  0
   -2.5002   19.2172  -25.3342 H   0  0  0  0  0  0  0  0  0  0  0  0
   -3.3020   18.1073  -26.4970 H   0  0  0  0  0  0  0  0  0  0  0  0
   -1.5130   18.2686  -26.4970 H   0  0  0  0  0  0  0  0  0  0  0  0
   -3.2350   19.6278  -28.1857 H   0  0  0  0  0  0  0  0  0  0  0  0
   -2.9499   20.8253  -26.8334 H   0  0  0  0  0  0  0  0  0  0  0  0
   -0.2574   20.6973  -26.1421 H   0  0  0  0  0  0  0  0  0  0  0  0
    0.4443   21.5108  -27.5965 H   0  0  0  0  0  0  0  0  0  0  0  0
   -1.3359   22.6183  -25.6616 H   0  0  0  0  0  0  0  0  0  0  0  0
   -0.7433   23.3700  -27.1816 H   0  0  0  0  0  0  0  0  0  0  0  0
   -2.2746   22.4310  -27.1816 H   0  0  0  0  0  0  0  0  0  0  0  0
    0.4652   19.1115  -27.9259 H   0  0  0  0  0  0  0  0  0  0  0  0
   -1.0627   18.2534  -28.3133 H   0  0  0  0  0  0  0  0  0  0  0  0
    0.8594   19.2153  -30.1541 H   0  0  0  0  0  0  0  0  0  0  0  0
   -0.8252   18.6378  -30.5184 H   0  0  0  0  0  0  0  0  0  0  0  0
    0.0840   21.0030  -31.1910 H   0  0  0  0  0  0  0  0  0  0  0  0
   -0.4930   21.4060  -29.6600 H   0  0  0  0  0  0  0  0  0  0  0  0
   -2.7318   22.0097  -29.4078 H   0  0  0  0  0  0  0  0  0  0  0  0
   -5.0810   21.9882  -30.3166 H   0  0  0  0  0  0  0  0  0  0  0  0
   -3.6299   18.7683  -34.4451 H   0  0  0  0  0  0  0  0  0  0  0  0
   -6.2096   23.1511  -32.3498 H   0  0  0  0  0  0  0  0  0  0  0  0
   -8.4350   24.1652  -31.8702 H   0  0  0  0  0  0  0  0  0  0  0  0
  -10.4472   22.7115  -31.6237 H   0  0  0  0  0  0  0  0  0  0  0  0
  -10.2360   20.2368  -31.8519 H   0  0  0  0  0  0  0  0  0  0  0  0
   -1.4375   19.4439  -32.6962 H   0  0  0  0  0  0  0  0  0  0  0  0
  1  2  1  0
  2  3  1  0
  3  4  1  0
  4  5  1  0
  3  6  1  0
  6  7  1  0
  7  8  1  0
  8  9  1  0
  9 10  2  0
 10 11  1  0
 11 12  2  0
 12 13  1  0
 13 14  1  0
 14 15  2  0
 15 16  1  0
 16 17  1  0
 17 18  2  0
 18 19  1  0
 19 20  2  0
 20 21  1  0
 21 22  2  0
 22 23  1  0
 13 24  2  0
 24  9  1  0
 16 12  1  0
 22 17  1  0
  1 25  1  0
  1 26  1  0
  1 27  1  0
  2 28  1  0
  2 29  1  0
  4 30  1  0
  4 31  1  0
  5 32  1  0
  5 33  1  0
  5 34  1  0
  6 35  1  0
  6 36  1  0
  7 37  1  0
  7 38  1  0
  8 39  1  0
  8 40  1  0
 10 41  1  0
 11 42  1  0
 14 43  1  0
 18 44  1  0
 19 45  1  0
 20 46  1  0
 21 47  1  0
 24 48  1  0
M  CHG  1   8   1
M  END
>  <UniqueID>  (16) 
14

>  <SMILES>  (16) 
CCN(CC)CC[NH2+]c1ccc2c(cnn2-c2ccccc2Cl)c1

>  <Energy>  (16) 
95.82304058491951

>  <Genealogy>  (16) 
CCN(CC)CC[NH2+]c1ccc2c(cnn2-c2ccccc2Cl)c1 (protonated)
CCN(CC)CC[NH2+]c1ccc2c(cnn2-c2ccccc2Cl)c1 (3D coordinates assigned)
CCN(CC)CC[NH2+]c1ccc2c(cnn2-c2ccccc2Cl)c1 (optimized conformer: 95.82304058491951 kcal/mol)

>  <smiles>  (16) 
CCN(CC)CCNc1ccc2c(cnn2-c2ccccc2Cl)c1

>  <score_type>  (16) 
oracle

>  <origin>  (16) 
adg

>  <m_score__min__energy>  (16) 
-7.1299999999999999

>  <m_primary>  (16) 
energy

$$$$
16:0
     RDKit          3D

 52 55  0  0  0  0  0  0  0  0999 V2000
   -1.1490   19.2360  -27.4730 C   0  0  0  0  0  0  0  0  0  0  0  0
   -1.7000   20.5460  -27.9540 C   0  0  0  0  0  0  0  0  0  0  0  0
   -2.9730   20.9710  -27.5440 C   0  0  0  0  0  0  0  0  0  0  0  0
   -3.4730   22.2080  -27.9620 C   0  0  0  0  0  0  0  0  0  0  0  0
   -2.7020   23.0430  -28.7870 C   0  0  0  0  0  0  0  0  0  0  0  0
   -3.2380   24.3810  -29.2470 C   0  0  0  0  0  0  0  0  0  0  0  0
   -3.9560   24.2810  -30.5430 N   0  0  0  0  0  0  0  0  0  0  0  0
   -3.8880   22.9040  -31.1130 C   0  0  0  0  0  0  0  0  0  0  0  0
   -5.1490   22.0770  -30.8040 C   0  0  0  0  0  0  0  0  0  0  0  0
   -6.3880   22.7170  -31.3200 N   0  0  0  0  0  0  0  0  0  0  0  0
   -6.8390   22.1080  -32.5910 C   0  0  0  0  0  0  0  0  0  0  0  0
   -7.3550   20.6860  -32.4060 C   0  0  0  0  0  0  0  0  0  0  0  0
   -8.5450   20.4660  -31.6820 C   0  0  0  0  0  0  0  0  0  0  0  0
   -9.0360   19.1780  -31.4770 C   0  0  0  0  0  0  0  0  0  0  0  0
   -8.3690   18.0800  -32.0100 C   0  0  0  0  0  0  0  0  0  0  0  0
   -7.2160   18.2610  -32.7820 C   0  0  0  0  0  0  0  0  0  0  0  0
   -6.5730   17.1460  -33.3450 C   0  0  0  0  0  0  0  0  0  0  0  0
   -5.4440   17.3140  -34.1460 C   0  0  0  0  0  0  0  0  0  0  0  0
   -4.9500   18.5920  -34.3980 C   0  0  0  0  0  0  0  0  0  0  0  0
   -5.5740   19.7130  -33.8430 C   0  0  0  0  0  0  0  0  0  0  0  0
   -6.7060   19.5700  -33.0080 C   0  0  0  0  0  0  0  0  0  0  0  0
   -6.2750   24.1870  -31.4570 C   0  0  0  0  0  0  0  0  0  0  0  0
   -5.3500   24.7700  -30.3830 C   0  0  0  0  0  0  0  0  0  0  0  0
   -1.4180   22.6260  -29.1770 C   0  0  0  0  0  0  0  0  0  0  0  0
   -0.9190   21.3890  -28.7590 C   0  0  0  0  0  0  0  0  0  0  0  0
   -1.1433   19.2223  -26.3731 H   0  0  0  0  0  0  0  0  0  0  0  0
   -1.7778   18.4144  -27.8466 H   0  0  0  0  0  0  0  0  0  0  0  0
   -0.1220   19.1108  -27.8466 H   0  0  0  0  0  0  0  0  0  0  0  0
   -3.5805   20.3277  -26.8905 H   0  0  0  0  0  0  0  0  0  0  0  0
   -4.4756   22.5289  -27.6430 H   0  0  0  0  0  0  0  0  0  0  0  0
   -3.9328   24.7652  -28.4856 H   0  0  0  0  0  0  0  0  0  0  0  0
   -2.3825   25.0584  -29.3858 H   0  0  0  0  0  0  0  0  0  0  0  0
   -3.4890   24.9240  -31.2250 H   0  0  0  0  0  0  0  0  0  0  0  0
   -3.7736   22.9789  -32.2045 H   0  0  0  0  0  0  0  0  0  0  0  0
   -3.0305   22.3924  -30.6515 H   0  0  0  0  0  0  0  0  0  0  0  0
   -5.0438   21.0856  -31.2688 H   0  0  0  0  0  0  0  0  0  0  0  0
   -5.2410   22.0022  -29.7104 H   0  0  0  0  0  0  0  0  0  0  0  0
   -7.6474   22.7249  -33.0104 H   0  0  0  0  0  0  0  0  0  0  0  0
   -5.9720   22.0637  -33.2666 H   0  0  0  0  0  0  0  0  0  0  0  0
   -9.0951   21.3258  -31.2720 H   0  0  0  0  0  0  0  0  0  0  0  0
   -9.9550   19.0291  -30.8911 H   0  0  0  0  0  0  0  0  0  0  0  0
   -8.7495   17.0648  -31.8238 H   0  0  0  0  0  0  0  0  0  0  0  0
   -6.9622   16.1352  -33.1530 H   0  0  0  0  0  0  0  0  0  0  0  0
   -4.9427   16.4361  -34.5796 H   0  0  0  0  0  0  0  0  0  0  0  0
   -4.0640   18.7197  -35.0373 H   0  0  0  0  0  0  0  0  0  0  0  0
   -5.1801   20.7172  -34.0582 H   0  0  0  0  0  0  0  0  0  0  0  0
   -5.8674   24.4253  -32.4505 H   0  0  0  0  0  0  0  0  0  0  0  0
   -7.2753   24.6280  -31.3345 H   0  0  0  0  0  0  0  0  0  0  0  0
   -5.3557   25.8671  -30.4632 H   0  0  0  0  0  0  0  0  0  0  0  0
   -5.7183   24.4482  -29.3977 H   0  0  0  0  0  0  0  0  0  0  0  0
   -0.8020   23.2768  -29.8149 H   0  0  0  0  0  0  0  0  0  0  0  0
    0.0906   21.0750  -29.0626 H   0  0  0  0  0  0  0  0  0  0  0  0
  1  2  1  0
  2  3  2  0
  3  4  1  0
  4  5  2  0
  5  6  1  0
  6  7  1  0
  7  8  1  0
  8  9  1  0
  9 10  1  0
 10 11  1  0
 11 12  1  0
 12 13  2  0
 13 14  1  0
 14 15  2  0
 15 16  1  0
 16 17  2  0
 17 18  1  0
 18 19  2  0
 19 20  1  0
 20 21  2  0
 10 22  1  0
 22 23  1  0
  5 24  1  0
 24 25  2  0
 25  2  1  0
 23  7  1  0
 21 12  1  0
 21 16  1  0
  1 26  1  0
  1 27  1  0
  1 28  1  0
  3 29  1  0
  4 30  1  0
  6 31  1  0
  6 32  1  0
  7 33  1  0
  8 34  1  0
  8 35  1  0
  9 36  1  0
  9 37  1  0
 11 38  1  0
 11 39  1  0
 13 40  1  0
 14 41  1  0
 15 42  1  0
 17 43  1  0
 18 44  1  0
 19 45  1  0
 20 46  1  0
 22 47  1  0
 22 48  1  0
 23 49  1  0
 23 50  1  0
 24 51  1  0
 25 52  1  0
M  CHG  1   7   1
M  END
>  <UniqueID>  (17) 
15

>  <SMILES>  (17) 
Cc1ccc(C[NH+]2CCN(Cc3cccc4ccccc34)CC2)cc1

>  <Energy>  (17) 
76.5758564084966

>  <Genealogy>  (17) 
Cc1ccc(C[NH+]2CCN(Cc3cccc4ccccc34)CC2)cc1 (protonated)
Cc1ccc(C[NH+]2CCN(Cc3cccc4ccccc34)CC2)cc1 (3D coordinates assigned)
Cc1ccc(C[NH+]2CCN(Cc3cccc4ccccc34)CC2)cc1 (nonaromatic ring conformer: 76.5758564084966 kcal/mol)

>  <smiles>  (17) 
Cc1ccc(CN2CCN(Cc3cccc4ccccc34)CC2)cc1

>  <score_type>  (17) 
oracle

>  <origin>  (17) 
adg

>  <m_score__min__energy>  (17) 
-8.2300000000000004

>  <m_primary>  (17) 
energy

$$$$
17:0
     RDKit          3D

 34 35  0  0  0  0  0  0  0  0999 V2000
   -2.1400   24.8270  -28.1480 C   0  0  0  0  0  0  0  0  0  0  0  0
   -2.7350   25.2960  -29.3530 O   0  0  0  0  0  0  0  0  0  0  0  0
   -3.7870   24.6510  -30.0200 C   0  0  0  0  0  0  0  0  0  0  0  0
   -5.0240   25.3000  -30.0950 C   0  0  0  0  0  0  0  0  0  0  0  0
   -6.1030   24.7000  -30.7490 C   0  0  0  0  0  0  0  0  0  0  0  0
   -5.9600   23.4330  -31.3370 C   0  0  0  0  0  0  0  0  0  0  0  0
   -7.1100   22.7910  -32.0690 C   0  0  0  0  0  0  0  0  0  0  0  0
   -7.2720   21.3780  -31.6660 N   0  0  0  0  0  0  0  0  0  0  0  0
   -8.6570   21.0960  -31.2120 C   0  0  0  0  0  0  0  0  0  0  0  0
   -9.4990   20.4080  -32.2980 C   0  0  0  0  0  0  0  0  0  0  0  0
   -8.9100   19.1190  -32.7140 N   0  0  0  0  0  0  0  0  0  0  0  0
   -7.4380   19.0640  -32.5890 C   0  0  0  0  0  0  0  0  0  0  0  0
   -6.8060   20.4550  -32.7320 C   0  0  0  0  0  0  0  0  0  0  0  0
   -4.7190   22.7820  -31.2700 C   0  0  0  0  0  0  0  0  0  0  0  0
   -3.6390   23.3830  -30.6150 C   0  0  0  0  0  0  0  0  0  0  0  0
   -2.6763   25.2497  -27.2856 H   0  0  0  0  0  0  0  0  0  0  0  0
   -2.1980   23.7291  -28.1136 H   0  0  0  0  0  0  0  0  0  0  0  0
   -1.0860   25.1398  -28.1136 H   0  0  0  0  0  0  0  0  0  0  0  0
   -5.1482   26.2914  -29.6350 H   0  0  0  0  0  0  0  0  0  0  0  0
   -7.0693   25.2228  -30.8035 H   0  0  0  0  0  0  0  0  0  0  0  0
   -8.0350   23.3394  -31.8373 H   0  0  0  0  0  0  0  0  0  0  0  0
   -6.9014   22.8258  -33.1485 H   0  0  0  0  0  0  0  0  0  0  0  0
   -8.6133   20.4401  -30.3300 H   0  0  0  0  0  0  0  0  0  0  0  0
   -9.1353   22.0577  -30.9747 H   0  0  0  0  0  0  0  0  0  0  0  0
  -10.5097   20.2269  -31.9035 H   0  0  0  0  0  0  0  0  0  0  0  0
   -9.5302   21.0691  -33.1766 H   0  0  0  0  0  0  0  0  0  0  0  0
   -9.3220   18.3510  -32.1320 H   0  0  0  0  0  0  0  0  0  0  0  0
   -9.1760   18.9380  -33.7100 H   0  0  0  0  0  0  0  0  0  0  0  0
   -7.1788   18.6540  -31.6017 H   0  0  0  0  0  0  0  0  0  0  0  0
   -7.0482   18.4248  -33.3949 H   0  0  0  0  0  0  0  0  0  0  0  0
   -5.7121   20.3586  -32.6680 H   0  0  0  0  0  0  0  0  0  0  0  0
   -7.1068   20.8719  -33.7045 H   0  0  0  0  0  0  0  0  0  0  0  0
   -4.5946   21.7931  -31.7353 H   0  0  0  0  0  0  0  0  0  0  0  0
   -2.6707   22.8635  -30.5644 H   0  0  0  0  0  0  0  0  0  0  0  0
  1  2  1  0
  2  3  1  0
  3  4  2  0
  4  5  1  0
  5  6  2  0
  6  7  1  0
  7  8  1  0
  8  9  1  0
  9 10  1  0
 10 11  1  0
 11 12  1  0
 12 13  1  0
  6 14  1  0
 14 15  2  0
 15  3  1  0
 13  8  1  0
  1 16  1  0
  1 17  1  0
  1 18  1  0
  4 19  1  0
  5 20  1  0
  7 21  1  0
  7 22  1  0
  9 23  1  0
  9 24  1  0
 10 25  1  0
 10 26  1  0
 11 27  1  0
 11 28  1  0
 12 29  1  0
 12 30  1  0
 13 31  1  0
 13 32  1  0
 14 33  1  0
 15 34  1  0
M  CHG  1  11   1
M  END
>  <UniqueID>  (18) 
16

>  <SMILES>  (18) 
COc1ccc(CN2CC[NH2+]CC2)cc1

>  <Energy>  (18) 
42.649198082074875

>  <Genealogy>  (18) 
COc1ccc(CN2CC[NH2+]CC2)cc1 (protonated)
COc1ccc(CN2CC[NH2+]CC2)cc1 (3D coordinates assigned)
COc1ccc(CN2CC[NH2+]CC2)cc1 (nonaromatic ring conformer: 42.649198082074875 kcal/mol)

>  <smiles>  (18) 
COc1ccc(CN2CCNCC2)cc1

>  <score_type>  (18) 
oracle

>  <origin>  (18) 
adg

>  <m_score__min__energy>  (18) 
-6.1799999999999997

>  <m_primary>  (18) 
energy

$$$$
18:0
     RDKit          3D

 40 41  0  0  0  0  0  0  0  0999 V2000
   -0.0720   28.5480  -24.4740 C   0  0  0  0  0  0  0  0  0  0  0  0
   -0.2740   27.2030  -23.7840 C   0  0  0  0  0  0  0  0  0  0  0  0
   -0.4000   26.1070  -24.7960 C   0  0  0  0  0  0  0  0  0  0  0  0
   -0.0750   24.8180  -24.5610 N   0  0  0  0  0  0  0  0  0  0  0  0
   -0.2200   24.0200  -25.6560 C   0  0  0  0  0  0  0  0  0  0  0  0
    0.0780   22.6530  -25.5580 O   0  0  0  0  0  0  0  0  0  0  0  0
   -0.8650   21.5960  -25.6740 C   0  0  0  0  0  0  0  0  0  0  0  0
   -0.6770   24.7010  -26.8000 C   0  0  0  0  0  0  0  0  0  0  0  0
   -1.2060   24.0460  -28.3460 S   0  0  0  0  0  0  0  0  0  0  0  0
   -1.6780   22.6300  -28.1740 O   0  0  0  0  0  0  0  0  0  0  0  0
   -0.0550   24.0500  -29.3130 O   0  0  0  0  0  0  0  0  0  0  0  0
   -2.4810   25.0190  -28.9970 N   0  0  0  0  0  0  0  0  0  0  0  0
   -3.3780   24.5370  -29.9990 C   0  0  0  0  0  0  0  0  0  0  0  0
   -3.8730   25.3290  -30.8470 O   0  0  0  0  0  0  0  0  0  0  0  0
   -3.7400   23.0840  -30.0360 C   0  0  0  0  0  0  0  0  0  0  0  0
   -4.0380   22.6370  -31.4700 C   0  0  0  0  0  0  0  0  0  0  0  0
   -5.5200   22.4710  -31.6770 C   0  0  0  0  0  0  0  0  0  0  0  0
   -6.0570   21.2140  -31.9960 C   0  0  0  0  0  0  0  0  0  0  0  0
   -7.4370   21.0740  -32.1490 C   0  0  0  0  0  0  0  0  0  0  0  0
   -8.2520   22.1520  -31.9940 N   0  0  0  0  0  0  0  0  0  0  0  0
   -7.7590   23.3810  -31.6830 C   0  0  0  0  0  0  0  0  0  0  0  0
   -6.3860   23.5630  -31.5110 C   0  0  0  0  0  0  0  0  0  0  0  0
   -0.8850   26.3220  -26.3880 S   0  0  0  0  0  0  0  0  0  0  0  0
    0.0463   29.3354  -23.7150 H   0  0  0  0  0  0  0  0  0  0  0  0
    0.8299   28.5060  -25.1023 H   0  0  0  0  0  0  0  0  0  0  0  0
   -0.9465   28.7728  -25.1023 H   0  0  0  0  0  0  0  0  0  0  0  0
    0.5886   26.9971  -23.1332 H   0  0  0  0  0  0  0  0  0  0  0  0
   -1.1978   27.2445  -23.1883 H   0  0  0  0  0  0  0  0  0  0  0  0
    0.2650   24.4670  -23.6370 H   0  0  0  0  0  0  0  0  0  0  0  0
   -1.1646   21.2601  -24.6703 H   0  0  0  0  0  0  0  0  0  0  0  0
   -1.7503   21.9528  -26.2207 H   0  0  0  0  0  0  0  0  0  0  0  0
   -0.4099   20.7570  -26.2207 H   0  0  0  0  0  0  0  0  0  0  0  0
   -2.9011   22.4926  -29.6404 H   0  0  0  0  0  0  0  0  0  0  0  0
   -4.6397   22.9279  -29.4226 H   0  0  0  0  0  0  0  0  0  0  0  0
   -3.6578   23.3946  -32.1711 H   0  0  0  0  0  0  0  0  0  0  0  0
   -3.5447   21.6703  -31.6495 H   0  0  0  0  0  0  0  0  0  0  0  0
   -5.3946   20.3452  -32.1245 H   0  0  0  0  0  0  0  0  0  0  0  0
   -7.8659   20.0914  -32.3951 H   0  0  0  0  0  0  0  0  0  0  0  0
   -8.4442   24.2336  -31.5668 H   0  0  0  0  0  0  0  0  0  0  0  0
   -5.9862   24.5534  -31.2477 H   0  0  0  0  0  0  0  0  0  0  0  0
  1  2  1  0
  2  3  1  0
  3  4  2  0
  4  5  1  0
  5  6  1  0
  6  7  1  0
  5  8  2  0
  8  9  1  0
  9 10  2  0
  9 11  2  0
  9 12  1  0
 12 13  1  0
 13 14  2  0
 13 15  1  0
 15 16  1  0
 16 17  1  0
 17 18  2  0
 18 19  1  0
 19 20  2  0
 20 21  1  0
 21 22  2  0
  8 23  1  0
 23  3  1  0
 22 17  1  0
  1 24  1  0
  1 25  1  0
  1 26  1  0
  2 27  1  0
  2 28  1  0
  4 29  1  0
  7 30  1  0
  7 31  1  0
  7 32  1  0
 15 33  1  0
 15 34  1  0
 16 35  1  0
 16 36  1  0
 18 37  1  0
 19 38  1  0
 21 39  1  0
 22 40  1  0
M  CHG  2   4   1  12  -1
M  END
>  <UniqueID>  (19) 
17

>  <SMILES>  (19) 
CCc1[nH+]c(OC)c(S(=O)(=O)[N-]C(=O)CCc2ccncc2)s1

>  <Energy>  (19) 
68.3875317872215

>  <Genealogy>  (19) 
CCc1[nH+]c(OC)c(S(=O)(=O)[N-]C(=O)CCc2ccncc2)s1 (protonated)
CCc1[nH+]c(OC)c(S(=O)(=O)[N-]C(=O)CCc2ccncc2)s1 (3D coordinates assigned)
CCc1[nH+]c(OC)c(S(=O)(=O)[N-]C(=O)CCc2ccncc2)s1 (optimized conformer: 68.3875317872215 kcal/mol)

>  <smiles>  (19) 
CCc1nc(OC)c(S(=O)(=O)NC(=O)CCc2ccncc2)s1

>  <score_type>  (19) 
oracle

>  <origin>  (19) 
adg

>  <m_score__min__energy>  (19) 
-9.2400000000000002

>  <m_primary>  (19) 
energy

$$$$
19:0
     RDKit          3D

 34 34  0  0  0  0  0  0  0  0999 V2000
   -8.1180   19.9510  -32.6690 C   0  0  0  0  0  0  0  0  0  0  0  0
   -7.2660   18.7670  -32.8560 N   0  0  0  0  0  0  0  0  0  0  0  0
   -7.1990   17.9650  -31.6230 C   0  0  0  0  0  0  0  0  0  0  0  0
   -5.9240   19.1220  -33.3680 C   0  0  0  0  0  0  0  0  0  0  0  0
   -5.4260   20.4140  -32.8590 C   0  0  0  0  0  0  0  0  0  0  0  0
   -4.9930   21.4590  -32.4390 C   0  0  0  0  0  0  0  0  0  0  0  0
   -4.4980   22.7550  -31.9390 C   0  0  0  0  0  0  0  0  0  0  0  0
   -5.5040   23.8470  -31.9950 N   0  0  0  0  0  0  0  0  0  0  0  0
   -6.8070   23.3830  -32.5020 C   0  0  0  0  0  0  0  0  0  0  0  0
   -7.7550   23.2370  -31.3100 C   0  0  0  0  0  0  0  0  0  0  0  0
   -7.0250   23.8330  -30.1160 C   0  0  0  0  0  0  0  0  0  0  0  0
   -5.8190   24.5350  -30.7260 C   0  0  1  0  0  0  0  0  0  0  0  0
   -4.6340   24.7710  -29.7590 C   0  0  0  0  0  0  0  0  0  0  0  0
   -3.4940   25.2510  -30.4230 O   0  0  0  0  0  0  0  0  0  0  0  0
   -8.2534   20.1392  -31.5937 H   0  0  0  0  0  0  0  0  0  0  0  0
   -7.6399   20.8243  -33.1367 H   0  0  0  0  0  0  0  0  0  0  0  0
   -9.0980   19.7751  -33.1367 H   0  0  0  0  0  0  0  0  0  0  0  0
   -7.2546   18.6307  -30.7491 H   0  0  0  0  0  0  0  0  0  0  0  0
   -8.0412   17.2578  -31.5994 H   0  0  0  0  0  0  0  0  0  0  0  0
   -6.2511   17.4073  -31.5994 H   0  0  0  0  0  0  0  0  0  0  0  0
   -5.2171   18.3338  -33.0696 H   0  0  0  0  0  0  0  0  0  0  0  0
   -6.0071   19.2137  -34.4610 H   0  0  0  0  0  0  0  0  0  0  0  0
   -4.1854   22.6257  -30.8923 H   0  0  0  0  0  0  0  0  0  0  0  0
   -3.6668   23.0533  -32.5948 H   0  0  0  0  0  0  0  0  0  0  0  0
   -7.2130   24.1167  -33.2139 H   0  0  0  0  0  0  0  0  0  0  0  0
   -6.6937   22.4190  -33.0196 H   0  0  0  0  0  0  0  0  0  0  0  0
   -8.6910   23.7838  -31.4972 H   0  0  0  0  0  0  0  0  0  0  0  0
   -8.0210   22.1842  -31.1342 H   0  0  0  0  0  0  0  0  0  0  0  0
   -7.6671   24.5514  -29.5853 H   0  0  0  0  0  0  0  0  0  0  0  0
   -6.7386   23.0720  -29.3752 H   0  0  0  0  0  0  0  0  0  0  0  0
   -6.0719   25.5816  -30.9511 H   0  0  0  0  0  0  0  0  0  0  0  0
   -4.9377   25.5068  -28.9998 H   0  0  0  0  0  0  0  0  0  0  0  0
   -4.3755   23.8052  -29.3003 H   0  0  0  0  0  0  0  0  0  0  0  0
   -3.5420   24.9280  -31.3600 H   0  0  0  0  0  0  0  0  0  0  0  0
  1  2  1  0
  2  3  1  0
  2  4  1  0
  4  5  1  0
  5  6  3  0
  6  7  1  0
  7  8  1  0
  8  9  1  0
  9 10  1  0
 10 11  1  0
 11 12  1  0
 12 13  1  0
 13 14  1  0
 12  8  1  0
  1 15  1  0
  1 16  1  0
  1 17  1  0
  3 18  1  0
  3 19  1  0
  3 20  1  0
  4 21  1  0
  4 22  1  0
  7 23  1  0
  7 24  1  0
  9 25  1  0
  9 26  1  0
 10 27  1  0
 10 28  1  0
 11 29  1  0
 11 30  1  0
 12 31  1  6
 13 32  1  0
 13 33  1  0
 14 34  1  0
M  END
>  <UniqueID>  (20) 
18

>  <SMILES>  (20) 
CN(C)CC#CCN1CCC[C@H]1CO

>  <Energy>  (20) 
38.63340688639851

>  <Genealogy>  (20) 
CN(C)CC#CCN1CCC[C@H]1CO (chirality)
CN(C)CC#CCN1CCC[C@H]1CO (3D coordinates assigned)
CN(C)CC#CCN1CCC[C@H]1CO (nonaromatic ring conformer: 38.63340688639851 kcal/mol)

>  <smiles>  (20) 
CN(C)CC#CCN1CCCC1CO

>  <score_type>  (20) 
oracle

>  <origin>  (20) 
adg

>  <m_score__min__energy>  (20) 
-6.1699999999999999

>  <m_primary>  (20) 
energy

$$$$
20:0
     RDKit          3D

 46 49  0  0  0  0  0  0  0  0999 V2000
   -2.3000   19.0630  -33.8370 C   0  0  0  0  0  0  0  0  0  0  0  0
   -3.7710   18.7990  -33.9130 C   0  0  0  0  0  0  0  0  0  0  0  0
   -4.6780   19.6690  -33.3920 N   0  0  0  0  0  0  0  0  0  0  0  0
   -5.9500   19.2590  -33.5930 C   0  0  0  0  0  0  0  0  0  0  0  0
   -7.1570   20.0290  -33.1310 C   0  0  0  0  0  0  0  0  0  0  0  0
   -6.8840   20.9130  -31.9780 N   0  0  0  0  0  0  0  0  0  0  0  0
   -8.0820   21.1700  -31.1460 C   0  0  0  0  0  0  0  0  0  0  0  0
   -7.8410   22.3430  -30.1930 C   0  0  0  0  0  0  0  0  0  0  0  0
   -7.5920   23.5940  -30.9450 N   0  0  0  0  0  0  0  0  0  0  0  0
   -6.9870   24.6550  -30.1100 C   0  0  0  0  0  0  0  0  0  0  0  0
   -5.4840   24.5860  -30.0650 C   0  0  0  0  0  0  0  0  0  0  0  0
   -4.6770   25.2960  -30.8760 N   0  0  0  0  0  0  0  0  0  0  0  0
   -3.4750   25.0080  -30.4820 O   0  0  0  0  0  0  0  0  0  0  0  0
   -3.5310   24.1720  -29.4770 C   0  0  0  0  0  0  0  0  0  0  0  0
   -2.3310   23.6280  -28.7670 C   0  0  0  0  0  0  0  0  0  0  0  0
   -2.1670   24.1190  -27.3360 C   0  0  0  0  0  0  0  0  0  0  0  0
   -1.2780   24.6740  -28.4360 C   0  0  0  0  0  0  0  0  0  0  0  0
   -4.8000   23.8530  -29.1630 N   0  0  0  0  0  0  0  0  0  0  0  0
   -6.9300   23.4070  -32.2600 C   0  0  0  0  0  0  0  0  0  0  0  0
   -6.0880   22.1200  -32.3120 C   0  0  0  0  0  0  0  0  0  0  0  0
   -6.0000   17.8060  -34.4460 S   0  0  0  0  0  0  0  0  0  0  0  0
   -4.3270   17.6850  -34.5440 C   0  0  0  0  0  0  0  0  0  0  0  0
   -3.5850   16.5990  -35.2560 C   0  0  0  0  0  0  0  0  0  0  0  0
   -1.9914   19.1184  -32.7826 H   0  0  0  0  0  0  0  0  0  0  0  0
   -1.7550   18.2483  -34.3363 H   0  0  0  0  0  0  0  0  0  0  0  0
   -2.0723   20.0164  -34.3363 H   0  0  0  0  0  0  0  0  0  0  0  0
   -7.5170   20.6471  -33.9666 H   0  0  0  0  0  0  0  0  0  0  0  0
   -7.9065   19.2927  -32.8051 H   0  0  0  0  0  0  0  0  0  0  0  0
   -8.9324   21.4073  -31.8021 H   0  0  0  0  0  0  0  0  0  0  0  0
   -8.2969   20.2705  -30.5504 H   0  0  0  0  0  0  0  0  0  0  0  0
   -8.7274   22.4767  -29.5555 H   0  0  0  0  0  0  0  0  0  0  0  0
   -6.9556   22.1203  -29.5794 H   0  0  0  0  0  0  0  0  0  0  0  0
   -7.2804   25.6328  -30.5196 H   0  0  0  0  0  0  0  0  0  0  0  0
   -7.3528   24.5123  -29.0825 H   0  0  0  0  0  0  0  0  0  0  0  0
   -2.3299   22.6432  -29.2570 H   0  0  0  0  0  0  0  0  0  0  0  0
   -2.9405   24.7549  -26.8807 H   0  0  0  0  0  0  0  0  0  0  0  0
   -1.9913   23.6362  -26.3634 H   0  0  0  0  0  0  0  0  0  0  0  0
   -1.4079   25.7118  -28.7767 H   0  0  0  0  0  0  0  0  0  0  0  0
   -0.1920   24.7593  -28.5890 H   0  0  0  0  0  0  0  0  0  0  0  0
   -7.7029   23.3559  -33.0411 H   0  0  0  0  0  0  0  0  0  0  0  0
   -6.2528   24.2589  -32.4201 H   0  0  0  0  0  0  0  0  0  0  0  0
   -5.6798   22.0050  -33.3270 H   0  0  0  0  0  0  0  0  0  0  0  0
   -5.2860   22.2119  -31.5648 H   0  0  0  0  0  0  0  0  0  0  0  0
   -3.1246   15.9251  -34.5185 H   0  0  0  0  0  0  0  0  0  0  0  0
   -4.2839   16.0299  -35.8866 H   0  0  0  0  0  0  0  0  0  0  0  0
   -2.8008   17.0433  -35.8866 H   0  0  0  0  0  0  0  0  0  0  0  0
  1  2  1  0
  2  3  1  0
  3  4  2  0
  4  5  1  0
  5  6  1  0
  6  7  1  0
  7  8  1  0
  8  9  1  0
  9 10  1  0
 10 11  1  0
 11 12  2  0
 12 13  1  0
 13 14  1  0
 14 15  1  0
 15 16  1  0
 16 17  1  0
 14 18  2  0
  9 19  1  0
 19 20  1  0
  4 21  1  0
 21 22  1  0
 22 23  1  0
 22  2  2  0
 20  6  1  0
 18 11  1  0
 17 15  1  0
  1 24  1  0
  1 25  1  0
  1 26  1  0
  5 27  1  0
  5 28  1  0
  7 29  1  0
  7 30  1  0
  8 31  1  0
  8 32  1  0
 10 33  1  0
 10 34  1  0
 15 35  1  0
 16 36  1  0
 16 37  1  0
 17 38  1  0
 17 39  1  0
 19 40  1  0
 19 41  1  0
 20 42  1  0
 20 43  1  0
 23 44  1  0
 23 45  1  0
 23 46  1  0
M  END
>  <UniqueID>  (21) 
19

>  <SMILES>  (21) 
Cc1nc(CN2CCN(Cc3noc(C4CC4)n3)CC2)sc1C

>  <Energy>  (21) 
384.55337183773236

>  <Genealogy>  (21) 
Cc1nc(CN2CCN(Cc3noc(C4CC4)n3)CC2)sc1C (3D coordinates assigned)
Cc1nc(CN2CCN(Cc3noc(C4CC4)n3)CC2)sc1C (nonaromatic ring conformer: 384.55337183773236 kcal/mol)

>  <smiles>  (21) 
Cc1nc(CN2CCN(Cc3noc(C4CC4)n3)CC2)sc1C

>  <score_type>  (21) 
oracle

>  <origin>  (21) 
adg

>  <m_score__min__energy>  (21) 
-9.2300000000000004

>  <m_primary>  (21) 
energy

$$$$
21:0
     RDKit          3D

 44 47  0  0  0  0  0  0  0  0999 V2000
   -2.7410   18.9120  -26.3560 C   0  0  0  0  0  0  0  0  0  0  0  0
   -1.7550   19.2560  -27.4670 C   0  0  0  0  0  0  0  0  0  0  0  0
   -1.9820   20.6570  -27.9670 C   0  0  0  0  0  0  0  0  0  0  0  0
   -2.2260   21.7010  -27.0640 C   0  0  0  0  0  0  0  0  0  0  0  0
   -2.4110   23.0070  -27.5260 C   0  0  0  0  0  0  0  0  0  0  0  0
   -2.3420   23.2950  -28.9020 C   0  0  0  0  0  0  0  0  0  0  0  0
   -2.5410   24.6790  -29.3920 C   0  0  0  0  0  0  0  0  0  0  0  0
   -1.9190   25.6340  -28.8500 O   0  0  0  0  0  0  0  0  0  0  0  0
   -3.4810   24.9400  -30.4440 N   0  0  0  0  0  0  0  0  0  0  0  0
   -4.7640   24.3210  -30.6200 C   0  0  0  0  0  0  0  0  0  0  0  0
   -5.9560   24.9580  -30.2370 C   0  0  0  0  0  0  0  0  0  0  0  0
   -7.1850   24.3290  -30.4450 C   0  0  0  0  0  0  0  0  0  0  0  0
   -7.2390   23.0710  -31.0470 C   0  0  0  0  0  0  0  0  0  0  0  0
   -6.0600   22.4270  -31.4610 C   0  0  0  0  0  0  0  0  0  0  0  0
   -6.1350   21.0960  -32.1130 C   0  0  0  0  0  0  0  0  0  0  0  0
   -7.0080   20.0570  -31.7890 C   0  0  0  0  0  0  0  0  0  0  0  0
   -6.7340   19.0470  -32.6230 N   0  0  0  0  0  0  0  0  0  0  0  0
   -7.2880   17.8140  -32.7320 C   0  0  0  0  0  0  0  0  0  0  0  0
   -6.7850   16.9570  -33.7170 C   0  0  0  0  0  0  0  0  0  0  0  0
   -5.7350   17.4110  -34.5420 C   0  0  0  0  0  0  0  0  0  0  0  0
   -5.2220   18.6660  -34.3790 N   0  0  0  0  0  0  0  0  0  0  0  0
   -5.7380   19.4670  -33.4120 C   0  0  0  0  0  0  0  0  0  0  0  0
   -5.3300   20.7210  -33.1420 N   0  0  0  0  0  0  0  0  0  0  0  0
   -4.8240   23.0700  -31.2480 C   0  0  0  0  0  0  0  0  0  0  0  0
   -2.0780   22.2470  -29.8020 C   0  0  0  0  0  0  0  0  0  0  0  0
   -1.8960   20.9410  -29.3390 C   0  0  0  0  0  0  0  0  0  0  0  0
   -2.2646   19.0782  -25.3785 H   0  0  0  0  0  0  0  0  0  0  0  0
   -3.6307   19.5528  -26.4440 H   0  0  0  0  0  0  0  0  0  0  0  0
   -3.0390   17.8568  -26.4440 H   0  0  0  0  0  0  0  0  0  0  0  0
   -0.7296   19.1737  -27.0775 H   0  0  0  0  0  0  0  0  0  0  0  0
   -1.9048   18.5549  -28.3013 H   0  0  0  0  0  0  0  0  0  0  0  0
   -2.2722   21.4911  -25.9852 H   0  0  0  0  0  0  0  0  0  0  0  0
   -2.6121   23.8162  -26.8086 H   0  0  0  0  0  0  0  0  0  0  0  0
   -5.9211   25.9544  -29.7723 H   0  0  0  0  0  0  0  0  0  0  0  0
   -8.1148   24.8271  -30.1330 H   0  0  0  0  0  0  0  0  0  0  0  0
   -8.2114   22.5797  -31.1987 H   0  0  0  0  0  0  0  0  0  0  0  0
   -7.7742   20.0663  -30.9998 H   0  0  0  0  0  0  0  0  0  0  0  0
   -8.1059   17.4980  -32.0678 H   0  0  0  0  0  0  0  0  0  0  0  0
   -7.2011   15.9469  -33.8457 H   0  0  0  0  0  0  0  0  0  0  0  0
   -5.3270   16.7504  -35.3212 H   0  0  0  0  0  0  0  0  0  0  0  0
   -4.4450   19.0030  -34.9910 H   0  0  0  0  0  0  0  0  0  0  0  0
   -3.8946   22.5835  -31.5790 H   0  0  0  0  0  0  0  0  0  0  0  0
   -2.0142   22.4571  -30.8799 H   0  0  0  0  0  0  0  0  0  0  0  0
   -1.6843   20.1316  -30.0532 H   0  0  0  0  0  0  0  0  0  0  0  0
  1  2  1  0
  2  3  1  0
  3  4  2  0
  4  5  1  0
  5  6  2  0
  6  7  1  0
  7  8  2  0
  7  9  1  0
  9 10  1  0
 10 11  2  0
 11 12  1  0
 12 13  2  0
 13 14  1  0
 14 15  1  0
 15 16  2  0
 16 17  1  0
 17 18  1  0
 18 19  2  0
 19 20  1  0
 20 21  2  0
 21 22  1  0
 22 23  2  0
 14 24  2  0
  6 25  1  0
 25 26  2  0
 26  3  1  0
 24 10  1  0
 23 15  1  0
 22 17  1  0
  1 27  1  0
  1 28  1  0
  1 29  1  0
  2 30  1  0
  2 31  1  0
  4 32  1  0
  5 33  1  0
 11 34  1  0
 12 35  1  0
 13 36  1  0
 16 37  1  0
 18 38  1  0
 19 39  1  0
 20 40  1  0
 21 41  1  0
 24 42  1  0
 25 43  1  0
 26 44  1  0
M  CHG  2   9  -1  21   1
M  END
>  <UniqueID>  (22) 
20

>  <SMILES>  (22) 
CCc1ccc(C(=O)[N-]c2cccc(-c3cn4ccc[nH+]c4n3)c2)cc1

>  <Energy>  (22) 
86.28230184756106

>  <Genealogy>  (22) 
CCc1ccc(C(=O)[N-]c2cccc(-c3cn4ccc[nH+]c4n3)c2)cc1 (protonated)
CCc1ccc(C(=O)[N-]c2cccc(-c3cn4ccc[nH+]c4n3)c2)cc1 (3D coordinates assigned)
CCc1ccc(C(=O)[N-]c2cccc(-c3cn4ccc[nH+]c4n3)c2)cc1 (optimized conformer: 86.28230184756106 kcal/mol)

>  <smiles>  (22) 
CCc1ccc(C(=O)Nc2cccc(-c3cn4cccnc4n3)c2)cc1

>  <score_type>  (22) 
oracle

>  <origin>  (22) 
adg

>  <m_score__min__energy>  (22) 
-10.800000000000001

>  <m_primary>  (22) 
energy

$$$$
22:0
     RDKit          3D

 47 49  0  0  0  0  0  0  0  0999 V2000
   -5.3780   25.6870  -30.3960 C   0  0  0  0  0  0  0  0  0  0  0  0
   -4.9480   24.5700  -31.1670 O   0  0  0  0  0  0  0  0  0  0  0  0
   -5.7220   23.4240  -31.4000 C   0  0  0  0  0  0  0  0  0  0  0  0
   -7.0450   23.4900  -31.8790 C   0  0  0  0  0  0  0  0  0  0  0  0
   -7.7750   22.3170  -32.0950 C   0  0  0  0  0  0  0  0  0  0  0  0
   -7.1980   21.0680  -31.8320 C   0  0  0  0  0  0  0  0  0  0  0  0
   -8.1000   19.5820  -32.1270 S   0  0  0  0  0  0  0  0  0  0  0  0
   -8.1810   18.8030  -30.8430 O   0  0  0  0  0  0  0  0  0  0  0  0
   -9.4970   19.9160  -32.5730 O   0  0  0  0  0  0  0  0  0  0  0  0
   -7.2920   18.6270  -33.3470 N   0  0  0  0  0  0  0  0  0  0  0  0
   -6.4520   19.4860  -34.2220 C   0  0  0  0  0  0  0  0  0  0  0  0
   -4.9670   19.4340  -33.8350 C   0  0  0  0  0  0  0  0  0  0  0  0
   -4.4220   18.0570  -33.9400 N   0  0  0  0  0  0  0  0  0  0  0  0
   -3.1990   17.8990  -33.1250 C   0  0  0  0  0  0  0  0  0  0  0  0
   -2.4050   19.1810  -33.0900 C   0  0  0  0  0  0  0  0  0  0  0  0
   -2.4570   20.0090  -31.9570 C   0  0  0  0  0  0  0  0  0  0  0  0
   -1.7040   21.1870  -31.9110 C   0  0  0  0  0  0  0  0  0  0  0  0
   -0.8930   21.5420  -32.9910 C   0  0  0  0  0  0  0  0  0  0  0  0
   -0.8310   20.7190  -34.1190 C   0  0  0  0  0  0  0  0  0  0  0  0
   -1.5820   19.5420  -34.1700 C   0  0  0  0  0  0  0  0  0  0  0  0
   -5.4240   17.0050  -33.6220 C   0  0  0  0  0  0  0  0  0  0  0  0
   -6.5400   17.5240  -32.7060 C   0  0  0  0  0  0  0  0  0  0  0  0
   -5.8800   21.0000  -31.3630 C   0  0  0  0  0  0  0  0  0  0  0  0
   -5.1490   22.1720  -31.1460 C   0  0  0  0  0  0  0  0  0  0  0  0
   -5.2870   25.4505  -29.3256 H   0  0  0  0  0  0  0  0  0  0  0  0
   -4.7514   26.5594  -30.6334 H   0  0  0  0  0  0  0  0  0  0  0  0
   -6.4278   25.9141  -30.6334 H   0  0  0  0  0  0  0  0  0  0  0  0
   -7.5056   24.4677  -32.0839 H   0  0  0  0  0  0  0  0  0  0  0  0
   -8.8064   22.3754  -32.4729 H   0  0  0  0  0  0  0  0  0  0  0  0
   -8.0450   18.2030  -33.9400 H   0  0  0  0  0  0  0  0  0  0  0  0
   -6.5590   19.1438  -35.2619 H   0  0  0  0  0  0  0  0  0  0  0  0
   -6.7949   20.5245  -34.1042 H   0  0  0  0  0  0  0  0  0  0  0  0
   -4.3997   20.0945  -34.5072 H   0  0  0  0  0  0  0  0  0  0  0  0
   -4.8726   19.7622  -32.7894 H   0  0  0  0  0  0  0  0  0  0  0  0
   -3.4834   17.6236  -32.0987 H   0  0  0  0  0  0  0  0  0  0  0  0
   -2.5760   17.1124  -33.5757 H   0  0  0  0  0  0  0  0  0  0  0  0
   -3.0919   19.7304  -31.1030 H   0  0  0  0  0  0  0  0  0  0  0  0
   -1.7508   21.8345  -31.0230 H   0  0  0  0  0  0  0  0  0  0  0  0
   -0.3028   22.4695  -32.9540 H   0  0  0  0  0  0  0  0  0  0  0  0
   -0.1898   20.9985  -34.9680 H   0  0  0  0  0  0  0  0  0  0  0  0
   -1.5288   18.8958  -35.0586 H   0  0  0  0  0  0  0  0  0  0  0  0
   -5.8734   16.6488  -34.5607 H   0  0  0  0  0  0  0  0  0  0  0  0
   -4.9039   16.1928  -33.0930 H   0  0  0  0  0  0  0  0  0  0  0  0
   -7.2333   16.6996  -32.4832 H   0  0  0  0  0  0  0  0  0  0  0  0
   -6.0815   17.9069  -31.7823 H   0  0  0  0  0  0  0  0  0  0  0  0
   -5.4185   20.0214  -31.1647 H   0  0  0  0  0  0  0  0  0  0  0  0
   -4.1161   22.1099  -30.7730 H   0  0  0  0  0  0  0  0  0  0  0  0
  1  2  1  0
  2  3  1  0
  3  4  2  0
  4  5  1  0
  5  6  2  0
  6  7  1  0
  7  8  2  0
  7  9  2  0
  7 10  1  0
 10 11  1  0
 11 12  1  0
 12 13  1  0
 13 14  1  0
 14 15  1  0
 15 16  2  0
 16 17  1  0
 17 18  2  0
 18 19  1  0
 19 20  2  0
 13 21  1  0
 21 22  1  0
  6 23  1  0
 23 24  2  0
 24  3  1  0
 22 10  1  0
 20 15  1  0
  1 25  1  0
  1 26  1  0
  1 27  1  0
  4 28  1  0
  5 29  1  0
 10 30  1  0
 11 31  1  0
 11 32  1  0
 12 33  1  0
 12 34  1  0
 14 35  1  0
 14 36  1  0
 16 37  1  0
 17 38  1  0
 18 39  1  0
 19 40  1  0
 20 41  1  0
 21 42  1  0
 21 43  1  0
 22 44  1  0
 22 45  1  0
 23 46  1  0
 24 47  1  0
M  CHG  1  10   1
M  END
>  <UniqueID>  (23) 
21

>  <SMILES>  (23) 
COc1ccc(S(=O)(=O)[NH+]2CCN(Cc3ccccc3)CC2)cc1

>  <Energy>  (23) 
58.24710462620809

>  <Genealogy>  (23) 
COc1ccc(S(=O)(=O)[NH+]2CCN(Cc3ccccc3)CC2)cc1 (protonated)
COc1ccc(S(=O)(=O)[NH+]2CCN(Cc3ccccc3)CC2)cc1 (3D coordinates assigned)
COc1ccc(S(=O)(=O)[NH+]2CCN(Cc3ccccc3)CC2)cc1 (nonaromatic ring conformer: 58.24710462620809 kcal/mol)

>  <smiles>  (23) 
COc1ccc(S(=O)(=O)N2CCN(Cc3ccccc3)CC2)cc1

>  <score_type>  (23) 
oracle

>  <origin>  (23) 
adg

>  <m_score__min__energy>  (23) 
-7.9500000000000002

>  <m_primary>  (23) 
energy

$$$$
23:0
     RDKit          3D

 37 39  0  0  0  0  0  0  0  0999 V2000
   -4.7710   16.4480  -33.9300 C   0  0  0  0  0  0  0  0  0  0  0  0
   -4.7380   17.9340  -33.6740 C   0  0  0  0  0  0  0  0  0  0  0  0
   -3.5270   18.6190  -33.8440 C   0  0  0  0  0  0  0  0  0  0  0  0
   -3.4340   19.9910  -33.6230 C   0  0  0  0  0  0  0  0  0  0  0  0
   -2.2050   20.6160  -33.8440 O   0  0  0  0  0  0  0  0  0  0  0  0
   -4.5630   20.7180  -33.2050 C   0  0  0  0  0  0  0  0  0  0  0  0
   -4.4400   22.1200  -32.9250 N   0  0  0  0  0  0  0  0  0  0  0  0
   -3.9210   22.5800  -31.6390 C   0  0  0  0  0  0  0  0  0  0  0  0
   -4.9650   23.3970  -30.9270 C   0  0  0  0  0  0  0  0  0  0  0  0
   -6.2460   22.8620  -30.7130 C   0  0  0  0  0  0  0  0  0  0  0  0
   -7.2440   23.6370  -30.1180 C   0  0  0  0  0  0  0  0  0  0  0  0
   -6.9750   24.9550  -29.7400 C   0  0  0  0  0  0  0  0  0  0  0  0
   -5.7080   25.5000  -29.9600 C   0  0  0  0  0  0  0  0  0  0  0  0
   -4.7040   24.7300  -30.5570 C   0  0  0  0  0  0  0  0  0  0  0  0
   -3.4880   25.2850  -30.7870 F   0  0  0  0  0  0  0  0  0  0  0  0
   -5.8030   20.0550  -33.0420 C   0  0  0  0  0  0  0  0  0  0  0  0
   -6.9560   20.7580  -32.6320 C   0  0  0  0  0  0  0  0  0  0  0  0
   -8.1690   20.0950  -32.4530 C   0  0  0  0  0  0  0  0  0  0  0  0
   -8.2590   18.7250  -32.6810 C   0  0  0  0  0  0  0  0  0  0  0  0
   -7.1350   18.0070  -33.0890 C   0  0  0  0  0  0  0  0  0  0  0  0
   -5.8930   18.6520  -33.2740 C   0  0  0  0  0  0  0  0  0  0  0  0
   -4.7829   15.9108  -32.9702 H   0  0  0  0  0  0  0  0  0  0  0  0
   -5.6750   16.1947  -34.5033 H   0  0  0  0  0  0  0  0  0  0  0  0
   -3.8791   16.1548  -34.5033 H   0  0  0  0  0  0  0  0  0  0  0  0
   -2.6321   18.0618  -34.1583 H   0  0  0  0  0  0  0  0  0  0  0  0
   -2.0550   21.2780  -34.5950 H   0  0  0  0  0  0  0  0  0  0  0  0
   -4.9970   22.7950  -33.4960 H   0  0  0  0  0  0  0  0  0  0  0  0
   -3.6550   21.7098  -31.0209 H   0  0  0  0  0  0  0  0  0  0  0  0
   -3.0297   23.2016  -31.8100 H   0  0  0  0  0  0  0  0  0  0  0  0
   -6.4643   21.8272  -31.0156 H   0  0  0  0  0  0  0  0  0  0  0  0
   -8.2429   23.2093  -29.9468 H   0  0  0  0  0  0  0  0  0  0  0  0
   -7.7612   25.5634  -29.2691 H   0  0  0  0  0  0  0  0  0  0  0  0
   -5.4988   26.5382  -29.6628 H   0  0  0  0  0  0  0  0  0  0  0  0
   -6.8968   21.8415  -32.4516 H   0  0  0  0  0  0  0  0  0  0  0  0
   -9.0582   20.6565  -32.1304 H   0  0  0  0  0  0  0  0  0  0  0  0
   -9.2190   18.2071  -32.5391 H   0  0  0  0  0  0  0  0  0  0  0  0
   -7.2173   16.9249  -33.2688 H   0  0  0  0  0  0  0  0  0  0  0  0
  1  2  1  0
  2  3  2  0
  3  4  1  0
  4  5  1  0
  4  6  2  0
  6  7  1  0
  7  8  1  0
  8  9  1  0
  9 10  2  0
 10 11  1  0
 11 12  2  0
 12 13  1  0
 13 14  2  0
 14 15  1  0
  6 16  1  0
 16 17  2  0
 17 18  1  0
 18 19  2  0
 19 20  1  0
 20 21  2  0
 21  2  1  0
 14  9  1  0
 21 16  1  0
  1 22  1  0
  1 23  1  0
  1 24  1  0
  3 25  1  0
  5 26  1  0
  7 27  1  0
  8 28  1  0
  8 29  1  0
 10 30  1  0
 11 31  1  0
 12 32  1  0
 13 33  1  0
 17 34  1  0
 18 35  1  0
 19 36  1  0
 20 37  1  0
M  END
>  <UniqueID>  (24) 
22

>  <SMILES>  (24) 
Cc1cc(O)c(NCc2ccccc2F)c2ccccc12

>  <Energy>  (24) 
49.02031874796496

>  <Genealogy>  (24) 
Cc1cc(O)c(NCc2ccccc2F)c2ccccc12 (3D coordinates assigned)
Cc1cc(O)c(NCc2ccccc2F)c2ccccc12 (optimized conformer: 49.02031874796496 kcal/mol)

>  <smiles>  (24) 
Cc1cc(O)c(NCc2ccccc2F)c2ccccc12

>  <score_type>  (24) 
oracle

>  <origin>  (24) 
adg

>  <m_score__min__energy>  (24) 
-8.4700000000000006

>  <m_primary>  (24) 
energy

$$$$
24:0
     RDKit          3D

 36 37  0  0  0  0  0  0  0  0999 V2000
   -3.8500   22.7020  -27.9740 C   0  0  0  0  0  0  0  0  0  0  0  0
   -4.1140   24.1760  -28.2800 C   0  0  0  0  0  0  0  0  0  0  0  0
   -3.1740   24.7180  -29.3650 C   0  0  0  0  0  0  0  0  0  0  0  0
   -3.9410   25.3100  -30.4780 N   0  0  0  0  0  0  0  0  0  0  0  0
   -5.3720   24.9780  -30.4230 C   0  0  0  0  0  0  0  0  0  0  0  0
   -5.6360   23.6290  -31.0360 C   0  0  0  0  0  0  0  0  0  0  0  0
   -4.5820   22.9000  -31.6050 C   0  0  0  0  0  0  0  0  0  0  0  0
   -4.8110   21.6300  -32.1410 C   0  0  0  0  0  0  0  0  0  0  0  0
   -6.0990   21.0650  -32.1140 C   0  0  0  0  0  0  0  0  0  0  0  0
   -6.3410   19.7120  -32.6770 C   0  0  0  0  0  0  0  0  0  0  0  0
   -5.7010   19.3060  -33.8640 C   0  0  0  0  0  0  0  0  0  0  0  0
   -5.9310   18.0310  -34.3920 C   0  0  0  0  0  0  0  0  0  0  0  0
   -6.8000   17.1500  -33.7440 C   0  0  0  0  0  0  0  0  0  0  0  0
   -7.4400   17.5420  -32.5670 C   0  0  0  0  0  0  0  0  0  0  0  0
   -7.2150   18.8140  -32.0350 C   0  0  0  0  0  0  0  0  0  0  0  0
   -7.1520   21.8000  -31.5400 C   0  0  0  0  0  0  0  0  0  0  0  0
   -6.9220   23.0700  -31.0040 C   0  0  0  0  0  0  0  0  0  0  0  0
   -3.8233   22.5528  -26.8845 H   0  0  0  0  0  0  0  0  0  0  0  0
   -4.6524   22.0878  -28.4086 H   0  0  0  0  0  0  0  0  0  0  0  0
   -2.8843   22.4045  -28.4086 H   0  0  0  0  0  0  0  0  0  0  0  0
   -5.1531   24.2863  -28.6236 H   0  0  0  0  0  0  0  0  0  0  0  0
   -3.9349   24.7503  -27.3591 H   0  0  0  0  0  0  0  0  0  0  0  0
   -2.5234   25.4887  -28.9258 H   0  0  0  0  0  0  0  0  0  0  0  0
   -2.5720   23.8849  -29.7568 H   0  0  0  0  0  0  0  0  0  0  0  0
   -3.8630   26.3520  -30.4050 H   0  0  0  0  0  0  0  0  0  0  0  0
   -5.6985   24.9661  -29.3726 H   0  0  0  0  0  0  0  0  0  0  0  0
   -5.9302   25.7367  -30.9911 H   0  0  0  0  0  0  0  0  0  0  0  0
   -3.5698   23.3300  -31.6296 H   0  0  0  0  0  0  0  0  0  0  0  0
   -3.9777   21.0677  -32.5875 H   0  0  0  0  0  0  0  0  0  0  0  0
   -5.0161   19.9956  -34.3791 H   0  0  0  0  0  0  0  0  0  0  0  0
   -5.4265   17.7217  -35.3193 H   0  0  0  0  0  0  0  0  0  0  0  0
   -6.9799   16.1481  -34.1609 H   0  0  0  0  0  0  0  0  0  0  0  0
   -8.1235   16.8473  -32.0569 H   0  0  0  0  0  0  0  0  0  0  0  0
   -7.7243   19.1161  -31.1080 H   0  0  0  0  0  0  0  0  0  0  0  0
   -8.1648   21.3717  -31.5128 H   0  0  0  0  0  0  0  0  0  0  0  0
   -7.7531   23.6337  -30.5551 H   0  0  0  0  0  0  0  0  0  0  0  0
  1  2  1  0
  2  3  1  0
  3  4  1  0
  4  5  1  0
  5  6  1  0
  6  7  2  0
  7  8  1  0
  8  9  2  0
  9 10  1  0
 10 11  2  0
 11 12  1  0
 12 13  2  0
 13 14  1  0
 14 15  2  0
  9 16  1  0
 16 17  2  0
 17  6  1  0
 15 10  1  0
  1 18  1  0
  1 19  1  0
  1 20  1  0
  2 21  1  0
  2 22  1  0
  3 23  1  0
  3 24  1  0
  4 25  1  0
  5 26  1  0
  5 27  1  0
  7 28  1  0
  8 29  1  0
 11 30  1  0
 12 31  1  0
 13 32  1  0
 14 33  1  0
 15 34  1  0
 16 35  1  0
 17 36  1  0
M  END
>  <UniqueID>  (25) 
23

>  <SMILES>  (25) 
CCCNCc1ccc(-c2ccccc2)cc1

>  <Energy>  (25) 
36.68896049310564

>  <Genealogy>  (25) 
CCCNCc1ccc(-c2ccccc2)cc1 (3D coordinates assigned)
CCCNCc1ccc(-c2ccccc2)cc1 (optimized conformer: 36.68896049310564 kcal/mol)

>  <smiles>  (25) 
CCCNCc1ccc(-c2ccccc2)cc1

>  <score_type>  (25) 
oracle

>  <origin>  (25) 
adg

>  <m_score__min__energy>  (25) 
-7.7199999999999998

>  <m_primary>  (25) 
energy

$$$$
25:0
     RDKit          3D

 38 39  0  0  0  0  0  0  0  0999 V2000
   -5.1225   17.6111  -34.5731 H   0  0  0  0  0  0  0  0  0  0  0  0
   -5.8910   18.1750  -34.0240 C   0  0  0  0  0  0  0  0  0  0  0  0
   -6.8170   17.4420  -33.1450 C   0  0  0  0  0  0  0  0  0  0  0  0
   -7.2300   16.2910  -33.4600 O   0  0  0  0  0  0  0  0  0  0  0  0
   -7.2280   18.0400  -31.9490 O   0  0  0  0  0  0  0  0  0  0  0  0
   -8.5950   18.2460  -31.6010 C   0  0  0  0  0  0  0  0  0  0  0  0
   -8.6513   18.6386  -30.5750 H   0  0  0  0  0  0  0  0  0  0  0  0
   -9.1268   17.2857  -31.6715 H   0  0  0  0  0  0  0  0  0  0  0  0
   -9.2490   19.2400  -32.5540 C   0  0  0  0  0  0  0  0  0  0  0  0
   -9.7627   20.0207  -31.9738 H   0  0  0  0  0  0  0  0  0  0  0  0
   -8.4778   19.7019  -33.1880 H   0  0  0  0  0  0  0  0  0  0  0  0
   -9.9784   18.7146  -33.1880 H   0  0  0  0  0  0  0  0  0  0  0  0
   -5.9510   19.5050  -34.1790 C   0  0  0  0  0  0  0  0  0  0  0  0
   -6.1312   19.9025  -35.1887 H   0  0  0  0  0  0  0  0  0  0  0  0
   -5.7880   20.4710  -33.0650 C   0  0  0  0  0  0  0  0  0  0  0  0
   -4.5560   20.6320  -32.3690 C   0  0  0  0  0  0  0  0  0  0  0  0
   -3.6884   20.0173  -32.6509 H   0  0  0  0  0  0  0  0  0  0  0  0
   -4.4350   21.5670  -31.3260 C   0  0  0  0  0  0  0  0  0  0  0  0
   -3.4864   21.6889  -30.7826 H   0  0  0  0  0  0  0  0  0  0  0  0
   -5.5530   22.3360  -31.0000 C   0  0  0  0  0  0  0  0  0  0  0  0
   -6.7350   22.1980  -31.6770 C   0  0  0  0  0  0  0  0  0  0  0  0
   -6.8900   21.2830  -32.7150 C   0  0  0  0  0  0  0  0  0  0  0  0
   -7.8473   21.1945  -33.2496 H   0  0  0  0  0  0  0  0  0  0  0  0
   -7.6290   23.1050  -31.1480 C   0  0  0  0  0  0  0  0  0  0  0  0
   -8.6739   23.2671  -31.4513 H   0  0  0  0  0  0  0  0  0  0  0  0
   -6.9270   23.7710  -30.1490 C   0  0  0  0  0  0  0  0  0  0  0  0
   -7.3400   24.5754  -29.5226 H   0  0  0  0  0  0  0  0  0  0  0  0
   -5.6640   23.2910  -30.0550 N   0  0  0  0  0  0  0  0  0  0  0  0
   -4.6200   23.7980  -29.1640 C   0  0  0  0  0  0  0  0  0  0  0  0
   -5.0843   24.2103  -28.2560 H   0  0  0  0  0  0  0  0  0  0  0  0
   -3.9428   22.9740  -28.8948 H   0  0  0  0  0  0  0  0  0  0  0  0
   -3.8390   24.8710  -29.8520 C   0  0  0  0  0  0  0  0  0  0  0  0
   -4.2790   25.3770  -30.9200 O   0  0  0  0  0  0  0  0  0  0  0  0
   -2.6040   25.2640  -29.3300 O   0  0  0  0  0  0  0  0  0  0  0  0
   -2.0070   24.6240  -28.2090 C   0  0  0  0  0  0  0  0  0  0  0  0
   -2.4107   25.0568  -27.2818 H   0  0  0  0  0  0  0  0  0  0  0  0
   -2.2310   23.5475  -28.2391 H   0  0  0  0  0  0  0  0  0  0  0  0
   -0.9175   24.7728  -28.2391 H   0  0  0  0  0  0  0  0  0  0  0  0
  1  2  1  0
  2  3  1  0
  3  4  2  0
  3  5  1  0
  5  6  1  0
  6  7  1  0
  6  8  1  0
  6  9  1  0
  9 10  1  0
  9 11  1  0
  9 12  1  0
  2 13  2  0
 13 14  1  0
 13 15  1  0
 15 16  2  0
 16 17  1  0
 16 18  1  0
 18 19  1  0
 18 20  2  0
 20 21  1  0
 21 22  2  0
 22 23  1  0
 21 24  1  0
 24 25  1  0
 24 26  2  0
 26 27  1  0
 26 28  1  0
 28 29  1  0
 29 30  1  0
 29 31  1  0
 29 32  1  0
 32 33  2  0
 32 34  1  0
 34 35  1  0
 35 36  1  0
 35 37  1  0
 35 38  1  0
 22 15  1  0
 28 20  1  0
M  END
>  <UniqueID>  (26) 
24

>  <SMILES>  (26) 
CCOC(=O)/C=C/c1ccc2c(ccn2CC(=O)OC)c1

>  <Energy>  (26) 
64.02442879792017

>  <Genealogy>  (26) 
CCOC(=O)/C=C/c1ccc2c(ccn2CC(=O)OC)c1 (cis-trans isomerization)
CCOC(=O)/C=C/c1ccc2c(ccn2CC(=O)OC)c1 (3D coordinates assigned)
CCOC(=O)/C=C/c1ccc2c(ccn2CC(=O)OC)c1 (optimized conformer: 64.02442879792017 kcal/mol)

>  <smiles>  (26) 
CCOC(=O)C=Cc1ccc2c(ccn2CC(=O)OC)c1

>  <score_type>  (26) 
oracle

>  <origin>  (26) 
adg

>  <m_score__min__energy>  (26) 
-7.6200000000000001

>  <m_primary>  (26) 
energy

$$$$
26:0
     RDKit          3D

 37 39  0  0  0  0  0  0  0  0999 V2000
   -8.5856   19.2920  -32.9509 H   0  0  0  0  0  0  0  0  0  0  0  0
   -7.6230   19.8210  -32.8920 C   0  0  0  0  0  0  0  0  0  0  0  0
   -7.5060   21.0420  -32.2020 C   0  0  0  0  0  0  0  0  0  0  0  0
   -8.3907   21.4792  -31.7161 H   0  0  0  0  0  0  0  0  0  0  0  0
   -6.2560   21.7170  -32.1260 C   0  0  0  0  0  0  0  0  0  0  0  0
   -6.1170   23.0120  -31.4100 C   0  0  0  0  0  0  0  0  0  0  0  0
   -4.8750   23.5100  -31.1660 N   0  0  0  0  0  0  0  0  0  0  0  0
   -4.6830   24.6830  -30.5050 C   0  0  0  0  0  0  0  0  0  0  0  0
   -3.4880   25.1410  -30.2800 N   0  0  0  0  0  0  0  0  0  0  0  0
   -2.5320   24.5630  -29.3340 C   0  0  0  0  0  0  0  0  0  0  0  0
   -1.7297   25.2921  -29.1478 H   0  0  0  0  0  0  0  0  0  0  0  0
   -2.1304   23.6385  -29.7744 H   0  0  0  0  0  0  0  0  0  0  0  0
   -3.2010   24.2050  -27.9950 C   0  0  0  0  0  0  0  0  0  0  0  0
   -4.0910   24.8394  -27.8704 H   0  0  0  0  0  0  0  0  0  0  0  0
   -2.4535   24.3732  -27.2058 H   0  0  0  0  0  0  0  0  0  0  0  0
   -3.6360   22.7320  -27.8980 C   0  0  0  0  0  0  0  0  0  0  0  0
   -4.7347   22.6889  -27.9283 H   0  0  0  0  0  0  0  0  0  0  0  0
   -3.2335   22.3329  -26.9552 H   0  0  0  0  0  0  0  0  0  0  0  0
   -3.0840   21.8670  -29.0310 C   0  0  0  0  0  0  0  0  0  0  0  0
   -2.5381   21.0115  -28.6066 H   0  0  0  0  0  0  0  0  0  0  0  0
   -3.9155   21.5004  -29.6509 H   0  0  0  0  0  0  0  0  0  0  0  0
   -2.4012   22.4667  -29.6509 H   0  0  0  0  0  0  0  0  0  0  0  0
   -5.7970   25.4000  -30.0610 C   0  0  0  0  0  0  0  0  0  0  0  0
   -5.6655   26.3541  -29.5296 H   0  0  0  0  0  0  0  0  0  0  0  0
   -7.0440   24.9110  -30.2900 N   0  0  0  0  0  0  0  0  0  0  0  0
   -7.8750   25.4430  -29.9460 H   0  0  0  0  0  0  0  0  0  0  0  0
   -7.2310   23.7340  -30.9480 C   0  0  0  0  0  0  0  0  0  0  0  0
   -8.2479   23.3502  -31.1171 H   0  0  0  0  0  0  0  0  0  0  0  0
   -5.1290   21.1530  -32.7700 C   0  0  0  0  0  0  0  0  0  0  0  0
   -4.1519   21.6575  -32.7410 H   0  0  0  0  0  0  0  0  0  0  0  0
   -5.2880   19.9440  -33.4410 C   0  0  0  0  0  0  0  0  0  0  0  0
   -6.4820   19.3050  -33.4970 C   0  0  0  0  0  0  0  0  0  0  0  0
   -6.3470   18.1380  -34.2230 O   0  0  0  0  0  0  0  0  0  0  0  0
   -4.9810   18.0370  -34.6490 C   0  0  0  0  0  0  0  0  0  0  0  0
   -4.9189   18.0191  -35.7471 H   0  0  0  0  0  0  0  0  0  0  0  0
   -4.5041   17.1126  -34.2912 H   0  0  0  0  0  0  0  0  0  0  0  0
   -4.3410   19.2100  -34.1270 O   0  0  0  0  0  0  0  0  0  0  0  0
  1  2  1  0
  2  3  2  0
  3  4  1  0
  3  5  1  0
  5  6  1  0
  6  7  1  0
  7  8  1  0
  8  9  2  0
  9 10  1  0
 10 11  1  0
 10 12  1  0
 10 13  1  0
 13 14  1  0
 13 15  1  0
 13 16  1  0
 16 17  1  0
 16 18  1  0
 16 19  1  0
 19 20  1  0
 19 21  1  0
 19 22  1  0
  8 23  1  0
 23 24  1  0
 23 25  2  0
 25 26  1  0
 25 27  1  0
 27 28  1  0
  5 29  2  0
 29 30  1  0
 29 31  1  0
 31 32  2  0
 32 33  1  0
 33 34  1  0
 34 35  1  0
 34 36  1  0
 34 37  1  0
 32  2  1  0
 27  6  2  0
 37 31  1  0
M  CHG  2   7  -1  25   1
M  END
>  <UniqueID>  (27) 
25

>  <SMILES>  (27) 
CCCC/N=c1/c[nH+]cc(-c2ccc3c(c2)OCO3)[n-]1

>  <Energy>  (27) 
65.51522999952496

>  <Genealogy>  (27) 
CCCCN=c1c[nH+]cc(-c2ccc3c(c2)OCO3)[n-]1 (protonated)
CCCC/N=c1/c[nH+]cc(-c2ccc3c(c2)OCO3)[n-]1 (cis-trans isomerization)
CCCC/N=c1/c[nH+]cc(-c2ccc3c(c2)OCO3)[n-]1 (3D coordinates assigned)
CCCC/N=c1/c[nH+]cc(-c2ccc3c(c2)OCO3)[n-]1 (nonaromatic ring conformer: 65.51522999952496 kcal/mol)

>  <smiles>  (27) 
CCCCN=c1cncc(-c2ccc3c(c2)OCO3)[nH]1

>  <score_type>  (27) 
oracle

>  <origin>  (27) 
adg

>  <m_score__min__energy>  (27) 
-7.2800000000000002

>  <m_primary>  (27) 
energy

$$$$
27:0
     RDKit          3D

 38 40  0  0  0  0  0  0  0  0999 V2000
   -9.0183   20.2153  -32.2491 H   0  0  0  0  0  0  0  0  0  0  0  0
   -7.9240   20.2920  -32.3310 C   0  0  0  0  0  0  0  0  0  0  0  0
   -7.3350   21.3770  -31.8170 C   0  0  0  0  0  0  0  0  0  0  0  0
   -5.9610   21.4480  -31.5710 O   0  0  0  0  0  0  0  0  0  0  0  0
   -5.6950   22.7120  -31.0510 C   0  0  0  0  0  0  0  0  0  0  0  0
   -4.4560   23.2110  -30.6560 C   0  0  0  0  0  0  0  0  0  0  0  0
   -3.5516   22.5890  -30.7277 H   0  0  0  0  0  0  0  0  0  0  0  0
   -4.3850   24.5280  -30.1630 C   0  0  0  0  0  0  0  0  0  0  0  0
   -3.1340   25.0170  -29.7570 O   0  0  0  0  0  0  0  0  0  0  0  0
   -2.2140   24.3290  -28.9530 C   0  0  0  0  0  0  0  0  0  0  0  0
   -1.1320   23.9030  -29.4430 O   0  0  0  0  0  0  0  0  0  0  0  0
   -2.5350   24.0590  -27.5780 N   0  0  0  0  0  0  0  0  0  0  0  0
   -3.8070   24.5370  -27.0310 C   0  0  0  0  0  0  0  0  0  0  0  0
   -3.7629   24.5204  -25.9320 H   0  0  0  0  0  0  0  0  0  0  0  0
   -3.9907   25.5655  -27.3751 H   0  0  0  0  0  0  0  0  0  0  0  0
   -4.6226   23.8840  -27.3751 H   0  0  0  0  0  0  0  0  0  0  0  0
   -1.5870   23.3200  -26.7390 C   0  0  0  0  0  0  0  0  0  0  0  0
   -1.8180   23.5001  -25.6787 H   0  0  0  0  0  0  0  0  0  0  0  0
   -1.6680   22.2443  -26.9543 H   0  0  0  0  0  0  0  0  0  0  0  0
   -0.5636   23.6610  -26.9543 H   0  0  0  0  0  0  0  0  0  0  0  0
   -5.5700   25.3040  -30.0540 C   0  0  0  0  0  0  0  0  0  0  0  0
   -5.5178   26.3256  -29.6494 H   0  0  0  0  0  0  0  0  0  0  0  0
   -6.8090   24.7770  -30.4590 C   0  0  0  0  0  0  0  0  0  0  0  0
   -7.7297   25.3745  -30.3860 H   0  0  0  0  0  0  0  0  0  0  0  0
   -6.8360   23.4770  -30.9550 C   0  0  0  0  0  0  0  0  0  0  0  0
   -7.9350   22.6680  -31.4470 C   0  0  0  0  0  0  0  0  0  0  0  0
   -9.1250   23.0440  -31.6050 O   0  0  0  0  0  0  0  0  0  0  0  0
   -7.2050   19.1900  -33.0010 C   0  0  0  0  0  0  0  0  0  0  0  0
   -6.2150   19.4930  -33.9490 C   0  0  0  0  0  0  0  0  0  0  0  0
   -6.0094   20.5412  -34.2115 H   0  0  0  0  0  0  0  0  0  0  0  0
   -5.4890   18.4650  -34.5610 C   0  0  0  0  0  0  0  0  0  0  0  0
   -4.7250   18.7057  -35.3149 H   0  0  0  0  0  0  0  0  0  0  0  0
   -5.7330   17.1340  -34.2160 C   0  0  0  0  0  0  0  0  0  0  0  0
   -5.1677   16.3269  -34.7048 H   0  0  0  0  0  0  0  0  0  0  0  0
   -6.6950   16.8270  -33.2500 C   0  0  0  0  0  0  0  0  0  0  0  0
   -6.8798   15.7788  -32.9723 H   0  0  0  0  0  0  0  0  0  0  0  0
   -7.4230   17.8510  -32.6360 C   0  0  0  0  0  0  0  0  0  0  0  0
   -8.1686   17.6073  -31.8649 H   0  0  0  0  0  0  0  0  0  0  0  0
  1  2  1  0
  2  3  2  0
  3  4  1  0
  4  5  1  0
  5  6  2  0
  6  7  1  0
  6  8  1  0
  8  9  1  0
  9 10  1  0
 10 11  2  0
 10 12  1  0
 12 13  1  0
 13 14  1  0
 13 15  1  0
 13 16  1  0
 12 17  1  0
 17 18  1  0
 17 19  1  0
 17 20  1  0
  8 21  2  0
 21 22  1  0
 21 23  1  0
 23 24  1  0
 23 25  2  0
 25 26  1  0
 26 27  2  0
  2 28  1  0
 28 29  2  0
 29 30  1  0
 29 31  1  0
 31 32  1  0
 31 33  2  0
 33 34  1  0
 33 35  1  0
 35 36  1  0
 35 37  2  0
 37 38  1  0
 26  3  1  0
 37 28  1  0
 25  5  1  0
M  END
>  <UniqueID>  (28) 
26

>  <SMILES>  (28) 
CN(C)C(=O)Oc1ccc2c(c1)O/C(=C/c1ccccc1)C2=O

>  <Energy>  (28) 
79.38936705937796

>  <Genealogy>  (28) 
CN(C)C(=O)Oc1ccc2c(c1)O/C(=C/c1ccccc1)C2=O (cis-trans isomerization)
CN(C)C(=O)Oc1ccc2c(c1)O/C(=C/c1ccccc1)C2=O (3D coordinates assigned)
CN(C)C(=O)Oc1ccc2c(c1)O/C(=C/c1ccccc1)C2=O (nonaromatic ring conformer: 79.38936705937796 kcal/mol)

>  <smiles>  (28) 
CN(C)C(=O)Oc1ccc2c(c1)OC(=Cc1ccccc1)C2=O

>  <score_type>  (28) 
oracle

>  <origin>  (28) 
adg

>  <m_score__min__energy>  (28) 
-8.6600000000000001

>  <m_primary>  (28) 
energy

$$$$
28:0
     RDKit          3D

 48 51  0  0  0  0  0  0  0  0999 V2000
   -7.6090   21.8130  -32.0180 C   0  0  0  0  0  0  0  0  0  0  0  0
   -7.2830   20.4290  -32.3490 N   0  0  0  0  0  0  0  0  0  0  0  0
   -8.0600   19.3570  -32.0990 C   0  0  0  0  0  0  0  0  0  0  0  0
   -7.4370   18.2090  -32.5490 C   0  0  0  0  0  0  0  0  0  0  0  0
   -6.2300   18.6000  -33.0950 C   0  0  0  0  0  0  0  0  0  0  0  0
   -6.1620   19.9730  -32.9520 C   0  0  0  0  0  0  0  0  0  0  0  0
   -5.0260   20.8280  -33.4450 C   0  0  0  0  0  0  0  0  0  0  0  0
   -4.2100   21.3090  -32.3110 N   0  0  0  0  0  0  0  0  0  0  0  0
   -4.3650   20.4080  -31.1530 C   0  0  0  0  0  0  0  0  0  0  0  0
   -3.3310   20.7620  -30.0810 C   0  0  0  0  0  0  0  0  0  0  0  0
   -3.3090   22.2360  -29.7970 C   0  0  0  0  0  0  0  0  0  0  0  0
   -2.6880   22.6810  -28.6740 N   0  0  0  0  0  0  0  0  0  0  0  0
   -2.5970   24.0080  -28.3910 C   0  0  0  0  0  0  0  0  0  0  0  0
   -1.9430   24.4830  -27.1140 C   0  0  0  0  0  0  0  0  0  0  0  0
   -0.9530   23.4310  -26.5850 C   0  0  0  0  0  0  0  0  0  0  0  0
    0.3330   23.3380  -27.4380 C   0  0  0  0  0  0  0  0  0  0  0  0
    0.6030   24.5590  -28.2190 N   0  0  0  0  0  0  0  0  0  0  0  0
    0.2590   25.7690  -27.4660 C   0  0  0  0  0  0  0  0  0  0  0  0
   -1.2640   25.8680  -27.2750 C   0  0  0  0  0  0  0  0  0  0  0  0
   -3.1550   24.9150  -29.2370 N   0  0  0  0  0  0  0  0  0  0  0  0
   -3.7770   24.5250  -30.3790 C   0  0  0  0  0  0  0  0  0  0  0  0
   -4.2870   25.3960  -31.1330 O   0  0  0  0  0  0  0  0  0  0  0  0
   -3.8520   23.1610  -30.7050 C   0  0  0  0  0  0  0  0  0  0  0  0
   -4.5980   22.6870  -31.9320 C   0  0  0  0  0  0  0  0  0  0  0  0
   -7.6370   21.9317  -30.9248 H   0  0  0  0  0  0  0  0  0  0  0  0
   -6.8436   22.4810  -32.4399 H   0  0  0  0  0  0  0  0  0  0  0  0
   -8.5921   22.0691  -32.4399 H   0  0  0  0  0  0  0  0  0  0  0  0
   -9.0444   19.3909  -31.6092 H   0  0  0  0  0  0  0  0  0  0  0  0
   -7.8267   17.1823  -32.4849 H   0  0  0  0  0  0  0  0  0  0  0  0
   -5.4723   17.9474  -33.5533 H   0  0  0  0  0  0  0  0  0  0  0  0
   -4.3927   20.2341  -34.1204 H   0  0  0  0  0  0  0  0  0  0  0  0
   -5.4400   21.6962  -33.9787 H   0  0  0  0  0  0  0  0  0  0  0  0
   -5.3767   20.5195  -30.7359 H   0  0  0  0  0  0  0  0  0  0  0  0
   -4.2115   19.3683  -31.4776 H   0  0  0  0  0  0  0  0  0  0  0  0
   -3.5795   20.2240  -29.1543 H   0  0  0  0  0  0  0  0  0  0  0  0
   -2.3378   20.4691  -30.4522 H   0  0  0  0  0  0  0  0  0  0  0  0
   -2.7419   24.6124  -26.3690 H   0  0  0  0  0  0  0  0  0  0  0  0
   -0.6734   23.6977  -25.5551 H   0  0  0  0  0  0  0  0  0  0  0  0
   -1.4530   22.4523  -26.6309 H   0  0  0  0  0  0  0  0  0  0  0  0
    1.1853   23.1572  -26.7665 H   0  0  0  0  0  0  0  0  0  0  0  0
    0.1899   22.5166  -28.1556 H   0  0  0  0  0  0  0  0  0  0  0  0
    1.6270   24.5880  -28.4350 H   0  0  0  0  0  0  0  0  0  0  0  0
    0.7461   25.7331  -26.4804 H   0  0  0  0  0  0  0  0  0  0  0  0
    0.6057   26.6489  -28.0277 H   0  0  0  0  0  0  0  0  0  0  0  0
   -1.4667   26.4652  -26.3738 H   0  0  0  0  0  0  0  0  0  0  0  0
   -1.6804   26.3369  -28.1788 H   0  0  0  0  0  0  0  0  0  0  0  0
   -5.6778   22.7086  -31.7231 H   0  0  0  0  0  0  0  0  0  0  0  0
   -4.3445   23.3565  -32.7672 H   0  0  0  0  0  0  0  0  0  0  0  0
  1  2  1  0
  2  3  1  0
  3  4  2  0
  4  5  1  0
  5  6  2  0
  6  7  1  0
  7  8  1  0
  8  9  1  0
  9 10  1  0
 10 11  1  0
 11 12  1  0
 12 13  1  0
 13 14  1  0
 14 15  1  0
 15 16  1  0
 16 17  1  0
 17 18  1  0
 18 19  1  0
 13 20  2  0
 20 21  1  0
 21 22  2  0
 21 23  1  0
 23 24  1  0
  6  2  1  0
 24  8  1  0
 23 11  2  0
 19 14  1  0
  1 25  1  0
  1 26  1  0
  1 27  1  0
  3 28  1  0
  4 29  1  0
  5 30  1  0
  7 31  1  0
  7 32  1  0
  9 33  1  0
  9 34  1  0
 10 35  1  0
 10 36  1  0
 14 37  1  0
 15 38  1  0
 15 39  1  0
 16 40  1  0
 16 41  1  0
 17 42  1  0
 18 43  1  0
 18 44  1  0
 19 45  1  0
 19 46  1  0
 24 47  1  0
 24 48  1  0
M  CHG  1  12  -1
M  END
>  <UniqueID>  (29) 
27

>  <SMILES>  (29) 
Cn1cccc1CN1CCc2[n-]c(C3CCNCC3)nc(=O)c2C1

>  <Energy>  (29) 
83.6655244527744

>  <Genealogy>  (29) 
Cn1cccc1CN1CCc2[n-]c(C3CCNCC3)nc(=O)c2C1 (protonated)
Cn1cccc1CN1CCc2[n-]c(C3CCNCC3)nc(=O)c2C1 (3D coordinates assigned)
Cn1cccc1CN1CCc2[n-]c(C3CCNCC3)nc(=O)c2C1 (nonaromatic ring conformer: 83.6655244527744 kcal/mol)

>  <smiles>  (29) 
Cn1cccc1CN1CCc2[nH]c(C3CCNCC3)nc(=O)c2C1

>  <score_type>  (29) 
oracle

>  <origin>  (29) 
adg

>  <m_score__min__energy>  (29) 
-9.1199999999999992

>  <m_primary>  (29) 
energy

$$$$
29:0
     RDKit          3D

 26 27  0  0  0  0  0  0  0  0999 V2000
   -7.4460   23.3550  -31.6600 C   0  0  0  0  0  0  0  0  0  0  0  0
   -6.0030   23.7670  -31.9270 C   0  0  0  0  0  0  0  0  0  0  0  0
   -5.1660   23.5810  -30.6990 C   0  0  0  0  0  0  0  0  0  0  0  0
   -5.2630   22.5320  -29.8590 N   0  0  0  0  0  0  0  0  0  0  0  0
   -4.3880   22.7980  -28.8680 C   0  0  0  0  0  0  0  0  0  0  0  0
   -4.2210   22.0380  -27.8770 O   0  0  0  0  0  0  0  0  0  0  0  0
   -3.7400   23.9750  -29.0340 N   0  0  0  0  0  0  0  0  0  0  0  0
   -2.7560   24.5750  -28.1720 C   0  0  0  0  0  0  0  0  0  0  0  0
   -3.0720   24.8930  -26.8400 C   0  0  0  0  0  0  0  0  0  0  0  0
   -2.1140   25.4760  -26.0040 C   0  0  0  0  0  0  0  0  0  0  0  0
   -0.8330   25.7480  -26.4910 C   0  0  0  0  0  0  0  0  0  0  0  0
    0.0940   26.3130  -25.6790 F   0  0  0  0  0  0  0  0  0  0  0  0
   -0.5080   25.4360  -27.8140 C   0  0  0  0  0  0  0  0  0  0  0  0
   -1.4630   24.8520  -28.6510 C   0  0  0  0  0  0  0  0  0  0  0  0
   -4.2410   24.4670  -30.1860 C   0  0  0  0  0  0  0  0  0  0  0  0
   -3.8610   25.6730  -30.7660 O   0  0  0  0  0  0  0  0  0  0  0  0
   -7.6184   23.3058  -30.5747 H   0  0  0  0  0  0  0  0  0  0  0  0
   -8.1271   24.0946  -32.1063 H   0  0  0  0  0  0  0  0  0  0  0  0
   -7.6339   22.3673  -32.1063 H   0  0  0  0  0  0  0  0  0  0  0  0
   -5.5949   23.1483  -32.7398 H   0  0  0  0  0  0  0  0  0  0  0  0
   -5.9843   24.8294  -32.2114 H   0  0  0  0  0  0  0  0  0  0  0  0
   -5.8920   21.7030  -29.9470 H   0  0  0  0  0  0  0  0  0  0  0  0
   -4.0795   24.6820  -26.4523 H   0  0  0  0  0  0  0  0  0  0  0  0
   -2.3693   25.7205  -24.9624 H   0  0  0  0  0  0  0  0  0  0  0  0
    0.5006   25.6503  -28.1971 H   0  0  0  0  0  0  0  0  0  0  0  0
   -1.2016   24.6075  -29.6911 H   0  0  0  0  0  0  0  0  0  0  0  0
  1  2  1  0
  2  3  1  0
  3  4  1  0
  4  5  1  0
  5  6  2  0
  5  7  1  0
  7  8  1  0
  8  9  2  0
  9 10  1  0
 10 11  2  0
 11 12  1  0
 11 13  1  0
 13 14  2  0
  7 15  1  0
 15 16  1  0
 15  3  2  0
 14  8  1  0
  1 17  1  0
  1 18  1  0
  1 19  1  0
  2 20  1  0
  2 21  1  0
  4 22  1  0
  9 23  1  0
 10 24  1  0
 13 25  1  0
 14 26  1  0
M  CHG  1  16  -1
M  END
>  <UniqueID>  (30) 
28

>  <SMILES>  (30) 
CCc1[nH]c(=O)n(-c2ccc(F)cc2)c1[O-]

>  <Energy>  (30) 
61.497334864091904

>  <Genealogy>  (30) 
CCc1[nH]c(=O)n(-c2ccc(F)cc2)c1[O-] (protonated)
CCc1[nH]c(=O)n(-c2ccc(F)cc2)c1[O-] (3D coordinates assigned)
CCc1[nH]c(=O)n(-c2ccc(F)cc2)c1[O-] (optimized conformer: 61.497334864091904 kcal/mol)

>  <smiles>  (30) 
CCc1[nH]c(=O)n(-c2ccc(F)cc2)c1O

>  <score_type>  (30) 
oracle

>  <origin>  (30) 
adg

>  <m_score__min__energy>  (30) 
-8.0199999999999996

>  <m_primary>  (30) 
energy

$$$$
30:0
     RDKit          3D

 38 40  0  0  0  0  0  0  0  0999 V2000
   -9.4870   21.5510  -30.5060 C   0  0  0  0  0  0  0  0  0  0  0  0
   -8.2640   21.5010  -31.3240 N   0  0  0  0  0  0  0  0  0  0  0  0
   -8.5200   20.7300  -32.5650 C   0  0  0  0  0  0  0  0  0  0  0  0
   -7.5060   19.6270  -32.7290 C   0  0  0  0  0  0  0  0  0  0  0  0
   -7.5210   18.5250  -31.8560 C   0  0  0  0  0  0  0  0  0  0  0  0
   -6.5510   17.5240  -31.9690 C   0  0  0  0  0  0  0  0  0  0  0  0
   -5.5640   17.6140  -32.9530 C   0  0  0  0  0  0  0  0  0  0  0  0
   -5.5490   18.7000  -33.8330 C   0  0  0  0  0  0  0  0  0  0  0  0
   -6.5180   19.7020  -33.7250 C   0  0  0  0  0  0  0  0  0  0  0  0
   -7.8050   22.8800  -31.6090 C   0  0  0  0  0  0  0  0  0  0  0  0
   -6.3120   22.9690  -31.5780 C   0  0  0  0  0  0  0  0  0  0  0  0
   -5.6260   24.0440  -31.1470 N   0  0  0  0  0  0  0  0  0  0  0  0
   -4.3440   23.7490  -31.2990 N   0  0  0  0  0  0  0  0  0  0  0  0
   -4.2990   22.5040  -31.8140 C   0  0  0  0  0  0  0  0  0  0  0  0
   -3.0590   21.7940  -32.1810 C   0  0  0  0  0  0  0  0  0  0  0  0
   -2.9690   21.1230  -33.4120 C   0  0  0  0  0  0  0  0  0  0  0  0
   -1.7880   20.4710  -33.7770 C   0  0  0  0  0  0  0  0  0  0  0  0
   -0.6880   20.4810  -32.9150 C   0  0  0  0  0  0  0  0  0  0  0  0
   -0.7690   21.1440  -31.6880 C   0  0  0  0  0  0  0  0  0  0  0  0
   -1.9480   21.8010  -31.3200 C   0  0  0  0  0  0  0  0  0  0  0  0
   -5.5050   22.0160  -31.9760 O   0  0  0  0  0  0  0  0  0  0  0  0
   -9.2158   21.5399  -29.4400 H   0  0  0  0  0  0  0  0  0  0  0  0
  -10.0428   22.4726  -30.7334 H   0  0  0  0  0  0  0  0  0  0  0  0
  -10.1162   20.6778  -30.7334 H   0  0  0  0  0  0  0  0  0  0  0  0
   -9.5268   20.2897  -32.5147 H   0  0  0  0  0  0  0  0  0  0  0  0
   -8.4423   21.4110  -33.4254 H   0  0  0  0  0  0  0  0  0  0  0  0
   -8.2984   18.4499  -31.0814 H   0  0  0  0  0  0  0  0  0  0  0  0
   -6.5654   16.6649  -31.2822 H   0  0  0  0  0  0  0  0  0  0  0  0
   -4.7975   16.8294  -33.0356 H   0  0  0  0  0  0  0  0  0  0  0  0
   -4.7742   18.7663  -34.6110 H   0  0  0  0  0  0  0  0  0  0  0  0
   -6.5068   20.5524  -34.4226 H   0  0  0  0  0  0  0  0  0  0  0  0
   -8.1619   23.1784  -32.6058 H   0  0  0  0  0  0  0  0  0  0  0  0
   -8.2106   23.5495  -30.8361 H   0  0  0  0  0  0  0  0  0  0  0  0
   -3.8331   21.1107  -34.0925 H   0  0  0  0  0  0  0  0  0  0  0  0
   -1.7242   19.9496  -34.7435 H   0  0  0  0  0  0  0  0  0  0  0  0
    0.2411   19.9671  -33.2025 H   0  0  0  0  0  0  0  0  0  0  0  0
    0.0967   21.1495  -31.0093 H   0  0  0  0  0  0  0  0  0  0  0  0
   -2.0057   22.3245  -30.3543 H   0  0  0  0  0  0  0  0  0  0  0  0
  1  2  1  0
  2  3  1  0
  3  4  1  0
  4  5  2  0
  5  6  1  0
  6  7  2  0
  7  8  1  0
  8  9  2  0
  2 10  1  0
 10 11  1  0
 11 12  2  0
 12 13  1  0
 13 14  2  0
 14 15  1  0
 15 16  2  0
 16 17  1  0
 17 18  2  0
 18 19  1  0
 19 20  2  0
 14 21  1  0
  9  4  1  0
 21 11  1  0
 20 15  1  0
  1 22  1  0
  1 23  1  0
  1 24  1  0
  3 25  1  0
  3 26  1  0
  5 27  1  0
  6 28  1  0
  7 29  1  0
  8 30  1  0
  9 31  1  0
 10 32  1  0
 10 33  1  0
 16 34  1  0
 17 35  1  0
 18 36  1  0
 19 37  1  0
 20 38  1  0
M  END
>  <UniqueID>  (31) 
29

>  <SMILES>  (31) 
CN(Cc1ccccc1)Cc1nnc(-c2ccccc2)o1

>  <Energy>  (31) 
72.31836109353597

>  <Genealogy>  (31) 
CN(Cc1ccccc1)Cc1nnc(-c2ccccc2)o1 (3D coordinates assigned)
CN(Cc1ccccc1)Cc1nnc(-c2ccccc2)o1 (optimized conformer: 72.31836109353597 kcal/mol)

>  <smiles>  (31) 
CN(Cc1ccccc1)Cc1nnc(-c2ccccc2)o1

>  <score_type>  (31) 
oracle

>  <origin>  (31) 
adg

>  <m_score__min__energy>  (31) 
-7.6299999999999999

>  <m_primary>  (31) 
energy

$$$$
31:0
     RDKit          3D

 40 40  0  0  0  0  0  0  0  0999 V2000
   -2.0580   21.9050  -34.4440 H   0  0  0  0  0  0  0  0  0  0  0  0
   -2.1070   21.5170  -33.4750 N   0  0  0  0  0  0  0  0  0  0  0  0
   -3.1130   21.7630  -32.7000 C   0  0  0  0  0  0  0  0  0  0  0  0
   -4.4190   21.3750  -32.9230 C   0  0  0  0  0  0  0  0  0  0  0  0
   -4.8242   20.8121  -33.7768 H   0  0  0  0  0  0  0  0  0  0  0  0
   -5.1000   21.8620  -31.8170 C   0  0  0  0  0  0  0  0  0  0  0  0
   -6.5640   21.6400  -31.5470 C   0  0  0  0  0  0  0  0  0  0  0  0
   -6.6779   21.0967  -30.5974 H   0  0  0  0  0  0  0  0  0  0  0  0
   -7.0656   22.6173  -31.4896 H   0  0  0  0  0  0  0  0  0  0  0  0
   -7.2060   20.8200  -32.6780 C   0  0  0  0  0  0  0  0  0  0  0  0
   -7.2025   21.4246  -33.5969 H   0  0  0  0  0  0  0  0  0  0  0  0
   -6.6175   19.8982  -32.7957 H   0  0  0  0  0  0  0  0  0  0  0  0
   -8.6610   20.4080  -32.3630 C   0  0  0  0  0  0  0  0  0  0  0  0
   -9.1893   20.2922  -33.3208 H   0  0  0  0  0  0  0  0  0  0  0  0
   -9.3460   21.4950  -31.5270 C   0  0  0  0  0  0  0  0  0  0  0  0
   -9.2083   21.2765  -30.4578 H   0  0  0  0  0  0  0  0  0  0  0  0
   -8.9008   22.4731  -31.7617 H   0  0  0  0  0  0  0  0  0  0  0  0
  -10.4205   21.5154  -31.7617 H   0  0  0  0  0  0  0  0  0  0  0  0
   -8.7260   19.0620  -31.6270 C   0  0  0  0  0  0  0  0  0  0  0  0
   -8.7175   19.2371  -30.5411 H   0  0  0  0  0  0  0  0  0  0  0  0
   -9.6506   18.5356  -31.9063 H   0  0  0  0  0  0  0  0  0  0  0  0
   -7.8564   18.4490  -31.9063 H   0  0  0  0  0  0  0  0  0  0  0  0
   -4.2230   22.5010  -31.0010 N   0  0  0  0  0  0  0  0  0  0  0  0
   -4.4960   23.1430  -29.7130 C   0  0  0  0  0  0  0  0  0  0  0  0
   -5.5844   23.2088  -29.5677 H   0  0  0  0  0  0  0  0  0  0  0  0
   -4.0360   22.5394  -28.9167 H   0  0  0  0  0  0  0  0  0  0  0  0
   -3.8980   24.5530  -29.6630 C   0  0  0  0  0  0  0  0  0  0  0  0
   -4.2163   25.0743  -28.7482 H   0  0  0  0  0  0  0  0  0  0  0  0
   -2.4880   24.4390  -29.7000 O   0  0  0  0  0  0  0  0  0  0  0  0
   -2.0390   23.6470  -28.6220 C   0  0  0  0  0  0  0  0  0  0  0  0
   -2.3131   24.1305  -27.6727 H   0  0  0  0  0  0  0  0  0  0  0  0
   -2.5083   22.6536  -28.6764 H   0  0  0  0  0  0  0  0  0  0  0  0
   -0.9456   23.5395  -28.6764 H   0  0  0  0  0  0  0  0  0  0  0  0
   -4.3320   25.2750  -30.8060 O   0  0  0  0  0  0  0  0  0  0  0  0
   -5.7400   25.3160  -30.8630 C   0  0  0  0  0  0  0  0  0  0  0  0
   -6.1481   25.3279  -29.8416 H   0  0  0  0  0  0  0  0  0  0  0  0
   -6.0591   26.2238  -31.3959 H   0  0  0  0  0  0  0  0  0  0  0  0
   -6.1114   24.4283  -31.3959 H   0  0  0  0  0  0  0  0  0  0  0  0
   -3.0150   22.4350  -31.5410 N   0  0  0  0  0  0  0  0  0  0  0  0
   -2.1450   22.8340  -31.1220 H   0  0  0  0  0  0  0  0  0  0  0  0
  1  2  1  0
  2  3  2  0
  3  4  1  0
  4  5  1  0
  4  6  2  0
  6  7  1  0
  7  8  1  0
  7  9  1  0
  7 10  1  0
 10 11  1  0
 10 12  1  0
 10 13  1  0
 13 14  1  0
 13 15  1  0
 15 16  1  0
 15 17  1  0
 15 18  1  0
 13 19  1  0
 19 20  1  0
 19 21  1  0
 19 22  1  0
  6 23  1  0
 23 24  1  0
 24 25  1  0
 24 26  1  0
 24 27  1  0
 27 28  1  0
 27 29  1  0
 29 30  1  0
 30 31  1  0
 30 32  1  0
 30 33  1  0
 27 34  1  0
 34 35  1  0
 35 36  1  0
 35 37  1  0
 35 38  1  0
 23 39  1  0
 39 40  1  0
 39  3  1  0
M  END
>  <UniqueID>  (32) 
30

>  <SMILES>  (32) 
[H]/N=c1\cc(CCC(C)C)n(CC(OC)OC)[nH]1

>  <Energy>  (32) 
61.410459390652136

>  <Genealogy>  (32) 
[H]/N=c1\cc(CCC(C)C)n(CC(OC)OC)[nH]1 (cis-trans isomerization)
[H]/N=c1\cc(CCC(C)C)n(CC(OC)OC)[nH]1 (3D coordinates assigned)
[H]/N=c1\cc(CCC(C)C)n(CC(OC)OC)[nH]1 (optimized conformer: 61.410459390652136 kcal/mol)

>  <smiles>  (32) 
COC(Cn1[nH]c(=N)cc1CCC(C)C)OC

>  <score_type>  (32) 
oracle

>  <origin>  (32) 
adg

>  <m_score__min__energy>  (32) 
-6.2199999999999998

>  <m_primary>  (32) 
energy

$$$$
32:0
     RDKit          3D

 47 50  0  0  0  0  0  0  0  0999 V2000
   -5.3610   25.0770  -29.9620 C   0  0  0  0  0  0  0  0  0  0  0  0
   -4.1080   24.6480  -30.4860 O   0  0  0  0  0  0  0  0  0  0  0  0
   -3.8950   23.4110  -31.1140 C   0  0  0  0  0  0  0  0  0  0  0  0
   -4.8230   22.9820  -32.0700 C   0  0  0  0  0  0  0  0  0  0  0  0
   -4.6540   21.7600  -32.7270 C   0  0  0  0  0  0  0  0  0  0  0  0
   -3.5420   20.9520  -32.4450 C   0  0  0  0  0  0  0  0  0  0  0  0
   -3.3600   19.6480  -33.1120 C   0  0  0  0  0  0  0  0  0  0  0  0
   -2.1460   19.0560  -33.2270 N   0  0  0  0  0  0  0  0  0  0  0  0
   -2.4070   17.9500  -33.9490 C   0  0  0  0  0  0  0  0  0  0  0  0
   -1.4770   17.0440  -34.3440 N   0  0  0  0  0  0  0  0  0  0  0  0
   -1.8640   15.9900  -35.1190 C   0  0  0  0  0  0  0  0  0  0  0  0
   -3.2090   15.8530  -35.5140 C   0  0  0  0  0  0  0  0  0  0  0  0
   -4.1370   16.8120  -35.0930 C   0  0  0  0  0  0  0  0  0  0  0  0
   -3.6940   17.8250  -34.3040 N   0  0  0  0  0  0  0  0  0  0  0  0
   -4.3300   18.8870  -33.7720 C   0  0  0  0  0  0  0  0  0  0  0  0
   -5.7640   19.2650  -34.0590 C   0  0  0  0  0  0  0  0  0  0  0  0
   -6.4950   19.5940  -32.8170 N   0  0  0  0  0  0  0  0  0  0  0  0
   -7.7630   20.3140  -33.1010 C   0  0  0  0  0  0  0  0  0  0  0  0
   -8.6960   20.3070  -31.8870 C   0  0  0  0  0  0  0  0  0  0  0  0
   -9.1100   18.8710  -31.5190 C   0  0  0  0  0  0  0  0  0  0  0  0
   -8.0770   17.8230  -31.9670 C   0  0  0  0  0  0  0  0  0  0  0  0
   -6.6550   18.4020  -31.9400 C   0  0  0  0  0  0  0  0  0  0  0  0
   -2.6240   21.3670  -31.4700 C   0  0  0  0  0  0  0  0  0  0  0  0
   -2.7910   22.5910  -30.8140 C   0  0  0  0  0  0  0  0  0  0  0  0
   -5.3226   25.0638  -28.8627 H   0  0  0  0  0  0  0  0  0  0  0  0
   -5.5731   26.0990  -30.3093 H   0  0  0  0  0  0  0  0  0  0  0  0
   -6.1550   24.3995  -30.3093 H   0  0  0  0  0  0  0  0  0  0  0  0
   -5.6930   23.6122  -32.3063 H   0  0  0  0  0  0  0  0  0  0  0  0
   -5.3963   21.4301  -33.4687 H   0  0  0  0  0  0  0  0  0  0  0  0
   -0.4760   17.1540  -34.0650 H   0  0  0  0  0  0  0  0  0  0  0  0
   -1.1216   15.2432  -35.4371 H   0  0  0  0  0  0  0  0  0  0  0  0
   -3.5244   15.0070  -36.1424 H   0  0  0  0  0  0  0  0  0  0  0  0
   -5.1936   16.7474  -35.3921 H   0  0  0  0  0  0  0  0  0  0  0  0
   -5.7767   20.1409  -34.7243 H   0  0  0  0  0  0  0  0  0  0  0  0
   -6.2595   18.4058  -34.5346 H   0  0  0  0  0  0  0  0  0  0  0  0
   -7.5307   21.3557  -33.3673 H   0  0  0  0  0  0  0  0  0  0  0  0
   -8.2723   19.8021  -33.9308 H   0  0  0  0  0  0  0  0  0  0  0  0
   -8.1763   20.7623  -31.0311 H   0  0  0  0  0  0  0  0  0  0  0  0
   -9.6011   20.8800  -32.1368 H   0  0  0  0  0  0  0  0  0  0  0  0
   -9.2257   18.8069  -30.4270 H   0  0  0  0  0  0  0  0  0  0  0  0
  -10.0532   18.6526  -32.0411 H   0  0  0  0  0  0  0  0  0  0  0  0
   -8.1256   16.9580  -31.2892 H   0  0  0  0  0  0  0  0  0  0  0  0
   -8.3114   17.5198  -32.9981 H   0  0  0  0  0  0  0  0  0  0  0  0
   -6.4145   18.6924  -30.9067 H   0  0  0  0  0  0  0  0  0  0  0  0
   -5.9757   17.6231  -32.3167 H   0  0  0  0  0  0  0  0  0  0  0  0
   -1.7664   20.7255  -31.2192 H   0  0  0  0  0  0  0  0  0  0  0  0
   -2.0570   22.9139  -30.0610 H   0  0  0  0  0  0  0  0  0  0  0  0
  1  2  1  0
  2  3  1  0
  3  4  2  0
  4  5  1  0
  5  6  2  0
  6  7  1  0
  7  8  1  0
  8  9  2  0
  9 10  1  0
 10 11  2  0
 11 12  1  0
 12 13  2  0
 13 14  1  0
 14 15  1  0
 15 16  1  0
 16 17  1  0
 17 18  1  0
 18 19  1  0
 19 20  1  0
 20 21  1  0
 21 22  1  0
  6 23  1  0
 23 24  2  0
 24  3  1  0
 15  7  2  0
 22 17  1  0
 14  9  1  0
  1 25  1  0
  1 26  1  0
  1 27  1  0
  4 28  1  0
  5 29  1  0
 10 30  1  0
 11 31  1  0
 12 32  1  0
 13 33  1  0
 16 34  1  0
 16 35  1  0
 18 36  1  0
 18 37  1  0
 19 38  1  0
 19 39  1  0
 20 40  1  0
 20 41  1  0
 21 42  1  0
 21 43  1  0
 22 44  1  0
 22 45  1  0
 23 46  1  0
 24 47  1  0
M  CHG  1  10   1
M  END
>  <UniqueID>  (33) 
31

>  <SMILES>  (33) 
COc1ccc(-c2nc3[nH+]cccn3c2CN2CCCCC2)cc1

>  <Energy>  (33) 
97.37204421130399

>  <Genealogy>  (33) 
COc1ccc(-c2nc3[nH+]cccn3c2CN2CCCCC2)cc1 (protonated)
COc1ccc(-c2nc3[nH+]cccn3c2CN2CCCCC2)cc1 (3D coordinates assigned)
COc1ccc(-c2nc3[nH+]cccn3c2CN2CCCCC2)cc1 (nonaromatic ring conformer: 97.37204421130399 kcal/mol)

>  <smiles>  (33) 
COc1ccc(-c2nc3ncccn3c2CN2CCCCC2)cc1

>  <score_type>  (33) 
oracle

>  <origin>  (33) 
adg

>  <m_score__min__energy>  (33) 
-7.5300000000000002

>  <m_primary>  (33) 
energy

$$$$
33:0
     RDKit          3D

 41 44  0  0  0  0  0  0  0  0999 V2000
   -6.0450   25.8300  -30.2120 O   0  0  0  0  0  0  0  0  0  0  0  0
   -5.1230   25.0980  -30.6620 C   0  0  0  0  0  0  0  0  0  0  0  0
   -3.8620   25.6560  -30.8440 O   0  0  0  0  0  0  0  0  0  0  0  0
   -5.3870   23.6710  -30.9910 C   0  0  0  0  0  0  0  0  0  0  0  0
   -6.6940   23.1700  -30.9040 C   0  0  0  0  0  0  0  0  0  0  0  0
   -6.9820   21.8590  -31.1630 N   0  0  0  0  0  0  0  0  0  0  0  0
   -8.3850   21.4200  -31.0200 C   0  0  0  0  0  0  0  0  0  0  0  0
   -9.3900   22.3050  -31.7510 C   0  0  0  0  0  0  0  0  0  0  0  0
   -9.0520   20.9380  -32.3070 C   0  0  0  0  0  0  0  0  0  0  0  0
   -6.0010   21.0090  -31.6310 C   0  0  0  0  0  0  0  0  0  0  0  0
   -6.2950   19.6870  -32.0360 C   0  0  0  0  0  0  0  0  0  0  0  0
   -5.2860   18.8220  -32.4820 C   0  0  0  0  0  0  0  0  0  0  0  0
   -5.6130   17.4780  -32.8790 N   0  0  0  0  0  0  0  0  0  0  0  0
   -5.3390   16.3630  -31.9660 C   0  0  0  0  0  0  0  0  0  0  0  0
   -4.9680   15.0800  -32.7410 C   0  0  0  0  0  0  0  0  0  0  0  0
   -5.5380   15.0030  -34.1010 N   0  0  0  0  0  0  0  0  0  0  0  0
   -6.7750   15.7790  -34.2400 C   0  0  0  0  0  0  0  0  0  0  0  0
   -6.4910   17.2700  -34.0360 C   0  0  0  0  0  0  0  0  0  0  0  0
   -3.9630   19.2740  -32.5320 C   0  0  0  0  0  0  0  0  0  0  0  0
   -2.9630   18.4410  -32.9160 F   0  0  0  0  0  0  0  0  0  0  0  0
   -3.6550   20.5840  -32.1650 C   0  0  0  0  0  0  0  0  0  0  0  0
   -4.6620   21.4640  -31.7260 C   0  0  0  0  0  0  0  0  0  0  0  0
   -4.3590   22.7960  -31.3900 C   0  0  0  0  0  0  0  0  0  0  0  0
   -3.1680   23.2060  -31.4590 O   0  0  0  0  0  0  0  0  0  0  0  0
   -7.5099   23.8507  -30.6195 H   0  0  0  0  0  0  0  0  0  0  0  0
   -8.2806   21.0168  -30.0019 H   0  0  0  0  0  0  0  0  0  0  0  0
  -10.3813   22.4891  -31.3112 H   0  0  0  0  0  0  0  0  0  0  0  0
   -9.3750   23.3301  -32.1497 H   0  0  0  0  0  0  0  0  0  0  0  0
   -9.7977   20.1301  -32.2701 H   0  0  0  0  0  0  0  0  0  0  0  0
   -8.6903   20.5611  -33.2751 H   0  0  0  0  0  0  0  0  0  0  0  0
   -7.3350   19.3303  -32.0005 H   0  0  0  0  0  0  0  0  0  0  0  0
   -4.5026   16.6375  -31.3064 H   0  0  0  0  0  0  0  0  0  0  0  0
   -6.2482   16.1633  -31.3799 H   0  0  0  0  0  0  0  0  0  0  0  0
   -3.8721   15.0329  -32.8240 H   0  0  0  0  0  0  0  0  0  0  0  0
   -5.3916   14.2374  -32.1747 H   0  0  0  0  0  0  0  0  0  0  0  0
   -4.8360   15.3740  -34.7850 H   0  0  0  0  0  0  0  0  0  0  0  0
   -7.1905   15.6228  -35.2465 H   0  0  0  0  0  0  0  0  0  0  0  0
   -7.4957   15.4440  -33.4795 H   0  0  0  0  0  0  0  0  0  0  0  0
   -6.0026   17.6709  -34.9364 H   0  0  0  0  0  0  0  0  0  0  0  0
   -7.4435   17.7895  -33.8546 H   0  0  0  0  0  0  0  0  0  0  0  0
   -2.6133   20.9333  -32.2193 H   0  0  0  0  0  0  0  0  0  0  0  0
  1  2  2  0
  2  3  1  0
  2  4  1  0
  4  5  2  0
  5  6  1  0
  6  7  1  0
  7  8  1  0
  8  9  1  0
  6 10  1  0
 10 11  2  0
 11 12  1  0
 12 13  1  0
 13 14  1  0
 14 15  1  0
 15 16  1  0
 16 17  1  0
 17 18  1  0
 12 19  2  0
 19 20  1  0
 19 21  1  0
 21 22  2  0
 22 23  1  0
 23 24  2  0
 23  4  1  0
  9  7  1  0
 22 10  1  0
 18 13  1  0
  5 25  1  0
  7 26  1  0
  8 27  1  0
  8 28  1  0
  9 29  1  0
  9 30  1  0
 11 31  1  0
 14 32  1  0
 14 33  1  0
 15 34  1  0
 15 35  1  0
 16 36  1  0
 17 37  1  0
 17 38  1  0
 18 39  1  0
 18 40  1  0
 21 41  1  0
M  CHG  1   3  -1
M  END
>  <UniqueID>  (34) 
32

>  <SMILES>  (34) 
O=C([O-])c1cn(C2CC2)c2cc(N3CCNCC3)c(F)cc2c1=O

>  <Energy>  (34) 
329.20055742386467

>  <Genealogy>  (34) 
O=C([O-])c1cn(C2CC2)c2cc(N3CCNCC3)c(F)cc2c1=O (protonated)
O=C([O-])c1cn(C2CC2)c2cc(N3CCNCC3)c(F)cc2c1=O (3D coordinates assigned)
O=C([O-])c1cn(C2CC2)c2cc(N3CCNCC3)c(F)cc2c1=O (nonaromatic ring conformer: 329.20055742386467 kcal/mol)

>  <smiles>  (34) 
O=C(O)c1cn(C2CC2)c2cc(N3CCNCC3)c(F)cc2c1=O

>  <score_type>  (34) 
oracle

>  <origin>  (34) 
adg

>  <m_score__min__energy>  (34) 
-9.7899999999999991

>  <m_primary>  (34) 
energy

$$$$
34:0
     RDKit          3D

 50 53  0  0  0  0  0  0  0  0999 V2000
   -1.4430   18.1980  -32.3320 H   0  0  0  0  0  0  0  0  0  0  0  0
   -0.8210   18.7770  -31.7250 N   0  0  0  0  0  0  0  0  0  0  0  0
   -1.1420   19.9580  -31.2850 C   0  0  0  0  0  0  0  0  0  0  0  0
   -2.4310   20.5230  -31.6020 N   0  0  0  0  0  0  0  0  0  0  0  0
   -2.8240   21.7370  -31.1270 C   0  0  0  0  0  0  0  0  0  0  0  0
   -4.3480   22.1350  -31.7370 S   0  0  0  0  0  0  0  0  0  0  0  0
   -4.5290   20.7170  -32.6180 C   0  0  0  0  0  0  0  0  0  0  0  0
   -5.6060   20.4440  -33.3700 C   0  0  0  0  0  0  0  0  0  0  0  0
   -5.5210   20.5813  -34.4581 H   0  0  0  0  0  0  0  0  0  0  0  0
   -6.8990   19.9710  -32.8330 C   0  0  0  0  0  0  0  0  0  0  0  0
   -7.8550   20.9210  -32.4320 C   0  0  0  0  0  0  0  0  0  0  0  0
   -7.6147   21.9931  -32.4856 H   0  0  0  0  0  0  0  0  0  0  0  0
   -9.1050   20.5150  -31.9670 C   0  0  0  0  0  0  0  0  0  0  0  0
   -9.8404   21.2655  -31.6415 H   0  0  0  0  0  0  0  0  0  0  0  0
   -9.4240   19.1590  -31.9140 C   0  0  0  0  0  0  0  0  0  0  0  0
  -10.4114   18.8417  -31.5476 H   0  0  0  0  0  0  0  0  0  0  0  0
   -8.4930   18.2020  -32.3250 C   0  0  0  0  0  0  0  0  0  0  0  0
   -8.7572   17.1348  -32.2887 H   0  0  0  0  0  0  0  0  0  0  0  0
   -7.2180   18.5900  -32.7860 C   0  0  0  0  0  0  0  0  0  0  0  0
   -6.2200   17.5410  -33.2350 C   0  0  0  0  0  0  0  0  0  0  0  0
   -5.2320   17.4050  -32.2750 F   0  0  0  0  0  0  0  0  0  0  0  0
   -6.8580   16.3260  -33.4060 F   0  0  0  0  0  0  0  0  0  0  0  0
   -5.6190   17.8830  -34.4340 F   0  0  0  0  0  0  0  0  0  0  0  0
   -3.3660   19.9570  -32.4310 C   0  0  0  0  0  0  0  0  0  0  0  0
   -3.1730   18.8520  -33.0050 O   0  0  0  0  0  0  0  0  0  0  0  0
   -2.0930   22.4680  -30.2520 C   0  0  0  0  0  0  0  0  0  0  0  0
   -2.5250   23.8050  -29.7580 C   0  0  0  0  0  0  0  0  0  0  0  0
   -2.0500   24.2910  -28.6950 O   0  0  0  0  0  0  0  0  0  0  0  0
   -3.5000   24.5130  -30.4680 O   0  0  0  0  0  0  0  0  0  0  0  0
   -4.8030   24.7550  -29.9530 C   0  0  0  0  0  0  0  0  0  0  0  0
   -4.7697   24.7488  -28.8535 H   0  0  0  0  0  0  0  0  0  0  0  0
   -5.1597   25.7347  -30.3035 H   0  0  0  0  0  0  0  0  0  0  0  0
   -5.4877   23.9687  -30.3035 H   0  0  0  0  0  0  0  0  0  0  0  0
   -0.8170   21.8810  -29.6620 C   0  0  1  0  0  0  0  0  0  0  0  0
   -0.0821   22.6955  -29.5818 H   0  0  0  0  0  0  0  0  0  0  0  0
   -1.0600   21.3690  -28.2400 C   0  0  0  0  0  0  0  0  0  0  0  0
   -1.7960   20.1800  -28.0620 C   0  0  0  0  0  0  0  0  0  0  0  0
   -2.1733   19.6377  -28.9415 H   0  0  0  0  0  0  0  0  0  0  0  0
   -2.0520   19.6820  -26.7820 C   0  0  0  0  0  0  0  0  0  0  0  0
   -2.6237   18.7503  -26.6594 H   0  0  0  0  0  0  0  0  0  0  0  0
   -1.5840   20.3640  -25.6600 C   0  0  0  0  0  0  0  0  0  0  0  0
   -1.7858   19.9703  -24.6529 H   0  0  0  0  0  0  0  0  0  0  0  0
   -0.8590   21.5470  -25.8150 C   0  0  0  0  0  0  0  0  0  0  0  0
   -0.4926   22.0841  -24.9277 H   0  0  0  0  0  0  0  0  0  0  0  0
   -0.5960   22.0530  -27.0920 C   0  0  0  0  0  0  0  0  0  0  0  0
    0.1110   23.2030  -27.1910 F   0  0  0  0  0  0  0  0  0  0  0  0
   -0.1280   20.8470  -30.5990 C   0  0  1  0  0  0  0  0  0  0  0  0
    0.3839   21.4006  -31.3999 H   0  0  0  0  0  0  0  0  0  0  0  0
    0.9200   20.0880  -29.8850 C   0  0  0  0  0  0  0  0  0  0  0  0
    1.7420   19.4920  -29.3280 N   0  0  0  0  0  0  0  0  0  0  0  0
  1  2  1  0
  2  3  2  0
  3  4  1  0
  4  5  1  0
  5  6  1  0
  6  7  1  0
  7  8  2  3
  8  9  1  0
  8 10  1  0
 10 11  2  0
 11 12  1  0
 11 13  1  0
 13 14  1  0
 13 15  2  0
 15 16  1  0
 15 17  1  0
 17 18  1  0
 17 19  2  0
 19 20  1  0
 20 21  1  0
 20 22  1  0
 20 23  1  0
  7 24  1  0
 24 25  2  0
  5 26  2  0
 26 27  1  0
 27 28  2  0
 27 29  1  0
 29 30  1  0
 30 31  1  0
 30 32  1  0
 30 33  1  0
 26 34  1  0
 34 35  1  1
 34 36  1  0
 36 37  2  0
 37 38  1  0
 37 39  1  0
 39 40  1  0
 39 41  2  0
 41 42  1  0
 41 43  1  0
 43 44  1  0
 43 45  2  0
 45 46  1  0
 34 47  1  0
 47 48  1  6
 47 49  1  0
 49 50  3  0
 47  3  1  0
 24  4  1  0
 45 36  1  0
 19 10  1  0
M  END
>  <UniqueID>  (35) 
33

>  <SMILES>  (35) 
[H]/N=C1\[C@H](C#N)[C@H](c2ccccc2F)C(C(=O)OC)=c2sc(=Cc3ccccc3C(F)(F)F)c(=O)n21

>  <Energy>  (35) 
107.68656933509854

>  <Genealogy>  (35) 
COC(=O)C1=c2sc(=Cc3ccccc3C(F)(F)F)c(=O)n2C(=N)[C@H](C#N)[C@@H]1c1ccccc1F (chirality)
[H]/N=C1\[C@H](C#N)[C@H](c2ccccc2F)C(C(=O)OC)=c2sc(=Cc3ccccc3C(F)(F)F)c(=O)n21 (cis-trans isomerization)
[H]/N=C1\[C@H](C#N)[C@H](c2ccccc2F)C(C(=O)OC)=c2sc(=Cc3ccccc3C(F)(F)F)c(=O)n21 (3D coordinates assigned)
[H]/N=C1\[C@H](C#N)[C@H](c2ccccc2F)C(C(=O)OC)=c2sc(=Cc3ccccc3C(F)(F)F)c(=O)n21 (nonaromatic ring conformer: 107.68656933509854 kcal/mol)

>  <smiles>  (35) 
COC(=O)C1=c2sc(=Cc3ccccc3C(F)(F)F)c(=O)n2C(=N)C(C#N)C1c1ccccc1F

>  <score_type>  (35) 
oracle

>  <origin>  (35) 
adg

>  <m_score__min__energy>  (35) 
-8.4800000000000004

>  <m_primary>  (35) 
energy

$$$$
35:0
     RDKit          3D

 40 42  0  0  0  0  0  0  0  0999 V2000
   -8.6927   22.0573  -31.3471 H   0  0  0  0  0  0  0  0  0  0  0  0
   -7.7780   22.6500  -31.1990 C   0  0  0  0  0  0  0  0  0  0  0  0
   -7.0860   23.1550  -32.3030 C   0  0  0  0  0  0  0  0  0  0  0  0
   -7.4515   22.9523  -33.3205 H   0  0  0  0  0  0  0  0  0  0  0  0
   -5.9290   23.9180  -32.1150 C   0  0  0  0  0  0  0  0  0  0  0  0
   -5.3786   24.2994  -32.9877 H   0  0  0  0  0  0  0  0  0  0  0  0
   -5.4660   24.2000  -30.8230 C   0  0  0  0  0  0  0  0  0  0  0  0
   -4.2540   24.9580  -30.6740 N   0  0  0  0  0  0  0  0  0  0  0  0
   -3.1050   24.5210  -30.2450 C   0  0  0  0  0  0  0  0  0  0  0  0
   -2.4230   25.2480  -29.3230 N   0  0  0  0  0  0  0  0  0  0  0  0
   -1.2260   24.8280  -28.8320 C   0  0  0  0  0  0  0  0  0  0  0  0
   -0.5130   25.6610  -27.8100 C   0  0  0  0  0  0  0  0  0  0  0  0
   -0.7157   26.7238  -28.0083 H   0  0  0  0  0  0  0  0  0  0  0  0
    0.5648   25.4526  -27.8805 H   0  0  0  0  0  0  0  0  0  0  0  0
   -1.0720   25.2530  -26.1220 S   0  0  0  0  0  0  0  0  0  0  0  0
   -2.5090   24.3190  -26.6570 C   0  0  0  0  0  0  0  0  0  0  0  0
   -3.7200   24.8620  -26.8790 N   0  0  0  0  0  0  0  0  0  0  0  0
   -4.4920   23.8260  -27.1690 N   0  0  0  0  0  0  0  0  0  0  0  0
   -5.5110   23.8920  -27.3890 H   0  0  0  0  0  0  0  0  0  0  0  0
   -3.8110   22.6930  -27.1130 N   0  0  0  0  0  0  0  0  0  0  0  0
   -2.5540   22.9820  -26.8160 N   0  0  0  0  0  0  0  0  0  0  0  0
   -1.5120   22.0090  -26.4810 C   0  0  0  0  0  0  0  0  0  0  0  0
   -1.6309   21.7123  -25.4285 H   0  0  0  0  0  0  0  0  0  0  0  0
   -0.5372   22.4873  -26.6572 H   0  0  0  0  0  0  0  0  0  0  0  0
   -1.5820   20.7510  -27.3590 C   0  0  0  0  0  0  0  0  0  0  0  0
   -0.5582   20.4065  -27.5669 H   0  0  0  0  0  0  0  0  0  0  0  0
   -2.1112   21.0150  -28.2865 H   0  0  0  0  0  0  0  0  0  0  0  0
   -2.3540   19.6200  -26.6840 C   0  0  0  0  0  0  0  0  0  0  0  0
   -2.2809   19.7271  -25.5917 H   0  0  0  0  0  0  0  0  0  0  0  0
   -3.4105   19.6654  -26.9870 H   0  0  0  0  0  0  0  0  0  0  0  0
   -1.9269   18.6527  -26.9870 H   0  0  0  0  0  0  0  0  0  0  0  0
   -0.6820   23.6200  -29.2840 C   0  0  0  0  0  0  0  0  0  0  0  0
    0.2924   23.2682  -28.9141 H   0  0  0  0  0  0  0  0  0  0  0  0
   -1.4040   22.8730  -30.2140 C   0  0  0  0  0  0  0  0  0  0  0  0
   -0.9510   21.7760  -30.6340 O   0  0  0  0  0  0  0  0  0  0  0  0
   -2.5960   23.3320  -30.6720 N   0  0  0  0  0  0  0  0  0  0  0  0
   -6.1520   23.6620  -29.7150 C   0  0  0  0  0  0  0  0  0  0  0  0
   -5.7776   23.8433  -28.6967 H   0  0  0  0  0  0  0  0  0  0  0  0
   -7.3080   22.8980  -29.9080 C   0  0  0  0  0  0  0  0  0  0  0  0
   -7.8481   22.4916  -29.0402 H   0  0  0  0  0  0  0  0  0  0  0  0
  1  2  1  0
  2  3  2  0
  3  4  1  0
  3  5  1  0
  5  6  1  0
  5  7  2  0
  7  8  1  0
  8  9  2  0
  9 10  1  0
 10 11  1  0
 11 12  1  0
 12 13  1  0
 12 14  1  0
 12 15  1  0
 15 16  1  0
 16 17  2  0
 17 18  1  0
 18 19  1  0
 18 20  2  0
 20 21  1  0
 21 22  1  0
 22 23  1  0
 22 24  1  0
 22 25  1  0
 25 26  1  0
 25 27  1  0
 25 28  1  0
 28 29  1  0
 28 30  1  0
 28 31  1  0
 11 32  2  0
 32 33  1  0
 32 34  1  0
 34 35  2  0
 34 36  1  0
  7 37  1  0
 37 38  1  0
 37 39  2  0
 39 40  1  0
 39  2  1  0
 36  9  1  0
 21 16  1  0
M  CHG  3  10  -1  18   1  36  -1
M  END
>  <UniqueID>  (36) 
34

>  <SMILES>  (36) 
CCCn1n[nH+]nc1SCc1cc(=O)[n-]/c(=N\c2ccccc2)[n-]1

>  <Energy>  (36) 
78.70698938932843

>  <Genealogy>  (36) 
CCCn1n[nH+]nc1SCc1cc(=O)[n-]c(=Nc2ccccc2)[n-]1 (protonated)
CCCn1n[nH+]nc1SCc1cc(=O)[n-]/c(=N\c2ccccc2)[n-]1 (cis-trans isomerization)
CCCn1n[nH+]nc1SCc1cc(=O)[n-]/c(=N\c2ccccc2)[n-]1 (3D coordinates assigned)
CCCn1n[nH+]nc1SCc1cc(=O)[n-]/c(=N\c2ccccc2)[n-]1 (optimized conformer: 78.70698938932843 kcal/mol)

>  <smiles>  (36) 
CCCn1nnnc1SCc1cc(=O)[nH]c(=Nc2ccccc2)[nH]1

>  <score_type>  (36) 
oracle

>  <origin>  (36) 
adg

>  <m_score__min__energy>  (36) 
-10.539999999999999

>  <m_primary>  (36) 
energy

$$$$
36:0
     RDKit          3D

 52 54  0  0  0  0  0  0  0  0999 V2000
   -1.9860   21.0590  -33.0300 C   0  0  0  0  0  0  0  0  0  0  0  0
   -3.4910   20.8360  -33.1230 C   0  0  0  0  0  0  0  0  0  0  0  0
   -4.1960   22.0710  -32.9920 O   0  0  0  0  0  0  0  0  0  0  0  0
   -5.4260   22.2480  -32.3320 C   0  0  0  0  0  0  0  0  0  0  0  0
   -6.5740   21.5060  -32.6680 C   0  0  0  0  0  0  0  0  0  0  0  0
   -7.7770   21.6930  -31.9720 C   0  0  0  0  0  0  0  0  0  0  0  0
   -9.0070   20.8950  -32.3440 C   0  0  0  0  0  0  0  0  0  0  0  0
   -8.6820   19.6620  -33.0910 N   0  0  0  0  0  0  0  0  0  0  0  0
   -8.2180   18.5590  -32.2300 C   0  0  0  0  0  0  0  0  0  0  0  0
   -6.8780   18.0300  -32.6520 C   0  0  0  0  0  0  0  0  0  0  0  0
   -6.1080   17.1070  -31.9640 C   0  0  0  0  0  0  0  0  0  0  0  0
   -5.0010   16.9180  -32.7650 C   0  0  0  0  0  0  0  0  0  0  0  0
   -5.1220   17.7120  -33.8490 N   0  0  0  0  0  0  0  0  0  0  0  0
   -4.2120   17.7520  -34.9840 C   0  0  0  0  0  0  0  0  0  0  0  0
   -6.2610   18.3820  -33.7980 N   0  0  0  0  0  0  0  0  0  0  0  0
   -7.8320   22.6470  -30.9440 C   0  0  0  0  0  0  0  0  0  0  0  0
   -6.7030   23.3990  -30.6160 C   0  0  0  0  0  0  0  0  0  0  0  0
   -5.4960   23.2120  -31.3160 C   0  0  0  0  0  0  0  0  0  0  0  0
   -4.3450   23.9730  -31.0460 O   0  0  0  0  0  0  0  0  0  0  0  0
   -3.1790   23.5050  -30.3700 C   0  0  0  0  0  0  0  0  0  0  0  0
   -3.1100   24.0480  -28.9680 C   0  0  0  0  0  0  0  0  0  0  0  0
   -4.2360   23.9910  -28.1270 C   0  0  0  0  0  0  0  0  0  0  0  0
   -4.1880   24.5550  -26.8460 C   0  0  0  0  0  0  0  0  0  0  0  0
   -3.0210   25.1850  -26.4020 C   0  0  0  0  0  0  0  0  0  0  0  0
   -1.9000   25.2520  -27.2360 C   0  0  0  0  0  0  0  0  0  0  0  0
   -1.9440   24.6920  -28.5160 C   0  0  0  0  0  0  0  0  0  0  0  0
   -1.6866   21.1034  -31.9725 H   0  0  0  0  0  0  0  0  0  0  0  0
   -1.4610   20.2288  -33.5252 H   0  0  0  0  0  0  0  0  0  0  0  0
   -1.7243   22.0057  -33.5252 H   0  0  0  0  0  0  0  0  0  0  0  0
   -3.7293   20.3865  -34.0983 H   0  0  0  0  0  0  0  0  0  0  0  0
   -3.7991   20.1660  -32.3068 H   0  0  0  0  0  0  0  0  0  0  0  0
   -6.5270   20.7714  -33.4854 H   0  0  0  0  0  0  0  0  0  0  0  0
   -9.5390   20.6180  -31.4219 H   0  0  0  0  0  0  0  0  0  0  0  0
   -9.6274   21.5258  -32.9975 H   0  0  0  0  0  0  0  0  0  0  0  0
   -7.9880   19.8500  -33.8520 H   0  0  0  0  0  0  0  0  0  0  0  0
   -9.5610   19.3400  -33.5600 H   0  0  0  0  0  0  0  0  0  0  0  0
   -8.1436   18.9254  -31.1955 H   0  0  0  0  0  0  0  0  0  0  0  0
   -8.9451   17.7380  -32.3148 H   0  0  0  0  0  0  0  0  0  0  0  0
   -6.3293   16.6318  -30.9969 H   0  0  0  0  0  0  0  0  0  0  0  0
   -4.1631   16.2367  -32.5558 H   0  0  0  0  0  0  0  0  0  0  0  0
   -3.1747   17.7976  -34.6208 H   0  0  0  0  0  0  0  0  0  0  0  0
   -4.3473   16.8470  -35.5945 H   0  0  0  0  0  0  0  0  0  0  0  0
   -4.4262   18.6416  -35.5945 H   0  0  0  0  0  0  0  0  0  0  0  0
   -8.7713   22.8030  -30.3932 H   0  0  0  0  0  0  0  0  0  0  0  0
   -6.7565   24.1417  -29.8063 H   0  0  0  0  0  0  0  0  0  0  0  0
   -3.2046   22.4061  -30.3286 H   0  0  0  0  0  0  0  0  0  0  0  0
   -2.2928   23.8509  -30.9223 H   0  0  0  0  0  0  0  0  0  0  0  0
   -5.1572   23.5019  -28.4765 H   0  0  0  0  0  0  0  0  0  0  0  0
   -5.0685   24.5025  -26.1888 H   0  0  0  0  0  0  0  0  0  0  0  0
   -2.9846   25.6283  -25.3959 H   0  0  0  0  0  0  0  0  0  0  0  0
   -0.9824   25.7461  -26.8840 H   0  0  0  0  0  0  0  0  0  0  0  0
   -1.0635   24.7552  -29.1723 H   0  0  0  0  0  0  0  0  0  0  0  0
  1  2  1  0
  2  3  1  0
  3  4  1  0
  4  5  2  0
  5  6  1  0
  6  7  1  0
  7  8  1  0
  8  9  1  0
  9 10  1  0
 10 11  1  0
 11 12  2  0
 12 13  1  0
 13 14  1  0
 13 15  1  0
  6 16  2  0
 16 17  1  0
 17 18  2  0
 18 19  1  0
 19 20  1  0
 20 21  1  0
 21 22  2  0
 22 23  1  0
 23 24  2  0
 24 25  1  0
 25 26  2  0
 18  4  1  0
 26 21  1  0
 15 10  2  0
  1 27  1  0
  1 28  1  0
  1 29  1  0
  2 30  1  0
  2 31  1  0
  5 32  1  0
  7 33  1  0
  7 34  1  0
  8 35  1  0
  8 36  1  0
  9 37  1  0
  9 38  1  0
 11 39  1  0
 12 40  1  0
 14 41  1  0
 14 42  1  0
 14 43  1  0
 16 44  1  0
 17 45  1  0
 20 46  1  0
 20 47  1  0
 22 48  1  0
 23 49  1  0
 24 50  1  0
 25 51  1  0
 26 52  1  0
M  CHG  1   8   1
M  END
>  <UniqueID>  (37) 
35

>  <SMILES>  (37) 
CCOc1cc(C[NH2+]Cc2ccn(C)n2)ccc1OCc1ccccc1

>  <Energy>  (37) 
74.96370529259231

>  <Genealogy>  (37) 
CCOc1cc(C[NH2+]Cc2ccn(C)n2)ccc1OCc1ccccc1 (protonated)
CCOc1cc(C[NH2+]Cc2ccn(C)n2)ccc1OCc1ccccc1 (3D coordinates assigned)
CCOc1cc(C[NH2+]Cc2ccn(C)n2)ccc1OCc1ccccc1 (optimized conformer: 74.96370529259231 kcal/mol)

>  <smiles>  (37) 
CCOc1cc(CNCc2ccn(C)n2)ccc1OCc1ccccc1

>  <score_type>  (37) 
oracle

>  <origin>  (37) 
adg

>  <m_score__min__energy>  (37) 
-8.0199999999999996

>  <m_primary>  (37) 
energy

$$$$
37:0
     RDKit          3D

 47 50  0  0  0  0  0  0  0  0999 V2000
   -2.5160   20.0570  -31.6320 C   0  0  0  0  0  0  0  0  0  0  0  0
   -2.4490   19.8990  -33.0180 C   0  0  0  0  0  0  0  0  0  0  0  0
   -3.1150   20.7610  -33.8330 N   0  0  0  0  0  0  0  0  0  0  0  0
   -3.8710   21.7760  -33.3360 C   0  0  0  0  0  0  0  0  0  0  0  0
   -4.0080   21.9380  -31.9510 C   0  0  0  0  0  0  0  0  0  0  0  0
   -4.7510   23.0830  -31.4020 C   0  0  0  0  0  0  0  0  0  0  0  0
   -4.0240   24.0600  -30.7970 N   0  0  0  0  0  0  0  0  0  0  0  0
   -4.6040   25.1580  -30.2520 C   0  0  0  0  0  0  0  0  0  0  0  0
   -5.9860   25.2960  -30.3110 C   0  0  0  0  0  0  0  0  0  0  0  0
   -6.7260   24.3310  -30.9100 N   0  0  0  0  0  0  0  0  0  0  0  0
   -6.1670   23.2150  -31.4610 C   0  0  0  0  0  0  0  0  0  0  0  0
   -7.1180   22.2230  -32.1160 C   0  0  2  0  0  0  0  0  0  0  0  0
   -8.5590   22.7520  -32.3310 C   0  0  0  0  0  0  0  0  0  0  0  0
   -9.6090   21.9130  -31.5940 C   0  0  0  0  0  0  0  0  0  0  0  0
   -9.4680   20.4070  -31.8950 C   0  0  0  0  0  0  0  0  0  0  0  0
   -8.0630   19.9620  -32.1150 N   0  0  0  0  0  0  0  0  0  0  0  0
   -7.8660   18.5510  -31.7150 C   0  0  0  0  0  0  0  0  0  0  0  0
   -6.3760   18.2120  -31.5700 C   0  0  0  0  0  0  0  0  0  0  0  0
   -5.7610   17.8950  -32.8990 C   0  0  0  0  0  0  0  0  0  0  0  0
   -5.0710   16.7330  -33.2220 C   0  0  0  0  0  0  0  0  0  0  0  0
   -4.6790   16.6820  -34.5650 C   0  0  0  0  0  0  0  0  0  0  0  0
   -5.0680   17.7930  -35.3030 C   0  0  0  0  0  0  0  0  0  0  0  0
   -5.9030   18.8390  -34.2830 S   0  0  0  0  0  0  0  0  0  0  0  0
   -7.0850   20.8390  -31.4470 C   0  0  0  0  0  0  0  0  0  0  0  0
   -3.2840   21.0930  -31.0980 C   0  0  0  0  0  0  0  0  0  0  0  0
   -1.9690   19.3718  -30.9678 H   0  0  0  0  0  0  0  0  0  0  0  0
   -1.8581   19.0781  -33.4504 H   0  0  0  0  0  0  0  0  0  0  0  0
   -4.3761   22.4713  -34.0226 H   0  0  0  0  0  0  0  0  0  0  0  0
   -3.9879   25.9306  -29.7688 H   0  0  0  0  0  0  0  0  0  0  0  0
   -6.4746   26.1801  -29.8756 H   0  0  0  0  0  0  0  0  0  0  0  0
   -6.7210   22.0931  -33.1336 H   0  0  0  0  0  0  0  0  0  0  0  0
   -8.6132   23.7872  -31.9631 H   0  0  0  0  0  0  0  0  0  0  0  0
   -8.7794   22.6928  -33.4071 H   0  0  0  0  0  0  0  0  0  0  0  0
   -9.4920   22.0703  -30.5116 H   0  0  0  0  0  0  0  0  0  0  0  0
  -10.6021   22.2349  -31.9405 H   0  0  0  0  0  0  0  0  0  0  0  0
   -9.8800   19.8442  -31.0444 H   0  0  0  0  0  0  0  0  0  0  0  0
  -10.0124   20.2173  -32.8318 H   0  0  0  0  0  0  0  0  0  0  0  0
   -8.3675   18.3790  -30.7512 H   0  0  0  0  0  0  0  0  0  0  0  0
   -8.2927   17.9068  -32.4979 H   0  0  0  0  0  0  0  0  0  0  0  0
   -5.8532   19.0735  -31.1290 H   0  0  0  0  0  0  0  0  0  0  0  0
   -6.2812   17.3279  -30.9224 H   0  0  0  0  0  0  0  0  0  0  0  0
   -4.8549   15.9348  -32.4966 H   0  0  0  0  0  0  0  0  0  0  0  0
   -4.1157   15.8410  -34.9956 H   0  0  0  0  0  0  0  0  0  0  0  0
   -4.8649   17.9602  -36.3711 H   0  0  0  0  0  0  0  0  0  0  0  0
   -7.3440   20.9373  -30.3824 H   0  0  0  0  0  0  0  0  0  0  0  0
   -6.0771   20.4072  -31.5339 H   0  0  0  0  0  0  0  0  0  0  0  0
   -3.3212   21.2463  -30.0094 H   0  0  0  0  0  0  0  0  0  0  0  0
  1  2  2  0
  2  3  1  0
  3  4  2  0
  4  5  1  0
  5  6  1  0
  6  7  2  0
  7  8  1  0
  8  9  2  0
  9 10  1  0
 10 11  2  0
 11 12  1  0
 12 13  1  0
 13 14  1  0
 14 15  1  0
 15 16  1  0
 16 17  1  0
 17 18  1  0
 18 19  1  0
 19 20  2  0
 20 21  1  0
 21 22  2  0
 22 23  1  0
 16 24  1  0
  5 25  2  0
 25  1  1  0
 11  6  1  0
 24 12  1  0
 23 19  1  0
  1 26  1  0
  2 27  1  0
  4 28  1  0
  8 29  1  0
  9 30  1  0
 12 31  1  6
 13 32  1  0
 13 33  1  0
 14 34  1  0
 14 35  1  0
 15 36  1  0
 15 37  1  0
 17 38  1  0
 17 39  1  0
 18 40  1  0
 18 41  1  0
 20 42  1  0
 21 43  1  0
 22 44  1  0
 24 45  1  0
 24 46  1  0
 25 47  1  0
M  END
>  <UniqueID>  (38) 
36

>  <SMILES>  (38) 
c1cncc(-c2nccnc2[C@@H]2CCCN(CCc3cccs3)C2)c1

>  <Energy>  (38) 
94.79447908629892

>  <Genealogy>  (38) 
c1cncc(-c2nccnc2[C@@H]2CCCN(CCc3cccs3)C2)c1 (chirality)
c1cncc(-c2nccnc2[C@@H]2CCCN(CCc3cccs3)C2)c1 (3D coordinates assigned)
c1cncc(-c2nccnc2[C@@H]2CCCN(CCc3cccs3)C2)c1 (nonaromatic ring conformer: 94.79447908629892 kcal/mol)

>  <smiles>  (38) 
c1cncc(-c2nccnc2C2CCCN(CCc3cccs3)C2)c1

>  <score_type>  (38) 
oracle

>  <origin>  (38) 
adg

>  <m_score__min__energy>  (38) 
-8.7799999999999994

>  <m_primary>  (38) 
energy

$$$$
38:0
     RDKit          3D

 48 50  0  0  0  0  0  0  0  0999 V2000
   -5.2600   14.2420  -33.5640 C   0  0  0  0  0  0  0  0  0  0  0  0
   -5.9380   15.2090  -34.3590 O   0  0  0  0  0  0  0  0  0  0  0  0
   -6.1410   16.5470  -33.9850 C   0  0  0  0  0  0  0  0  0  0  0  0
   -7.1500   16.9250  -33.0800 C   0  0  0  0  0  0  0  0  0  0  0  0
   -7.3330   18.2690  -32.7310 C   0  0  0  0  0  0  0  0  0  0  0  0
   -6.4720   19.2500  -33.2620 C   0  0  0  0  0  0  0  0  0  0  0  0
   -5.4770   18.8760  -34.1750 C   0  0  0  0  0  0  0  0  0  0  0  0
   -5.3040   17.5270  -34.5380 C   0  0  0  0  0  0  0  0  0  0  0  0
   -4.3120   17.1210  -35.4460 O   0  0  0  0  0  0  0  0  0  0  0  0
   -3.0690   16.5350  -35.0740 C   0  0  0  0  0  0  0  0  0  0  0  0
   -6.6800   20.7140  -32.9490 C   0  0  0  0  0  0  0  0  0  0  0  0
   -7.4280   20.9070  -31.6900 N   0  0  1  0  0  0  0  0  0  0  0  0
   -7.6770   22.3200  -31.4520 C   0  0  0  0  0  0  0  0  0  0  0  0
   -8.3320   22.6570  -30.4750 O   0  0  0  0  0  0  0  0  0  0  0  0
   -7.1020   23.4040  -32.3420 C   0  0  0  0  0  0  0  0  0  0  0  0
   -5.9150   24.0300  -31.7220 N   0  0  0  0  0  0  0  0  0  0  0  0
   -6.3160   24.8010  -30.5290 C   0  0  0  0  0  0  0  0  0  0  0  0
   -5.0830   25.2860  -29.7390 C   0  0  0  0  0  0  0  0  0  0  0  0
   -3.8940   25.0800  -30.4740 O   0  0  0  0  0  0  0  0  0  0  0  0
   -3.6940   23.6920  -30.6690 C   0  0  0  0  0  0  0  0  0  0  0  0
   -4.9040   23.0210  -31.3530 C   0  0  0  0  0  0  0  0  0  0  0  0
   -8.6860   20.1340  -31.6960 C   0  0  0  0  0  0  0  0  0  0  0  0
   -8.3900   18.6280  -31.7160 C   0  0  0  0  0  0  0  0  0  0  0  0
   -5.4179   14.4671  -32.4989 H   0  0  0  0  0  0  0  0  0  0  0  0
   -5.6545   13.2402  -33.7894 H   0  0  0  0  0  0  0  0  0  0  0  0
   -4.1837   14.2715  -33.7894 H   0  0  0  0  0  0  0  0  0  0  0  0
   -7.8028   16.1559  -32.6415 H   0  0  0  0  0  0  0  0  0  0  0  0
   -4.8238   19.6451  -34.6129 H   0  0  0  0  0  0  0  0  0  0  0  0
   -2.9940   16.4996  -33.9771 H   0  0  0  0  0  0  0  0  0  0  0  0
   -3.0093   15.5139  -35.4787 H   0  0  0  0  0  0  0  0  0  0  0  0
   -2.2433   17.1387  -35.4787 H   0  0  0  0  0  0  0  0  0  0  0  0
   -5.6980   21.2012  -32.8575 H   0  0  0  0  0  0  0  0  0  0  0  0
   -7.2679   21.1573  -33.7663 H   0  0  0  0  0  0  0  0  0  0  0  0
   -6.8310   20.5490  -30.9040 H   0  0  0  0  0  0  0  0  0  0  0  0
   -6.8117   22.9605  -33.3059 H   0  0  0  0  0  0  0  0  0  0  0  0
   -7.8690   24.1790  -32.4873 H   0  0  0  0  0  0  0  0  0  0  0  0
   -6.9048   25.6741  -30.8470 H   0  0  0  0  0  0  0  0  0  0  0  0
   -6.9136   24.1477  -29.8762 H   0  0  0  0  0  0  0  0  0  0  0  0
   -5.1923   26.3597  -29.5263 H   0  0  0  0  0  0  0  0  0  0  0  0
   -5.0193   24.7108  -28.8036 H   0  0  0  0  0  0  0  0  0  0  0  0
   -2.8047   23.5471  -31.2999 H   0  0  0  0  0  0  0  0  0  0  0  0
   -3.5628   23.2268  -29.6809 H   0  0  0  0  0  0  0  0  0  0  0  0
   -4.5640   22.5007  -32.2606 H   0  0  0  0  0  0  0  0  0  0  0  0
   -5.3565   22.3045  -30.6517 H   0  0  0  0  0  0  0  0  0  0  0  0
   -9.2650   20.3774  -30.7929 H   0  0  0  0  0  0  0  0  0  0  0  0
   -9.2609   20.3961  -32.5964 H   0  0  0  0  0  0  0  0  0  0  0  0
   -8.0418   18.3220  -30.7184 H   0  0  0  0  0  0  0  0  0  0  0  0
   -9.3170   18.1050  -31.9940 H   0  0  0  0  0  0  0  0  0  0  0  0
  1  2  1  0
  2  3  1  0
  3  4  2  0
  4  5  1  0
  5  6  2  0
  6  7  1  0
  7  8  2  0
  8  9  1  0
  9 10  1  0
  6 11  1  0
 11 12  1  0
 12 13  1  0
 13 14  2  0
 13 15  1  0
 15 16  1  0
 16 17  1  0
 17 18  1  0
 18 19  1  0
 19 20  1  0
 20 21  1  0
 12 22  1  0
 22 23  1  0
  8  3  1  0
 21 16  1  0
 23  5  1  0
  1 24  1  0
  1 25  1  0
  1 26  1  0
  4 27  1  0
  7 28  1  0
 10 29  1  0
 10 30  1  0
 10 31  1  0
 11 32  1  0
 11 33  1  0
 12 34  1  1
 15 35  1  0
 15 36  1  0
 17 37  1  0
 17 38  1  0
 18 39  1  0
 18 40  1  0
 20 41  1  0
 20 42  1  0
 21 43  1  0
 21 44  1  0
 22 45  1  0
 22 46  1  0
 23 47  1  0
 23 48  1  0
M  CHG  1  12   1
M  END
>  <UniqueID>  (39) 
37

>  <SMILES>  (39) 
COc1cc2c(cc1OC)C[N@@H+](C(=O)CN1CCOCC1)CC2

>  <Energy>  (39) 
60.62682035213751

>  <Genealogy>  (39) 
COc1cc2c(cc1OC)C[NH+](C(=O)CN1CCOCC1)CC2 (protonated)
COc1cc2c(cc1OC)C[N@@H+](C(=O)CN1CCOCC1)CC2 (chirality)
COc1cc2c(cc1OC)C[N@@H+](C(=O)CN1CCOCC1)CC2 (3D coordinates assigned)
COc1cc2c(cc1OC)C[N@@H+](C(=O)CN1CCOCC1)CC2 (nonaromatic ring conformer: 60.62682035213751 kcal/mol)

>  <smiles>  (39) 
COc1cc2c(cc1OC)CN(C(=O)CN1CCOCC1)CC2

>  <score_type>  (39) 
oracle

>  <origin>  (39) 
adg

>  <m_score__min__energy>  (39) 
-7.6399999999999997

>  <m_primary>  (39) 
energy

$$$$
39:0
     RDKit          3D

 28 29  0  0  0  0  0  0  0  0999 V2000
   -6.4240   23.8760  -31.1450 C   0  0  0  0  0  0  0  0  0  0  0  0
   -7.1740   22.8340  -31.9730 C   0  0  0  0  0  0  0  0  0  0  0  0
   -8.6980   23.0440  -31.9770 C   0  0  0  0  0  0  0  0  0  0  0  0
   -9.5040   21.7360  -31.9300 C   0  0  0  0  0  0  0  0  0  0  0  0
   -8.6280   20.5590  -31.9180 C   0  0  0  0  0  0  0  0  0  0  0  0
   -7.9060   19.5930  -31.9130 C   0  0  0  0  0  0  0  0  0  0  0  0
   -7.0370   18.4480  -31.9030 C   0  0  0  0  0  0  0  0  0  0  0  0
   -6.8630   17.6370  -30.8310 N   0  0  0  0  0  0  0  0  0  0  0  0
   -5.9880   16.7060  -31.2000 N   0  0  0  0  0  0  0  0  0  0  0  0
   -5.6500   16.9660  -32.4720 C   0  0  0  0  0  0  0  0  0  0  0  0
   -4.7800   16.2620  -33.2360 N   0  0  0  0  0  0  0  0  0  0  0  0
   -4.5570   16.6780  -34.5180 C   0  0  0  0  0  0  0  0  0  0  0  0
   -5.2190   17.8150  -35.0310 C   0  0  0  0  0  0  0  0  0  0  0  0
   -6.1100   18.5110  -34.2010 C   0  0  0  0  0  0  0  0  0  0  0  0
   -6.2840   18.0440  -32.9410 N   0  0  0  0  0  0  0  0  0  0  0  0
   -6.5724   23.6699  -30.0747 H   0  0  0  0  0  0  0  0  0  0  0  0
   -5.3509   23.8295  -31.3820 H   0  0  0  0  0  0  0  0  0  0  0  0
   -6.8088   24.8789  -31.3820 H   0  0  0  0  0  0  0  0  0  0  0  0
   -6.8115   22.8851  -33.0103 H   0  0  0  0  0  0  0  0  0  0  0  0
   -6.9809   21.8526  -31.5151 H   0  0  0  0  0  0  0  0  0  0  0  0
   -8.9671   23.6491  -31.0987 H   0  0  0  0  0  0  0  0  0  0  0  0
   -8.9505   23.5423  -32.9246 H   0  0  0  0  0  0  0  0  0  0  0  0
  -10.1214   21.7302  -31.0196 H   0  0  0  0  0  0  0  0  0  0  0  0
  -10.1315   21.6873  -32.8321 H   0  0  0  0  0  0  0  0  0  0  0  0
   -5.6430   15.9280  -30.5950 H   0  0  0  0  0  0  0  0  0  0  0  0
   -3.8550   16.1220  -35.1568 H   0  0  0  0  0  0  0  0  0  0  0  0
   -5.0390   18.1490  -36.0635 H   0  0  0  0  0  0  0  0  0  0  0  0
   -6.6469   19.4018  -34.5592 H   0  0  0  0  0  0  0  0  0  0  0  0
  1  2  1  0
  2  3  1  0
  3  4  1  0
  4  5  1  0
  5  6  3  0
  6  7  1  0
  7  8  2  0
  8  9  1  0
  9 10  2  0
 10 11  1  0
 11 12  2  0
 12 13  1  0
 13 14  2  0
 14 15  1  0
 15  7  1  0
 15 10  1  0
  1 16  1  0
  1 17  1  0
  1 18  1  0
  2 19  1  0
  2 20  1  0
  3 21  1  0
  3 22  1  0
  4 23  1  0
  4 24  1  0
  9 25  1  0
 12 26  1  0
 13 27  1  0
 14 28  1  0
M  CHG  1   9   1
M  END
>  <UniqueID>  (40) 
38

>  <SMILES>  (40) 
CCCCC#Cc1n[nH+]c2ncccn12

>  <Energy>  (40) 
62.480611090542325

>  <Genealogy>  (40) 
CCCCC#Cc1n[nH+]c2ncccn12 (protonated)
CCCCC#Cc1n[nH+]c2ncccn12 (3D coordinates assigned)
CCCCC#Cc1n[nH+]c2ncccn12 (optimized conformer: 62.480611090542325 kcal/mol)

>  <smiles>  (40) 
CCCCC#Cc1nnc2ncccn12

>  <score_type>  (40) 
oracle

>  <origin>  (40) 
adg

>  <m_score__min__energy>  (40) 
-5.3399999999999999

>  <m_primary>  (40) 
energy

$$$$
40:0
     RDKit          3D

 43 45  0  0  0  0  0  0  0  0999 V2000
   -2.1470   21.2710  -32.1380 H   0  0  0  0  0  0  0  0  0  0  0  0
   -2.2910   21.5610  -33.0770 O   0  0  0  0  0  0  0  0  0  0  0  0
   -1.3950   20.8260  -33.8650 C   0  0  0  0  0  0  0  0  0  0  0  0
   -1.3496   21.2667  -34.8718 H   0  0  0  0  0  0  0  0  0  0  0  0
   -1.7417   19.7840  -33.9284 H   0  0  0  0  0  0  0  0  0  0  0  0
    0.0070   20.8530  -33.2340 C   0  0  0  0  0  0  0  0  0  0  0  0
    0.6009   21.6352  -33.7294 H   0  0  0  0  0  0  0  0  0  0  0  0
    0.4522   19.8565  -33.3707 H   0  0  0  0  0  0  0  0  0  0  0  0
   -0.0260   21.1310  -31.7890 N   0  0  0  0  0  0  0  0  0  0  0  0
   -0.7450   21.8670  -31.5940 H   0  0  0  0  0  0  0  0  0  0  0  0
   -0.3390   19.9340  -31.0000 C   0  0  0  0  0  0  0  0  0  0  0  0
    0.5916   19.5099  -30.5948 H   0  0  0  0  0  0  0  0  0  0  0  0
   -0.8338   19.1928  -31.6448 H   0  0  0  0  0  0  0  0  0  0  0  0
   -1.2750   20.3050  -29.8440 C   0  0  0  0  0  0  0  0  0  0  0  0
   -0.6746   20.6864  -29.0049 H   0  0  0  0  0  0  0  0  0  0  0  0
   -1.8325   19.4049  -29.5458 H   0  0  0  0  0  0  0  0  0  0  0  0
   -2.2350   21.3300  -30.2470 N   0  0  0  0  0  0  0  0  0  0  0  0
   -2.4780   22.5780  -29.9170 C   0  0  0  0  0  0  0  0  0  0  0  0
   -1.6260   23.4200  -29.1100 C   0  0  0  0  0  0  0  0  0  0  0  0
   -0.4680   22.9910  -28.4140 C   0  0  0  0  0  0  0  0  0  0  0  0
   -0.1817   21.9295  -28.4505 H   0  0  0  0  0  0  0  0  0  0  0  0
    0.3190   23.8860  -27.6820 C   0  0  0  0  0  0  0  0  0  0  0  0
    1.2215   23.5251  -27.1670 H   0  0  0  0  0  0  0  0  0  0  0  0
   -0.0320   25.2290  -27.6010 C   0  0  0  0  0  0  0  0  0  0  0  0
    0.9610   26.3450  -26.6810 Cl  0  0  0  0  0  0  0  0  0  0  0  0
   -1.1860   25.6790  -28.2340 C   0  0  0  0  0  0  0  0  0  0  0  0
   -1.4736   26.7380  -28.1574 H   0  0  0  0  0  0  0  0  0  0  0  0
   -1.9840   24.7930  -28.9680 C   0  0  0  0  0  0  0  0  0  0  0  0
   -3.1180   25.2760  -29.5260 N   0  0  0  0  0  0  0  0  0  0  0  0
   -3.9650   24.5010  -30.2370 C   0  0  0  0  0  0  0  0  0  0  0  0
   -5.1270   25.0710  -30.7660 C   0  0  0  0  0  0  0  0  0  0  0  0
   -5.3404   26.1362  -30.5931 H   0  0  0  0  0  0  0  0  0  0  0  0
   -6.0170   24.2990  -31.5110 C   0  0  0  0  0  0  0  0  0  0  0  0
   -6.9302   24.7556  -31.9204 H   0  0  0  0  0  0  0  0  0  0  0  0
   -5.7500   22.9390  -31.7400 C   0  0  0  0  0  0  0  0  0  0  0  0
   -6.6110   22.1200  -32.4860 O   0  0  0  0  0  0  0  0  0  0  0  0
   -7.7280   21.4230  -31.9440 C   0  0  0  0  0  0  0  0  0  0  0  0
   -7.6807   21.4525  -30.8454 H   0  0  0  0  0  0  0  0  0  0  0  0
   -8.6586   21.9010  -32.2839 H   0  0  0  0  0  0  0  0  0  0  0  0
   -7.7077   20.3770  -32.2839 H   0  0  0  0  0  0  0  0  0  0  0  0
   -4.5850   22.3690  -31.2120 C   0  0  0  0  0  0  0  0  0  0  0  0
   -4.3742   21.3048  -31.3938 H   0  0  0  0  0  0  0  0  0  0  0  0
   -3.6730   23.1380  -30.4480 C   0  0  0  0  0  0  0  0  0  0  0  0
  1  2  1  0
  2  3  1  0
  3  4  1  0
  3  5  1  0
  3  6  1  0
  6  7  1  0
  6  8  1  0
  6  9  1  0
  9 10  1  0
  9 11  1  0
 11 12  1  0
 11 13  1  0
 11 14  1  0
 14 15  1  0
 14 16  1  0
 14 17  1  0
 17 18  2  0
 18 19  1  0
 19 20  2  0
 20 21  1  0
 20 22  1  0
 22 23  1  0
 22 24  2  0
 24 25  1  0
 24 26  1  0
 26 27  1  0
 26 28  2  0
 28 29  1  0
 29 30  1  0
 30 31  2  0
 31 32  1  0
 31 33  1  0
 33 34  1  0
 33 35  2  0
 35 36  1  0
 36 37  1  0
 37 38  1  0
 37 39  1  0
 37 40  1  0
 35 41  1  0
 41 42  1  0
 41 43  2  0
 43 18  1  0
 28 19  1  0
 43 30  1  0
M  CHG  1  29  -1
M  END
>  <UniqueID>  (41) 
39

>  <SMILES>  (41) 
COc1ccc2[n-]c3cc(Cl)ccc3/c(=N\CCNCCO)c2c1

>  <Energy>  (41) 
66.91527687169055

>  <Genealogy>  (41) 
COc1ccc2[n-]c3cc(Cl)ccc3c(=NCCNCCO)c2c1 (protonated)
COc1ccc2[n-]c3cc(Cl)ccc3/c(=N\CCNCCO)c2c1 (cis-trans isomerization)
COc1ccc2[n-]c3cc(Cl)ccc3/c(=N\CCNCCO)c2c1 (3D coordinates assigned)
COc1ccc2[n-]c3cc(Cl)ccc3/c(=N\CCNCCO)c2c1 (optimized conformer: 66.91527687169055 kcal/mol)

>  <smiles>  (41) 
COc1ccc2[nH]c3cc(Cl)ccc3c(=NCCNCCO)c2c1

>  <score_type>  (41) 
oracle

>  <origin>  (41) 
adg

>  <m_score__min__energy>  (41) 
-8.6300000000000008

>  <m_primary>  (41) 
energy

$$$$
41:0
     RDKit          3D

 46 48  0  0  0  0  0  0  0  0999 V2000
   -1.8320   25.7830  -28.3010 O   0  0  0  0  0  0  0  0  0  0  0  0
   -2.1660   24.5830  -28.4830 C   0  0  0  0  0  0  0  0  0  0  0  0
   -1.7090   23.5980  -27.6080 C   0  0  0  0  0  0  0  0  0  0  0  0
   -2.0960   22.2690  -27.8240 C   0  0  0  0  0  0  0  0  0  0  0  0
   -1.6150   21.1800  -26.9130 C   0  0  0  0  0  0  0  0  0  0  0  0
   -2.2390   19.9680  -27.2410 O   0  0  0  0  0  0  0  0  0  0  0  0
   -2.8760   21.9610  -28.8550 O   0  0  0  0  0  0  0  0  0  0  0  0
   -3.3330   22.8670  -29.7180 C   0  0  0  0  0  0  0  0  0  0  0  0
   -4.2300   22.4040  -30.8360 C   0  0  0  0  0  0  0  0  0  0  0  0
   -5.3510   23.3460  -31.0430 N   0  0  0  0  0  0  0  0  0  0  0  0
   -6.3020   23.3020  -29.9020 C   0  0  0  0  0  0  0  0  0  0  0  0
   -7.4680   22.3390  -30.1660 C   0  0  0  0  0  0  0  0  0  0  0  0
   -8.2520   22.7550  -31.3510 N   0  0  0  0  0  0  0  0  0  0  0  0
   -9.0940   21.6740  -31.9170 C   0  0  0  0  0  0  0  0  0  0  0  0
   -8.3360   20.3940  -32.2170 C   0  0  0  0  0  0  0  0  0  0  0  0
   -7.2740   20.3900  -33.1410 C   0  0  0  0  0  0  0  0  0  0  0  0
   -6.5580   19.2160  -33.3920 C   0  0  0  0  0  0  0  0  0  0  0  0
   -6.9060   18.0310  -32.7410 C   0  0  0  0  0  0  0  0  0  0  0  0
   -7.9810   18.0130  -31.8500 C   0  0  0  0  0  0  0  0  0  0  0  0
   -8.7000   19.1860  -31.5960 C   0  0  0  0  0  0  0  0  0  0  0  0
   -7.4870   23.5320  -32.3510 C   0  0  0  0  0  0  0  0  0  0  0  0
   -6.0030   23.1340  -32.3620 C   0  0  0  0  0  0  0  0  0  0  0  0
   -2.9920   24.2250  -29.5570 C   0  0  0  0  0  0  0  0  0  0  0  0
   -3.4720   25.1870  -30.4490 O   0  0  0  0  0  0  0  0  0  0  0  0
   -1.0558   23.8601  -26.7626 H   0  0  0  0  0  0  0  0  0  0  0  0
   -0.5259   21.0696  -27.0210 H   0  0  0  0  0  0  0  0  0  0  0  0
   -1.8628   21.4434  -25.8742 H   0  0  0  0  0  0  0  0  0  0  0  0
   -2.8930   20.1710  -27.9600 H   0  0  0  0  0  0  0  0  0  0  0  0
   -3.6423   22.3354  -31.7633 H   0  0  0  0  0  0  0  0  0  0  0  0
   -4.6443   21.4210  -30.5677 H   0  0  0  0  0  0  0  0  0  0  0  0
   -5.7631   22.9699  -29.0024 H   0  0  0  0  0  0  0  0  0  0  0  0
   -6.7175   24.3113  -29.7652 H   0  0  0  0  0  0  0  0  0  0  0  0
   -7.0668   21.3294  -30.3383 H   0  0  0  0  0  0  0  0  0  0  0  0
   -8.1322   22.3497  -29.2892 H   0  0  0  0  0  0  0  0  0  0  0  0
   -9.8913   21.4428  -31.1953 H   0  0  0  0  0  0  0  0  0  0  0  0
   -9.4851   22.0444  -32.8761 H   0  0  0  0  0  0  0  0  0  0  0  0
   -7.0058   21.3169  -33.6690 H   0  0  0  0  0  0  0  0  0  0  0  0
   -5.7191   19.2258  -34.1035 H   0  0  0  0  0  0  0  0  0  0  0  0
   -6.3331   17.1112  -32.9300 H   0  0  0  0  0  0  0  0  0  0  0  0
   -8.2627   17.0759  -31.3475 H   0  0  0  0  0  0  0  0  0  0  0  0
   -9.5561   19.1631  -30.9056 H   0  0  0  0  0  0  0  0  0  0  0  0
   -7.9133   23.3480  -33.3482 H   0  0  0  0  0  0  0  0  0  0  0  0
   -7.5555   24.5971  -32.0848 H   0  0  0  0  0  0  0  0  0  0  0  0
   -5.9244   22.0696  -32.6282 H   0  0  0  0  0  0  0  0  0  0  0  0
   -5.4896   23.7715  -33.0969 H   0  0  0  0  0  0  0  0  0  0  0  0
   -3.8670   24.9410  -31.3480 H   0  0  0  0  0  0  0  0  0  0  0  0
  1  2  2  0
  2  3  1  0
  3  4  2  0
  4  5  1  0
  5  6  1  0
  4  7  1  0
  7  8  1  0
  8  9  1  0
  9 10  1  0
 10 11  1  0
 11 12  1  0
 12 13  1  0
 13 14  1  0
 14 15  1  0
 15 16  2  0
 16 17  1  0
 17 18  2  0
 18 19  1  0
 19 20  2  0
 13 21  1  0
 21 22  1  0
  8 23  2  0
 23 24  1  0
 23  2  1  0
 22 10  1  0
 20 15  1  0
  3 25  1  0
  5 26  1  0
  5 27  1  0
  6 28  1  0
  9 29  1  0
  9 30  1  0
 11 31  1  0
 11 32  1  0
 12 33  1  0
 12 34  1  0
 14 35  1  0
 14 36  1  0
 16 37  1  0
 17 38  1  0
 18 39  1  0
 19 40  1  0
 20 41  1  0
 21 42  1  0
 21 43  1  0
 22 44  1  0
 22 45  1  0
 24 46  1  0
M  END
>  <UniqueID>  (42) 
40

>  <SMILES>  (42) 
O=c1cc(CO)oc(CN2CCN(Cc3ccccc3)CC2)c1O

>  <Energy>  (42) 
62.97985407703915

>  <Genealogy>  (42) 
O=c1cc(CO)oc(CN2CCN(Cc3ccccc3)CC2)c1O (3D coordinates assigned)
O=c1cc(CO)oc(CN2CCN(Cc3ccccc3)CC2)c1O (nonaromatic ring conformer: 62.97985407703915 kcal/mol)

>  <smiles>  (42) 
O=c1cc(CO)oc(CN2CCN(Cc3ccccc3)CC2)c1O

>  <score_type>  (42) 
oracle

>  <origin>  (42) 
adg

>  <m_score__min__energy>  (42) 
-8.5700000000000003

>  <m_primary>  (42) 
energy

$$$$
42:0
     RDKit          3D

 56 59  0  0  0  0  0  0  0  0999 V2000
   -0.4440   20.8220  -35.3130 C   0  0  0  0  0  0  0  0  0  0  0  0
   -0.2040   19.7220  -34.3620 N   0  0  0  0  0  0  0  0  0  0  0  0
    0.1030   20.2150  -33.0060 C   0  0  0  0  0  0  0  0  0  0  0  0
   -1.1180   20.7250  -32.2780 C   0  0  0  0  0  0  0  0  0  0  0  0
   -0.9520   21.6140  -31.2030 C   0  0  0  0  0  0  0  0  0  0  0  0
   -2.0640   22.0980  -30.4910 C   0  0  0  0  0  0  0  0  0  0  0  0
   -1.9280   23.0160  -29.3890 N   0  0  0  0  0  0  0  0  0  0  0  0
   -2.8540   24.4720  -29.1980 S   0  0  0  0  0  0  0  0  0  0  0  0
   -4.0690   24.2660  -27.9140 C   0  0  0  0  0  0  0  0  0  0  0  0
   -3.5690   24.7620  -30.4880 O   0  0  0  0  0  0  0  0  0  0  0  0
   -1.9440   25.6250  -28.8830 O   0  0  0  0  0  0  0  0  0  0  0  0
   -3.3470   21.6910  -30.8810 C   0  0  0  0  0  0  0  0  0  0  0  0
   -3.5190   20.7960  -31.9370 C   0  0  0  0  0  0  0  0  0  0  0  0
   -2.4090   20.2730  -32.6220 C   0  0  0  0  0  0  0  0  0  0  0  0
   -2.6240   19.3340  -33.7970 C   0  0  2  0  0  0  0  0  0  0  0  0
   -3.5860   18.2020  -33.4600 C   0  0  0  0  0  0  0  0  0  0  0  0
   -3.0850   16.9150  -33.1840 C   0  0  0  0  0  0  0  0  0  0  0  0
   -3.9520   15.8610  -32.8940 C   0  0  0  0  0  0  0  0  0  0  0  0
   -5.3290   16.0720  -32.8890 C   0  0  0  0  0  0  0  0  0  0  0  0
   -5.8470   17.3340  -33.1830 C   0  0  0  0  0  0  0  0  0  0  0  0
   -4.9840   18.4090  -33.4800 C   0  0  0  0  0  0  0  0  0  0  0  0
   -5.4800   19.6820  -33.8050 O   0  0  0  0  0  0  0  0  0  0  0  0
   -6.8590   20.0360  -33.8380 C   0  0  0  0  0  0  0  0  0  0  0  0
   -7.1460   20.9820  -32.7100 C   0  0  0  0  0  0  0  0  0  0  0  0
   -6.2940   22.0720  -32.4680 C   0  0  0  0  0  0  0  0  0  0  0  0
   -6.5340   22.9260  -31.3880 C   0  0  0  0  0  0  0  0  0  0  0  0
   -7.6160   22.6930  -30.5360 C   0  0  0  0  0  0  0  0  0  0  0  0
   -8.4580   21.5990  -30.7590 C   0  0  0  0  0  0  0  0  0  0  0  0
   -8.2210   20.7420  -31.8390 C   0  0  0  0  0  0  0  0  0  0  0  0
   -1.3020   18.7400  -34.3340 C   0  0  0  0  0  0  0  0  0  0  0  0
   -0.6464   21.7495  -34.7573 H   0  0  0  0  0  0  0  0  0  0  0  0
    0.4451   20.9602  -35.9457 H   0  0  0  0  0  0  0  0  0  0  0  0
   -1.3099   20.5773  -35.9457 H   0  0  0  0  0  0  0  0  0  0  0  0
    0.5409   19.3911  -32.4233 H   0  0  0  0  0  0  0  0  0  0  0  0
    0.8022   21.0578  -33.1105 H   0  0  0  0  0  0  0  0  0  0  0  0
    0.0598   21.9353  -30.9147 H   0  0  0  0  0  0  0  0  0  0  0  0
   -1.1850   22.8390  -28.6770 H   0  0  0  0  0  0  0  0  0  0  0  0
   -3.5816   24.3486  -26.9313 H   0  0  0  0  0  0  0  0  0  0  0  0
   -4.8383   25.0465  -28.0085 H   0  0  0  0  0  0  0  0  0  0  0  0
   -4.5380   23.2755  -28.0085 H   0  0  0  0  0  0  0  0  0  0  0  0
   -4.2272   22.0812  -30.3491 H   0  0  0  0  0  0  0  0  0  0  0  0
   -4.5341   20.4965  -32.2367 H   0  0  0  0  0  0  0  0  0  0  0  0
   -3.0700   19.9560  -34.5871 H   0  0  0  0  0  0  0  0  0  0  0  0
   -1.9993   16.7390  -33.1972 H   0  0  0  0  0  0  0  0  0  0  0  0
   -3.5480   14.8629  -32.6692 H   0  0  0  0  0  0  0  0  0  0  0  0
   -6.0101   15.2412  -32.6526 H   0  0  0  0  0  0  0  0  0  0  0  0
   -6.9357   17.4913  -33.1831 H   0  0  0  0  0  0  0  0  0  0  0  0
   -7.0922   20.5229  -34.7964 H   0  0  0  0  0  0  0  0  0  0  0  0
   -7.4778   19.1327  -33.7328 H   0  0  0  0  0  0  0  0  0  0  0  0
   -5.4351   22.2541  -33.1306 H   0  0  0  0  0  0  0  0  0  0  0  0
   -5.8691   23.7838  -31.2085 H   0  0  0  0  0  0  0  0  0  0  0  0
   -7.8057   23.3698  -29.6899 H   0  0  0  0  0  0  0  0  0  0  0  0
   -9.3070   21.4123  -30.0850 H   0  0  0  0  0  0  0  0  0  0  0  0
   -8.8793   19.8768  -32.0066 H   0  0  0  0  0  0  0  0  0  0  0  0
   -1.0060   17.9004  -33.6879 H   0  0  0  0  0  0  0  0  0  0  0  0
   -1.4817   18.4149  -35.3694 H   0  0  0  0  0  0  0  0  0  0  0  0
  1  2  1  0
  2  3  1  0
  3  4  1  0
  4  5  2  0
  5  6  1  0
  6  7  1  0
  7  8  1  0
  8  9  1  0
  8 10  2  0
  8 11  2  0
  6 12  2  0
 12 13  1  0
 13 14  2  0
 14 15  1  0
 15 16  1  0
 16 17  2  0
 17 18  1  0
 18 19  2  0
 19 20  1  0
 20 21  2  0
 21 22  1  0
 22 23  1  0
 23 24  1  0
 24 25  2  0
 25 26  1  0
 26 27  2  0
 27 28  1  0
 28 29  2  0
 15 30  1  0
 30  2  1  0
 14  4  1  0
 21 16  1  0
 29 24  1  0
  1 31  1  0
  1 32  1  0
  1 33  1  0
  3 34  1  0
  3 35  1  0
  5 36  1  0
  7 37  1  0
  9 38  1  0
  9 39  1  0
  9 40  1  0
 12 41  1  0
 13 42  1  0
 15 43  1  6
 17 44  1  0
 18 45  1  0
 19 46  1  0
 20 47  1  0
 23 48  1  0
 23 49  1  0
 25 50  1  0
 26 51  1  0
 27 52  1  0
 28 53  1  0
 29 54  1  0
 30 55  1  0
 30 56  1  0
M  END
>  <UniqueID>  (43) 
41

>  <SMILES>  (43) 
CN1Cc2cc(NS(C)(=O)=O)ccc2[C@H](c2ccccc2OCc2ccccc2)C1

>  <Energy>  (43) 
64.679334449235

>  <Genealogy>  (43) 
CN1Cc2cc(NS(C)(=O)=O)ccc2[C@H](c2ccccc2OCc2ccccc2)C1 (chirality)
CN1Cc2cc(NS(C)(=O)=O)ccc2[C@H](c2ccccc2OCc2ccccc2)C1 (3D coordinates assigned)
CN1Cc2cc(NS(C)(=O)=O)ccc2[C@H](c2ccccc2OCc2ccccc2)C1 (nonaromatic ring conformer: 64.679334449235 kcal/mol)

>  <smiles>  (43) 
CN1Cc2cc(NS(C)(=O)=O)ccc2C(c2ccccc2OCc2ccccc2)C1

>  <score_type>  (43) 
oracle

>  <origin>  (43) 
adg

>  <m_score__min__energy>  (43) 
-10.029999999999999

>  <m_primary>  (43) 
energy

$$$$
43:0
     RDKit          3D

 63 66  0  0  0  0  0  0  0  0999 V2000
   -2.3840   25.2880  -26.2660 C   0  0  0  0  0  0  0  0  0  0  0  0
   -1.0240   24.7760  -26.7370 C   0  0  0  0  0  0  0  0  0  0  0  0
   -1.1520   23.5610  -27.5760 N   0  0  0  0  0  0  0  0  0  0  0  0
   -0.0290   22.6110  -27.3540 C   0  0  0  0  0  0  0  0  0  0  0  0
   -0.5470   21.1990  -27.2520 C   0  0  0  0  0  0  0  0  0  0  0  0
    0.0230   20.1720  -28.0230 C   0  0  0  0  0  0  0  0  0  0  0  0
   -0.4750   18.8680  -27.9400 C   0  0  0  0  0  0  0  0  0  0  0  0
   -1.5530   18.5810  -27.0970 C   0  0  0  0  0  0  0  0  0  0  0  0
   -2.1390   19.6010  -26.3420 C   0  0  0  0  0  0  0  0  0  0  0  0
   -1.6440   20.9060  -26.4220 C   0  0  0  0  0  0  0  0  0  0  0  0
   -1.2530   23.9370  -29.0030 C   0  0  0  0  0  0  0  0  0  0  0  0
   -2.6160   23.5870  -29.5400 C   0  0  0  0  0  0  0  0  0  0  0  0
   -3.6290   24.5550  -29.5580 C   0  0  0  0  0  0  0  0  0  0  0  0
   -4.9080   24.2330  -30.0210 C   0  0  0  0  0  0  0  0  0  0  0  0
   -5.1940   22.9340  -30.4770 C   0  0  0  0  0  0  0  0  0  0  0  0
   -6.5420   22.5650  -30.9690 C   0  0  0  0  0  0  0  0  0  0  0  0
   -7.5640   23.4290  -31.3360 C   0  0  0  0  0  0  0  0  0  0  0  0
   -8.6190   22.6280  -31.7150 C   0  0  0  0  0  0  0  0  0  0  0  0
   -8.1790   21.3290  -31.5590 C   0  0  0  0  0  0  0  0  0  0  0  0
   -8.9770   20.0900  -31.8260 C   0  0  0  0  0  0  0  0  0  0  0  0
   -8.2220   19.1550  -32.6850 N   0  0  0  0  0  0  0  0  0  0  0  0
   -7.6310   18.0460  -31.8920 C   0  0  0  0  0  0  0  0  0  0  0  0
   -6.1380   18.2660  -31.6100 C   0  0  0  0  0  0  0  0  0  0  0  0
   -5.3570   18.3340  -32.8660 N   0  0  0  0  0  0  0  0  0  0  0  0
   -4.0780   19.0240  -32.6370 C   0  0  0  0  0  0  0  0  0  0  0  0
   -6.1040   18.9390  -33.9970 C   0  0  0  0  0  0  0  0  0  0  0  0
   -7.2250   19.8740  -33.5190 C   0  0  0  0  0  0  0  0  0  0  0  0
   -6.9450   21.3210  -31.1130 O   0  0  0  0  0  0  0  0  0  0  0  0
   -4.1730   21.9690  -30.4650 C   0  0  0  0  0  0  0  0  0  0  0  0
   -2.8960   22.2920  -29.9990 C   0  0  0  0  0  0  0  0  0  0  0  0
   -2.4112   25.2982  -25.1664 H   0  0  0  0  0  0  0  0  0  0  0  0
   -2.5436   26.3078  -26.6462 H   0  0  0  0  0  0  0  0  0  0  0  0
   -3.1765   24.6267  -26.6462 H   0  0  0  0  0  0  0  0  0  0  0  0
   -0.5314   25.5642  -27.3252 H   0  0  0  0  0  0  0  0  0  0  0  0
   -0.4308   24.5158  -25.8480 H   0  0  0  0  0  0  0  0  0  0  0  0
    0.6749   22.6788  -28.1966 H   0  0  0  0  0  0  0  0  0  0  0  0
    0.4794   22.8731  -26.4144 H   0  0  0  0  0  0  0  0  0  0  0  0
    0.8649   20.3948  -28.6950 H   0  0  0  0  0  0  0  0  0  0  0  0
   -0.0179   18.0666  -28.5390 H   0  0  0  0  0  0  0  0  0  0  0  0
   -1.9395   17.5535  -27.0280 H   0  0  0  0  0  0  0  0  0  0  0  0
   -2.9912   19.3765  -25.6837 H   0  0  0  0  0  0  0  0  0  0  0  0
   -2.1146   21.7072  -25.8332 H   0  0  0  0  0  0  0  0  0  0  0  0
   -1.0896   25.0200  -29.1055 H   0  0  0  0  0  0  0  0  0  0  0  0
   -0.4910   23.3856  -29.5734 H   0  0  0  0  0  0  0  0  0  0  0  0
   -3.4163   25.5750  -29.2054 H   0  0  0  0  0  0  0  0  0  0  0  0
   -5.6958   25.0007  -30.0287 H   0  0  0  0  0  0  0  0  0  0  0  0
   -7.5373   24.5286  -31.3263 H   0  0  0  0  0  0  0  0  0  0  0  0
   -9.6076   22.9559  -32.0688 H   0  0  0  0  0  0  0  0  0  0  0  0
   -9.2069   19.5962  -30.8704 H   0  0  0  0  0  0  0  0  0  0  0  0
   -9.9054   20.3732  -32.3437 H   0  0  0  0  0  0  0  0  0  0  0  0
   -8.1654   17.9721  -30.9334 H   0  0  0  0  0  0  0  0  0  0  0  0
   -7.7310   17.1209  -32.4786 H   0  0  0  0  0  0  0  0  0  0  0  0
   -6.0128   19.2097  -31.0588 H   0  0  0  0  0  0  0  0  0  0  0  0
   -5.7681   17.4166  -31.0170 H   0  0  0  0  0  0  0  0  0  0  0  0
   -3.9013   19.1193  -31.5555 H   0  0  0  0  0  0  0  0  0  0  0  0
   -3.2618   18.4438  -33.0922 H   0  0  0  0  0  0  0  0  0  0  0  0
   -4.1146   20.0247  -33.0922 H   0  0  0  0  0  0  0  0  0  0  0  0
   -5.4019   19.5159  -34.6168 H   0  0  0  0  0  0  0  0  0  0  0  0
   -6.5673   18.1226  -34.5705 H   0  0  0  0  0  0  0  0  0  0  0  0
   -6.7822   20.6864  -32.9241 H   0  0  0  0  0  0  0  0  0  0  0  0
   -7.7417   20.2708  -34.4053 H   0  0  0  0  0  0  0  0  0  0  0  0
   -4.3807   20.9507  -30.8255 H   0  0  0  0  0  0  0  0  0  0  0  0
   -2.1062   21.5264  -29.9922 H   0  0  0  0  0  0  0  0  0  0  0  0
  1  2  1  0
  2  3  1  0
  3  4  1  0
  4  5  1  0
  5  6  2  0
  6  7  1  0
  7  8  2  0
  8  9  1  0
  9 10  2  0
  3 11  1  0
 11 12  1  0
 12 13  2  0
 13 14  1  0
 14 15  2  0
 15 16  1  0
 16 17  2  0
 17 18  1  0
 18 19  2  0
 19 20  1  0
 20 21  1  0
 21 22  1  0
 22 23  1  0
 23 24  1  0
 24 25  1  0
 24 26  1  0
 26 27  1  0
 19 28  1  0
 15 29  1  0
 29 30  2  0
 10  5  1  0
 30 12  1  0
 28 16  1  0
 27 21  1  0
  1 31  1  0
  1 32  1  0
  1 33  1  0
  2 34  1  0
  2 35  1  0
  4 36  1  0
  4 37  1  0
  6 38  1  0
  7 39  1  0
  8 40  1  0
  9 41  1  0
 10 42  1  0
 11 43  1  0
 11 44  1  0
 13 45  1  0
 14 46  1  0
 17 47  1  0
 18 48  1  0
 20 49  1  0
 20 50  1  0
 22 51  1  0
 22 52  1  0
 23 53  1  0
 23 54  1  0
 25 55  1  0
 25 56  1  0
 25 57  1  0
 26 58  1  0
 26 59  1  0
 27 60  1  0
 27 61  1  0
 29 62  1  0
 30 63  1  0
M  END
>  <UniqueID>  (44) 
42

>  <SMILES>  (44) 
CCN(Cc1ccccc1)Cc1ccc(-c2ccc(CN3CCN(C)CC3)o2)cc1

>  <Energy>  (44) 
104.4312611882321

>  <Genealogy>  (44) 
CCN(Cc1ccccc1)Cc1ccc(-c2ccc(CN3CCN(C)CC3)o2)cc1 (3D coordinates assigned)
CCN(Cc1ccccc1)Cc1ccc(-c2ccc(CN3CCN(C)CC3)o2)cc1 (nonaromatic ring conformer: 104.4312611882321 kcal/mol)

>  <smiles>  (44) 
CCN(Cc1ccccc1)Cc1ccc(-c2ccc(CN3CCN(C)CC3)o2)cc1

>  <score_type>  (44) 
oracle

>  <origin>  (44) 
adg

>  <m_score__min__energy>  (44) 
-9.7400000000000002

>  <m_primary>  (44) 
energy

$$$$
44:0
     RDKit          3D

 59 62  0  0  0  0  0  0  0  0999 V2000
   -8.8480   19.0070  -32.3250 C   0  0  0  0  0  0  0  0  0  0  0  0
   -7.8660   18.5140  -31.8300 C   0  0  0  0  0  0  0  0  0  0  0  0
   -6.6660   17.9240  -31.2250 C   0  0  0  0  0  0  0  0  0  0  0  0
   -5.9320   17.0790  -32.1940 N   0  0  0  0  0  0  0  0  0  0  0  0
   -6.8670   16.6360  -33.2450 C   0  0  0  0  0  0  0  0  0  0  0  0
   -4.7780   17.7920  -32.7990 C   0  0  0  0  0  0  0  0  0  0  0  0
   -5.2180   18.8100  -33.8700 C   0  0  0  0  0  0  0  0  0  0  0  0
   -4.8130   20.2910  -33.6400 C   0  0  2  0  0  0  0  0  0  0  0  0
   -3.4580   20.4410  -32.9110 C   0  0  0  0  0  0  0  0  0  0  0  0
   -3.1540   21.9200  -32.6470 C   0  0  0  0  0  0  0  0  0  0  0  0
   -4.2520   22.6160  -31.7980 C   0  0  2  0  0  0  0  0  0  0  0  0
   -3.7370   22.9550  -30.4670 N   0  0  0  0  0  0  0  0  0  0  0  0
   -4.5690   23.3180  -29.3620 C   0  0  0  0  0  0  0  0  0  0  0  0
   -3.8350   23.8820  -28.4260 C   0  0  0  0  0  0  0  0  0  0  0  0
   -4.2660   24.4390  -27.1420 C   0  0  0  0  0  0  0  0  0  0  0  0
   -3.3540   25.0330  -26.3540 C   0  0  0  0  0  0  0  0  0  0  0  0
   -1.9590   25.1480  -26.7410 N   0  0  0  0  0  0  0  0  0  0  0  0
   -1.0370   25.8240  -25.8660 C   0  0  0  0  0  0  0  0  0  0  0  0
   -1.2560   27.1650  -25.5060 C   0  0  0  0  0  0  0  0  0  0  0  0
   -0.3560   27.8260  -24.6620 C   0  0  0  0  0  0  0  0  0  0  0  0
    0.7690   27.1550  -24.1770 C   0  0  0  0  0  0  0  0  0  0  0  0
    0.9970   25.8240  -24.5340 C   0  0  0  0  0  0  0  0  0  0  0  0
    0.1000   25.1600  -25.3760 C   0  0  0  0  0  0  0  0  0  0  0  0
   -1.5190   24.5890  -28.0000 C   0  0  0  0  0  0  0  0  0  0  0  0
   -0.3100   24.6320  -28.3520 O   0  0  0  0  0  0  0  0  0  0  0  0
   -2.4880   23.9540  -28.8260 N   0  0  0  0  0  0  0  0  0  0  0  0
   -2.3680   23.3900  -30.1600 C   0  0  0  0  0  0  0  0  0  0  0  0
   -5.5530   21.7920  -31.6780 C   0  0  0  0  0  0  0  0  0  0  0  0
   -5.9460   21.1590  -33.0180 C   0  0  0  0  0  0  0  0  0  0  0  0
   -9.7443   19.4570  -32.7768 H   0  0  0  0  0  0  0  0  0  0  0  0
   -6.0038   18.7325  -30.8818 H   0  0  0  0  0  0  0  0  0  0  0  0
   -6.9791   17.2911  -30.3815 H   0  0  0  0  0  0  0  0  0  0  0  0
   -7.7673   16.2094  -32.7787 H   0  0  0  0  0  0  0  0  0  0  0  0
   -7.1501   17.4957  -33.8701 H   0  0  0  0  0  0  0  0  0  0  0  0
   -6.3810   15.8724  -33.8701 H   0  0  0  0  0  0  0  0  0  0  0  0
   -4.2356   18.3258  -32.0047 H   0  0  0  0  0  0  0  0  0  0  0  0
   -4.1376   17.0433  -33.2881 H   0  0  0  0  0  0  0  0  0  0  0  0
   -4.7836   18.4918  -34.8292 H   0  0  0  0  0  0  0  0  0  0  0  0
   -6.3175   18.8048  -33.8359 H   0  0  0  0  0  0  0  0  0  0  0  0
   -4.6570   20.7076  -34.6460 H   0  0  0  0  0  0  0  0  0  0  0  0
   -2.6606   20.0131  -33.5364 H   0  0  0  0  0  0  0  0  0  0  0  0
   -3.5098   19.9102  -31.9490 H   0  0  0  0  0  0  0  0  0  0  0  0
   -3.0735   22.4404  -33.6128 H   0  0  0  0  0  0  0  0  0  0  0  0
   -2.2137   21.9692  -32.0783 H   0  0  0  0  0  0  0  0  0  0  0  0
   -4.5173   23.5379  -32.3363 H   0  0  0  0  0  0  0  0  0  0  0  0
   -5.6548   23.1516  -29.3032 H   0  0  0  0  0  0  0  0  0  0  0  0
   -5.3181   24.3723  -26.8281 H   0  0  0  0  0  0  0  0  0  0  0  0
   -3.6740   25.4450  -25.3856 H   0  0  0  0  0  0  0  0  0  0  0  0
   -2.1389   27.6975  -25.8894 H   0  0  0  0  0  0  0  0  0  0  0  0
   -0.5347   28.8743  -24.3806 H   0  0  0  0  0  0  0  0  0  0  0  0
    1.4757   27.6750  -23.5136 H   0  0  0  0  0  0  0  0  0  0  0  0
    1.8839   25.2973  -24.1520 H   0  0  0  0  0  0  0  0  0  0  0  0
    0.2854   24.1126  -25.6562 H   0  0  0  0  0  0  0  0  0  0  0  0
   -2.0248   24.1484  -30.8791 H   0  0  0  0  0  0  0  0  0  0  0  0
   -1.6335   22.5732  -30.2177 H   0  0  0  0  0  0  0  0  0  0  0  0
   -6.3654   22.4542  -31.3441 H   0  0  0  0  0  0  0  0  0  0  0  0
   -5.3821   20.9831  -30.9524 H   0  0  0  0  0  0  0  0  0  0  0  0
   -6.1983   21.9635  -33.7244 H   0  0  0  0  0  0  0  0  0  0  0  0
   -6.8013   20.4940  -32.8279 H   0  0  0  0  0  0  0  0  0  0  0  0
  1  2  3  0
  2  3  1  0
  3  4  1  0
  4  5  1  0
  4  6  1  0
  6  7  1  0
  7  8  1  0
  8  9  1  0
  9 10  1  0
 10 11  1  0
 11 12  1  0
 12 13  1  0
 13 14  2  0
 14 15  1  0
 15 16  2  0
 16 17  1  0
 17 18  1  0
 18 19  2  0
 19 20  1  0
 20 21  2  0
 21 22  1  0
 22 23  2  0
 17 24  1  0
 24 25  2  0
 24 26  1  0
 26 27  1  0
 11 28  1  0
 28 29  1  0
 29  8  1  0
 27 12  1  0
 26 14  1  0
 23 18  1  0
  1 30  1  0
  3 31  1  0
  3 32  1  0
  5 33  1  0
  5 34  1  0
  5 35  1  0
  6 36  1  0
  6 37  1  0
  7 38  1  0
  7 39  1  0
  8 40  1  6
  9 41  1  0
  9 42  1  0
 10 43  1  0
 10 44  1  0
 11 45  1  6
 13 46  1  0
 15 47  1  0
 16 48  1  0
 19 49  1  0
 20 50  1  0
 21 51  1  0
 22 52  1  0
 23 53  1  0
 27 54  1  0
 27 55  1  0
 28 56  1  0
 28 57  1  0
 29 58  1  0
 29 59  1  0
M  END
>  <UniqueID>  (45) 
43

>  <SMILES>  (45) 
C#CCN(C)CCC1CCC(N2C=C3C=CN(c4ccccc4)C(=O)N3C2)CC1

>  <Energy>  (45) 
89.14027959152833

>  <Genealogy>  (45) 
C#CCN(C)CCC1CCC(N2C=C3C=CN(c4ccccc4)C(=O)N3C2)CC1 (3D coordinates assigned)
C#CCN(C)CCC1CCC(N2C=C3C=CN(c4ccccc4)C(=O)N3C2)CC1 (nonaromatic ring conformer: 89.14027959152833 kcal/mol)

>  <smiles>  (45) 
C#CCN(C)CCC1CCC(N2C=C3C=CN(c4ccccc4)C(=O)N3C2)CC1

>  <score_type>  (45) 
oracle

>  <origin>  (45) 
adg

>  <m_score__min__energy>  (45) 
-8.9499999999999993

>  <m_primary>  (45) 
energy

$$$$
45:0
     RDKit          3D

 78 83  0  0  0  0  0  0  0  0999 V2000
   -6.2530   22.4580  -28.5900 H   0  0  0  0  0  0  0  0  0  0  0  0
   -5.2250   22.6300  -28.6230 N   0  0  0  0  0  0  0  0  0  0  0  0
   -4.6860   23.6730  -29.1680 C   0  0  0  0  0  0  0  0  0  0  0  0
   -5.2970   24.5030  -30.0920 C   0  0  0  0  0  0  0  0  0  0  0  0
   -6.7100   24.6000  -30.5300 C   0  0  0  0  0  0  0  0  0  0  0  0
   -7.5070   25.2820  -29.8350 O   0  0  0  0  0  0  0  0  0  0  0  0
   -7.2480   23.7850  -31.5820 N   0  0  0  0  0  0  0  0  0  0  0  0
   -6.9060   22.4200  -31.8330 C   0  0  0  0  0  0  0  0  0  0  0  0
   -7.8270   21.3920  -31.6120 C   0  0  0  0  0  0  0  0  0  0  0  0
   -8.8143   21.6203  -31.1842 H   0  0  0  0  0  0  0  0  0  0  0  0
   -7.5020   20.1100  -31.9260 N   0  0  0  0  0  0  0  0  0  0  0  0
   -6.2850   19.7640  -32.4360 C   0  0  0  0  0  0  0  0  0  0  0  0
   -6.0240   18.3830  -32.8050 N   0  0  0  0  0  0  0  0  0  0  0  0
   -6.0510   17.3230  -31.7770 C   0  0  0  0  0  0  0  0  0  0  0  0
   -5.5109   17.6800  -30.8877 H   0  0  0  0  0  0  0  0  0  0  0  0
   -7.1048   17.1047  -31.5492 H   0  0  0  0  0  0  0  0  0  0  0  0
   -5.3990   16.0220  -32.2590 C   0  0  0  0  0  0  0  0  0  0  0  0
   -4.3170   16.1908  -32.3626 H   0  0  0  0  0  0  0  0  0  0  0  0
   -5.6269   15.2465  -31.5129 H   0  0  0  0  0  0  0  0  0  0  0  0
   -5.9490   15.5320  -33.6100 C   0  0  0  0  0  0  0  0  0  0  0  0
   -5.1313   15.0415  -34.1585 H   0  0  0  0  0  0  0  0  0  0  0  0
   -6.7799   14.8472  -33.3849 H   0  0  0  0  0  0  0  0  0  0  0  0
   -6.5240   16.6520  -34.4980 C   0  0  0  0  0  0  0  0  0  0  0  0
   -6.3529   16.3847  -35.5512 H   0  0  0  0  0  0  0  0  0  0  0  0
   -7.5945   16.7383  -34.2600 H   0  0  0  0  0  0  0  0  0  0  0  0
   -5.8870   18.0280  -34.2340 C   0  0  2  0  0  0  0  0  0  0  0  0
   -6.4267   18.7824  -34.8253 H   0  0  0  0  0  0  0  0  0  0  0  0
   -4.4180   18.0790  -34.7100 C   0  0  0  0  0  0  0  0  0  0  0  0
   -4.2017   19.0849  -35.0992 H   0  0  0  0  0  0  0  0  0  0  0  0
   -3.7667   17.8454  -33.8549 H   0  0  0  0  0  0  0  0  0  0  0  0
   -4.1790   17.1370  -35.7200 O   0  0  0  0  0  0  0  0  0  0  0  0
   -3.1950   17.0160  -35.7690 H   0  0  0  0  0  0  0  0  0  0  0  0
   -5.3110   20.7700  -32.5950 C   0  0  0  0  0  0  0  0  0  0  0  0
   -4.3070   20.5133  -32.9639 H   0  0  0  0  0  0  0  0  0  0  0  0
   -5.6260   22.0950  -32.2820 C   0  0  0  0  0  0  0  0  0  0  0  0
   -4.8646   22.8816  -32.3897 H   0  0  0  0  0  0  0  0  0  0  0  0
   -4.2630   25.3170  -30.5340 C   0  0  0  0  0  0  0  0  0  0  0  0
   -4.3590   26.0965  -31.3042 H   0  0  0  0  0  0  0  0  0  0  0  0
   -3.1210   25.0110  -29.8790 N   0  0  0  0  0  0  0  0  0  0  0  0
   -3.3840   24.0190  -29.0430 N   0  0  0  0  0  0  0  0  0  0  0  0
   -2.4210   23.4900  -28.1170 C   0  0  0  0  0  0  0  0  0  0  0  0
   -1.8830   24.3020  -27.1090 C   0  0  0  0  0  0  0  0  0  0  0  0
   -2.2315   25.3392  -26.9966 H   0  0  0  0  0  0  0  0  0  0  0  0
   -0.9040   23.7980  -26.2450 C   0  0  0  0  0  0  0  0  0  0  0  0
   -0.4848   24.4398  -25.4561 H   0  0  0  0  0  0  0  0  0  0  0  0
   -0.4580   22.4800  -26.3830 C   0  0  0  0  0  0  0  0  0  0  0  0
    0.3252   22.0936  -25.7141 H   0  0  0  0  0  0  0  0  0  0  0  0
   -1.0060   21.6480  -27.3720 C   0  0  0  0  0  0  0  0  0  0  0  0
   -0.5030   20.2720  -27.5850 C   0  0  0  0  0  0  0  0  0  0  0  0
   -1.1170   19.1690  -26.9620 C   0  0  0  0  0  0  0  0  0  0  0  0
   -2.2620   19.3780  -26.1750 O   0  0  0  0  0  0  0  0  0  0  0  0
   -3.5160   18.7420  -26.3870 C   0  0  0  0  0  0  0  0  0  0  0  0
   -3.9773   18.5081  -25.4162 H   0  0  0  0  0  0  0  0  0  0  0  0
   -4.1767   19.4140  -26.9544 H   0  0  0  0  0  0  0  0  0  0  0  0
   -3.3642   17.8120  -26.9544 H   0  0  0  0  0  0  0  0  0  0  0  0
   -0.5470   17.8940  -27.1170 C   0  0  0  0  0  0  0  0  0  0  0  0
   -1.0202   17.0199  -26.6458 H   0  0  0  0  0  0  0  0  0  0  0  0
    0.6250   17.7340  -27.8720 C   0  0  0  0  0  0  0  0  0  0  0  0
    1.2450   16.4380  -27.9920 N   0  0  0  0  0  0  0  0  0  0  0  0
    2.0150   15.8730  -26.8790 C   0  0  0  0  0  0  0  0  0  0  0  0
    3.0874   16.0284  -27.0680 H   0  0  0  0  0  0  0  0  0  0  0  0
    1.7103   16.3776  -25.9502 H   0  0  0  0  0  0  0  0  0  0  0  0
    1.7420   14.3570  -26.7290 C   0  0  0  0  0  0  0  0  0  0  0  0
    2.7078   13.8403  -26.6278 H   0  0  0  0  0  0  0  0  0  0  0  0
    1.1010   14.2358  -25.8433 H   0  0  0  0  0  0  0  0  0  0  0  0
    1.0420   13.7840  -27.8230 O   0  0  0  0  0  0  0  0  0  0  0  0
    1.5740   14.2420  -29.0470 C   0  0  0  0  0  0  0  0  0  0  0  0
    2.6709   14.1628  -29.0231 H   0  0  0  0  0  0  0  0  0  0  0  0
    1.1812   13.6286  -29.8712 H   0  0  0  0  0  0  0  0  0  0  0  0
    1.1720   15.7030  -29.2600 C   0  0  0  0  0  0  0  0  0  0  0  0
    1.8548   16.1654  -29.9880 H   0  0  0  0  0  0  0  0  0  0  0  0
    0.1396   15.7401  -29.6378 H   0  0  0  0  0  0  0  0  0  0  0  0
    1.1970   18.8220  -28.4600 N   0  0  0  0  0  0  0  0  0  0  0  0
    2.0900   18.7160  -28.9930 H   0  0  0  0  0  0  0  0  0  0  0  0
    0.6660   20.0660  -28.3350 C   0  0  0  0  0  0  0  0  0  0  0  0
    1.1562   20.9197  -28.8258 H   0  0  0  0  0  0  0  0  0  0  0  0
   -2.0110   22.1500  -28.2090 C   0  0  0  0  0  0  0  0  0  0  0  0
   -2.4848   21.4864  -28.9473 H   0  0  0  0  0  0  0  0  0  0  0  0
  1  2  1  0
  2  3  2  0
  3  4  1  0
  4  5  1  0
  5  6  2  0
  5  7  1  0
  7  8  1  0
  8  9  2  0
  9 10  1  0
  9 11  1  0
 11 12  2  0
 12 13  1  0
 13 14  1  0
 14 15  1  0
 14 16  1  0
 14 17  1  0
 17 18  1  0
 17 19  1  0
 17 20  1  0
 20 21  1  0
 20 22  1  0
 20 23  1  0
 23 24  1  0
 23 25  1  0
 23 26  1  0
 26 27  1  6
 26 28  1  0
 28 29  1  0
 28 30  1  0
 28 31  1  0
 31 32  1  0
 12 33  1  0
 33 34  1  0
 33 35  2  0
 35 36  1  0
  4 37  2  0
 37 38  1  0
 37 39  1  0
 39 40  1  0
 40 41  1  0
 41 42  2  0
 42 43  1  0
 42 44  1  0
 44 45  1  0
 44 46  2  0
 46 47  1  0
 46 48  1  0
 48 49  1  0
 49 50  2  0
 50 51  1  0
 51 52  1  0
 52 53  1  0
 52 54  1  0
 52 55  1  0
 50 56  1  0
 56 57  1  0
 56 58  2  0
 58 59  1  0
 59 60  1  0
 60 61  1  0
 60 62  1  0
 60 63  1  0
 63 64  1  0
 63 65  1  0
 63 66  1  0
 66 67  1  0
 67 68  1  0
 67 69  1  0
 67 70  1  0
 70 71  1  0
 70 72  1  0
 58 73  1  0
 73 74  1  0
 73 75  2  0
 75 76  1  0
 48 77  2  0
 77 78  1  0
 40  3  1  0
 77 41  1  0
 35  8  1  0
 75 49  1  0
 26 13  1  0
 70 59  1  0
M  CHG  3   7  -1  39  -1  73   1
M  END
>  <UniqueID>  (46) 
44

>  <SMILES>  (46) 
[H]/N=c1/c(C(=O)[N-]c2ccc(N3CCCC[C@@H]3CO)nc2)c[n-]n1-c1cccc(-c2c[nH+]c(N3CCOCC3)cc2OC)c1

>  <Energy>  (46) 
157.26737649201408

>  <Genealogy>  (46) 
COc1cc(N2CCOCC2)[nH+]cc1-c1cccc(-n2[n-]cc(C(=O)[N-]c3ccc(N4CCCCC4CO)nc3)c2=N)c1 (protonated)
COc1cc(N2CCOCC2)[nH+]cc1-c1cccc(-n2[n-]cc(C(=O)[N-]c3ccc(N4CCCC[C@@H]4CO)nc3)c2=N)c1 (chirality)
[H]/N=c1/c(C(=O)[N-]c2ccc(N3CCCC[C@@H]3CO)nc2)c[n-]n1-c1cccc(-c2c[nH+]c(N3CCOCC3)cc2OC)c1 (cis-trans isomerization)
[H]/N=c1/c(C(=O)[N-]c2ccc(N3CCCC[C@@H]3CO)nc2)c[n-]n1-c1cccc(-c2c[nH+]c(N3CCOCC3)cc2OC)c1 (3D coordinates assigned)
[H]/N=c1/c(C(=O)[N-]c2ccc(N3CCCC[C@@H]3CO)nc2)c[n-]n1-c1cccc(-c2c[nH+]c(N3CCOCC3)cc2OC)c1 (nonaromatic ring conformer: 157.26737649201408 kcal/mol)

>  <smiles>  (46) 
COc1cc(N2CCOCC2)ncc1-c1cccc(-n2[nH]cc(C(=O)Nc3ccc(N4CCCCC4CO)nc3)c2=N)c1

>  <score_type>  (46) 
oracle

>  <origin>  (46) 
adg

>  <m_score__min__energy>  (46) 
-10.4

>  <m_primary>  (46) 
energy

$$$$
46:0
     RDKit          3D

 55 57  0  0  0  0  0  0  0  0999 V2000
   -4.4600   23.0200  -29.6790 C   0  0  0  0  0  0  0  0  0  0  0  0
   -3.5570   22.5860  -30.8300 C   0  0  0  0  0  0  0  0  0  0  0  0
   -4.1310   21.4060  -31.5170 N   0  0  0  0  0  0  0  0  0  0  0  0
   -3.0740   20.4400  -31.8950 C   0  0  0  0  0  0  0  0  0  0  0  0
   -2.9680   20.3370  -33.4130 C   0  0  0  0  0  0  0  0  0  0  0  0
   -4.9190   21.8170  -32.7010 C   0  0  0  0  0  0  0  0  0  0  0  0
   -6.4000   21.8000  -32.3810 C   0  0  0  0  0  0  0  0  0  0  0  0
   -7.0180   23.0080  -31.9960 C   0  0  0  0  0  0  0  0  0  0  0  0
   -6.3110   24.1660  -31.9680 F   0  0  0  0  0  0  0  0  0  0  0  0
   -8.3650   23.0310  -31.6280 C   0  0  0  0  0  0  0  0  0  0  0  0
   -9.1140   21.8550  -31.6340 C   0  0  0  0  0  0  0  0  0  0  0  0
   -8.5240   20.6520  -32.0190 C   0  0  0  0  0  0  0  0  0  0  0  0
   -7.1740   20.6090  -32.4060 C   0  0  0  0  0  0  0  0  0  0  0  0
   -6.6140   19.3110  -32.8330 C   0  0  0  0  0  0  0  0  0  0  0  0
   -6.6070   18.2210  -31.9500 C   0  0  0  0  0  0  0  0  0  0  0  0
   -6.0900   16.9880  -32.3570 C   0  0  0  0  0  0  0  0  0  0  0  0
   -5.5920   16.8220  -33.6590 C   0  0  0  0  0  0  0  0  0  0  0  0
   -5.0330   15.4850  -34.1000 C   0  0  0  0  0  0  0  0  0  0  0  0
   -5.0070   14.4580  -33.0360 N   0  0  0  0  0  0  0  0  0  0  0  0
   -3.6940   14.3170  -32.3840 C   0  0  0  0  0  0  0  0  0  0  0  0
   -3.7890   13.3050  -31.2220 C   0  0  0  0  0  0  0  0  0  0  0  0
   -5.0970   12.7770  -31.0860 O   0  0  0  0  0  0  0  0  0  0  0  0
   -5.4890   12.1490  -32.2930 C   0  0  0  0  0  0  0  0  0  0  0  0
   -5.5180   13.1460  -33.4700 C   0  0  0  0  0  0  0  0  0  0  0  0
   -5.6030   17.9140  -34.5430 C   0  0  0  0  0  0  0  0  0  0  0  0
   -6.1190   19.1470  -34.1350 C   0  0  0  0  0  0  0  0  0  0  0  0
   -3.9719   22.7854  -28.7215 H   0  0  0  0  0  0  0  0  0  0  0  0
   -4.6404   24.1032  -29.7429 H   0  0  0  0  0  0  0  0  0  0  0  0
   -5.4186   22.4842  -29.7429 H   0  0  0  0  0  0  0  0  0  0  0  0
   -3.4619   23.4135  -31.5485 H   0  0  0  0  0  0  0  0  0  0  0  0
   -2.5681   22.3202  -30.4283 H   0  0  0  0  0  0  0  0  0  0  0  0
   -2.1104   20.7783  -31.4863 H   0  0  0  0  0  0  0  0  0  0  0  0
   -3.3308   19.4514  -31.4868 H   0  0  0  0  0  0  0  0  0  0  0  0
   -2.2022   19.5929  -33.6774 H   0  0  0  0  0  0  0  0  0  0  0  0
   -3.9386   20.0278  -33.8282 H   0  0  0  0  0  0  0  0  0  0  0  0
   -2.6868   21.3160  -33.8282 H   0  0  0  0  0  0  0  0  0  0  0  0
   -4.6238   22.8343  -32.9976 H   0  0  0  0  0  0  0  0  0  0  0  0
   -4.7231   21.1122  -33.5225 H   0  0  0  0  0  0  0  0  0  0  0  0
   -8.8365   23.9799  -31.3325 H   0  0  0  0  0  0  0  0  0  0  0  0
  -10.1722   21.8765  -31.3345 H   0  0  0  0  0  0  0  0  0  0  0  0
   -9.1208   19.7280  -32.0198 H   0  0  0  0  0  0  0  0  0  0  0  0
   -7.0101   18.3372  -30.9331 H   0  0  0  0  0  0  0  0  0  0  0  0
   -6.0732   16.1428  -31.6532 H   0  0  0  0  0  0  0  0  0  0  0  0
   -5.6518   15.1085  -34.9278 H   0  0  0  0  0  0  0  0  0  0  0  0
   -3.9880   15.6611  -34.3949 H   0  0  0  0  0  0  0  0  0  0  0  0
   -2.9583   13.9595  -33.1195 H   0  0  0  0  0  0  0  0  0  0  0  0
   -3.3801   15.2940  -31.9879 H   0  0  0  0  0  0  0  0  0  0  0  0
   -3.0897   12.4776  -31.4130 H   0  0  0  0  0  0  0  0  0  0  0  0
   -3.5356   13.8316  -30.2901 H   0  0  0  0  0  0  0  0  0  0  0  0
   -4.7756   11.3444  -32.5245 H   0  0  0  0  0  0  0  0  0  0  0  0
   -6.5042   11.7478  -32.1575 H   0  0  0  0  0  0  0  0  0  0  0  0
   -4.8888   12.7627  -34.2868 H   0  0  0  0  0  0  0  0  0  0  0  0
   -6.5550   13.2612  -33.8183 H   0  0  0  0  0  0  0  0  0  0  0  0
   -5.2035   17.7979  -35.5613 H   0  0  0  0  0  0  0  0  0  0  0  0
   -6.1370   19.9927  -34.8382 H   0  0  0  0  0  0  0  0  0  0  0  0
  1  2  1  0
  2  3  1  0
  3  4  1  0
  4  5  1  0
  3  6  1  0
  6  7  1  0
  7  8  2  0
  8  9  1  0
  8 10  1  0
 10 11  2  0
 11 12  1  0
 12 13  2  0
 13 14  1  0
 14 15  2  0
 15 16  1  0
 16 17  2  0
 17 18  1  0
 18 19  1  0
 19 20  1  0
 20 21  1  0
 21 22  1  0
 22 23  1  0
 23 24  1  0
 17 25  1  0
 25 26  2  0
 13  7  1  0
 26 14  1  0
 24 19  1  0
  1 27  1  0
  1 28  1  0
  1 29  1  0
  2 30  1  0
  2 31  1  0
  4 32  1  0
  4 33  1  0
  5 34  1  0
  5 35  1  0
  5 36  1  0
  6 37  1  0
  6 38  1  0
 10 39  1  0
 11 40  1  0
 12 41  1  0
 15 42  1  0
 16 43  1  0
 18 44  1  0
 18 45  1  0
 20 46  1  0
 20 47  1  0
 21 48  1  0
 21 49  1  0
 23 50  1  0
 23 51  1  0
 24 52  1  0
 24 53  1  0
 25 54  1  0
 26 55  1  0
M  END
>  <UniqueID>  (47) 
45

>  <SMILES>  (47) 
CCN(CC)Cc1c(F)cccc1-c1ccc(CN2CCOCC2)cc1

>  <Energy>  (47) 
73.86077114773877

>  <Genealogy>  (47) 
CCN(CC)Cc1c(F)cccc1-c1ccc(CN2CCOCC2)cc1 (3D coordinates assigned)
CCN(CC)Cc1c(F)cccc1-c1ccc(CN2CCOCC2)cc1 (nonaromatic ring conformer: 73.86077114773877 kcal/mol)

>  <smiles>  (47) 
CCN(CC)Cc1c(F)cccc1-c1ccc(CN2CCOCC2)cc1

>  <score_type>  (47) 
oracle

>  <origin>  (47) 
adg

>  <m_score__min__energy>  (47) 
-8.2200000000000006

>  <m_primary>  (47) 
energy

$$$$
47:0
     RDKit          3D

 52 55  0  0  0  0  0  0  0  0999 V2000
    1.1590   18.6250  -30.7250 C   0  0  0  0  0  0  0  0  0  0  0  0
    0.7310   18.8370  -32.0680 O   0  0  0  0  0  0  0  0  0  0  0  0
   -0.5670   18.5750  -32.5390 C   0  0  0  0  0  0  0  0  0  0  0  0
   -1.3700   19.6580  -32.9180 C   0  0  0  0  0  0  0  0  0  0  0  0
   -2.6710   19.4500  -33.3830 C   0  0  0  0  0  0  0  0  0  0  0  0
   -3.1880   18.1480  -33.4940 C   0  0  0  0  0  0  0  0  0  0  0  0
   -4.6140   17.9170  -33.9450 C   0  0  1  0  0  0  0  0  0  0  0  0
   -5.4700   17.3990  -32.7510 C   0  0  0  0  0  0  0  0  0  0  0  0
   -6.1390   18.5550  -31.9750 C   0  0  2  0  0  0  0  0  0  0  0  0
   -7.5500   18.2230  -31.4750 C   0  0  0  0  0  0  0  0  0  0  0  0
   -8.1400   19.2710  -32.4140 C   0  0  0  0  0  0  0  0  0  0  0  0
   -6.7240   19.6510  -32.8860 C   0  0  1  0  0  0  0  0  0  0  0  0
   -6.2860   21.0680  -32.4540 C   0  0  0  0  0  0  0  0  0  0  0  0
   -7.2500   22.0820  -32.2720 C   0  0  0  0  0  0  0  0  0  0  0  0
   -6.8860   23.3640  -31.8640 C   0  0  0  0  0  0  0  0  0  0  0  0
   -5.5410   23.6740  -31.6050 C   0  0  0  0  0  0  0  0  0  0  0  0
   -5.1390   24.9540  -31.1920 O   0  0  0  0  0  0  0  0  0  0  0  0
   -5.7120   25.6690  -30.1020 C   0  0  0  0  0  0  0  0  0  0  0  0
   -4.5650   22.6810  -31.7560 C   0  0  0  0  0  0  0  0  0  0  0  0
   -3.2290   23.0180  -31.4770 O   0  0  0  0  0  0  0  0  0  0  0  0
   -2.3320   22.2120  -30.7210 C   0  0  0  0  0  0  0  0  0  0  0  0
   -4.9380   21.3880  -32.1750 C   0  0  0  0  0  0  0  0  0  0  0  0
   -6.4800   19.2980  -34.3770 C   0  0  0  0  0  0  0  0  0  0  0  0
   -5.0960   19.0990  -34.5850 O   0  0  0  0  0  0  0  0  0  0  0  0
   -2.3850   17.0610  -33.1060 C   0  0  0  0  0  0  0  0  0  0  0  0
   -1.0850   17.2690  -32.6370 C   0  0  0  0  0  0  0  0  0  0  0  0
    0.3935   19.0042  -30.0320 H   0  0  0  0  0  0  0  0  0  0  0  0
    1.3083   17.5488  -30.5533 H   0  0  0  0  0  0  0  0  0  0  0  0
    2.1056   19.1584  -30.5533 H   0  0  0  0  0  0  0  0  0  0  0  0
   -0.9729   20.6815  -32.8490 H   0  0  0  0  0  0  0  0  0  0  0  0
   -3.2948   20.3113  -33.6641 H   0  0  0  0  0  0  0  0  0  0  0  0
   -4.6818   17.1215  -34.7017 H   0  0  0  0  0  0  0  0  0  0  0  0
   -6.2534   16.7313  -33.1388 H   0  0  0  0  0  0  0  0  0  0  0  0
   -4.8011   16.8669  -32.0586 H   0  0  0  0  0  0  0  0  0  0  0  0
   -5.3345   18.7902  -31.2626 H   0  0  0  0  0  0  0  0  0  0  0  0
   -7.8719   17.1941  -31.6937 H   0  0  0  0  0  0  0  0  0  0  0  0
   -7.7773   18.2532  -30.3992 H   0  0  0  0  0  0  0  0  0  0  0  0
   -8.7799   18.8543  -33.2057 H   0  0  0  0  0  0  0  0  0  0  0  0
   -8.8222   20.0423  -32.0271 H   0  0  0  0  0  0  0  0  0  0  0  0
   -8.3107   21.8561  -32.4559 H   0  0  0  0  0  0  0  0  0  0  0  0
   -7.6578   24.1386  -31.7440 H   0  0  0  0  0  0  0  0  0  0  0  0
   -5.3631   25.2336  -29.1540 H   0  0  0  0  0  0  0  0  0  0  0  0
   -5.4069   26.7245  -30.1550 H   0  0  0  0  0  0  0  0  0  0  0  0
   -6.8086   25.6012  -30.1550 H   0  0  0  0  0  0  0  0  0  0  0  0
   -2.5107   22.3725  -29.6475 H   0  0  0  0  0  0  0  0  0  0  0  0
   -2.4963   21.1522  -30.9656 H   0  0  0  0  0  0  0  0  0  0  0  0
   -1.2958   22.4883  -30.9656 H   0  0  0  0  0  0  0  0  0  0  0  0
   -4.1652   20.6132  -32.2870 H   0  0  0  0  0  0  0  0  0  0  0  0
   -7.0268   18.3782  -34.6320 H   0  0  0  0  0  0  0  0  0  0  0  0
   -6.8362   20.1200  -35.0154 H   0  0  0  0  0  0  0  0  0  0  0  0
   -2.7835   16.0379  -33.1722 H   0  0  0  0  0  0  0  0  0  0  0  0
   -0.4642   16.4097  -32.3434 H   0  0  0  0  0  0  0  0  0  0  0  0
  1  2  1  0
  2  3  1  0
  3  4  2  0
  4  5  1  0
  5  6  2  0
  6  7  1  0
  7  8  1  0
  8  9  1  0
  9 10  1  0
 10 11  1  0
 11 12  1  0
 12 13  1  1
 13 14  2  0
 14 15  1  0
 15 16  2  0
 16 17  1  0
 17 18  1  0
 16 19  1  0
 19 20  1  0
 20 21  1  0
 19 22  2  0
 12 23  1  0
 23 24  1  0
  6 25  1  0
 25 26  2  0
 26  3  1  0
 24  7  1  0
 12  9  1  0
 22 13  1  0
  1 27  1  0
  1 28  1  0
  1 29  1  0
  4 30  1  0
  5 31  1  0
  7 32  1  6
  8 33  1  0
  8 34  1  0
  9 35  1  1
 10 36  1  0
 10 37  1  0
 11 38  1  0
 11 39  1  0
 14 40  1  0
 15 41  1  0
 18 42  1  0
 18 43  1  0
 18 44  1  0
 21 45  1  0
 21 46  1  0
 21 47  1  0
 22 48  1  0
 23 49  1  0
 23 50  1  0
 25 51  1  0
 26 52  1  0
M  END
>  <UniqueID>  (48) 
46

>  <SMILES>  (48) 
COc1ccc([C@H]2C[C@@H]3CCC3(c3ccc(OC)c(OC)c3)CO2)cc1

>  <Energy>  (48) 
130.20214281024738

>  <Genealogy>  (48) 
COc1ccc([C@H]2C[C@@H]3CCC3(c3ccc(OC)c(OC)c3)CO2)cc1 (chirality)
COc1ccc([C@H]2C[C@@H]3CCC3(c3ccc(OC)c(OC)c3)CO2)cc1 (3D coordinates assigned)
COc1ccc([C@H]2C[C@@H]3CCC3(c3ccc(OC)c(OC)c3)CO2)cc1 (nonaromatic ring conformer: 130.20214281024738 kcal/mol)

>  <smiles>  (48) 
COc1ccc(C2CC3CCC3(c3ccc(OC)c(OC)c3)CO2)cc1

>  <score_type>  (48) 
oracle

>  <origin>  (48) 
adg

>  <m_score__min__energy>  (48) 
-7.9400000000000004

>  <m_primary>  (48) 
energy

$$$$
