0:0
     RDKit          3D

 35 36  0  0  0  0  0  0  0  0999 V2000
   -4.2140   24.1440  -28.2830 C   0  0  0  0  0  0  0  0  0  0  0  0
   -4.1360   24.1400  -29.8100 C   0  0  0  0  0  0  0  0  0  0  0  0
   -5.1520   25.0920  -30.4680 C   0  0  0  0  0  0  0  0  0  0  0  0
   -6.6100   24.9030  -30.0130 C   0  0  0  0  0  0  0  0  0  0  0  0
   -7.1350   23.4770  -30.2690 C   0  0  0  0  0  0  0  0  0  0  0  0
   -7.4660   23.1980  -31.6850 N   0  0  0  0  0  0  0  0  0  0  0  0
   -8.9080   23.0690  -31.9780 C   0  0  0  0  0  0  0  0  0  0  0  0
   -9.3840   21.7130  -31.7280 N   0  0  0  0  0  0  0  0  0  0  0  0
   -8.5360   20.5830  -31.9560 C   0  0  0  0  0  0  0  0  0  0  0  0
   -9.0470   19.2800  -31.8620 C   0  0  0  0  0  0  0  0  0  0  0  0
   -8.2090   18.1820  -32.0670 C   0  0  0  0  0  0  0  0  0  0  0  0
   -6.8580   18.3780  -32.3660 C   0  0  0  0  0  0  0  0  0  0  0  0
   -6.3420   19.6740  -32.4530 C   0  0  0  0  0  0  0  0  0  0  0  0
   -7.1750   20.7830  -32.2330 C   0  0  0  0  0  0  0  0  0  0  0  0
   -6.6210   22.1820  -32.3490 C   0  0  0  0  0  0  0  0  0  0  0  0
   -3.1983   24.0919  -27.8638 H   0  0  0  0  0  0  0  0  0  0  0  0
   -4.7039   25.0684  -27.9433 H   0  0  0  0  0  0  0  0  0  0  0  0
   -4.7959   23.2745  -27.9433 H   0  0  0  0  0  0  0  0  0  0  0  0
   -3.1232   24.4470  -30.1098 H   0  0  0  0  0  0  0  0  0  0  0  0
   -4.3739   23.1207  -30.1485 H   0  0  0  0  0  0  0  0  0  0  0  0
   -4.8529   26.1245  -30.2346 H   0  0  0  0  0  0  0  0  0  0  0  0
   -5.1340   24.8646  -31.5441 H   0  0  0  0  0  0  0  0  0  0  0  0
   -6.6717   25.1120  -28.9348 H   0  0  0  0  0  0  0  0  0  0  0  0
   -7.2323   25.5954  -30.5989 H   0  0  0  0  0  0  0  0  0  0  0  0
   -6.3631   22.7622  -29.9477 H   0  0  0  0  0  0  0  0  0  0  0  0
   -8.0709   23.3774  -29.6997 H   0  0  0  0  0  0  0  0  0  0  0  0
   -9.4669   23.7679  -31.3383 H   0  0  0  0  0  0  0  0  0  0  0  0
   -9.0666   23.3004  -33.0416 H   0  0  0  0  0  0  0  0  0  0  0  0
  -10.3820   21.5710  -31.4530 H   0  0  0  0  0  0  0  0  0  0  0  0
  -10.1099   19.1229  -31.6263 H   0  0  0  0  0  0  0  0  0  0  0  0
   -8.6128   17.1615  -31.9930 H   0  0  0  0  0  0  0  0  0  0  0  0
   -6.2005   17.5120  -32.5329 H   0  0  0  0  0  0  0  0  0  0  0  0
   -5.2797   19.8259  -32.6946 H   0  0  0  0  0  0  0  0  0  0  0  0
   -5.6222   22.2022  -31.8885 H   0  0  0  0  0  0  0  0  0  0  0  0
   -6.5864   22.4332  -33.4194 H   0  0  0  0  0  0  0  0  0  0  0  0
  1  2  1  0
  2  3  1  0
  3  4  1  0
  4  5  1  0
  5  6  1  0
  6  7  1  0
  7  8  1  0
  8  9  1  0
  9 10  2  0
 10 11  1  0
 11 12  2  0
 12 13  1  0
 13 14  2  0
 14 15  1  0
 15  6  1  0
 14  9  1  0
  1 16  1  0
  1 17  1  0
  1 18  1  0
  2 19  1  0
  2 20  1  0
  3 21  1  0
  3 22  1  0
  4 23  1  0
  4 24  1  0
  5 25  1  0
  5 26  1  0
  7 27  1  0
  7 28  1  0
  8 29  1  0
 10 30  1  0
 11 31  1  0
 12 32  1  0
 13 33  1  0
 15 34  1  0
 15 35  1  0
M  END
>  <UniqueID>  (1) 
1

>  <SMILES>  (1) 
CCCCCN1CNc2ccccc2C1

>  <Energy>  (1) 
36.45935561911636

>  <Genealogy>  (1) 
CCCCCN1CNc2ccccc2C1 (3D coordinates assigned)
CCCCCN1CNc2ccccc2C1 (nonaromatic ring conformer: 36.45935561911636 kcal/mol)

>  <smiles>  (1) 
CCCCCN1CNc2ccccc2C1

>  <score_type>  (1) 
oracle

>  <origin>  (1) 
adg

>  <m_score__min__energy>  (1) 
-6.3300000000000001

>  <m_primary>  (1) 
energy

$$$$
1:0
     RDKit          3D

 24 26  0  0  0  0  0  0  0  0999 V2000
   -2.2440   24.5590  -28.9760 C   0  0  0  0  0  0  0  0  0  0  0  0
   -3.1340   24.9190  -30.0270 O   0  0  0  0  0  0  0  0  0  0  0  0
   -4.2260   24.1410  -30.4430 C   0  0  0  0  0  0  0  0  0  0  0  0
   -5.5150   24.5950  -30.1410 C   0  0  0  0  0  0  0  0  0  0  0  0
   -6.6420   23.8630  -30.5280 C   0  0  0  0  0  0  0  0  0  0  0  0
   -6.4920   22.6560  -31.2310 C   0  0  0  0  0  0  0  0  0  0  0  0
   -5.1850   22.1910  -31.5420 C   0  0  0  0  0  0  0  0  0  0  0  0
   -4.0660   22.9340  -31.1470 C   0  0  0  0  0  0  0  0  0  0  0  0
   -5.0100   21.0190  -32.2250 N   0  0  0  0  0  0  0  0  0  0  0  0
   -6.0620   20.2560  -32.6320 C   0  0  0  0  0  0  0  0  0  0  0  0
   -7.3480   20.6900  -32.3420 C   0  0  0  0  0  0  0  0  0  0  0  0
   -8.8120   19.9590  -32.7180 S   0  0  0  0  0  0  0  0  0  0  0  0
   -9.7070   21.1880  -31.9800 C   0  0  0  0  0  0  0  0  0  0  0  0
   -8.9010   22.1420  -31.4530 N   0  0  0  0  0  0  0  0  0  0  0  0
   -7.5800   21.8680  -31.6530 C   0  0  0  0  0  0  0  0  0  0  0  0
   -2.7246   24.7534  -28.0058 H   0  0  0  0  0  0  0  0  0  0  0  0
   -1.9966   23.4901  -29.0550 H   0  0  0  0  0  0  0  0  0  0  0  0
   -1.3230   25.1553  -29.0550 H   0  0  0  0  0  0  0  0  0  0  0  0
   -5.6433   25.5397  -29.5922 H   0  0  0  0  0  0  0  0  0  0  0  0
   -7.6481   24.2331  -30.2814 H   0  0  0  0  0  0  0  0  0  0  0  0
   -3.0559   22.5717  -31.3887 H   0  0  0  0  0  0  0  0  0  0  0  0
   -5.8961   19.3160  -33.1788 H   0  0  0  0  0  0  0  0  0  0  0  0
  -10.8058   21.2109  -31.9332 H   0  0  0  0  0  0  0  0  0  0  0  0
   -9.2780   22.9780  -30.9570 H   0  0  0  0  0  0  0  0  0  0  0  0
  1  2  1  0
  2  3  1  0
  3  4  2  0
  4  5  1  0
  5  6  2  0
  6  7  1  0
  7  8  2  0
  7  9  1  0
  9 10  2  0
 10 11  1  0
 11 12  1  0
 12 13  1  0
 13 14  2  0
 14 15  1  0
  8  3  1  0
 15 11  2  0
 15  6  1  0
  1 16  1  0
  1 17  1  0
  1 18  1  0
  4 19  1  0
  5 20  1  0
  8 21  1  0
 10 22  1  0
 13 23  1  0
 14 24  1  0
M  CHG  1  14   1
M  END
>  <UniqueID>  (2) 
2

>  <SMILES>  (2) 
COc1ccc2c(c1)ncc1sc[nH+]c12

>  <Energy>  (2) 
65.40815501870651

>  <Genealogy>  (2) 
COc1ccc2c(c1)ncc1sc[nH+]c12 (protonated)
COc1ccc2c(c1)ncc1sc[nH+]c12 (3D coordinates assigned)
COc1ccc2c(c1)ncc1sc[nH+]c12 (optimized conformer: 65.40815501870651 kcal/mol)

>  <smiles>  (2) 
COc1ccc2c(c1)ncc1scnc12

>  <score_type>  (2) 
oracle

>  <origin>  (2) 
adg

>  <m_score__min__energy>  (2) 
-5.96

>  <m_primary>  (2) 
energy

$$$$
2:0
     RDKit          3D

 37 39  0  0  0  0  0  0  0  0999 V2000
   -9.8010   21.1900  -31.9650 C   0  0  0  0  0  0  0  0  0  0  0  0
   -8.4110   20.6070  -32.0580 C   0  0  0  0  0  0  0  0  0  0  0  0
   -8.2710   19.2150  -31.9370 C   0  0  0  0  0  0  0  0  0  0  0  0
   -7.0280   18.6100  -32.0780 C   0  0  0  0  0  0  0  0  0  0  0  0
   -5.9070   19.3780  -32.3750 C   0  0  0  0  0  0  0  0  0  0  0  0
   -6.0080   20.7720  -32.5120 C   0  0  0  0  0  0  0  0  0  0  0  0
   -4.7600   21.5320  -32.8820 C   0  0  0  0  0  0  0  0  0  0  0  0
   -7.2580   21.4150  -32.2760 C   0  0  0  0  0  0  0  0  0  0  0  0
   -7.3750   22.9360  -32.3210 C   0  0  0  0  0  0  0  0  0  0  0  0
   -7.1640   23.5440  -31.0040 N   0  0  0  0  0  0  0  0  0  0  0  0
   -5.8760   23.8590  -30.4400 C   0  0  0  0  0  0  0  0  0  0  0  0
   -5.3940   23.1160  -29.3570 C   0  0  0  0  0  0  0  0  0  0  0  0
   -4.1840   23.4060  -28.8130 N   0  0  0  0  0  0  0  0  0  0  0  0
   -3.4160   24.4150  -29.3050 C   0  0  0  0  0  0  0  0  0  0  0  0
   -2.1430   24.7080  -28.7200 N   0  0  0  0  0  0  0  0  0  0  0  0
   -1.9100   25.2030  -27.4910 C   0  0  0  0  0  0  0  0  0  0  0  0
   -0.5420   25.3180  -27.3730 C   0  0  0  0  0  0  0  0  0  0  0  0
    0.0130   24.8910  -28.5260 N   0  0  0  0  0  0  0  0  0  0  0  0
   -0.9810   24.5280  -29.3250 N   0  0  0  0  0  0  0  0  0  0  0  0
   -3.8620   25.1450  -30.3620 N   0  0  0  0  0  0  0  0  0  0  0  0
   -5.0650   24.8900  -30.9360 C   0  0  0  0  0  0  0  0  0  0  0  0
  -10.0796   21.3068  -30.9073 H   0  0  0  0  0  0  0  0  0  0  0  0
   -9.8206   22.1721  -32.4600 H   0  0  0  0  0  0  0  0  0  0  0  0
  -10.5153   20.5157  -32.4600 H   0  0  0  0  0  0  0  0  0  0  0  0
   -9.1560   18.5960  -31.7281 H   0  0  0  0  0  0  0  0  0  0  0  0
   -6.9304   17.5213  -31.9545 H   0  0  0  0  0  0  0  0  0  0  0  0
   -4.9306   18.8881  -32.5040 H   0  0  0  0  0  0  0  0  0  0  0  0
   -4.2390   21.8493  -31.9666 H   0  0  0  0  0  0  0  0  0  0  0  0
   -4.0980   20.8836  -33.4747 H   0  0  0  0  0  0  0  0  0  0  0  0
   -5.0323   22.4178  -33.4747 H   0  0  0  0  0  0  0  0  0  0  0  0
   -6.6207   23.3294  -33.0183 H   0  0  0  0  0  0  0  0  0  0  0  0
   -8.3935   23.1880  -32.6514 H   0  0  0  0  0  0  0  0  0  0  0  0
   -8.0160   23.7700  -30.4420 H   0  0  0  0  0  0  0  0  0  0  0  0
   -5.9974   22.2939  -28.9446 H   0  0  0  0  0  0  0  0  0  0  0  0
   -2.6618   25.4639  -26.7316 H   0  0  0  0  0  0  0  0  0  0  0  0
    0.0020   25.6922  -26.4932 H   0  0  0  0  0  0  0  0  0  0  0  0
   -5.4044   25.4927  -31.7913 H   0  0  0  0  0  0  0  0  0  0  0  0
  1  2  1  0
  2  3  2  0
  3  4  1  0
  4  5  2  0
  5  6  1  0
  6  7  1  0
  6  8  2  0
  8  9  1  0
  9 10  1  0
 10 11  1  0
 11 12  2  0
 12 13  1  0
 13 14  2  0
 14 15  1  0
 15 16  1  0
 16 17  2  0
 17 18  1  0
 18 19  2  0
 14 20  1  0
 20 21  2  0
  8  2  1  0
 21 11  1  0
 19 15  1  0
  1 22  1  0
  1 23  1  0
  1 24  1  0
  3 25  1  0
  4 26  1  0
  5 27  1  0
  7 28  1  0
  7 29  1  0
  7 30  1  0
  9 31  1  0
  9 32  1  0
 10 33  1  0
 12 34  1  0
 16 35  1  0
 17 36  1  0
 21 37  1  0
M  END
>  <UniqueID>  (3) 
3

>  <SMILES>  (3) 
Cc1cccc(C)c1CNc1cnc(-n2ccnn2)nc1

>  <Energy>  (3) 
78.65920842981689

>  <Genealogy>  (3) 
Cc1cccc(C)c1CNc1cnc(-n2ccnn2)nc1 (3D coordinates assigned)
Cc1cccc(C)c1CNc1cnc(-n2ccnn2)nc1 (optimized conformer: 78.65920842981689 kcal/mol)

>  <smiles>  (3) 
Cc1cccc(C)c1CNc1cnc(-n2ccnn2)nc1

>  <score_type>  (3) 
oracle

>  <origin>  (3) 
adg

>  <m_score__min__energy>  (3) 
-8.1300000000000008

>  <m_primary>  (3) 
energy

$$$$
3:0
     RDKit          3D

 26 28  0  0  0  0  0  0  0  0999 V2000
   -5.3670   26.2420  -30.4640 N   0  0  0  0  0  0  0  0  0  0  0  0
   -5.7010   25.1980  -30.8360 C   0  0  0  0  0  0  0  0  0  0  0  0
   -6.1170   23.9000  -31.2980 C   0  0  0  0  0  0  0  0  0  0  0  0
   -5.1590   22.9900  -31.8070 C   0  0  0  0  0  0  0  0  0  0  0  0
   -5.5540   21.7170  -32.2580 C   0  0  0  0  0  0  0  0  0  0  0  0
   -6.9130   21.3990  -32.1990 C   0  0  0  0  0  0  0  0  0  0  0  0
   -7.8330   22.2680  -31.6870 C   0  0  0  0  0  0  0  0  0  0  0  0
   -7.4770   23.5350  -31.2300 C   0  0  0  0  0  0  0  0  0  0  0  0
   -9.0580   21.7090  -31.6750 N   0  0  0  0  0  0  0  0  0  0  0  0
   -8.8370   20.4750  -32.1960 C   0  0  0  0  0  0  0  0  0  0  0  0
   -7.5410   20.2570  -32.5310 N   0  0  0  0  0  0  0  0  0  0  0  0
   -6.9970   19.0600  -33.1140 C   0  0  0  0  0  0  0  0  0  0  0  0
   -7.3050   17.7970  -32.5780 C   0  0  0  0  0  0  0  0  0  0  0  0
   -6.7590   16.6390  -33.1400 C   0  0  0  0  0  0  0  0  0  0  0  0
   -5.8950   16.7330  -34.2350 C   0  0  0  0  0  0  0  0  0  0  0  0
   -5.5720   17.9850  -34.7650 C   0  0  0  0  0  0  0  0  0  0  0  0
   -6.1150   19.1450  -34.2040 C   0  0  0  0  0  0  0  0  0  0  0  0
   -4.0988   23.2802  -31.8501 H   0  0  0  0  0  0  0  0  0  0  0  0
   -4.8177   20.9967  -32.6439 H   0  0  0  0  0  0  0  0  0  0  0  0
   -8.2319   24.2275  -30.8294 H   0  0  0  0  0  0  0  0  0  0  0  0
   -9.6308   19.7259  -32.3329 H   0  0  0  0  0  0  0  0  0  0  0  0
   -7.9790   17.7196  -31.7121 H   0  0  0  0  0  0  0  0  0  0  0  0
   -7.0094   15.6535  -32.7203 H   0  0  0  0  0  0  0  0  0  0  0  0
   -5.4693   15.8213  -34.6795 H   0  0  0  0  0  0  0  0  0  0  0  0
   -4.8897   18.0581  -35.6247 H   0  0  0  0  0  0  0  0  0  0  0  0
   -5.8502   20.1290  -34.6183 H   0  0  0  0  0  0  0  0  0  0  0  0
  1  2  3  0
  2  3  1  0
  3  4  2  0
  4  5  1  0
  5  6  2  0
  6  7  1  0
  7  8  2  0
  7  9  1  0
  9 10  2  0
 10 11  1  0
 11 12  1  0
 12 13  2  0
 13 14  1  0
 14 15  2  0
 15 16  1  0
 16 17  2  0
  8  3  1  0
 17 12  1  0
 11  6  1  0
  4 18  1  0
  5 19  1  0
  8 20  1  0
 10 21  1  0
 13 22  1  0
 14 23  1  0
 15 24  1  0
 16 25  1  0
 17 26  1  0
M  END
>  <UniqueID>  (4) 
4

>  <SMILES>  (4) 
N#Cc1ccc2c(c1)ncn2-c1ccccc1

>  <Energy>  (4) 
70.85659934606645

>  <Genealogy>  (4) 
N#Cc1ccc2c(c1)ncn2-c1ccccc1 (3D coordinates assigned)
N#Cc1ccc2c(c1)ncn2-c1ccccc1 (optimized conformer: 70.85659934606645 kcal/mol)

>  <smiles>  (4) 
N#Cc1ccc2c(c1)ncn2-c1ccccc1

>  <score_type>  (4) 
oracle

>  <origin>  (4) 
adg

>  <m_score__min__energy>  (4) 
-7.1699999999999999

>  <m_primary>  (4) 
energy

$$$$
4:0
     RDKit          3D

 50 52  0  0  0  0  0  0  0  0999 V2000
   -5.3740   16.9550  -33.9090 C   0  0  0  0  0  0  0  0  0  0  0  0
   -6.3840   17.7530  -33.1570 C   0  0  0  0  0  0  0  0  0  0  0  0
   -6.8440   17.4230  -31.9340 N   0  0  0  0  0  0  0  0  0  0  0  0
   -7.7390   18.3270  -31.6550 O   0  0  0  0  0  0  0  0  0  0  0  0
   -7.8440   19.1730  -32.6520 C   0  0  0  0  0  0  0  0  0  0  0  0
   -8.7710   20.3580  -32.6720 C   0  0  0  0  0  0  0  0  0  0  0  0
   -8.4770   21.3410  -31.6060 N   0  0  0  0  0  0  0  0  0  0  0  0
   -7.1340   21.1530  -31.0070 C   0  0  0  0  0  0  0  0  0  0  0  0
   -6.7350   22.3620  -30.1570 C   0  0  0  0  0  0  0  0  0  0  0  0
   -6.6180   23.6470  -31.0360 C   0  0  0  0  0  0  0  0  0  0  0  0
   -7.5820   23.5950  -32.2560 C   0  0  0  0  0  0  0  0  0  0  0  0
   -8.8230   22.7410  -31.9640 C   0  0  0  0  0  0  0  0  0  0  0  0
   -6.7720   24.9380  -30.2170 C   0  0  0  0  0  0  0  0  0  0  0  0
   -5.4350   25.3430  -30.8180 C   0  0  0  0  0  0  0  0  0  0  0  0
   -5.2780   24.0610  -31.5190 N   0  0  0  0  0  0  0  0  0  0  0  0
   -4.0720   23.2530  -31.1990 C   0  0  0  0  0  0  0  0  0  0  0  0
   -3.5270   22.2700  -32.2840 C   0  0  0  0  0  0  0  0  0  0  0  0
   -3.0790   20.8820  -31.7590 C   0  0  0  0  0  0  0  0  0  0  0  0
   -3.8960   19.7260  -32.3510 C   0  0  0  0  0  0  0  0  0  0  0  0
   -3.0600   20.8140  -30.2240 C   0  0  0  0  0  0  0  0  0  0  0  0
   -7.0000   18.8440  -33.6460 N   0  0  0  0  0  0  0  0  0  0  0  0
   -4.7151   16.4344  -33.1985 H   0  0  0  0  0  0  0  0  0  0  0  0
   -5.8876   16.2162  -34.5417 H   0  0  0  0  0  0  0  0  0  0  0  0
   -4.7740   17.6256  -34.5417 H   0  0  0  0  0  0  0  0  0  0  0  0
   -8.6776   20.8595  -33.6465 H   0  0  0  0  0  0  0  0  0  0  0  0
   -9.7900   19.9811  -32.4997 H   0  0  0  0  0  0  0  0  0  0  0  0
   -7.1467   20.2554  -30.3712 H   0  0  0  0  0  0  0  0  0  0  0  0
   -6.4016   21.0408  -31.8200 H   0  0  0  0  0  0  0  0  0  0  0  0
   -7.4979   22.5245  -29.3814 H   0  0  0  0  0  0  0  0  0  0  0  0
   -5.7563   22.1606  -29.6971 H   0  0  0  0  0  0  0  0  0  0  0  0
   -7.9031   24.6183  -32.5002 H   0  0  0  0  0  0  0  0  0  0  0  0
   -7.0429   23.1386  -33.0993 H   0  0  0  0  0  0  0  0  0  0  0  0
   -9.3740   23.1937  -31.1265 H   0  0  0  0  0  0  0  0  0  0  0  0
   -9.4324   22.7118  -32.8793 H   0  0  0  0  0  0  0  0  0  0  0  0
   -7.6231   25.5729  -30.5043 H   0  0  0  0  0  0  0  0  0  0  0  0
   -6.9594   24.9350  -29.1331 H   0  0  0  0  0  0  0  0  0  0  0  0
   -5.5034   26.2068  -31.4956 H   0  0  0  0  0  0  0  0  0  0  0  0
   -4.6324   25.6829  -30.1469 H   0  0  0  0  0  0  0  0  0  0  0  0
   -3.2615   23.9581  -30.9624 H   0  0  0  0  0  0  0  0  0  0  0  0
   -4.3963   22.5967  -30.3779 H   0  0  0  0  0  0  0  0  0  0  0  0
   -4.3217   22.1111  -33.0278 H   0  0  0  0  0  0  0  0  0  0  0  0
   -2.6240   22.7440  -32.6961 H   0  0  0  0  0  0  0  0  0  0  0  0
   -2.0440   20.7570  -32.1100 H   0  0  0  0  0  0  0  0  0  0  0  0
   -4.3222   19.1230  -31.5357 H   0  0  0  0  0  0  0  0  0  0  0  0
   -4.7092   20.1315  -32.9709 H   0  0  0  0  0  0  0  0  0  0  0  0
   -3.2423   19.0948  -32.9709 H   0  0  0  0  0  0  0  0  0  0  0  0
   -3.3343   21.7956  -29.8101 H   0  0  0  0  0  0  0  0  0  0  0  0
   -3.7811   20.0572  -29.8815 H   0  0  0  0  0  0  0  0  0  0  0  0
   -2.0511   20.5406  -29.8815 H   0  0  0  0  0  0  0  0  0  0  0  0
   -6.8630   19.3100  -34.5700 H   0  0  0  0  0  0  0  0  0  0  0  0
  1  2  1  0
  2  3  2  0
  3  4  1  0
  4  5  1  0
  5  6  1  0
  6  7  1  0
  7  8  1  0
  8  9  1  0
  9 10  1  0
 10 11  1  0
 11 12  1  0
 10 13  1  0
 13 14  1  0
 14 15  1  0
 15 16  1  0
 16 17  1  0
 17 18  1  0
 18 19  1  0
 18 20  1  0
  5 21  2  0
 21  2  1  0
 12  7  1  0
 15 10  1  0
  1 22  1  0
  1 23  1  0
  1 24  1  0
  6 25  1  0
  6 26  1  0
  8 27  1  0
  8 28  1  0
  9 29  1  0
  9 30  1  0
 11 31  1  0
 11 32  1  0
 12 33  1  0
 12 34  1  0
 13 35  1  0
 13 36  1  0
 14 37  1  0
 14 38  1  0
 16 39  1  0
 16 40  1  0
 17 41  1  0
 17 42  1  0
 18 43  1  0
 19 44  1  0
 19 45  1  0
 19 46  1  0
 20 47  1  0
 20 48  1  0
 20 49  1  0
 21 50  1  0
M  CHG  1  21   1
M  END
>  <UniqueID>  (5) 
5

>  <SMILES>  (5) 
Cc1noc(CN2CCC3(CC2)CCN3CCC(C)C)[nH+]1

>  <Energy>  (5) 
178.6051513572393

>  <Genealogy>  (5) 
Cc1noc(CN2CCC3(CC2)CCN3CCC(C)C)[nH+]1 (protonated)
Cc1noc(CN2CCC3(CC2)CCN3CCC(C)C)[nH+]1 (3D coordinates assigned)
Cc1noc(CN2CCC3(CC2)CCN3CCC(C)C)[nH+]1 (nonaromatic ring conformer: 178.6051513572393 kcal/mol)

>  <smiles>  (5) 
Cc1noc(CN2CCC3(CC2)CCN3CCC(C)C)n1

>  <score_type>  (5) 
oracle

>  <origin>  (5) 
adg

>  <m_score__min__energy>  (5) 
-8.0399999999999991

>  <m_primary>  (5) 
energy

$$$$
5:0
     RDKit          3D

 45 46  0  0  0  0  0  0  0  0999 V2000
   -2.9700   16.6290  -35.2190 C   0  0  0  0  0  0  0  0  0  0  0  0
   -3.4760   17.8120  -34.6090 O   0  0  0  0  0  0  0  0  0  0  0  0
   -4.7550   17.9290  -34.0420 C   0  0  0  0  0  0  0  0  0  0  0  0
   -5.6060   16.8190  -33.8820 C   0  0  0  0  0  0  0  0  0  0  0  0
   -6.8680   16.9730  -33.3060 C   0  0  0  0  0  0  0  0  0  0  0  0
   -7.3080   18.2370  -32.8940 C   0  0  0  0  0  0  0  0  0  0  0  0
   -8.6380   18.3850  -32.1980 C   0  0  0  0  0  0  0  0  0  0  0  0
   -8.6010   19.5440  -31.2000 C   0  0  0  0  0  0  0  0  0  0  0  0
   -9.0810   20.7770  -31.8500 N   0  0  0  0  0  0  0  0  0  0  0  0
   -8.3690   21.9720  -31.3780 C   0  0  0  0  0  0  0  0  0  0  0  0
   -7.2340   22.3250  -32.3450 C   0  0  0  0  0  0  0  0  0  0  0  0
   -6.1570   23.1030  -31.6400 C   0  0  0  0  0  0  0  0  0  0  0  0
   -4.9290   22.4960  -31.3320 C   0  0  0  0  0  0  0  0  0  0  0  0
   -3.9190   23.2280  -30.7040 C   0  0  0  0  0  0  0  0  0  0  0  0
   -4.1200   24.5750  -30.3860 C   0  0  0  0  0  0  0  0  0  0  0  0
   -3.1100   25.2960  -29.7610 O   0  0  0  0  0  0  0  0  0  0  0  0
   -5.3360   25.1950  -30.7000 C   0  0  0  0  0  0  0  0  0  0  0  0
   -5.5280   26.5390  -30.3860 O   0  0  0  0  0  0  0  0  0  0  0  0
   -6.3500   24.4600  -31.3310 C   0  0  0  0  0  0  0  0  0  0  0  0
   -6.4630   19.3450  -33.0500 C   0  0  0  0  0  0  0  0  0  0  0  0
   -5.1840   19.1970  -33.6200 C   0  0  0  0  0  0  0  0  0  0  0  0
   -4.3080   20.2830  -33.7770 O   0  0  0  0  0  0  0  0  0  0  0  0
   -3.0480   20.4030  -33.1240 C   0  0  0  0  0  0  0  0  0  0  0  0
   -2.6650   15.9159  -34.4390 H   0  0  0  0  0  0  0  0  0  0  0  0
   -3.7528   16.1754  -35.8446 H   0  0  0  0  0  0  0  0  0  0  0  0
   -2.1013   16.8818  -35.8446 H   0  0  0  0  0  0  0  0  0  0  0  0
   -5.2742   15.8239  -34.2131 H   0  0  0  0  0  0  0  0  0  0  0  0
   -7.5203   16.0970  -33.1750 H   0  0  0  0  0  0  0  0  0  0  0  0
   -9.4184   18.5796  -32.9484 H   0  0  0  0  0  0  0  0  0  0  0  0
   -8.8564   17.4554  -31.6520 H   0  0  0  0  0  0  0  0  0  0  0  0
   -9.2474   19.3080  -30.3418 H   0  0  0  0  0  0  0  0  0  0  0  0
   -7.5674   19.6937  -30.8548 H   0  0  0  0  0  0  0  0  0  0  0  0
  -10.0980   20.8900  -31.6280 H   0  0  0  0  0  0  0  0  0  0  0  0
   -9.0727   22.8154  -31.3196 H   0  0  0  0  0  0  0  0  0  0  0  0
   -7.9447   21.7690  -30.3836 H   0  0  0  0  0  0  0  0  0  0  0  0
   -6.8031   21.3974  -32.7499 H   0  0  0  0  0  0  0  0  0  0  0  0
   -7.6419   22.9433  -33.1582 H   0  0  0  0  0  0  0  0  0  0  0  0
   -4.7617   21.4390  -31.5865 H   0  0  0  0  0  0  0  0  0  0  0  0
   -2.9624   22.7436  -30.4587 H   0  0  0  0  0  0  0  0  0  0  0  0
   -4.9310   27.0190  -29.7230 H   0  0  0  0  0  0  0  0  0  0  0  0
   -7.3020   24.9487  -31.5855 H   0  0  0  0  0  0  0  0  0  0  0  0
   -6.8025   20.3392  -32.7240 H   0  0  0  0  0  0  0  0  0  0  0  0
   -3.1970   20.3888  -32.0342 H   0  0  0  0  0  0  0  0  0  0  0  0
   -2.4018   19.5623  -33.4167 H   0  0  0  0  0  0  0  0  0  0  0  0
   -2.5721   21.3505  -33.4167 H   0  0  0  0  0  0  0  0  0  0  0  0
  1  2  1  0
  2  3  1  0
  3  4  2  0
  4  5  1  0
  5  6  2  0
  6  7  1  0
  7  8  1  0
  8  9  1  0
  9 10  1  0
 10 11  1  0
 11 12  1  0
 12 13  2  0
 13 14  1  0
 14 15  2  0
 15 16  1  0
 15 17  1  0
 17 18  1  0
 17 19  2  0
  6 20  1  0
 20 21  2  0
 21 22  1  0
 22 23  1  0
 21  3  1  0
 19 12  1  0
  1 24  1  0
  1 25  1  0
  1 26  1  0
  4 27  1  0
  5 28  1  0
  7 29  1  0
  7 30  1  0
  8 31  1  0
  8 32  1  0
  9 33  1  0
 10 34  1  0
 10 35  1  0
 11 36  1  0
 11 37  1  0
 13 38  1  0
 14 39  1  0
 18 40  1  0
 19 41  1  0
 20 42  1  0
 23 43  1  0
 23 44  1  0
 23 45  1  0
M  CHG  1  16  -1
M  END
>  <UniqueID>  (6) 
6

>  <SMILES>  (6) 
COc1ccc(CCNCCc2ccc([O-])c(O)c2)cc1OC

>  <Energy>  (6) 
37.34998193366046

>  <Genealogy>  (6) 
COc1ccc(CCNCCc2ccc([O-])c(O)c2)cc1OC (protonated)
COc1ccc(CCNCCc2ccc([O-])c(O)c2)cc1OC (3D coordinates assigned)
COc1ccc(CCNCCc2ccc([O-])c(O)c2)cc1OC (optimized conformer: 37.34998193366046 kcal/mol)

>  <smiles>  (6) 
COc1ccc(CCNCCc2ccc(O)c(O)c2)cc1OC

>  <score_type>  (6) 
oracle

>  <origin>  (6) 
adg

>  <m_score__min__energy>  (6) 
-9.8399999999999999

>  <m_primary>  (6) 
energy

$$$$
6:0
     RDKit          3D

 36 38  0  0  0  0  0  0  0  0999 V2000
   -1.2270   26.4570  -30.1470 H   0  0  0  0  0  0  0  0  0  0  0  0
   -1.1050   26.3970  -29.1440 O   0  0  0  0  0  0  0  0  0  0  0  0
   -1.3110   25.2020  -28.4530 C   0  0  0  0  0  0  0  0  0  0  0  0
   -0.3720   24.7550  -27.5120 C   0  0  0  0  0  0  0  0  0  0  0  0
    0.5346   25.3474  -27.3194 H   0  0  0  0  0  0  0  0  0  0  0  0
   -0.5830   23.5590  -26.8170 C   0  0  0  0  0  0  0  0  0  0  0  0
    0.3300   23.1350  -25.9100 F   0  0  0  0  0  0  0  0  0  0  0  0
   -1.7340   22.8010  -27.0560 C   0  0  0  0  0  0  0  0  0  0  0  0
   -1.8968   21.8609  -26.5085 H   0  0  0  0  0  0  0  0  0  0  0  0
   -2.6800   23.2390  -27.9930 C   0  0  0  0  0  0  0  0  0  0  0  0
   -3.8420   22.5020  -28.2530 C   0  0  0  0  0  0  0  0  0  0  0  0
   -4.0261   21.5572  -27.7205 H   0  0  0  0  0  0  0  0  0  0  0  0
   -4.7670   22.9690  -29.1900 C   0  0  0  0  0  0  0  0  0  0  0  0
   -5.6774   22.3897  -29.4035 H   0  0  0  0  0  0  0  0  0  0  0  0
   -4.5300   24.1790  -29.8570 C   0  0  0  0  0  0  0  0  0  0  0  0
   -5.4960   24.6610  -30.8710 C   0  0  0  0  0  0  0  0  0  0  0  0
   -5.9169   25.6674  -30.7293 H   0  0  0  0  0  0  0  0  0  0  0  0
   -5.9000   23.9700  -31.9490 C   0  0  0  0  0  0  0  0  0  0  0  0
   -5.4903   24.2668  -32.9257 H   0  0  0  0  0  0  0  0  0  0  0  0
   -6.8550   22.8390  -31.9230 C   0  0  0  0  0  0  0  0  0  0  0  0
   -8.2390   23.0830  -31.8720 C   0  0  0  0  0  0  0  0  0  0  0  0
   -8.6124   24.1177  -31.8628 H   0  0  0  0  0  0  0  0  0  0  0  0
   -9.1410   22.0190  -31.8330 C   0  0  0  0  0  0  0  0  0  0  0  0
  -10.2228   22.2168  -31.8101 H   0  0  0  0  0  0  0  0  0  0  0  0
   -8.6730   20.7050  -31.8230 C   0  0  0  0  0  0  0  0  0  0  0  0
   -9.3865   19.8682  -31.7978 H   0  0  0  0  0  0  0  0  0  0  0  0
   -7.2990   20.4500  -31.8450 C   0  0  0  0  0  0  0  0  0  0  0  0
   -6.9354   19.4119  -31.8294 H   0  0  0  0  0  0  0  0  0  0  0  0
   -6.3760   21.5150  -31.8870 C   0  0  0  0  0  0  0  0  0  0  0  0
   -4.9890   21.2950  -31.9080 O   0  0  0  0  0  0  0  0  0  0  0  0
   -4.2260   21.0740  -33.0900 C   0  0  0  0  0  0  0  0  0  0  0  0
   -3.2028   20.7776  -32.8158 H   0  0  0  0  0  0  0  0  0  0  0  0
   -4.6928   20.2742  -33.6836 H   0  0  0  0  0  0  0  0  0  0  0  0
   -4.1931   21.9995  -33.6836 H   0  0  0  0  0  0  0  0  0  0  0  0
   -3.3830   24.8680  -29.6050 N   0  0  0  0  0  0  0  0  0  0  0  0
   -2.4650   24.4450  -28.6960 C   0  0  0  0  0  0  0  0  0  0  0  0
  1  2  1  0
  2  3  1  0
  3  4  2  0
  4  5  1  0
  4  6  1  0
  6  7  1  0
  6  8  2  0
  8  9  1  0
  8 10  1  0
 10 11  2  0
 11 12  1  0
 11 13  1  0
 13 14  1  0
 13 15  2  0
 15 16  1  0
 16 17  1  0
 16 18  2  0
 18 19  1  0
 18 20  1  0
 20 21  2  0
 21 22  1  0
 21 23  1  0
 23 24  1  0
 23 25  2  0
 25 26  1  0
 25 27  1  0
 27 28  1  0
 27 29  2  0
 29 30  1  0
 30 31  1  0
 31 32  1  0
 31 33  1  0
 31 34  1  0
 15 35  1  0
 35 36  2  0
 36  3  1  0
 36 10  1  0
 29 20  1  0
M  END
>  <UniqueID>  (7) 
7

>  <SMILES>  (7) 
COc1ccccc1/C=C\c1ccc2cc(F)cc(O)c2n1

>  <Energy>  (7) 
48.55901988670652

>  <Genealogy>  (7) 
COc1ccccc1/C=C\c1ccc2cc(F)cc(O)c2n1 (cis-trans isomerization)
COc1ccccc1/C=C\c1ccc2cc(F)cc(O)c2n1 (3D coordinates assigned)
COc1ccccc1/C=C\c1ccc2cc(F)cc(O)c2n1 (optimized conformer: 48.55901988670652 kcal/mol)

>  <smiles>  (7) 
COc1ccccc1C=Cc1ccc2cc(F)cc(O)c2n1

>  <score_type>  (7) 
oracle

>  <origin>  (7) 
adg

>  <m_score__min__energy>  (7) 
-8.5199999999999996

>  <m_primary>  (7) 
energy

$$$$
7:0
     RDKit          3D

 44 45  0  0  0  0  0  0  0  0999 V2000
   -3.8990   24.1110  -27.4780 C   0  0  0  0  0  0  0  0  0  0  0  0
   -2.9610   24.1560  -28.6830 C   0  0  0  0  0  0  0  0  0  0  0  0
   -2.5140   22.7590  -29.1590 C   0  0  0  0  0  0  0  0  0  0  0  0
   -2.8550   22.4150  -30.6270 C   0  0  0  0  0  0  0  0  0  0  0  0
   -2.0080   21.2380  -31.1630 C   0  0  0  0  0  0  0  0  0  0  0  0
   -1.8890   21.2170  -32.7010 C   0  0  0  0  0  0  0  0  0  0  0  0
   -3.2340   21.0740  -33.4140 C   0  0  0  0  0  0  0  0  0  0  0  0
   -4.2780   22.0770  -30.6990 N   0  0  0  0  0  0  0  0  0  0  0  0
   -5.2880   23.0260  -31.0790 C   0  0  0  0  0  0  0  0  0  0  0  0
   -4.9890   24.2440  -31.2160 O   0  0  0  0  0  0  0  0  0  0  0  0
   -6.6750   22.5780  -31.3270 C   0  0  0  0  0  0  0  0  0  0  0  0
   -7.6750   23.4850  -31.7180 C   0  0  0  0  0  0  0  0  0  0  0  0
   -8.9630   23.0160  -31.9830 C   0  0  0  0  0  0  0  0  0  0  0  0
   -9.2480   21.6550  -31.8590 C   0  0  0  0  0  0  0  0  0  0  0  0
   -8.2330   20.7800  -31.4620 C   0  0  0  0  0  0  0  0  0  0  0  0
   -8.5550   19.0260  -31.3150 S   0  0  0  0  0  0  0  0  0  0  0  0
   -7.2330   18.6120  -32.4490 C   0  0  0  0  0  0  0  0  0  0  0  0
   -6.8260   19.4630  -33.4840 C   0  0  0  0  0  0  0  0  0  0  0  0
   -5.8010   18.9370  -34.2580 C   0  0  0  0  0  0  0  0  0  0  0  0
   -5.4110   17.4220  -33.6430 S   0  0  0  0  0  0  0  0  0  0  0  0
   -6.5340   17.4150  -32.3920 C   0  0  0  0  0  0  0  0  0  0  0  0
   -6.9860   21.2580  -31.2080 N   0  0  0  0  0  0  0  0  0  0  0  0
   -3.3070   24.1394  -26.5513 H   0  0  0  0  0  0  0  0  0  0  0  0
   -4.5757   24.9777  -27.5075 H   0  0  0  0  0  0  0  0  0  0  0  0
   -4.4896   23.1835  -27.5075 H   0  0  0  0  0  0  0  0  0  0  0  0
   -3.4813   24.6577  -29.5122 H   0  0  0  0  0  0  0  0  0  0  0  0
   -2.0566   24.6998  -28.3724 H   0  0  0  0  0  0  0  0  0  0  0  0
   -1.4223   22.6940  -29.0406 H   0  0  0  0  0  0  0  0  0  0  0  0
   -3.0709   22.0377  -28.5428 H   0  0  0  0  0  0  0  0  0  0  0  0
   -2.6244   23.2880  -31.2552 H   0  0  0  0  0  0  0  0  0  0  0  0
   -0.9969   21.3138  -30.7364 H   0  0  0  0  0  0  0  0  0  0  0  0
   -2.5176   20.3099  -30.8648 H   0  0  0  0  0  0  0  0  0  0  0  0
   -1.4202   22.1572  -33.0270 H   0  0  0  0  0  0  0  0  0  0  0  0
   -1.2860   20.3364  -32.9673 H   0  0  0  0  0  0  0  0  0  0  0  0
   -4.0374   20.9886  -32.6676 H   0  0  0  0  0  0  0  0  0  0  0  0
   -3.4110   21.9584  -34.0437 H   0  0  0  0  0  0  0  0  0  0  0  0
   -3.2211   20.1722  -34.0437 H   0  0  0  0  0  0  0  0  0  0  0  0
   -4.5700   21.1240  -30.3840 H   0  0  0  0  0  0  0  0  0  0  0  0
   -7.4445   24.5563  -31.8145 H   0  0  0  0  0  0  0  0  0  0  0  0
   -9.7525   23.7182  -32.2892 H   0  0  0  0  0  0  0  0  0  0  0  0
  -10.2587   21.2760  -32.0711 H   0  0  0  0  0  0  0  0  0  0  0  0
   -7.2744   20.4509  -33.6656 H   0  0  0  0  0  0  0  0  0  0  0  0
   -5.3271   19.4257  -35.1221 H   0  0  0  0  0  0  0  0  0  0  0  0
   -6.6869   16.6076  -31.6607 H   0  0  0  0  0  0  0  0  0  0  0  0
  1  2  1  0
  2  3  1  0
  3  4  1  0
  4  5  1  0
  5  6  1  0
  6  7  1  0
  4  8  1  0
  8  9  1  0
  9 10  2  0
  9 11  1  0
 11 12  2  0
 12 13  1  0
 13 14  2  0
 14 15  1  0
 15 16  1  0
 16 17  1  0
 17 18  1  0
 18 19  2  0
 19 20  1  0
 20 21  1  0
 15 22  2  0
 22 11  1  0
 21 17  2  0
  1 23  1  0
  1 24  1  0
  1 25  1  0
  2 26  1  0
  2 27  1  0
  3 28  1  0
  3 29  1  0
  4 30  1  0
  5 31  1  0
  5 32  1  0
  6 33  1  0
  6 34  1  0
  7 35  1  0
  7 36  1  0
  7 37  1  0
  8 38  1  0
 12 39  1  0
 13 40  1  0
 14 41  1  0
 18 42  1  0
 19 43  1  0
 21 44  1  0
M  END
>  <UniqueID>  (8) 
8

>  <SMILES>  (8) 
CCCC(CCC)NC(=O)c1cccc(Sc2ccsc2)n1

>  <Energy>  (8) 
54.69393064489408

>  <Genealogy>  (8) 
CCCC(CCC)NC(=O)c1cccc(Sc2ccsc2)n1 (3D coordinates assigned)
CCCC(CCC)NC(=O)c1cccc(Sc2ccsc2)n1 (optimized conformer: 54.69393064489408 kcal/mol)

>  <smiles>  (8) 
CCCC(CCC)NC(=O)c1cccc(Sc2ccsc2)n1

>  <score_type>  (8) 
oracle

>  <origin>  (8) 
adg

>  <m_score__min__energy>  (8) 
-7.71

>  <m_primary>  (8) 
energy

$$$$
8:0
     RDKit          3D

 73 78  0  0  0  0  0  0  0  0999 V2000
    1.8932   19.6557  -28.6671 H   0  0  0  0  0  0  0  0  0  0  0  0
    0.9540   19.1780  -28.9830 C   0  0  0  0  0  0  0  0  0  0  0  0
    0.9620   18.4870  -30.1460 C   0  0  0  0  0  0  0  0  0  0  0  0
    0.6160   19.1800  -31.4150 C   0  0  0  0  0  0  0  0  0  0  0  0
    1.1240   18.8060  -32.5090 O   0  0  0  0  0  0  0  0  0  0  0  0
   -0.3000   20.2810  -31.4010 N   0  0  0  0  0  0  0  0  0  0  0  0
   -0.7630   20.9890  -32.5900 C   0  0  0  0  0  0  0  0  0  0  0  0
   -0.8254   22.0630  -32.3604 H   0  0  0  0  0  0  0  0  0  0  0  0
   -0.0449   20.7925  -33.3998 H   0  0  0  0  0  0  0  0  0  0  0  0
   -2.1450   20.5020  -33.0580 C   0  0  0  0  0  0  0  0  0  0  0  0
   -2.9154   21.0242  -32.4716 H   0  0  0  0  0  0  0  0  0  0  0  0
   -2.2192   20.7223  -34.1332 H   0  0  0  0  0  0  0  0  0  0  0  0
   -2.3490   18.9890  -32.8910 C   0  0  0  0  0  0  0  0  0  0  0  0
   -1.3907   18.4707  -33.0427 H   0  0  0  0  0  0  0  0  0  0  0  0
   -2.7228   18.7787  -31.8781 H   0  0  0  0  0  0  0  0  0  0  0  0
   -3.3180   18.5180  -33.8750 N   0  0  0  0  0  0  0  0  0  0  0  0
   -4.5800   18.1810  -33.7900 C   0  0  0  0  0  0  0  0  0  0  0  0
   -4.8670   16.8540  -34.1440 C   0  0  0  0  0  0  0  0  0  0  0  0
   -4.0842   16.2336  -34.6047 H   0  0  0  0  0  0  0  0  0  0  0  0
   -6.1280   16.3130  -33.9200 C   0  0  0  0  0  0  0  0  0  0  0  0
   -6.3339   15.2679  -34.1945 H   0  0  0  0  0  0  0  0  0  0  0  0
   -7.1020   17.0700  -33.3650 N   0  0  0  0  0  0  0  0  0  0  0  0
   -6.9050   18.3730  -33.0370 C   0  0  0  0  0  0  0  0  0  0  0  0
   -7.9730   19.0970  -32.4860 C   0  0  0  0  0  0  0  0  0  0  0  0
   -8.9276   18.5912  -32.2791 H   0  0  0  0  0  0  0  0  0  0  0  0
   -7.8310   20.4550  -32.1990 C   0  0  0  0  0  0  0  0  0  0  0  0
   -9.1780   21.3620  -31.5240 Cl  0  0  0  0  0  0  0  0  0  0  0  0
   -6.6310   21.1000  -32.4830 C   0  0  0  0  0  0  0  0  0  0  0  0
   -6.5279   22.1761  -32.2794 H   0  0  0  0  0  0  0  0  0  0  0  0
   -5.5540   20.3890  -33.0260 C   0  0  0  0  0  0  0  0  0  0  0  0
   -4.6213   20.9208  -33.2651 H   0  0  0  0  0  0  0  0  0  0  0  0
   -5.6440   18.9970  -33.2730 C   0  0  0  0  0  0  0  0  0  0  0  0
    1.2400   17.0260  -30.1830 C   0  0  0  0  0  0  0  0  0  0  0  0
    0.6230   16.2080  -31.1420 C   0  0  0  0  0  0  0  0  0  0  0  0
   -0.0778   16.6479  -31.8669 H   0  0  0  0  0  0  0  0  0  0  0  0
    0.8940   14.8380  -31.1810 C   0  0  0  0  0  0  0  0  0  0  0  0
    0.4002   14.2020  -31.9304 H   0  0  0  0  0  0  0  0  0  0  0  0
    1.7910   14.2740  -30.2700 C   0  0  0  0  0  0  0  0  0  0  0  0
    2.0091   13.1966  -30.3108 H   0  0  0  0  0  0  0  0  0  0  0  0
    2.4140   15.0770  -29.3040 C   0  0  0  0  0  0  0  0  0  0  0  0
    3.3800   14.4890  -28.3180 C   0  0  0  0  0  0  0  0  0  0  0  0
    3.0339   14.6997  -27.2953 H   0  0  0  0  0  0  0  0  0  0  0  0
    3.4402   13.4009  -28.4679 H   0  0  0  0  0  0  0  0  0  0  0  0
    4.3742   14.9353  -28.4679 H   0  0  0  0  0  0  0  0  0  0  0  0
    2.1420   16.4510  -29.2720 C   0  0  0  0  0  0  0  0  0  0  0  0
    2.6402   17.0868  -28.5253 H   0  0  0  0  0  0  0  0  0  0  0  0
   -0.2260   19.3380  -28.1050 C   0  0  0  0  0  0  0  0  0  0  0  0
   -0.8650   18.2300  -27.5190 C   0  0  0  0  0  0  0  0  0  0  0  0
   -0.4923   17.2138  -27.7150 H   0  0  0  0  0  0  0  0  0  0  0  0
   -1.9730   18.4190  -26.6880 C   0  0  0  0  0  0  0  0  0  0  0  0
   -2.4844   17.5495  -26.2493 H   0  0  0  0  0  0  0  0  0  0  0  0
   -2.4330   19.7110  -26.4130 C   0  0  0  0  0  0  0  0  0  0  0  0
   -3.3135   19.8546  -25.7695 H   0  0  0  0  0  0  0  0  0  0  0  0
   -1.7740   20.8240  -26.9560 C   0  0  0  0  0  0  0  0  0  0  0  0
   -2.2640   22.1540  -26.7260 N   0  0  0  0  0  0  0  0  0  0  0  0
   -2.1880   23.1750  -27.5420 C   0  0  0  0  0  0  0  0  0  0  0  0
   -1.0820   24.0530  -27.5350 C   0  0  0  0  0  0  0  0  0  0  0  0
   -0.2649   23.9029  -26.8140 H   0  0  0  0  0  0  0  0  0  0  0  0
   -1.0260   25.1110  -28.4430 C   0  0  0  0  0  0  0  0  0  0  0  0
   -0.1656   25.7962  -28.4322 H   0  0  0  0  0  0  0  0  0  0  0  0
   -2.0270   25.2990  -29.3390 N   0  0  0  0  0  0  0  0  0  0  0  0
   -3.1090   24.4770  -29.3900 C   0  0  0  0  0  0  0  0  0  0  0  0
   -4.1170   24.7120  -30.3350 C   0  0  0  0  0  0  0  0  0  0  0  0
   -4.0302   25.5606  -31.0295 H   0  0  0  0  0  0  0  0  0  0  0  0
   -5.2330   23.8710  -30.3980 C   0  0  0  0  0  0  0  0  0  0  0  0
   -6.4930   24.1720  -31.5820 Cl  0  0  0  0  0  0  0  0  0  0  0  0
   -5.3470   22.7900  -29.5200 C   0  0  0  0  0  0  0  0  0  0  0  0
   -6.2243   22.1287  -29.5758 H   0  0  0  0  0  0  0  0  0  0  0  0
   -4.3500   22.5460  -28.5710 C   0  0  0  0  0  0  0  0  0  0  0  0
   -4.4485   21.6951  -27.8808 H   0  0  0  0  0  0  0  0  0  0  0  0
   -3.2150   23.3870  -28.4930 C   0  0  0  0  0  0  0  0  0  0  0  0
   -0.6810   20.6320  -27.8110 C   0  0  0  0  0  0  0  0  0  0  0  0
   -0.1758   21.5024  -28.2551 H   0  0  0  0  0  0  0  0  0  0  0  0
  1  2  1  0
  2  3  2  0
  3  4  1  0
  4  5  2  0
  4  6  1  0
  6  7  1  0
  7  8  1  0
  7  9  1  0
  7 10  1  0
 10 11  1  0
 10 12  1  0
 10 13  1  0
 13 14  1  0
 13 15  1  0
 13 16  1  0
 16 17  2  3
 17 18  1  0
 18 19  1  0
 18 20  2  0
 20 21  1  0
 20 22  1  0
 22 23  1  0
 23 24  2  0
 24 25  1  0
 24 26  1  0
 26 27  1  0
 26 28  2  0
 28 29  1  0
 28 30  1  0
 30 31  1  0
 30 32  2  0
  3 33  1  0
 33 34  2  0
 34 35  1  0
 34 36  1  0
 36 37  1  0
 36 38  2  0
 38 39  1  0
 38 40  1  0
 40 41  1  0
 41 42  1  0
 41 43  1  0
 41 44  1  0
 40 45  2  0
 45 46  1  0
  2 47  1  0
 47 48  2  0
 48 49  1  0
 48 50  1  0
 50 51  1  0
 50 52  2  0
 52 53  1  0
 52 54  1  0
 54 55  1  0
 55 56  2  3
 56 57  1  0
 57 58  1  0
 57 59  2  0
 59 60  1  0
 59 61  1  0
 61 62  1  0
 62 63  2  0
 63 64  1  0
 63 65  1  0
 65 66  1  0
 65 67  2  0
 67 68  1  0
 67 69  1  0
 69 70  1  0
 69 71  2  0
 54 72  2  0
 72 73  1  0
 32 17  1  0
 45 33  1  0
 72 47  1  0
 32 23  1  0
 71 56  1  0
 71 62  1  0
M  CHG  3   6  -1  22  -1  61  -1
M  END
>  <UniqueID>  (9) 
9

>  <SMILES>  (9) 
Cc1cccc(/C(=C\c2cccc(N=c3cc[n-]c4cc(Cl)ccc34)c2)C(=O)[N-]CCCN=c2cc[n-]c3cc(Cl)ccc23)c1

>  <Energy>  (9) 
115.36640637733868

>  <Genealogy>  (9) 
Cc1cccc(C(=Cc2cccc(N=c3cc[n-]c4cc(Cl)ccc34)c2)C(=O)[N-]CCCN=c2cc[n-]c3cc(Cl)ccc23)c1 (protonated)
Cc1cccc(/C(=C\c2cccc(N=c3cc[n-]c4cc(Cl)ccc34)c2)C(=O)[N-]CCCN=c2cc[n-]c3cc(Cl)ccc23)c1 (cis-trans isomerization)
Cc1cccc(/C(=C\c2cccc(N=c3cc[n-]c4cc(Cl)ccc34)c2)C(=O)[N-]CCCN=c2cc[n-]c3cc(Cl)ccc23)c1 (3D coordinates assigned)
Cc1cccc(/C(=C\c2cccc(N=c3cc[n-]c4cc(Cl)ccc34)c2)C(=O)[N-]CCCN=c2cc[n-]c3cc(Cl)ccc23)c1 (optimized conformer: 115.36640637733868 kcal/mol)

>  <smiles>  (9) 
Cc1cccc(C(=Cc2cccc(N=c3cc[nH]c4cc(Cl)ccc34)c2)C(=O)NCCCN=c2cc[nH]c3cc(Cl)ccc23)c1

>  <score_type>  (9) 
oracle

>  <origin>  (9) 
adg

>  <m_score__min__energy>  (9) 
-14.550000000000001

>  <m_primary>  (9) 
energy

$$$$
9:0
     RDKit          3D

 36 37  0  0  0  0  0  0  0  0999 V2000
   -1.8580   25.0960  -28.2390 C   0  0  0  0  0  0  0  0  0  0  0  0
   -2.7280   25.2970  -29.3490 O   0  0  0  0  0  0  0  0  0  0  0  0
   -3.6290   24.3360  -29.8330 C   0  0  0  0  0  0  0  0  0  0  0  0
   -4.9980   24.3610  -29.5150 C   0  0  0  0  0  0  0  0  0  0  0  0
   -5.8550   23.3870  -30.0280 C   0  0  0  0  0  0  0  0  0  0  0  0
   -5.3690   22.3830  -30.8760 C   0  0  0  0  0  0  0  0  0  0  0  0
   -6.3130   21.3760  -31.4000 C   0  0  0  0  0  0  0  0  0  0  0  0
   -6.0130   20.1000  -31.5030 O   0  0  0  0  0  0  0  0  0  0  0  0
   -7.0500   19.4570  -31.9910 C   0  0  0  0  0  0  0  0  0  0  0  0
   -7.0740   17.9840  -32.2350 C   0  0  0  0  0  0  0  0  0  0  0  0
   -8.0850   20.3460  -32.2310 C   0  0  0  0  0  0  0  0  0  0  0  0
   -9.4670   20.0120  -32.7000 C   0  0  0  0  0  0  0  0  0  0  0  0
   -7.6230   21.5830  -31.8190 C   0  0  0  0  0  0  0  0  0  0  0  0
   -8.4100   22.8590  -31.7850 C   0  0  0  0  0  0  0  0  0  0  0  0
   -3.9920   22.3260  -31.1740 C   0  0  0  0  0  0  0  0  0  0  0  0
   -3.5040   21.2660  -31.9560 O   0  0  0  0  0  0  0  0  0  0  0  0
   -3.5520   21.2210  -33.3780 C   0  0  0  0  0  0  0  0  0  0  0  0
   -3.1350   23.3200  -30.6580 C   0  0  0  0  0  0  0  0  0  0  0  0
   -2.4214   25.2262  -27.3033 H   0  0  0  0  0  0  0  0  0  0  0  0
   -1.4426   24.0782  -28.2783 H   0  0  0  0  0  0  0  0  0  0  0  0
   -1.0382   25.8284  -28.2783 H   0  0  0  0  0  0  0  0  0  0  0  0
   -5.3946   25.1506  -28.8599 H   0  0  0  0  0  0  0  0  0  0  0  0
   -6.9227   23.4074  -29.7642 H   0  0  0  0  0  0  0  0  0  0  0  0
   -7.0827   17.4529  -31.2718 H   0  0  0  0  0  0  0  0  0  0  0  0
   -7.9765   17.7217  -32.8065 H   0  0  0  0  0  0  0  0  0  0  0  0
   -6.1805   17.6924  -32.8065 H   0  0  0  0  0  0  0  0  0  0  0  0
  -10.1213   19.8539  -31.8300 H   0  0  0  0  0  0  0  0  0  0  0  0
   -9.8586   20.8414  -33.3073 H   0  0  0  0  0  0  0  0  0  0  0  0
   -9.4366   19.0953  -33.3073 H   0  0  0  0  0  0  0  0  0  0  0  0
   -8.5901   23.1510  -30.7399 H   0  0  0  0  0  0  0  0  0  0  0  0
   -7.8442   23.6525  -32.2951 H   0  0  0  0  0  0  0  0  0  0  0  0
   -9.3730   22.7095  -32.2951 H   0  0  0  0  0  0  0  0  0  0  0  0
   -4.3202   20.5009  -33.6963 H   0  0  0  0  0  0  0  0  0  0  0  0
   -3.8007   22.2189  -33.7682 H   0  0  0  0  0  0  0  0  0  0  0  0
   -2.5722   20.9085  -33.7682 H   0  0  0  0  0  0  0  0  0  0  0  0
   -2.0639   23.2961  -30.9075 H   0  0  0  0  0  0  0  0  0  0  0  0
  1  2  1  0
  2  3  1  0
  3  4  2  0
  4  5  1  0
  5  6  2  0
  6  7  1  0
  7  8  1  0
  8  9  1  0
  9 10  1  0
  9 11  2  0
 11 12  1  0
 11 13  1  0
 13 14  1  0
  6 15  1  0
 15 16  1  0
 16 17  1  0
 15 18  2  0
 18  3  1  0
 13  7  2  0
  1 19  1  0
  1 20  1  0
  1 21  1  0
  4 22  1  0
  5 23  1  0
 10 24  1  0
 10 25  1  0
 10 26  1  0
 12 27  1  0
 12 28  1  0
 12 29  1  0
 14 30  1  0
 14 31  1  0
 14 32  1  0
 17 33  1  0
 17 34  1  0
 17 35  1  0
 18 36  1  0
M  END
>  <UniqueID>  (10) 
10

>  <SMILES>  (10) 
COc1ccc(-c2oc(C)c(C)c2C)c(OC)c1

>  <Energy>  (10) 
63.95390385097012

>  <Genealogy>  (10) 
COc1ccc(-c2oc(C)c(C)c2C)c(OC)c1 (3D coordinates assigned)
COc1ccc(-c2oc(C)c(C)c2C)c(OC)c1 (optimized conformer: 63.95390385097012 kcal/mol)

>  <smiles>  (10) 
COc1ccc(-c2oc(C)c(C)c2C)c(OC)c1

>  <score_type>  (10) 
oracle

>  <origin>  (10) 
adg

>  <m_score__min__energy>  (10) 
-6.6600000000000001

>  <m_primary>  (10) 
energy

$$$$
10:0
     RDKit          3D

 54 55  0  0  0  0  0  0  0  0999 V2000
   -5.3530   25.1590  -30.8300 C   0  0  0  0  0  0  0  0  0  0  0  0
   -6.6050   24.7490  -30.0560 C   0  0  0  0  0  0  0  0  0  0  0  0
   -7.0080   23.2880  -30.3100 C   0  0  0  0  0  0  0  0  0  0  0  0
   -7.7060   23.0960  -31.6630 C   0  0  0  0  0  0  0  0  0  0  0  0
   -7.9320   21.6300  -31.9380 C   0  0  0  0  0  0  0  0  0  0  0  0
   -9.2440   21.1410  -32.0520 C   0  0  0  0  0  0  0  0  0  0  0  0
   -9.4760   19.7910  -32.3150 C   0  0  0  0  0  0  0  0  0  0  0  0
   -8.4010   18.9170  -32.4800 C   0  0  0  0  0  0  0  0  0  0  0  0
   -7.0910   19.3910  -32.3870 C   0  0  0  0  0  0  0  0  0  0  0  0
   -6.8420   20.7520  -32.1160 C   0  0  0  0  0  0  0  0  0  0  0  0
   -5.5350   21.2670  -32.0230 O   0  0  0  0  0  0  0  0  0  0  0  0
   -4.6210   21.4240  -33.1090 C   0  0  0  0  0  0  0  0  0  0  0  0
   -3.1800   21.2910  -32.6130 C   0  0  0  0  0  0  0  0  0  0  0  0
   -2.8640   22.3200  -31.5120 C   0  0  0  0  0  0  0  0  0  0  0  0
   -2.9560   21.7820  -30.1350 N   0  0  0  0  0  0  0  0  0  0  0  0
   -3.7730   22.5650  -29.1850 C   0  0  0  0  0  0  0  0  0  0  0  0
   -2.9990   23.7350  -28.5530 C   0  0  0  0  0  0  0  0  0  0  0  0
   -1.5560   23.4720  -28.5420 N   0  0  0  0  0  0  0  0  0  0  0  0
   -0.6190   24.5680  -28.5420 C   0  0  0  0  0  0  0  0  0  0  0  0
    0.6170   24.3490  -28.4210 O   0  0  0  0  0  0  0  0  0  0  0  0
   -1.0820   25.8800  -28.6980 O   0  0  0  0  0  0  0  0  0  0  0  0
   -0.8560   26.8950  -27.7290 C   0  0  0  0  0  0  0  0  0  0  0  0
   -1.1090   22.0790  -28.4340 C   0  0  0  0  0  0  0  0  0  0  0  0
   -1.6990   21.2300  -29.5760 C   0  0  0  0  0  0  0  0  0  0  0  0
   -4.5533   25.4209  -30.1215 H   0  0  0  0  0  0  0  0  0  0  0  0
   -5.0227   24.3221  -31.4628 H   0  0  0  0  0  0  0  0  0  0  0  0
   -5.5817   26.0292  -31.4628 H   0  0  0  0  0  0  0  0  0  0  0  0
   -6.4122   24.8789  -28.9808 H   0  0  0  0  0  0  0  0  0  0  0  0
   -7.4323   25.3864  -30.4012 H   0  0  0  0  0  0  0  0  0  0  0  0
   -6.1025   22.6638  -30.2888 H   0  0  0  0  0  0  0  0  0  0  0  0
   -7.7195   22.9967  -29.5233 H   0  0  0  0  0  0  0  0  0  0  0  0
   -8.6758   23.6149  -31.6468 H   0  0  0  0  0  0  0  0  0  0  0  0
   -7.0663   23.5120  -32.4553 H   0  0  0  0  0  0  0  0  0  0  0  0
  -10.0948   21.8280  -31.9329 H   0  0  0  0  0  0  0  0  0  0  0  0
  -10.5069   19.4152  -32.3924 H   0  0  0  0  0  0  0  0  0  0  0  0
   -8.5860   17.8520  -32.6838 H   0  0  0  0  0  0  0  0  0  0  0  0
   -6.2479   18.6982  -32.5260 H   0  0  0  0  0  0  0  0  0  0  0  0
   -4.8180   20.6488  -33.8641 H   0  0  0  0  0  0  0  0  0  0  0  0
   -4.7571   22.4225  -33.5500 H   0  0  0  0  0  0  0  0  0  0  0  0
   -3.0334   20.2786  -32.2086 H   0  0  0  0  0  0  0  0  0  0  0  0
   -2.5049   21.4757  -33.4616 H   0  0  0  0  0  0  0  0  0  0  0  0
   -1.8406   22.6912  -31.6699 H   0  0  0  0  0  0  0  0  0  0  0  0
   -3.6217   23.1132  -31.5932 H   0  0  0  0  0  0  0  0  0  0  0  0
   -4.6441   22.9693  -29.7214 H   0  0  0  0  0  0  0  0  0  0  0  0
   -4.0718   21.8885  -28.3707 H   0  0  0  0  0  0  0  0  0  0  0  0
   -3.1927   24.6488  -29.1339 H   0  0  0  0  0  0  0  0  0  0  0  0
   -3.3388   23.8566  -27.5139 H   0  0  0  0  0  0  0  0  0  0  0  0
   -0.9514   26.4667  -26.7203 H   0  0  0  0  0  0  0  0  0  0  0  0
    0.1558   27.3067  -27.8584 H   0  0  0  0  0  0  0  0  0  0  0  0
   -1.5975   27.6971  -27.8584 H   0  0  0  0  0  0  0  0  0  0  0  0
   -0.0109   22.0464  -28.4895 H   0  0  0  0  0  0  0  0  0  0  0  0
   -1.4539   21.6695  -27.4731 H   0  0  0  0  0  0  0  0  0  0  0  0
   -0.9556   21.1693  -30.3845 H   0  0  0  0  0  0  0  0  0  0  0  0
   -1.9387   20.2427  -29.1544 H   0  0  0  0  0  0  0  0  0  0  0  0
  1  2  1  0
  2  3  1  0
  3  4  1  0
  4  5  1  0
  5  6  2  0
  6  7  1  0
  7  8  2  0
  8  9  1  0
  9 10  2  0
 10 11  1  0
 11 12  1  0
 12 13  1  0
 13 14  1  0
 14 15  1  0
 15 16  1  0
 16 17  1  0
 17 18  1  0
 18 19  1  0
 19 20  2  0
 19 21  1  0
 21 22  1  0
 18 23  1  0
 23 24  1  0
 10  5  1  0
 24 15  1  0
  1 25  1  0
  1 26  1  0
  1 27  1  0
  2 28  1  0
  2 29  1  0
  3 30  1  0
  3 31  1  0
  4 32  1  0
  4 33  1  0
  6 34  1  0
  7 35  1  0
  8 36  1  0
  9 37  1  0
 12 38  1  0
 12 39  1  0
 13 40  1  0
 13 41  1  0
 14 42  1  0
 14 43  1  0
 16 44  1  0
 16 45  1  0
 17 46  1  0
 17 47  1  0
 22 48  1  0
 22 49  1  0
 22 50  1  0
 23 51  1  0
 23 52  1  0
 24 53  1  0
 24 54  1  0
M  END
>  <UniqueID>  (11) 
11

>  <SMILES>  (11) 
CCCCc1ccccc1OCCCN1CCN(C(=O)OC)CC1

>  <Energy>  (11) 
51.42774858296577

>  <Genealogy>  (11) 
CCCCc1ccccc1OCCCN1CCN(C(=O)OC)CC1 (3D coordinates assigned)
CCCCc1ccccc1OCCCN1CCN(C(=O)OC)CC1 (nonaromatic ring conformer: 51.42774858296577 kcal/mol)

>  <smiles>  (11) 
CCCCc1ccccc1OCCCN1CCN(C(=O)OC)CC1

>  <score_type>  (11) 
oracle

>  <origin>  (11) 
adg

>  <m_score__min__energy>  (11) 
-7.6900000000000004

>  <m_primary>  (11) 
energy

$$$$
11:0
     RDKit          3D

 37 40  0  0  0  0  0  0  0  0999 V2000
   -8.2490   18.2530  -31.9580 C   0  0  0  0  0  0  0  0  0  0  0  0
   -9.0420   19.4270  -32.5180 C   0  0  0  0  0  0  0  0  0  0  0  0
   -8.4900   20.6870  -32.0310 N   0  0  0  0  0  0  0  0  0  0  0  0
   -7.2170   20.8970  -31.6520 C   0  0  0  0  0  0  0  0  0  0  0  0
   -7.0820   22.2330  -31.3150 C   0  0  0  0  0  0  0  0  0  0  0  0
   -5.8600   22.9290  -30.8410 C   0  0  0  0  0  0  0  0  0  0  0  0
   -5.6010   24.2770  -31.2130 C   0  0  0  0  0  0  0  0  0  0  0  0
   -4.4660   24.9130  -30.7950 N   0  0  0  0  0  0  0  0  0  0  0  0
   -3.5910   24.2550  -29.9990 C   0  0  0  0  0  0  0  0  0  0  0  0
   -2.4200   24.7340  -29.5530 N   0  0  0  0  0  0  0  0  0  0  0  0
   -1.8620   23.7280  -28.8430 C   0  0  0  0  0  0  0  0  0  0  0  0
   -2.6990   22.6130  -28.8290 C   0  0  0  0  0  0  0  0  0  0  0  0
   -2.4110   21.3340  -28.1510 C   0  0  0  0  0  0  0  0  0  0  0  0
   -1.1390   20.7480  -28.1990 C   0  0  0  0  0  0  0  0  0  0  0  0
   -0.9400   19.5290  -27.5510 C   0  0  0  0  0  0  0  0  0  0  0  0
   -1.9710   18.9270  -26.9020 N   0  0  0  0  0  0  0  0  0  0  0  0
   -3.2040   19.4960  -26.8820 C   0  0  0  0  0  0  0  0  0  0  0  0
   -3.4170   20.6850  -27.5060 N   0  0  0  0  0  0  0  0  0  0  0  0
   -3.8020   22.9680  -29.5910 C   0  0  0  0  0  0  0  0  0  0  0  0
   -4.9250   22.2610  -30.0170 C   0  0  0  0  0  0  0  0  0  0  0  0
   -8.3410   22.7780  -31.5300 C   0  0  0  0  0  0  0  0  0  0  0  0
   -9.1760   21.8170  -31.9720 N   0  0  0  0  0  0  0  0  0  0  0  0
   -8.2715   18.2864  -30.8587 H   0  0  0  0  0  0  0  0  0  0  0  0
   -8.6957   17.3097  -32.3055 H   0  0  0  0  0  0  0  0  0  0  0  0
   -7.2072   18.3152  -32.3055 H   0  0  0  0  0  0  0  0  0  0  0  0
   -8.9910   19.4087  -33.6167 H   0  0  0  0  0  0  0  0  0  0  0  0
  -10.0882   19.3427  -32.1887 H   0  0  0  0  0  0  0  0  0  0  0  0
   -6.4209   20.1387  -31.6160 H   0  0  0  0  0  0  0  0  0  0  0  0
   -6.3233   24.8144  -31.8451 H   0  0  0  0  0  0  0  0  0  0  0  0
   -2.0140   25.6790  -29.7320 H   0  0  0  0  0  0  0  0  0  0  0  0
   -0.8827   23.7817  -28.3450 H   0  0  0  0  0  0  0  0  0  0  0  0
   -0.3145   21.2392  -28.7366 H   0  0  0  0  0  0  0  0  0  0  0  0
    0.0523   19.0546  -27.5653 H   0  0  0  0  0  0  0  0  0  0  0  0
   -1.8150   18.0130  -26.4220 H   0  0  0  0  0  0  0  0  0  0  0  0
   -4.0319   18.9939  -26.3600 H   0  0  0  0  0  0  0  0  0  0  0  0
   -5.0796   21.2130  -29.7206 H   0  0  0  0  0  0  0  0  0  0  0  0
   -8.6143   23.8307  -31.3651 H   0  0  0  0  0  0  0  0  0  0  0  0
  1  2  1  0
  2  3  1  0
  3  4  1  0
  4  5  2  0
  5  6  1  0
  6  7  2  0
  7  8  1  0
  8  9  2  0
  9 10  1  0
 10 11  1  0
 11 12  2  0
 12 13  1  0
 13 14  2  0
 14 15  1  0
 15 16  2  0
 16 17  1  0
 17 18  2  0
 12 19  1  0
 19 20  2  0
  5 21  1  0
 21 22  2  0
 22  3  1  0
 20  6  1  0
 19  9  1  0
 18 13  1  0
  1 23  1  0
  1 24  1  0
  1 25  1  0
  2 26  1  0
  2 27  1  0
  4 28  1  0
  7 29  1  0
 10 30  1  0
 11 31  1  0
 14 32  1  0
 15 33  1  0
 16 34  1  0
 17 35  1  0
 20 36  1  0
 21 37  1  0
M  CHG  1  16   1
M  END
>  <UniqueID>  (12) 
12

>  <SMILES>  (12) 
CCn1cc(-c2cnc3[nH]cc(-c4cc[nH+]cn4)c3c2)cn1

>  <Energy>  (12) 
108.53015982326089

>  <Genealogy>  (12) 
CCn1cc(-c2cnc3[nH]cc(-c4cc[nH+]cn4)c3c2)cn1 (protonated)
CCn1cc(-c2cnc3[nH]cc(-c4cc[nH+]cn4)c3c2)cn1 (3D coordinates assigned)
CCn1cc(-c2cnc3[nH]cc(-c4cc[nH+]cn4)c3c2)cn1 (optimized conformer: 108.53015982326089 kcal/mol)

>  <smiles>  (12) 
CCn1cc(-c2cnc3[nH]cc(-c4ccncn4)c3c2)cn1

>  <score_type>  (12) 
oracle

>  <origin>  (12) 
adg

>  <m_score__min__energy>  (12) 
-8.3100000000000005

>  <m_primary>  (12) 
energy

$$$$
12:0
     RDKit          3D

 26 28  0  0  0  0  0  0  0  0999 V2000
   -6.4890   18.1110  -33.7590 C   0  0  0  0  0  0  0  0  0  0  0  0
   -6.5850   19.4350  -33.0480 C   0  0  0  0  0  0  0  0  0  0  0  0
   -5.4670   20.3020  -33.0570 C   0  0  0  0  0  0  0  0  0  0  0  0
   -5.5690   21.5230  -32.3960 C   0  0  0  0  0  0  0  0  0  0  0  0
   -4.6140   22.4770  -32.2960 N   0  0  0  0  0  0  0  0  0  0  0  0
   -5.1960   23.4520  -31.5670 C   0  0  0  0  0  0  0  0  0  0  0  0
   -4.6250   24.6250  -31.2000 N   0  0  0  0  0  0  0  0  0  0  0  0
   -5.3650   25.5030  -30.4580 C   0  0  0  0  0  0  0  0  0  0  0  0
   -6.6520   25.1980  -30.0940 N   0  0  0  0  0  0  0  0  0  0  0  0
   -7.2360   24.0190  -30.4590 C   0  0  0  0  0  0  0  0  0  0  0  0
   -6.4800   23.1330  -31.2120 C   0  0  0  0  0  0  0  0  0  0  0  0
   -6.7260   21.8900  -31.7450 C   0  0  0  0  0  0  0  0  0  0  0  0
   -7.8480   21.0710  -31.7090 C   0  0  0  0  0  0  0  0  0  0  0  0
   -7.7840   19.8220  -32.3680 C   0  0  0  0  0  0  0  0  0  0  0  0
   -8.9880   18.9180  -32.3430 C   0  0  0  0  0  0  0  0  0  0  0  0
   -6.4302   17.3003  -33.0179 H   0  0  0  0  0  0  0  0  0  0  0  0
   -7.3791   17.9679  -34.3892 H   0  0  0  0  0  0  0  0  0  0  0  0
   -5.5875   18.0978  -34.3892 H   0  0  0  0  0  0  0  0  0  0  0  0
   -4.5387   20.0179  -33.5743 H   0  0  0  0  0  0  0  0  0  0  0  0
   -3.6480   22.4630  -32.6920 H   0  0  0  0  0  0  0  0  0  0  0  0
   -4.9244   26.4627  -30.1501 H   0  0  0  0  0  0  0  0  0  0  0  0
   -8.2691   23.7804  -30.1663 H   0  0  0  0  0  0  0  0  0  0  0  0
   -8.7609   21.3859  -31.1822 H   0  0  0  0  0  0  0  0  0  0  0  0
   -9.2674   18.7082  -31.3000 H   0  0  0  0  0  0  0  0  0  0  0  0
   -9.8273   19.4109  -32.8554 H   0  0  0  0  0  0  0  0  0  0  0  0
   -8.7488   17.9745  -32.8554 H   0  0  0  0  0  0  0  0  0  0  0  0
  1  2  1  0
  2  3  2  0
  3  4  1  0
  4  5  1  0
  5  6  1  0
  6  7  2  0
  7  8  1  0
  8  9  2  0
  9 10  1  0
 10 11  2  0
 11 12  1  0
 12 13  1  0
 13 14  2  0
 14 15  1  0
 14  2  1  0
 12  4  2  0
 11  6  1  0
  1 16  1  0
  1 17  1  0
  1 18  1  0
  3 19  1  0
  5 20  1  0
  8 21  1  0
 10 22  1  0
 13 23  1  0
 15 24  1  0
 15 25  1  0
 15 26  1  0
M  END
>  <UniqueID>  (13) 
13

>  <SMILES>  (13) 
Cc1cc2[nH]c3ncncc3c2cc1C

>  <Energy>  (13) 
72.35440586072662

>  <Genealogy>  (13) 
Cc1cc2[nH]c3ncncc3c2cc1C (3D coordinates assigned)
Cc1cc2[nH]c3ncncc3c2cc1C (optimized conformer: 72.35440586072662 kcal/mol)

>  <smiles>  (13) 
Cc1cc2[nH]c3ncncc3c2cc1C

>  <score_type>  (13) 
oracle

>  <origin>  (13) 
adg

>  <m_score__min__energy>  (13) 
-7.0099999999999998

>  <m_primary>  (13) 
energy

$$$$
13:0
     RDKit          3D

 40 41  0  0  0  0  0  0  0  0999 V2000
   -2.2940   23.4250  -29.7500 C   0  0  0  0  0  0  0  0  0  0  0  0
   -3.1090   24.2640  -30.5630 O   0  0  0  0  0  0  0  0  0  0  0  0
   -4.5120   24.2530  -30.5580 C   0  0  0  0  0  0  0  0  0  0  0  0
   -5.2710   25.0980  -29.7250 C   0  0  0  0  0  0  0  0  0  0  0  0
   -6.6670   25.0510  -29.7600 C   0  0  0  0  0  0  0  0  0  0  0  0
   -7.3190   24.1590  -30.6140 C   0  0  0  0  0  0  0  0  0  0  0  0
   -6.5770   23.2980  -31.4420 C   0  0  0  0  0  0  0  0  0  0  0  0
   -7.2490   22.3880  -32.3380 N   0  0  0  0  0  0  0  0  0  0  0  0
   -8.6780   22.3100  -31.9990 C   0  0  0  0  0  0  0  0  0  0  0  0
   -9.2020   20.8730  -32.1220 C   0  0  0  0  0  0  0  0  0  0  0  0
   -8.3460   20.0910  -33.0220 N   0  0  0  0  0  0  0  0  0  0  0  0
   -7.8770   18.8730  -32.3550 C   0  0  0  0  0  0  0  0  0  0  0  0
   -6.7630   18.2530  -33.1580 C   0  0  0  0  0  0  0  0  0  0  0  0
   -6.7350   16.8600  -33.3470 C   0  0  0  0  0  0  0  0  0  0  0  0
   -5.6890   16.2620  -34.0560 C   0  0  0  0  0  0  0  0  0  0  0  0
   -4.6570   17.0490  -34.5750 C   0  0  0  0  0  0  0  0  0  0  0  0
   -4.6670   18.4340  -34.3800 C   0  0  0  0  0  0  0  0  0  0  0  0
   -5.7110   19.0370  -33.6690 C   0  0  0  0  0  0  0  0  0  0  0  0
   -5.6830   20.3770  -33.4650 F   0  0  0  0  0  0  0  0  0  0  0  0
   -5.1730   23.3640  -31.4160 C   0  0  0  0  0  0  0  0  0  0  0  0
   -2.4966   23.6336  -28.6891 H   0  0  0  0  0  0  0  0  0  0  0  0
   -2.5222   22.3709  -29.9665 H   0  0  0  0  0  0  0  0  0  0  0  0
   -1.2338   23.6226  -29.9665 H   0  0  0  0  0  0  0  0  0  0  0  0
   -4.7630   25.7973  -29.0446 H   0  0  0  0  0  0  0  0  0  0  0  0
   -7.2544   25.7188  -29.1127 H   0  0  0  0  0  0  0  0  0  0  0  0
   -8.4183   24.1297  -30.6391 H   0  0  0  0  0  0  0  0  0  0  0  0
   -7.1320   22.7200  -33.3240 H   0  0  0  0  0  0  0  0  0  0  0  0
   -6.8160   21.4370  -32.2610 H   0  0  0  0  0  0  0  0  0  0  0  0
   -8.8204   22.6561  -30.9646 H   0  0  0  0  0  0  0  0  0  0  0  0
   -9.2370   22.9450  -32.7020 H   0  0  0  0  0  0  0  0  0  0  0  0
   -9.2072   20.4029  -31.1275 H   0  0  0  0  0  0  0  0  0  0  0  0
  -10.2219   20.8993  -32.5333 H   0  0  0  0  0  0  0  0  0  0  0  0
   -8.9270   19.8050  -33.8480 H   0  0  0  0  0  0  0  0  0  0  0  0
   -7.5072   19.1253  -31.3502 H   0  0  0  0  0  0  0  0  0  0  0  0
   -8.7092   18.1583  -32.2729 H   0  0  0  0  0  0  0  0  0  0  0  0
   -7.5417   16.2364  -32.9342 H   0  0  0  0  0  0  0  0  0  0  0  0
   -5.6781   15.1722  -34.2054 H   0  0  0  0  0  0  0  0  0  0  0  0
   -3.8366   16.5789  -35.1371 H   0  0  0  0  0  0  0  0  0  0  0  0
   -3.8521   19.0510  -34.7865 H   0  0  0  0  0  0  0  0  0  0  0  0
   -4.5861   22.7097  -32.0774 H   0  0  0  0  0  0  0  0  0  0  0  0
  1  2  1  0
  2  3  1  0
  3  4  2  0
  4  5  1  0
  5  6  2  0
  6  7  1  0
  7  8  1  0
  8  9  1  0
  9 10  1  0
 10 11  1  0
 11 12  1  0
 12 13  1  0
 13 14  2  0
 14 15  1  0
 15 16  2  0
 16 17  1  0
 17 18  2  0
 18 19  1  0
  7 20  2  0
 20  3  1  0
 18 13  1  0
  1 21  1  0
  1 22  1  0
  1 23  1  0
  4 24  1  0
  5 25  1  0
  6 26  1  0
  8 27  1  0
  8 28  1  0
  9 29  1  0
  9 30  1  0
 10 31  1  0
 10 32  1  0
 11 33  1  0
 12 34  1  0
 12 35  1  0
 14 36  1  0
 15 37  1  0
 16 38  1  0
 17 39  1  0
 20 40  1  0
M  CHG  1   8   1
M  END
>  <UniqueID>  (14) 
14

>  <SMILES>  (14) 
COc1cccc([NH2+]CCNCc2ccccc2F)c1

>  <Energy>  (14) 
36.660878780339644

>  <Genealogy>  (14) 
COc1cccc([NH2+]CCNCc2ccccc2F)c1 (protonated)
COc1cccc([NH2+]CCNCc2ccccc2F)c1 (3D coordinates assigned)
COc1cccc([NH2+]CCNCc2ccccc2F)c1 (optimized conformer: 36.660878780339644 kcal/mol)

>  <smiles>  (14) 
COc1cccc(NCCNCc2ccccc2F)c1

>  <score_type>  (14) 
oracle

>  <origin>  (14) 
adg

>  <m_score__min__energy>  (14) 
-6.5300000000000002

>  <m_primary>  (14) 
energy

$$$$
14:0
     RDKit          3D

 46 49  0  0  0  0  0  0  0  0999 V2000
   -0.4740   21.9320  -25.5810 C   0  0  0  0  0  0  0  0  0  0  0  0
   -1.5390   21.5470  -26.5020 N   0  0  0  0  0  0  0  0  0  0  0  0
   -2.0480   20.3030  -26.6700 C   0  0  0  0  0  0  0  0  0  0  0  0
   -3.0600   20.3150  -27.6250 C   0  0  0  0  0  0  0  0  0  0  0  0
   -3.1530   21.6270  -28.0400 C   0  0  0  0  0  0  0  0  0  0  0  0
   -3.9940   22.2210  -28.9770 C   0  0  0  0  0  0  0  0  0  0  0  0
   -3.8620   23.6060  -29.2020 C   0  0  0  0  0  0  0  0  0  0  0  0
   -4.8990   24.3970  -30.3840 S   0  0  0  0  0  0  0  0  0  0  0  0
   -6.2230   24.6980  -29.7380 O   0  0  0  0  0  0  0  0  0  0  0  0
   -4.2680   25.6830  -30.8420 O   0  0  0  0  0  0  0  0  0  0  0  0
   -5.1310   23.3440  -31.7600 N   0  0  0  0  0  0  0  0  0  0  0  0
   -6.4740   22.7080  -31.7240 C   0  0  0  0  0  0  0  0  0  0  0  0
   -6.4390   21.1860  -31.5260 C   0  0  0  0  0  0  0  0  0  0  0  0
   -5.5240   20.5710  -32.4970 N   0  0  0  0  0  0  0  0  0  0  0  0
   -5.7710   19.2420  -33.0060 C   0  0  0  0  0  0  0  0  0  0  0  0
   -6.9570   18.5570  -32.6820 C   0  0  0  0  0  0  0  0  0  0  0  0
   -7.1910   17.2700  -33.1740 C   0  0  0  0  0  0  0  0  0  0  0  0
   -6.2440   16.6500  -33.9930 C   0  0  0  0  0  0  0  0  0  0  0  0
   -5.0600   17.3160  -34.3200 C   0  0  0  0  0  0  0  0  0  0  0  0
   -3.8740   16.5360  -35.3510 Cl  0  0  0  0  0  0  0  0  0  0  0  0
   -4.8230   18.6040  -33.8300 C   0  0  0  0  0  0  0  0  0  0  0  0
   -4.2940   21.2850  -32.8620 C   0  0  0  0  0  0  0  0  0  0  0  0
   -4.0010   22.4000  -31.8560 C   0  0  0  0  0  0  0  0  0  0  0  0
   -2.9020   24.3530  -28.4770 C   0  0  0  0  0  0  0  0  0  0  0  0
   -2.0680   23.7240  -27.5360 C   0  0  0  0  0  0  0  0  0  0  0  0
   -2.2210   22.3500  -27.3410 C   0  0  0  0  0  0  0  0  0  0  0  0
   -0.8219   21.8062  -24.5451 H   0  0  0  0  0  0  0  0  0  0  0  0
    0.4066   21.2953  -25.7519 H   0  0  0  0  0  0  0  0  0  0  0  0
   -0.2041   22.9846  -25.7519 H   0  0  0  0  0  0  0  0  0  0  0  0
   -1.7088   19.4083  -26.1273 H   0  0  0  0  0  0  0  0  0  0  0  0
   -3.6581   19.4605  -27.9744 H   0  0  0  0  0  0  0  0  0  0  0  0
   -4.7396   21.6268  -29.5256 H   0  0  0  0  0  0  0  0  0  0  0  0
   -7.0447   23.1516  -30.8949 H   0  0  0  0  0  0  0  0  0  0  0  0
   -6.9391   22.8909  -32.7039 H   0  0  0  0  0  0  0  0  0  0  0  0
   -6.0933   20.9597  -30.5066 H   0  0  0  0  0  0  0  0  0  0  0  0
   -7.4501   20.7801  -31.6773 H   0  0  0  0  0  0  0  0  0  0  0  0
   -7.7060   19.0386  -32.0362 H   0  0  0  0  0  0  0  0  0  0  0  0
   -8.1222   16.7444  -32.9160 H   0  0  0  0  0  0  0  0  0  0  0  0
   -6.4305   15.6375  -34.3804 H   0  0  0  0  0  0  0  0  0  0  0  0
   -3.8888   19.1233  -34.0900 H   0  0  0  0  0  0  0  0  0  0  0  0
   -3.4532   20.5758  -32.8709 H   0  0  0  0  0  0  0  0  0  0  0  0
   -4.4251   21.7315  -33.8587 H   0  0  0  0  0  0  0  0  0  0  0  0
   -3.8223   21.9528  -30.8670 H   0  0  0  0  0  0  0  0  0  0  0  0
   -3.1139   22.9530  -32.1983 H   0  0  0  0  0  0  0  0  0  0  0  0
   -2.8080   25.4350  -28.6516 H   0  0  0  0  0  0  0  0  0  0  0  0
   -1.3180   24.2968  -26.9708 H   0  0  0  0  0  0  0  0  0  0  0  0
  1  2  1  0
  2  3  1  0
  3  4  2  0
  4  5  1  0
  5  6  2  0
  6  7  1  0
  7  8  1  0
  8  9  2  0
  8 10  2  0
  8 11  1  0
 11 12  1  0
 12 13  1  0
 13 14  1  0
 14 15  1  0
 15 16  2  0
 16 17  1  0
 17 18  2  0
 18 19  1  0
 19 20  1  0
 19 21  2  0
 14 22  1  0
 22 23  1  0
  7 24  2  0
 24 25  1  0
 25 26  2  0
 26  2  1  0
 26  5  1  0
 23 11  1  0
 21 15  1  0
  1 27  1  0
  1 28  1  0
  1 29  1  0
  3 30  1  0
  4 31  1  0
  6 32  1  0
 12 33  1  0
 12 34  1  0
 13 35  1  0
 13 36  1  0
 16 37  1  0
 17 38  1  0
 18 39  1  0
 21 40  1  0
 22 41  1  0
 22 42  1  0
 23 43  1  0
 23 44  1  0
 24 45  1  0
 25 46  1  0
M  END
>  <UniqueID>  (15) 
15

>  <SMILES>  (15) 
Cn1ccc2cc(S(=O)(=O)N3CCN(c4cccc(Cl)c4)CC3)ccc21

>  <Energy>  (15) 
90.14361189641343

>  <Genealogy>  (15) 
Cn1ccc2cc(S(=O)(=O)N3CCN(c4cccc(Cl)c4)CC3)ccc21 (3D coordinates assigned)
Cn1ccc2cc(S(=O)(=O)N3CCN(c4cccc(Cl)c4)CC3)ccc21 (nonaromatic ring conformer: 90.14361189641343 kcal/mol)

>  <smiles>  (15) 
Cn1ccc2cc(S(=O)(=O)N3CCN(c4cccc(Cl)c4)CC3)ccc21

>  <score_type>  (15) 
oracle

>  <origin>  (15) 
adg

>  <m_score__min__energy>  (15) 
-9.4800000000000004

>  <m_primary>  (15) 
energy

$$$$
15:0
     RDKit          3D

 29 30  0  0  0  0  0  0  0  0999 V2000
   -2.4990   24.5670  -29.3220 C   0  0  0  0  0  0  0  0  0  0  0  0
   -3.4870   25.1040  -30.1950 O   0  0  0  0  0  0  0  0  0  0  0  0
   -4.6850   24.4570  -30.5320 C   0  0  0  0  0  0  0  0  0  0  0  0
   -5.8920   25.0590  -30.1600 C   0  0  0  0  0  0  0  0  0  0  0  0
   -7.1150   24.4590  -30.4660 C   0  0  0  0  0  0  0  0  0  0  0  0
   -7.1480   23.2390  -31.1560 C   0  0  0  0  0  0  0  0  0  0  0  0
   -8.3690   22.6230  -31.4600 C   0  0  0  0  0  0  0  0  0  0  0  0
   -8.3910   21.4070  -32.1470 C   0  0  0  0  0  0  0  0  0  0  0  0
   -7.1970   20.7940  -32.5550 C   0  0  0  0  0  0  0  0  0  0  0  0
   -7.2540   19.5330  -33.2440 N   0  0  0  0  0  0  0  0  0  0  0  0
   -6.5820   18.3430  -32.8030 C   0  0  0  0  0  0  0  0  0  0  0  0
   -6.8610   17.0400  -33.4750 C   0  0  0  0  0  0  0  0  0  0  0  0
   -5.6960   18.4000  -31.9080 O   0  0  0  0  0  0  0  0  0  0  0  0
   -5.9690   21.3980  -32.2320 C   0  0  0  0  0  0  0  0  0  0  0  0
   -5.9360   22.6200  -31.5420 C   0  0  0  0  0  0  0  0  0  0  0  0
   -4.7120   23.2300  -31.2250 C   0  0  0  0  0  0  0  0  0  0  0  0
   -2.8033   24.7324  -28.2780 H   0  0  0  0  0  0  0  0  0  0  0  0
   -2.3940   23.4877  -29.5067 H   0  0  0  0  0  0  0  0  0  0  0  0
   -1.5362   25.0660  -29.5067 H   0  0  0  0  0  0  0  0  0  0  0  0
   -5.8772   26.0170  -29.6197 H   0  0  0  0  0  0  0  0  0  0  0  0
   -8.0549   24.9447  -30.1650 H   0  0  0  0  0  0  0  0  0  0  0  0
   -9.3134   23.0985  -31.1567 H   0  0  0  0  0  0  0  0  0  0  0  0
   -9.3543   20.9252  -32.3703 H   0  0  0  0  0  0  0  0  0  0  0  0
   -7.7460   19.4980  -34.1660 H   0  0  0  0  0  0  0  0  0  0  0  0
   -7.0273   16.2632  -32.7141 H   0  0  0  0  0  0  0  0  0  0  0  0
   -7.7589   17.1362  -34.1031 H   0  0  0  0  0  0  0  0  0  0  0  0
   -6.0024   16.7601  -34.1031 H   0  0  0  0  0  0  0  0  0  0  0  0
   -5.0272   20.9093  -32.5222 H   0  0  0  0  0  0  0  0  0  0  0  0
   -3.7683   22.7474  -31.5192 H   0  0  0  0  0  0  0  0  0  0  0  0
  1  2  1  0
  2  3  1  0
  3  4  2  0
  4  5  1  0
  5  6  2  0
  6  7  1  0
  7  8  2  0
  8  9  1  0
  9 10  1  0
 10 11  1  0
 11 12  1  0
 11 13  2  0
  9 14  2  0
 14 15  1  0
 15 16  2  0
 16  3  1  0
 15  6  1  0
  1 17  1  0
  1 18  1  0
  1 19  1  0
  4 20  1  0
  5 21  1  0
  7 22  1  0
  8 23  1  0
 10 24  1  0
 12 25  1  0
 12 26  1  0
 12 27  1  0
 14 28  1  0
 16 29  1  0
M  END
>  <UniqueID>  (16) 
16

>  <SMILES>  (16) 
COc1ccc2ccc(NC(C)=O)cc2c1

>  <Energy>  (16) 
33.21559949741889

>  <Genealogy>  (16) 
COc1ccc2ccc(NC(C)=O)cc2c1 (3D coordinates assigned)
COc1ccc2ccc(NC(C)=O)cc2c1 (optimized conformer: 33.21559949741889 kcal/mol)

>  <smiles>  (16) 
COc1ccc2ccc(NC(C)=O)cc2c1

>  <score_type>  (16) 
oracle

>  <origin>  (16) 
adg

>  <m_score__min__energy>  (16) 
-7.3899999999999997

>  <m_primary>  (16) 
energy

$$$$
16:0
     RDKit          3D

 25 27  0  0  0  0  0  0  0  0999 V2000
   -8.8260   19.3390  -33.8190 H   0  0  0  0  0  0  0  0  0  0  0  0
   -8.1660   19.3490  -33.0310 N   0  0  0  0  0  0  0  0  0  0  0  0
   -6.9600   19.8260  -32.9420 C   0  0  0  0  0  0  0  0  0  0  0  0
   -5.9220   19.0190  -33.4740 C   0  0  0  0  0  0  0  0  0  0  0  0
   -6.1870   17.7600  -34.0690 C   0  0  0  0  0  0  0  0  0  0  0  0
   -7.2223   17.3922  -34.1235 H   0  0  0  0  0  0  0  0  0  0  0  0
   -5.1520   16.9820  -34.5860 C   0  0  0  0  0  0  0  0  0  0  0  0
   -5.3752   16.0076  -35.0451 H   0  0  0  0  0  0  0  0  0  0  0  0
   -3.8350   17.4350  -34.5230 C   0  0  0  0  0  0  0  0  0  0  0  0
   -2.4200   16.3660  -35.2320 Br  0  0  0  0  0  0  0  0  0  0  0  0
   -3.5540   18.6710  -33.9410 C   0  0  0  0  0  0  0  0  0  0  0  0
   -2.5145   19.0273  -33.8916 H   0  0  0  0  0  0  0  0  0  0  0  0
   -4.5890   19.4650  -33.4170 C   0  0  0  0  0  0  0  0  0  0  0  0
   -4.2970   20.6630  -32.8540 N   0  0  0  0  0  0  0  0  0  0  0  0
   -3.2970   20.9710  -32.8250 H   0  0  0  0  0  0  0  0  0  0  0  0
   -5.2560   21.4760  -32.3300 C   0  0  0  0  0  0  0  0  0  0  0  0
   -4.8450   22.6970  -31.7710 C   0  0  0  0  0  0  0  0  0  0  0  0
   -3.7772   22.9613  -31.7704 H   0  0  0  0  0  0  0  0  0  0  0  0
   -5.7650   23.5720  -31.2210 C   0  0  0  0  0  0  0  0  0  0  0  0
   -5.1790   25.2270  -30.4670 Br  0  0  0  0  0  0  0  0  0  0  0  0
   -7.1100   23.2440  -31.2180 C   0  0  0  0  0  0  0  0  0  0  0  0
   -7.8332   23.9464  -30.7779 H   0  0  0  0  0  0  0  0  0  0  0  0
   -7.5720   22.0370  -31.7630 C   0  0  0  0  0  0  0  0  0  0  0  0
   -9.4850   21.8990  -31.5950 Br  0  0  0  0  0  0  0  0  0  0  0  0
   -6.6390   21.1010  -32.3450 C   0  0  0  0  0  0  0  0  0  0  0  0
  1  2  1  0
  2  3  2  0
  3  4  1  0
  4  5  2  0
  5  6  1  0
  5  7  1  0
  7  8  1  0
  7  9  2  0
  9 10  1  0
  9 11  1  0
 11 12  1  0
 11 13  2  0
 13 14  1  0
 14 15  1  0
 14 16  1  0
 16 17  2  0
 17 18  1  0
 17 19  1  0
 19 20  1  0
 19 21  2  0
 21 22  1  0
 21 23  1  0
 23 24  1  0
 23 25  2  0
 25  3  1  0
 13  4  1  0
 25 16  1  0
M  END
>  <UniqueID>  (17) 
17

>  <SMILES>  (17) 
[H]/N=c1/c2ccc(Br)cc2[nH]c2cc(Br)cc(Br)c12

>  <Energy>  (17) 
55.581402519846066

>  <Genealogy>  (17) 
[H]/N=c1/c2ccc(Br)cc2[nH]c2cc(Br)cc(Br)c12 (cis-trans isomerization)
[H]/N=c1/c2ccc(Br)cc2[nH]c2cc(Br)cc(Br)c12 (3D coordinates assigned)
[H]/N=c1/c2ccc(Br)cc2[nH]c2cc(Br)cc(Br)c12 (optimized conformer: 55.581402519846066 kcal/mol)

>  <smiles>  (17) 
N=c1c2ccc(Br)cc2[nH]c2cc(Br)cc(Br)c12

>  <score_type>  (17) 
oracle

>  <origin>  (17) 
adg

>  <m_score__min__energy>  (17) 
-8.4199999999999999

>  <m_primary>  (17) 
energy

$$$$
17:0
     RDKit          3D

 46 49  0  0  0  0  0  0  0  0999 V2000
   -6.1900   26.9090  -29.1640 H   0  0  0  0  0  0  0  0  0  0  0  0
   -5.7310   26.7940  -30.0950 N   0  0  0  0  0  0  0  0  0  0  0  0
   -5.3310   25.6440  -30.5350 C   0  0  0  0  0  0  0  0  0  0  0  0
   -4.0390   25.2680  -30.3580 N   0  0  0  0  0  0  0  0  0  0  0  0
   -3.5800   24.0680  -30.8010 C   0  0  0  0  0  0  0  0  0  0  0  0
   -2.5275   23.7869  -30.6488 H   0  0  0  0  0  0  0  0  0  0  0  0
   -4.4600   23.1890  -31.4550 C   0  0  0  0  0  0  0  0  0  0  0  0
   -4.0080   21.8770  -31.9750 C   0  0  0  0  0  0  0  0  0  0  0  0
   -3.8850   21.6910  -33.3630 C   0  0  0  0  0  0  0  0  0  0  0  0
   -4.1291   22.5170  -34.0472 H   0  0  0  0  0  0  0  0  0  0  0  0
   -3.4560   20.4680  -33.8810 C   0  0  0  0  0  0  0  0  0  0  0  0
   -3.3653   20.3363  -34.9693 H   0  0  0  0  0  0  0  0  0  0  0  0
   -3.1400   19.4060  -33.0210 C   0  0  0  0  0  0  0  0  0  0  0  0
   -2.6870   18.1120  -33.5680 C   0  0  0  0  0  0  0  0  0  0  0  0
   -1.3170   17.8020  -33.5000 C   0  0  0  0  0  0  0  0  0  0  0  0
   -0.6117   18.5360  -33.0831 H   0  0  0  0  0  0  0  0  0  0  0  0
   -0.8450   16.5710  -33.9570 C   0  0  0  0  0  0  0  0  0  0  0  0
    0.2291   16.3403  -33.9021 H   0  0  0  0  0  0  0  0  0  0  0  0
   -1.7320   15.6330  -34.4830 C   0  0  0  0  0  0  0  0  0  0  0  0
   -1.3594   14.6578  -34.8296 H   0  0  0  0  0  0  0  0  0  0  0  0
   -3.0930   15.9310  -34.5700 C   0  0  0  0  0  0  0  0  0  0  0  0
   -3.7877   15.1850  -34.9833 H   0  0  0  0  0  0  0  0  0  0  0  0
   -3.5850   17.1720  -34.1360 C   0  0  0  0  0  0  0  0  0  0  0  0
   -5.3140   17.5110  -34.3390 S   0  0  0  0  0  0  0  0  0  0  0  0
   -5.5150   18.2340  -35.6410 O   0  0  0  0  0  0  0  0  0  0  0  0
   -6.1020   16.2300  -34.3540 O   0  0  0  0  0  0  0  0  0  0  0  0
   -5.8790   18.5200  -33.0280 N   0  0  0  0  0  0  0  0  0  0  0  0
   -6.8060   17.7990  -32.1520 C   0  0  0  0  0  0  0  0  0  0  0  0
   -7.3611   17.0443  -32.7284 H   0  0  0  0  0  0  0  0  0  0  0  0
   -6.2635   17.2780  -31.3493 H   0  0  0  0  0  0  0  0  0  0  0  0
   -7.7680   18.8310  -31.5780 C   0  0  0  0  0  0  0  0  0  0  0  0
   -8.8047   18.4698  -31.6469 H   0  0  0  0  0  0  0  0  0  0  0  0
   -7.5665   19.0286  -30.5148 H   0  0  0  0  0  0  0  0  0  0  0  0
   -7.5830   20.0780  -32.4270 C   0  0  0  0  0  0  0  0  0  0  0  0
   -8.5456   20.4052  -32.8470 H   0  0  0  0  0  0  0  0  0  0  0  0
   -7.1907   20.9213  -31.8397 H   0  0  0  0  0  0  0  0  0  0  0  0
   -6.6310   19.6660  -33.5350 C   0  0  0  0  0  0  0  0  0  0  0  0
   -7.1954   19.3824  -34.4356 H   0  0  0  0  0  0  0  0  0  0  0  0
   -5.9599   20.4924  -33.8119 H   0  0  0  0  0  0  0  0  0  0  0  0
   -3.2950   19.5730  -31.6380 C   0  0  0  0  0  0  0  0  0  0  0  0
   -3.0766   18.7352  -30.9594 H   0  0  0  0  0  0  0  0  0  0  0  0
   -3.7250   20.7960  -31.1140 C   0  0  0  0  0  0  0  0  0  0  0  0
   -3.9060   20.9030  -29.7740 F   0  0  0  0  0  0  0  0  0  0  0  0
   -5.7500   23.5780  -31.6450 N   0  0  0  0  0  0  0  0  0  0  0  0
   -6.2080   24.7780  -31.2010 C   0  0  0  0  0  0  0  0  0  0  0  0
   -7.2571   25.0665  -31.3630 H   0  0  0  0  0  0  0  0  0  0  0  0
  1  2  1  0
  2  3  2  0
  3  4  1  0
  4  5  1  0
  5  6  1  0
  5  7  2  0
  7  8  1  0
  8  9  2  0
  9 10  1  0
  9 11  1  0
 11 12  1  0
 11 13  2  0
 13 14  1  0
 14 15  2  0
 15 16  1  0
 15 17  1  0
 17 18  1  0
 17 19  2  0
 19 20  1  0
 19 21  1  0
 21 22  1  0
 21 23  2  0
 23 24  1  0
 24 25  2  0
 24 26  2  0
 24 27  1  0
 27 28  1  0
 28 29  1  0
 28 30  1  0
 28 31  1  0
 31 32  1  0
 31 33  1  0
 31 34  1  0
 34 35  1  0
 34 36  1  0
 34 37  1  0
 37 38  1  0
 37 39  1  0
 13 40  1  0
 40 41  1  0
 40 42  2  0
 42 43  1  0
  7 44  1  0
 44 45  2  0
 45 46  1  0
 45  3  1  0
 42  8  1  0
 23 14  1  0
 37 27  1  0
M  CHG  1   4  -1
M  END
>  <UniqueID>  (18) 
18

>  <SMILES>  (18) 
[H]/N=c1\cnc(-c2ccc(-c3ccccc3S(=O)(=O)N3CCCC3)cc2F)c[n-]1

>  <Energy>  (18) 
66.2221537651155

>  <Genealogy>  (18) 
N=c1cnc(-c2ccc(-c3ccccc3S(=O)(=O)N3CCCC3)cc2F)c[n-]1 (protonated)
[H]/N=c1\cnc(-c2ccc(-c3ccccc3S(=O)(=O)N3CCCC3)cc2F)c[n-]1 (cis-trans isomerization)
[H]/N=c1\cnc(-c2ccc(-c3ccccc3S(=O)(=O)N3CCCC3)cc2F)c[n-]1 (3D coordinates assigned)
[H]/N=c1\cnc(-c2ccc(-c3ccccc3S(=O)(=O)N3CCCC3)cc2F)c[n-]1 (nonaromatic ring conformer: 66.2221537651155 kcal/mol)

>  <smiles>  (18) 
N=c1cnc(-c2ccc(-c3ccccc3S(=O)(=O)N3CCCC3)cc2F)c[nH]1

>  <score_type>  (18) 
oracle

>  <origin>  (18) 
adg

>  <m_score__min__energy>  (18) 
-9.6099999999999994

>  <m_primary>  (18) 
energy

$$$$
18:0
     RDKit          3D

 49 51  0  0  0  0  0  0  0  0999 V2000
   -5.1380   15.9940  -33.0330 C   0  0  0  0  0  0  0  0  0  0  0  0
   -6.5100   16.4560  -33.5120 C   0  0  0  0  0  0  0  0  0  0  0  0
   -6.7830   17.8670  -33.0630 C   0  0  0  0  0  0  0  0  0  0  0  0
   -7.6250   18.1120  -31.9680 C   0  0  0  0  0  0  0  0  0  0  0  0
   -7.9150   19.4240  -31.5770 C   0  0  0  0  0  0  0  0  0  0  0  0
   -7.3810   20.5120  -32.2870 C   0  0  0  0  0  0  0  0  0  0  0  0
   -7.7280   21.9200  -31.8800 C   0  0  0  0  0  0  0  0  0  0  0  0
   -6.5400   22.7750  -31.9830 N   0  0  0  0  0  0  0  0  0  0  0  0
   -6.8630   24.1590  -31.6120 C   0  0  0  0  0  0  0  0  0  0  0  0
   -6.5510   24.4050  -30.1300 C   0  0  0  0  0  0  0  0  0  0  0  0
   -5.0490   24.5260  -29.8200 C   0  0  0  0  0  0  0  0  0  0  0  0
   -4.2540   23.9120  -30.8380 O   0  0  0  0  0  0  0  0  0  0  0  0
   -3.1210   23.1000  -30.6440 C   0  0  0  0  0  0  0  0  0  0  0  0
   -2.2160   23.3180  -29.5860 C   0  0  0  0  0  0  0  0  0  0  0  0
   -1.1340   22.4580  -29.3830 C   0  0  0  0  0  0  0  0  0  0  0  0
   -0.9170   21.3860  -30.2470 C   0  0  0  0  0  0  0  0  0  0  0  0
   -1.7810   21.1720  -31.3300 C   0  0  0  0  0  0  0  0  0  0  0  0
   -1.5670   20.1060  -32.2130 C   0  0  0  0  0  0  0  0  0  0  0  0
   -2.4400   19.9070  -33.2820 C   0  0  0  0  0  0  0  0  0  0  0  0
   -3.5210   20.7710  -33.4570 C   0  0  0  0  0  0  0  0  0  0  0  0
   -3.7260   21.8010  -32.5920 N   0  0  0  0  0  0  0  0  0  0  0  0
   -2.8880   22.0310  -31.5350 C   0  0  0  0  0  0  0  0  0  0  0  0
   -6.5500   20.2670  -33.3930 C   0  0  0  0  0  0  0  0  0  0  0  0
   -6.2540   18.9540  -33.7770 C   0  0  0  0  0  0  0  0  0  0  0  0
   -5.1168   15.9869  -31.9332 H   0  0  0  0  0  0  0  0  0  0  0  0
   -4.9403   14.9797  -33.4101 H   0  0  0  0  0  0  0  0  0  0  0  0
   -4.3671   16.6821  -33.4101 H   0  0  0  0  0  0  0  0  0  0  0  0
   -6.5418   16.4141  -34.6107 H   0  0  0  0  0  0  0  0  0  0  0  0
   -7.2761   15.7937  -33.0825 H   0  0  0  0  0  0  0  0  0  0  0  0
   -8.0600   17.2676  -31.4133 H   0  0  0  0  0  0  0  0  0  0  0  0
   -8.5652   19.6044  -30.7082 H   0  0  0  0  0  0  0  0  0  0  0  0
   -8.5156   22.3080  -32.5427 H   0  0  0  0  0  0  0  0  0  0  0  0
   -8.0855   21.9194  -30.8397 H   0  0  0  0  0  0  0  0  0  0  0  0
   -5.8300   22.4190  -31.2960 H   0  0  0  0  0  0  0  0  0  0  0  0
   -6.2649   24.8476  -32.2270 H   0  0  0  0  0  0  0  0  0  0  0  0
   -7.9357   24.3320  -31.7831 H   0  0  0  0  0  0  0  0  0  0  0  0
   -7.0442   25.3390  -29.8228 H   0  0  0  0  0  0  0  0  0  0  0  0
   -6.9213   23.5295  -29.5765 H   0  0  0  0  0  0  0  0  0  0  0  0
   -4.7825   25.5910  -29.7517 H   0  0  0  0  0  0  0  0  0  0  0  0
   -4.8498   24.0115  -28.8684 H   0  0  0  0  0  0  0  0  0  0  0  0
   -2.3632   24.1751  -28.9124 H   0  0  0  0  0  0  0  0  0  0  0  0
   -0.4505   22.6275  -28.5379 H   0  0  0  0  0  0  0  0  0  0  0  0
   -0.0675   20.7077  -30.0790 H   0  0  0  0  0  0  0  0  0  0  0  0
   -0.7135   19.4283  -32.0637 H   0  0  0  0  0  0  0  0  0  0  0  0
   -2.2773   19.0745  -33.9824 H   0  0  0  0  0  0  0  0  0  0  0  0
   -4.2118   20.6187  -34.2993 H   0  0  0  0  0  0  0  0  0  0  0  0
   -4.5510   22.4200  -32.7640 H   0  0  0  0  0  0  0  0  0  0  0  0
   -6.1300   21.1110  -33.9598 H   0  0  0  0  0  0  0  0  0  0  0  0
   -5.6023   18.7725  -34.6444 H   0  0  0  0  0  0  0  0  0  0  0  0
  1  2  1  0
  2  3  1  0
  3  4  2  0
  4  5  1  0
  5  6  2  0
  6  7  1  0
  7  8  1  0
  8  9  1  0
  9 10  1  0
 10 11  1  0
 11 12  1  0
 12 13  1  0
 13 14  2  0
 14 15  1  0
 15 16  2  0
 16 17  1  0
 17 18  2  0
 18 19  1  0
 19 20  2  0
 20 21  1  0
 21 22  2  0
  6 23  1  0
 23 24  2  0
 24  3  1  0
 22 13  1  0
 22 17  1  0
  1 25  1  0
  1 26  1  0
  1 27  1  0
  2 28  1  0
  2 29  1  0
  4 30  1  0
  5 31  1  0
  7 32  1  0
  7 33  1  0
  8 34  1  0
  9 35  1  0
  9 36  1  0
 10 37  1  0
 10 38  1  0
 11 39  1  0
 11 40  1  0
 14 41  1  0
 15 42  1  0
 16 43  1  0
 18 44  1  0
 19 45  1  0
 20 46  1  0
 21 47  1  0
 23 48  1  0
 24 49  1  0
M  CHG  1  21   1
M  END
>  <UniqueID>  (19) 
19

>  <SMILES>  (19) 
CCc1ccc(CNCCCOc2cccc3ccc[nH+]c23)cc1

>  <Energy>  (19) 
47.509260291887706

>  <Genealogy>  (19) 
CCc1ccc(CNCCCOc2cccc3ccc[nH+]c23)cc1 (protonated)
CCc1ccc(CNCCCOc2cccc3ccc[nH+]c23)cc1 (3D coordinates assigned)
CCc1ccc(CNCCCOc2cccc3ccc[nH+]c23)cc1 (optimized conformer: 47.509260291887706 kcal/mol)

>  <smiles>  (19) 
CCc1ccc(CNCCCOc2cccc3cccnc23)cc1

>  <score_type>  (19) 
oracle

>  <origin>  (19) 
adg

>  <m_score__min__energy>  (19) 
-7.7699999999999996

>  <m_primary>  (19) 
energy

$$$$
19:0
     RDKit          3D

 48 51  0  0  0  0  0  0  0  0999 V2000
   -1.7110   19.3830  -33.8390 C   0  0  0  0  0  0  0  0  0  0  0  0
   -2.6350   18.7950  -32.9730 C   0  0  0  0  0  0  0  0  0  0  0  0
   -3.5680   19.5870  -32.2970 C   0  0  0  0  0  0  0  0  0  0  0  0
   -3.5890   20.9830  -32.4860 C   0  0  0  0  0  0  0  0  0  0  0  0
   -4.5660   21.8420  -31.7700 C   0  0  0  0  0  0  0  0  0  0  0  0
   -4.2370   23.1370  -31.4980 N   0  0  0  0  0  0  0  0  0  0  0  0
   -5.1250   23.9180  -30.8460 C   0  0  0  0  0  0  0  0  0  0  0  0
   -4.9350   25.5230  -30.4060 S   0  0  0  0  0  0  0  0  0  0  0  0
   -6.4760   25.5720  -29.7020 C   0  0  0  0  0  0  0  0  0  0  0  0
   -7.1200   24.3830  -29.8030 N   0  0  0  0  0  0  0  0  0  0  0  0
   -6.3570   23.4600  -30.4440 C   0  0  0  0  0  0  0  0  0  0  0  0
   -6.7080   22.1300  -30.7300 C   0  0  0  0  0  0  0  0  0  0  0  0
   -7.9410   21.5530  -30.3800 O   0  0  0  0  0  0  0  0  0  0  0  0
   -9.1460   21.6330  -31.1370 C   0  0  0  0  0  0  0  0  0  0  0  0
   -9.0840   20.6660  -32.3200 C   0  0  0  0  0  0  0  0  0  0  0  0
   -8.5290   19.2920  -31.9070 C   0  0  0  0  0  0  0  0  0  0  0  0
   -7.1280   19.1160  -32.3540 N   0  0  0  0  0  0  0  0  0  0  0  0
   -6.6710   17.7150  -32.1610 C   0  0  0  0  0  0  0  0  0  0  0  0
   -6.7950   16.8740  -33.4390 C   0  0  0  0  0  0  0  0  0  0  0  0
   -5.9370   17.4590  -34.5740 C   0  0  0  0  0  0  0  0  0  0  0  0
   -5.7280   18.9750  -34.4320 C   0  0  0  0  0  0  0  0  0  0  0  0
   -6.9250   19.6320  -33.7350 C   0  0  0  0  0  0  0  0  0  0  0  0
   -5.7960   21.3570  -31.3920 N   0  0  0  0  0  0  0  0  0  0  0  0
   -2.6430   21.5650  -33.3510 C   0  0  0  0  0  0  0  0  0  0  0  0
   -1.7140   20.7670  -34.0260 C   0  0  0  0  0  0  0  0  0  0  0  0
   -0.9814   18.7568  -34.3734 H   0  0  0  0  0  0  0  0  0  0  0  0
   -2.6289   17.7054  -32.8221 H   0  0  0  0  0  0  0  0  0  0  0  0
   -4.2903   19.1172  -31.6132 H   0  0  0  0  0  0  0  0  0  0  0  0
   -6.9034   26.4635  -29.2199 H   0  0  0  0  0  0  0  0  0  0  0  0
   -9.9985   21.3684  -30.4942 H   0  0  0  0  0  0  0  0  0  0  0  0
   -9.2685   22.6589  -31.5145 H   0  0  0  0  0  0  0  0  0  0  0  0
  -10.0982   20.5332  -32.7247 H   0  0  0  0  0  0  0  0  0  0  0  0
   -8.4092   21.0939  -33.0760 H   0  0  0  0  0  0  0  0  0  0  0  0
   -8.5681   19.2054  -30.8111 H   0  0  0  0  0  0  0  0  0  0  0  0
   -9.1437   18.5140  -32.3834 H   0  0  0  0  0  0  0  0  0  0  0  0
   -5.6164   17.7280  -31.8484 H   0  0  0  0  0  0  0  0  0  0  0  0
   -7.3145   17.2564  -31.3958 H   0  0  0  0  0  0  0  0  0  0  0  0
   -6.4594   15.8480  -33.2276 H   0  0  0  0  0  0  0  0  0  0  0  0
   -7.8474   16.8791  -33.7592 H   0  0  0  0  0  0  0  0  0  0  0  0
   -4.9543   16.9649  -34.5640 H   0  0  0  0  0  0  0  0  0  0  0  0
   -6.4689   17.2820  -35.5205 H   0  0  0  0  0  0  0  0  0  0  0  0
   -4.8206   19.1589  -33.8381 H   0  0  0  0  0  0  0  0  0  0  0  0
   -5.6257   19.4102  -35.4371 H   0  0  0  0  0  0  0  0  0  0  0  0
   -6.7533   20.7174  -33.6853 H   0  0  0  0  0  0  0  0  0  0  0  0
   -7.8264   19.3939  -34.3189 H   0  0  0  0  0  0  0  0  0  0  0  0
   -6.0710   20.3790  -31.6330 H   0  0  0  0  0  0  0  0  0  0  0  0
   -2.6345   22.6552  -33.4970 H   0  0  0  0  0  0  0  0  0  0  0  0
   -0.9839   21.2304  -34.7058 H   0  0  0  0  0  0  0  0  0  0  0  0
  1  2  2  0
  2  3  1  0
  3  4  2  0
  4  5  1  0
  5  6  2  0
  6  7  1  0
  7  8  1  0
  8  9  1  0
  9 10  2  0
 10 11  1  0
 11 12  1  0
 12 13  1  0
 13 14  1  0
 14 15  1  0
 15 16  1  0
 16 17  1  0
 17 18  1  0
 18 19  1  0
 19 20  1  0
 20 21  1  0
 21 22  1  0
 12 23  2  0
  4 24  1  0
 24 25  2  0
 25  1  1  0
 23  5  1  0
 11  7  2  0
 22 17  1  0
  1 26  1  0
  2 27  1  0
  3 28  1  0
  9 29  1  0
 14 30  1  0
 14 31  1  0
 15 32  1  0
 15 33  1  0
 16 34  1  0
 16 35  1  0
 18 36  1  0
 18 37  1  0
 19 38  1  0
 19 39  1  0
 20 40  1  0
 20 41  1  0
 21 42  1  0
 21 43  1  0
 22 44  1  0
 22 45  1  0
 23 46  1  0
 24 47  1  0
 25 48  1  0
M  CHG  1  23   1
M  END
>  <UniqueID>  (20) 
20

>  <SMILES>  (20) 
c1ccc(-c2nc3scnc3c(OCCCN3CCCCC3)[nH+]2)cc1

>  <Energy>  (20) 
96.8683739405717

>  <Genealogy>  (20) 
c1ccc(-c2nc3scnc3c(OCCCN3CCCCC3)[nH+]2)cc1 (protonated)
c1ccc(-c2nc3scnc3c(OCCCN3CCCCC3)[nH+]2)cc1 (3D coordinates assigned)
c1ccc(-c2nc3scnc3c(OCCCN3CCCCC3)[nH+]2)cc1 (nonaromatic ring conformer: 96.8683739405717 kcal/mol)

>  <smiles>  (20) 
c1ccc(-c2nc(OCCCN3CCCCC3)c3ncsc3n2)cc1

>  <score_type>  (20) 
oracle

>  <origin>  (20) 
adg

>  <m_score__min__energy>  (20) 
-7.5099999999999998

>  <m_primary>  (20) 
energy

$$$$
20:0
     RDKit          3D

 41 43  0  0  0  0  0  0  0  0999 V2000
   -0.8880   26.5570  -23.8860 C   0  0  0  0  0  0  0  0  0  0  0  0
    0.2170   25.6050  -24.0990 N   0  0  0  0  0  0  0  0  0  0  0  0
    1.3210   26.2440  -24.8350 C   0  0  0  0  0  0  0  0  0  0  0  0
   -0.2370   24.3470  -24.7390 C   0  0  0  0  0  0  0  0  0  0  0  0
   -0.9720   24.5520  -26.0470 C   0  0  0  0  0  0  0  0  0  0  0  0
   -2.3650   24.7290  -26.0620 C   0  0  0  0  0  0  0  0  0  0  0  0
   -3.0420   24.9120  -27.2710 C   0  0  0  0  0  0  0  0  0  0  0  0
   -2.3360   24.9110  -28.4860 C   0  0  0  0  0  0  0  0  0  0  0  0
   -2.9800   25.1020  -29.7180 O   0  0  0  0  0  0  0  0  0  0  0  0
   -4.1930   24.5090  -30.1010 C   0  0  0  0  0  0  0  0  0  0  0  0
   -5.3890   25.1450  -29.7510 C   0  0  0  0  0  0  0  0  0  0  0  0
   -6.6200   24.5970  -30.1210 C   0  0  0  0  0  0  0  0  0  0  0  0
   -6.6690   23.4070  -30.8600 C   0  0  0  0  0  0  0  0  0  0  0  0
   -7.9010   22.8480  -31.2370 C   0  0  0  0  0  0  0  0  0  0  0  0
   -7.9360   21.6660  -31.9810 C   0  0  0  0  0  0  0  0  0  0  0  0
   -6.7460   21.0340  -32.3550 C   0  0  0  0  0  0  0  0  0  0  0  0
   -5.5130   21.5810  -31.9870 C   0  0  0  0  0  0  0  0  0  0  0  0
   -5.4640   22.7670  -31.2370 C   0  0  0  0  0  0  0  0  0  0  0  0
   -4.2340   23.3260  -30.8610 C   0  0  0  0  0  0  0  0  0  0  0  0
   -0.9450   24.7650  -28.4700 C   0  0  0  0  0  0  0  0  0  0  0  0
   -0.2660   24.5830  -27.2620 C   0  0  0  0  0  0  0  0  0  0  0  0
   -1.0493   26.6960  -22.8068 H   0  0  0  0  0  0  0  0  0  0  0  0
   -0.6334   27.5232  -24.3461 H   0  0  0  0  0  0  0  0  0  0  0  0
   -1.8059   26.1623  -24.3461 H   0  0  0  0  0  0  0  0  0  0  0  0
    0.5870   25.3490  -23.1520 H   0  0  0  0  0  0  0  0  0  0  0  0
    2.0444   26.6627  -24.1200 H   0  0  0  0  0  0  0  0  0  0  0  0
    1.8215   25.4960  -25.4674 H   0  0  0  0  0  0  0  0  0  0  0  0
    0.9217   27.0506  -25.4674 H   0  0  0  0  0  0  0  0  0  0  0  0
    0.6454   23.7194  -24.9327 H   0  0  0  0  0  0  0  0  0  0  0  0
   -0.9481   23.8753  -24.0448 H   0  0  0  0  0  0  0  0  0  0  0  0
   -2.9269   24.7236  -25.1163 H   0  0  0  0  0  0  0  0  0  0  0  0
   -4.1323   25.0575  -27.2714 H   0  0  0  0  0  0  0  0  0  0  0  0
   -5.3600   26.0845  -29.1796 H   0  0  0  0  0  0  0  0  0  0  0  0
   -7.5537   25.1012  -29.8313 H   0  0  0  0  0  0  0  0  0  0  0  0
   -8.8400   23.3416  -30.9460 H   0  0  0  0  0  0  0  0  0  0  0  0
   -8.9030   21.2310  -32.2736 H   0  0  0  0  0  0  0  0  0  0  0  0
   -6.7801   20.1035  -32.9406 H   0  0  0  0  0  0  0  0  0  0  0  0
   -4.5796   21.0813  -32.2856 H   0  0  0  0  0  0  0  0  0  0  0  0
   -3.2960   22.8366  -31.1621 H   0  0  0  0  0  0  0  0  0  0  0  0
   -0.3817   24.7936  -29.4144 H   0  0  0  0  0  0  0  0  0  0  0  0
    0.8275   24.4633  -27.2621 H   0  0  0  0  0  0  0  0  0  0  0  0
  1  2  1  0
  2  3  1  0
  2  4  1  0
  4  5  1  0
  5  6  2  0
  6  7  1  0
  7  8  2  0
  8  9  1  0
  9 10  1  0
 10 11  2  0
 11 12  1  0
 12 13  2  0
 13 14  1  0
 14 15  2  0
 15 16  1  0
 16 17  2  0
 17 18  1  0
 18 19  2  0
  8 20  1  0
 20 21  2  0
 21  5  1  0
 19 10  1  0
 18 13  1  0
  1 22  1  0
  1 23  1  0
  1 24  1  0
  2 25  1  0
  3 26  1  0
  3 27  1  0
  3 28  1  0
  4 29  1  0
  4 30  1  0
  6 31  1  0
  7 32  1  0
 11 33  1  0
 12 34  1  0
 14 35  1  0
 15 36  1  0
 16 37  1  0
 17 38  1  0
 19 39  1  0
 20 40  1  0
 21 41  1  0
M  CHG  1   2   1
M  END
>  <UniqueID>  (21) 
21

>  <SMILES>  (21) 
C[NH+](C)Cc1ccc(Oc2ccc3ccccc3c2)cc1

>  <Energy>  (21) 
54.327377236004494

>  <Genealogy>  (21) 
C[NH+](C)Cc1ccc(Oc2ccc3ccccc3c2)cc1 (protonated)
C[NH+](C)Cc1ccc(Oc2ccc3ccccc3c2)cc1 (3D coordinates assigned)
C[NH+](C)Cc1ccc(Oc2ccc3ccccc3c2)cc1 (optimized conformer: 54.327377236004494 kcal/mol)

>  <smiles>  (21) 
CN(C)Cc1ccc(Oc2ccc3ccccc3c2)cc1

>  <score_type>  (21) 
oracle

>  <origin>  (21) 
adg

>  <m_score__min__energy>  (21) 
-8.3399999999999999

>  <m_primary>  (21) 
energy

$$$$
21:0
     RDKit          3D

 48 51  0  0  0  0  0  0  0  0999 V2000
   -9.7820   22.0770  -31.2430 O   0  0  0  0  0  0  0  0  0  0  0  0
   -8.6050   21.9510  -31.6750 C   0  0  0  0  0  0  0  0  0  0  0  0
   -7.7980   23.1840  -31.9730 C   0  0  0  0  0  0  0  0  0  0  0  0
   -6.2840   22.9220  -31.8510 C   0  0  1  0  0  0  0  0  0  0  0  0
   -5.8590   22.7460  -30.3740 C   0  0  0  0  0  0  0  0  0  0  0  0
   -4.7650   23.6840  -30.0280 N   0  0  0  0  0  0  0  0  0  0  0  0
   -4.6140   23.8730  -28.5610 C   0  0  0  0  0  0  0  0  0  0  0  0
   -3.4260   23.1060  -27.9380 C   0  0  0  0  0  0  0  0  0  0  0  0
   -3.1050   21.8970  -28.7050 N   0  0  0  0  0  0  0  0  0  0  0  0
   -2.6620   20.7080  -28.0230 C   0  0  0  0  0  0  0  0  0  0  0  0
   -1.4080   20.1470  -28.3140 C   0  0  0  0  0  0  0  0  0  0  0  0
   -0.9970   18.9930  -27.6480 C   0  0  0  0  0  0  0  0  0  0  0  0
   -1.8320   18.4060  -26.6990 C   0  0  0  0  0  0  0  0  0  0  0  0
   -3.0750   18.9830  -26.4310 C   0  0  0  0  0  0  0  0  0  0  0  0
   -3.4630   20.1100  -27.0890 N   0  0  0  0  0  0  0  0  0  0  0  0
   -2.9560   21.9880  -30.1640 C   0  0  0  0  0  0  0  0  0  0  0  0
   -3.4920   23.3280  -30.6860 C   0  0  0  0  0  0  0  0  0  0  0  0
   -5.8840   21.7070  -32.7170 C   0  0  0  0  0  0  0  0  0  0  0  0
   -6.7120   20.4810  -32.4050 C   0  0  0  0  0  0  0  0  0  0  0  0
   -6.1810   19.2050  -32.6520 C   0  0  0  0  0  0  0  0  0  0  0  0
   -6.9460   18.0620  -32.4070 C   0  0  0  0  0  0  0  0  0  0  0  0
   -8.2500   18.1820  -31.9240 C   0  0  0  0  0  0  0  0  0  0  0  0
   -8.7970   19.4460  -31.6900 C   0  0  0  0  0  0  0  0  0  0  0  0
   -8.0400   20.6050  -31.9350 C   0  0  0  0  0  0  0  0  0  0  0  0
   -8.0203   23.5156  -32.9980 H   0  0  0  0  0  0  0  0  0  0  0  0
   -8.0710   23.9564  -31.2389 H   0  0  0  0  0  0  0  0  0  0  0  0
   -5.7436   23.8018  -32.2305 H   0  0  0  0  0  0  0  0  0  0  0  0
   -6.7236   22.9441  -29.7235 H   0  0  0  0  0  0  0  0  0  0  0  0
   -5.5005   21.7161  -30.2296 H   0  0  0  0  0  0  0  0  0  0  0  0
   -4.4716   24.9460  -28.3651 H   0  0  0  0  0  0  0  0  0  0  0  0
   -5.5262   23.4700  -28.0968 H   0  0  0  0  0  0  0  0  0  0  0  0
   -2.5446   23.7639  -27.9223 H   0  0  0  0  0  0  0  0  0  0  0  0
   -3.7070   22.8035  -26.9184 H   0  0  0  0  0  0  0  0  0  0  0  0
   -0.7533   20.6155  -29.0635 H   0  0  0  0  0  0  0  0  0  0  0  0
   -0.0164   18.5471  -27.8710 H   0  0  0  0  0  0  0  0  0  0  0  0
   -1.5150   17.4972  -26.1664 H   0  0  0  0  0  0  0  0  0  0  0  0
   -3.7427   18.5256  -25.6860 H   0  0  0  0  0  0  0  0  0  0  0  0
   -4.3900   20.5260  -26.8510 H   0  0  0  0  0  0  0  0  0  0  0  0
   -1.8906   21.9004  -30.4235 H   0  0  0  0  0  0  0  0  0  0  0  0
   -3.5323   21.1739  -30.6279 H   0  0  0  0  0  0  0  0  0  0  0  0
   -2.7506   24.1149  -30.4835 H   0  0  0  0  0  0  0  0  0  0  0  0
   -3.6717   23.2351  -31.7672 H   0  0  0  0  0  0  0  0  0  0  0  0
   -6.0230   21.9671  -33.7767 H   0  0  0  0  0  0  0  0  0  0  0  0
   -4.8333   21.4681  -32.4958 H   0  0  0  0  0  0  0  0  0  0  0  0
   -5.1568   19.1047  -33.0406 H   0  0  0  0  0  0  0  0  0  0  0  0
   -6.5198   17.0655  -32.5951 H   0  0  0  0  0  0  0  0  0  0  0  0
   -8.8479   17.2799  -31.7273 H   0  0  0  0  0  0  0  0  0  0  0  0
   -9.8261   19.5349  -31.3118 H   0  0  0  0  0  0  0  0  0  0  0  0
  1  2  2  0
  2  3  1  0
  3  4  1  0
  4  5  1  0
  5  6  1  0
  6  7  1  0
  7  8  1  0
  8  9  1  0
  9 10  1  0
 10 11  2  0
 11 12  1  0
 12 13  2  0
 13 14  1  0
 14 15  2  0
  9 16  1  0
 16 17  1  0
  4 18  1  0
 18 19  1  0
 19 20  2  0
 20 21  1  0
 21 22  2  0
 22 23  1  0
 23 24  2  0
 24  2  1  0
 17  6  1  0
 24 19  1  0
 15 10  1  0
  3 25  1  0
  3 26  1  0
  4 27  1  6
  5 28  1  0
  5 29  1  0
  7 30  1  0
  7 31  1  0
  8 32  1  0
  8 33  1  0
 11 34  1  0
 12 35  1  0
 13 36  1  0
 14 37  1  0
 15 38  1  0
 16 39  1  0
 16 40  1  0
 17 41  1  0
 17 42  1  0
 18 43  1  0
 18 44  1  0
 20 45  1  0
 21 46  1  0
 22 47  1  0
 23 48  1  0
M  CHG  1  15   1
M  END
>  <UniqueID>  (22) 
22

>  <SMILES>  (22) 
O=C1C[C@@H](CN2CCN(c3cccc[nH+]3)CC2)Cc2ccccc21

>  <Energy>  (22) 
62.78085551623188

>  <Genealogy>  (22) 
O=C1CC(CN2CCN(c3cccc[nH+]3)CC2)Cc2ccccc21 (protonated)
O=C1C[C@@H](CN2CCN(c3cccc[nH+]3)CC2)Cc2ccccc21 (chirality)
O=C1C[C@@H](CN2CCN(c3cccc[nH+]3)CC2)Cc2ccccc21 (3D coordinates assigned)
O=C1C[C@@H](CN2CCN(c3cccc[nH+]3)CC2)Cc2ccccc21 (nonaromatic ring conformer: 62.78085551623188 kcal/mol)

>  <smiles>  (22) 
O=C1CC(CN2CCN(c3ccccn3)CC2)Cc2ccccc21

>  <score_type>  (22) 
oracle

>  <origin>  (22) 
adg

>  <m_score__min__energy>  (22) 
-8.3399999999999999

>  <m_primary>  (22) 
energy

$$$$
22:0
     RDKit          3D

 36 38  0  0  0  0  0  0  0  0999 V2000
   -1.6400   25.1440  -28.1900 C   0  0  0  0  0  0  0  0  0  0  0  0
   -2.4090   25.3020  -29.3430 O   0  0  0  0  0  0  0  0  0  0  0  0
   -3.4000   24.4410  -29.7670 C   0  0  0  0  0  0  0  0  0  0  0  0
   -3.1560   23.0810  -29.7460 C   0  0  0  0  0  0  0  0  0  0  0  0
   -4.1560   22.2540  -30.1720 C   0  0  0  0  0  0  0  0  0  0  0  0
   -5.3580   22.7770  -30.6020 C   0  0  0  0  0  0  0  0  0  0  0  0
   -6.4830   22.1930  -31.0630 N   0  0  0  0  0  0  0  0  0  0  0  0
   -7.4150   23.1010  -31.3700 C   0  0  0  0  0  0  0  0  0  0  0  0
   -9.0570   22.9540  -32.0090 S   0  0  0  0  0  0  0  0  0  0  0  0
   -9.7340   21.3190  -32.0140 C   0  0  0  0  0  0  0  0  0  0  0  0
   -8.7610   20.2070  -32.0430 C   0  0  0  0  0  0  0  0  0  0  0  0
   -8.7560   19.1190  -31.2200 C   0  0  0  0  0  0  0  0  0  0  0  0
   -7.7720   18.1320  -31.3370 C   0  0  0  0  0  0  0  0  0  0  0  0
   -6.7790   18.2570  -32.3080 C   0  0  0  0  0  0  0  0  0  0  0  0
   -6.7740   19.3520  -33.1450 C   0  0  0  0  0  0  0  0  0  0  0  0
   -5.7320   19.5340  -34.2100 C   0  0  0  0  0  0  0  0  0  0  0  0
   -7.7500   20.3040  -33.0100 C   0  0  0  0  0  0  0  0  0  0  0  0
   -6.8630   24.3270  -31.0940 N   0  0  0  0  0  0  0  0  0  0  0  0
   -5.6200   24.1300  -30.6310 C   0  0  0  0  0  0  0  0  0  0  0  0
   -4.6140   24.9690  -30.2040 C   0  0  0  0  0  0  0  0  0  0  0  0
   -2.2776   25.2750  -27.3032 H   0  0  0  0  0  0  0  0  0  0  0  0
   -1.1988   24.1364  -28.1788 H   0  0  0  0  0  0  0  0  0  0  0  0
   -0.8372   25.8960  -28.1788 H   0  0  0  0  0  0  0  0  0  0  0  0
   -2.1924   22.6795  -29.3992 H   0  0  0  0  0  0  0  0  0  0  0  0
   -4.0021   21.1648  -30.1722 H   0  0  0  0  0  0  0  0  0  0  0  0
   -6.5890   21.1800  -31.1500 H   0  0  0  0  0  0  0  0  0  0  0  0
  -10.3445   21.2064  -31.1059 H   0  0  0  0  0  0  0  0  0  0  0  0
  -10.2990   21.2386  -32.9544 H   0  0  0  0  0  0  0  0  0  0  0  0
   -9.5376   19.0164  -30.4528 H   0  0  0  0  0  0  0  0  0  0  0  0
   -7.7814   17.2606  -30.6657 H   0  0  0  0  0  0  0  0  0  0  0  0
   -6.0023   17.4843  -32.4056 H   0  0  0  0  0  0  0  0  0  0  0  0
   -4.7526   19.7051  -33.7393 H   0  0  0  0  0  0  0  0  0  0  0  0
   -5.6854   18.6304  -34.8356 H   0  0  0  0  0  0  0  0  0  0  0  0
   -5.9944   20.3999  -34.8356 H   0  0  0  0  0  0  0  0  0  0  0  0
   -7.7403   21.1740  -33.6830 H   0  0  0  0  0  0  0  0  0  0  0  0
   -4.7691   26.0580  -30.2079 H   0  0  0  0  0  0  0  0  0  0  0  0
  1  2  1  0
  2  3  1  0
  3  4  2  0
  4  5  1  0
  5  6  2  0
  6  7  1  0
  7  8  1  0
  8  9  1  0
  9 10  1  0
 10 11  1  0
 11 12  2  0
 12 13  1  0
 13 14  2  0
 14 15  1  0
 15 16  1  0
 15 17  2  0
  8 18  2  0
 18 19  1  0
 19 20  2  0
 20  3  1  0
 19  6  1  0
 17 11  1  0
  1 21  1  0
  1 22  1  0
  1 23  1  0
  4 24  1  0
  5 25  1  0
  7 26  1  0
 10 27  1  0
 10 28  1  0
 12 29  1  0
 13 30  1  0
 14 31  1  0
 16 32  1  0
 16 33  1  0
 16 34  1  0
 17 35  1  0
 20 36  1  0
M  END
>  <smiles>  (23) 
COc1ccc2[nH]c(SCc3cccc(C)c3)nc2c1

>  <score_type>  (23) 
oracle

>  <origin>  (23) 
adg

>  <m_score__min__energy>  (23) 
-8.3100000000000005

>  <m_primary>  (23) 
energy

$$$$
23:0
     RDKit          3D

 42 43  0  0  0  0  0  0  0  0999 V2000
   -1.5100   21.6630  -30.6780 C   0  0  0  0  0  0  0  0  0  0  0  0
   -2.1140   22.9370  -30.6550 O   0  0  0  0  0  0  0  0  0  0  0  0
   -2.2210   23.4100  -29.3240 C   0  0  0  0  0  0  0  0  0  0  0  0
   -2.6510   24.8800  -29.2920 C   0  0  0  0  0  0  0  0  0  0  0  0
   -3.4880   25.2010  -30.4440 N   0  0  0  0  0  0  0  0  0  0  0  0
   -4.9180   25.2510  -30.4020 C   0  0  0  0  0  0  0  0  0  0  0  0
   -5.5200   26.3590  -30.4500 O   0  0  0  0  0  0  0  0  0  0  0  0
   -5.7020   23.9760  -30.2950 C   0  0  1  0  0  0  0  0  0  0  0  0
   -7.0930   24.1670  -30.9190 C   0  0  0  0  0  0  0  0  0  0  0  0
   -4.9440   22.8910  -30.9490 N   0  0  0  0  0  0  0  0  0  0  0  0
   -5.3110   22.7030  -32.3600 C   0  0  0  0  0  0  0  0  0  0  0  0
   -5.5670   21.2440  -32.6520 C   0  0  0  0  0  0  0  0  0  0  0  0
   -4.5710   20.3770  -33.1270 C   0  0  0  0  0  0  0  0  0  0  0  0
   -3.1530   20.7430  -33.4310 C   0  0  0  0  0  0  0  0  0  0  0  0
   -5.2050   18.8210  -33.3010 S   0  0  0  0  0  0  0  0  0  0  0  0
   -6.7430   19.2260  -32.7710 C   0  0  0  0  0  0  0  0  0  0  0  0
   -7.8450   18.3850  -32.6390 C   0  0  0  0  0  0  0  0  0  0  0  0
   -9.0440   18.9300  -32.1590 C   0  0  0  0  0  0  0  0  0  0  0  0
   -9.1170   20.2940  -31.8220 C   0  0  0  0  0  0  0  0  0  0  0  0
   -7.9940   21.1260  -31.9630 C   0  0  0  0  0  0  0  0  0  0  0  0
   -6.7950   20.5780  -32.4470 C   0  0  0  0  0  0  0  0  0  0  0  0
   -1.3457   21.3164  -29.6470 H   0  0  0  0  0  0  0  0  0  0  0  0
   -2.1681   20.9546  -31.2025 H   0  0  0  0  0  0  0  0  0  0  0  0
   -0.5450   21.7241  -31.2025 H   0  0  0  0  0  0  0  0  0  0  0  0
   -2.9674   22.8059  -28.7873 H   0  0  0  0  0  0  0  0  0  0  0  0
   -1.2352   23.3246  -28.8434 H   0  0  0  0  0  0  0  0  0  0  0  0
   -3.2194   25.0694  -28.3695 H   0  0  0  0  0  0  0  0  0  0  0  0
   -1.7507   25.5112  -29.3238 H   0  0  0  0  0  0  0  0  0  0  0  0
   -5.8516   23.7021  -29.2402 H   0  0  0  0  0  0  0  0  0  0  0  0
   -7.8422   24.2699  -30.1202 H   0  0  0  0  0  0  0  0  0  0  0  0
   -7.0941   25.0737  -31.5418 H   0  0  0  0  0  0  0  0  0  0  0  0
   -7.3385   23.2941  -31.5418 H   0  0  0  0  0  0  0  0  0  0  0  0
   -3.9170   23.0890  -30.8930 H   0  0  0  0  0  0  0  0  0  0  0  0
   -6.2218   23.2804  -32.5768 H   0  0  0  0  0  0  0  0  0  0  0  0
   -4.4807   23.0511  -32.9921 H   0  0  0  0  0  0  0  0  0  0  0  0
   -2.6013   20.8854  -32.4901 H   0  0  0  0  0  0  0  0  0  0  0  0
   -2.6830   19.9367  -34.0132 H   0  0  0  0  0  0  0  0  0  0  0  0
   -3.1319   21.6760  -34.0132 H   0  0  0  0  0  0  0  0  0  0  0  0
   -7.7764   17.3198  -32.9047 H   0  0  0  0  0  0  0  0  0  0  0  0
   -9.9307   18.2891  -32.0454 H   0  0  0  0  0  0  0  0  0  0  0  0
  -10.0617   20.7126  -31.4448 H   0  0  0  0  0  0  0  0  0  0  0  0
   -8.0530   22.1920  -31.6980 H   0  0  0  0  0  0  0  0  0  0  0  0
  1  2  1  0
  2  3  1  0
  3  4  1  0
  4  5  1  0
  5  6  1  0
  6  7  2  0
  6  8  1  0
  8  9  1  0
  8 10  1  0
 10 11  1  0
 11 12  1  0
 12 13  2  0
 13 14  1  0
 13 15  1  0
 15 16  1  0
 16 17  2  0
 17 18  1  0
 18 19  2  0
 19 20  1  0
 20 21  2  0
 21 12  1  0
 21 16  1  0
  1 22  1  0
  1 23  1  0
  1 24  1  0
  3 25  1  0
  3 26  1  0
  4 27  1  0
  4 28  1  0
  8 29  1  1
  9 30  1  0
  9 31  1  0
  9 32  1  0
 10 33  1  0
 11 34  1  0
 11 35  1  0
 14 36  1  0
 14 37  1  0
 14 38  1  0
 17 39  1  0
 18 40  1  0
 19 41  1  0
 20 42  1  0
M  CHG  1   5  -1
M  END
>  <UniqueID>  (24) 
23

>  <SMILES>  (24) 
COCC[N-]C(=O)[C@@H](C)NCc1c(C)sc2ccccc12

>  <Energy>  (24) 
67.88312840197119

>  <Genealogy>  (24) 
COCC[N-]C(=O)C(C)NCc1c(C)sc2ccccc12 (protonated)
COCC[N-]C(=O)[C@@H](C)NCc1c(C)sc2ccccc12 (chirality)
COCC[N-]C(=O)[C@@H](C)NCc1c(C)sc2ccccc12 (3D coordinates assigned)
COCC[N-]C(=O)[C@@H](C)NCc1c(C)sc2ccccc12 (optimized conformer: 67.88312840197119 kcal/mol)

>  <smiles>  (24) 
COCCNC(=O)C(C)NCc1c(C)sc2ccccc12

>  <score_type>  (24) 
oracle

>  <origin>  (24) 
adg

>  <m_score__min__energy>  (24) 
-10.18

>  <m_primary>  (24) 
energy

$$$$
24:0
     RDKit          3D

 34 36  0  0  0  0  0  0  0  0999 V2000
   -3.4560   21.5470  -33.1150 C   0  0  0  0  0  0  0  0  0  0  0  0
   -4.8340   21.1110  -32.7200 C   0  0  0  0  0  0  0  0  0  0  0  0
   -5.1900   19.8070  -32.6810 N   0  0  0  0  0  0  0  0  0  0  0  0
   -6.4970   19.7870  -32.3780 C   0  0  0  0  0  0  0  0  0  0  0  0
   -7.3160   18.6620  -32.2830 C   0  0  0  0  0  0  0  0  0  0  0  0
   -8.6810   18.8630  -32.0190 C   0  0  0  0  0  0  0  0  0  0  0  0
   -9.1960   20.1700  -31.8760 C   0  0  0  0  0  0  0  0  0  0  0  0
   -8.3470   21.2850  -31.9840 C   0  0  0  0  0  0  0  0  0  0  0  0
   -6.9870   21.0570  -32.2140 C   0  0  0  0  0  0  0  0  0  0  0  0
   -5.9230   21.9330  -32.3880 C   0  0  0  0  0  0  0  0  0  0  0  0
   -5.9710   23.4490  -32.3040 C   0  0  0  0  0  0  0  0  0  0  0  0
   -4.9320   24.0660  -31.4380 N   0  0  0  0  0  0  0  0  0  0  0  0
   -4.4270   23.1810  -30.3830 C   0  0  0  0  0  0  0  0  0  0  0  0
   -5.1100   23.5700  -29.0780 C   0  0  0  0  0  0  0  0  0  0  0  0
   -5.7340   24.9320  -29.3300 C   0  0  0  0  0  0  0  0  0  0  0  0
   -5.3570   25.2950  -30.7590 C   0  0  0  0  0  0  0  0  0  0  0  0
   -2.8581   21.7362  -32.2113 H   0  0  0  0  0  0  0  0  0  0  0  0
   -2.9782   20.7562  -33.7119 H   0  0  0  0  0  0  0  0  0  0  0  0
   -3.5200   22.4688  -33.7119 H   0  0  0  0  0  0  0  0  0  0  0  0
   -4.5820   18.9830  -32.8880 H   0  0  0  0  0  0  0  0  0  0  0  0
   -6.9060   17.6493  -32.4108 H   0  0  0  0  0  0  0  0  0  0  0  0
   -9.3526   17.9971  -31.9231 H   0  0  0  0  0  0  0  0  0  0  0  0
  -10.2682   20.3165  -31.6789 H   0  0  0  0  0  0  0  0  0  0  0  0
   -8.7413   22.3076  -31.8902 H   0  0  0  0  0  0  0  0  0  0  0  0
   -5.8495   23.8506  -33.3208 H   0  0  0  0  0  0  0  0  0  0  0  0
   -6.9394   23.6999  -31.8466 H   0  0  0  0  0  0  0  0  0  0  0  0
   -4.6605   22.1347  -30.6295 H   0  0  0  0  0  0  0  0  0  0  0  0
   -3.3357   23.2814  -30.2888 H   0  0  0  0  0  0  0  0  0  0  0  0
   -5.8859   22.8351  -28.8174 H   0  0  0  0  0  0  0  0  0  0  0  0
   -4.3978   23.5987  -28.2402 H   0  0  0  0  0  0  0  0  0  0  0  0
   -6.8275   24.8795  -29.2226 H   0  0  0  0  0  0  0  0  0  0  0  0
   -5.3766   25.6835  -28.6107 H   0  0  0  0  0  0  0  0  0  0  0  0
   -6.2261   25.7269  -31.2768 H   0  0  0  0  0  0  0  0  0  0  0  0
   -4.5450   26.0370  -30.7649 H   0  0  0  0  0  0  0  0  0  0  0  0
  1  2  1  0
  2  3  1  0
  3  4  1  0
  4  5  2  0
  5  6  1  0
  6  7  2  0
  7  8  1  0
  8  9  2  0
  9 10  1  0
 10 11  1  0
 11 12  1  0
 12 13  1  0
 13 14  1  0
 14 15  1  0
 15 16  1  0
 10  2  2  0
 16 12  1  0
  9  4  1  0
  1 17  1  0
  1 18  1  0
  1 19  1  0
  3 20  1  0
  5 21  1  0
  6 22  1  0
  7 23  1  0
  8 24  1  0
 11 25  1  0
 11 26  1  0
 13 27  1  0
 13 28  1  0
 14 29  1  0
 14 30  1  0
 15 31  1  0
 15 32  1  0
 16 33  1  0
 16 34  1  0
M  END
>  <UniqueID>  (25) 
24

>  <SMILES>  (25) 
Cc1[nH]c2ccccc2c1CN1CCCC1

>  <Energy>  (25) 
73.21960080994793

>  <Genealogy>  (25) 
Cc1[nH]c2ccccc2c1CN1CCCC1 (3D coordinates assigned)
Cc1[nH]c2ccccc2c1CN1CCCC1 (nonaromatic ring conformer: 73.21960080994793 kcal/mol)

>  <smiles>  (25) 
Cc1[nH]c2ccccc2c1CN1CCCC1

>  <score_type>  (25) 
oracle

>  <origin>  (25) 
adg

>  <m_score__min__energy>  (25) 
-7.1699999999999999

>  <m_primary>  (25) 
energy

$$$$
25:0
     RDKit          3D

 45 47  0  0  0  0  0  0  0  0999 V2000
   -0.5120   26.1960  -23.6420 C   0  0  0  0  0  0  0  0  0  0  0  0
   -1.3900   26.7370  -24.6240 O   0  0  0  0  0  0  0  0  0  0  0  0
   -1.6490   26.1430  -25.8680 C   0  0  0  0  0  0  0  0  0  0  0  0
   -0.8410   26.3750  -26.9980 C   0  0  0  0  0  0  0  0  0  0  0  0
   -1.1350   25.7520  -28.2160 C   0  0  0  0  0  0  0  0  0  0  0  0
   -2.2300   24.8790  -28.3200 C   0  0  0  0  0  0  0  0  0  0  0  0
   -2.5470   24.2020  -29.6290 C   0  0  0  0  0  0  0  0  0  0  0  0
   -3.5010   24.9760  -30.4300 N   0  0  0  0  0  0  0  0  0  0  0  0
   -4.9500   24.0720  -30.7760 S   0  0  0  0  0  0  0  0  0  0  0  0
   -5.8830   24.9250  -31.5910 O   0  0  0  0  0  0  0  0  0  0  0  0
   -5.6330   23.7350  -29.4810 O   0  0  0  0  0  0  0  0  0  0  0  0
   -4.6020   22.5730  -31.6380 C   0  0  0  0  0  0  0  0  0  0  0  0
   -3.2920   22.2880  -32.0390 C   0  0  0  0  0  0  0  0  0  0  0  0
   -3.0200   21.1320  -32.7740 C   0  0  0  0  0  0  0  0  0  0  0  0
   -4.0530   20.2520  -33.1070 C   0  0  0  0  0  0  0  0  0  0  0  0
   -5.3720   20.5170  -32.6980 C   0  0  0  0  0  0  0  0  0  0  0  0
   -5.6390   21.6890  -31.9650 C   0  0  0  0  0  0  0  0  0  0  0  0
   -6.4220   19.6170  -33.1190 N   0  0  0  0  0  0  0  0  0  0  0  0
   -7.7410   19.6320  -32.5420 C   0  0  0  0  0  0  0  0  0  0  0  0
   -8.2560   18.4690  -31.7520 C   0  0  0  0  0  0  0  0  0  0  0  0
   -8.5010   20.6170  -32.7450 O   0  0  0  0  0  0  0  0  0  0  0  0
   -6.1510   18.7160  -34.2480 C   0  0  0  0  0  0  0  0  0  0  0  0
   -4.7570   18.0990  -34.0920 C   0  0  0  0  0  0  0  0  0  0  0  0
   -3.7800   19.1180  -33.8800 O   0  0  0  0  0  0  0  0  0  0  0  0
   -3.0500   24.6730  -27.1990 C   0  0  0  0  0  0  0  0  0  0  0  0
   -2.7530   25.2920  -25.9830 C   0  0  0  0  0  0  0  0  0  0  0  0
   -0.8948   26.4319  -22.6381 H   0  0  0  0  0  0  0  0  0  0  0  0
   -0.4527   25.1045  -23.7647 H   0  0  0  0  0  0  0  0  0  0  0  0
    0.4897   26.6338  -23.7647 H   0  0  0  0  0  0  0  0  0  0  0  0
    0.0251   27.0490  -26.9228 H   0  0  0  0  0  0  0  0  0  0  0  0
   -0.5052   25.9471  -29.0965 H   0  0  0  0  0  0  0  0  0  0  0  0
   -1.6157   24.0833  -30.2023 H   0  0  0  0  0  0  0  0  0  0  0  0
   -3.0033   23.2263  -29.4056 H   0  0  0  0  0  0  0  0  0  0  0  0
   -2.4751   22.9756  -31.7749 H   0  0  0  0  0  0  0  0  0  0  0  0
   -1.9897   20.9137  -33.0916 H   0  0  0  0  0  0  0  0  0  0  0  0
   -6.6681   21.9122  -31.6470 H   0  0  0  0  0  0  0  0  0  0  0  0
   -8.1606   18.6845  -30.6776 H   0  0  0  0  0  0  0  0  0  0  0  0
   -9.3141   18.2977  -31.9990 H   0  0  0  0  0  0  0  0  0  0  0  0
   -7.6717   17.5704  -31.9990 H   0  0  0  0  0  0  0  0  0  0  0  0
   -6.9053   17.9156  -34.2665 H   0  0  0  0  0  0  0  0  0  0  0  0
   -6.1945   19.2858  -35.1879 H   0  0  0  0  0  0  0  0  0  0  0  0
   -4.7585   17.4143  -33.2311 H   0  0  0  0  0  0  0  0  0  0  0  0
   -4.5056   17.5510  -35.0120 H   0  0  0  0  0  0  0  0  0  0  0  0
   -3.9316   24.0201  -27.2791 H   0  0  0  0  0  0  0  0  0  0  0  0
   -3.3932   25.1086  -25.1075 H   0  0  0  0  0  0  0  0  0  0  0  0
  1  2  1  0
  2  3  1  0
  3  4  2  0
  4  5  1  0
  5  6  2  0
  6  7  1  0
  7  8  1  0
  8  9  1  0
  9 10  2  0
  9 11  2  0
  9 12  1  0
 12 13  2  0
 13 14  1  0
 14 15  2  0
 15 16  1  0
 16 17  2  0
 16 18  1  0
 18 19  1  0
 19 20  1  0
 19 21  2  0
 18 22  1  0
 22 23  1  0
 23 24  1  0
  6 25  1  0
 25 26  2  0
 26  3  1  0
 17 12  1  0
 24 15  1  0
  1 27  1  0
  1 28  1  0
  1 29  1  0
  4 30  1  0
  5 31  1  0
  7 32  1  0
  7 33  1  0
 13 34  1  0
 14 35  1  0
 17 36  1  0
 20 37  1  0
 20 38  1  0
 20 39  1  0
 22 40  1  0
 22 41  1  0
 23 42  1  0
 23 43  1  0
 25 44  1  0
 26 45  1  0
M  CHG  1   8  -1
M  END
>  <UniqueID>  (26) 
25

>  <SMILES>  (26) 
COc1ccc(C[N-]S(=O)(=O)c2ccc3c(c2)N(C(C)=O)CCO3)cc1

>  <Energy>  (26) 
48.81908711508451

>  <Genealogy>  (26) 
COc1ccc(C[N-]S(=O)(=O)c2ccc3c(c2)N(C(C)=O)CCO3)cc1 (protonated)
COc1ccc(C[N-]S(=O)(=O)c2ccc3c(c2)N(C(C)=O)CCO3)cc1 (3D coordinates assigned)
COc1ccc(C[N-]S(=O)(=O)c2ccc3c(c2)N(C(C)=O)CCO3)cc1 (nonaromatic ring conformer: 48.81908711508451 kcal/mol)

>  <smiles>  (26) 
COc1ccc(CNS(=O)(=O)c2ccc3c(c2)N(C(C)=O)CCO3)cc1

>  <score_type>  (26) 
oracle

>  <origin>  (26) 
adg

>  <m_score__min__energy>  (26) 
-9.7300000000000004

>  <m_primary>  (26) 
energy

$$$$
26:0
     RDKit          3D

 58 61  0  0  0  0  0  0  0  0999 V2000
   -2.9730   21.5310  -32.5820 C   0  0  0  0  0  0  0  0  0  0  0  0
   -4.0780   21.1150  -31.7870 O   0  0  0  0  0  0  0  0  0  0  0  0
   -5.3460   20.8180  -32.3050 C   0  0  0  0  0  0  0  0  0  0  0  0
   -5.7170   19.8230  -33.2170 C   0  0  0  0  0  0  0  0  0  0  0  0
   -4.8300   18.8640  -33.9430 C   0  0  0  0  0  0  0  0  0  0  0  0
   -7.0990   19.8980  -33.3570 C   0  0  0  0  0  0  0  0  0  0  0  0
   -7.5530   20.8980  -32.5820 N   0  0  0  0  0  0  0  0  0  0  0  0
   -8.8190   21.2590  -32.3710 N   0  0  0  0  0  0  0  0  0  0  0  0
   -9.0750   22.2610  -31.4870 C   0  0  0  0  0  0  0  0  0  0  0  0
   -8.0470   22.8650  -30.8210 N   0  0  0  0  0  0  0  0  0  0  0  0
   -6.7490   22.4980  -31.0460 C   0  0  0  0  0  0  0  0  0  0  0  0
   -5.6820   23.1200  -30.3100 N   0  0  0  0  0  0  0  0  0  0  0  0
   -5.6080   24.5790  -30.2400 C   0  0  0  0  0  0  0  0  0  0  0  0
   -4.1420   25.0420  -30.2240 C   0  0  0  0  0  0  0  0  0  0  0  0
   -3.2700   24.2030  -29.3750 N   0  0  0  0  0  0  0  0  0  0  0  0
   -1.8630   24.5530  -29.3470 C   0  0  0  0  0  0  0  0  0  0  0  0
   -0.9990   23.7030  -29.7180 O   0  0  0  0  0  0  0  0  0  0  0  0
   -1.4180   25.8510  -28.9410 N   0  0  0  0  0  0  0  0  0  0  0  0
   -0.8310   26.1430  -27.6330 C   0  0  0  0  0  0  0  0  0  0  0  0
   -1.8970   25.9770  -26.5460 C   0  0  0  0  0  0  0  0  0  0  0  0
    0.3560   25.2060  -27.3680 C   0  0  0  0  0  0  0  0  0  0  0  0
   -3.9090   23.1360  -28.5510 C   0  0  2  0  0  0  0  0  0  0  0  0
   -2.9500   22.2460  -27.7610 C   0  0  0  0  0  0  0  0  0  0  0  0
   -2.0030   22.8400  -26.8990 C   0  0  0  0  0  0  0  0  0  0  0  0
   -1.0880   22.0520  -26.1970 C   0  0  0  0  0  0  0  0  0  0  0  0
   -1.1080   20.6630  -26.3340 C   0  0  0  0  0  0  0  0  0  0  0  0
   -2.0380   20.0590  -27.1820 C   0  0  0  0  0  0  0  0  0  0  0  0
   -2.9480   20.8400  -27.8970 C   0  0  0  0  0  0  0  0  0  0  0  0
   -4.8550   22.2840  -29.4340 C   0  0  0  0  0  0  0  0  0  0  0  0
   -6.5140   21.4690  -31.9560 C   0  0  0  0  0  0  0  0  0  0  0  0
   -2.1463   21.8422  -31.9265 H   0  0  0  0  0  0  0  0  0  0  0  0
   -2.6430   20.6956  -33.2169 H   0  0  0  0  0  0  0  0  0  0  0  0
   -3.2758   22.3767  -33.2169 H   0  0  0  0  0  0  0  0  0  0  0  0
   -4.2703   18.2589  -33.2146 H   0  0  0  0  0  0  0  0  0  0  0  0
   -5.4428   18.2038  -34.5744 H   0  0  0  0  0  0  0  0  0  0  0  0
   -4.1241   19.4235  -34.5744 H   0  0  0  0  0  0  0  0  0  0  0  0
   -7.7164   19.2482  -33.9947 H   0  0  0  0  0  0  0  0  0  0  0  0
   -9.6030   20.7790  -32.8720 H   0  0  0  0  0  0  0  0  0  0  0  0
  -10.1110   22.5850  -31.3085 H   0  0  0  0  0  0  0  0  0  0  0  0
   -6.1145   25.0099  -31.1162 H   0  0  0  0  0  0  0  0  0  0  0  0
   -6.0986   24.9168  -29.3152 H   0  0  0  0  0  0  0  0  0  0  0  0
   -3.7565   25.0146  -31.2539 H   0  0  0  0  0  0  0  0  0  0  0  0
   -4.1270   26.0573  -29.8010 H   0  0  0  0  0  0  0  0  0  0  0  0
   -0.4649   27.1802  -27.6199 H   0  0  0  0  0  0  0  0  0  0  0  0
   -1.4249   26.0505  -25.5552 H   0  0  0  0  0  0  0  0  0  0  0  0
   -2.6541   26.7681  -26.6510 H   0  0  0  0  0  0  0  0  0  0  0  0
   -2.3777   24.9932  -26.6510 H   0  0  0  0  0  0  0  0  0  0  0  0
    0.4990   25.0931  -26.2832 H   0  0  0  0  0  0  0  0  0  0  0  0
    0.1532   24.2218  -27.8155 H   0  0  0  0  0  0  0  0  0  0  0  0
    1.2662   25.6317  -27.8155 H   0  0  0  0  0  0  0  0  0  0  0  0
   -4.4789   23.6698  -27.7762 H   0  0  0  0  0  0  0  0  0  0  0  0
   -1.9855   23.9333  -26.7791 H   0  0  0  0  0  0  0  0  0  0  0  0
   -0.3497   22.5273  -25.5344 H   0  0  0  0  0  0  0  0  0  0  0  0
   -0.3912   20.0445  -25.7739 H   0  0  0  0  0  0  0  0  0  0  0  0
   -2.0539   18.9642  -27.2872 H   0  0  0  0  0  0  0  0  0  0  0  0
   -3.6695   20.3564  -28.5719 H   0  0  0  0  0  0  0  0  0  0  0  0
   -4.2493   21.6077  -30.0551 H   0  0  0  0  0  0  0  0  0  0  0  0
   -5.5246   21.7175  -28.7701 H   0  0  0  0  0  0  0  0  0  0  0  0
  1  2  1  0
  2  3  1  0
  3  4  1  0
  4  5  1  0
  4  6  2  0
  6  7  1  0
  7  8  1  0
  8  9  2  0
  9 10  1  0
 10 11  2  0
 11 12  1  0
 12 13  1  0
 13 14  1  0
 14 15  1  0
 15 16  1  0
 16 17  2  0
 16 18  1  0
 18 19  1  0
 19 20  1  0
 19 21  1  0
 15 22  1  0
 22 23  1  0
 23 24  2  0
 24 25  1  0
 25 26  2  0
 26 27  1  0
 27 28  2  0
 22 29  1  0
 11 30  1  0
 30  3  2  0
 30  7  1  0
 29 12  1  0
 28 23  1  0
  1 31  1  0
  1 32  1  0
  1 33  1  0
  5 34  1  0
  5 35  1  0
  5 36  1  0
  6 37  1  0
  8 38  1  0
  9 39  1  0
 13 40  1  0
 13 41  1  0
 14 42  1  0
 14 43  1  0
 19 44  1  0
 20 45  1  0
 20 46  1  0
 20 47  1  0
 21 48  1  0
 21 49  1  0
 21 50  1  0
 22 51  1  1
 24 52  1  0
 25 53  1  0
 26 54  1  0
 27 55  1  0
 28 56  1  0
 29 57  1  0
 29 58  1  0
M  CHG  2   8   1  18  -1
M  END
>  <UniqueID>  (27) 
26

>  <SMILES>  (27) 
COc1c(C)cn2[nH+]cnc(N3CCN(C(=O)[N-]C(C)C)[C@H](c4ccccc4)C3)c12

>  <Energy>  (27) 
102.15063432018162

>  <Genealogy>  (27) 
COc1c(C)cn2[nH+]cnc(N3CCN(C(=O)[N-]C(C)C)C(c4ccccc4)C3)c12 (protonated)
COc1c(C)cn2[nH+]cnc(N3CCN(C(=O)[N-]C(C)C)[C@H](c4ccccc4)C3)c12 (chirality)
COc1c(C)cn2[nH+]cnc(N3CCN(C(=O)[N-]C(C)C)[C@H](c4ccccc4)C3)c12 (3D coordinates assigned)
COc1c(C)cn2[nH+]cnc(N3CCN(C(=O)[N-]C(C)C)[C@H](c4ccccc4)C3)c12 (nonaromatic ring conformer: 102.15063432018162 kcal/mol)

>  <smiles>  (27) 
COc1c(C)cn2ncnc(N3CCN(C(=O)NC(C)C)C(c4ccccc4)C3)c12

>  <score_type>  (27) 
oracle

>  <origin>  (27) 
adg

>  <m_score__min__energy>  (27) 
-8.8599999999999994

>  <m_primary>  (27) 
energy

$$$$
27:0
     RDKit          3D

 49 51  0  0  0  0  0  0  0  0999 V2000
   -9.2510   18.9110  -32.3410 C   0  0  0  0  0  0  0  0  0  0  0  0
   -9.1540   20.2970  -32.6670 O   0  0  0  0  0  0  0  0  0  0  0  0
   -8.1720   21.1760  -32.1800 C   0  0  0  0  0  0  0  0  0  0  0  0
   -8.4980   22.4160  -31.5990 C   0  0  0  0  0  0  0  0  0  0  0  0
   -7.5000   23.2510  -31.1000 C   0  0  0  0  0  0  0  0  0  0  0  0
   -6.1500   22.8800  -31.2070 C   0  0  0  0  0  0  0  0  0  0  0  0
   -5.0860   23.7140  -30.6140 C   0  0  0  0  0  0  0  0  0  0  0  0
   -4.1890   23.3110  -29.6430 C   0  0  0  0  0  0  0  0  0  0  0  0
   -3.2540   24.3200  -29.6260 C   0  0  0  0  0  0  0  0  0  0  0  0
   -1.9780   24.3430  -28.8930 C   0  0  0  0  0  0  0  0  0  0  0  0
   -1.6630   25.3910  -28.2730 O   0  0  0  0  0  0  0  0  0  0  0  0
   -1.0400   23.2520  -28.9350 N   0  0  0  0  0  0  0  0  0  0  0  0
   -1.2250   21.9780  -29.6450 C   0  0  0  0  0  0  0  0  0  0  0  0
   -1.1460   20.7720  -28.7330 C   0  0  0  0  0  0  0  0  0  0  0  0
   -2.2470   20.4380  -27.9230 C   0  0  0  0  0  0  0  0  0  0  0  0
   -2.2230   19.2820  -27.1280 C   0  0  0  0  0  0  0  0  0  0  0  0
   -3.4030   18.9360  -26.2660 C   0  0  0  0  0  0  0  0  0  0  0  0
   -1.0670   18.4820  -27.1030 C   0  0  0  0  0  0  0  0  0  0  0  0
    0.0490   18.8200  -27.8860 C   0  0  0  0  0  0  0  0  0  0  0  0
    1.2750   17.9550  -27.8470 C   0  0  0  0  0  0  0  0  0  0  0  0
    0.0170   19.9830  -28.6720 C   0  0  0  0  0  0  0  0  0  0  0  0
   -3.6260   25.2590  -30.4650 O   0  0  0  0  0  0  0  0  0  0  0  0
   -4.7160   24.9230  -31.0930 N   0  0  0  0  0  0  0  0  0  0  0  0
   -5.8180   21.6500  -31.8010 C   0  0  0  0  0  0  0  0  0  0  0  0
   -6.8300   20.7850  -32.2650 C   0  0  0  0  0  0  0  0  0  0  0  0
   -6.5380   19.5240  -32.8030 O   0  0  0  0  0  0  0  0  0  0  0  0
   -6.1040   19.2920  -34.1400 C   0  0  0  0  0  0  0  0  0  0  0  0
   -9.2594   18.7912  -31.2476 H   0  0  0  0  0  0  0  0  0  0  0  0
  -10.1801   18.4994  -32.7621 H   0  0  0  0  0  0  0  0  0  0  0  0
   -8.3882   18.3740  -32.7621 H   0  0  0  0  0  0  0  0  0  0  0  0
   -9.5508   22.7290  -31.5382 H   0  0  0  0  0  0  0  0  0  0  0  0
   -7.7707   24.2035  -30.6209 H   0  0  0  0  0  0  0  0  0  0  0  0
   -4.2162   22.3989  -29.0288 H   0  0  0  0  0  0  0  0  0  0  0  0
   -0.1400   23.3730  -28.4170 H   0  0  0  0  0  0  0  0  0  0  0  0
   -2.2131   21.9871  -30.1284 H   0  0  0  0  0  0  0  0  0  0  0  0
   -0.4087   21.8893  -30.3770 H   0  0  0  0  0  0  0  0  0  0  0  0
   -3.1340   21.0886  -27.9129 H   0  0  0  0  0  0  0  0  0  0  0  0
   -3.1199   19.0190  -25.2063 H   0  0  0  0  0  0  0  0  0  0  0  0
   -4.2295   19.6296  -26.4801 H   0  0  0  0  0  0  0  0  0  0  0  0
   -3.7240   17.9059  -26.4801 H   0  0  0  0  0  0  0  0  0  0  0  0
   -1.0364   17.5856  -26.4661 H   0  0  0  0  0  0  0  0  0  0  0  0
    1.5525   17.7592  -26.8007 H   0  0  0  0  0  0  0  0  0  0  0  0
    1.0677   17.0020  -28.3558 H   0  0  0  0  0  0  0  0  0  0  0  0
    2.1033   18.4698  -28.3558 H   0  0  0  0  0  0  0  0  0  0  0  0
    0.9083   20.2795  -29.2445 H   0  0  0  0  0  0  0  0  0  0  0  0
   -4.7618   21.3605  -31.9045 H   0  0  0  0  0  0  0  0  0  0  0  0
   -5.1340   18.7735  -34.1259 H   0  0  0  0  0  0  0  0  0  0  0  0
   -6.8449   18.6696  -34.6632 H   0  0  0  0  0  0  0  0  0  0  0  0
   -5.9980   20.2538  -34.6632 H   0  0  0  0  0  0  0  0  0  0  0  0
  1  2  1  0
  2  3  1  0
  3  4  2  0
  4  5  1  0
  5  6  2  0
  6  7  1  0
  7  8  1  0
  8  9  2  0
  9 10  1  0
 10 11  2  0
 10 12  1  0
 12 13  1  0
 13 14  1  0
 14 15  2  0
 15 16  1  0
 16 17  1  0
 16 18  2  0
 18 19  1  0
 19 20  1  0
 19 21  2  0
  9 22  1  0
 22 23  1  0
  6 24  1  0
 24 25  2  0
 25 26  1  0
 26 27  1  0
 25  3  1  0
 23  7  2  0
 21 14  1  0
  1 28  1  0
  1 29  1  0
  1 30  1  0
  4 31  1  0
  5 32  1  0
  8 33  1  0
 12 34  1  0
 13 35  1  0
 13 36  1  0
 15 37  1  0
 17 38  1  0
 17 39  1  0
 17 40  1  0
 18 41  1  0
 20 42  1  0
 20 43  1  0
 20 44  1  0
 21 45  1  0
 24 46  1  0
 27 47  1  0
 27 48  1  0
 27 49  1  0
M  END
>  <UniqueID>  (28) 
27

>  <SMILES>  (28) 
COc1ccc(-c2cc(C(=O)NCc3cc(C)cc(C)c3)on2)cc1OC

>  <Energy>  (28) 
81.89414976285984

>  <Genealogy>  (28) 
COc1ccc(-c2cc(C(=O)NCc3cc(C)cc(C)c3)on2)cc1OC (3D coordinates assigned)
COc1ccc(-c2cc(C(=O)NCc3cc(C)cc(C)c3)on2)cc1OC (optimized conformer: 81.89414976285984 kcal/mol)

>  <smiles>  (28) 
COc1ccc(-c2cc(C(=O)NCc3cc(C)cc(C)c3)on2)cc1OC

>  <score_type>  (28) 
oracle

>  <origin>  (28) 
adg

>  <m_score__min__energy>  (28) 
-9.6699999999999999

>  <m_primary>  (28) 
energy

$$$$
28:0
     RDKit          3D

 29 29  0  0  0  0  0  0  0  0999 V2000
   -9.4510   20.6640  -31.9970 C   0  0  0  0  0  0  0  0  0  0  0  0
   -9.1020   19.1760  -31.9750 C   0  0  0  0  0  0  0  0  0  0  0  0
   -7.6330   18.9040  -32.3440 C   0  0  0  0  0  0  0  0  0  0  0  0
   -7.2400   19.5980  -33.5820 N   0  0  0  0  0  0  0  0  0  0  0  0
   -6.2290   20.6280  -33.2970 C   0  0  0  0  0  0  0  0  0  0  0  0
   -6.0080   20.7710  -31.7860 C   0  0  0  0  0  0  0  0  0  0  0  0
   -5.9010   22.2220  -31.4000 C   0  0  0  0  0  0  0  0  0  0  0  0
   -6.9930   22.8910  -30.8270 C   0  0  0  0  0  0  0  0  0  0  0  0
   -6.8680   24.2280  -30.4440 C   0  0  0  0  0  0  0  0  0  0  0  0
   -5.6490   24.8810  -30.6270 C   0  0  0  0  0  0  0  0  0  0  0  0
   -4.5940   24.2160  -31.1690 N   0  0  0  0  0  0  0  0  0  0  0  0
   -4.6900   22.9140  -31.5520 C   0  0  0  0  0  0  0  0  0  0  0  0
   -9.5381   21.0355  -30.9653 H   0  0  0  0  0  0  0  0  0  0  0  0
   -8.6586   21.2188  -32.5208 H   0  0  0  0  0  0  0  0  0  0  0  0
  -10.4074   20.8086  -32.5208 H   0  0  0  0  0  0  0  0  0  0  0  0
   -9.2886   18.7859  -30.9636 H   0  0  0  0  0  0  0  0  0  0  0  0
   -9.7309   18.6765  -32.7267 H   0  0  0  0  0  0  0  0  0  0  0  0
   -6.9897   19.2514  -31.5221 H   0  0  0  0  0  0  0  0  0  0  0  0
   -7.5175   17.8225  -32.5082 H   0  0  0  0  0  0  0  0  0  0  0  0
   -6.8360   18.9070  -34.2550 H   0  0  0  0  0  0  0  0  0  0  0  0
   -8.0820   20.0520  -34.0090 H   0  0  0  0  0  0  0  0  0  0  0  0
   -5.2799   20.3437  -33.7750 H   0  0  0  0  0  0  0  0  0  0  0  0
   -6.5845   21.5903  -33.6939 H   0  0  0  0  0  0  0  0  0  0  0  0
   -6.8558   20.3167  -31.2523 H   0  0  0  0  0  0  0  0  0  0  0  0
   -5.0708   20.2626  -31.5155 H   0  0  0  0  0  0  0  0  0  0  0  0
   -7.9466   22.3629  -30.6796 H   0  0  0  0  0  0  0  0  0  0  0  0
   -7.7227   24.7612  -30.0022 H   0  0  0  0  0  0  0  0  0  0  0  0
   -5.5410   25.9353  -30.3325 H   0  0  0  0  0  0  0  0  0  0  0  0
   -3.8161   22.4027  -31.9819 H   0  0  0  0  0  0  0  0  0  0  0  0
  1  2  1  0
  2  3  1  0
  3  4  1  0
  4  5  1  0
  5  6  1  0
  6  7  1  0
  7  8  2  0
  8  9  1  0
  9 10  2  0
 10 11  1  0
 11 12  2  0
 12  7  1  0
  1 13  1  0
  1 14  1  0
  1 15  1  0
  2 16  1  0
  2 17  1  0
  3 18  1  0
  3 19  1  0
  4 20  1  0
  4 21  1  0
  5 22  1  0
  5 23  1  0
  6 24  1  0
  6 25  1  0
  8 26  1  0
  9 27  1  0
 10 28  1  0
 12 29  1  0
M  CHG  1   4   1
M  END
>  <UniqueID>  (29) 
28

>  <SMILES>  (29) 
CCC[NH2+]CCc1cccnc1

>  <Energy>  (29) 
20.032805594744428

>  <Genealogy>  (29) 
CCC[NH2+]CCc1cccnc1 (protonated)
CCC[NH2+]CCc1cccnc1 (3D coordinates assigned)
CCC[NH2+]CCc1cccnc1 (optimized conformer: 20.032805594744428 kcal/mol)

>  <smiles>  (29) 
CCCNCCc1cccnc1

>  <score_type>  (29) 
oracle

>  <origin>  (29) 
adg

>  <m_score__min__energy>  (29) 
-4.8499999999999996

>  <m_primary>  (29) 
energy

$$$$
29:0
     RDKit          3D

 55 57  0  0  0  0  0  0  0  0999 V2000
   -2.6610   24.4370  -29.3550 C   0  0  0  0  0  0  0  0  0  0  0  0
   -3.5000   24.9120  -30.4030 O   0  0  0  0  0  0  0  0  0  0  0  0
   -4.7620   24.3820  -30.7110 C   0  0  0  0  0  0  0  0  0  0  0  0
   -5.9430   24.8730  -30.1250 C   0  0  0  0  0  0  0  0  0  0  0  0
   -7.1710   24.3070  -30.4710 C   0  0  0  0  0  0  0  0  0  0  0  0
   -7.2250   23.2630  -31.4020 C   0  0  0  0  0  0  0  0  0  0  0  0
   -8.5370   22.6190  -31.7560 C   0  0  0  0  0  0  0  0  0  0  0  0
   -8.7100   21.2910  -31.0060 C   0  0  0  0  0  0  0  0  0  0  0  0
   -7.9230   20.2130  -31.6440 N   0  0  0  0  0  0  0  0  0  0  0  0
   -8.4900   18.8750  -31.3490 C   0  0  0  0  0  0  0  0  0  0  0  0
   -7.9840   17.7950  -32.3310 C   0  0  0  0  0  0  0  0  0  0  0  0
   -6.7030   18.1730  -32.9590 N   0  0  0  0  0  0  0  0  0  0  0  0
   -5.5890   18.2170  -31.9830 C   0  0  0  0  0  0  0  0  0  0  0  0
   -4.3530   18.8570  -32.6290 C   0  0  0  0  0  0  0  0  0  0  0  0
   -4.2160   20.3020  -32.3500 N   0  0  0  0  0  0  0  0  0  0  0  0
   -3.5870   21.1140  -33.4120 C   0  0  0  0  0  0  0  0  0  0  0  0
   -2.1320   21.4750  -33.0880 C   0  0  0  0  0  0  0  0  0  0  0  0
   -2.0370   22.0510  -31.8050 O   0  0  0  0  0  0  0  0  0  0  0  0
   -2.3710   21.0800  -30.8370 C   0  0  0  0  0  0  0  0  0  0  0  0
   -3.8440   20.6640  -30.9660 C   0  0  0  0  0  0  0  0  0  0  0  0
   -6.8380   19.4350  -33.7290 C   0  0  0  0  0  0  0  0  0  0  0  0
   -7.8350   20.4290  -33.0990 C   0  0  0  0  0  0  0  0  0  0  0  0
   -6.0260   22.7910  -31.9550 C   0  0  0  0  0  0  0  0  0  0  0  0
   -4.8380   23.3570  -31.6060 N   0  0  0  0  0  0  0  0  0  0  0  0
   -3.1092   24.6907  -28.3830 H   0  0  0  0  0  0  0  0  0  0  0  0
   -2.5554   23.3451  -29.4362 H   0  0  0  0  0  0  0  0  0  0  0  0
   -1.6704   24.9083  -29.4362 H   0  0  0  0  0  0  0  0  0  0  0  0
   -5.8989   25.6979  -29.3986 H   0  0  0  0  0  0  0  0  0  0  0  0
   -8.0975   24.6818  -30.0115 H   0  0  0  0  0  0  0  0  0  0  0  0
   -9.3580   23.2979  -31.4820 H   0  0  0  0  0  0  0  0  0  0  0  0
   -8.5519   22.4186  -32.8375 H   0  0  0  0  0  0  0  0  0  0  0  0
   -8.3699   21.4178  -29.9676 H   0  0  0  0  0  0  0  0  0  0  0  0
   -9.7733   21.0103  -31.0329 H   0  0  0  0  0  0  0  0  0  0  0  0
   -8.2029   18.5865  -30.3271 H   0  0  0  0  0  0  0  0  0  0  0  0
   -9.5828   18.9414  -31.4553 H   0  0  0  0  0  0  0  0  0  0  0  0
   -7.8451   16.8525  -31.7811 H   0  0  0  0  0  0  0  0  0  0  0  0
   -8.7331   17.6845  -33.1289 H   0  0  0  0  0  0  0  0  0  0  0  0
   -5.8931   18.8120  -31.1092 H   0  0  0  0  0  0  0  0  0  0  0  0
   -5.3431   17.1922  -31.6680 H   0  0  0  0  0  0  0  0  0  0  0  0
   -3.4576   18.3437  -32.2485 H   0  0  0  0  0  0  0  0  0  0  0  0
   -4.4683   18.7500  -33.7177 H   0  0  0  0  0  0  0  0  0  0  0  0
   -3.6084   20.5435  -34.3522 H   0  0  0  0  0  0  0  0  0  0  0  0
   -4.1544   22.0526  -33.4968 H   0  0  0  0  0  0  0  0  0  0  0  0
   -1.5175   20.5633  -33.1212 H   0  0  0  0  0  0  0  0  0  0  0  0
   -1.7737   22.2031  -33.8307 H   0  0  0  0  0  0  0  0  0  0  0  0
   -1.7328   20.1953  -30.9787 H   0  0  0  0  0  0  0  0  0  0  0  0
   -2.2129   21.5105  -29.8372 H   0  0  0  0  0  0  0  0  0  0  0  0
   -4.0226   19.7954  -30.3151 H   0  0  0  0  0  0  0  0  0  0  0  0
   -4.4596   21.5267  -30.6716 H   0  0  0  0  0  0  0  0  0  0  0  0
   -5.8512   19.9178  -33.7843 H   0  0  0  0  0  0  0  0  0  0  0  0
   -7.2256   19.1704  -34.7238 H   0  0  0  0  0  0  0  0  0  0  0  0
   -7.4943   21.4567  -33.2932 H   0  0  0  0  0  0  0  0  0  0  0  0
   -8.8280   20.2703  -33.5447 H   0  0  0  0  0  0  0  0  0  0  0  0
   -6.0454   21.9592  -32.6745 H   0  0  0  0  0  0  0  0  0  0  0  0
   -3.9610   22.9890  -32.0360 H   0  0  0  0  0  0  0  0  0  0  0  0
  1  2  1  0
  2  3  1  0
  3  4  2  0
  4  5  1  0
  5  6  2  0
  6  7  1  0
  7  8  1  0
  8  9  1  0
  9 10  1  0
 10 11  1  0
 11 12  1  0
 12 13  1  0
 13 14  1  0
 14 15  1  0
 15 16  1  0
 16 17  1  0
 17 18  1  0
 18 19  1  0
 19 20  1  0
 12 21  1  0
 21 22  1  0
  6 23  1  0
 23 24  2  0
 24  3  1  0
 22  9  1  0
 20 15  1  0
  1 25  1  0
  1 26  1  0
  1 27  1  0
  4 28  1  0
  5 29  1  0
  7 30  1  0
  7 31  1  0
  8 32  1  0
  8 33  1  0
 10 34  1  0
 10 35  1  0
 11 36  1  0
 11 37  1  0
 13 38  1  0
 13 39  1  0
 14 40  1  0
 14 41  1  0
 16 42  1  0
 16 43  1  0
 17 44  1  0
 17 45  1  0
 19 46  1  0
 19 47  1  0
 20 48  1  0
 20 49  1  0
 21 50  1  0
 21 51  1  0
 22 52  1  0
 22 53  1  0
 23 54  1  0
 24 55  1  0
M  CHG  1  24   1
M  END
>  <UniqueID>  (30) 
29

>  <SMILES>  (30) 
COc1ccc(CCN2CCN(CCN3CCOCC3)CC2)c[nH+]1

>  <Energy>  (30) 
73.25716978442347

>  <Genealogy>  (30) 
COc1ccc(CCN2CCN(CCN3CCOCC3)CC2)c[nH+]1 (protonated)
COc1ccc(CCN2CCN(CCN3CCOCC3)CC2)c[nH+]1 (3D coordinates assigned)
COc1ccc(CCN2CCN(CCN3CCOCC3)CC2)c[nH+]1 (nonaromatic ring conformer: 73.25716978442347 kcal/mol)

>  <smiles>  (30) 
COc1ccc(CCN2CCN(CCN3CCOCC3)CC2)cn1

>  <score_type>  (30) 
oracle

>  <origin>  (30) 
adg

>  <m_score__min__energy>  (30) 
-7.5199999999999996

>  <m_primary>  (30) 
energy

$$$$
30:0
     RDKit          3D

 45 48  0  0  0  0  0  0  0  0999 V2000
   -2.6680   25.2860  -26.3140 C   0  0  0  0  0  0  0  0  0  0  0  0
   -1.5980   25.6910  -26.9950 C   0  0  0  0  0  0  0  0  0  0  0  0
   -1.3090   25.2320  -28.3630 C   0  0  0  0  0  0  0  0  0  0  0  0
   -0.1500   24.8480  -28.6770 O   0  0  0  0  0  0  0  0  0  0  0  0
   -2.3530   25.2790  -29.3440 N   0  0  0  0  0  0  0  0  0  0  0  0
   -3.0390   24.1560  -29.9150 C   0  0  0  0  0  0  0  0  0  0  0  0
   -2.5160   22.8520  -29.8550 C   0  0  0  0  0  0  0  0  0  0  0  0
   -3.2390   21.7810  -30.3880 C   0  0  0  0  0  0  0  0  0  0  0  0
   -4.4850   21.9980  -30.9790 C   0  0  0  0  0  0  0  0  0  0  0  0
   -5.0210   23.2890  -31.0460 C   0  0  0  0  0  0  0  0  0  0  0  0
   -6.2850   23.4600  -31.6290 O   0  0  0  0  0  0  0  0  0  0  0  0
   -7.2770   22.4750  -31.7130 C   0  0  0  0  0  0  0  0  0  0  0  0
   -6.9900   21.2710  -32.3580 C   0  0  0  0  0  0  0  0  0  0  0  0
   -7.9960   20.2950  -32.4490 C   0  0  0  0  0  0  0  0  0  0  0  0
   -7.7860   19.0610  -33.0800 O   0  0  0  0  0  0  0  0  0  0  0  0
   -6.5370   18.5580  -33.4630 C   0  0  0  0  0  0  0  0  0  0  0  0
   -5.3870   19.2640  -33.4360 N   0  0  0  0  0  0  0  0  0  0  0  0
   -4.3170   18.5220  -33.8320 C   0  0  0  0  0  0  0  0  0  0  0  0
   -2.9520   19.1110  -33.8960 C   0  0  0  0  0  0  0  0  0  0  0  0
   -1.8530   18.2920  -34.2190 C   0  0  0  0  0  0  0  0  0  0  0  0
   -0.5630   18.8260  -34.2860 C   0  0  0  0  0  0  0  0  0  0  0  0
   -0.3520   20.1840  -34.0340 C   0  0  0  0  0  0  0  0  0  0  0  0
    1.2680   20.8520  -34.1200 Cl  0  0  0  0  0  0  0  0  0  0  0  0
   -1.4340   21.0100  -33.7200 C   0  0  0  0  0  0  0  0  0  0  0  0
   -2.7270   20.4800  -33.6510 C   0  0  0  0  0  0  0  0  0  0  0  0
   -4.6270   17.2010  -34.1700 C   0  0  0  0  0  0  0  0  0  0  0  0
   -6.2810   16.9780  -33.9610 S   0  0  0  0  0  0  0  0  0  0  0  0
   -9.2270   20.5640  -31.9410 N   0  0  0  0  0  0  0  0  0  0  0  0
   -9.4950   21.7450  -31.3270 C   0  0  0  0  0  0  0  0  0  0  0  0
   -8.5260   22.6890  -31.2160 N   0  0  0  0  0  0  0  0  0  0  0  0
   -4.3010   24.3630  -30.4880 C   0  0  0  0  0  0  0  0  0  0  0  0
   -2.8429   25.6564  -25.2931 H   0  0  0  0  0  0  0  0  0  0  0  0
   -3.3772   24.5809  -26.7722 H   0  0  0  0  0  0  0  0  0  0  0  0
   -0.9028   26.3963  -26.5163 H   0  0  0  0  0  0  0  0  0  0  0  0
   -1.5361   22.6745  -29.3878 H   0  0  0  0  0  0  0  0  0  0  0  0
   -2.8245   20.7631  -30.3416 H   0  0  0  0  0  0  0  0  0  0  0  0
   -5.0486   21.1495  -31.3943 H   0  0  0  0  0  0  0  0  0  0  0  0
   -5.9937   21.0897  -32.7875 H   0  0  0  0  0  0  0  0  0  0  0  0
   -2.0111   17.2222  -34.4204 H   0  0  0  0  0  0  0  0  0  0  0  0
    0.2878   18.1758  -34.5376 H   0  0  0  0  0  0  0  0  0  0  0  0
   -1.2689   22.0802  -33.5264 H   0  0  0  0  0  0  0  0  0  0  0  0
   -3.5739   21.1369  -33.4037 H   0  0  0  0  0  0  0  0  0  0  0  0
   -3.9121   16.4388  -34.5135 H   0  0  0  0  0  0  0  0  0  0  0  0
  -10.4984   21.9370  -30.9191 H   0  0  0  0  0  0  0  0  0  0  0  0
   -4.7335   25.3743  -30.5021 H   0  0  0  0  0  0  0  0  0  0  0  0
  1  2  2  0
  2  3  1  0
  3  4  2  0
  3  5  1  0
  5  6  1  0
  6  7  2  0
  7  8  1  0
  8  9  2  0
  9 10  1  0
 10 11  1  0
 11 12  1  0
 12 13  2  0
 13 14  1  0
 14 15  1  0
 15 16  1  0
 16 17  2  0
 17 18  1  0
 18 19  1  0
 19 20  2  0
 20 21  1  0
 21 22  2  0
 22 23  1  0
 22 24  1  0
 24 25  2  0
 18 26  2  0
 26 27  1  0
 14 28  2  0
 28 29  1  0
 29 30  2  0
 10 31  2  0
 31  6  1  0
 30 12  1  0
 27 16  1  0
 25 19  1  0
  1 32  1  0
  1 33  1  0
  2 34  1  0
  7 35  1  0
  8 36  1  0
  9 37  1  0
 13 38  1  0
 20 39  1  0
 21 40  1  0
 24 41  1  0
 25 42  1  0
 26 43  1  0
 29 44  1  0
 31 45  1  0
M  CHG  1   5  -1
M  END
>  <UniqueID>  (31) 
30

>  <SMILES>  (31) 
C=CC(=O)[N-]c1cccc(Oc2cc(Oc3nc(-c4ccc(Cl)cc4)cs3)ncn2)c1

>  <Energy>  (31) 
93.41581372483998

>  <Genealogy>  (31) 
C=CC(=O)[N-]c1cccc(Oc2cc(Oc3nc(-c4ccc(Cl)cc4)cs3)ncn2)c1 (protonated)
C=CC(=O)[N-]c1cccc(Oc2cc(Oc3nc(-c4ccc(Cl)cc4)cs3)ncn2)c1 (3D coordinates assigned)
C=CC(=O)[N-]c1cccc(Oc2cc(Oc3nc(-c4ccc(Cl)cc4)cs3)ncn2)c1 (optimized conformer: 93.41581372483998 kcal/mol)

>  <smiles>  (31) 
C=CC(=O)Nc1cccc(Oc2cc(Oc3nc(-c4ccc(Cl)cc4)cs3)ncn2)c1

>  <score_type>  (31) 
oracle

>  <origin>  (31) 
adg

>  <m_score__min__energy>  (31) 
-10.9

>  <m_primary>  (31) 
energy

$$$$
31:0
     RDKit          3D

 36 39  0  0  1  0  0  0  0  0999 V2000
   -5.7470   25.2220  -29.0410 N   0  0  0  0  0  0  0  0  0  0  0  0
   -5.4320   24.6250  -30.2900 C   0  0  0  0  0  0  0  0  0  0  0  0
   -4.4040   24.9840  -30.9020 O   0  0  0  0  0  0  0  0  0  0  0  0
   -6.2680   23.5970  -30.9000 C   0  0  0  0  0  0  0  0  0  0  0  0
   -7.5920   23.7970  -31.2270 C   0  0  0  0  0  0  0  0  0  0  0  0
   -8.0510   22.6050  -31.7820 C   0  0  0  0  0  0  0  0  0  0  0  0
   -6.9610   21.7470  -31.7560 C   0  0  0  0  0  0  0  0  0  0  0  0
   -6.9310   20.3680  -32.2310 C   0  0  0  0  0  0  0  0  0  0  0  0
   -7.9550   19.5180  -31.9440 C   0  0  0  0  0  0  0  0  0  0  0  0
   -8.0280   18.2030  -32.3400 C   0  0  0  0  0  0  0  0  0  0  0  0
   -6.9430   17.7510  -33.0950 C   0  0  0  0  0  0  0  0  0  0  0  0
   -7.0160   16.4670  -33.4890 N   0  0  0  0  0  0  0  0  0  0  0  0
   -6.0280   15.9290  -34.2240 C   0  0  0  0  0  0  0  0  0  0  0  0
   -4.9980   16.7310  -34.5300 N   0  0  0  0  0  0  0  0  0  0  0  0
   -4.8860   18.0090  -34.1590 C   0  0  0  0  0  0  0  0  0  0  0  0
   -3.8810   18.6590  -34.4780 N   0  0  0  0  0  0  0  0  0  0  0  0
   -2.7290   18.9950  -33.6920 C   0  0  0  0  0  0  0  0  0  0  0  0
   -1.6640   19.9400  -34.1860 C   0  0  0  0  0  0  0  0  0  0  0  0
   -2.7470   20.5510  -33.4530 C   0  0  0  0  0  0  0  0  0  0  0  0
   -5.8790   18.5830  -33.4100 C   0  0  0  0  0  0  0  0  0  0  0  0
   -5.8450   19.8840  -32.9980 C   0  0  0  0  0  0  0  0  0  0  0  0
   -5.9350   22.3600  -31.2340 O   0  0  0  0  0  0  0  0  0  0  0  0
   -5.6190   26.2520  -28.9370 H   0  0  0  0  0  0  0  0  0  0  0  0
   -6.1000   24.6940  -28.2120 H   0  0  0  0  0  0  0  0  0  0  0  0
   -8.1732   24.7190  -31.0784 H   0  0  0  0  0  0  0  0  0  0  0  0
   -9.0614   22.3898  -32.1600 H   0  0  0  0  0  0  0  0  0  0  0  0
   -8.7903   19.9145  -31.3481 H   0  0  0  0  0  0  0  0  0  0  0  0
   -8.8782   17.5548  -32.0813 H   0  0  0  0  0  0  0  0  0  0  0  0
   -6.0626   14.8816  -34.5583 H   0  0  0  0  0  0  0  0  0  0  0  0
   -4.2330   16.3130  -35.0990 H   0  0  0  0  0  0  0  0  0  0  0  0
   -2.6531   18.0230  -33.1826 H   0  0  0  0  0  0  0  0  0  0  0  0
   -0.6620   19.9041  -33.7336 H   0  0  0  0  0  0  0  0  0  0  0  0
   -1.2293   20.1282  -35.1788 H   0  0  0  0  0  0  0  0  0  0  0  0
   -2.5708   20.9555  -32.4454 H   0  0  0  0  0  0  0  0  0  0  0  0
   -3.4631   21.3619  -33.6522 H   0  0  0  0  0  0  0  0  0  0  0  0
   -4.9979   20.5371  -33.2548 H   0  0  0  0  0  0  0  0  0  0  0  0
  1  2  1  0
  2  3  2  0
  2  4  1  0
  4  5  2  0
  5  6  1  0
  6  7  2  0
  7  8  1  0
  8  9  2  0
  9 10  1  0
 10 11  2  0
 11 12  1  0
 12 13  2  0
 13 14  1  0
 14 15  1  0
 15 16  2  0
 16 17  1  0
 17 18  1  0
 18 19  1  0
 15 20  1  0
 20 21  2  0
  7 22  1  0
 22  4  1  0
 21  8  1  0
 20 11  1  0
 19 17  1  0
  1 23  1  0
  1 24  1  0
  5 25  1  0
  6 26  1  0
  9 27  1  0
 10 28  1  0
 13 29  1  0
 14 30  1  0
 17 31  1  0
 18 32  1  0
 18 33  1  0
 19 34  1  0
 19 35  1  0
 21 36  1  0
M  END
>  <smiles>  (32) 
NC(=O)c1ccc(-c2ccc3nc[nH]c(=NC4CC4)c3c2)o1

>  <score_type>  (32) 
oracle

>  <origin>  (32) 
adg

>  <m_score__min__energy>  (32) 
-8.6099999999999994

>  <m_primary>  (32) 
energy

$$$$
32:0
     RDKit          3D

 29 31  0  0  0  0  0  0  0  0999 V2000
   -0.6110   27.5750  -24.4660 C   0  0  0  0  0  0  0  0  0  0  0  0
   -0.0650   26.5880  -23.6450 C   0  0  0  0  0  0  0  0  0  0  0  0
   -0.1450   25.2790  -24.0060 N   0  0  0  0  0  0  0  0  0  0  0  0
   -0.7500   24.8940  -25.1630 C   0  0  0  0  0  0  0  0  0  0  0  0
   -1.3130   25.8540  -26.0250 C   0  0  0  0  0  0  0  0  0  0  0  0
   -1.9610   25.4930  -27.2610 N   0  0  0  0  0  0  0  0  0  0  0  0
   -1.3440   24.6840  -28.3120 C   0  0  0  0  0  0  0  0  0  0  0  0
   -2.3740   24.2470  -29.3050 C   0  0  0  0  0  0  0  0  0  0  0  0
   -2.2430   23.1150  -30.0480 N   0  0  0  0  0  0  0  0  0  0  0  0
   -3.3700   23.1160  -30.7750 C   0  0  0  0  0  0  0  0  0  0  0  0
   -3.7730   22.1800  -31.7240 C   0  0  0  0  0  0  0  0  0  0  0  0
   -5.0080   22.3900  -32.3660 C   0  0  0  0  0  0  0  0  0  0  0  0
   -5.7970   23.5190  -32.0440 C   0  0  0  0  0  0  0  0  0  0  0  0
   -5.3560   24.4430  -31.0780 C   0  0  0  0  0  0  0  0  0  0  0  0
   -4.1300   24.2020  -30.4650 C   0  0  0  0  0  0  0  0  0  0  0  0
   -3.5210   24.9410  -29.5260 N   0  0  0  0  0  0  0  0  0  0  0  0
   -1.2370   27.2050  -25.6570 C   0  0  0  0  0  0  0  0  0  0  0  0
   -0.5486   28.6346  -24.1773 H   0  0  0  0  0  0  0  0  0  0  0  0
    0.4310   26.8688  -22.7042 H   0  0  0  0  0  0  0  0  0  0  0  0
    0.2680   24.5520  -23.3800 H   0  0  0  0  0  0  0  0  0  0  0  0
   -0.7992   23.8270  -25.4258 H   0  0  0  0  0  0  0  0  0  0  0  0
   -2.9310   25.8410  -27.4350 H   0  0  0  0  0  0  0  0  0  0  0  0
   -0.5758   25.2811  -28.8253 H   0  0  0  0  0  0  0  0  0  0  0  0
   -0.8875   23.7934  -27.8555 H   0  0  0  0  0  0  0  0  0  0  0  0
   -3.1481   21.3070  -31.9636 H   0  0  0  0  0  0  0  0  0  0  0  0
   -5.3611   21.6728  -33.1216 H   0  0  0  0  0  0  0  0  0  0  0  0
   -6.7604   23.6758  -32.5512 H   0  0  0  0  0  0  0  0  0  0  0  0
   -5.9594   25.3249  -30.8167 H   0  0  0  0  0  0  0  0  0  0  0  0
   -1.6725   27.9760  -26.3096 H   0  0  0  0  0  0  0  0  0  0  0  0
  1  2  2  0
  2  3  1  0
  3  4  2  0
  4  5  1  0
  5  6  1  0
  6  7  1  0
  7  8  1  0
  8  9  2  0
  9 10  1  0
 10 11  2  0
 11 12  1  0
 12 13  2  0
 13 14  1  0
 14 15  2  0
 15 16  1  0
  5 17  2  0
 17  1  1  0
 16  8  1  0
 15 10  1  0
  1 18  1  0
  2 19  1  0
  3 20  1  0
  4 21  1  0
  6 22  1  0
  7 23  1  0
  7 24  1  0
 11 25  1  0
 12 26  1  0
 13 27  1  0
 14 28  1  0
 17 29  1  0
M  CHG  2   3   1  16  -1
M  END
>  <UniqueID>  (33) 
31

>  <SMILES>  (33) 
c1c[nH+]cc(NCc2nc3ccccc3[n-]2)c1

>  <Energy>  (33) 
64.69834245709835

>  <Genealogy>  (33) 
c1c[nH+]cc(NCc2nc3ccccc3[n-]2)c1 (protonated)
c1c[nH+]cc(NCc2nc3ccccc3[n-]2)c1 (3D coordinates assigned)
c1c[nH+]cc(NCc2nc3ccccc3[n-]2)c1 (optimized conformer: 64.69834245709835 kcal/mol)

>  <smiles>  (33) 
c1cncc(NCc2nc3ccccc3[nH]2)c1

>  <score_type>  (33) 
oracle

>  <origin>  (33) 
adg

>  <m_score__min__energy>  (33) 
-7.2400000000000002

>  <m_primary>  (33) 
energy

$$$$
33:0
     RDKit          3D

 40 43  0  0  0  0  0  0  0  0999 V2000
   -1.0699   18.8752  -33.6517 H   0  0  0  0  0  0  0  0  0  0  0  0
   -2.0950   19.2150  -33.8610 C   0  0  0  0  0  0  0  0  0  0  0  0
   -3.1470   18.1990  -34.0690 C   0  0  0  0  0  0  0  0  0  0  0  0
   -2.8930   17.2320  -34.8350 O   0  0  0  0  0  0  0  0  0  0  0  0
   -4.4740   18.2600  -33.4090 C   0  0  0  0  0  0  0  0  0  0  0  0
   -4.9930   17.1440  -32.7310 C   0  0  0  0  0  0  0  0  0  0  0  0
   -4.4020   16.2180  -32.6742 H   0  0  0  0  0  0  0  0  0  0  0  0
   -6.2530   17.1990  -32.1280 C   0  0  0  0  0  0  0  0  0  0  0  0
   -6.6441   16.3209  -31.5933 H   0  0  0  0  0  0  0  0  0  0  0  0
   -7.0190   18.3700  -32.2030 C   0  0  0  0  0  0  0  0  0  0  0  0
   -8.2850   18.4370  -31.6010 C   0  0  0  0  0  0  0  0  0  0  0  0
   -8.6824   17.5654  -31.0603 H   0  0  0  0  0  0  0  0  0  0  0  0
   -9.0420   19.6090  -31.6870 C   0  0  0  0  0  0  0  0  0  0  0  0
  -10.0336   19.6571  -31.2133 H   0  0  0  0  0  0  0  0  0  0  0  0
   -8.5430   20.7200  -32.3730 C   0  0  0  0  0  0  0  0  0  0  0  0
   -9.1424   21.6402  -32.4363 H   0  0  0  0  0  0  0  0  0  0  0  0
   -7.2840   20.6650  -32.9790 C   0  0  0  0  0  0  0  0  0  0  0  0
   -6.8962   21.5411  -33.5195 H   0  0  0  0  0  0  0  0  0  0  0  0
   -6.5140   19.4940  -32.8990 C   0  0  0  0  0  0  0  0  0  0  0  0
   -5.2480   19.4290  -33.5010 C   0  0  0  0  0  0  0  0  0  0  0  0
   -4.8587   20.2997  -34.0490 H   0  0  0  0  0  0  0  0  0  0  0  0
   -2.3340   20.5300  -33.9160 C   0  0  0  0  0  0  0  0  0  0  0  0
   -2.2415   21.0519  -34.8799 H   0  0  0  0  0  0  0  0  0  0  0  0
   -2.7170   21.2950  -32.7210 C   0  0  0  0  0  0  0  0  0  0  0  0
   -1.9490   21.3660  -31.6150 N   0  0  0  0  0  0  0  0  0  0  0  0
   -2.6610   22.1520  -30.7860 C   0  0  0  0  0  0  0  0  0  0  0  0
   -2.3610   22.4459  -29.7693 H   0  0  0  0  0  0  0  0  0  0  0  0
   -3.8300   22.5300  -31.4190 C   0  0  0  0  0  0  0  0  0  0  0  0
   -4.9320   23.3730  -30.8970 C   0  0  0  0  0  0  0  0  0  0  0  0
   -6.2330   22.8380  -30.8710 C   0  0  0  0  0  0  0  0  0  0  0  0
   -6.4096   21.8172  -31.2407 H   0  0  0  0  0  0  0  0  0  0  0  0
   -7.3030   23.5910  -30.3800 C   0  0  0  0  0  0  0  0  0  0  0  0
   -8.3144   23.1589  -30.3592 H   0  0  0  0  0  0  0  0  0  0  0  0
   -7.0910   24.8900  -29.9160 C   0  0  0  0  0  0  0  0  0  0  0  0
   -7.9333   25.4790  -29.5239 H   0  0  0  0  0  0  0  0  0  0  0  0
   -5.8090   25.4410  -29.9500 C   0  0  0  0  0  0  0  0  0  0  0  0
   -5.6450   26.4662  -29.5865 H   0  0  0  0  0  0  0  0  0  0  0  0
   -4.7300   24.6970  -30.4440 C   0  0  0  0  0  0  0  0  0  0  0  0
   -3.4790   25.2990  -30.5000 O   0  0  0  0  0  0  0  0  0  0  0  0
   -3.8330   21.9790  -32.6080 O   0  0  0  0  0  0  0  0  0  0  0  0
  1  2  1  0
  2  3  1  0
  3  4  2  0
  3  5  1  0
  5  6  2  0
  6  7  1  0
  6  8  1  0
  8  9  1  0
  8 10  2  0
 10 11  1  0
 11 12  1  0
 11 13  2  0
 13 14  1  0
 13 15  1  0
 15 16  1  0
 15 17  2  0
 17 18  1  0
 17 19  1  0
 19 20  2  0
 20 21  1  0
  2 22  2  0
 22 23  1  0
 22 24  1  0
 24 25  2  0
 25 26  1  0
 26 27  1  0
 26 28  2  0
 28 29  1  0
 29 30  2  0
 30 31  1  0
 30 32  1  0
 32 33  1  0
 32 34  2  0
 34 35  1  0
 34 36  1  0
 36 37  1  0
 36 38  2  0
 38 39  1  0
 28 40  1  0
 20  5  1  0
 40 24  1  0
 19 10  1  0
 38 29  1  0
M  CHG  1  39  -1
M  END
>  <UniqueID>  (34) 
32

>  <SMILES>  (34) 
O=C(/C=C/c1ncc(-c2ccccc2[O-])o1)c1ccc2ccccc2c1

>  <Energy>  (34) 
84.38218472445406

>  <Genealogy>  (34) 
O=C(C=Cc1ncc(-c2ccccc2[O-])o1)c1ccc2ccccc2c1 (protonated)
O=C(/C=C/c1ncc(-c2ccccc2[O-])o1)c1ccc2ccccc2c1 (cis-trans isomerization)
O=C(/C=C/c1ncc(-c2ccccc2[O-])o1)c1ccc2ccccc2c1 (3D coordinates assigned)
O=C(/C=C/c1ncc(-c2ccccc2[O-])o1)c1ccc2ccccc2c1 (optimized conformer: 84.38218472445406 kcal/mol)

>  <smiles>  (34) 
O=C(C=Cc1ncc(-c2ccccc2O)o1)c1ccc2ccccc2c1

>  <score_type>  (34) 
oracle

>  <origin>  (34) 
adg

>  <m_score__min__energy>  (34) 
-12.76

>  <m_primary>  (34) 
energy

$$$$
34:0
     RDKit          3D

 27 28  0  0  0  0  0  0  0  0999 V2000
   -4.3910   22.6810  -28.2540 C   0  0  0  0  0  0  0  0  0  0  0  0
   -4.4450   23.7120  -29.2920 N   0  0  0  0  0  0  0  0  0  0  0  0
   -5.4200   23.9430  -30.2000 C   0  0  0  0  0  0  0  0  0  0  0  0
   -6.7510   23.2560  -30.2500 C   0  0  0  0  0  0  0  0  0  0  0  0
   -7.4950   23.4090  -31.9110 S   0  0  0  0  0  0  0  0  0  0  0  0
   -7.1420   21.7170  -32.4000 C   0  0  0  0  0  0  0  0  0  0  0  0
   -5.8740   21.3940  -32.7700 N   0  0  0  0  0  0  0  0  0  0  0  0
   -5.5260   20.1310  -33.1310 C   0  0  0  0  0  0  0  0  0  0  0  0
   -6.4880   19.1090  -33.1480 C   0  0  0  0  0  0  0  0  0  0  0  0
   -6.1010   17.6910  -33.4830 C   0  0  0  0  0  0  0  0  0  0  0  0
   -5.5490   17.6580  -34.7500 F   0  0  0  0  0  0  0  0  0  0  0  0
   -7.2070   16.8600  -33.4510 F   0  0  0  0  0  0  0  0  0  0  0  0
   -5.1730   17.2120  -32.5750 F   0  0  0  0  0  0  0  0  0  0  0  0
   -7.7990   19.4200  -32.7570 C   0  0  0  0  0  0  0  0  0  0  0  0
   -8.1390   20.7260  -32.3970 C   0  0  0  0  0  0  0  0  0  0  0  0
   -9.8030   21.0870  -31.9590 Cl  0  0  0  0  0  0  0  0  0  0  0  0
   -5.0610   24.9110  -31.0680 N   0  0  0  0  0  0  0  0  0  0  0  0
   -3.8380   25.2990  -30.7380 N   0  0  0  0  0  0  0  0  0  0  0  0
   -3.4720   24.5640  -29.6730 C   0  0  0  0  0  0  0  0  0  0  0  0
   -2.0040   24.6960  -28.9580 S   0  0  0  0  0  0  0  0  0  0  0  0
   -4.4159   23.1571  -27.2627 H   0  0  0  0  0  0  0  0  0  0  0  0
   -5.2552   22.0087  -28.3597 H   0  0  0  0  0  0  0  0  0  0  0  0
   -3.4613   22.1026  -28.3597 H   0  0  0  0  0  0  0  0  0  0  0  0
   -6.6166   22.1906  -30.0114 H   0  0  0  0  0  0  0  0  0  0  0  0
   -7.4211   23.7298  -29.5175 H   0  0  0  0  0  0  0  0  0  0  0  0
   -4.4858   19.9086  -33.4111 H   0  0  0  0  0  0  0  0  0  0  0  0
   -8.5642   18.6301  -32.7338 H   0  0  0  0  0  0  0  0  0  0  0  0
  1  2  1  0
  2  3  1  0
  3  4  1  0
  4  5  1  0
  5  6  1  0
  6  7  2  0
  7  8  1  0
  8  9  2  0
  9 10  1  0
 10 11  1  0
 10 12  1  0
 10 13  1  0
  9 14  1  0
 14 15  2  0
 15 16  1  0
  3 17  2  0
 17 18  1  0
 18 19  1  0
 19 20  2  0
 19  2  1  0
 15  6  1  0
  1 21  1  0
  1 22  1  0
  1 23  1  0
  4 24  1  0
  4 25  1  0
  8 26  1  0
 14 27  1  0
M  CHG  1  18  -1
M  END
>  <UniqueID>  (35) 
33

>  <SMILES>  (35) 
Cn1c(CSc2ncc(C(F)(F)F)cc2Cl)n[n-]c1=S

>  <Energy>  (35) 
58.715138562140446

>  <Genealogy>  (35) 
Cn1c(CSc2ncc(C(F)(F)F)cc2Cl)n[n-]c1=S (protonated)
Cn1c(CSc2ncc(C(F)(F)F)cc2Cl)n[n-]c1=S (3D coordinates assigned)
Cn1c(CSc2ncc(C(F)(F)F)cc2Cl)n[n-]c1=S (optimized conformer: 58.715138562140446 kcal/mol)

>  <smiles>  (35) 
Cn1c(CSc2ncc(C(F)(F)F)cc2Cl)n[nH]c1=S

>  <score_type>  (35) 
oracle

>  <origin>  (35) 
adg

>  <m_score__min__energy>  (35) 
-8.8300000000000001

>  <m_primary>  (35) 
energy

$$$$
35:0
     RDKit          3D

 37 39  0  0  0  0  0  0  0  0999 V2000
   -0.5000   19.8740  -31.6910 O   0  0  0  0  0  0  0  0  0  0  0  0
   -1.5000   20.6380  -31.7460 C   0  0  0  0  0  0  0  0  0  0  0  0
   -1.5960   21.7680  -30.7560 C   0  0  0  0  0  0  0  0  0  0  0  0
   -3.1290   21.6350  -29.7750 S   0  0  0  0  0  0  0  0  0  0  0  0
   -3.7900   23.2080  -30.3290 C   0  0  0  0  0  0  0  0  0  0  0  0
   -5.0500   23.4530  -30.8210 C   0  0  0  0  0  0  0  0  0  0  0  0
   -5.1100   24.7640  -31.1300 N   0  0  0  0  0  0  0  0  0  0  0  0
   -3.9280   25.2890  -30.8380 N   0  0  0  0  0  0  0  0  0  0  0  0
   -3.1150   24.3650  -30.3520 N   0  0  0  0  0  0  0  0  0  0  0  0
   -2.5390   20.3750  -32.7080 N   0  0  0  0  0  0  0  0  0  0  0  0
   -2.8620   18.9790  -33.0420 C   0  0  0  0  0  0  0  0  0  0  0  0
   -4.1870   18.8850  -33.8110 C   0  0  0  0  0  0  0  0  0  0  0  0
   -5.1640   19.8160  -33.2220 N   0  0  0  0  0  0  0  0  0  0  0  0
   -6.3140   19.2980  -32.5170 C   0  0  0  0  0  0  0  0  0  0  0  0
   -6.2910   18.1180  -32.0740 O   0  0  0  0  0  0  0  0  0  0  0  0
   -7.5230   20.1120  -32.2710 C   0  0  0  0  0  0  0  0  0  0  0  0
   -7.5430   21.3370  -31.6130 C   0  0  0  0  0  0  0  0  0  0  0  0
   -8.8290   21.8710  -31.4630 C   0  0  0  0  0  0  0  0  0  0  0  0
   -9.8310   21.0660  -31.9880 C   0  0  0  0  0  0  0  0  0  0  0  0
   -9.1120   19.6910  -32.6350 S   0  0  0  0  0  0  0  0  0  0  0  0
   -4.7960   21.2400  -33.1050 C   0  0  0  0  0  0  0  0  0  0  0  0
   -3.2980   21.4520  -33.3600 C   0  0  0  0  0  0  0  0  0  0  0  0
   -0.7295   21.7303  -30.0794 H   0  0  0  0  0  0  0  0  0  0  0  0
   -1.6087   22.7207  -31.3058 H   0  0  0  0  0  0  0  0  0  0  0  0
   -5.8585   22.7168  -30.9403 H   0  0  0  0  0  0  0  0  0  0  0  0
   -2.1270   24.5280  -30.0580 H   0  0  0  0  0  0  0  0  0  0  0  0
   -2.0557   18.5630  -33.6640 H   0  0  0  0  0  0  0  0  0  0  0  0
   -2.9615   18.4107  -32.1055 H   0  0  0  0  0  0  0  0  0  0  0  0
   -4.0184   19.1492  -34.8654 H   0  0  0  0  0  0  0  0  0  0  0  0
   -4.5754   17.8578  -33.7477 H   0  0  0  0  0  0  0  0  0  0  0  0
   -6.6356   21.8385  -31.2455 H   0  0  0  0  0  0  0  0  0  0  0  0
   -9.0265   22.8370  -30.9753 H   0  0  0  0  0  0  0  0  0  0  0  0
  -10.9081   21.2891  -31.9817 H   0  0  0  0  0  0  0  0  0  0  0  0
   -5.3705   21.8202  -33.8421 H   0  0  0  0  0  0  0  0  0  0  0  0
   -5.0246   21.5745  -32.0823 H   0  0  0  0  0  0  0  0  0  0  0  0
   -3.1033   21.4359  -34.4425 H   0  0  0  0  0  0  0  0  0  0  0  0
   -2.9873   22.4239  -32.9490 H   0  0  0  0  0  0  0  0  0  0  0  0
  1  2  2  0
  2  3  1  0
  3  4  1  0
  4  5  1  0
  5  6  2  0
  6  7  1  0
  7  8  1  0
  8  9  2  0
  2 10  1  0
 10 11  1  0
 11 12  1  0
 12 13  1  0
 13 14  1  0
 14 15  2  0
 14 16  1  0
 16 17  2  0
 17 18  1  0
 18 19  2  0
 19 20  1  0
 13 21  1  0
 21 22  1  0
  9  5  1  0
 22 10  1  0
 20 16  1  0
  3 23  1  0
  3 24  1  0
  6 25  1  0
  9 26  1  0
 11 27  1  0
 11 28  1  0
 12 29  1  0
 12 30  1  0
 17 31  1  0
 18 32  1  0
 19 33  1  0
 21 34  1  0
 21 35  1  0
 22 36  1  0
 22 37  1  0
M  CHG  2   7  -1   9   1
M  END
>  <UniqueID>  (36) 
34

>  <SMILES>  (36) 
O=C(CSc1c[n-]n[nH+]1)N1CCN(C(=O)c2cccs2)CC1

>  <Energy>  (36) 
99.36594050876275

>  <Genealogy>  (36) 
O=C(CSc1c[n-]n[nH+]1)N1CCN(C(=O)c2cccs2)CC1 (protonated)
O=C(CSc1c[n-]n[nH+]1)N1CCN(C(=O)c2cccs2)CC1 (3D coordinates assigned)
O=C(CSc1c[n-]n[nH+]1)N1CCN(C(=O)c2cccs2)CC1 (nonaromatic ring conformer: 99.36594050876275 kcal/mol)

>  <smiles>  (36) 
O=C(CSc1c[nH]nn1)N1CCN(C(=O)c2cccs2)CC1

>  <score_type>  (36) 
oracle

>  <origin>  (36) 
adg

>  <m_score__min__energy>  (36) 
-7.6900000000000004

>  <m_primary>  (36) 
energy

$$$$
36:0
     RDKit          3D

 44 46  0  0  0  0  0  0  0  0999 V2000
   -6.4030   25.6940  -29.3450 C   0  0  0  0  0  0  0  0  0  0  0  0
   -5.5710   25.5750  -30.4930 O   0  0  0  0  0  0  0  0  0  0  0  0
   -5.0060   24.3600  -30.8920 C   0  0  0  0  0  0  0  0  0  0  0  0
   -3.7540   24.2060  -30.8570 O   0  0  0  0  0  0  0  0  0  0  0  0
   -5.8990   23.2430  -31.3040 C   0  0  0  0  0  0  0  0  0  0  0  0
   -5.3940   21.9920  -31.5480 C   0  0  0  0  0  0  0  0  0  0  0  0
   -3.9700   21.7720  -31.5160 N   0  0  0  0  0  0  0  0  0  0  0  0
   -3.1800   21.9140  -32.7460 C   0  0  0  0  0  0  0  0  0  0  0  0
   -2.2230   20.7230  -32.9210 C   0  0  0  0  0  0  0  0  0  0  0  0
   -1.5780   20.2390  -31.6020 C   0  0  0  0  0  0  0  0  0  0  0  0
   -1.8230   21.1900  -30.4250 C   0  0  0  0  0  0  0  0  0  0  0  0
   -3.3240   21.4310  -30.2400 C   0  0  0  0  0  0  0  0  0  0  0  0
   -6.2710   20.8140  -31.8570 C   0  0  0  0  0  0  0  0  0  0  0  0
   -5.7290   19.6470  -32.4320 C   0  0  0  0  0  0  0  0  0  0  0  0
   -6.5350   18.5300  -32.6730 C   0  0  0  0  0  0  0  0  0  0  0  0
   -7.8900   18.5600  -32.3440 C   0  0  0  0  0  0  0  0  0  0  0  0
   -8.4470   19.7100  -31.7830 C   0  0  0  0  0  0  0  0  0  0  0  0
   -7.6410   20.8300  -31.5440 C   0  0  0  0  0  0  0  0  0  0  0  0
   -8.3190   22.3020  -30.9180 S   0  0  0  0  0  0  0  0  0  0  0  0
   -8.2890   22.2870  -29.4160 O   0  0  0  0  0  0  0  0  0  0  0  0
   -9.7320   22.4900  -31.3980 O   0  0  0  0  0  0  0  0  0  0  0  0
   -7.2990   23.5680  -31.5250 N   0  0  2  0  0  0  0  0  0  0  0  0
   -7.5480   23.7960  -32.9560 C   0  0  0  0  0  0  0  0  0  0  0  0
   -5.7890   25.6062  -28.4365 H   0  0  0  0  0  0  0  0  0  0  0  0
   -6.9044   26.6730  -29.3555 H   0  0  0  0  0  0  0  0  0  0  0  0
   -7.1588   24.8948  -29.3555 H   0  0  0  0  0  0  0  0  0  0  0  0
   -3.8609   21.9593  -33.6087 H   0  0  0  0  0  0  0  0  0  0  0  0
   -2.5855   22.8370  -32.6786 H   0  0  0  0  0  0  0  0  0  0  0  0
   -2.7877   19.8862  -33.3579 H   0  0  0  0  0  0  0  0  0  0  0  0
   -1.4037   21.0644  -33.5708 H   0  0  0  0  0  0  0  0  0  0  0  0
   -1.9973   19.2541  -31.3487 H   0  0  0  0  0  0  0  0  0  0  0  0
   -0.4912   20.1958  -31.7664 H   0  0  0  0  0  0  0  0  0  0  0  0
   -1.4111   20.7451  -29.5072 H   0  0  0  0  0  0  0  0  0  0  0  0
   -1.3292   22.1508  -30.6325 H   0  0  0  0  0  0  0  0  0  0  0  0
   -3.7867   20.5183  -29.8364 H   0  0  0  0  0  0  0  0  0  0  0  0
   -3.4581   22.2739  -29.5460 H   0  0  0  0  0  0  0  0  0  0  0  0
   -4.6611   19.6145  -32.6939 H   0  0  0  0  0  0  0  0  0  0  0  0
   -6.0994   17.6257  -33.1230 H   0  0  0  0  0  0  0  0  0  0  0  0
   -8.5199   17.6769  -32.5268 H   0  0  0  0  0  0  0  0  0  0  0  0
   -9.5170   19.7367  -31.5291 H   0  0  0  0  0  0  0  0  0  0  0  0
   -7.5540   24.4380  -31.0020 H   0  0  0  0  0  0  0  0  0  0  0  0
   -8.3545   24.5345  -33.0747 H   0  0  0  0  0  0  0  0  0  0  0  0
   -6.6313   24.1744  -33.4319 H   0  0  0  0  0  0  0  0  0  0  0  0
   -7.8444   22.8496  -33.4319 H   0  0  0  0  0  0  0  0  0  0  0  0
  1  2  1  0
  2  3  1  0
  3  4  2  0
  3  5  1  0
  5  6  2  0
  6  7  1  0
  7  8  1  0
  8  9  1  0
  9 10  1  0
 10 11  1  0
 11 12  1  0
  6 13  1  0
 13 14  2  0
 14 15  1  0
 15 16  2  0
 16 17  1  0
 17 18  2  0
 18 19  1  0
 19 20  2  0
 19 21  2  0
 19 22  1  0
 22 23  1  0
 22  5  1  0
 12  7  1  0
 18 13  1  0
  1 24  1  0
  1 25  1  0
  1 26  1  0
  8 27  1  0
  8 28  1  0
  9 29  1  0
  9 30  1  0
 10 31  1  0
 10 32  1  0
 11 33  1  0
 11 34  1  0
 12 35  1  0
 12 36  1  0
 14 37  1  0
 15 38  1  0
 16 39  1  0
 17 40  1  0
 22 41  1  1
 23 42  1  0
 23 43  1  0
 23 44  1  0
M  CHG  1  22   1
M  END
>  <UniqueID>  (37) 
35

>  <SMILES>  (37) 
COC(=O)C1=C(N2CCCCC2)c2ccccc2S(=O)(=O)[N@@H+]1C

>  <Energy>  (37) 
58.53028885173537

>  <Genealogy>  (37) 
COC(=O)C1=C(N2CCCCC2)c2ccccc2S(=O)(=O)[NH+]1C (protonated)
COC(=O)C1=C(N2CCCCC2)c2ccccc2S(=O)(=O)[N@@H+]1C (chirality)
COC(=O)C1=C(N2CCCCC2)c2ccccc2S(=O)(=O)[N@@H+]1C (3D coordinates assigned)
COC(=O)C1=C(N2CCCCC2)c2ccccc2S(=O)(=O)[N@@H+]1C (nonaromatic ring conformer: 58.53028885173537 kcal/mol)

>  <smiles>  (37) 
COC(=O)C1=C(N2CCCCC2)c2ccccc2S(=O)(=O)N1C

>  <score_type>  (37) 
oracle

>  <origin>  (37) 
adg

>  <m_score__min__energy>  (37) 
-7.3300000000000001

>  <m_primary>  (37) 
energy

$$$$
37:0
     RDKit          3D

 32 33  0  0  0  0  0  0  0  0999 V2000
    1.2145   27.0446  -22.6339 H   0  0  0  0  0  0  0  0  0  0  0  0
    0.6220   26.7480  -23.5120 C   0  0  0  0  0  0  0  0  0  0  0  0
    1.1710   25.9650  -24.4760 N   0  0  0  0  0  0  0  0  0  0  0  0
    0.4600   25.5800  -25.5710 C   0  0  0  0  0  0  0  0  0  0  0  0
    1.1140   24.7710  -26.6180 C   0  0  0  0  0  0  0  0  0  0  0  0
    2.0460   23.9770  -26.3230 O   0  0  0  0  0  0  0  0  0  0  0  0
    0.6890   24.8810  -27.9800 N   0  0  0  0  0  0  0  0  0  0  0  0
   -0.1970   23.9120  -28.6330 C   0  0  2  0  0  0  0  0  0  0  0  0
    0.3093   23.5314  -29.5323 H   0  0  0  0  0  0  0  0  0  0  0  0
   -1.4770   24.5850  -29.0520 C   0  0  0  0  0  0  0  0  0  0  0  0
   -1.6210   25.8210  -28.8490 O   0  0  0  0  0  0  0  0  0  0  0  0
   -2.5370   23.8030  -29.6260 N   0  0  0  0  0  0  0  0  0  0  0  0
   -3.7230   24.2360  -29.9300 C   0  0  0  0  0  0  0  0  0  0  0  0
   -3.9660   25.2980  -30.7300 N   0  0  0  0  0  0  0  0  0  0  0  0
   -5.3000   25.5500  -30.8280 C   0  0  0  0  0  0  0  0  0  0  0  0
   -5.7020   26.3728  -31.4375 H   0  0  0  0  0  0  0  0  0  0  0  0
   -6.1180   24.6910  -30.1010 C   0  0  0  0  0  0  0  0  0  0  0  0
   -7.2162   24.7317  -30.0526 H   0  0  0  0  0  0  0  0  0  0  0  0
   -5.1340   23.5780  -29.3080 S   0  0  0  0  0  0  0  0  0  0  0  0
   -0.4740   22.6980  -27.7250 C   0  0  0  0  0  0  0  0  0  0  0  0
    0.4172   22.5033  -27.1102 H   0  0  0  0  0  0  0  0  0  0  0  0
   -0.7079   21.8375  -28.3691 H   0  0  0  0  0  0  0  0  0  0  0  0
   -1.6680   22.9360  -26.8020 C   0  0  0  0  0  0  0  0  0  0  0  0
   -1.3401   22.8706  -25.7540 H   0  0  0  0  0  0  0  0  0  0  0  0
   -2.0862   23.9352  -26.9937 H   0  0  0  0  0  0  0  0  0  0  0  0
   -2.4374   22.1735  -26.9937 H   0  0  0  0  0  0  0  0  0  0  0  0
   -0.8720   26.0040  -25.6970 C   0  0  0  0  0  0  0  0  0  0  0  0
   -1.4689   25.7016  -26.5701 H   0  0  0  0  0  0  0  0  0  0  0  0
   -1.4200   26.7910  -24.7330 N   0  0  0  0  0  0  0  0  0  0  0  0
   -2.4100   27.1100  -24.8320 H   0  0  0  0  0  0  0  0  0  0  0  0
   -0.7000   27.1730  -23.6450 C   0  0  0  0  0  0  0  0  0  0  0  0
   -1.1565   27.8125  -22.8752 H   0  0  0  0  0  0  0  0  0  0  0  0
  1  2  1  0
  2  3  2  0
  3  4  1  0
  4  5  1  0
  5  6  2  0
  5  7  1  0
  7  8  1  0
  8  9  1  6
  8 10  1  0
 10 11  2  0
 10 12  1  0
 12 13  2  0
 13 14  1  0
 14 15  1  0
 15 16  1  0
 15 17  2  0
 17 18  1  0
 17 19  1  0
  8 20  1  0
 20 21  1  0
 20 22  1  0
 20 23  1  0
 23 24  1  0
 23 25  1  0
 23 26  1  0
  4 27  2  0
 27 28  1  0
 27 29  1  0
 29 30  1  0
 29 31  2  0
 31 32  1  0
 31  2  1  0
 19 13  1  0
M  CHG  3   7  -1  14  -1  29   1
M  END
>  <UniqueID>  (38) 
36

>  <SMILES>  (38) 
CC[C@H]([N-]C(=O)c1c[nH+]ccn1)C(=O)/N=c1\[n-]ccs1

>  <Energy>  (38) 
65.87967303183996

>  <Genealogy>  (38) 
CCC([N-]C(=O)c1c[nH+]ccn1)C(=O)N=c1[n-]ccs1 (protonated)
CC[C@H]([N-]C(=O)c1c[nH+]ccn1)C(=O)N=c1[n-]ccs1 (chirality)
CC[C@H]([N-]C(=O)c1c[nH+]ccn1)C(=O)/N=c1\[n-]ccs1 (cis-trans isomerization)
CC[C@H]([N-]C(=O)c1c[nH+]ccn1)C(=O)/N=c1\[n-]ccs1 (3D coordinates assigned)
CC[C@H]([N-]C(=O)c1c[nH+]ccn1)C(=O)/N=c1\[n-]ccs1 (optimized conformer: 65.87967303183996 kcal/mol)

>  <smiles>  (38) 
CCC(NC(=O)c1cnccn1)C(=O)N=c1[nH]ccs1

>  <score_type>  (38) 
oracle

>  <origin>  (38) 
adg

>  <m_score__min__energy>  (38) 
-9.4399999999999995

>  <m_primary>  (38) 
energy

$$$$
38:0
     RDKit          3D

 49 53  0  0  1  0  0  0  0  0999 V2000
   -4.1690   25.3160  -30.7940 O   0  0  0  0  0  0  0  0  0  0  0  0
   -5.1100   24.6030  -29.8670 S   0  0  0  0  0  0  0  0  0  0  0  0
   -6.1930   25.4940  -29.3830 O   0  0  0  0  0  0  0  0  0  0  0  0
   -4.2530   23.9790  -28.4810 N   0  0  0  0  0  0  0  0  0  0  0  0
   -3.1600   24.5490  -28.0720 C   0  0  0  0  0  0  0  0  0  0  0  0
   -3.0120   24.9100  -26.7490 C   0  0  0  0  0  0  0  0  0  0  0  0
   -1.8290   25.5140  -26.3600 C   0  0  0  0  0  0  0  0  0  0  0  0
   -0.8820   25.7190  -27.2990 N   0  0  0  0  0  0  0  0  0  0  0  0
   -1.0710   25.3450  -28.5970 C   0  0  0  0  0  0  0  0  0  0  0  0
   -2.2110   24.7550  -29.0030 N   0  0  0  0  0  0  0  0  0  0  0  0
   -5.8470   23.2250  -30.6610 C   0  0  0  0  0  0  0  0  0  0  0  0
   -5.0420   22.1850  -31.0920 C   0  0  0  0  0  0  0  0  0  0  0  0
   -5.5800   21.0880  -31.7180 C   0  0  0  0  0  0  0  0  0  0  0  0
   -6.9350   20.9950  -31.9360 C   0  0  0  0  0  0  0  0  0  0  0  0
   -7.4220   19.8750  -32.5550 C   0  0  0  0  0  0  0  0  0  0  0  0
   -6.6600   18.7580  -33.0240 C   0  0  0  0  0  0  0  0  0  0  0  0
   -6.1280   18.8270  -34.3060 C   0  0  0  0  0  0  0  0  0  0  0  0
   -5.3550   17.8110  -34.8430 C   0  0  0  0  0  0  0  0  0  0  0  0
   -5.0690   16.6530  -34.1150 C   0  0  0  0  0  0  0  0  0  0  0  0
   -4.2580   15.6500  -34.7510 C   0  0  0  0  0  0  0  0  0  0  0  0
   -4.3150   14.2990  -34.5460 C   0  0  0  0  0  0  0  0  0  0  0  0
   -3.4910   13.3900  -35.2060 C   0  0  0  0  0  0  0  0  0  0  0  0
   -2.5690   13.8530  -36.1130 C   0  0  0  0  0  0  0  0  0  0  0  0
   -2.5170   15.2160  -36.3160 C   0  0  0  0  0  0  0  0  0  0  0  0
   -3.3330   16.0740  -35.6570 N   0  0  0  0  0  0  0  0  0  0  0  0
   -5.5970   16.5950  -32.8540 C   0  0  0  0  0  0  0  0  0  0  0  0
   -5.3830   15.5260  -32.0670 F   0  0  0  0  0  0  0  0  0  0  0  0
   -6.3760   17.6170  -32.3070 C   0  0  0  0  0  0  0  0  0  0  0  0
   -8.7760   19.8290  -32.7300 N   0  0  0  0  0  0  0  0  0  0  0  0
   -9.5750   20.8330  -32.3150 C   0  0  0  0  0  0  0  0  0  0  0  0
   -9.0820   21.9680  -31.6890 C   0  0  0  0  0  0  0  0  0  0  0  0
   -7.7140   22.0430  -31.4980 C   0  0  0  0  0  0  0  0  0  0  0  0
   -7.2260   23.1530  -30.8710 C   0  0  0  0  0  0  0  0  0  0  0  0
   -3.8147   24.7224  -26.0207 H   0  0  0  0  0  0  0  0  0  0  0  0
   -1.6656   25.8181  -25.3156 H   0  0  0  0  0  0  0  0  0  0  0  0
    0.0320   26.1690  -27.0730 H   0  0  0  0  0  0  0  0  0  0  0  0
   -0.2722   25.5300  -29.3303 H   0  0  0  0  0  0  0  0  0  0  0  0
   -3.9552   22.2381  -30.9306 H   0  0  0  0  0  0  0  0  0  0  0  0
   -4.9193   20.2733  -32.0494 H   0  0  0  0  0  0  0  0  0  0  0  0
   -6.3280   19.7203  -34.9159 H   0  0  0  0  0  0  0  0  0  0  0  0
   -4.9581   17.9178  -35.8633 H   0  0  0  0  0  0  0  0  0  0  0  0
   -5.0482   13.9107  -33.8238 H   0  0  0  0  0  0  0  0  0  0  0  0
   -3.5778   12.3124  -35.0029 H   0  0  0  0  0  0  0  0  0  0  0  0
   -1.9012   13.1663  -36.6539 H   0  0  0  0  0  0  0  0  0  0  0  0
   -1.7898   15.6197  -37.0359 H   0  0  0  0  0  0  0  0  0  0  0  0
   -6.7696   17.5087  -31.2856 H   0  0  0  0  0  0  0  0  0  0  0  0
  -10.6594   20.7484  -32.4793 H   0  0  0  0  0  0  0  0  0  0  0  0
   -9.7514   22.7756  -31.3579 H   0  0  0  0  0  0  0  0  0  0  0  0
   -7.8951   23.9621  -30.5428 H   0  0  0  0  0  0  0  0  0  0  0  0
  1  2  2  0
  2  3  2  0
  2  4  1  0
  4  5  2  0
  5  6  1  0
  6  7  2  0
  7  8  1  0
  8  9  1  0
  9 10  2  0
  2 11  1  0
 11 12  2  0
 12 13  1  0
 13 14  2  0
 14 15  1  0
 15 16  1  0
 16 17  2  0
 17 18  1  0
 18 19  2  0
 19 20  1  0
 20 21  2  0
 21 22  1  0
 22 23  2  0
 23 24  1  0
 24 25  2  0
 19 26  1  0
 26 27  1  0
 26 28  2  0
 15 29  2  0
 29 30  1  0
 30 31  2  0
 31 32  1  0
 32 33  2  0
 10  5  1  0
 33 11  1  0
 32 14  1  0
 28 16  1  0
 25 20  1  0
  6 34  1  0
  7 35  1  0
  8 36  1  0
  9 37  1  0
 12 38  1  0
 13 39  1  0
 17 40  1  0
 18 41  1  0
 21 42  1  0
 22 43  1  0
 23 44  1  0
 24 45  1  0
 28 46  1  0
 30 47  1  0
 31 48  1  0
 33 49  1  0
M  END
>  <smiles>  (39) 
O=S(=O)(N=c1cc[nH]cn1)c1ccc2c(-c3ccc(-c4ccccn4)c(F)c3)nccc2c1

>  <score_type>  (39) 
oracle

>  <origin>  (39) 
adg

>  <m_score__min__energy>  (39) 
-11.16

>  <m_primary>  (39) 
energy

$$$$
39:0
     RDKit          3D

 38 41  0  0  1  0  0  0  0  0999 V2000
   -1.9740   25.2040  -27.1880 C   0  0  0  0  0  0  0  0  0  0  0  0
   -2.0640   25.3830  -28.5800 O   0  0  0  0  0  0  0  0  0  0  0  0
   -2.1510   24.2320  -29.3470 C   0  0  0  0  0  0  0  0  0  0  0  0
   -1.2820   23.2140  -29.0920 C   0  0  0  0  0  0  0  0  0  0  0  0
   -1.3780   22.0830  -29.8560 C   0  0  0  0  0  0  0  0  0  0  0  0
   -0.4950   21.0750  -29.5860 N   0  0  0  0  0  0  0  0  0  0  0  0
   -0.5400   19.9410  -30.3030 C   0  0  0  0  0  0  0  0  0  0  0  0
   -1.4520   19.8390  -31.2630 N   0  0  0  0  0  0  0  0  0  0  0  0
   -2.3540   20.8310  -31.5610 C   0  0  0  0  0  0  0  0  0  0  0  0
   -3.1400   20.6100  -32.4680 N   0  0  0  0  0  0  0  0  0  0  0  0
   -4.6350   20.6710  -32.4480 C   0  0  0  0  0  0  0  0  0  0  0  0
   -5.5480   21.3190  -32.1910 N   0  0  0  0  0  0  0  0  0  0  0  0
   -6.8200   21.0100  -32.1990 C   0  0  0  0  0  0  0  0  0  0  0  0
   -7.9280   21.8020  -31.8850 C   0  0  0  0  0  0  0  0  0  0  0  0
   -9.1740   21.2780  -31.9590 C   0  0  0  0  0  0  0  0  0  0  0  0
   -9.4790   19.9840  -32.3290 C   0  0  0  0  0  0  0  0  0  0  0  0
   -8.3770   19.1830  -32.6460 C   0  0  0  0  0  0  0  0  0  0  0  0
   -7.0940   19.7160  -32.5710 C   0  0  0  0  0  0  0  0  0  0  0  0
   -5.4920   18.9980  -32.8960 S   0  0  0  0  0  0  0  0  0  0  0  0
   -2.3240   21.9770  -30.8510 C   0  0  0  0  0  0  0  0  0  0  0  0
   -3.1740   23.0190  -31.0710 C   0  0  0  0  0  0  0  0  0  0  0  0
   -3.1070   24.2010  -30.3070 C   0  0  0  0  0  0  0  0  0  0  0  0
   -3.9420   25.2650  -30.5010 O   0  0  0  0  0  0  0  0  0  0  0  0
   -5.3360   25.1430  -30.2590 C   0  0  0  0  0  0  0  0  0  0  0  0
   -2.4117   26.0744  -26.6773 H   0  0  0  0  0  0  0  0  0  0  0  0
   -2.5224   24.2953  -26.8989 H   0  0  0  0  0  0  0  0  0  0  0  0
   -0.9175   25.1022  -26.8989 H   0  0  0  0  0  0  0  0  0  0  0  0
   -0.5268   23.2988  -28.2967 H   0  0  0  0  0  0  0  0  0  0  0  0
    0.1605   19.1174  -30.1006 H   0  0  0  0  0  0  0  0  0  0  0  0
   -1.4720   18.9470  -31.8130 H   0  0  0  0  0  0  0  0  0  0  0  0
   -7.7878   22.8491  -31.5783 H   0  0  0  0  0  0  0  0  0  0  0  0
  -10.0145   21.9397  -31.7025 H   0  0  0  0  0  0  0  0  0  0  0  0
  -10.5126   19.6100  -32.3715 H   0  0  0  0  0  0  0  0  0  0  0  0
   -8.5240   18.1370  -32.9530 H   0  0  0  0  0  0  0  0  0  0  0  0
   -3.9311   22.9354  -31.8646 H   0  0  0  0  0  0  0  0  0  0  0  0
   -5.5199   25.1269  -29.1746 H   0  0  0  0  0  0  0  0  0  0  0  0
   -5.8623   25.9985  -30.7075 H   0  0  0  0  0  0  0  0  0  0  0  0
   -5.7057   24.2091  -30.7075 H   0  0  0  0  0  0  0  0  0  0  0  0
  1  2  1  0
  2  3  1  0
  3  4  2  0
  4  5  1  0
  5  6  1  0
  6  7  2  0
  7  8  1  0
  8  9  1  0
  9 10  2  0
 10 11  1  0
 11 12  2  0
 12 13  1  0
 13 14  2  0
 14 15  1  0
 15 16  2  0
 16 17  1  0
 17 18  2  0
 18 19  1  0
  9 20  1  0
 20 21  1  0
 21 22  2  0
 22 23  1  0
 23 24  1  0
 22  3  1  0
 20  5  2  0
 19 11  1  0
 18 13  1  0
  1 25  1  0
  1 26  1  0
  1 27  1  0
  4 28  1  0
  7 29  1  0
  8 30  1  0
 14 31  1  0
 15 32  1  0
 16 33  1  0
 17 34  1  0
 21 35  1  0
 24 36  1  0
 24 37  1  0
 24 38  1  0
M  END
>  <smiles>  (40) 
COc1cc2nc[nH]c(=Nc3nc4ccccc4s3)c2cc1OC

>  <score_type>  (40) 
oracle

>  <origin>  (40) 
adg

>  <m_score__min__energy>  (40) 
-8.3699999999999992

>  <m_primary>  (40) 
energy

$$$$
40:0
     RDKit          3D

 38 40  0  0  0  0  0  0  0  0999 V2000
   -4.2340   24.9300  -26.3540 C   0  0  0  0  0  0  0  0  0  0  0  0
   -3.3590   24.5110  -27.5300 C   0  0  0  0  0  0  0  0  0  0  0  0
   -4.1980   23.9500  -28.6450 C   0  0  0  0  0  0  0  0  0  0  0  0
   -5.2870   24.6780  -29.1470 C   0  0  0  0  0  0  0  0  0  0  0  0
   -6.0490   24.1720  -30.2030 C   0  0  0  0  0  0  0  0  0  0  0  0
   -5.7170   22.9410  -30.8010 C   0  0  0  0  0  0  0  0  0  0  0  0
   -6.5820   22.3660  -31.9220 C   0  0  1  0  0  0  0  0  0  0  0  0
   -7.1400   23.3810  -32.7230 O   0  0  0  0  0  0  0  0  0  0  0  0
   -5.7350   21.4120  -32.8270 C   0  0  0  0  0  0  0  0  0  0  0  0
   -6.4180   20.1300  -32.7460 N   0  0  0  0  0  0  0  0  0  0  0  0
   -6.0810   18.9690  -33.3620 C   0  0  0  0  0  0  0  0  0  0  0  0
   -6.8740   17.8390  -33.1430 C   0  0  0  0  0  0  0  0  0  0  0  0
   -7.9870   17.9540  -32.2930 C   0  0  0  0  0  0  0  0  0  0  0  0
   -8.2790   19.1450  -31.6990 N   0  0  0  0  0  0  0  0  0  0  0  0
   -7.4820   20.2200  -31.9400 C   0  0  0  0  0  0  0  0  0  0  0  0
   -7.6560   21.5110  -31.3910 N   0  0  0  0  0  0  0  0  0  0  0  0
   -8.7110   21.9080  -30.4620 C   0  0  0  0  0  0  0  0  0  0  0  0
   -4.6360   22.2070  -30.2800 C   0  0  0  0  0  0  0  0  0  0  0  0
   -3.8740   22.7140  -29.2230 C   0  0  0  0  0  0  0  0  0  0  0  0
   -3.7229   24.6853  -25.4112 H   0  0  0  0  0  0  0  0  0  0  0  0
   -4.4173   26.0136  -26.4011 H   0  0  0  0  0  0  0  0  0  0  0  0
   -5.1931   24.3935  -26.4011 H   0  0  0  0  0  0  0  0  0  0  0  0
   -2.8072   25.3878  -27.8996 H   0  0  0  0  0  0  0  0  0  0  0  0
   -2.6585   23.7341  -27.1898 H   0  0  0  0  0  0  0  0  0  0  0  0
   -5.5425   25.6531  -28.7066 H   0  0  0  0  0  0  0  0  0  0  0  0
   -6.9161   24.7403  -30.5707 H   0  0  0  0  0  0  0  0  0  0  0  0
   -6.5250   23.5330  -33.4870 H   0  0  0  0  0  0  0  0  0  0  0  0
   -5.7150   21.7768  -33.8645 H   0  0  0  0  0  0  0  0  0  0  0  0
   -4.6865   21.3482  -32.5007 H   0  0  0  0  0  0  0  0  0  0  0  0
   -5.2014   18.9181  -34.0205 H   0  0  0  0  0  0  0  0  0  0  0  0
   -6.6321   16.8806  -33.6256 H   0  0  0  0  0  0  0  0  0  0  0  0
   -8.6257   17.0782  -32.1062 H   0  0  0  0  0  0  0  0  0  0  0  0
   -9.1070   19.2220  -31.0670 H   0  0  0  0  0  0  0  0  0  0  0  0
   -8.3585   21.7754  -29.4285 H   0  0  0  0  0  0  0  0  0  0  0  0
   -8.9682   22.9644  -30.6290 H   0  0  0  0  0  0  0  0  0  0  0  0
   -9.6008   21.2832  -30.6290 H   0  0  0  0  0  0  0  0  0  0  0  0
   -4.3878   21.2247  -30.7083 H   0  0  0  0  0  0  0  0  0  0  0  0
   -3.0159   22.1404  -28.8428 H   0  0  0  0  0  0  0  0  0  0  0  0
  1  2  1  0
  2  3  1  0
  3  4  2  0
  4  5  1  0
  5  6  2  0
  6  7  1  0
  7  8  1  6
  7  9  1  0
  9 10  1  0
 10 11  2  0
 11 12  1  0
 12 13  2  0
 13 14  1  0
 14 15  2  0
 15 16  1  0
 16 17  1  0
  6 18  1  0
 18 19  2  0
 19  3  1  0
 16  7  1  0
 15 10  1  0
  1 20  1  0
  1 21  1  0
  1 22  1  0
  2 23  1  0
  2 24  1  0
  4 25  1  0
  5 26  1  0
  8 27  1  0
  9 28  1  0
  9 29  1  0
 11 30  1  0
 12 31  1  0
 13 32  1  0
 14 33  1  0
 17 34  1  0
 17 35  1  0
 17 36  1  0
 18 37  1  0
 19 38  1  0
M  CHG  2  10   1  14   1
M  END
>  <UniqueID>  (41) 
37

>  <SMILES>  (41) 
CCc1ccc([C@@]2(O)C[n+]3ccc[nH+]c3N2C)cc1

>  <Energy>  (41) 
53.250077707281946

>  <Genealogy>  (41) 
CCc1ccc(C2(O)C[n+]3ccc[nH+]c3N2C)cc1 (protonated)
CCc1ccc([C@@]2(O)C[n+]3ccc[nH+]c3N2C)cc1 (chirality)
CCc1ccc([C@@]2(O)C[n+]3ccc[nH+]c3N2C)cc1 (3D coordinates assigned)
CCc1ccc([C@@]2(O)C[n+]3ccc[nH+]c3N2C)cc1 (nonaromatic ring conformer: 53.250077707281946 kcal/mol)

>  <smiles>  (41) 
CCc1ccc(C2(O)C[n+]3cccnc3N2C)cc1

>  <score_type>  (41) 
oracle

>  <origin>  (41) 
adg

>  <m_score__min__energy>  (41) 
-5.96

>  <m_primary>  (41) 
energy

$$$$
41:0
     RDKit          3D

 46 50  0  0  1  0  0  0  0  0999 V2000
   -3.1760   22.9570  -28.5880 C   0  0  0  0  0  0  0  0  0  0  0  0
   -2.4910   23.9530  -29.4690 C   0  0  1  0  0  0  0  0  0  0  0  0
   -3.4220   24.7590  -30.2610 N   0  0  0  0  0  0  0  0  0  0  0  0
   -4.6580   24.4030  -30.3830 C   0  0  0  0  0  0  0  0  0  0  0  0
   -5.0190   23.1610  -30.9050 C   0  0  0  0  0  0  0  0  0  0  0  0
   -6.3210   22.7690  -31.0410 C   0  0  0  0  0  0  0  0  0  0  0  0
   -6.7250   21.4840  -31.5810 C   0  0  0  0  0  0  0  0  0  0  0  0
   -7.9870   20.9540  -31.4870 C   0  0  0  0  0  0  0  0  0  0  0  0
   -8.3830   19.7530  -31.9860 C   0  0  0  0  0  0  0  0  0  0  0  0
   -7.4450   18.9560  -32.6660 C   0  0  0  0  0  0  0  0  0  0  0  0
   -7.6410   17.7770  -33.2120 N   0  0  0  0  0  0  0  0  0  0  0  0
   -6.8700   17.1250  -33.7700 C   0  0  0  0  0  0  0  0  0  0  0  0
   -5.3250   18.2030  -33.6660 S   0  0  0  0  0  0  0  0  0  0  0  0
   -6.1940   19.4550  -32.7740 C   0  0  0  0  0  0  0  0  0  0  0  0
   -5.7890   20.6940  -32.2570 C   0  0  0  0  0  0  0  0  0  0  0  0
   -7.2680   23.6610  -30.6350 N   0  0  0  0  0  0  0  0  0  0  0  0
   -6.9050   24.8560  -30.1330 C   0  0  0  0  0  0  0  0  0  0  0  0
   -5.6260   25.2470  -29.9980 N   0  0  0  0  0  0  0  0  0  0  0  0
   -1.7940   24.9290  -28.5870 C   0  0  0  0  0  0  0  0  0  0  0  0
   -1.5790   24.9220  -27.2460 C   0  0  0  0  0  0  0  0  0  0  0  0
   -0.8800   26.0630  -26.9290 C   0  0  0  0  0  0  0  0  0  0  0  0
   -0.3960   26.5460  -25.6450 C   0  0  0  0  0  0  0  0  0  0  0  0
   -1.1840   26.3590  -24.5350 C   0  0  0  0  0  0  0  0  0  0  0  0
   -0.7550   26.8070  -23.2920 C   0  0  0  0  0  0  0  0  0  0  0  0
    0.4570   27.4470  -23.1260 C   0  0  0  0  0  0  0  0  0  0  0  0
    1.2510   27.6380  -24.2360 C   0  0  0  0  0  0  0  0  0  0  0  0
    0.8130   27.1850  -25.4740 C   0  0  0  0  0  0  0  0  0  0  0  0
    1.6190   27.3900  -26.5360 F   0  0  0  0  0  0  0  0  0  0  0  0
   -0.6980   26.7150  -28.0790 N   0  0  0  0  0  0  0  0  0  0  0  0
   -1.2420   26.0370  -29.0620 O   0  0  0  0  0  0  0  0  0  0  0  0
   -2.9978   23.2161  -27.5339 H   0  0  0  0  0  0  0  0  0  0  0  0
   -4.2570   22.9702  -28.7911 H   0  0  0  0  0  0  0  0  0  0  0  0
   -2.7770   21.9523  -28.7911 H   0  0  0  0  0  0  0  0  0  0  0  0
   -1.8329   23.3847  -30.1428 H   0  0  0  0  0  0  0  0  0  0  0  0
   -4.2238   22.4693  -31.2198 H   0  0  0  0  0  0  0  0  0  0  0  0
   -8.7450   21.5535  -30.9617 H   0  0  0  0  0  0  0  0  0  0  0  0
   -9.4206   19.4102  -31.8598 H   0  0  0  0  0  0  0  0  0  0  0  0
   -7.0007   16.1381  -34.2379 H   0  0  0  0  0  0  0  0  0  0  0  0
   -4.7520   21.0392  -32.3810 H   0  0  0  0  0  0  0  0  0  0  0  0
   -7.6976   25.5499  -29.8162 H   0  0  0  0  0  0  0  0  0  0  0  0
   -5.3660   26.1770  -29.6060 H   0  0  0  0  0  0  0  0  0  0  0  0
   -1.9053   24.1437  -26.5405 H   0  0  0  0  0  0  0  0  0  0  0  0
   -2.1563   25.8536  -24.6308 H   0  0  0  0  0  0  0  0  0  0  0  0
   -1.3994   26.6473  -22.4149 H   0  0  0  0  0  0  0  0  0  0  0  0
    0.7803   27.7952  -22.1339 H   0  0  0  0  0  0  0  0  0  0  0  0
    2.2229   28.1446  -24.1426 H   0  0  0  0  0  0  0  0  0  0  0  0
  1  2  1  0
  2  3  1  0
  3  4  2  0
  4  5  1  0
  5  6  2  0
  6  7  1  0
  7  8  2  0
  8  9  1  0
  9 10  2  0
 10 11  1  0
 11 12  2  0
 12 13  1  0
 13 14  1  0
 14 15  2  0
  6 16  1  0
 16 17  2  0
 17 18  1  0
  2 19  1  0
 19 20  2  0
 20 21  1  0
 21 22  1  0
 22 23  2  0
 23 24  1  0
 24 25  2  0
 25 26  1  0
 26 27  2  0
 27 28  1  0
 21 29  2  0
 29 30  1  0
 18  4  1  0
 30 19  1  0
 15  7  1  0
 27 22  1  0
 14 10  1  0
  1 31  1  0
  1 32  1  0
  1 33  1  0
  2 34  1  6
  5 35  1  0
  8 36  1  0
  9 37  1  0
 12 38  1  0
 15 39  1  0
 17 40  1  0
 18 41  1  0
 20 42  1  0
 23 43  1  0
 24 44  1  0
 25 45  1  0
 26 46  1  0
M  END
>  <smiles>  (42) 
CC(N=c1cc(-c2ccc3ncsc3c2)nc[nH]1)c1cc(-c2ccccc2F)no1

>  <score_type>  (42) 
oracle

>  <origin>  (42) 
adg

>  <m_score__min__energy>  (42) 
-10.85

>  <m_primary>  (42) 
energy

$$$$
42:0
     RDKit          3D

 56 59  0  0  0  0  0  0  0  0999 V2000
   -2.7320   21.5470  -34.3560 H   0  0  0  0  0  0  0  0  0  0  0  0
   -3.0380   20.9660  -33.6110 O   0  0  0  0  0  0  0  0  0  0  0  0
   -4.4070   21.2220  -33.4310 C   0  0  1  0  0  0  0  0  0  0  0  0
   -4.7591   21.7811  -34.3105 H   0  0  0  0  0  0  0  0  0  0  0  0
   -5.1090   19.9760  -33.3240 O   0  0  0  0  0  0  0  0  0  0  0  0
   -6.3840   19.8640  -32.7570 C   0  0  0  0  0  0  0  0  0  0  0  0
   -7.1050   18.6730  -32.8970 C   0  0  0  0  0  0  0  0  0  0  0  0
   -6.6640   17.8254  -33.4420 H   0  0  0  0  0  0  0  0  0  0  0  0
   -8.3840   18.5580  -32.3460 C   0  0  0  0  0  0  0  0  0  0  0  0
   -8.9500   17.6219  -32.4614 H   0  0  0  0  0  0  0  0  0  0  0  0
   -8.9450   19.6320  -31.6480 C   0  0  0  0  0  0  0  0  0  0  0  0
   -9.9536   19.5407  -31.2185 H   0  0  0  0  0  0  0  0  0  0  0  0
   -8.2270   20.8210  -31.4950 C   0  0  0  0  0  0  0  0  0  0  0  0
   -8.6709   21.6643  -30.9457 H   0  0  0  0  0  0  0  0  0  0  0  0
   -6.9390   20.9400  -32.0420 C   0  0  0  0  0  0  0  0  0  0  0  0
   -6.1330   22.1610  -31.8690 C   0  0  0  0  0  0  0  0  0  0  0  0
   -6.6980   23.2410  -31.5630 O   0  0  0  0  0  0  0  0  0  0  0  0
   -4.6980   22.1120  -32.2260 C   0  0  0  0  0  0  0  0  0  0  0  0
   -3.6930   22.7510  -31.5700 C   0  0  0  0  0  0  0  0  0  0  0  0
   -3.6698   23.8422  -31.7069 H   0  0  0  0  0  0  0  0  0  0  0  0
   -2.5780   22.1840  -30.6620 C   0  0  2  0  0  0  0  0  0  0  0  0
   -1.3140   21.8940  -31.5250 C   0  0  0  0  0  0  0  0  0  0  0  0
   -0.4565   21.6973  -30.8647 H   0  0  0  0  0  0  0  0  0  0  0  0
   -1.4973   21.0146  -32.1598 H   0  0  0  0  0  0  0  0  0  0  0  0
   -1.0956   22.7654  -32.1598 H   0  0  0  0  0  0  0  0  0  0  0  0
   -3.0650   20.8000  -30.1590 C   0  0  0  0  0  0  0  0  0  0  0  0
   -2.8863   20.0325  -30.9265 H   0  0  0  0  0  0  0  0  0  0  0  0
   -4.1441   20.8119  -29.9459 H   0  0  0  0  0  0  0  0  0  0  0  0
   -2.2660   20.4890  -28.9140 C   0  0  0  0  0  0  0  0  0  0  0  0
   -1.2725   20.0964  -29.1765 H   0  0  0  0  0  0  0  0  0  0  0  0
   -2.7443   19.7210  -28.2884 H   0  0  0  0  0  0  0  0  0  0  0  0
   -2.1450   21.8330  -28.1980 C   0  0  1  0  0  0  0  0  0  0  0  0
   -2.9601   21.9509  -27.4689 H   0  0  0  0  0  0  0  0  0  0  0  0
   -0.9320   21.9560  -27.2030 C   0  0  0  0  0  0  0  0  0  0  0  0
    0.4170   21.4300  -27.7670 C   0  0  0  0  0  0  0  0  0  0  0  0
    1.0860   21.1691  -26.9337 H   0  0  0  0  0  0  0  0  0  0  0  0
    0.2337   20.5375  -28.3833 H   0  0  0  0  0  0  0  0  0  0  0  0
    0.8862   22.2110  -28.3833 H   0  0  0  0  0  0  0  0  0  0  0  0
   -1.2380   21.1340  -25.9250 C   0  0  0  0  0  0  0  0  0  0  0  0
   -1.0121   21.7409  -25.0358 H   0  0  0  0  0  0  0  0  0  0  0  0
   -2.3013   20.8522  -25.9161 H   0  0  0  0  0  0  0  0  0  0  0  0
   -0.6178   20.2255  -25.9161 H   0  0  0  0  0  0  0  0  0  0  0  0
   -0.8010   23.4390  -26.7830 C   0  0  0  0  0  0  0  0  0  0  0  0
   -1.7185   23.7266  -26.2487 H   0  0  0  0  0  0  0  0  0  0  0  0
    0.1017   23.5074  -26.1581 H   0  0  0  0  0  0  0  0  0  0  0  0
   -0.5980   24.4210  -27.9520 C   0  0  0  0  0  0  0  0  0  0  0  0
   -1.1570   25.3407  -27.7246 H   0  0  0  0  0  0  0  0  0  0  0  0
    0.4879   24.5755  -28.0353 H   0  0  0  0  0  0  0  0  0  0  0  0
   -1.0630   23.9090  -29.3280 C   0  0  0  0  0  0  0  0  0  0  0  0
   -1.3138   24.7804  -29.9508 H   0  0  0  0  0  0  0  0  0  0  0  0
   -0.2333   23.3112  -29.7332 H   0  0  0  0  0  0  0  0  0  0  0  0
   -2.3080   22.9650  -29.2880 C   0  0  1  0  0  0  0  0  0  0  0  0
   -3.5390   23.8350  -28.8870 C   0  0  0  0  0  0  0  0  0  0  0  0
   -3.6106   23.8856  -27.7905 H   0  0  0  0  0  0  0  0  0  0  0  0
   -3.4189   24.8499  -29.2939 H   0  0  0  0  0  0  0  0  0  0  0  0
   -4.4556   23.3830  -29.2939 H   0  0  0  0  0  0  0  0  0  0  0  0
  1  2  1  0
  2  3  1  0
  3  4  1  6
  3  5  1  0
  5  6  1  0
  6  7  2  0
  7  8  1  0
  7  9  1  0
  9 10  1  0
  9 11  2  0
 11 12  1  0
 11 13  1  0
 13 14  1  0
 13 15  2  0
 15 16  1  0
 16 17  2  0
 16 18  1  0
 18 19  2  0
 19 20  1  0
 19 21  1  0
 21 22  1  6
 22 23  1  0
 22 24  1  0
 22 25  1  0
 21 26  1  0
 26 27  1  0
 26 28  1  0
 26 29  1  0
 29 30  1  0
 29 31  1  0
 29 32  1  0
 32 33  1  1
 32 34  1  0
 34 35  1  0
 35 36  1  0
 35 37  1  0
 35 38  1  0
 34 39  1  0
 39 40  1  0
 39 41  1  0
 39 42  1  0
 34 43  1  0
 43 44  1  0
 43 45  1  0
 43 46  1  0
 46 47  1  0
 46 48  1  0
 46 49  1  0
 49 50  1  0
 49 51  1  0
 49 52  1  0
 52 53  1  1
 53 54  1  0
 53 55  1  0
 53 56  1  0
 18  3  1  0
 52 21  1  0
 15  6  1  0
 52 32  1  0
M  END
>  <UniqueID>  (43) 
38

>  <SMILES>  (43) 
CC1(C)CCC[C@]2(C)[C@H]1CCC2(C)/C=C1\C(=O)c2ccccc2OC1O

>  <Energy>  (43) 
100.6952645830936

>  <Genealogy>  (43) 
CC1(C)CCC[C@]2(C)[C@H]1CCC2(C)C=C1C(=O)c2ccccc2OC1O (chirality)
CC1(C)CCC[C@]2(C)[C@H]1CCC2(C)/C=C1\C(=O)c2ccccc2OC1O (cis-trans isomerization)
CC1(C)CCC[C@]2(C)[C@H]1CCC2(C)/C=C1\C(=O)c2ccccc2OC1O (3D coordinates assigned)
CC1(C)CCC[C@]2(C)[C@H]1CCC2(C)/C=C1\C(=O)c2ccccc2OC1O (nonaromatic ring conformer: 100.6952645830936 kcal/mol)

>  <smiles>  (43) 
CC1(C)CCCC2(C)C1CCC2(C)C=C1C(=O)c2ccccc2OC1O

>  <score_type>  (43) 
oracle

>  <origin>  (43) 
adg

>  <m_score__min__energy>  (43) 
-9.4900000000000002

>  <m_primary>  (43) 
energy

$$$$
43:0
     RDKit          3D

 37 39  0  0  0  0  0  0  0  0999 V2000
   -4.0730   17.6030  -34.7300 C   0  0  0  0  0  0  0  0  0  0  0  0
   -3.7370   18.8690  -34.0890 N   0  0  0  0  0  0  0  0  0  0  0  0
   -2.5320   19.4170  -34.1460 N   0  0  0  0  0  0  0  0  0  0  0  0
   -2.5580   20.5500  -33.4170 C   0  0  0  0  0  0  0  0  0  0  0  0
   -3.8210   20.7230  -32.8800 C   0  0  0  0  0  0  0  0  0  0  0  0
   -4.2480   21.8010  -31.9260 C   0  0  0  0  0  0  0  0  0  0  0  0
   -4.6280   23.0340  -32.6360 N   0  0  0  0  0  0  0  0  0  0  0  0
   -5.6960   23.8520  -32.0190 C   0  0  1  0  0  0  0  0  0  0  0  0
   -6.9080   23.0400  -31.5310 C   0  0  0  0  0  0  0  0  0  0  0  0
   -6.8920   22.9810  -29.9990 C   0  0  0  0  0  0  0  0  0  0  0  0
   -6.1550   24.5130  -29.3530 S   0  0  0  0  0  0  0  0  0  0  0  0
   -5.2130   24.6510  -30.8570 C   0  0  0  0  0  0  0  0  0  0  0  0
   -4.2290   25.3700  -30.9280 O   0  0  0  0  0  0  0  0  0  0  0  0
   -4.5470   19.6290  -33.3210 C   0  0  0  0  0  0  0  0  0  0  0  0
   -5.9360   19.2900  -32.9610 C   0  0  0  0  0  0  0  0  0  0  0  0
   -6.9780   20.1810  -33.2590 C   0  0  0  0  0  0  0  0  0  0  0  0
   -8.2960   19.8620  -32.9160 C   0  0  0  0  0  0  0  0  0  0  0  0
   -8.5790   18.6550  -32.2710 C   0  0  0  0  0  0  0  0  0  0  0  0
   -9.8570   18.3470  -31.9390 F   0  0  0  0  0  0  0  0  0  0  0  0
   -7.5440   17.7670  -31.9640 C   0  0  0  0  0  0  0  0  0  0  0  0
   -6.2250   18.0820  -32.3050 C   0  0  0  0  0  0  0  0  0  0  0  0
   -4.2744   16.8441  -33.9596 H   0  0  0  0  0  0  0  0  0  0  0  0
   -4.9671   17.7354  -35.3569 H   0  0  0  0  0  0  0  0  0  0  0  0
   -3.2309   17.2746  -35.3569 H   0  0  0  0  0  0  0  0  0  0  0  0
   -1.7069   21.2316  -33.2715 H   0  0  0  0  0  0  0  0  0  0  0  0
   -5.1111   21.4428  -31.3457 H   0  0  0  0  0  0  0  0  0  0  0  0
   -3.3992   22.0320  -31.2656 H   0  0  0  0  0  0  0  0  0  0  0  0
   -4.9480   22.7670  -33.5970 H   0  0  0  0  0  0  0  0  0  0  0  0
   -6.0081   24.5114  -32.8423 H   0  0  0  0  0  0  0  0  0  0  0  0
   -7.8357   23.5236  -31.8708 H   0  0  0  0  0  0  0  0  0  0  0  0
   -6.8585   22.0203  -31.9405 H   0  0  0  0  0  0  0  0  0  0  0  0
   -7.9209   22.8802  -29.6234 H   0  0  0  0  0  0  0  0  0  0  0  0
   -6.2993   22.1157  -29.6673 H   0  0  0  0  0  0  0  0  0  0  0  0
   -6.7578   21.1332  -33.7638 H   0  0  0  0  0  0  0  0  0  0  0  0
   -9.1105   20.5619  -33.1542 H   0  0  0  0  0  0  0  0  0  0  0  0
   -7.7675   16.8188  -31.4533 H   0  0  0  0  0  0  0  0  0  0  0  0
   -5.4123   17.3826  -32.0591 H   0  0  0  0  0  0  0  0  0  0  0  0
  1  2  1  0
  2  3  1  0
  3  4  2  0
  4  5  1  0
  5  6  1  0
  6  7  1  0
  7  8  1  0
  8  9  1  0
  9 10  1  0
 10 11  1  0
 11 12  1  0
 12 13  2  0
  5 14  2  0
 14 15  1  0
 15 16  2  0
 16 17  1  0
 17 18  2  0
 18 19  1  0
 18 20  1  0
 20 21  2  0
 14  2  1  0
 21 15  1  0
 12  8  1  0
  1 22  1  0
  1 23  1  0
  1 24  1  0
  4 25  1  0
  6 26  1  0
  6 27  1  0
  7 28  1  0
  8 29  1  6
  9 30  1  0
  9 31  1  0
 10 32  1  0
 10 33  1  0
 16 34  1  0
 17 35  1  0
 20 36  1  0
 21 37  1  0
M  END
>  <UniqueID>  (44) 
39

>  <SMILES>  (44) 
Cn1ncc(CN[C@H]2CCSC2=O)c1-c1ccc(F)cc1

>  <Energy>  (44) 
80.50520543650735

>  <Genealogy>  (44) 
Cn1ncc(CN[C@H]2CCSC2=O)c1-c1ccc(F)cc1 (chirality)
Cn1ncc(CN[C@H]2CCSC2=O)c1-c1ccc(F)cc1 (3D coordinates assigned)
Cn1ncc(CN[C@H]2CCSC2=O)c1-c1ccc(F)cc1 (nonaromatic ring conformer: 80.50520543650735 kcal/mol)

>  <smiles>  (44) 
Cn1ncc(CNC2CCSC2=O)c1-c1ccc(F)cc1

>  <score_type>  (44) 
oracle

>  <origin>  (44) 
adg

>  <m_score__min__energy>  (44) 
-8.4700000000000006

>  <m_primary>  (44) 
energy

$$$$
44:0
     RDKit          3D

 35 37  0  0  0  0  0  0  0  0999 V2000
  -10.5113   20.6515  -31.8455 H   0  0  0  0  0  0  0  0  0  0  0  0
   -9.4360   20.8760  -31.9040 C   0  0  0  0  0  0  0  0  0  0  0  0
   -8.9690   22.1470  -31.5560 C   0  0  0  0  0  0  0  0  0  0  0  0
   -9.6784   22.9214  -31.2289 H   0  0  0  0  0  0  0  0  0  0  0  0
   -7.5950   22.4380  -31.6230 C   0  0  0  0  0  0  0  0  0  0  0  0
   -7.0950   23.8180  -31.2810 C   0  0  0  0  0  0  0  0  0  0  0  0
   -7.0449   23.9202  -30.1869 H   0  0  0  0  0  0  0  0  0  0  0  0
   -7.7900   24.5555  -31.7089 H   0  0  0  0  0  0  0  0  0  0  0  0
   -5.7050   24.0660  -31.8690 C   0  0  0  0  0  0  0  0  0  0  0  0
   -5.8040   24.6193  -32.8145 H   0  0  0  0  0  0  0  0  0  0  0  0
   -5.2140   23.0983  -32.0494 H   0  0  0  0  0  0  0  0  0  0  0  0
   -4.8940   24.8450  -30.9370 N   0  0  0  0  0  0  0  0  0  0  0  0
   -4.0520   24.3160  -30.1040 C   0  0  0  0  0  0  0  0  0  0  0  0
   -2.9090   24.9250  -29.7010 N   0  0  0  0  0  0  0  0  0  0  0  0
   -2.2300   24.1330  -28.8330 C   0  0  0  0  0  0  0  0  0  0  0  0
   -1.0150   24.4790  -28.2410 C   0  0  0  0  0  0  0  0  0  0  0  0
   -0.5390   25.4456  -28.4624 H   0  0  0  0  0  0  0  0  0  0  0  0
   -0.4110   23.5700  -27.3570 C   0  0  0  0  0  0  0  0  0  0  0  0
    0.5470   23.8264  -26.8811 H   0  0  0  0  0  0  0  0  0  0  0  0
   -1.0220   22.3330  -27.0750 C   0  0  0  0  0  0  0  0  0  0  0  0
   -0.5375   21.6306  -26.3808 H   0  0  0  0  0  0  0  0  0  0  0  0
   -2.2530   21.9870  -27.6770 C   0  0  0  0  0  0  0  0  0  0  0  0
   -2.9060   20.7700  -27.4340 O   0  0  0  0  0  0  0  0  0  0  0  0
   -2.3060   19.6570  -26.7810 C   0  0  0  0  0  0  0  0  0  0  0  0
   -2.3772   19.7891  -25.6913 H   0  0  0  0  0  0  0  0  0  0  0  0
   -2.8291   18.7346  -27.0735 H   0  0  0  0  0  0  0  0  0  0  0  0
   -1.2479   19.5870  -27.0735 H   0  0  0  0  0  0  0  0  0  0  0  0
   -2.8260   22.9120  -28.5500 C   0  0  0  0  0  0  0  0  0  0  0  0
   -4.2660   22.7910  -29.4100 S   0  0  0  0  0  0  0  0  0  0  0  0
   -6.7020   21.4450  -32.0580 C   0  0  0  0  0  0  0  0  0  0  0  0
   -5.6269   21.6675  -32.1260 H   0  0  0  0  0  0  0  0  0  0  0  0
   -7.1730   20.1750  -32.4050 C   0  0  0  0  0  0  0  0  0  0  0  0
   -6.4682   19.3998  -32.7402 H   0  0  0  0  0  0  0  0  0  0  0  0
   -8.5400   19.8900  -32.3260 C   0  0  0  0  0  0  0  0  0  0  0  0
   -8.9960   18.6590  -32.6640 F   0  0  0  0  0  0  0  0  0  0  0  0
  1  2  1  0
  2  3  2  0
  3  4  1  0
  3  5  1  0
  5  6  1  0
  6  7  1  0
  6  8  1  0
  6  9  1  0
  9 10  1  0
  9 11  1  0
  9 12  1  0
 12 13  2  0
 13 14  1  0
 14 15  1  0
 15 16  2  0
 16 17  1  0
 16 18  1  0
 18 19  1  0
 18 20  2  0
 20 21  1  0
 20 22  1  0
 22 23  1  0
 23 24  1  0
 24 25  1  0
 24 26  1  0
 24 27  1  0
 22 28  2  0
 28 29  1  0
  5 30  2  0
 30 31  1  0
 30 32  1  0
 32 33  1  0
 32 34  2  0
 34 35  1  0
 34  2  1  0
 29 13  1  0
 28 15  1  0
M  CHG  1  14  -1
M  END
>  <UniqueID>  (45) 
40

>  <SMILES>  (45) 
COc1cccc2[n-]/c(=N\CCc3ccc(F)cc3)sc12

>  <Energy>  (45) 
67.45660846554371

>  <Genealogy>  (45) 
COc1cccc2[n-]c(=NCCc3ccc(F)cc3)sc12 (protonated)
COc1cccc2[n-]/c(=N\CCc3ccc(F)cc3)sc12 (cis-trans isomerization)
COc1cccc2[n-]/c(=N\CCc3ccc(F)cc3)sc12 (3D coordinates assigned)
COc1cccc2[n-]/c(=N\CCc3ccc(F)cc3)sc12 (optimized conformer: 67.45660846554371 kcal/mol)

>  <smiles>  (45) 
COc1cccc2[nH]c(=NCCc3ccc(F)cc3)sc12

>  <score_type>  (45) 
oracle

>  <origin>  (45) 
adg

>  <m_score__min__energy>  (45) 
-8.8100000000000005

>  <m_primary>  (45) 
energy

$$$$
45:0
     RDKit          3D

 39 40  0  0  0  0  0  0  0  0999 V2000
   -7.8063   24.1409  -29.5738 H   0  0  0  0  0  0  0  0  0  0  0  0
   -6.9290   24.4130  -30.1790 C   0  0  0  0  0  0  0  0  0  0  0  0
   -6.8700   23.9850  -31.4070 N   0  0  0  0  0  0  0  0  0  0  0  0
   -6.7650   22.6200  -31.8360 C   0  0  0  0  0  0  0  0  0  0  0  0
   -5.5310   22.1460  -32.2980 C   0  0  0  0  0  0  0  0  0  0  0  0
   -4.6560   22.8126  -32.3030 H   0  0  0  0  0  0  0  0  0  0  0  0
   -5.4050   20.8300  -32.7530 C   0  0  0  0  0  0  0  0  0  0  0  0
   -4.4292   20.4619  -33.1027 H   0  0  0  0  0  0  0  0  0  0  0  0
   -6.5170   19.9790  -32.7650 C   0  0  0  0  0  0  0  0  0  0  0  0
   -6.3620   18.3260  -33.3540 S   0  0  0  0  0  0  0  0  0  0  0  0
   -7.6030   17.5480  -33.0210 O   0  0  0  0  0  0  0  0  0  0  0  0
   -5.1850   17.6600  -32.6990 O   0  0  0  0  0  0  0  0  0  0  0  0
   -6.1350   18.3400  -35.0680 N   0  0  0  0  0  0  0  0  0  0  0  0
   -6.7210   19.1180  -35.4460 H   0  0  0  0  0  0  0  0  0  0  0  0
   -6.5410   17.4510  -35.4370 H   0  0  0  0  0  0  0  0  0  0  0  0
   -7.7630   20.4620  -32.3420 C   0  0  0  0  0  0  0  0  0  0  0  0
   -8.6439   19.8037  -32.3674 H   0  0  0  0  0  0  0  0  0  0  0  0
   -7.8890   21.7780  -31.8880 C   0  0  0  0  0  0  0  0  0  0  0  0
   -8.8719   22.1561  -31.5702 H   0  0  0  0  0  0  0  0  0  0  0  0
   -5.8580   25.2620  -29.5430 C   0  0  0  0  0  0  0  0  0  0  0  0
   -5.9276   25.1720  -28.4489 H   0  0  0  0  0  0  0  0  0  0  0  0
   -6.0064   26.3081  -29.8490 H   0  0  0  0  0  0  0  0  0  0  0  0
   -4.4930   24.8150  -29.9900 C   0  0  0  0  0  0  0  0  0  0  0  0
   -3.8870   25.5200  -30.8430 O   0  0  0  0  0  0  0  0  0  0  0  0
   -3.8550   23.5680  -29.4830 C   0  0  0  0  0  0  0  0  0  0  0  0
   -2.9310   22.8420  -30.2620 C   0  0  0  0  0  0  0  0  0  0  0  0
   -2.6698   23.1967  -31.2699 H   0  0  0  0  0  0  0  0  0  0  0  0
   -2.3440   21.6750  -29.7640 C   0  0  0  0  0  0  0  0  0  0  0  0
   -1.6255   21.1198  -30.3849 H   0  0  0  0  0  0  0  0  0  0  0  0
   -2.6600   21.2060  -28.4860 C   0  0  0  0  0  0  0  0  0  0  0  0
   -2.0420   20.0300  -28.0350 O   0  0  0  0  0  0  0  0  0  0  0  0
   -2.4390   19.3090  -26.8740 C   0  0  0  0  0  0  0  0  0  0  0  0
   -2.1332   19.8644  -25.9751 H   0  0  0  0  0  0  0  0  0  0  0  0
   -3.5321   19.1859  -26.8748 H   0  0  0  0  0  0  0  0  0  0  0  0
   -1.9586   18.3195  -26.8748 H   0  0  0  0  0  0  0  0  0  0  0  0
   -3.5790   21.9250  -27.7020 C   0  0  0  0  0  0  0  0  0  0  0  0
   -3.8359   21.5670  -26.6941 H   0  0  0  0  0  0  0  0  0  0  0  0
   -4.1680   23.0920  -28.1960 C   0  0  0  0  0  0  0  0  0  0  0  0
   -4.8849   23.6452  -27.5715 H   0  0  0  0  0  0  0  0  0  0  0  0
  1  2  1  0
  2  3  2  0
  3  4  1  0
  4  5  2  0
  5  6  1  0
  5  7  1  0
  7  8  1  0
  7  9  2  0
  9 10  1  0
 10 11  2  0
 10 12  2  0
 10 13  1  0
 13 14  1  0
 13 15  1  0
  9 16  1  0
 16 17  1  0
 16 18  2  0
 18 19  1  0
  2 20  1  0
 20 21  1  0
 20 22  1  0
 20 23  1  0
 23 24  2  0
 23 25  1  0
 25 26  2  0
 26 27  1  0
 26 28  1  0
 28 29  1  0
 28 30  2  0
 30 31  1  0
 31 32  1  0
 32 33  1  0
 32 34  1  0
 32 35  1  0
 30 36  1  0
 36 37  1  0
 36 38  2  0
 38 39  1  0
 18  4  1  0
 38 25  1  0
M  END
>  <UniqueID>  (46) 
41

>  <SMILES>  (46) 
COc1ccc(C(=O)C/C=N\c2ccc(S(N)(=O)=O)cc2)cc1

>  <Energy>  (46) 
44.724361870750656

>  <Genealogy>  (46) 
COc1ccc(C(=O)C/C=N\c2ccc(S(N)(=O)=O)cc2)cc1 (cis-trans isomerization)
COc1ccc(C(=O)C/C=N\c2ccc(S(N)(=O)=O)cc2)cc1 (3D coordinates assigned)
COc1ccc(C(=O)C/C=N\c2ccc(S(N)(=O)=O)cc2)cc1 (optimized conformer: 44.724361870750656 kcal/mol)

>  <smiles>  (46) 
COc1ccc(C(=O)CC=Nc2ccc(S(N)(=O)=O)cc2)cc1

>  <score_type>  (46) 
oracle

>  <origin>  (46) 
adg

>  <m_score__min__energy>  (46) 
-8.7899999999999991

>  <m_primary>  (46) 
energy

$$$$
46:0
     RDKit          3D

 54 56  0  0  0  0  0  0  0  0999 V2000
   -0.9440   26.3700  -27.7690 C   0  0  0  0  0  0  0  0  0  0  0  0
   -1.5940   25.8980  -28.9440 O   0  0  0  0  0  0  0  0  0  0  0  0
   -1.7020   24.5450  -29.3060 C   0  0  0  0  0  0  0  0  0  0  0  0
   -0.7440   23.5900  -28.9200 C   0  0  0  0  0  0  0  0  0  0  0  0
   -0.8850   22.2530  -29.3010 C   0  0  0  0  0  0  0  0  0  0  0  0
   -1.9870   21.8480  -30.0670 C   0  0  0  0  0  0  0  0  0  0  0  0
   -2.1450   20.4020  -30.4710 C   0  0  0  0  0  0  0  0  0  0  0  0
   -1.4100   20.0800  -31.7030 N   0  0  0  0  0  0  0  0  0  0  0  0
   -2.2520   20.0620  -32.9180 C   0  0  1  0  0  0  0  0  0  0  0  0
   -2.2160   18.6760  -33.6260 C   0  0  0  0  0  0  0  0  0  0  0  0
   -3.5510   18.3730  -34.3180 C   0  0  0  0  0  0  0  0  0  0  0  0
   -4.6660   18.2920  -33.3380 N   0  0  2  0  0  0  0  0  0  0  0  0
   -6.0000   18.3290  -33.9950 C   0  0  0  0  0  0  0  0  0  0  0  0
   -7.0960   18.9700  -33.1600 C   0  0  0  0  0  0  0  0  0  0  0  0
   -7.2480   20.3690  -33.1270 C   0  0  0  0  0  0  0  0  0  0  0  0
   -8.2640   20.9520  -32.3620 C   0  0  0  0  0  0  0  0  0  0  0  0
   -9.1200   20.1500  -31.6060 C   0  0  0  0  0  0  0  0  0  0  0  0
   -8.9580   18.7620  -31.6030 C   0  0  0  0  0  0  0  0  0  0  0  0
   -7.9430   18.1750  -32.3660 C   0  0  0  0  0  0  0  0  0  0  0  0
   -4.5440   19.2430  -32.1960 C   0  0  0  0  0  0  0  0  0  0  0  0
   -3.6920   20.4730  -32.5370 C   0  0  0  0  0  0  0  0  0  0  0  0
   -2.9430   22.7970  -30.4530 C   0  0  0  0  0  0  0  0  0  0  0  0
   -2.8030   24.1480  -30.0800 C   0  0  0  0  0  0  0  0  0  0  0  0
   -3.7330   25.1270  -30.4650 O   0  0  0  0  0  0  0  0  0  0  0  0
   -5.1460   24.9800  -30.3690 C   0  0  0  0  0  0  0  0  0  0  0  0
   -1.4693   25.9885  -26.8810 H   0  0  0  0  0  0  0  0  0  0  0  0
    0.0976   26.0164  -27.7590 H   0  0  0  0  0  0  0  0  0  0  0  0
   -0.9579   27.4699  -27.7590 H   0  0  0  0  0  0  0  0  0  0  0  0
    0.1214   23.8976  -28.3146 H   0  0  0  0  0  0  0  0  0  0  0  0
   -0.1277   21.5148  -28.9984 H   0  0  0  0  0  0  0  0  0  0  0  0
   -1.7673   19.7648  -29.6577 H   0  0  0  0  0  0  0  0  0  0  0  0
   -3.2133   20.2221  -30.6615 H   0  0  0  0  0  0  0  0  0  0  0  0
   -0.5710   20.6980  -31.8110 H   0  0  0  0  0  0  0  0  0  0  0  0
   -1.8511   20.7854  -33.6432 H   0  0  0  0  0  0  0  0  0  0  0  0
   -2.0144   17.8956  -32.8774 H   0  0  0  0  0  0  0  0  0  0  0  0
   -1.4239   18.6946  -34.3891 H   0  0  0  0  0  0  0  0  0  0  0  0
   -3.4695   17.4120  -34.8471 H   0  0  0  0  0  0  0  0  0  0  0  0
   -3.7684   19.1899  -35.0218 H   0  0  0  0  0  0  0  0  0  0  0  0
   -4.6020   17.3330  -32.9180 H   0  0  0  0  0  0  0  0  0  0  0  0
   -5.9057   18.8968  -34.9324 H   0  0  0  0  0  0  0  0  0  0  0  0
   -6.2995   17.2826  -34.1543 H   0  0  0  0  0  0  0  0  0  0  0  0
   -6.5643   21.0073  -33.7058 H   0  0  0  0  0  0  0  0  0  0  0  0
   -8.3884   22.0449  -32.3564 H   0  0  0  0  0  0  0  0  0  0  0  0
   -9.9230   20.6108  -31.0119 H   0  0  0  0  0  0  0  0  0  0  0  0
   -9.6284   18.1312  -31.0008 H   0  0  0  0  0  0  0  0  0  0  0  0
   -7.8060   17.0838  -32.3451 H   0  0  0  0  0  0  0  0  0  0  0  0
   -4.0796   18.7174  -31.3486 H   0  0  0  0  0  0  0  0  0  0  0  0
   -5.5557   19.5979  -31.9500 H   0  0  0  0  0  0  0  0  0  0  0  0
   -3.6563   21.1393  -31.6625 H   0  0  0  0  0  0  0  0  0  0  0  0
   -4.1480   20.9875  -33.3957 H   0  0  0  0  0  0  0  0  0  0  0  0
   -3.8105   22.4841  -31.0526 H   0  0  0  0  0  0  0  0  0  0  0  0
   -5.4403   24.9494  -29.3095 H   0  0  0  0  0  0  0  0  0  0  0  0
   -5.6376   25.8319  -30.8616 H   0  0  0  0  0  0  0  0  0  0  0  0
   -5.4517   24.0452  -30.8616 H   0  0  0  0  0  0  0  0  0  0  0  0
  1  2  1  0
  2  3  1  0
  3  4  2  0
  4  5  1  0
  5  6  2  0
  6  7  1  0
  7  8  1  0
  8  9  1  0
  9 10  1  0
 10 11  1  0
 11 12  1  0
 12 13  1  0
 13 14  1  0
 14 15  2  0
 15 16  1  0
 16 17  2  0
 17 18  1  0
 18 19  2  0
 12 20  1  0
 20 21  1  0
  6 22  1  0
 22 23  2  0
 23 24  1  0
 24 25  1  0
 23  3  1  0
 21  9  1  0
 19 14  1  0
  1 26  1  0
  1 27  1  0
  1 28  1  0
  4 29  1  0
  5 30  1  0
  7 31  1  0
  7 32  1  0
  8 33  1  0
  9 34  1  6
 10 35  1  0
 10 36  1  0
 11 37  1  0
 11 38  1  0
 12 39  1  1
 13 40  1  0
 13 41  1  0
 15 42  1  0
 16 43  1  0
 17 44  1  0
 18 45  1  0
 19 46  1  0
 20 47  1  0
 20 48  1  0
 21 49  1  0
 21 50  1  0
 22 51  1  0
 25 52  1  0
 25 53  1  0
 25 54  1  0
M  CHG  1  12   1
M  END
>  <UniqueID>  (47) 
42

>  <SMILES>  (47) 
COc1ccc(CNC2CC[NH+](Cc3ccccc3)CC2)cc1OC

>  <Energy>  (47) 
66.93867346952499

>  <Genealogy>  (47) 
COc1ccc(CNC2CC[NH+](Cc3ccccc3)CC2)cc1OC (protonated)
COc1ccc(CNC2CC[NH+](Cc3ccccc3)CC2)cc1OC (3D coordinates assigned)
COc1ccc(CNC2CC[NH+](Cc3ccccc3)CC2)cc1OC (nonaromatic ring conformer: 66.93867346952499 kcal/mol)

>  <smiles>  (47) 
COc1ccc(CNC2CCN(Cc3ccccc3)CC2)cc1OC

>  <score_type>  (47) 
oracle

>  <origin>  (47) 
adg

>  <m_score__min__energy>  (47) 
-8.1600000000000001

>  <m_primary>  (47) 
energy

$$$$
47:0
     RDKit          3D

 32 34  0  0  0  0  0  0  0  0999 V2000
   -9.1120   19.2340  -31.2880 C   0  0  0  0  0  0  0  0  0  0  0  0
   -9.4030   20.4000  -32.0290 O   0  0  0  0  0  0  0  0  0  0  0  0
   -8.2680   21.2410  -32.0810 C   0  0  0  0  0  0  0  0  0  0  0  0
   -7.1050   20.5410  -32.7330 C   0  0  0  0  0  0  0  0  0  0  0  0
   -7.2510   19.3990  -33.4580 N   0  0  0  0  0  0  0  0  0  0  0  0
   -5.9960   19.0580  -33.7940 C   0  0  0  0  0  0  0  0  0  0  0  0
   -5.5510   17.9680  -34.5330 C   0  0  0  0  0  0  0  0  0  0  0  0
   -4.1620   17.8560  -34.7340 C   0  0  0  0  0  0  0  0  0  0  0  0
   -3.2910   18.8300  -34.1920 C   0  0  0  0  0  0  0  0  0  0  0  0
   -3.7850   19.8830  -33.4710 N   0  0  0  0  0  0  0  0  0  0  0  0
   -5.1270   19.9700  -33.2840 C   0  0  0  0  0  0  0  0  0  0  0  0
   -5.8000   20.9240  -32.6170 N   0  0  0  0  0  0  0  0  0  0  0  0
   -5.2470   22.0440  -31.9090 C   0  0  0  0  0  0  0  0  0  0  0  0
   -5.9050   23.2850  -31.9100 C   0  0  0  0  0  0  0  0  0  0  0  0
   -5.3610   24.3720  -31.2190 C   0  0  0  0  0  0  0  0  0  0  0  0
   -4.1550   24.2310  -30.5260 C   0  0  0  0  0  0  0  0  0  0  0  0
   -3.6300   25.2850  -29.8560 F   0  0  0  0  0  0  0  0  0  0  0  0
   -3.4890   23.0010  -30.5280 C   0  0  0  0  0  0  0  0  0  0  0  0
   -4.0310   21.9120  -31.2180 C   0  0  0  0  0  0  0  0  0  0  0  0
   -9.1682   19.4593  -30.2128 H   0  0  0  0  0  0  0  0  0  0  0  0
   -9.8419   18.4496  -31.5369 H   0  0  0  0  0  0  0  0  0  0  0  0
   -8.0991   18.8846  -31.5369 H   0  0  0  0  0  0  0  0  0  0  0  0
   -8.5152   22.1429  -32.6602 H   0  0  0  0  0  0  0  0  0  0  0  0
   -7.9834   21.5083  -31.0526 H   0  0  0  0  0  0  0  0  0  0  0  0
   -8.1340   18.8890  -33.6840 H   0  0  0  0  0  0  0  0  0  0  0  0
   -6.2526   17.2262  -34.9424 H   0  0  0  0  0  0  0  0  0  0  0  0
   -3.7549   17.0128  -35.3113 H   0  0  0  0  0  0  0  0  0  0  0  0
   -2.2064   18.7401  -34.3516 H   0  0  0  0  0  0  0  0  0  0  0  0
   -6.8523   23.4022  -32.4567 H   0  0  0  0  0  0  0  0  0  0  0  0
   -5.8831   25.3402  -31.2206 H   0  0  0  0  0  0  0  0  0  0  0  0
   -2.5380   22.8902  -29.9863 H   0  0  0  0  0  0  0  0  0  0  0  0
   -3.5025   20.9473  -31.2197 H   0  0  0  0  0  0  0  0  0  0  0  0
  1  2  1  0
  2  3  1  0
  3  4  1  0
  4  5  2  0
  5  6  1  0
  6  7  2  0
  7  8  1  0
  8  9  2  0
  9 10  1  0
 10 11  2  0
 11 12  1  0
 12 13  1  0
 13 14  2  0
 14 15  1  0
 15 16  2  0
 16 17  1  0
 16 18  1  0
 18 19  2  0
 12  4  1  0
 19 13  1  0
 11  6  1  0
  1 20  1  0
  1 21  1  0
  1 22  1  0
  3 23  1  0
  3 24  1  0
  5 25  1  0
  7 26  1  0
  8 27  1  0
  9 28  1  0
 14 29  1  0
 15 30  1  0
 18 31  1  0
 19 32  1  0
M  CHG  1   5   1
M  END
>  <UniqueID>  (48) 
43

>  <SMILES>  (48) 
COCc1[nH+]c2cccnc2n1-c1ccc(F)cc1

>  <Energy>  (48) 
82.52580870887783

>  <Genealogy>  (48) 
COCc1[nH+]c2cccnc2n1-c1ccc(F)cc1 (protonated)
COCc1[nH+]c2cccnc2n1-c1ccc(F)cc1 (3D coordinates assigned)
COCc1[nH+]c2cccnc2n1-c1ccc(F)cc1 (optimized conformer: 82.52580870887783 kcal/mol)

>  <smiles>  (48) 
COCc1nc2cccnc2n1-c1ccc(F)cc1

>  <score_type>  (48) 
oracle

>  <origin>  (48) 
adg

>  <m_score__min__energy>  (48) 
-5.9900000000000002

>  <m_primary>  (48) 
energy

$$$$
48:0
     RDKit          3D

 40 42  0  0  0  0  0  0  0  0999 V2000
  -10.6405   21.3669  -31.8308 H   0  0  0  0  0  0  0  0  0  0  0  0
   -9.5540   21.5310  -31.8820 C   0  0  0  0  0  0  0  0  0  0  0  0
   -9.0470   22.8310  -31.9690 C   0  0  0  0  0  0  0  0  0  0  0  0
   -9.7348   23.6894  -31.9816 H   0  0  0  0  0  0  0  0  0  0  0  0
   -7.6670   23.0410  -32.0400 C   0  0  0  0  0  0  0  0  0  0  0  0
   -7.2700   24.0651  -32.0991 H   0  0  0  0  0  0  0  0  0  0  0  0
   -6.7870   21.9480  -32.0360 C   0  0  0  0  0  0  0  0  0  0  0  0
   -5.3280   22.1630  -32.0960 C   0  0  0  0  0  0  0  0  0  0  0  0
   -4.8060   23.3500  -31.9760 N   0  0  0  0  0  0  0  0  0  0  0  0
   -4.7330   24.2930  -30.5190 S   0  0  0  0  0  0  0  0  0  0  0  0
   -4.2440   25.6780  -30.8450 O   0  0  0  0  0  0  0  0  0  0  0  0
   -6.0890   24.3620  -29.8770 O   0  0  0  0  0  0  0  0  0  0  0  0
   -3.6070   23.5290  -29.4050 C   0  0  0  0  0  0  0  0  0  0  0  0
   -4.0250   22.4590  -28.6000 C   0  0  0  0  0  0  0  0  0  0  0  0
   -5.0628   22.0994  -28.6607 H   0  0  0  0  0  0  0  0  0  0  0  0
   -3.1250   21.8480  -27.7200 C   0  0  0  0  0  0  0  0  0  0  0  0
   -3.4573   21.0118  -27.0872 H   0  0  0  0  0  0  0  0  0  0  0  0
   -1.8040   22.2990  -27.6440 C   0  0  0  0  0  0  0  0  0  0  0  0
   -1.0977   21.8188  -26.9507 H   0  0  0  0  0  0  0  0  0  0  0  0
   -1.3810   23.3600  -28.4490 C   0  0  0  0  0  0  0  0  0  0  0  0
   -0.3411   23.7137  -28.3901 H   0  0  0  0  0  0  0  0  0  0  0  0
   -2.2790   23.9730  -29.3300 C   0  0  0  0  0  0  0  0  0  0  0  0
   -1.9422   24.8054  -29.9654 H   0  0  0  0  0  0  0  0  0  0  0  0
   -4.4820   21.0390  -32.3930 N   0  0  0  0  0  0  0  0  0  0  0  0
   -4.9320   20.1770  -32.7780 H   0  0  0  0  0  0  0  0  0  0  0  0
   -3.0470   21.0590  -32.2940 C   0  0  0  0  0  0  0  0  0  0  0  0
   -2.3930   20.9080  -31.0570 C   0  0  0  0  0  0  0  0  0  0  0  0
   -2.9835   20.7823  -30.1375 H   0  0  0  0  0  0  0  0  0  0  0  0
   -0.9970   20.9170  -30.9910 C   0  0  0  0  0  0  0  0  0  0  0  0
   -0.4923   20.8130  -30.0192 H   0  0  0  0  0  0  0  0  0  0  0  0
   -0.2410   21.0580  -32.1590 C   0  0  0  0  0  0  0  0  0  0  0  0
    0.8576   21.0697  -32.1054 H   0  0  0  0  0  0  0  0  0  0  0  0
   -0.8820   21.1840  -33.3940 C   0  0  0  0  0  0  0  0  0  0  0  0
   -0.2872   21.2896  -34.3133 H   0  0  0  0  0  0  0  0  0  0  0  0
   -2.2780   21.1760  -33.4630 C   0  0  0  0  0  0  0  0  0  0  0  0
   -2.7774   21.2619  -34.4393 H   0  0  0  0  0  0  0  0  0  0  0  0
   -7.3000   20.6470  -31.9310 C   0  0  0  0  0  0  0  0  0  0  0  0
   -6.6143   19.7873  -31.9044 H   0  0  0  0  0  0  0  0  0  0  0  0
   -8.6810   20.4400  -31.8600 C   0  0  0  0  0  0  0  0  0  0  0  0
   -9.0805   19.4177  -31.7868 H   0  0  0  0  0  0  0  0  0  0  0  0
  1  2  1  0
  2  3  2  0
  3  4  1  0
  3  5  1  0
  5  6  1  0
  5  7  2  0
  7  8  1  0
  8  9  2  0
  9 10  1  0
 10 11  2  0
 10 12  2  0
 10 13  1  0
 13 14  2  0
 14 15  1  0
 14 16  1  0
 16 17  1  0
 16 18  2  0
 18 19  1  0
 18 20  1  0
 20 21  1  0
 20 22  2  0
 22 23  1  0
  8 24  1  0
 24 25  1  0
 24 26  1  0
 26 27  2  0
 27 28  1  0
 27 29  1  0
 29 30  1  0
 29 31  2  0
 31 32  1  0
 31 33  1  0
 33 34  1  0
 33 35  2  0
 35 36  1  0
  7 37  1  0
 37 38  1  0
 37 39  2  0
 39 40  1  0
 39  2  1  0
 22 13  1  0
 35 26  1  0
M  END
>  <UniqueID>  (49) 
44

>  <SMILES>  (49) 
O=S(=O)(/N=C(/Nc1ccccc1)c1ccccc1)c1ccccc1

>  <Energy>  (49) 
56.59786395175916

>  <Genealogy>  (49) 
O=S(=O)(/N=C(/Nc1ccccc1)c1ccccc1)c1ccccc1 (cis-trans isomerization)
O=S(=O)(/N=C(/Nc1ccccc1)c1ccccc1)c1ccccc1 (3D coordinates assigned)
O=S(=O)(/N=C(/Nc1ccccc1)c1ccccc1)c1ccccc1 (optimized conformer: 56.59786395175916 kcal/mol)

>  <smiles>  (49) 
O=S(=O)(N=C(Nc1ccccc1)c1ccccc1)c1ccccc1

>  <score_type>  (49) 
oracle

>  <origin>  (49) 
adg

>  <m_score__min__energy>  (49) 
-8.5299999999999994

>  <m_primary>  (49) 
energy

$$$$
