0:0
     RDKit          3D

 39 41  0  0  0  0  0  0  0  0999 V2000
   -4.9270   20.0100  -32.9870 C   0  0  0  0  0  0  0  0  0  0  0  0
   -6.3770   19.9780  -32.5770 C   0  0  0  0  0  0  0  0  0  0  0  0
   -7.0230   18.7340  -32.4650 C   0  0  0  0  0  0  0  0  0  0  0  0
   -8.3750   18.6630  -32.1230 C   0  0  0  0  0  0  0  0  0  0  0  0
   -9.1040   19.8310  -31.9100 C   0  0  0  0  0  0  0  0  0  0  0  0
   -8.4800   21.0750  -32.0170 C   0  0  0  0  0  0  0  0  0  0  0  0
   -7.1110   21.1680  -32.3260 C   0  0  0  0  0  0  0  0  0  0  0  0
   -6.4760   22.5430  -32.3390 C   0  0  0  0  0  0  0  0  0  0  0  0
   -7.3190   23.5210  -31.6310 N   0  0  0  0  0  0  0  0  0  0  0  0
   -7.0590   23.5570  -30.1800 C   0  0  0  0  0  0  0  0  0  0  0  0
   -5.5870   23.7530  -29.8890 C   0  0  0  0  0  0  0  0  0  0  0  0
   -4.9350   22.8900  -28.9960 C   0  0  0  0  0  0  0  0  0  0  0  0
   -3.5590   23.0060  -28.7810 C   0  0  0  0  0  0  0  0  0  0  0  0
   -2.8790   22.1090  -27.9430 C   0  0  0  0  0  0  0  0  0  0  0  0
   -1.4990   22.2330  -27.7590 C   0  0  0  0  0  0  0  0  0  0  0  0
   -0.7920   23.2500  -28.4060 C   0  0  0  0  0  0  0  0  0  0  0  0
   -1.4610   24.1490  -29.2420 C   0  0  0  0  0  0  0  0  0  0  0  0
   -2.8470   24.0340  -29.4380 C   0  0  0  0  0  0  0  0  0  0  0  0
   -3.5080   24.9040  -30.2520 N   0  0  0  0  0  0  0  0  0  0  0  0
   -4.8470   24.7960  -30.4830 C   0  0  0  0  0  0  0  0  0  0  0  0
   -5.4140   25.6350  -31.2320 O   0  0  0  0  0  0  0  0  0  0  0  0
   -4.2922   20.0240  -32.0888 H   0  0  0  0  0  0  0  0  0  0  0  0
   -4.6955   19.1167  -33.5857 H   0  0  0  0  0  0  0  0  0  0  0  0
   -4.7351   20.9126  -33.5857 H   0  0  0  0  0  0  0  0  0  0  0  0
   -6.4580   17.8082  -32.6485 H   0  0  0  0  0  0  0  0  0  0  0  0
   -8.8652   17.6835  -32.0216 H   0  0  0  0  0  0  0  0  0  0  0  0
  -10.1730   19.7728  -31.6571 H   0  0  0  0  0  0  0  0  0  0  0  0
   -9.0653   21.9927  -31.8579 H   0  0  0  0  0  0  0  0  0  0  0  0
   -5.4943   22.4904  -31.8455 H   0  0  0  0  0  0  0  0  0  0  0  0
   -6.3653   22.8677  -33.3841 H   0  0  0  0  0  0  0  0  0  0  0  0
   -7.0800   24.4670  -32.0110 H   0  0  0  0  0  0  0  0  0  0  0  0
   -7.6258   24.3881  -29.7351 H   0  0  0  0  0  0  0  0  0  0  0  0
   -7.3730   22.5956  -29.7474 H   0  0  0  0  0  0  0  0  0  0  0  0
   -5.5094   22.1184  -28.4625 H   0  0  0  0  0  0  0  0  0  0  0  0
   -3.4322   21.3080  -27.4308 H   0  0  0  0  0  0  0  0  0  0  0  0
   -0.9678   21.5278  -27.1028 H   0  0  0  0  0  0  0  0  0  0  0  0
    0.2939   23.3435  -28.2571 H   0  0  0  0  0  0  0  0  0  0  0  0
   -0.9002   24.9488  -29.7478 H   0  0  0  0  0  0  0  0  0  0  0  0
   -2.9790   25.6760  -30.7220 H   0  0  0  0  0  0  0  0  0  0  0  0
  1  2  1  0
  2  3  2  0
  3  4  1  0
  4  5  2  0
  5  6  1  0
  6  7  2  0
  7  8  1  0
  8  9  1  0
  9 10  1  0
 10 11  1  0
 11 12  2  0
 12 13  1  0
 13 14  2  0
 14 15  1  0
 15 16  2  0
 16 17  1  0
 17 18  2  0
 18 19  1  0
 19 20  1  0
 20 21  2  0
  7  2  1  0
 20 11  1  0
 18 13  1  0
  1 22  1  0
  1 23  1  0
  1 24  1  0
  3 25  1  0
  4 26  1  0
  5 27  1  0
  6 28  1  0
  8 29  1  0
  8 30  1  0
  9 31  1  0
 10 32  1  0
 10 33  1  0
 12 34  1  0
 14 35  1  0
 15 36  1  0
 16 37  1  0
 17 38  1  0
 19 39  1  0
M  END
>  <UniqueID>  (1) 
1

>  <SMILES>  (1) 
Cc1ccccc1CNCc1cc2ccccc2[nH]c1=O

>  <Energy>  (1) 
43.87761961691231

>  <Genealogy>  (1) 
Cc1ccccc1CNCc1cc2ccccc2[nH]c1=O (3D coordinates assigned)
Cc1ccccc1CNCc1cc2ccccc2[nH]c1=O (optimized conformer: 43.87761961691231 kcal/mol)

>  <smiles>  (1) 
Cc1ccccc1CNCc1cc2ccccc2[nH]c1=O

>  <score_type>  (1) 
oracle

>  <origin>  (1) 
adg

>  <m_score__min__energy>  (1) 
-8.7799999999999994

>  <m_primary>  (1) 
energy

$$$$
1:0
     RDKit          3D

 36 37  0  0  0  0  0  0  0  0999 V2000
   -9.1310   18.4630  -31.8110 C   0  0  0  0  0  0  0  0  0  0  0  0
   -8.9710   19.7930  -32.2940 O   0  0  0  0  0  0  0  0  0  0  0  0
   -7.7480   20.4810  -32.3300 C   0  0  0  0  0  0  0  0  0  0  0  0
   -6.6150   19.8000  -32.7880 C   0  0  0  0  0  0  0  0  0  0  0  0
   -5.3740   20.4390  -32.8440 C   0  0  0  0  0  0  0  0  0  0  0  0
   -5.2490   21.7840  -32.4400 C   0  0  0  0  0  0  0  0  0  0  0  0
   -4.0290   22.4790  -32.4710 O   0  0  0  0  0  0  0  0  0  0  0  0
   -2.7420   21.8900  -32.6620 C   0  0  0  0  0  0  0  0  0  0  0  0
   -2.0600   21.6320  -31.3160 C   0  0  0  0  0  0  0  0  0  0  0  0
   -2.9200   22.0640  -30.2160 N   0  0  0  0  0  0  0  0  0  0  0  0
   -2.9170   21.4210  -28.9340 C   0  0  0  0  0  0  0  0  0  0  0  0
   -2.1720   20.4280  -28.7190 O   0  0  0  0  0  0  0  0  0  0  0  0
   -3.7730   21.9520  -27.8300 C   0  0  0  0  0  0  0  0  0  0  0  0
   -3.2410   23.6450  -27.4170 S   0  0  0  0  0  0  0  0  0  0  0  0
   -3.8720   24.3370  -28.9410 C   0  0  0  0  0  0  0  0  0  0  0  0
   -5.1780   24.3520  -29.2660 N   0  0  0  0  0  0  0  0  0  0  0  0
   -5.1530   24.9550  -30.4700 C   0  0  0  0  0  0  0  0  0  0  0  0
   -3.9050   25.2840  -30.8510 N   0  0  0  0  0  0  0  0  0  0  0  0
   -3.0940   24.8930  -29.8840 N   0  0  0  0  0  0  0  0  0  0  0  0
   -6.3830   22.4620  -31.9790 C   0  0  0  0  0  0  0  0  0  0  0  0
   -7.6240   21.8220  -31.9240 C   0  0  0  0  0  0  0  0  0  0  0  0
   -9.1302   18.4698  -30.7110 H   0  0  0  0  0  0  0  0  0  0  0  0
  -10.0849   18.0532  -32.1744 H   0  0  0  0  0  0  0  0  0  0  0  0
   -8.3015   17.8386  -32.1744 H   0  0  0  0  0  0  0  0  0  0  0  0
   -6.7022   18.7509  -33.1072 H   0  0  0  0  0  0  0  0  0  0  0  0
   -4.4911   19.8908  -33.2046 H   0  0  0  0  0  0  0  0  0  0  0  0
   -2.8573   20.9359  -33.1971 H   0  0  0  0  0  0  0  0  0  0  0  0
   -2.1193   22.5828  -33.2470 H   0  0  0  0  0  0  0  0  0  0  0  0
   -1.8550   20.5561  -31.2143 H   0  0  0  0  0  0  0  0  0  0  0  0
   -1.1200   22.2021  -31.2781 H   0  0  0  0  0  0  0  0  0  0  0  0
   -3.5900   22.8470  -30.3880 H   0  0  0  0  0  0  0  0  0  0  0  0
   -4.8241   21.9659  -28.1541 H   0  0  0  0  0  0  0  0  0  0  0  0
   -3.6733   21.3078  -26.9439 H   0  0  0  0  0  0  0  0  0  0  0  0
   -6.0506   25.1557  -31.0733 H   0  0  0  0  0  0  0  0  0  0  0  0
   -6.2966   23.5101  -31.6564 H   0  0  0  0  0  0  0  0  0  0  0  0
   -8.5071   22.3689  -31.5619 H   0  0  0  0  0  0  0  0  0  0  0  0
  1  2  1  0
  2  3  1  0
  3  4  2  0
  4  5  1  0
  5  6  2  0
  6  7  1  0
  7  8  1  0
  8  9  1  0
  9 10  1  0
 10 11  1  0
 11 12  2  0
 11 13  1  0
 13 14  1  0
 14 15  1  0
 15 16  1  0
 16 17  2  0
 17 18  1  0
 18 19  1  0
  6 20  1  0
 20 21  2  0
 21  3  1  0
 19 15  2  0
  1 22  1  0
  1 23  1  0
  1 24  1  0
  4 25  1  0
  5 26  1  0
  8 27  1  0
  8 28  1  0
  9 29  1  0
  9 30  1  0
 10 31  1  0
 13 32  1  0
 13 33  1  0
 17 34  1  0
 20 35  1  0
 21 36  1  0
M  CHG  1  18  -1
M  END
>  <UniqueID>  (2) 
2

>  <SMILES>  (2) 
COc1ccc(OCCNC(=O)CSc2nc[n-]n2)cc1

>  <Energy>  (2) 
58.225820405626905

>  <Genealogy>  (2) 
COc1ccc(OCCNC(=O)CSc2nc[n-]n2)cc1 (protonated)
COc1ccc(OCCNC(=O)CSc2nc[n-]n2)cc1 (3D coordinates assigned)
COc1ccc(OCCNC(=O)CSc2nc[n-]n2)cc1 (optimized conformer: 58.225820405626905 kcal/mol)

>  <smiles>  (2) 
COc1ccc(OCCNC(=O)CSc2nc[nH]n2)cc1

>  <score_type>  (2) 
oracle

>  <origin>  (2) 
adg

>  <m_score__min__energy>  (2) 
-8.1999999999999993

>  <m_primary>  (2) 
energy

$$$$
2:0
     RDKit          3D

 23 25  0  0  0  0  0  0  0  0999 V2000
   -9.0240   19.8700  -33.8520 H   0  0  0  0  0  0  0  0  0  0  0  0
   -8.9430   20.0670  -32.8290 N   0  0  0  0  0  0  0  0  0  0  0  0
   -7.9450   20.7350  -32.3450 C   0  0  0  0  0  0  0  0  0  0  0  0
   -3.8850   25.0560  -30.0090 N   0  0  0  0  0  0  0  0  0  0  0  0
   -4.8900   24.2940  -30.5160 C   0  0  0  0  0  0  0  0  0  0  0  0
   -6.1250   24.8800  -30.7920 C   0  0  0  0  0  0  0  0  0  0  0  0
   -6.2778   25.9519  -30.5981 H   0  0  0  0  0  0  0  0  0  0  0  0
   -7.1380   24.1350  -31.2980 N   0  0  0  0  0  0  0  0  0  0  0  0
   -6.9990   22.8080  -31.5570 C   0  0  0  0  0  0  0  0  0  0  0  0
   -8.0820   22.0970  -32.0780 C   0  0  0  0  0  0  0  0  0  0  0  0
   -9.0361   22.6073  -32.2763 H   0  0  0  0  0  0  0  0  0  0  0  0
   -2.6620   24.5380  -29.7220 C   0  0  0  0  0  0  0  0  0  0  0  0
   -1.7310   25.2970  -29.2400 N   0  0  0  0  0  0  0  0  0  0  0  0
   -0.9460   25.6450  -29.8360 H   0  0  0  0  0  0  0  0  0  0  0  0
   -6.7640   20.1120  -32.0960 N   0  0  0  0  0  0  0  0  0  0  0  0
   -5.6890   20.7710  -31.5890 C   0  0  0  0  0  0  0  0  0  0  0  0
   -4.7513   20.2266  -31.4035 H   0  0  0  0  0  0  0  0  0  0  0  0
   -5.7690   22.1510  -31.2990 C   0  0  0  0  0  0  0  0  0  0  0  0
   -4.6910   22.9140  -30.7670 C   0  0  0  0  0  0  0  0  0  0  0  0
   -3.4210   22.3720  -30.4700 C   0  0  0  0  0  0  0  0  0  0  0  0
   -3.2255   21.3047  -30.6506 H   0  0  0  0  0  0  0  0  0  0  0  0
   -2.4120   23.1850  -29.9480 C   0  0  0  0  0  0  0  0  0  0  0  0
   -1.4244   22.7596  -29.7162 H   0  0  0  0  0  0  0  0  0  0  0  0
  1  2  1  0
  2  3  2  0
  3  4  1  0
  4  5  1  0
  5  6  1  0
  6  7  1  0
  6  8  2  0
  8  9  1  0
  9 10  2  0
 10 11  1  0
 10 12  1  0
 12 13  2  0
 13 14  1  0
 12 15  1  0
 15 16  1  0
 16 17  1  0
 16 18  2  0
 18 19  1  0
 19 20  1  0
 20 21  1  0
 20 22  2  0
 22 23  1  0
 22  3  1  0
 19  5  2  0
 18  9  1  0
M  CHG  2   4  -1  15  -1
M  END
>  <UniqueID>  (3) 
3

>  <SMILES>  (3) 
[H]/N=c1/cc2ncc3[n-]/c(=N\[H])ccc3c2c[n-]1

>  <Energy>  (3) 
36.869348738833835

>  <Genealogy>  (3) 
N=c1cc2ncc3[n-]c(=N)ccc3c2c[n-]1 (protonated)
[H]/N=c1/cc2ncc3[n-]/c(=N\[H])ccc3c2c[n-]1 (cis-trans isomerization)
[H]/N=c1/cc2ncc3[n-]/c(=N\[H])ccc3c2c[n-]1 (3D coordinates assigned)
[H]/N=c1/cc2ncc3[n-]/c(=N\[H])ccc3c2c[n-]1 (optimized conformer: 36.869348738833835 kcal/mol)

>  <smiles>  (3) 
N=c1cc2ncc3[nH]c(=N)ccc3c2c[nH]1

>  <score_type>  (3) 
oracle

>  <origin>  (3) 
adg

>  <m_score__min__energy>  (3) 
-8.3699999999999992

>  <m_primary>  (3) 
energy

$$$$
3:0
     RDKit          3D

 57 60  0  0  0  0  0  0  0  0999 V2000
   -0.4740   29.7930  -26.2220 C   0  0  0  0  0  0  0  0  0  0  0  0
    0.0050   28.6210  -25.5730 O   0  0  0  0  0  0  0  0  0  0  0  0
   -0.1210   27.3190  -26.0830 C   0  0  0  0  0  0  0  0  0  0  0  0
   -0.7110   27.0670  -27.3320 C   0  0  0  0  0  0  0  0  0  0  0  0
   -0.7940   25.7650  -27.8380 C   0  0  0  0  0  0  0  0  0  0  0  0
   -1.4050   25.5850  -29.1260 N   0  0  0  0  0  0  0  0  0  0  0  0
   -2.2300   24.5110  -29.5930 C   0  0  0  0  0  0  0  0  0  0  0  0
   -3.1200   24.6950  -30.4700 O   0  0  0  0  0  0  0  0  0  0  0  0
   -2.0670   23.1750  -29.0060 C   0  0  0  0  0  0  0  0  0  0  0  0
   -0.9370   22.3900  -29.2020 C   0  0  0  0  0  0  0  0  0  0  0  0
   -1.1670   21.2410  -28.4850 C   0  0  0  0  0  0  0  0  0  0  0  0
   -0.3610   20.1150  -28.3160 C   0  0  0  0  0  0  0  0  0  0  0  0
   -0.8540   19.0700  -27.5170 C   0  0  0  0  0  0  0  0  0  0  0  0
   -2.1220   19.1750  -26.9080 C   0  0  0  0  0  0  0  0  0  0  0  0
   -2.9130   20.3240  -27.0930 C   0  0  0  0  0  0  0  0  0  0  0  0
   -2.4060   21.3520  -27.8990 C   0  0  0  0  0  0  0  0  0  0  0  0
   -2.9840   22.5360  -28.2210 N   0  0  0  0  0  0  0  0  0  0  0  0
   -4.3360   22.9870  -27.8230 C   0  0  1  0  0  0  0  0  0  0  0  0
   -4.2440   24.0890  -26.7570 C   0  0  0  0  0  0  0  0  0  0  0  0
   -5.1920   23.3260  -29.0370 C   0  0  0  0  0  0  0  0  0  0  0  0
   -5.7310   24.6070  -29.2690 C   0  0  0  0  0  0  0  0  0  0  0  0
   -6.4800   24.8620  -30.4230 C   0  0  0  0  0  0  0  0  0  0  0  0
   -6.7050   23.8500  -31.3540 C   0  0  0  0  0  0  0  0  0  0  0  0
   -6.1780   22.5780  -31.1380 C   0  0  0  0  0  0  0  0  0  0  0  0
   -5.4250   22.3170  -29.9890 C   0  0  0  0  0  0  0  0  0  0  0  0
   -0.3130   24.6960  -27.0680 C   0  0  0  0  0  0  0  0  0  0  0  0
    0.2750   24.9260  -25.8020 C   0  0  0  0  0  0  0  0  0  0  0  0
    0.7560   23.8550  -25.0300 O   0  0  0  0  0  0  0  0  0  0  0  0
   -0.0450   22.9990  -24.2250 C   0  0  0  0  0  0  0  0  0  0  0  0
    0.3700   26.2540  -25.3090 C   0  0  0  0  0  0  0  0  0  0  0  0
    0.9350   26.5880  -24.0620 O   0  0  0  0  0  0  0  0  0  0  0  0
    0.2600   27.1650  -22.9490 C   0  0  0  0  0  0  0  0  0  0  0  0
   -0.7764   30.5330  -25.4664 H   0  0  0  0  0  0  0  0  0  0  0  0
    0.3234   30.2159  -26.8507 H   0  0  0  0  0  0  0  0  0  0  0  0
   -1.3393   29.5363  -26.8507 H   0  0  0  0  0  0  0  0  0  0  0  0
   -1.1135   27.9045  -27.9207 H   0  0  0  0  0  0  0  0  0  0  0  0
   -0.0488   22.6360  -29.8025 H   0  0  0  0  0  0  0  0  0  0  0  0
    0.6280   20.0476  -28.7927 H   0  0  0  0  0  0  0  0  0  0  0  0
   -0.2478   18.1647  -27.3654 H   0  0  0  0  0  0  0  0  0  0  0  0
   -2.4960   18.3510  -26.2826 H   0  0  0  0  0  0  0  0  0  0  0  0
   -3.9013   20.4127  -26.6183 H   0  0  0  0  0  0  0  0  0  0  0  0
   -4.8731   22.1585  -27.3381 H   0  0  0  0  0  0  0  0  0  0  0  0
   -4.2819   23.6348  -25.7559 H   0  0  0  0  0  0  0  0  0  0  0  0
   -3.2971   24.6360  -26.8759 H   0  0  0  0  0  0  0  0  0  0  0  0
   -5.0871   24.7854  -26.8759 H   0  0  0  0  0  0  0  0  0  0  0  0
   -5.5619   25.4117  -28.5383 H   0  0  0  0  0  0  0  0  0  0  0  0
   -6.8933   25.8666  -30.5962 H   0  0  0  0  0  0  0  0  0  0  0  0
   -7.2975   24.0547  -32.2579 H   0  0  0  0  0  0  0  0  0  0  0  0
   -6.3546   21.7783  -31.8724 H   0  0  0  0  0  0  0  0  0  0  0  0
   -5.0101   21.3111  -29.8277 H   0  0  0  0  0  0  0  0  0  0  0  0
   -0.3937   23.6685  -27.4523 H   0  0  0  0  0  0  0  0  0  0  0  0
    0.1496   23.2070  -23.1625 H   0  0  0  0  0  0  0  0  0  0  0  0
   -1.1079   23.1776  -24.4449 H   0  0  0  0  0  0  0  0  0  0  0  0
    0.2037   21.9503  -24.4449 H   0  0  0  0  0  0  0  0  0  0  0  0
    0.7024   26.7868  -22.0156 H   0  0  0  0  0  0  0  0  0  0  0  0
    0.3617   28.2597  -22.9858 H   0  0  0  0  0  0  0  0  0  0  0  0
   -0.8055   26.8943  -22.9858 H   0  0  0  0  0  0  0  0  0  0  0  0
  1  2  1  0
  2  3  1  0
  3  4  2  0
  4  5  1  0
  5  6  1  0
  6  7  1  0
  7  8  2  0
  7  9  1  0
  9 10  2  0
 10 11  1  0
 11 12  2  0
 12 13  1  0
 13 14  2  0
 14 15  1  0
 15 16  2  0
 16 17  1  0
 17 18  1  0
 18 19  1  0
 18 20  1  0
 20 21  2  0
 21 22  1  0
 22 23  2  0
 23 24  1  0
 24 25  2  0
  5 26  2  0
 26 27  1  0
 27 28  1  0
 28 29  1  0
 27 30  2  0
 30 31  1  0
 31 32  1  0
 30  3  1  0
 17  9  1  0
 25 20  1  0
 16 11  1  0
  1 33  1  0
  1 34  1  0
  1 35  1  0
  4 36  1  0
 10 37  1  0
 12 38  1  0
 13 39  1  0
 14 40  1  0
 15 41  1  0
 18 42  1  1
 19 43  1  0
 19 44  1  0
 19 45  1  0
 21 46  1  0
 22 47  1  0
 23 48  1  0
 24 49  1  0
 25 50  1  0
 26 51  1  0
 29 52  1  0
 29 53  1  0
 29 54  1  0
 32 55  1  0
 32 56  1  0
 32 57  1  0
M  CHG  1   6  -1
M  END
>  <UniqueID>  (4) 
4

>  <SMILES>  (4) 
COc1cc([N-]C(=O)c2cc3ccccc3n2[C@@H](C)c2ccccc2)cc(OC)c1OC

>  <Energy>  (4) 
107.49028567646182

>  <Genealogy>  (4) 
COc1cc([N-]C(=O)c2cc3ccccc3n2C(C)c2ccccc2)cc(OC)c1OC (protonated)
COc1cc([N-]C(=O)c2cc3ccccc3n2[C@@H](C)c2ccccc2)cc(OC)c1OC (chirality)
COc1cc([N-]C(=O)c2cc3ccccc3n2[C@@H](C)c2ccccc2)cc(OC)c1OC (3D coordinates assigned)
COc1cc([N-]C(=O)c2cc3ccccc3n2[C@@H](C)c2ccccc2)cc(OC)c1OC (optimized conformer: 107.49028567646182 kcal/mol)

>  <smiles>  (4) 
COc1cc(NC(=O)c2cc3ccccc3n2C(C)c2ccccc2)cc(OC)c1OC

>  <score_type>  (4) 
oracle

>  <origin>  (4) 
adg

>  <m_score__min__energy>  (4) 
-10.57

>  <m_primary>  (4) 
energy

$$$$
4:0
     RDKit          3D

 14 14  0  0  0  0  0  0  0  0999 V2000
   -4.2550   25.6560  -30.8590 O   0  0  0  0  0  0  0  0  0  0  0  0
   -4.6780   24.9020  -29.9440 C   0  0  0  0  0  0  0  0  0  0  0  0
   -3.7600   24.0710  -29.1350 C   0  0  0  0  0  0  0  0  0  0  0  0
   -4.2320   22.8470  -28.6300 C   0  0  0  0  0  0  0  0  0  0  0  0
   -3.4010   22.0300  -27.8610 C   0  0  0  0  0  0  0  0  0  0  0  0
   -2.0910   22.4220  -27.5870 C   0  0  0  0  0  0  0  0  0  0  0  0
   -1.6040   23.6360  -28.0810 C   0  0  0  0  0  0  0  0  0  0  0  0
    0.1980   24.1470  -27.6880 Br  0  0  0  0  0  0  0  0  0  0  0  0
   -2.4320   24.4640  -28.8540 C   0  0  0  0  0  0  0  0  0  0  0  0
   -1.9280   25.6680  -29.3360 O   0  0  0  0  0  0  0  0  0  0  0  0
   -5.7583   24.8601  -29.7408 H   0  0  0  0  0  0  0  0  0  0  0  0
   -5.2639   22.5305  -28.8423 H   0  0  0  0  0  0  0  0  0  0  0  0
   -3.7807   21.0744  -27.4702 H   0  0  0  0  0  0  0  0  0  0  0  0
   -1.4397   21.7749  -26.9811 H   0  0  0  0  0  0  0  0  0  0  0  0
  1  2  2  0
  2  3  1  0
  3  4  2  0
  4  5  1  0
  5  6  2  0
  6  7  1  0
  7  8  1  0
  7  9  2  0
  9 10  1  0
  9  3  1  0
  2 11  1  0
  4 12  1  0
  5 13  1  0
  6 14  1  0
M  CHG  1  10  -1
M  END
>  <UniqueID>  (5) 
5

>  <SMILES>  (5) 
O=Cc1cccc(Br)c1[O-]

>  <Energy>  (5) 
14.523172837643642

>  <Genealogy>  (5) 
O=Cc1cccc(Br)c1[O-] (protonated)
O=Cc1cccc(Br)c1[O-] (3D coordinates assigned)
O=Cc1cccc(Br)c1[O-] (optimized conformer: 14.523172837643642 kcal/mol)

>  <smiles>  (5) 
O=Cc1cccc(Br)c1O

>  <score_type>  (5) 
oracle

>  <origin>  (5) 
adg

>  <m_score__min__energy>  (5) 
-8

>  <m_primary>  (5) 
energy

$$$$
5:0
     RDKit          3D

 27 28  0  0  0  0  0  0  0  0999 V2000
   -3.7990   24.0420  -28.3300 O   0  0  0  0  0  0  0  0  0  0  0  0
   -3.1700   24.6040  -29.2670 C   0  0  0  0  0  0  0  0  0  0  0  0
   -3.7120   24.6250  -30.5930 N   0  0  0  0  0  0  0  0  0  0  0  0
   -4.8890   23.9390  -31.0440 C   0  0  0  0  0  0  0  0  0  0  0  0
   -6.1440   24.4540  -30.6910 C   0  0  0  0  0  0  0  0  0  0  0  0
   -7.3150   23.8260  -31.1280 C   0  0  0  0  0  0  0  0  0  0  0  0
   -7.2400   22.6890  -31.9370 C   0  0  0  0  0  0  0  0  0  0  0  0
   -5.9940   22.1830  -32.3150 C   0  0  0  0  0  0  0  0  0  0  0  0
   -5.9220   21.0920  -33.1180 F   0  0  0  0  0  0  0  0  0  0  0  0
   -4.8200   22.8060  -31.8790 C   0  0  0  0  0  0  0  0  0  0  0  0
   -1.9510   25.3100  -29.0010 N   0  0  0  0  0  0  0  0  0  0  0  0
   -1.2110   25.2160  -27.7720 C   0  0  0  0  0  0  0  0  0  0  0  0
   -1.7150   25.7430  -26.5670 C   0  0  0  0  0  0  0  0  0  0  0  0
   -0.9840   25.6160  -25.3820 C   0  0  0  0  0  0  0  0  0  0  0  0
    0.2450   24.9520  -25.3840 C   0  0  0  0  0  0  0  0  0  0  0  0
    0.7430   24.4070  -26.5700 C   0  0  0  0  0  0  0  0  0  0  0  0
    0.0150   24.5320  -27.7570 C   0  0  0  0  0  0  0  0  0  0  0  0
   -6.2084   25.3573  -30.0666 H   0  0  0  0  0  0  0  0  0  0  0  0
   -8.2961   24.2276  -30.8345 H   0  0  0  0  0  0  0  0  0  0  0  0
   -8.1614   22.1928  -32.2759 H   0  0  0  0  0  0  0  0  0  0  0  0
   -3.8412   22.4108  -32.1885 H   0  0  0  0  0  0  0  0  0  0  0  0
   -1.6240   25.9930  -29.7220 H   0  0  0  0  0  0  0  0  0  0  0  0
   -2.6877   26.2566  -26.5582 H   0  0  0  0  0  0  0  0  0  0  0  0
   -1.3774   26.0398  -24.4463 H   0  0  0  0  0  0  0  0  0  0  0  0
    0.8208   24.8582  -24.4515 H   0  0  0  0  0  0  0  0  0  0  0  0
    1.7082   23.8794  -26.5699 H   0  0  0  0  0  0  0  0  0  0  0  0
    0.4056   24.0912  -28.6860 H   0  0  0  0  0  0  0  0  0  0  0  0
  1  2  2  0
  2  3  1  0
  3  4  1  0
  4  5  2  0
  5  6  1  0
  6  7  2  0
  7  8  1  0
  8  9  1  0
  8 10  2  0
  2 11  1  0
 11 12  1  0
 12 13  2  0
 13 14  1  0
 14 15  2  0
 15 16  1  0
 16 17  2  0
 10  4  1  0
 17 12  1  0
  5 18  1  0
  6 19  1  0
  7 20  1  0
 10 21  1  0
 11 22  1  0
 13 23  1  0
 14 24  1  0
 15 25  1  0
 16 26  1  0
 17 27  1  0
M  CHG  1   3  -1
M  END
>  <UniqueID>  (6) 
6

>  <SMILES>  (6) 
O=C([N-]c1cccc(F)c1)Nc1ccccc1

>  <Energy>  (6) 
34.31819236295192

>  <Genealogy>  (6) 
O=C([N-]c1cccc(F)c1)Nc1ccccc1 (protonated)
O=C([N-]c1cccc(F)c1)Nc1ccccc1 (3D coordinates assigned)
O=C([N-]c1cccc(F)c1)Nc1ccccc1 (optimized conformer: 34.31819236295192 kcal/mol)

>  <smiles>  (6) 
O=C(Nc1ccccc1)Nc1cccc(F)c1

>  <score_type>  (6) 
oracle

>  <origin>  (6) 
adg

>  <m_score__min__energy>  (6) 
-7.5700000000000003

>  <m_primary>  (6) 
energy

$$$$
6:0
     RDKit          3D

 41 43  0  0  1  0  0  0  0  0999 V2000
   -1.2040   26.3830  -28.1860 C   0  0  0  0  0  0  0  0  0  0  0  0
   -1.9830   25.4990  -28.9500 O   0  0  0  0  0  0  0  0  0  0  0  0
   -1.9000   24.1270  -28.9400 C   0  0  0  0  0  0  0  0  0  0  0  0
   -1.1180   23.4780  -27.9920 C   0  0  0  0  0  0  0  0  0  0  0  0
   -1.0640   22.0850  -28.0190 C   0  0  0  0  0  0  0  0  0  0  0  0
   -1.7720   21.3580  -28.9660 C   0  0  0  0  0  0  0  0  0  0  0  0
   -2.5350   22.0460  -29.8860 C   0  0  0  0  0  0  0  0  0  0  0  0
   -3.2840   21.2450  -30.8920 C   0  0  0  0  0  0  0  0  0  0  0  0
   -2.6150   23.4250  -29.8940 C   0  0  0  0  0  0  0  0  0  0  0  0
   -3.4020   24.1360  -30.8440 N   0  0  0  0  0  0  0  0  0  0  0  0
   -4.6470   24.3260  -30.6120 C   0  0  0  0  0  0  0  0  0  0  0  0
   -5.5990   23.5170  -31.1900 C   0  0  0  0  0  0  0  0  0  0  0  0
   -6.9660   23.7280  -30.9330 C   0  0  0  0  0  0  0  0  0  0  0  0
   -7.9320   22.8930  -31.5310 N   0  0  0  0  0  0  0  0  0  0  0  0
   -7.8090   21.5420  -31.8660 C   0  0  0  0  0  0  0  0  0  0  0  0
   -8.6320   20.5270  -31.4400 C   0  0  0  0  0  0  0  0  0  0  0  0
   -8.4500   19.1990  -31.8130 C   0  0  0  0  0  0  0  0  0  0  0  0
   -7.4140   18.8610  -32.6420 C   0  0  0  0  0  0  0  0  0  0  0  0
   -7.2110   17.1910  -33.0940 Cl  0  0  0  0  0  0  0  0  0  0  0  0
   -6.5680   19.8480  -33.0920 C   0  0  0  0  0  0  0  0  0  0  0  0
   -6.7650   21.1500  -32.7110 C   0  0  0  0  0  0  0  0  0  0  0  0
   -7.2250   24.7500  -30.1060 N   0  0  0  0  0  0  0  0  0  0  0  0
   -6.2980   25.5350  -29.5440 C   0  0  0  0  0  0  0  0  0  0  0  0
   -4.9980   25.3190  -29.8010 N   0  0  0  0  0  0  0  0  0  0  0  0
   -1.3736   26.1905  -27.1163 H   0  0  0  0  0  0  0  0  0  0  0  0
   -0.1402   26.2317  -28.4216 H   0  0  0  0  0  0  0  0  0  0  0  0
   -1.4879   27.4193  -28.4216 H   0  0  0  0  0  0  0  0  0  0  0  0
   -0.5555   24.0492  -27.2389 H   0  0  0  0  0  0  0  0  0  0  0  0
   -0.4500   21.5532  -27.2773 H   0  0  0  0  0  0  0  0  0  0  0  0
   -1.7256   20.2591  -28.9823 H   0  0  0  0  0  0  0  0  0  0  0  0
   -3.9474   20.5356  -30.3756 H   0  0  0  0  0  0  0  0  0  0  0  0
   -3.8851   21.9171  -31.5220 H   0  0  0  0  0  0  0  0  0  0  0  0
   -2.5731   20.6902  -31.5220 H   0  0  0  0  0  0  0  0  0  0  0  0
   -5.2887   22.6997  -31.8576 H   0  0  0  0  0  0  0  0  0  0  0  0
   -8.8670   23.3570  -31.7500 H   0  0  0  0  0  0  0  0  0  0  0  0
   -9.4719   20.7756  -30.7746 H   0  0  0  0  0  0  0  0  0  0  0  0
   -9.1363   18.4230  -31.4430 H   0  0  0  0  0  0  0  0  0  0  0  0
   -5.7316   19.5919  -33.7590 H   0  0  0  0  0  0  0  0  0  0  0  0
   -6.0732   21.9189  -33.0854 H   0  0  0  0  0  0  0  0  0  0  0  0
   -6.6000   26.3537  -28.8743 H   0  0  0  0  0  0  0  0  0  0  0  0
   -4.2830   25.9390  -29.3570 H   0  0  0  0  0  0  0  0  0  0  0  0
  1  2  1  0
  2  3  1  0
  3  4  2  0
  4  5  1  0
  5  6  2  0
  6  7  1  0
  7  8  1  0
  7  9  2  0
  9 10  1  0
 10 11  2  0
 11 12  1  0
 12 13  2  0
 13 14  1  0
 14 15  1  0
 15 16  2  0
 16 17  1  0
 17 18  2  0
 18 19  1  0
 18 20  1  0
 20 21  2  0
 13 22  1  0
 22 23  2  0
 23 24  1  0
  9  3  1  0
 24 11  1  0
 21 15  1  0
  1 25  1  0
  1 26  1  0
  1 27  1  0
  4 28  1  0
  5 29  1  0
  6 30  1  0
  8 31  1  0
  8 32  1  0
  8 33  1  0
 12 34  1  0
 14 35  1  0
 16 36  1  0
 17 37  1  0
 20 38  1  0
 21 39  1  0
 23 40  1  0
 24 41  1  0
M  END
>  <smiles>  (7) 
COc1cccc(C)c1N=c1cc(Nc2ccc(Cl)cc2)nc[nH]1

>  <score_type>  (7) 
oracle

>  <origin>  (7) 
adg

>  <m_score__min__energy>  (7) 
-8.8300000000000001

>  <m_primary>  (7) 
energy

$$$$
7:0
     RDKit          3D

 53 55  0  0  0  0  0  0  0  0999 V2000
   -2.3260   20.3050  -27.2580 C   0  0  0  0  0  0  0  0  0  0  0  0
   -2.7020   21.1310  -28.4860 C   0  0  0  0  0  0  0  0  0  0  0  0
   -2.3040   22.5780  -28.3070 C   0  0  0  0  0  0  0  0  0  0  0  0
   -1.8640   22.9960  -27.0400 C   0  0  0  0  0  0  0  0  0  0  0  0
   -1.5000   24.3220  -26.8180 C   0  0  0  0  0  0  0  0  0  0  0  0
   -1.5780   25.2320  -27.8670 C   0  0  0  0  0  0  0  0  0  0  0  0
   -1.9840   24.8180  -29.0940 N   0  0  0  0  0  0  0  0  0  0  0  0
   -2.3210   23.5270  -29.3650 C   0  0  0  0  0  0  0  0  0  0  0  0
   -2.7900   23.1720  -30.7710 C   0  0  0  0  0  0  0  0  0  0  0  0
   -4.2600   23.1760  -30.9510 N   0  0  0  0  0  0  0  0  0  0  0  0
   -4.9680   24.1530  -30.0960 C   0  0  0  0  0  0  0  0  0  0  0  0
   -6.0730   24.9030  -30.8690 C   0  0  0  0  0  0  0  0  0  0  0  0
   -7.3650   24.0860  -31.0870 C   0  0  0  0  0  0  0  0  0  0  0  0
   -7.1590   22.6550  -31.4530 N   0  0  0  0  0  0  0  0  0  0  0  0
   -8.3910   21.9800  -31.9190 C   0  0  0  0  0  0  0  0  0  0  0  0
   -8.3030   20.4690  -31.8860 C   0  0  0  0  0  0  0  0  0  0  0  0
   -9.1030   19.7000  -31.1170 N   0  0  0  0  0  0  0  0  0  0  0  0
   -8.6740   18.4410  -31.3320 C   0  0  0  0  0  0  0  0  0  0  0  0
   -7.6150   18.4600  -32.2080 C   0  0  0  0  0  0  0  0  0  0  0  0
   -7.3680   19.7380  -32.5420 N   0  0  0  0  0  0  0  0  0  0  0  0
   -6.3140   20.1940  -33.4500 C   0  0  0  0  0  0  0  0  0  0  0  0
   -5.1800   19.1770  -33.5040 C   0  0  0  0  0  0  0  0  0  0  0  0
   -6.3380   21.8260  -30.5420 C   0  0  0  0  0  0  0  0  0  0  0  0
   -4.8550   21.8230  -30.9500 C   0  0  0  0  0  0  0  0  0  0  0  0
   -2.5813   20.8657  -26.3467 H   0  0  0  0  0  0  0  0  0  0  0  0
   -2.8804   19.3550  -27.2713 H   0  0  0  0  0  0  0  0  0  0  0  0
   -1.2455   20.0992  -27.2713 H   0  0  0  0  0  0  0  0  0  0  0  0
   -2.1854   20.7220  -29.3668 H   0  0  0  0  0  0  0  0  0  0  0  0
   -3.7925   21.0813  -28.6218 H   0  0  0  0  0  0  0  0  0  0  0  0
   -1.8064   22.2696  -26.2159 H   0  0  0  0  0  0  0  0  0  0  0  0
   -1.1550   24.6457  -25.8249 H   0  0  0  0  0  0  0  0  0  0  0  0
   -1.3109   26.2863  -27.7022 H   0  0  0  0  0  0  0  0  0  0  0  0
   -2.3568   23.9013  -31.4713 H   0  0  0  0  0  0  0  0  0  0  0  0
   -2.4561   22.1410  -30.9595 H   0  0  0  0  0  0  0  0  0  0  0  0
   -5.4260   23.6188  -29.2505 H   0  0  0  0  0  0  0  0  0  0  0  0
   -4.2340   24.8944  -29.7474 H   0  0  0  0  0  0  0  0  0  0  0  0
   -6.3313   25.8115  -30.3052 H   0  0  0  0  0  0  0  0  0  0  0  0
   -5.6660   25.1197  -31.8677 H   0  0  0  0  0  0  0  0  0  0  0  0
   -7.9488   24.1180  -30.1553 H   0  0  0  0  0  0  0  0  0  0  0  0
   -7.8771   24.5488  -31.9435 H   0  0  0  0  0  0  0  0  0  0  0  0
   -9.2249   22.2941  -31.2741 H   0  0  0  0  0  0  0  0  0  0  0  0
   -8.5416   22.2718  -32.9689 H   0  0  0  0  0  0  0  0  0  0  0  0
   -9.1049   17.5371  -30.8766 H   0  0  0  0  0  0  0  0  0  0  0  0
   -7.0644   17.5804  -32.5729 H   0  0  0  0  0  0  0  0  0  0  0  0
   -6.7347   20.3211  -34.4584 H   0  0  0  0  0  0  0  0  0  0  0  0
   -5.9165   21.1513  -33.0819 H   0  0  0  0  0  0  0  0  0  0  0  0
   -4.8798   18.9078  -32.4806 H   0  0  0  0  0  0  0  0  0  0  0  0
   -5.5205   18.2760  -34.0352 H   0  0  0  0  0  0  0  0  0  0  0  0
   -4.3212   19.6133  -34.0352 H   0  0  0  0  0  0  0  0  0  0  0  0
   -6.4253   22.2263  -29.5211 H   0  0  0  0  0  0  0  0  0  0  0  0
   -6.7085   20.7916  -30.5951 H   0  0  0  0  0  0  0  0  0  0  0  0
   -4.2965   21.1937  -30.2414 H   0  0  0  0  0  0  0  0  0  0  0  0
   -4.7941   21.4329  -31.9767 H   0  0  0  0  0  0  0  0  0  0  0  0
  1  2  1  0
  2  3  1  0
  3  4  2  0
  4  5  1  0
  5  6  2  0
  6  7  1  0
  7  8  2  0
  8  9  1  0
  9 10  1  0
 10 11  1  0
 11 12  1  0
 12 13  1  0
 13 14  1  0
 14 15  1  0
 15 16  1  0
 16 17  2  0
 17 18  1  0
 18 19  2  0
 19 20  1  0
 20 21  1  0
 21 22  1  0
 14 23  1  0
 23 24  1  0
  8  3  1  0
 24 10  1  0
 20 16  1  0
  1 25  1  0
  1 26  1  0
  1 27  1  0
  2 28  1  0
  2 29  1  0
  4 30  1  0
  5 31  1  0
  6 32  1  0
  9 33  1  0
  9 34  1  0
 11 35  1  0
 11 36  1  0
 12 37  1  0
 12 38  1  0
 13 39  1  0
 13 40  1  0
 15 41  1  0
 15 42  1  0
 18 43  1  0
 19 44  1  0
 21 45  1  0
 21 46  1  0
 22 47  1  0
 22 48  1  0
 22 49  1  0
 23 50  1  0
 23 51  1  0
 24 52  1  0
 24 53  1  0
M  END
>  <UniqueID>  (8) 
7

>  <SMILES>  (8) 
CCc1cccnc1CN1CCCN(Cc2nccn2CC)CC1

>  <Energy>  (8) 
103.46209600017534

>  <Genealogy>  (8) 
CCc1cccnc1CN1CCCN(Cc2nccn2CC)CC1 (3D coordinates assigned)
CCc1cccnc1CN1CCCN(Cc2nccn2CC)CC1 (nonaromatic ring conformer: 103.46209600017534 kcal/mol)

>  <smiles>  (8) 
CCc1cccnc1CN1CCCN(Cc2nccn2CC)CC1

>  <score_type>  (8) 
oracle

>  <origin>  (8) 
adg

>  <m_score__min__energy>  (8) 
-5.3099999999999996

>  <m_primary>  (8) 
energy

$$$$
8:0
     RDKit          3D

 25 26  0  0  0  0  0  0  0  0999 V2000
   -3.0480   20.8050  -29.2620 C   0  0  0  0  0  0  0  0  0  0  0  0
   -3.1530   22.2910  -29.3820 C   0  0  0  0  0  0  0  0  0  0  0  0
   -2.0490   23.1050  -29.1130 C   0  0  0  0  0  0  0  0  0  0  0  0
   -2.1890   24.4870  -29.2480 C   0  0  0  0  0  0  0  0  0  0  0  0
   -1.2120   25.2450  -29.0110 O   0  0  0  0  0  0  0  0  0  0  0  0
   -3.3820   25.0140  -29.6380 N   0  0  0  0  0  0  0  0  0  0  0  0
   -4.4440   24.2060  -29.9030 C   0  0  0  0  0  0  0  0  0  0  0  0
   -6.0050   24.9080  -30.4330 S   0  0  0  0  0  0  0  0  0  0  0  0
   -6.5980   23.3330  -31.0470 C   0  0  0  0  0  0  0  0  0  0  0  0
   -6.0390   22.7740  -32.2040 C   0  0  0  0  0  0  0  0  0  0  0  0
   -6.5060   21.5480  -32.6870 C   0  0  0  0  0  0  0  0  0  0  0  0
   -7.5320   20.8740  -32.0120 C   0  0  0  0  0  0  0  0  0  0  0  0
   -8.1180   19.3360  -32.6190 Cl  0  0  0  0  0  0  0  0  0  0  0  0
   -8.0880   21.4290  -30.8550 C   0  0  0  0  0  0  0  0  0  0  0  0
   -7.6220   22.6560  -30.3720 C   0  0  0  0  0  0  0  0  0  0  0  0
   -4.3250   22.8580  -29.7740 N   0  0  0  0  0  0  0  0  0  0  0  0
   -3.0281   20.5235  -28.1988 H   0  0  0  0  0  0  0  0  0  0  0  0
   -3.9152   20.3356  -29.7494 H   0  0  0  0  0  0  0  0  0  0  0  0
   -2.1234   20.4622  -29.7494 H   0  0  0  0  0  0  0  0  0  0  0  0
   -1.0899   22.6655  -28.8014 H   0  0  0  0  0  0  0  0  0  0  0  0
   -3.4830   26.0500  -29.7410 H   0  0  0  0  0  0  0  0  0  0  0  0
   -5.2313   23.3008  -32.7332 H   0  0  0  0  0  0  0  0  0  0  0  0
   -6.0678   21.1125  -33.5971 H   0  0  0  0  0  0  0  0  0  0  0  0
   -8.8930   20.8997  -30.3241 H   0  0  0  0  0  0  0  0  0  0  0  0
   -8.0600   23.0900  -29.4611 H   0  0  0  0  0  0  0  0  0  0  0  0
  1  2  1  0
  2  3  2  0
  3  4  1  0
  4  5  2  0
  4  6  1  0
  6  7  1  0
  7  8  1  0
  8  9  1  0
  9 10  2  0
 10 11  1  0
 11 12  2  0
 12 13  1  0
 12 14  1  0
 14 15  2  0
  7 16  2  0
 16  2  1  0
 15  9  1  0
  1 17  1  0
  1 18  1  0
  1 19  1  0
  3 20  1  0
  6 21  1  0
 10 22  1  0
 11 23  1  0
 14 24  1  0
 15 25  1  0
M  END
>  <UniqueID>  (9) 
8

>  <SMILES>  (9) 
Cc1cc(=O)[nH]c(Sc2ccc(Cl)cc2)n1

>  <Energy>  (9) 
20.375040160284332

>  <Genealogy>  (9) 
Cc1cc(=O)[nH]c(Sc2ccc(Cl)cc2)n1 (3D coordinates assigned)
Cc1cc(=O)[nH]c(Sc2ccc(Cl)cc2)n1 (optimized conformer: 20.375040160284332 kcal/mol)

>  <smiles>  (9) 
Cc1cc(=O)[nH]c(Sc2ccc(Cl)cc2)n1

>  <score_type>  (9) 
oracle

>  <origin>  (9) 
adg

>  <m_score__min__energy>  (9) 
-7.0099999999999998

>  <m_primary>  (9) 
energy

$$$$
9:0
     RDKit          3D

 36 38  0  0  0  0  0  0  0  0999 V2000
   -9.0800   18.6260  -31.5640 C   0  0  0  0  0  0  0  0  0  0  0  0
   -7.8020   18.9770  -32.2460 C   0  0  0  0  0  0  0  0  0  0  0  0
   -7.7290   19.6520  -33.4130 N   0  0  0  0  0  0  0  0  0  0  0  0
   -6.4540   19.7860  -33.8660 C   0  0  0  0  0  0  0  0  0  0  0  0
   -5.4850   19.1910  -33.0520 C   0  0  0  0  0  0  0  0  0  0  0  0
   -4.0230   19.1580  -33.2660 C   0  0  0  0  0  0  0  0  0  0  0  0
   -3.1410   19.9470  -32.5070 C   0  0  0  0  0  0  0  0  0  0  0  0
   -1.7580   19.8680  -32.7410 C   0  0  0  0  0  0  0  0  0  0  0  0
   -0.8360   20.6410  -32.0200 O   0  0  0  0  0  0  0  0  0  0  0  0
   -1.0480   21.1730  -30.7390 C   0  0  0  0  0  0  0  0  0  0  0  0
   -0.5960   20.5180  -29.5780 C   0  0  0  0  0  0  0  0  0  0  0  0
   -0.8180   21.0860  -28.3200 C   0  0  0  0  0  0  0  0  0  0  0  0
   -1.4760   22.3130  -28.2110 C   0  0  0  0  0  0  0  0  0  0  0  0
   -1.9040   22.9870  -29.3630 C   0  0  0  0  0  0  0  0  0  0  0  0
   -2.7370   24.5320  -29.2280 S   0  0  0  0  0  0  0  0  0  0  0  0
   -1.5810   25.7920  -28.9760 N   0  0  0  0  0  0  0  0  0  0  0  0
   -3.6970   24.4930  -28.0710 O   0  0  0  0  0  0  0  0  0  0  0  0
   -3.5110   24.8080  -30.4870 O   0  0  0  0  0  0  0  0  0  0  0  0
   -1.6880   22.4130  -30.6230 C   0  0  0  0  0  0  0  0  0  0  0  0
   -1.2850   19.0310  -33.7540 C   0  0  0  0  0  0  0  0  0  0  0  0
   -2.1860   18.2650  -34.4920 C   0  0  0  0  0  0  0  0  0  0  0  0
   -3.5180   18.3430  -34.2340 N   0  0  0  0  0  0  0  0  0  0  0  0
   -6.2760   18.4870  -31.7380 S   0  0  0  0  0  0  0  0  0  0  0  0
   -8.9368   18.6653  -30.4741 H   0  0  0  0  0  0  0  0  0  0  0  0
   -9.8611   19.3429  -31.8573 H   0  0  0  0  0  0  0  0  0  0  0  0
   -9.3853   17.6107  -31.8573 H   0  0  0  0  0  0  0  0  0  0  0  0
   -8.5600   20.0290  -33.9200 H   0  0  0  0  0  0  0  0  0  0  0  0
   -6.2053   20.3184  -34.7959 H   0  0  0  0  0  0  0  0  0  0  0  0
   -3.5323   20.6236  -31.7329 H   0  0  0  0  0  0  0  0  0  0  0  0
   -0.0669   19.5571  -29.6607 H   0  0  0  0  0  0  0  0  0  0  0  0
   -0.4737   20.5654  -27.4142 H   0  0  0  0  0  0  0  0  0  0  0  0
   -1.6588   22.7515  -27.2189 H   0  0  0  0  0  0  0  0  0  0  0  0
   -1.2290   26.0740  -29.9180 H   0  0  0  0  0  0  0  0  0  0  0  0
   -2.0238   22.9406  -31.5279 H   0  0  0  0  0  0  0  0  0  0  0  0
   -0.2075   18.9765  -33.9683 H   0  0  0  0  0  0  0  0  0  0  0  0
   -1.8183   17.5964  -35.2843 H   0  0  0  0  0  0  0  0  0  0  0  0
  1  2  1  0
  2  3  2  0
  3  4  1  0
  4  5  2  0
  5  6  1  0
  6  7  2  0
  7  8  1  0
  8  9  1  0
  9 10  1  0
 10 11  2  0
 11 12  1  0
 12 13  2  0
 13 14  1  0
 14 15  1  0
 15 16  1  0
 15 17  2  0
 15 18  2  0
 14 19  2  0
  8 20  2  0
 20 21  1  0
 21 22  2  0
  5 23  1  0
 23  2  1  0
 22  6  1  0
 19 10  1  0
  1 24  1  0
  1 25  1  0
  1 26  1  0
  3 27  1  0
  4 28  1  0
  7 29  1  0
 11 30  1  0
 12 31  1  0
 13 32  1  0
 16 33  1  0
 19 34  1  0
 20 35  1  0
 21 36  1  0
M  CHG  2   3   1  16  -1
M  END
>  <UniqueID>  (10) 
9

>  <SMILES>  (10) 
Cc1[nH+]cc(-c2cc(Oc3cccc(S([NH-])(=O)=O)c3)ccn2)s1

>  <Energy>  (10) 
74.06206763334485

>  <Genealogy>  (10) 
Cc1[nH+]cc(-c2cc(Oc3cccc(S([NH-])(=O)=O)c3)ccn2)s1 (protonated)
Cc1[nH+]cc(-c2cc(Oc3cccc(S([NH-])(=O)=O)c3)ccn2)s1 (3D coordinates assigned)
Cc1[nH+]cc(-c2cc(Oc3cccc(S([NH-])(=O)=O)c3)ccn2)s1 (optimized conformer: 74.06206763334485 kcal/mol)

>  <smiles>  (10) 
Cc1ncc(-c2cc(Oc3cccc(S(N)(=O)=O)c3)ccn2)s1

>  <score_type>  (10) 
oracle

>  <origin>  (10) 
adg

>  <m_score__min__energy>  (10) 
-9.9800000000000004

>  <m_primary>  (10) 
energy

$$$$
10:0
     RDKit          3D

 35 37  0  0  0  0  0  0  0  0999 V2000
   -3.8860   15.8700  -34.6010 C   0  0  0  0  0  0  0  0  0  0  0  0
   -4.5750   17.0820  -33.9650 C   0  0  0  0  0  0  0  0  0  0  0  0
   -3.5480   17.9850  -33.2280 C   0  0  0  0  0  0  0  0  0  0  0  0
   -3.8820   19.4840  -33.3120 C   0  0  0  0  0  0  0  0  0  0  0  0
   -5.3360   19.6910  -33.3310 N   0  0  0  0  0  0  0  0  0  0  0  0
   -5.9620   20.6810  -32.4980 C   0  0  0  0  0  0  0  0  0  0  0  0
   -5.4010   21.8220  -32.1670 O   0  0  0  0  0  0  0  0  0  0  0  0
   -6.2770   22.4790  -31.4360 C   0  0  0  0  0  0  0  0  0  0  0  0
   -6.0330   23.8070  -30.8680 C   0  0  0  0  0  0  0  0  0  0  0  0
   -6.8560   24.4660  -29.9770 C   0  0  0  0  0  0  0  0  0  0  0  0
   -6.2340   25.6700  -29.7210 C   0  0  0  0  0  0  0  0  0  0  0  0
   -5.0750   25.6700  -30.4720 C   0  0  0  0  0  0  0  0  0  0  0  0
   -4.9830   24.5470  -31.1450 O   0  0  0  0  0  0  0  0  0  0  0  0
   -7.4290   21.7910  -31.2790 N   0  0  0  0  0  0  0  0  0  0  0  0
   -7.2330   20.6460  -31.9540 C   0  0  0  0  0  0  0  0  0  0  0  0
   -8.2550   19.6560  -32.1680 C   0  0  0  0  0  0  0  0  0  0  0  0
   -9.0770   18.8600  -32.3410 N   0  0  0  0  0  0  0  0  0  0  0  0
   -6.1490   19.0150  -34.3480 C   0  0  0  0  0  0  0  0  0  0  0  0
   -5.3770   17.8690  -35.0190 C   0  0  0  0  0  0  0  0  0  0  0  0
   -3.5084   15.2058  -33.8096 H   0  0  0  0  0  0  0  0  0  0  0  0
   -4.6083   15.3232  -35.2250 H   0  0  0  0  0  0  0  0  0  0  0  0
   -3.0467   16.2110  -35.2250 H   0  0  0  0  0  0  0  0  0  0  0  0
   -5.2878   16.7182  -33.2103 H   0  0  0  0  0  0  0  0  0  0  0  0
   -3.5236   17.6920  -32.1680 H   0  0  0  0  0  0  0  0  0  0  0  0
   -2.5756   17.8407  -33.7216 H   0  0  0  0  0  0  0  0  0  0  0  0
   -3.4553   19.9987  -32.4385 H   0  0  0  0  0  0  0  0  0  0  0  0
   -3.4545   19.8904  -34.2405 H   0  0  0  0  0  0  0  0  0  0  0  0
   -7.8078   24.1064  -29.5590 H   0  0  0  0  0  0  0  0  0  0  0  0
   -6.5893   26.4689  -29.0535 H   0  0  0  0  0  0  0  0  0  0  0  0
   -4.3399   26.4878  -30.5016 H   0  0  0  0  0  0  0  0  0  0  0  0
   -8.2900   22.0960  -30.7730 H   0  0  0  0  0  0  0  0  0  0  0  0
   -7.0511   18.6058  -33.8698 H   0  0  0  0  0  0  0  0  0  0  0  0
   -6.4139   19.7507  -35.1216 H   0  0  0  0  0  0  0  0  0  0  0  0
   -6.0886   17.1922  -35.5146 H   0  0  0  0  0  0  0  0  0  0  0  0
   -4.6815   18.2893  -35.7604 H   0  0  0  0  0  0  0  0  0  0  0  0
  1  2  1  0
  2  3  1  0
  3  4  1  0
  4  5  1  0
  5  6  1  0
  6  7  1  0
  7  8  1  0
  8  9  1  0
  9 10  2  0
 10 11  1  0
 11 12  2  0
 12 13  1  0
  8 14  2  0
 14 15  1  0
 15 16  1  0
 16 17  3  0
  5 18  1  0
 18 19  1  0
 19  2  1  0
 15  6  2  0
 13  9  1  0
  1 20  1  0
  1 21  1  0
  1 22  1  0
  2 23  1  0
  3 24  1  0
  3 25  1  0
  4 26  1  0
  4 27  1  0
 10 28  1  0
 11 29  1  0
 12 30  1  0
 14 31  1  0
 18 32  1  0
 18 33  1  0
 19 34  1  0
 19 35  1  0
M  CHG  1  14   1
M  END
>  <UniqueID>  (11) 
10

>  <SMILES>  (11) 
CC1CCN(c2oc(-c3ccco3)[nH+]c2C#N)CC1

>  <Energy>  (11) 
94.81139294723464

>  <Genealogy>  (11) 
CC1CCN(c2oc(-c3ccco3)[nH+]c2C#N)CC1 (protonated)
CC1CCN(c2oc(-c3ccco3)[nH+]c2C#N)CC1 (3D coordinates assigned)
CC1CCN(c2oc(-c3ccco3)[nH+]c2C#N)CC1 (nonaromatic ring conformer: 94.81139294723464 kcal/mol)

>  <smiles>  (11) 
CC1CCN(c2oc(-c3ccco3)nc2C#N)CC1

>  <score_type>  (11) 
oracle

>  <origin>  (11) 
adg

>  <m_score__min__energy>  (11) 
-5.9800000000000004

>  <m_primary>  (11) 
energy

$$$$
11:0
     RDKit          3D

 55 58  0  0  0  0  0  0  0  0999 V2000
   -5.4710   26.7390  -30.1730 O   0  0  0  0  0  0  0  0  0  0  0  0
   -5.1800   25.6420  -30.7180 C   0  0  0  0  0  0  0  0  0  0  0  0
   -3.8660   25.1040  -30.5330 N   0  0  0  0  0  0  0  0  0  0  0  0
   -3.4990   24.0730  -29.6060 C   0  0  0  0  0  0  0  0  0  0  0  0
   -4.1960   23.8730  -28.3990 C   0  0  0  0  0  0  0  0  0  0  0  0
   -3.7910   22.8730  -27.5110 C   0  0  0  0  0  0  0  0  0  0  0  0
   -2.6840   22.0740  -27.8100 C   0  0  0  0  0  0  0  0  0  0  0  0
   -1.9720   22.2850  -28.9950 C   0  0  0  0  0  0  0  0  0  0  0  0
   -2.3740   23.2850  -29.8850 C   0  0  0  0  0  0  0  0  0  0  0  0
   -6.1110   24.9990  -31.6000 N   0  0  0  0  0  0  0  0  0  0  0  0
   -6.4600   23.6070  -31.6040 C   0  0  0  0  0  0  0  0  0  0  0  0
   -5.5020   22.5950  -31.4180 C   0  0  0  0  0  0  0  0  0  0  0  0
   -5.8800   21.2500  -31.4580 C   0  0  0  0  0  0  0  0  0  0  0  0
   -7.2180   20.8960  -31.6900 C   0  0  0  0  0  0  0  0  0  0  0  0
   -7.6240   19.4490  -31.7700 C   0  0  0  0  0  0  0  0  0  0  0  0
   -6.5770   18.6690  -32.4390 N   0  0  0  0  0  0  0  0  0  0  0  0
   -5.9660   17.7060  -31.7440 N   0  0  0  0  0  0  0  0  0  0  0  0
   -5.0090   16.9140  -32.2920 C   0  0  0  0  0  0  0  0  0  0  0  0
   -4.6360   17.0940  -33.6280 C   0  0  0  0  0  0  0  0  0  0  0  0
   -3.6300   16.2550  -34.2370 N   0  0  0  0  0  0  0  0  0  0  0  0
   -2.5970   15.6150  -33.4040 C   0  0  0  0  0  0  0  0  0  0  0  0
   -1.2210   16.3030  -33.5340 C   0  0  0  0  0  0  0  0  0  0  0  0
   -0.4140   15.8980  -34.7840 C   0  0  0  0  0  0  0  0  0  0  0  0
   -1.1240   16.1280  -36.0560 N   0  0  0  0  0  0  0  0  0  0  0  0
   -2.3730   15.3680  -36.2380 C   0  0  0  0  0  0  0  0  0  0  0  0
   -3.6220   16.1000  -35.7050 C   0  0  0  0  0  0  0  0  0  0  0  0
   -5.2820   18.0930  -34.3650 C   0  0  0  0  0  0  0  0  0  0  0  0
   -6.2610   18.8790  -33.7550 C   0  0  0  0  0  0  0  0  0  0  0  0
   -6.8460   19.7720  -34.4290 O   0  0  0  0  0  0  0  0  0  0  0  0
   -8.1680   21.9060  -31.9050 C   0  0  0  0  0  0  0  0  0  0  0  0
   -7.7890   23.2510  -31.8670 C   0  0  0  0  0  0  0  0  0  0  0  0
   -5.0619   24.5058  -28.1544 H   0  0  0  0  0  0  0  0  0  0  0  0
   -4.3450   22.7142  -26.5740 H   0  0  0  0  0  0  0  0  0  0  0  0
   -2.3733   21.2805  -27.1144 H   0  0  0  0  0  0  0  0  0  0  0  0
   -1.0947   21.6633  -29.2269 H   0  0  0  0  0  0  0  0  0  0  0  0
   -1.8038   23.4546  -30.8103 H   0  0  0  0  0  0  0  0  0  0  0  0
   -4.4501   22.8630  -31.2402 H   0  0  0  0  0  0  0  0  0  0  0  0
   -5.1247   20.4647  -31.3068 H   0  0  0  0  0  0  0  0  0  0  0  0
   -7.7766   19.0570  -30.7536 H   0  0  0  0  0  0  0  0  0  0  0  0
   -8.5576   19.3678  -32.3460 H   0  0  0  0  0  0  0  0  0  0  0  0
   -4.5278   16.1320  -31.6863 H   0  0  0  0  0  0  0  0  0  0  0  0
   -2.9152   15.6591  -32.3520 H   0  0  0  0  0  0  0  0  0  0  0  0
   -2.4851   14.5769  -33.7501 H   0  0  0  0  0  0  0  0  0  0  0  0
   -1.3834   17.3904  -33.5684 H   0  0  0  0  0  0  0  0  0  0  0  0
   -0.6292   15.9813  -32.6643 H   0  0  0  0  0  0  0  0  0  0  0  0
    0.5185   16.4813  -34.7978 H   0  0  0  0  0  0  0  0  0  0  0  0
   -0.2348   14.8152  -34.7105 H   0  0  0  0  0  0  0  0  0  0  0  0
   -0.4790   15.8760  -36.8420 H   0  0  0  0  0  0  0  0  0  0  0  0
   -2.5122   15.1792  -37.3127 H   0  0  0  0  0  0  0  0  0  0  0  0
   -2.2724   14.4372  -35.6605 H   0  0  0  0  0  0  0  0  0  0  0  0
   -3.6610   17.1002  -36.1612 H   0  0  0  0  0  0  0  0  0  0  0  0
   -4.4955   15.4867  -35.9711 H   0  0  0  0  0  0  0  0  0  0  0  0
   -5.0194   18.2581  -35.4204 H   0  0  0  0  0  0  0  0  0  0  0  0
   -9.2161   21.6381  -32.1044 H   0  0  0  0  0  0  0  0  0  0  0  0
   -8.5396   24.0352  -32.0449 H   0  0  0  0  0  0  0  0  0  0  0  0
  1  2  2  0
  2  3  1  0
  3  4  1  0
  4  5  2  0
  5  6  1  0
  6  7  2  0
  7  8  1  0
  8  9  2  0
  2 10  1  0
 10 11  1  0
 11 12  2  0
 12 13  1  0
 13 14  2  0
 14 15  1  0
 15 16  1  0
 16 17  1  0
 17 18  2  0
 18 19  1  0
 19 20  1  0
 20 21  1  0
 21 22  1  0
 22 23  1  0
 23 24  1  0
 24 25  1  0
 25 26  1  0
 19 27  2  0
 27 28  1  0
 28 29  2  0
 14 30  1  0
 30 31  2  0
  9  4  1  0
 31 11  1  0
 28 16  1  0
 26 20  1  0
  5 32  1  0
  6 33  1  0
  7 34  1  0
  8 35  1  0
  9 36  1  0
 12 37  1  0
 13 38  1  0
 15 39  1  0
 15 40  1  0
 18 41  1  0
 21 42  1  0
 21 43  1  0
 22 44  1  0
 22 45  1  0
 23 46  1  0
 23 47  1  0
 24 48  1  0
 25 49  1  0
 25 50  1  0
 26 51  1  0
 26 52  1  0
 27 53  1  0
 30 54  1  0
 31 55  1  0
M  CHG  2   3  -1  10  -1
M  END
>  <UniqueID>  (12) 
11

>  <SMILES>  (12) 
O=C([N-]c1ccccc1)[N-]c1ccc(Cn2ncc(N3CCCNCC3)cc2=O)cc1

>  <Energy>  (12) 
78.88184309693493

>  <Genealogy>  (12) 
O=C([N-]c1ccccc1)[N-]c1ccc(Cn2ncc(N3CCCNCC3)cc2=O)cc1 (protonated)
O=C([N-]c1ccccc1)[N-]c1ccc(Cn2ncc(N3CCCNCC3)cc2=O)cc1 (3D coordinates assigned)
O=C([N-]c1ccccc1)[N-]c1ccc(Cn2ncc(N3CCCNCC3)cc2=O)cc1 (nonaromatic ring conformer: 78.88184309693493 kcal/mol)

>  <smiles>  (12) 
O=C(Nc1ccccc1)Nc1ccc(Cn2ncc(N3CCCNCC3)cc2=O)cc1

>  <score_type>  (12) 
oracle

>  <origin>  (12) 
adg

>  <m_score__min__energy>  (12) 
-8.6699999999999999

>  <m_primary>  (12) 
energy

$$$$
12:0
     RDKit          3D

 31 33  0  0  0  0  0  0  0  0999 V2000
   -4.2240   20.5190  -33.3320 Cl  0  0  0  0  0  0  0  0  0  0  0  0
   -4.9560   18.9280  -33.5190 C   0  0  0  0  0  0  0  0  0  0  0  0
   -4.1650   17.9070  -34.0610 C   0  0  0  0  0  0  0  0  0  0  0  0
   -4.7120   16.6490  -34.3180 C   0  0  0  0  0  0  0  0  0  0  0  0
   -6.0590   16.4050  -34.0460 C   0  0  0  0  0  0  0  0  0  0  0  0
   -6.8580   17.4150  -33.5050 C   0  0  0  0  0  0  0  0  0  0  0  0
   -6.3160   18.6790  -33.2180 C   0  0  0  0  0  0  0  0  0  0  0  0
   -7.2020   19.7050  -32.6300 C   0  0  0  0  0  0  0  0  0  0  0  0
   -8.4190   20.0490  -33.0890 N   0  0  0  0  0  0  0  0  0  0  0  0
   -8.8730   21.0280  -32.3260 N   0  0  0  0  0  0  0  0  0  0  0  0
   -7.9050   21.2470  -31.4140 C   0  0  0  0  0  0  0  0  0  0  0  0
   -7.9720   22.2990  -30.3570 C   0  0  0  0  0  0  0  0  0  0  0  0
   -6.7500   23.1720  -30.4270 C   0  0  0  0  0  0  0  0  0  0  0  0
   -6.8750   24.5710  -30.3890 C   0  0  0  0  0  0  0  0  0  0  0  0
   -5.7360   25.3800  -30.4180 C   0  0  0  0  0  0  0  0  0  0  0  0
   -4.4650   24.8000  -30.4750 C   0  0  0  0  0  0  0  0  0  0  0  0
   -4.3320   23.4100  -30.5000 C   0  0  0  0  0  0  0  0  0  0  0  0
   -5.4690   22.5960  -30.4700 C   0  0  0  0  0  0  0  0  0  0  0  0
   -6.8770   20.4500  -31.6000 O   0  0  0  0  0  0  0  0  0  0  0  0
   -3.1053   18.0980  -34.2857 H   0  0  0  0  0  0  0  0  0  0  0  0
   -4.0815   15.8498  -34.7349 H   0  0  0  0  0  0  0  0  0  0  0  0
   -6.4919   15.4162  -34.2579 H   0  0  0  0  0  0  0  0  0  0  0  0
   -7.9212   17.2189  -33.3018 H   0  0  0  0  0  0  0  0  0  0  0  0
   -8.9180   19.6730  -33.9260 H   0  0  0  0  0  0  0  0  0  0  0  0
   -8.8700   22.9152  -30.5118 H   0  0  0  0  0  0  0  0  0  0  0  0
   -8.0176   21.8177  -29.3689 H   0  0  0  0  0  0  0  0  0  0  0  0
   -7.8728   25.0309  -30.3362 H   0  0  0  0  0  0  0  0  0  0  0  0
   -5.8395   26.4749  -30.3959 H   0  0  0  0  0  0  0  0  0  0  0  0
   -3.5697   25.4386  -30.5002 H   0  0  0  0  0  0  0  0  0  0  0  0
   -3.3316   22.9547  -30.5433 H   0  0  0  0  0  0  0  0  0  0  0  0
   -5.3601   21.5015  -30.4801 H   0  0  0  0  0  0  0  0  0  0  0  0
  1  2  1  0
  2  3  2  0
  3  4  1  0
  4  5  2  0
  5  6  1  0
  6  7  2  0
  7  8  1  0
  8  9  2  0
  9 10  1  0
 10 11  2  0
 11 12  1  0
 12 13  1  0
 13 14  2  0
 14 15  1  0
 15 16  2  0
 16 17  1  0
 17 18  2  0
 11 19  1  0
  7  2  1  0
 19  8  1  0
 18 13  1  0
  3 20  1  0
  4 21  1  0
  5 22  1  0
  6 23  1  0
  9 24  1  0
 12 25  1  0
 12 26  1  0
 14 27  1  0
 15 28  1  0
 16 29  1  0
 17 30  1  0
 18 31  1  0
M  CHG  1   9   1
M  END
>  <UniqueID>  (13) 
12

>  <SMILES>  (13) 
Clc1ccccc1-c1[nH+]nc(Cc2ccccc2)o1

>  <Energy>  (13) 
72.3243263300746

>  <Genealogy>  (13) 
Clc1ccccc1-c1[nH+]nc(Cc2ccccc2)o1 (protonated)
Clc1ccccc1-c1[nH+]nc(Cc2ccccc2)o1 (3D coordinates assigned)
Clc1ccccc1-c1[nH+]nc(Cc2ccccc2)o1 (optimized conformer: 72.3243263300746 kcal/mol)

>  <smiles>  (13) 
Clc1ccccc1-c1nnc(Cc2ccccc2)o1

>  <score_type>  (13) 
oracle

>  <origin>  (13) 
adg

>  <m_score__min__energy>  (13) 
-7.4100000000000001

>  <m_primary>  (13) 
energy

$$$$
13:0
     RDKit          3D

 37 39  0  0  0  0  0  0  0  0999 V2000
   -6.1120   25.7120  -29.7260 C   0  0  0  0  0  0  0  0  0  0  0  0
   -6.1110   25.2600  -31.0770 O   0  0  0  0  0  0  0  0  0  0  0  0
   -6.1200   23.9110  -31.4650 C   0  0  0  0  0  0  0  0  0  0  0  0
   -7.2910   23.2700  -31.9080 C   0  0  0  0  0  0  0  0  0  0  0  0
   -7.2600   21.9270  -32.2870 C   0  0  0  0  0  0  0  0  0  0  0  0
   -6.0620   21.1980  -32.2400 C   0  0  0  0  0  0  0  0  0  0  0  0
   -6.0500   19.7690  -32.6450 C   0  0  0  0  0  0  0  0  0  0  0  0
   -5.5850   18.8280  -31.7830 N   0  0  0  0  0  0  0  0  0  0  0  0
   -5.5650   17.5400  -32.1240 N   0  0  0  0  0  0  0  0  0  0  0  0
   -6.0130   17.1370  -33.3390 C   0  0  0  0  0  0  0  0  0  0  0  0
   -5.9900   15.7030  -33.7200 C   0  0  0  0  0  0  0  0  0  0  0  0
   -4.8130   14.9430  -33.5760 C   0  0  0  0  0  0  0  0  0  0  0  0
   -4.7950   13.5910  -33.9350 C   0  0  0  0  0  0  0  0  0  0  0  0
   -5.9450   12.9830  -34.4400 C   0  0  0  0  0  0  0  0  0  0  0  0
   -7.1190   13.7260  -34.5870 C   0  0  0  0  0  0  0  0  0  0  0  0
   -7.1440   15.0780  -34.2300 C   0  0  0  0  0  0  0  0  0  0  0  0
   -6.4910   18.0760  -34.1970 N   0  0  0  0  0  0  0  0  0  0  0  0
   -6.5120   19.3650  -33.8620 N   0  0  0  0  0  0  0  0  0  0  0  0
   -4.8950   21.8350  -31.7840 C   0  0  0  0  0  0  0  0  0  0  0  0
   -4.9190   23.1910  -31.3990 C   0  0  0  0  0  0  0  0  0  0  0  0
   -3.7690   23.8560  -30.9430 O   0  0  0  0  0  0  0  0  0  0  0  0
   -2.9530   23.4140  -29.8630 C   0  0  0  0  0  0  0  0  0  0  0  0
   -6.1101   24.8448  -29.0492 H   0  0  0  0  0  0  0  0  0  0  0  0
   -5.2152   26.3221  -29.5428 H   0  0  0  0  0  0  0  0  0  0  0  0
   -7.0115   26.3181  -29.5428 H   0  0  0  0  0  0  0  0  0  0  0  0
   -8.2365   23.8302  -31.9560 H   0  0  0  0  0  0  0  0  0  0  0  0
   -8.1838   21.4353  -32.6258 H   0  0  0  0  0  0  0  0  0  0  0  0
   -3.9024   15.4153  -33.1789 H   0  0  0  0  0  0  0  0  0  0  0  0
   -3.8712   13.0052  -33.8188 H   0  0  0  0  0  0  0  0  0  0  0  0
   -5.9272   11.9199  -34.7220 H   0  0  0  0  0  0  0  0  0  0  0  0
   -8.0257   13.2465  -34.9844 H   0  0  0  0  0  0  0  0  0  0  0  0
   -8.0717   15.6571  -34.3485 H   0  0  0  0  0  0  0  0  0  0  0  0
   -6.9150   20.0470  -34.5400 H   0  0  0  0  0  0  0  0  0  0  0  0
   -3.9532   21.2696  -31.7269 H   0  0  0  0  0  0  0  0  0  0  0  0
   -3.4345   23.6748  -28.9090 H   0  0  0  0  0  0  0  0  0  0  0  0
   -2.8248   22.3231  -29.9228 H   0  0  0  0  0  0  0  0  0  0  0  0
   -1.9693   23.9026  -29.9228 H   0  0  0  0  0  0  0  0  0  0  0  0
  1  2  1  0
  2  3  1  0
  3  4  2  0
  4  5  1  0
  5  6  2  0
  6  7  1  0
  7  8  2  0
  8  9  1  0
  9 10  2  0
 10 11  1  0
 11 12  2  0
 12 13  1  0
 13 14  2  0
 14 15  1  0
 15 16  2  0
 10 17  1  0
 17 18  2  0
  6 19  1  0
 19 20  2  0
 20 21  1  0
 21 22  1  0
 20  3  1  0
 18  7  1  0
 16 11  1  0
  1 23  1  0
  1 24  1  0
  1 25  1  0
  4 26  1  0
  5 27  1  0
 12 28  1  0
 13 29  1  0
 14 30  1  0
 15 31  1  0
 16 32  1  0
 18 33  1  0
 19 34  1  0
 22 35  1  0
 22 36  1  0
 22 37  1  0
M  CHG  1  18   1
M  END
>  <UniqueID>  (14) 
13

>  <SMILES>  (14) 
COc1ccc(-c2nnc(-c3ccccc3)n[nH+]2)cc1OC

>  <Energy>  (14) 
45.62961691685976

>  <Genealogy>  (14) 
COc1ccc(-c2nnc(-c3ccccc3)n[nH+]2)cc1OC (protonated)
COc1ccc(-c2nnc(-c3ccccc3)n[nH+]2)cc1OC (3D coordinates assigned)
COc1ccc(-c2nnc(-c3ccccc3)n[nH+]2)cc1OC (optimized conformer: 45.62961691685976 kcal/mol)

>  <smiles>  (14) 
COc1ccc(-c2nnc(-c3ccccc3)nn2)cc1OC

>  <score_type>  (14) 
oracle

>  <origin>  (14) 
adg

>  <m_score__min__energy>  (14) 
-6.7999999999999998

>  <m_primary>  (14) 
energy

$$$$
14:0
     RDKit          3D

 52 54  0  0  0  0  0  0  0  0999 V2000
   -0.2880   26.2190  -23.4650 C   0  0  0  0  0  0  0  0  0  0  0  0
   -0.9170   25.6250  -24.6910 C   0  0  0  0  0  0  0  0  0  0  0  0
   -2.0190   26.2470  -25.2910 C   0  0  0  0  0  0  0  0  0  0  0  0
   -2.6300   25.6750  -26.4100 C   0  0  0  0  0  0  0  0  0  0  0  0
   -2.1540   24.4600  -26.9400 C   0  0  0  0  0  0  0  0  0  0  0  0
   -2.7470   23.8580  -28.0620 O   0  0  0  0  0  0  0  0  0  0  0  0
   -4.1520   23.7900  -28.2990 C   0  0  0  0  0  0  0  0  0  0  0  0
   -4.4480   24.0650  -29.7470 C   0  0  0  0  0  0  0  0  0  0  0  0
   -3.5510   24.5990  -30.4580 O   0  0  0  0  0  0  0  0  0  0  0  0
   -5.7120   23.7030  -30.3460 N   0  0  0  0  0  0  0  0  0  0  0  0
   -6.6870   22.8710  -29.6240 C   0  0  0  0  0  0  0  0  0  0  0  0
   -7.5110   21.9550  -30.5620 C   0  0  0  0  0  0  0  0  0  0  0  0
   -7.4660   22.3300  -31.9980 N   0  0  0  0  0  0  0  0  0  0  0  0
   -6.3820   21.6060  -32.7130 C   0  0  0  0  0  0  0  0  0  0  0  0
   -6.5680   20.1050  -32.6780 C   0  0  0  0  0  0  0  0  0  0  0  0
   -7.8510   19.5460  -32.5400 C   0  0  0  0  0  0  0  0  0  0  0  0
   -8.0140   18.1580  -32.4980 C   0  0  0  0  0  0  0  0  0  0  0  0
   -6.9020   17.3180  -32.5940 C   0  0  0  0  0  0  0  0  0  0  0  0
   -5.6230   17.8650  -32.7370 C   0  0  0  0  0  0  0  0  0  0  0  0
   -5.4560   19.2530  -32.7790 C   0  0  0  0  0  0  0  0  0  0  0  0
   -7.4050   23.7990  -32.1610 C   0  0  0  0  0  0  0  0  0  0  0  0
   -6.1130   24.3870  -31.5830 C   0  0  0  0  0  0  0  0  0  0  0  0
   -1.0540   23.8270  -26.3300 C   0  0  0  0  0  0  0  0  0  0  0  0
   -0.5410   22.5220  -26.8730 C   0  0  0  0  0  0  0  0  0  0  0  0
   -0.4480   24.4080  -25.2040 C   0  0  0  0  0  0  0  0  0  0  0  0
   -0.7504   25.7824  -22.5675 H   0  0  0  0  0  0  0  0  0  0  0  0
    0.7904   26.0021  -23.4644 H   0  0  0  0  0  0  0  0  0  0  0  0
   -0.4429   27.3080  -23.4644 H   0  0  0  0  0  0  0  0  0  0  0  0
   -2.4057   27.1909  -24.8792 H   0  0  0  0  0  0  0  0  0  0  0  0
   -3.4885   26.1770  -26.8801 H   0  0  0  0  0  0  0  0  0  0  0  0
   -4.5163   22.7854  -28.0381 H   0  0  0  0  0  0  0  0  0  0  0  0
   -4.6575   24.5454  -27.6795 H   0  0  0  0  0  0  0  0  0  0  0  0
   -6.1448   22.2396  -28.9047 H   0  0  0  0  0  0  0  0  0  0  0  0
   -7.3927   23.5500  -29.1231 H   0  0  0  0  0  0  0  0  0  0  0  0
   -7.1251   20.9296  -30.4641 H   0  0  0  0  0  0  0  0  0  0  0  0
   -8.5606   22.0563  -30.2489 H   0  0  0  0  0  0  0  0  0  0  0  0
   -8.3740   22.0160  -32.4160 H   0  0  0  0  0  0  0  0  0  0  0  0
   -6.3699   21.9357  -33.7623 H   0  0  0  0  0  0  0  0  0  0  0  0
   -5.4338   21.8376  -32.2058 H   0  0  0  0  0  0  0  0  0  0  0  0
   -8.7298   20.2033  -32.4648 H   0  0  0  0  0  0  0  0  0  0  0  0
   -9.0200   17.7266  -32.3891 H   0  0  0  0  0  0  0  0  0  0  0  0
   -7.0324   16.2264  -32.5571 H   0  0  0  0  0  0  0  0  0  0  0  0
   -4.7478   17.2033  -32.8165 H   0  0  0  0  0  0  0  0  0  0  0  0
   -4.4484   19.6796  -32.8917 H   0  0  0  0  0  0  0  0  0  0  0  0
   -7.4565   24.0399  -33.2331 H   0  0  0  0  0  0  0  0  0  0  0  0
   -8.2526   24.2373  -31.6139 H   0  0  0  0  0  0  0  0  0  0  0  0
   -5.3090   24.2807  -32.3261 H   0  0  0  0  0  0  0  0  0  0  0  0
   -6.2932   25.4462  -31.3469 H   0  0  0  0  0  0  0  0  0  0  0  0
   -0.2789   21.8552  -26.0383 H   0  0  0  0  0  0  0  0  0  0  0  0
   -1.3203   22.0495  -27.4890 H   0  0  0  0  0  0  0  0  0  0  0  0
    0.3515   22.7066  -27.4890 H   0  0  0  0  0  0  0  0  0  0  0  0
    0.4018   23.9037  -24.7208 H   0  0  0  0  0  0  0  0  0  0  0  0
  1  2  1  0
  2  3  2  0
  3  4  1  0
  4  5  2  0
  5  6  1  0
  6  7  1  0
  7  8  1  0
  8  9  2  0
  8 10  1  0
 10 11  1  0
 11 12  1  0
 12 13  1  0
 13 14  1  0
 14 15  1  0
 15 16  2  0
 16 17  1  0
 17 18  2  0
 18 19  1  0
 19 20  2  0
 13 21  1  0
 21 22  1  0
  5 23  1  0
 23 24  1  0
 23 25  2  0
 25  2  1  0
 22 10  1  0
 20 15  1  0
  1 26  1  0
  1 27  1  0
  1 28  1  0
  3 29  1  0
  4 30  1  0
  7 31  1  0
  7 32  1  0
 11 33  1  0
 11 34  1  0
 12 35  1  0
 12 36  1  0
 13 37  1  0
 14 38  1  0
 14 39  1  0
 16 40  1  0
 17 41  1  0
 18 42  1  0
 19 43  1  0
 20 44  1  0
 21 45  1  0
 21 46  1  0
 22 47  1  0
 22 48  1  0
 24 49  1  0
 24 50  1  0
 24 51  1  0
 25 52  1  0
M  CHG  1  13   1
M  END
>  <UniqueID>  (15) 
14

>  <SMILES>  (15) 
Cc1ccc(OCC(=O)N2CC[NH+](Cc3ccccc3)CC2)c(C)c1

>  <Energy>  (15) 
61.56914331147395

>  <Genealogy>  (15) 
Cc1ccc(OCC(=O)N2CC[NH+](Cc3ccccc3)CC2)c(C)c1 (protonated)
Cc1ccc(OCC(=O)N2CC[NH+](Cc3ccccc3)CC2)c(C)c1 (3D coordinates assigned)
Cc1ccc(OCC(=O)N2CC[NH+](Cc3ccccc3)CC2)c(C)c1 (nonaromatic ring conformer: 61.56914331147395 kcal/mol)

>  <smiles>  (15) 
Cc1ccc(OCC(=O)N2CCN(Cc3ccccc3)CC2)c(C)c1

>  <score_type>  (15) 
oracle

>  <origin>  (15) 
adg

>  <m_score__min__energy>  (15) 
-8.6199999999999992

>  <m_primary>  (15) 
energy

$$$$
15:0
     RDKit          3D

 37 39  0  0  0  0  0  0  0  0999 V2000
   -8.7940   18.6880  -30.8530 O   0  0  0  0  0  0  0  0  0  0  0  0
   -8.2660   19.3710  -32.0850 S   0  0  0  0  0  0  0  0  0  0  0  0
   -9.3690   19.4700  -33.1000 O   0  0  0  0  0  0  0  0  0  0  0  0
   -6.9570   18.4190  -32.7630 C   0  0  0  0  0  0  0  0  0  0  0  0
   -6.4570   17.2440  -32.2260 C   0  0  0  0  0  0  0  0  0  0  0  0
   -5.4280   16.6890  -32.9960 C   0  0  0  0  0  0  0  0  0  0  0  0
   -5.1250   17.4250  -34.1360 C   0  0  0  0  0  0  0  0  0  0  0  0
   -6.1400   18.7680  -34.1870 S   0  0  0  0  0  0  0  0  0  0  0  0
   -7.6860   20.9670  -31.6780 N   0  0  0  0  0  0  0  0  0  0  0  0
   -6.6260   21.3700  -32.6140 C   0  0  0  0  0  0  0  0  0  0  0  0
   -5.9980   22.7100  -32.1770 C   0  0  0  0  0  0  0  0  0  0  0  0
   -6.9690   23.6520  -31.5630 N   0  0  0  0  0  0  0  0  0  0  0  0
   -6.8210   23.7610  -30.0940 C   0  0  0  0  0  0  0  0  0  0  0  0
   -5.3750   23.8410  -29.7130 C   0  0  0  0  0  0  0  0  0  0  0  0
   -4.7300   23.0260  -28.7910 C   0  0  0  0  0  0  0  0  0  0  0  0
   -3.3700   23.3260  -28.6500 C   0  0  0  0  0  0  0  0  0  0  0  0
   -2.9430   24.3720  -29.4590 C   0  0  0  0  0  0  0  0  0  0  0  0
   -4.2580   24.9240  -30.3510 S   0  0  0  0  0  0  0  0  0  0  0  0
   -8.3610   23.3820  -31.9820 C   0  0  0  0  0  0  0  0  0  0  0  0
   -8.8080   21.9360  -31.6730 C   0  0  0  0  0  0  0  0  0  0  0  0
   -6.8291   16.7947  -31.2934 H   0  0  0  0  0  0  0  0  0  0  0  0
   -4.9082   15.7583  -32.7247 H   0  0  0  0  0  0  0  0  0  0  0  0
   -4.3535   17.1730  -34.8784 H   0  0  0  0  0  0  0  0  0  0  0  0
   -7.2780   20.8990  -30.7180 H   0  0  0  0  0  0  0  0  0  0  0  0
   -5.8463   20.5943  -32.6333 H   0  0  0  0  0  0  0  0  0  0  0  0
   -7.0643   21.4930  -33.6154 H   0  0  0  0  0  0  0  0  0  0  0  0
   -5.2064   22.4996  -31.4428 H   0  0  0  0  0  0  0  0  0  0  0  0
   -5.6099   23.1946  -33.0850 H   0  0  0  0  0  0  0  0  0  0  0  0
   -7.3372   24.6676  -29.7452 H   0  0  0  0  0  0  0  0  0  0  0  0
   -7.2614   22.8679  -29.6266 H   0  0  0  0  0  0  0  0  0  0  0  0
   -5.2361   22.2270  -28.2294 H   0  0  0  0  0  0  0  0  0  0  0  0
   -2.7023   22.7848  -27.9635 H   0  0  0  0  0  0  0  0  0  0  0  0
   -1.9191   24.7712  -29.5078 H   0  0  0  0  0  0  0  0  0  0  0  0
   -9.0288   24.0773  -31.4524 H   0  0  0  0  0  0  0  0  0  0  0  0
   -8.4118   23.5191  -33.0722 H   0  0  0  0  0  0  0  0  0  0  0  0
   -9.2799   21.9202  -30.6795 H   0  0  0  0  0  0  0  0  0  0  0  0
   -9.5073   21.6323  -32.4659 H   0  0  0  0  0  0  0  0  0  0  0  0
  1  2  2  0
  2  3  2  0
  2  4  1  0
  4  5  2  0
  5  6  1  0
  6  7  2  0
  7  8  1  0
  2  9  1  0
  9 10  1  0
 10 11  1  0
 11 12  1  0
 12 13  1  0
 13 14  1  0
 14 15  2  0
 15 16  1  0
 16 17  2  0
 17 18  1  0
 12 19  1  0
 19 20  1  0
  8  4  1  0
 20  9  1  0
 18 14  1  0
  5 21  1  0
  6 22  1  0
  7 23  1  0
  9 24  1  0
 10 25  1  0
 10 26  1  0
 11 27  1  0
 11 28  1  0
 13 29  1  0
 13 30  1  0
 15 31  1  0
 16 32  1  0
 17 33  1  0
 19 34  1  0
 19 35  1  0
 20 36  1  0
 20 37  1  0
M  CHG  1   9   1
M  END
>  <UniqueID>  (16) 
15

>  <SMILES>  (16) 
O=S(=O)(c1cccs1)[NH+]1CCN(Cc2cccs2)CC1

>  <Energy>  (16) 
99.69301721408127

>  <Genealogy>  (16) 
O=S(=O)(c1cccs1)[NH+]1CCN(Cc2cccs2)CC1 (protonated)
O=S(=O)(c1cccs1)[NH+]1CCN(Cc2cccs2)CC1 (3D coordinates assigned)
O=S(=O)(c1cccs1)[NH+]1CCN(Cc2cccs2)CC1 (nonaromatic ring conformer: 99.69301721408127 kcal/mol)

>  <smiles>  (16) 
O=S(=O)(c1cccs1)N1CCN(Cc2cccs2)CC1

>  <score_type>  (16) 
oracle

>  <origin>  (16) 
adg

>  <m_score__min__energy>  (16) 
-7.3200000000000003

>  <m_primary>  (16) 
energy

$$$$
16:0
     RDKit          3D

 66 70  0  0  0  0  0  0  0  0999 V2000
    1.7360   24.5350  -25.4490 C   0  0  0  0  0  0  0  0  0  0  0  0
    0.6980   24.5780  -26.3030 C   0  0  0  0  0  0  0  0  0  0  0  0
    0.9520   24.4380  -27.7510 C   0  0  0  0  0  0  0  0  0  0  0  0
    2.1220   24.4960  -28.2170 O   0  0  0  0  0  0  0  0  0  0  0  0
   -0.2050   24.2490  -28.6780 C   0  0  0  0  0  0  0  0  0  0  0  0
   -1.3040   23.3600  -28.0280 C   0  0  2  0  0  0  0  0  0  0  0  0
   -0.7080   21.9860  -27.5940 C   0  0  0  0  0  0  0  0  0  0  0  0
   -2.4190   23.0690  -29.0910 C   0  0  0  0  0  0  0  0  0  0  0  0
   -3.7330   23.4030  -28.8890 C   0  0  0  0  0  0  0  0  0  0  0  0
   -4.1520   24.0170  -27.5700 C   0  0  0  0  0  0  0  0  0  0  0  0
   -3.0810   24.9260  -27.0170 C   0  0  0  0  0  0  0  0  0  0  0  0
   -1.8200   24.1020  -26.7210 C   0  0  2  0  0  0  0  0  0  0  0  0
   -0.7330   24.9310  -25.8760 C   0  0  0  0  0  0  0  0  0  0  0  0
   -0.8520   26.4690  -26.0610 C   0  0  0  0  0  0  0  0  0  0  0  0
   -0.9800   24.6330  -24.3710 C   0  0  0  0  0  0  0  0  0  0  0  0
   -4.8190   23.3110  -30.0010 C   0  0  2  0  0  0  0  0  0  0  0  0
   -4.9080   24.7210  -30.6340 C   0  0  0  0  0  0  0  0  0  0  0  0
   -6.2130   22.9210  -29.3510 C   0  0  0  0  0  0  0  0  0  0  0  0
   -7.1310   21.9800  -30.1600 C   0  0  0  0  0  0  0  0  0  0  0  0
   -6.8560   22.0800  -31.6590 C   0  0  1  0  0  0  0  0  0  0  0  0
   -5.4110   21.7560  -31.8810 C   0  0  0  0  0  0  0  0  0  0  0  0
   -4.4430   22.3360  -31.1230 C   0  0  0  0  0  0  0  0  0  0  0  0
   -3.0160   22.1680  -31.4250 C   0  0  0  0  0  0  0  0  0  0  0  0
   -2.6180   21.8590  -32.5800 O   0  0  0  0  0  0  0  0  0  0  0  0
   -2.0370   22.3960  -30.3730 C   0  0  0  0  0  0  0  0  0  0  0  0
   -0.8650   21.9790  -30.5700 O   0  0  0  0  0  0  0  0  0  0  0  0
   -5.2160   20.6730  -32.9080 C   0  0  1  0  0  0  0  0  0  0  0  0
   -4.6420   19.3880  -32.2940 C   0  0  0  0  0  0  0  0  0  0  0  0
   -6.6080   20.4230  -33.3740 C   0  0  0  0  0  0  0  0  0  0  0  0
   -6.8640   19.7100  -34.3340 O   0  0  0  0  0  0  0  0  0  0  0  0
   -7.6600   21.1340  -32.5920 C   0  0  1  0  0  0  0  0  0  0  0  0
   -8.5840   20.1220  -31.8970 C   0  0  0  0  0  0  0  0  0  0  0  0
    1.5631   24.6378  -24.3675 H   0  0  0  0  0  0  0  0  0  0  0  0
    2.7579   24.3970  -25.8319 H   0  0  0  0  0  0  0  0  0  0  0  0
   -0.6351   25.2319  -28.9208 H   0  0  0  0  0  0  0  0  0  0  0  0
    0.1553   23.7489  -29.5891 H   0  0  0  0  0  0  0  0  0  0  0  0
   -0.6827   21.9277  -26.4958 H   0  0  0  0  0  0  0  0  0  0  0  0
   -1.3344   21.1731  -27.9900 H   0  0  0  0  0  0  0  0  0  0  0  0
    0.3135   21.8879  -27.9900 H   0  0  0  0  0  0  0  0  0  0  0  0
   -5.0716   24.6006  -27.7237 H   0  0  0  0  0  0  0  0  0  0  0  0
   -4.3199   23.2035  -26.8489 H   0  0  0  0  0  0  0  0  0  0  0  0
   -2.8449   25.7070  -27.7547 H   0  0  0  0  0  0  0  0  0  0  0  0
   -3.4397   25.3970  -26.0899 H   0  0  0  0  0  0  0  0  0  0  0  0
   -2.0720   23.2805  -26.0343 H   0  0  0  0  0  0  0  0  0  0  0  0
   -0.8896   26.9551  -25.0749 H   0  0  0  0  0  0  0  0  0  0  0  0
    0.0201   26.8397  -26.6195 H   0  0  0  0  0  0  0  0  0  0  0  0
   -1.7708   26.7011  -26.6195 H   0  0  0  0  0  0  0  0  0  0  0  0
   -0.3973   25.3360  -23.7576 H   0  0  0  0  0  0  0  0  0  0  0  0
   -2.0503   24.7492  -24.1450 H   0  0  0  0  0  0  0  0  0  0  0  0
   -0.6673   23.6029  -24.1450 H   0  0  0  0  0  0  0  0  0  0  0  0
   -4.9558   25.4782  -29.8375 H   0  0  0  0  0  0  0  0  0  0  0  0
   -4.0194   24.8999  -31.2571 H   0  0  0  0  0  0  0  0  0  0  0  0
   -5.8121   24.7868  -31.2571 H   0  0  0  0  0  0  0  0  0  0  0  0
   -6.0037   22.4317  -28.3883 H   0  0  0  0  0  0  0  0  0  0  0  0
   -6.7682   23.8681  -29.2824 H   0  0  0  0  0  0  0  0  0  0  0  0
   -6.9575   20.9440  -29.8334 H   0  0  0  0  0  0  0  0  0  0  0  0
   -8.1744   22.2784  -29.9805 H   0  0  0  0  0  0  0  0  0  0  0  0
   -7.1626   23.1022  -31.9257 H   0  0  0  0  0  0  0  0  0  0  0  0
   -4.5077   20.9656  -33.6971 H   0  0  0  0  0  0  0  0  0  0  0  0
   -4.6741   19.4598  -31.1968 H   0  0  0  0  0  0  0  0  0  0  0  0
   -5.2404   18.5255  -32.6227 H   0  0  0  0  0  0  0  0  0  0  0  0
   -3.6003   19.2581  -32.6227 H   0  0  0  0  0  0  0  0  0  0  0  0
   -8.3643   21.7301  -33.1908 H   0  0  0  0  0  0  0  0  0  0  0  0
   -8.4882   20.2269  -30.8062 H   0  0  0  0  0  0  0  0  0  0  0  0
   -9.6259   20.3129  -32.1936 H   0  0  0  0  0  0  0  0  0  0  0  0
   -8.2994   19.1017  -32.1936 H   0  0  0  0  0  0  0  0  0  0  0  0
  1  2  2  0
  2  3  1  0
  3  4  2  0
  3  5  1  0
  5  6  1  0
  6  7  1  1
  6  8  1  0
  8  9  2  0
  9 10  1  0
 10 11  1  0
 11 12  1  0
 12 13  1  0
 13 14  1  0
 13 15  1  0
  9 16  1  0
 16 17  1  6
 16 18  1  0
 18 19  1  0
 19 20  1  0
 20 21  1  0
 21 22  2  0
 22 23  1  0
 23 24  2  0
 23 25  1  0
 25 26  2  0
 21 27  1  0
 27 28  1  0
 27 29  1  0
 29 30  2  0
 29 31  1  0
 31 32  1  0
 13  2  1  0
 22 16  1  0
 12  6  1  0
 31 20  1  0
 25  8  1  0
  1 33  1  0
  1 34  1  0
  5 35  1  0
  5 36  1  0
  7 37  1  0
  7 38  1  0
  7 39  1  0
 10 40  1  0
 10 41  1  0
 11 42  1  0
 11 43  1  0
 12 44  1  1
 14 45  1  0
 14 46  1  0
 14 47  1  0
 15 48  1  0
 15 49  1  0
 15 50  1  0
 17 51  1  0
 17 52  1  0
 17 53  1  0
 18 54  1  0
 18 55  1  0
 19 56  1  0
 19 57  1  0
 20 58  1  6
 27 59  1  6
 28 60  1  0
 28 61  1  0
 28 62  1  0
 31 63  1  6
 32 64  1  0
 32 65  1  0
 32 66  1  0
M  END
>  <UniqueID>  (17) 
16

>  <SMILES>  (17) 
C=C1C(=O)C[C@]2(C)C3=C(CC[C@@H]2C1(C)C)C1(C)CCC2C(=C1C(=O)C3=O)C(C)C(=O)C2C

>  <Energy>  (17) 
112.37595326980687

>  <Genealogy>  (17) 
C=C1C(=O)C[C@]2(C)C3=C(CC[C@@H]2C1(C)C)C1(C)CCC2C(=C1C(=O)C3=O)C(C)C(=O)C2C (chirality)
C=C1C(=O)C[C@]2(C)C3=C(CC[C@@H]2C1(C)C)C1(C)CCC2C(=C1C(=O)C3=O)C(C)C(=O)C2C (3D coordinates assigned)
C=C1C(=O)C[C@]2(C)C3=C(CC[C@@H]2C1(C)C)C1(C)CCC2C(=C1C(=O)C3=O)C(C)C(=O)C2C (nonaromatic ring conformer: 112.37595326980687 kcal/mol)

>  <smiles>  (17) 
C=C1C(=O)CC2(C)C3=C(CCC2C1(C)C)C1(C)CCC2C(=C1C(=O)C3=O)C(C)C(=O)C2C

>  <score_type>  (17) 
oracle

>  <origin>  (17) 
adg

>  <m_score__min__energy>  (17) 
-11.26

>  <m_primary>  (17) 
energy

$$$$
17:0
     RDKit          3D

 54 57  0  0  0  0  0  0  0  0999 V2000
   -1.3280   26.6050  -25.1460 C   0  0  0  0  0  0  0  0  0  0  0  0
   -1.0420   26.3740  -26.5930 C   0  0  0  0  0  0  0  0  0  0  0  0
   -2.0310   25.6600  -27.3270 N   0  0  0  0  0  0  0  0  0  0  0  0
   -3.0140   24.9980  -26.5370 C   0  0  0  0  0  0  0  0  0  0  0  0
   -4.1970   24.5110  -27.3530 C   0  0  0  0  0  0  0  0  0  0  0  0
   -3.7250   23.7930  -28.4840 N   0  0  0  0  0  0  0  0  0  0  0  0
   -4.5070   24.1560  -29.9550 S   0  0  0  0  0  0  0  0  0  0  0  0
   -5.9590   24.5350  -29.6920 O   0  0  0  0  0  0  0  0  0  0  0  0
   -3.8740   25.2980  -30.6770 O   0  0  0  0  0  0  0  0  0  0  0  0
   -4.4810   22.7030  -30.9280 C   0  0  0  0  0  0  0  0  0  0  0  0
   -5.3660   22.4590  -31.9520 C   0  0  0  0  0  0  0  0  0  0  0  0
   -5.2640   21.2660  -32.6740 C   0  0  0  0  0  0  0  0  0  0  0  0
   -4.3040   20.3190  -32.3950 C   0  0  0  0  0  0  0  0  0  0  0  0
   -4.1820   19.0640  -33.1310 C   0  0  0  0  0  0  0  0  0  0  0  0
   -4.9130   17.9620  -32.9100 N   0  0  0  0  0  0  0  0  0  0  0  0
   -4.5540   16.9850  -33.7580 C   0  0  0  0  0  0  0  0  0  0  0  0
   -5.0340   15.7000  -33.8870 C   0  0  0  0  0  0  0  0  0  0  0  0
   -5.9410   15.2990  -33.1450 O   0  0  0  0  0  0  0  0  0  0  0  0
   -4.4630   14.9240  -34.8550 N   0  0  0  0  0  0  0  0  0  0  0  0
   -4.9860   13.5730  -34.9740 C   0  0  0  0  0  0  0  0  0  0  0  0
   -4.4000   12.7070  -33.8600 C   0  0  0  0  0  0  0  0  0  0  0  0
   -3.4760   15.3930  -35.6470 C   0  0  0  0  0  0  0  0  0  0  0  0
   -2.9980   14.6240  -36.5150 O   0  0  0  0  0  0  0  0  0  0  0  0
   -3.0300   16.6700  -35.4860 N   0  0  0  0  0  0  0  0  0  0  0  0
   -3.5440   17.4890  -34.5550 C   0  0  0  0  0  0  0  0  0  0  0  0
   -3.3530   18.7510  -34.1390 N   0  0  0  0  0  0  0  0  0  0  0  0
   -3.4320   20.5970  -31.3590 C   0  0  0  0  0  0  0  0  0  0  0  0
   -3.5110   21.7670  -30.6320 C   0  0  0  0  0  0  0  0  0  0  0  0
   -2.3130   23.6590  -28.6160 C   0  0  0  0  0  0  0  0  0  0  0  0
   -1.5440   24.9290  -28.4490 C   0  0  0  0  0  0  0  0  0  0  0  0
   -0.6163   26.0302  -24.5352 H   0  0  0  0  0  0  0  0  0  0  0  0
   -1.2249   27.6762  -24.9183 H   0  0  0  0  0  0  0  0  0  0  0  0
   -2.3536   26.2788  -24.9183 H   0  0  0  0  0  0  0  0  0  0  0  0
   -0.9155   27.3569  -27.0703 H   0  0  0  0  0  0  0  0  0  0  0  0
   -0.1448   25.7380  -26.6159 H   0  0  0  0  0  0  0  0  0  0  0  0
   -2.5454   24.1320  -26.0467 H   0  0  0  0  0  0  0  0  0  0  0  0
   -3.3947   25.7259  -25.8054 H   0  0  0  0  0  0  0  0  0  0  0  0
   -4.8232   23.8513  -26.7344 H   0  0  0  0  0  0  0  0  0  0  0  0
   -4.7934   25.3729  -27.6870 H   0  0  0  0  0  0  0  0  0  0  0  0
   -6.1455   23.1943  -32.2003 H   0  0  0  0  0  0  0  0  0  0  0  0
   -5.9745   21.0776  -33.4924 H   0  0  0  0  0  0  0  0  0  0  0  0
   -6.0822   13.5938  -34.8856 H   0  0  0  0  0  0  0  0  0  0  0  0
   -4.7080   13.1542  -35.9524 H   0  0  0  0  0  0  0  0  0  0  0  0
   -4.6831   13.1254  -32.8829 H   0  0  0  0  0  0  0  0  0  0  0  0
   -4.7913   11.6827  -33.9475 H   0  0  0  0  0  0  0  0  0  0  0  0
   -3.3036   12.6894  -33.9475 H   0  0  0  0  0  0  0  0  0  0  0  0
   -2.2620   17.0450  -36.0970 H   0  0  0  0  0  0  0  0  0  0  0  0
   -2.6340   19.3950  -34.5710 H   0  0  0  0  0  0  0  0  0  0  0  0
   -2.6519   19.8636  -31.1067 H   0  0  0  0  0  0  0  0  0  0  0  0
   -2.7992   21.9542  -29.8145 H   0  0  0  0  0  0  0  0  0  0  0  0
   -1.9645   22.9455  -27.8548 H   0  0  0  0  0  0  0  0  0  0  0  0
   -2.1295   23.3195  -29.6461 H   0  0  0  0  0  0  0  0  0  0  0  0
   -0.4813   24.6916  -28.2935 H   0  0  0  0  0  0  0  0  0  0  0  0
   -1.6655   25.5417  -29.3544 H   0  0  0  0  0  0  0  0  0  0  0  0
  1  2  1  0
  2  3  1  0
  3  4  1  0
  4  5  1  0
  5  6  1  0
  6  7  1  0
  7  8  2  0
  7  9  2  0
  7 10  1  0
 10 11  2  0
 11 12  1  0
 12 13  2  0
 13 14  1  0
 14 15  2  0
 15 16  1  0
 16 17  1  0
 17 18  2  0
 17 19  1  0
 19 20  1  0
 20 21  1  0
 19 22  1  0
 22 23  2  0
 22 24  1  0
 24 25  1  0
 25 26  1  0
 13 27  1  0
 27 28  2  0
  6 29  1  0
 29 30  1  0
 30  3  1  0
 28 10  1  0
 26 14  1  0
 25 16  2  0
  1 31  1  0
  1 32  1  0
  1 33  1  0
  2 34  1  0
  2 35  1  0
  4 36  1  0
  4 37  1  0
  5 38  1  0
  5 39  1  0
 11 40  1  0
 12 41  1  0
 20 42  1  0
 20 43  1  0
 21 44  1  0
 21 45  1  0
 21 46  1  0
 24 47  1  0
 26 48  1  0
 27 49  1  0
 28 50  1  0
 29 51  1  0
 29 52  1  0
 30 53  1  0
 30 54  1  0
M  END
>  <smiles>  (18) 
CCN1CCN(S(=O)(=O)c2ccc(-c3nc4c(=O)n(CC)c(=O)[nH]c4[nH]3)cc2)CC1

>  <score_type>  (18) 
oracle

>  <origin>  (18) 
adg

>  <m_score__min__energy>  (18) 
-9.0099999999999998

>  <m_primary>  (18) 
energy

$$$$
18:0
     RDKit          3D

 26 27  0  0  0  0  0  0  0  0999 V2000
   -4.4930   24.5660  -29.9160 C   0  0  0  0  0  0  0  0  0  0  0  0
   -5.7390   25.1640  -29.7140 C   0  0  0  0  0  0  0  0  0  0  0  0
   -6.8560   24.7120  -30.4250 C   0  0  0  0  0  0  0  0  0  0  0  0
   -6.7370   23.6580  -31.3410 C   0  0  0  0  0  0  0  0  0  0  0  0
   -7.8900   23.2410  -32.0250 O   0  0  0  0  0  0  0  0  0  0  0  0
   -8.7390   22.1620  -31.6310 C   0  0  0  0  0  0  0  0  0  0  0  0
   -8.1870   20.8460  -32.1080 C   0  0  0  0  0  0  0  0  0  0  0  0
   -8.7450   19.6440  -31.6460 C   0  0  0  0  0  0  0  0  0  0  0  0
   -8.2300   18.4280  -32.1000 C   0  0  0  0  0  0  0  0  0  0  0  0
   -7.1750   18.4200  -33.0120 C   0  0  0  0  0  0  0  0  0  0  0  0
   -6.6500   19.6330  -33.4620 C   0  0  0  0  0  0  0  0  0  0  0  0
   -7.1620   20.8100  -33.0110 N   0  0  0  0  0  0  0  0  0  0  0  0
   -5.4750   23.0630  -31.5430 C   0  0  0  0  0  0  0  0  0  0  0  0
   -4.3610   23.5170  -30.8290 C   0  0  0  0  0  0  0  0  0  0  0  0
   -3.6154   24.9212  -29.3560 H   0  0  0  0  0  0  0  0  0  0  0  0
   -5.8421   25.9906  -28.9956 H   0  0  0  0  0  0  0  0  0  0  0  0
   -7.8348   25.1874  -30.2639 H   0  0  0  0  0  0  0  0  0  0  0  0
   -8.8147   22.1449  -30.5337 H   0  0  0  0  0  0  0  0  0  0  0  0
   -9.7315   22.3119  -32.0810 H   0  0  0  0  0  0  0  0  0  0  0  0
   -9.5815   19.6596  -30.9318 H   0  0  0  0  0  0  0  0  0  0  0  0
   -8.6550   17.4796  -31.7395 H   0  0  0  0  0  0  0  0  0  0  0  0
   -6.7605   17.4673  -33.3733 H   0  0  0  0  0  0  0  0  0  0  0  0
   -5.8197   19.6370  -34.1835 H   0  0  0  0  0  0  0  0  0  0  0  0
   -6.7510   21.7010  -33.3700 H   0  0  0  0  0  0  0  0  0  0  0  0
   -5.3660   22.2395  -32.2640 H   0  0  0  0  0  0  0  0  0  0  0  0
   -3.3791   23.0470  -30.9868 H   0  0  0  0  0  0  0  0  0  0  0  0
  1  2  2  0
  2  3  1  0
  3  4  2  0
  4  5  1  0
  5  6  1  0
  6  7  1  0
  7  8  2  0
  8  9  1  0
  9 10  2  0
 10 11  1  0
 11 12  2  0
  4 13  1  0
 13 14  2  0
 14  1  1  0
 12  7  1  0
  1 15  1  0
  2 16  1  0
  3 17  1  0
  6 18  1  0
  6 19  1  0
  8 20  1  0
  9 21  1  0
 10 22  1  0
 11 23  1  0
 12 24  1  0
 13 25  1  0
 14 26  1  0
M  CHG  1  12   1
M  END
>  <UniqueID>  (19) 
17

>  <SMILES>  (19) 
c1ccc(OCc2cccc[nH+]2)cc1

>  <Energy>  (19) 
26.333345423567977

>  <Genealogy>  (19) 
c1ccc(OCc2cccc[nH+]2)cc1 (protonated)
c1ccc(OCc2cccc[nH+]2)cc1 (3D coordinates assigned)
c1ccc(OCc2cccc[nH+]2)cc1 (optimized conformer: 26.333345423567977 kcal/mol)

>  <smiles>  (19) 
c1ccc(OCc2ccccn2)cc1

>  <score_type>  (19) 
oracle

>  <origin>  (19) 
adg

>  <m_score__min__energy>  (19) 
-5.4100000000000001

>  <m_primary>  (19) 
energy

$$$$
19:0
     RDKit          3D

 30 31  0  0  0  0  0  0  0  0999 V2000
   -0.2380   25.5628  -28.1335 H   0  0  0  0  0  0  0  0  0  0  0  0
   -1.1230   24.9420  -28.3370 C   0  0  0  0  0  0  0  0  0  0  0  0
   -1.9870   25.2950  -29.3250 N   0  0  0  0  0  0  0  0  0  0  0  0
   -3.1020   24.5680  -29.6150 C   0  0  0  0  0  0  0  0  0  0  0  0
   -3.8670   24.9810  -30.5880 N   0  0  0  0  0  0  0  0  0  0  0  0
   -5.2830   24.8030  -30.7690 C   0  0  0  0  0  0  0  0  0  0  0  0
   -6.0860   25.7320  -30.4810 O   0  0  0  0  0  0  0  0  0  0  0  0
   -5.7960   23.5550  -31.3830 C   0  0  0  0  0  0  0  0  0  0  0  0
   -4.9430   22.7210  -32.1290 C   0  0  0  0  0  0  0  0  0  0  0  0
   -3.8879   23.0005  -32.2653 H   0  0  0  0  0  0  0  0  0  0  0  0
   -5.4270   21.5400  -32.6980 C   0  0  0  0  0  0  0  0  0  0  0  0
   -4.7516   20.8948  -33.2790 H   0  0  0  0  0  0  0  0  0  0  0  0
   -6.7640   21.1760  -32.5320 C   0  0  0  0  0  0  0  0  0  0  0  0
   -7.1366   20.2413  -32.9764 H   0  0  0  0  0  0  0  0  0  0  0  0
   -7.6340   21.9970  -31.8010 C   0  0  0  0  0  0  0  0  0  0  0  0
   -9.0670   21.5870  -31.5940 C   0  0  0  0  0  0  0  0  0  0  0  0
   -9.7276   22.3852  -31.9636 H   0  0  0  0  0  0  0  0  0  0  0  0
   -9.2342   21.4187  -30.5199 H   0  0  0  0  0  0  0  0  0  0  0  0
   -9.3740   20.2960  -32.3450 C   0  0  0  0  0  0  0  0  0  0  0  0
   -9.5660   19.4886  -31.6230 H   0  0  0  0  0  0  0  0  0  0  0  0
  -10.2625   20.4418  -32.9769 H   0  0  0  0  0  0  0  0  0  0  0  0
   -8.5150   20.0262  -32.9769 H   0  0  0  0  0  0  0  0  0  0  0  0
   -7.1430   23.1770  -31.2190 C   0  0  0  0  0  0  0  0  0  0  0  0
   -7.8181   23.8135  -30.6282 H   0  0  0  0  0  0  0  0  0  0  0  0
   -3.3560   23.3890  -28.8810 C   0  0  0  0  0  0  0  0  0  0  0  0
   -4.2367   22.7712  -29.1105 H   0  0  0  0  0  0  0  0  0  0  0  0
   -2.4780   23.0140  -27.8600 C   0  0  0  0  0  0  0  0  0  0  0  0
   -2.6720   22.1022  -27.2760 H   0  0  0  0  0  0  0  0  0  0  0  0
   -1.3570   23.7940  -27.5810 C   0  0  0  0  0  0  0  0  0  0  0  0
   -0.6658   23.5075  -26.7747 H   0  0  0  0  0  0  0  0  0  0  0  0
  1  2  1  0
  2  3  1  0
  3  4  1  0
  4  5  2  0
  5  6  1  0
  6  7  2  0
  6  8  1  0
  8  9  2  0
  9 10  1  0
  9 11  1  0
 11 12  1  0
 11 13  2  0
 13 14  1  0
 13 15  1  0
 15 16  1  0
 16 17  1  0
 16 18  1  0
 16 19  1  0
 19 20  1  0
 19 21  1  0
 19 22  1  0
 15 23  2  0
 23 24  1  0
  4 25  1  0
 25 26  1  0
 25 27  2  0
 27 28  1  0
 27 29  1  0
 29 30  1  0
 29  2  2  0
 23  8  1  0
M  CHG  1   3  -1
M  END
>  <UniqueID>  (20) 
18

>  <SMILES>  (20) 
CCc1cccc(C(=O)/N=c2\cccc[n-]2)c1

>  <Energy>  (20) 
36.36482570473102

>  <Genealogy>  (20) 
CCc1cccc(C(=O)N=c2cccc[n-]2)c1 (protonated)
CCc1cccc(C(=O)/N=c2\cccc[n-]2)c1 (cis-trans isomerization)
CCc1cccc(C(=O)/N=c2\cccc[n-]2)c1 (3D coordinates assigned)
CCc1cccc(C(=O)/N=c2\cccc[n-]2)c1 (optimized conformer: 36.36482570473102 kcal/mol)

>  <smiles>  (20) 
CCc1cccc(C(=O)N=c2cccc[nH]2)c1

>  <score_type>  (20) 
oracle

>  <origin>  (20) 
adg

>  <m_score__min__energy>  (20) 
-9

>  <m_primary>  (20) 
energy

$$$$
20:0
     RDKit          3D

 39 41  0  0  0  0  0  0  0  0999 V2000
   -0.4860   24.0360  -24.5980 C   0  0  0  0  0  0  0  0  0  0  0  0
   -1.2310   25.3750  -24.5120 C   0  0  1  0  0  0  0  0  0  0  0  0
   -0.4610   26.3420  -23.5920 C   0  0  0  0  0  0  0  0  0  0  0  0
   -0.7800   27.6810  -23.8870 O   0  0  0  0  0  0  0  0  0  0  0  0
   -0.2270   28.0020  -25.1420 C   0  0  0  0  0  0  0  0  0  0  0  0
   -0.9560   27.2630  -26.2680 C   0  0  0  0  0  0  0  0  0  0  0  0
   -1.4530   25.9300  -25.8680 N   0  0  0  0  0  0  0  0  0  0  0  0
   -2.3460   25.2260  -26.7680 C   0  0  0  0  0  0  0  0  0  0  0  0
   -1.8760   24.5790  -27.9220 C   0  0  0  0  0  0  0  0  0  0  0  0
   -2.7770   23.9190  -28.7540 C   0  0  0  0  0  0  0  0  0  0  0  0
   -4.1320   23.9130  -28.4240 C   0  0  0  0  0  0  0  0  0  0  0  0
   -5.0810   23.2360  -29.2690 C   0  0  0  0  0  0  0  0  0  0  0  0
   -5.8750   22.6700  -29.9770 C   0  0  0  0  0  0  0  0  0  0  0  0
   -6.8250   21.9960  -30.8220 C   0  0  0  0  0  0  0  0  0  0  0  0
   -8.1980   22.1170  -30.5690 C   0  0  0  0  0  0  0  0  0  0  0  0
   -9.1210   21.4610  -31.3910 C   0  0  0  0  0  0  0  0  0  0  0  0
   -8.6750   20.6840  -32.4650 C   0  0  0  0  0  0  0  0  0  0  0  0
   -7.3050   20.5620  -32.7190 C   0  0  0  0  0  0  0  0  0  0  0  0
   -6.8730   19.8080  -33.7600 F   0  0  0  0  0  0  0  0  0  0  0  0
   -6.3800   21.2180  -31.8990 C   0  0  0  0  0  0  0  0  0  0  0  0
   -4.5470   24.5510  -27.2970 N   0  0  0  0  0  0  0  0  0  0  0  0
   -3.6820   25.1830  -26.5010 N   0  0  0  0  0  0  0  0  0  0  0  0
   -0.2798   23.6653  -23.5831 H   0  0  0  0  0  0  0  0  0  0  0  0
   -1.1070   23.3048  -25.1363 H   0  0  0  0  0  0  0  0  0  0  0  0
    0.4627   24.1782  -25.1363 H   0  0  0  0  0  0  0  0  0  0  0  0
   -2.2250   25.2208  -24.0669 H   0  0  0  0  0  0  0  0  0  0  0  0
   -0.7267   26.1311  -22.5456 H   0  0  0  0  0  0  0  0  0  0  0  0
    0.6172   26.1950  -23.7532 H   0  0  0  0  0  0  0  0  0  0  0  0
   -0.3149   29.0860  -25.3072 H   0  0  0  0  0  0  0  0  0  0  0  0
    0.8295   27.6957  -25.1482 H   0  0  0  0  0  0  0  0  0  0  0  0
   -1.8133   27.8734  -26.5881 H   0  0  0  0  0  0  0  0  0  0  0  0
   -0.2297   27.1092  -27.0797 H   0  0  0  0  0  0  0  0  0  0  0  0
   -0.8038   24.5933  -28.1672 H   0  0  0  0  0  0  0  0  0  0  0  0
   -2.4237   23.4079  -29.6617 H   0  0  0  0  0  0  0  0  0  0  0  0
   -8.5501   22.7275  -29.7244 H   0  0  0  0  0  0  0  0  0  0  0  0
  -10.1987   21.5565  -31.1923 H   0  0  0  0  0  0  0  0  0  0  0  0
   -9.4019   20.1687  -33.1101 H   0  0  0  0  0  0  0  0  0  0  0  0
   -5.3027   21.1228  -32.1001 H   0  0  0  0  0  0  0  0  0  0  0  0
   -5.5590   24.5520  -27.0390 H   0  0  0  0  0  0  0  0  0  0  0  0
  1  2  1  0
  2  3  1  0
  3  4  1  0
  4  5  1  0
  5  6  1  0
  6  7  1  0
  7  8  1  0
  8  9  2  0
  9 10  1  0
 10 11  2  0
 11 12  1  0
 12 13  3  0
 13 14  1  0
 14 15  2  0
 15 16  1  0
 16 17  2  0
 17 18  1  0
 18 19  1  0
 18 20  2  0
 11 21  1  0
 21 22  2  0
  7  2  1  0
 22  8  1  0
 20 14  1  0
  1 23  1  0
  1 24  1  0
  1 25  1  0
  2 26  1  1
  3 27  1  0
  3 28  1  0
  5 29  1  0
  5 30  1  0
  6 31  1  0
  6 32  1  0
  9 33  1  0
 10 34  1  0
 15 35  1  0
 16 36  1  0
 17 37  1  0
 20 38  1  0
 21 39  1  0
M  CHG  1  21   1
M  END
>  <UniqueID>  (21) 
19

>  <SMILES>  (21) 
C[C@H]1COCCN1c1ccc(C#Cc2cccc(F)c2)[nH+]n1

>  <Energy>  (21) 
42.43358265319198

>  <Genealogy>  (21) 
CC1COCCN1c1ccc(C#Cc2cccc(F)c2)[nH+]n1 (protonated)
C[C@H]1COCCN1c1ccc(C#Cc2cccc(F)c2)[nH+]n1 (chirality)
C[C@H]1COCCN1c1ccc(C#Cc2cccc(F)c2)[nH+]n1 (3D coordinates assigned)
C[C@H]1COCCN1c1ccc(C#Cc2cccc(F)c2)[nH+]n1 (nonaromatic ring conformer: 42.43358265319198 kcal/mol)

>  <smiles>  (21) 
CC1COCCN1c1ccc(C#Cc2cccc(F)c2)nn1

>  <score_type>  (21) 
oracle

>  <origin>  (21) 
adg

>  <m_score__min__energy>  (21) 
-6.5199999999999996

>  <m_primary>  (21) 
energy

$$$$
21:0
     RDKit          3D

 29 30  0  0  0  0  0  0  0  0999 V2000
   -6.1140   19.4260  -33.7670 C   0  0  0  0  0  0  0  0  0  0  0  0
   -4.8490   18.6330  -33.4580 C   0  0  0  0  0  0  0  0  0  0  0  0
   -3.7120   19.4920  -33.4290 O   0  0  0  0  0  0  0  0  0  0  0  0
   -3.6650   20.6950  -32.7160 C   0  0  0  0  0  0  0  0  0  0  0  0
   -4.2260   21.8360  -33.1670 N   0  0  0  0  0  0  0  0  0  0  0  0
   -4.0710   22.8730  -32.3480 N   0  0  0  0  0  0  0  0  0  0  0  0
   -3.3820   22.5610  -31.2260 C   0  0  0  0  0  0  0  0  0  0  0  0
   -3.0520   23.5490  -30.1530 C   0  0  0  0  0  0  0  0  0  0  0  0
   -3.5690   24.8780  -30.4820 N   0  0  0  0  0  0  0  0  0  0  0  0
   -5.2120   25.0810  -29.9390 S   0  0  0  0  0  0  0  0  0  0  0  0
   -5.2730   24.9160  -28.4460 O   0  0  0  0  0  0  0  0  0  0  0  0
   -5.6750   26.4670  -30.2860 O   0  0  0  0  0  0  0  0  0  0  0  0
   -6.2860   23.9210  -30.7010 C   0  0  0  0  0  0  0  0  0  0  0  0
   -6.7880   24.0160  -31.9910 C   0  0  0  0  0  0  0  0  0  0  0  0
   -7.5990   22.9300  -32.3410 C   0  0  0  0  0  0  0  0  0  0  0  0
   -7.7250   21.9920  -31.3260 C   0  0  0  0  0  0  0  0  0  0  0  0
   -8.7340   20.3780  -31.4160 Br  0  0  0  0  0  0  0  0  0  0  0  0
   -6.8350   22.4990  -29.9910 S   0  0  0  0  0  0  0  0  0  0  0  0
   -2.9300   20.9350  -31.2140 S   0  0  0  0  0  0  0  0  0  0  0  0
   -6.5963   19.7283  -32.8257 H   0  0  0  0  0  0  0  0  0  0  0  0
   -5.8521   20.3219  -34.3491 H   0  0  0  0  0  0  0  0  0  0  0  0
   -6.8062   18.7999  -34.3491 H   0  0  0  0  0  0  0  0  0  0  0  0
   -4.9585   18.1453  -32.4781 H   0  0  0  0  0  0  0  0  0  0  0  0
   -4.7029   17.8784  -34.2449 H   0  0  0  0  0  0  0  0  0  0  0  0
   -4.7350   21.9120  -34.0750 H   0  0  0  0  0  0  0  0  0  0  0  0
   -3.5001   23.2137  -29.2060 H   0  0  0  0  0  0  0  0  0  0  0  0
   -1.9576   23.6130  -30.0622 H   0  0  0  0  0  0  0  0  0  0  0  0
   -6.5715   24.8561  -32.6673 H   0  0  0  0  0  0  0  0  0  0  0  0
   -8.0872   22.8302  -33.3217 H   0  0  0  0  0  0  0  0  0  0  0  0
  1  2  1  0
  2  3  1  0
  3  4  1  0
  4  5  2  0
  5  6  1  0
  6  7  2  0
  7  8  1  0
  8  9  1  0
  9 10  1  0
 10 11  2  0
 10 12  2  0
 10 13  1  0
 13 14  2  0
 14 15  1  0
 15 16  2  0
 16 17  1  0
 16 18  1  0
  7 19  1  0
 19  4  1  0
 18 13  1  0
  1 20  1  0
  1 21  1  0
  1 22  1  0
  2 23  1  0
  2 24  1  0
  5 25  1  0
  8 26  1  0
  8 27  1  0
 14 28  1  0
 15 29  1  0
M  CHG  2   5   1   9  -1
M  END
>  <UniqueID>  (22) 
20

>  <SMILES>  (22) 
CCOc1[nH+]nc(C[N-]S(=O)(=O)c2ccc(Br)s2)s1

>  <Energy>  (22) 
82.50563315349522

>  <Genealogy>  (22) 
CCOc1[nH+]nc(C[N-]S(=O)(=O)c2ccc(Br)s2)s1 (protonated)
CCOc1[nH+]nc(C[N-]S(=O)(=O)c2ccc(Br)s2)s1 (3D coordinates assigned)
CCOc1[nH+]nc(C[N-]S(=O)(=O)c2ccc(Br)s2)s1 (optimized conformer: 82.50563315349522 kcal/mol)

>  <smiles>  (22) 
CCOc1nnc(CNS(=O)(=O)c2ccc(Br)s2)s1

>  <score_type>  (22) 
oracle

>  <origin>  (22) 
adg

>  <m_score__min__energy>  (22) 
-8.5099999999999998

>  <m_primary>  (22) 
energy

$$$$
22:0
     RDKit          3D

 44 46  0  0  1  0  0  0  0  0999 V2000
   -8.8150   20.3910  -32.0470 C   0  0  0  0  0  0  0  0  0  0  0  0
   -7.6610   21.2940  -31.8200 C   0  0  0  0  0  0  0  0  0  0  0  0
   -6.4850   21.2480  -32.5130 C   0  0  0  0  0  0  0  0  0  0  0  0
   -5.4150   22.0830  -32.3130 C   0  0  0  0  0  0  0  0  0  0  0  0
   -5.5490   23.0460  -31.3280 C   0  0  0  0  0  0  0  0  0  0  0  0
   -4.5460   23.9910  -31.0010 N   0  0  0  0  0  0  0  0  0  0  0  0
   -3.4680   23.7370  -30.3600 C   0  0  0  0  0  0  0  0  0  0  0  0
   -2.9890   22.4450  -30.2750 C   0  0  0  0  0  0  0  0  0  0  0  0
   -1.8410   22.1420  -29.5660 C   0  0  0  0  0  0  0  0  0  0  0  0
   -1.3310   20.8260  -29.4820 N   0  0  0  0  0  0  0  0  0  0  0  0
   -1.2380   20.0810  -28.2390 C   0  0  0  0  0  0  0  0  0  0  0  0
   -0.8520   20.1630  -30.6790 C   0  0  0  0  0  0  0  0  0  0  0  0
   -1.1880   23.1710  -28.9450 N   0  0  0  0  0  0  0  0  0  0  0  0
   -1.6460   24.4420  -29.0190 C   0  0  0  0  0  0  0  0  0  0  0  0
   -1.0530   25.4210  -28.4140 N   0  0  0  0  0  0  0  0  0  0  0  0
   -0.1070   25.0230  -27.3950 C   0  0  0  0  0  0  0  0  0  0  0  0
   -0.3820   25.1560  -26.0510 C   0  0  0  0  0  0  0  0  0  0  0  0
    0.6020   24.7560  -25.1760 C   0  0  0  0  0  0  0  0  0  0  0  0
    1.7620   24.2640  -25.6920 C   0  0  0  0  0  0  0  0  0  0  0  0
    2.0100   24.1420  -27.0390 C   0  0  0  0  0  0  0  0  0  0  0  0
    1.0550   24.5310  -27.8830 N   0  0  0  0  0  0  0  0  0  0  0  0
   -2.7680   24.6870  -29.7210 N   0  0  0  0  0  0  0  0  0  0  0  0
   -6.7330   23.1430  -30.5830 C   0  0  0  0  0  0  0  0  0  0  0  0
   -7.7750   22.2640  -30.8390 C   0  0  0  0  0  0  0  0  0  0  0  0
   -9.2254   20.0699  -31.0783 H   0  0  0  0  0  0  0  0  0  0  0  0
   -9.5913   20.9240  -32.6156 H   0  0  0  0  0  0  0  0  0  0  0  0
   -8.4844   19.5093  -32.6156 H   0  0  0  0  0  0  0  0  0  0  0  0
   -6.3880   20.4797  -33.2943 H   0  0  0  0  0  0  0  0  0  0  0  0
   -4.4940   21.9915  -32.9075 H   0  0  0  0  0  0  0  0  0  0  0  0
   -3.5341   21.6364  -30.7839 H   0  0  0  0  0  0  0  0  0  0  0  0
   -1.3245   20.7738  -27.3890 H   0  0  0  0  0  0  0  0  0  0  0  0
   -2.0508   19.3412  -28.1932 H   0  0  0  0  0  0  0  0  0  0  0  0
   -0.2683   19.5637  -28.1932 H   0  0  0  0  0  0  0  0  0  0  0  0
   -0.2294   19.3012  -30.3966 H   0  0  0  0  0  0  0  0  0  0  0  0
   -1.7096   19.8164  -31.2743 H   0  0  0  0  0  0  0  0  0  0  0  0
   -0.2536   20.8683  -31.2743 H   0  0  0  0  0  0  0  0  0  0  0  0
   -0.3420   22.9310  -28.4300 H   0  0  0  0  0  0  0  0  0  0  0  0
   -1.3406   25.5618  -25.6954 H   0  0  0  0  0  0  0  0  0  0  0  0
    0.4553   24.8318  -24.0885 H   0  0  0  0  0  0  0  0  0  0  0  0
    2.5468   23.9454  -24.9901 H   0  0  0  0  0  0  0  0  0  0  0  0
    2.9642   23.7371  -27.4073 H   0  0  0  0  0  0  0  0  0  0  0  0
   -3.1030   25.6740  -29.7640 H   0  0  0  0  0  0  0  0  0  0  0  0
   -6.8347   23.9104  -29.8015 H   0  0  0  0  0  0  0  0  0  0  0  0
   -8.7041   22.3387  -30.2549 H   0  0  0  0  0  0  0  0  0  0  0  0
  1  2  1  0
  2  3  2  0
  3  4  1  0
  4  5  2  0
  5  6  1  0
  6  7  2  0
  7  8  1  0
  8  9  2  0
  9 10  1  0
 10 11  1  0
 10 12  1  0
  9 13  1  0
 13 14  1  0
 14 15  2  0
 15 16  1  0
 16 17  2  0
 17 18  1  0
 18 19  2  0
 19 20  1  0
 20 21  2  0
 14 22  1  0
  5 23  1  0
 23 24  2  0
 24  2  1  0
 22  7  1  0
 21 16  1  0
  1 25  1  0
  1 26  1  0
  1 27  1  0
  3 28  1  0
  4 29  1  0
  8 30  1  0
 11 31  1  0
 11 32  1  0
 11 33  1  0
 12 34  1  0
 12 35  1  0
 12 36  1  0
 13 37  1  0
 17 38  1  0
 18 39  1  0
 19 40  1  0
 20 41  1  0
 22 42  1  0
 23 43  1  0
 24 44  1  0
M  END
>  <smiles>  (23) 
Cc1ccc(N=c2cc(N(C)C)[nH]c(=Nc3ccccn3)[nH]2)cc1

>  <score_type>  (23) 
oracle

>  <origin>  (23) 
adg

>  <m_score__min__energy>  (23) 
-7.8899999999999997

>  <m_primary>  (23) 
energy

$$$$
23:0
     RDKit          3D

 25 26  0  0  0  0  0  0  0  0999 V2000
   -7.5927   22.2989  -31.5178 H   0  0  0  0  0  0  0  0  0  0  0  0
   -6.7500   22.8990  -31.1440 C   0  0  0  0  0  0  0  0  0  0  0  0
   -6.9350   24.2730  -30.8680 C   0  0  0  0  0  0  0  0  0  0  0  0
   -7.9200   24.7353  -31.0292 H   0  0  0  0  0  0  0  0  0  0  0  0
   -5.8660   25.0530  -30.3880 C   0  0  0  0  0  0  0  0  0  0  0  0
   -5.9950   26.1229  -30.1672 H   0  0  0  0  0  0  0  0  0  0  0  0
   -4.6400   24.4210  -30.2030 C   0  0  0  0  0  0  0  0  0  0  0  0
   -4.4590   23.0950  -30.4690 C   0  0  0  0  0  0  0  0  0  0  0  0
   -3.1900   22.7310  -30.2080 N   0  0  0  0  0  0  0  0  0  0  0  0
   -2.6340   23.8960  -29.7770 C   0  0  0  0  0  0  0  0  0  0  0  0
   -1.3910   24.0140  -29.4070 N   0  0  0  0  0  0  0  0  0  0  0  0
   -0.8050   25.1470  -28.7520 C   0  0  0  0  0  0  0  0  0  0  0  0
   -1.2330   26.3150  -28.9650 O   0  0  0  0  0  0  0  0  0  0  0  0
    0.2760   24.9350  -27.8410 N   0  0  0  0  0  0  0  0  0  0  0  0
    0.1030   24.7930  -26.3990 C   0  0  0  0  0  0  0  0  0  0  0  0
    0.7838   25.4863  -25.8834 H   0  0  0  0  0  0  0  0  0  0  0  0
    0.3300   23.7547  -26.1156 H   0  0  0  0  0  0  0  0  0  0  0  0
   -1.3330   25.1090  -25.9960 C   0  0  0  0  0  0  0  0  0  0  0  0
   -1.4106   25.1261  -24.8989 H   0  0  0  0  0  0  0  0  0  0  0  0
   -1.6192   26.0916  -26.3992 H   0  0  0  0  0  0  0  0  0  0  0  0
   -2.0053   24.3373  -26.3992 H   0  0  0  0  0  0  0  0  0  0  0  0
   -3.4900   24.9450  -29.7620 N   0  0  0  0  0  0  0  0  0  0  0  0
   -3.3010   25.9320  -29.4750 H   0  0  0  0  0  0  0  0  0  0  0  0
   -5.4950   22.2930  -30.9440 C   0  0  0  0  0  0  0  0  0  0  0  0
   -5.3379   21.2249  -31.1551 H   0  0  0  0  0  0  0  0  0  0  0  0
  1  2  1  0
  2  3  2  0
  3  4  1  0
  3  5  1  0
  5  6  1  0
  5  7  2  0
  7  8  1  0
  8  9  1  0
  9 10  1  0
 10 11  2  0
 11 12  1  0
 12 13  2  0
 12 14  1  0
 14 15  1  0
 15 16  1  0
 15 17  1  0
 15 18  1  0
 18 19  1  0
 18 20  1  0
 18 21  1  0
 10 22  1  0
 22 23  1  0
  8 24  2  0
 24 25  1  0
 24  2  1  0
 22  7  1  0
M  CHG  2   9  -1  14  -1
M  END
>  <UniqueID>  (24) 
21

>  <SMILES>  (24) 
CC[N-]C(=O)/N=c1\[n-]c2ccccc2[nH]1

>  <Energy>  (24) 
59.216223206810255

>  <Genealogy>  (24) 
CC[N-]C(=O)N=c1[n-]c2ccccc2[nH]1 (protonated)
CC[N-]C(=O)/N=c1\[n-]c2ccccc2[nH]1 (cis-trans isomerization)
CC[N-]C(=O)/N=c1\[n-]c2ccccc2[nH]1 (3D coordinates assigned)
CC[N-]C(=O)/N=c1\[n-]c2ccccc2[nH]1 (optimized conformer: 59.216223206810255 kcal/mol)

>  <smiles>  (24) 
CCNC(=O)N=c1[nH]c2ccccc2[nH]1

>  <score_type>  (24) 
oracle

>  <origin>  (24) 
adg

>  <m_score__min__energy>  (24) 
-7.4699999999999998

>  <m_primary>  (24) 
energy

$$$$
24:0
     RDKit          3D

 41 43  0  0  0  0  0  0  0  0999 V2000
   -1.9820   25.0510  -27.5880 C   0  0  0  0  0  0  0  0  0  0  0  0
   -2.3660   25.2100  -28.9510 O   0  0  0  0  0  0  0  0  0  0  0  0
   -2.8770   24.1820  -29.7600 C   0  0  0  0  0  0  0  0  0  0  0  0
   -2.2410   22.9300  -29.8610 C   0  0  0  0  0  0  0  0  0  0  0  0
   -2.7740   21.9280  -30.6750 C   0  0  0  0  0  0  0  0  0  0  0  0
   -3.9510   22.1510  -31.4060 C   0  0  0  0  0  0  0  0  0  0  0  0
   -4.5160   21.0840  -32.2690 C   0  0  0  0  0  0  0  0  0  0  0  0
   -3.6680   20.1840  -32.9400 C   0  0  0  0  0  0  0  0  0  0  0  0
   -4.2000   19.1840  -33.7590 C   0  0  0  0  0  0  0  0  0  0  0  0
   -5.5900   19.0610  -33.9200 C   0  0  0  0  0  0  0  0  0  0  0  0
   -6.1370   18.0530  -34.7990 N   0  0  0  0  0  0  0  0  0  0  0  0
   -6.8040   16.9820  -34.0410 C   0  0  0  0  0  0  0  0  0  0  0  0
   -5.8370   15.9190  -33.6070 C   0  0  0  0  0  0  0  0  0  0  0  0
   -4.8530   16.0610  -32.6380 C   0  0  0  0  0  0  0  0  0  0  0  0
   -4.1480   14.8770  -32.3930 C   0  0  0  0  0  0  0  0  0  0  0  0
   -4.5790   13.8020  -33.1610 C   0  0  0  0  0  0  0  0  0  0  0  0
   -5.8410   14.3250  -34.1420 S   0  0  0  0  0  0  0  0  0  0  0  0
   -6.4390   19.9590  -33.2520 C   0  0  0  0  0  0  0  0  0  0  0  0
   -5.9070   20.9600  -32.4350 C   0  0  0  0  0  0  0  0  0  0  0  0
   -4.5850   23.4010  -31.3060 C   0  0  0  0  0  0  0  0  0  0  0  0
   -4.0570   24.4140  -30.4910 C   0  0  0  0  0  0  0  0  0  0  0  0
   -4.7260   25.6780  -30.4150 N   0  0  0  0  0  0  0  0  0  0  0  0
   -2.7997   25.3896  -26.9348 H   0  0  0  0  0  0  0  0  0  0  0  0
   -1.7685   23.9905  -27.3885 H   0  0  0  0  0  0  0  0  0  0  0  0
   -1.0813   25.6502  -27.3885 H   0  0  0  0  0  0  0  0  0  0  0  0
   -1.3175   22.7396  -29.2946 H   0  0  0  0  0  0  0  0  0  0  0  0
   -2.2663   20.9546  -30.7438 H   0  0  0  0  0  0  0  0  0  0  0  0
   -2.5779   20.2679  -32.8192 H   0  0  0  0  0  0  0  0  0  0  0  0
   -3.5258   18.4889  -34.2808 H   0  0  0  0  0  0  0  0  0  0  0  0
   -5.3860   17.6460  -35.4060 H   0  0  0  0  0  0  0  0  0  0  0  0
   -6.8380   18.4990  -35.4360 H   0  0  0  0  0  0  0  0  0  0  0  0
   -7.2766   17.4187  -33.1489 H   0  0  0  0  0  0  0  0  0  0  0  0
   -7.5529   16.5148  -34.6974 H   0  0  0  0  0  0  0  0  0  0  0  0
   -4.6483   17.0074  -32.1161 H   0  0  0  0  0  0  0  0  0  0  0  0
   -3.3298   14.8042  -31.6614 H   0  0  0  0  0  0  0  0  0  0  0  0
   -4.1654   12.7831  -33.1322 H   0  0  0  0  0  0  0  0  0  0  0  0
   -7.5290   19.8737  -33.3728 H   0  0  0  0  0  0  0  0  0  0  0  0
   -6.5821   21.6571  -31.9171 H   0  0  0  0  0  0  0  0  0  0  0  0
   -5.5080   23.5881  -31.8744 H   0  0  0  0  0  0  0  0  0  0  0  0
   -4.9650   26.2210  -31.2740 H   0  0  0  0  0  0  0  0  0  0  0  0
   -4.9930   26.0850  -29.4910 H   0  0  0  0  0  0  0  0  0  0  0  0
  1  2  1  0
  2  3  1  0
  3  4  2  0
  4  5  1  0
  5  6  2  0
  6  7  1  0
  7  8  2  0
  8  9  1  0
  9 10  2  0
 10 11  1  0
 11 12  1  0
 12 13  1  0
 13 14  2  0
 14 15  1  0
 15 16  2  0
 16 17  1  0
 10 18  1  0
 18 19  2  0
  6 20  1  0
 20 21  2  0
 21 22  1  0
 21  3  1  0
 19  7  1  0
 17 13  1  0
  1 23  1  0
  1 24  1  0
  1 25  1  0
  4 26  1  0
  5 27  1  0
  8 28  1  0
  9 29  1  0
 11 30  1  0
 11 31  1  0
 12 32  1  0
 12 33  1  0
 14 34  1  0
 15 35  1  0
 16 36  1  0
 18 37  1  0
 19 38  1  0
 20 39  1  0
 22 40  1  0
 22 41  1  0
M  CHG  1  11   1
M  END
>  <UniqueID>  (25) 
22

>  <SMILES>  (25) 
COc1ccc(-c2ccc([NH2+]Cc3cccs3)cc2)cc1N

>  <Energy>  (25) 
72.90041696642412

>  <Genealogy>  (25) 
COc1ccc(-c2ccc([NH2+]Cc3cccs3)cc2)cc1N (protonated)
COc1ccc(-c2ccc([NH2+]Cc3cccs3)cc2)cc1N (3D coordinates assigned)
COc1ccc(-c2ccc([NH2+]Cc3cccs3)cc2)cc1N (optimized conformer: 72.90041696642412 kcal/mol)

>  <smiles>  (25) 
COc1ccc(-c2ccc(NCc3cccs3)cc2)cc1N

>  <score_type>  (25) 
oracle

>  <origin>  (25) 
adg

>  <m_score__min__energy>  (25) 
-7.1299999999999999

>  <m_primary>  (25) 
energy

$$$$
25:0
     RDKit          3D

 35 38  0  0  0  0  0  0  0  0999 V2000
   -9.7403   19.3490  -30.9990 H   0  0  0  0  0  0  0  0  0  0  0  0
   -8.8270   19.3510  -31.6120 C   0  0  0  0  0  0  0  0  0  0  0  0
   -8.3400   18.1530  -32.1430 C   0  0  0  0  0  0  0  0  0  0  0  0
   -8.8746   17.2103  -31.9545 H   0  0  0  0  0  0  0  0  0  0  0  0
   -7.1730   18.1530  -32.9140 C   0  0  0  0  0  0  0  0  0  0  0  0
   -6.4950   16.5130  -33.6200 Br  0  0  0  0  0  0  0  0  0  0  0  0
   -6.4980   19.3530  -33.1620 C   0  0  0  0  0  0  0  0  0  0  0  0
   -5.5680   19.3473  -33.7494 H   0  0  0  0  0  0  0  0  0  0  0  0
   -7.0020   20.5620  -32.6650 C   0  0  0  0  0  0  0  0  0  0  0  0
   -6.2660   21.7730  -32.8820 N   0  0  0  0  0  0  0  0  0  0  0  0
   -5.2930   22.3120  -32.1880 C   0  0  0  0  0  0  0  0  0  0  0  0
   -5.4790   23.3220  -31.1930 C   0  0  0  0  0  0  0  0  0  0  0  0
   -6.6360   24.1330  -31.1110 C   0  0  0  0  0  0  0  0  0  0  0  0
   -7.4298   24.0221  -31.8644 H   0  0  0  0  0  0  0  0  0  0  0  0
   -6.7850   25.0720  -30.0880 C   0  0  0  0  0  0  0  0  0  0  0  0
   -7.7093   25.6643  -30.0179 H   0  0  0  0  0  0  0  0  0  0  0  0
   -5.7670   25.2610  -29.1560 C   0  0  0  0  0  0  0  0  0  0  0  0
   -5.9041   25.9705  -28.3267 H   0  0  0  0  0  0  0  0  0  0  0  0
   -4.5750   24.5500  -29.2760 C   0  0  0  0  0  0  0  0  0  0  0  0
   -3.7609   24.7239  -28.5570 H   0  0  0  0  0  0  0  0  0  0  0  0
   -4.4050   23.6130  -30.3080 C   0  0  0  0  0  0  0  0  0  0  0  0
   -3.1900   23.0210  -30.4810 N   0  0  0  0  0  0  0  0  0  0  0  0
   -2.4120   23.2580  -29.8220 H   0  0  0  0  0  0  0  0  0  0  0  0
   -2.9420   22.1840  -31.5230 C   0  0  0  0  0  0  0  0  0  0  0  0
   -1.6500   21.6630  -31.7090 C   0  0  0  0  0  0  0  0  0  0  0  0
   -0.8430   21.9464  -31.0173 H   0  0  0  0  0  0  0  0  0  0  0  0
   -1.3820   20.7890  -32.7640 C   0  0  0  0  0  0  0  0  0  0  0  0
    0.2350   20.1480  -32.9850 Cl  0  0  0  0  0  0  0  0  0  0  0  0
   -2.4040   20.4220  -33.6410 C   0  0  0  0  0  0  0  0  0  0  0  0
   -2.1923   19.7336  -34.4725 H   0  0  0  0  0  0  0  0  0  0  0  0
   -3.6940   20.9260  -33.4660 C   0  0  0  0  0  0  0  0  0  0  0  0
   -4.4946   20.6232  -34.1570 H   0  0  0  0  0  0  0  0  0  0  0  0
   -3.9830   21.8210  -32.4110 C   0  0  0  0  0  0  0  0  0  0  0  0
   -8.1550   20.5510  -31.8590 C   0  0  0  0  0  0  0  0  0  0  0  0
   -8.5283   21.4890  -31.4223 H   0  0  0  0  0  0  0  0  0  0  0  0
  1  2  1  0
  2  3  2  0
  3  4  1  0
  3  5  1  0
  5  6  1  0
  5  7  2  0
  7  8  1  0
  7  9  1  0
  9 10  1  0
 10 11  2  0
 11 12  1  0
 12 13  2  0
 13 14  1  0
 13 15  1  0
 15 16  1  0
 15 17  2  0
 17 18  1  0
 17 19  1  0
 19 20  1  0
 19 21  2  0
 21 22  1  0
 22 23  1  0
 22 24  1  0
 24 25  2  0
 25 26  1  0
 25 27  1  0
 27 28  1  0
 27 29  2  0
 29 30  1  0
 29 31  1  0
 31 32  1  0
 31 33  2  0
  9 34  2  0
 34 35  1  0
 34  2  1  0
 33 11  1  0
 21 12  1  0
 33 24  1  0
M  END
>  <UniqueID>  (26) 
23

>  <SMILES>  (26) 
Clc1ccc2/c(=N/c3cccc(Br)c3)c3ccccc3[nH]c2c1

>  <Energy>  (26) 
68.83792451594734

>  <Genealogy>  (26) 
Clc1ccc2/c(=N/c3cccc(Br)c3)c3ccccc3[nH]c2c1 (cis-trans isomerization)
Clc1ccc2/c(=N/c3cccc(Br)c3)c3ccccc3[nH]c2c1 (3D coordinates assigned)
Clc1ccc2/c(=N/c3cccc(Br)c3)c3ccccc3[nH]c2c1 (optimized conformer: 68.83792451594734 kcal/mol)

>  <smiles>  (26) 
Clc1ccc2c(=Nc3cccc(Br)c3)c3ccccc3[nH]c2c1

>  <score_type>  (26) 
oracle

>  <origin>  (26) 
adg

>  <m_score__min__energy>  (26) 
-8.9600000000000009

>  <m_primary>  (26) 
energy

$$$$
26:0
     RDKit          3D

 37 39  0  0  1  0  0  0  0  0999 V2000
   -0.8840   26.5630  -27.0570 C   0  0  0  0  0  0  0  0  0  0  0  0
   -1.4970   25.2070  -27.3570 C   0  0  0  0  0  0  0  0  0  0  0  0
   -0.5050   24.1740  -26.7910 C   0  0  0  0  0  0  0  0  0  0  0  0
   -2.7860   24.9650  -26.6480 C   0  0  0  0  0  0  0  0  0  0  0  0
   -1.5280   24.8900  -28.7650 N   0  0  0  0  0  0  0  0  0  0  0  0
   -2.4840   24.2910  -29.3750 C   0  0  0  0  0  0  0  0  0  0  0  0
   -2.3980   22.9220  -29.4940 C   0  0  0  0  0  0  0  0  0  0  0  0
   -3.4150   22.2650  -30.1450 C   0  0  0  0  0  0  0  0  0  0  0  0
   -4.4610   23.0370  -30.6390 C   0  0  0  0  0  0  0  0  0  0  0  0
   -5.5230   22.2870  -31.3280 C   0  0  0  0  0  0  0  0  0  0  0  0
   -5.2640   21.4750  -32.4140 C   0  0  0  0  0  0  0  0  0  0  0  0
   -6.2490   20.7970  -33.0330 N   0  0  0  0  0  0  0  0  0  0  0  0
   -7.5290   20.8700  -32.6380 C   0  0  0  0  0  0  0  0  0  0  0  0
   -8.6900   20.3400  -33.0310 N   0  0  0  0  0  0  0  0  0  0  0  0
   -9.6930   20.7600  -32.2640 N   0  0  0  0  0  0  0  0  0  0  0  0
   -9.2000   21.5940  -31.3290 C   0  0  0  0  0  0  0  0  0  0  0  0
   -7.8290   21.6760  -31.5510 C   0  0  0  0  0  0  0  0  0  0  0  0
   -6.8410   22.3850  -30.8900 C   0  0  0  0  0  0  0  0  0  0  0  0
   -4.4990   24.4060  -30.4930 C   0  0  0  0  0  0  0  0  0  0  0  0
   -3.4990   25.0250  -29.8550 N   0  0  0  0  0  0  0  0  0  0  0  0
   -0.8204   26.7038  -25.9679 H   0  0  0  0  0  0  0  0  0  0  0  0
    0.1247   26.6139  -27.4929 H   0  0  0  0  0  0  0  0  0  0  0  0
   -1.5121   27.3539  -27.4929 H   0  0  0  0  0  0  0  0  0  0  0  0
   -0.5328   24.2030  -25.6917 H   0  0  0  0  0  0  0  0  0  0  0  0
   -0.7846   23.1685  -27.1385 H   0  0  0  0  0  0  0  0  0  0  0  0
    0.5110   24.4127  -27.1385 H   0  0  0  0  0  0  0  0  0  0  0  0
   -2.6183   24.9965  -25.5613 H   0  0  0  0  0  0  0  0  0  0  0  0
   -3.5111   25.7427  -26.9298 H   0  0  0  0  0  0  0  0  0  0  0  0
   -3.1797   23.9773  -26.9298 H   0  0  0  0  0  0  0  0  0  0  0  0
   -1.5409   22.3703  -29.0804 H   0  0  0  0  0  0  0  0  0  0  0  0
   -3.4020   21.1722  -30.2702 H   0  0  0  0  0  0  0  0  0  0  0  0
   -4.2315   21.3799  -32.7813 H   0  0  0  0  0  0  0  0  0  0  0  0
   -8.8130   19.6750  -33.8420 H   0  0  0  0  0  0  0  0  0  0  0  0
   -9.7703   22.1101  -30.5426 H   0  0  0  0  0  0  0  0  0  0  0  0
   -7.0944   23.0192  -30.0277 H   0  0  0  0  0  0  0  0  0  0  0  0
   -5.3429   24.9846  -30.8968 H   0  0  0  0  0  0  0  0  0  0  0  0
   -3.4890   26.0500  -29.7240 H   0  0  0  0  0  0  0  0  0  0  0  0
  1  2  1  0
  2  3  1  0
  2  4  1  0
  2  5  1  0
  5  6  2  0
  6  7  1  0
  7  8  2  0
  8  9  1  0
  9 10  1  0
 10 11  2  0
 11 12  1  0
 12 13  2  0
 13 14  1  0
 14 15  1  0
 15 16  2  0
 16 17  1  0
 17 18  2  0
  9 19  2  0
 19 20  1  0
 20  6  1  0
 18 10  1  0
 17 13  1  0
  1 21  1  0
  1 22  1  0
  1 23  1  0
  3 24  1  0
  3 25  1  0
  3 26  1  0
  4 27  1  0
  4 28  1  0
  4 29  1  0
  7 30  1  0
  8 31  1  0
 11 32  1  0
 14 33  1  0
 16 34  1  0
 18 35  1  0
 19 36  1  0
 20 37  1  0
M  END
>  <smiles>  (27) 
CC(C)(C)N=c1ccc(-c2cnc3[nH]ncc3c2)c[nH]1

>  <score_type>  (27) 
oracle

>  <origin>  (27) 
adg

>  <m_score__min__energy>  (27) 
-8.0500000000000007

>  <m_primary>  (27) 
energy

$$$$
27:0
     RDKit          3D

 32 34  0  0  0  0  0  0  0  0999 V2000
   -1.9840   25.0800  -28.1850 C   0  0  0  0  0  0  0  0  0  0  0  0
   -2.7690   25.2800  -29.3550 O   0  0  0  0  0  0  0  0  0  0  0  0
   -3.3850   24.2500  -30.0830 C   0  0  0  0  0  0  0  0  0  0  0  0
   -4.7200   24.4140  -30.4670 C   0  0  0  0  0  0  0  0  0  0  0  0
   -5.3790   23.4180  -31.1930 C   0  0  0  0  0  0  0  0  0  0  0  0
   -4.7070   22.2360  -31.5470 C   0  0  0  0  0  0  0  0  0  0  0  0
   -5.3940   21.1790  -32.3130 C   0  0  0  0  0  0  0  0  0  0  0  0
   -6.5170   21.3680  -33.0360 N   0  0  0  0  0  0  0  0  0  0  0  0
   -6.8050   20.1890  -33.5610 N   0  0  0  0  0  0  0  0  0  0  0  0
   -5.8620   19.3180  -33.1490 C   0  0  0  0  0  0  0  0  0  0  0  0
   -5.7950   17.8820  -33.5000 C   0  0  0  0  0  0  0  0  0  0  0  0
   -4.5550   17.3090  -33.8330 C   0  0  0  0  0  0  0  0  0  0  0  0
   -4.4650   15.9550  -34.1680 C   0  0  0  0  0  0  0  0  0  0  0  0
   -5.6130   15.1560  -34.1740 C   0  0  0  0  0  0  0  0  0  0  0  0
   -5.4990   13.4570  -34.5930 Cl  0  0  0  0  0  0  0  0  0  0  0  0
   -6.8500   15.7150  -33.8420 C   0  0  0  0  0  0  0  0  0  0  0  0
   -6.9440   17.0690  -33.5070 C   0  0  0  0  0  0  0  0  0  0  0  0
   -4.9910   19.9290  -32.3800 O   0  0  0  0  0  0  0  0  0  0  0  0
   -3.3660   22.0690  -31.1620 C   0  0  0  0  0  0  0  0  0  0  0  0
   -2.7090   23.0670  -30.4350 C   0  0  0  0  0  0  0  0  0  0  0  0
   -2.6080   25.2390  -27.2932 H   0  0  0  0  0  0  0  0  0  0  0  0
   -1.5903   24.0529  -28.1787 H   0  0  0  0  0  0  0  0  0  0  0  0
   -1.1469   25.7936  -28.1787 H   0  0  0  0  0  0  0  0  0  0  0  0
   -5.2561   25.3353  -30.1951 H   0  0  0  0  0  0  0  0  0  0  0  0
   -6.4289   23.5602  -31.4887 H   0  0  0  0  0  0  0  0  0  0  0  0
   -7.6270   20.0100  -34.1770 H   0  0  0  0  0  0  0  0  0  0  0  0
   -3.6481   17.9315  -33.8299 H   0  0  0  0  0  0  0  0  0  0  0  0
   -3.4898   15.5171  -34.4273 H   0  0  0  0  0  0  0  0  0  0  0  0
   -7.7532   15.0872  -33.8443 H   0  0  0  0  0  0  0  0  0  0  0  0
   -7.9215   17.5015  -33.2474 H   0  0  0  0  0  0  0  0  0  0  0  0
   -2.8297   21.1479  -31.4340 H   0  0  0  0  0  0  0  0  0  0  0  0
   -1.6595   22.9266  -30.1371 H   0  0  0  0  0  0  0  0  0  0  0  0
  1  2  1  0
  2  3  1  0
  3  4  2  0
  4  5  1  0
  5  6  2  0
  6  7  1  0
  7  8  2  0
  8  9  1  0
  9 10  2  0
 10 11  1  0
 11 12  2  0
 12 13  1  0
 13 14  2  0
 14 15  1  0
 14 16  1  0
 16 17  2  0
 10 18  1  0
  6 19  1  0
 19 20  2  0
 20  3  1  0
 18  7  1  0
 17 11  1  0
  1 21  1  0
  1 22  1  0
  1 23  1  0
  4 24  1  0
  5 25  1  0
  9 26  1  0
 12 27  1  0
 13 28  1  0
 16 29  1  0
 17 30  1  0
 19 31  1  0
 20 32  1  0
M  CHG  1   9   1
M  END
>  <UniqueID>  (28) 
24

>  <SMILES>  (28) 
COc1ccc(-c2n[nH+]c(-c3ccc(Cl)cc3)o2)cc1

>  <Energy>  (28) 
70.34602582862122

>  <Genealogy>  (28) 
COc1ccc(-c2n[nH+]c(-c3ccc(Cl)cc3)o2)cc1 (protonated)
COc1ccc(-c2n[nH+]c(-c3ccc(Cl)cc3)o2)cc1 (3D coordinates assigned)
COc1ccc(-c2n[nH+]c(-c3ccc(Cl)cc3)o2)cc1 (optimized conformer: 70.34602582862122 kcal/mol)

>  <smiles>  (28) 
COc1ccc(-c2nnc(-c3ccc(Cl)cc3)o2)cc1

>  <score_type>  (28) 
oracle

>  <origin>  (28) 
adg

>  <m_score__min__energy>  (28) 
-6.7999999999999998

>  <m_primary>  (28) 
energy

$$$$
28:0
     RDKit          3D

 56 59  0  0  1  0  0  0  0  0999 V2000
   -5.3770   16.6480  -31.9690 C   0  0  0  0  0  0  0  0  0  0  0  0
   -6.1180   16.0000  -33.1150 C   0  0  0  0  0  0  0  0  0  0  0  0
   -7.1090   16.8940  -33.5770 O   0  0  0  0  0  0  0  0  0  0  0  0
   -7.4290   18.0920  -32.9800 C   0  0  0  0  0  0  0  0  0  0  0  0
   -8.2720   18.0620  -31.8870 C   0  0  0  0  0  0  0  0  0  0  0  0
   -8.6370   19.2320  -31.2340 C   0  0  0  0  0  0  0  0  0  0  0  0
   -8.1430   20.4390  -31.6940 C   0  0  0  0  0  0  0  0  0  0  0  0
   -7.3000   20.4680  -32.7890 C   0  0  0  0  0  0  0  0  0  0  0  0
   -6.9290   19.3120  -33.4470 C   0  0  0  0  0  0  0  0  0  0  0  0
   -6.0620   19.3070  -34.5760 N   0  0  0  0  0  0  0  0  0  0  0  0
   -4.9170   18.7150  -34.4980 C   0  0  0  0  0  0  0  0  0  0  0  0
   -4.6290   17.5770  -35.1660 N   0  0  0  0  0  0  0  0  0  0  0  0
   -3.4280   16.9740  -35.0700 C   0  0  0  0  0  0  0  0  0  0  0  0
   -2.4600   17.5120  -34.2810 N   0  0  0  0  0  0  0  0  0  0  0  0
   -2.7040   18.6430  -33.5990 C   0  0  0  0  0  0  0  0  0  0  0  0
   -1.6910   19.1410  -32.8190 C   0  0  0  0  0  0  0  0  0  0  0  0
   -1.9210   20.3060  -32.1080 C   0  0  0  0  0  0  0  0  0  0  0  0
   -3.1410   20.9470  -32.1850 C   0  0  0  0  0  0  0  0  0  0  0  0
   -3.3200   22.1600  -31.4180 C   0  0  0  0  0  0  0  0  0  0  0  0
   -3.4480   23.1760  -30.7760 C   0  0  0  0  0  0  0  0  0  0  0  0
   -3.6060   24.4230  -30.0190 C   0  0  0  0  0  0  0  0  0  0  0  0
   -2.4330   24.7290  -29.2220 N   0  0  0  0  0  0  0  0  0  0  0  0
   -2.5570   24.7720  -27.8110 C   0  0  0  0  0  0  0  0  0  0  0  0
   -3.7210   24.5310  -27.3570 O   0  0  0  0  0  0  0  0  0  0  0  0
   -1.4880   25.0610  -26.8850 C   0  0  0  0  0  0  0  0  0  0  0  0
   -1.8320   25.3620  -25.5630 C   0  0  0  0  0  0  0  0  0  0  0  0
   -0.8860   25.6400  -24.6540 N   0  0  0  0  0  0  0  0  0  0  0  0
    0.4250   25.6490  -24.9430 C   0  0  0  0  0  0  0  0  0  0  0  0
    0.7700   25.3610  -26.2120 N   0  0  0  0  0  0  0  0  0  0  0  0
    2.1940   25.3610  -26.5640 C   0  0  0  0  0  0  0  0  0  0  0  0
   -0.1510   25.0730  -27.1680 C   0  0  0  0  0  0  0  0  0  0  0  0
    0.2650   24.8230  -28.2990 O   0  0  0  0  0  0  0  0  0  0  0  0
   -4.1540   20.4400  -32.9710 C   0  0  0  0  0  0  0  0  0  0  0  0
   -3.9470   19.2760  -33.6920 C   0  0  0  0  0  0  0  0  0  0  0  0
   -5.7894   16.2874  -31.0151 H   0  0  0  0  0  0  0  0  0  0  0  0
   -4.3098   16.3881  -32.0287 H   0  0  0  0  0  0  0  0  0  0  0  0
   -5.4923   17.7403  -32.0287 H   0  0  0  0  0  0  0  0  0  0  0  0
   -5.4146   15.7739  -33.9299 H   0  0  0  0  0  0  0  0  0  0  0  0
   -6.5862   15.0638  -32.7768 H   0  0  0  0  0  0  0  0  0  0  0  0
   -8.6602   17.0973  -31.5282 H   0  0  0  0  0  0  0  0  0  0  0  0
   -9.3091   19.1992  -30.3638 H   0  0  0  0  0  0  0  0  0  0  0  0
   -8.4209   21.3757  -31.1886 H   0  0  0  0  0  0  0  0  0  0  0  0
   -6.9154   21.4352  -33.1449 H   0  0  0  0  0  0  0  0  0  0  0  0
   -3.2307   16.0475  -35.6292 H   0  0  0  0  0  0  0  0  0  0  0  0
   -1.5290   17.0110  -34.2300 H   0  0  0  0  0  0  0  0  0  0  0  0
   -0.7202   18.6271  -32.7602 H   0  0  0  0  0  0  0  0  0  0  0  0
   -1.1242   20.7249  -31.4758 H   0  0  0  0  0  0  0  0  0  0  0  0
   -3.7797   25.2477  -30.7259 H   0  0  0  0  0  0  0  0  0  0  0  0
   -4.4580   24.2985  -29.3345 H   0  0  0  0  0  0  0  0  0  0  0  0
   -1.5470   24.9060  -29.7000 H   0  0  0  0  0  0  0  0  0  0  0  0
   -2.8910   25.3708  -25.2655 H   0  0  0  0  0  0  0  0  0  0  0  0
    1.1816   25.8808  -24.1789 H   0  0  0  0  0  0  0  0  0  0  0  0
    2.5499   24.3239  -26.6520 H   0  0  0  0  0  0  0  0  0  0  0  0
    2.3344   25.8795  -27.5239 H   0  0  0  0  0  0  0  0  0  0  0  0
    2.7655   25.8795  -25.7801 H   0  0  0  0  0  0  0  0  0  0  0  0
   -5.1228   20.9581  -33.0251 H   0  0  0  0  0  0  0  0  0  0  0  0
  1  2  1  0
  2  3  1  0
  3  4  1  0
  4  5  2  0
  5  6  1  0
  6  7  2  0
  7  8  1  0
  8  9  2  0
  9 10  1  0
 10 11  2  0
 11 12  1  0
 12 13  2  0
 13 14  1  0
 14 15  1  0
 15 16  2  0
 16 17  1  0
 17 18  2  0
 18 19  1  0
 19 20  3  0
 20 21  1  0
 21 22  1  0
 22 23  1  0
 23 24  2  0
 23 25  1  0
 25 26  2  0
 26 27  1  0
 27 28  2  0
 28 29  1  0
 29 30  1  0
 29 31  1  0
 31 32  2  0
 18 33  1  0
 33 34  2  0
  9  4  1  0
 34 11  1  0
 34 15  1  0
 31 25  1  0
  1 35  1  0
  1 36  1  0
  1 37  1  0
  2 38  1  0
  2 39  1  0
  5 40  1  0
  6 41  1  0
  7 42  1  0
  8 43  1  0
 13 44  1  0
 14 45  1  0
 16 46  1  0
 17 47  1  0
 21 48  1  0
 21 49  1  0
 22 50  1  0
 26 51  1  0
 28 52  1  0
 30 53  1  0
 30 54  1  0
 30 55  1  0
 33 56  1  0
M  END
>  <smiles>  (29) 
CCOc1ccccc1N=c1nc[nH]c2ccc(C#CCNC(=O)c3cncn(C)c3=O)cc12

>  <score_type>  (29) 
oracle

>  <origin>  (29) 
adg

>  <m_score__min__energy>  (29) 
-9.2100000000000009

>  <m_primary>  (29) 
energy

$$$$
29:0
     RDKit          3D

 40 42  0  0  0  0  0  0  0  0999 V2000
   -3.3230   24.9180  -26.4330 C   0  0  0  0  0  0  0  0  0  0  0  0
   -2.0830   25.7480  -26.2230 C   0  0  0  0  0  0  0  0  0  0  0  0
   -1.9250   26.4180  -24.9960 C   0  0  0  0  0  0  0  0  0  0  0  0
   -0.8130   27.2270  -24.7650 C   0  0  0  0  0  0  0  0  0  0  0  0
    0.1580   27.3790  -25.7510 C   0  0  0  0  0  0  0  0  0  0  0  0
    0.0270   26.7140  -26.9700 C   0  0  0  0  0  0  0  0  0  0  0  0
   -1.0800   25.8800  -27.2230 C   0  0  0  0  0  0  0  0  0  0  0  0
   -1.1490   25.1750  -28.5290 C   0  0  0  0  0  0  0  0  0  0  0  0
   -0.1730   24.4930  -28.9420 O   0  0  0  0  0  0  0  0  0  0  0  0
   -2.3220   25.2990  -29.3440 N   0  0  0  0  0  0  0  0  0  0  0  0
   -3.1690   24.1740  -29.7200 C   0  0  0  0  0  0  0  0  0  0  0  0
   -4.6450   24.5300  -29.5270 C   0  0  0  0  0  0  0  0  0  0  0  0
   -5.5050   23.7110  -30.4400 C   0  0  0  0  0  0  0  0  0  0  0  0
   -6.5010   24.1870  -31.2610 C   0  0  0  0  0  0  0  0  0  0  0  0
   -6.9710   23.1690  -31.9360 O   0  0  0  0  0  0  0  0  0  0  0  0
   -6.2910   22.1040  -31.5620 C   0  0  0  0  0  0  0  0  0  0  0  0
   -6.5270   20.7520  -32.1050 C   0  0  0  0  0  0  0  0  0  0  0  0
   -5.6320   20.1980  -33.0380 C   0  0  0  0  0  0  0  0  0  0  0  0
   -5.8530   18.9180  -33.5540 C   0  0  0  0  0  0  0  0  0  0  0  0
   -6.9650   18.1790  -33.1460 C   0  0  0  0  0  0  0  0  0  0  0  0
   -7.1770   16.9360  -33.6470 F   0  0  0  0  0  0  0  0  0  0  0  0
   -7.8600   18.7200  -32.2190 C   0  0  0  0  0  0  0  0  0  0  0  0
   -7.6440   20.0000  -31.7000 C   0  0  0  0  0  0  0  0  0  0  0  0
   -5.3540   22.3880  -30.6300 N   0  0  0  0  0  0  0  0  0  0  0  0
   -3.7448   24.6356  -25.4571 H   0  0  0  0  0  0  0  0  0  0  0  0
   -4.0643   25.5026  -26.9976 H   0  0  0  0  0  0  0  0  0  0  0  0
   -3.0651   24.0099  -26.9976 H   0  0  0  0  0  0  0  0  0  0  0  0
   -2.6866   26.3025  -24.2107 H   0  0  0  0  0  0  0  0  0  0  0  0
   -0.7028   27.7462  -23.8016 H   0  0  0  0  0  0  0  0  0  0  0  0
    1.0298   28.0245  -25.5684 H   0  0  0  0  0  0  0  0  0  0  0  0
    0.7980   26.8424  -27.7440 H   0  0  0  0  0  0  0  0  0  0  0  0
   -2.9916   23.9238  -30.7764 H   0  0  0  0  0  0  0  0  0  0  0  0
   -2.9230   23.3128  -29.0813 H   0  0  0  0  0  0  0  0  0  0  0  0
   -4.9321   24.3311  -28.4839 H   0  0  0  0  0  0  0  0  0  0  0  0
   -4.7883   25.5948  -29.7628 H   0  0  0  0  0  0  0  0  0  0  0  0
   -6.8399   25.2308  -31.3362 H   0  0  0  0  0  0  0  0  0  0  0  0
   -4.7538   20.7750  -33.3632 H   0  0  0  0  0  0  0  0  0  0  0  0
   -5.1488   18.4917  -34.2836 H   0  0  0  0  0  0  0  0  0  0  0  0
   -8.7360   18.1377  -31.8972 H   0  0  0  0  0  0  0  0  0  0  0  0
   -8.3517   20.4212  -30.9708 H   0  0  0  0  0  0  0  0  0  0  0  0
  1  2  1  0
  2  3  2  0
  3  4  1  0
  4  5  2  0
  5  6  1  0
  6  7  2  0
  7  8  1  0
  8  9  2  0
  8 10  1  0
 10 11  1  0
 11 12  1  0
 12 13  1  0
 13 14  2  0
 14 15  1  0
 15 16  1  0
 16 17  1  0
 17 18  2  0
 18 19  1  0
 19 20  2  0
 20 21  1  0
 20 22  1  0
 22 23  2  0
 16 24  2  0
  7  2  1  0
 24 13  1  0
 23 17  1  0
  1 25  1  0
  1 26  1  0
  1 27  1  0
  3 28  1  0
  4 29  1  0
  5 30  1  0
  6 31  1  0
 11 32  1  0
 11 33  1  0
 12 34  1  0
 12 35  1  0
 14 36  1  0
 18 37  1  0
 19 38  1  0
 22 39  1  0
 23 40  1  0
M  CHG  1  10  -1
M  END
>  <UniqueID>  (30) 
25

>  <SMILES>  (30) 
Cc1ccccc1C(=O)[N-]CCc1coc(-c2ccc(F)cc2)n1

>  <Energy>  (30) 
71.54322159762425

>  <Genealogy>  (30) 
Cc1ccccc1C(=O)[N-]CCc1coc(-c2ccc(F)cc2)n1 (protonated)
Cc1ccccc1C(=O)[N-]CCc1coc(-c2ccc(F)cc2)n1 (3D coordinates assigned)
Cc1ccccc1C(=O)[N-]CCc1coc(-c2ccc(F)cc2)n1 (optimized conformer: 71.54322159762425 kcal/mol)

>  <smiles>  (30) 
Cc1ccccc1C(=O)NCCc1coc(-c2ccc(F)cc2)n1

>  <score_type>  (30) 
oracle

>  <origin>  (30) 
adg

>  <m_score__min__energy>  (30) 
-9.6699999999999999

>  <m_primary>  (30) 
energy

$$$$
30:0
     RDKit          3D

 59 62  0  0  0  0  0  0  0  0999 V2000
   -9.2930   21.1970  -31.7150 C   0  0  0  0  0  0  0  0  0  0  0  0
   -9.0680   19.6940  -31.6390 C   0  0  0  0  0  0  0  0  0  0  0  0
   -7.7770   19.3190  -32.3040 C   0  0  0  0  0  0  0  0  0  0  0  0
   -7.4130   19.9300  -33.4620 N   0  0  0  0  0  0  0  0  0  0  0  0
   -6.2290   19.6450  -34.0640 C   0  0  0  0  0  0  0  0  0  0  0  0
   -5.3510   18.7250  -33.4820 C   0  0  0  0  0  0  0  0  0  0  0  0
   -3.9980   18.4420  -34.0810 C   0  0  0  0  0  0  0  0  0  0  0  0
   -3.1620   19.5960  -33.9790 O   0  0  0  0  0  0  0  0  0  0  0  0
   -3.2110   20.5340  -32.9360 C   0  0  0  0  0  0  0  0  0  0  0  0
   -2.5100   20.2570  -31.7570 C   0  0  0  0  0  0  0  0  0  0  0  0
   -2.5890   21.1230  -30.6630 C   0  0  0  0  0  0  0  0  0  0  0  0
   -3.3530   22.2970  -30.7440 C   0  0  0  0  0  0  0  0  0  0  0  0
   -3.5670   23.1550  -29.5250 C   0  0  0  0  0  0  0  0  0  0  0  0
   -3.1380   24.5600  -29.8210 C   0  0  0  0  0  0  0  0  0  0  0  0
   -3.8860   25.3120  -30.5020 O   0  0  0  0  0  0  0  0  0  0  0  0
   -1.9220   25.0500  -29.2460 N   0  0  0  0  0  0  0  0  0  0  0  0
   -1.5220   24.9860  -27.8690 C   0  0  0  0  0  0  0  0  0  0  0  0
   -1.7240   26.0710  -26.9970 C   0  0  0  0  0  0  0  0  0  0  0  0
   -1.3010   25.9960  -25.6680 C   0  0  0  0  0  0  0  0  0  0  0  0
   -0.6620   24.8470  -25.2000 C   0  0  0  0  0  0  0  0  0  0  0  0
   -0.4340   23.7730  -26.0610 C   0  0  0  0  0  0  0  0  0  0  0  0
   -0.8470   23.8360  -27.4030 C   0  0  0  0  0  0  0  0  0  0  0  0
   -0.6320   22.6710  -28.2950 C   0  0  0  0  0  0  0  0  0  0  0  0
   -0.2030   22.8760  -29.4640 O   0  0  0  0  0  0  0  0  0  0  0  0
   -0.9150   21.2770  -27.8590 C   0  0  0  0  0  0  0  0  0  0  0  0
   -0.0630   20.2130  -28.2120 C   0  0  0  0  0  0  0  0  0  0  0  0
   -0.3550   18.9060  -27.8060 C   0  0  0  0  0  0  0  0  0  0  0  0
   -1.5020   18.6430  -27.0570 C   0  0  0  0  0  0  0  0  0  0  0  0
   -2.3660   19.6870  -26.7150 C   0  0  0  0  0  0  0  0  0  0  0  0
   -2.0770   20.9960  -27.1170 C   0  0  0  0  0  0  0  0  0  0  0  0
   -4.0220   22.5990  -31.9390 C   0  0  0  0  0  0  0  0  0  0  0  0
   -3.9480   21.7290  -33.0300 C   0  0  0  0  0  0  0  0  0  0  0  0
   -5.7430   18.1060  -32.2900 C   0  0  0  0  0  0  0  0  0  0  0  0
   -6.9420   18.4080  -31.7260 N   0  0  0  0  0  0  0  0  0  0  0  0
   -9.3549   21.6104  -30.6975 H   0  0  0  0  0  0  0  0  0  0  0  0
   -8.4551   21.6665  -32.2512 H   0  0  0  0  0  0  0  0  0  0  0  0
  -10.2316   21.4006  -32.2512 H   0  0  0  0  0  0  0  0  0  0  0  0
   -9.0335   19.3866  -30.5834 H   0  0  0  0  0  0  0  0  0  0  0  0
   -9.8944   19.1852  -32.1568 H   0  0  0  0  0  0  0  0  0  0  0  0
   -5.9606   20.1382  -35.0099 H   0  0  0  0  0  0  0  0  0  0  0  0
   -3.5297   17.6053  -33.5418 H   0  0  0  0  0  0  0  0  0  0  0  0
   -4.1228   18.1819  -35.1425 H   0  0  0  0  0  0  0  0  0  0  0  0
   -1.8914   19.3498  -31.6907 H   0  0  0  0  0  0  0  0  0  0  0  0
   -2.0500   20.8832  -29.7346 H   0  0  0  0  0  0  0  0  0  0  0  0
   -4.6329   23.1467  -29.2534 H   0  0  0  0  0  0  0  0  0  0  0  0
   -2.9722   22.7587  -28.6888 H   0  0  0  0  0  0  0  0  0  0  0  0
   -2.2176   26.9831  -27.3636 H   0  0  0  0  0  0  0  0  0  0  0  0
   -1.4719   26.8443  -24.9889 H   0  0  0  0  0  0  0  0  0  0  0  0
   -0.3375   24.7880  -24.1506 H   0  0  0  0  0  0  0  0  0  0  0  0
    0.0724   22.8709  -25.6870 H   0  0  0  0  0  0  0  0  0  0  0  0
    0.8382   20.4105  -28.8110 H   0  0  0  0  0  0  0  0  0  0  0  0
    0.3223   18.0832  -28.0785 H   0  0  0  0  0  0  0  0  0  0  0  0
   -1.7262   17.6151  -26.7359 H   0  0  0  0  0  0  0  0  0  0  0  0
   -3.2738   19.4797  -26.1294 H   0  0  0  0  0  0  0  0  0  0  0  0
   -2.7644   21.8124  -26.8505 H   0  0  0  0  0  0  0  0  0  0  0  0
   -4.6085   23.5263  -32.0180 H   0  0  0  0  0  0  0  0  0  0  0  0
   -4.4681   21.9794  -33.9664 H   0  0  0  0  0  0  0  0  0  0  0  0
   -5.0791   17.3731  -31.8082 H   0  0  0  0  0  0  0  0  0  0  0  0
   -7.2140   17.9420  -30.8310 H   0  0  0  0  0  0  0  0  0  0  0  0
  1  2  1  0
  2  3  1  0
  3  4  2  0
  4  5  1  0
  5  6  2  0
  6  7  1  0
  7  8  1  0
  8  9  1  0
  9 10  2  0
 10 11  1  0
 11 12  2  0
 12 13  1  0
 13 14  1  0
 14 15  2  0
 14 16  1  0
 16 17  1  0
 17 18  2  0
 18 19  1  0
 19 20  2  0
 20 21  1  0
 21 22  2  0
 22 23  1  0
 23 24  2  0
 23 25  1  0
 25 26  2  0
 26 27  1  0
 27 28  2  0
 28 29  1  0
 29 30  2  0
 12 31  1  0
 31 32  2  0
  6 33  1  0
 33 34  2  0
 34  3  1  0
 32  9  1  0
 22 17  1  0
 30 25  1  0
  1 35  1  0
  1 36  1  0
  1 37  1  0
  2 38  1  0
  2 39  1  0
  5 40  1  0
  7 41  1  0
  7 42  1  0
 10 43  1  0
 11 44  1  0
 13 45  1  0
 13 46  1  0
 18 47  1  0
 19 48  1  0
 20 49  1  0
 21 50  1  0
 26 51  1  0
 27 52  1  0
 28 53  1  0
 29 54  1  0
 30 55  1  0
 31 56  1  0
 32 57  1  0
 33 58  1  0
 34 59  1  0
M  CHG  2  16  -1  34   1
M  END
>  <UniqueID>  (31) 
26

>  <SMILES>  (31) 
CCc1ncc(COc2ccc(CC(=O)[N-]c3ccccc3C(=O)c3ccccc3)cc2)c[nH+]1

>  <Energy>  (31) 
64.38207912132043

>  <Genealogy>  (31) 
CCc1ncc(COc2ccc(CC(=O)[N-]c3ccccc3C(=O)c3ccccc3)cc2)c[nH+]1 (protonated)
CCc1ncc(COc2ccc(CC(=O)[N-]c3ccccc3C(=O)c3ccccc3)cc2)c[nH+]1 (3D coordinates assigned)
CCc1ncc(COc2ccc(CC(=O)[N-]c3ccccc3C(=O)c3ccccc3)cc2)c[nH+]1 (optimized conformer: 64.38207912132043 kcal/mol)

>  <smiles>  (31) 
CCc1ncc(COc2ccc(CC(=O)Nc3ccccc3C(=O)c3ccccc3)cc2)cn1

>  <score_type>  (31) 
oracle

>  <origin>  (31) 
adg

>  <m_score__min__energy>  (31) 
-12.109999999999999

>  <m_primary>  (31) 
energy

$$$$
31:0
     RDKit          3D

 33 34  0  0  0  0  0  0  0  0999 V2000
   -3.8550   25.3220  -30.7880 O   0  0  0  0  0  0  0  0  0  0  0  0
   -3.5800   24.0750  -30.2070 C   0  0  0  0  0  0  0  0  0  0  0  0
   -3.6280   22.9620  -31.2320 C   0  0  0  0  0  0  0  0  0  0  0  0
   -2.5700   22.0400  -31.3390 C   0  0  0  0  0  0  0  0  0  0  0  0
   -2.6290   21.0040  -32.2710 C   0  0  0  0  0  0  0  0  0  0  0  0
   -3.7360   20.8990  -33.1060 C   0  0  0  0  0  0  0  0  0  0  0  0
   -4.7370   21.8120  -33.0230 N   0  0  0  0  0  0  0  0  0  0  0  0
   -4.7160   22.8410  -32.1300 C   0  0  0  0  0  0  0  0  0  0  0  0
   -5.7980   23.7890  -32.1260 N   0  0  0  0  0  0  0  0  0  0  0  0
   -7.1860   23.3950  -32.3630 C   0  0  0  0  0  0  0  0  0  0  0  0
   -7.7250   22.5390  -31.2100 C   0  0  0  0  0  0  0  0  0  0  0  0
   -7.9270   21.1080  -31.6360 C   0  0  0  0  0  0  0  0  0  0  0  0
   -9.2000   20.6570  -32.0240 C   0  0  0  0  0  0  0  0  0  0  0  0
   -9.3970   19.3190  -32.3770 C   0  0  0  0  0  0  0  0  0  0  0  0
   -8.3270   18.4200  -32.3380 C   0  0  0  0  0  0  0  0  0  0  0  0
   -7.0600   18.8580  -31.9440 C   0  0  0  0  0  0  0  0  0  0  0  0
   -6.8590   20.1960  -31.5930 C   0  0  0  0  0  0  0  0  0  0  0  0
   -3.2800   25.3830  -31.5930 H   0  0  0  0  0  0  0  0  0  0  0  0
   -2.5765   24.1038  -29.7575 H   0  0  0  0  0  0  0  0  0  0  0  0
   -4.3458   23.8739  -29.4434 H   0  0  0  0  0  0  0  0  0  0  0  0
   -1.6917   22.1370  -30.6839 H   0  0  0  0  0  0  0  0  0  0  0  0
   -1.8072   20.2765  -32.3448 H   0  0  0  0  0  0  0  0  0  0  0  0
   -3.8005   20.0764  -33.8335 H   0  0  0  0  0  0  0  0  0  0  0  0
   -5.6060   24.8050  -31.9760 H   0  0  0  0  0  0  0  0  0  0  0  0
   -7.8045   24.2997  -32.4576 H   0  0  0  0  0  0  0  0  0  0  0  0
   -7.2257   22.7992  -33.2868 H   0  0  0  0  0  0  0  0  0  0  0  0
   -7.0066   22.5666  -30.3775 H   0  0  0  0  0  0  0  0  0  0  0  0
   -8.6976   22.9486  -30.8998 H   0  0  0  0  0  0  0  0  0  0  0  0
  -10.0455   21.3602  -32.0500 H   0  0  0  0  0  0  0  0  0  0  0  0
  -10.3945   18.9731  -32.6857 H   0  0  0  0  0  0  0  0  0  0  0  0
   -8.4826   17.3676  -32.6176 H   0  0  0  0  0  0  0  0  0  0  0  0
   -6.2197   18.1490  -31.9100 H   0  0  0  0  0  0  0  0  0  0  0  0
   -5.8604   20.5364  -31.2818 H   0  0  0  0  0  0  0  0  0  0  0  0
  1  2  1  0
  2  3  1  0
  3  4  2  0
  4  5  1  0
  5  6  2  0
  6  7  1  0
  7  8  2  0
  8  9  1  0
  9 10  1  0
 10 11  1  0
 11 12  1  0
 12 13  2  0
 13 14  1  0
 14 15  2  0
 15 16  1  0
 16 17  2  0
  8  3  1  0
 17 12  1  0
  1 18  1  0
  2 19  1  0
  2 20  1  0
  4 21  1  0
  5 22  1  0
  6 23  1  0
  9 24  1  0
 10 25  1  0
 10 26  1  0
 11 27  1  0
 11 28  1  0
 13 29  1  0
 14 30  1  0
 15 31  1  0
 16 32  1  0
 17 33  1  0
M  END
>  <UniqueID>  (32) 
27

>  <SMILES>  (32) 
OCc1cccnc1NCCc1ccccc1

>  <Energy>  (32) 
30.93742698879075

>  <Genealogy>  (32) 
OCc1cccnc1NCCc1ccccc1 (3D coordinates assigned)
OCc1cccnc1NCCc1ccccc1 (optimized conformer: 30.93742698879075 kcal/mol)

>  <smiles>  (32) 
OCc1cccnc1NCCc1ccccc1

>  <score_type>  (32) 
oracle

>  <origin>  (32) 
adg

>  <m_score__min__energy>  (32) 
-7.7000000000000002

>  <m_primary>  (32) 
energy

$$$$
32:0
     RDKit          3D

 27 28  0  0  0  0  0  0  0  0999 V2000
   -5.2100   17.7140  -34.9680 C   0  0  0  0  0  0  0  0  0  0  0  0
   -5.4360   18.9000  -34.2150 O   0  0  0  0  0  0  0  0  0  0  0  0
   -6.5250   19.0940  -33.3520 C   0  0  0  0  0  0  0  0  0  0  0  0
   -7.2280   18.0230  -32.7710 C   0  0  0  0  0  0  0  0  0  0  0  0
   -8.3050   18.2700  -31.9190 C   0  0  0  0  0  0  0  0  0  0  0  0
   -8.6920   19.5830  -31.6340 C   0  0  0  0  0  0  0  0  0  0  0  0
   -7.9960   20.6700  -32.1950 C   0  0  0  0  0  0  0  0  0  0  0  0
   -8.3620   22.0800  -31.8910 C   0  0  0  0  0  0  0  0  0  0  0  0
   -9.5710   22.4290  -31.9700 O   0  0  0  0  0  0  0  0  0  0  0  0
   -7.3430   23.1440  -31.5800 C   0  0  0  0  0  0  0  0  0  0  0  0
   -6.8610   23.0790  -29.8210 S   0  0  0  0  0  0  0  0  0  0  0  0
   -5.3400   24.0020  -30.0310 C   0  0  0  0  0  0  0  0  0  0  0  0
   -4.2690   24.0320  -29.1730 C   0  0  0  0  0  0  0  0  0  0  0  0
   -3.3550   24.8580  -29.7110 N   0  0  0  0  0  0  0  0  0  0  0  0
   -3.8650   25.3080  -30.8490 N   0  0  0  0  0  0  0  0  0  0  0  0
   -5.0720   24.8080  -31.0710 N   0  0  0  0  0  0  0  0  0  0  0  0
   -6.9200   20.4060  -33.0640 C   0  0  0  0  0  0  0  0  0  0  0  0
   -5.0490   16.8693  -34.2821 H   0  0  0  0  0  0  0  0  0  0  0  0
   -6.0854   17.5098  -35.6020 H   0  0  0  0  0  0  0  0  0  0  0  0
   -4.3209   17.8461  -35.6020 H   0  0  0  0  0  0  0  0  0  0  0  0
   -6.9277   16.9875  -32.9891 H   0  0  0  0  0  0  0  0  0  0  0  0
   -8.8520   17.4281  -31.4696 H   0  0  0  0  0  0  0  0  0  0  0  0
   -9.5466   19.7677  -30.9665 H   0  0  0  0  0  0  0  0  0  0  0  0
   -6.4519   22.9846  -32.2049 H   0  0  0  0  0  0  0  0  0  0  0  0
   -7.7844   24.1294  -31.7901 H   0  0  0  0  0  0  0  0  0  0  0  0
   -4.1761   23.4835  -28.2240 H   0  0  0  0  0  0  0  0  0  0  0  0
   -6.3798   21.2460  -33.5251 H   0  0  0  0  0  0  0  0  0  0  0  0
  1  2  1  0
  2  3  1  0
  3  4  2  0
  4  5  1  0
  5  6  2  0
  6  7  1  0
  7  8  1  0
  8  9  2  0
  8 10  1  0
 10 11  1  0
 11 12  1  0
 12 13  2  0
 13 14  1  0
 14 15  1  0
 15 16  2  0
  7 17  2  0
 17  3  1  0
 16 12  1  0
  1 18  1  0
  1 19  1  0
  1 20  1  0
  4 21  1  0
  5 22  1  0
  6 23  1  0
 10 24  1  0
 10 25  1  0
 13 26  1  0
 17 27  1  0
M  CHG  1  14  -1
M  END
>  <UniqueID>  (33) 
28

>  <SMILES>  (33) 
COc1cccc(C(=O)CSc2c[n-]nn2)c1

>  <Energy>  (33) 
59.05782640857377

>  <Genealogy>  (33) 
COc1cccc(C(=O)CSc2c[n-]nn2)c1 (protonated)
COc1cccc(C(=O)CSc2c[n-]nn2)c1 (3D coordinates assigned)
COc1cccc(C(=O)CSc2c[n-]nn2)c1 (optimized conformer: 59.05782640857377 kcal/mol)

>  <smiles>  (33) 
COc1cccc(C(=O)CSc2c[nH]nn2)c1

>  <score_type>  (33) 
oracle

>  <origin>  (33) 
adg

>  <m_score__min__energy>  (33) 
-8.8800000000000008

>  <m_primary>  (33) 
energy

$$$$
33:0
     RDKit          3D

 35 36  0  0  0  0  0  0  0  0999 V2000
   -7.3810   18.1690  -31.6400 C   0  0  0  0  0  0  0  0  0  0  0  0
   -8.5400   18.8050  -31.8330 C   0  0  0  0  0  0  0  0  0  0  0  0
   -8.6240   20.0520  -32.6660 C   0  0  0  0  0  0  0  0  0  0  0  0
   -7.9290   21.1540  -32.0030 N   0  0  0  0  0  0  0  0  0  0  0  0
   -8.4250   21.9890  -31.0550 C   0  0  0  0  0  0  0  0  0  0  0  0
   -7.5000   22.8820  -30.6170 N   0  0  0  0  0  0  0  0  0  0  0  0
   -6.3870   22.5760  -31.3090 C   0  0  0  0  0  0  0  0  0  0  0  0
   -5.1200   23.1660  -31.3080 C   0  0  0  0  0  0  0  0  0  0  0  0
   -4.7750   24.2720  -30.4500 N   0  0  0  0  0  0  0  0  0  0  0  0
   -5.5340   25.5300  -30.5220 C   0  0  0  0  0  0  0  0  0  0  0  0
   -6.5010   25.6670  -29.3460 C   0  0  0  0  0  0  0  0  0  0  0  0
   -3.8820   24.0290  -29.3070 C   0  0  0  0  0  0  0  0  0  0  0  0
   -4.3010   22.7640  -28.5670 C   0  0  0  0  0  0  0  0  0  0  0  0
   -4.1980   22.6580  -32.1820 N   0  0  0  0  0  0  0  0  0  0  0  0
   -4.4890   21.6080  -33.0140 C   0  0  0  0  0  0  0  0  0  0  0  0
   -5.7300   21.0370  -33.0010 N   0  0  0  0  0  0  0  0  0  0  0  0
   -6.6510   21.5390  -32.1430 C   0  0  0  0  0  0  0  0  0  0  0  0
   -7.3496   17.2576  -31.0249 H   0  0  0  0  0  0  0  0  0  0  0  0
   -6.4582   18.5568  -32.0962 H   0  0  0  0  0  0  0  0  0  0  0  0
   -9.4548   18.4057  -31.3707 H   0  0  0  0  0  0  0  0  0  0  0  0
   -8.1583   19.8662  -33.6451 H   0  0  0  0  0  0  0  0  0  0  0  0
   -9.6818   20.3238  -32.7968 H   0  0  0  0  0  0  0  0  0  0  0  0
   -9.4594   21.9473  -30.6833 H   0  0  0  0  0  0  0  0  0  0  0  0
   -7.6460   23.6360  -29.9150 H   0  0  0  0  0  0  0  0  0  0  0  0
   -4.8293   26.3744  -30.5059 H   0  0  0  0  0  0  0  0  0  0  0  0
   -6.1198   25.5277  -31.4530 H   0  0  0  0  0  0  0  0  0  0  0  0
   -5.9430   25.5879  -28.4013 H   0  0  0  0  0  0  0  0  0  0  0  0
   -7.0019   26.6451  -29.3952 H   0  0  0  0  0  0  0  0  0  0  0  0
   -7.2539   24.8666  -29.3952 H   0  0  0  0  0  0  0  0  0  0  0  0
   -2.8506   23.9115  -29.6710 H   0  0  0  0  0  0  0  0  0  0  0  0
   -3.9435   24.8837  -28.6172 H   0  0  0  0  0  0  0  0  0  0  0  0
   -4.2435   22.9377  -27.4823 H   0  0  0  0  0  0  0  0  0  0  0  0
   -5.3335   22.5031  -28.8423 H   0  0  0  0  0  0  0  0  0  0  0  0
   -3.6284   21.9383  -28.8423 H   0  0  0  0  0  0  0  0  0  0  0  0
   -3.7177   21.2225  -33.6970 H   0  0  0  0  0  0  0  0  0  0  0  0
  1  2  2  0
  2  3  1  0
  3  4  1  0
  4  5  1  0
  5  6  2  0
  6  7  1  0
  7  8  2  0
  8  9  1  0
  9 10  1  0
 10 11  1  0
  9 12  1  0
 12 13  1  0
  8 14  1  0
 14 15  2  0
 15 16  1  0
 16 17  2  0
 17  4  1  0
 17  7  1  0
  1 18  1  0
  1 19  1  0
  2 20  1  0
  3 21  1  0
  3 22  1  0
  5 23  1  0
  6 24  1  0
 10 25  1  0
 10 26  1  0
 11 27  1  0
 11 28  1  0
 11 29  1  0
 12 30  1  0
 12 31  1  0
 13 32  1  0
 13 33  1  0
 13 34  1  0
 15 35  1  0
M  CHG  1   6   1
M  END
>  <UniqueID>  (34) 
29

>  <SMILES>  (34) 
C=CCn1c[nH+]c2c(N(CC)CC)ncnc21

>  <Energy>  (34) 
71.12411686513902

>  <Genealogy>  (34) 
C=CCn1c[nH+]c2c(N(CC)CC)ncnc21 (protonated)
C=CCn1c[nH+]c2c(N(CC)CC)ncnc21 (3D coordinates assigned)
C=CCn1c[nH+]c2c(N(CC)CC)ncnc21 (optimized conformer: 71.12411686513902 kcal/mol)

>  <smiles>  (34) 
C=CCn1cnc2c(N(CC)CC)ncnc21

>  <score_type>  (34) 
oracle

>  <origin>  (34) 
adg

>  <m_score__min__energy>  (34) 
-4.9800000000000004

>  <m_primary>  (34) 
energy

$$$$
34:0
     RDKit          3D

 48 50  0  0  0  0  0  0  0  0999 V2000
   -2.7450   18.1280  -34.2450 C   0  0  0  0  0  0  0  0  0  0  0  0
   -4.0760   18.4080  -33.5260 C   0  0  2  0  0  0  0  0  0  0  0  0
   -5.2130   18.4570  -34.4660 N   0  0  0  0  0  0  0  0  0  0  0  0
   -6.3530   17.6530  -34.0060 C   0  0  0  0  0  0  0  0  0  0  0  0
   -7.2150   18.4780  -33.0940 C   0  0  0  0  0  0  0  0  0  0  0  0
   -7.2570   19.8750  -33.2180 C   0  0  0  0  0  0  0  0  0  0  0  0
   -8.0330   20.6300  -32.3380 C   0  0  0  0  0  0  0  0  0  0  0  0
   -8.7520   19.9830  -31.3320 C   0  0  0  0  0  0  0  0  0  0  0  0
   -8.6930   18.6300  -31.2110 N   0  0  0  0  0  0  0  0  0  0  0  0
   -7.9420   17.8720  -32.0570 C   0  0  0  0  0  0  0  0  0  0  0  0
   -3.9960   19.7150  -32.7650 C   0  0  0  0  0  0  0  0  0  0  0  0
   -3.3030   20.8110  -33.3090 C   0  0  0  0  0  0  0  0  0  0  0  0
   -3.2300   22.0210  -32.6140 C   0  0  0  0  0  0  0  0  0  0  0  0
   -3.8490   22.1590  -31.3620 C   0  0  0  0  0  0  0  0  0  0  0  0
   -3.7660   23.4570  -30.6000 C   0  0  0  0  0  0  0  0  0  0  0  0
   -4.6500   24.4740  -31.2100 N   0  0  0  0  0  0  0  0  0  0  0  0
   -5.2960   25.2960  -30.1790 C   0  0  0  0  0  0  0  0  0  0  0  0
   -6.6210   24.6410  -29.8230 C   0  0  0  0  0  0  0  0  0  0  0  0
   -6.9510   23.7390  -30.9990 C   0  0  0  0  0  0  0  0  0  0  0  0
   -5.7630   23.8520  -31.9450 C   0  0  0  0  0  0  0  0  0  0  0  0
   -4.5450   21.0700  -30.8170 C   0  0  0  0  0  0  0  0  0  0  0  0
   -4.6200   19.8600  -31.5120 C   0  0  0  0  0  0  0  0  0  0  0  0
   -1.9535   17.9615  -33.4995 H   0  0  0  0  0  0  0  0  0  0  0  0
   -2.8498   17.2322  -34.8748 H   0  0  0  0  0  0  0  0  0  0  0  0
   -2.4800   18.9901  -34.8748 H   0  0  0  0  0  0  0  0  0  0  0  0
   -4.2478   17.5771  -32.8260 H   0  0  0  0  0  0  0  0  0  0  0  0
   -4.9140   18.1050  -35.4060 H   0  0  0  0  0  0  0  0  0  0  0  0
   -6.9451   17.3270  -34.8738 H   0  0  0  0  0  0  0  0  0  0  0  0
   -5.9829   16.7719  -33.4613 H   0  0  0  0  0  0  0  0  0  0  0  0
   -6.6783   20.3748  -34.0088 H   0  0  0  0  0  0  0  0  0  0  0  0
   -8.0777   21.7247  -32.4362 H   0  0  0  0  0  0  0  0  0  0  0  0
   -9.3684   20.5695  -30.6348 H   0  0  0  0  0  0  0  0  0  0  0  0
   -9.2310   18.1600  -30.4480 H   0  0  0  0  0  0  0  0  0  0  0  0
   -7.9048   16.7803  -31.9274 H   0  0  0  0  0  0  0  0  0  0  0  0
   -2.8143   20.7150  -34.2898 H   0  0  0  0  0  0  0  0  0  0  0  0
   -2.6842   22.8703  -33.0507 H   0  0  0  0  0  0  0  0  0  0  0  0
   -4.0761   23.2857  -29.5586 H   0  0  0  0  0  0  0  0  0  0  0  0
   -2.7289   23.8223  -30.6320 H   0  0  0  0  0  0  0  0  0  0  0  0
   -4.6541   25.3500  -29.2874 H   0  0  0  0  0  0  0  0  0  0  0  0
   -5.4610   26.3180  -30.5509 H   0  0  0  0  0  0  0  0  0  0  0  0
   -6.5232   24.0505  -28.9001 H   0  0  0  0  0  0  0  0  0  0  0  0
   -7.4108   25.3851  -29.6427 H   0  0  0  0  0  0  0  0  0  0  0  0
   -7.0768   22.6993  -30.6625 H   0  0  0  0  0  0  0  0  0  0  0  0
   -7.8912   24.0338  -31.4879 H   0  0  0  0  0  0  0  0  0  0  0  0
   -5.4670   22.8513  -32.2928 H   0  0  0  0  0  0  0  0  0  0  0  0
   -6.0298   24.4626  -32.8202 H   0  0  0  0  0  0  0  0  0  0  0  0
   -5.0346   21.1690  -29.8369 H   0  0  0  0  0  0  0  0  0  0  0  0
   -5.1714   19.0139  -31.0761 H   0  0  0  0  0  0  0  0  0  0  0  0
  1  2  1  0
  2  3  1  0
  3  4  1  0
  4  5  1  0
  5  6  2  0
  6  7  1  0
  7  8  2  0
  8  9  1  0
  9 10  2  0
  2 11  1  0
 11 12  2  0
 12 13  1  0
 13 14  2  0
 14 15  1  0
 15 16  1  0
 16 17  1  0
 17 18  1  0
 18 19  1  0
 19 20  1  0
 14 21  1  0
 21 22  2  0
 10  5  1  0
 22 11  1  0
 20 16  1  0
  1 23  1  0
  1 24  1  0
  1 25  1  0
  2 26  1  1
  3 27  1  0
  4 28  1  0
  4 29  1  0
  6 30  1  0
  7 31  1  0
  8 32  1  0
  9 33  1  0
 10 34  1  0
 12 35  1  0
 13 36  1  0
 15 37  1  0
 15 38  1  0
 17 39  1  0
 17 40  1  0
 18 41  1  0
 18 42  1  0
 19 43  1  0
 19 44  1  0
 20 45  1  0
 20 46  1  0
 21 47  1  0
 22 48  1  0
M  CHG  1   9   1
M  END
>  <UniqueID>  (35) 
30

>  <SMILES>  (35) 
C[C@H](NCc1ccc[nH+]c1)c1ccc(CN2CCCC2)cc1

>  <Energy>  (35) 
50.253403601238325

>  <Genealogy>  (35) 
CC(NCc1ccc[nH+]c1)c1ccc(CN2CCCC2)cc1 (protonated)
C[C@H](NCc1ccc[nH+]c1)c1ccc(CN2CCCC2)cc1 (chirality)
C[C@H](NCc1ccc[nH+]c1)c1ccc(CN2CCCC2)cc1 (3D coordinates assigned)
C[C@H](NCc1ccc[nH+]c1)c1ccc(CN2CCCC2)cc1 (nonaromatic ring conformer: 50.253403601238325 kcal/mol)

>  <smiles>  (35) 
CC(NCc1cccnc1)c1ccc(CN2CCCC2)cc1

>  <score_type>  (35) 
oracle

>  <origin>  (35) 
adg

>  <m_score__min__energy>  (35) 
-8.5199999999999996

>  <m_primary>  (35) 
energy

$$$$
35:0
     RDKit          3D

 36 40  0  0  0  0  0  0  0  0999 V2000
   -0.6620   17.5050  -26.7180 F   0  0  0  0  0  0  0  0  0  0  0  0
   -1.2330   18.6060  -27.2650 C   0  0  0  0  0  0  0  0  0  0  0  0
   -2.4570   19.0730  -26.7790 C   0  0  0  0  0  0  0  0  0  0  0  0
   -3.0480   20.2090  -27.3410 C   0  0  0  0  0  0  0  0  0  0  0  0
   -2.4190   20.8900  -28.3990 C   0  0  0  0  0  0  0  0  0  0  0  0
   -3.0310   22.0990  -28.9990 C   0  0  0  0  0  0  0  0  0  0  0  0
   -4.3140   22.1260  -29.4600 N   0  0  0  0  0  0  0  0  0  0  0  0
   -4.5860   23.3260  -29.9450 N   0  0  0  0  0  0  0  0  0  0  0  0
   -5.5360   23.8350  -30.7320 C   0  0  0  0  0  0  0  0  0  0  0  0
   -6.7580   23.1090  -31.1970 C   0  0  0  0  0  0  0  0  0  0  0  0
   -6.3730   21.9170  -31.9510 N   0  0  0  0  0  0  0  0  0  0  0  0
   -5.1860   21.7070  -32.5750 C   0  0  0  0  0  0  0  0  0  0  0  0
   -5.0730   20.4610  -33.1060 N   0  0  0  0  0  0  0  0  0  0  0  0
   -6.2460   19.8840  -32.7830 C   0  0  0  0  0  0  0  0  0  0  0  0
   -6.6580   18.5840  -33.0670 C   0  0  0  0  0  0  0  0  0  0  0  0
   -7.9250   18.1830  -32.6060 C   0  0  0  0  0  0  0  0  0  0  0  0
   -8.7410   19.0820  -31.8820 C   0  0  0  0  0  0  0  0  0  0  0  0
   -8.2970   20.3900  -31.6140 C   0  0  0  0  0  0  0  0  0  0  0  0
   -7.0310   20.7530  -32.0840 C   0  0  0  0  0  0  0  0  0  0  0  0
   -5.1150   25.0350  -31.2130 N   0  0  0  0  0  0  0  0  0  0  0  0
   -3.8890   25.2680  -30.7290 N   0  0  0  0  0  0  0  0  0  0  0  0
   -3.6170   24.2030  -29.9560 C   0  0  0  0  0  0  0  0  0  0  0  0
   -2.2070   23.5930  -29.2930 S   0  0  0  0  0  0  0  0  0  0  0  0
   -1.1880   20.4090  -28.8820 C   0  0  0  0  0  0  0  0  0  0  0  0
   -0.6000   19.2730  -28.3160 C   0  0  0  0  0  0  0  0  0  0  0  0
   -2.9567   18.5461  -25.9528 H   0  0  0  0  0  0  0  0  0  0  0  0
   -4.0111   20.5724  -26.9532 H   0  0  0  0  0  0  0  0  0  0  0  0
   -7.3587   22.8106  -30.3251 H   0  0  0  0  0  0  0  0  0  0  0  0
   -7.3481   23.7727  -31.8461 H   0  0  0  0  0  0  0  0  0  0  0  0
   -4.3952   22.4685  -32.6440 H   0  0  0  0  0  0  0  0  0  0  0  0
   -6.0143   17.8943  -33.6327 H   0  0  0  0  0  0  0  0  0  0  0  0
   -8.2832   17.1632  -32.8102 H   0  0  0  0  0  0  0  0  0  0  0  0
   -9.7296   18.7569  -31.5258 H   0  0  0  0  0  0  0  0  0  0  0  0
   -8.9230   21.1011  -31.0551 H   0  0  0  0  0  0  0  0  0  0  0  0
   -0.6848   20.9297  -29.7101 H   0  0  0  0  0  0  0  0  0  0  0  0
    0.3628   18.9043  -28.6995 H   0  0  0  0  0  0  0  0  0  0  0  0
  1  2  1  0
  2  3  2  0
  3  4  1  0
  4  5  2  0
  5  6  1  0
  6  7  2  0
  7  8  1  0
  8  9  1  0
  9 10  1  0
 10 11  1  0
 11 12  1  0
 12 13  2  0
 13 14  1  0
 14 15  2  0
 15 16  1  0
 16 17  2  0
 17 18  1  0
 18 19  2  0
  9 20  2  0
 20 21  1  0
 21 22  2  0
 22 23  1  0
  5 24  1  0
 24 25  2  0
 25  2  1  0
 23  6  1  0
 22  8  1  0
 19 11  1  0
 19 14  1  0
  3 26  1  0
  4 27  1  0
 10 28  1  0
 10 29  1  0
 12 30  1  0
 15 31  1  0
 16 32  1  0
 17 33  1  0
 18 34  1  0
 24 35  1  0
 25 36  1  0
M  END
>  <UniqueID>  (36) 
31

>  <SMILES>  (36) 
Fc1ccc(-c2nn3c(Cn4cnc5ccccc54)nnc3s2)cc1

>  <Energy>  (36) 
171.0857136041246

>  <Genealogy>  (36) 
Fc1ccc(-c2nn3c(Cn4cnc5ccccc54)nnc3s2)cc1 (3D coordinates assigned)
Fc1ccc(-c2nn3c(Cn4cnc5ccccc54)nnc3s2)cc1 (optimized conformer: 171.0857136041246 kcal/mol)

>  <smiles>  (36) 
Fc1ccc(-c2nn3c(Cn4cnc5ccccc54)nnc3s2)cc1

>  <score_type>  (36) 
oracle

>  <origin>  (36) 
adg

>  <m_score__min__energy>  (36) 
-9.1500000000000004

>  <m_primary>  (36) 
energy

$$$$
36:0
     RDKit          3D

 27 29  0  0  0  0  0  0  0  0999 V2000
   -9.1060   18.8980  -31.6350 O   0  0  0  0  0  0  0  0  0  0  0  0
   -8.0250   19.4950  -31.8900 C   0  0  0  0  0  0  0  0  0  0  0  0
   -7.7870   20.7540  -31.3350 C   0  0  0  0  0  0  0  0  0  0  0  0
   -6.5770   21.4220  -31.6180 C   0  0  0  0  0  0  0  0  0  0  0  0
   -6.2430   22.7710  -31.0650 C   0  0  0  0  0  0  0  0  0  0  0  0
   -7.2270   23.6800  -30.6120 C   0  0  0  0  0  0  0  0  0  0  0  0
   -6.8610   24.9300  -30.1040 C   0  0  0  0  0  0  0  0  0  0  0  0
   -5.5170   25.2980  -30.0360 C   0  0  0  0  0  0  0  0  0  0  0  0
   -4.5330   24.4140  -30.4780 C   0  0  0  0  0  0  0  0  0  0  0  0
   -4.8890   23.1630  -30.9890 C   0  0  0  0  0  0  0  0  0  0  0  0
   -5.6860   20.8310  -32.4160 O   0  0  0  0  0  0  0  0  0  0  0  0
   -5.8700   19.6350  -32.9660 C   0  0  0  0  0  0  0  0  0  0  0  0
   -4.8780   19.0910  -33.7900 C   0  0  0  0  0  0  0  0  0  0  0  0
   -5.0630   17.8350  -34.3730 C   0  0  0  0  0  0  0  0  0  0  0  0
   -6.2380   17.1150  -34.1360 C   0  0  0  0  0  0  0  0  0  0  0  0
   -7.2350   17.6490  -33.3130 C   0  0  0  0  0  0  0  0  0  0  0  0
   -7.0580   18.9140  -32.7220 C   0  0  0  0  0  0  0  0  0  0  0  0
   -8.5380   21.2219  -30.6814 H   0  0  0  0  0  0  0  0  0  0  0  0
   -8.2900   23.4010  -30.6598 H   0  0  0  0  0  0  0  0  0  0  0  0
   -7.6372   25.6274  -29.7559 H   0  0  0  0  0  0  0  0  0  0  0  0
   -5.2342   26.2825  -29.6349 H   0  0  0  0  0  0  0  0  0  0  0  0
   -3.4729   24.7025  -30.4242 H   0  0  0  0  0  0  0  0  0  0  0  0
   -4.1042   22.4750  -31.3364 H   0  0  0  0  0  0  0  0  0  0  0  0
   -3.9515   19.6531  -33.9788 H   0  0  0  0  0  0  0  0  0  0  0  0
   -4.2816   17.4110  -35.0208 H   0  0  0  0  0  0  0  0  0  0  0  0
   -6.3786   16.1266  -34.5978 H   0  0  0  0  0  0  0  0  0  0  0  0
   -8.1579   17.0799  -33.1276 H   0  0  0  0  0  0  0  0  0  0  0  0
  1  2  2  0
  2  3  1  0
  3  4  2  0
  4  5  1  0
  5  6  2  0
  6  7  1  0
  7  8  2  0
  8  9  1  0
  9 10  2  0
  4 11  1  0
 11 12  1  0
 12 13  2  0
 13 14  1  0
 14 15  2  0
 15 16  1  0
 16 17  2  0
 17  2  1  0
 10  5  1  0
 17 12  1  0
  3 18  1  0
  6 19  1  0
  7 20  1  0
  8 21  1  0
  9 22  1  0
 10 23  1  0
 13 24  1  0
 14 25  1  0
 15 26  1  0
 16 27  1  0
M  END
>  <UniqueID>  (37) 
32

>  <SMILES>  (37) 
O=c1cc(-c2ccccc2)oc2ccccc12

>  <Energy>  (37) 
39.352662888009135

>  <Genealogy>  (37) 
O=c1cc(-c2ccccc2)oc2ccccc12 (3D coordinates assigned)
O=c1cc(-c2ccccc2)oc2ccccc12 (optimized conformer: 39.352662888009135 kcal/mol)

>  <smiles>  (37) 
O=c1cc(-c2ccccc2)oc2ccccc12

>  <score_type>  (37) 
oracle

>  <origin>  (37) 
adg

>  <m_score__min__energy>  (37) 
-6.9900000000000002

>  <m_primary>  (37) 
energy

$$$$
37:0
     RDKit          3D

 35 36  0  0  0  0  0  0  0  0999 V2000
   -6.1770   25.6700  -29.6670 C   0  0  0  0  0  0  0  0  0  0  0  0
   -5.3620   24.4260  -29.3270 C   0  0  0  0  0  0  0  0  0  0  0  0
   -3.9360   24.5310  -29.8840 C   0  0  0  0  0  0  0  0  0  0  0  0
   -3.2010   23.1790  -29.9070 C   0  0  0  0  0  0  0  0  0  0  0  0
   -3.9980   22.0550  -30.6040 C   0  0  0  0  0  0  0  0  0  0  0  0
   -3.6350   21.9240  -32.0960 C   0  0  0  0  0  0  0  0  0  0  0  0
   -4.8230   22.0500  -32.9660 N   0  0  0  0  0  0  0  0  0  0  0  0
   -5.8530   22.8670  -32.3620 C   0  0  0  0  0  0  0  0  0  0  0  0
   -5.7440   24.1100  -32.1930 O   0  0  0  0  0  0  0  0  0  0  0  0
   -7.0570   22.1090  -32.0570 C   0  0  0  0  0  0  0  0  0  0  0  0
   -8.2610   22.4980  -31.4740 C   0  0  0  0  0  0  0  0  0  0  0  0
   -9.2670   21.5260  -31.3260 C   0  0  0  0  0  0  0  0  0  0  0  0
   -9.0500   20.2020  -31.7690 C   0  0  0  0  0  0  0  0  0  0  0  0
   -7.8260   19.8430  -32.3600 C   0  0  0  0  0  0  0  0  0  0  0  0
   -6.8470   20.8290  -32.4850 C   0  0  0  0  0  0  0  0  0  0  0  0
   -5.5110   20.7830  -33.0580 C   0  0  0  0  0  0  0  0  0  0  0  0
   -5.0140   19.7630  -33.6090 O   0  0  0  0  0  0  0  0  0  0  0  0
   -6.4995   26.1623  -28.7377 H   0  0  0  0  0  0  0  0  0  0  0  0
   -5.5583   26.3645  -30.2542 H   0  0  0  0  0  0  0  0  0  0  0  0
   -7.0608   25.3801  -30.2542 H   0  0  0  0  0  0  0  0  0  0  0  0
   -5.3135   24.3160  -28.2336 H   0  0  0  0  0  0  0  0  0  0  0  0
   -5.8515   23.5523  -29.7820 H   0  0  0  0  0  0  0  0  0  0  0  0
   -3.9883   24.9196  -30.9117 H   0  0  0  0  0  0  0  0  0  0  0  0
   -3.3711   25.2026  -29.2207 H   0  0  0  0  0  0  0  0  0  0  0  0
   -2.2472   23.3105  -30.4389 H   0  0  0  0  0  0  0  0  0  0  0  0
   -3.0570   22.8718  -28.8606 H   0  0  0  0  0  0  0  0  0  0  0  0
   -3.7795   21.1014  -30.1011 H   0  0  0  0  0  0  0  0  0  0  0  0
   -5.0667   22.3069  -30.5370 H   0  0  0  0  0  0  0  0  0  0  0  0
   -2.9170   22.7151  -32.3580 H   0  0  0  0  0  0  0  0  0  0  0  0
   -3.2010   20.9257  -32.2546 H   0  0  0  0  0  0  0  0  0  0  0  0
   -4.5880   22.3960  -33.9260 H   0  0  0  0  0  0  0  0  0  0  0  0
   -8.4201   23.5338  -31.1396 H   0  0  0  0  0  0  0  0  0  0  0  0
  -10.2271   21.7980  -30.8632 H   0  0  0  0  0  0  0  0  0  0  0  0
   -9.8426   19.4485  -31.6509 H   0  0  0  0  0  0  0  0  0  0  0  0
   -7.6458   18.8168  -32.7128 H   0  0  0  0  0  0  0  0  0  0  0  0
  1  2  1  0
  2  3  1  0
  3  4  1  0
  4  5  1  0
  5  6  1  0
  6  7  1  0
  7  8  1  0
  8  9  2  0
  8 10  1  0
 10 11  2  0
 11 12  1  0
 12 13  2  0
 13 14  1  0
 14 15  2  0
 15 16  1  0
 16 17  2  0
 16  7  1  0
 15 10  1  0
  1 18  1  0
  1 19  1  0
  1 20  1  0
  2 21  1  0
  2 22  1  0
  3 23  1  0
  3 24  1  0
  4 25  1  0
  4 26  1  0
  5 27  1  0
  5 28  1  0
  6 29  1  0
  6 30  1  0
  7 31  1  0
 11 32  1  0
 12 33  1  0
 13 34  1  0
 14 35  1  0
M  CHG  1   7   1
M  END
>  <UniqueID>  (38) 
33

>  <SMILES>  (38) 
CCCCCC[NH+]1C(=O)c2ccccc2C1=O

>  <Energy>  (38) 
54.062024611738934

>  <Genealogy>  (38) 
CCCCCC[NH+]1C(=O)c2ccccc2C1=O (protonated)
CCCCCC[NH+]1C(=O)c2ccccc2C1=O (3D coordinates assigned)
CCCCCC[NH+]1C(=O)c2ccccc2C1=O (nonaromatic ring conformer: 54.062024611738934 kcal/mol)

>  <smiles>  (38) 
CCCCCCN1C(=O)c2ccccc2C1=O

>  <score_type>  (38) 
oracle

>  <origin>  (38) 
adg

>  <m_score__min__energy>  (38) 
-6.4299999999999997

>  <m_primary>  (38) 
energy

$$$$
38:0
     RDKit          3D

 29 31  0  0  0  0  0  0  0  0999 V2000
   -3.9080   22.1390  -33.4970 N   0  0  0  0  0  0  0  0  0  0  0  0
   -5.0440   21.4650  -32.9280 C   0  0  0  0  0  0  0  0  0  0  0  0
   -6.0620   22.2510  -32.4480 C   0  0  0  0  0  0  0  0  0  0  0  0
   -7.3850   21.8790  -31.8330 C   0  0  0  0  0  0  0  0  0  0  0  0
   -7.8640   22.6630  -30.9710 O   0  0  0  0  0  0  0  0  0  0  0  0
   -8.2550   20.7160  -32.2930 C   0  0  2  0  0  0  0  0  0  0  0  0
   -8.9660   19.9440  -31.1720 C   0  0  0  0  0  0  0  0  0  0  0  0
   -9.0380   18.4780  -31.6410 C   0  0  0  0  0  0  0  0  0  0  0  0
   -7.9600   18.2850  -32.7230 C   0  0  2  0  0  0  0  0  0  0  0  0
   -6.5610   17.8730  -32.2190 C   0  0  0  0  0  0  0  0  0  0  0  0
   -6.1760   19.3450  -32.1860 C   0  0  1  0  0  0  0  0  0  0  0  0
   -4.9770   19.9310  -32.8890 C   0  0  0  0  0  0  0  0  0  0  0  0
   -7.4320   19.6730  -32.9850 C   0  0  2  0  0  0  0  0  0  0  0  0
   -4.1980   23.0070  -34.0010 H   0  0  0  0  0  0  0  0  0  0  0  0
   -3.4290   21.5040  -34.1770 H   0  0  0  0  0  0  0  0  0  0  0  0
   -3.2430   22.4070  -32.7350 H   0  0  0  0  0  0  0  0  0  0  0  0
   -5.8809   23.3332  -32.5257 H   0  0  0  0  0  0  0  0  0  0  0  0
   -8.9982   21.2084  -32.9373 H   0  0  0  0  0  0  0  0  0  0  0  0
   -8.3936   20.0174  -30.2356 H   0  0  0  0  0  0  0  0  0  0  0  0
   -9.9683   20.3527  -30.9761 H   0  0  0  0  0  0  0  0  0  0  0  0
   -8.8453   17.8029  -30.7942 H   0  0  0  0  0  0  0  0  0  0  0  0
  -10.0359   18.2483  -32.0429 H   0  0  0  0  0  0  0  0  0  0  0  0
   -8.4368   17.6178  -33.4561 H   0  0  0  0  0  0  0  0  0  0  0  0
   -6.5596   17.3813  -31.2350 H   0  0  0  0  0  0  0  0  0  0  0  0
   -5.9529   17.1393  -32.7685 H   0  0  0  0  0  0  0  0  0  0  0  0
   -5.8969   19.7047  -31.1847 H   0  0  0  0  0  0  0  0  0  0  0  0
   -4.0648   19.6261  -32.3551 H   0  0  0  0  0  0  0  0  0  0  0  0
   -4.9666   19.5587  -33.9240 H   0  0  0  0  0  0  0  0  0  0  0  0
   -7.3651   20.0619  -34.0118 H   0  0  0  0  0  0  0  0  0  0  0  0
  1  2  1  0
  2  3  2  0
  3  4  1  0
  4  5  2  0
  4  6  1  0
  6  7  1  0
  7  8  1  0
  8  9  1  0
  9 10  1  0
 10 11  1  0
 11 12  1  0
 11 13  1  0
 12  2  1  0
 13  6  1  0
 13  9  1  0
  1 14  1  0
  1 15  1  0
  1 16  1  0
  3 17  1  0
  6 18  1  6
  7 19  1  0
  7 20  1  0
  8 21  1  0
  8 22  1  0
  9 23  1  6
 10 24  1  0
 10 25  1  0
 11 26  1  1
 12 27  1  0
 12 28  1  0
 13 29  1  6
M  CHG  1   1   1
M  END
>  <UniqueID>  (39) 
34

>  <SMILES>  (39) 
[NH3+]C1=CC(=O)[C@@H]2CC[C@@H]3CC(C1)C32

>  <Energy>  (39) 
119.66575959584142

>  <Genealogy>  (39) 
[NH3+]C1=CC(=O)C2CCC3CC(C1)C32 (protonated)
[NH3+]C1=CC(=O)[C@@H]2CC[C@@H]3CC(C1)C32 (chirality)
[NH3+]C1=CC(=O)[C@@H]2CC[C@@H]3CC(C1)C32 (3D coordinates assigned)
[NH3+]C1=CC(=O)[C@@H]2CC[C@@H]3CC(C1)C32 (nonaromatic ring conformer: 119.66575959584142 kcal/mol)

>  <smiles>  (39) 
NC1=CC(=O)C2CCC3CC(C1)C32

>  <score_type>  (39) 
oracle

>  <origin>  (39) 
adg

>  <m_score__min__energy>  (39) 
-4.8899999999999997

>  <m_primary>  (39) 
energy

$$$$
39:0
     RDKit          3D

 34 35  0  0  0  0  0  0  0  0999 V2000
   -0.8670   26.6340  -27.8930 C   0  0  0  0  0  0  0  0  0  0  0  0
   -1.6100   26.0350  -28.9490 O   0  0  0  0  0  0  0  0  0  0  0  0
   -1.9410   24.6720  -29.0160 C   0  0  0  0  0  0  0  0  0  0  0  0
   -1.1810   23.6850  -28.3560 C   0  0  0  0  0  0  0  0  0  0  0  0
   -1.5360   22.3370  -28.4540 C   0  0  0  0  0  0  0  0  0  0  0  0
   -2.6410   21.9590  -29.2190 C   0  0  0  0  0  0  0  0  0  0  0  0
   -3.4000   22.9280  -29.8780 C   0  0  0  0  0  0  0  0  0  0  0  0
   -3.0710   24.2900  -29.7590 C   0  0  0  0  0  0  0  0  0  0  0  0
   -3.8180   25.2930  -30.4600 N   0  0  0  0  0  0  0  0  0  0  0  0
   -5.2430   25.4570  -30.4500 C   0  0  0  0  0  0  0  0  0  0  0  0
   -5.7150   26.6090  -30.2630 O   0  0  0  0  0  0  0  0  0  0  0  0
   -6.1790   24.2740  -30.4750 C   0  0  0  0  0  0  0  0  0  0  0  0
   -6.5070   23.8760  -31.8630 N   0  0  0  0  0  0  0  0  0  0  0  0
   -5.7130   22.7170  -32.2980 C   0  0  0  0  0  0  0  0  0  0  0  0
   -6.4920   21.4590  -31.9460 C   0  0  0  0  0  0  0  0  0  0  0  0
   -7.9220   21.9170  -31.7340 C   0  0  0  0  0  0  0  0  0  0  0  0
   -7.9020   23.4230  -31.9580 C   0  0  0  0  0  0  0  0  0  0  0  0
   -1.2746   26.3054  -26.9256 H   0  0  0  0  0  0  0  0  0  0  0  0
    0.1876   26.3305  -27.9687 H   0  0  0  0  0  0  0  0  0  0  0  0
   -0.9398   27.7290  -27.9687 H   0  0  0  0  0  0  0  0  0  0  0  0
   -0.3036   23.9776  -27.7605 H   0  0  0  0  0  0  0  0  0  0  0  0
   -0.9444   21.5732  -27.9280 H   0  0  0  0  0  0  0  0  0  0  0  0
   -2.9139   20.8967  -29.3026 H   0  0  0  0  0  0  0  0  0  0  0  0
   -4.2597   22.6245  -30.4934 H   0  0  0  0  0  0  0  0  0  0  0  0
   -5.6992   23.4267  -29.9633 H   0  0  0  0  0  0  0  0  0  0  0  0
   -7.1117   24.5588  -29.9661 H   0  0  0  0  0  0  0  0  0  0  0  0
   -5.5485   22.7631  -33.3847 H   0  0  0  0  0  0  0  0  0  0  0  0
   -4.7332   22.7139  -31.7979 H   0  0  0  0  0  0  0  0  0  0  0  0
   -6.4391   20.7307  -32.7687 H   0  0  0  0  0  0  0  0  0  0  0  0
   -6.0849   20.9622  -31.0530 H   0  0  0  0  0  0  0  0  0  0  0  0
   -8.5933   21.4294  -32.4562 H   0  0  0  0  0  0  0  0  0  0  0  0
   -8.2899   21.6577  -30.7303 H   0  0  0  0  0  0  0  0  0  0  0  0
   -8.3041   23.6579  -32.9546 H   0  0  0  0  0  0  0  0  0  0  0  0
   -8.5216   23.9305  -31.2040 H   0  0  0  0  0  0  0  0  0  0  0  0
  1  2  1  0
  2  3  1  0
  3  4  2  0
  4  5  1  0
  5  6  2  0
  6  7  1  0
  7  8  2  0
  8  9  1  0
  9 10  1  0
 10 11  2  0
 10 12  1  0
 12 13  1  0
 13 14  1  0
 14 15  1  0
 15 16  1  0
 16 17  1  0
  8  3  1  0
 17 13  1  0
  1 18  1  0
  1 19  1  0
  1 20  1  0
  4 21  1  0
  5 22  1  0
  6 23  1  0
  7 24  1  0
 12 25  1  0
 12 26  1  0
 14 27  1  0
 14 28  1  0
 15 29  1  0
 15 30  1  0
 16 31  1  0
 16 32  1  0
 17 33  1  0
 17 34  1  0
M  CHG  1   9  -1
M  END
>  <UniqueID>  (40) 
35

>  <SMILES>  (40) 
COc1ccccc1[N-]C(=O)CN1CCCC1

>  <Energy>  (40) 
40.654715620114544

>  <Genealogy>  (40) 
COc1ccccc1[N-]C(=O)CN1CCCC1 (protonated)
COc1ccccc1[N-]C(=O)CN1CCCC1 (3D coordinates assigned)
COc1ccccc1[N-]C(=O)CN1CCCC1 (nonaromatic ring conformer: 40.654715620114544 kcal/mol)

>  <smiles>  (40) 
COc1ccccc1NC(=O)CN1CCCC1

>  <score_type>  (40) 
oracle

>  <origin>  (40) 
adg

>  <m_score__min__energy>  (40) 
-8.6799999999999997

>  <m_primary>  (40) 
energy

$$$$
40:0
     RDKit          3D

 30 31  0  0  0  0  0  0  0  0999 V2000
    1.1420   24.1390  -27.5650 C   0  0  0  0  0  0  0  0  0  0  0  0
   -0.3150   24.0040  -27.7140 N   0  0  0  0  0  0  0  0  0  0  0  0
   -1.0530   23.8830  -26.4370 C   0  0  0  0  0  0  0  0  0  0  0  0
   -0.8600   25.0560  -25.5030 C   0  0  0  0  0  0  0  0  0  0  0  0
   -1.3970   26.3150  -25.8060 C   0  0  0  0  0  0  0  0  0  0  0  0
   -1.2120   27.3840  -24.9290 C   0  0  0  0  0  0  0  0  0  0  0  0
   -0.4740   27.1900  -23.7610 C   0  0  0  0  0  0  0  0  0  0  0  0
    0.0650   25.9720  -23.4870 N   0  0  0  0  0  0  0  0  0  0  0  0
   -0.1040   24.9130  -24.3280 C   0  0  0  0  0  0  0  0  0  0  0  0
   -0.9280   24.8920  -28.7290 C   0  0  0  0  0  0  0  0  0  0  0  0
   -2.3220   24.4900  -29.1350 C   0  0  0  0  0  0  0  0  0  0  0  0
   -2.8890   23.2410  -28.9540 C   0  0  0  0  0  0  0  0  0  0  0  0
   -4.1600   23.3260  -29.4820 C   0  0  0  0  0  0  0  0  0  0  0  0
   -4.2860   24.6180  -29.9430 C   0  0  0  0  0  0  0  0  0  0  0  0
   -5.7020   25.2900  -30.7220 Cl  0  0  0  0  0  0  0  0  0  0  0  0
   -3.1810   25.2890  -29.7200 O   0  0  0  0  0  0  0  0  0  0  0  0
    1.4006   24.1630  -26.4961 H   0  0  0  0  0  0  0  0  0  0  0  0
    1.6404   23.2832  -28.0437 H   0  0  0  0  0  0  0  0  0  0  0  0
    1.4747   25.0718  -28.0437 H   0  0  0  0  0  0  0  0  0  0  0  0
   -2.1256   23.7943  -26.6642 H   0  0  0  0  0  0  0  0  0  0  0  0
   -0.6551   22.9964  -25.9217 H   0  0  0  0  0  0  0  0  0  0  0  0
   -1.9651   26.4602  -26.7367 H   0  0  0  0  0  0  0  0  0  0  0  0
   -1.6436   28.3700  -25.1561 H   0  0  0  0  0  0  0  0  0  0  0  0
   -0.3277   28.0247  -23.0597 H   0  0  0  0  0  0  0  0  0  0  0  0
    0.6190   25.8440  -22.6110 H   0  0  0  0  0  0  0  0  0  0  0  0
    0.3535   23.9425  -24.0856 H   0  0  0  0  0  0  0  0  0  0  0  0
   -0.9683   25.9113  -28.3174 H   0  0  0  0  0  0  0  0  0  0  0  0
   -0.3021   24.8231  -29.6309 H   0  0  0  0  0  0  0  0  0  0  0  0
   -2.4223   22.3619  -28.4857 H   0  0  0  0  0  0  0  0  0  0  0  0
   -4.9160   22.5281  -29.5259 H   0  0  0  0  0  0  0  0  0  0  0  0
  1  2  1  0
  2  3  1  0
  3  4  1  0
  4  5  2  0
  5  6  1  0
  6  7  2  0
  7  8  1  0
  8  9  2  0
  2 10  1  0
 10 11  1  0
 11 12  2  0
 12 13  1  0
 13 14  2  0
 14 15  1  0
 14 16  1  0
  9  4  1  0
 16 11  1  0
  1 17  1  0
  1 18  1  0
  1 19  1  0
  3 20  1  0
  3 21  1  0
  5 22  1  0
  6 23  1  0
  7 24  1  0
  8 25  1  0
  9 26  1  0
 10 27  1  0
 10 28  1  0
 12 29  1  0
 13 30  1  0
M  CHG  1   8   1
M  END
>  <UniqueID>  (41) 
36

>  <SMILES>  (41) 
CN(Cc1ccc[nH+]c1)Cc1ccc(Cl)o1

>  <Energy>  (41) 
61.44643400985577

>  <Genealogy>  (41) 
CN(Cc1ccc[nH+]c1)Cc1ccc(Cl)o1 (protonated)
CN(Cc1ccc[nH+]c1)Cc1ccc(Cl)o1 (3D coordinates assigned)
CN(Cc1ccc[nH+]c1)Cc1ccc(Cl)o1 (optimized conformer: 61.44643400985577 kcal/mol)

>  <smiles>  (41) 
CN(Cc1cccnc1)Cc1ccc(Cl)o1

>  <score_type>  (41) 
oracle

>  <origin>  (41) 
adg

>  <m_score__min__energy>  (41) 
-6.5

>  <m_primary>  (41) 
energy

$$$$
41:0
     RDKit          3D

 31 33  0  0  0  0  0  0  0  0999 V2000
   -2.1950   22.6740  -30.4060 O   0  0  0  0  0  0  0  0  0  0  0  0
   -3.0250   23.5940  -30.1700 C   0  0  0  0  0  0  0  0  0  0  0  0
   -2.5910   24.7970  -29.5160 N   0  0  0  0  0  0  0  0  0  0  0  0
   -1.4080   24.8840  -28.7010 C   0  0  0  0  0  0  0  0  0  0  0  0
   -0.4770   23.8290  -28.6450 C   0  0  0  0  0  0  0  0  0  0  0  0
    0.6530   23.9300  -27.8280 C   0  0  0  0  0  0  0  0  0  0  0  0
    0.8600   25.0730  -27.0520 C   0  0  0  0  0  0  0  0  0  0  0  0
    2.4030   25.2070  -25.9350 Br  0  0  0  0  0  0  0  0  0  0  0  0
   -0.0700   26.1170  -27.0860 C   0  0  0  0  0  0  0  0  0  0  0  0
   -1.2020   26.0190  -27.9020 C   0  0  0  0  0  0  0  0  0  0  0  0
   -4.4270   23.4460  -30.6370 C   0  0  0  0  0  0  0  0  0  0  0  0
   -4.9760   22.1640  -30.7910 C   0  0  0  0  0  0  0  0  0  0  0  0
   -6.2910   22.0200  -31.2370 C   0  0  0  0  0  0  0  0  0  0  0  0
   -6.8710   20.7550  -31.4170 C   0  0  0  0  0  0  0  0  0  0  0  0
   -8.1910   20.6500  -31.8700 C   0  0  0  0  0  0  0  0  0  0  0  0
   -8.9810   18.9290  -32.1150 Br  0  0  0  0  0  0  0  0  0  0  0  0
   -8.9340   21.8050  -32.1430 C   0  0  0  0  0  0  0  0  0  0  0  0
   -8.3600   23.0680  -31.9650 C   0  0  0  0  0  0  0  0  0  0  0  0
   -7.0400   23.1820  -31.5130 C   0  0  0  0  0  0  0  0  0  0  0  0
   -6.5000   24.3830  -31.3410 O   0  0  0  0  0  0  0  0  0  0  0  0
   -5.2500   24.5590  -30.9170 C   0  0  0  0  0  0  0  0  0  0  0  0
   -4.8270   25.7330  -30.7490 O   0  0  0  0  0  0  0  0  0  0  0  0
   -3.1010   25.6830  -29.7340 H   0  0  0  0  0  0  0  0  0  0  0  0
   -0.6394   22.9222  -29.2462 H   0  0  0  0  0  0  0  0  0  0  0  0
    1.3816   23.1066  -27.7961 H   0  0  0  0  0  0  0  0  0  0  0  0
    0.0887   27.0152  -26.4711 H   0  0  0  0  0  0  0  0  0  0  0  0
   -1.9363   26.8379  -27.9174 H   0  0  0  0  0  0  0  0  0  0  0  0
   -4.3715   21.2743  -30.5608 H   0  0  0  0  0  0  0  0  0  0  0  0
   -6.2887   19.8468  -31.2023 H   0  0  0  0  0  0  0  0  0  0  0  0
   -9.9715   21.7189  -32.4983 H   0  0  0  0  0  0  0  0  0  0  0  0
   -8.9467   23.9732  -32.1805 H   0  0  0  0  0  0  0  0  0  0  0  0
  1  2  2  0
  2  3  1  0
  3  4  1  0
  4  5  2  0
  5  6  1  0
  6  7  2  0
  7  8  1  0
  7  9  1  0
  9 10  2  0
  2 11  1  0
 11 12  2  0
 12 13  1  0
 13 14  2  0
 14 15  1  0
 15 16  1  0
 15 17  2  0
 17 18  1  0
 18 19  2  0
 19 20  1  0
 20 21  1  0
 21 22  2  0
 10  4  1  0
 21 11  1  0
 19 13  1  0
  3 23  1  0
  5 24  1  0
  6 25  1  0
  9 26  1  0
 10 27  1  0
 12 28  1  0
 14 29  1  0
 17 30  1  0
 18 31  1  0
M  END
>  <UniqueID>  (42) 
37

>  <SMILES>  (42) 
O=C(Nc1ccc(Br)cc1)c1cc2cc(Br)ccc2oc1=O

>  <Energy>  (42) 
45.21367952150671

>  <Genealogy>  (42) 
O=C(Nc1ccc(Br)cc1)c1cc2cc(Br)ccc2oc1=O (3D coordinates assigned)
O=C(Nc1ccc(Br)cc1)c1cc2cc(Br)ccc2oc1=O (optimized conformer: 45.21367952150671 kcal/mol)

>  <smiles>  (42) 
O=C(Nc1ccc(Br)cc1)c1cc2cc(Br)ccc2oc1=O

>  <score_type>  (42) 
oracle

>  <origin>  (42) 
adg

>  <m_score__min__energy>  (42) 
-9.2200000000000006

>  <m_primary>  (42) 
energy

$$$$
42:0
     RDKit          3D

 39 41  0  0  0  0  0  0  0  0999 V2000
   -2.3330   20.6770  -32.6490 O   0  0  0  0  0  0  0  0  0  0  0  0
   -3.4180   20.3600  -32.0890 C   0  0  0  0  0  0  0  0  0  0  0  0
   -3.8080   21.0100  -30.8690 N   0  0  0  0  0  0  0  0  0  0  0  0
   -3.4480   22.3580  -30.5190 C   0  0  0  0  0  0  0  0  0  0  0  0
   -2.3130   22.5830  -29.7290 C   0  0  0  0  0  0  0  0  0  0  0  0
   -1.9850   23.8850  -29.3430 C   0  0  0  0  0  0  0  0  0  0  0  0
   -2.7720   24.9270  -29.7190 N   0  0  0  0  0  0  0  0  0  0  0  0
   -3.8890   24.7410  -30.4700 C   0  0  0  0  0  0  0  0  0  0  0  0
   -4.6010   25.7300  -30.7860 O   0  0  0  0  0  0  0  0  0  0  0  0
   -4.2500   23.4550  -30.8830 C   0  0  0  0  0  0  0  0  0  0  0  0
   -4.2390   19.2640  -32.6550 C   0  0  0  0  0  0  0  0  0  0  0  0
   -3.6980   18.4640  -33.6780 C   0  0  0  0  0  0  0  0  0  0  0  0
   -4.4050   17.3610  -34.1830 C   0  0  0  0  0  0  0  0  0  0  0  0
   -3.8270   16.5350  -35.3060 C   0  0  0  0  0  0  0  0  0  0  0  0
   -4.2540   17.0500  -36.5150 F   0  0  0  0  0  0  0  0  0  0  0  0
   -2.4430   16.5620  -35.2670 F   0  0  0  0  0  0  0  0  0  0  0  0
   -4.2360   15.2160  -35.2080 F   0  0  0  0  0  0  0  0  0  0  0  0
   -5.6880   17.0860  -33.6850 C   0  0  0  0  0  0  0  0  0  0  0  0
   -6.2440   17.8840  -32.6850 C   0  0  0  0  0  0  0  0  0  0  0  0
   -5.5460   18.9860  -32.1820 C   0  0  0  0  0  0  0  0  0  0  0  0
   -6.1800   19.7840  -31.2190 O   0  0  0  0  0  0  0  0  0  0  0  0
   -7.2630   20.6370  -31.4790 C   0  0  0  0  0  0  0  0  0  0  0  0
   -7.0470   22.0200  -31.4590 C   0  0  0  0  0  0  0  0  0  0  0  0
   -8.0940   22.9050  -31.7340 C   0  0  0  0  0  0  0  0  0  0  0  0
   -9.3700   22.4120  -32.0160 C   0  0  0  0  0  0  0  0  0  0  0  0
   -9.6030   21.0340  -32.0170 C   0  0  0  0  0  0  0  0  0  0  0  0
   -8.5570   20.1460  -31.7470 C   0  0  0  0  0  0  0  0  0  0  0  0
   -4.3840   20.4610  -30.1900 H   0  0  0  0  0  0  0  0  0  0  0  0
   -1.6829   21.7382  -29.4140 H   0  0  0  0  0  0  0  0  0  0  0  0
   -1.0877   24.0671  -28.7334 H   0  0  0  0  0  0  0  0  0  0  0  0
   -5.1554   23.3019  -31.4887 H   0  0  0  0  0  0  0  0  0  0  0  0
   -2.7065   18.7062  -34.0883 H   0  0  0  0  0  0  0  0  0  0  0  0
   -6.2590   16.2355  -34.0859 H   0  0  0  0  0  0  0  0  0  0  0  0
   -7.2415   17.6438  -32.2883 H   0  0  0  0  0  0  0  0  0  0  0  0
   -6.0466   22.4132  -31.2253 H   0  0  0  0  0  0  0  0  0  0  0  0
   -7.9127   23.9899  -31.7282 H   0  0  0  0  0  0  0  0  0  0  0  0
  -10.1920   23.1087  -32.2374 H   0  0  0  0  0  0  0  0  0  0  0  0
  -10.6105   20.6474  -32.2304 H   0  0  0  0  0  0  0  0  0  0  0  0
   -8.7443   19.0621  -31.7437 H   0  0  0  0  0  0  0  0  0  0  0  0
  1  2  2  0
  2  3  1  0
  3  4  1  0
  4  5  1  0
  5  6  2  0
  6  7  1  0
  7  8  1  0
  8  9  2  0
  8 10  1  0
  2 11  1  0
 11 12  2  0
 12 13  1  0
 13 14  1  0
 14 15  1  0
 14 16  1  0
 14 17  1  0
 13 18  2  0
 18 19  1  0
 19 20  2  0
 20 21  1  0
 21 22  1  0
 22 23  2  0
 23 24  1  0
 24 25  2  0
 25 26  1  0
 26 27  2  0
 10  4  2  0
 20 11  1  0
 27 22  1  0
  3 28  1  0
  5 29  1  0
  6 30  1  0
 10 31  1  0
 12 32  1  0
 18 33  1  0
 19 34  1  0
 23 35  1  0
 24 36  1  0
 25 37  1  0
 26 38  1  0
 27 39  1  0
M  CHG  1   7  -1
M  END
>  <UniqueID>  (43) 
38

>  <SMILES>  (43) 
O=C(Nc1cc[n-]c(=O)c1)c1cc(C(F)(F)F)ccc1Oc1ccccc1

>  <Energy>  (43) 
55.630577018685194

>  <Genealogy>  (43) 
O=C(Nc1cc[n-]c(=O)c1)c1cc(C(F)(F)F)ccc1Oc1ccccc1 (protonated)
O=C(Nc1cc[n-]c(=O)c1)c1cc(C(F)(F)F)ccc1Oc1ccccc1 (3D coordinates assigned)
O=C(Nc1cc[n-]c(=O)c1)c1cc(C(F)(F)F)ccc1Oc1ccccc1 (optimized conformer: 55.630577018685194 kcal/mol)

>  <smiles>  (43) 
O=C(Nc1cc[nH]c(=O)c1)c1cc(C(F)(F)F)ccc1Oc1ccccc1

>  <score_type>  (43) 
oracle

>  <origin>  (43) 
adg

>  <m_score__min__energy>  (43) 
-9.1999999999999993

>  <m_primary>  (43) 
energy

$$$$
43:0
     RDKit          3D

 35 36  0  0  1  0  0  0  0  0999 V2000
   -6.1270   25.6090  -29.5530 C   0  0  0  0  0  0  0  0  0  0  0  0
   -5.3950   25.0270  -30.7060 C   0  0  0  0  0  0  0  0  0  0  0  0
   -4.1440   25.1150  -30.8400 O   0  0  0  0  0  0  0  0  0  0  0  0
   -6.2090   24.3410  -31.6820 N   0  0  0  0  0  0  0  0  0  0  0  0
   -6.0450   23.0750  -31.9000 C   0  0  0  0  0  0  0  0  0  0  0  0
   -4.8040   22.5810  -32.0320 N   0  0  0  0  0  0  0  0  0  0  0  0
   -4.5470   21.2950  -32.2570 C   0  0  0  0  0  0  0  0  0  0  0  0
   -3.1840   20.7490  -32.4040 C   0  0  0  0  0  0  0  0  0  0  0  0
   -2.4490   21.0130  -31.0930 C   0  0  0  0  0  0  0  0  0  0  0  0
   -3.1620   19.2960  -32.7980 C   0  0  0  0  0  0  0  0  0  0  0  0
   -2.4060   21.5120  -33.4600 C   0  0  0  0  0  0  0  0  0  0  0  0
   -5.5870   20.4490  -32.3550 N   0  0  0  0  0  0  0  0  0  0  0  0
   -6.8580   20.8960  -32.2300 C   0  0  0  0  0  0  0  0  0  0  0  0
   -7.9370   20.0350  -32.3290 C   0  0  0  0  0  0  0  0  0  0  0  0
   -9.2210   20.5080  -32.1980 C   0  0  0  0  0  0  0  0  0  0  0  0
   -9.4710   21.8340  -31.9670 C   0  0  0  0  0  0  0  0  0  0  0  0
   -8.4200   22.6930  -31.8670 C   0  0  0  0  0  0  0  0  0  0  0  0
   -7.1210   22.2490  -31.9930 C   0  0  0  0  0  0  0  0  0  0  0  0
   -5.6773   25.2515  -28.6149 H   0  0  0  0  0  0  0  0  0  0  0  0
   -6.0641   26.7064  -29.5949 H   0  0  0  0  0  0  0  0  0  0  0  0
   -7.1820   25.3004  -29.5949 H   0  0  0  0  0  0  0  0  0  0  0  0
   -4.0180   23.2460  -31.9540 H   0  0  0  0  0  0  0  0  0  0  0  0
   -3.1109   20.7752  -30.2472 H   0  0  0  0  0  0  0  0  0  0  0  0
   -1.5495   20.3818  -31.0434 H   0  0  0  0  0  0  0  0  0  0  0  0
   -2.1567   22.0723  -31.0434 H   0  0  0  0  0  0  0  0  0  0  0  0
   -3.1525   18.6708  -31.8930 H   0  0  0  0  0  0  0  0  0  0  0  0
   -4.0567   19.0642  -33.3944 H   0  0  0  0  0  0  0  0  0  0  0  0
   -2.2607   19.0914  -33.3944 H   0  0  0  0  0  0  0  0  0  0  0  0
   -1.7027   22.2017  -32.9704 H   0  0  0  0  0  0  0  0  0  0  0  0
   -1.8468   20.8025  -34.0875 H   0  0  0  0  0  0  0  0  0  0  0  0
   -3.1045   22.0849  -34.0875 H   0  0  0  0  0  0  0  0  0  0  0  0
   -7.7658   18.9642  -32.5139 H   0  0  0  0  0  0  0  0  0  0  0  0
  -10.0646   19.8069  -32.2804 H   0  0  0  0  0  0  0  0  0  0  0  0
  -10.5036   22.1990  -31.8640 H   0  0  0  0  0  0  0  0  0  0  0  0
   -8.6105   23.7605  -31.6824 H   0  0  0  0  0  0  0  0  0  0  0  0
  1  2  1  0
  2  3  2  0
  2  4  1  0
  4  5  2  0
  5  6  1  0
  6  7  1  0
  7  8  1  0
  8  9  1  0
  8 10  1  0
  8 11  1  0
  7 12  2  0
 12 13  1  0
 13 14  2  0
 14 15  1  0
 15 16  2  0
 16 17  1  0
 17 18  2  0
 18  5  1  0
 18 13  1  0
  1 19  1  0
  1 20  1  0
  1 21  1  0
  6 22  1  0
  9 23  1  0
  9 24  1  0
  9 25  1  0
 10 26  1  0
 10 27  1  0
 10 28  1  0
 11 29  1  0
 11 30  1  0
 11 31  1  0
 14 32  1  0
 15 33  1  0
 16 34  1  0
 17 35  1  0
M  END
>  <smiles>  (44) 
CC(=O)N=c1[nH]c(C(C)(C)C)nc2ccccc12

>  <score_type>  (44) 
oracle

>  <origin>  (44) 
adg

>  <m_score__min__energy>  (44) 
-7.5

>  <m_primary>  (44) 
energy

$$$$
44:0
     RDKit          3D

 38 40  0  0  0  0  0  0  0  0999 V2000
   -7.4750   23.0830  -29.7260 O   0  0  0  0  0  0  0  0  0  0  0  0
   -6.7670   23.6790  -30.5270 C   0  0  0  0  0  0  0  0  0  0  0  0
   -5.7820   24.6850  -29.9760 C   0  0  0  0  0  0  0  0  0  0  0  0
   -4.5850   24.6570  -30.7490 O   0  0  0  0  0  0  0  0  0  0  0  0
   -3.4850   23.8300  -30.4780 C   0  0  0  0  0  0  0  0  0  0  0  0
   -2.6530   24.1640  -29.4010 C   0  0  0  0  0  0  0  0  0  0  0  0
   -1.5410   23.3740  -29.0930 C   0  0  0  0  0  0  0  0  0  0  0  0
   -1.2510   22.2430  -29.8590 C   0  0  0  0  0  0  0  0  0  0  0  0
   -2.0710   21.9020  -30.9390 C   0  0  0  0  0  0  0  0  0  0  0  0
   -3.1880   22.6870  -31.2490 C   0  0  0  0  0  0  0  0  0  0  0  0
   -6.9370   23.4070  -31.9530 N   0  0  2  0  0  0  0  0  0  0  0  0
   -8.3640   23.4290  -32.3360 C   0  0  0  0  0  0  0  0  0  0  0  0
   -9.1410   22.2570  -31.7200 C   0  0  0  0  0  0  0  0  0  0  0  0
   -8.4210   20.9470  -31.8990 C   0  0  0  0  0  0  0  0  0  0  0  0
   -9.1120   19.7460  -31.6790 C   0  0  0  0  0  0  0  0  0  0  0  0
   -8.4460   18.5200  -31.7680 C   0  0  0  0  0  0  0  0  0  0  0  0
   -7.0830   18.4840  -32.0630 C   0  0  0  0  0  0  0  0  0  0  0  0
   -6.3800   19.6740  -32.2710 C   0  0  0  0  0  0  0  0  0  0  0  0
   -7.0370   20.9130  -32.1770 C   0  0  0  0  0  0  0  0  0  0  0  0
   -6.2670   22.1840  -32.4570 C   0  0  0  0  0  0  0  0  0  0  0  0
   -6.2232   25.6916  -30.0213 H   0  0  0  0  0  0  0  0  0  0  0  0
   -5.5476   24.4315  -28.9316 H   0  0  0  0  0  0  0  0  0  0  0  0
   -2.8761   25.0536  -28.7937 H   0  0  0  0  0  0  0  0  0  0  0  0
   -0.8935   23.6440  -28.2457 H   0  0  0  0  0  0  0  0  0  0  0  0
   -0.3780   21.6207  -29.6129 H   0  0  0  0  0  0  0  0  0  0  0  0
   -1.8379   21.0150  -31.5464 H   0  0  0  0  0  0  0  0  0  0  0  0
   -3.8349   22.4119  -32.0951 H   0  0  0  0  0  0  0  0  0  0  0  0
   -6.4800   24.2070  -32.4540 H   0  0  0  0  0  0  0  0  0  0  0  0
   -8.8105   24.3727  -31.9896 H   0  0  0  0  0  0  0  0  0  0  0  0
   -8.4242   23.3396  -33.4307 H   0  0  0  0  0  0  0  0  0  0  0  0
   -9.2738   22.4452  -30.6444 H   0  0  0  0  0  0  0  0  0  0  0  0
  -10.1108   22.1847  -32.2340 H   0  0  0  0  0  0  0  0  0  0  0  0
  -10.1843   19.7691  -31.4350 H   0  0  0  0  0  0  0  0  0  0  0  0
   -8.9976   17.5823  -31.6052 H   0  0  0  0  0  0  0  0  0  0  0  0
   -6.5610   17.5182  -32.1320 H   0  0  0  0  0  0  0  0  0  0  0  0
   -5.3067   19.6407  -32.5096 H   0  0  0  0  0  0  0  0  0  0  0  0
   -5.2801   22.1055  -31.9776 H   0  0  0  0  0  0  0  0  0  0  0  0
   -6.1944   22.2831  -33.5501 H   0  0  0  0  0  0  0  0  0  0  0  0
  1  2  2  0
  2  3  1  0
  3  4  1  0
  4  5  1  0
  5  6  2  0
  6  7  1  0
  7  8  2  0
  8  9  1  0
  9 10  2  0
  2 11  1  0
 11 12  1  0
 12 13  1  0
 13 14  1  0
 14 15  2  0
 15 16  1  0
 16 17  2  0
 17 18  1  0
 18 19  2  0
 19 20  1  0
 10  5  1  0
 20 11  1  0
 19 14  1  0
  3 21  1  0
  3 22  1  0
  6 23  1  0
  7 24  1  0
  8 25  1  0
  9 26  1  0
 10 27  1  0
 11 28  1  6
 12 29  1  0
 12 30  1  0
 13 31  1  0
 13 32  1  0
 15 33  1  0
 16 34  1  0
 17 35  1  0
 18 36  1  0
 20 37  1  0
 20 38  1  0
M  CHG  1  11   1
M  END
>  <UniqueID>  (45) 
39

>  <SMILES>  (45) 
O=C(COc1ccccc1)[N@@H+]1CCc2ccccc2C1

>  <Energy>  (45) 
47.15094424382799

>  <Genealogy>  (45) 
O=C(COc1ccccc1)[NH+]1CCc2ccccc2C1 (protonated)
O=C(COc1ccccc1)[N@@H+]1CCc2ccccc2C1 (chirality)
O=C(COc1ccccc1)[N@@H+]1CCc2ccccc2C1 (3D coordinates assigned)
O=C(COc1ccccc1)[N@@H+]1CCc2ccccc2C1 (nonaromatic ring conformer: 47.15094424382799 kcal/mol)

>  <smiles>  (45) 
O=C(COc1ccccc1)N1CCc2ccccc2C1

>  <score_type>  (45) 
oracle

>  <origin>  (45) 
adg

>  <m_score__min__energy>  (45) 
-7.1799999999999997

>  <m_primary>  (45) 
energy

$$$$
45:0
     RDKit          3D

 49 51  0  0  0  0  0  0  0  0999 V2000
   -4.6413   22.9639  -31.7480 H   0  0  0  0  0  0  0  0  0  0  0  0
   -5.6210   23.3640  -31.4480 C   0  0  0  0  0  0  0  0  0  0  0  0
   -5.6190   24.1980  -30.3730 C   0  0  0  0  0  0  0  0  0  0  0  0
   -5.4540   25.6740  -30.6380 C   0  0  0  0  0  0  0  0  0  0  0  0
   -5.3937   26.2138  -29.6814 H   0  0  0  0  0  0  0  0  0  0  0  0
   -4.5314   25.8424  -31.2129 H   0  0  0  0  0  0  0  0  0  0  0  0
   -6.3166   26.0420  -31.2129 H   0  0  0  0  0  0  0  0  0  0  0  0
   -5.7460   23.7430  -29.0010 N   0  0  0  0  0  0  0  0  0  0  0  0
   -6.7040   23.3410  -28.8740 H   0  0  0  0  0  0  0  0  0  0  0  0
   -5.6480   24.5210  -28.3180 H   0  0  0  0  0  0  0  0  0  0  0  0
   -4.7410   22.7110  -28.6990 C   0  0  0  0  0  0  0  0  0  0  0  0
   -4.9892   22.2342  -27.7393 H   0  0  0  0  0  0  0  0  0  0  0  0
   -4.7451   21.9641  -29.5065 H   0  0  0  0  0  0  0  0  0  0  0  0
   -3.3660   23.3220  -28.6080 C   0  0  0  0  0  0  0  0  0  0  0  0
   -3.0780   24.2800  -27.6230 C   0  0  0  0  0  0  0  0  0  0  0  0
   -3.8703   24.6163  -26.9380 H   0  0  0  0  0  0  0  0  0  0  0  0
   -1.7900   24.8080  -27.5090 C   0  0  0  0  0  0  0  0  0  0  0  0
   -1.5764   25.5634  -26.7384 H   0  0  0  0  0  0  0  0  0  0  0  0
   -0.7690   24.3840  -28.3670 C   0  0  0  0  0  0  0  0  0  0  0  0
    0.5080   24.9430  -28.2100 O   0  0  0  0  0  0  0  0  0  0  0  0
    1.0640   25.3370  -26.9600 C   0  0  0  0  0  0  0  0  0  0  0  0
    0.4643   24.9120  -26.1417 H   0  0  0  0  0  0  0  0  0  0  0  0
    2.0980   24.9689  -26.8863 H   0  0  0  0  0  0  0  0  0  0  0  0
    1.0594   26.4345  -26.8863 H   0  0  0  0  0  0  0  0  0  0  0  0
   -1.0550   23.4160  -29.3500 C   0  0  0  0  0  0  0  0  0  0  0  0
   -0.2611   23.0753  -30.0310 H   0  0  0  0  0  0  0  0  0  0  0  0
   -2.3440   22.8870  -29.4630 C   0  0  0  0  0  0  0  0  0  0  0  0
   -2.5575   22.1251  -30.2272 H   0  0  0  0  0  0  0  0  0  0  0  0
   -6.8060   22.9160  -32.2860 C   0  0  1  0  0  0  0  0  0  0  0  0
   -6.5398   23.3637  -33.2548 H   0  0  0  0  0  0  0  0  0  0  0  0
   -6.9760   21.4520  -32.3450 C   0  0  0  0  0  0  0  0  0  0  0  0
   -5.9640   20.1450  -32.6290 S   0  0  0  0  0  0  0  0  0  0  0  0
   -7.2080   19.0070  -32.3960 C   0  0  0  0  0  0  0  0  0  0  0  0
   -7.0160   17.5230  -32.4070 C   0  0  0  0  0  0  0  0  0  0  0  0
   -7.9772   17.0325  -32.1937 H   0  0  0  0  0  0  0  0  0  0  0  0
   -6.2740   17.2556  -31.6402 H   0  0  0  0  0  0  0  0  0  0  0  0
   -6.5070   17.0580  -33.7670 C   0  0  0  0  0  0  0  0  0  0  0  0
   -5.7017   16.3223  -33.6251 H   0  0  0  0  0  0  0  0  0  0  0  0
   -7.3318   16.5950  -34.3285 H   0  0  0  0  0  0  0  0  0  0  0  0
   -6.1203   17.9212  -34.3285 H   0  0  0  0  0  0  0  0  0  0  0  0
   -8.4030   19.6620  -32.0770 C   0  0  0  0  0  0  0  0  0  0  0  0
   -9.3535   19.1535  -31.8579 H   0  0  0  0  0  0  0  0  0  0  0  0
   -8.2280   21.0420  -32.0740 C   0  0  0  0  0  0  0  0  0  0  0  0
   -9.1340   22.1640  -31.7420 C   0  0  0  0  0  0  0  0  0  0  0  0
   -9.5708   22.0354  -30.7407 H   0  0  0  0  0  0  0  0  0  0  0  0
   -9.9892   22.2459  -32.4289 H   0  0  0  0  0  0  0  0  0  0  0  0
   -8.1960   23.4020  -31.7860 C   0  0  0  0  0  0  0  0  0  0  0  0
   -8.1022   23.8384  -30.7806 H   0  0  0  0  0  0  0  0  0  0  0  0
   -8.6021   24.1728  -32.4575 H   0  0  0  0  0  0  0  0  0  0  0  0
  1  2  1  0
  2  3  2  0
  3  4  1  0
  4  5  1  0
  4  6  1  0
  4  7  1  0
  3  8  1  0
  8  9  1  0
  8 10  1  0
  8 11  1  0
 11 12  1  0
 11 13  1  0
 11 14  1  0
 14 15  2  0
 15 16  1  0
 15 17  1  0
 17 18  1  0
 17 19  2  0
 19 20  1  0
 20 21  1  0
 21 22  1  0
 21 23  1  0
 21 24  1  0
 19 25  1  0
 25 26  1  0
 25 27  2  0
 27 28  1  0
  2 29  1  0
 29 30  1  6
 29 31  1  0
 31 32  1  0
 32 33  1  0
 33 34  1  0
 34 35  1  0
 34 36  1  0
 34 37  1  0
 37 38  1  0
 37 39  1  0
 37 40  1  0
 33 41  2  0
 41 42  1  0
 41 43  1  0
 43 44  1  0
 44 45  1  0
 44 46  1  0
 44 47  1  0
 47 48  1  0
 47 49  1  0
 27 14  1  0
 47 29  1  0
 43 31  2  0
M  CHG  1   8   1
M  END
>  <UniqueID>  (46) 
40

>  <SMILES>  (46) 
CCc1cc2c(s1)[C@H](/C=C(/C)[NH2+]Cc1ccc(OC)cc1)CC2

>  <Energy>  (46) 
88.12289512135885

>  <Genealogy>  (46) 
CCc1cc2c(s1)C(C=C(C)[NH2+]Cc1ccc(OC)cc1)CC2 (protonated)
CCc1cc2c(s1)[C@H](C=C(C)[NH2+]Cc1ccc(OC)cc1)CC2 (chirality)
CCc1cc2c(s1)[C@H](/C=C(/C)[NH2+]Cc1ccc(OC)cc1)CC2 (cis-trans isomerization)
CCc1cc2c(s1)[C@H](/C=C(/C)[NH2+]Cc1ccc(OC)cc1)CC2 (3D coordinates assigned)
CCc1cc2c(s1)[C@H](/C=C(/C)[NH2+]Cc1ccc(OC)cc1)CC2 (nonaromatic ring conformer: 88.12289512135885 kcal/mol)

>  <smiles>  (46) 
CCc1cc2c(s1)C(C=C(C)NCc1ccc(OC)cc1)CC2

>  <score_type>  (46) 
oracle

>  <origin>  (46) 
adg

>  <m_score__min__energy>  (46) 
-8.1799999999999997

>  <m_primary>  (46) 
energy

$$$$
46:0
     RDKit          3D

 42 45  0  0  0  0  0  0  0  0999 V2000
   -3.9780   12.2850  -32.0570 C   0  0  0  0  0  0  0  0  0  0  0  0
   -4.1500   12.7470  -33.8090 S   0  0  0  0  0  0  0  0  0  0  0  0
   -5.0140   14.2760  -33.4440 C   0  0  0  0  0  0  0  0  0  0  0  0
   -4.5970   15.1000  -32.3990 C   0  0  0  0  0  0  0  0  0  0  0  0
   -5.2630   16.2540  -32.1400 N   0  0  0  0  0  0  0  0  0  0  0  0
   -6.3420   16.6250  -32.8820 C   0  0  0  0  0  0  0  0  0  0  0  0
   -7.0300   17.8980  -32.5740 C   0  0  0  0  0  0  0  0  0  0  0  0
   -8.1490   17.8640  -31.7260 C   0  0  0  0  0  0  0  0  0  0  0  0
   -8.8180   19.0390  -31.3820 C   0  0  0  0  0  0  0  0  0  0  0  0
   -8.3830   20.2650  -31.8870 C   0  0  0  0  0  0  0  0  0  0  0  0
   -9.2450   21.7730  -31.4450 S   0  0  0  0  0  0  0  0  0  0  0  0
   -7.7230   22.7100  -31.3020 C   0  0  0  0  0  0  0  0  0  0  0  0
   -7.2270   23.4240  -32.4200 C   0  0  0  0  0  0  0  0  0  0  0  0
   -6.0390   24.1720  -32.3170 C   0  0  0  0  0  0  0  0  0  0  0  0
   -5.3790   24.1790  -31.0910 C   0  0  0  0  0  0  0  0  0  0  0  0
   -4.2700   24.8040  -30.7800 O   0  0  0  0  0  0  0  0  0  0  0  0
   -4.0050   24.5370  -29.5130 C   0  0  0  0  0  0  0  0  0  0  0  0
   -4.9810   23.7050  -28.9750 C   0  0  0  0  0  0  0  0  0  0  0  0
   -5.8570   23.4860  -30.0130 C   0  0  0  0  0  0  0  0  0  0  0  0
   -7.0280   22.7360  -30.0760 C   0  0  0  0  0  0  0  0  0  0  0  0
   -7.2810   20.3160  -32.7450 C   0  0  0  0  0  0  0  0  0  0  0  0
   -6.6090   19.1380  -33.1190 C   0  0  0  0  0  0  0  0  0  0  0  0
   -5.4590   19.2420  -34.0860 C   0  0  0  0  0  0  0  0  0  0  0  0
   -6.7490   15.8420  -33.9230 N   0  0  0  0  0  0  0  0  0  0  0  0
   -6.1080   14.6780  -34.2100 C   0  0  0  0  0  0  0  0  0  0  0  0
   -4.2917   13.1275  -31.4231 H   0  0  0  0  0  0  0  0  0  0  0  0
   -4.6109   11.4108  -31.8445 H   0  0  0  0  0  0  0  0  0  0  0  0
   -2.9275   12.0375  -31.8445 H   0  0  0  0  0  0  0  0  0  0  0  0
   -3.7296   14.8151  -31.7855 H   0  0  0  0  0  0  0  0  0  0  0  0
   -8.5017   16.9008  -31.3288 H   0  0  0  0  0  0  0  0  0  0  0  0
   -9.6894   18.9989  -30.7119 H   0  0  0  0  0  0  0  0  0  0  0  0
   -7.7732   23.3939  -33.3743 H   0  0  0  0  0  0  0  0  0  0  0  0
   -5.6448   24.7329  -33.1773 H   0  0  0  0  0  0  0  0  0  0  0  0
   -3.1339   24.9195  -28.9609 H   0  0  0  0  0  0  0  0  0  0  0  0
   -5.0394   23.3106  -27.9498 H   0  0  0  0  0  0  0  0  0  0  0  0
   -7.3979   22.1831  -29.1999 H   0  0  0  0  0  0  0  0  0  0  0  0
   -6.9358   21.2863  -33.1315 H   0  0  0  0  0  0  0  0  0  0  0  0
   -4.5159   19.3273  -33.5263 H   0  0  0  0  0  0  0  0  0  0  0  0
   -5.4297   18.3428  -34.7190 H   0  0  0  0  0  0  0  0  0  0  0  0
   -5.5915   20.1318  -34.7190 H   0  0  0  0  0  0  0  0  0  0  0  0
   -7.5440   16.1410  -34.5290 H   0  0  0  0  0  0  0  0  0  0  0  0
   -6.4524   14.0528  -35.0469 H   0  0  0  0  0  0  0  0  0  0  0  0
  1  2  1  0
  2  3  1  0
  3  4  2  0
  4  5  1  0
  5  6  2  0
  6  7  1  0
  7  8  2  0
  8  9  1  0
  9 10  2  0
 10 11  1  0
 11 12  1  0
 12 13  2  0
 13 14  1  0
 14 15  2  0
 15 16  1  0
 16 17  1  0
 17 18  2  0
 18 19  1  0
 19 20  2  0
 10 21  1  0
 21 22  2  0
 22 23  1  0
  6 24  1  0
 24 25  2  0
 25  3  1  0
 22  7  1  0
 20 12  1  0
 19 15  1  0
  1 26  1  0
  1 27  1  0
  1 28  1  0
  4 29  1  0
  8 30  1  0
  9 31  1  0
 13 32  1  0
 14 33  1  0
 17 34  1  0
 18 35  1  0
 20 36  1  0
 21 37  1  0
 23 38  1  0
 23 39  1  0
 23 40  1  0
 24 41  1  0
 25 42  1  0
M  CHG  1  24   1
M  END
>  <UniqueID>  (47) 
41

>  <SMILES>  (47) 
CSc1cnc(-c2ccc(Sc3ccc4occc4c3)cc2C)[nH+]c1

>  <Energy>  (47) 
77.88733701746536

>  <Genealogy>  (47) 
CSc1cnc(-c2ccc(Sc3ccc4occc4c3)cc2C)[nH+]c1 (protonated)
CSc1cnc(-c2ccc(Sc3ccc4occc4c3)cc2C)[nH+]c1 (3D coordinates assigned)
CSc1cnc(-c2ccc(Sc3ccc4occc4c3)cc2C)[nH+]c1 (optimized conformer: 77.88733701746536 kcal/mol)

>  <smiles>  (47) 
CSc1cnc(-c2ccc(Sc3ccc4occc4c3)cc2C)nc1

>  <score_type>  (47) 
oracle

>  <origin>  (47) 
adg

>  <m_score__min__energy>  (47) 
-9.0600000000000005

>  <m_primary>  (47) 
energy

$$$$
47:0
     RDKit          3D

 28 30  0  0  0  0  0  0  0  0999 V2000
   -1.9720   24.7310  -26.9990 C   0  0  0  0  0  0  0  0  0  0  0  0
   -1.5230   24.6020  -28.3160 C   0  0  0  0  0  0  0  0  0  0  0  0
   -2.4300   24.3160  -29.3410 C   0  0  0  0  0  0  0  0  0  0  0  0
   -3.7980   24.1550  -29.0560 C   0  0  0  0  0  0  0  0  0  0  0  0
   -4.7590   23.8520  -30.1390 C   0  0  0  0  0  0  0  0  0  0  0  0
   -4.9530   24.6440  -31.2150 N   0  0  0  0  0  0  0  0  0  0  0  0
   -5.8970   23.9730  -31.9040 C   0  0  0  0  0  0  0  0  0  0  0  0
   -6.2510   22.8360  -31.2740 N   0  0  0  0  0  0  0  0  0  0  0  0
   -7.2170   21.8470  -31.6880 C   0  0  0  0  0  0  0  0  0  0  0  0
   -6.8160   20.6200  -32.2550 C   0  0  0  0  0  0  0  0  0  0  0  0
   -7.7690   19.6760  -32.6500 C   0  0  0  0  0  0  0  0  0  0  0  0
   -9.1290   19.9440  -32.4900 C   0  0  0  0  0  0  0  0  0  0  0  0
   -9.5410   21.1550  -31.9350 C   0  0  0  0  0  0  0  0  0  0  0  0
   -8.5940   22.1040  -31.5370 C   0  0  0  0  0  0  0  0  0  0  0  0
   -5.5370   22.7530  -30.1640 N   0  0  0  0  0  0  0  0  0  0  0  0
   -4.2390   24.2870  -27.7270 C   0  0  0  0  0  0  0  0  0  0  0  0
   -3.3280   24.5730  -26.7060 C   0  0  0  0  0  0  0  0  0  0  0  0
   -1.2576   24.9569  -26.1936 H   0  0  0  0  0  0  0  0  0  0  0  0
   -0.4546   24.7256  -28.5466 H   0  0  0  0  0  0  0  0  0  0  0  0
   -2.0717   24.2163  -30.3762 H   0  0  0  0  0  0  0  0  0  0  0  0
   -6.3243   24.3108  -32.8596 H   0  0  0  0  0  0  0  0  0  0  0  0
   -5.7457   20.4037  -32.3876 H   0  0  0  0  0  0  0  0  0  0  0  0
   -7.4458   18.7200  -33.0878 H   0  0  0  0  0  0  0  0  0  0  0  0
   -9.8764   19.1996  -32.8018 H   0  0  0  0  0  0  0  0  0  0  0  0
  -10.6136   21.3644  -31.8099 H   0  0  0  0  0  0  0  0  0  0  0  0
   -8.9268   23.0583  -31.1028 H   0  0  0  0  0  0  0  0  0  0  0  0
   -5.3061   24.1646  -27.4898 H   0  0  0  0  0  0  0  0  0  0  0  0
   -3.6804   24.6739  -25.6689 H   0  0  0  0  0  0  0  0  0  0  0  0
  1  2  2  0
  2  3  1  0
  3  4  2  0
  4  5  1  0
  5  6  1  0
  6  7  2  0
  7  8  1  0
  8  9  1  0
  9 10  2  0
 10 11  1  0
 11 12  2  0
 12 13  1  0
 13 14  2  0
  8 15  1  0
  4 16  1  0
 16 17  2  0
 17  1  1  0
 15  5  2  0
 14  9  1  0
  1 18  1  0
  2 19  1  0
  3 20  1  0
  7 21  1  0
 10 22  1  0
 11 23  1  0
 12 24  1  0
 13 25  1  0
 14 26  1  0
 16 27  1  0
 17 28  1  0
M  END
>  <UniqueID>  (48) 
42

>  <SMILES>  (48) 
c1ccc(-c2ncn(-c3ccccc3)n2)cc1

>  <Energy>  (48) 
66.53996597977384

>  <Genealogy>  (48) 
c1ccc(-c2ncn(-c3ccccc3)n2)cc1 (3D coordinates assigned)
c1ccc(-c2ncn(-c3ccccc3)n2)cc1 (optimized conformer: 66.53996597977384 kcal/mol)

>  <smiles>  (48) 
c1ccc(-c2ncn(-c3ccccc3)n2)cc1

>  <score_type>  (48) 
oracle

>  <origin>  (48) 
adg

>  <m_score__min__energy>  (48) 
-7.04

>  <m_primary>  (48) 
energy

$$$$
