0:0
     RDKit          3D

106110  0  0  0  0  0  0  0  0999 V2000
   -3.0960   18.6100  -25.6630 C   0  0  0  0  0  0  0  0  0  0  0  0
   -3.1390   19.0880  -27.0950 C   0  0  0  0  0  0  0  0  0  0  0  0
   -2.0210   19.9020  -27.4510 N   0  0  0  0  0  0  0  0  0  0  0  0
   -2.1610   21.2780  -27.1110 C   0  0  0  0  0  0  0  0  0  0  0  0
   -1.1000   21.7620  -26.1470 C   0  0  0  0  0  0  0  0  0  0  0  0
   -0.7490   19.3130  -27.0770 C   0  0  0  0  0  0  0  0  0  0  0  0
   -0.4710   18.0050  -27.7330 C   0  0  0  0  0  0  0  0  0  0  0  0
    0.4510   18.0470  -28.7450 O   0  0  0  0  0  0  0  0  0  0  0  0
    1.0840   19.2460  -28.9030 C   0  0  0  0  0  0  0  0  0  0  0  0
    1.3770   19.5710  -30.3160 C   0  0  0  0  0  0  0  0  0  0  0  0
    0.4020   19.3670  -31.2710 O   0  0  0  0  0  0  0  0  0  0  0  0
    0.2290   20.0290  -32.4730 C   0  0  0  0  0  0  0  0  0  0  0  0
   -0.8770   20.8840  -32.6050 C   0  0  0  0  0  0  0  0  0  0  0  0
   -1.6940   20.9980  -31.5250 O   0  0  0  0  0  0  0  0  0  0  0  0
   -2.8650   20.3620  -31.1700 C   0  0  0  0  0  0  0  0  0  0  0  0
   -3.3620   19.3680  -32.1830 C   0  0  0  0  0  0  0  0  0  0  0  0
   -4.3490   20.0280  -33.1120 C   0  0  0  0  0  0  0  0  0  0  0  0
   -5.3190   20.8660  -32.4210 N   0  0  0  0  0  0  0  0  0  0  0  0
   -4.9860   22.2770  -32.7130 C   0  0  0  0  0  0  0  0  0  0  0  0
   -6.6510   20.6820  -33.0430 C   0  0  0  0  0  0  0  0  0  0  0  0
   -7.6440   20.1830  -32.0040 C   0  0  0  0  0  0  0  0  0  0  0  0
   -8.7050   21.0710  -31.8240 O   0  0  0  0  0  0  0  0  0  0  0  0
   -8.3330   22.3790  -31.6770 C   0  0  0  0  0  0  0  0  0  0  0  0
   -7.5970   22.7190  -30.4220 C   0  0  0  0  0  0  0  0  0  0  0  0
   -6.4140   23.3600  -30.5930 O   0  0  0  0  0  0  0  0  0  0  0  0
   -6.0810   24.3860  -29.7720 C   0  0  0  0  0  0  0  0  0  0  0  0
   -5.3880   25.5240  -30.5310 C   0  0  0  0  0  0  0  0  0  0  0  0
   -3.9750   25.3500  -30.4440 N   0  0  0  0  0  0  0  0  0  0  0  0
   -3.5580   24.0000  -30.2000 C   0  0  0  0  0  0  0  0  0  0  0  0
   -2.2340   24.0510  -29.4850 C   0  0  0  0  0  0  0  0  0  0  0  0
   -1.2930   23.0510  -29.6050 C   0  0  0  0  0  0  0  0  0  0  0  0
   -0.0980   23.2090  -28.9020 C   0  0  0  0  0  0  0  0  0  0  0  0
    0.1360   24.3230  -28.1170 C   0  0  0  0  0  0  0  0  0  0  0  0
    1.3060   24.5090  -27.4120 C   0  0  0  0  0  0  0  0  0  0  0  0
    1.5170   25.6420  -26.6280 C   0  0  0  0  0  0  0  0  0  0  0  0
    0.5270   26.5960  -26.5610 C   0  0  0  0  0  0  0  0  0  0  0  0
   -0.6630   26.4320  -27.2620 C   0  0  0  0  0  0  0  0  0  0  0  0
   -0.8600   25.2930  -28.0430 C   0  0  0  0  0  0  0  0  0  0  0  0
   -2.0180   25.1530  -28.7150 N   0  0  0  0  0  0  0  0  0  0  0  0
   -1.0180   21.5210  -33.8140 C   0  0  0  0  0  0  0  0  0  0  0  0
   -0.1200   21.3480  -34.8680 C   0  0  0  0  0  0  0  0  0  0  0  0
    0.9500   20.5010  -34.6920 C   0  0  0  0  0  0  0  0  0  0  0  0
    1.8140   20.3660  -35.7640 C   0  0  0  0  0  0  0  0  0  0  0  0
    1.6340   20.9830  -36.8600 O   0  0  0  0  0  0  0  0  0  0  0  0
    2.9030   19.5260  -35.6140 C   0  0  0  0  0  0  0  0  0  0  0  0
    3.7950   19.3590  -36.6550 C   0  0  0  0  0  0  0  0  0  0  0  0
    4.8760   18.5150  -36.4830 C   0  0  0  0  0  0  0  0  0  0  0  0
    5.0430   17.8600  -35.2800 C   0  0  0  0  0  0  0  0  0  0  0  0
    4.1320   18.0420  -34.2390 C   0  0  0  0  0  0  0  0  0  0  0  0
    3.0300   18.8920  -34.3970 C   0  0  0  0  0  0  0  0  0  0  0  0
    2.1760   19.0550  -33.4060 O   0  0  0  0  0  0  0  0  0  0  0  0
    1.1270   19.8400  -33.4950 C   0  0  0  0  0  0  0  0  0  0  0  0
   -3.1737   19.4733  -24.9858 H   0  0  0  0  0  0  0  0  0  0  0  0
   -3.9360   17.9238  -25.4801 H   0  0  0  0  0  0  0  0  0  0  0  0
   -2.1470   18.0847  -25.4801 H   0  0  0  0  0  0  0  0  0  0  0  0
   -3.1561   18.2092  -27.7564 H   0  0  0  0  0  0  0  0  0  0  0  0
   -4.0418   19.7067  -27.2057 H   0  0  0  0  0  0  0  0  0  0  0  0
   -2.0951   21.8748  -28.0327 H   0  0  0  0  0  0  0  0  0  0  0  0
   -3.1348   21.3954  -26.6131 H   0  0  0  0  0  0  0  0  0  0  0  0
   -1.4440   21.6051  -25.1140 H   0  0  0  0  0  0  0  0  0  0  0  0
   -0.1695   21.1993  -26.3131 H   0  0  0  0  0  0  0  0  0  0  0  0
   -0.9151   22.8335  -26.3131 H   0  0  0  0  0  0  0  0  0  0  0  0
    0.0517   20.0152  -27.3524 H   0  0  0  0  0  0  0  0  0  0  0  0
   -0.7921   19.1233  -25.9943 H   0  0  0  0  0  0  0  0  0  0  0  0
   -0.1020   17.3099  -26.9644 H   0  0  0  0  0  0  0  0  0  0  0  0
   -1.4175   17.6861  -28.1939 H   0  0  0  0  0  0  0  0  0  0  0  0
    0.4418   20.0372  -28.4887 H   0  0  0  0  0  0  0  0  0  0  0  0
    2.0480   19.1773  -28.3777 H   0  0  0  0  0  0  0  0  0  0  0  0
    1.6432   20.6377  -30.3516 H   0  0  0  0  0  0  0  0  0  0  0  0
    2.1653   18.8546  -30.5906 H   0  0  0  0  0  0  0  0  0  0  0  0
   -2.6948   19.8313  -30.2216 H   0  0  0  0  0  0  0  0  0  0  0  0
   -3.6357   21.1429  -31.0911 H   0  0  0  0  0  0  0  0  0  0  0  0
   -2.5113   18.9865  -32.7667 H   0  0  0  0  0  0  0  0  0  0  0  0
   -3.8583   18.5371  -31.6601 H   0  0  0  0  0  0  0  0  0  0  0  0
   -3.7925   20.6537  -33.8253 H   0  0  0  0  0  0  0  0  0  0  0  0
   -4.9103   19.2261  -33.6140 H   0  0  0  0  0  0  0  0  0  0  0  0
   -4.8564   22.8261  -31.7687 H   0  0  0  0  0  0  0  0  0  0  0  0
   -4.0528   22.3209  -33.2937 H   0  0  0  0  0  0  0  0  0  0  0  0
   -5.8011   22.7335  -33.2937 H   0  0  0  0  0  0  0  0  0  0  0  0
   -6.9999   21.6431  -33.4487 H   0  0  0  0  0  0  0  0  0  0  0  0
   -6.5729   19.9423  -33.8534 H   0  0  0  0  0  0  0  0  0  0  0  0
   -8.0450   19.2131  -32.3335 H   0  0  0  0  0  0  0  0  0  0  0  0
   -7.1133   20.0900  -31.0450 H   0  0  0  0  0  0  0  0  0  0  0  0
   -7.6859   22.6413  -32.5270 H   0  0  0  0  0  0  0  0  0  0  0  0
   -9.2729   22.9486  -31.6303 H   0  0  0  0  0  0  0  0  0  0  0  0
   -8.2468   23.3642  -29.8126 H   0  0  0  0  0  0  0  0  0  0  0  0
   -7.3530   21.7579  -29.9458 H   0  0  0  0  0  0  0  0  0  0  0  0
   -6.9957   24.7770  -29.3025 H   0  0  0  0  0  0  0  0  0  0  0  0
   -5.3794   24.0037  -29.0160 H   0  0  0  0  0  0  0  0  0  0  0  0
   -5.6973   25.5048  -31.5865 H   0  0  0  0  0  0  0  0  0  0  0  0
   -5.6704   26.4907  -30.0885 H   0  0  0  0  0  0  0  0  0  0  0  0
   -3.4900   26.0370  -29.8570 H   0  0  0  0  0  0  0  0  0  0  0  0
   -4.3020   23.4856  -29.5741 H   0  0  0  0  0  0  0  0  0  0  0  0
   -3.4628   23.4494  -31.1475 H   0  0  0  0  0  0  0  0  0  0  0  0
   -1.4766   22.1643  -30.2296 H   0  0  0  0  0  0  0  0  0  0  0  0
    0.6752   22.4299  -28.9739 H   0  0  0  0  0  0  0  0  0  0  0  0
    2.0936   23.7433  -27.4697 H   0  0  0  0  0  0  0  0  0  0  0  0
    2.4578   25.7714  -26.0728 H   0  0  0  0  0  0  0  0  0  0  0  0
    0.6784   27.4963  -25.9474 H   0  0  0  0  0  0  0  0  0  0  0  0
   -1.4483   27.1999  -27.2006 H   0  0  0  0  0  0  0  0  0  0  0  0
   -1.8748   22.1958  -33.9572 H   0  0  0  0  0  0  0  0  0  0  0  0
   -0.2647   21.8783  -35.8208 H   0  0  0  0  0  0  0  0  0  0  0  0
    3.6474   19.8899  -37.6070 H   0  0  0  0  0  0  0  0  0  0  0  0
    5.5981   18.3665  -37.2994 H   0  0  0  0  0  0  0  0  0  0  0  0
    5.9026   17.1879  -35.1404 H   0  0  0  0  0  0  0  0  0  0  0  0
    4.2805   17.5133  -33.2859 H   0  0  0  0  0  0  0  0  0  0  0  0
  1  2  1  0
  2  3  1  0
  3  4  1  0
  4  5  1  0
  3  6  1  0
  6  7  1  0
  7  8  1  0
  8  9  1  0
  9 10  1  0
 10 11  1  0
 11 12  1  0
 12 13  2  0
 13 14  1  0
 14 15  1  0
 15 16  1  0
 16 17  1  0
 17 18  1  0
 18 19  1  0
 18 20  1  0
 20 21  1  0
 21 22  1  0
 22 23  1  0
 23 24  1  0
 24 25  1  0
 25 26  1  0
 26 27  1  0
 27 28  1  0
 28 29  1  0
 29 30  1  0
 30 31  2  0
 31 32  1  0
 32 33  2  0
 33 34  1  0
 34 35  2  0
 35 36  1  0
 36 37  2  0
 37 38  1  0
 38 39  2  0
 13 40  1  0
 40 41  2  0
 41 42  1  0
 42 43  1  0
 43 44  2  0
 43 45  1  0
 45 46  2  0
 46 47  1  0
 47 48  2  0
 48 49  1  0
 49 50  2  0
 50 51  1  0
 51 52  1  0
 52 12  1  0
 39 30  1  0
 52 42  2  0
 38 33  1  0
 50 45  1  0
  1 53  1  0
  1 54  1  0
  1 55  1  0
  2 56  1  0
  2 57  1  0
  4 58  1  0
  4 59  1  0
  5 60  1  0
  5 61  1  0
  5 62  1  0
  6 63  1  0
  6 64  1  0
  7 65  1  0
  7 66  1  0
  9 67  1  0
  9 68  1  0
 10 69  1  0
 10 70  1  0
 15 71  1  0
 15 72  1  0
 16 73  1  0
 16 74  1  0
 17 75  1  0
 17 76  1  0
 19 77  1  0
 19 78  1  0
 19 79  1  0
 20 80  1  0
 20 81  1  0
 21 82  1  0
 21 83  1  0
 23 84  1  0
 23 85  1  0
 24 86  1  0
 24 87  1  0
 26 88  1  0
 26 89  1  0
 27 90  1  0
 27 91  1  0
 28 92  1  0
 29 93  1  0
 29 94  1  0
 31 95  1  0
 32 96  1  0
 34 97  1  0
 35 98  1  0
 36 99  1  0
 37100  1  0
 40101  1  0
 41102  1  0
 46103  1  0
 47104  1  0
 48105  1  0
 49106  1  0
M  END
>  <smiles>  (1) 
CCN(CC)CCOCCOc1c(OCCCN(C)CCOCCOCCNCc2ccc3ccccc3n2)ccc2c(=O)c3ccccc3oc12

>  <score_type>  (1) 
oracle

>  <origin>  (1) 
adg

>  <m_score__min__energy>  (1) 
-10.210000000000001

>  <m_primary>  (1) 
energy

$$$$
1:0
     RDKit          3D

 61 63  0  0  0  0  0  0  0  0999 V2000
   -6.1020   25.6810  -29.4840 C   0  0  0  0  0  0  0  0  0  0  0  0
   -5.2210   25.7680  -30.7030 C   0  0  0  0  0  0  0  0  0  0  0  0
   -3.8960   25.2500  -30.4210 N   0  0  0  0  0  0  0  0  0  0  0  0
   -3.9680   24.1200  -29.4910 C   0  0  0  0  0  0  0  0  0  0  0  0
   -3.9440   22.8480  -30.2980 C   0  0  0  0  0  0  0  0  0  0  0  0
   -4.5720   23.0480  -31.5630 O   0  0  0  0  0  0  0  0  0  0  0  0
   -5.8910   22.5610  -31.6820 C   0  0  0  0  0  0  0  0  0  0  0  0
   -6.9820   23.3540  -31.3800 C   0  0  0  0  0  0  0  0  0  0  0  0
   -8.2860   22.9160  -31.4800 C   0  0  0  0  0  0  0  0  0  0  0  0
   -8.4740   21.6180  -31.9070 C   0  0  0  0  0  0  0  0  0  0  0  0
   -7.4160   20.7730  -32.2260 C   0  0  0  0  0  0  0  0  0  0  0  0
   -6.1460   21.2680  -32.1040 C   0  0  0  0  0  0  0  0  0  0  0  0
   -5.1040   20.4150  -32.4140 C   0  0  0  0  0  0  0  0  0  0  0  0
   -3.7260   20.8440  -32.3650 N   0  0  0  0  0  0  0  0  0  0  0  0
   -3.1220   21.0890  -33.6690 C   0  0  0  0  0  0  0  0  0  0  0  0
   -1.6250   21.1430  -33.4720 C   0  0  0  0  0  0  0  0  0  0  0  0
   -1.1900   20.7020  -32.2090 N   0  0  0  0  0  0  0  0  0  0  0  0
   -1.1360   19.3280  -31.9250 C   0  0  0  0  0  0  0  0  0  0  0  0
   -0.9540   21.6360  -31.1860 C   0  0  0  0  0  0  0  0  0  0  0  0
   -1.0670   21.0950  -29.7760 C   0  0  0  0  0  0  0  0  0  0  0  0
   -5.3100   19.1140  -32.8280 C   0  0  0  0  0  0  0  0  0  0  0  0
   -4.2510   18.2770  -33.1270 C   0  0  0  0  0  0  0  0  0  0  0  0
   -4.4840   16.9870  -33.5320 C   0  0  0  0  0  0  0  0  0  0  0  0
   -5.7820   16.5630  -33.6280 C   0  0  0  0  0  0  0  0  0  0  0  0
   -6.8510   17.4040  -33.3260 C   0  0  0  0  0  0  0  0  0  0  0  0
   -6.6290   18.6990  -32.9200 C   0  0  0  0  0  0  0  0  0  0  0  0
   -7.6720   19.4900  -32.6330 N   0  0  0  0  0  0  0  0  0  0  0  0
   -9.0510   19.1180  -32.7180 C   0  0  0  0  0  0  0  0  0  0  0  0
   -5.4813   25.7423  -28.5779 H   0  0  0  0  0  0  0  0  0  0  0  0
   -6.8222   26.5124  -29.4920 H   0  0  0  0  0  0  0  0  0  0  0  0
   -6.6457   24.7248  -29.4920 H   0  0  0  0  0  0  0  0  0  0  0  0
   -5.6720   25.1804  -31.5162 H   0  0  0  0  0  0  0  0  0  0  0  0
   -5.1306   26.8241  -30.9971 H   0  0  0  0  0  0  0  0  0  0  0  0
   -3.5080   24.9200  -31.3480 H   0  0  0  0  0  0  0  0  0  0  0  0
   -3.1066   24.1442  -28.8073 H   0  0  0  0  0  0  0  0  0  0  0  0
   -4.8903   24.1756  -28.8942 H   0  0  0  0  0  0  0  0  0  0  0  0
   -2.9002   22.5394  -30.4566 H   0  0  0  0  0  0  0  0  0  0  0  0
   -4.4905   22.0673  -29.7486 H   0  0  0  0  0  0  0  0  0  0  0  0
   -6.8013   24.3855  -31.0432 H   0  0  0  0  0  0  0  0  0  0  0  0
   -9.1348   23.5700  -31.2313 H   0  0  0  0  0  0  0  0  0  0  0  0
   -9.5014   21.2358  -31.9989 H   0  0  0  0  0  0  0  0  0  0  0  0
   -3.2160   20.9650  -31.4640 H   0  0  0  0  0  0  0  0  0  0  0  0
   -3.3807   20.2748  -34.3619 H   0  0  0  0  0  0  0  0  0  0  0  0
   -3.4913   22.0330  -34.0963 H   0  0  0  0  0  0  0  0  0  0  0  0
   -1.1538   20.5103  -34.2386 H   0  0  0  0  0  0  0  0  0  0  0  0
   -1.3351   22.2010  -33.5527 H   0  0  0  0  0  0  0  0  0  0  0  0
   -1.1301   19.1788  -30.8352 H   0  0  0  0  0  0  0  0  0  0  0  0
   -2.0152   18.8291  -32.3587 H   0  0  0  0  0  0  0  0  0  0  0  0
   -0.2203   18.8997  -32.3587 H   0  0  0  0  0  0  0  0  0  0  0  0
    0.0633   22.0333  -31.3169 H   0  0  0  0  0  0  0  0  0  0  0  0
   -1.7412   22.3982  -31.2830 H   0  0  0  0  0  0  0  0  0  0  0  0
   -0.8969   21.9092  -29.0562 H   0  0  0  0  0  0  0  0  0  0  0  0
   -2.0722   20.6751  -29.6239 H   0  0  0  0  0  0  0  0  0  0  0  0
   -0.3139   20.3078  -29.6239 H   0  0  0  0  0  0  0  0  0  0  0  0
   -3.2185   18.6464  -33.0399 H   0  0  0  0  0  0  0  0  0  0  0  0
   -3.6500   16.3115  -33.7731 H   0  0  0  0  0  0  0  0  0  0  0  0
   -5.9863   15.5318  -33.9519 H   0  0  0  0  0  0  0  0  0  0  0  0
   -7.8814   17.0289  -33.4131 H   0  0  0  0  0  0  0  0  0  0  0  0
   -9.4639   19.0066  -31.7045 H   0  0  0  0  0  0  0  0  0  0  0  0
   -9.6086   19.8978  -33.2574 H   0  0  0  0  0  0  0  0  0  0  0  0
   -9.1407   18.1635  -33.2574 H   0  0  0  0  0  0  0  0  0  0  0  0
  1  2  1  0
  2  3  1  0
  3  4  1  0
  4  5  1  0
  5  6  1  0
  6  7  1  0
  7  8  2  0
  8  9  1  0
  9 10  2  0
 10 11  1  0
 11 12  2  0
 12 13  1  0
 13 14  1  0
 14 15  1  0
 15 16  1  0
 16 17  1  0
 17 18  1  0
 17 19  1  0
 19 20  1  0
 13 21  2  0
 21 22  1  0
 22 23  2  0
 23 24  1  0
 24 25  2  0
 25 26  1  0
 26 27  2  0
 27 28  1  0
 12  7  1  0
 26 21  1  0
 27 11  1  0
  1 29  1  0
  1 30  1  0
  1 31  1  0
  2 32  1  0
  2 33  1  0
  3 34  1  0
  4 35  1  0
  4 36  1  0
  5 37  1  0
  5 38  1  0
  8 39  1  0
  9 40  1  0
 10 41  1  0
 14 42  1  0
 15 43  1  0
 15 44  1  0
 16 45  1  0
 16 46  1  0
 18 47  1  0
 18 48  1  0
 18 49  1  0
 19 50  1  0
 19 51  1  0
 20 52  1  0
 20 53  1  0
 20 54  1  0
 22 55  1  0
 23 56  1  0
 24 57  1  0
 25 58  1  0
 28 59  1  0
 28 60  1  0
 28 61  1  0
M  CHG  1  27   1
M  END
>  <smiles>  (2) 
CCNCCOc1cccc2c1c(NCCN(C)CC)c1ccccc1[n+]2C

>  <score_type>  (2) 
oracle

>  <origin>  (2) 
adg

>  <m_score__min__energy>  (2) 
-8.5500000000000007

>  <m_primary>  (2) 
energy

$$$$
2:0
     RDKit          3D

 33 34  0  0  0  0  0  0  0  0999 V2000
   -2.3730   24.9210  -27.0840 C   0  0  0  0  0  0  0  0  0  0  0  0
   -2.2480   24.9220  -28.5880 C   0  0  0  0  0  0  0  0  0  0  0  0
   -3.0600   23.8370  -29.1520 N   0  0  0  0  0  0  0  0  0  0  0  0
   -3.8980   24.1010  -30.2710 C   0  0  0  0  0  0  0  0  0  0  0  0
   -3.8700   25.3030  -30.7040 O   0  0  0  0  0  0  0  0  0  0  0  0
   -4.7350   23.0850  -30.8930 C   0  0  0  0  0  0  0  0  0  0  0  0
   -6.0740   23.2640  -31.1660 C   0  0  0  0  0  0  0  0  0  0  0  0
   -6.7950   22.2720  -31.7490 N   0  0  0  0  0  0  0  0  0  0  0  0
   -6.2340   21.0930  -32.0750 C   0  0  0  0  0  0  0  0  0  0  0  0
   -6.9550   20.0280  -32.6880 N   0  0  0  0  0  0  0  0  0  0  0  0
   -6.3010   18.8930  -33.3150 C   0  0  0  0  0  0  0  0  0  0  0  0
   -7.2530   17.7180  -33.0970 C   0  0  0  0  0  0  0  0  0  0  0  0
   -7.8040   17.8810  -31.8210 O   0  0  0  0  0  0  0  0  0  0  0  0
   -8.8290   18.8320  -31.8910 C   0  0  0  0  0  0  0  0  0  0  0  0
   -8.4130   20.0480  -32.7010 C   0  0  0  0  0  0  0  0  0  0  0  0
   -4.9280   20.9230  -31.8080 N   0  0  0  0  0  0  0  0  0  0  0  0
   -4.1510   21.8800  -31.2250 C   0  0  0  0  0  0  0  0  0  0  0  0
   -1.3699   24.9290  -26.6327 H   0  0  0  0  0  0  0  0  0  0  0  0
   -2.9273   25.8147  -26.7615 H   0  0  0  0  0  0  0  0  0  0  0  0
   -2.9129   24.0185  -26.7615 H   0  0  0  0  0  0  0  0  0  0  0  0
   -2.6002   25.8861  -28.9837 H   0  0  0  0  0  0  0  0  0  0  0  0
   -1.1945   24.7715  -28.8664 H   0  0  0  0  0  0  0  0  0  0  0  0
   -3.0230   22.8820  -28.7370 H   0  0  0  0  0  0  0  0  0  0  0  0
   -6.5616   24.2162  -30.9101 H   0  0  0  0  0  0  0  0  0  0  0  0
   -6.1535   19.0769  -34.3894 H   0  0  0  0  0  0  0  0  0  0  0  0
   -5.3051   18.7025  -32.8884 H   0  0  0  0  0  0  0  0  0  0  0  0
   -8.0477   17.7273  -33.8575 H   0  0  0  0  0  0  0  0  0  0  0  0
   -6.7233   16.7576  -33.1805 H   0  0  0  0  0  0  0  0  0  0  0  0
   -9.7096   18.3728  -32.3640 H   0  0  0  0  0  0  0  0  0  0  0  0
   -9.0592   19.1639  -30.8679 H   0  0  0  0  0  0  0  0  0  0  0  0
   -8.7917   19.9746  -33.7312 H   0  0  0  0  0  0  0  0  0  0  0  0
   -8.8176   20.9816  -32.2830 H   0  0  0  0  0  0  0  0  0  0  0  0
   -3.0852   21.6958  -31.0244 H   0  0  0  0  0  0  0  0  0  0  0  0
  1  2  1  0
  2  3  1  0
  3  4  1  0
  4  5  2  0
  4  6  1  0
  6  7  2  0
  7  8  1  0
  8  9  2  0
  9 10  1  0
 10 11  1  0
 11 12  1  0
 12 13  1  0
 13 14  1  0
 14 15  1  0
  9 16  1  0
 16 17  2  0
 17  6  1  0
 15 10  1  0
  1 18  1  0
  1 19  1  0
  1 20  1  0
  2 21  1  0
  2 22  1  0
  3 23  1  0
  7 24  1  0
 11 25  1  0
 11 26  1  0
 12 27  1  0
 12 28  1  0
 14 29  1  0
 14 30  1  0
 15 31  1  0
 15 32  1  0
 17 33  1  0
M  END
>  <smiles>  (3) 
CCNC(=O)c1cnc(N2CCOCC2)nc1

>  <score_type>  (3) 
oracle

>  <origin>  (3) 
adg

>  <m_score__min__energy>  (3) 
-5.9699999999999998

>  <m_primary>  (3) 
energy

$$$$
3:0
     RDKit          3D

 44 46  0  0  1  0  0  0  0  0999 V2000
   -6.4400   25.3590  -29.7840 C   0  0  0  0  0  0  0  0  0  0  0  0
   -5.3970   25.6520  -30.8430 C   0  0  0  0  0  0  0  0  0  0  0  0
   -4.4300   24.5850  -30.8820 N   0  0  0  0  0  0  0  0  0  0  0  0
   -4.3450   23.8190  -29.6600 C   0  0  0  0  0  0  0  0  0  0  0  0
   -3.3360   22.7090  -29.9360 C   0  0  0  0  0  0  0  0  0  0  0  0
   -2.9280   22.7830  -31.2520 O   0  0  0  0  0  0  0  0  0  0  0  0
   -1.7090   22.2480  -31.5240 C   0  0  0  0  0  0  0  0  0  0  0  0
   -1.8300   20.8330  -32.1690 C   0  0  0  0  0  0  0  0  0  0  0  0
   -2.7710   21.0670  -33.2220 N   0  0  0  0  0  0  0  0  0  0  0  0
   -3.8290   20.3980  -33.3770 C   0  0  0  0  0  0  0  0  0  0  0  0
   -3.7060   19.1970  -34.0090 N   0  0  0  0  0  0  0  0  0  0  0  0
   -4.7410   18.3790  -34.2380 C   0  0  0  0  0  0  0  0  0  0  0  0
   -5.9870   18.7780  -33.8120 C   0  0  0  0  0  0  0  0  0  0  0  0
   -6.1260   19.9840  -33.1750 C   0  0  0  0  0  0  0  0  0  0  0  0
   -5.0510   20.8320  -32.9380 C   0  0  0  0  0  0  0  0  0  0  0  0
   -5.4260   21.9370  -32.3120 N   0  0  0  0  0  0  0  0  0  0  0  0
   -6.7800   21.7980  -32.1400 C   0  0  0  0  0  0  0  0  0  0  0  0
   -7.7250   22.6400  -31.5410 C   0  0  0  0  0  0  0  0  0  0  0  0
   -9.0570   22.3020  -31.4730 C   0  0  0  0  0  0  0  0  0  0  0  0
   -9.4210   21.0930  -32.0200 C   0  0  0  0  0  0  0  0  0  0  0  0
   -8.5440   20.2200  -32.6210 C   0  0  0  0  0  0  0  0  0  0  0  0
   -7.2120   20.6170  -32.6610 C   0  0  0  0  0  0  0  0  0  0  0  0
   -5.9945   25.4841  -28.7861 H   0  0  0  0  0  0  0  0  0  0  0  0
   -7.2843   26.0547  -29.8985 H   0  0  0  0  0  0  0  0  0  0  0  0
   -6.7985   24.3254  -29.8985 H   0  0  0  0  0  0  0  0  0  0  0  0
   -5.8866   25.7375  -31.8243 H   0  0  0  0  0  0  0  0  0  0  0  0
   -4.8874   26.5961  -30.6003 H   0  0  0  0  0  0  0  0  0  0  0  0
   -3.4930   24.8870  -31.1880 H   0  0  0  0  0  0  0  0  0  0  0  0
   -3.9981   24.4551  -28.8323 H   0  0  0  0  0  0  0  0  0  0  0  0
   -5.3245   23.4128  -29.3673 H   0  0  0  0  0  0  0  0  0  0  0  0
   -2.4660   22.8298  -29.2738 H   0  0  0  0  0  0  0  0  0  0  0  0
   -3.8026   21.7307  -29.7485 H   0  0  0  0  0  0  0  0  0  0  0  0
   -1.1755   22.9123  -32.2198 H   0  0  0  0  0  0  0  0  0  0  0  0
   -1.1602   22.1466  -30.5761 H   0  0  0  0  0  0  0  0  0  0  0  0
   -0.8630   20.4903  -32.5657 H   0  0  0  0  0  0  0  0  0  0  0  0
   -2.1395   20.0482  -31.4631 H   0  0  0  0  0  0  0  0  0  0  0  0
   -2.7690   18.8820  -34.3350 H   0  0  0  0  0  0  0  0  0  0  0  0
   -4.5994   17.4166  -34.7515 H   0  0  0  0  0  0  0  0  0  0  0  0
   -6.8635   18.1352  -33.9810 H   0  0  0  0  0  0  0  0  0  0  0  0
   -4.9710   22.7890  -31.9640 H   0  0  0  0  0  0  0  0  0  0  0  0
   -7.3935   23.5976  -31.1132 H   0  0  0  0  0  0  0  0  0  0  0  0
   -9.7964   22.9673  -31.0033 H   0  0  0  0  0  0  0  0  0  0  0  0
  -10.4819   20.8060  -31.9737 H   0  0  0  0  0  0  0  0  0  0  0  0
   -8.8777   19.2618  -33.0460 H   0  0  0  0  0  0  0  0  0  0  0  0
  1  2  1  0
  2  3  1  0
  3  4  1  0
  4  5  1  0
  5  6  1  0
  6  7  1  0
  7  8  1  0
  8  9  1  0
  9 10  2  0
 10 11  1  0
 11 12  1  0
 12 13  2  0
 13 14  1  0
 14 15  2  0
 15 16  1  0
 16 17  1  0
 17 18  2  0
 18 19  1  0
 19 20  2  0
 20 21  1  0
 21 22  2  0
 15 10  1  0
 22 17  1  0
 22 14  1  0
  1 23  1  0
  1 24  1  0
  1 25  1  0
  2 26  1  0
  2 27  1  0
  3 28  1  0
  4 29  1  0
  4 30  1  0
  5 31  1  0
  5 32  1  0
  7 33  1  0
  7 34  1  0
  8 35  1  0
  8 36  1  0
 11 37  1  0
 12 38  1  0
 13 39  1  0
 16 40  1  0
 18 41  1  0
 19 42  1  0
 20 43  1  0
 21 44  1  0
M  END
>  <smiles>  (4) 
CCNCCOCCN=c1[nH]ccc2c1[nH]c1ccccc12

>  <score_type>  (4) 
oracle

>  <origin>  (4) 
adg

>  <m_score__min__energy>  (4) 
-8.3100000000000005

>  <m_primary>  (4) 
energy

$$$$
4:0
     RDKit          3D

 51 54  0  0  0  0  0  0  0  0999 V2000
   -5.6890   16.3130  -31.2050 C   0  0  0  0  0  0  0  0  0  0  0  0
   -6.4240   17.6110  -31.2130 C   0  0  0  0  0  0  0  0  0  0  0  0
   -7.2870   17.7760  -32.3120 N   0  0  0  0  0  0  0  0  0  0  0  0
   -8.6190   18.1730  -32.1120 C   0  0  0  0  0  0  0  0  0  0  0  0
   -8.7370   19.4130  -31.2810 C   0  0  0  0  0  0  0  0  0  0  0  0
   -7.1020   16.7860  -33.3530 C   0  0  0  0  0  0  0  0  0  0  0  0
   -6.1050   17.1910  -34.3810 C   0  0  0  0  0  0  0  0  0  0  0  0
   -6.1510   18.5860  -34.7420 N   0  0  0  0  0  0  0  0  0  0  0  0
   -5.7470   19.6610  -33.9020 C   0  0  0  0  0  0  0  0  0  0  0  0
   -6.6180   20.5860  -33.3690 C   0  0  0  0  0  0  0  0  0  0  0  0
   -6.2070   21.6200  -32.5390 C   0  0  0  0  0  0  0  0  0  0  0  0
   -6.9030   22.6220  -31.9240 N   0  0  0  0  0  0  0  0  0  0  0  0
   -6.0040   23.3530  -31.2360 C   0  0  0  0  0  0  0  0  0  0  0  0
   -6.2710   24.4790  -30.4600 C   0  0  0  0  0  0  0  0  0  0  0  0
   -5.1840   25.0670  -29.8470 C   0  0  0  0  0  0  0  0  0  0  0  0
   -3.8990   24.5840  -29.9820 C   0  0  0  0  0  0  0  0  0  0  0  0
   -2.8410   25.2160  -29.3450 O   0  0  0  0  0  0  0  0  0  0  0  0
   -2.3110   24.5340  -28.2070 C   0  0  0  0  0  0  0  0  0  0  0  0
   -3.7000   23.4660  -30.7650 C   0  0  0  0  0  0  0  0  0  0  0  0
   -4.7340   22.8440  -31.3920 C   0  0  0  0  0  0  0  0  0  0  0  0
   -4.8750   21.7520  -32.2160 C   0  0  0  0  0  0  0  0  0  0  0  0
   -3.9770   20.8470  -32.7280 C   0  0  0  0  0  0  0  0  0  0  0  0
   -2.6330   20.7170  -32.5950 C   0  0  0  0  0  0  0  0  0  0  0  0
   -2.2810   19.6010  -33.3570 C   0  0  0  0  0  0  0  0  0  0  0  0
   -3.3520   19.1220  -33.8920 O   0  0  0  0  0  0  0  0  0  0  0  0
   -4.4020   19.8310  -33.5490 C   0  0  0  0  0  0  0  0  0  0  0  0
   -5.5111   15.9988  -30.1660 H   0  0  0  0  0  0  0  0  0  0  0  0
   -6.2885   15.5490  -31.7216 H   0  0  0  0  0  0  0  0  0  0  0  0
   -4.7254   16.4341  -31.7216 H   0  0  0  0  0  0  0  0  0  0  0  0
   -7.0217   17.6751  -30.2918 H   0  0  0  0  0  0  0  0  0  0  0  0
   -5.6655   18.4045  -31.2835 H   0  0  0  0  0  0  0  0  0  0  0  0
   -9.0803   18.3620  -33.0926 H   0  0  0  0  0  0  0  0  0  0  0  0
   -9.1282   17.3621  -31.5706 H   0  0  0  0  0  0  0  0  0  0  0  0
   -8.7114   19.1437  -30.2148 H   0  0  0  0  0  0  0  0  0  0  0  0
   -7.8991   20.0882  -31.5089 H   0  0  0  0  0  0  0  0  0  0  0  0
   -9.6873   19.9180  -31.5089 H   0  0  0  0  0  0  0  0  0  0  0  0
   -6.7622   15.8492  -32.8873 H   0  0  0  0  0  0  0  0  0  0  0  0
   -8.0682   16.6680  -33.8654 H   0  0  0  0  0  0  0  0  0  0  0  0
   -5.1004   16.9700  -33.9911 H   0  0  0  0  0  0  0  0  0  0  0  0
   -6.3473   16.6241  -35.2920 H   0  0  0  0  0  0  0  0  0  0  0  0
   -6.5000   18.8640  -35.6940 H   0  0  0  0  0  0  0  0  0  0  0  0
   -7.6874   20.5013  -33.6122 H   0  0  0  0  0  0  0  0  0  0  0  0
   -7.9340   22.7780  -31.9860 H   0  0  0  0  0  0  0  0  0  0  0  0
   -7.2900   24.8763  -30.3429 H   0  0  0  0  0  0  0  0  0  0  0  0
   -5.3489   25.9586  -29.2243 H   0  0  0  0  0  0  0  0  0  0  0  0
   -2.6819   25.0113  -27.2879 H   0  0  0  0  0  0  0  0  0  0  0  0
   -2.6307   23.4817  -28.2284 H   0  0  0  0  0  0  0  0  0  0  0  0
   -1.2123   24.5839  -28.2284 H   0  0  0  0  0  0  0  0  0  0  0  0
   -2.6814   23.0684  -30.8850 H   0  0  0  0  0  0  0  0  0  0  0  0
   -1.9594   21.3585  -32.0079 H   0  0  0  0  0  0  0  0  0  0  0  0
   -1.2643   19.1994  -33.4798 H   0  0  0  0  0  0  0  0  0  0  0  0
  1  2  1  0
  2  3  1  0
  3  4  1  0
  4  5  1  0
  3  6  1  0
  6  7  1  0
  7  8  1  0
  8  9  1  0
  9 10  2  0
 10 11  1  0
 11 12  1  0
 12 13  1  0
 13 14  2  0
 14 15  1  0
 15 16  2  0
 16 17  1  0
 17 18  1  0
 16 19  1  0
 19 20  2  0
 20 21  1  0
 21 22  1  0
 22 23  1  0
 23 24  2  0
 24 25  1  0
 25 26  1  0
 26  9  1  0
 21 11  2  0
 26 22  2  0
 20 13  1  0
  1 27  1  0
  1 28  1  0
  1 29  1  0
  2 30  1  0
  2 31  1  0
  4 32  1  0
  4 33  1  0
  5 34  1  0
  5 35  1  0
  5 36  1  0
  6 37  1  0
  6 38  1  0
  7 39  1  0
  7 40  1  0
  8 41  1  0
 10 42  1  0
 12 43  1  0
 14 44  1  0
 15 45  1  0
 18 46  1  0
 18 47  1  0
 18 48  1  0
 19 49  1  0
 23 50  1  0
 24 51  1  0
M  END
>  <smiles>  (5) 
CCN(CC)CCNc1cc2[nH]c3ccc(OC)cc3c2c2ccoc12

>  <score_type>  (5) 
oracle

>  <origin>  (5) 
adg

>  <m_score__min__energy>  (5) 
-8.4600000000000009

>  <m_primary>  (5) 
energy

$$$$
5:0
     RDKit          3D

 42 44  0  0  0  0  0  0  0  0999 V2000
   -5.4670   15.8940  -32.7000 C   0  0  0  0  0  0  0  0  0  0  0  0
   -6.6640   16.3050  -33.2710 O   0  0  0  0  0  0  0  0  0  0  0  0
   -6.4880   17.2630  -34.2550 C   0  0  0  0  0  0  0  0  0  0  0  0
   -5.7700   18.4460  -33.7060 C   0  0  0  0  0  0  0  0  0  0  0  0
   -4.4080   18.6640  -33.7610 C   0  0  0  0  0  0  0  0  0  0  0  0
   -3.3930   17.8430  -34.3350 N   0  0  0  0  0  0  0  0  0  0  0  0
   -3.6760   16.8780  -35.3890 C   0  0  0  0  0  0  0  0  0  0  0  0
   -2.0290   17.9730  -33.8540 C   0  0  0  0  0  0  0  0  0  0  0  0
   -4.1200   19.8720  -33.1450 C   0  0  0  0  0  0  0  0  0  0  0  0
   -5.3500   20.3770  -32.7170 C   0  0  0  0  0  0  0  0  0  0  0  0
   -5.5530   21.6500  -32.0020 C   0  0  0  0  0  0  0  0  0  0  0  0
   -4.7360   21.9890  -30.9400 C   0  0  0  0  0  0  0  0  0  0  0  0
   -4.9170   23.1800  -30.2670 C   0  0  0  0  0  0  0  0  0  0  0  0
   -5.9430   24.0380  -30.6740 C   0  0  0  0  0  0  0  0  0  0  0  0
   -6.1590   25.6760  -29.7120 Br  0  0  0  0  0  0  0  0  0  0  0  0
   -6.7570   23.7080  -31.7250 C   0  0  0  0  0  0  0  0  0  0  0  0
   -6.5710   22.5060  -32.4050 C   0  0  0  0  0  0  0  0  0  0  0  0
   -6.3330   19.5070  -33.0610 N   0  0  0  0  0  0  0  0  0  0  0  0
   -7.7520   19.5980  -32.8310 C   0  0  0  0  0  0  0  0  0  0  0  0
   -8.3010   18.5130  -31.8610 C   0  0  0  0  0  0  0  0  0  0  0  0
   -8.3610   19.9650  -31.5550 C   0  0  0  0  0  0  0  0  0  0  0  0
   -5.5543   15.9240  -31.6039 H   0  0  0  0  0  0  0  0  0  0  0  0
   -5.2409   14.8667  -33.0219 H   0  0  0  0  0  0  0  0  0  0  0  0
   -4.6575   16.5657  -33.0219 H   0  0  0  0  0  0  0  0  0  0  0  0
   -5.8999   16.8324  -35.0788 H   0  0  0  0  0  0  0  0  0  0  0  0
   -7.4745   17.5831  -34.6214 H   0  0  0  0  0  0  0  0  0  0  0  0
   -3.9584   15.9151  -34.9384 H   0  0  0  0  0  0  0  0  0  0  0  0
   -4.5035   17.2479  -36.0122 H   0  0  0  0  0  0  0  0  0  0  0  0
   -2.7798   16.7424  -36.0122 H   0  0  0  0  0  0  0  0  0  0  0  0
   -2.0266   17.9732  -32.7540 H   0  0  0  0  0  0  0  0  0  0  0  0
   -1.4284   17.1280  -34.2218 H   0  0  0  0  0  0  0  0  0  0  0  0
   -1.5988   18.9162  -34.2218 H   0  0  0  0  0  0  0  0  0  0  0  0
   -3.1304   20.3356  -33.0196 H   0  0  0  0  0  0  0  0  0  0  0  0
   -3.9343   21.3033  -30.6285 H   0  0  0  0  0  0  0  0  0  0  0  0
   -4.2644   23.4500  -29.4237 H   0  0  0  0  0  0  0  0  0  0  0  0
   -7.5599   24.3938  -32.0332 H   0  0  0  0  0  0  0  0  0  0  0  0
   -7.2219   22.2380  -33.2503 H   0  0  0  0  0  0  0  0  0  0  0  0
   -7.9156   19.9852  -33.8475 H   0  0  0  0  0  0  0  0  0  0  0  0
   -9.2176   17.9573  -32.1079 H   0  0  0  0  0  0  0  0  0  0  0  0
   -7.9011   17.6146  -31.3680 H   0  0  0  0  0  0  0  0  0  0  0  0
   -9.3355   20.4752  -31.5494 H   0  0  0  0  0  0  0  0  0  0  0  0
   -8.0211   20.5718  -30.7028 H   0  0  0  0  0  0  0  0  0  0  0  0
  1  2  1  0
  2  3  1  0
  3  4  1  0
  4  5  2  0
  5  6  1  0
  6  7  1  0
  6  8  1  0
  5  9  1  0
  9 10  2  0
 10 11  1  0
 11 12  2  0
 12 13  1  0
 13 14  2  0
 14 15  1  0
 14 16  1  0
 16 17  2  0
 10 18  1  0
 18 19  1  0
 19 20  1  0
 20 21  1  0
 18  4  1  0
 21 19  1  0
 17 11  1  0
  1 22  1  0
  1 23  1  0
  1 24  1  0
  3 25  1  0
  3 26  1  0
  7 27  1  0
  7 28  1  0
  7 29  1  0
  8 30  1  0
  8 31  1  0
  8 32  1  0
  9 33  1  0
 12 34  1  0
 13 35  1  0
 16 36  1  0
 17 37  1  0
 19 38  1  0
 20 39  1  0
 20 40  1  0
 21 41  1  0
 21 42  1  0
M  END
>  <smiles>  (6) 
COCc1c(N(C)C)cc(-c2ccc(Br)cc2)n1C1CC1

>  <score_type>  (6) 
oracle

>  <origin>  (6) 
adg

>  <m_score__min__energy>  (6) 
-7.1600000000000001

>  <m_primary>  (6) 
energy

$$$$
6:0
     RDKit          3D

 68 70  0  0  0  0  0  0  0  0999 V2000
   -1.2720   24.2020  -26.5170 C   0  0  0  0  0  0  0  0  0  0  0  0
   -2.2080   25.2370  -27.1550 C   0  0  0  0  0  0  0  0  0  0  0  0
   -2.0820   25.0780  -28.5610 N   0  0  0  0  0  0  0  0  0  0  0  0
   -0.8580   24.4720  -28.9640 C   0  0  0  0  0  0  0  0  0  0  0  0
   -3.1990   24.5130  -29.2500 C   0  0  0  0  0  0  0  0  0  0  0  0
   -4.1580   23.7730  -28.3800 C   0  0  0  0  0  0  0  0  0  0  0  0
   -4.3050   22.4370  -28.6770 O   0  0  0  0  0  0  0  0  0  0  0  0
   -3.4410   21.5950  -27.9690 C   0  0  0  0  0  0  0  0  0  0  0  0
   -2.7430   20.7550  -29.0060 C   0  0  0  0  0  0  0  0  0  0  0  0
   -1.3580   21.1220  -29.2410 N   0  0  0  0  0  0  0  0  0  0  0  0
   -0.6130   19.8330  -29.2890 C   0  0  0  0  0  0  0  0  0  0  0  0
   -1.3040   21.6530  -30.6000 C   0  0  0  0  0  0  0  0  0  0  0  0
   -2.6270   21.6060  -31.3130 C   0  0  0  0  0  0  0  0  0  0  0  0
   -2.5270   21.4360  -32.8020 C   0  0  0  0  0  0  0  0  0  0  0  0
   -3.7820   21.6510  -33.4670 N   0  0  0  0  0  0  0  0  0  0  0  0
   -5.0270   21.1550  -33.0270 C   0  0  0  0  0  0  0  0  0  0  0  0
   -5.5300   19.9050  -33.2730 C   0  0  0  0  0  0  0  0  0  0  0  0
   -6.7560   19.5700  -32.7530 C   0  0  0  0  0  0  0  0  0  0  0  0
   -7.4950   20.4390  -31.9960 N   0  0  0  0  0  0  0  0  0  0  0  0
   -8.7880   20.0590  -31.4520 C   0  0  0  0  0  0  0  0  0  0  0  0
   -7.0120   21.6690  -31.7470 C   0  0  0  0  0  0  0  0  0  0  0  0
   -7.7110   22.5870  -30.9870 C   0  0  0  0  0  0  0  0  0  0  0  0
   -7.2360   23.8550  -30.7130 C   0  0  0  0  0  0  0  0  0  0  0  0
   -6.0070   24.2170  -31.2230 C   0  0  0  0  0  0  0  0  0  0  0  0
   -5.3120   23.3000  -31.9820 C   0  0  0  0  0  0  0  0  0  0  0  0
   -5.7920   22.0420  -32.2510 C   0  0  0  0  0  0  0  0  0  0  0  0
   -7.1450   18.1840  -33.1160 C   0  0  0  0  0  0  0  0  0  0  0  0
   -6.0460   17.7240  -34.0100 C   0  0  0  0  0  0  0  0  0  0  0  0
   -4.9720   18.7850  -34.0350 C   0  0  0  0  0  0  0  0  0  0  0  0
   -1.3376   24.2745  -25.4214 H   0  0  0  0  0  0  0  0  0  0  0  0
   -1.5699   23.1923  -26.8361 H   0  0  0  0  0  0  0  0  0  0  0  0
   -0.2376   24.3972  -26.8361 H   0  0  0  0  0  0  0  0  0  0  0  0
   -3.2468   25.0541  -26.8429 H   0  0  0  0  0  0  0  0  0  0  0  0
   -1.9446   26.2586  -26.8438 H   0  0  0  0  0  0  0  0  0  0  0  0
   -0.2798   24.1857  -28.0731 H   0  0  0  0  0  0  0  0  0  0  0  0
   -1.0728   23.5762  -29.5651 H   0  0  0  0  0  0  0  0  0  0  0  0
   -0.2758   25.1860  -29.5651 H   0  0  0  0  0  0  0  0  0  0  0  0
   -3.7451   25.3296  -29.7449 H   0  0  0  0  0  0  0  0  0  0  0  0
   -2.7884   23.7767  -29.9565 H   0  0  0  0  0  0  0  0  0  0  0  0
   -3.8076   23.8544  -27.3405 H   0  0  0  0  0  0  0  0  0  0  0  0
   -5.1424   24.2341  -28.5480 H   0  0  0  0  0  0  0  0  0  0  0  0
   -2.7092   22.1879  -27.4007 H   0  0  0  0  0  0  0  0  0  0  0  0
   -3.9868   20.9723  -27.2449 H   0  0  0  0  0  0  0  0  0  0  0  0
   -2.7697   19.7065  -28.6745 H   0  0  0  0  0  0  0  0  0  0  0  0
   -3.2766   20.9184  -29.9539 H   0  0  0  0  0  0  0  0  0  0  0  0
   -0.4129   19.4868  -28.2643 H   0  0  0  0  0  0  0  0  0  0  0  0
   -1.2156   19.0807  -29.8191 H   0  0  0  0  0  0  0  0  0  0  0  0
    0.3396   19.9796  -29.8191 H   0  0  0  0  0  0  0  0  0  0  0  0
   -0.9708   22.7002  -30.5521 H   0  0  0  0  0  0  0  0  0  0  0  0
   -0.6065   21.0201  -31.1682 H   0  0  0  0  0  0  0  0  0  0  0  0
   -3.2051   20.7619  -30.9090 H   0  0  0  0  0  0  0  0  0  0  0  0
   -3.1094   22.5795  -31.1412 H   0  0  0  0  0  0  0  0  0  0  0  0
   -1.7938   22.1580  -33.1908 H   0  0  0  0  0  0  0  0  0  0  0  0
   -2.2182   20.3989  -32.9994 H   0  0  0  0  0  0  0  0  0  0  0  0
   -3.7690   22.2240  -34.3420 H   0  0  0  0  0  0  0  0  0  0  0  0
   -8.7418   20.0726  -30.3531 H   0  0  0  0  0  0  0  0  0  0  0  0
   -9.5537   20.7701  -31.7956 H   0  0  0  0  0  0  0  0  0  0  0  0
   -9.0472   19.0467  -31.7956 H   0  0  0  0  0  0  0  0  0  0  0  0
   -8.6909   22.2948  -30.5814 H   0  0  0  0  0  0  0  0  0  0  0  0
   -7.8231   24.5578  -30.1036 H   0  0  0  0  0  0  0  0  0  0  0  0
   -5.5902   25.2162  -31.0283 H   0  0  0  0  0  0  0  0  0  0  0  0
   -4.3317   23.5881  -32.3893 H   0  0  0  0  0  0  0  0  0  0  0  0
   -7.2119   17.5493  -32.2201 H   0  0  0  0  0  0  0  0  0  0  0  0
   -8.1323   18.1338  -33.5984 H   0  0  0  0  0  0  0  0  0  0  0  0
   -5.6272   16.7812  -33.6281 H   0  0  0  0  0  0  0  0  0  0  0  0
   -6.4326   17.5554  -35.0259 H   0  0  0  0  0  0  0  0  0  0  0  0
   -4.0513   18.4148  -33.5605 H   0  0  0  0  0  0  0  0  0  0  0  0
   -4.7017   19.0762  -35.0607 H   0  0  0  0  0  0  0  0  0  0  0  0
  1  2  1  0
  2  3  1  0
  3  4  1  0
  3  5  1  0
  5  6  1  0
  6  7  1  0
  7  8  1  0
  8  9  1  0
  9 10  1  0
 10 11  1  0
 10 12  1  0
 12 13  1  0
 13 14  1  0
 14 15  1  0
 15 16  1  0
 16 17  2  0
 17 18  1  0
 18 19  2  0
 19 20  1  0
 19 21  1  0
 21 22  2  0
 22 23  1  0
 23 24  2  0
 24 25  1  0
 25 26  2  0
 18 27  1  0
 27 28  1  0
 28 29  1  0
 26 16  1  0
 29 17  1  0
 26 21  1  0
  1 30  1  0
  1 31  1  0
  1 32  1  0
  2 33  1  0
  2 34  1  0
  4 35  1  0
  4 36  1  0
  4 37  1  0
  5 38  1  0
  5 39  1  0
  6 40  1  0
  6 41  1  0
  8 42  1  0
  8 43  1  0
  9 44  1  0
  9 45  1  0
 11 46  1  0
 11 47  1  0
 11 48  1  0
 12 49  1  0
 12 50  1  0
 13 51  1  0
 13 52  1  0
 14 53  1  0
 14 54  1  0
 15 55  1  0
 20 56  1  0
 20 57  1  0
 20 58  1  0
 22 59  1  0
 23 60  1  0
 24 61  1  0
 25 62  1  0
 27 63  1  0
 27 64  1  0
 28 65  1  0
 28 66  1  0
 29 67  1  0
 29 68  1  0
M  CHG  1  19   1
M  END
>  <smiles>  (7) 
CCN(C)CCOCCN(C)CCCNc1c2c([n+](C)c3ccccc13)CCC2

>  <score_type>  (7) 
oracle

>  <origin>  (7) 
adg

>  <m_score__min__energy>  (7) 
-8.9700000000000006

>  <m_primary>  (7) 
energy

$$$$
7:0
     RDKit          3D

 39 42  0  0  0  0  0  0  0  0999 V2000
   -4.7190   20.4570  -32.2320 C   0  0  0  0  0  0  0  0  0  0  0  0
   -5.9860   19.8500  -32.4820 N   0  0  0  0  0  0  0  0  0  0  0  0
   -6.2130   18.6240  -32.9860 C   0  0  0  0  0  0  0  0  0  0  0  0
   -7.5520   18.4060  -33.0910 N   0  0  0  0  0  0  0  0  0  0  0  0
   -8.1840   19.5110  -32.6480 C   0  0  0  0  0  0  0  0  0  0  0  0
   -9.4910   19.7950  -32.5560 N   0  0  0  0  0  0  0  0  0  0  0  0
   -9.8610   20.9970  -32.0790 C   0  0  0  0  0  0  0  0  0  0  0  0
   -8.9180   21.8800  -31.7060 N   0  0  0  0  0  0  0  0  0  0  0  0
   -7.5810   21.6130  -31.7900 C   0  0  0  0  0  0  0  0  0  0  0  0
   -6.7180   22.6330  -31.3320 N   0  0  0  0  0  0  0  0  0  0  0  0
   -5.5220   23.3610  -31.6640 C   0  0  0  0  0  0  0  0  0  0  0  0
   -5.8750   24.4800  -30.7060 C   0  0  0  0  0  0  0  0  0  0  0  0
   -4.7280   24.9260  -29.8420 C   0  0  0  0  0  0  0  0  0  0  0  0
   -3.4800   24.7280  -30.4740 O   0  0  0  0  0  0  0  0  0  0  0  0
   -2.6300   23.6730  -30.1040 C   0  0  0  0  0  0  0  0  0  0  0  0
   -2.7520   22.4730  -30.8100 C   0  0  0  0  0  0  0  0  0  0  0  0
   -1.9640   21.3800  -30.5230 C   0  0  0  0  0  0  0  0  0  0  0  0
   -1.0370   21.5040  -29.5030 C   0  0  0  0  0  0  0  0  0  0  0  0
   -0.0400   20.1090  -29.1470 Cl  0  0  0  0  0  0  0  0  0  0  0  0
   -0.9180   22.6970  -28.8050 C   0  0  0  0  0  0  0  0  0  0  0  0
   -1.7080   23.8020  -29.0880 C   0  0  0  0  0  0  0  0  0  0  0  0
   -1.5490   25.4430  -28.1310 Br  0  0  0  0  0  0  0  0  0  0  0  0
   -6.8040   23.4500  -30.1030 C   0  0  0  0  0  0  0  0  0  0  0  0
   -7.1850   20.3940  -32.2750 C   0  0  0  0  0  0  0  0  0  0  0  0
   -4.5573   20.5345  -31.1467 H   0  0  0  0  0  0  0  0  0  0  0  0
   -3.9235   19.8422  -32.6783 H   0  0  0  0  0  0  0  0  0  0  0  0
   -4.6996   21.4622  -32.6783 H   0  0  0  0  0  0  0  0  0  0  0  0
   -5.4318   17.9040  -33.2712 H   0  0  0  0  0  0  0  0  0  0  0  0
  -10.9268   21.2557  -31.9947 H   0  0  0  0  0  0  0  0  0  0  0  0
   -4.5950   22.8306  -31.4007 H   0  0  0  0  0  0  0  0  0  0  0  0
   -5.3105   23.5992  -32.7169 H   0  0  0  0  0  0  0  0  0  0  0  0
   -6.2151   25.4810  -31.0098 H   0  0  0  0  0  0  0  0  0  0  0  0
   -4.8470   25.9965  -29.6189 H   0  0  0  0  0  0  0  0  0  0  0  0
   -4.7419   24.3233  -28.9219 H   0  0  0  0  0  0  0  0  0  0  0  0
   -3.4969   22.3993  -31.6161 H   0  0  0  0  0  0  0  0  0  0  0  0
   -2.0681   20.4405  -31.0856 H   0  0  0  0  0  0  0  0  0  0  0  0
   -0.1720   22.7694  -27.9999 H   0  0  0  0  0  0  0  0  0  0  0  0
   -6.4009   22.9543  -29.2076 H   0  0  0  0  0  0  0  0  0  0  0  0
   -7.7853   23.7545  -29.7100 H   0  0  0  0  0  0  0  0  0  0  0  0
  1  2  1  0
  2  3  1  0
  3  4  2  0
  4  5  1  0
  5  6  2  0
  6  7  1  0
  7  8  2  0
  8  9  1  0
  9 10  1  0
 10 11  1  0
 11 12  1  0
 12 13  1  0
 13 14  1  0
 14 15  1  0
 15 16  2  0
 16 17  1  0
 17 18  2  0
 18 19  1  0
 18 20  1  0
 20 21  2  0
 21 22  1  0
 12 23  1  0
  9 24  2  0
 24  2  1  0
 24  5  1  0
 23 10  1  0
 21 15  1  0
  1 25  1  0
  1 26  1  0
  1 27  1  0
  3 28  1  0
  7 29  1  0
 11 30  1  0
 11 31  1  0
 12 32  1  0
 13 33  1  0
 13 34  1  0
 16 35  1  0
 17 36  1  0
 20 37  1  0
 23 38  1  0
 23 39  1  0
M  END
>  <smiles>  (8) 
Cn1cnc2ncnc(N3CC(COc4ccc(Cl)cc4Br)C3)c21

>  <score_type>  (8) 
oracle

>  <origin>  (8) 
adg

>  <m_score__min__energy>  (8) 
-8.3900000000000006

>  <m_primary>  (8) 
energy

$$$$
8:0
     RDKit          3D

 44 46  0  0  0  0  0  0  0  0999 V2000
   -4.2410   22.9180  -28.2690 C   0  0  0  0  0  0  0  0  0  0  0  0
   -3.9680   23.9760  -28.9780 C   0  0  0  0  0  0  0  0  0  0  0  0
   -3.6420   24.0700  -30.4020 C   0  0  0  0  0  0  0  0  0  0  0  0
   -4.5740   24.8160  -31.1520 N   0  0  0  0  0  0  0  0  0  0  0  0
   -5.9440   24.7530  -30.7970 C   0  0  0  0  0  0  0  0  0  0  0  0
   -6.6120   23.4510  -31.2070 C   0  0  0  0  0  0  0  0  0  0  0  0
   -6.0720   22.8920  -32.4130 N   0  0  0  0  0  0  0  0  0  0  0  0
   -6.0470   21.5060  -32.6030 C   0  0  0  0  0  0  0  0  0  0  0  0
   -7.1360   20.6670  -32.5200 C   0  0  0  0  0  0  0  0  0  0  0  0
   -8.3480   21.2530  -32.2190 C   0  0  0  0  0  0  0  0  0  0  0  0
   -9.4900   20.4740  -32.1150 C   0  0  0  0  0  0  0  0  0  0  0  0
   -9.3350   19.1190  -32.3260 C   0  0  0  0  0  0  0  0  0  0  0  0
   -8.1170   18.5370  -32.6290 C   0  0  0  0  0  0  0  0  0  0  0  0
   -6.9830   19.3130  -32.7330 C   0  0  0  0  0  0  0  0  0  0  0  0
   -5.8120   18.7260  -33.0240 N   0  0  0  0  0  0  0  0  0  0  0  0
   -5.6110   17.3350  -33.2590 C   0  0  0  0  0  0  0  0  0  0  0  0
   -4.7170   19.5370  -33.1110 C   0  0  0  0  0  0  0  0  0  0  0  0
   -3.4630   19.0330  -33.4030 C   0  0  0  0  0  0  0  0  0  0  0  0
   -2.3800   19.8560  -33.4860 C   0  0  0  0  0  0  0  0  0  0  0  0
   -2.4460   21.2250  -33.2890 C   0  0  0  0  0  0  0  0  0  0  0  0
   -3.7010   21.7340  -32.9940 C   0  0  0  0  0  0  0  0  0  0  0  0
   -4.8220   20.9090  -32.9050 C   0  0  0  0  0  0  0  0  0  0  0  0
   -4.4677   23.0176  -27.1972 H   0  0  0  0  0  0  0  0  0  0  0  0
   -4.2448   21.9249  -28.7420 H   0  0  0  0  0  0  0  0  0  0  0  0
   -3.9847   24.9304  -28.4314 H   0  0  0  0  0  0  0  0  0  0  0  0
   -2.6559   24.5473  -30.5011 H   0  0  0  0  0  0  0  0  0  0  0  0
   -3.6565   23.0453  -30.8018 H   0  0  0  0  0  0  0  0  0  0  0  0
   -4.2320   25.6710  -31.6000 H   0  0  0  0  0  0  0  0  0  0  0  0
   -6.0270   24.8593  -29.7053 H   0  0  0  0  0  0  0  0  0  0  0  0
   -6.4571   25.5652  -31.3328 H   0  0  0  0  0  0  0  0  0  0  0  0
   -6.4818   22.7208  -30.3947 H   0  0  0  0  0  0  0  0  0  0  0  0
   -7.6722   23.6742  -31.3973 H   0  0  0  0  0  0  0  0  0  0  0  0
   -5.7030   23.5920  -33.1250 H   0  0  0  0  0  0  0  0  0  0  0  0
   -8.4084   22.3400  -32.0613 H   0  0  0  0  0  0  0  0  0  0  0  0
  -10.4698   20.9135  -31.8765 H   0  0  0  0  0  0  0  0  0  0  0  0
  -10.2211   18.4716  -32.2497 H   0  0  0  0  0  0  0  0  0  0  0  0
   -8.0535   17.4503  -32.7876 H   0  0  0  0  0  0  0  0  0  0  0  0
   -5.5348   16.8078  -32.2966 H   0  0  0  0  0  0  0  0  0  0  0  0
   -6.4604   16.9333  -33.8309 H   0  0  0  0  0  0  0  0  0  0  0  0
   -4.6826   17.1902  -33.8309 H   0  0  0  0  0  0  0  0  0  0  0  0
   -3.3379   17.9531  -33.5706 H   0  0  0  0  0  0  0  0  0  0  0  0
   -1.4027   19.4096  -33.7217 H   0  0  0  0  0  0  0  0  0  0  0  0
   -1.5572   21.8689  -33.3621 H   0  0  0  0  0  0  0  0  0  0  0  0
   -3.8157   22.8150  -32.8260 H   0  0  0  0  0  0  0  0  0  0  0  0
  1  2  2  0
  2  3  1  0
  3  4  1  0
  4  5  1  0
  5  6  1  0
  6  7  1  0
  7  8  1  0
  8  9  2  0
  9 10  1  0
 10 11  2  0
 11 12  1  0
 12 13  2  0
 13 14  1  0
 14 15  2  0
 15 16  1  0
 15 17  1  0
 17 18  2  0
 18 19  1  0
 19 20  2  0
 20 21  1  0
 21 22  2  0
 22  8  1  0
 14  9  1  0
 22 17  1  0
  1 23  1  0
  1 24  1  0
  2 25  1  0
  3 26  1  0
  3 27  1  0
  4 28  1  0
  5 29  1  0
  5 30  1  0
  6 31  1  0
  6 32  1  0
  7 33  1  0
 10 34  1  0
 11 35  1  0
 12 36  1  0
 13 37  1  0
 16 38  1  0
 16 39  1  0
 16 40  1  0
 18 41  1  0
 19 42  1  0
 20 43  1  0
 21 44  1  0
M  CHG  1  15   1
M  END
>  <smiles>  (9) 
C=CCNCCNc1c2ccccc2[n+](C)c2ccccc12

>  <score_type>  (9) 
oracle

>  <origin>  (9) 
adg

>  <m_score__min__energy>  (9) 
-8.5

>  <m_primary>  (9) 
energy

$$$$
9:0
     RDKit          3D

 33 33  0  0  0  0  0  0  0  0999 V2000
   -5.5940   19.6510  -33.3810 Br  0  0  0  0  0  0  0  0  0  0  0  0
   -6.9080   18.2250  -33.1210 C   0  0  0  0  0  0  0  0  0  0  0  0
   -7.3170   18.3170  -31.6710 C   0  0  0  0  0  0  0  0  0  0  0  0
   -8.7500   18.7290  -31.5860 C   0  0  0  0  0  0  0  0  0  0  0  0
   -9.0930   19.6360  -32.7180 C   0  0  0  0  0  0  0  0  0  0  0  0
   -9.7470   20.9380  -32.2870 C   0  0  0  0  0  0  0  0  0  0  0  0
   -8.9640   21.5440  -31.1670 C   0  0  0  0  0  0  0  0  0  0  0  0
   -7.8110   22.3930  -31.6610 C   0  0  0  0  0  0  0  0  0  0  0  0
   -6.5870   22.2580  -30.8200 C   0  0  0  0  0  0  0  0  0  0  0  0
   -5.9250   23.5600  -30.7350 N   0  0  0  0  0  0  0  0  0  0  0  0
   -6.4520   24.7500  -30.4080 C   0  0  0  0  0  0  0  0  0  0  0  0
   -5.4100   25.6790  -30.4730 C   0  0  0  0  0  0  0  0  0  0  0  0
   -4.2700   25.0270  -30.8410 N   0  0  0  0  0  0  0  0  0  0  0  0
   -4.6080   23.7330  -30.9950 C   0  0  0  0  0  0  0  0  0  0  0  0
   -7.7777   18.3787  -33.7768 H   0  0  0  0  0  0  0  0  0  0  0  0
   -6.4933   17.2364  -33.3673 H   0  0  0  0  0  0  0  0  0  0  0  0
   -7.1878   17.3362  -31.1901 H   0  0  0  0  0  0  0  0  0  0  0  0
   -6.6894   19.0608  -31.1582 H   0  0  0  0  0  0  0  0  0  0  0  0
   -9.3885   17.8344  -31.6309 H   0  0  0  0  0  0  0  0  0  0  0  0
   -8.9148   19.2609  -30.6374 H   0  0  0  0  0  0  0  0  0  0  0  0
   -8.1675   19.8766  -33.2617 H   0  0  0  0  0  0  0  0  0  0  0  0
   -9.8240   19.1033  -33.3439 H   0  0  0  0  0  0  0  0  0  0  0  0
   -9.7700   21.6355  -33.1373 H   0  0  0  0  0  0  0  0  0  0  0  0
  -10.7742   20.7371  -31.9486 H   0  0  0  0  0  0  0  0  0  0  0  0
   -9.6361   22.1756  -30.5675 H   0  0  0  0  0  0  0  0  0  0  0  0
   -8.5430   20.7221  -30.5693 H   0  0  0  0  0  0  0  0  0  0  0  0
   -7.5657   22.0875  -32.6889 H   0  0  0  0  0  0  0  0  0  0  0  0
   -8.1308   23.4443  -31.6109 H   0  0  0  0  0  0  0  0  0  0  0  0
   -6.8672   21.9196  -29.8116 H   0  0  0  0  0  0  0  0  0  0  0  0
   -5.9049   21.5215  -31.2698 H   0  0  0  0  0  0  0  0  0  0  0  0
   -7.4994   24.9543  -30.1410 H   0  0  0  0  0  0  0  0  0  0  0  0
   -5.4950   26.7554  -30.2627 H   0  0  0  0  0  0  0  0  0  0  0  0
   -3.9141   22.9320  -31.2896 H   0  0  0  0  0  0  0  0  0  0  0  0
  1  2  1  0
  2  3  1  0
  3  4  1  0
  4  5  1  0
  5  6  1  0
  6  7  1  0
  7  8  1  0
  8  9  1  0
  9 10  1  0
 10 11  1  0
 11 12  2  0
 12 13  1  0
 13 14  2  0
 14 10  1  0
  2 15  1  0
  2 16  1  0
  3 17  1  0
  3 18  1  0
  4 19  1  0
  4 20  1  0
  5 21  1  0
  5 22  1  0
  6 23  1  0
  6 24  1  0
  7 25  1  0
  7 26  1  0
  8 27  1  0
  8 28  1  0
  9 29  1  0
  9 30  1  0
 11 31  1  0
 12 32  1  0
 14 33  1  0
M  END
>  <smiles>  (10) 
BrCCCCCCCCn1ccnc1

>  <score_type>  (10) 
oracle

>  <origin>  (10) 
adg

>  <m_score__min__energy>  (10) 
-5.9900000000000002

>  <m_primary>  (10) 
energy

$$$$
10:0
     RDKit          3D

 70 72  0  0  1  0  0  0  0  0999 V2000
    1.9720   20.6310  -34.7200 C   0  0  0  0  0  0  0  0  0  0  0  0
    0.8180   21.5360  -34.4050 C   0  0  0  0  0  0  0  0  0  0  0  0
    0.6500   22.5960  -35.0580 O   0  0  0  0  0  0  0  0  0  0  0  0
   -0.0960   21.2580  -33.4060 O   0  0  0  0  0  0  0  0  0  0  0  0
   -1.3710   20.7020  -33.5950 C   0  0  2  0  0  0  0  0  0  0  0  0
   -2.4820   21.3940  -32.8480 C   0  0  0  0  0  0  0  0  0  0  0  0
   -3.7730   20.9360  -33.4940 C   0  0  0  0  0  0  0  0  0  0  0  0
   -4.4390   19.7990  -32.7790 C   0  0  2  0  0  0  0  0  0  0  0  0
   -4.6460   20.0840  -31.3230 C   0  0  0  0  0  0  0  0  0  0  0  0
   -3.5550   18.5490  -32.8770 C   0  0  1  0  0  0  0  0  0  0  0  0
   -3.8820   17.7450  -34.1070 C   0  0  0  0  0  0  0  0  0  0  0  0
   -5.3080   17.2270  -34.0410 C   0  0  0  0  0  0  0  0  0  0  0  0
   -6.1730   18.1220  -33.1470 C   0  0  1  0  0  0  0  0  0  0  0  0
   -7.3790   17.6030  -32.6440 C   0  0  0  0  0  0  0  0  0  0  0  0
   -6.2010   17.7600  -31.7930 O   0  0  0  0  0  0  0  0  0  0  0  0
   -5.7600   19.5170  -33.5080 C   0  0  1  0  0  0  0  0  0  0  0  0
   -6.7910   20.5700  -33.3360 C   0  0  0  0  0  0  0  0  0  0  0  0
   -7.5200   20.5090  -32.0270 C   0  0  0  0  0  0  0  0  0  0  0  0
   -8.0800   21.8330  -31.6330 C   0  0  0  0  0  0  0  0  0  0  0  0
   -9.4960   21.9000  -31.1840 C   0  0  0  0  0  0  0  0  0  0  0  0
   -7.3520   22.9400  -31.6760 C   0  0  0  0  0  0  0  0  0  0  0  0
   -5.9830   23.0460  -31.0920 C   0  0  0  0  0  0  0  0  0  0  0  0
   -5.4750   24.3380  -31.5160 N   0  0  0  0  0  0  0  0  0  0  0  0
   -5.3200   25.2860  -30.4580 C   0  0  0  0  0  0  0  0  0  0  0  0
   -4.8070   24.5200  -29.2310 C   0  0  0  0  0  0  0  0  0  0  0  0
   -3.0450   24.3030  -29.3310 Cl  0  0  0  0  0  0  0  0  0  0  0  0
   -2.2850   18.7270  -32.5490 O   0  0  0  0  0  0  0  0  0  0  0  0
   -1.3110   19.2300  -33.2940 C   0  0  0  0  0  0  0  0  0  0  0  0
   -0.9730   18.5210  -34.5900 C   0  0  0  0  0  0  0  0  0  0  0  0
   -0.0520   19.0270  -32.4250 C   0  0  0  0  0  0  0  0  0  0  0  0
    2.4255   20.2754  -33.7830 H   0  0  0  0  0  0  0  0  0  0  0  0
    1.6142   19.7702  -35.3040 H   0  0  0  0  0  0  0  0  0  0  0  0
    2.7226   21.1837  -35.3040 H   0  0  0  0  0  0  0  0  0  0  0  0
   -1.6391   20.8592  -34.6502 H   0  0  0  0  0  0  0  0  0  0  0  0
   -2.4641   21.1074  -31.7861 H   0  0  0  0  0  0  0  0  0  0  0  0
   -2.3761   22.4879  -32.8942 H   0  0  0  0  0  0  0  0  0  0  0  0
   -4.4699   21.7868  -33.5168 H   0  0  0  0  0  0  0  0  0  0  0  0
   -3.5160   20.5741  -34.5005 H   0  0  0  0  0  0  0  0  0  0  0  0
   -4.1043   19.3382  -30.7228 H   0  0  0  0  0  0  0  0  0  0  0  0
   -4.2662   21.0894  -31.0885 H   0  0  0  0  0  0  0  0  0  0  0  0
   -5.7195   20.0337  -31.0885 H   0  0  0  0  0  0  0  0  0  0  0  0
   -3.8256   17.8722  -32.0532 H   0  0  0  0  0  0  0  0  0  0  0  0
   -3.1902   16.8926  -34.1766 H   0  0  0  0  0  0  0  0  0  0  0  0
   -3.7789   18.3907  -34.9916 H   0  0  0  0  0  0  0  0  0  0  0  0
   -5.3020   16.2063  -33.6310 H   0  0  0  0  0  0  0  0  0  0  0  0
   -5.7309   17.2301  -35.0565 H   0  0  0  0  0  0  0  0  0  0  0  0
   -8.2513   18.2594  -32.5093 H   0  0  0  0  0  0  0  0  0  0  0  0
   -8.0511   16.7744  -32.9118 H   0  0  0  0  0  0  0  0  0  0  0  0
   -5.6162   19.5657  -34.5975 H   0  0  0  0  0  0  0  0  0  0  0  0
   -6.2983   21.5506  -33.4110 H   0  0  0  0  0  0  0  0  0  0  0  0
   -7.5418   20.4087  -34.1236 H   0  0  0  0  0  0  0  0  0  0  0  0
   -8.3452   19.7870  -32.1143 H   0  0  0  0  0  0  0  0  0  0  0  0
   -6.8006   20.2025  -31.2534 H   0  0  0  0  0  0  0  0  0  0  0  0
   -9.5324   21.9017  -30.0846 H   0  0  0  0  0  0  0  0  0  0  0  0
   -9.9591   22.8211  -31.5676 H   0  0  0  0  0  0  0  0  0  0  0  0
  -10.0440   21.0268  -31.5676 H   0  0  0  0  0  0  0  0  0  0  0  0
   -7.7793   23.8264  -32.1677 H   0  0  0  0  0  0  0  0  0  0  0  0
   -6.0290   22.9933  -29.9942 H   0  0  0  0  0  0  0  0  0  0  0  0
   -5.3334   22.2240  -31.4273 H   0  0  0  0  0  0  0  0  0  0  0  0
   -4.5380   24.1440  -31.9730 H   0  0  0  0  0  0  0  0  0  0  0  0
   -4.5945   26.0599  -30.7492 H   0  0  0  0  0  0  0  0  0  0  0  0
   -6.2765   25.7818  -30.2359 H   0  0  0  0  0  0  0  0  0  0  0  0
   -5.0517   25.0872  -28.3208 H   0  0  0  0  0  0  0  0  0  0  0  0
   -5.2880   23.5312  -29.1997 H   0  0  0  0  0  0  0  0  0  0  0  0
   -0.5096   17.5489  -34.3660 H   0  0  0  0  0  0  0  0  0  0  0  0
   -1.8928   18.3633  -35.1723 H   0  0  0  0  0  0  0  0  0  0  0  0
   -0.2713   19.1363  -35.1723 H   0  0  0  0  0  0  0  0  0  0  0  0
   -0.3294   19.0717  -31.3615 H   0  0  0  0  0  0  0  0  0  0  0  0
    0.3925   18.0456  -32.6470 H   0  0  0  0  0  0  0  0  0  0  0  0
    0.6784   19.8190  -32.6470 H   0  0  0  0  0  0  0  0  0  0  0  0
  1  2  1  0
  2  3  2  0
  2  4  1  0
  4  5  1  0
  5  6  1  0
  6  7  1  0
  7  8  1  0
  8  9  1  1
  8 10  1  0
 10 11  1  0
 11 12  1  0
 12 13  1  0
 13 14  1  0
 14 15  1  0
 13 16  1  0
 16 17  1  0
 17 18  1  0
 18 19  1  0
 19 20  1  0
 19 21  2  0
 21 22  1  0
 22 23  1  0
 23 24  1  0
 24 25  1  0
 25 26  1  0
 10 27  1  0
 27 28  1  0
 28 29  1  0
 28 30  1  0
 28  5  1  0
 16  8  1  0
 13 15  1  1
  1 31  1  0
  1 32  1  0
  1 33  1  0
  5 34  1  6
  6 35  1  0
  6 36  1  0
  7 37  1  0
  7 38  1  0
  9 39  1  0
  9 40  1  0
  9 41  1  0
 10 42  1  1
 11 43  1  0
 11 44  1  0
 12 45  1  0
 12 46  1  0
 14 47  1  0
 14 48  1  0
 16 49  1  6
 17 50  1  0
 17 51  1  0
 18 52  1  0
 18 53  1  0
 20 54  1  0
 20 55  1  0
 20 56  1  0
 21 57  1  0
 22 58  1  0
 22 59  1  0
 23 60  1  0
 24 61  1  0
 24 62  1  0
 25 63  1  0
 25 64  1  0
 29 65  1  0
 29 66  1  0
 29 67  1  0
 30 68  1  0
 30 69  1  0
 30 70  1  0
M  END
>  <smiles>  (11) 
CC(=O)OC1CCC2(C)C(CCC3(CO3)C2CCC(C)=CCNCCCl)OC1(C)C

>  <score_type>  (11) 
oracle

>  <origin>  (11) 
adg

>  <m_score__min__energy>  (11) 
-8

>  <m_primary>  (11) 
energy

$$$$
11:0
     RDKit          3D

 54 56  0  0  1  0  0  0  0  0999 V2000
   -3.1350   18.9590  -26.5200 C   0  0  0  0  0  0  0  0  0  0  0  0
   -1.9880   19.9640  -26.5910 C   0  0  0  0  0  0  0  0  0  0  0  0
   -2.2510   20.9430  -27.5690 O   0  0  0  0  0  0  0  0  0  0  0  0
   -1.1100   21.6450  -27.8080 C   0  0  0  0  0  0  0  0  0  0  0  0
   -0.9280   22.0120  -29.3180 C   0  0  0  0  0  0  0  0  0  0  0  0
   -1.9520   22.9450  -29.5460 N   0  0  0  0  0  0  0  0  0  0  0  0
   -1.9890   24.2490  -29.3360 C   0  0  0  0  0  0  0  0  0  0  0  0
   -0.9440   24.8840  -29.0290 N   0  0  0  0  0  0  0  0  0  0  0  0
   -0.5130   25.0720  -27.6930 C   0  0  0  0  0  0  0  0  0  0  0  0
   -1.5440   26.1100  -27.3240 N   0  0  0  0  0  0  0  0  0  0  0  0
   -0.8580   27.2660  -26.8950 C   0  0  0  0  0  0  0  0  0  0  0  0
   -1.0970   27.3730  -25.3950 C   0  0  0  0  0  0  0  0  0  0  0  0
   -1.6390   26.0390  -24.9750 C   0  0  0  0  0  0  0  0  0  0  0  0
   -2.2970   25.5560  -26.2400 C   0  0  0  0  0  0  0  0  0  0  0  0
   -3.1080   25.0170  -29.5210 N   0  0  0  0  0  0  0  0  0  0  0  0
   -4.2610   24.4810  -29.9400 C   0  0  0  0  0  0  0  0  0  0  0  0
   -5.3620   25.2920  -30.1120 C   0  0  0  0  0  0  0  0  0  0  0  0
   -6.5510   24.7120  -30.5500 C   0  0  0  0  0  0  0  0  0  0  0  0
   -6.5620   23.3520  -30.7850 C   0  0  0  0  0  0  0  0  0  0  0  0
   -8.0710   22.5600  -31.3510 S   0  0  0  0  0  0  0  0  0  0  0  0
   -7.7560   20.9410  -32.0690 C   0  0  0  0  0  0  0  0  0  0  0  0
   -9.1090   20.2550  -32.2770 C   0  0  0  0  0  0  0  0  0  0  0  0
   -5.4520   22.5510  -30.6080 C   0  0  0  0  0  0  0  0  0  0  0  0
   -4.2750   23.1280  -30.1760 C   0  0  0  0  0  0  0  0  0  0  0  0
   -3.1470   22.3890  -29.9820 C   0  0  0  0  0  0  0  0  0  0  0  0
   -3.2210   21.1490  -30.2150 O   0  0  0  0  0  0  0  0  0  0  0  0
   -3.3742   18.7494  -25.4670 H   0  0  0  0  0  0  0  0  0  0  0  0
   -4.0205   19.3772  -27.0209 H   0  0  0  0  0  0  0  0  0  0  0  0
   -2.8367   18.0262  -27.0209 H   0  0  0  0  0  0  0  0  0  0  0  0
   -1.8729   20.4519  -25.6119 H   0  0  0  0  0  0  0  0  0  0  0  0
   -1.0638   19.4314  -26.8597 H   0  0  0  0  0  0  0  0  0  0  0  0
   -1.1405   22.5752  -27.2216 H   0  0  0  0  0  0  0  0  0  0  0  0
   -0.2622   21.0069  -27.5181 H   0  0  0  0  0  0  0  0  0  0  0  0
    0.0606   22.4590  -29.4991 H   0  0  0  0  0  0  0  0  0  0  0  0
   -0.9834   21.1386  -29.9844 H   0  0  0  0  0  0  0  0  0  0  0  0
   -0.5991   24.1571  -27.0884 H   0  0  0  0  0  0  0  0  0  0  0  0
    0.5421   25.3457  -27.5454 H   0  0  0  0  0  0  0  0  0  0  0  0
    0.2178   27.1698  -27.1033 H   0  0  0  0  0  0  0  0  0  0  0  0
   -1.2169   28.1624  -27.4219 H   0  0  0  0  0  0  0  0  0  0  0  0
   -0.1539   27.5864  -24.8705 H   0  0  0  0  0  0  0  0  0  0  0  0
   -1.7931   28.1893  -25.1517 H   0  0  0  0  0  0  0  0  0  0  0  0
   -0.8321   25.3609  -24.6602 H   0  0  0  0  0  0  0  0  0  0  0  0
   -2.3195   26.0885  -24.1122 H   0  0  0  0  0  0  0  0  0  0  0  0
   -2.2756   24.4571  -26.2843 H   0  0  0  0  0  0  0  0  0  0  0  0
   -3.3508   25.8682  -26.2858 H   0  0  0  0  0  0  0  0  0  0  0  0
   -3.0970   26.0450  -29.3420 H   0  0  0  0  0  0  0  0  0  0  0  0
   -5.3036   26.3714  -29.9084 H   0  0  0  0  0  0  0  0  0  0  0  0
   -7.4544   25.3203  -30.7040 H   0  0  0  0  0  0  0  0  0  0  0  0
   -7.2399   21.0527  -33.0340 H   0  0  0  0  0  0  0  0  0  0  0  0
   -7.1173   20.3413  -31.4039 H   0  0  0  0  0  0  0  0  0  0  0  0
   -9.5587   20.0270  -31.2993 H   0  0  0  0  0  0  0  0  0  0  0  0
   -9.7763   20.9236  -32.8405 H   0  0  0  0  0  0  0  0  0  0  0  0
   -8.9640   19.3215  -32.8405 H   0  0  0  0  0  0  0  0  0  0  0  0
   -5.5046   21.4706  -30.8079 H   0  0  0  0  0  0  0  0  0  0  0  0
  1  2  1  0
  2  3  1  0
  3  4  1  0
  4  5  1  0
  5  6  1  0
  6  7  1  0
  7  8  2  0
  8  9  1  0
  9 10  1  0
 10 11  1  0
 11 12  1  0
 12 13  1  0
 13 14  1  0
  7 15  1  0
 15 16  1  0
 16 17  2  0
 17 18  1  0
 18 19  2  0
 19 20  1  0
 20 21  1  0
 21 22  1  0
 19 23  1  0
 23 24  2  0
 24 25  1  0
 25 26  2  0
 25  6  1  0
 14 10  1  0
 24 16  1  0
  1 27  1  0
  1 28  1  0
  1 29  1  0
  2 30  1  0
  2 31  1  0
  4 32  1  0
  4 33  1  0
  5 34  1  0
  5 35  1  0
  9 36  1  0
  9 37  1  0
 11 38  1  0
 11 39  1  0
 12 40  1  0
 12 41  1  0
 13 42  1  0
 13 43  1  0
 14 44  1  0
 14 45  1  0
 15 46  1  0
 17 47  1  0
 18 48  1  0
 21 49  1  0
 21 50  1  0
 22 51  1  0
 22 52  1  0
 22 53  1  0
 23 54  1  0
M  END
>  <smiles>  (12) 
CCOCCn1c(=NCN2CCCC2)[nH]c2ccc(SCC)cc2c1=O

>  <score_type>  (12) 
oracle

>  <origin>  (12) 
adg

>  <m_score__min__energy>  (12) 
-8

>  <m_primary>  (12) 
energy

$$$$
12:0
     RDKit          3D

 34 35  0  0  0  0  0  0  0  0999 V2000
   -8.6080   19.0400  -32.0330 C   0  0  0  0  0  0  0  0  0  0  0  0
   -7.5760   18.1630  -32.7270 C   0  0  0  0  0  0  0  0  0  0  0  0
   -6.3500   18.9240  -32.9710 N   0  0  0  0  0  0  0  0  0  0  0  0
   -6.3050   20.2600  -32.8140 C   0  0  0  0  0  0  0  0  0  0  0  0
   -5.0200   20.6560  -33.1200 C   0  0  0  0  0  0  0  0  0  0  0  0
   -4.4600   21.9740  -33.1080 N   0  0  0  0  0  0  0  0  0  0  0  0
   -4.0720   22.6330  -31.8970 C   0  0  0  0  0  0  0  0  0  0  0  0
   -5.1890   23.4090  -31.2830 C   0  0  0  0  0  0  0  0  0  0  0  0
   -6.5120   23.0290  -31.4100 C   0  0  0  0  0  0  0  0  0  0  0  0
   -7.5010   23.7920  -30.8170 C   0  0  0  0  0  0  0  0  0  0  0  0
   -7.1730   24.9340  -30.0960 C   0  0  0  0  0  0  0  0  0  0  0  0
   -5.8400   25.2730  -29.9980 C   0  0  0  0  0  0  0  0  0  0  0  0
   -4.8210   24.5530  -30.5660 C   0  0  0  0  0  0  0  0  0  0  0  0
   -3.4820   24.9100  -30.4570 O   0  0  0  0  0  0  0  0  0  0  0  0
   -2.7350   24.3120  -29.4150 C   0  0  0  0  0  0  0  0  0  0  0  0
   -4.3430   19.4950  -33.4540 C   0  0  0  0  0  0  0  0  0  0  0  0
   -5.1730   18.4570  -33.3550 N   0  0  0  0  0  0  0  0  0  0  0  0
   -8.4963   18.9450  -30.9428 H   0  0  0  0  0  0  0  0  0  0  0  0
   -8.4553   20.0888  -32.3273 H   0  0  0  0  0  0  0  0  0  0  0  0
   -9.6185   18.7201  -32.3273 H   0  0  0  0  0  0  0  0  0  0  0  0
   -7.3457   17.2976  -32.0882 H   0  0  0  0  0  0  0  0  0  0  0  0
   -7.9841   17.8206  -33.6894 H   0  0  0  0  0  0  0  0  0  0  0  0
   -7.1345   20.9113  -32.5014 H   0  0  0  0  0  0  0  0  0  0  0  0
   -4.3470   22.4380  -34.0510 H   0  0  0  0  0  0  0  0  0  0  0  0
   -3.7321   21.8745  -31.1764 H   0  0  0  0  0  0  0  0  0  0  0  0
   -3.2702   23.3436  -32.1464 H   0  0  0  0  0  0  0  0  0  0  0  0
   -6.7763   22.1255  -31.9791 H   0  0  0  0  0  0  0  0  0  0  0  0
   -8.5549   23.4930  -30.9166 H   0  0  0  0  0  0  0  0  0  0  0  0
   -7.9515   25.5475  -29.6190 H   0  0  0  0  0  0  0  0  0  0  0  0
   -5.5780   26.1771  -29.4288 H   0  0  0  0  0  0  0  0  0  0  0  0
   -3.1377   24.6344  -28.4435 H   0  0  0  0  0  0  0  0  0  0  0  0
   -2.8045   23.2172  -29.4957 H   0  0  0  0  0  0  0  0  0  0  0  0
   -1.6819   24.6195  -29.4957 H   0  0  0  0  0  0  0  0  0  0  0  0
   -3.2862   19.4384  -33.7539 H   0  0  0  0  0  0  0  0  0  0  0  0
  1  2  1  0
  2  3  1  0
  3  4  1  0
  4  5  2  0
  5  6  1  0
  6  7  1  0
  7  8  1  0
  8  9  2  0
  9 10  1  0
 10 11  2  0
 11 12  1  0
 12 13  2  0
 13 14  1  0
 14 15  1  0
  5 16  1  0
 16 17  2  0
 17  3  1  0
 13  8  1  0
  1 18  1  0
  1 19  1  0
  1 20  1  0
  2 21  1  0
  2 22  1  0
  4 23  1  0
  6 24  1  0
  7 25  1  0
  7 26  1  0
  9 27  1  0
 10 28  1  0
 11 29  1  0
 12 30  1  0
 15 31  1  0
 15 32  1  0
 15 33  1  0
 16 34  1  0
M  END
>  <smiles>  (13) 
CCn1cc(NCc2ccccc2OC)cn1

>  <score_type>  (13) 
oracle

>  <origin>  (13) 
adg

>  <m_score__min__energy>  (13) 
-6.6399999999999997

>  <m_primary>  (13) 
energy

$$$$
13:0
     RDKit          3D

 69 72  0  0  0  0  0  0  0  0999 V2000
   -6.2740   25.2440  -29.6710 C   0  0  0  0  0  0  0  0  0  0  0  0
   -5.3250   25.2090  -30.8200 C   0  0  0  0  0  0  0  0  0  0  0  0
   -4.2110   24.3360  -30.7010 N   0  0  0  0  0  0  0  0  0  0  0  0
   -3.4670   24.4900  -29.4630 C   0  0  0  0  0  0  0  0  0  0  0  0
   -2.2230   23.6470  -29.4340 C   0  0  0  0  0  0  0  0  0  0  0  0
   -4.5580   22.9390  -30.8780 C   0  0  0  0  0  0  0  0  0  0  0  0
   -3.7680   22.2800  -31.9740 C   0  0  0  0  0  0  0  0  0  0  0  0
   -4.6880   21.8690  -33.0700 N   0  0  0  0  0  0  0  0  0  0  0  0
   -5.6510   20.9070  -32.7180 C   0  0  0  0  0  0  0  0  0  0  0  0
   -6.9030   21.4430  -32.3550 C   0  0  0  0  0  0  0  0  0  0  0  0
   -7.0850   22.8310  -32.3470 C   0  0  0  0  0  0  0  0  0  0  0  0
   -8.2720   23.4280  -32.0100 C   0  0  0  0  0  0  0  0  0  0  0  0
   -9.3350   22.6330  -31.6660 C   0  0  0  0  0  0  0  0  0  0  0  0
   -9.1650   21.2570  -31.6720 C   0  0  0  0  0  0  0  0  0  0  0  0
   -7.9660   20.6690  -32.0120 C   0  0  0  0  0  0  0  0  0  0  0  0
   -7.8140   19.3380  -32.0170 N   0  0  0  0  0  0  0  0  0  0  0  0
   -8.8690   18.4180  -31.6560 C   0  0  0  0  0  0  0  0  0  0  0  0
   -6.6250   18.7820  -32.3600 C   0  0  0  0  0  0  0  0  0  0  0  0
   -6.5260   17.4060  -32.3680 C   0  0  0  0  0  0  0  0  0  0  0  0
   -5.3410   16.8180  -32.7250 C   0  0  0  0  0  0  0  0  0  0  0  0
   -4.2720   17.6060  -33.0670 C   0  0  0  0  0  0  0  0  0  0  0  0
   -4.3120   19.0000  -33.0770 C   0  0  0  0  0  0  0  0  0  0  0  0
   -3.1230   19.7000  -33.3410 N   0  0  0  0  0  0  0  0  0  0  0  0
   -1.9960   19.5250  -32.4120 C   0  0  0  0  0  0  0  0  0  0  0  0
   -0.8640   20.4540  -32.7120 C   0  0  0  0  0  0  0  0  0  0  0  0
   -0.7360   20.6370  -34.1120 N   0  0  0  0  0  0  0  0  0  0  0  0
   -0.3210   21.9110  -34.5770 C   0  0  0  0  0  0  0  0  0  0  0  0
    0.9660   21.6140  -35.3260 C   0  0  0  0  0  0  0  0  0  0  0  0
    0.5990   20.2940  -36.0220 C   0  0  0  0  0  0  0  0  0  0  0  0
   -0.1630   19.5950  -34.8780 C   0  0  0  0  0  0  0  0  0  0  0  0
   -5.5180   19.5560  -32.7160 C   0  0  0  0  0  0  0  0  0  0  0  0
   -5.7086   25.2231  -28.7277 H   0  0  0  0  0  0  0  0  0  0  0  0
   -6.8738   26.1649  -29.7187 H   0  0  0  0  0  0  0  0  0  0  0  0
   -6.9400   24.3698  -29.7187 H   0  0  0  0  0  0  0  0  0  0  0  0
   -5.8926   24.9053  -31.7120 H   0  0  0  0  0  0  0  0  0  0  0  0
   -4.8955   26.2204  -30.8710 H   0  0  0  0  0  0  0  0  0  0  0  0
   -3.1807   25.5463  -29.3519 H   0  0  0  0  0  0  0  0  0  0  0  0
   -4.1156   24.1595  -28.6383 H   0  0  0  0  0  0  0  0  0  0  0  0
   -1.9361   23.4526  -28.3900 H   0  0  0  0  0  0  0  0  0  0  0  0
   -2.4151   22.6922  -29.9454 H   0  0  0  0  0  0  0  0  0  0  0  0
   -1.4074   24.1792  -29.9454 H   0  0  0  0  0  0  0  0  0  0  0  0
   -4.3646   22.4061  -29.9354 H   0  0  0  0  0  0  0  0  0  0  0  0
   -5.6202   22.8934  -31.1602 H   0  0  0  0  0  0  0  0  0  0  0  0
   -3.0235   22.9884  -32.3664 H   0  0  0  0  0  0  0  0  0  0  0  0
   -3.2547   21.3932  -31.5740 H   0  0  0  0  0  0  0  0  0  0  0  0
   -4.5670   22.2660  -34.0380 H   0  0  0  0  0  0  0  0  0  0  0  0
   -6.2356   23.4727  -32.6242 H   0  0  0  0  0  0  0  0  0  0  0  0
   -8.3699   24.5236  -32.0154 H   0  0  0  0  0  0  0  0  0  0  0  0
  -10.3027   23.0778  -31.3909 H   0  0  0  0  0  0  0  0  0  0  0  0
  -10.0142   20.6143  -31.3966 H   0  0  0  0  0  0  0  0  0  0  0  0
   -8.9414   18.3549  -30.5602 H   0  0  0  0  0  0  0  0  0  0  0  0
   -9.8245   18.7765  -32.0666 H   0  0  0  0  0  0  0  0  0  0  0  0
   -8.6439   17.4226  -32.0666 H   0  0  0  0  0  0  0  0  0  0  0  0
   -7.3912   16.7861  -32.0901 H   0  0  0  0  0  0  0  0  0  0  0  0
   -5.2478   15.7220  -32.7372 H   0  0  0  0  0  0  0  0  0  0  0  0
   -3.3309   17.1112  -33.3490 H   0  0  0  0  0  0  0  0  0  0  0  0
   -2.9030   20.3650  -34.0870 H   0  0  0  0  0  0  0  0  0  0  0  0
   -2.3488   19.7164  -31.3878 H   0  0  0  0  0  0  0  0  0  0  0  0
   -1.6249   18.4955  -32.5232 H   0  0  0  0  0  0  0  0  0  0  0  0
   -1.0563   21.4263  -32.2349 H   0  0  0  0  0  0  0  0  0  0  0  0
    0.0682   20.0204  -32.3209 H   0  0  0  0  0  0  0  0  0  0  0  0
   -1.0743   22.3489  -35.2483 H   0  0  0  0  0  0  0  0  0  0  0  0
   -0.1850   22.6398  -33.7644 H   0  0  0  0  0  0  0  0  0  0  0  0
    1.2012   22.4037  -36.0548 H   0  0  0  0  0  0  0  0  0  0  0  0
    1.8605   21.5581  -34.6882 H   0  0  0  0  0  0  0  0  0  0  0  0
   -0.0431   20.4594  -36.8997 H   0  0  0  0  0  0  0  0  0  0  0  0
    1.4520   19.7287  -36.4255 H   0  0  0  0  0  0  0  0  0  0  0  0
   -0.9480   18.9397  -35.2834 H   0  0  0  0  0  0  0  0  0  0  0  0
    0.5022   18.9622  -34.2722 H   0  0  0  0  0  0  0  0  0  0  0  0
  1  2  1  0
  2  3  1  0
  3  4  1  0
  4  5  1  0
  3  6  1  0
  6  7  1  0
  7  8  1  0
  8  9  1  0
  9 10  2  0
 10 11  1  0
 11 12  2  0
 12 13  1  0
 13 14  2  0
 14 15  1  0
 15 16  2  0
 16 17  1  0
 16 18  1  0
 18 19  2  0
 19 20  1  0
 20 21  2  0
 21 22  1  0
 22 23  1  0
 23 24  1  0
 24 25  1  0
 25 26  1  0
 26 27  1  0
 27 28  1  0
 28 29  1  0
 29 30  1  0
 22 31  2  0
 31  9  1  0
 15 10  1  0
 31 18  1  0
 30 26  1  0
  1 32  1  0
  1 33  1  0
  1 34  1  0
  2 35  1  0
  2 36  1  0
  4 37  1  0
  4 38  1  0
  5 39  1  0
  5 40  1  0
  5 41  1  0
  6 42  1  0
  6 43  1  0
  7 44  1  0
  7 45  1  0
  8 46  1  0
 11 47  1  0
 12 48  1  0
 13 49  1  0
 14 50  1  0
 17 51  1  0
 17 52  1  0
 17 53  1  0
 19 54  1  0
 20 55  1  0
 21 56  1  0
 23 57  1  0
 24 58  1  0
 24 59  1  0
 25 60  1  0
 25 61  1  0
 27 62  1  0
 27 63  1  0
 28 64  1  0
 28 65  1  0
 29 66  1  0
 29 67  1  0
 30 68  1  0
 30 69  1  0
M  CHG  1  16   1
M  END
>  <smiles>  (14) 
CCN(CC)CCNc1c2ccccc2[n+](C)c2cccc(NCCN3CCCC3)c12

>  <score_type>  (14) 
oracle

>  <origin>  (14) 
adg

>  <m_score__min__energy>  (14) 
-9.9499999999999993

>  <m_primary>  (14) 
energy

$$$$
14:0
     RDKit          3D

 75 78  0  0  0  0  0  0  0  0999 V2000
    0.2840   20.7960  -36.0790 C   0  0  0  0  0  0  0  0  0  0  0  0
   -0.0860   21.6980  -34.9520 C   0  0  0  0  0  0  0  0  0  0  0  0
   -1.1080   21.1670  -34.1520 N   0  0  0  0  0  0  0  0  0  0  0  0
   -1.2130   21.4490  -32.7910 C   0  0  0  0  0  0  0  0  0  0  0  0
   -2.5890   21.6660  -32.2200 C   0  0  0  0  0  0  0  0  0  0  0  0
   -3.6220   21.5530  -33.2310 N   0  0  0  0  0  0  0  0  0  0  0  0
   -4.9280   21.1610  -32.9050 C   0  0  0  0  0  0  0  0  0  0  0  0
   -5.7130   22.1000  -32.2220 C   0  0  0  0  0  0  0  0  0  0  0  0
   -5.2210   23.3360  -31.8690 C   0  0  0  0  0  0  0  0  0  0  0  0
   -5.9650   24.2820  -31.1780 C   0  0  0  0  0  0  0  0  0  0  0  0
   -7.2500   23.9530  -30.8380 C   0  0  0  0  0  0  0  0  0  0  0  0
   -7.7620   22.7000  -31.1890 C   0  0  0  0  0  0  0  0  0  0  0  0
   -7.0150   21.7670  -31.8750 C   0  0  0  0  0  0  0  0  0  0  0  0
   -7.5200   20.5590  -32.1880 N   0  0  0  0  0  0  0  0  0  0  0  0
   -8.8780   20.1750  -31.8710 C   0  0  0  0  0  0  0  0  0  0  0  0
   -6.7510   19.6630  -32.8410 C   0  0  0  0  0  0  0  0  0  0  0  0
   -7.2920   18.4000  -33.0840 C   0  0  0  0  0  0  0  0  0  0  0  0
   -6.5480   17.4160  -33.6920 C   0  0  0  0  0  0  0  0  0  0  0  0
   -5.2580   17.7140  -34.0540 C   0  0  0  0  0  0  0  0  0  0  0  0
   -4.6560   18.9380  -33.8500 C   0  0  0  0  0  0  0  0  0  0  0  0
   -3.3910   19.2110  -34.2240 O   0  0  0  0  0  0  0  0  0  0  0  0
   -2.2240   18.5240  -34.2930 C   0  0  0  0  0  0  0  0  0  0  0  0
   -1.9570   17.2370  -33.6470 C   0  0  0  0  0  0  0  0  0  0  0  0
   -1.7590   16.0500  -34.3830 N   0  0  0  0  0  0  0  0  0  0  0  0
   -0.9510   16.1220  -35.5550 C   0  0  0  0  0  0  0  0  0  0  0  0
   -1.1930   14.9800  -33.5280 C   0  0  0  0  0  0  0  0  0  0  0  0
   -2.1720   14.6240  -32.4360 C   0  0  0  0  0  0  0  0  0  0  0  0
   -3.3680   14.0160  -32.9700 N   0  0  0  0  0  0  0  0  0  0  0  0
   -3.4030   12.5830  -32.6840 C   0  0  0  0  0  0  0  0  0  0  0  0
   -4.5780   14.5790  -32.4260 C   0  0  0  0  0  0  0  0  0  0  0  0
   -3.3530   14.1460  -34.3930 C   0  0  0  0  0  0  0  0  0  0  0  0
   -3.0600   15.5480  -34.7860 C   0  0  0  0  0  0  0  0  0  0  0  0
   -5.4520   19.9030  -33.2270 C   0  0  0  0  0  0  0  0  0  0  0  0
    0.6727   19.8484  -35.6778 H   0  0  0  0  0  0  0  0  0  0  0  0
   -0.6047   20.5960  -36.6956 H   0  0  0  0  0  0  0  0  0  0  0  0
    1.0572   21.2777  -36.6956 H   0  0  0  0  0  0  0  0  0  0  0  0
    0.8030   21.8624  -34.3254 H   0  0  0  0  0  0  0  0  0  0  0  0
   -0.4556   22.6392  -35.3850 H   0  0  0  0  0  0  0  0  0  0  0  0
   -1.9620   20.9620  -34.6950 H   0  0  0  0  0  0  0  0  0  0  0  0
   -0.7615   20.6067  -32.2463 H   0  0  0  0  0  0  0  0  0  0  0  0
   -0.7087   22.4192  -32.6709 H   0  0  0  0  0  0  0  0  0  0  0  0
   -2.7723   20.9127  -31.4396 H   0  0  0  0  0  0  0  0  0  0  0  0
   -2.6282   22.6850  -31.8074 H   0  0  0  0  0  0  0  0  0  0  0  0
   -3.4030   21.7670  -34.2440 H   0  0  0  0  0  0  0  0  0  0  0  0
   -4.1870   23.5864  -32.1484 H   0  0  0  0  0  0  0  0  0  0  0  0
   -5.5380   25.2605  -30.9131 H   0  0  0  0  0  0  0  0  0  0  0  0
   -7.8773   24.6719  -30.2906 H   0  0  0  0  0  0  0  0  0  0  0  0
   -8.7959   22.4507  -30.9081 H   0  0  0  0  0  0  0  0  0  0  0  0
   -9.0035   20.1395  -30.7788 H   0  0  0  0  0  0  0  0  0  0  0  0
   -9.5760   20.9110  -32.2966 H   0  0  0  0  0  0  0  0  0  0  0  0
   -9.0872   19.1825  -32.2966 H   0  0  0  0  0  0  0  0  0  0  0  0
   -8.3291   18.1882  -32.7848 H   0  0  0  0  0  0  0  0  0  0  0  0
   -6.9740   16.4199  -33.8825 H   0  0  0  0  0  0  0  0  0  0  0  0
   -4.6651   16.9244  -34.5389 H   0  0  0  0  0  0  0  0  0  0  0  0
   -2.0497   18.3531  -35.3656 H   0  0  0  0  0  0  0  0  0  0  0  0
   -1.5772   19.1802  -33.6920 H   0  0  0  0  0  0  0  0  0  0  0  0
   -1.0475   17.3794  -33.0449 H   0  0  0  0  0  0  0  0  0  0  0  0
   -2.9125   17.0341  -33.1412 H   0  0  0  0  0  0  0  0  0  0  0  0
    0.1062   16.2162  -35.2663 H   0  0  0  0  0  0  0  0  0  0  0  0
   -1.0881   15.2081  -36.1516 H   0  0  0  0  0  0  0  0  0  0  0  0
   -1.2476   16.9973  -36.1516 H   0  0  0  0  0  0  0  0  0  0  0  0
   -0.9923   14.0899  -34.1424 H   0  0  0  0  0  0  0  0  0  0  0  0
   -0.2569   15.3365  -33.0734 H   0  0  0  0  0  0  0  0  0  0  0  0
   -1.6918   13.9177  -31.7427 H   0  0  0  0  0  0  0  0  0  0  0  0
   -2.4598   15.5504  -31.9174 H   0  0  0  0  0  0  0  0  0  0  0  0
   -3.4068   12.4264  -31.5952 H   0  0  0  0  0  0  0  0  0  0  0  0
   -4.3121   12.1440  -33.1208 H   0  0  0  0  0  0  0  0  0  0  0  0
   -2.5164   12.1002  -33.1208 H   0  0  0  0  0  0  0  0  0  0  0  0
   -4.5309   14.5571  -31.3272 H   0  0  0  0  0  0  0  0  0  0  0  0
   -4.6844   15.6191  -32.7678 H   0  0  0  0  0  0  0  0  0  0  0  0
   -5.4422   13.9905  -32.7678 H   0  0  0  0  0  0  0  0  0  0  0  0
   -2.5785   13.4846  -34.8084 H   0  0  0  0  0  0  0  0  0  0  0  0
   -4.3419   13.8666  -34.7854 H   0  0  0  0  0  0  0  0  0  0  0  0
   -3.1240   15.6133  -35.8822 H   0  0  0  0  0  0  0  0  0  0  0  0
   -3.8001   16.1702  -34.2614 H   0  0  0  0  0  0  0  0  0  0  0  0
  1  2  1  0
  2  3  1  0
  3  4  1  0
  4  5  1  0
  5  6  1  0
  6  7  1  0
  7  8  2  0
  8  9  1  0
  9 10  2  0
 10 11  1  0
 11 12  2  0
 12 13  1  0
 13 14  2  0
 14 15  1  0
 14 16  1  0
 16 17  2  0
 17 18  1  0
 18 19  2  0
 19 20  1  0
 20 21  1  0
 21 22  1  0
 22 23  1  0
 23 24  1  0
 24 25  1  0
 24 26  1  0
 26 27  1  0
 27 28  1  0
 28 29  1  0
 28 30  1  0
 28 31  1  0
 31 32  1  0
 20 33  2  0
 33  7  1  0
 13  8  1  0
 33 16  1  0
 32 24  1  0
  1 34  1  0
  1 35  1  0
  1 36  1  0
  2 37  1  0
  2 38  1  0
  3 39  1  0
  4 40  1  0
  4 41  1  0
  5 42  1  0
  5 43  1  0
  6 44  1  0
  9 45  1  0
 10 46  1  0
 11 47  1  0
 12 48  1  0
 15 49  1  0
 15 50  1  0
 15 51  1  0
 17 52  1  0
 18 53  1  0
 19 54  1  0
 22 55  1  0
 22 56  1  0
 23 57  1  0
 23 58  1  0
 25 59  1  0
 25 60  1  0
 25 61  1  0
 26 62  1  0
 26 63  1  0
 27 64  1  0
 27 65  1  0
 29 66  1  0
 29 67  1  0
 29 68  1  0
 30 69  1  0
 30 70  1  0
 30 71  1  0
 31 72  1  0
 31 73  1  0
 32 74  1  0
 32 75  1  0
M  CHG  3  14   1  24   1  28   1
M  END
>  <smiles>  (15) 
CCNCCNc1c2ccccc2[n+](C)c2cccc(OCC[N+]3(C)CC[N+](C)(C)CC3)c12

>  <score_type>  (15) 
oracle

>  <origin>  (15) 
adg

>  <m_score__min__energy>  (15) 
-8.2200000000000006

>  <m_primary>  (15) 
energy

$$$$
15:0
     RDKit          3D

 59 58  0  0  0  0  0  0  0  0999 V2000
   -5.6480   20.5620  -33.0340 C   0  0  0  0  0  0  0  0  0  0  0  0
   -6.8650   19.7680  -33.4480 C   0  0  0  0  0  0  0  0  0  0  0  0
   -7.3040   18.9530  -32.3760 N   0  0  0  0  0  0  0  0  0  0  0  0
   -6.9150   17.5720  -32.4820 C   0  0  0  0  0  0  0  0  0  0  0  0
   -6.4660   17.1320  -33.8330 C   0  0  0  0  0  0  0  0  0  0  0  0
   -8.5640   19.2190  -31.8030 C   0  0  0  0  0  0  0  0  0  0  0  0
   -9.2820   20.4480  -32.2300 C   0  0  0  0  0  0  0  0  0  0  0  0
   -8.8350   21.5550  -31.2480 C   0  0  0  0  0  0  0  0  0  0  0  0
   -9.0000   22.7750  -31.8470 O   0  0  0  0  0  0  0  0  0  0  0  0
   -7.8450   23.4060  -32.1990 C   0  0  0  0  0  0  0  0  0  0  0  0
   -6.9020   23.4780  -31.0420 C   0  0  0  0  0  0  0  0  0  0  0  0
   -5.4900   23.8450  -31.5190 C   0  0  0  0  0  0  0  0  0  0  0  0
   -5.1920   25.1760  -30.8380 C   0  0  0  0  0  0  0  0  0  0  0  0
   -3.8920   25.2700  -30.4220 O   0  0  0  0  0  0  0  0  0  0  0  0
   -3.5830   24.5300  -29.2780 C   0  0  0  0  0  0  0  0  0  0  0  0
   -2.2340   23.9390  -29.4390 C   0  0  0  0  0  0  0  0  0  0  0  0
   -1.1310   24.8010  -28.9580 N   0  0  0  0  0  0  0  0  0  0  0  0
   -0.0840   23.8130  -28.6560 C   0  0  0  0  0  0  0  0  0  0  0  0
   -0.5160   22.4040  -28.8580 C   0  0  0  0  0  0  0  0  0  0  0  0
   -1.6010   25.4260  -27.7380 C   0  0  0  0  0  0  0  0  0  0  0  0
   -0.7410   26.5270  -27.2400 C   0  0  0  0  0  0  0  0  0  0  0  0
   -5.5907   20.5994  -31.9361 H   0  0  0  0  0  0  0  0  0  0  0  0
   -4.7429   20.0801  -33.4322 H   0  0  0  0  0  0  0  0  0  0  0  0
   -5.7244   21.5845  -33.4322 H   0  0  0  0  0  0  0  0  0  0  0  0
   -7.6713   20.4602  -33.7323 H   0  0  0  0  0  0  0  0  0  0  0  0
   -6.6023   19.1271  -34.3025 H   0  0  0  0  0  0  0  0  0  0  0  0
   -6.0885   17.3981  -31.7773 H   0  0  0  0  0  0  0  0  0  0  0  0
   -7.8193   16.9865  -32.2597 H   0  0  0  0  0  0  0  0  0  0  0  0
   -5.6839   16.3656  -33.7279 H   0  0  0  0  0  0  0  0  0  0  0  0
   -7.3199   16.7113  -34.3842 H   0  0  0  0  0  0  0  0  0  0  0  0
   -6.0627   17.9943  -34.3842 H   0  0  0  0  0  0  0  0  0  0  0  0
   -9.2152   18.3633  -32.0345 H   0  0  0  0  0  0  0  0  0  0  0  0
   -8.3502   19.3837  -30.7366 H   0  0  0  0  0  0  0  0  0  0  0  0
   -9.0059   20.7151  -33.2607 H   0  0  0  0  0  0  0  0  0  0  0  0
  -10.3729   20.3074  -32.2146 H   0  0  0  0  0  0  0  0  0  0  0  0
   -9.4463   21.5068  -30.3348 H   0  0  0  0  0  0  0  0  0  0  0  0
   -7.7773   21.4113  -30.9823 H   0  0  0  0  0  0  0  0  0  0  0  0
   -7.3668   22.8505  -33.0192 H   0  0  0  0  0  0  0  0  0  0  0  0
   -8.0877   24.4302  -32.5185 H   0  0  0  0  0  0  0  0  0  0  0  0
   -7.2550   24.2430  -30.3348 H   0  0  0  0  0  0  0  0  0  0  0  0
   -6.8664   22.4942  -30.5513 H   0  0  0  0  0  0  0  0  0  0  0  0
   -4.7637   23.0788  -31.2101 H   0  0  0  0  0  0  0  0  0  0  0  0
   -5.4223   23.9110  -32.6149 H   0  0  0  0  0  0  0  0  0  0  0  0
   -5.3948   25.9900  -31.5495 H   0  0  0  0  0  0  0  0  0  0  0  0
   -5.8347   25.2486  -29.9482 H   0  0  0  0  0  0  0  0  0  0  0  0
   -3.5947   25.1892  -28.3974 H   0  0  0  0  0  0  0  0  0  0  0  0
   -4.3260   23.7308  -29.1389 H   0  0  0  0  0  0  0  0  0  0  0  0
   -2.2026   22.9936  -28.8775 H   0  0  0  0  0  0  0  0  0  0  0  0
   -2.0775   23.7997  -30.5189 H   0  0  0  0  0  0  0  0  0  0  0  0
    0.7780   24.0093  -29.3105 H   0  0  0  0  0  0  0  0  0  0  0  0
    0.1648   23.9235  -27.5902 H   0  0  0  0  0  0  0  0  0  0  0  0
   -0.6638   21.9220  -27.8803 H   0  0  0  0  0  0  0  0  0  0  0  0
   -1.4605   22.3873  -29.4215 H   0  0  0  0  0  0  0  0  0  0  0  0
    0.2568   21.8607  -29.4215 H   0  0  0  0  0  0  0  0  0  0  0  0
   -2.6057   25.8328  -27.9254 H   0  0  0  0  0  0  0  0  0  0  0  0
   -1.5905   24.6457  -26.9627 H   0  0  0  0  0  0  0  0  0  0  0  0
   -0.7428   26.5248  -26.1400 H   0  0  0  0  0  0  0  0  0  0  0  0
    0.2866   26.3835  -27.6053 H   0  0  0  0  0  0  0  0  0  0  0  0
   -1.1290   27.4893  -27.6053 H   0  0  0  0  0  0  0  0  0  0  0  0
  1  2  1  0
  2  3  1  0
  3  4  1  0
  4  5  1  0
  3  6  1  0
  6  7  1  0
  7  8  1  0
  8  9  1  0
  9 10  1  0
 10 11  1  0
 11 12  1  0
 12 13  1  0
 13 14  1  0
 14 15  1  0
 15 16  1  0
 16 17  1  0
 17 18  1  0
 18 19  1  0
 17 20  1  0
 20 21  1  0
  1 22  1  0
  1 23  1  0
  1 24  1  0
  2 25  1  0
  2 26  1  0
  4 27  1  0
  4 28  1  0
  5 29  1  0
  5 30  1  0
  5 31  1  0
  6 32  1  0
  6 33  1  0
  7 34  1  0
  7 35  1  0
  8 36  1  0
  8 37  1  0
 10 38  1  0
 10 39  1  0
 11 40  1  0
 11 41  1  0
 12 42  1  0
 12 43  1  0
 13 44  1  0
 13 45  1  0
 15 46  1  0
 15 47  1  0
 16 48  1  0
 16 49  1  0
 18 50  1  0
 18 51  1  0
 19 52  1  0
 19 53  1  0
 19 54  1  0
 20 55  1  0
 20 56  1  0
 21 57  1  0
 21 58  1  0
 21 59  1  0
M  END
>  <smiles>  (16) 
CCN(CC)CCCOCCCCOCCN(CC)CC

>  <score_type>  (16) 
oracle

>  <origin>  (16) 
adg

>  <m_score__min__energy>  (16) 
-6.0499999999999998

>  <m_primary>  (16) 
energy

$$$$
16:0
     RDKit          3D

 62 64  0  0  0  0  0  0  0  0999 V2000
   -6.3670   24.9160  -29.7210 C   0  0  0  0  0  0  0  0  0  0  0  0
   -5.7200   24.9370  -31.0740 C   0  0  0  0  0  0  0  0  0  0  0  0
   -4.3260   24.4350  -31.0320 N   0  0  0  0  0  0  0  0  0  0  0  0
   -3.9430   24.5000  -29.5990 C   0  0  0  0  0  0  0  0  0  0  0  0
   -4.2880   23.0650  -31.4110 C   0  0  0  0  0  0  0  0  0  0  0  0
   -4.9660   22.6610  -32.5930 N   0  0  0  0  0  0  0  0  0  0  0  0
   -5.7690   21.4910  -32.6460 C   0  0  0  0  0  0  0  0  0  0  0  0
   -7.0880   21.4070  -32.3040 C   0  0  0  0  0  0  0  0  0  0  0  0
   -7.7690   22.5400  -31.9320 C   0  0  0  0  0  0  0  0  0  0  0  0
   -9.1000   22.5600  -31.5850 C   0  0  0  0  0  0  0  0  0  0  0  0
   -9.7760   21.3640  -31.6180 C   0  0  0  0  0  0  0  0  0  0  0  0
   -9.1180   20.2080  -31.9890 C   0  0  0  0  0  0  0  0  0  0  0  0
   -7.7630   20.2060  -32.3390 C   0  0  0  0  0  0  0  0  0  0  0  0
   -7.1650   19.0430  -32.7140 N   0  0  0  0  0  0  0  0  0  0  0  0
   -7.9840   17.8700  -32.6970 C   0  0  0  0  0  0  0  0  0  0  0  0
   -5.8780   19.0980  -33.0550 C   0  0  0  0  0  0  0  0  0  0  0  0
   -5.2060   17.9620  -33.4540 C   0  0  0  0  0  0  0  0  0  0  0  0
   -3.8880   17.9320  -33.8260 C   0  0  0  0  0  0  0  0  0  0  0  0
   -3.1620   16.8590  -34.2290 O   0  0  0  0  0  0  0  0  0  0  0  0
   -1.9920   16.2850  -33.8390 C   0  0  0  0  0  0  0  0  0  0  0  0
   -2.0080   15.3020  -32.7210 C   0  0  0  0  0  0  0  0  0  0  0  0
   -3.0750   14.3330  -32.8220 N   0  0  0  0  0  0  0  0  0  0  0  0
   -2.7550   13.1270  -32.0470 C   0  0  0  0  0  0  0  0  0  0  0  0
   -4.3440   14.8110  -32.3410 C   0  0  0  0  0  0  0  0  0  0  0  0
   -3.2500   13.9020  -34.1960 C   0  0  0  0  0  0  0  0  0  0  0  0
   -3.2150   19.1650  -33.7840 C   0  0  0  0  0  0  0  0  0  0  0  0
   -3.8410   20.3240  -33.3950 C   0  0  0  0  0  0  0  0  0  0  0  0
   -5.1570   20.2920  -33.0340 C   0  0  0  0  0  0  0  0  0  0  0  0
   -5.5901   24.9412  -28.9426 H   0  0  0  0  0  0  0  0  0  0  0  0
   -7.0218   25.7934  -29.6140 H   0  0  0  0  0  0  0  0  0  0  0  0
   -6.9635   23.9980  -29.6140 H   0  0  0  0  0  0  0  0  0  0  0  0
   -6.3049   24.3035  -31.7570 H   0  0  0  0  0  0  0  0  0  0  0  0
   -5.6945   25.9803  -31.4217 H   0  0  0  0  0  0  0  0  0  0  0  0
   -4.8353   24.3486  -28.9738 H   0  0  0  0  0  0  0  0  0  0  0  0
   -3.2047   23.7143  -29.3808 H   0  0  0  0  0  0  0  0  0  0  0  0
   -3.5053   25.4853  -29.3808 H   0  0  0  0  0  0  0  0  0  0  0  0
   -3.2294   22.7941  -31.5373 H   0  0  0  0  0  0  0  0  0  0  0  0
   -4.8320   22.5515  -30.6045 H   0  0  0  0  0  0  0  0  0  0  0  0
   -4.9170   23.2070  -33.5080 H   0  0  0  0  0  0  0  0  0  0  0  0
   -7.2159   23.4906  -31.9101 H   0  0  0  0  0  0  0  0  0  0  0  0
   -9.6022   23.4942  -31.2933 H   0  0  0  0  0  0  0  0  0  0  0  0
  -10.8419   21.3275  -31.3487 H   0  0  0  0  0  0  0  0  0  0  0  0
   -9.6757   19.2601  -32.0101 H   0  0  0  0  0  0  0  0  0  0  0  0
   -8.1868   17.5795  -31.6556 H   0  0  0  0  0  0  0  0  0  0  0  0
   -8.9338   18.0785  -33.2112 H   0  0  0  0  0  0  0  0  0  0  0  0
   -7.4610   17.0502  -33.2112 H   0  0  0  0  0  0  0  0  0  0  0  0
   -5.7663   17.0156  -33.4750 H   0  0  0  0  0  0  0  0  0  0  0  0
   -1.5782   15.7677  -34.7172 H   0  0  0  0  0  0  0  0  0  0  0  0
   -1.4047   17.1263  -33.4423 H   0  0  0  0  0  0  0  0  0  0  0  0
   -1.0484   14.7643  -32.7162 H   0  0  0  0  0  0  0  0  0  0  0  0
   -2.1724   15.8694  -31.7931 H   0  0  0  0  0  0  0  0  0  0  0  0
   -2.8155   13.3548  -30.9726 H   0  0  0  0  0  0  0  0  0  0  0  0
   -3.4731   12.3311  -32.2940 H   0  0  0  0  0  0  0  0  0  0  0  0
   -1.7368   12.7918  -32.2940 H   0  0  0  0  0  0  0  0  0  0  0  0
   -4.3429   14.8106  -31.2410 H   0  0  0  0  0  0  0  0  0  0  0  0
   -4.5130   15.8344  -32.7071 H   0  0  0  0  0  0  0  0  0  0  0  0
   -5.1462   14.1534  -32.7071 H   0  0  0  0  0  0  0  0  0  0  0  0
   -3.6638   12.8829  -34.2107 H   0  0  0  0  0  0  0  0  0  0  0  0
   -3.9416   14.5860  -34.7096 H   0  0  0  0  0  0  0  0  0  0  0  0
   -2.2773   13.9102  -34.7096 H   0  0  0  0  0  0  0  0  0  0  0  0
   -2.1539   19.2031  -34.0716 H   0  0  0  0  0  0  0  0  0  0  0  0
   -3.2849   21.2728  -33.3745 H   0  0  0  0  0  0  0  0  0  0  0  0
  1  2  1  0
  2  3  1  0
  3  4  1  0
  3  5  1  0
  5  6  1  0
  6  7  1  0
  7  8  2  0
  8  9  1  0
  9 10  2  0
 10 11  1  0
 11 12  2  0
 12 13  1  0
 13 14  2  0
 14 15  1  0
 14 16  1  0
 16 17  2  0
 17 18  1  0
 18 19  1  0
 19 20  1  0
 20 21  1  0
 21 22  1  0
 22 23  1  0
 22 24  1  0
 22 25  1  0
 18 26  2  0
 26 27  1  0
 27 28  2  0
 28  7  1  0
 13  8  1  0
 28 16  1  0
  1 29  1  0
  1 30  1  0
  1 31  1  0
  2 32  1  0
  2 33  1  0
  4 34  1  0
  4 35  1  0
  4 36  1  0
  5 37  1  0
  5 38  1  0
  6 39  1  0
  9 40  1  0
 10 41  1  0
 11 42  1  0
 12 43  1  0
 15 44  1  0
 15 45  1  0
 15 46  1  0
 17 47  1  0
 20 48  1  0
 20 49  1  0
 21 50  1  0
 21 51  1  0
 23 52  1  0
 23 53  1  0
 23 54  1  0
 24 55  1  0
 24 56  1  0
 24 57  1  0
 25 58  1  0
 25 59  1  0
 25 60  1  0
 26 61  1  0
 27 62  1  0
M  CHG  2  14   1  22   1
M  END
>  <smiles>  (17) 
CCN(C)CNc1c2ccccc2[n+](C)c2cc(OCC[N+](C)(C)C)ccc12

>  <score_type>  (17) 
oracle

>  <origin>  (17) 
adg

>  <m_score__min__energy>  (17) 
-7.7999999999999998

>  <m_primary>  (17) 
energy

$$$$
17:0
     RDKit          3D

 73 75  0  0  0  0  0  0  0  0999 V2000
   -0.4960   27.1560  -35.7540 C   0  0  0  0  0  0  0  0  0  0  0  0
   -0.8840   26.1970  -36.8500 C   0  0  0  0  0  0  0  0  0  0  0  0
   -0.1310   24.9530  -36.6260 N   0  0  0  0  0  0  0  0  0  0  0  0
    0.9690   25.2990  -35.7670 C   0  0  0  0  0  0  0  0  0  0  0  0
    2.0730   24.2820  -35.7190 C   0  0  0  0  0  0  0  0  0  0  0  0
    1.5180   22.9290  -36.0080 C   0  0  0  0  0  0  0  0  0  0  0  0
    0.2950   22.6320  -35.3240 N   0  0  0  0  0  0  0  0  0  0  0  0
    0.0590   21.2770  -34.9870 C   0  0  0  0  0  0  0  0  0  0  0  0
   -0.4910   21.1020  -33.5570 C   0  0  0  0  0  0  0  0  0  0  0  0
   -1.3980   19.9270  -33.5460 C   0  0  0  0  0  0  0  0  0  0  0  0
   -2.7450   20.2430  -34.0510 N   0  0  0  0  0  0  0  0  0  0  0  0
   -3.8290   19.3930  -33.7680 C   0  0  0  0  0  0  0  0  0  0  0  0
   -3.6790   18.0520  -34.0850 C   0  0  0  0  0  0  0  0  0  0  0  0
   -4.6610   17.1080  -33.9010 C   0  0  0  0  0  0  0  0  0  0  0  0
   -5.8740   17.4900  -33.3720 C   0  0  0  0  0  0  0  0  0  0  0  0
   -6.0640   18.8130  -33.0410 C   0  0  0  0  0  0  0  0  0  0  0  0
   -5.0400   19.7640  -33.2370 C   0  0  0  0  0  0  0  0  0  0  0  0
   -5.2430   21.0660  -32.9250 C   0  0  0  0  0  0  0  0  0  0  0  0
   -4.3300   22.1300  -32.9340 N   0  0  0  0  0  0  0  0  0  0  0  0
   -3.2440   22.1890  -31.9740 C   0  0  0  0  0  0  0  0  0  0  0  0
   -3.5100   22.9150  -30.7040 C   0  0  0  0  0  0  0  0  0  0  0  0
   -4.1100   24.2020  -30.8850 N   0  0  0  0  0  0  0  0  0  0  0  0
   -4.8580   24.6340  -29.7340 C   0  0  0  0  0  0  0  0  0  0  0  0
   -6.0130   25.5390  -30.1120 C   0  0  0  0  0  0  0  0  0  0  0  0
   -6.5140   21.4010  -32.4140 C   0  0  0  0  0  0  0  0  0  0  0  0
   -6.8150   22.7210  -32.0910 C   0  0  0  0  0  0  0  0  0  0  0  0
   -8.0370   23.1190  -31.6040 C   0  0  0  0  0  0  0  0  0  0  0  0
   -9.0110   22.1690  -31.4260 C   0  0  0  0  0  0  0  0  0  0  0  0
   -8.7340   20.8590  -31.7400 C   0  0  0  0  0  0  0  0  0  0  0  0
   -7.4950   20.4660  -32.2340 C   0  0  0  0  0  0  0  0  0  0  0  0
   -7.2650   19.1500  -32.5510 N   0  0  0  0  0  0  0  0  0  0  0  0
   -8.3660   18.2650  -32.3090 C   0  0  0  0  0  0  0  0  0  0  0  0
   -0.6845   26.6902  -34.7755 H   0  0  0  0  0  0  0  0  0  0  0  0
    0.5724   27.4020  -35.8433 H   0  0  0  0  0  0  0  0  0  0  0  0
   -1.0928   28.0757  -35.8433 H   0  0  0  0  0  0  0  0  0  0  0  0
   -1.9647   25.9959  -36.8097 H   0  0  0  0  0  0  0  0  0  0  0  0
   -0.6538   26.6202  -37.8389 H   0  0  0  0  0  0  0  0  0  0  0  0
   -0.8170   24.2990  -36.1880 H   0  0  0  0  0  0  0  0  0  0  0  0
    1.3943   26.2496  -36.1212 H   0  0  0  0  0  0  0  0  0  0  0  0
    0.5594   25.3606  -34.7480 H   0  0  0  0  0  0  0  0  0  0  0  0
    2.8355   24.5334  -36.4709 H   0  0  0  0  0  0  0  0  0  0  0  0
    2.5290   24.2841  -34.7180 H   0  0  0  0  0  0  0  0  0  0  0  0
    1.3332   22.8570  -37.0900 H   0  0  0  0  0  0  0  0  0  0  0  0
    2.2619   22.2019  -35.6504 H   0  0  0  0  0  0  0  0  0  0  0  0
   -0.5230   22.9730  -35.8740 H   0  0  0  0  0  0  0  0  0  0  0  0
   -0.6705   20.8605  -35.6972 H   0  0  0  0  0  0  0  0  0  0  0  0
    1.0240   20.7513  -35.0364 H   0  0  0  0  0  0  0  0  0  0  0  0
    0.3407   20.9362  -32.8565 H   0  0  0  0  0  0  0  0  0  0  0  0
   -1.0378   22.0052  -33.2485 H   0  0  0  0  0  0  0  0  0  0  0  0
   -0.9612   19.1396  -34.1778 H   0  0  0  0  0  0  0  0  0  0  0  0
   -1.5037   19.5991  -32.5014 H   0  0  0  0  0  0  0  0  0  0  0  0
   -2.7280   21.1110  -34.6050 H   0  0  0  0  0  0  0  0  0  0  0  0
   -2.7182   17.7242  -34.5085 H   0  0  0  0  0  0  0  0  0  0  0  0
   -4.4799   16.0578  -34.1735 H   0  0  0  0  0  0  0  0  0  0  0  0
   -6.6753   16.7525  -33.2170 H   0  0  0  0  0  0  0  0  0  0  0  0
   -4.5130   22.9020  -33.6440 H   0  0  0  0  0  0  0  0  0  0  0  0
   -2.9720   21.1550  -31.7154 H   0  0  0  0  0  0  0  0  0  0  0  0
   -2.4499   22.7638  -32.4730 H   0  0  0  0  0  0  0  0  0  0  0  0
   -4.1854   22.3016  -30.0896 H   0  0  0  0  0  0  0  0  0  0  0  0
   -2.5353   23.0826  -30.2225 H   0  0  0  0  0  0  0  0  0  0  0  0
   -3.4920   24.9390  -31.2360 H   0  0  0  0  0  0  0  0  0  0  0  0
   -5.2558   23.7485  -29.2166 H   0  0  0  0  0  0  0  0  0  0  0  0
   -4.1791   25.2048  -29.0834 H   0  0  0  0  0  0  0  0  0  0  0  0
   -6.4961   25.9176  -29.1992 H   0  0  0  0  0  0  0  0  0  0  0  0
   -5.6367   26.3852  -30.7056 H   0  0  0  0  0  0  0  0  0  0  0  0
   -6.7446   24.9712  -30.7056 H   0  0  0  0  0  0  0  0  0  0  0  0
   -6.0355   23.4841  -32.2327 H   0  0  0  0  0  0  0  0  0  0  0  0
   -8.2298   24.1747  -31.3625 H   0  0  0  0  0  0  0  0  0  0  0  0
  -10.0005   22.4515  -31.0372 H   0  0  0  0  0  0  0  0  0  0  0  0
   -9.5162   20.0991  -31.5960 H   0  0  0  0  0  0  0  0  0  0  0  0
   -8.5112   18.1483  -31.2249 H   0  0  0  0  0  0  0  0  0  0  0  0
   -9.2786   18.6838  -32.7582 H   0  0  0  0  0  0  0  0  0  0  0  0
   -8.1532   17.2837  -32.7582 H   0  0  0  0  0  0  0  0  0  0  0  0
  1  2  1  0
  2  3  1  0
  3  4  1  0
  4  5  1  0
  5  6  1  0
  6  7  1  0
  7  8  1  0
  8  9  1  0
  9 10  1  0
 10 11  1  0
 11 12  1  0
 12 13  2  0
 13 14  1  0
 14 15  2  0
 15 16  1  0
 16 17  2  0
 17 18  1  0
 18 19  1  0
 19 20  1  0
 20 21  1  0
 21 22  1  0
 22 23  1  0
 23 24  1  0
 18 25  2  0
 25 26  1  0
 26 27  2  0
 27 28  1  0
 28 29  2  0
 29 30  1  0
 30 31  2  0
 31 32  1  0
 17 12  1  0
 30 25  1  0
 31 16  1  0
  1 33  1  0
  1 34  1  0
  1 35  1  0
  2 36  1  0
  2 37  1  0
  3 38  1  0
  4 39  1  0
  4 40  1  0
  5 41  1  0
  5 42  1  0
  6 43  1  0
  6 44  1  0
  7 45  1  0
  8 46  1  0
  8 47  1  0
  9 48  1  0
  9 49  1  0
 10 50  1  0
 10 51  1  0
 11 52  1  0
 13 53  1  0
 14 54  1  0
 15 55  1  0
 19 56  1  0
 20 57  1  0
 20 58  1  0
 21 59  1  0
 21 60  1  0
 22 61  1  0
 23 62  1  0
 23 63  1  0
 24 64  1  0
 24 65  1  0
 24 66  1  0
 26 67  1  0
 27 68  1  0
 28 69  1  0
 29 70  1  0
 32 71  1  0
 32 72  1  0
 32 73  1  0
M  CHG  1  31   1
M  END
>  <smiles>  (18) 
CCNCCCNCCCNc1cccc2c1c(NCCNCC)c1ccccc1[n+]2C

>  <score_type>  (18) 
oracle

>  <origin>  (18) 
adg

>  <m_score__min__energy>  (18) 
-10.83

>  <m_primary>  (18) 
energy

$$$$
19:0
     RDKit          3D

 56 58  0  0  1  0  0  0  0  0999 V2000
   -4.5380   14.8940  -32.2510 C   0  0  0  0  0  0  0  0  0  0  0  0
   -4.8300   16.0850  -33.1130 C   0  0  0  0  0  0  0  0  0  0  0  0
   -6.0910   16.6810  -32.9230 N   0  0  0  0  0  0  0  0  0  0  0  0
   -6.4110   17.5260  -34.0660 C   0  0  0  0  0  0  0  0  0  0  0  0
   -5.2160   17.9610  -34.8430 C   0  0  0  0  0  0  0  0  0  0  0  0
   -6.4920   17.2050  -31.6920 C   0  0  0  0  0  0  0  0  0  0  0  0
   -7.7720   17.9290  -31.7520 C   0  0  0  0  0  0  0  0  0  0  0  0
   -7.8890   19.2050  -31.4720 N   0  0  0  0  0  0  0  0  0  0  0  0
   -7.4570   20.1920  -32.3580 C   0  0  0  0  0  0  0  0  0  0  0  0
   -7.9270   20.2940  -33.5240 O   0  0  0  0  0  0  0  0  0  0  0  0
   -6.4280   21.2050  -32.0410 C   0  0  0  0  0  0  0  0  0  0  0  0
   -6.6750   22.5620  -31.8680 C   0  0  0  0  0  0  0  0  0  0  0  0
   -8.0320   23.2230  -31.8680 C   0  0  0  0  0  0  0  0  0  0  0  0
   -5.4990   23.1800  -31.6710 N   0  0  0  0  0  0  0  0  0  0  0  0
   -4.4730   22.3050  -31.6980 C   0  0  0  0  0  0  0  0  0  0  0  0
   -3.0450   22.5810  -31.4500 C   0  0  0  0  0  0  0  0  0  0  0  0
   -2.6740   23.0690  -30.1180 C   0  0  0  0  0  0  0  0  0  0  0  0
   -3.1080   24.3660  -29.7120 C   0  0  0  0  0  0  0  0  0  0  0  0
   -3.8740   25.2440  -30.4700 O   0  0  0  0  0  0  0  0  0  0  0  0
   -2.6600   24.6070  -28.4740 N   0  0  0  0  0  0  0  0  0  0  0  0
   -1.9550   23.5500  -28.0420 C   0  0  0  0  0  0  0  0  0  0  0  0
   -1.3190   23.3820  -26.8360 C   0  0  0  0  0  0  0  0  0  0  0  0
   -0.6570   22.1880  -26.6440 C   0  0  0  0  0  0  0  0  0  0  0  0
   -0.6670   21.2370  -27.6580 C   0  0  0  0  0  0  0  0  0  0  0  0
   -1.3110   21.4310  -28.8580 C   0  0  0  0  0  0  0  0  0  0  0  0
   -1.9690   22.6140  -29.0500 C   0  0  0  0  0  0  0  0  0  0  0  0
   -5.0710   21.0730  -31.9290 C   0  0  0  0  0  0  0  0  0  0  0  0
   -4.3850   19.7530  -32.0870 C   0  0  0  0  0  0  0  0  0  0  0  0
   -4.6086   15.1819  -31.1917 H   0  0  0  0  0  0  0  0  0  0  0  0
   -5.2679   14.0992  -32.4644 H   0  0  0  0  0  0  0  0  0  0  0  0
   -3.5233   14.5269  -32.4644 H   0  0  0  0  0  0  0  0  0  0  0  0
   -4.0623   16.8460  -32.9094 H   0  0  0  0  0  0  0  0  0  0  0  0
   -4.8264   15.7140  -34.1485 H   0  0  0  0  0  0  0  0  0  0  0  0
   -7.0763   16.9639  -34.7379 H   0  0  0  0  0  0  0  0  0  0  0  0
   -6.8855   18.4360  -33.6700 H   0  0  0  0  0  0  0  0  0  0  0  0
   -4.4139   18.2530  -34.1492 H   0  0  0  0  0  0  0  0  0  0  0  0
   -4.8688   17.1316  -35.4767 H   0  0  0  0  0  0  0  0  0  0  0  0
   -5.4833   18.8195  -35.4767 H   0  0  0  0  0  0  0  0  0  0  0  0
   -6.5942   16.3754  -30.9769 H   0  0  0  0  0  0  0  0  0  0  0  0
   -5.7242   17.9295  -31.3828 H   0  0  0  0  0  0  0  0  0  0  0  0
   -8.6744   17.3729  -32.0460 H   0  0  0  0  0  0  0  0  0  0  0  0
   -8.3616   23.3836  -30.8309 H   0  0  0  0  0  0  0  0  0  0  0  0
   -7.9683   24.1910  -32.3865 H   0  0  0  0  0  0  0  0  0  0  0  0
   -8.7550   22.5761  -32.3865 H   0  0  0  0  0  0  0  0  0  0  0  0
   -5.4730   24.2260  -31.5160 H   0  0  0  0  0  0  0  0  0  0  0  0
   -2.4929   21.6457  -31.6244 H   0  0  0  0  0  0  0  0  0  0  0  0
   -2.7953   23.4071  -32.1321 H   0  0  0  0  0  0  0  0  0  0  0  0
   -3.4280   26.0540  -30.8500 H   0  0  0  0  0  0  0  0  0  0  0  0
   -2.8720   25.5200  -27.9810 H   0  0  0  0  0  0  0  0  0  0  0  0
   -1.3370   24.1624  -26.0610 H   0  0  0  0  0  0  0  0  0  0  0  0
   -0.1275   21.9903  -25.7003 H   0  0  0  0  0  0  0  0  0  0  0  0
   -0.1365   20.2875  -27.4935 H   0  0  0  0  0  0  0  0  0  0  0  0
   -1.2970   20.6574  -29.6398 H   0  0  0  0  0  0  0  0  0  0  0  0
   -4.1664   19.3323  -31.0944 H   0  0  0  0  0  0  0  0  0  0  0  0
   -5.0391   19.0639  -32.6414 H   0  0  0  0  0  0  0  0  0  0  0  0
   -3.4452   19.8922  -32.6414 H   0  0  0  0  0  0  0  0  0  0  0  0
  1  2  1  0
  2  3  1  0
  3  4  1  0
  4  5  1  0
  3  6  1  0
  6  7  1  0
  7  8  2  0
  8  9  1  0
  9 10  2  0
  9 11  1  0
 11 12  2  0
 12 13  1  0
 12 14  1  0
 14 15  1  0
 15 16  1  0
 16 17  1  0
 17 18  2  0
 18 19  1  0
 18 20  1  0
 20 21  1  0
 21 22  2  0
 22 23  1  0
 23 24  2  0
 24 25  1  0
 25 26  2  0
 15 27  2  0
 27 28  1  0
 27 11  1  0
 26 17  1  0
 26 21  1  0
  1 29  1  0
  1 30  1  0
  1 31  1  0
  2 32  1  0
  2 33  1  0
  4 34  1  0
  4 35  1  0
  5 36  1  0
  5 37  1  0
  5 38  1  0
  6 39  1  0
  6 40  1  0
  7 41  1  0
 13 42  1  0
 13 43  1  0
 13 44  1  0
 14 45  1  0
 16 46  1  0
 16 47  1  0
 19 48  1  0
 20 49  1  0
 22 50  1  0
 23 51  1  0
 24 52  1  0
 25 53  1  0
 28 54  1  0
 28 55  1  0
 28 56  1  0
M  END
>  <smiles>  (19) 
CCN(CC)CC=NC(=O)c1c(C)[nH]c(Cc2c(O)[nH]c3ccccc23)c1C

>  <score_type>  (19) 
oracle

>  <origin>  (19) 
adg

>  <m_score__min__energy>  (19) 
-9.2200000000000006

>  <m_primary>  (19) 
energy

$$$$
20:0
     RDKit          3D

 32 33  0  0  0  0  0  0  0  0999 V2000
   -5.6670   18.1650  -34.9250 C   0  0  0  0  0  0  0  0  0  0  0  0
   -5.7930   17.3880  -33.6430 C   0  0  0  0  0  0  0  0  0  0  0  0
   -5.6970   18.3060  -32.5280 N   0  0  0  0  0  0  0  0  0  0  0  0
   -6.7350   19.2530  -32.3350 C   0  0  0  0  0  0  0  0  0  0  0  0
   -8.0010   18.8130  -31.9780 C   0  0  0  0  0  0  0  0  0  0  0  0
   -9.0630   19.6530  -31.7490 C   0  0  0  0  0  0  0  0  0  0  0  0
   -8.8970   21.0120  -31.8720 C   0  0  0  0  0  0  0  0  0  0  0  0
   -7.6560   21.4920  -32.2240 C   0  0  0  0  0  0  0  0  0  0  0  0
   -6.5730   20.6150  -32.4560 C   0  0  0  0  0  0  0  0  0  0  0  0
   -5.2370   21.0750  -32.8340 C   0  0  0  0  0  0  0  0  0  0  0  0
   -4.7300   22.1730  -31.8850 C   0  0  0  0  0  0  0  0  0  0  0  0
   -5.3120   23.4090  -32.3000 N   0  0  0  0  0  0  0  0  0  0  0  0
   -6.5360   23.6240  -31.5510 C   0  0  0  0  0  0  0  0  0  0  0  0
   -7.6860   22.9840  -32.2990 C   0  0  0  0  0  0  0  0  0  0  0  0
   -5.4948   19.2268  -34.6948 H   0  0  0  0  0  0  0  0  0  0  0  0
   -4.8205   17.7744  -35.5088 H   0  0  0  0  0  0  0  0  0  0  0  0
   -6.5936   18.0620  -35.5088 H   0  0  0  0  0  0  0  0  0  0  0  0
   -6.7655   16.8747  -33.6162 H   0  0  0  0  0  0  0  0  0  0  0  0
   -4.9896   16.6393  -33.5800 H   0  0  0  0  0  0  0  0  0  0  0  0
   -4.8550   18.2050  -31.9310 H   0  0  0  0  0  0  0  0  0  0  0  0
   -8.1635   17.7302  -31.8724 H   0  0  0  0  0  0  0  0  0  0  0  0
  -10.0430   19.2398  -31.4681 H   0  0  0  0  0  0  0  0  0  0  0  0
   -9.7365   21.6999  -31.6933 H   0  0  0  0  0  0  0  0  0  0  0  0
   -4.5422   20.2230  -32.7984 H   0  0  0  0  0  0  0  0  0  0  0  0
   -5.2907   21.4942  -33.8496 H   0  0  0  0  0  0  0  0  0  0  0  0
   -5.0326   21.9446  -30.8524 H   0  0  0  0  0  0  0  0  0  0  0  0
   -3.6322   22.2340  -31.9184 H   0  0  0  0  0  0  0  0  0  0  0  0
   -5.4400   23.5160  -33.3260 H   0  0  0  0  0  0  0  0  0  0  0  0
   -6.4442   23.1679  -30.5542 H   0  0  0  0  0  0  0  0  0  0  0  0
   -6.7192   24.7026  -31.4370 H   0  0  0  0  0  0  0  0  0  0  0  0
   -8.6316   23.3403  -31.8645 H   0  0  0  0  0  0  0  0  0  0  0  0
   -7.5959   23.2679  -33.3579 H   0  0  0  0  0  0  0  0  0  0  0  0
  1  2  1  0
  2  3  1  0
  3  4  1  0
  4  5  2  0
  5  6  1  0
  6  7  2  0
  7  8  1  0
  8  9  2  0
  9 10  1  0
 10 11  1  0
 11 12  1  0
 12 13  1  0
 13 14  1  0
  9  4  1  0
 14  8  1  0
  1 15  1  0
  1 16  1  0
  1 17  1  0
  2 18  1  0
  2 19  1  0
  3 20  1  0
  5 21  1  0
  6 22  1  0
  7 23  1  0
 10 24  1  0
 10 25  1  0
 11 26  1  0
 11 27  1  0
 12 28  1  0
 13 29  1  0
 13 30  1  0
 14 31  1  0
 14 32  1  0
M  END
>  <smiles>  (20) 
CCNc1cccc2c1CCNCC2

>  <score_type>  (20) 
oracle

>  <origin>  (20) 
adg

>  <m_score__min__energy>  (20) 
-4.8300000000000001

>  <m_primary>  (20) 
energy

$$$$
21:0
     RDKit          3D

 57 58  0  0  0  0  0  0  0  0999 V2000
   -1.3450   20.4920  -31.8380 C   0  0  0  0  0  0  0  0  0  0  0  0
   -2.7640   20.0650  -31.6760 C   0  0  0  0  0  0  0  0  0  0  0  0
   -3.4530   19.6340  -32.8320 N   0  0  0  0  0  0  0  0  0  0  0  0
   -4.3910   20.4910  -33.4260 C   0  0  0  0  0  0  0  0  0  0  0  0
   -3.8450   21.9090  -33.4610 C   0  0  0  0  0  0  0  0  0  0  0  0
   -2.8820   18.5810  -33.5780 C   0  0  0  0  0  0  0  0  0  0  0  0
   -3.7720   17.7860  -34.4620 C   0  0  0  0  0  0  0  0  0  0  0  0
   -4.9620   18.2130  -34.8170 O   0  0  0  0  0  0  0  0  0  0  0  0
   -6.1400   17.6420  -34.7400 C   0  0  0  0  0  0  0  0  0  0  0  0
   -6.7070   17.0540  -33.5230 C   0  0  0  0  0  0  0  0  0  0  0  0
   -6.6050   17.9710  -32.4140 N   0  0  0  0  0  0  0  0  0  0  0  0
   -7.8030   18.6200  -32.0010 C   0  0  0  0  0  0  0  0  0  0  0  0
   -7.5560   20.0620  -31.6910 C   0  0  0  0  0  0  0  0  0  0  0  0
   -6.3600   20.5460  -31.2700 N   0  0  0  0  0  0  0  0  0  0  0  0
   -6.4710   21.8830  -31.0790 C   0  0  0  0  0  0  0  0  0  0  0  0
   -5.3910   22.7590  -30.6240 C   0  0  0  0  0  0  0  0  0  0  0  0
   -4.3360   22.2160  -29.9190 C   0  0  0  0  0  0  0  0  0  0  0  0
   -3.3190   23.0620  -29.4840 C   0  0  0  0  0  0  0  0  0  0  0  0
   -3.3860   24.4300  -29.7640 C   0  0  0  0  0  0  0  0  0  0  0  0
   -2.3890   25.3000  -29.3440 O   0  0  0  0  0  0  0  0  0  0  0  0
   -1.6190   24.9430  -28.2090 C   0  0  0  0  0  0  0  0  0  0  0  0
   -4.4550   24.9570  -30.4760 C   0  0  0  0  0  0  0  0  0  0  0  0
   -5.4750   24.1180  -30.9150 C   0  0  0  0  0  0  0  0  0  0  0  0
   -7.7090   22.1900  -31.3810 O   0  0  0  0  0  0  0  0  0  0  0  0
   -8.3990   21.1400  -31.7530 C   0  0  0  0  0  0  0  0  0  0  0  0
   -9.8420   21.1000  -32.1730 C   0  0  0  0  0  0  0  0  0  0  0  0
   -0.8880   20.6295  -30.8469 H   0  0  0  0  0  0  0  0  0  0  0  0
   -0.7911   19.7207  -32.3933 H   0  0  0  0  0  0  0  0  0  0  0  0
   -1.3087   21.4408  -32.3933 H   0  0  0  0  0  0  0  0  0  0  0  0
   -2.7775   19.2338  -30.9556 H   0  0  0  0  0  0  0  0  0  0  0  0
   -3.2948   20.9740  -31.3568 H   0  0  0  0  0  0  0  0  0  0  0  0
   -4.5952   20.1531  -34.4527 H   0  0  0  0  0  0  0  0  0  0  0  0
   -5.3205   20.4747  -32.8380 H   0  0  0  0  0  0  0  0  0  0  0  0
   -3.7047   22.2734  -32.4326 H   0  0  0  0  0  0  0  0  0  0  0  0
   -2.8794   21.9172  -33.9879 H   0  0  0  0  0  0  0  0  0  0  0  0
   -4.5557   22.5627  -33.9879 H   0  0  0  0  0  0  0  0  0  0  0  0
   -2.0976   19.0187  -34.2129 H   0  0  0  0  0  0  0  0  0  0  0  0
   -2.5390   17.8629  -32.8186 H   0  0  0  0  0  0  0  0  0  0  0  0
   -3.2127   17.6221  -35.3949 H   0  0  0  0  0  0  0  0  0  0  0  0
   -4.0167   16.9220  -33.8266 H   0  0  0  0  0  0  0  0  0  0  0  0
   -6.8604   18.4096  -35.0590 H   0  0  0  0  0  0  0  0  0  0  0  0
   -5.9623   16.7351  -35.3366 H   0  0  0  0  0  0  0  0  0  0  0  0
   -7.7667   16.8161  -33.6976 H   0  0  0  0  0  0  0  0  0  0  0  0
   -6.1443   16.1412  -33.2779 H   0  0  0  0  0  0  0  0  0  0  0  0
   -5.8870   18.7210  -32.5790 H   0  0  0  0  0  0  0  0  0  0  0  0
   -8.5467   18.5486  -32.8083 H   0  0  0  0  0  0  0  0  0  0  0  0
   -8.1716   18.1255  -31.0902 H   0  0  0  0  0  0  0  0  0  0  0  0
   -4.2993   21.1376  -29.7052 H   0  0  0  0  0  0  0  0  0  0  0  0
   -2.4656   22.6551  -28.9218 H   0  0  0  0  0  0  0  0  0  0  0  0
   -2.1733   25.2000  -27.2943 H   0  0  0  0  0  0  0  0  0  0  0  0
   -1.4208   23.8611  -28.2259 H   0  0  0  0  0  0  0  0  0  0  0  0
   -0.6652   25.4908  -28.2259 H   0  0  0  0  0  0  0  0  0  0  0  0
   -4.4957   26.0347  -30.6926 H   0  0  0  0  0  0  0  0  0  0  0  0
   -6.3291   24.5199  -31.4797 H   0  0  0  0  0  0  0  0  0  0  0  0
  -10.4835   21.0822  -31.2796 H   0  0  0  0  0  0  0  0  0  0  0  0
  -10.0740   21.9921  -32.7733 H   0  0  0  0  0  0  0  0  0  0  0  0
  -10.0242   20.1965  -32.7733 H   0  0  0  0  0  0  0  0  0  0  0  0
  1  2  1  0
  2  3  1  0
  3  4  1  0
  4  5  1  0
  3  6  1  0
  6  7  1  0
  7  8  1  0
  8  9  1  0
  9 10  1  0
 10 11  1  0
 11 12  1  0
 12 13  1  0
 13 14  1  0
 14 15  2  0
 15 16  1  0
 16 17  2  0
 17 18  1  0
 18 19  2  0
 19 20  1  0
 20 21  1  0
 19 22  1  0
 22 23  2  0
 15 24  1  0
 24 25  1  0
 25 26  1  0
 25 13  2  0
 23 16  1  0
  1 27  1  0
  1 28  1  0
  1 29  1  0
  2 30  1  0
  2 31  1  0
  4 32  1  0
  4 33  1  0
  5 34  1  0
  5 35  1  0
  5 36  1  0
  6 37  1  0
  6 38  1  0
  7 39  1  0
  7 40  1  0
  9 41  1  0
  9 42  1  0
 10 43  1  0
 10 44  1  0
 11 45  1  0
 12 46  1  0
 12 47  1  0
 17 48  1  0
 18 49  1  0
 21 50  1  0
 21 51  1  0
 21 52  1  0
 22 53  1  0
 23 54  1  0
 26 55  1  0
 26 56  1  0
 26 57  1  0
M  END
>  <smiles>  (21) 
CCN(CC)CCOCCNCc1nc(-c2ccc(OC)cc2)oc1C

>  <score_type>  (21) 
oracle

>  <origin>  (21) 
adg

>  <m_score__min__energy>  (21) 
-7.0300000000000002

>  <m_primary>  (21) 
energy

$$$$
22:0
     RDKit          3D

 52 55  0  0  1  0  0  0  0  0999 V2000
   -4.8840   15.7800  -32.8120 C   0  0  0  0  0  0  0  0  0  0  0  0
   -5.7060   16.7080  -31.9850 C   0  0  0  0  0  0  0  0  0  0  0  0
   -6.2430   17.8440  -32.6390 N   0  0  0  0  0  0  0  0  0  0  0  0
   -5.6550   18.2540  -33.8520 C   0  0  0  0  0  0  0  0  0  0  0  0
   -4.6120   19.3150  -33.7910 C   0  0  0  0  0  0  0  0  0  0  0  0
   -7.6150   18.1020  -32.4200 C   0  0  0  0  0  0  0  0  0  0  0  0
   -7.9050   19.4760  -31.8300 C   0  0  0  0  0  0  0  0  0  0  0  0
   -6.6860   20.1750  -31.5020 N   0  0  0  0  0  0  0  0  0  0  0  0
   -6.6500   21.5880  -31.3830 C   0  0  0  0  0  0  0  0  0  0  0  0
   -7.8290   22.3070  -31.6130 C   0  0  0  0  0  0  0  0  0  0  0  0
   -7.8730   23.6770  -31.5250 C   0  0  0  0  0  0  0  0  0  0  0  0
   -6.7240   24.3660  -31.2030 C   0  0  0  0  0  0  0  0  0  0  0  0
   -5.5890   23.6430  -30.9850 C   0  0  0  0  0  0  0  0  0  0  0  0
   -4.3200   24.0770  -30.6530 C   0  0  0  0  0  0  0  0  0  0  0  0
   -3.8570   25.3610  -30.4530 O   0  0  0  0  0  0  0  0  0  0  0  0
   -3.5100   22.9560  -30.5400 C   0  0  0  0  0  0  0  0  0  0  0  0
   -2.1150   22.8110  -30.2200 C   0  0  0  0  0  0  0  0  0  0  0  0
   -1.4480   21.7530  -29.9290 C   0  0  0  0  0  0  0  0  0  0  0  0
   -0.3370   21.1540  -30.7000 C   0  0  0  0  0  0  0  0  0  0  0  0
    0.0340   20.0810  -30.0970 N   0  0  0  0  0  0  0  0  0  0  0  0
   -0.7390   19.8590  -28.9370 C   0  0  0  0  0  0  0  0  0  0  0  0
   -0.7240   18.8800  -28.0200 N   0  0  0  0  0  0  0  0  0  0  0  0
   -1.5820   18.8650  -26.9900 C   0  0  0  0  0  0  0  0  0  0  0  0
   -2.5090   19.8690  -26.8510 C   0  0  0  0  0  0  0  0  0  0  0  0
   -2.5660   20.9150  -27.7810 C   0  0  0  0  0  0  0  0  0  0  0  0
   -1.6720   20.8790  -28.7990 C   0  0  0  0  0  0  0  0  0  0  0  0
   -4.2880   21.8990  -30.8010 O   0  0  0  0  0  0  0  0  0  0  0  0
   -5.4960   22.2770  -31.0610 C   0  0  0  0  0  0  0  0  0  0  0  0
   -4.3001   15.1208  -32.1527 H   0  0  0  0  0  0  0  0  0  0  0  0
   -5.5449   15.1716  -33.4469 H   0  0  0  0  0  0  0  0  0  0  0  0
   -4.2002   16.3626  -33.4469 H   0  0  0  0  0  0  0  0  0  0  0  0
   -6.5484   16.1309  -31.5758 H   0  0  0  0  0  0  0  0  0  0  0  0
   -5.0130   17.1114  -31.2320 H   0  0  0  0  0  0  0  0  0  0  0  0
   -5.1945   17.3665  -34.3105 H   0  0  0  0  0  0  0  0  0  0  0  0
   -6.4797   18.7068  -34.4220 H   0  0  0  0  0  0  0  0  0  0  0  0
   -4.3850   19.5460  -32.7398 H   0  0  0  0  0  0  0  0  0  0  0  0
   -3.6998   18.9618  -34.2941 H   0  0  0  0  0  0  0  0  0  0  0  0
   -4.9808   20.2210  -34.2941 H   0  0  0  0  0  0  0  0  0  0  0  0
   -8.1392   18.0227  -33.3838 H   0  0  0  0  0  0  0  0  0  0  0  0
   -7.9625   17.3620  -31.6841 H   0  0  0  0  0  0  0  0  0  0  0  0
   -8.4712   20.0685  -32.5637 H   0  0  0  0  0  0  0  0  0  0  0  0
   -8.4864   19.3408  -30.9061 H   0  0  0  0  0  0  0  0  0  0  0  0
   -5.8090   19.6380  -31.3480 H   0  0  0  0  0  0  0  0  0  0  0  0
   -8.7469   21.7588  -31.8717 H   0  0  0  0  0  0  0  0  0  0  0  0
   -8.8134   24.2172  -31.7092 H   0  0  0  0  0  0  0  0  0  0  0  0
   -6.7226   25.4632  -31.1244 H   0  0  0  0  0  0  0  0  0  0  0  0
   -2.9270   25.6650  -30.7440 H   0  0  0  0  0  0  0  0  0  0  0  0
   -1.5335   23.7447  -30.2254 H   0  0  0  0  0  0  0  0  0  0  0  0
    0.0962   21.5564  -31.6276 H   0  0  0  0  0  0  0  0  0  0  0  0
   -1.5436   18.0474  -26.2551 H   0  0  0  0  0  0  0  0  0  0  0  0
   -3.2109   19.8516  -26.0042 H   0  0  0  0  0  0  0  0  0  0  0  0
   -3.3018   21.7275  -27.6894 H   0  0  0  0  0  0  0  0  0  0  0  0
  1  2  1  0
  2  3  1  0
  3  4  1  0
  4  5  1  0
  3  6  1  0
  6  7  1  0
  7  8  1  0
  8  9  1  0
  9 10  2  0
 10 11  1  0
 11 12  2  0
 12 13  1  0
 13 14  1  0
 14 15  1  0
 14 16  2  0
 16 17  1  0
 17 18  2  0
 18 19  1  0
 19 20  2  0
 20 21  1  0
 21 22  2  0
 22 23  1  0
 23 24  2  0
 24 25  1  0
 25 26  2  0
 16 27  1  0
 27 28  1  0
 28  9  1  0
 28 13  2  0
 26 18  1  0
 26 21  1  0
  1 29  1  0
  1 30  1  0
  1 31  1  0
  2 32  1  0
  2 33  1  0
  4 34  1  0
  4 35  1  0
  5 36  1  0
  5 37  1  0
  5 38  1  0
  6 39  1  0
  6 40  1  0
  7 41  1  0
  7 42  1  0
  8 43  1  0
 10 44  1  0
 11 45  1  0
 12 46  1  0
 15 47  1  0
 17 48  1  0
 19 49  1  0
 23 50  1  0
 24 51  1  0
 25 52  1  0
M  END
>  <smiles>  (22) 
CCN(CC)CCNc1cccc2c(O)c(C=C3C=Nc4ncccc43)oc12

>  <score_type>  (22) 
oracle

>  <origin>  (22) 
adg

>  <m_score__min__energy>  (22) 
-9.0500000000000007

>  <m_primary>  (22) 
energy

$$$$
24:0
     RDKit          3D

 61 62  0  0  1  0  0  0  0  0999 V2000
   -5.7350   18.1940  -34.7430 C   0  0  0  0  0  0  0  0  0  0  0  0
   -6.1540   19.5100  -34.1720 C   0  0  0  0  0  0  0  0  0  0  0  0
   -5.5290   19.7450  -32.8250 N   0  0  0  0  0  0  0  0  0  0  0  0
   -4.2580   20.4080  -33.0740 C   0  0  0  0  0  0  0  0  0  0  0  0
   -3.0350   19.5600  -33.0430 C   0  0  0  0  0  0  0  0  0  0  0  0
   -5.3600   18.4090  -32.2470 C   0  0  0  0  0  0  0  0  0  0  0  0
   -6.5810   17.9280  -31.5790 C   0  0  0  0  0  0  0  0  0  0  0  0
   -7.4690   18.9590  -31.2490 O   0  0  0  0  0  0  0  0  0  0  0  0
   -8.6570   18.9810  -31.8990 C   0  0  0  0  0  0  0  0  0  0  0  0
   -8.9080   20.4140  -32.3870 C   0  0  0  0  0  0  0  0  0  0  0  0
   -7.9100   21.3490  -32.0090 N   0  0  0  0  0  0  0  0  0  0  0  0
   -8.0100   22.7450  -31.9540 C   0  0  0  0  0  0  0  0  0  0  0  0
   -9.0620   23.3910  -32.2510 O   0  0  0  0  0  0  0  0  0  0  0  0
   -6.8590   23.5930  -31.5280 C   0  0  1  0  0  0  0  0  0  0  0  0
   -7.1940   24.0830  -30.1380 C   0  0  0  0  0  0  0  0  0  0  0  0
   -6.2280   25.1260  -29.7190 C   0  0  0  0  0  0  0  0  0  0  0  0
   -4.9400   25.0290  -30.4760 C   0  0  0  0  0  0  0  0  0  0  0  0
   -4.5660   23.7960  -31.0110 N   0  0  0  0  0  0  0  0  0  0  0  0
   -3.2260   23.3950  -30.9440 C   0  0  0  0  0  0  0  0  0  0  0  0
   -3.0180   22.3550  -29.8710 C   0  0  0  0  0  0  0  0  0  0  0  0
   -2.1900   21.2680  -30.0720 C   0  0  0  0  0  0  0  0  0  0  0  0
   -2.0180   20.3270  -29.0650 C   0  0  0  0  0  0  0  0  0  0  0  0
   -2.6630   20.4520  -27.8540 C   0  0  0  0  0  0  0  0  0  0  0  0
   -2.4760   19.3000  -26.5550 Cl  0  0  0  0  0  0  0  0  0  0  0  0
   -3.4790   21.5400  -27.6820 C   0  0  0  0  0  0  0  0  0  0  0  0
   -3.6820   22.5000  -28.6500 C   0  0  0  0  0  0  0  0  0  0  0  0
   -5.5480   22.8860  -31.4720 C   0  0  0  0  0  0  0  0  0  0  0  0
   -5.5120   17.4936  -33.9247 H   0  0  0  0  0  0  0  0  0  0  0  0
   -6.5481   17.7874  -35.3623 H   0  0  0  0  0  0  0  0  0  0  0  0
   -4.8365   18.3324  -35.3623 H   0  0  0  0  0  0  0  0  0  0  0  0
   -5.8428   20.3129  -34.8564 H   0  0  0  0  0  0  0  0  0  0  0  0
   -7.2473   19.5037  -34.0511 H   0  0  0  0  0  0  0  0  0  0  0  0
   -4.3152   20.8713  -34.0700 H   0  0  0  0  0  0  0  0  0  0  0  0
   -4.1365   21.1145  -32.2396 H   0  0  0  0  0  0  0  0  0  0  0  0
   -2.7515   19.3634  -31.9985 H   0  0  0  0  0  0  0  0  0  0  0  0
   -3.2366   18.6069  -33.5538 H   0  0  0  0  0  0  0  0  0  0  0  0
   -2.2131   20.0830  -33.5538 H   0  0  0  0  0  0  0  0  0  0  0  0
   -5.0975   17.7065  -33.0517 H   0  0  0  0  0  0  0  0  0  0  0  0
   -4.5647   18.4694  -31.4894 H   0  0  0  0  0  0  0  0  0  0  0  0
   -7.0946   17.2256  -32.2519 H   0  0  0  0  0  0  0  0  0  0  0  0
   -6.2728   17.4471  -30.6389 H   0  0  0  0  0  0  0  0  0  0  0  0
   -8.6244   18.2950  -32.7583 H   0  0  0  0  0  0  0  0  0  0  0  0
   -9.4656   18.6611  -31.2253 H   0  0  0  0  0  0  0  0  0  0  0  0
   -8.9647   20.3976  -33.4854 H   0  0  0  0  0  0  0  0  0  0  0  0
   -9.8430   20.7462  -31.9122 H   0  0  0  0  0  0  0  0  0  0  0  0
   -6.9570   20.9490  -31.7270 H   0  0  0  0  0  0  0  0  0  0  0  0
   -6.7327   24.3913  -32.2742 H   0  0  0  0  0  0  0  0  0  0  0  0
   -8.2095   24.5058  -30.1362 H   0  0  0  0  0  0  0  0  0  0  0  0
   -7.1390   23.2383  -29.4355 H   0  0  0  0  0  0  0  0  0  0  0  0
   -6.6728   26.1158  -29.8989 H   0  0  0  0  0  0  0  0  0  0  0  0
   -6.0083   24.9787  -28.6513 H   0  0  0  0  0  0  0  0  0  0  0  0
   -5.0031   25.7391  -31.3137 H   0  0  0  0  0  0  0  0  0  0  0  0
   -4.1699   25.2346  -29.7180 H   0  0  0  0  0  0  0  0  0  0  0  0
   -2.9296   22.9721  -31.9152 H   0  0  0  0  0  0  0  0  0  0  0  0
   -2.6123   24.2744  -30.6988 H   0  0  0  0  0  0  0  0  0  0  0  0
   -1.6657   21.1473  -31.0315 H   0  0  0  0  0  0  0  0  0  0  0  0
   -1.3549   19.4665  -29.2375 H   0  0  0  0  0  0  0  0  0  0  0  0
   -3.9998   21.6530  -26.7197 H   0  0  0  0  0  0  0  0  0  0  0  0
   -4.3479   23.3561  -28.4666 H   0  0  0  0  0  0  0  0  0  0  0  0
   -5.2778   22.5254  -32.4755 H   0  0  0  0  0  0  0  0  0  0  0  0
   -5.6131   22.0248  -30.7908 H   0  0  0  0  0  0  0  0  0  0  0  0
  1  2  1  0
  2  3  1  0
  3  4  1  0
  4  5  1  0
  3  6  1  0
  6  7  1  0
  7  8  1  0
  8  9  1  0
  9 10  1  0
 10 11  1  0
 11 12  1  0
 12 13  2  0
 12 14  1  0
 14 15  1  0
 15 16  1  0
 16 17  1  0
 17 18  1  0
 18 19  1  0
 19 20  1  0
 20 21  2  0
 21 22  1  0
 22 23  2  0
 23 24  1  0
 23 25  1  0
 25 26  2  0
 18 27  1  0
 27 14  1  0
 26 20  1  0
  1 28  1  0
  1 29  1  0
  1 30  1  0
  2 31  1  0
  2 32  1  0
  4 33  1  0
  4 34  1  0
  5 35  1  0
  5 36  1  0
  5 37  1  0
  6 38  1  0
  6 39  1  0
  7 40  1  0
  7 41  1  0
  9 42  1  0
  9 43  1  0
 10 44  1  0
 10 45  1  0
 11 46  1  0
 14 47  1  6
 15 48  1  0
 15 49  1  0
 16 50  1  0
 16 51  1  0
 17 52  1  0
 17 53  1  0
 19 54  1  0
 19 55  1  0
 21 56  1  0
 22 57  1  0
 25 58  1  0
 26 59  1  0
 27 60  1  0
 27 61  1  0
M  END
>  <smiles>  (23) 
CCN(CC)CCOCCNC(=O)C1CCCN(Cc2ccc(Cl)cc2)C1

>  <score_type>  (23) 
oracle

>  <origin>  (23) 
adg

>  <m_score__min__energy>  (23) 
-9.3200000000000003

>  <m_primary>  (23) 
energy

$$$$
