0:0
     RDKit          3D

 49 51  0  0  0  0  0  0  0  0999 V2000
   -3.4880   23.6370  -28.2220 C   0  0  0  0  0  0  0  0  0  0  0  0
   -3.0190   24.5470  -29.3490 C   0  0  0  0  0  0  0  0  0  0  0  0
   -3.8280   24.2880  -30.5630 N   0  0  0  0  0  0  0  0  0  0  0  0
   -4.9630   25.2260  -30.7150 C   0  0  0  0  0  0  0  0  0  0  0  0
   -6.1760   24.8760  -29.8400 C   0  0  0  0  0  0  0  0  0  0  0  0
   -4.2280   22.8730  -30.7170 C   0  0  0  0  0  0  0  0  0  0  0  0
   -3.5960   22.2460  -31.9680 C   0  0  0  0  0  0  0  0  0  0  0  0
   -4.5840   22.0450  -33.0340 N   0  0  0  0  0  0  0  0  0  0  0  0
   -5.6520   21.0880  -32.9190 C   0  0  0  0  0  0  0  0  0  0  0  0
   -6.9320   21.5020  -32.5120 C   0  0  0  0  0  0  0  0  0  0  0  0
   -7.2380   22.8710  -32.3600 C   0  0  0  0  0  0  0  0  0  0  0  0
   -8.5110   23.2770  -31.9700 C   0  0  0  0  0  0  0  0  0  0  0  0
   -9.5050   22.3320  -31.7430 C   0  0  0  0  0  0  0  0  0  0  0  0
   -9.2250   20.9720  -31.8850 C   0  0  0  0  0  0  0  0  0  0  0  0
   -7.9290   20.5250  -32.2430 C   0  0  0  0  0  0  0  0  0  0  0  0
   -7.6230   19.1810  -32.3410 N   0  0  0  0  0  0  0  0  0  0  0  0
   -8.5380   18.1650  -31.7780 C   0  0  0  0  0  0  0  0  0  0  0  0
   -6.4510   18.7820  -32.9540 C   0  0  0  0  0  0  0  0  0  0  0  0
   -6.2490   17.4740  -33.3270 N   0  0  0  0  0  0  0  0  0  0  0  0
   -5.0940   17.0590  -33.9120 C   0  0  0  0  0  0  0  0  0  0  0  0
   -4.0760   17.9650  -34.1820 C   0  0  0  0  0  0  0  0  0  0  0  0
   -4.2530   19.3050  -33.8550 C   0  0  0  0  0  0  0  0  0  0  0  0
   -5.4370   19.7340  -33.2300 C   0  0  0  0  0  0  0  0  0  0  0  0
   -3.2493   24.1002  -27.2533 H   0  0  0  0  0  0  0  0  0  0  0  0
   -4.5751   23.4881  -28.2993 H   0  0  0  0  0  0  0  0  0  0  0  0
   -2.9784   22.6652  -28.2993 H   0  0  0  0  0  0  0  0  0  0  0  0
   -3.1390   25.5976  -29.0458 H   0  0  0  0  0  0  0  0  0  0  0  0
   -1.9593   24.3461  -29.5652 H   0  0  0  0  0  0  0  0  0  0  0  0
   -4.6185   26.2347  -30.4432 H   0  0  0  0  0  0  0  0  0  0  0  0
   -5.2937   25.1628  -31.7622 H   0  0  0  0  0  0  0  0  0  0  0  0
   -5.8979   24.9562  -28.7788 H   0  0  0  0  0  0  0  0  0  0  0  0
   -6.9983   25.5735  -30.0573 H   0  0  0  0  0  0  0  0  0  0  0  0
   -6.5004   23.8476  -30.0573 H   0  0  0  0  0  0  0  0  0  0  0  0
   -3.9012   22.3100  -29.8303 H   0  0  0  0  0  0  0  0  0  0  0  0
   -5.3220   22.8318  -30.8237 H   0  0  0  0  0  0  0  0  0  0  0  0
   -2.8028   22.9121  -32.3384 H   0  0  0  0  0  0  0  0  0  0  0  0
   -3.1881   21.2631  -31.6895 H   0  0  0  0  0  0  0  0  0  0  0  0
   -4.5680   22.6870  -33.8580 H   0  0  0  0  0  0  0  0  0  0  0  0
   -6.4615   23.6262  -32.5519 H   0  0  0  0  0  0  0  0  0  0  0  0
   -8.7308   24.3471  -31.8412 H   0  0  0  0  0  0  0  0  0  0  0  0
  -10.5145   22.6568  -31.4508 H   0  0  0  0  0  0  0  0  0  0  0  0
  -10.0238   20.2349  -31.7162 H   0  0  0  0  0  0  0  0  0  0  0  0
   -8.5006   18.2065  -30.6794 H   0  0  0  0  0  0  0  0  0  0  0  0
   -9.5644   18.3674  -32.1179 H   0  0  0  0  0  0  0  0  0  0  0  0
   -8.2296   17.1653  -32.1179 H   0  0  0  0  0  0  0  0  0  0  0  0
   -6.9940   16.7520  -33.2230 H   0  0  0  0  0  0  0  0  0  0  0  0
   -4.9646   15.9984  -34.1734 H   0  0  0  0  0  0  0  0  0  0  0  0
   -3.1398   17.6260  -34.6495 H   0  0  0  0  0  0  0  0  0  0  0  0
   -3.4620   20.0335  -34.0867 H   0  0  0  0  0  0  0  0  0  0  0  0
  1  2  1  0
  2  3  1  0
  3  4  1  0
  4  5  1  0
  3  6  1  0
  6  7  1  0
  7  8  1  0
  8  9  1  0
  9 10  2  0
 10 11  1  0
 11 12  2  0
 12 13  1  0
 13 14  2  0
 14 15  1  0
 15 16  2  0
 16 17  1  0
 16 18  1  0
 18 19  2  0
 19 20  1  0
 20 21  2  0
 21 22  1  0
 22 23  2  0
 23  9  1  0
 15 10  1  0
 23 18  1  0
  1 24  1  0
  1 25  1  0
  1 26  1  0
  2 27  1  0
  2 28  1  0
  4 29  1  0
  4 30  1  0
  5 31  1  0
  5 32  1  0
  5 33  1  0
  6 34  1  0
  6 35  1  0
  7 36  1  0
  7 37  1  0
  8 38  1  0
 11 39  1  0
 12 40  1  0
 13 41  1  0
 14 42  1  0
 17 43  1  0
 17 44  1  0
 17 45  1  0
 19 46  1  0
 20 47  1  0
 21 48  1  0
 22 49  1  0
M  CHG  2  16   1  19   1
M  END
>  <UniqueID>  (1) 
1

>  <SMILES>  (1) 
CCN(CC)CCNc1c2ccccc2[n+](C)c2[nH+]cccc12

>  <Energy>  (1) 
73.61236536680804

>  <Genealogy>  (1) 
CCN(CC)CCNc1c2ccccc2[n+](C)c2[nH+]cccc12 (protonated)
CCN(CC)CCNc1c2ccccc2[n+](C)c2[nH+]cccc12 (3D coordinates assigned)
CCN(CC)CCNc1c2ccccc2[n+](C)c2[nH+]cccc12 (optimized conformer: 73.61236536680804 kcal/mol)

>  <smiles>  (1) 
CCN(CC)CCNc1c2ccccc2[n+](C)c2ncccc12

>  <score_type>  (1) 
oracle

>  <origin>  (1) 
adg

>  <m_score__min__energy>  (1) 
-7.7999999999999998

>  <m_primary>  (1) 
energy

$$$$
1:0
     RDKit          3D

 45 48  0  0  0  0  0  0  0  0999 V2000
   -0.5100   24.5380  -28.4720 C   0  0  0  0  0  0  0  0  0  0  0  0
   -1.7160   23.8940  -29.0880 C   0  0  0  0  0  0  0  0  0  0  0  0
   -2.9760   24.5310  -29.0120 C   0  0  0  0  0  0  0  0  0  0  0  0
   -4.1300   23.9250  -29.5530 C   0  0  0  0  0  0  0  0  0  0  0  0
   -5.4620   24.6150  -29.4730 C   0  0  0  0  0  0  0  0  0  0  0  0
   -3.9960   22.6630  -30.1580 C   0  0  0  0  0  0  0  0  0  0  0  0
   -5.0090   21.9470  -30.7210 N   0  0  0  0  0  0  0  0  0  0  0  0
   -4.5800   20.7580  -31.2200 C   0  0  0  0  0  0  0  0  0  0  0  0
   -5.4430   19.8070  -31.8840 N   0  0  0  0  0  0  0  0  0  0  0  0
   -5.8600   19.9970  -33.2800 C   0  0  0  0  0  0  0  0  0  0  0  0
   -7.3550   19.6620  -33.4730 C   0  0  0  0  0  0  0  0  0  0  0  0
   -7.8840   18.6440  -32.5300 N   0  0  0  0  0  0  0  0  0  0  0  0
   -8.7080   19.2610  -31.4640 C   0  0  0  0  0  0  0  0  0  0  0  0
   -8.7250   20.7550  -31.5840 C   0  0  0  0  0  0  0  0  0  0  0  0
   -9.7880   21.5180  -32.0230 C   0  0  0  0  0  0  0  0  0  0  0  0
   -9.3460   22.8230  -31.9810 C   0  0  0  0  0  0  0  0  0  0  0  0
   -8.0460   22.7740  -31.5210 C   0  0  0  0  0  0  0  0  0  0  0  0
   -7.7030   21.5270  -31.2930 O   0  0  0  0  0  0  0  0  0  0  0  0
   -6.8220   17.7520  -32.0130 C   0  0  0  0  0  0  0  0  0  0  0  0
   -5.7610   18.5330  -31.2260 C   0  0  0  0  0  0  0  0  0  0  0  0
   -2.9110   20.5580  -30.9780 S   0  0  0  0  0  0  0  0  0  0  0  0
   -2.7570   22.0430  -30.2120 C   0  0  0  0  0  0  0  0  0  0  0  0
   -1.6100   22.6240  -29.6850 C   0  0  0  0  0  0  0  0  0  0  0  0
   -0.5909   24.4948  -27.3758 H   0  0  0  0  0  0  0  0  0  0  0  0
    0.3959   24.0035  -28.7941 H   0  0  0  0  0  0  0  0  0  0  0  0
   -0.4503   25.5881  -28.7941 H   0  0  0  0  0  0  0  0  0  0  0  0
   -3.0580   25.5134  -28.5240 H   0  0  0  0  0  0  0  0  0  0  0  0
   -5.7381   24.7580  -28.4179 H   0  0  0  0  0  0  0  0  0  0  0  0
   -5.3985   25.5936  -29.9713 H   0  0  0  0  0  0  0  0  0  0  0  0
   -6.2248   23.9986  -29.9713 H   0  0  0  0  0  0  0  0  0  0  0  0
   -6.0000   22.2740  -30.7550 H   0  0  0  0  0  0  0  0  0  0  0  0
   -5.6887   21.0455  -33.5650 H   0  0  0  0  0  0  0  0  0  0  0  0
   -5.2691   19.3185  -33.9128 H   0  0  0  0  0  0  0  0  0  0  0  0
   -7.9345   20.5875  -33.3403 H   0  0  0  0  0  0  0  0  0  0  0  0
   -7.4525   19.2349  -34.4820 H   0  0  0  0  0  0  0  0  0  0  0  0
   -9.7381   18.8835  -31.5438 H   0  0  0  0  0  0  0  0  0  0  0  0
   -8.2704   18.9961  -30.4902 H   0  0  0  0  0  0  0  0  0  0  0  0
  -10.7788   21.1602  -32.3396 H   0  0  0  0  0  0  0  0  0  0  0  0
   -9.9151   23.7225  -32.2584 H   0  0  0  0  0  0  0  0  0  0  0  0
   -7.3952   23.6476  -31.3683 H   0  0  0  0  0  0  0  0  0  0  0  0
   -7.2776   17.0017  -31.3501 H   0  0  0  0  0  0  0  0  0  0  0  0
   -6.3291   17.2712  -32.8708 H   0  0  0  0  0  0  0  0  0  0  0  0
   -6.1423   18.7369  -30.2145 H   0  0  0  0  0  0  0  0  0  0  0  0
   -4.8446   17.9263  -31.1799 H   0  0  0  0  0  0  0  0  0  0  0  0
   -0.6421   22.1036  -29.7333 H   0  0  0  0  0  0  0  0  0  0  0  0
  1  2  1  0
  2  3  2  0
  3  4  1  0
  4  5  1  0
  4  6  2  0
  6  7  1  0
  7  8  2  0
  8  9  1  0
  9 10  1  0
 10 11  1  0
 11 12  1  0
 12 13  1  0
 13 14  1  0
 14 15  2  0
 15 16  1  0
 16 17  2  0
 17 18  1  0
 12 19  1  0
 19 20  1  0
  8 21  1  0
 21 22  1  0
 22 23  2  0
 23  2  1  0
 22  6  1  0
 20  9  1  0
 18 14  1  0
  1 24  1  0
  1 25  1  0
  1 26  1  0
  3 27  1  0
  5 28  1  0
  5 29  1  0
  5 30  1  0
  7 31  1  0
 10 32  1  0
 10 33  1  0
 11 34  1  0
 11 35  1  0
 13 36  1  0
 13 37  1  0
 15 38  1  0
 16 39  1  0
 17 40  1  0
 19 41  1  0
 19 42  1  0
 20 43  1  0
 20 44  1  0
 23 45  1  0
M  CHG  1   7   1
M  END
>  <UniqueID>  (2) 
2

>  <SMILES>  (2) 
Cc1cc(C)c2[nH+]c(N3CCN(Cc4ccco4)CC3)sc2c1

>  <Energy>  (2) 
116.2068686005503

>  <Genealogy>  (2) 
Cc1cc(C)c2[nH+]c(N3CCN(Cc4ccco4)CC3)sc2c1 (protonated)
Cc1cc(C)c2[nH+]c(N3CCN(Cc4ccco4)CC3)sc2c1 (3D coordinates assigned)
Cc1cc(C)c2[nH+]c(N3CCN(Cc4ccco4)CC3)sc2c1 (nonaromatic ring conformer: 116.2068686005503 kcal/mol)

>  <smiles>  (2) 
Cc1cc(C)c2nc(N3CCN(Cc4ccco4)CC3)sc2c1

>  <score_type>  (2) 
oracle

>  <origin>  (2) 
adg

>  <m_score__min__energy>  (2) 
-6.8899999999999997

>  <m_primary>  (2) 
energy

$$$$
2:0
     RDKit          3D

 48 50  0  0  0  0  0  0  0  0999 V2000
   -0.5640   26.1930  -23.8460 C   0  0  0  0  0  0  0  0  0  0  0  0
   -1.1050   26.7830  -25.0240 O   0  0  0  0  0  0  0  0  0  0  0  0
   -1.6240   26.0560  -26.1060 C   0  0  0  0  0  0  0  0  0  0  0  0
   -0.9890   26.0130  -27.3610 C   0  0  0  0  0  0  0  0  0  0  0  0
   -1.5470   25.2720  -28.4080 C   0  0  0  0  0  0  0  0  0  0  0  0
   -2.7390   24.5580  -28.2160 C   0  0  0  0  0  0  0  0  0  0  0  0
   -3.3210   23.8030  -29.2920 N   0  0  0  0  0  0  0  0  0  0  0  0
   -3.8330   24.3160  -30.4280 C   0  0  0  0  0  0  0  0  0  0  0  0
   -3.8750   25.6750  -30.7200 O   0  0  0  0  0  0  0  0  0  0  0  0
   -4.2740   23.3210  -31.2710 C   0  0  0  0  0  0  0  0  0  0  0  0
   -4.0330   22.1290  -30.6080 C   0  0  0  0  0  0  0  0  0  0  0  0
   -4.3050   20.7470  -31.1620 C   0  0  0  0  0  0  0  0  0  0  0  0
   -5.7050   20.5270  -31.6060 N   0  0  0  0  0  0  0  0  0  0  0  0
   -5.8260   20.4190  -33.0720 C   0  0  0  0  0  0  0  0  0  0  0  0
   -7.2260   19.8960  -33.4540 C   0  0  0  0  0  0  0  0  0  0  0  0
   -8.3150   20.4530  -32.6130 N   0  0  0  0  0  0  0  0  0  0  0  0
   -8.9070   19.4530  -31.7090 C   0  0  0  0  0  0  0  0  0  0  0  0
   -7.9360   21.6880  -31.8980 C   0  0  0  0  0  0  0  0  0  0  0  0
   -6.6510   21.5280  -31.0500 C   0  0  0  0  0  0  0  0  0  0  0  0
   -3.4440   22.4570  -29.3880 C   0  0  0  0  0  0  0  0  0  0  0  0
   -2.9470   21.4800  -28.3590 C   0  0  0  0  0  0  0  0  0  0  0  0
   -3.3770   24.6110  -26.9680 C   0  0  0  0  0  0  0  0  0  0  0  0
   -2.8190   25.3510  -25.9210 C   0  0  0  0  0  0  0  0  0  0  0  0
   -1.0044   26.6733  -22.9598 H   0  0  0  0  0  0  0  0  0  0  0  0
   -0.7968   25.1180  -23.8342 H   0  0  0  0  0  0  0  0  0  0  0  0
    0.5271   26.3320  -23.8342 H   0  0  0  0  0  0  0  0  0  0  0  0
   -0.0503   26.5642  -27.5193 H   0  0  0  0  0  0  0  0  0  0  0  0
   -1.0479   25.2491  -29.3880 H   0  0  0  0  0  0  0  0  0  0  0  0
   -4.7250   23.4467  -32.2664 H   0  0  0  0  0  0  0  0  0  0  0  0
   -3.6415   20.5857  -32.0244 H   0  0  0  0  0  0  0  0  0  0  0  0
   -4.1219   20.0386  -30.3406 H   0  0  0  0  0  0  0  0  0  0  0  0
   -5.9680   19.5930  -31.2110 H   0  0  0  0  0  0  0  0  0  0  0  0
   -5.6729   21.4105  -33.5232 H   0  0  0  0  0  0  0  0  0  0  0  0
   -5.0664   19.7157  -33.4439 H   0  0  0  0  0  0  0  0  0  0  0  0
   -7.4238   20.1639  -34.5024 H   0  0  0  0  0  0  0  0  0  0  0  0
   -7.2193   18.8074  -33.2962 H   0  0  0  0  0  0  0  0  0  0  0  0
   -8.7300   19.7519  -30.6653 H   0  0  0  0  0  0  0  0  0  0  0  0
   -9.9895   19.3875  -31.8932 H   0  0  0  0  0  0  0  0  0  0  0  0
   -8.4438   18.4724  -31.8932 H   0  0  0  0  0  0  0  0  0  0  0  0
   -7.7700   22.4844  -32.6384 H   0  0  0  0  0  0  0  0  0  0  0  0
   -8.7566   21.9325  -31.2075 H   0  0  0  0  0  0  0  0  0  0  0  0
   -6.1411   22.5014  -31.0005 H   0  0  0  0  0  0  0  0  0  0  0  0
   -6.9574   21.1716  -30.0555 H   0  0  0  0  0  0  0  0  0  0  0  0
   -3.1476   21.8744  -27.3519 H   0  0  0  0  0  0  0  0  0  0  0  0
   -3.4654   20.5182  -28.4861 H   0  0  0  0  0  0  0  0  0  0  0  0
   -1.8644   21.3326  -28.4861 H   0  0  0  0  0  0  0  0  0  0  0  0
   -4.3208   24.0679  -26.8122 H   0  0  0  0  0  0  0  0  0  0  0  0
   -3.3233   25.3794  -24.9438 H   0  0  0  0  0  0  0  0  0  0  0  0
  1  2  1  0
  2  3  1  0
  3  4  2  0
  4  5  1  0
  5  6  2  0
  6  7  1  0
  7  8  1  0
  8  9  1  0
  8 10  2  0
 10 11  1  0
 11 12  1  0
 12 13  1  0
 13 14  1  0
 14 15  1  0
 15 16  1  0
 16 17  1  0
 16 18  1  0
 18 19  1  0
 11 20  2  0
 20 21  1  0
  6 22  1  0
 22 23  2  0
 23  3  1  0
 20  7  1  0
 19 13  1  0
  1 24  1  0
  1 25  1  0
  1 26  1  0
  4 27  1  0
  5 28  1  0
 10 29  1  0
 12 30  1  0
 12 31  1  0
 13 32  1  0
 14 33  1  0
 14 34  1  0
 15 35  1  0
 15 36  1  0
 17 37  1  0
 17 38  1  0
 17 39  1  0
 18 40  1  0
 18 41  1  0
 19 42  1  0
 19 43  1  0
 21 44  1  0
 21 45  1  0
 21 46  1  0
 22 47  1  0
 23 48  1  0
M  CHG  2   9  -1  13   1
M  END
>  <UniqueID>  (3) 
3

>  <SMILES>  (3) 
COc1ccc(-n2c([O-])cc(C[NH+]3CCN(C)CC3)c2C)cc1

>  <Energy>  (3) 
95.80261707451636

>  <Genealogy>  (3) 
COc1ccc(-n2c([O-])cc(C[NH+]3CCN(C)CC3)c2C)cc1 (protonated)
COc1ccc(-n2c([O-])cc(C[NH+]3CCN(C)CC3)c2C)cc1 (3D coordinates assigned)
COc1ccc(-n2c([O-])cc(C[NH+]3CCN(C)CC3)c2C)cc1 (nonaromatic ring conformer: 95.80261707451636 kcal/mol)

>  <smiles>  (3) 
COc1ccc(-n2c(O)cc(CN3CCN(C)CC3)c2C)cc1

>  <score_type>  (3) 
oracle

>  <origin>  (3) 
adg

>  <m_score__min__energy>  (3) 
-9.6600000000000001

>  <m_primary>  (3) 
energy

$$$$
3:0
     RDKit          3D

 51 53  0  0  0  0  0  0  0  0999 V2000
   -5.7400   25.5260  -30.4060 C   0  0  0  0  0  0  0  0  0  0  0  0
   -4.8570   24.3290  -30.0860 C   0  0  0  0  0  0  0  0  0  0  0  0
   -4.3470   23.8010  -31.2900 O   0  0  0  0  0  0  0  0  0  0  0  0
   -3.5860   22.6420  -31.0190 C   0  0  0  0  0  0  0  0  0  0  0  0
   -3.4650   21.7940  -32.2930 C   0  0  0  0  0  0  0  0  0  0  0  0
   -4.5850   22.0030  -33.2330 N   0  0  0  0  0  0  0  0  0  0  0  0
   -5.6870   21.0740  -33.0000 C   0  0  0  0  0  0  0  0  0  0  0  0
   -6.9450   21.5260  -32.4980 C   0  0  0  0  0  0  0  0  0  0  0  0
   -7.2060   22.8940  -32.2150 C   0  0  0  0  0  0  0  0  0  0  0  0
   -8.4580   23.3160  -31.7770 C   0  0  0  0  0  0  0  0  0  0  0  0
   -9.4870   22.4020  -31.6200 C   0  0  0  0  0  0  0  0  0  0  0  0
   -9.2580   21.0510  -31.8580 C   0  0  0  0  0  0  0  0  0  0  0  0
   -7.9800   20.5780  -32.2530 C   0  0  0  0  0  0  0  0  0  0  0  0
   -7.7410   19.2290  -32.4040 N   0  0  0  0  0  0  0  0  0  0  0  0
   -8.6830   18.2440  -31.8210 C   0  0  0  0  0  0  0  0  0  0  0  0
   -6.6050   18.7920  -33.0530 C   0  0  0  0  0  0  0  0  0  0  0  0
   -6.4840   17.4500  -33.4880 C   0  0  0  0  0  0  0  0  0  0  0  0
   -5.3020   16.9670  -34.0680 C   0  0  0  0  0  0  0  0  0  0  0  0
   -5.1620   15.6340  -34.4870 O   0  0  0  0  0  0  0  0  0  0  0  0
   -5.1880   14.5030  -33.6210 C   0  0  0  0  0  0  0  0  0  0  0  0
   -4.2200   17.8270  -34.2370 C   0  0  0  0  0  0  0  0  0  0  0  0
   -3.0390   17.3030  -34.7910 O   0  0  0  0  0  0  0  0  0  0  0  0
   -2.1200   16.4630  -34.0990 C   0  0  0  0  0  0  0  0  0  0  0  0
   -4.3390   19.1750  -33.8650 C   0  0  0  0  0  0  0  0  0  0  0  0
   -5.5360   19.6890  -33.3070 C   0  0  0  0  0  0  0  0  0  0  0  0
   -6.0823   25.9900  -29.4692 H   0  0  0  0  0  0  0  0  0  0  0  0
   -5.1653   26.2599  -30.9901 H   0  0  0  0  0  0  0  0  0  0  0  0
   -6.6108   25.1935  -30.9901 H   0  0  0  0  0  0  0  0  0  0  0  0
   -4.0248   24.6465  -29.4405 H   0  0  0  0  0  0  0  0  0  0  0  0
   -5.4462   23.5612  -29.5631 H   0  0  0  0  0  0  0  0  0  0  0  0
   -2.5821   22.9350  -30.6779 H   0  0  0  0  0  0  0  0  0  0  0  0
   -4.0848   22.0533  -30.2351 H   0  0  0  0  0  0  0  0  0  0  0  0
   -2.5262   22.0577  -32.8019 H   0  0  0  0  0  0  0  0  0  0  0  0
   -3.4836   20.7372  -31.9883 H   0  0  0  0  0  0  0  0  0  0  0  0
   -4.2370   21.8950  -34.2110 H   0  0  0  0  0  0  0  0  0  0  0  0
   -4.8700   23.0010  -33.2300 H   0  0  0  0  0  0  0  0  0  0  0  0
   -6.4026   23.6341  -32.3447 H   0  0  0  0  0  0  0  0  0  0  0  0
   -8.6310   24.3793  -31.5547 H   0  0  0  0  0  0  0  0  0  0  0  0
  -10.4845   22.7445  -31.3073 H   0  0  0  0  0  0  0  0  0  0  0  0
  -10.0842   20.3349  -31.7376 H   0  0  0  0  0  0  0  0  0  0  0  0
   -8.6341   18.2951  -30.7233 H   0  0  0  0  0  0  0  0  0  0  0  0
   -9.7060   18.4737  -32.1536 H   0  0  0  0  0  0  0  0  0  0  0  0
   -8.4079   17.2322  -32.1536 H   0  0  0  0  0  0  0  0  0  0  0  0
   -7.3392   16.7687  -33.3679 H   0  0  0  0  0  0  0  0  0  0  0  0
   -5.1802   14.8422  -32.5746 H   0  0  0  0  0  0  0  0  0  0  0  0
   -6.0998   13.9175  -33.8099 H   0  0  0  0  0  0  0  0  0  0  0  0
   -4.3040   13.8762  -33.8099 H   0  0  0  0  0  0  0  0  0  0  0  0
   -2.2553   16.5867  -33.0144 H   0  0  0  0  0  0  0  0  0  0  0  0
   -2.3034   15.4139  -34.3741 H   0  0  0  0  0  0  0  0  0  0  0  0
   -1.0915   16.7398  -34.3741 H   0  0  0  0  0  0  0  0  0  0  0  0
   -3.4820   19.8492  -34.0101 H   0  0  0  0  0  0  0  0  0  0  0  0
  1  2  1  0
  2  3  1  0
  3  4  1  0
  4  5  1  0
  5  6  1  0
  6  7  1  0
  7  8  2  0
  8  9  1  0
  9 10  2  0
 10 11  1  0
 11 12  2  0
 12 13  1  0
 13 14  2  0
 14 15  1  0
 14 16  1  0
 16 17  2  0
 17 18  1  0
 18 19  1  0
 19 20  1  0
 18 21  2  0
 21 22  1  0
 22 23  1  0
 21 24  1  0
 24 25  2  0
 25  7  1  0
 13  8  1  0
 25 16  1  0
  1 26  1  0
  1 27  1  0
  1 28  1  0
  2 29  1  0
  2 30  1  0
  4 31  1  0
  4 32  1  0
  5 33  1  0
  5 34  1  0
  6 35  1  0
  6 36  1  0
  9 37  1  0
 10 38  1  0
 11 39  1  0
 12 40  1  0
 15 41  1  0
 15 42  1  0
 15 43  1  0
 17 44  1  0
 20 45  1  0
 20 46  1  0
 20 47  1  0
 23 48  1  0
 23 49  1  0
 23 50  1  0
 24 51  1  0
M  CHG  2   6   1  14   1
M  END
>  <UniqueID>  (4) 
4

>  <SMILES>  (4) 
CCOCC[NH2+]c1c2ccccc2[n+](C)c2cc(OC)c(OC)cc12

>  <Energy>  (4) 
76.96692811097616

>  <Genealogy>  (4) 
CCOCC[NH2+]c1c2ccccc2[n+](C)c2cc(OC)c(OC)cc12 (protonated)
CCOCC[NH2+]c1c2ccccc2[n+](C)c2cc(OC)c(OC)cc12 (3D coordinates assigned)
CCOCC[NH2+]c1c2ccccc2[n+](C)c2cc(OC)c(OC)cc12 (optimized conformer: 76.96692811097616 kcal/mol)

>  <smiles>  (4) 
CCOCCNc1c2ccccc2[n+](C)c2cc(OC)c(OC)cc12

>  <score_type>  (4) 
oracle

>  <origin>  (4) 
adg

>  <m_score__min__energy>  (4) 
-7.0199999999999996

>  <m_primary>  (4) 
energy

$$$$
4:0
     RDKit          3D

 50 52  0  0  0  0  0  0  0  0999 V2000
   -4.5240   17.1960  -33.3380 C   0  0  0  0  0  0  0  0  0  0  0  0
   -4.3030   18.4130  -34.2270 C   0  0  0  0  0  0  0  0  0  0  0  0
   -4.6260   19.6410  -33.4980 N   0  0  0  0  0  0  0  0  0  0  0  0
   -3.8220   20.7130  -33.2720 C   0  0  0  0  0  0  0  0  0  0  0  0
   -2.1050   20.8190  -33.7910 S   0  0  0  0  0  0  0  0  0  0  0  0
   -1.4170   20.5470  -32.1190 C   0  0  0  0  0  0  0  0  0  0  0  0
   -1.1320   21.8700  -31.3990 C   0  0  0  0  0  0  0  0  0  0  0  0
   -2.3360   22.5990  -31.1580 O   0  0  0  0  0  0  0  0  0  0  0  0
   -2.8420   22.9540  -29.8960 C   0  0  0  0  0  0  0  0  0  0  0  0
   -2.3030   22.4480  -28.6970 C   0  0  0  0  0  0  0  0  0  0  0  0
   -2.8410   22.8300  -27.4650 C   0  0  0  0  0  0  0  0  0  0  0  0
   -3.9180   23.7150  -27.4160 C   0  0  0  0  0  0  0  0  0  0  0  0
   -4.4630   24.2200  -28.5980 C   0  0  0  0  0  0  0  0  0  0  0  0
   -3.9300   23.8420  -29.8460 C   0  0  0  0  0  0  0  0  0  0  0  0
   -4.4490   24.3290  -31.0560 O   0  0  0  0  0  0  0  0  0  0  0  0
   -5.7340   24.9240  -31.2010 C   0  0  0  0  0  0  0  0  0  0  0  0
   -4.4630   21.7250  -32.6420 N   0  0  0  0  0  0  0  0  0  0  0  0
   -5.7150   21.2680  -32.4730 C   0  0  0  0  0  0  0  0  0  0  0  0
   -6.7940   21.9240  -31.8940 C   0  0  0  0  0  0  0  0  0  0  0  0
   -8.0380   21.2530  -31.8510 C   0  0  0  0  0  0  0  0  0  0  0  0
   -9.2220   21.9450  -31.2310 C   0  0  0  0  0  0  0  0  0  0  0  0
   -8.1570   19.9400  -32.4080 C   0  0  0  0  0  0  0  0  0  0  0  0
   -9.4700   19.2030  -32.3850 C   0  0  0  0  0  0  0  0  0  0  0  0
   -7.0280   19.3150  -32.9880 C   0  0  0  0  0  0  0  0  0  0  0  0
   -5.8220   20.0130  -32.9950 C   0  0  0  0  0  0  0  0  0  0  0  0
   -4.4691   17.4986  -32.2819 H   0  0  0  0  0  0  0  0  0  0  0  0
   -5.5150   16.7658  -33.5451 H   0  0  0  0  0  0  0  0  0  0  0  0
   -3.7476   16.4448  -33.5451 H   0  0  0  0  0  0  0  0  0  0  0  0
   -3.2498   18.4450  -34.5429 H   0  0  0  0  0  0  0  0  0  0  0  0
   -4.9586   18.3367  -35.1070 H   0  0  0  0  0  0  0  0  0  0  0  0
   -2.1401   19.9675  -31.5263 H   0  0  0  0  0  0  0  0  0  0  0  0
   -0.4666   20.0033  -32.2244 H   0  0  0  0  0  0  0  0  0  0  0  0
   -0.6437   21.6564  -30.4368 H   0  0  0  0  0  0  0  0  0  0  0  0
   -0.4787   22.4804  -32.0397 H   0  0  0  0  0  0  0  0  0  0  0  0
   -1.4545   21.7488  -28.7305 H   0  0  0  0  0  0  0  0  0  0  0  0
   -2.4144   22.4321  -26.5324 H   0  0  0  0  0  0  0  0  0  0  0  0
   -4.3384   24.0154  -26.4449 H   0  0  0  0  0  0  0  0  0  0  0  0
   -5.3131   24.9167  -28.5546 H   0  0  0  0  0  0  0  0  0  0  0  0
   -6.1609   25.1216  -30.2067 H   0  0  0  0  0  0  0  0  0  0  0  0
   -5.6397   25.8701  -31.7542 H   0  0  0  0  0  0  0  0  0  0  0  0
   -6.3944   24.2401  -31.7542 H   0  0  0  0  0  0  0  0  0  0  0  0
   -4.0760   22.6560  -32.3660 H   0  0  0  0  0  0  0  0  0  0  0  0
   -6.6838   22.9373  -31.4804 H   0  0  0  0  0  0  0  0  0  0  0  0
   -9.1416   21.8980  -30.1349 H   0  0  0  0  0  0  0  0  0  0  0  0
   -9.2417   22.9968  -31.5525 H   0  0  0  0  0  0  0  0  0  0  0  0
  -10.1481   21.4460  -31.5525 H   0  0  0  0  0  0  0  0  0  0  0  0
   -9.7759   19.0313  -31.3424 H   0  0  0  0  0  0  0  0  0  0  0  0
  -10.2362   19.8029  -32.8979 H   0  0  0  0  0  0  0  0  0  0  0  0
   -9.3570   18.2365  -32.8979 H   0  0  0  0  0  0  0  0  0  0  0  0
   -7.1002   18.3065  -33.4212 H   0  0  0  0  0  0  0  0  0  0  0  0
  1  2  1  0
  2  3  1  0
  3  4  1  0
  4  5  1  0
  5  6  1  0
  6  7  1  0
  7  8  1  0
  8  9  1  0
  9 10  2  0
 10 11  1  0
 11 12  2  0
 12 13  1  0
 13 14  2  0
 14 15  1  0
 15 16  1  0
  4 17  2  0
 17 18  1  0
 18 19  2  0
 19 20  1  0
 20 21  1  0
 20 22  2  0
 22 23  1  0
 22 24  1  0
 24 25  2  0
 25  3  1  0
 14  9  1  0
 25 18  1  0
  1 26  1  0
  1 27  1  0
  1 28  1  0
  2 29  1  0
  2 30  1  0
  6 31  1  0
  6 32  1  0
  7 33  1  0
  7 34  1  0
 10 35  1  0
 11 36  1  0
 12 37  1  0
 13 38  1  0
 16 39  1  0
 16 40  1  0
 16 41  1  0
 17 42  1  0
 19 43  1  0
 21 44  1  0
 21 45  1  0
 21 46  1  0
 23 47  1  0
 23 48  1  0
 23 49  1  0
 24 50  1  0
M  CHG  1  17   1
M  END
>  <UniqueID>  (5) 
5

>  <SMILES>  (5) 
CCn1c(SCCOc2ccccc2OC)[nH+]c2cc(C)c(C)cc21

>  <Energy>  (5) 
81.27843518844031

>  <Genealogy>  (5) 
CCn1c(SCCOc2ccccc2OC)[nH+]c2cc(C)c(C)cc21 (protonated)
CCn1c(SCCOc2ccccc2OC)[nH+]c2cc(C)c(C)cc21 (3D coordinates assigned)
CCn1c(SCCOc2ccccc2OC)[nH+]c2cc(C)c(C)cc21 (optimized conformer: 81.27843518844031 kcal/mol)

>  <smiles>  (5) 
CCn1c(SCCOc2ccccc2OC)nc2cc(C)c(C)cc21

>  <score_type>  (5) 
oracle

>  <origin>  (5) 
adg

>  <m_score__min__energy>  (5) 
-9.2400000000000002

>  <m_primary>  (5) 
energy

$$$$
5:0
     RDKit          3D

 57 60  0  0  0  0  0  0  0  0999 V2000
   -0.6400   20.8060  -30.4040 C   0  0  0  0  0  0  0  0  0  0  0  0
   -1.9160   21.6020  -30.1610 C   0  0  0  0  0  0  0  0  0  0  0  0
   -1.5970   23.0390  -30.0170 N   0  0  0  0  0  0  0  0  0  0  0  0
   -0.5790   23.2430  -28.9710 C   0  0  0  0  0  0  0  0  0  0  0  0
   -2.8030   23.8380  -29.7170 C   0  0  0  0  0  0  0  0  0  0  0  0
   -3.9820   23.3920  -30.5880 C   0  0  0  0  0  0  0  0  0  0  0  0
   -4.5880   24.5290  -31.1630 O   0  0  0  0  0  0  0  0  0  0  0  0
   -5.9140   24.6580  -30.6940 C   0  0  0  0  0  0  0  0  0  0  0  0
   -6.7970   23.6080  -31.3800 C   0  0  0  0  0  0  0  0  0  0  0  0
   -6.2380   23.1640  -32.6720 N   0  0  0  0  0  0  0  0  0  0  0  0
   -6.0520   21.7260  -32.7100 C   0  0  0  0  0  0  0  0  0  0  0  0
   -7.1170   20.7990  -32.5200 C   0  0  0  0  0  0  0  0  0  0  0  0
   -8.4400   21.2390  -32.3090 C   0  0  0  0  0  0  0  0  0  0  0  0
   -9.4820   20.3250  -32.1680 C   0  0  0  0  0  0  0  0  0  0  0  0
   -9.2360   18.9620  -32.2530 C   0  0  0  0  0  0  0  0  0  0  0  0
   -7.9430   18.4920  -32.4490 C   0  0  0  0  0  0  0  0  0  0  0  0
   -6.8480   19.3840  -32.5500 C   0  0  0  0  0  0  0  0  0  0  0  0
   -5.5480   18.9210  -32.6940 N   0  0  0  0  0  0  0  0  0  0  0  0
   -5.1870   17.5140  -32.4530 C   0  0  0  0  0  0  0  0  0  0  0  0
   -4.5720   19.8340  -32.9940 C   0  0  0  0  0  0  0  0  0  0  0  0
   -4.7940   21.1920  -32.9720 C   0  0  0  0  0  0  0  0  0  0  0  0
   -3.6860   21.8600  -33.2260 O   0  0  0  0  0  0  0  0  0  0  0  0
   -2.7400   20.9720  -33.4350 C   0  0  0  0  0  0  0  0  0  0  0  0
   -1.4090   21.2290  -33.7550 C   0  0  0  0  0  0  0  0  0  0  0  0
   -0.5600   20.1360  -33.9820 C   0  0  0  0  0  0  0  0  0  0  0  0
   -1.0600   18.8200  -33.9020 C   0  0  0  0  0  0  0  0  0  0  0  0
   -2.4080   18.5810  -33.5780 C   0  0  0  0  0  0  0  0  0  0  0  0
   -3.2270   19.6830  -33.3160 C   0  0  0  0  0  0  0  0  0  0  0  0
   -0.1925   20.5269  -29.4387 H   0  0  0  0  0  0  0  0  0  0  0  0
   -0.8784   19.8962  -30.9744 H   0  0  0  0  0  0  0  0  0  0  0  0
    0.0723   21.4202  -30.9744 H   0  0  0  0  0  0  0  0  0  0  0  0
   -2.5989   21.4641  -31.0123 H   0  0  0  0  0  0  0  0  0  0  0  0
   -2.3939   21.2442  -29.2371 H   0  0  0  0  0  0  0  0  0  0  0  0
   -1.0474   23.1491  -27.9802 H   0  0  0  0  0  0  0  0  0  0  0  0
    0.2116   22.4854  -29.0761 H   0  0  0  0  0  0  0  0  0  0  0  0
   -0.1413   24.2467  -29.0761 H   0  0  0  0  0  0  0  0  0  0  0  0
   -3.0678   23.7073  -28.6574 H   0  0  0  0  0  0  0  0  0  0  0  0
   -2.5873   24.8954  -29.9303 H   0  0  0  0  0  0  0  0  0  0  0  0
   -3.6199   22.7252  -31.3845 H   0  0  0  0  0  0  0  0  0  0  0  0
   -4.7159   22.8536  -29.9703 H   0  0  0  0  0  0  0  0  0  0  0  0
   -5.9358   24.5023  -29.6053 H   0  0  0  0  0  0  0  0  0  0  0  0
   -6.2910   25.6652  -30.9250 H   0  0  0  0  0  0  0  0  0  0  0  0
   -6.8900   22.7357  -30.7163 H   0  0  0  0  0  0  0  0  0  0  0  0
   -7.7762   24.0687  -31.5774 H   0  0  0  0  0  0  0  0  0  0  0  0
   -6.8690   23.4570  -33.4510 H   0  0  0  0  0  0  0  0  0  0  0  0
   -5.3340   23.6580  -32.8550 H   0  0  0  0  0  0  0  0  0  0  0  0
   -8.6519   22.3170  -32.2551 H   0  0  0  0  0  0  0  0  0  0  0  0
  -10.5055   20.6859  -31.9883 H   0  0  0  0  0  0  0  0  0  0  0  0
  -10.0693   18.2494  -32.1647 H   0  0  0  0  0  0  0  0  0  0  0  0
   -7.7673   17.4089  -32.5270 H   0  0  0  0  0  0  0  0  0  0  0  0
   -5.1393   17.3281  -31.3699 H   0  0  0  0  0  0  0  0  0  0  0  0
   -5.9460   16.8582  -32.9045 H   0  0  0  0  0  0  0  0  0  0  0  0
   -4.2060   17.3046  -32.9045 H   0  0  0  0  0  0  0  0  0  0  0  0
   -1.0341   22.2606  -33.8277 H   0  0  0  0  0  0  0  0  0  0  0  0
    0.4997   20.3060  -34.2233 H   0  0  0  0  0  0  0  0  0  0  0  0
   -0.3884   17.9705  -34.0951 H   0  0  0  0  0  0  0  0  0  0  0  0
   -2.8060   17.5565  -33.5322 H   0  0  0  0  0  0  0  0  0  0  0  0
  1  2  1  0
  2  3  1  0
  3  4  1  0
  3  5  1  0
  5  6  1  0
  6  7  1  0
  7  8  1  0
  8  9  1  0
  9 10  1  0
 10 11  1  0
 11 12  2  0
 12 13  1  0
 13 14  2  0
 14 15  1  0
 15 16  2  0
 16 17  1  0
 17 18  2  0
 18 19  1  0
 18 20  1  0
 20 21  2  0
 21 22  1  0
 22 23  1  0
 23 24  2  0
 24 25  1  0
 25 26  2  0
 26 27  1  0
 27 28  2  0
 21 11  1  0
 28 23  1  0
 17 12  1  0
 28 20  1  0
  1 29  1  0
  1 30  1  0
  1 31  1  0
  2 32  1  0
  2 33  1  0
  4 34  1  0
  4 35  1  0
  4 36  1  0
  5 37  1  0
  5 38  1  0
  6 39  1  0
  6 40  1  0
  8 41  1  0
  8 42  1  0
  9 43  1  0
  9 44  1  0
 10 45  1  0
 10 46  1  0
 13 47  1  0
 14 48  1  0
 15 49  1  0
 16 50  1  0
 19 51  1  0
 19 52  1  0
 19 53  1  0
 24 54  1  0
 25 55  1  0
 26 56  1  0
 27 57  1  0
M  CHG  2  10   1  18   1
M  END
>  <UniqueID>  (6) 
6

>  <SMILES>  (6) 
CCN(C)CCOCC[NH2+]c1c2ccccc2[n+](C)c2c1oc1ccccc12

>  <Energy>  (6) 
115.81973047123877

>  <Genealogy>  (6) 
CCN(C)CCOCC[NH2+]c1c2ccccc2[n+](C)c2c1oc1ccccc12 (protonated)
CCN(C)CCOCC[NH2+]c1c2ccccc2[n+](C)c2c1oc1ccccc12 (3D coordinates assigned)
CCN(C)CCOCC[NH2+]c1c2ccccc2[n+](C)c2c1oc1ccccc12 (optimized conformer: 115.81973047123877 kcal/mol)

>  <smiles>  (6) 
CCN(C)CCOCCNc1c2ccccc2[n+](C)c2c1oc1ccccc12

>  <score_type>  (6) 
oracle

>  <origin>  (6) 
adg

>  <m_score__min__energy>  (6) 
-7.8499999999999996

>  <m_primary>  (6) 
energy

$$$$
6:0
     RDKit          3D

 66 69  0  0  0  0  0  0  0  0999 V2000
   -1.2240   19.5290  -33.1050 H   0  0  0  0  0  0  0  0  0  0  0  0
   -2.2140   19.2970  -33.3460 N   0  0  0  0  0  0  0  0  0  0  0  0
   -3.2440   20.2050  -32.9320 C   0  0  0  0  0  0  0  0  0  0  0  0
   -2.9460   21.7470  -32.3370 S   0  0  0  0  0  0  0  0  0  0  0  0
   -4.5820   22.0970  -32.1060 C   0  0  0  0  0  0  0  0  0  0  0  0
   -5.2310   23.2390  -31.5860 C   0  0  0  0  0  0  0  0  0  0  0  0
   -4.6340   24.3410  -31.2170 N   0  0  0  0  0  0  0  0  0  0  0  0
   -4.7100   25.0940  -29.9670 C   0  0  0  0  0  0  0  0  0  0  0  0
   -4.4030   26.1339  -30.1525 H   0  0  0  0  0  0  0  0  0  0  0  0
   -5.7454   25.0624  -29.5971 H   0  0  0  0  0  0  0  0  0  0  0  0
   -3.7880   24.4780  -28.9070 C   0  0  0  0  0  0  0  0  0  0  0  0
   -3.9925   24.9471  -27.9333 H   0  0  0  0  0  0  0  0  0  0  0  0
   -3.9796   23.3960  -28.8557 H   0  0  0  0  0  0  0  0  0  0  0  0
   -2.3670   24.6950  -29.2630 N   0  0  0  0  0  0  0  0  0  0  0  0
   -1.7010   23.4520  -29.7030 C   0  0  0  0  0  0  0  0  0  0  0  0
   -2.3725   22.9077  -30.3833 H   0  0  0  0  0  0  0  0  0  0  0  0
   -0.7646   23.7228  -30.2127 H   0  0  0  0  0  0  0  0  0  0  0  0
   -1.3580   22.5480  -28.5110 C   0  0  0  0  0  0  0  0  0  0  0  0
   -2.2867   22.2556  -27.9991 H   0  0  0  0  0  0  0  0  0  0  0  0
   -0.8322   21.6553  -28.8806 H   0  0  0  0  0  0  0  0  0  0  0  0
   -0.5190   23.2290  -27.6000 O   0  0  0  0  0  0  0  0  0  0  0  0
   -1.2050   24.3450  -27.0690 C   0  0  0  0  0  0  0  0  0  0  0  0
   -2.1188   23.9981  -26.5643 H   0  0  0  0  0  0  0  0  0  0  0  0
   -0.5407   24.8571  -26.3573 H   0  0  0  0  0  0  0  0  0  0  0  0
   -1.5910   25.3400  -28.1810 C   0  0  0  0  0  0  0  0  0  0  0  0
   -2.1980   26.1450  -27.7411 H   0  0  0  0  0  0  0  0  0  0  0  0
   -0.6621   25.7333  -28.6197 H   0  0  0  0  0  0  0  0  0  0  0  0
   -6.5850   23.1850  -31.4590 N   0  0  0  0  0  0  0  0  0  0  0  0
   -7.3370   22.1040  -31.8140 C   0  0  0  0  0  0  0  0  0  0  0  0
   -6.7180   20.9650  -32.3850 C   0  0  0  0  0  0  0  0  0  0  0  0
   -5.3150   20.9740  -32.4950 C   0  0  0  0  0  0  0  0  0  0  0  0
   -4.5680   19.9260  -32.9490 N   0  0  0  0  0  0  0  0  0  0  0  0
   -4.9630   19.0100  -33.2530 H   0  0  0  0  0  0  0  0  0  0  0  0
   -7.5190   19.7350  -32.7610 C   0  0  0  0  0  0  0  0  0  0  0  0
   -7.3506   18.9610  -31.9978 H   0  0  0  0  0  0  0  0  0  0  0  0
   -7.1782   19.4137  -33.7563 H   0  0  0  0  0  0  0  0  0  0  0  0
   -9.0260   20.0040  -32.8590 C   0  0  0  0  0  0  0  0  0  0  0  0
   -9.5636   19.0445  -32.8761 H   0  0  0  0  0  0  0  0  0  0  0  0
   -9.2248   20.5697  -33.7812 H   0  0  0  0  0  0  0  0  0  0  0  0
   -9.5070   20.8270  -31.6650 C   0  0  0  0  0  0  0  0  0  0  0  0
   -9.2544   20.2989  -30.7337 H   0  0  0  0  0  0  0  0  0  0  0  0
  -10.5965   20.9610  -31.7356 H   0  0  0  0  0  0  0  0  0  0  0  0
   -8.8330   22.1990  -31.6670 C   0  0  0  0  0  0  0  0  0  0  0  0
   -9.0632   22.7070  -30.7188 H   0  0  0  0  0  0  0  0  0  0  0  0
   -9.2196   22.7612  -32.5299 H   0  0  0  0  0  0  0  0  0  0  0  0
   -2.4760   18.0620  -34.0820 C   0  0  0  0  0  0  0  0  0  0  0  0
   -1.5225   17.6368  -34.4286 H   0  0  0  0  0  0  0  0  0  0  0  0
   -3.1224   18.2885  -34.9427 H   0  0  0  0  0  0  0  0  0  0  0  0
   -3.1900   17.0380  -33.1730 C   0  0  0  0  0  0  0  0  0  0  0  0
   -2.8885   17.2332  -32.1333 H   0  0  0  0  0  0  0  0  0  0  0  0
   -2.8894   16.0416  -33.5293 H   0  0  0  0  0  0  0  0  0  0  0  0
   -4.6710   17.0800  -33.2410 N   0  0  0  0  0  0  0  0  0  0  0  0
   -5.3730   16.3820  -32.1410 C   0  0  0  0  0  0  0  0  0  0  0  0
   -4.6362   15.8249  -31.5438 H   0  0  0  0  0  0  0  0  0  0  0  0
   -6.1151   15.7010  -32.5832 H   0  0  0  0  0  0  0  0  0  0  0  0
   -6.1080   17.3650  -31.2310 C   0  0  0  0  0  0  0  0  0  0  0  0
   -5.9145   17.1062  -30.1795 H   0  0  0  0  0  0  0  0  0  0  0  0
   -5.7500   18.3861  -31.4292 H   0  0  0  0  0  0  0  0  0  0  0  0
   -7.1886   17.3104  -31.4292 H   0  0  0  0  0  0  0  0  0  0  0  0
   -5.2390   16.8880  -34.5970 C   0  0  0  0  0  0  0  0  0  0  0  0
   -4.4613   16.4447  -35.2363 H   0  0  0  0  0  0  0  0  0  0  0  0
   -6.1191   16.2386  -34.4799 H   0  0  0  0  0  0  0  0  0  0  0  0
   -5.7310   18.1750  -35.2640 C   0  0  0  0  0  0  0  0  0  0  0  0
   -6.0102   18.9054  -34.4903 H   0  0  0  0  0  0  0  0  0  0  0  0
   -4.9292   18.5929  -35.8905 H   0  0  0  0  0  0  0  0  0  0  0  0
   -6.6071   17.9515  -35.8905 H   0  0  0  0  0  0  0  0  0  0  0  0
  1  2  1  0
  2  3  1  0
  3  4  1  0
  4  5  1  0
  5  6  1  0
  6  7  2  0
  7  8  1  0
  8  9  1  0
  8 10  1  0
  8 11  1  0
 11 12  1  0
 11 13  1  0
 11 14  1  0
 14 15  1  0
 15 16  1  0
 15 17  1  0
 15 18  1  0
 18 19  1  0
 18 20  1  0
 18 21  1  0
 21 22  1  0
 22 23  1  0
 22 24  1  0
 22 25  1  0
 25 26  1  0
 25 27  1  0
  6 28  1  0
 28 29  1  0
 29 30  2  0
 30 31  1  0
 31 32  1  0
 32 33  1  0
 30 34  1  0
 34 35  1  0
 34 36  1  0
 34 37  1  0
 37 38  1  0
 37 39  1  0
 37 40  1  0
 40 41  1  0
 40 42  1  0
 40 43  1  0
 43 44  1  0
 43 45  1  0
  2 46  1  0
 46 47  1  0
 46 48  1  0
 46 49  1  0
 49 50  1  0
 49 51  1  0
 49 52  1  0
 52 53  1  0
 53 54  1  0
 53 55  1  0
 53 56  1  0
 56 57  1  0
 56 58  1  0
 56 59  1  0
 52 60  1  0
 60 61  1  0
 60 62  1  0
 60 63  1  0
 63 64  1  0
 63 65  1  0
 63 66  1  0
 32  3  2  0
 31  5  2  0
 25 14  1  0
 43 29  1  0
M  CHG  2  28  -1  32   1
M  END
>  <UniqueID>  (7) 
7

>  <SMILES>  (7) 
CCN(CC)CCNc1[nH+]c2c3c([n-]/c(=N/CCN4CCOCC4)c2s1)CCCC3

>  <Energy>  (7) 
115.06163108305269

>  <Genealogy>  (7) 
CCN(CC)CCNc1[nH+]c2c3c([n-]c(=NCCN4CCOCC4)c2s1)CCCC3 (protonated)
CCN(CC)CCNc1[nH+]c2c3c([n-]/c(=N/CCN4CCOCC4)c2s1)CCCC3 (cis-trans isomerization)
CCN(CC)CCNc1[nH+]c2c3c([n-]/c(=N/CCN4CCOCC4)c2s1)CCCC3 (3D coordinates assigned)
CCN(CC)CCNc1[nH+]c2c3c([n-]/c(=N/CCN4CCOCC4)c2s1)CCCC3 (nonaromatic ring conformer: 115.06163108305269 kcal/mol)

>  <smiles>  (7) 
CCN(CC)CCNc1nc2c3c([nH]c(=NCCN4CCOCC4)c2s1)CCCC3

>  <score_type>  (7) 
oracle

>  <origin>  (7) 
adg

>  <m_score__min__energy>  (7) 
-9.6799999999999997

>  <m_primary>  (7) 
energy

$$$$
7:0
     RDKit          3D

 40 42  0  0  0  0  0  0  0  0999 V2000
   -7.1470   23.0500  -29.8590 C   0  0  0  0  0  0  0  0  0  0  0  0
   -6.5570   23.3130  -31.1790 N   0  0  0  0  0  0  0  0  0  0  0  0
   -6.1250   24.7210  -31.3200 C   0  0  0  0  0  0  0  0  0  0  0  0
   -5.2550   25.1510  -30.1350 C   0  0  0  0  0  0  0  0  0  0  0  0
   -3.8680   25.0780  -30.4730 O   0  0  0  0  0  0  0  0  0  0  0  0
   -2.9770   24.0680  -30.0750 C   0  0  0  0  0  0  0  0  0  0  0  0
   -2.1280   24.1880  -28.9500 C   0  0  0  0  0  0  0  0  0  0  0  0
   -1.2470   23.1470  -28.5990 C   0  0  0  0  0  0  0  0  0  0  0  0
   -1.2050   21.9680  -29.3550 C   0  0  0  0  0  0  0  0  0  0  0  0
   -2.0540   21.8600  -30.4520 C   0  0  0  0  0  0  0  0  0  0  0  0
   -2.2130   20.5760  -31.5200 S   0  0  0  0  0  0  0  0  0  0  0  0
   -3.4060   21.3080  -32.4660 C   0  0  0  0  0  0  0  0  0  0  0  0
   -3.6890   22.5700  -31.9480 C   0  0  0  0  0  0  0  0  0  0  0  0
   -2.9280   22.8760  -30.8120 C   0  0  0  0  0  0  0  0  0  0  0  0
   -7.4020   22.8280  -32.2980 C   0  0  0  0  0  0  0  0  0  0  0  0
   -7.6300   21.3290  -32.3040 C   0  0  0  0  0  0  0  0  0  0  0  0
   -8.8710   20.7960  -31.9120 C   0  0  0  0  0  0  0  0  0  0  0  0
   -9.0840   19.4140  -31.9300 C   0  0  0  0  0  0  0  0  0  0  0  0
   -8.0670   18.5540  -32.3500 C   0  0  0  0  0  0  0  0  0  0  0  0
   -6.8370   19.0750  -32.7610 C   0  0  0  0  0  0  0  0  0  0  0  0
   -6.6190   20.4550  -32.7450 C   0  0  0  0  0  0  0  0  0  0  0  0
   -6.4434   23.3636  -29.0738 H   0  0  0  0  0  0  0  0  0  0  0  0
   -8.0853   23.6151  -29.7576 H   0  0  0  0  0  0  0  0  0  0  0  0
   -7.3539   21.9744  -29.7576 H   0  0  0  0  0  0  0  0  0  0  0  0
   -5.5455   24.8279  -32.2489 H   0  0  0  0  0  0  0  0  0  0  0  0
   -7.0197   25.3604  -31.3474 H   0  0  0  0  0  0  0  0  0  0  0  0
   -5.5056   26.1862  -29.8601 H   0  0  0  0  0  0  0  0  0  0  0  0
   -5.4490   24.4738  -29.2901 H   0  0  0  0  0  0  0  0  0  0  0  0
   -2.1563   25.1046  -28.3426 H   0  0  0  0  0  0  0  0  0  0  0  0
   -0.5876   23.2601  -27.7258 H   0  0  0  0  0  0  0  0  0  0  0  0
   -0.5195   21.1501  -29.0885 H   0  0  0  0  0  0  0  0  0  0  0  0
   -3.8832   20.8597  -33.3499 H   0  0  0  0  0  0  0  0  0  0  0  0
   -4.4315   23.2540  -32.3848 H   0  0  0  0  0  0  0  0  0  0  0  0
   -8.3810   23.3250  -32.2308 H   0  0  0  0  0  0  0  0  0  0  0  0
   -6.8632   23.0682  -33.2264 H   0  0  0  0  0  0  0  0  0  0  0  0
   -9.6785   21.4698  -31.5895 H   0  0  0  0  0  0  0  0  0  0  0  0
  -10.0541   19.0037  -31.6129 H   0  0  0  0  0  0  0  0  0  0  0  0
   -8.2340   17.4668  -32.3573 H   0  0  0  0  0  0  0  0  0  0  0  0
   -6.0388   18.3972  -33.0978 H   0  0  0  0  0  0  0  0  0  0  0  0
   -5.6524   20.8603  -33.0787 H   0  0  0  0  0  0  0  0  0  0  0  0
  1  2  1  0
  2  3  1  0
  3  4  1  0
  4  5  1  0
  5  6  1  0
  6  7  2  0
  7  8  1  0
  8  9  2  0
  9 10  1  0
 10 11  1  0
 11 12  1  0
 12 13  2  0
 13 14  1  0
  2 15  1  0
 15 16  1  0
 16 17  2  0
 17 18  1  0
 18 19  2  0
 19 20  1  0
 20 21  2  0
 14  6  1  0
 21 16  1  0
 14 10  2  0
  1 22  1  0
  1 23  1  0
  1 24  1  0
  3 25  1  0
  3 26  1  0
  4 27  1  0
  4 28  1  0
  7 29  1  0
  8 30  1  0
  9 31  1  0
 12 32  1  0
 13 33  1  0
 15 34  1  0
 15 35  1  0
 17 36  1  0
 18 37  1  0
 19 38  1  0
 20 39  1  0
 21 40  1  0
M  END
>  <UniqueID>  (8) 
8

>  <SMILES>  (8) 
CN(CCOc1cccc2sccc12)Cc1ccccc1

>  <Energy>  (8) 
76.77275230109797

>  <Genealogy>  (8) 
CN(CCOc1cccc2sccc12)Cc1ccccc1 (3D coordinates assigned)
CN(CCOc1cccc2sccc12)Cc1ccccc1 (optimized conformer: 76.77275230109797 kcal/mol)

>  <smiles>  (8) 
CN(CCOc1cccc2sccc12)Cc1ccccc1

>  <score_type>  (8) 
oracle

>  <origin>  (8) 
adg

>  <m_score__min__energy>  (8) 
-7.8300000000000001

>  <m_primary>  (8) 
energy

$$$$
8:0
     RDKit          3D

 25 25  0  0  0  0  0  0  0  0999 V2000
   -2.0390   25.4510  -26.5540 C   0  0  0  0  0  0  0  0  0  0  0  0
   -1.2270   25.8920  -27.7660 C   0  0  0  0  0  0  0  0  0  0  0  0
   -1.9540   25.6630  -28.9710 O   0  0  0  0  0  0  0  0  0  0  0  0
   -2.5310   24.4330  -29.3000 C   0  0  0  0  0  0  0  0  0  0  0  0
   -1.8370   23.5140  -29.8170 O   0  0  0  0  0  0  0  0  0  0  0  0
   -3.9180   24.2240  -29.0370 N   0  0  0  0  0  0  0  0  0  0  0  0
   -5.1610   24.8030  -30.0920 S   0  0  0  0  0  0  0  0  0  0  0  0
   -4.5430   25.6280  -31.1870 O   0  0  0  0  0  0  0  0  0  0  0  0
   -6.1080   25.6720  -29.3140 O   0  0  0  0  0  0  0  0  0  0  0  0
   -6.0520   23.4400  -30.7640 C   0  0  0  0  0  0  0  0  0  0  0  0
   -5.5330   22.7470  -31.8660 C   0  0  0  0  0  0  0  0  0  0  0  0
   -6.2380   21.6740  -32.4170 C   0  0  0  0  0  0  0  0  0  0  0  0
   -7.4670   21.2880  -31.8710 C   0  0  0  0  0  0  0  0  0  0  0  0
   -8.3520   19.9410  -32.5630 Cl  0  0  0  0  0  0  0  0  0  0  0  0
   -7.9900   21.9800  -30.7740 C   0  0  0  0  0  0  0  0  0  0  0  0
   -7.2870   23.0550  -30.2220 C   0  0  0  0  0  0  0  0  0  0  0  0
   -1.5096   25.7385  -25.6336 H   0  0  0  0  0  0  0  0  0  0  0  0
   -3.0254   25.9374  -26.5768 H   0  0  0  0  0  0  0  0  0  0  0  0
   -2.1681   24.3588  -26.5768 H   0  0  0  0  0  0  0  0  0  0  0  0
   -1.0019   26.9652  -27.6786 H   0  0  0  0  0  0  0  0  0  0  0  0
   -0.2955   25.3078  -27.7988 H   0  0  0  0  0  0  0  0  0  0  0  0
   -4.5676   23.0488  -32.2985 H   0  0  0  0  0  0  0  0  0  0  0  0
   -5.8263   21.1320  -33.2811 H   0  0  0  0  0  0  0  0  0  0  0  0
   -8.9566   21.6778  -30.3445 H   0  0  0  0  0  0  0  0  0  0  0  0
   -7.7030   23.5996  -29.3615 H   0  0  0  0  0  0  0  0  0  0  0  0
  1  2  1  0
  2  3  1  0
  3  4  1  0
  4  5  2  0
  4  6  1  0
  6  7  1  0
  7  8  2  0
  7  9  2  0
  7 10  1  0
 10 11  2  0
 11 12  1  0
 12 13  2  0
 13 14  1  0
 13 15  1  0
 15 16  2  0
 16 10  1  0
  1 17  1  0
  1 18  1  0
  1 19  1  0
  2 20  1  0
  2 21  1  0
 11 22  1  0
 12 23  1  0
 15 24  1  0
 16 25  1  0
M  CHG  1   6  -1
M  END
>  <UniqueID>  (9) 
9

>  <SMILES>  (9) 
CCOC(=O)[N-]S(=O)(=O)c1ccc(Cl)cc1

>  <Energy>  (9) 
21.038697878641944

>  <Genealogy>  (9) 
CCOC(=O)[N-]S(=O)(=O)c1ccc(Cl)cc1 (protonated)
CCOC(=O)[N-]S(=O)(=O)c1ccc(Cl)cc1 (3D coordinates assigned)
CCOC(=O)[N-]S(=O)(=O)c1ccc(Cl)cc1 (optimized conformer: 21.038697878641944 kcal/mol)

>  <smiles>  (9) 
CCOC(=O)NS(=O)(=O)c1ccc(Cl)cc1

>  <score_type>  (9) 
oracle

>  <origin>  (9) 
adg

>  <m_score__min__energy>  (9) 
-8.0199999999999996

>  <m_primary>  (9) 
energy

$$$$
9:0
     RDKit          3D

 57 60  0  0  0  0  0  0  0  0999 V2000
   -4.2620   14.3390  -32.0810 C   0  0  0  0  0  0  0  0  0  0  0  0
   -2.9360   14.1920  -32.8350 C   0  0  0  0  0  0  0  0  0  0  0  0
   -2.2840   15.4940  -33.0800 N   0  0  0  0  0  0  0  0  0  0  0  0
   -2.0110   15.7470  -34.5080 C   0  0  0  0  0  0  0  0  0  0  0  0
   -2.5630   17.1050  -34.9720 C   0  0  0  0  0  0  0  0  0  0  0  0
   -3.1230   17.8210  -33.8720 O   0  0  0  0  0  0  0  0  0  0  0  0
   -4.4960   17.9740  -33.6150 C   0  0  0  0  0  0  0  0  0  0  0  0
   -5.4360   16.9590  -33.8740 C   0  0  0  0  0  0  0  0  0  0  0  0
   -6.7850   17.1580  -33.5780 C   0  0  0  0  0  0  0  0  0  0  0  0
   -7.2170   18.3680  -33.0220 C   0  0  0  0  0  0  0  0  0  0  0  0
   -6.2990   19.4120  -32.8020 C   0  0  0  0  0  0  0  0  0  0  0  0
   -4.9350   19.1920  -33.0820 C   0  0  0  0  0  0  0  0  0  0  0  0
   -6.8090   20.6970  -32.2360 C   0  0  0  0  0  0  0  0  0  0  0  0
   -6.0740   21.8900  -32.3610 C   0  0  0  0  0  0  0  0  0  0  0  0
   -6.5840   23.0610  -31.8160 C   0  0  0  0  0  0  0  0  0  0  0  0
   -5.8530   24.2500  -31.9330 O   0  0  0  0  0  0  0  0  0  0  0  0
   -5.7900   25.2500  -30.9170 C   0  0  0  0  0  0  0  0  0  0  0  0
   -4.7960   24.8480  -29.8180 C   0  0  1  0  0  0  0  0  0  0  0  0
   -5.1780   23.4840  -29.1820 C   0  0  0  0  0  0  0  0  0  0  0  0
   -4.0470   22.6580  -28.9680 O   0  0  0  0  0  0  0  0  0  0  0  0
   -3.0080   23.4090  -28.3750 C   0  0  0  0  0  0  0  0  0  0  0  0
   -2.5550   24.5390  -29.3220 C   0  0  0  0  0  0  0  0  0  0  0  0
   -3.4910   24.7750  -30.3580 O   0  0  0  0  0  0  0  0  0  0  0  0
   -7.7840   23.0380  -31.1840 N   0  0  0  0  0  0  0  0  0  0  0  0
   -8.5080   21.8970  -31.0790 C   0  0  0  0  0  0  0  0  0  0  0  0
   -9.6100   21.9320  -30.4660 O   0  0  0  0  0  0  0  0  0  0  0  0
   -8.0460   20.7270  -31.6290 N   0  0  0  0  0  0  0  0  0  0  0  0
   -8.8250   19.4810  -31.4850 C   0  0  0  0  0  0  0  0  0  0  0  0
   -8.6720   18.5860  -32.7170 C   0  0  0  0  0  0  0  0  0  0  0  0
   -4.0721   14.3179  -30.9977 H   0  0  0  0  0  0  0  0  0  0  0  0
   -4.7339   15.2950  -32.3520 H   0  0  0  0  0  0  0  0  0  0  0  0
   -4.9318   13.5096  -32.3520 H   0  0  0  0  0  0  0  0  0  0  0  0
   -2.2580   13.5633  -32.2392 H   0  0  0  0  0  0  0  0  0  0  0  0
   -3.1529   13.7349  -33.8117 H   0  0  0  0  0  0  0  0  0  0  0  0
   -1.3880   15.5310  -32.5400 H   0  0  0  0  0  0  0  0  0  0  0  0
   -2.8890   16.2640  -32.7090 H   0  0  0  0  0  0  0  0  0  0  0  0
   -0.9229   15.7330  -34.6687 H   0  0  0  0  0  0  0  0  0  0  0  0
   -2.5116   14.9610  -35.0924 H   0  0  0  0  0  0  0  0  0  0  0  0
   -1.7460   17.6968  -35.4104 H   0  0  0  0  0  0  0  0  0  0  0  0
   -3.3504   16.9312  -35.7202 H   0  0  0  0  0  0  0  0  0  0  0  0
   -5.1060   16.0052  -34.3114 H   0  0  0  0  0  0  0  0  0  0  0  0
   -7.5133   16.3594  -33.7827 H   0  0  0  0  0  0  0  0  0  0  0  0
   -4.2047   19.9891  -32.8787 H   0  0  0  0  0  0  0  0  0  0  0  0
   -5.1065   21.8952  -32.8844 H   0  0  0  0  0  0  0  0  0  0  0  0
   -5.4663   26.2006  -31.3660 H   0  0  0  0  0  0  0  0  0  0  0  0
   -6.7879   25.3595  -30.4673 H   0  0  0  0  0  0  0  0  0  0  0  0
   -4.8297   25.6140  -29.0293 H   0  0  0  0  0  0  0  0  0  0  0  0
   -5.6695   23.6690  -28.2155 H   0  0  0  0  0  0  0  0  0  0  0  0
   -5.8500   22.9625  -29.8795 H   0  0  0  0  0  0  0  0  0  0  0  0
   -3.3697   23.8480  -27.4335 H   0  0  0  0  0  0  0  0  0  0  0  0
   -2.1541   22.7441  -28.1779 H   0  0  0  0  0  0  0  0  0  0  0  0
   -2.4323   25.4630  -28.7379 H   0  0  0  0  0  0  0  0  0  0  0  0
   -1.6068   24.2308  -29.7868 H   0  0  0  0  0  0  0  0  0  0  0  0
   -8.4684   18.9355  -30.5989 H   0  0  0  0  0  0  0  0  0  0  0  0
   -9.8873   19.7454  -31.3768 H   0  0  0  0  0  0  0  0  0  0  0  0
   -9.1520   17.6155  -32.5230 H   0  0  0  0  0  0  0  0  0  0  0  0
   -9.1500   19.0757  -33.5782 H   0  0  0  0  0  0  0  0  0  0  0  0
  1  2  1  0
  2  3  1  0
  3  4  1  0
  4  5  1  0
  5  6  1  0
  6  7  1  0
  7  8  2  0
  8  9  1  0
  9 10  2  0
 10 11  1  0
 11 12  2  0
 11 13  1  0
 13 14  2  0
 14 15  1  0
 15 16  1  0
 16 17  1  0
 17 18  1  0
 18 19  1  0
 19 20  1  0
 20 21  1  0
 21 22  1  0
 22 23  1  0
 15 24  2  0
 24 25  1  0
 25 26  2  0
 25 27  1  0
 27 28  1  0
 28 29  1  0
 12  7  1  0
 27 13  1  0
 29 10  1  0
 23 18  1  0
  1 30  1  0
  1 31  1  0
  1 32  1  0
  2 33  1  0
  2 34  1  0
  3 35  1  0
  3 36  1  0
  4 37  1  0
  4 38  1  0
  5 39  1  0
  5 40  1  0
  8 41  1  0
  9 42  1  0
 12 43  1  0
 14 44  1  0
 17 45  1  0
 17 46  1  0
 18 47  1  1
 19 48  1  0
 19 49  1  0
 21 50  1  0
 21 51  1  0
 22 52  1  0
 22 53  1  0
 28 54  1  0
 28 55  1  0
 29 56  1  0
 29 57  1  0
M  CHG  1   3   1
M  END
>  <UniqueID>  (10) 
10

>  <SMILES>  (10) 
CC[NH2+]CCOc1ccc2c(c1)-c1cc(OC[C@H]3COCCO3)nc(=O)n1CC2

>  <Energy>  (10) 
74.29563681413697

>  <Genealogy>  (10) 
CC[NH2+]CCOc1ccc2c(c1)-c1cc(OCC3COCCO3)nc(=O)n1CC2 (protonated)
CC[NH2+]CCOc1ccc2c(c1)-c1cc(OC[C@H]3COCCO3)nc(=O)n1CC2 (chirality)
CC[NH2+]CCOc1ccc2c(c1)-c1cc(OC[C@H]3COCCO3)nc(=O)n1CC2 (3D coordinates assigned)
CC[NH2+]CCOc1ccc2c(c1)-c1cc(OC[C@H]3COCCO3)nc(=O)n1CC2 (nonaromatic ring conformer: 74.29563681413697 kcal/mol)

>  <smiles>  (10) 
CCNCCOc1ccc2c(c1)-c1cc(OCC3COCCO3)nc(=O)n1CC2

>  <score_type>  (10) 
oracle

>  <origin>  (10) 
adg

>  <m_score__min__energy>  (10) 
-7.8499999999999996

>  <m_primary>  (10) 
energy

$$$$
10:0
     RDKit          3D

 73 76  0  0  0  0  0  0  0  0999 V2000
    0.1310   18.9610  -30.7800 C   0  0  0  0  0  0  0  0  0  0  0  0
    0.7770   18.5020  -29.4760 C   0  0  0  0  0  0  0  0  0  0  0  0
    0.3670   19.3310  -28.3880 O   0  0  0  0  0  0  0  0  0  0  0  0
   -0.8800   19.2860  -27.7410 C   0  0  0  0  0  0  0  0  0  0  0  0
   -1.1950   18.2980  -26.7860 C   0  0  0  0  0  0  0  0  0  0  0  0
   -2.4380   18.2990  -26.1490 C   0  0  0  0  0  0  0  0  0  0  0  0
   -3.3800   19.2810  -26.4560 C   0  0  0  0  0  0  0  0  0  0  0  0
   -3.0860   20.2600  -27.4050 C   0  0  0  0  0  0  0  0  0  0  0  0
   -1.8420   20.2690  -28.0560 C   0  0  0  0  0  0  0  0  0  0  0  0
   -1.5680   21.2740  -29.0480 N   0  0  0  0  0  0  0  0  0  0  0  0
   -2.3710   21.3360  -30.2750 C   0  0  0  0  0  0  0  0  0  0  0  0
   -2.3320   22.7510  -30.8740 C   0  0  0  0  0  0  0  0  0  0  0  0
   -2.4120   23.7850  -29.8210 N   0  0  0  0  0  0  0  0  0  0  0  0
   -3.7310   23.7930  -29.1440 C   0  0  0  0  0  0  0  0  0  0  0  0
   -4.6110   24.9240  -29.7010 C   0  0  1  0  0  0  0  0  0  0  0  0
   -3.9050   25.6130  -30.7010 O   0  0  0  0  0  0  0  0  0  0  0  0
   -5.9260   24.3760  -30.2730 C   0  0  0  0  0  0  0  0  0  0  0  0
   -5.6750   23.6300  -31.4630 O   0  0  0  0  0  0  0  0  0  0  0  0
   -6.1840   22.3480  -31.7190 C   0  0  0  0  0  0  0  0  0  0  0  0
   -7.5230   22.1260  -32.0930 C   0  0  0  0  0  0  0  0  0  0  0  0
   -7.9750   20.8310  -32.3600 C   0  0  0  0  0  0  0  0  0  0  0  0
   -7.1100   19.7320  -32.2300 C   0  0  0  0  0  0  0  0  0  0  0  0
   -7.5860   18.3250  -32.5470 C   0  0  0  0  0  0  0  0  0  0  0  0
   -6.7280   17.5800  -33.5050 N   0  0  0  0  0  0  0  0  0  0  0  0
   -5.7610   16.6570  -32.8400 C   0  0  0  0  0  0  0  0  0  0  0  0
   -4.3130   17.1690  -32.8920 C   0  0  0  0  0  0  0  0  0  0  0  0
   -3.8480   17.3590  -34.3460 C   0  0  0  0  0  0  0  0  0  0  0  0
   -4.9970   17.7540  -35.2930 C   0  0  0  0  0  0  0  0  0  0  0  0
   -6.1160   18.4700  -34.5290 C   0  0  0  0  0  0  0  0  0  0  0  0
   -5.7720   19.9600  -31.8650 C   0  0  0  0  0  0  0  0  0  0  0  0
   -5.3170   21.2570  -31.6090 C   0  0  0  0  0  0  0  0  0  0  0  0
   -1.2750   23.7190  -28.8610 C   0  0  0  0  0  0  0  0  0  0  0  0
   -0.5960   22.3380  -28.7850 C   0  0  0  0  0  0  0  0  0  0  0  0
   -0.7467   19.5846  -30.5547 H   0  0  0  0  0  0  0  0  0  0  0  0
    0.8572   19.5468  -31.3626 H   0  0  0  0  0  0  0  0  0  0  0  0
   -0.1832   18.0825  -31.3626 H   0  0  0  0  0  0  0  0  0  0  0  0
    0.4775   17.4636  -29.2711 H   0  0  0  0  0  0  0  0  0  0  0  0
    1.8698   18.5717  -29.5802 H   0  0  0  0  0  0  0  0  0  0  0  0
   -0.4564   17.5206  -26.5407 H   0  0  0  0  0  0  0  0  0  0  0  0
   -2.6744   17.5246  -25.4044 H   0  0  0  0  0  0  0  0  0  0  0  0
   -4.3561   19.2833  -25.9489 H   0  0  0  0  0  0  0  0  0  0  0  0
   -3.8338   21.0302  -27.6450 H   0  0  0  0  0  0  0  0  0  0  0  0
   -1.9677   20.6216  -31.0078 H   0  0  0  0  0  0  0  0  0  0  0  0
   -3.4131   21.0820  -30.0310 H   0  0  0  0  0  0  0  0  0  0  0  0
   -1.3914   22.8784  -31.4299 H   0  0  0  0  0  0  0  0  0  0  0  0
   -3.1988   22.8685  -31.5410 H   0  0  0  0  0  0  0  0  0  0  0  0
   -4.2311   22.8279  -29.3126 H   0  0  0  0  0  0  0  0  0  0  0  0
   -3.5788   23.9561  -28.0668 H   0  0  0  0  0  0  0  0  0  0  0  0
   -4.8599   25.6101  -28.8780 H   0  0  0  0  0  0  0  0  0  0  0  0
   -3.5040   24.9280  -31.2960 H   0  0  0  0  0  0  0  0  0  0  0  0
   -6.4011   23.7213  -29.5276 H   0  0  0  0  0  0  0  0  0  0  0  0
   -6.5911   25.2188  -30.5124 H   0  0  0  0  0  0  0  0  0  0  0  0
   -8.2165   22.9758  -32.1754 H   0  0  0  0  0  0  0  0  0  0  0  0
   -9.0168   20.6709  -32.6746 H   0  0  0  0  0  0  0  0  0  0  0  0
   -7.6234   17.7559  -31.6064 H   0  0  0  0  0  0  0  0  0  0  0  0
   -8.5695   18.4309  -33.0283 H   0  0  0  0  0  0  0  0  0  0  0  0
   -7.3920   16.9620  -34.0320 H   0  0  0  0  0  0  0  0  0  0  0  0
   -6.0546   16.5409  -31.7863 H   0  0  0  0  0  0  0  0  0  0  0  0
   -5.7924   15.7001  -33.3816 H   0  0  0  0  0  0  0  0  0  0  0  0
   -4.2532   18.1333  -32.3662 H   0  0  0  0  0  0  0  0  0  0  0  0
   -3.6608   16.4262  -32.4094 H   0  0  0  0  0  0  0  0  0  0  0  0
   -3.0845   18.1505  -34.3703 H   0  0  0  0  0  0  0  0  0  0  0  0
   -3.4478   16.3955  -34.6945 H   0  0  0  0  0  0  0  0  0  0  0  0
   -4.6066   18.4253  -36.0720 H   0  0  0  0  0  0  0  0  0  0  0  0
   -5.4098   16.8396  -35.7441 H   0  0  0  0  0  0  0  0  0  0  0  0
   -5.6982   19.3565  -34.0294 H   0  0  0  0  0  0  0  0  0  0  0  0
   -6.8966   18.7596  -35.2479 H   0  0  0  0  0  0  0  0  0  0  0  0
   -5.0773   19.1113  -31.7801 H   0  0  0  0  0  0  0  0  0  0  0  0
   -4.2686   21.4202  -31.3188 H   0  0  0  0  0  0  0  0  0  0  0  0
   -0.5206   24.4586  -29.1675 H   0  0  0  0  0  0  0  0  0  0  0  0
   -1.6898   23.9242  -27.8631 H   0  0  0  0  0  0  0  0  0  0  0  0
    0.2075   22.2878  -29.5345 H   0  0  0  0  0  0  0  0  0  0  0  0
   -0.1815   22.2001  -27.7755 H   0  0  0  0  0  0  0  0  0  0  0  0
  1  2  1  0
  2  3  1  0
  3  4  1  0
  4  5  2  0
  5  6  1  0
  6  7  2  0
  7  8  1  0
  8  9  2  0
  9 10  1  0
 10 11  1  0
 11 12  1  0
 12 13  1  0
 13 14  1  0
 14 15  1  0
 15 16  1  0
 15 17  1  0
 17 18  1  0
 18 19  1  0
 19 20  2  0
 20 21  1  0
 21 22  2  0
 22 23  1  0
 23 24  1  0
 24 25  1  0
 25 26  1  0
 26 27  1  0
 27 28  1  0
 28 29  1  0
 22 30  1  0
 30 31  2  0
 13 32  1  0
 32 33  1  0
  9  4  1  0
 33 10  1  0
 31 19  1  0
 29 24  1  0
  1 34  1  0
  1 35  1  0
  1 36  1  0
  2 37  1  0
  2 38  1  0
  5 39  1  0
  6 40  1  0
  7 41  1  0
  8 42  1  0
 11 43  1  0
 11 44  1  0
 12 45  1  0
 12 46  1  0
 14 47  1  0
 14 48  1  0
 15 49  1  1
 16 50  1  0
 17 51  1  0
 17 52  1  0
 20 53  1  0
 21 54  1  0
 23 55  1  0
 23 56  1  0
 24 57  1  0
 25 58  1  0
 25 59  1  0
 26 60  1  0
 26 61  1  0
 27 62  1  0
 27 63  1  0
 28 64  1  0
 28 65  1  0
 29 66  1  0
 29 67  1  0
 30 68  1  0
 31 69  1  0
 32 70  1  0
 32 71  1  0
 33 72  1  0
 33 73  1  0
M  CHG  1  24   1
M  END
>  <UniqueID>  (11) 
11

>  <SMILES>  (11) 
CCOc1ccccc1N1CCN(C[C@@H](O)COc2ccc(C[NH+]3CCCCC3)cc2)CC1

>  <Energy>  (11) 
92.49191919638542

>  <Genealogy>  (11) 
CCOc1ccccc1N1CCN(CC(O)COc2ccc(C[NH+]3CCCCC3)cc2)CC1 (protonated)
CCOc1ccccc1N1CCN(C[C@@H](O)COc2ccc(C[NH+]3CCCCC3)cc2)CC1 (chirality)
CCOc1ccccc1N1CCN(C[C@@H](O)COc2ccc(C[NH+]3CCCCC3)cc2)CC1 (3D coordinates assigned)
CCOc1ccccc1N1CCN(C[C@@H](O)COc2ccc(C[NH+]3CCCCC3)cc2)CC1 (nonaromatic ring conformer: 92.49191919638542 kcal/mol)

>  <smiles>  (11) 
CCOc1ccccc1N1CCN(CC(O)COc2ccc(CN3CCCCC3)cc2)CC1

>  <score_type>  (11) 
oracle

>  <origin>  (11) 
adg

>  <m_score__min__energy>  (11) 
-9.1400000000000006

>  <m_primary>  (11) 
energy

$$$$
11:0
     RDKit          3D

 63 66  0  0  1  0  0  0  0  0999 V2000
   -2.7670   24.5370  -27.1620 C   0  0  0  0  0  0  0  0  0  0  0  0
   -1.8900   24.0930  -28.2900 C   0  0  0  0  0  0  0  0  0  0  0  0
   -2.3670   24.4890  -29.6010 N   0  0  0  0  0  0  0  0  0  0  0  0
   -3.5270   24.1750  -30.0650 C   0  0  0  0  0  0  0  0  0  0  0  0
   -4.6170   24.8690  -29.6680 N   0  0  0  0  0  0  0  0  0  0  0  0
   -5.8320   24.5590  -30.1390 C   0  0  0  0  0  0  0  0  0  0  0  0
   -7.0550   25.3120  -29.7150 C   0  0  0  0  0  0  0  0  0  0  0  0
   -5.9290   23.5390  -31.0160 N   0  0  0  0  0  0  0  0  0  0  0  0
   -4.8840   22.8320  -31.4310 C   0  0  0  0  0  0  0  0  0  0  0  0
   -3.6320   23.1170  -30.9740 C   0  0  0  0  0  0  0  0  0  0  0  0
   -2.7330   22.3060  -31.5020 N   0  0  0  0  0  0  0  0  0  0  0  0
   -3.4110   21.4570  -32.3340 C   0  0  0  0  0  0  0  0  0  0  0  0
   -2.7140   20.4080  -33.0570 C   0  0  0  0  0  0  0  0  0  0  0  0
   -3.1270   19.1120  -33.1830 C   0  0  0  0  0  0  0  0  0  0  0  0
   -2.3950   18.1590  -33.8940 C   0  0  0  0  0  0  0  0  0  0  0  0
   -1.2100   18.4860  -34.5100 C   0  0  0  0  0  0  0  0  0  0  0  0
   -0.7790   19.7870  -34.3940 C   0  0  0  0  0  0  0  0  0  0  0  0
   -1.5030   20.7230  -33.6930 C   0  0  0  0  0  0  0  0  0  0  0  0
   -4.7070   21.7800  -32.2870 N   0  0  0  0  0  0  0  0  0  0  0  0
   -5.8370   21.2190  -33.0070 C   0  0  0  0  0  0  0  0  0  0  0  0
   -6.8220   20.6690  -32.0000 C   0  0  0  0  0  0  0  0  0  0  0  0
   -7.9570   19.8930  -32.6280 C   0  0  0  0  0  0  0  0  0  0  0  0
   -8.0300   18.5100  -32.0520 C   0  0  0  0  0  0  0  0  0  0  0  0
   -7.1750   17.5540  -32.7320 N   0  0  0  0  0  0  0  0  0  0  0  0
   -6.1940   17.1360  -31.7250 C   0  0  0  0  0  0  0  0  0  0  0  0
   -5.0250   16.4970  -32.3920 C   0  0  0  0  0  0  0  0  0  0  0  0
   -5.4500   15.9350  -33.6570 N   0  0  0  0  0  0  0  0  0  0  0  0
   -4.3460   15.1510  -34.1660 C   0  0  0  0  0  0  0  0  0  0  0  0
   -5.7030   17.0430  -34.5650 C   0  0  0  0  0  0  0  0  0  0  0  0
   -6.4790   18.1250  -33.8440 C   0  0  0  0  0  0  0  0  0  0  0  0
   -2.2844   24.2927  -26.2042 H   0  0  0  0  0  0  0  0  0  0  0  0
   -2.9250   25.6237  -27.2262 H   0  0  0  0  0  0  0  0  0  0  0  0
   -3.7364   24.0211  -27.2262 H   0  0  0  0  0  0  0  0  0  0  0  0
   -0.8897   24.5256  -28.1410 H   0  0  0  0  0  0  0  0  0  0  0  0
   -1.8835   22.9931  -28.2733 H   0  0  0  0  0  0  0  0  0  0  0  0
   -4.5450   25.6590  -28.9890 H   0  0  0  0  0  0  0  0  0  0  0  0
   -7.1044   25.3424  -28.6165 H   0  0  0  0  0  0  0  0  0  0  0  0
   -7.0086   26.3382  -30.1085 H   0  0  0  0  0  0  0  0  0  0  0  0
   -7.9504   24.8085  -30.1085 H   0  0  0  0  0  0  0  0  0  0  0  0
   -4.0709   18.8080  -32.7069 H   0  0  0  0  0  0  0  0  0  0  0  0
   -2.7730   17.1283  -33.9626 H   0  0  0  0  0  0  0  0  0  0  0  0
   -0.6309   17.7385  -35.0720 H   0  0  0  0  0  0  0  0  0  0  0  0
    0.1655   20.0854  -34.8724 H   0  0  0  0  0  0  0  0  0  0  0  0
   -1.1204   21.7523  -33.6287 H   0  0  0  0  0  0  0  0  0  0  0  0
   -6.3201   22.0031  -33.6085 H   0  0  0  0  0  0  0  0  0  0  0  0
   -5.4959   20.4167  -33.6778 H   0  0  0  0  0  0  0  0  0  0  0  0
   -6.2814   20.0008  -31.3135 H   0  0  0  0  0  0  0  0  0  0  0  0
   -7.2676   21.5299  -31.4801 H   0  0  0  0  0  0  0  0  0  0  0  0
   -8.9046   20.4166  -32.4335 H   0  0  0  0  0  0  0  0  0  0  0  0
   -7.7803   19.8183  -33.7111 H   0  0  0  0  0  0  0  0  0  0  0  0
   -7.7286   18.5566  -30.9951 H   0  0  0  0  0  0  0  0  0  0  0  0
   -9.0663   18.1623  -32.1752 H   0  0  0  0  0  0  0  0  0  0  0  0
   -5.8549   18.0159  -31.1586 H   0  0  0  0  0  0  0  0  0  0  0  0
   -6.6619   16.4121  -31.0416 H   0  0  0  0  0  0  0  0  0  0  0  0
   -4.2437   17.2511  -32.5679 H   0  0  0  0  0  0  0  0  0  0  0  0
   -4.6216   15.7005  -31.7495 H   0  0  0  0  0  0  0  0  0  0  0  0
   -3.7686   14.7410  -33.3242 H   0  0  0  0  0  0  0  0  0  0  0  0
   -4.7350   14.3256  -34.7804 H   0  0  0  0  0  0  0  0  0  0  0  0
   -3.6949   15.7902  -34.7804 H   0  0  0  0  0  0  0  0  0  0  0  0
   -4.7452   17.4530  -34.9178 H   0  0  0  0  0  0  0  0  0  0  0  0
   -6.2893   16.6843  -35.4239 H   0  0  0  0  0  0  0  0  0  0  0  0
   -5.7830   18.8968  -33.4835 H   0  0  0  0  0  0  0  0  0  0  0  0
   -7.2040   18.5785  -34.5359 H   0  0  0  0  0  0  0  0  0  0  0  0
  1  2  1  0
  2  3  1  0
  3  4  2  0
  4  5  1  0
  5  6  1  0
  6  7  1  0
  6  8  2  0
  8  9  1  0
  9 10  2  0
 10 11  1  0
 11 12  2  0
 12 13  1  0
 13 14  2  0
 14 15  1  0
 15 16  2  0
 16 17  1  0
 17 18  2  0
 12 19  1  0
 19 20  1  0
 20 21  1  0
 21 22  1  0
 22 23  1  0
 23 24  1  0
 24 25  1  0
 25 26  1  0
 26 27  1  0
 27 28  1  0
 27 29  1  0
 29 30  1  0
 10  4  1  0
 18 13  1  0
 30 24  1  0
 19  9  1  0
  1 31  1  0
  1 32  1  0
  1 33  1  0
  2 34  1  0
  2 35  1  0
  5 36  1  0
  7 37  1  0
  7 38  1  0
  7 39  1  0
 14 40  1  0
 15 41  1  0
 16 42  1  0
 17 43  1  0
 18 44  1  0
 20 45  1  0
 20 46  1  0
 21 47  1  0
 21 48  1  0
 22 49  1  0
 22 50  1  0
 23 51  1  0
 23 52  1  0
 25 53  1  0
 25 54  1  0
 26 55  1  0
 26 56  1  0
 28 57  1  0
 28 58  1  0
 28 59  1  0
 29 60  1  0
 29 61  1  0
 30 62  1  0
 30 63  1  0
M  END
>  <smiles>  (12) 
CCN=c1[nH]c(C)nc2c1nc(-c1ccccc1)n2CCCCN1CCN(C)CC1

>  <score_type>  (12) 
oracle

>  <origin>  (12) 
adg

>  <m_score__min__energy>  (12) 
-8.8699999999999992

>  <m_primary>  (12) 
energy

$$$$
12:0
     RDKit          3D

 46 48  0  0  0  0  0  0  0  0999 V2000
   -5.7210   25.6400  -30.1210 C   0  0  0  0  0  0  0  0  0  0  0  0
   -5.0760   24.7780  -31.1260 N   0  0  0  0  0  0  0  0  0  0  0  0
   -6.1110   24.0340  -31.8650 C   0  0  0  0  0  0  0  0  0  0  0  0
   -4.1230   23.8560  -30.4710 C   0  0  0  0  0  0  0  0  0  0  0  0
   -4.4170   22.4010  -30.8670 C   0  0  0  0  0  0  0  0  0  0  0  0
   -3.5890   21.9550  -32.0780 C   0  0  0  0  0  0  0  0  0  0  0  0
   -4.4490   21.5480  -33.1890 N   0  0  0  0  0  0  0  0  0  0  0  0
   -4.9410   20.2000  -33.2600 C   0  0  0  0  0  0  0  0  0  0  0  0
   -4.0810   19.1540  -33.6360 C   0  0  0  0  0  0  0  0  0  0  0  0
   -2.7210   19.4040  -33.9200 C   0  0  0  0  0  0  0  0  0  0  0  0
   -1.8560   18.3600  -34.2330 C   0  0  0  0  0  0  0  0  0  0  0  0
   -2.3230   17.0510  -34.2540 C   0  0  0  0  0  0  0  0  0  0  0  0
   -3.6640   16.7800  -33.9850 C   0  0  0  0  0  0  0  0  0  0  0  0
   -4.5820   17.8250  -33.7050 C   0  0  0  0  0  0  0  0  0  0  0  0
   -5.9240   17.5760  -33.4810 N   0  0  0  0  0  0  0  0  0  0  0  0
   -6.4970   16.2550  -33.8230 C   0  0  0  0  0  0  0  0  0  0  0  0
   -6.7370   18.5710  -32.9680 C   0  0  0  0  0  0  0  0  0  0  0  0
   -8.0440   18.2950  -32.4900 C   0  0  0  0  0  0  0  0  0  0  0  0
   -8.8770   19.3190  -32.0410 C   0  0  0  0  0  0  0  0  0  0  0  0
   -8.4340   20.6370  -32.0480 C   0  0  0  0  0  0  0  0  0  0  0  0
   -9.4940   21.9240  -31.5000 Cl  0  0  0  0  0  0  0  0  0  0  0  0
   -7.1400   20.9330  -32.4700 C   0  0  0  0  0  0  0  0  0  0  0  0
   -6.2680   19.9100  -32.8980 C   0  0  0  0  0  0  0  0  0  0  0  0
   -5.4576   25.2880  -29.1127 H   0  0  0  0  0  0  0  0  0  0  0  0
   -5.3745   26.6760  -30.2498 H   0  0  0  0  0  0  0  0  0  0  0  0
   -6.8127   25.5998  -30.2498 H   0  0  0  0  0  0  0  0  0  0  0  0
   -6.7909   23.5452  -31.1517 H   0  0  0  0  0  0  0  0  0  0  0  0
   -6.6816   24.7299  -32.4975 H   0  0  0  0  0  0  0  0  0  0  0  0
   -5.6332   23.2714  -32.4975 H   0  0  0  0  0  0  0  0  0  0  0  0
   -3.0996   24.1148  -30.7802 H   0  0  0  0  0  0  0  0  0  0  0  0
   -4.2282   23.9542  -29.3805 H   0  0  0  0  0  0  0  0  0  0  0  0
   -4.1804   21.7467  -30.0150 H   0  0  0  0  0  0  0  0  0  0  0  0
   -5.4805   22.3321  -31.1395 H   0  0  0  0  0  0  0  0  0  0  0  0
   -2.9531   22.7909  -32.4047 H   0  0  0  0  0  0  0  0  0  0  0  0
   -2.9750   21.0923  -31.7801 H   0  0  0  0  0  0  0  0  0  0  0  0
   -4.4070   22.0940  -34.0800 H   0  0  0  0  0  0  0  0  0  0  0  0
   -2.3407   20.4358  -33.8936 H   0  0  0  0  0  0  0  0  0  0  0  0
   -0.8014   18.5708  -34.4641 H   0  0  0  0  0  0  0  0  0  0  0  0
   -1.6324   16.2262  -34.4836 H   0  0  0  0  0  0  0  0  0  0  0  0
   -4.0164   15.7380  -33.9899 H   0  0  0  0  0  0  0  0  0  0  0  0
   -6.7343   15.7079  -32.8987 H   0  0  0  0  0  0  0  0  0  0  0  0
   -7.4152   16.3951  -34.4122 H   0  0  0  0  0  0  0  0  0  0  0  0
   -5.7673   15.6802  -34.4122 H   0  0  0  0  0  0  0  0  0  0  0  0
   -8.4060   17.2564  -32.4734 H   0  0  0  0  0  0  0  0  0  0  0  0
   -9.8889   19.0832  -31.6797 H   0  0  0  0  0  0  0  0  0  0  0  0
   -6.7938   21.9771  -32.4695 H   0  0  0  0  0  0  0  0  0  0  0  0
  1  2  1  0
  2  3  1  0
  2  4  1  0
  4  5  1  0
  5  6  1  0
  6  7  1  0
  7  8  1  0
  8  9  2  0
  9 10  1  0
 10 11  2  0
 11 12  1  0
 12 13  2  0
 13 14  1  0
 14 15  2  0
 15 16  1  0
 15 17  1  0
 17 18  2  0
 18 19  1  0
 19 20  2  0
 20 21  1  0
 20 22  1  0
 22 23  2  0
 23  8  1  0
 14  9  1  0
 23 17  1  0
  1 24  1  0
  1 25  1  0
  1 26  1  0
  3 27  1  0
  3 28  1  0
  3 29  1  0
  4 30  1  0
  4 31  1  0
  5 32  1  0
  5 33  1  0
  6 34  1  0
  6 35  1  0
  7 36  1  0
 10 37  1  0
 11 38  1  0
 12 39  1  0
 13 40  1  0
 16 41  1  0
 16 42  1  0
 16 43  1  0
 18 44  1  0
 19 45  1  0
 22 46  1  0
M  CHG  1  15   1
M  END
>  <UniqueID>  (13) 
12

>  <SMILES>  (13) 
CN(C)CCCNc1c2ccccc2[n+](C)c2ccc(Cl)cc12

>  <Energy>  (13) 
70.48302065866923

>  <Genealogy>  (13) 
CN(C)CCCNc1c2ccccc2[n+](C)c2ccc(Cl)cc12 (3D coordinates assigned)
CN(C)CCCNc1c2ccccc2[n+](C)c2ccc(Cl)cc12 (optimized conformer: 70.48302065866923 kcal/mol)

>  <smiles>  (13) 
CN(C)CCCNc1c2ccccc2[n+](C)c2ccc(Cl)cc12

>  <score_type>  (13) 
oracle

>  <origin>  (13) 
adg

>  <m_score__min__energy>  (13) 
-8.7100000000000009

>  <m_primary>  (13) 
energy

$$$$
13:0
     RDKit          3D

 72 75  0  0  0  0  0  0  0  0999 V2000
   -2.5370   22.7780  -30.4900 C   0  0  0  0  0  0  0  0  0  0  0  0
   -3.7080   23.6550  -30.3200 N   0  0  0  0  0  0  0  0  0  0  0  0
   -3.5220   24.5770  -29.1870 C   0  0  0  0  0  0  0  0  0  0  0  0
   -4.9850   22.9100  -30.2550 C   0  0  0  0  0  0  0  0  0  0  0  0
   -6.0940   23.4710  -31.1650 C   0  0  0  0  0  0  0  0  0  0  0  0
   -5.9940   22.8980  -32.5090 N   0  0  0  0  0  0  0  0  0  0  0  0
   -5.9750   21.4760  -32.7340 C   0  0  0  0  0  0  0  0  0  0  0  0
   -7.1440   20.7110  -32.5650 C   0  0  0  0  0  0  0  0  0  0  0  0
   -8.3780   21.3270  -32.2640 C   0  0  0  0  0  0  0  0  0  0  0  0
   -9.5160   20.5610  -32.0250 C   0  0  0  0  0  0  0  0  0  0  0  0
   -9.4440   19.1750  -32.0680 C   0  0  0  0  0  0  0  0  0  0  0  0
   -8.2470   18.5460  -32.4080 C   0  0  0  0  0  0  0  0  0  0  0  0
   -7.0870   19.2990  -32.7240 C   0  0  0  0  0  0  0  0  0  0  0  0
   -5.9240   18.6970  -33.1700 N   0  0  0  0  0  0  0  0  0  0  0  0
   -5.9450   17.2870  -33.6230 C   0  0  0  0  0  0  0  0  0  0  0  0
   -4.7520   19.4280  -33.2550 C   0  0  0  0  0  0  0  0  0  0  0  0
   -3.5030   18.8040  -33.5080 C   0  0  0  0  0  0  0  0  0  0  0  0
   -2.3340   19.5600  -33.7010 C   0  0  0  0  0  0  0  0  0  0  0  0
   -1.0990   18.9760  -34.0320 O   0  0  0  0  0  0  0  0  0  0  0  0
   -0.4220   17.9750  -33.2690 C   0  0  0  0  0  0  0  0  0  0  0  0
    0.7400   17.3610  -34.0900 C   0  0  0  0  0  0  0  0  0  0  0  0
    1.6790   18.3480  -34.7210 N   0  0  0  0  0  0  0  0  0  0  0  0
    2.9690   17.6670  -35.0230 C   0  0  0  0  0  0  0  0  0  0  0  0
    1.9730   19.4260  -33.7190 C   0  0  0  0  0  0  0  0  0  0  0  0
    1.3100   20.8030  -33.9910 C   0  0  0  0  0  0  0  0  0  0  0  0
    2.0380   21.7320  -34.9880 C   0  0  0  0  0  0  0  0  0  0  0  0
    1.8240   21.3680  -36.4620 C   0  0  0  0  0  0  0  0  0  0  0  0
    1.9830   19.8630  -36.7880 C   0  0  0  0  0  0  0  0  0  0  0  0
    1.0870   18.8810  -35.9920 C   0  0  0  0  0  0  0  0  0  0  0  0
   -2.3880   20.9440  -33.5680 C   0  0  0  0  0  0  0  0  0  0  0  0
   -3.5870   21.5770  -33.2560 C   0  0  0  0  0  0  0  0  0  0  0  0
   -4.7740   20.8360  -33.0830 C   0  0  0  0  0  0  0  0  0  0  0  0
   -2.1497   22.4879  -29.5022 H   0  0  0  0  0  0  0  0  0  0  0  0
   -2.8318   21.8767  -31.0474 H   0  0  0  0  0  0  0  0  0  0  0  0
   -1.7550   23.3144  -31.0474 H   0  0  0  0  0  0  0  0  0  0  0  0
   -3.6335   24.0244  -28.2424 H   0  0  0  0  0  0  0  0  0  0  0  0
   -2.5164   25.0201  -29.2361 H   0  0  0  0  0  0  0  0  0  0  0  0
   -4.2772   25.3753  -29.2361 H   0  0  0  0  0  0  0  0  0  0  0  0
   -4.7913   21.8682  -30.5503 H   0  0  0  0  0  0  0  0  0  0  0  0
   -5.3501   23.0009  -29.2213 H   0  0  0  0  0  0  0  0  0  0  0  0
   -7.0754   23.2196  -30.7365 H   0  0  0  0  0  0  0  0  0  0  0  0
   -5.9786   24.5627  -31.2344 H   0  0  0  0  0  0  0  0  0  0  0  0
   -5.8430   23.5370  -33.3210 H   0  0  0  0  0  0  0  0  0  0  0  0
   -8.4413   22.4242  -32.2177 H   0  0  0  0  0  0  0  0  0  0  0  0
  -10.4734   21.0546  -31.8018 H   0  0  0  0  0  0  0  0  0  0  0  0
  -10.3334   18.5718  -31.8333 H   0  0  0  0  0  0  0  0  0  0  0  0
   -8.2013   17.4472  -32.4316 H   0  0  0  0  0  0  0  0  0  0  0  0
   -5.9549   16.6208  -32.7478 H   0  0  0  0  0  0  0  0  0  0  0  0
   -6.8459   17.1099  -34.2288 H   0  0  0  0  0  0  0  0  0  0  0  0
   -5.0498   17.0831  -34.2288 H   0  0  0  0  0  0  0  0  0  0  0  0
   -3.4486   17.7063  -33.5540 H   0  0  0  0  0  0  0  0  0  0  0  0
   -0.0172   18.4300  -32.3530 H   0  0  0  0  0  0  0  0  0  0  0  0
   -1.1365   17.1788  -33.0129 H   0  0  0  0  0  0  0  0  0  0  0  0
    1.3266   16.7175  -33.4178 H   0  0  0  0  0  0  0  0  0  0  0  0
    0.2676   16.8194  -34.9228 H   0  0  0  0  0  0  0  0  0  0  0  0
    3.4725   17.4012  -34.0818 H   0  0  0  0  0  0  0  0  0  0  0  0
    2.7743   16.7542  -35.6051 H   0  0  0  0  0  0  0  0  0  0  0  0
    3.6129   18.3427  -35.6051 H   0  0  0  0  0  0  0  0  0  0  0  0
    1.6289   19.0746  -32.7351 H   0  0  0  0  0  0  0  0  0  0  0  0
    3.0574   19.6005  -33.7788 H   0  0  0  0  0  0  0  0  0  0  0  0
    0.2999   20.6160  -34.3844 H   0  0  0  0  0  0  0  0  0  0  0  0
    1.3332   21.3334  -33.0276 H   0  0  0  0  0  0  0  0  0  0  0  0
    1.6749   22.7583  -34.8305 H   0  0  0  0  0  0  0  0  0  0  0  0
    3.1147   21.6240  -34.7902 H   0  0  0  0  0  0  0  0  0  0  0  0
    0.8063   21.6741  -36.7459 H   0  0  0  0  0  0  0  0  0  0  0  0
    2.6083   21.8922  -37.0278 H   0  0  0  0  0  0  0  0  0  0  0  0
    1.7588   19.7277  -37.8564 H   0  0  0  0  0  0  0  0  0  0  0  0
    3.0145   19.6119  -36.5001 H   0  0  0  0  0  0  0  0  0  0  0  0
    0.1541   19.4050  -35.7370 H   0  0  0  0  0  0  0  0  0  0  0  0
    0.9427   18.0082  -36.6458 H   0  0  0  0  0  0  0  0  0  0  0  0
   -1.4759   21.5421  -33.7106 H   0  0  0  0  0  0  0  0  0  0  0  0
   -3.6092   22.6709  -33.1427 H   0  0  0  0  0  0  0  0  0  0  0  0
  1  2  1  0
  2  3  1  0
  2  4  1  0
  4  5  1  0
  5  6  1  0
  6  7  1  0
  7  8  2  0
  8  9  1  0
  9 10  2  0
 10 11  1  0
 11 12  2  0
 12 13  1  0
 13 14  2  0
 14 15  1  0
 14 16  1  0
 16 17  2  0
 17 18  1  0
 18 19  1  0
 19 20  1  0
 20 21  1  0
 21 22  1  0
 22 23  1  0
 22 24  1  0
 24 25  1  0
 25 26  1  0
 26 27  1  0
 27 28  1  0
 28 29  1  0
 18 30  2  0
 30 31  1  0
 31 32  2  0
 32  7  1  0
 13  8  1  0
 32 16  1  0
 29 22  1  0
  1 33  1  0
  1 34  1  0
  1 35  1  0
  3 36  1  0
  3 37  1  0
  3 38  1  0
  4 39  1  0
  4 40  1  0
  5 41  1  0
  5 42  1  0
  6 43  1  0
  9 44  1  0
 10 45  1  0
 11 46  1  0
 12 47  1  0
 15 48  1  0
 15 49  1  0
 15 50  1  0
 17 51  1  0
 20 52  1  0
 20 53  1  0
 21 54  1  0
 21 55  1  0
 23 56  1  0
 23 57  1  0
 23 58  1  0
 24 59  1  0
 24 60  1  0
 25 61  1  0
 25 62  1  0
 26 63  1  0
 26 64  1  0
 27 65  1  0
 27 66  1  0
 28 67  1  0
 28 68  1  0
 29 69  1  0
 29 70  1  0
 30 71  1  0
 31 72  1  0
M  CHG  2  14   1  22   1
M  END
>  <UniqueID>  (14) 
13

>  <SMILES>  (14) 
CN(C)CCNc1c2ccccc2[n+](C)c2cc(OCC[N+]3(C)CCCCCC3)ccc12

>  <Energy>  (14) 
124.11752174545384

>  <Genealogy>  (14) 
CN(C)CCNc1c2ccccc2[n+](C)c2cc(OCC[N+]3(C)CCCCCC3)ccc12 (3D coordinates assigned)
CN(C)CCNc1c2ccccc2[n+](C)c2cc(OCC[N+]3(C)CCCCCC3)ccc12 (nonaromatic ring conformer: 124.11752174545384 kcal/mol)

>  <smiles>  (14) 
CN(C)CCNc1c2ccccc2[n+](C)c2cc(OCC[N+]3(C)CCCCCC3)ccc12

>  <score_type>  (14) 
oracle

>  <origin>  (14) 
adg

>  <m_score__min__energy>  (14) 
-5.3399999999999999

>  <m_primary>  (14) 
energy

$$$$
14:0
     RDKit          3D

 47 49  0  0  0  0  0  0  0  0999 V2000
   -0.8660   26.5690  -28.2030 C   0  0  0  0  0  0  0  0  0  0  0  0
   -1.5850   25.6490  -29.0190 O   0  0  0  0  0  0  0  0  0  0  0  0
   -1.5670   24.2550  -28.8530 C   0  0  0  0  0  0  0  0  0  0  0  0
   -0.3670   23.5450  -28.6460 C   0  0  0  0  0  0  0  0  0  0  0  0
   -0.3860   22.1590  -28.4770 C   0  0  0  0  0  0  0  0  0  0  0  0
   -1.5950   21.4660  -28.5080 C   0  0  0  0  0  0  0  0  0  0  0  0
   -2.7920   22.1540  -28.7130 C   0  0  0  0  0  0  0  0  0  0  0  0
   -2.7880   23.5480  -28.8920 C   0  0  0  0  0  0  0  0  0  0  0  0
   -4.0930   24.2840  -29.0890 C   0  0  0  0  0  0  0  0  0  0  0  0
   -4.4690   24.3210  -30.5190 N   0  0  0  0  0  0  0  0  0  0  0  0
   -5.9150   24.6110  -30.6890 C   0  0  0  0  0  0  0  0  0  0  0  0
   -6.4180   24.1620  -32.0690 C   0  0  0  0  0  0  0  0  0  0  0  0
   -6.2640   22.6940  -32.2790 N   0  0  0  0  0  0  0  0  0  0  0  0
   -7.5350   21.9640  -32.0470 C   0  0  0  0  0  0  0  0  0  0  0  0
   -7.4170   20.4920  -32.3720 C   0  0  0  0  0  0  0  0  0  0  0  0
   -8.1770   19.5480  -31.6600 C   0  0  0  0  0  0  0  0  0  0  0  0
   -8.0660   18.1850  -31.9540 C   0  0  0  0  0  0  0  0  0  0  0  0
   -7.1990   17.7550  -32.9620 C   0  0  0  0  0  0  0  0  0  0  0  0
   -6.4420   18.6860  -33.6780 C   0  0  0  0  0  0  0  0  0  0  0  0
   -6.5500   20.0500  -33.3880 C   0  0  0  0  0  0  0  0  0  0  0  0
   -5.1880   22.1040  -31.4400 C   0  0  0  0  0  0  0  0  0  0  0  0
   -4.0320   23.0910  -31.2280 C   0  0  0  0  0  0  0  0  0  0  0  0
   -1.0468   26.3377  -27.1429 H   0  0  0  0  0  0  0  0  0  0  0  0
    0.2096   26.4868  -28.4180 H   0  0  0  0  0  0  0  0  0  0  0  0
   -1.2057   27.5929  -28.4180 H   0  0  0  0  0  0  0  0  0  0  0  0
    0.5903   24.0861  -28.6174 H   0  0  0  0  0  0  0  0  0  0  0  0
    0.5556   21.6127  -28.3190 H   0  0  0  0  0  0  0  0  0  0  0  0
   -1.6058   20.3747  -28.3706 H   0  0  0  0  0  0  0  0  0  0  0  0
   -3.7434   21.6023  -28.7346 H   0  0  0  0  0  0  0  0  0  0  0  0
   -4.8842   23.7717  -28.5220 H   0  0  0  0  0  0  0  0  0  0  0  0
   -3.9706   25.3171  -28.7316 H   0  0  0  0  0  0  0  0  0  0  0  0
   -6.4809   24.0778  -29.9109 H   0  0  0  0  0  0  0  0  0  0  0  0
   -6.0626   25.6977  -30.6034 H   0  0  0  0  0  0  0  0  0  0  0  0
   -7.4830   24.4221  -32.1588 H   0  0  0  0  0  0  0  0  0  0  0  0
   -5.8126   24.6755  -32.8305 H   0  0  0  0  0  0  0  0  0  0  0  0
   -5.9800   22.5470  -33.2780 H   0  0  0  0  0  0  0  0  0  0  0  0
   -7.8170   22.0715  -30.9892 H   0  0  0  0  0  0  0  0  0  0  0  0
   -8.2980   22.3959  -32.7113 H   0  0  0  0  0  0  0  0  0  0  0  0
   -8.8625   19.8828  -30.8676 H   0  0  0  0  0  0  0  0  0  0  0  0
   -8.6616   17.4511  -31.3913 H   0  0  0  0  0  0  0  0  0  0  0  0
   -7.1124   16.6828  -33.1920 H   0  0  0  0  0  0  0  0  0  0  0  0
   -5.7600   18.3456  -34.4711 H   0  0  0  0  0  0  0  0  0  0  0  0
   -5.9548   20.7799  -33.9564 H   0  0  0  0  0  0  0  0  0  0  0  0
   -5.6081   21.8306  -30.4609 H   0  0  0  0  0  0  0  0  0  0  0  0
   -4.7934   21.2182  -31.9592 H   0  0  0  0  0  0  0  0  0  0  0  0
   -3.2494   22.5978  -30.6327 H   0  0  0  0  0  0  0  0  0  0  0  0
   -3.6543   23.3872  -32.2177 H   0  0  0  0  0  0  0  0  0  0  0  0
  1  2  1  0
  2  3  1  0
  3  4  2  0
  4  5  1  0
  5  6  2  0
  6  7  1  0
  7  8  2  0
  8  9  1  0
  9 10  1  0
 10 11  1  0
 11 12  1  0
 12 13  1  0
 13 14  1  0
 14 15  1  0
 15 16  2  0
 16 17  1  0
 17 18  2  0
 18 19  1  0
 19 20  2  0
 13 21  1  0
 21 22  1  0
  8  3  1  0
 22 10  1  0
 20 15  1  0
  1 23  1  0
  1 24  1  0
  1 25  1  0
  4 26  1  0
  5 27  1  0
  6 28  1  0
  7 29  1  0
  9 30  1  0
  9 31  1  0
 11 32  1  0
 11 33  1  0
 12 34  1  0
 12 35  1  0
 13 36  1  0
 14 37  1  0
 14 38  1  0
 16 39  1  0
 17 40  1  0
 18 41  1  0
 19 42  1  0
 20 43  1  0
 21 44  1  0
 21 45  1  0
 22 46  1  0
 22 47  1  0
M  CHG  1  13   1
M  END
>  <UniqueID>  (15) 
14

>  <SMILES>  (15) 
COc1ccccc1CN1CC[NH+](Cc2ccccc2)CC1

>  <Energy>  (15) 
61.95603715770911

>  <Genealogy>  (15) 
COc1ccccc1CN1CC[NH+](Cc2ccccc2)CC1 (protonated)
COc1ccccc1CN1CC[NH+](Cc2ccccc2)CC1 (3D coordinates assigned)
COc1ccccc1CN1CC[NH+](Cc2ccccc2)CC1 (nonaromatic ring conformer: 61.95603715770911 kcal/mol)

>  <smiles>  (15) 
COc1ccccc1CN1CCN(Cc2ccccc2)CC1

>  <score_type>  (15) 
oracle

>  <origin>  (15) 
adg

>  <m_score__min__energy>  (15) 
-8.0199999999999996

>  <m_primary>  (15) 
energy

$$$$
15:0
     RDKit          3D

 41 43  0  0  0  0  0  0  0  0999 V2000
   -5.2350   24.9250  -28.6520 O   0  0  0  0  0  0  0  0  0  0  0  0
   -4.9590   25.0120  -29.8780 C   0  0  0  0  0  0  0  0  0  0  0  0
   -6.0550   25.2460  -30.8680 C   0  0  0  0  0  0  0  0  0  0  0  0
   -5.9660   24.3120  -31.9440 O   0  0  0  0  0  0  0  0  0  0  0  0
   -6.5850   23.0510  -31.9780 C   0  0  0  0  0  0  0  0  0  0  0  0
   -7.9370   22.9690  -31.6180 C   0  0  0  0  0  0  0  0  0  0  0  0
   -8.6050   21.7410  -31.6400 C   0  0  0  0  0  0  0  0  0  0  0  0
   -7.9240   20.5800  -32.0180 C   0  0  0  0  0  0  0  0  0  0  0  0
   -8.8350   18.9020  -32.0470 Br  0  0  0  0  0  0  0  0  0  0  0  0
   -6.5740   20.6490  -32.3740 C   0  0  0  0  0  0  0  0  0  0  0  0
   -5.9030   21.8770  -32.3530 C   0  0  0  0  0  0  0  0  0  0  0  0
   -3.6030   24.9270  -30.3260 N   0  0  0  0  0  0  0  0  0  0  0  0
   -2.8010   23.7400  -30.2660 C   0  0  0  0  0  0  0  0  0  0  0  0
   -2.9840   22.7660  -31.2550 C   0  0  0  0  0  0  0  0  0  0  0  0
   -2.2020   21.6090  -31.2630 C   0  0  0  0  0  0  0  0  0  0  0  0
   -2.4460   20.3010  -32.6340 Br  0  0  0  0  0  0  0  0  0  0  0  0
   -1.2410   21.4080  -30.2710 C   0  0  0  0  0  0  0  0  0  0  0  0
   -1.0720   22.3570  -29.2600 C   0  0  0  0  0  0  0  0  0  0  0  0
   -1.8530   23.5240  -29.2360 C   0  0  0  0  0  0  0  0  0  0  0  0
   -1.7350   24.4330  -28.1270 N   0  0  0  0  0  0  0  0  0  0  0  0
   -0.9070   25.6260  -28.1690 C   0  0  0  0  0  0  0  0  0  0  0  0
   -1.0610   26.2720  -26.8010 C   0  0  0  0  0  0  0  0  0  0  0  0
   -2.3390   25.6870  -26.2040 C   0  0  0  0  0  0  0  0  0  0  0  0
   -2.5950   24.3850  -26.9570 C   0  0  0  0  0  0  0  0  0  0  0  0
   -7.0269   25.1285  -30.3663 H   0  0  0  0  0  0  0  0  0  0  0  0
   -5.9571   26.2643  -31.2724 H   0  0  0  0  0  0  0  0  0  0  0  0
   -8.4771   23.8783  -31.3156 H   0  0  0  0  0  0  0  0  0  0  0  0
   -9.6674   21.6883  -31.3596 H   0  0  0  0  0  0  0  0  0  0  0  0
   -6.0377   19.7358  -32.6714 H   0  0  0  0  0  0  0  0  0  0  0  0
   -4.8396   21.9255  -32.6302 H   0  0  0  0  0  0  0  0  0  0  0  0
   -3.7493   22.9132  -32.0313 H   0  0  0  0  0  0  0  0  0  0  0  0
   -0.6168   20.5024  -30.2853 H   0  0  0  0  0  0  0  0  0  0  0  0
   -0.3200   22.1886  -28.4751 H   0  0  0  0  0  0  0  0  0  0  0  0
    0.1442   25.3588  -28.3524 H   0  0  0  0  0  0  0  0  0  0  0  0
   -1.2094   26.3059  -28.9791 H   0  0  0  0  0  0  0  0  0  0  0  0
   -0.1965   26.0316  -26.1648 H   0  0  0  0  0  0  0  0  0  0  0  0
   -1.1147   27.3682  -26.8755 H   0  0  0  0  0  0  0  0  0  0  0  0
   -2.2036   25.4879  -25.1307 H   0  0  0  0  0  0  0  0  0  0  0  0
   -3.1854   26.3828  -26.3015 H   0  0  0  0  0  0  0  0  0  0  0  0
   -2.3381   23.5206  -26.3271 H   0  0  0  0  0  0  0  0  0  0  0  0
   -3.6539   24.2778  -27.2351 H   0  0  0  0  0  0  0  0  0  0  0  0
  1  2  2  0
  2  3  1  0
  3  4  1  0
  4  5  1  0
  5  6  2  0
  6  7  1  0
  7  8  2  0
  8  9  1  0
  8 10  1  0
 10 11  2  0
  2 12  1  0
 12 13  1  0
 13 14  2  0
 14 15  1  0
 15 16  1  0
 15 17  2  0
 17 18  1  0
 18 19  2  0
 19 20  1  0
 20 21  1  0
 21 22  1  0
 22 23  1  0
 23 24  1  0
 11  5  1  0
 19 13  1  0
 24 20  1  0
  3 25  1  0
  3 26  1  0
  6 27  1  0
  7 28  1  0
 10 29  1  0
 11 30  1  0
 14 31  1  0
 17 32  1  0
 18 33  1  0
 21 34  1  0
 21 35  1  0
 22 36  1  0
 22 37  1  0
 23 38  1  0
 23 39  1  0
 24 40  1  0
 24 41  1  0
M  CHG  1  12  -1
M  END
>  <UniqueID>  (16) 
15

>  <SMILES>  (16) 
O=C(COc1ccc(Br)cc1)[N-]c1cc(Br)ccc1N1CCCC1

>  <Energy>  (16) 
51.21534479183874

>  <Genealogy>  (16) 
O=C(COc1ccc(Br)cc1)[N-]c1cc(Br)ccc1N1CCCC1 (protonated)
O=C(COc1ccc(Br)cc1)[N-]c1cc(Br)ccc1N1CCCC1 (3D coordinates assigned)
O=C(COc1ccc(Br)cc1)[N-]c1cc(Br)ccc1N1CCCC1 (nonaromatic ring conformer: 51.21534479183874 kcal/mol)

>  <smiles>  (16) 
O=C(COc1ccc(Br)cc1)Nc1cc(Br)ccc1N1CCCC1

>  <score_type>  (16) 
oracle

>  <origin>  (16) 
adg

>  <m_score__min__energy>  (16) 
-10.220000000000001

>  <m_primary>  (16) 
energy

$$$$
16:0
     RDKit          3D

 67 70  0  0  0  0  0  0  0  0999 V2000
   -6.5490   25.4200  -29.7080 C   0  0  0  0  0  0  0  0  0  0  0  0
   -6.4000   24.1150  -30.3720 N   0  0  0  0  0  0  0  0  0  0  0  0
   -7.2290   23.0910  -29.7180 C   0  0  0  0  0  0  0  0  0  0  0  0
   -6.6260   24.1750  -31.8340 C   0  0  0  0  0  0  0  0  0  0  0  0
   -5.9920   23.0140  -32.6250 C   0  0  0  0  0  0  0  0  0  0  0  0
   -5.3060   22.0770  -31.7190 N   0  0  0  0  0  0  0  0  0  0  0  0
   -5.2510   20.6650  -31.9870 C   0  0  0  0  0  0  0  0  0  0  0  0
   -6.4580   19.9250  -32.0500 C   0  0  0  0  0  0  0  0  0  0  0  0
   -7.7220   20.5470  -31.9560 C   0  0  0  0  0  0  0  0  0  0  0  0
   -8.8880   19.7870  -31.8950 C   0  0  0  0  0  0  0  0  0  0  0  0
   -8.8190   18.4010  -31.9570 C   0  0  0  0  0  0  0  0  0  0  0  0
   -7.5910   17.7680  -32.1470 C   0  0  0  0  0  0  0  0  0  0  0  0
   -6.3950   18.5240  -32.2390 C   0  0  0  0  0  0  0  0  0  0  0  0
   -5.2000   17.9330  -32.5740 N   0  0  0  0  0  0  0  0  0  0  0  0
   -5.0340   16.4740  -32.4130 C   0  0  0  0  0  0  0  0  0  0  0  0
   -4.1230   18.7230  -32.9220 C   0  0  0  0  0  0  0  0  0  0  0  0
   -3.1240   18.2760  -33.8260 C   0  0  0  0  0  0  0  0  0  0  0  0
   -3.5110   16.8390  -35.0770 Br  0  0  0  0  0  0  0  0  0  0  0  0
   -1.9390   19.0260  -33.9880 C   0  0  0  0  0  0  0  0  0  0  0  0
   -0.9270   18.6050  -34.8820 C   0  0  0  0  0  0  0  0  0  0  0  0
    0.2660   19.3100  -34.9970 C   0  0  0  0  0  0  0  0  0  0  0  0
    0.4840   20.4410  -34.2250 C   0  0  0  0  0  0  0  0  0  0  0  0
   -0.4960   20.8840  -33.3410 C   0  0  0  0  0  0  0  0  0  0  0  0
   -1.7290   20.1950  -33.2110 C   0  0  0  0  0  0  0  0  0  0  0  0
   -2.7490   20.6600  -32.3350 C   0  0  0  0  0  0  0  0  0  0  0  0
   -2.3970   21.5380  -31.2300 N   0  0  0  0  0  0  0  0  0  0  0  0
   -1.4190   20.9150  -30.3100 C   0  0  0  0  0  0  0  0  0  0  0  0
   -0.6490   21.9440  -29.4590 C   0  0  0  0  0  0  0  0  0  0  0  0
   -1.1110   23.3040  -29.7610 N   0  0  0  0  0  0  0  0  0  0  0  0
   -2.0640   23.7770  -28.7470 C   0  0  0  0  0  0  0  0  0  0  0  0
   -3.4720   23.9110  -29.3560 C   0  0  0  0  0  0  0  0  0  0  0  0
   -3.4570   23.8770  -30.7590 O   0  0  0  0  0  0  0  0  0  0  0  0
   -4.0370   20.0360  -32.3960 C   0  0  0  0  0  0  0  0  0  0  0  0
   -6.5330   25.2802  -28.6170 H   0  0  0  0  0  0  0  0  0  0  0  0
   -5.7203   26.0794  -30.0053 H   0  0  0  0  0  0  0  0  0  0  0  0
   -7.5050   25.8757  -30.0053 H   0  0  0  0  0  0  0  0  0  0  0  0
   -7.1455   23.1941  -28.6260 H   0  0  0  0  0  0  0  0  0  0  0  0
   -8.2788   23.2217  -30.0194 H   0  0  0  0  0  0  0  0  0  0  0  0
   -6.8827   22.0914  -30.0194 H   0  0  0  0  0  0  0  0  0  0  0  0
   -7.7109   24.1625  -32.0151 H   0  0  0  0  0  0  0  0  0  0  0  0
   -6.1423   25.0971  -32.1886 H   0  0  0  0  0  0  0  0  0  0  0  0
   -6.7813   22.4758  -33.1703 H   0  0  0  0  0  0  0  0  0  0  0  0
   -5.2546   23.4279  -33.3285 H   0  0  0  0  0  0  0  0  0  0  0  0
   -5.0560   22.3940  -30.7550 H   0  0  0  0  0  0  0  0  0  0  0  0
   -7.7869   21.6448  -31.9306 H   0  0  0  0  0  0  0  0  0  0  0  0
   -9.8640   20.2849  -31.7977 H   0  0  0  0  0  0  0  0  0  0  0  0
   -9.7355   17.8011  -31.8560 H   0  0  0  0  0  0  0  0  0  0  0  0
   -7.5498   16.6716  -32.2263 H   0  0  0  0  0  0  0  0  0  0  0  0
   -5.0056   16.2242  -31.3421 H   0  0  0  0  0  0  0  0  0  0  0  0
   -5.8788   15.9542  -32.8885 H   0  0  0  0  0  0  0  0  0  0  0  0
   -4.0940   16.1572  -32.8885 H   0  0  0  0  0  0  0  0  0  0  0  0
   -1.0862   17.7061  -35.4957 H   0  0  0  0  0  0  0  0  0  0  0  0
    1.0387   18.9697  -35.7021 H   0  0  0  0  0  0  0  0  0  0  0  0
    1.4336   20.9895  -34.3113 H   0  0  0  0  0  0  0  0  0  0  0  0
   -0.3112   21.7824  -32.7338 H   0  0  0  0  0  0  0  0  0  0  0  0
   -2.0340   22.4500  -31.5850 H   0  0  0  0  0  0  0  0  0  0  0  0
   -3.2070   21.8000  -30.6500 H   0  0  0  0  0  0  0  0  0  0  0  0
   -1.9582   20.2350  -29.6341 H   0  0  0  0  0  0  0  0  0  0  0  0
   -0.6810   20.3821  -30.9276 H   0  0  0  0  0  0  0  0  0  0  0  0
   -0.8178   21.7320  -28.3929 H   0  0  0  0  0  0  0  0  0  0  0  0
    0.4233   21.8706  -29.6931 H   0  0  0  0  0  0  0  0  0  0  0  0
   -0.2740   23.9310  -29.7620 H   0  0  0  0  0  0  0  0  0  0  0  0
   -2.0956   23.0576  -27.9155 H   0  0  0  0  0  0  0  0  0  0  0  0
   -1.7375   24.7619  -28.3819 H   0  0  0  0  0  0  0  0  0  0  0  0
   -4.0950   23.0816  -28.9898 H   0  0  0  0  0  0  0  0  0  0  0  0
   -3.8766   24.8870  -29.0500 H   0  0  0  0  0  0  0  0  0  0  0  0
   -4.3770   24.0560  -31.0820 H   0  0  0  0  0  0  0  0  0  0  0  0
  1  2  1  0
  2  3  1  0
  2  4  1  0
  4  5  1  0
  5  6  1  0
  6  7  1  0
  7  8  2  0
  8  9  1  0
  9 10  2  0
 10 11  1  0
 11 12  2  0
 12 13  1  0
 13 14  2  0
 14 15  1  0
 14 16  1  0
 16 17  2  0
 17 18  1  0
 17 19  1  0
 19 20  2  0
 20 21  1  0
 21 22  2  0
 22 23  1  0
 23 24  2  0
 24 25  1  0
 25 26  1  0
 26 27  1  0
 27 28  1  0
 28 29  1  0
 29 30  1  0
 30 31  1  0
 31 32  1  0
 25 33  2  0
 33  7  1  0
 13  8  1  0
 33 16  1  0
 24 19  1  0
  1 34  1  0
  1 35  1  0
  1 36  1  0
  3 37  1  0
  3 38  1  0
  3 39  1  0
  4 40  1  0
  4 41  1  0
  5 42  1  0
  5 43  1  0
  6 44  1  0
  9 45  1  0
 10 46  1  0
 11 47  1  0
 12 48  1  0
 15 49  1  0
 15 50  1  0
 15 51  1  0
 20 52  1  0
 21 53  1  0
 22 54  1  0
 23 55  1  0
 26 56  1  0
 26 57  1  0
 27 58  1  0
 27 59  1  0
 28 60  1  0
 28 61  1  0
 29 62  1  0
 30 63  1  0
 30 64  1  0
 31 65  1  0
 31 66  1  0
 32 67  1  0
M  CHG  2  14   1  26   1
M  END
>  <UniqueID>  (17) 
16

>  <SMILES>  (17) 
CN(C)CCNc1c2ccccc2[n+](C)c2c(Br)c3ccccc3c([NH2+]CCNCCO)c12

>  <Energy>  (17) 
129.50635015106255

>  <Genealogy>  (17) 
CN(C)CCNc1c2ccccc2[n+](C)c2c(Br)c3ccccc3c([NH2+]CCNCCO)c12 (protonated)
CN(C)CCNc1c2ccccc2[n+](C)c2c(Br)c3ccccc3c([NH2+]CCNCCO)c12 (3D coordinates assigned)
CN(C)CCNc1c2ccccc2[n+](C)c2c(Br)c3ccccc3c([NH2+]CCNCCO)c12 (optimized conformer: 129.50635015106255 kcal/mol)

>  <smiles>  (17) 
CN(C)CCNc1c2ccccc2[n+](C)c2c(Br)c3ccccc3c(NCCNCCO)c12

>  <score_type>  (17) 
oracle

>  <origin>  (17) 
adg

>  <m_score__min__energy>  (17) 
-8.25

>  <m_primary>  (17) 
energy

$$$$
17:0
     RDKit          3D

 65 67  0  0  0  0  0  0  0  0999 V2000
   -5.8820   17.5730  -34.5490 C   0  0  0  0  0  0  0  0  0  0  0  0
   -6.7390   17.3950  -33.2940 C   0  0  0  0  0  0  0  0  0  0  0  0
   -6.6990   18.5840  -32.4230 N   0  0  0  0  0  0  0  0  0  0  0  0
   -7.2360   19.7990  -33.0550 C   0  0  0  0  0  0  0  0  0  0  0  0
   -6.7720   21.1030  -32.3740 C   0  0  0  0  0  0  0  0  0  0  0  0
   -5.2560   21.3340  -32.4600 C   0  0  0  0  0  0  0  0  0  0  0  0
   -4.5950   20.2290  -33.0800 O   0  0  0  0  0  0  0  0  0  0  0  0
   -3.2300   20.1780  -33.4120 C   0  0  0  0  0  0  0  0  0  0  0  0
   -2.7770   19.0990  -34.1810 C   0  0  0  0  0  0  0  0  0  0  0  0
   -1.4260   18.9870  -34.5240 C   0  0  0  0  0  0  0  0  0  0  0  0
   -0.5070   19.9630  -34.1070 C   0  0  0  0  0  0  0  0  0  0  0  0
    0.9590   19.8250  -34.4220 C   0  0  0  0  0  0  0  0  0  0  0  0
    1.2400   20.2830  -35.8020 N   0  0  0  0  0  0  0  0  0  0  0  0
    2.6630   20.6700  -36.0100 C   0  0  0  0  0  0  0  0  0  0  0  0
    2.8870   22.1840  -36.1900 C   0  0  0  0  0  0  0  0  0  0  0  0
    1.9570   22.9810  -35.2710 C   0  0  0  0  0  0  0  0  0  0  0  0
    2.2120   24.4160  -35.4150 N   0  0  0  0  0  0  0  0  0  0  0  0
    1.9470   25.1230  -36.6340 C   0  0  0  0  0  0  0  0  0  0  0  0
    1.3580   24.5490  -37.5900 O   0  0  0  0  0  0  0  0  0  0  0  0
    2.3150   26.5700  -36.7600 C   0  0  0  0  0  0  0  0  0  0  0  0
    1.3460   27.4190  -35.9860 C   0  0  0  0  0  0  0  0  0  0  0  0
    0.0300   26.9740  -35.7640 C   0  0  0  0  0  0  0  0  0  0  0  0
   -0.8610   27.7530  -35.0220 C   0  0  0  0  0  0  0  0  0  0  0  0
   -0.4440   28.9780  -34.4880 C   0  0  0  0  0  0  0  0  0  0  0  0
    0.8660   29.4210  -34.6920 C   0  0  0  0  0  0  0  0  0  0  0  0
    1.7610   28.6450  -35.4360 C   0  0  0  0  0  0  0  0  0  0  0  0
    0.4780   22.6730  -35.5820 C   0  0  0  0  0  0  0  0  0  0  0  0
    0.2840   21.3090  -36.2750 C   0  0  0  0  0  0  0  0  0  0  0  0
   -0.9590   21.0510  -33.3470 C   0  0  0  0  0  0  0  0  0  0  0  0
   -2.3090   21.1650  -33.0060 C   0  0  0  0  0  0  0  0  0  0  0  0
   -4.8438   17.7886  -34.2565 H   0  0  0  0  0  0  0  0  0  0  0  0
   -5.9104   16.6498  -35.1464 H   0  0  0  0  0  0  0  0  0  0  0  0
   -6.2757   18.4085  -35.1464 H   0  0  0  0  0  0  0  0  0  0  0  0
   -7.7803   17.2128  -33.5982 H   0  0  0  0  0  0  0  0  0  0  0  0
   -6.3352   16.5443  -32.7254 H   0  0  0  0  0  0  0  0  0  0  0  0
   -5.7500   18.7590  -32.0180 H   0  0  0  0  0  0  0  0  0  0  0  0
   -6.9088   19.8190  -34.1050 H   0  0  0  0  0  0  0  0  0  0  0  0
   -8.3311   19.7562  -32.9601 H   0  0  0  0  0  0  0  0  0  0  0  0
   -7.2810   21.9491  -32.8588 H   0  0  0  0  0  0  0  0  0  0  0  0
   -7.0261   21.0186  -31.3071 H   0  0  0  0  0  0  0  0  0  0  0  0
   -5.0652   22.2423  -33.0503 H   0  0  0  0  0  0  0  0  0  0  0  0
   -4.8637   21.4433  -31.4382 H   0  0  0  0  0  0  0  0  0  0  0  0
   -3.4903   18.3326  -34.5183 H   0  0  0  0  0  0  0  0  0  0  0  0
   -1.0820   18.1309  -35.1229 H   0  0  0  0  0  0  0  0  0  0  0  0
    1.5400   20.4337  -33.7135 H   0  0  0  0  0  0  0  0  0  0  0  0
    1.2427   18.7658  -34.3348 H   0  0  0  0  0  0  0  0  0  0  0  0
    3.2421   20.3373  -35.1360 H   0  0  0  0  0  0  0  0  0  0  0  0
    2.9874   20.1895  -36.9448 H   0  0  0  0  0  0  0  0  0  0  0  0
    3.9316   22.4263  -35.9449 H   0  0  0  0  0  0  0  0  0  0  0  0
    2.6682   22.4525  -37.2340 H   0  0  0  0  0  0  0  0  0  0  0  0
    2.1617   22.6815  -34.2325 H   0  0  0  0  0  0  0  0  0  0  0  0
    2.7670   24.9020  -34.6710 H   0  0  0  0  0  0  0  0  0  0  0  0
    3.3297   26.7231  -36.3639 H   0  0  0  0  0  0  0  0  0  0  0  0
    2.2795   26.8593  -37.8207 H   0  0  0  0  0  0  0  0  0  0  0  0
   -0.2987   26.0087  -36.1764 H   0  0  0  0  0  0  0  0  0  0  0  0
   -1.8909   27.4036  -34.8572 H   0  0  0  0  0  0  0  0  0  0  0  0
   -1.1478   29.5925  -33.9074 H   0  0  0  0  0  0  0  0  0  0  0  0
    1.1935   30.3812  -34.2669 H   0  0  0  0  0  0  0  0  0  0  0  0
    2.7923   28.9947  -35.5913 H   0  0  0  0  0  0  0  0  0  0  0  0
   -0.0865   22.6709  -34.6379 H   0  0  0  0  0  0  0  0  0  0  0  0
    0.1163   23.4493  -36.2723 H   0  0  0  0  0  0  0  0  0  0  0  0
   -0.7382   20.9555  -36.0747 H   0  0  0  0  0  0  0  0  0  0  0  0
    0.4621   21.4562  -37.3505 H   0  0  0  0  0  0  0  0  0  0  0  0
   -0.2456   21.8204  -33.0168 H   0  0  0  0  0  0  0  0  0  0  0  0
   -2.6546   22.0283  -32.4184 H   0  0  0  0  0  0  0  0  0  0  0  0
  1  2  1  0
  2  3  1  0
  3  4  1  0
  4  5  1  0
  5  6  1  0
  6  7  1  0
  7  8  1  0
  8  9  2  0
  9 10  1  0
 10 11  2  0
 11 12  1  0
 12 13  1  0
 13 14  1  0
 14 15  1  0
 15 16  1  0
 16 17  1  0
 17 18  1  0
 18 19  2  0
 18 20  1  0
 20 21  1  0
 21 22  2  0
 22 23  1  0
 23 24  2  0
 24 25  1  0
 25 26  2  0
 16 27  1  0
 27 28  1  0
 11 29  1  0
 29 30  2  0
 30  8  1  0
 28 13  1  0
 26 21  1  0
  1 31  1  0
  1 32  1  0
  1 33  1  0
  2 34  1  0
  2 35  1  0
  3 36  1  0
  4 37  1  0
  4 38  1  0
  5 39  1  0
  5 40  1  0
  6 41  1  0
  6 42  1  0
  9 43  1  0
 10 44  1  0
 12 45  1  0
 12 46  1  0
 14 47  1  0
 14 48  1  0
 15 49  1  0
 15 50  1  0
 16 51  1  0
 17 52  1  0
 20 53  1  0
 20 54  1  0
 22 55  1  0
 23 56  1  0
 24 57  1  0
 25 58  1  0
 26 59  1  0
 27 60  1  0
 27 61  1  0
 28 62  1  0
 28 63  1  0
 29 64  1  0
 30 65  1  0
M  END
>  <UniqueID>  (18) 
17

>  <SMILES>  (18) 
CCNCCCOc1ccc(CN2CCC(NC(=O)Cc3ccccc3)CC2)cc1

>  <Energy>  (18) 
69.94948719351252

>  <Genealogy>  (18) 
CCNCCCOc1ccc(CN2CCC(NC(=O)Cc3ccccc3)CC2)cc1 (3D coordinates assigned)
CCNCCCOc1ccc(CN2CCC(NC(=O)Cc3ccccc3)CC2)cc1 (nonaromatic ring conformer: 69.94948719351252 kcal/mol)

>  <smiles>  (18) 
CCNCCCOc1ccc(CN2CCC(NC(=O)Cc3ccccc3)CC2)cc1

>  <score_type>  (18) 
oracle

>  <origin>  (18) 
adg

>  <m_score__min__energy>  (18) 
-8.9900000000000002

>  <m_primary>  (18) 
energy

$$$$
18:0
     RDKit          3D

 69 70  0  0  0  0  0  0  0  0999 V2000
   -6.4320   17.4280  -31.1840 C   0  0  0  0  0  0  0  0  0  0  0  0
   -5.7410   18.6270  -31.8280 C   0  0  0  0  0  0  0  0  0  0  0  0
   -6.6730   19.3230  -32.7450 N   0  0  0  0  0  0  0  0  0  0  0  0
   -6.2200   19.2070  -34.1510 C   0  0  0  0  0  0  0  0  0  0  0  0
   -6.1110   17.7390  -34.5590 C   0  0  0  0  0  0  0  0  0  0  0  0
   -8.0540   18.8070  -32.5870 C   0  0  0  0  0  0  0  0  0  0  0  0
   -9.0420   19.9590  -32.3990 C   0  0  0  0  0  0  0  0  0  0  0  0
   -8.3810   21.1750  -32.6820 O   0  0  0  0  0  0  0  0  0  0  0  0
   -8.4190   22.0180  -31.5510 C   0  0  0  0  0  0  0  0  0  0  0  0
   -7.2060   22.9620  -31.5690 C   0  0  0  0  0  0  0  0  0  0  0  0
   -6.0970   22.4530  -32.3970 N   0  0  0  0  0  0  0  0  0  0  0  0
   -4.8110   22.6470  -31.7610 C   0  0  0  0  0  0  0  0  0  0  0  0
   -4.6430   23.6900  -30.8300 C   0  0  0  0  0  0  0  0  0  0  0  0
   -3.4270   23.8570  -30.1420 C   0  0  0  0  0  0  0  0  0  0  0  0
   -3.2540   24.8970  -29.1630 N   0  0  0  0  0  0  0  0  0  0  0  0
   -2.1300   24.9360  -28.2240 C   0  0  0  0  0  0  0  0  0  0  0  0
   -2.2950   23.9070  -27.0930 C   0  0  0  0  0  0  0  0  0  0  0  0
   -1.2090   22.8190  -27.1260 C   0  0  0  0  0  0  0  0  0  0  0  0
   -1.7660   21.5350  -27.6030 N   0  0  0  0  0  0  0  0  0  0  0  0
   -1.3030   20.4150  -26.7690 C   0  0  0  0  0  0  0  0  0  0  0  0
   -3.2380   21.5690  -27.6280 C   0  0  0  0  0  0  0  0  0  0  0  0
   -2.3670   22.9780  -30.3970 C   0  0  0  0  0  0  0  0  0  0  0  0
   -2.5060   21.9500  -31.3380 C   0  0  0  0  0  0  0  0  0  0  0  0
   -1.4460   21.0760  -31.6100 C   0  0  0  0  0  0  0  0  0  0  0  0
   -1.6050   20.0620  -32.5550 C   0  0  0  0  0  0  0  0  0  0  0  0
   -2.8280   19.9280  -33.2230 C   0  0  0  0  0  0  0  0  0  0  0  0
   -3.0190   18.8480  -34.2390 C   0  0  0  0  0  0  0  0  0  0  0  0
   -3.8510   20.7800  -32.9390 N   0  0  0  0  0  0  0  0  0  0  0  0
   -3.7290   21.7810  -32.0250 C   0  0  0  0  0  0  0  0  0  0  0  0
   -6.3795   17.5191  -30.0890 H   0  0  0  0  0  0  0  0  0  0  0  0
   -7.4854   17.3989  -31.4994 H   0  0  0  0  0  0  0  0  0  0  0  0
   -5.9291   16.5020  -31.4994 H   0  0  0  0  0  0  0  0  0  0  0  0
   -5.4161   19.3245  -31.0419 H   0  0  0  0  0  0  0  0  0  0  0  0
   -4.8705   18.2745  -32.4007 H   0  0  0  0  0  0  0  0  0  0  0  0
   -6.9439   19.7123  -34.8073 H   0  0  0  0  0  0  0  0  0  0  0  0
   -5.2299   19.6768  -34.2455 H   0  0  0  0  0  0  0  0  0  0  0  0
   -6.0643   17.1104  -33.6575 H   0  0  0  0  0  0  0  0  0  0  0  0
   -6.9908   17.4582  -35.1566 H   0  0  0  0  0  0  0  0  0  0  0  0
   -5.1994   17.5912  -35.1566 H   0  0  0  0  0  0  0  0  0  0  0  0
   -8.3314   18.2361  -33.4854 H   0  0  0  0  0  0  0  0  0  0  0  0
   -8.0909   18.1602  -31.6980 H   0  0  0  0  0  0  0  0  0  0  0  0
   -9.8928   19.8322  -33.0846 H   0  0  0  0  0  0  0  0  0  0  0  0
   -9.4143   19.9675  -31.3640 H   0  0  0  0  0  0  0  0  0  0  0  0
   -9.3449   22.6117  -31.5681 H   0  0  0  0  0  0  0  0  0  0  0  0
   -8.3907   21.4051  -30.6380 H   0  0  0  0  0  0  0  0  0  0  0  0
   -7.5247   23.9359  -31.9689 H   0  0  0  0  0  0  0  0  0  0  0  0
   -6.8365   23.0456  -30.5363 H   0  0  0  0  0  0  0  0  0  0  0  0
   -6.1170   22.9110  -33.3380 H   0  0  0  0  0  0  0  0  0  0  0  0
   -6.2460   21.4300  -32.5630 H   0  0  0  0  0  0  0  0  0  0  0  0
   -5.4743   24.3842  -30.6378 H   0  0  0  0  0  0  0  0  0  0  0  0
   -3.9820   25.6470  -29.1120 H   0  0  0  0  0  0  0  0  0  0  0  0
   -1.2011   24.7178  -28.7712 H   0  0  0  0  0  0  0  0  0  0  0  0
   -2.0964   25.9384  -27.7722 H   0  0  0  0  0  0  0  0  0  0  0  0
   -2.2401   24.4315  -26.1277 H   0  0  0  0  0  0  0  0  0  0  0  0
   -3.2683   23.4129  -27.2291 H   0  0  0  0  0  0  0  0  0  0  0  0
   -0.4019   23.1356  -27.8030 H   0  0  0  0  0  0  0  0  0  0  0  0
   -0.8206   22.6777  -26.1066 H   0  0  0  0  0  0  0  0  0  0  0  0
   -1.4122   20.6792  -25.7068 H   0  0  0  0  0  0  0  0  0  0  0  0
   -1.9053   19.5211  -26.9883 H   0  0  0  0  0  0  0  0  0  0  0  0
   -0.2453   20.2073  -26.9883 H   0  0  0  0  0  0  0  0  0  0  0  0
   -3.6221   21.5779  -26.5973 H   0  0  0  0  0  0  0  0  0  0  0  0
   -3.5750   22.4752  -28.1527 H   0  0  0  0  0  0  0  0  0  0  0  0
   -3.6165   20.6794  -28.1527 H   0  0  0  0  0  0  0  0  0  0  0  0
   -1.4177   23.0959  -29.8539 H   0  0  0  0  0  0  0  0  0  0  0  0
   -0.4892   21.1889  -31.0792 H   0  0  0  0  0  0  0  0  0  0  0  0
   -0.7758   19.3731  -32.7735 H   0  0  0  0  0  0  0  0  0  0  0  0
   -3.1886   17.8891  -33.7274 H   0  0  0  0  0  0  0  0  0  0  0  0
   -3.8889   19.0865  -34.8686 H   0  0  0  0  0  0  0  0  0  0  0  0
   -2.1201   18.7737  -34.8686 H   0  0  0  0  0  0  0  0  0  0  0  0
  1  2  1  0
  2  3  1  0
  3  4  1  0
  4  5  1  0
  3  6  1  0
  6  7  1  0
  7  8  1  0
  8  9  1  0
  9 10  1  0
 10 11  1  0
 11 12  1  0
 12 13  2  0
 13 14  1  0
 14 15  1  0
 15 16  1  0
 16 17  1  0
 17 18  1  0
 18 19  1  0
 19 20  1  0
 19 21  1  0
 14 22  2  0
 22 23  1  0
 23 24  2  0
 24 25  1  0
 25 26  2  0
 26 27  1  0
 26 28  1  0
 28 29  2  0
 29 12  1  0
 29 23  1  0
  1 30  1  0
  1 31  1  0
  1 32  1  0
  2 33  1  0
  2 34  1  0
  4 35  1  0
  4 36  1  0
  5 37  1  0
  5 38  1  0
  5 39  1  0
  6 40  1  0
  6 41  1  0
  7 42  1  0
  7 43  1  0
  9 44  1  0
  9 45  1  0
 10 46  1  0
 10 47  1  0
 11 48  1  0
 11 49  1  0
 13 50  1  0
 15 51  1  0
 16 52  1  0
 16 53  1  0
 17 54  1  0
 17 55  1  0
 18 56  1  0
 18 57  1  0
 20 58  1  0
 20 59  1  0
 20 60  1  0
 21 61  1  0
 21 62  1  0
 21 63  1  0
 22 64  1  0
 24 65  1  0
 25 66  1  0
 27 67  1  0
 27 68  1  0
 27 69  1  0
M  CHG  1  11   1
M  END
>  <UniqueID>  (19) 
18

>  <SMILES>  (19) 
CCN(CC)CCOCC[NH2+]c1cc(NCCCN(C)C)cc2ccc(C)nc12

>  <Energy>  (19) 
61.80665360420464

>  <Genealogy>  (19) 
CCN(CC)CCOCC[NH2+]c1cc(NCCCN(C)C)cc2ccc(C)nc12 (protonated)
CCN(CC)CCOCC[NH2+]c1cc(NCCCN(C)C)cc2ccc(C)nc12 (3D coordinates assigned)
CCN(CC)CCOCC[NH2+]c1cc(NCCCN(C)C)cc2ccc(C)nc12 (optimized conformer: 61.80665360420464 kcal/mol)

>  <smiles>  (19) 
CCN(CC)CCOCCNc1cc(NCCCN(C)C)cc2ccc(C)nc12

>  <score_type>  (19) 
oracle

>  <origin>  (19) 
adg

>  <m_score__min__energy>  (19) 
-7.1900000000000004

>  <m_primary>  (19) 
energy

$$$$
19:0
     RDKit          3D

 61 64  0  0  0  0  0  0  0  0999 V2000
   -2.6370   25.2840  -26.3900 C   0  0  0  0  0  0  0  0  0  0  0  0
   -2.8560   24.5030  -27.4510 C   0  0  0  0  0  0  0  0  0  0  0  0
   -2.1860   24.7770  -28.7670 C   0  0  0  0  0  0  0  0  0  0  0  0
   -3.1260   25.2950  -29.7080 O   0  0  0  0  0  0  0  0  0  0  0  0
   -4.3040   24.6540  -30.1240 C   0  0  0  0  0  0  0  0  0  0  0  0
   -5.5230   25.3500  -29.9550 C   0  0  0  0  0  0  0  0  0  0  0  0
   -6.7470   24.7530  -30.2920 C   0  0  0  0  0  0  0  0  0  0  0  0
   -6.7240   23.4700  -30.8310 C   0  0  0  0  0  0  0  0  0  0  0  0
   -7.7930   22.7230  -31.1710 N   0  0  0  0  0  0  0  0  0  0  0  0
   -7.2760   21.5550  -31.6270 C   0  0  0  0  0  0  0  0  0  0  0  0
   -5.8960   21.5700  -31.5760 C   0  0  0  0  0  0  0  0  0  0  0  0
   -5.1450   20.4780  -31.9960 C   0  0  0  0  0  0  0  0  0  0  0  0
   -3.7220   20.5610  -32.1080 N   0  0  0  0  0  0  0  0  0  0  0  0
   -3.1200   20.7980  -33.4200 C   0  0  0  0  0  0  0  0  0  0  0  0
   -1.6270   21.1040  -33.3080 C   0  0  0  0  0  0  0  0  0  0  0  0
   -1.1370   20.7430  -31.9520 N   0  0  0  0  0  0  0  0  0  0  0  0
   -1.1470   21.9060  -31.0340 C   0  0  0  0  0  0  0  0  0  0  0  0
   -1.5640   21.4960  -29.6200 C   0  0  0  0  0  0  0  0  0  0  0  0
    0.2040   20.1170  -32.0020 C   0  0  0  0  0  0  0  0  0  0  0  0
    0.2240   18.8220  -31.1940 C   0  0  0  0  0  0  0  0  0  0  0  0
   -5.8440   19.3130  -32.3830 C   0  0  0  0  0  0  0  0  0  0  0  0
   -5.1440   18.1500  -32.7600 C   0  0  0  0  0  0  0  0  0  0  0  0
   -5.8310   16.9910  -33.1100 C   0  0  0  0  0  0  0  0  0  0  0  0
   -7.2220   16.9670  -33.0870 C   0  0  0  0  0  0  0  0  0  0  0  0
   -7.9420   18.1080  -32.7300 C   0  0  0  0  0  0  0  0  0  0  0  0
   -7.2790   19.3130  -32.3910 C   0  0  0  0  0  0  0  0  0  0  0  0
   -7.9820   20.4670  -32.0730 N   0  0  0  0  0  0  0  0  0  0  0  0
   -9.4510   20.5290  -32.1910 C   0  0  0  0  0  0  0  0  0  0  0  0
   -5.5400   22.8000  -31.0500 C   0  0  0  0  0  0  0  0  0  0  0  0
   -4.3070   23.3550  -30.6900 C   0  0  0  0  0  0  0  0  0  0  0  0
   -3.1372   25.0669  -25.4346 H   0  0  0  0  0  0  0  0  0  0  0  0
   -1.9565   26.1444  -26.4715 H   0  0  0  0  0  0  0  0  0  0  0  0
   -3.5383   23.6450  -27.3596 H   0  0  0  0  0  0  0  0  0  0  0  0
   -1.3811   25.5117  -28.6174 H   0  0  0  0  0  0  0  0  0  0  0  0
   -1.7723   23.8359  -29.1585 H   0  0  0  0  0  0  0  0  0  0  0  0
   -5.5115   26.3741  -29.5536 H   0  0  0  0  0  0  0  0  0  0  0  0
   -7.6976   25.2837  -30.1348 H   0  0  0  0  0  0  0  0  0  0  0  0
   -8.7910   23.0010  -31.0520 H   0  0  0  0  0  0  0  0  0  0  0  0
   -3.1410   20.2740  -31.2900 H   0  0  0  0  0  0  0  0  0  0  0  0
   -3.2546   19.9006  -34.0417 H   0  0  0  0  0  0  0  0  0  0  0  0
   -3.6162   21.6687  -33.8735 H   0  0  0  0  0  0  0  0  0  0  0  0
   -1.0776   20.5207  -34.0616 H   0  0  0  0  0  0  0  0  0  0  0  0
   -1.4638   22.1785  -33.4779 H   0  0  0  0  0  0  0  0  0  0  0  0
   -0.1378   22.3421  -30.9975 H   0  0  0  0  0  0  0  0  0  0  0  0
   -1.8750   22.6393  -31.4113 H   0  0  0  0  0  0  0  0  0  0  0  0
   -0.9805   22.0697  -28.8848 H   0  0  0  0  0  0  0  0  0  0  0  0
   -2.6353   21.7022  -29.4793 H   0  0  0  0  0  0  0  0  0  0  0  0
   -1.3759   20.4214  -29.4793 H   0  0  0  0  0  0  0  0  0  0  0  0
    0.4599   19.8940  -33.0483 H   0  0  0  0  0  0  0  0  0  0  0  0
    0.9369   20.8148  -31.5709 H   0  0  0  0  0  0  0  0  0  0  0  0
    0.2203   19.0598  -30.1200 H   0  0  0  0  0  0  0  0  0  0  0  0
   -0.6650   18.2226  -31.4399 H   0  0  0  0  0  0  0  0  0  0  0  0
    1.1311   18.2504  -31.4399 H   0  0  0  0  0  0  0  0  0  0  0  0
   -4.0442   18.1578  -32.7780 H   0  0  0  0  0  0  0  0  0  0  0  0
   -5.2722   16.0909  -33.4058 H   0  0  0  0  0  0  0  0  0  0  0  0
   -7.7574   16.0433  -33.3518 H   0  0  0  0  0  0  0  0  0  0  0  0
   -9.0412   18.0710  -32.7116 H   0  0  0  0  0  0  0  0  0  0  0  0
   -9.8991   20.5479  -31.1866 H   0  0  0  0  0  0  0  0  0  0  0  0
   -9.7368   21.4400  -32.7372 H   0  0  0  0  0  0  0  0  0  0  0  0
   -9.8126   19.6453  -32.7372 H   0  0  0  0  0  0  0  0  0  0  0  0
   -3.3693   22.8002  -30.8416 H   0  0  0  0  0  0  0  0  0  0  0  0
  1  2  2  0
  2  3  1  0
  3  4  1  0
  4  5  1  0
  5  6  2  0
  6  7  1  0
  7  8  2  0
  8  9  1  0
  9 10  1  0
 10 11  2  0
 11 12  1  0
 12 13  1  0
 13 14  1  0
 14 15  1  0
 15 16  1  0
 16 17  1  0
 17 18  1  0
 16 19  1  0
 19 20  1  0
 12 21  2  0
 21 22  1  0
 22 23  2  0
 23 24  1  0
 24 25  2  0
 25 26  1  0
 26 27  2  0
 27 28  1  0
 11 29  1  0
 29 30  2  0
 30  5  1  0
 29  8  1  0
 27 10  1  0
 26 21  1  0
  1 31  1  0
  1 32  1  0
  2 33  1  0
  3 34  1  0
  3 35  1  0
  6 36  1  0
  7 37  1  0
  9 38  1  0
 13 39  1  0
 14 40  1  0
 14 41  1  0
 15 42  1  0
 15 43  1  0
 17 44  1  0
 17 45  1  0
 18 46  1  0
 18 47  1  0
 18 48  1  0
 19 49  1  0
 19 50  1  0
 20 51  1  0
 20 52  1  0
 20 53  1  0
 22 54  1  0
 23 55  1  0
 24 56  1  0
 25 57  1  0
 28 58  1  0
 28 59  1  0
 28 60  1  0
 30 61  1  0
M  CHG  1  27   1
M  END
>  <UniqueID>  (20) 
19

>  <SMILES>  (20) 
C=CCOc1ccc2[nH]c3c(c(NCCN(CC)CC)c4ccccc4[n+]3C)c2c1

>  <Energy>  (20) 
115.47615369360642

>  <Genealogy>  (20) 
C=CCOc1ccc2[nH]c3c(c(NCCN(CC)CC)c4ccccc4[n+]3C)c2c1 (3D coordinates assigned)
C=CCOc1ccc2[nH]c3c(c(NCCN(CC)CC)c4ccccc4[n+]3C)c2c1 (optimized conformer: 115.47615369360642 kcal/mol)

>  <smiles>  (20) 
C=CCOc1ccc2[nH]c3c(c(NCCN(CC)CC)c4ccccc4[n+]3C)c2c1

>  <score_type>  (20) 
oracle

>  <origin>  (20) 
adg

>  <m_score__min__energy>  (20) 
-8.5800000000000001

>  <m_primary>  (20) 
energy

$$$$
20:0
     RDKit          3D

 61 64  0  0  0  0  0  0  0  0999 V2000
   -5.5980   25.3090  -30.3870 C   0  0  0  0  0  0  0  0  0  0  0  0
   -5.6950   23.9830  -29.6270 C   0  0  0  0  0  0  0  0  0  0  0  0
   -4.6530   22.9830  -29.9750 N   0  0  0  0  0  0  0  0  0  0  0  0
   -3.8580   22.5180  -28.7980 C   0  0  0  0  0  0  0  0  0  0  0  0
   -3.8830   23.4370  -27.5640 C   0  0  0  0  0  0  0  0  0  0  0  0
   -3.8580   23.3810  -31.1660 C   0  0  0  0  0  0  0  0  0  0  0  0
   -3.5270   22.1810  -32.0710 C   0  0  0  0  0  0  0  0  0  0  0  0
   -4.5680   22.0020  -33.0810 N   0  0  0  0  0  0  0  0  0  0  0  0
   -5.6450   21.0900  -32.8320 C   0  0  0  0  0  0  0  0  0  0  0  0
   -6.9230   21.5690  -32.4550 C   0  0  0  0  0  0  0  0  0  0  0  0
   -7.1490   22.9490  -32.2660 C   0  0  0  0  0  0  0  0  0  0  0  0
   -8.4160   23.4260  -31.9430 C   0  0  0  0  0  0  0  0  0  0  0  0
   -9.4830   22.5450  -31.8180 C   0  0  0  0  0  0  0  0  0  0  0  0
   -9.2900   21.1740  -31.9910 C   0  0  0  0  0  0  0  0  0  0  0  0
   -8.0080   20.6470  -32.2820 C   0  0  0  0  0  0  0  0  0  0  0  0
   -7.7970   19.2840  -32.4270 N   0  0  0  0  0  0  0  0  0  0  0  0
   -8.8030   18.3010  -31.9880 C   0  0  0  0  0  0  0  0  0  0  0  0
   -6.5830   18.8640  -32.9110 C   0  0  0  0  0  0  0  0  0  0  0  0
   -6.1490   17.6040  -33.3230 C   0  0  0  0  0  0  0  0  0  0  0  0
   -6.8170   16.3940  -33.5510 C   0  0  0  0  0  0  0  0  0  0  0  0
   -6.0850   15.2940  -34.0330 C   0  0  0  0  0  0  0  0  0  0  0  0
   -6.7640   14.0830  -34.2320 O   0  0  0  0  0  0  0  0  0  0  0  0
   -6.1260   12.8230  -34.4150 C   0  0  0  0  0  0  0  0  0  0  0  0
   -4.7020   15.4400  -34.3110 C   0  0  0  0  0  0  0  0  0  0  0  0
   -4.0610   16.6740  -34.1270 C   0  0  0  0  0  0  0  0  0  0  0  0
   -4.8100   17.7490  -33.6320 C   0  0  0  0  0  0  0  0  0  0  0  0
   -4.3930   19.0250  -33.4430 N   0  0  0  0  0  0  0  0  0  0  0  0
   -3.0340   19.5340  -33.6510 C   0  0  0  0  0  0  0  0  0  0  0  0
   -5.5010   19.7130  -33.0520 C   0  0  0  0  0  0  0  0  0  0  0  0
   -5.5372   26.1398  -29.6686 H   0  0  0  0  0  0  0  0  0  0  0  0
   -4.6978   25.3043  -31.0192 H   0  0  0  0  0  0  0  0  0  0  0  0
   -6.4893   25.4354  -31.0192 H   0  0  0  0  0  0  0  0  0  0  0  0
   -5.6149   24.1993  -28.5515 H   0  0  0  0  0  0  0  0  0  0  0  0
   -6.6586   23.5351  -29.9114 H   0  0  0  0  0  0  0  0  0  0  0  0
   -5.2120   22.1470  -30.2730 H   0  0  0  0  0  0  0  0  0  0  0  0
   -4.2487   21.5356  -28.4944 H   0  0  0  0  0  0  0  0  0  0  0  0
   -2.8109   22.5004  -29.1346 H   0  0  0  0  0  0  0  0  0  0  0  0
   -3.8663   22.8246  -26.6504 H   0  0  0  0  0  0  0  0  0  0  0  0
   -3.0025   24.0961  -27.5798 H   0  0  0  0  0  0  0  0  0  0  0  0
   -4.7981   24.0472  -27.5798 H   0  0  0  0  0  0  0  0  0  0  0  0
   -4.4347   24.1151  -31.7478 H   0  0  0  0  0  0  0  0  0  0  0  0
   -2.9087   23.8085  -30.8111 H   0  0  0  0  0  0  0  0  0  0  0  0
   -2.5636   22.3591  -32.5711 H   0  0  0  0  0  0  0  0  0  0  0  0
   -3.4698   21.2730  -31.4528 H   0  0  0  0  0  0  0  0  0  0  0  0
   -4.3130   22.1700  -34.0810 H   0  0  0  0  0  0  0  0  0  0  0  0
   -6.3137   23.6563  -32.3753 H   0  0  0  0  0  0  0  0  0  0  0  0
   -8.5730   24.5034  -31.7863 H   0  0  0  0  0  0  0  0  0  0  0  0
  -10.4857   22.9305  -31.5813 H   0  0  0  0  0  0  0  0  0  0  0  0
  -10.1476   20.4912  -31.8999 H   0  0  0  0  0  0  0  0  0  0  0  0
   -8.8323   18.2723  -30.8888 H   0  0  0  0  0  0  0  0  0  0  0  0
   -9.7915   18.5908  -32.3738 H   0  0  0  0  0  0  0  0  0  0  0  0
   -8.5361   17.3060  -32.3738 H   0  0  0  0  0  0  0  0  0  0  0  0
   -7.8960   16.3056  -33.3563 H   0  0  0  0  0  0  0  0  0  0  0  0
   -5.9015   12.3797  -33.4336 H   0  0  0  0  0  0  0  0  0  0  0  0
   -6.7931   12.1523  -34.9764 H   0  0  0  0  0  0  0  0  0  0  0  0
   -5.1906   12.9638  -34.9764 H   0  0  0  0  0  0  0  0  0  0  0  0
   -4.1259   14.5764  -34.6748 H   0  0  0  0  0  0  0  0  0  0  0  0
   -2.9941   16.7947  -34.3661 H   0  0  0  0  0  0  0  0  0  0  0  0
   -2.5563   19.7129  -32.6764 H   0  0  0  0  0  0  0  0  0  0  0  0
   -2.4480   18.7944  -34.2163 H   0  0  0  0  0  0  0  0  0  0  0  0
   -3.0780   20.4766  -34.2163 H   0  0  0  0  0  0  0  0  0  0  0  0
  1  2  1  0
  2  3  1  0
  3  4  1  0
  4  5  1  0
  3  6  1  0
  6  7  1  0
  7  8  1  0
  8  9  1  0
  9 10  2  0
 10 11  1  0
 11 12  2  0
 12 13  1  0
 13 14  2  0
 14 15  1  0
 15 16  2  0
 16 17  1  0
 16 18  1  0
 18 19  1  0
 19 20  2  0
 20 21  1  0
 21 22  1  0
 22 23  1  0
 21 24  2  0
 24 25  1  0
 25 26  2  0
 26 27  1  0
 27 28  1  0
 27 29  1  0
 29  9  1  0
 15 10  1  0
 29 18  2  0
 26 19  1  0
  1 30  1  0
  1 31  1  0
  1 32  1  0
  2 33  1  0
  2 34  1  0
  3 35  1  0
  4 36  1  0
  4 37  1  0
  5 38  1  0
  5 39  1  0
  5 40  1  0
  6 41  1  0
  6 42  1  0
  7 43  1  0
  7 44  1  0
  8 45  1  0
 11 46  1  0
 12 47  1  0
 13 48  1  0
 14 49  1  0
 17 50  1  0
 17 51  1  0
 17 52  1  0
 20 53  1  0
 23 54  1  0
 23 55  1  0
 23 56  1  0
 24 57  1  0
 25 58  1  0
 28 59  1  0
 28 60  1  0
 28 61  1  0
M  CHG  2   3   1  16   1
M  END
>  <UniqueID>  (21) 
20

>  <SMILES>  (21) 
CC[NH+](CC)CCNc1c2ccccc2[n+](C)c2c3cc(OC)ccc3n(C)c12

>  <Energy>  (21) 
134.95679537725803

>  <Genealogy>  (21) 
CC[NH+](CC)CCNc1c2ccccc2[n+](C)c2c3cc(OC)ccc3n(C)c12 (protonated)
CC[NH+](CC)CCNc1c2ccccc2[n+](C)c2c3cc(OC)ccc3n(C)c12 (3D coordinates assigned)
CC[NH+](CC)CCNc1c2ccccc2[n+](C)c2c3cc(OC)ccc3n(C)c12 (optimized conformer: 134.95679537725803 kcal/mol)

>  <smiles>  (21) 
CCN(CC)CCNc1c2ccccc2[n+](C)c2c3cc(OC)ccc3n(C)c12

>  <score_type>  (21) 
oracle

>  <origin>  (21) 
adg

>  <m_score__min__energy>  (21) 
-7.6200000000000001

>  <m_primary>  (21) 
energy

$$$$
21:0
     RDKit          3D

 56 58  0  0  0  0  0  0  0  0999 V2000
   -3.5310   24.1920  -29.8490 C   0  0  0  0  0  0  0  0  0  0  0  0
   -4.8840   24.5230  -29.2200 C   0  0  0  0  0  0  0  0  0  0  0  0
   -5.8390   25.2260  -30.2020 C   0  0  0  0  0  0  0  0  0  0  0  0
   -7.2160   24.5520  -30.3280 C   0  0  0  0  0  0  0  0  0  0  0  0
   -7.1330   23.2330  -31.0370 C   0  0  0  0  0  0  0  0  0  0  0  0
   -6.0890   22.8260  -31.8600 C   0  0  0  0  0  0  0  0  0  0  0  0
   -6.2270   21.4990  -32.3180 C   0  0  0  0  0  0  0  0  0  0  0  0
   -5.3210   20.7810  -33.1230 C   0  0  0  0  0  0  0  0  0  0  0  0
   -4.0850   21.3980  -33.5790 N   0  0  0  0  0  0  0  0  0  0  0  0
   -3.2350   21.8410  -32.4560 C   0  0  0  0  0  0  0  0  0  0  0  0
   -1.8470   21.1800  -32.4720 C   0  0  0  0  0  0  0  0  0  0  0  0
   -1.7140   20.2900  -33.6460 N   0  0  0  0  0  0  0  0  0  0  0  0
   -0.6690   20.7530  -34.5760 C   0  0  0  0  0  0  0  0  0  0  0  0
   -1.5330   18.8690  -33.2680 C   0  0  0  0  0  0  0  0  0  0  0  0
   -1.4940   17.9060  -34.4640 C   0  0  0  0  0  0  0  0  0  0  0  0
   -5.6430   19.4240  -33.4310 C   0  0  0  0  0  0  0  0  0  0  0  0
   -4.7840   18.6210  -34.2180 C   0  0  0  0  0  0  0  0  0  0  0  0
   -5.0990   17.2940  -34.4990 C   0  0  0  0  0  0  0  0  0  0  0  0
   -6.2700   16.7330  -34.0100 C   0  0  0  0  0  0  0  0  0  0  0  0
   -7.1400   17.4930  -33.2340 C   0  0  0  0  0  0  0  0  0  0  0  0
   -6.8590   18.8480  -32.9280 C   0  0  0  0  0  0  0  0  0  0  0  0
   -7.7240   19.5990  -32.1540 N   0  0  0  0  0  0  0  0  0  0  0  0
   -8.9820   19.0240  -31.6420 C   0  0  0  0  0  0  0  0  0  0  0  0
   -7.3860   20.8910  -31.8550 C   0  0  0  0  0  0  0  0  0  0  0  0
   -8.2300   21.9720  -30.8680 S   0  0  0  0  0  0  0  0  0  0  0  0
   -2.7918   24.0112  -29.0547 H   0  0  0  0  0  0  0  0  0  0  0  0
   -3.6271   23.2909  -30.4725 H   0  0  0  0  0  0  0  0  0  0  0  0
   -3.2003   25.0357  -30.4725 H   0  0  0  0  0  0  0  0  0  0  0  0
   -5.3532   23.5874  -28.8815 H   0  0  0  0  0  0  0  0  0  0  0  0
   -4.7016   25.2124  -28.3825 H   0  0  0  0  0  0  0  0  0  0  0  0
   -5.9903   26.2595  -29.8570 H   0  0  0  0  0  0  0  0  0  0  0  0
   -5.3681   25.1748  -31.1948 H   0  0  0  0  0  0  0  0  0  0  0  0
   -7.6249   24.3883  -29.3200 H   0  0  0  0  0  0  0  0  0  0  0  0
   -7.8660   25.2147  -30.9182 H   0  0  0  0  0  0  0  0  0  0  0  0
   -5.2409   23.4735  -32.1271 H   0  0  0  0  0  0  0  0  0  0  0  0
   -3.5530   20.7240  -34.1730 H   0  0  0  0  0  0  0  0  0  0  0  0
   -4.2650   22.2020  -34.2180 H   0  0  0  0  0  0  0  0  0  0  0  0
   -3.1071   22.9317  -32.5193 H   0  0  0  0  0  0  0  0  0  0  0  0
   -3.7350   21.5460  -31.5217 H   0  0  0  0  0  0  0  0  0  0  0  0
   -1.0740   21.9611  -32.5197 H   0  0  0  0  0  0  0  0  0  0  0  0
   -1.7250   20.5834  -31.5559 H   0  0  0  0  0  0  0  0  0  0  0  0
    0.1895   21.1334  -34.0030 H   0  0  0  0  0  0  0  0  0  0  0  0
   -0.3444   19.9145  -35.2096 H   0  0  0  0  0  0  0  0  0  0  0  0
   -1.0720   21.5568  -35.2096 H   0  0  0  0  0  0  0  0  0  0  0  0
   -0.5855   18.7753  -32.7171 H   0  0  0  0  0  0  0  0  0  0  0  0
   -2.4053   18.5872  -32.6600 H   0  0  0  0  0  0  0  0  0  0  0  0
   -1.4520   16.8693  -34.0988 H   0  0  0  0  0  0  0  0  0  0  0  0
   -2.3984   18.0432  -35.0749 H   0  0  0  0  0  0  0  0  0  0  0  0
   -0.6036   18.1159  -35.0749 H   0  0  0  0  0  0  0  0  0  0  0  0
   -3.8526   19.0518  -34.6141 H   0  0  0  0  0  0  0  0  0  0  0  0
   -4.4160   16.6874  -35.1118 H   0  0  0  0  0  0  0  0  0  0  0  0
   -6.5115   15.6840  -34.2364 H   0  0  0  0  0  0  0  0  0  0  0  0
   -8.0631   17.0334  -32.8509 H   0  0  0  0  0  0  0  0  0  0  0  0
   -8.9673   19.0307  -30.5421 H   0  0  0  0  0  0  0  0  0  0  0  0
   -9.8318   19.6231  -32.0010 H   0  0  0  0  0  0  0  0  0  0  0  0
   -9.0851   17.9894  -32.0010 H   0  0  0  0  0  0  0  0  0  0  0  0
  1  2  1  0
  2  3  1  0
  3  4  1  0
  4  5  1  0
  5  6  2  0
  6  7  1  0
  7  8  2  0
  8  9  1  0
  9 10  1  0
 10 11  1  0
 11 12  1  0
 12 13  1  0
 12 14  1  0
 14 15  1  0
  8 16  1  0
 16 17  2  0
 17 18  1  0
 18 19  2  0
 19 20  1  0
 20 21  2  0
 21 22  1  0
 22 23  1  0
 22 24  2  0
 24 25  1  0
 25  5  1  0
 24  7  1  0
 21 16  1  0
  1 26  1  0
  1 27  1  0
  1 28  1  0
  2 29  1  0
  2 30  1  0
  3 31  1  0
  3 32  1  0
  4 33  1  0
  4 34  1  0
  6 35  1  0
  9 36  1  0
  9 37  1  0
 10 38  1  0
 10 39  1  0
 11 40  1  0
 11 41  1  0
 13 42  1  0
 13 43  1  0
 13 44  1  0
 14 45  1  0
 14 46  1  0
 15 47  1  0
 15 48  1  0
 15 49  1  0
 17 50  1  0
 18 51  1  0
 19 52  1  0
 20 53  1  0
 23 54  1  0
 23 55  1  0
 23 56  1  0
M  CHG  2   9   1  22   1
M  END
>  <UniqueID>  (22) 
21

>  <SMILES>  (22) 
CCCCc1cc2c([NH2+]CCN(C)CC)c3ccccc3[n+](C)c2s1

>  <Energy>  (22) 
95.14386617123068

>  <Genealogy>  (22) 
CCCCc1cc2c([NH2+]CCN(C)CC)c3ccccc3[n+](C)c2s1 (protonated)
CCCCc1cc2c([NH2+]CCN(C)CC)c3ccccc3[n+](C)c2s1 (3D coordinates assigned)
CCCCc1cc2c([NH2+]CCN(C)CC)c3ccccc3[n+](C)c2s1 (optimized conformer: 95.14386617123068 kcal/mol)

>  <smiles>  (22) 
CCCCc1cc2c(NCCN(C)CC)c3ccccc3[n+](C)c2s1

>  <score_type>  (22) 
oracle

>  <origin>  (22) 
adg

>  <m_score__min__energy>  (22) 
-8.0399999999999991

>  <m_primary>  (22) 
energy

$$$$
22:0
     RDKit          3D

 57 59  0  0  0  0  0  0  0  0999 V2000
   -4.1340   22.8670  -28.3440 C   0  0  0  0  0  0  0  0  0  0  0  0
   -2.7150   22.3980  -28.7060 C   0  0  0  0  0  0  0  0  0  0  0  0
   -2.5290   20.9220  -28.6790 N   0  0  0  0  0  0  0  0  0  0  0  0
   -1.9430   20.4350  -27.4020 C   0  0  0  0  0  0  0  0  0  0  0  0
   -2.7710   19.3230  -26.7500 C   0  0  0  0  0  0  0  0  0  0  0  0
   -1.7250   20.4500  -29.8460 C   0  0  0  0  0  0  0  0  0  0  0  0
   -1.7890   21.3980  -31.0670 C   0  0  0  0  0  0  0  0  0  0  0  0
   -1.7980   20.6880  -32.4340 C   0  0  0  0  0  0  0  0  0  0  0  0
   -2.8860   21.1610  -33.2930 N   0  0  0  0  0  0  0  0  0  0  0  0
   -4.2410   20.7590  -33.0290 C   0  0  0  0  0  0  0  0  0  0  0  0
   -4.7000   19.5070  -33.4740 C   0  0  0  0  0  0  0  0  0  0  0  0
   -3.8520   18.6440  -34.2030 C   0  0  0  0  0  0  0  0  0  0  0  0
   -4.3230   17.4260  -34.6870 C   0  0  0  0  0  0  0  0  0  0  0  0
   -5.6420   17.0510  -34.4630 C   0  0  0  0  0  0  0  0  0  0  0  0
   -6.4910   17.8770  -33.7250 C   0  0  0  0  0  0  0  0  0  0  0  0
   -6.0290   19.1030  -33.1810 C   0  0  0  0  0  0  0  0  0  0  0  0
   -6.8390   19.9010  -32.3950 N   0  0  0  0  0  0  0  0  0  0  0  0
   -8.1040   19.3600  -31.8470 C   0  0  0  0  0  0  0  0  0  0  0  0
   -6.4560   21.1960  -32.1010 C   0  0  0  0  0  0  0  0  0  0  0  0
   -7.3600   22.1300  -31.5350 C   0  0  0  0  0  0  0  0  0  0  0  0
   -6.9530   23.4230  -31.2080 C   0  0  0  0  0  0  0  0  0  0  0  0
   -5.6390   23.8360  -31.4530 C   0  0  0  0  0  0  0  0  0  0  0  0
   -5.1830   25.1250  -31.1380 O   0  0  0  0  0  0  0  0  0  0  0  0
   -5.7360   25.9470  -30.1140 C   0  0  0  0  0  0  0  0  0  0  0  0
   -4.7450   22.9440  -32.0430 C   0  0  0  0  0  0  0  0  0  0  0  0
   -5.1360   21.6320  -32.3840 C   0  0  0  0  0  0  0  0  0  0  0  0
   -4.2405   22.9022  -27.2497 H   0  0  0  0  0  0  0  0  0  0  0  0
   -4.3064   23.8699  -28.7617 H   0  0  0  0  0  0  0  0  0  0  0  0
   -4.8701   22.1644  -28.7617 H   0  0  0  0  0  0  0  0  0  0  0  0
   -2.4830   22.7553  -29.7201 H   0  0  0  0  0  0  0  0  0  0  0  0
   -2.0428   22.8128  -27.9404 H   0  0  0  0  0  0  0  0  0  0  0  0
   -3.4930   20.5230  -28.7550 H   0  0  0  0  0  0  0  0  0  0  0  0
   -0.9335   20.0477  -27.6045 H   0  0  0  0  0  0  0  0  0  0  0  0
   -1.9240   21.2843  -26.7033 H   0  0  0  0  0  0  0  0  0  0  0  0
   -2.7056   19.4109  -25.6555 H   0  0  0  0  0  0  0  0  0  0  0  0
   -3.8213   19.4163  -27.0632 H   0  0  0  0  0  0  0  0  0  0  0  0
   -2.3806   18.3435  -27.0632 H   0  0  0  0  0  0  0  0  0  0  0  0
   -0.6750   20.3594  -29.5309 H   0  0  0  0  0  0  0  0  0  0  0  0
   -2.1516   19.4869  -30.1630 H   0  0  0  0  0  0  0  0  0  0  0  0
   -2.7072   21.9984  -30.9868 H   0  0  0  0  0  0  0  0  0  0  0  0
   -0.8715   22.0040  -31.0380 H   0  0  0  0  0  0  0  0  0  0  0  0
   -0.8393   20.8780  -32.9388 H   0  0  0  0  0  0  0  0  0  0  0  0
   -1.9492   19.6130  -32.2565 H   0  0  0  0  0  0  0  0  0  0  0  0
   -2.6780   21.5470  -34.2400 H   0  0  0  0  0  0  0  0  0  0  0  0
   -2.8085   18.9371  -34.3904 H   0  0  0  0  0  0  0  0  0  0  0  0
   -3.6501   16.7602  -35.2472 H   0  0  0  0  0  0  0  0  0  0  0  0
   -6.0182   16.1002  -34.8686 H   0  0  0  0  0  0  0  0  0  0  0  0
   -7.5354   17.5724  -33.5625 H   0  0  0  0  0  0  0  0  0  0  0  0
   -8.0644   19.3770  -30.7478 H   0  0  0  0  0  0  0  0  0  0  0  0
   -8.9468   19.9764  -32.1931 H   0  0  0  0  0  0  0  0  0  0  0  0
   -8.2405   18.3248  -32.1931 H   0  0  0  0  0  0  0  0  0  0  0  0
   -8.4018   21.8291  -31.3504 H   0  0  0  0  0  0  0  0  0  0  0  0
   -7.6700   24.1230  -30.7543 H   0  0  0  0  0  0  0  0  0  0  0  0
   -5.4623   25.5401  -29.1294 H   0  0  0  0  0  0  0  0  0  0  0  0
   -5.3411   26.9691  -30.2110 H   0  0  0  0  0  0  0  0  0  0  0  0
   -6.8315   25.9664  -30.2110 H   0  0  0  0  0  0  0  0  0  0  0  0
   -3.7142   23.2695  -32.2468 H   0  0  0  0  0  0  0  0  0  0  0  0
  1  2  1  0
  2  3  1  0
  3  4  1  0
  4  5  1  0
  3  6  1  0
  6  7  1  0
  7  8  1  0
  8  9  1  0
  9 10  1  0
 10 11  2  0
 11 12  1  0
 12 13  2  0
 13 14  1  0
 14 15  2  0
 15 16  1  0
 16 17  2  0
 17 18  1  0
 17 19  1  0
 19 20  2  0
 20 21  1  0
 21 22  2  0
 22 23  1  0
 23 24  1  0
 22 25  1  0
 25 26  2  0
 26 10  1  0
 16 11  1  0
 26 19  1  0
  1 27  1  0
  1 28  1  0
  1 29  1  0
  2 30  1  0
  2 31  1  0
  3 32  1  0
  4 33  1  0
  4 34  1  0
  5 35  1  0
  5 36  1  0
  5 37  1  0
  6 38  1  0
  6 39  1  0
  7 40  1  0
  7 41  1  0
  8 42  1  0
  8 43  1  0
  9 44  1  0
 12 45  1  0
 13 46  1  0
 14 47  1  0
 15 48  1  0
 18 49  1  0
 18 50  1  0
 18 51  1  0
 20 52  1  0
 21 53  1  0
 24 54  1  0
 24 55  1  0
 24 56  1  0
 25 57  1  0
M  CHG  2   3   1  17   1
M  END
>  <UniqueID>  (23) 
22

>  <SMILES>  (23) 
CC[NH+](CC)CCCNc1c2ccccc2[n+](C)c2ccc(OC)cc12

>  <Energy>  (23) 
88.00881434060152

>  <Genealogy>  (23) 
CC[NH+](CC)CCCNc1c2ccccc2[n+](C)c2ccc(OC)cc12 (protonated)
CC[NH+](CC)CCCNc1c2ccccc2[n+](C)c2ccc(OC)cc12 (3D coordinates assigned)
CC[NH+](CC)CCCNc1c2ccccc2[n+](C)c2ccc(OC)cc12 (optimized conformer: 88.00881434060152 kcal/mol)

>  <smiles>  (23) 
CCN(CC)CCCNc1c2ccccc2[n+](C)c2ccc(OC)cc12

>  <score_type>  (23) 
oracle

>  <origin>  (23) 
adg

>  <m_score__min__energy>  (23) 
-7.1299999999999999

>  <m_primary>  (23) 
energy

$$$$
23:0
     RDKit          3D

 47 50  0  0  0  0  0  0  0  0999 V2000
   -5.3680   18.0140  -34.9020 C   0  0  0  0  0  0  0  0  0  0  0  0
   -5.3780   18.8120  -33.6580 N   0  0  1  0  0  0  0  0  0  0  0  0
   -6.2010   18.1650  -32.6070 C   0  0  0  0  0  0  0  0  0  0  0  0
   -7.4170   18.9840  -32.2490 C   0  0  0  0  0  0  0  0  0  0  0  0
   -8.7210   18.5520  -32.3420 C   0  0  0  0  0  0  0  0  0  0  0  0
   -9.5490   19.5430  -31.9590 N   0  0  0  0  0  0  0  0  0  0  0  0
   -8.7230   20.5650  -31.6450 C   0  0  0  0  0  0  0  0  0  0  0  0
   -7.4150   20.2590  -31.8010 N   0  0  0  0  0  0  0  0  0  0  0  0
   -6.2370   21.1200  -31.6040 C   0  0  0  0  0  0  0  0  0  0  0  0
   -6.3020   22.4850  -32.3280 C   0  0  0  0  0  0  0  0  0  0  0  0
   -7.3080   23.4320  -31.7930 N   0  0  0  0  0  0  0  0  0  0  0  0
   -7.0380   23.9660  -30.4400 C   0  0  0  0  0  0  0  0  0  0  0  0
   -5.5830   24.2820  -30.2550 C   0  0  0  0  0  0  0  0  0  0  0  0
   -4.6570   23.5310  -29.5630 C   0  0  0  0  0  0  0  0  0  0  0  0
   -3.4650   24.2140  -29.6840 C   0  0  0  0  0  0  0  0  0  0  0  0
   -3.6460   25.3050  -30.3960 O   0  0  0  0  0  0  0  0  0  0  0  0
   -4.9080   25.3760  -30.7540 C   0  0  0  0  0  0  0  0  0  0  0  0
   -8.7240   23.0440  -32.0160 C   0  0  0  0  0  0  0  0  0  0  0  0
   -9.2260   21.8790  -31.1460 C   0  0  0  0  0  0  0  0  0  0  0  0
   -4.0420   19.1810  -33.1070 C   0  0  0  0  0  0  0  0  0  0  0  0
   -2.9150   19.3040  -34.1290 C   0  0  0  0  0  0  0  0  0  0  0  0
   -3.4290   20.5500  -33.4250 C   0  0  0  0  0  0  0  0  0  0  0  0
   -5.3546   16.9432  -34.6506 H   0  0  0  0  0  0  0  0  0  0  0  0
   -6.2691   18.2412  -35.4906 H   0  0  0  0  0  0  0  0  0  0  0  0
   -4.4729   18.2637  -35.4906 H   0  0  0  0  0  0  0  0  0  0  0  0
   -5.8280   19.7240  -33.9040 H   0  0  0  0  0  0  0  0  0  0  0  0
   -6.5315   17.1813  -32.9717 H   0  0  0  0  0  0  0  0  0  0  0  0
   -5.5805   18.0699  -31.7037 H   0  0  0  0  0  0  0  0  0  0  0  0
   -9.0374   17.5531  -32.6769 H   0  0  0  0  0  0  0  0  0  0  0  0
   -6.1283   21.3095  -30.5259 H   0  0  0  0  0  0  0  0  0  0  0  0
   -5.3829   20.5798  -32.0385 H   0  0  0  0  0  0  0  0  0  0  0  0
   -5.3125   22.9593  -32.2509 H   0  0  0  0  0  0  0  0  0  0  0  0
   -6.6043   22.2689  -33.3633 H   0  0  0  0  0  0  0  0  0  0  0  0
   -7.6249   24.8849  -30.2945 H   0  0  0  0  0  0  0  0  0  0  0  0
   -7.3217   23.2001  -29.7032 H   0  0  0  0  0  0  0  0  0  0  0  0
   -4.8319   22.5863  -29.0273 H   0  0  0  0  0  0  0  0  0  0  0  0
   -2.5062   23.8942  -29.2499 H   0  0  0  0  0  0  0  0  0  0  0  0
   -5.3553   26.1805  -31.3563 H   0  0  0  0  0  0  0  0  0  0  0  0
   -9.3545   23.9210  -31.8079 H   0  0  0  0  0  0  0  0  0  0  0  0
   -8.7862   22.6972  -33.0580 H   0  0  0  0  0  0  0  0  0  0  0  0
   -8.8753   22.0271  -30.1140 H   0  0  0  0  0  0  0  0  0  0  0  0
  -10.3251   21.8658  -31.1889 H   0  0  0  0  0  0  0  0  0  0  0  0
   -4.2243   18.6350  -32.1696 H   0  0  0  0  0  0  0  0  0  0  0  0
   -1.9144   18.9132  -33.8923 H   0  0  0  0  0  0  0  0  0  0  0  0
   -2.7850   19.0050  -35.1796 H   0  0  0  0  0  0  0  0  0  0  0  0
   -2.8013   21.0584  -32.6784 H   0  0  0  0  0  0  0  0  0  0  0  0
   -3.8248   21.5221  -33.7541 H   0  0  0  0  0  0  0  0  0  0  0  0
  1  2  1  0
  2  3  1  0
  3  4  1  0
  4  5  2  0
  5  6  1  0
  6  7  2  0
  7  8  1  0
  8  9  1  0
  9 10  1  0
 10 11  1  0
 11 12  1  0
 12 13  1  0
 13 14  1  0
 14 15  2  0
 15 16  1  0
 16 17  1  0
 11 18  1  0
 18 19  1  0
  2 20  1  0
 20 21  1  0
 21 22  1  0
  8  4  1  0
 17 13  2  0
 22 20  1  0
 19  7  1  0
  1 23  1  0
  1 24  1  0
  1 25  1  0
  2 26  1  6
  3 27  1  0
  3 28  1  0
  5 29  1  0
  9 30  1  0
  9 31  1  0
 10 32  1  0
 10 33  1  0
 12 34  1  0
 12 35  1  0
 14 36  1  0
 15 37  1  0
 17 38  1  0
 18 39  1  0
 18 40  1  0
 19 41  1  0
 19 42  1  0
 20 43  1  0
 21 44  1  0
 21 45  1  0
 22 46  1  0
 22 47  1  0
M  CHG  1   2   1
M  END
>  <UniqueID>  (24) 
23

>  <SMILES>  (24) 
C[N@@H+](Cc1cnc2n1CCN(Cc1ccoc1)CC2)C1CC1

>  <Energy>  (24) 
392.76334437773886

>  <Genealogy>  (24) 
C[NH+](Cc1cnc2n1CCN(Cc1ccoc1)CC2)C1CC1 (protonated)
C[N@@H+](Cc1cnc2n1CCN(Cc1ccoc1)CC2)C1CC1 (chirality)
C[N@@H+](Cc1cnc2n1CCN(Cc1ccoc1)CC2)C1CC1 (3D coordinates assigned)
C[N@@H+](Cc1cnc2n1CCN(Cc1ccoc1)CC2)C1CC1 (nonaromatic ring conformer: 392.76334437773886 kcal/mol)

>  <smiles>  (24) 
CN(Cc1cnc2n1CCN(Cc1ccoc1)CC2)C1CC1

>  <score_type>  (24) 
oracle

>  <origin>  (24) 
adg

>  <m_score__min__energy>  (24) 
-6.6100000000000003

>  <m_primary>  (24) 
energy

$$$$
24:0
     RDKit          3D

 47 48  0  0  0  0  0  0  0  0999 V2000
   -5.2900   25.6080  -30.4690 C   0  0  0  0  0  0  0  0  0  0  0  0
   -3.9150   25.2910  -30.4660 O   0  0  0  0  0  0  0  0  0  0  0  0
   -3.6760   24.1360  -29.6840 C   0  0  0  0  0  0  0  0  0  0  0  0
   -4.7870   23.1030  -29.9140 C   0  0  0  0  0  0  0  0  0  0  0  0
   -4.2410   21.7550  -30.4090 C   0  0  0  0  0  0  0  0  0  0  0  0
   -3.1800   21.9040  -31.4360 N   0  0  0  0  0  0  0  0  0  0  0  0
   -3.7460   22.2470  -32.7670 C   0  0  0  0  0  0  0  0  0  0  0  0
   -3.8850   21.0400  -33.7210 C   0  0  0  0  0  0  0  0  0  0  0  0
   -4.0070   19.7880  -32.9660 N   0  0  0  0  0  0  0  0  0  0  0  0
   -5.0320   18.8180  -33.2510 C   0  0  0  0  0  0  0  0  0  0  0  0
   -4.7920   17.5910  -33.0900 O   0  0  0  0  0  0  0  0  0  0  0  0
   -6.3980   19.2300  -33.7210 C   0  0  0  0  0  0  0  0  0  0  0  0
   -7.0310   20.1320  -32.7560 N   0  0  0  0  0  0  0  0  0  0  0  0
   -6.8120   21.4380  -32.7240 N   0  0  0  0  0  0  0  0  0  0  0  0
   -7.6170   21.9620  -31.7780 C   0  0  0  0  0  0  0  0  0  0  0  0
   -7.7230   23.4210  -31.4900 C   0  0  0  0  0  0  0  0  0  0  0  0
   -8.4000   20.9700  -31.2160 C   0  0  0  0  0  0  0  0  0  0  0  0
   -8.0010   19.8190  -31.8650 C   0  0  0  0  0  0  0  0  0  0  0  0
   -8.5920   18.4580  -31.6620 C   0  0  0  0  0  0  0  0  0  0  0  0
   -2.9730   19.4700  -31.9740 C   0  0  0  0  0  0  0  0  0  0  0  0
   -2.2550   20.7500  -31.5140 C   0  0  0  0  0  0  0  0  0  0  0  0
   -5.6494   25.6909  -29.4327 H   0  0  0  0  0  0  0  0  0  0  0  0
   -5.4445   26.5653  -30.9883 H   0  0  0  0  0  0  0  0  0  0  0  0
   -5.8480   24.8149  -30.9883 H   0  0  0  0  0  0  0  0  0  0  0  0
   -2.7078   23.6982  -29.9685 H   0  0  0  0  0  0  0  0  0  0  0  0
   -3.6618   24.4182  -28.6209 H   0  0  0  0  0  0  0  0  0  0  0  0
   -5.3205   22.9412  -28.9658 H   0  0  0  0  0  0  0  0  0  0  0  0
   -5.4570   23.4990  -30.6914 H   0  0  0  0  0  0  0  0  0  0  0  0
   -3.8241   21.2085  -29.5503 H   0  0  0  0  0  0  0  0  0  0  0  0
   -5.0764   21.2109  -30.8738 H   0  0  0  0  0  0  0  0  0  0  0  0
   -4.7436   22.6852  -32.6161 H   0  0  0  0  0  0  0  0  0  0  0  0
   -3.0427   22.9476  -33.2408 H   0  0  0  0  0  0  0  0  0  0  0  0
   -4.7820   21.1742  -34.3434 H   0  0  0  0  0  0  0  0  0  0  0  0
   -2.9852   20.9844  -34.3512 H   0  0  0  0  0  0  0  0  0  0  0  0
   -6.3062   19.7446  -34.6889 H   0  0  0  0  0  0  0  0  0  0  0  0
   -7.0217   18.3297  -33.8231 H   0  0  0  0  0  0  0  0  0  0  0  0
   -7.7346   23.5800  -30.4016 H   0  0  0  0  0  0  0  0  0  0  0  0
   -6.8605   23.9448  -31.9280 H   0  0  0  0  0  0  0  0  0  0  0  0
   -8.6521   23.8146  -31.9280 H   0  0  0  0  0  0  0  0  0  0  0  0
   -9.1647   21.0743  -30.4322 H   0  0  0  0  0  0  0  0  0  0  0  0
   -8.6807   18.2537  -30.5848 H   0  0  0  0  0  0  0  0  0  0  0  0
   -9.5885   18.4180  -32.1261 H   0  0  0  0  0  0  0  0  0  0  0  0
   -7.9409   17.7026  -32.1261 H   0  0  0  0  0  0  0  0  0  0  0  0
   -3.4421   18.9860  -31.1047 H   0  0  0  0  0  0  0  0  0  0  0  0
   -2.2361   18.7944  -32.4328 H   0  0  0  0  0  0  0  0  0  0  0  0
   -1.8193   20.5755  -30.5191 H   0  0  0  0  0  0  0  0  0  0  0  0
   -1.4749   20.9875  -32.2522 H   0  0  0  0  0  0  0  0  0  0  0  0
  1  2  1  0
  2  3  1  0
  3  4  1  0
  4  5  1  0
  5  6  1  0
  6  7  1  0
  7  8  1  0
  8  9  1  0
  9 10  1  0
 10 11  2  0
 10 12  1  0
 12 13  1  0
 13 14  1  0
 14 15  2  0
 15 16  1  0
 15 17  1  0
 17 18  2  0
 18 19  1  0
  9 20  1  0
 20 21  1  0
 21  6  1  0
 18 13  1  0
  1 22  1  0
  1 23  1  0
  1 24  1  0
  3 25  1  0
  3 26  1  0
  4 27  1  0
  4 28  1  0
  5 29  1  0
  5 30  1  0
  7 31  1  0
  7 32  1  0
  8 33  1  0
  8 34  1  0
 12 35  1  0
 12 36  1  0
 16 37  1  0
 16 38  1  0
 16 39  1  0
 17 40  1  0
 19 41  1  0
 19 42  1  0
 19 43  1  0
 20 44  1  0
 20 45  1  0
 21 46  1  0
 21 47  1  0
M  END
>  <UniqueID>  (25) 
24

>  <SMILES>  (25) 
COCCCN1CCN(C(=O)Cn2nc(C)cc2C)CC1

>  <Energy>  (25) 
81.16036076540514

>  <Genealogy>  (25) 
COCCCN1CCN(C(=O)Cn2nc(C)cc2C)CC1 (3D coordinates assigned)
COCCCN1CCN(C(=O)Cn2nc(C)cc2C)CC1 (nonaromatic ring conformer: 81.16036076540514 kcal/mol)

>  <smiles>  (25) 
COCCCN1CCN(C(=O)Cn2nc(C)cc2C)CC1

>  <score_type>  (25) 
oracle

>  <origin>  (25) 
adg

>  <m_score__min__energy>  (25) 
-6.9100000000000001

>  <m_primary>  (25) 
energy

$$$$
25:0
     RDKit          3D

 36 38  0  0  0  0  0  0  0  0999 V2000
   -9.8350   21.8810  -30.8520 C   0  0  0  0  0  0  0  0  0  0  0  0
   -8.3380   21.7100  -30.6210 C   0  0  0  0  0  0  0  0  0  0  0  0
   -7.7150   21.0680  -31.7780 N   0  0  0  0  0  0  0  0  0  0  0  0
   -8.3420   20.1850  -32.5960 C   0  0  0  0  0  0  0  0  0  0  0  0
   -7.4980   19.5960  -33.4720 N   0  0  0  0  0  0  0  0  0  0  0  0
   -6.2960   20.1180  -33.1810 C   0  0  0  0  0  0  0  0  0  0  0  0
   -5.0740   19.8080  -33.7700 C   0  0  0  0  0  0  0  0  0  0  0  0
   -3.9300   20.4600  -33.2840 C   0  0  0  0  0  0  0  0  0  0  0  0
   -4.0340   21.4010  -32.2380 C   0  0  0  0  0  0  0  0  0  0  0  0
   -5.2840   21.6970  -31.6530 C   0  0  0  0  0  0  0  0  0  0  0  0
   -5.3730   22.7350  -30.6680 N   0  0  0  0  0  0  0  0  0  0  0  0
   -6.3170   23.8350  -30.8790 C   0  0  0  0  0  0  0  0  0  0  0  0
   -5.5570   25.1380  -31.1970 C   0  0  0  0  0  0  0  0  0  0  0  0
   -4.2290   25.2320  -30.5520 N   0  0  0  0  0  0  0  0  0  0  0  0
   -4.1140   24.3980  -29.3480 C   0  0  0  0  0  0  0  0  0  0  0  0
   -4.2790   22.9140  -29.7050 C   0  0  0  0  0  0  0  0  0  0  0  0
   -6.4140   21.0190  -32.1530 C   0  0  0  0  0  0  0  0  0  0  0  0
  -10.3512   21.9400  -29.8824 H   0  0  0  0  0  0  0  0  0  0  0  0
  -10.0151   22.8056  -31.4201 H   0  0  0  0  0  0  0  0  0  0  0  0
  -10.2190   21.0209  -31.4201 H   0  0  0  0  0  0  0  0  0  0  0  0
   -7.8801   22.6978  -30.4640 H   0  0  0  0  0  0  0  0  0  0  0  0
   -8.1831   21.0772  -29.7347 H   0  0  0  0  0  0  0  0  0  0  0  0
   -9.4202   19.9718  -32.5509 H   0  0  0  0  0  0  0  0  0  0  0  0
   -7.7260   18.8710  -34.1880 H   0  0  0  0  0  0  0  0  0  0  0  0
   -5.0068   19.0766  -34.5889 H   0  0  0  0  0  0  0  0  0  0  0  0
   -2.9460   20.2358  -33.7215 H   0  0  0  0  0  0  0  0  0  0  0  0
   -3.1296   21.9104  -31.8738 H   0  0  0  0  0  0  0  0  0  0  0  0
   -6.9807   23.5873  -31.7205 H   0  0  0  0  0  0  0  0  0  0  0  0
   -6.9084   23.9799  -29.9629 H   0  0  0  0  0  0  0  0  0  0  0  0
   -5.4178   25.2003  -32.2864 H   0  0  0  0  0  0  0  0  0  0  0  0
   -6.1633   25.9654  -30.7998 H   0  0  0  0  0  0  0  0  0  0  0  0
   -3.4980   24.9240  -31.2370 H   0  0  0  0  0  0  0  0  0  0  0  0
   -3.1245   24.5532  -28.8931 H   0  0  0  0  0  0  0  0  0  0  0  0
   -4.9056   24.6840  -28.6398 H   0  0  0  0  0  0  0  0  0  0  0  0
   -3.3431   22.5419  -30.1472 H   0  0  0  0  0  0  0  0  0  0  0  0
   -4.5157   22.3521  -28.7894 H   0  0  0  0  0  0  0  0  0  0  0  0
  1  2  1  0
  2  3  1  0
  3  4  1  0
  4  5  2  0
  5  6  1  0
  6  7  2  0
  7  8  1  0
  8  9  2  0
  9 10  1  0
 10 11  1  0
 11 12  1  0
 12 13  1  0
 13 14  1  0
 14 15  1  0
 15 16  1  0
 10 17  2  0
 17  3  1  0
 17  6  1  0
 16 11  1  0
  1 18  1  0
  1 19  1  0
  1 20  1  0
  2 21  1  0
  2 22  1  0
  4 23  1  0
  5 24  1  0
  7 25  1  0
  8 26  1  0
  9 27  1  0
 12 28  1  0
 12 29  1  0
 13 30  1  0
 13 31  1  0
 14 32  1  0
 15 33  1  0
 15 34  1  0
 16 35  1  0
 16 36  1  0
M  CHG  1   5   1
M  END
>  <UniqueID>  (26) 
25

>  <SMILES>  (26) 
CCn1c[nH+]c2cccc(N3CCNCC3)c21

>  <Energy>  (26) 
84.7497086092506

>  <Genealogy>  (26) 
CCn1c[nH+]c2cccc(N3CCNCC3)c21 (protonated)
CCn1c[nH+]c2cccc(N3CCNCC3)c21 (3D coordinates assigned)
CCn1c[nH+]c2cccc(N3CCNCC3)c21 (nonaromatic ring conformer: 84.7497086092506 kcal/mol)

>  <smiles>  (26) 
CCn1cnc2cccc(N3CCNCC3)c21

>  <score_type>  (26) 
oracle

>  <origin>  (26) 
adg

>  <m_score__min__energy>  (26) 
-6.5999999999999996

>  <m_primary>  (26) 
energy

$$$$
26:0
     RDKit          3D

 30 31  0  0  0  0  0  0  0  0999 V2000
   -2.3480   25.3000  -28.9190 N   0  0  0  0  0  0  0  0  0  0  0  0
   -2.4210   23.8450  -29.0150 C   0  0  0  0  0  0  0  0  0  0  0  0
   -2.6660   23.4080  -30.4620 C   0  0  0  0  0  0  0  0  0  0  0  0
   -4.1060   23.4060  -30.7710 N   0  0  0  0  0  0  0  0  0  0  0  0
   -4.7070   22.2410  -31.0560 N   0  0  0  0  0  0  0  0  0  0  0  0
   -6.0340   22.1710  -31.3750 C   0  0  0  0  0  0  0  0  0  0  0  0
   -6.6630   20.8640  -31.6970 C   0  0  0  0  0  0  0  0  0  0  0  0
   -5.9210   19.6730  -31.5900 C   0  0  0  0  0  0  0  0  0  0  0  0
   -6.5110   18.4420  -31.8910 C   0  0  0  0  0  0  0  0  0  0  0  0
   -5.7860   17.3000  -31.7900 F   0  0  0  0  0  0  0  0  0  0  0  0
   -7.8460   18.3860  -32.3020 C   0  0  0  0  0  0  0  0  0  0  0  0
   -8.5920   19.5620  -32.4120 C   0  0  0  0  0  0  0  0  0  0  0  0
   -9.8890   19.5060  -32.8050 F   0  0  0  0  0  0  0  0  0  0  0  0
   -8.0060   20.7950  -32.1120 C   0  0  0  0  0  0  0  0  0  0  0  0
   -6.7860   23.3490  -31.4090 C   0  0  0  0  0  0  0  0  0  0  0  0
   -6.1700   24.5600  -31.1260 C   0  0  0  0  0  0  0  0  0  0  0  0
   -4.8130   24.5800  -30.8110 C   0  0  0  0  0  0  0  0  0  0  0  0
   -4.2530   25.6840  -30.5660 O   0  0  0  0  0  0  0  0  0  0  0  0
   -2.1770   25.6730  -29.8800 H   0  0  0  0  0  0  0  0  0  0  0  0
   -3.2880   25.6550  -28.6260 H   0  0  0  0  0  0  0  0  0  0  0  0
   -1.4730   23.4122  -28.6630 H   0  0  0  0  0  0  0  0  0  0  0  0
   -3.2569   23.4918  -28.3933 H   0  0  0  0  0  0  0  0  0  0  0  0
   -2.1524   24.1046  -31.1410 H   0  0  0  0  0  0  0  0  0  0  0  0
   -2.2758   22.3879  -30.5931 H   0  0  0  0  0  0  0  0  0  0  0  0
   -4.1520   21.3570  -31.0160 H   0  0  0  0  0  0  0  0  0  0  0  0
   -4.8700   19.7110  -31.2674 H   0  0  0  0  0  0  0  0  0  0  0  0
   -8.3088   17.4165  -32.5386 H   0  0  0  0  0  0  0  0  0  0  0  0
   -8.5985   21.7175  -32.2009 H   0  0  0  0  0  0  0  0  0  0  0  0
   -7.8570   23.3163  -31.6580 H   0  0  0  0  0  0  0  0  0  0  0  0
   -6.7479   25.4956  -31.1502 H   0  0  0  0  0  0  0  0  0  0  0  0
  1  2  1  0
  2  3  1  0
  3  4  1  0
  4  5  1  0
  5  6  2  0
  6  7  1  0
  7  8  2  0
  8  9  1  0
  9 10  1  0
  9 11  2  0
 11 12  1  0
 12 13  1  0
 12 14  2  0
  6 15  1  0
 15 16  2  0
 16 17  1  0
 17 18  2  0
 17  4  1  0
 14  7  1  0
  1 19  1  0
  1 20  1  0
  2 21  1  0
  2 22  1  0
  3 23  1  0
  3 24  1  0
  5 25  1  0
  8 26  1  0
 11 27  1  0
 14 28  1  0
 15 29  1  0
 16 30  1  0
M  CHG  1   5   1
M  END
>  <UniqueID>  (27) 
26

>  <SMILES>  (27) 
NCCn1[nH+]c(-c2cc(F)cc(F)c2)ccc1=O

>  <Energy>  (27) 
33.51038825842875

>  <Genealogy>  (27) 
NCCn1[nH+]c(-c2cc(F)cc(F)c2)ccc1=O (protonated)
NCCn1[nH+]c(-c2cc(F)cc(F)c2)ccc1=O (3D coordinates assigned)
NCCn1[nH+]c(-c2cc(F)cc(F)c2)ccc1=O (optimized conformer: 33.51038825842875 kcal/mol)

>  <smiles>  (27) 
NCCn1nc(-c2cc(F)cc(F)c2)ccc1=O

>  <score_type>  (27) 
oracle

>  <origin>  (27) 
adg

>  <m_score__min__energy>  (27) 
-6.4500000000000002

>  <m_primary>  (27) 
energy

$$$$
27:0
     RDKit          3D

 29 30  0  0  0  0  0  0  0  0999 V2000
   -9.1190   19.2150  -32.3550 C   0  0  0  0  0  0  0  0  0  0  0  0
   -8.3930   20.4750  -32.0080 C   0  0  0  0  0  0  0  0  0  0  0  0
   -8.9690   21.5190  -31.3800 N   0  0  0  0  0  0  0  0  0  0  0  0
   -8.0430   22.4630  -31.2730 N   0  0  0  0  0  0  0  0  0  0  0  0
   -6.9190   21.9750  -31.8310 C   0  0  0  0  0  0  0  0  0  0  0  0
   -5.3940   22.9130  -31.9640 S   0  0  0  0  0  0  0  0  0  0  0  0
   -6.1550   24.5380  -31.6010 C   0  0  0  0  0  0  0  0  0  0  0  0
   -5.3320   25.3410  -30.5790 C   0  0  1  0  0  0  0  0  0  0  0  0
   -5.6630   24.9320  -29.1500 C   0  0  0  0  0  0  0  0  0  0  0  0
   -4.5900   23.9420  -28.8220 C   0  0  0  0  0  0  0  0  0  0  0  0
   -3.4510   24.3610  -29.7280 C   0  0  0  0  0  0  0  0  0  0  0  0
   -3.9550   25.1290  -30.7980 O   0  0  0  0  0  0  0  0  0  0  0  0
   -7.1020   20.7240  -32.2980 N   0  0  0  0  0  0  0  0  0  0  0  0
   -6.1900   19.9110  -33.0980 C   0  0  0  0  0  0  0  0  0  0  0  0
   -9.4172   18.6974  -31.4313 H   0  0  0  0  0  0  0  0  0  0  0  0
  -10.0152   19.4587  -32.9445 H   0  0  0  0  0  0  0  0  0  0  0  0
   -8.4588   18.5619  -32.9445 H   0  0  0  0  0  0  0  0  0  0  0  0
   -6.2234   25.1153  -32.5349 H   0  0  0  0  0  0  0  0  0  0  0  0
   -7.1518   24.3595  -31.1714 H   0  0  0  0  0  0  0  0  0  0  0  0
   -5.5849   26.4031  -30.7131 H   0  0  0  0  0  0  0  0  0  0  0  0
   -5.6221   25.7974  -28.4722 H   0  0  0  0  0  0  0  0  0  0  0  0
   -6.6776   24.5209  -29.0424 H   0  0  0  0  0  0  0  0  0  0  0  0
   -4.2989   24.0107  -27.7634 H   0  0  0  0  0  0  0  0  0  0  0  0
   -4.9025   22.8982  -28.9731 H   0  0  0  0  0  0  0  0  0  0  0  0
   -2.7292   24.9613  -29.1547 H   0  0  0  0  0  0  0  0  0  0  0  0
   -2.9518   23.4649  -30.1252 H   0  0  0  0  0  0  0  0  0  0  0  0
   -5.5369   19.3288  -32.4312 H   0  0  0  0  0  0  0  0  0  0  0  0
   -6.7707   19.2255  -33.7327 H   0  0  0  0  0  0  0  0  0  0  0  0
   -5.5754   20.5663  -33.7327 H   0  0  0  0  0  0  0  0  0  0  0  0
  1  2  1  0
  2  3  2  0
  3  4  1  0
  4  5  2  0
  5  6  1  0
  6  7  1  0
  7  8  1  0
  8  9  1  0
  9 10  1  0
 10 11  1  0
 11 12  1  0
  5 13  1  0
 13 14  1  0
 13  2  1  0
 12  8  1  0
  1 15  1  0
  1 16  1  0
  1 17  1  0
  7 18  1  0
  7 19  1  0
  8 20  1  1
  9 21  1  0
  9 22  1  0
 10 23  1  0
 10 24  1  0
 11 25  1  0
 11 26  1  0
 14 27  1  0
 14 28  1  0
 14 29  1  0
M  END
>  <UniqueID>  (28) 
27

>  <SMILES>  (28) 
Cc1nnc(SC[C@H]2CCCO2)n1C

>  <Energy>  (28) 
56.05925611826382

>  <Genealogy>  (28) 
Cc1nnc(SC[C@H]2CCCO2)n1C (chirality)
Cc1nnc(SC[C@H]2CCCO2)n1C (3D coordinates assigned)
Cc1nnc(SC[C@H]2CCCO2)n1C (nonaromatic ring conformer: 56.05925611826382 kcal/mol)

>  <smiles>  (28) 
Cc1nnc(SCC2CCCO2)n1C

>  <score_type>  (28) 
oracle

>  <origin>  (28) 
adg

>  <m_score__min__energy>  (28) 
-6.54

>  <m_primary>  (28) 
energy

$$$$
28:0
     RDKit          3D

 55 56  0  0  0  0  0  0  0  0999 V2000
   -3.1740   20.7120  -33.4660 C   0  0  0  0  0  0  0  0  0  0  0  0
   -2.6260   21.5450  -32.3100 C   0  0  0  0  0  0  0  0  0  0  0  0
   -3.6590   22.5410  -31.7670 C   0  0  0  0  0  0  0  0  0  0  0  0
   -3.5190   22.7500  -30.2760 C   0  0  0  0  0  0  0  0  0  0  0  0
   -3.1470   21.6630  -29.4660 C   0  0  0  0  0  0  0  0  0  0  0  0
   -3.0150   21.8200  -28.0870 C   0  0  0  0  0  0  0  0  0  0  0  0
   -3.2530   23.0630  -27.5000 C   0  0  0  0  0  0  0  0  0  0  0  0
   -3.6150   24.1550  -28.2900 C   0  0  0  0  0  0  0  0  0  0  0  0
   -3.7390   24.0160  -29.6880 C   0  0  0  0  0  0  0  0  0  0  0  0
   -4.0820   25.0990  -30.5190 O   0  0  0  0  0  0  0  0  0  0  0  0
   -5.3000   25.8430  -30.4670 C   0  0  0  0  0  0  0  0  0  0  0  0
   -6.4960   24.9440  -30.1190 C   0  0  0  0  0  0  0  0  0  0  0  0
   -6.3590   23.6340  -30.6380 O   0  0  0  0  0  0  0  0  0  0  0  0
   -7.2450   22.7310  -30.0050 C   0  0  0  0  0  0  0  0  0  0  0  0
   -8.0870   21.9940  -31.0490 C   0  0  0  0  0  0  0  0  0  0  0  0
   -7.6140   20.6010  -31.2180 N   0  0  0  0  0  0  0  0  0  0  0  0
   -8.6860   19.7320  -31.7530 C   0  0  0  0  0  0  0  0  0  0  0  0
   -8.1110   18.4290  -32.3170 C   0  0  0  0  0  0  0  0  0  0  0  0
   -7.2020   18.6760  -33.4660 N   0  0  0  0  0  0  0  0  0  0  0  0
   -6.1880   17.6060  -33.5990 C   0  0  0  0  0  0  0  0  0  0  0  0
   -5.3260   17.8030  -34.8450 C   0  0  0  0  0  0  0  0  0  0  0  0
   -6.5700   20.0190  -33.4310 C   0  0  0  0  0  0  0  0  0  0  0  0
   -6.3470   20.5180  -31.9950 C   0  0  0  0  0  0  0  0  0  0  0  0
   -3.7372   19.8558  -33.0663 H   0  0  0  0  0  0  0  0  0  0  0  0
   -3.8402   21.3336  -34.0823 H   0  0  0  0  0  0  0  0  0  0  0  0
   -2.3395   20.3463  -34.0823 H   0  0  0  0  0  0  0  0  0  0  0  0
   -2.3269   20.8674  -31.4968 H   0  0  0  0  0  0  0  0  0  0  0  0
   -1.7695   22.1223  -32.6885 H   0  0  0  0  0  0  0  0  0  0  0  0
   -3.5214   23.5069  -32.2750 H   0  0  0  0  0  0  0  0  0  0  0  0
   -4.6605   22.1283  -31.9585 H   0  0  0  0  0  0  0  0  0  0  0  0
   -2.9586   20.6807  -29.9238 H   0  0  0  0  0  0  0  0  0  0  0  0
   -2.7231   20.9635  -27.4616 H   0  0  0  0  0  0  0  0  0  0  0  0
   -3.1550   23.1827  -26.4109 H   0  0  0  0  0  0  0  0  0  0  0  0
   -3.8049   25.1308  -27.8191 H   0  0  0  0  0  0  0  0  0  0  0  0
   -5.2074   26.6267  -29.7007 H   0  0  0  0  0  0  0  0  0  0  0  0
   -5.4773   26.2835  -31.4592 H   0  0  0  0  0  0  0  0  0  0  0  0
   -6.5841   24.8822  -29.0243 H   0  0  0  0  0  0  0  0  0  0  0  0
   -7.3930   25.3909  -30.5725 H   0  0  0  0  0  0  0  0  0  0  0  0
   -6.6640   21.9990  -29.4248 H   0  0  0  0  0  0  0  0  0  0  0  0
   -7.9143   23.2943  -29.3381 H   0  0  0  0  0  0  0  0  0  0  0  0
   -9.1371   21.9811  -30.7216 H   0  0  0  0  0  0  0  0  0  0  0  0
   -7.9925   22.5177  -32.0117 H   0  0  0  0  0  0  0  0  0  0  0  0
   -9.3915   19.4925  -30.9437 H   0  0  0  0  0  0  0  0  0  0  0  0
   -9.1971   20.2686  -32.5659 H   0  0  0  0  0  0  0  0  0  0  0  0
   -7.5491   17.9153  -31.5231 H   0  0  0  0  0  0  0  0  0  0  0  0
   -8.9495   17.8120  -32.6723 H   0  0  0  0  0  0  0  0  0  0  0  0
   -5.5395   17.6157  -32.7106 H   0  0  0  0  0  0  0  0  0  0  0  0
   -6.7122   16.6433  -33.6907 H   0  0  0  0  0  0  0  0  0  0  0  0
   -4.2946   18.0387  -34.5438 H   0  0  0  0  0  0  0  0  0  0  0  0
   -5.3313   16.8805  -35.4441 H   0  0  0  0  0  0  0  0  0  0  0  0
   -5.7315   18.6316  -35.4441 H   0  0  0  0  0  0  0  0  0  0  0  0
   -5.5977   19.9665  -33.9428 H   0  0  0  0  0  0  0  0  0  0  0  0
   -7.2486   20.7248  -33.9323 H   0  0  0  0  0  0  0  0  0  0  0  0
   -5.6636   19.8249  -31.4827 H   0  0  0  0  0  0  0  0  0  0  0  0
   -5.9242   21.5317  -32.0549 H   0  0  0  0  0  0  0  0  0  0  0  0
  1  2  1  0
  2  3  1  0
  3  4  1  0
  4  5  2  0
  5  6  1  0
  6  7  2  0
  7  8  1  0
  8  9  2  0
  9 10  1  0
 10 11  1  0
 11 12  1  0
 12 13  1  0
 13 14  1  0
 14 15  1  0
 15 16  1  0
 16 17  1  0
 17 18  1  0
 18 19  1  0
 19 20  1  0
 20 21  1  0
 19 22  1  0
 22 23  1  0
  9  4  1  0
 23 16  1  0
  1 24  1  0
  1 25  1  0
  1 26  1  0
  2 27  1  0
  2 28  1  0
  3 29  1  0
  3 30  1  0
  5 31  1  0
  6 32  1  0
  7 33  1  0
  8 34  1  0
 11 35  1  0
 11 36  1  0
 12 37  1  0
 12 38  1  0
 14 39  1  0
 14 40  1  0
 15 41  1  0
 15 42  1  0
 17 43  1  0
 17 44  1  0
 18 45  1  0
 18 46  1  0
 20 47  1  0
 20 48  1  0
 21 49  1  0
 21 50  1  0
 21 51  1  0
 22 52  1  0
 22 53  1  0
 23 54  1  0
 23 55  1  0
M  END
>  <UniqueID>  (29) 
28

>  <SMILES>  (29) 
CCCc1ccccc1OCCOCCN1CCN(CC)CC1

>  <Energy>  (29) 
59.46285697799569

>  <Genealogy>  (29) 
CCCc1ccccc1OCCOCCN1CCN(CC)CC1 (3D coordinates assigned)
CCCc1ccccc1OCCOCCN1CCN(CC)CC1 (nonaromatic ring conformer: 59.46285697799569 kcal/mol)

>  <smiles>  (29) 
CCCc1ccccc1OCCOCCN1CCN(CC)CC1

>  <score_type>  (29) 
oracle

>  <origin>  (29) 
adg

>  <m_score__min__energy>  (29) 
-7.6699999999999999

>  <m_primary>  (29) 
energy

$$$$
29:0
     RDKit          3D

 36 38  0  0  0  0  0  0  0  0999 V2000
   -2.1090   24.8730  -27.9390 C   0  0  0  0  0  0  0  0  0  0  0  0
   -2.5730   25.0500  -29.3110 N   0  0  0  0  0  0  0  0  0  0  0  0
   -3.7550   24.4200  -29.8380 C   0  0  0  0  0  0  0  0  0  0  0  0
   -3.6840   23.4160  -30.8220 C   0  0  0  0  0  0  0  0  0  0  0  0
   -4.8500   22.8220  -31.3130 C   0  0  0  0  0  0  0  0  0  0  0  0
   -6.1070   23.2190  -30.8330 C   0  0  0  0  0  0  0  0  0  0  0  0
   -7.3310   22.5790  -31.3510 C   0  0  0  0  0  0  0  0  0  0  0  0
   -8.4870   23.2270  -31.6030 N   0  0  0  0  0  0  0  0  0  0  0  0
   -9.3450   22.3110  -32.0260 N   0  0  0  0  0  0  0  0  0  0  0  0
   -8.6780   21.1430  -32.0140 C   0  0  0  0  0  0  0  0  0  0  0  0
   -9.3960   19.5670  -32.4670 S   0  0  0  0  0  0  0  0  0  0  0  0
   -8.0650   18.5780  -31.6990 C   0  0  0  0  0  0  0  0  0  0  0  0
   -7.0060   18.2270  -32.7100 C   0  0  0  0  0  0  0  0  0  0  0  0
   -6.1970   19.2300  -33.2720 C   0  0  0  0  0  0  0  0  0  0  0  0
   -5.2530   18.9070  -34.2500 C   0  0  0  0  0  0  0  0  0  0  0  0
   -5.1030   17.5830  -34.6700 C   0  0  0  0  0  0  0  0  0  0  0  0
   -5.9010   16.5790  -34.1140 C   0  0  0  0  0  0  0  0  0  0  0  0
   -6.8510   16.8980  -33.1380 C   0  0  0  0  0  0  0  0  0  0  0  0
   -7.4430   21.2980  -31.6090 O   0  0  0  0  0  0  0  0  0  0  0  0
   -6.1800   24.2180  -29.8500 C   0  0  0  0  0  0  0  0  0  0  0  0
   -5.0150   24.8120  -29.3600 C   0  0  0  0  0  0  0  0  0  0  0  0
   -2.9035   25.1761  -27.2413 H   0  0  0  0  0  0  0  0  0  0  0  0
   -1.8569   23.8156  -27.7707 H   0  0  0  0  0  0  0  0  0  0  0  0
   -1.2167   25.4939  -27.7707 H   0  0  0  0  0  0  0  0  0  0  0  0
   -2.0100   25.6700  -29.9360 H   0  0  0  0  0  0  0  0  0  0  0  0
   -2.7043   23.0968  -31.2071 H   0  0  0  0  0  0  0  0  0  0  0  0
   -4.7816   22.0377  -32.0812 H   0  0  0  0  0  0  0  0  0  0  0  0
   -7.6075   19.1598  -30.8852 H   0  0  0  0  0  0  0  0  0  0  0  0
   -8.5000   17.6467  -31.3073 H   0  0  0  0  0  0  0  0  0  0  0  0
   -6.3076   20.2730  -32.9405 H   0  0  0  0  0  0  0  0  0  0  0  0
   -4.6266   19.6968  -34.6902 H   0  0  0  0  0  0  0  0  0  0  0  0
   -4.3571   17.3307  -35.4381 H   0  0  0  0  0  0  0  0  0  0  0  0
   -5.7818   15.5366  -34.4444 H   0  0  0  0  0  0  0  0  0  0  0  0
   -7.4787   16.1056  -32.7043 H   0  0  0  0  0  0  0  0  0  0  0  0
   -7.1599   24.5348  -29.4635 H   0  0  0  0  0  0  0  0  0  0  0  0
   -5.0856   25.5955  -28.5912 H   0  0  0  0  0  0  0  0  0  0  0  0
  1  2  1  0
  2  3  1  0
  3  4  2  0
  4  5  1  0
  5  6  2  0
  6  7  1  0
  7  8  2  0
  8  9  1  0
  9 10  2  0
 10 11  1  0
 11 12  1  0
 12 13  1  0
 13 14  2  0
 14 15  1  0
 15 16  2  0
 16 17  1  0
 17 18  2  0
 10 19  1  0
  6 20  1  0
 20 21  2  0
 21  3  1  0
 19  7  1  0
 18 13  1  0
  1 22  1  0
  1 23  1  0
  1 24  1  0
  2 25  1  0
  4 26  1  0
  5 27  1  0
 12 28  1  0
 12 29  1  0
 14 30  1  0
 15 31  1  0
 16 32  1  0
 17 33  1  0
 18 34  1  0
 20 35  1  0
 21 36  1  0
M  END
>  <UniqueID>  (30) 
29

>  <SMILES>  (30) 
CNc1ccc(-c2nnc(SCc3ccccc3)o2)cc1

>  <Energy>  (30) 
66.4446785988427

>  <Genealogy>  (30) 
CNc1ccc(-c2nnc(SCc3ccccc3)o2)cc1 (3D coordinates assigned)
CNc1ccc(-c2nnc(SCc3ccccc3)o2)cc1 (optimized conformer: 66.4446785988427 kcal/mol)

>  <smiles>  (30) 
CNc1ccc(-c2nnc(SCc3ccccc3)o2)cc1

>  <score_type>  (30) 
oracle

>  <origin>  (30) 
adg

>  <m_score__min__energy>  (30) 
-8.7699999999999996

>  <m_primary>  (30) 
energy

$$$$
30:0
     RDKit          3D

 42 45  0  0  0  0  0  0  0  0999 V2000
   -8.4463   17.4198  -31.0067 H   0  0  0  0  0  0  0  0  0  0  0  0
   -8.3500   18.2080  -31.7680 C   0  0  0  0  0  0  0  0  0  0  0  0
   -7.7161   18.0444  -32.6520 H   0  0  0  0  0  0  0  0  0  0  0  0
   -9.0030   19.3640  -31.6190 C   0  0  0  0  0  0  0  0  0  0  0  0
   -9.6332   19.5131  -30.7298 H   0  0  0  0  0  0  0  0  0  0  0  0
   -8.8980   20.4670  -32.6370 C   0  0  0  0  0  0  0  0  0  0  0  0
   -8.6838   20.0281  -33.6226 H   0  0  0  0  0  0  0  0  0  0  0  0
   -9.8509   21.0160  -32.6594 H   0  0  0  0  0  0  0  0  0  0  0  0
   -7.8180   21.4110  -32.2830 N   0  0  0  0  0  0  0  0  0  0  0  0
   -8.1770   22.5600  -31.6350 C   0  0  0  0  0  0  0  0  0  0  0  0
   -9.2375   22.7368  -31.4026 H   0  0  0  0  0  0  0  0  0  0  0  0
   -7.2330   23.5100  -31.2630 C   0  0  0  0  0  0  0  0  0  0  0  0
   -7.5513   24.4220  -30.7368 H   0  0  0  0  0  0  0  0  0  0  0  0
   -5.8770   23.3100  -31.5560 C   0  0  0  0  0  0  0  0  0  0  0  0
   -4.9640   24.1840  -31.2160 N   0  0  0  0  0  0  0  0  0  0  0  0
   -4.1420   24.1890  -30.0370 C   0  0  0  0  0  0  0  0  0  0  0  0
   -4.7260   24.4910  -28.8030 C   0  0  0  0  0  0  0  0  0  0  0  0
   -5.7916   24.7598  -28.7547 H   0  0  0  0  0  0  0  0  0  0  0  0
   -3.9660   24.4540  -27.6300 C   0  0  0  0  0  0  0  0  0  0  0  0
   -4.4310   24.7112  -26.6668 H   0  0  0  0  0  0  0  0  0  0  0  0
   -2.6130   24.0900  -27.6780 C   0  0  0  0  0  0  0  0  0  0  0  0
   -1.8410   24.0490  -26.5070 C   0  0  0  0  0  0  0  0  0  0  0  0
   -2.2949   24.3129  -25.5404 H   0  0  0  0  0  0  0  0  0  0  0  0
   -0.4950   23.6730  -26.5670 C   0  0  0  0  0  0  0  0  0  0  0  0
    0.1080   23.6448  -25.6474 H   0  0  0  0  0  0  0  0  0  0  0  0
    0.0860   23.3330  -27.7920 C   0  0  0  0  0  0  0  0  0  0  0  0
    1.1444   23.0360  -27.8330 H   0  0  0  0  0  0  0  0  0  0  0  0
   -0.6730   23.3690  -28.9650 C   0  0  0  0  0  0  0  0  0  0  0  0
   -0.2109   23.0998  -29.9262 H   0  0  0  0  0  0  0  0  0  0  0  0
   -2.0240   23.7480  -28.9190 C   0  0  0  0  0  0  0  0  0  0  0  0
   -2.7960   23.7880  -30.0900 C   0  0  0  0  0  0  0  0  0  0  0  0
   -2.3461   23.5045  -31.0529 H   0  0  0  0  0  0  0  0  0  0  0  0
   -5.4920   22.1110  -32.1930 C   0  0  0  0  0  0  0  0  0  0  0  0
   -4.1350   21.8450  -32.4800 C   0  0  0  0  0  0  0  0  0  0  0  0
   -3.3664   22.5823  -32.2051 H   0  0  0  0  0  0  0  0  0  0  0  0
   -3.7590   20.6600  -33.1070 C   0  0  0  0  0  0  0  0  0  0  0  0
   -2.6979   20.4668  -33.3233 H   0  0  0  0  0  0  0  0  0  0  0  0
   -4.7220   19.7190  -33.4610 C   0  0  0  0  0  0  0  0  0  0  0  0
   -4.2370   18.2270  -34.2450 Cl  0  0  0  0  0  0  0  0  0  0  0  0
   -6.0710   19.9590  -33.1900 C   0  0  0  0  0  0  0  0  0  0  0  0
   -6.8221   19.2067  -33.4726 H   0  0  0  0  0  0  0  0  0  0  0  0
   -6.4870   21.1560  -32.5570 C   0  0  0  0  0  0  0  0  0  0  0  0
  1  2  1  0
  2  3  1  0
  2  4  2  0
  4  5  1  0
  4  6  1  0
  6  7  1  0
  6  8  1  0
  6  9  1  0
  9 10  1  0
 10 11  1  0
 10 12  2  0
 12 13  1  0
 12 14  1  0
 14 15  2  0
 15 16  1  0
 16 17  2  0
 17 18  1  0
 17 19  1  0
 19 20  1  0
 19 21  2  0
 21 22  1  0
 22 23  1  0
 22 24  2  0
 24 25  1  0
 24 26  1  0
 26 27  1  0
 26 28  2  0
 28 29  1  0
 28 30  1  0
 30 31  2  0
 31 32  1  0
 14 33  1  0
 33 34  2  0
 34 35  1  0
 34 36  1  0
 36 37  1  0
 36 38  2  0
 38 39  1  0
 38 40  1  0
 40 41  1  0
 40 42  2  0
 42  9  1  0
 31 16  1  0
 42 33  1  0
 30 21  1  0
M  END
>  <UniqueID>  (31) 
30

>  <SMILES>  (31) 
C=CCn1cc/c(=N\c2ccc3ccccc3c2)c2ccc(Cl)cc21

>  <Energy>  (31) 
65.99736613479455

>  <Genealogy>  (31) 
C=CCn1cc/c(=N\c2ccc3ccccc3c2)c2ccc(Cl)cc21 (cis-trans isomerization)
C=CCn1cc/c(=N\c2ccc3ccccc3c2)c2ccc(Cl)cc21 (3D coordinates assigned)
C=CCn1cc/c(=N\c2ccc3ccccc3c2)c2ccc(Cl)cc21 (optimized conformer: 65.99736613479455 kcal/mol)

>  <smiles>  (31) 
C=CCn1ccc(=Nc2ccc3ccccc3c2)c2ccc(Cl)cc21

>  <score_type>  (31) 
oracle

>  <origin>  (31) 
adg

>  <m_score__min__energy>  (31) 
-9.3100000000000005

>  <m_primary>  (31) 
energy

$$$$
31:0
     RDKit          3D

 54 56  0  0  0  0  0  0  0  0999 V2000
   -3.2090   21.7600  -27.9100 C   0  0  0  0  0  0  0  0  0  0  0  0
   -2.6080   20.4250  -28.3210 C   0  0  0  0  0  0  0  0  0  0  0  0
   -2.3970   20.4220  -29.7160 O   0  0  0  0  0  0  0  0  0  0  0  0
   -1.0210   20.2530  -29.9870 C   0  0  0  0  0  0  0  0  0  0  0  0
   -0.6950   20.8680  -31.3480 C   0  0  0  0  0  0  0  0  0  0  0  0
   -1.8320   21.5260  -31.8760 O   0  0  0  0  0  0  0  0  0  0  0  0
   -2.2670   20.9210  -33.0820 C   0  0  0  0  0  0  0  0  0  0  0  0
   -3.5250   20.0870  -32.8180 C   0  0  0  0  0  0  0  0  0  0  0  0
   -4.0730   20.3710  -31.4820 N   0  0  0  0  0  0  0  0  0  0  0  0
   -5.3530   21.0550  -31.5910 C   0  0  0  0  0  0  0  0  0  0  0  0
   -6.5120   20.3600  -32.0270 C   0  0  0  0  0  0  0  0  0  0  0  0
   -6.4500   19.0230  -32.4930 C   0  0  0  0  0  0  0  0  0  0  0  0
   -7.6050   18.3190  -32.8180 C   0  0  0  0  0  0  0  0  0  0  0  0
   -8.8470   18.9220  -32.6870 C   0  0  0  0  0  0  0  0  0  0  0  0
   -8.9370   20.2510  -32.2820 C   0  0  0  0  0  0  0  0  0  0  0  0
   -7.7750   21.0160  -32.0000 C   0  0  0  0  0  0  0  0  0  0  0  0
   -7.8580   22.3600  -31.7000 N   0  0  0  0  0  0  0  0  0  0  0  0
   -9.1100   23.1020  -31.9740 C   0  0  0  0  0  0  0  0  0  0  0  0
   -6.7600   23.0320  -31.2010 C   0  0  0  0  0  0  0  0  0  0  0  0
   -6.8770   24.3380  -30.6620 C   0  0  0  0  0  0  0  0  0  0  0  0
   -5.7580   25.0540  -30.2480 C   0  0  0  0  0  0  0  0  0  0  0  0
   -4.4870   24.5030  -30.3550 C   0  0  0  0  0  0  0  0  0  0  0  0
   -3.3910   25.2880  -29.9670 O   0  0  0  0  0  0  0  0  0  0  0  0
   -2.4310   24.9110  -28.9840 C   0  0  0  0  0  0  0  0  0  0  0  0
   -4.3490   23.1910  -30.8340 C   0  0  0  0  0  0  0  0  0  0  0  0
   -5.4770   22.4180  -31.2070 C   0  0  0  0  0  0  0  0  0  0  0  0
   -3.2388   21.8263  -26.8124 H   0  0  0  0  0  0  0  0  0  0  0  0
   -2.5925   22.5784  -28.3101 H   0  0  0  0  0  0  0  0  0  0  0  0
   -4.2304   21.8410  -28.3101 H   0  0  0  0  0  0  0  0  0  0  0  0
   -1.6486   20.2783  -27.8033 H   0  0  0  0  0  0  0  0  0  0  0  0
   -3.2954   19.6104  -28.0491 H   0  0  0  0  0  0  0  0  0  0  0  0
   -0.4286   20.7529  -29.2065 H   0  0  0  0  0  0  0  0  0  0  0  0
   -0.7768   19.1805  -29.9992 H   0  0  0  0  0  0  0  0  0  0  0  0
    0.1228   21.5944  -31.2313 H   0  0  0  0  0  0  0  0  0  0  0  0
   -0.3926   20.0672  -32.0388 H   0  0  0  0  0  0  0  0  0  0  0  0
   -2.4953   21.7027  -33.8214 H   0  0  0  0  0  0  0  0  0  0  0  0
   -1.4714   20.2671  -33.4687 H   0  0  0  0  0  0  0  0  0  0  0  0
   -4.2834   20.3290  -33.5772 H   0  0  0  0  0  0  0  0  0  0  0  0
   -3.2570   19.0213  -32.8685 H   0  0  0  0  0  0  0  0  0  0  0  0
   -4.1570   19.4890  -30.9320 H   0  0  0  0  0  0  0  0  0  0  0  0
   -3.4000   20.9290  -30.9130 H   0  0  0  0  0  0  0  0  0  0  0  0
   -5.4709   18.5331  -32.5996 H   0  0  0  0  0  0  0  0  0  0  0  0
   -7.5331   17.2826  -33.1794 H   0  0  0  0  0  0  0  0  0  0  0  0
   -9.7614   18.3500  -32.9032 H   0  0  0  0  0  0  0  0  0  0  0  0
   -9.9279   20.7173  -32.1785 H   0  0  0  0  0  0  0  0  0  0  0  0
   -9.5851   23.3835  -31.0227 H   0  0  0  0  0  0  0  0  0  0  0  0
   -8.8795   24.0094  -32.5514 H   0  0  0  0  0  0  0  0  0  0  0  0
   -9.7954   22.4642  -32.5514 H   0  0  0  0  0  0  0  0  0  0  0  0
   -7.8733   24.7949  -30.5691 H   0  0  0  0  0  0  0  0  0  0  0  0
   -5.8807   26.0650  -29.8324 H   0  0  0  0  0  0  0  0  0  0  0  0
   -2.8500   25.0755  -27.9803 H   0  0  0  0  0  0  0  0  0  0  0  0
   -2.1792   23.8472  -29.1064 H   0  0  0  0  0  0  0  0  0  0  0  0
   -1.5226   25.5192  -29.1064 H   0  0  0  0  0  0  0  0  0  0  0  0
   -3.3437   22.7532  -30.9218 H   0  0  0  0  0  0  0  0  0  0  0  0
  1  2  1  0
  2  3  1  0
  3  4  1  0
  4  5  1  0
  5  6  1  0
  6  7  1  0
  7  8  1  0
  8  9  1  0
  9 10  1  0
 10 11  2  0
 11 12  1  0
 12 13  2  0
 13 14  1  0
 14 15  2  0
 15 16  1  0
 16 17  2  0
 17 18  1  0
 17 19  1  0
 19 20  2  0
 20 21  1  0
 21 22  2  0
 22 23  1  0
 23 24  1  0
 22 25  1  0
 25 26  2  0
 26 10  1  0
 16 11  1  0
 26 19  1  0
  1 27  1  0
  1 28  1  0
  1 29  1  0
  2 30  1  0
  2 31  1  0
  4 32  1  0
  4 33  1  0
  5 34  1  0
  5 35  1  0
  7 36  1  0
  7 37  1  0
  8 38  1  0
  8 39  1  0
  9 40  1  0
  9 41  1  0
 12 42  1  0
 13 43  1  0
 14 44  1  0
 15 45  1  0
 18 46  1  0
 18 47  1  0
 18 48  1  0
 20 49  1  0
 21 50  1  0
 24 51  1  0
 24 52  1  0
 24 53  1  0
 25 54  1  0
M  CHG  2   9   1  17   1
M  END
>  <UniqueID>  (32) 
31

>  <SMILES>  (32) 
CCOCCOCC[NH2+]c1c2ccccc2[n+](C)c2ccc(OC)cc12

>  <Energy>  (32) 
81.03735489632868

>  <Genealogy>  (32) 
CCOCCOCC[NH2+]c1c2ccccc2[n+](C)c2ccc(OC)cc12 (protonated)
CCOCCOCC[NH2+]c1c2ccccc2[n+](C)c2ccc(OC)cc12 (3D coordinates assigned)
CCOCCOCC[NH2+]c1c2ccccc2[n+](C)c2ccc(OC)cc12 (optimized conformer: 81.03735489632868 kcal/mol)

>  <smiles>  (32) 
CCOCCOCCNc1c2ccccc2[n+](C)c2ccc(OC)cc12

>  <score_type>  (32) 
oracle

>  <origin>  (32) 
adg

>  <m_score__min__energy>  (32) 
-8.1099999999999994

>  <m_primary>  (32) 
energy

$$$$
