0:0
     RDKit          3D

 31 32  0  0  0  0  0  0  0  0999 V2000
   -3.8630   24.9820  -30.6490 O   0  0  0  0  0  0  0  0  0  0  0  0
   -4.3480   24.5470  -29.5690 C   0  0  0  0  0  0  0  0  0  0  0  0
   -3.4440   24.3250  -28.3960 C   0  0  0  0  0  0  0  0  0  0  0  0
   -3.4040   22.5570  -27.9410 S   0  0  0  0  0  0  0  0  0  0  0  0
   -3.0050   21.9860  -29.5910 C   0  0  0  0  0  0  0  0  0  0  0  0
   -1.7680   22.2140  -30.1070 N   0  0  0  0  0  0  0  0  0  0  0  0
   -1.4510   21.8020  -31.3620 C   0  0  0  0  0  0  0  0  0  0  0  0
   -2.3990   21.1340  -32.1360 C   0  0  0  0  0  0  0  0  0  0  0  0
   -3.6610   20.9030  -31.5870 C   0  0  0  0  0  0  0  0  0  0  0  0
   -3.9410   21.3320  -30.3280 N   0  0  0  0  0  0  0  0  0  0  0  0
   -5.7430   24.2270  -29.4770 N   0  0  0  0  0  0  0  0  0  0  0  0
   -6.6560   24.3670  -30.6080 C   0  0  0  0  0  0  0  0  0  0  0  0
   -7.0650   23.0130  -31.1180 C   0  0  0  0  0  0  0  0  0  0  0  0
   -8.0760   22.2920  -30.4630 C   0  0  0  0  0  0  0  0  0  0  0  0
   -8.4750   21.0410  -30.9440 C   0  0  0  0  0  0  0  0  0  0  0  0
   -7.8710   20.5030  -32.0840 C   0  0  0  0  0  0  0  0  0  0  0  0
   -8.3740   18.9340  -32.6870 Cl  0  0  0  0  0  0  0  0  0  0  0  0
   -6.8670   21.2180  -32.7450 C   0  0  0  0  0  0  0  0  0  0  0  0
   -6.4650   22.4690  -32.2660 C   0  0  0  0  0  0  0  0  0  0  0  0
   -2.4272   24.6545  -28.6558 H   0  0  0  0  0  0  0  0  0  0  0  0
   -3.8244   24.9028  -27.5407 H   0  0  0  0  0  0  0  0  0  0  0  0
   -0.4469   21.9953  -31.7674 H   0  0  0  0  0  0  0  0  0  0  0  0
   -2.1579   20.7971  -33.1550 H   0  0  0  0  0  0  0  0  0  0  0  0
   -4.4280   20.3746  -32.1722 H   0  0  0  0  0  0  0  0  0  0  0  0
   -6.1200   23.8430  -28.5810 H   0  0  0  0  0  0  0  0  0  0  0  0
   -7.5511   24.9192  -30.2858 H   0  0  0  0  0  0  0  0  0  0  0  0
   -6.1461   24.9145  -31.4144 H   0  0  0  0  0  0  0  0  0  0  0  0
   -8.5564   22.7130  -29.5675 H   0  0  0  0  0  0  0  0  0  0  0  0
   -9.2654   20.4795  -30.4244 H   0  0  0  0  0  0  0  0  0  0  0  0
   -6.3927   20.7957  -33.6432 H   0  0  0  0  0  0  0  0  0  0  0  0
   -5.6763   23.0289  -32.7899 H   0  0  0  0  0  0  0  0  0  0  0  0
  1  2  2  0
  2  3  1  0
  3  4  1  0
  4  5  1  0
  5  6  2  0
  6  7  1  0
  7  8  2  0
  8  9  1  0
  9 10  2  0
  2 11  1  0
 11 12  1  0
 12 13  1  0
 13 14  2  0
 14 15  1  0
 15 16  2  0
 16 17  1  0
 16 18  1  0
 18 19  2  0
 10  5  1  0
 19 13  1  0
  3 20  1  0
  3 21  1  0
  7 22  1  0
  8 23  1  0
  9 24  1  0
 11 25  1  0
 12 26  1  0
 12 27  1  0
 14 28  1  0
 15 29  1  0
 18 30  1  0
 19 31  1  0
M  END
>  <UniqueID>  (1) 
1

>  <SMILES>  (1) 
O=C(CSc1ncccn1)NCc1ccc(Cl)cc1

>  <Energy>  (1) 
24.20535786046543

>  <Genealogy>  (1) 
O=C(CSc1ncccn1)NCc1ccc(Cl)cc1 (3D coordinates assigned)
O=C(CSc1ncccn1)NCc1ccc(Cl)cc1 (optimized conformer: 24.20535786046543 kcal/mol)

>  <smiles>  (1) 
O=C(CSc1ncccn1)NCc1ccc(Cl)cc1

>  <score_type>  (1) 
oracle

>  <origin>  (1) 
adg

>  <m_score__min__energy>  (1) 
-6.9100000000000001

>  <m_primary>  (1) 
energy

$$$$
1:0
     RDKit          3D

 46 50  0  0  0  0  0  0  0  0999 V2000
   -5.8590   18.0330  -31.4270 O   0  0  0  0  0  0  0  0  0  0  0  0
   -6.5160   17.7430  -32.4600 C   0  0  0  0  0  0  0  0  0  0  0  0
   -7.4630   18.6430  -33.0120 N   0  0  0  0  0  0  0  0  0  0  0  0
   -7.7450   19.9230  -32.4570 C   0  0  0  0  0  0  0  0  0  0  0  0
   -9.0190   20.4310  -32.6790 C   0  0  0  0  0  0  0  0  0  0  0  0
   -9.3570   21.6820  -32.1600 C   0  0  0  0  0  0  0  0  0  0  0  0
   -8.3980   22.3810  -31.4330 C   0  0  0  0  0  0  0  0  0  0  0  0
   -7.1350   21.8770  -31.2130 C   0  0  0  0  0  0  0  0  0  0  0  0
   -6.1540   22.6310  -30.4510 C   0  0  0  0  0  0  0  0  0  0  0  0
   -6.3550   23.9340  -30.0330 C   0  0  0  0  0  0  0  0  0  0  0  0
   -5.3400   24.5510  -29.3090 C   0  0  0  0  0  0  0  0  0  0  0  0
   -4.1530   23.8900  -29.0080 C   0  0  0  0  0  0  0  0  0  0  0  0
   -3.0950   24.5570  -28.2430 C   0  0  0  0  0  0  0  0  0  0  0  0
   -2.8760   24.4690  -26.9190 N   0  0  0  0  0  0  0  0  0  0  0  0
   -1.8150   25.2170  -26.5580 C   0  0  0  0  0  0  0  0  0  0  0  0
   -1.1660   25.4840  -25.3560 C   0  0  0  0  0  0  0  0  0  0  0  0
   -0.0810   26.3250  -25.3740 C   0  0  0  0  0  0  0  0  0  0  0  0
    0.3940   26.9180  -26.5340 C   0  0  0  0  0  0  0  0  0  0  0  0
   -0.2740   26.6290  -27.6960 C   0  0  0  0  0  0  0  0  0  0  0  0
   -1.3700   25.7910  -27.7340 C   0  0  0  0  0  0  0  0  0  0  0  0
   -2.1490   25.3890  -28.7590 N   0  0  0  0  0  0  0  0  0  0  0  0
   -3.9730   22.5980  -29.4300 C   0  0  0  0  0  0  0  0  0  0  0  0
   -4.9700   21.9830  -30.1450 C   0  0  0  0  0  0  0  0  0  0  0  0
   -6.8210   20.6230  -31.7430 C   0  0  0  0  0  0  0  0  0  0  0  0
   -6.3250   16.4500  -33.1390 C   0  0  0  0  0  0  0  0  0  0  0  0
   -5.2650   15.5720  -33.0240 C   0  0  0  0  0  0  0  0  0  0  0  0
   -5.4970   14.4810  -33.8390 C   0  0  0  0  0  0  0  0  0  0  0  0
   -6.7280   14.7520  -34.4350 C   0  0  0  0  0  0  0  0  0  0  0  0
   -7.1620   15.8880  -34.0030 O   0  0  0  0  0  0  0  0  0  0  0  0
   -7.9860   18.3620  -33.8710 H   0  0  0  0  0  0  0  0  0  0  0  0
   -9.7542   19.8530  -33.2581 H   0  0  0  0  0  0  0  0  0  0  0  0
  -10.3590   22.1059  -32.3220 H   0  0  0  0  0  0  0  0  0  0  0  0
   -8.6568   23.3675  -31.0209 H   0  0  0  0  0  0  0  0  0  0  0  0
   -7.2891   24.4662  -30.2660 H   0  0  0  0  0  0  0  0  0  0  0  0
   -5.4791   25.5869  -28.9660 H   0  0  0  0  0  0  0  0  0  0  0  0
   -1.5137   25.0325  -24.4152 H   0  0  0  0  0  0  0  0  0  0  0  0
    0.4345   26.5379  -24.4259 H   0  0  0  0  0  0  0  0  0  0  0  0
    1.2658   27.5887  -26.5225 H   0  0  0  0  0  0  0  0  0  0  0  0
    0.0773   27.0827  -28.6345 H   0  0  0  0  0  0  0  0  0  0  0  0
   -2.0370   25.6700  -29.7570 H   0  0  0  0  0  0  0  0  0  0  0  0
   -3.0413   22.0611  -29.1984 H   0  0  0  0  0  0  0  0  0  0  0  0
   -4.8241   20.9468  -30.4841 H   0  0  0  0  0  0  0  0  0  0  0  0
   -5.8193   20.1979  -31.5821 H   0  0  0  0  0  0  0  0  0  0  0  0
   -4.3801   15.7178  -32.3871 H   0  0  0  0  0  0  0  0  0  0  0  0
   -4.8562   13.5989  -33.9847 H   0  0  0  0  0  0  0  0  0  0  0  0
   -7.2454   14.1027  -35.1566 H   0  0  0  0  0  0  0  0  0  0  0  0
  1  2  2  0
  2  3  1  0
  3  4  1  0
  4  5  2  0
  5  6  1  0
  6  7  2  0
  7  8  1  0
  8  9  1  0
  9 10  2  0
 10 11  1  0
 11 12  2  0
 12 13  1  0
 13 14  2  0
 14 15  1  0
 15 16  2  0
 16 17  1  0
 17 18  2  0
 18 19  1  0
 19 20  2  0
 20 21  1  0
 12 22  1  0
 22 23  2  0
  8 24  2  0
  2 25  1  0
 25 26  2  0
 26 27  1  0
 27 28  2  0
 28 29  1  0
 24  4  1  0
 29 25  1  0
 23  9  1  0
 21 13  1  0
 20 15  1  0
  3 30  1  0
  5 31  1  0
  6 32  1  0
  7 33  1  0
 10 34  1  0
 11 35  1  0
 16 36  1  0
 17 37  1  0
 18 38  1  0
 19 39  1  0
 21 40  1  0
 22 41  1  0
 23 42  1  0
 24 43  1  0
 26 44  1  0
 27 45  1  0
 28 46  1  0
M  END
>  <smiles>  (2) 
O=C(Nc1cccc(-c2ccc(-c3nc4ccccc4[nH]3)cc2)c1)c1ccco1

>  <score_type>  (2) 
oracle

>  <origin>  (2) 
adg

>  <m_score__min__energy>  (2) 
-9.7599999999999998

>  <m_primary>  (2) 
energy

$$$$
2:0
     RDKit          3D

 51 54  0  0  0  0  0  0  0  0999 V2000
   -4.3840   14.5280  -32.3820 C   0  0  0  0  0  0  0  0  0  0  0  0
   -4.9270   15.7620  -33.0380 C   0  0  0  0  0  0  0  0  0  0  0  0
   -6.1600   15.7080  -33.7020 C   0  0  0  0  0  0  0  0  0  0  0  0
   -6.6790   16.8650  -34.2770 C   0  0  0  0  0  0  0  0  0  0  0  0
   -5.9690   18.0620  -34.1940 C   0  0  0  0  0  0  0  0  0  0  0  0
   -4.7330   18.0890  -33.5300 C   0  0  0  0  0  0  0  0  0  0  0  0
   -3.9690   19.3520  -33.4360 C   0  0  0  0  0  0  0  0  0  0  0  0
   -3.2040   19.6870  -34.3810 O   0  0  0  0  0  0  0  0  0  0  0  0
   -4.0870   20.2080  -32.2820 N   0  0  0  0  0  0  0  0  0  0  0  0
   -3.3230   21.4660  -32.2220 C   0  0  0  0  0  0  0  0  0  0  0  0
   -4.2160   22.6800  -32.5170 C   0  0  0  0  0  0  0  0  0  0  0  0
   -5.4100   22.7680  -31.6480 N   0  0  0  0  0  0  0  0  0  0  0  0
   -5.4580   23.8780  -30.6850 C   0  0  0  0  0  0  0  0  0  0  0  0
   -4.2430   23.9030  -29.8050 C   0  0  0  0  0  0  0  0  0  0  0  0
   -3.8840   22.9600  -28.8570 C   0  0  0  0  0  0  0  0  0  0  0  0
   -2.7130   23.4200  -28.2920 C   0  0  0  0  0  0  0  0  0  0  0  0
   -2.4370   24.6130  -28.9270 C   0  0  0  0  0  0  0  0  0  0  0  0
   -1.2710   25.4990  -28.6400 C   0  0  0  0  0  0  0  0  0  0  0  0
   -3.3650   24.8790  -29.8170 O   0  0  0  0  0  0  0  0  0  0  0  0
   -6.5440   21.8690  -31.7540 C   0  0  0  0  0  0  0  0  0  0  0  0
   -7.8190   22.3860  -32.0530 C   0  0  0  0  0  0  0  0  0  0  0  0
   -8.9280   21.5430  -32.1430 C   0  0  0  0  0  0  0  0  0  0  0  0
   -8.7840   20.1730  -31.9360 C   0  0  0  0  0  0  0  0  0  0  0  0
   -7.5290   19.6380  -31.6430 C   0  0  0  0  0  0  0  0  0  0  0  0
   -6.4000   20.4730  -31.5620 C   0  0  0  0  0  0  0  0  0  0  0  0
   -5.0590   19.8740  -31.2350 C   0  0  0  0  0  0  0  0  0  0  0  0
   -4.2510   16.9460  -32.9570 N   0  0  0  0  0  0  0  0  0  0  0  0
   -4.4340   14.6415  -31.2890 H   0  0  0  0  0  0  0  0  0  0  0  0
   -4.9819   13.6568  -32.6878 H   0  0  0  0  0  0  0  0  0  0  0  0
   -3.3377   14.3803  -32.6878 H   0  0  0  0  0  0  0  0  0  0  0  0
   -6.7131   14.7595  -33.7683 H   0  0  0  0  0  0  0  0  0  0  0  0
   -7.6483   16.8347  -34.7962 H   0  0  0  0  0  0  0  0  0  0  0  0
   -6.3749   18.9790  -34.6459 H   0  0  0  0  0  0  0  0  0  0  0  0
   -2.8920   21.5751  -31.2158 H   0  0  0  0  0  0  0  0  0  0  0  0
   -2.5310   21.4261  -32.9843 H   0  0  0  0  0  0  0  0  0  0  0  0
   -3.6178   23.5926  -32.3779 H   0  0  0  0  0  0  0  0  0  0  0  0
   -4.5787   22.5677  -33.5494 H   0  0  0  0  0  0  0  0  0  0  0  0
   -5.5172   24.8271  -31.2379 H   0  0  0  0  0  0  0  0  0  0  0  0
   -6.3417   23.7384  -30.0451 H   0  0  0  0  0  0  0  0  0  0  0  0
   -4.4222   22.0341  -28.6060 H   0  0  0  0  0  0  0  0  0  0  0  0
   -2.1223   22.9364  -27.5001 H   0  0  0  0  0  0  0  0  0  0  0  0
   -1.1433   25.5960  -27.5518 H   0  0  0  0  0  0  0  0  0  0  0  0
   -0.3617   25.0619  -29.0783 H   0  0  0  0  0  0  0  0  0  0  0  0
   -1.4485   26.4922  -29.0783 H   0  0  0  0  0  0  0  0  0  0  0  0
   -7.9426   23.4666  -32.2176 H   0  0  0  0  0  0  0  0  0  0  0  0
   -9.9178   21.9615  -32.3779 H   0  0  0  0  0  0  0  0  0  0  0  0
   -9.6607   19.5121  -32.0036 H   0  0  0  0  0  0  0  0  0  0  0  0
   -7.4219   18.5563  -31.4743 H   0  0  0  0  0  0  0  0  0  0  0  0
   -4.7076   20.2731  -30.2721 H   0  0  0  0  0  0  0  0  0  0  0  0
   -5.1593   18.7803  -31.1735 H   0  0  0  0  0  0  0  0  0  0  0  0
   -3.3570   16.9820  -32.4190 H   0  0  0  0  0  0  0  0  0  0  0  0
  1  2  1  0
  2  3  2  0
  3  4  1  0
  4  5  2  0
  5  6  1  0
  6  7  1  0
  7  8  2  0
  7  9  1  0
  9 10  1  0
 10 11  1  0
 11 12  1  0
 12 13  1  0
 13 14  1  0
 14 15  2  0
 15 16  1  0
 16 17  2  0
 17 18  1  0
 17 19  1  0
 12 20  1  0
 20 21  2  0
 21 22  1  0
 22 23  2  0
 23 24  1  0
 24 25  2  0
 25 26  1  0
  6 27  2  0
 27  2  1  0
 26  9  1  0
 19 14  1  0
 25 20  1  0
  1 28  1  0
  1 29  1  0
  1 30  1  0
  3 31  1  0
  4 32  1  0
  5 33  1  0
 10 34  1  0
 10 35  1  0
 11 36  1  0
 11 37  1  0
 13 38  1  0
 13 39  1  0
 15 40  1  0
 16 41  1  0
 18 42  1  0
 18 43  1  0
 18 44  1  0
 21 45  1  0
 22 46  1  0
 23 47  1  0
 24 48  1  0
 26 49  1  0
 26 50  1  0
 27 51  1  0
M  CHG  1  27   1
M  END
>  <UniqueID>  (3) 
2

>  <SMILES>  (3) 
Cc1cccc(C(=O)N2CCN(Cc3ccc(C)o3)c3ccccc3C2)[nH+]1

>  <Energy>  (3) 
91.95663098373619

>  <Genealogy>  (3) 
Cc1cccc(C(=O)N2CCN(Cc3ccc(C)o3)c3ccccc3C2)[nH+]1 (protonated)
Cc1cccc(C(=O)N2CCN(Cc3ccc(C)o3)c3ccccc3C2)[nH+]1 (3D coordinates assigned)
Cc1cccc(C(=O)N2CCN(Cc3ccc(C)o3)c3ccccc3C2)[nH+]1 (nonaromatic ring conformer: 91.95663098373619 kcal/mol)

>  <smiles>  (3) 
Cc1cccc(C(=O)N2CCN(Cc3ccc(C)o3)c3ccccc3C2)n1

>  <score_type>  (3) 
oracle

>  <origin>  (3) 
adg

>  <m_score__min__energy>  (3) 
-6.8099999999999996

>  <m_primary>  (3) 
energy

$$$$
3:0
     RDKit          3D

 42 43  0  0  0  0  0  0  0  0999 V2000
   -2.3810   25.1150  -26.7600 C   0  0  0  0  0  0  0  0  0  0  0  0
   -1.9970   23.8310  -27.4460 C   0  0  0  0  0  0  0  0  0  0  0  0
   -1.5180   22.7620  -26.6740 C   0  0  0  0  0  0  0  0  0  0  0  0
   -1.1280   21.5690  -27.2800 C   0  0  0  0  0  0  0  0  0  0  0  0
   -1.2070   21.4280  -28.6650 C   0  0  0  0  0  0  0  0  0  0  0  0
   -1.7100   22.4700  -29.4590 C   0  0  0  0  0  0  0  0  0  0  0  0
   -1.7250   22.2920  -30.9530 C   0  0  0  0  0  0  0  0  0  0  0  0
   -2.1370   23.6690  -28.8450 C   0  0  0  0  0  0  0  0  0  0  0  0
   -2.6900   24.7240  -29.6430 N   0  0  0  0  0  0  0  0  0  0  0  0
   -3.9870   24.6700  -30.2500 C   0  0  0  0  0  0  0  0  0  0  0  0
   -4.4260   25.6920  -30.8400 O   0  0  0  0  0  0  0  0  0  0  0  0
   -4.8050   23.4080  -30.2590 C   0  0  0  0  0  0  0  0  0  0  0  0
   -5.0520   22.9770  -31.6540 N   0  0  0  0  0  0  0  0  0  0  0  0
   -5.0740   21.4970  -31.7330 C   0  0  0  0  0  0  0  0  0  0  0  0
   -6.2710   20.9290  -32.5160 C   0  0  0  0  0  0  0  0  0  0  0  0
   -7.5730   20.8430  -31.7050 C   0  0  0  0  0  0  0  0  0  0  0  0
   -8.3660   22.1630  -31.5740 C   0  0  0  0  0  0  0  0  0  0  0  0
   -7.5050   23.3970  -31.2470 C   0  0  0  0  0  0  0  0  0  0  0  0
   -6.2910   23.5920  -32.1880 C   0  0  0  0  0  0  0  0  0  0  0  0
   -2.3391   24.9750  -25.6698 H   0  0  0  0  0  0  0  0  0  0  0  0
   -1.6817   25.9114  -27.0545 H   0  0  0  0  0  0  0  0  0  0  0  0
   -3.4027   25.3967  -27.0545 H   0  0  0  0  0  0  0  0  0  0  0  0
   -1.4496   22.8663  -25.5811 H   0  0  0  0  0  0  0  0  0  0  0  0
   -0.7569   20.7365  -26.6641 H   0  0  0  0  0  0  0  0  0  0  0  0
   -0.8726   20.4932  -29.1386 H   0  0  0  0  0  0  0  0  0  0  0  0
   -1.8151   21.2225  -31.1939 H   0  0  0  0  0  0  0  0  0  0  0  0
   -2.5804   22.8371  -31.3786 H   0  0  0  0  0  0  0  0  0  0  0  0
   -0.7904   22.6863  -31.3786 H   0  0  0  0  0  0  0  0  0  0  0  0
   -4.2601   22.6164  -29.7238 H   0  0  0  0  0  0  0  0  0  0  0  0
   -5.7682   23.5974  -29.7627 H   0  0  0  0  0  0  0  0  0  0  0  0
   -4.1488   21.1632  -32.2256 H   0  0  0  0  0  0  0  0  0  0  0  0
   -5.1632   21.1248  -30.7017 H   0  0  0  0  0  0  0  0  0  0  0  0
   -6.4502   21.5751  -33.3880 H   0  0  0  0  0  0  0  0  0  0  0  0
   -6.0049   19.8988  -32.7951 H   0  0  0  0  0  0  0  0  0  0  0  0
   -8.2259   20.1026  -32.1904 H   0  0  0  0  0  0  0  0  0  0  0  0
   -7.2734   20.5690  -30.6827 H   0  0  0  0  0  0  0  0  0  0  0  0
   -8.8839   22.3484  -32.5266 H   0  0  0  0  0  0  0  0  0  0  0  0
   -9.0556   22.0302  -30.7274 H   0  0  0  0  0  0  0  0  0  0  0  0
   -8.1425   24.2907  -31.3169 H   0  0  0  0  0  0  0  0  0  0  0  0
   -7.0994   23.2404  -30.2366 H   0  0  0  0  0  0  0  0  0  0  0  0
   -6.5216   23.1327  -33.1606 H   0  0  0  0  0  0  0  0  0  0  0  0
   -6.1126   24.6733  -32.2825 H   0  0  0  0  0  0  0  0  0  0  0  0
  1  2  1  0
  2  3  2  0
  3  4  1  0
  4  5  2  0
  5  6  1  0
  6  7  1  0
  6  8  2  0
  8  9  1  0
  9 10  1  0
 10 11  2  0
 10 12  1  0
 12 13  1  0
 13 14  1  0
 14 15  1  0
 15 16  1  0
 16 17  1  0
 17 18  1  0
 18 19  1  0
  8  2  1  0
 19 13  1  0
  1 20  1  0
  1 21  1  0
  1 22  1  0
  3 23  1  0
  4 24  1  0
  5 25  1  0
  7 26  1  0
  7 27  1  0
  7 28  1  0
 12 29  1  0
 12 30  1  0
 14 31  1  0
 14 32  1  0
 15 33  1  0
 15 34  1  0
 16 35  1  0
 16 36  1  0
 17 37  1  0
 17 38  1  0
 18 39  1  0
 18 40  1  0
 19 41  1  0
 19 42  1  0
M  CHG  1   9  -1
M  END
>  <UniqueID>  (4) 
3

>  <SMILES>  (4) 
Cc1cccc(C)c1[N-]C(=O)CN1CCCCCC1

>  <Energy>  (4) 
55.61197041329004

>  <Genealogy>  (4) 
Cc1cccc(C)c1[N-]C(=O)CN1CCCCCC1 (protonated)
Cc1cccc(C)c1[N-]C(=O)CN1CCCCCC1 (3D coordinates assigned)
Cc1cccc(C)c1[N-]C(=O)CN1CCCCCC1 (nonaromatic ring conformer: 55.61197041329004 kcal/mol)

>  <smiles>  (4) 
Cc1cccc(C)c1NC(=O)CN1CCCCCC1

>  <score_type>  (4) 
oracle

>  <origin>  (4) 
adg

>  <m_score__min__energy>  (4) 
-6.7300000000000004

>  <m_primary>  (4) 
energy

$$$$
4:0
     RDKit          3D

 43 45  0  0  0  0  0  0  0  0999 V2000
   -2.9740   14.1940  -32.7000 C   0  0  0  0  0  0  0  0  0  0  0  0
   -4.3860   14.3530  -32.2270 C   0  0  0  0  0  0  0  0  0  0  0  0
   -4.7330   13.8020  -31.1490 O   0  0  0  0  0  0  0  0  0  0  0  0
   -5.3460   15.1450  -32.9410 N   0  0  0  0  0  0  0  0  0  0  0  0
   -5.3160   16.5670  -33.1240 C   0  0  0  0  0  0  0  0  0  0  0  0
   -4.3730   17.1170  -34.0000 C   0  0  0  0  0  0  0  0  0  0  0  0
   -4.2960   18.5010  -34.1820 C   0  0  0  0  0  0  0  0  0  0  0  0
   -5.1630   19.3560  -33.4780 C   0  0  0  0  0  0  0  0  0  0  0  0
   -5.0880   20.7820  -33.6010 N   0  0  0  0  0  0  0  0  0  0  0  0
   -4.4690   21.6890  -32.6800 C   0  0  0  0  0  0  0  0  0  0  0  0
   -3.2160   21.8320  -32.6840 O   0  0  0  0  0  0  0  0  0  0  0  0
   -5.3020   22.5190  -31.7760 C   0  0  0  0  0  0  0  0  0  0  0  0
   -6.5270   23.0250  -32.2510 C   0  0  0  0  0  0  0  0  0  0  0  0
   -7.3560   23.7830  -31.4220 C   0  0  0  0  0  0  0  0  0  0  0  0
   -6.9740   24.0540  -30.1090 C   0  0  0  0  0  0  0  0  0  0  0  0
   -5.7580   23.5770  -29.6220 C   0  0  0  0  0  0  0  0  0  0  0  0
   -4.9110   22.8100  -30.4410 C   0  0  0  0  0  0  0  0  0  0  0  0
   -3.5950   22.4000  -29.8990 C   0  0  0  0  0  0  0  0  0  0  0  0
   -3.3660   21.0280  -29.7030 C   0  0  0  0  0  0  0  0  0  0  0  0
   -2.1430   20.5760  -29.2120 C   0  0  0  0  0  0  0  0  0  0  0  0
   -1.1290   21.4860  -28.9200 C   0  0  0  0  0  0  0  0  0  0  0  0
   -1.3380   22.8530  -29.1100 C   0  0  0  0  0  0  0  0  0  0  0  0
   -2.5700   23.3360  -29.5910 C   0  0  0  0  0  0  0  0  0  0  0  0
   -2.7510   24.8050  -29.7210 C   0  0  0  0  0  0  0  0  0  0  0  0
   -3.6120   25.2910  -30.5010 O   0  0  0  0  0  0  0  0  0  0  0  0
   -1.9870   25.6730  -28.9480 O   0  0  0  0  0  0  0  0  0  0  0  0
   -6.0680   18.8080  -32.5620 C   0  0  0  0  0  0  0  0  0  0  0  0
   -6.1460   17.4240  -32.3830 C   0  0  0  0  0  0  0  0  0  0  0  0
   -2.3028   14.1184  -31.8318 H   0  0  0  0  0  0  0  0  0  0  0  0
   -2.8915   13.2809  -33.3078 H   0  0  0  0  0  0  0  0  0  0  0  0
   -2.6905   15.0659  -33.3078 H   0  0  0  0  0  0  0  0  0  0  0  0
   -3.6873   16.4552  -34.5494 H   0  0  0  0  0  0  0  0  0  0  0  0
   -3.5554   18.9224  -34.8776 H   0  0  0  0  0  0  0  0  0  0  0  0
   -6.8344   22.8207  -33.2872 H   0  0  0  0  0  0  0  0  0  0  0  0
   -8.3126   24.1672  -31.8057 H   0  0  0  0  0  0  0  0  0  0  0  0
   -7.6331   24.6451  -29.4562 H   0  0  0  0  0  0  0  0  0  0  0  0
   -5.4586   23.8027  -28.5879 H   0  0  0  0  0  0  0  0  0  0  0  0
   -4.1596   20.3038  -29.9393 H   0  0  0  0  0  0  0  0  0  0  0  0
   -1.9778   19.4999  -29.0547 H   0  0  0  0  0  0  0  0  0  0  0  0
   -0.1618   21.1264  -28.5390 H   0  0  0  0  0  0  0  0  0  0  0  0
   -0.5292   23.5625  -28.8808 H   0  0  0  0  0  0  0  0  0  0  0  0
   -6.7230   19.4716  -31.9784 H   0  0  0  0  0  0  0  0  0  0  0  0
   -6.8601   17.0045  -31.6591 H   0  0  0  0  0  0  0  0  0  0  0  0
  1  2  1  0
  2  3  2  0
  2  4  1  0
  4  5  1  0
  5  6  2  0
  6  7  1  0
  7  8  2  0
  8  9  1  0
  9 10  1  0
 10 11  2  0
 10 12  1  0
 12 13  2  0
 13 14  1  0
 14 15  2  0
 15 16  1  0
 16 17  2  0
 17 18  1  0
 18 19  2  0
 19 20  1  0
 20 21  2  0
 21 22  1  0
 22 23  2  0
 23 24  1  0
 24 25  2  0
 24 26  1  0
  8 27  1  0
 27 28  2  0
 28  5  1  0
 17 12  1  0
 23 18  1  0
  1 29  1  0
  1 30  1  0
  1 31  1  0
  6 32  1  0
  7 33  1  0
 13 34  1  0
 14 35  1  0
 15 36  1  0
 16 37  1  0
 19 38  1  0
 20 39  1  0
 21 40  1  0
 22 41  1  0
 27 42  1  0
 28 43  1  0
M  CHG  3   4  -1   9  -1  26  -1
M  END
>  <UniqueID>  (5) 
4

>  <SMILES>  (5) 
CC(=O)[N-]c1ccc([N-]C(=O)c2ccccc2-c2ccccc2C(=O)[O-])cc1

>  <Energy>  (5) 
66.29841503670956

>  <Genealogy>  (5) 
CC(=O)[N-]c1ccc([N-]C(=O)c2ccccc2-c2ccccc2C(=O)[O-])cc1 (protonated)
CC(=O)[N-]c1ccc([N-]C(=O)c2ccccc2-c2ccccc2C(=O)[O-])cc1 (3D coordinates assigned)
CC(=O)[N-]c1ccc([N-]C(=O)c2ccccc2-c2ccccc2C(=O)[O-])cc1 (optimized conformer: 66.29841503670956 kcal/mol)

>  <smiles>  (5) 
CC(=O)Nc1ccc(NC(=O)c2ccccc2-c2ccccc2C(=O)O)cc1

>  <score_type>  (5) 
oracle

>  <origin>  (5) 
adg

>  <m_score__min__energy>  (5) 
-10.890000000000001

>  <m_primary>  (5) 
energy

$$$$
5:0
     RDKit          3D

 36 38  0  0  0  0  0  0  0  0999 V2000
   -1.7630   22.5570  -27.3570 O   0  0  0  0  0  0  0  0  0  0  0  0
   -2.8020   23.0960  -27.8250 C   0  0  0  0  0  0  0  0  0  0  0  0
   -3.7990   22.2550  -28.5530 C   0  0  0  0  0  0  0  0  0  0  0  0
   -3.5050   22.4060  -30.3480 S   0  0  0  0  0  0  0  0  0  0  0  0
   -4.6260   23.7920  -30.5650 C   0  0  0  0  0  0  0  0  0  0  0  0
   -4.2390   25.0760  -30.4350 N   0  0  0  0  0  0  0  0  0  0  0  0
   -5.3580   25.7470  -30.7870 C   0  0  0  0  0  0  0  0  0  0  0  0
   -6.3700   24.9250  -31.1290 N   0  0  0  0  0  0  0  0  0  0  0  0
   -5.9060   23.6980  -30.9750 N   0  0  0  0  0  0  0  0  0  0  0  0
   -6.6520   22.5130  -31.2970 C   0  0  0  0  0  0  0  0  0  0  0  0
   -7.8880   22.2770  -30.6770 C   0  0  0  0  0  0  0  0  0  0  0  0
   -8.6370   21.1440  -31.0060 C   0  0  0  0  0  0  0  0  0  0  0  0
   -8.1540   20.2270  -31.9470 C   0  0  0  0  0  0  0  0  0  0  0  0
   -9.1310   18.8210  -32.3460 Cl  0  0  0  0  0  0  0  0  0  0  0  0
   -6.9050   20.4430  -32.5530 C   0  0  0  0  0  0  0  0  0  0  0  0
   -6.2570   19.3120  -33.7330 Cl  0  0  0  0  0  0  0  0  0  0  0  0
   -6.1570   21.5790  -32.2220 C   0  0  0  0  0  0  0  0  0  0  0  0
   -2.9880   24.5190  -27.7520 N   0  0  0  0  0  0  0  0  0  0  0  0
   -2.1460   25.4110  -27.0050 C   0  0  0  0  0  0  0  0  0  0  0  0
   -1.0280   26.0340  -27.5920 C   0  0  0  0  0  0  0  0  0  0  0  0
   -0.2120   26.8790  -26.8320 C   0  0  0  0  0  0  0  0  0  0  0  0
   -0.4940   27.0970  -25.4820 C   0  0  0  0  0  0  0  0  0  0  0  0
   -1.5880   26.4650  -24.8860 C   0  0  0  0  0  0  0  0  0  0  0  0
   -2.4050   25.6200  -25.6410 C   0  0  0  0  0  0  0  0  0  0  0  0
   -3.6878   21.2040  -28.2481 H   0  0  0  0  0  0  0  0  0  0  0  0
   -4.8175   22.5943  -28.3132 H   0  0  0  0  0  0  0  0  0  0  0  0
   -5.4346   26.8443  -30.7937 H   0  0  0  0  0  0  0  0  0  0  0  0
   -8.2694   22.9870  -29.9284 H   0  0  0  0  0  0  0  0  0  0  0  0
   -9.6104   20.9720  -30.5234 H   0  0  0  0  0  0  0  0  0  0  0  0
   -5.1747   21.7414  -32.6896 H   0  0  0  0  0  0  0  0  0  0  0  0
   -3.7290   24.9410  -28.3560 H   0  0  0  0  0  0  0  0  0  0  0  0
   -0.7953   25.8557  -28.6522 H   0  0  0  0  0  0  0  0  0  0  0  0
    0.6532   27.3725  -27.2988 H   0  0  0  0  0  0  0  0  0  0  0  0
    0.1453   27.7664  -24.8877 H   0  0  0  0  0  0  0  0  0  0  0  0
   -1.8064   26.6329  -23.8210 H   0  0  0  0  0  0  0  0  0  0  0  0
   -3.2574   25.1147  -25.1634 H   0  0  0  0  0  0  0  0  0  0  0  0
  1  2  2  0
  2  3  1  0
  3  4  1  0
  4  5  1  0
  5  6  2  0
  6  7  1  0
  7  8  2  0
  8  9  1  0
  9 10  1  0
 10 11  2  0
 11 12  1  0
 12 13  2  0
 13 14  1  0
 13 15  1  0
 15 16  1  0
 15 17  2  0
  2 18  1  0
 18 19  1  0
 19 20  2  0
 20 21  1  0
 21 22  2  0
 22 23  1  0
 23 24  2  0
  9  5  1  0
 17 10  1  0
 24 19  1  0
  3 25  1  0
  3 26  1  0
  7 27  1  0
 11 28  1  0
 12 29  1  0
 17 30  1  0
 18 31  1  0
 20 32  1  0
 21 33  1  0
 22 34  1  0
 23 35  1  0
 24 36  1  0
M  END
>  <UniqueID>  (6) 
5

>  <SMILES>  (6) 
O=C(CSc1ncnn1-c1ccc(Cl)c(Cl)c1)Nc1ccccc1

>  <Energy>  (6) 
73.55811054749243

>  <Genealogy>  (6) 
O=C(CSc1ncnn1-c1ccc(Cl)c(Cl)c1)Nc1ccccc1 (3D coordinates assigned)
O=C(CSc1ncnn1-c1ccc(Cl)c(Cl)c1)Nc1ccccc1 (optimized conformer: 73.55811054749243 kcal/mol)

>  <smiles>  (6) 
O=C(CSc1ncnn1-c1ccc(Cl)c(Cl)c1)Nc1ccccc1

>  <score_type>  (6) 
oracle

>  <origin>  (6) 
adg

>  <m_score__min__energy>  (6) 
-9.3100000000000005

>  <m_primary>  (6) 
energy

$$$$
6:0
     RDKit          3D

 39 41  0  0  0  0  0  0  0  0999 V2000
   -0.7312   19.8185  -34.8273 H   0  0  0  0  0  0  0  0  0  0  0  0
   -1.4980   20.1140  -34.0960 C   0  0  0  0  0  0  0  0  0  0  0  0
   -1.2580   21.1800  -33.2240 C   0  0  0  0  0  0  0  0  0  0  0  0
   -0.3018   21.7219  -33.2685 H   0  0  0  0  0  0  0  0  0  0  0  0
   -2.2330   21.5580  -32.2950 C   0  0  0  0  0  0  0  0  0  0  0  0
   -2.0404   22.3946  -31.6072 H   0  0  0  0  0  0  0  0  0  0  0  0
   -3.4610   20.8700  -32.2380 C   0  0  0  0  0  0  0  0  0  0  0  0
   -4.4710   21.2180  -31.3320 O   0  0  0  0  0  0  0  0  0  0  0  0
   -5.5040   22.1190  -31.6200 C   0  0  0  0  0  0  0  0  0  0  0  0
   -5.2620   23.3940  -31.6990 N   0  0  0  0  0  0  0  0  0  0  0  0
   -4.8240   24.3910  -30.3470 S   0  0  0  0  0  0  0  0  0  0  0  0
   -6.0620   24.7310  -29.5650 O   0  0  0  0  0  0  0  0  0  0  0  0
   -4.2050   25.6630  -30.8540 O   0  0  0  0  0  0  0  0  0  0  0  0
   -3.6500   23.5670  -29.3240 C   0  0  0  0  0  0  0  0  0  0  0  0
   -4.0290   22.4650  -28.5430 C   0  0  0  0  0  0  0  0  0  0  0  0
   -5.0744   22.1227  -28.5475 H   0  0  0  0  0  0  0  0  0  0  0  0
   -3.0810   21.8010  -27.7590 C   0  0  0  0  0  0  0  0  0  0  0  0
   -3.3807   20.9357  -27.1495 H   0  0  0  0  0  0  0  0  0  0  0  0
   -1.7520   22.2360  -27.7490 C   0  0  0  0  0  0  0  0  0  0  0  0
   -1.0065   21.7123  -27.1326 H   0  0  0  0  0  0  0  0  0  0  0  0
   -1.3710   23.3360  -28.5220 C   0  0  0  0  0  0  0  0  0  0  0  0
   -0.3259   23.6790  -28.5121 H   0  0  0  0  0  0  0  0  0  0  0  0
   -2.3170   24.0010  -29.3080 C   0  0  0  0  0  0  0  0  0  0  0  0
   -2.0146   24.8669  -29.9153 H   0  0  0  0  0  0  0  0  0  0  0  0
   -6.8740   21.6060  -31.8580 C   0  0  0  0  0  0  0  0  0  0  0  0
   -7.0620   20.3460  -32.4560 C   0  0  0  0  0  0  0  0  0  0  0  0
   -6.1886   19.7450  -32.7492 H   0  0  0  0  0  0  0  0  0  0  0  0
   -8.3500   19.8530  -32.6800 C   0  0  0  0  0  0  0  0  0  0  0  0
   -8.4864   18.8667  -33.1475 H   0  0  0  0  0  0  0  0  0  0  0  0
   -9.4640   20.6090  -32.3120 C   0  0  0  0  0  0  0  0  0  0  0  0
  -10.4770   20.2191  -32.4904 H   0  0  0  0  0  0  0  0  0  0  0  0
   -9.2920   21.8610  -31.7170 C   0  0  0  0  0  0  0  0  0  0  0  0
  -10.1703   22.4561  -31.4266 H   0  0  0  0  0  0  0  0  0  0  0  0
   -8.0060   22.3590  -31.4900 C   0  0  0  0  0  0  0  0  0  0  0  0
   -7.8771   23.3455  -31.0208 H   0  0  0  0  0  0  0  0  0  0  0  0
   -3.6870   19.7990  -33.1110 C   0  0  0  0  0  0  0  0  0  0  0  0
   -4.6386   19.2491  -33.0664 H   0  0  0  0  0  0  0  0  0  0  0  0
   -2.7110   19.4240  -34.0390 C   0  0  0  0  0  0  0  0  0  0  0  0
   -2.8985   18.5847  -34.7249 H   0  0  0  0  0  0  0  0  0  0  0  0
  1  2  1  0
  2  3  2  0
  3  4  1  0
  3  5  1  0
  5  6  1  0
  5  7  2  0
  7  8  1  0
  8  9  1  0
  9 10  2  0
 10 11  1  0
 11 12  2  0
 11 13  2  0
 11 14  1  0
 14 15  2  0
 15 16  1  0
 15 17  1  0
 17 18  1  0
 17 19  2  0
 19 20  1  0
 19 21  1  0
 21 22  1  0
 21 23  2  0
 23 24  1  0
  9 25  1  0
 25 26  2  0
 26 27  1  0
 26 28  1  0
 28 29  1  0
 28 30  2  0
 30 31  1  0
 30 32  1  0
 32 33  1  0
 32 34  2  0
 34 35  1  0
  7 36  1  0
 36 37  1  0
 36 38  2  0
 38 39  1  0
 38  2  1  0
 23 14  1  0
 34 25  1  0
M  END
>  <UniqueID>  (7) 
6

>  <SMILES>  (7) 
O=S(=O)(/N=C(\Oc1ccccc1)c1ccccc1)c1ccccc1

>  <Energy>  (7) 
51.813906257801975

>  <Genealogy>  (7) 
O=S(=O)(/N=C(\Oc1ccccc1)c1ccccc1)c1ccccc1 (cis-trans isomerization)
O=S(=O)(/N=C(\Oc1ccccc1)c1ccccc1)c1ccccc1 (3D coordinates assigned)
O=S(=O)(/N=C(\Oc1ccccc1)c1ccccc1)c1ccccc1 (optimized conformer: 51.813906257801975 kcal/mol)

>  <smiles>  (7) 
O=S(=O)(N=C(Oc1ccccc1)c1ccccc1)c1ccccc1

>  <score_type>  (7) 
oracle

>  <origin>  (7) 
adg

>  <m_score__min__energy>  (7) 
-8.5700000000000003

>  <m_primary>  (7) 
energy

$$$$
7:0
     RDKit          3D

 30 32  0  0  0  0  0  0  0  0999 V2000
   -3.4520   23.4160  -28.6440 C   0  0  0  0  0  0  0  0  0  0  0  0
   -3.5220   24.0070  -29.9350 O   0  0  0  0  0  0  0  0  0  0  0  0
   -4.7320   24.2080  -30.6090 C   0  0  0  0  0  0  0  0  0  0  0  0
   -4.9430   25.2950  -31.2170 O   0  0  0  0  0  0  0  0  0  0  0  0
   -5.7790   23.1620  -30.5800 C   0  0  0  0  0  0  0  0  0  0  0  0
   -6.8050   23.2890  -29.7160 C   0  0  0  0  0  0  0  0  0  0  0  0
   -7.9700   22.3470  -29.7520 C   0  0  0  0  0  0  0  0  0  0  0  0
   -8.5020   22.1850  -31.4820 S   0  0  0  0  0  0  0  0  0  0  0  0
   -6.9170   21.4780  -31.9880 C   0  0  0  0  0  0  0  0  0  0  0  0
   -5.7540   22.0190  -31.5510 C   0  0  0  0  0  0  0  0  0  0  0  0
   -4.4620   21.3700  -31.9190 C   0  0  0  0  0  0  0  0  0  0  0  0
   -3.3870   21.7460  -31.3760 O   0  0  0  0  0  0  0  0  0  0  0  0
   -4.4390   20.2380  -32.8730 C   0  0  0  0  0  0  0  0  0  0  0  0
   -3.2240   19.6840  -33.3140 C   0  0  0  0  0  0  0  0  0  0  0  0
   -3.2220   18.6070  -34.2020 C   0  0  0  0  0  0  0  0  0  0  0  0
   -4.4290   18.0690  -34.6550 C   0  0  0  0  0  0  0  0  0  0  0  0
   -5.6420   18.6090  -34.2210 C   0  0  0  0  0  0  0  0  0  0  0  0
   -5.6550   19.6960  -33.3300 C   0  0  0  0  0  0  0  0  0  0  0  0
   -6.9280   20.2810  -32.8580 C   0  0  0  0  0  0  0  0  0  0  0  0
   -8.0280   19.7710  -33.2040 O   0  0  0  0  0  0  0  0  0  0  0  0
   -3.5447   24.1989  -27.8768 H   0  0  0  0  0  0  0  0  0  0  0  0
   -4.2705   22.6903  -28.5281 H   0  0  0  0  0  0  0  0  0  0  0  0
   -2.4866   22.9016  -28.5281 H   0  0  0  0  0  0  0  0  0  0  0  0
   -6.7872   24.0983  -28.9712 H   0  0  0  0  0  0  0  0  0  0  0  0
   -7.6687   21.3644  -29.3598 H   0  0  0  0  0  0  0  0  0  0  0  0
   -8.7933   22.7310  -29.1317 H   0  0  0  0  0  0  0  0  0  0  0  0
   -2.2707   20.1013  -32.9575 H   0  0  0  0  0  0  0  0  0  0  0  0
   -2.2679   18.1810  -34.5458 H   0  0  0  0  0  0  0  0  0  0  0  0
   -4.4242   17.2196  -35.3539 H   0  0  0  0  0  0  0  0  0  0  0  0
   -6.5908   18.1819  -34.5779 H   0  0  0  0  0  0  0  0  0  0  0  0
  1  2  1  0
  2  3  1  0
  3  4  2  0
  3  5  1  0
  5  6  2  0
  6  7  1  0
  7  8  1  0
  8  9  1  0
  9 10  2  0
 10 11  1  0
 11 12  2  0
 11 13  1  0
 13 14  2  0
 14 15  1  0
 15 16  2  0
 16 17  1  0
 17 18  2  0
 18 19  1  0
 19 20  2  0
 10  5  1  0
 18 13  1  0
 19  9  1  0
  1 21  1  0
  1 22  1  0
  1 23  1  0
  6 24  1  0
  7 25  1  0
  7 26  1  0
 14 27  1  0
 15 28  1  0
 16 29  1  0
 17 30  1  0
M  END
>  <UniqueID>  (8) 
7

>  <SMILES>  (8) 
COC(=O)C1=CCSC2=C1C(=O)c1ccccc1C2=O

>  <Energy>  (8) 
42.18219123187919

>  <Genealogy>  (8) 
COC(=O)C1=CCSC2=C1C(=O)c1ccccc1C2=O (3D coordinates assigned)
COC(=O)C1=CCSC2=C1C(=O)c1ccccc1C2=O (nonaromatic ring conformer: 42.18219123187919 kcal/mol)

>  <smiles>  (8) 
COC(=O)C1=CCSC2=C1C(=O)c1ccccc1C2=O

>  <score_type>  (8) 
oracle

>  <origin>  (8) 
adg

>  <m_score__min__energy>  (8) 
-8.2100000000000009

>  <m_primary>  (8) 
energy

$$$$
8:0
     RDKit          3D

 38 40  0  0  0  0  0  0  0  0999 V2000
   -8.6550   18.0840  -31.7100 O   0  0  0  0  0  0  0  0  0  0  0  0
   -7.8380   18.8510  -32.2870 C   0  0  0  0  0  0  0  0  0  0  0  0
   -8.0210   20.3120  -32.1640 C   0  0  0  0  0  0  0  0  0  0  0  0
   -9.3040   20.8670  -32.0590 C   0  0  0  0  0  0  0  0  0  0  0  0
   -9.4670   22.2490  -31.9550 C   0  0  0  0  0  0  0  0  0  0  0  0
   -8.3540   23.0920  -31.9690 C   0  0  0  0  0  0  0  0  0  0  0  0
   -7.0590   22.5570  -32.1030 C   0  0  0  0  0  0  0  0  0  0  0  0
   -5.8890   23.3940  -32.1380 N   0  0  0  0  0  0  0  0  0  0  0  0
   -5.2220   24.1870  -30.7450 S   0  0  0  0  0  0  0  0  0  0  0  0
   -6.3360   24.7720  -29.9250 O   0  0  0  0  0  0  0  0  0  0  0  0
   -4.3070   25.2930  -31.1910 O   0  0  0  0  0  0  0  0  0  0  0  0
   -4.3440   23.0290  -29.7620 C   0  0  0  0  0  0  0  0  0  0  0  0
   -4.2380   23.0610  -28.3800 C   0  0  0  0  0  0  0  0  0  0  0  0
   -3.4910   21.9940  -27.8680 C   0  0  0  0  0  0  0  0  0  0  0  0
   -3.0140   21.1290  -28.8450 C   0  0  0  0  0  0  0  0  0  0  0  0
   -3.5210   21.6890  -30.3480 S   0  0  0  0  0  0  0  0  0  0  0  0
   -6.9050   21.1640  -32.2010 C   0  0  0  0  0  0  0  0  0  0  0  0
   -6.7640   18.2870  -33.0620 N   0  0  0  0  0  0  0  0  0  0  0  0
   -6.1130   18.9720  -34.1680 C   0  0  0  0  0  0  0  0  0  0  0  0
   -5.4020   17.8850  -34.9630 C   0  0  0  0  0  0  0  0  0  0  0  0
   -5.3040   16.6860  -34.0240 C   0  0  0  0  0  0  0  0  0  0  0  0
   -6.4090   16.8790  -32.9950 C   0  0  0  0  0  0  0  0  0  0  0  0
  -10.1863   20.2101  -32.0586 H   0  0  0  0  0  0  0  0  0  0  0  0
  -10.4764   22.6760  -31.8616 H   0  0  0  0  0  0  0  0  0  0  0  0
   -8.4899   24.1795  -31.8748 H   0  0  0  0  0  0  0  0  0  0  0  0
   -5.4440   23.6080  -33.0580 H   0  0  0  0  0  0  0  0  0  0  0  0
   -4.6926   23.8419  -27.7527 H   0  0  0  0  0  0  0  0  0  0  0  0
   -3.2997   21.8535  -26.7939 H   0  0  0  0  0  0  0  0  0  0  0  0
   -2.4070   20.2293  -28.6658 H   0  0  0  0  0  0  0  0  0  0  0  0
   -5.8977   20.7352  -32.3081 H   0  0  0  0  0  0  0  0  0  0  0  0
   -6.8586   19.4814  -34.7962 H   0  0  0  0  0  0  0  0  0  0  0  0
   -5.4112   19.7411  -33.8132 H   0  0  0  0  0  0  0  0  0  0  0  0
   -5.9826   17.6236  -35.8600 H   0  0  0  0  0  0  0  0  0  0  0  0
   -4.4103   18.2149  -35.3061 H   0  0  0  0  0  0  0  0  0  0  0  0
   -5.4569   15.7494  -34.5803 H   0  0  0  0  0  0  0  0  0  0  0  0
   -4.3136   16.6210  -33.5497 H   0  0  0  0  0  0  0  0  0  0  0  0
   -7.2780   16.2517  -33.2426 H   0  0  0  0  0  0  0  0  0  0  0  0
   -6.0805   16.5897  -31.9859 H   0  0  0  0  0  0  0  0  0  0  0  0
  1  2  2  0
  2  3  1  0
  3  4  2  0
  4  5  1  0
  5  6  2  0
  6  7  1  0
  7  8  1  0
  8  9  1  0
  9 10  2  0
  9 11  2  0
  9 12  1  0
 12 13  2  0
 13 14  1  0
 14 15  2  0
 15 16  1  0
  7 17  2  0
  2 18  1  0
 18 19  1  0
 19 20  1  0
 20 21  1  0
 21 22  1  0
 17  3  1  0
 22 18  1  0
 16 12  1  0
  4 23  1  0
  5 24  1  0
  6 25  1  0
  8 26  1  0
 13 27  1  0
 14 28  1  0
 15 29  1  0
 17 30  1  0
 19 31  1  0
 19 32  1  0
 20 33  1  0
 20 34  1  0
 21 35  1  0
 21 36  1  0
 22 37  1  0
 22 38  1  0
M  END
>  <UniqueID>  (9) 
8

>  <SMILES>  (9) 
O=C(c1cccc(NS(=O)(=O)c2cccs2)c1)N1CCCC1

>  <Energy>  (9) 
71.76813883387518

>  <Genealogy>  (9) 
O=C(c1cccc(NS(=O)(=O)c2cccs2)c1)N1CCCC1 (3D coordinates assigned)
O=C(c1cccc(NS(=O)(=O)c2cccs2)c1)N1CCCC1 (nonaromatic ring conformer: 71.76813883387518 kcal/mol)

>  <smiles>  (9) 
O=C(c1cccc(NS(=O)(=O)c2cccs2)c1)N1CCCC1

>  <score_type>  (9) 
oracle

>  <origin>  (9) 
adg

>  <m_score__min__energy>  (9) 
-9.3599999999999994

>  <m_primary>  (9) 
energy

$$$$
9:0
     RDKit          3D

 33 33  0  0  0  0  0  0  0  0999 V2000
   -2.3810   23.9560  -28.1430 C   0  0  0  0  0  0  0  0  0  0  0  0
   -3.7580   23.9490  -27.4720 C   0  0  0  0  0  0  0  0  0  0  0  0
   -4.7950   24.5760  -28.3100 N   0  0  0  0  0  0  0  0  0  0  0  0
   -4.6630   24.1730  -29.6860 C   0  0  0  0  0  0  0  0  0  0  0  0
   -4.4100   25.0420  -30.5660 O   0  0  0  0  0  0  0  0  0  0  0  0
   -4.8700   22.8000  -30.0530 N   0  0  0  0  0  0  0  0  0  0  0  0
   -4.8810   22.3250  -31.4080 C   0  0  0  0  0  0  0  0  0  0  0  0
   -4.4520   23.0530  -32.3440 O   0  0  0  0  0  0  0  0  0  0  0  0
   -5.4460   20.9550  -31.7010 C   0  0  2  0  0  0  0  0  0  0  0  0
   -4.8500   20.3210  -32.9650 C   0  0  0  0  0  0  0  0  0  0  0  0
   -6.9570   21.0300  -31.7960 C   0  0  0  0  0  0  0  0  0  0  0  0
   -7.6260   22.2280  -31.4830 C   0  0  0  0  0  0  0  0  0  0  0  0
   -9.0190   22.3080  -31.5860 C   0  0  0  0  0  0  0  0  0  0  0  0
   -9.7560   21.1950  -32.0000 C   0  0  0  0  0  0  0  0  0  0  0  0
   -9.1040   19.9990  -32.3110 C   0  0  0  0  0  0  0  0  0  0  0  0
   -9.8220   18.9210  -32.7130 F   0  0  0  0  0  0  0  0  0  0  0  0
   -7.7130   19.9140  -32.2080 C   0  0  0  0  0  0  0  0  0  0  0  0
   -1.5971   23.9600  -27.3713 H   0  0  0  0  0  0  0  0  0  0  0  0
   -2.2740   23.0584  -28.7698 H   0  0  0  0  0  0  0  0  0  0  0  0
   -2.2831   24.8547  -28.7698 H   0  0  0  0  0  0  0  0  0  0  0  0
   -4.0480   22.9070  -27.2719 H   0  0  0  0  0  0  0  0  0  0  0  0
   -3.6807   24.5319  -26.5423 H   0  0  0  0  0  0  0  0  0  0  0  0
   -5.7330   24.2740  -27.9610 H   0  0  0  0  0  0  0  0  0  0  0  0
   -4.7450   25.6180  -28.2320 H   0  0  0  0  0  0  0  0  0  0  0  0
   -5.1150   22.1220  -29.2960 H   0  0  0  0  0  0  0  0  0  0  0  0
   -5.1629   20.2989  -30.8647 H   0  0  0  0  0  0  0  0  0  0  0  0
   -4.1225   19.5471  -32.6789 H   0  0  0  0  0  0  0  0  0  0  0  0
   -5.6545   19.8655  -33.5611 H   0  0  0  0  0  0  0  0  0  0  0  0
   -4.3457   21.0959  -33.5611 H   0  0  0  0  0  0  0  0  0  0  0  0
   -7.0505   23.1064  -31.1555 H   0  0  0  0  0  0  0  0  0  0  0  0
   -9.5348   23.2481  -31.3408 H   0  0  0  0  0  0  0  0  0  0  0  0
  -10.8510   21.2607  -32.0811 H   0  0  0  0  0  0  0  0  0  0  0  0
   -7.2043   18.9692  -32.4502 H   0  0  0  0  0  0  0  0  0  0  0  0
  1  2  1  0
  2  3  1  0
  3  4  1  0
  4  5  2  0
  4  6  1  0
  6  7  1  0
  7  8  2  0
  7  9  1  0
  9 10  1  0
  9 11  1  0
 11 12  2  0
 12 13  1  0
 13 14  2  0
 14 15  1  0
 15 16  1  0
 15 17  2  0
 17 11  1  0
  1 18  1  0
  1 19  1  0
  1 20  1  0
  2 21  1  0
  2 22  1  0
  3 23  1  0
  3 24  1  0
  6 25  1  0
  9 26  1  1
 10 27  1  0
 10 28  1  0
 10 29  1  0
 12 30  1  0
 13 31  1  0
 14 32  1  0
 17 33  1  0
M  CHG  1   3   1
M  END
>  <UniqueID>  (10) 
9

>  <SMILES>  (10) 
CC[NH2+]C(=O)NC(=O)[C@H](C)c1cccc(F)c1

>  <Energy>  (10) 
26.431112450822667

>  <Genealogy>  (10) 
CC[NH2+]C(=O)NC(=O)C(C)c1cccc(F)c1 (protonated)
CC[NH2+]C(=O)NC(=O)[C@H](C)c1cccc(F)c1 (chirality)
CC[NH2+]C(=O)NC(=O)[C@H](C)c1cccc(F)c1 (3D coordinates assigned)
CC[NH2+]C(=O)NC(=O)[C@H](C)c1cccc(F)c1 (optimized conformer: 26.431112450822667 kcal/mol)

>  <smiles>  (10) 
CCNC(=O)NC(=O)C(C)c1cccc(F)c1

>  <score_type>  (10) 
oracle

>  <origin>  (10) 
adg

>  <m_score__min__energy>  (10) 
-7.2400000000000002

>  <m_primary>  (10) 
energy

$$$$
10:0
     RDKit          3D

 60 63  0  0  0  0  0  0  0  0999 V2000
   -5.7000   18.5440  -34.5730 C   0  0  0  0  0  0  0  0  0  0  0  0
   -6.1220   19.8010  -34.0550 O   0  0  0  0  0  0  0  0  0  0  0  0
   -7.0760   19.9640  -33.0360 C   0  0  0  0  0  0  0  0  0  0  0  0
   -8.0650   18.9910  -32.7870 C   0  0  0  0  0  0  0  0  0  0  0  0
   -9.0060   19.1800  -31.7720 C   0  0  0  0  0  0  0  0  0  0  0  0
   -8.9750   20.3380  -30.9950 C   0  0  0  0  0  0  0  0  0  0  0  0
   -8.0010   21.3110  -31.2290 C   0  0  0  0  0  0  0  0  0  0  0  0
   -7.0470   21.1340  -32.2450 C   0  0  0  0  0  0  0  0  0  0  0  0
   -6.0180   22.2170  -32.4720 C   0  0  0  0  0  0  0  0  0  0  0  0
   -5.1170   22.3260  -31.3040 N   0  0  0  0  0  0  0  0  0  0  0  0
   -5.5480   23.4110  -30.3830 C   0  0  0  0  0  0  0  0  0  0  0  0
   -5.0590   24.8080  -30.8000 C   0  0  0  0  0  0  0  0  0  0  0  0
   -3.7290   25.0550  -30.3400 O   0  0  0  0  0  0  0  0  0  0  0  0
   -2.7560   24.0810  -30.0590 C   0  0  0  0  0  0  0  0  0  0  0  0
   -1.7620   24.4180  -29.1320 C   0  0  0  0  0  0  0  0  0  0  0  0
   -0.8050   23.4830  -28.7380 C   0  0  0  0  0  0  0  0  0  0  0  0
   -0.8180   22.1880  -29.2740 C   0  0  0  0  0  0  0  0  0  0  0  0
    0.2170   21.1700  -28.8500 C   0  0  0  0  0  0  0  0  0  0  0  0
   -0.1650   20.4690  -27.5990 N   0  0  0  0  0  0  0  0  0  0  0  0
   -0.5890   19.0810  -27.9160 C   0  0  0  0  0  0  0  0  0  0  0  0
   -1.4280   18.4760  -26.7800 C   0  0  0  0  0  0  0  0  0  0  0  0
   -2.6700   19.2490  -26.5240 N   0  0  0  0  0  0  0  0  0  0  0  0
   -3.8500   18.5730  -27.0850 C   0  0  0  0  0  0  0  0  0  0  0  0
   -2.6040   20.6480  -27.0020 C   0  0  0  0  0  0  0  0  0  0  0  0
   -1.1930   21.2270  -26.8260 C   0  0  0  0  0  0  0  0  0  0  0  0
   -1.7970   21.8480  -30.2200 C   0  0  0  0  0  0  0  0  0  0  0  0
   -2.7590   22.7860  -30.6350 C   0  0  0  0  0  0  0  0  0  0  0  0
   -3.7080   22.4200  -31.7520 C   0  0  0  0  0  0  0  0  0  0  0  0
   -5.4712   17.8625  -33.7404 H   0  0  0  0  0  0  0  0  0  0  0  0
   -6.5028   18.1133  -35.1894 H   0  0  0  0  0  0  0  0  0  0  0  0
   -4.7999   18.6850  -35.1894 H   0  0  0  0  0  0  0  0  0  0  0  0
   -8.0961   18.0759  -33.3966 H   0  0  0  0  0  0  0  0  0  0  0  0
   -9.7730   18.4140  -31.5851 H   0  0  0  0  0  0  0  0  0  0  0  0
   -9.7182   20.4849  -30.1975 H   0  0  0  0  0  0  0  0  0  0  0  0
   -7.9806   22.2224  -30.6135 H   0  0  0  0  0  0  0  0  0  0  0  0
   -5.4250   21.9718  -33.3654 H   0  0  0  0  0  0  0  0  0  0  0  0
   -6.5360   23.1770  -32.6135 H   0  0  0  0  0  0  0  0  0  0  0  0
   -6.6475   23.4232  -30.3516 H   0  0  0  0  0  0  0  0  0  0  0  0
   -5.1018   23.1946  -29.4011 H   0  0  0  0  0  0  0  0  0  0  0  0
   -5.0771   24.8804  -31.8975 H   0  0  0  0  0  0  0  0  0  0  0  0
   -5.7258   25.5568  -30.3477 H   0  0  0  0  0  0  0  0  0  0  0  0
   -1.7356   25.4331  -28.7091 H   0  0  0  0  0  0  0  0  0  0  0  0
   -0.0362   23.7633  -28.0029 H   0  0  0  0  0  0  0  0  0  0  0  0
    0.3313   20.4260  -29.6521 H   0  0  0  0  0  0  0  0  0  0  0  0
    1.1596   21.7051  -28.6626 H   0  0  0  0  0  0  0  0  0  0  0  0
    0.6880   20.3900  -26.9950 H   0  0  0  0  0  0  0  0  0  0  0  0
   -1.1898   19.0923  -28.8373 H   0  0  0  0  0  0  0  0  0  0  0  0
    0.3133   18.4651  -28.0448 H   0  0  0  0  0  0  0  0  0  0  0  0
   -1.7020   17.4461  -27.0524 H   0  0  0  0  0  0  0  0  0  0  0  0
   -0.8209   18.5008  -25.8630 H   0  0  0  0  0  0  0  0  0  0  0  0
   -4.4873   18.2079  -26.2661 H   0  0  0  0  0  0  0  0  0  0  0  0
   -4.4190   19.2821  -27.7042 H   0  0  0  0  0  0  0  0  0  0  0  0
   -3.5261   17.7235  -27.7042 H   0  0  0  0  0  0  0  0  0  0  0  0
   -2.8734   20.6763  -28.0681 H   0  0  0  0  0  0  0  0  0  0  0  0
   -3.3060   21.2529  -26.4093 H   0  0  0  0  0  0  0  0  0  0  0  0
   -1.1945   22.2716  -27.1706 H   0  0  0  0  0  0  0  0  0  0  0  0
   -0.9316   21.1539  -25.7600 H   0  0  0  0  0  0  0  0  0  0  0  0
   -1.8122   20.8328  -30.6432 H   0  0  0  0  0  0  0  0  0  0  0  0
   -3.6396   23.1881  -32.5364 H   0  0  0  0  0  0  0  0  0  0  0  0
   -3.4130   21.4277  -32.1238 H   0  0  0  0  0  0  0  0  0  0  0  0
  1  2  1  0
  2  3  1  0
  3  4  2  0
  4  5  1  0
  5  6  2  0
  6  7  1  0
  7  8  2  0
  8  9  1  0
  9 10  1  0
 10 11  1  0
 11 12  1  0
 12 13  1  0
 13 14  1  0
 14 15  2  0
 15 16  1  0
 16 17  2  0
 17 18  1  0
 18 19  1  0
 19 20  1  0
 20 21  1  0
 21 22  1  0
 22 23  1  0
 22 24  1  0
 24 25  1  0
 17 26  1  0
 26 27  2  0
 27 28  1  0
  8  3  1  0
 28 10  1  0
 27 14  1  0
 25 19  1  0
  1 29  1  0
  1 30  1  0
  1 31  1  0
  4 32  1  0
  5 33  1  0
  6 34  1  0
  7 35  1  0
  9 36  1  0
  9 37  1  0
 11 38  1  0
 11 39  1  0
 12 40  1  0
 12 41  1  0
 15 42  1  0
 16 43  1  0
 18 44  1  0
 18 45  1  0
 19 46  1  0
 20 47  1  0
 20 48  1  0
 21 49  1  0
 21 50  1  0
 23 51  1  0
 23 52  1  0
 23 53  1  0
 24 54  1  0
 24 55  1  0
 25 56  1  0
 25 57  1  0
 26 58  1  0
 28 59  1  0
 28 60  1  0
M  CHG  1  19   1
M  END
>  <UniqueID>  (11) 
10

>  <SMILES>  (11) 
COc1ccccc1CN1CCOc2ccc(C[NH+]3CCN(C)CC3)cc2C1

>  <Energy>  (11) 
89.56168615757494

>  <Genealogy>  (11) 
COc1ccccc1CN1CCOc2ccc(C[NH+]3CCN(C)CC3)cc2C1 (protonated)
COc1ccccc1CN1CCOc2ccc(C[NH+]3CCN(C)CC3)cc2C1 (3D coordinates assigned)
COc1ccccc1CN1CCOc2ccc(C[NH+]3CCN(C)CC3)cc2C1 (nonaromatic ring conformer: 89.56168615757494 kcal/mol)

>  <smiles>  (11) 
COc1ccccc1CN1CCOc2ccc(CN3CCN(C)CC3)cc2C1

>  <score_type>  (11) 
oracle

>  <origin>  (11) 
adg

>  <m_score__min__energy>  (11) 
-6.9299999999999997

>  <m_primary>  (11) 
energy

$$$$
11:0
     RDKit          3D

 38 39  0  0  0  0  0  0  0  0999 V2000
   -6.8680   23.8410  -30.3790 C   0  0  0  0  0  0  0  0  0  0  0  0
   -7.5930   22.4930  -30.2900 C   0  0  0  0  0  0  0  0  0  0  0  0
   -7.1280   21.5270  -31.3270 N   0  0  2  0  0  0  0  0  0  0  0  0
   -6.2510   22.1560  -32.3470 C   0  0  0  0  0  0  0  0  0  0  0  0
   -4.8300   21.6490  -32.2760 C   0  0  0  0  0  0  0  0  0  0  0  0
   -4.2620   21.2870  -31.0430 C   0  0  0  0  0  0  0  0  0  0  0  0
   -2.9530   20.8000  -30.9860 C   0  0  0  0  0  0  0  0  0  0  0  0
   -2.2030   20.6690  -32.1580 C   0  0  0  0  0  0  0  0  0  0  0  0
   -2.7600   21.0280  -33.3890 C   0  0  0  0  0  0  0  0  0  0  0  0
   -4.0680   21.5170  -33.4490 C   0  0  0  0  0  0  0  0  0  0  0  0
   -8.2640   20.9080  -31.9940 C   0  0  0  0  0  0  0  0  0  0  0  0
   -9.7920   21.4740  -31.7460 S   0  0  0  0  0  0  0  0  0  0  0  0
   -8.0580   19.9770  -33.0690 N   0  0  0  0  0  0  0  0  0  0  0  0
   -7.0420   18.9620  -33.0690 C   0  0  0  0  0  0  0  0  0  0  0  0
   -6.1130   18.8610  -34.1220 C   0  0  0  0  0  0  0  0  0  0  0  0
   -5.1220   17.8760  -34.0950 C   0  0  0  0  0  0  0  0  0  0  0  0
   -5.0380   16.9950  -33.0120 C   0  0  0  0  0  0  0  0  0  0  0  0
   -4.0750   16.0410  -32.9860 F   0  0  0  0  0  0  0  0  0  0  0  0
   -5.9420   17.1050  -31.9510 C   0  0  0  0  0  0  0  0  0  0  0  0
   -6.9350   18.0890  -31.9760 C   0  0  0  0  0  0  0  0  0  0  0  0
   -6.6661   24.2164  -29.3649 H   0  0  0  0  0  0  0  0  0  0  0  0
   -5.9179   23.7114  -30.9180 H   0  0  0  0  0  0  0  0  0  0  0  0
   -7.4999   24.5623  -30.9180 H   0  0  0  0  0  0  0  0  0  0  0  0
   -7.4106   22.0589  -29.2959 H   0  0  0  0  0  0  0  0  0  0  0  0
   -8.6642   22.6768  -30.4596 H   0  0  0  0  0  0  0  0  0  0  0  0
   -6.5760   20.7660  -30.8680 H   0  0  0  0  0  0  0  0  0  0  0  0
   -6.6556   21.9347  -33.3457 H   0  0  0  0  0  0  0  0  0  0  0  0
   -6.2312   23.2382  -32.1510 H   0  0  0  0  0  0  0  0  0  0  0  0
   -4.8498   21.3872  -30.1187 H   0  0  0  0  0  0  0  0  0  0  0  0
   -2.5128   20.5196  -30.0177 H   0  0  0  0  0  0  0  0  0  0  0  0
   -1.1739   20.2832  -32.1118 H   0  0  0  0  0  0  0  0  0  0  0  0
   -2.1686   20.9256  -34.3108 H   0  0  0  0  0  0  0  0  0  0  0  0
   -4.5028   21.7998  -34.4190 H   0  0  0  0  0  0  0  0  0  0  0  0
   -8.6930   20.0350  -33.8970 H   0  0  0  0  0  0  0  0  0  0  0  0
   -6.1674   19.5602  -34.9694 H   0  0  0  0  0  0  0  0  0  0  0  0
   -4.4069   17.7935  -34.9268 H   0  0  0  0  0  0  0  0  0  0  0  0
   -5.8719   16.4167  -31.0958 H   0  0  0  0  0  0  0  0  0  0  0  0
   -7.6366   18.1792  -31.1336 H   0  0  0  0  0  0  0  0  0  0  0  0
  1  2  1  0
  2  3  1  0
  3  4  1  0
  4  5  1  0
  5  6  2  0
  6  7  1  0
  7  8  2  0
  8  9  1  0
  9 10  2  0
  3 11  1  0
 11 12  2  0
 11 13  1  0
 13 14  1  0
 14 15  2  0
 15 16  1  0
 16 17  2  0
 17 18  1  0
 17 19  1  0
 19 20  2  0
 10  5  1  0
 20 14  1  0
  1 21  1  0
  1 22  1  0
  1 23  1  0
  2 24  1  0
  2 25  1  0
  3 26  1  1
  4 27  1  0
  4 28  1  0
  6 29  1  0
  7 30  1  0
  8 31  1  0
  9 32  1  0
 10 33  1  0
 13 34  1  0
 15 35  1  0
 16 36  1  0
 19 37  1  0
 20 38  1  0
M  CHG  1   3   1
M  END
>  <UniqueID>  (12) 
11

>  <SMILES>  (12) 
CC[N@H+](Cc1ccccc1)C(=S)Nc1ccc(F)cc1

>  <Energy>  (12) 
46.45841410412823

>  <Genealogy>  (12) 
CC[NH+](Cc1ccccc1)C(=S)Nc1ccc(F)cc1 (protonated)
CC[N@H+](Cc1ccccc1)C(=S)Nc1ccc(F)cc1 (chirality)
CC[N@H+](Cc1ccccc1)C(=S)Nc1ccc(F)cc1 (3D coordinates assigned)
CC[N@H+](Cc1ccccc1)C(=S)Nc1ccc(F)cc1 (optimized conformer: 46.45841410412823 kcal/mol)

>  <smiles>  (12) 
CCN(Cc1ccccc1)C(=S)Nc1ccc(F)cc1

>  <score_type>  (12) 
oracle

>  <origin>  (12) 
adg

>  <m_score__min__energy>  (12) 
-6.25

>  <m_primary>  (12) 
energy

$$$$
12:0
     RDKit          3D

 59 62  0  0  0  0  0  0  0  0999 V2000
   -5.8930   16.0010  -34.2120 C   0  0  0  0  0  0  0  0  0  0  0  0
   -4.8500   16.8860  -34.6090 O   0  0  0  0  0  0  0  0  0  0  0  0
   -4.3720   17.9470  -33.8270 C   0  0  0  0  0  0  0  0  0  0  0  0
   -5.0730   18.2860  -32.6650 C   0  0  0  0  0  0  0  0  0  0  0  0
   -4.6350   19.3320  -31.8480 C   0  0  0  0  0  0  0  0  0  0  0  0
   -3.4730   20.0480  -32.1770 C   0  0  0  0  0  0  0  0  0  0  0  0
   -2.9980   21.1610  -31.3250 C   0  0  0  0  0  0  0  0  0  0  0  0
   -3.5320   22.3970  -31.3850 N   0  0  0  0  0  0  0  0  0  0  0  0
   -2.9010   23.1140  -30.4340 C   0  0  0  0  0  0  0  0  0  0  0  0
   -3.1670   24.5260  -30.0910 C   0  0  0  0  0  0  0  0  0  0  0  0
   -2.3830   25.1090  -29.2970 O   0  0  0  0  0  0  0  0  0  0  0  0
   -4.2470   25.2840  -30.6590 N   0  0  0  0  0  0  0  0  0  0  0  0
   -5.6700   24.9710  -30.5710 C   0  0  0  0  0  0  0  0  0  0  0  0
   -6.1210   24.1800  -31.8080 C   0  0  0  0  0  0  0  0  0  0  0  0
   -6.4110   22.7710  -31.4620 N   0  0  0  0  0  0  0  0  0  0  0  0
   -6.5880   21.9370  -32.6760 C   0  0  0  0  0  0  0  0  0  0  0  0
   -7.4280   20.6870  -32.3700 C   0  0  0  0  0  0  0  0  0  0  0  0
   -8.7400   20.9780  -31.9060 O   0  0  0  0  0  0  0  0  0  0  0  0
   -8.8470   22.2310  -31.2440 C   0  0  0  0  0  0  0  0  0  0  0  0
   -7.5540   22.6590  -30.5240 C   0  0  0  0  0  0  0  0  0  0  0  0
   -1.9970   22.2920  -29.7890 C   0  0  0  0  0  0  0  0  0  0  0  0
   -2.0480   21.0710  -30.3610 N   0  0  0  0  0  0  0  0  0  0  0  0
   -1.1760   19.9690  -30.0510 C   0  0  0  0  0  0  0  0  0  0  0  0
   -0.9760   19.5810  -28.7160 C   0  0  0  0  0  0  0  0  0  0  0  0
   -0.1280   18.5130  -28.4100 C   0  0  0  0  0  0  0  0  0  0  0  0
    0.5310   17.8170  -29.4340 C   0  0  0  0  0  0  0  0  0  0  0  0
    1.4660   16.6910  -29.1060 C   0  0  0  0  0  0  0  0  0  0  0  0
    0.3590   18.2240  -30.7650 C   0  0  0  0  0  0  0  0  0  0  0  0
   -0.4870   19.2940  -31.0720 C   0  0  0  0  0  0  0  0  0  0  0  0
   -2.7790   19.7230  -33.3520 C   0  0  0  0  0  0  0  0  0  0  0  0
   -3.2180   18.6780  -34.1690 C   0  0  0  0  0  0  0  0  0  0  0  0
   -5.9411   15.9602  -33.1138 H   0  0  0  0  0  0  0  0  0  0  0  0
   -6.8528   16.3645  -34.6078 H   0  0  0  0  0  0  0  0  0  0  0  0
   -5.6906   14.9948  -34.6078 H   0  0  0  0  0  0  0  0  0  0  0  0
   -5.9780   17.7237  -32.3915 H   0  0  0  0  0  0  0  0  0  0  0  0
   -5.2030   19.5953  -30.9436 H   0  0  0  0  0  0  0  0  0  0  0  0
   -4.3200   22.6970  -31.9960 H   0  0  0  0  0  0  0  0  0  0  0  0
   -5.8537   24.3690  -29.6689 H   0  0  0  0  0  0  0  0  0  0  0  0
   -6.2399   25.9105  -30.5206 H   0  0  0  0  0  0  0  0  0  0  0  0
   -7.0299   24.6435  -32.2192 H   0  0  0  0  0  0  0  0  0  0  0  0
   -5.3088   24.1978  -32.5496 H   0  0  0  0  0  0  0  0  0  0  0  0
   -7.0967   22.5314  -33.4493 H   0  0  0  0  0  0  0  0  0  0  0  0
   -5.5964   21.6147  -33.0265 H   0  0  0  0  0  0  0  0  0  0  0  0
   -7.5098   20.0901  -33.2903 H   0  0  0  0  0  0  0  0  0  0  0  0
   -6.9146   20.1454  -31.5618 H   0  0  0  0  0  0  0  0  0  0  0  0
   -9.1001   22.9984  -31.9903 H   0  0  0  0  0  0  0  0  0  0  0  0
   -9.6254   22.1243  -30.4742 H   0  0  0  0  0  0  0  0  0  0  0  0
   -7.7194   23.6360  -30.0464 H   0  0  0  0  0  0  0  0  0  0  0  0
   -7.3085   21.8896  -29.7772 H   0  0  0  0  0  0  0  0  0  0  0  0
   -1.3462   22.5835  -28.9514 H   0  0  0  0  0  0  0  0  0  0  0  0
   -1.4897   20.1207  -27.9068 H   0  0  0  0  0  0  0  0  0  0  0  0
    0.0233   18.2170  -27.3614 H   0  0  0  0  0  0  0  0  0  0  0  0
    1.5497   16.5902  -28.0138 H   0  0  0  0  0  0  0  0  0  0  0  0
    1.0760   15.7547  -29.5318 H   0  0  0  0  0  0  0  0  0  0  0  0
    2.4580   16.9023  -29.5318 H   0  0  0  0  0  0  0  0  0  0  0  0
    0.8922   17.6989  -31.5712 H   0  0  0  0  0  0  0  0  0  0  0  0
   -0.6136   19.6088  -32.1184 H   0  0  0  0  0  0  0  0  0  0  0  0
   -1.8823   20.2952  -33.6323 H   0  0  0  0  0  0  0  0  0  0  0  0
   -2.6601   18.4254  -35.0827 H   0  0  0  0  0  0  0  0  0  0  0  0
  1  2  1  0
  2  3  1  0
  3  4  2  0
  4  5  1  0
  5  6  2  0
  6  7  1  0
  7  8  2  0
  8  9  1  0
  9 10  1  0
 10 11  2  0
 10 12  1  0
 12 13  1  0
 13 14  1  0
 14 15  1  0
 15 16  1  0
 16 17  1  0
 17 18  1  0
 18 19  1  0
 19 20  1  0
  9 21  2  0
 21 22  1  0
 22 23  1  0
 23 24  2  0
 24 25  1  0
 25 26  2  0
 26 27  1  0
 26 28  1  0
 28 29  2  0
  6 30  1  0
 30 31  2  0
 31  3  1  0
 22  7  1  0
 29 23  1  0
 20 15  1  0
  1 32  1  0
  1 33  1  0
  1 34  1  0
  4 35  1  0
  5 36  1  0
  8 37  1  0
 13 38  1  0
 13 39  1  0
 14 40  1  0
 14 41  1  0
 16 42  1  0
 16 43  1  0
 17 44  1  0
 17 45  1  0
 19 46  1  0
 19 47  1  0
 20 48  1  0
 20 49  1  0
 21 50  1  0
 24 51  1  0
 25 52  1  0
 27 53  1  0
 27 54  1  0
 27 55  1  0
 28 56  1  0
 29 57  1  0
 30 58  1  0
 31 59  1  0
M  CHG  2   8   1  12  -1
M  END
>  <UniqueID>  (13) 
12

>  <SMILES>  (13) 
COc1ccc(-c2[nH+]c(C(=O)[N-]CCN3CCOCC3)cn2-c2ccc(C)cc2)cc1

>  <Energy>  (13) 
116.33148062635534

>  <Genealogy>  (13) 
COc1ccc(-c2[nH+]c(C(=O)[N-]CCN3CCOCC3)cn2-c2ccc(C)cc2)cc1 (protonated)
COc1ccc(-c2[nH+]c(C(=O)[N-]CCN3CCOCC3)cn2-c2ccc(C)cc2)cc1 (3D coordinates assigned)
COc1ccc(-c2[nH+]c(C(=O)[N-]CCN3CCOCC3)cn2-c2ccc(C)cc2)cc1 (nonaromatic ring conformer: 116.33148062635534 kcal/mol)

>  <smiles>  (13) 
COc1ccc(-c2nc(C(=O)NCCN3CCOCC3)cn2-c2ccc(C)cc2)cc1

>  <score_type>  (13) 
oracle

>  <origin>  (13) 
adg

>  <m_score__min__energy>  (13) 
-8.5700000000000003

>  <m_primary>  (13) 
energy

$$$$
13:0
     RDKit          3D

 59 62  0  0  0  0  0  0  0  0999 V2000
    0.4020   28.0910  -26.7080 C   0  0  0  0  0  0  0  0  0  0  0  0
    1.3290   26.9300  -27.0940 C   0  0  0  0  0  0  0  0  0  0  0  0
    0.6160   25.6770  -27.4540 N   0  0  0  0  0  0  0  0  0  0  0  0
    1.4810   24.4740  -27.5000 C   0  0  0  0  0  0  0  0  0  0  0  0
    1.0430   23.4230  -26.4810 C   0  0  0  0  0  0  0  0  0  0  0  0
   -0.6090   25.4600  -26.6430 C   0  0  0  0  0  0  0  0  0  0  0  0
   -1.8350   25.1930  -27.5410 C   0  0  1  0  0  0  0  0  0  0  0  0
   -1.5680   24.0780  -28.5700 C   0  0  0  0  0  0  0  0  0  0  0  0
   -2.7220   23.9450  -29.5860 C   0  0  0  0  0  0  0  0  0  0  0  0
   -4.0890   24.4240  -29.0360 C   0  0  1  0  0  0  0  0  0  0  0  0
   -5.2240   23.7760  -29.7930 C   0  0  0  0  0  0  0  0  0  0  0  0
   -6.4820   24.3960  -29.8770 C   0  0  0  0  0  0  0  0  0  0  0  0
   -7.4790   23.8010  -30.5840 N   0  0  0  0  0  0  0  0  0  0  0  0
   -7.2790   22.6180  -31.2200 C   0  0  0  0  0  0  0  0  0  0  0  0
   -8.3010   22.0090  -31.9430 C   0  0  0  0  0  0  0  0  0  0  0  0
   -8.0610   20.7940  -32.5880 C   0  0  0  0  0  0  0  0  0  0  0  0
   -6.7900   20.1950  -32.5040 C   0  0  0  0  0  0  0  0  0  0  0  0
   -6.5190   18.9090  -33.1960 C   0  0  0  0  0  0  0  0  0  0  0  0
   -7.1070   17.7170  -32.7360 C   0  0  0  0  0  0  0  0  0  0  0  0
   -6.8540   16.5050  -33.3870 C   0  0  0  0  0  0  0  0  0  0  0  0
   -6.0140   16.4710  -34.5030 C   0  0  0  0  0  0  0  0  0  0  0  0
   -5.4240   17.6480  -34.9680 C   0  0  0  0  0  0  0  0  0  0  0  0
   -5.6730   18.8620  -34.3200 C   0  0  0  0  0  0  0  0  0  0  0  0
   -5.8020   20.8140  -31.7870 N   0  0  0  0  0  0  0  0  0  0  0  0
   -6.0190   21.9980  -31.1500 C   0  0  0  0  0  0  0  0  0  0  0  0
   -5.0250   22.5940  -30.4420 N   0  0  0  0  0  0  0  0  0  0  0  0
   -4.2040   24.1530  -27.5250 C   0  0  0  0  0  0  0  0  0  0  0  0
   -3.1140   24.8930  -26.7190 C   0  0  0  0  0  0  0  0  0  0  0  0
    0.3433   28.1645  -25.6120 H   0  0  0  0  0  0  0  0  0  0  0  0
    0.8011   29.0306  -27.1177 H   0  0  0  0  0  0  0  0  0  0  0  0
   -0.6027   27.9098  -27.1177 H   0  0  0  0  0  0  0  0  0  0  0  0
    1.9337   27.2435  -27.9578 H   0  0  0  0  0  0  0  0  0  0  0  0
    1.9392   26.7036  -26.2072 H   0  0  0  0  0  0  0  0  0  0  0  0
    1.4295   24.0364  -28.5079 H   0  0  0  0  0  0  0  0  0  0  0  0
    2.5085   24.7812  -27.2553 H   0  0  0  0  0  0  0  0  0  0  0  0
    1.2039   23.8092  -25.4637 H   0  0  0  0  0  0  0  0  0  0  0  0
   -0.0242   23.1971  -26.6229 H   0  0  0  0  0  0  0  0  0  0  0  0
    1.6339   22.5061  -26.6229 H   0  0  0  0  0  0  0  0  0  0  0  0
   -0.4530   24.5942  -25.9827 H   0  0  0  0  0  0  0  0  0  0  0  0
   -0.8012   26.3688  -26.0538 H   0  0  0  0  0  0  0  0  0  0  0  0
   -2.0135   26.1249  -28.0975 H   0  0  0  0  0  0  0  0  0  0  0  0
   -0.6404   24.3103  -29.1137 H   0  0  0  0  0  0  0  0  0  0  0  0
   -1.4807   23.1258  -28.0263 H   0  0  0  0  0  0  0  0  0  0  0  0
   -2.4746   24.5450  -30.4741 H   0  0  0  0  0  0  0  0  0  0  0  0
   -2.8248   22.8751  -29.8202 H   0  0  0  0  0  0  0  0  0  0  0  0
   -4.1557   25.5118  -29.1852 H   0  0  0  0  0  0  0  0  0  0  0  0
   -6.6592   25.3577  -29.3734 H   0  0  0  0  0  0  0  0  0  0  0  0
   -9.2920   22.4823  -32.0058 H   0  0  0  0  0  0  0  0  0  0  0  0
   -8.8635   20.3060  -33.1606 H   0  0  0  0  0  0  0  0  0  0  0  0
   -7.7701   17.7380  -31.8586 H   0  0  0  0  0  0  0  0  0  0  0  0
   -7.3171   15.5773  -33.0198 H   0  0  0  0  0  0  0  0  0  0  0  0
   -5.8176   15.5175  -35.0150 H   0  0  0  0  0  0  0  0  0  0  0  0
   -4.7619   17.6203  -35.8460 H   0  0  0  0  0  0  0  0  0  0  0  0
   -5.2049   19.7857  -34.6909 H   0  0  0  0  0  0  0  0  0  0  0  0
   -4.8610   20.3660  -31.7000 H   0  0  0  0  0  0  0  0  0  0  0  0
   -5.1921   24.4898  -27.1782 H   0  0  0  0  0  0  0  0  0  0  0  0
   -4.0717   23.0731  -27.3628 H   0  0  0  0  0  0  0  0  0  0  0  0
   -3.5310   25.8467  -26.3632 H   0  0  0  0  0  0  0  0  0  0  0  0
   -2.8190   24.2321  -25.8906 H   0  0  0  0  0  0  0  0  0  0  0  0
  1  2  1  0
  2  3  1  0
  3  4  1  0
  4  5  1  0
  3  6  1  0
  6  7  1  0
  7  8  1  0
  8  9  1  0
  9 10  1  0
 10 11  1  0
 11 12  2  0
 12 13  1  0
 13 14  2  0
 14 15  1  0
 15 16  2  0
 16 17  1  0
 17 18  1  0
 18 19  2  0
 19 20  1  0
 20 21  2  0
 21 22  1  0
 22 23  2  0
 17 24  2  0
 24 25  1  0
 25 26  2  0
 10 27  1  0
 27 28  1  0
 28  7  1  0
 26 11  1  0
 25 14  1  0
 23 18  1  0
  1 29  1  0
  1 30  1  0
  1 31  1  0
  2 32  1  0
  2 33  1  0
  4 34  1  0
  4 35  1  0
  5 36  1  0
  5 37  1  0
  5 38  1  0
  6 39  1  0
  6 40  1  0
  7 41  1  6
  8 42  1  0
  8 43  1  0
  9 44  1  0
  9 45  1  0
 10 46  1  1
 12 47  1  0
 15 48  1  0
 16 49  1  0
 19 50  1  0
 20 51  1  0
 21 52  1  0
 22 53  1  0
 23 54  1  0
 24 55  1  0
 27 56  1  0
 27 57  1  0
 28 58  1  0
 28 59  1  0
M  CHG  1  24   1
M  END
>  <UniqueID>  (14) 
13

>  <SMILES>  (14) 
CCN(CC)CC1CCC(c2cnc3ccc(-c4ccccc4)[nH+]c3n2)CC1

>  <Energy>  (14) 
75.755208023775

>  <Genealogy>  (14) 
CCN(CC)CC1CCC(c2cnc3ccc(-c4ccccc4)[nH+]c3n2)CC1 (protonated)
CCN(CC)CC1CCC(c2cnc3ccc(-c4ccccc4)[nH+]c3n2)CC1 (3D coordinates assigned)
CCN(CC)CC1CCC(c2cnc3ccc(-c4ccccc4)[nH+]c3n2)CC1 (nonaromatic ring conformer: 75.755208023775 kcal/mol)

>  <smiles>  (14) 
CCN(CC)CC1CCC(c2cnc3ccc(-c4ccccc4)nc3n2)CC1

>  <score_type>  (14) 
oracle

>  <origin>  (14) 
adg

>  <m_score__min__energy>  (14) 
-8.7599999999999998

>  <m_primary>  (14) 
energy

$$$$
14:0
     RDKit          3D

 34 36  0  0  0  0  0  0  0  0999 V2000
   -0.8480   24.9270  -28.8650 C   0  0  0  0  0  0  0  0  0  0  0  0
   -2.3030   24.6370  -28.7170 C   0  0  0  0  0  0  0  0  0  0  0  0
   -2.9160   24.1360  -27.5850 C   0  0  0  0  0  0  0  0  0  0  0  0
   -4.2610   24.0760  -27.8850 C   0  0  0  0  0  0  0  0  0  0  0  0
   -4.3780   24.5520  -29.1770 C   0  0  0  0  0  0  0  0  0  0  0  0
   -5.6600   24.7210  -29.9420 C   0  0  0  0  0  0  0  0  0  0  0  0
   -5.4290   24.8460  -31.3960 N   0  0  0  0  0  0  0  0  0  0  0  0
   -6.0450   23.8000  -32.2390 C   0  0  2  0  0  0  0  0  0  0  0  0
   -7.4830   23.4120  -31.7710 C   0  0  0  0  0  0  0  0  0  0  0  0
   -7.4990   21.8780  -31.5110 C   0  0  0  0  0  0  0  0  0  0  0  0
   -6.1050   21.4890  -31.7970 C   0  0  0  0  0  0  0  0  0  0  0  0
   -5.5890   20.3100  -32.1850 N   0  0  0  0  0  0  0  0  0  0  0  0
   -4.4290   20.6010  -32.7690 N   0  0  0  0  0  0  0  0  0  0  0  0
   -3.5860   19.6110  -33.4200 C   0  0  0  0  0  0  0  0  0  0  0  0
   -4.2640   21.9440  -32.8450 C   0  0  0  0  0  0  0  0  0  0  0  0
   -5.3340   22.5040  -32.1910 C   0  0  0  0  0  0  0  0  0  0  0  0
   -3.1960   24.8750  -29.6480 O   0  0  0  0  0  0  0  0  0  0  0  0
   -0.3892   25.0184  -27.8694 H   0  0  0  0  0  0  0  0  0  0  0  0
   -0.3651   24.1074  -29.4174 H   0  0  0  0  0  0  0  0  0  0  0  0
   -0.7162   25.8691  -29.4174 H   0  0  0  0  0  0  0  0  0  0  0  0
   -2.4322   23.8454  -26.6408 H   0  0  0  0  0  0  0  0  0  0  0  0
   -5.0721   23.7226  -27.2314 H   0  0  0  0  0  0  0  0  0  0  0  0
   -6.3001   23.8454  -29.7588 H   0  0  0  0  0  0  0  0  0  0  0  0
   -6.1410   25.6475  -29.5952 H   0  0  0  0  0  0  0  0  0  0  0  0
   -4.4010   24.8850  -31.5950 H   0  0  0  0  0  0  0  0  0  0  0  0
   -6.0190   24.2612  -33.2373 H   0  0  0  0  0  0  0  0  0  0  0  0
   -7.7340   23.9513  -30.8457 H   0  0  0  0  0  0  0  0  0  0  0  0
   -8.2232   23.6799  -32.5393 H   0  0  0  0  0  0  0  0  0  0  0  0
   -7.7676   21.6548  -30.4679 H   0  0  0  0  0  0  0  0  0  0  0  0
   -8.2380   21.3383  -32.1214 H   0  0  0  0  0  0  0  0  0  0  0  0
   -3.0724   19.0079  -32.6568 H   0  0  0  0  0  0  0  0  0  0  0  0
   -4.2078   18.9558  -34.0478 H   0  0  0  0  0  0  0  0  0  0  0  0
   -2.8401   20.1204  -34.0478 H   0  0  0  0  0  0  0  0  0  0  0  0
   -3.4368   22.4796  -33.3338 H   0  0  0  0  0  0  0  0  0  0  0  0
  1  2  1  0
  2  3  2  0
  3  4  1  0
  4  5  2  0
  5  6  1  0
  6  7  1  0
  7  8  1  0
  8  9  1  0
  9 10  1  0
 10 11  1  0
 11 12  2  0
 12 13  1  0
 13 14  1  0
 13 15  1  0
 15 16  2  0
  5 17  1  0
 17  2  1  0
 16  8  1  0
 16 11  1  0
  1 18  1  0
  1 19  1  0
  1 20  1  0
  3 21  1  0
  4 22  1  0
  6 23  1  0
  6 24  1  0
  7 25  1  0
  8 26  1  6
  9 27  1  0
  9 28  1  0
 10 29  1  0
 10 30  1  0
 14 31  1  0
 14 32  1  0
 14 33  1  0
 15 34  1  0
M  END
>  <UniqueID>  (15) 
14

>  <SMILES>  (15) 
Cc1ccc(CN[C@@H]2CCc3nn(C)cc32)o1

>  <Energy>  (15) 
113.73275846210949

>  <Genealogy>  (15) 
Cc1ccc(CN[C@@H]2CCc3nn(C)cc32)o1 (chirality)
Cc1ccc(CN[C@@H]2CCc3nn(C)cc32)o1 (3D coordinates assigned)
Cc1ccc(CN[C@@H]2CCc3nn(C)cc32)o1 (nonaromatic ring conformer: 113.73275846210949 kcal/mol)

>  <smiles>  (15) 
Cc1ccc(CNC2CCc3nn(C)cc32)o1

>  <score_type>  (15) 
oracle

>  <origin>  (15) 
adg

>  <m_score__min__energy>  (15) 
-7.6200000000000001

>  <m_primary>  (15) 
energy

$$$$
15:0
     RDKit          3D

 32 33  0  0  0  0  0  0  0  0999 V2000
   -6.8070   16.4600  -33.8390 C   0  0  0  0  0  0  0  0  0  0  0  0
   -5.7590   17.4610  -34.0750 N   0  0  0  0  0  0  0  0  0  0  0  0
   -4.6360   17.1170  -34.9550 C   0  0  0  0  0  0  0  0  0  0  0  0
   -5.8310   18.7680  -33.4470 C   0  0  0  0  0  0  0  0  0  0  0  0
   -7.0240   19.2200  -32.8470 C   0  0  0  0  0  0  0  0  0  0  0  0
   -7.0920   20.4780  -32.2440 C   0  0  0  0  0  0  0  0  0  0  0  0
   -5.9700   21.3220  -32.2210 C   0  0  0  0  0  0  0  0  0  0  0  0
   -6.0430   22.6600  -31.5790 C   0  0  0  0  0  0  0  0  0  0  0  0
   -7.2790   23.3010  -31.3870 C   0  0  0  0  0  0  0  0  0  0  0  0
   -7.3360   24.5270  -30.7990 N   0  0  0  0  0  0  0  0  0  0  0  0
   -6.2140   25.1690  -30.3780 C   0  0  0  0  0  0  0  0  0  0  0  0
   -4.9590   24.5750  -30.5440 C   0  0  0  0  0  0  0  0  0  0  0  0
   -3.7760   25.2440  -30.0990 N   0  0  0  0  0  0  0  0  0  0  0  0
   -4.8780   23.3160  -31.1480 C   0  0  0  0  0  0  0  0  0  0  0  0
   -4.7780   20.8800  -32.8170 C   0  0  0  0  0  0  0  0  0  0  0  0
   -4.7090   19.6220  -33.4210 C   0  0  0  0  0  0  0  0  0  0  0  0
   -6.9482   16.3252  -32.7565 H   0  0  0  0  0  0  0  0  0  0  0  0
   -7.7493   16.8019  -34.2919 H   0  0  0  0  0  0  0  0  0  0  0  0
   -6.5086   15.5030  -34.2919 H   0  0  0  0  0  0  0  0  0  0  0  0
   -3.7608   16.8489  -34.3449 H   0  0  0  0  0  0  0  0  0  0  0  0
   -4.9158   16.2634  -35.5898 H   0  0  0  0  0  0  0  0  0  0  0  0
   -4.3897   17.9809  -35.5898 H   0  0  0  0  0  0  0  0  0  0  0  0
   -7.9136   18.5730  -32.8538 H   0  0  0  0  0  0  0  0  0  0  0  0
   -8.0335   20.8108  -31.7827 H   0  0  0  0  0  0  0  0  0  0  0  0
   -8.2065   22.8084  -31.7142 H   0  0  0  0  0  0  0  0  0  0  0  0
   -8.2650   24.9870  -30.6700 H   0  0  0  0  0  0  0  0  0  0  0  0
   -6.2937   26.1590  -29.9052 H   0  0  0  0  0  0  0  0  0  0  0  0
   -3.1140   25.6710  -30.7850 H   0  0  0  0  0  0  0  0  0  0  0  0
   -3.5560   25.3200  -29.0810 H   0  0  0  0  0  0  0  0  0  0  0  0
   -3.8973   22.8373  -31.2862 H   0  0  0  0  0  0  0  0  0  0  0  0
   -3.8906   21.5299  -32.8083 H   0  0  0  0  0  0  0  0  0  0  0  0
   -3.7663   19.2931  -33.8827 H   0  0  0  0  0  0  0  0  0  0  0  0
  1  2  1  0
  2  3  1  0
  2  4  1  0
  4  5  2  0
  5  6  1  0
  6  7  2  0
  7  8  1  0
  8  9  2  0
  9 10  1  0
 10 11  2  0
 11 12  1  0
 12 13  1  0
 12 14  2  0
  7 15  1  0
 15 16  2  0
 16  4  1  0
 14  8  1  0
  1 17  1  0
  1 18  1  0
  1 19  1  0
  3 20  1  0
  3 21  1  0
  3 22  1  0
  5 23  1  0
  6 24  1  0
  9 25  1  0
 10 26  1  0
 11 27  1  0
 13 28  1  0
 13 29  1  0
 14 30  1  0
 15 31  1  0
 16 32  1  0
M  CHG  1  10   1
M  END
>  <UniqueID>  (16) 
15

>  <SMILES>  (16) 
CN(C)c1ccc(-c2c[nH+]cc(N)c2)cc1

>  <Energy>  (16) 
37.87585022294229

>  <Genealogy>  (16) 
CN(C)c1ccc(-c2c[nH+]cc(N)c2)cc1 (protonated)
CN(C)c1ccc(-c2c[nH+]cc(N)c2)cc1 (3D coordinates assigned)
CN(C)c1ccc(-c2c[nH+]cc(N)c2)cc1 (optimized conformer: 37.87585022294229 kcal/mol)

>  <smiles>  (16) 
CN(C)c1ccc(-c2cncc(N)c2)cc1

>  <score_type>  (16) 
oracle

>  <origin>  (16) 
adg

>  <m_score__min__energy>  (16) 
-6.1500000000000004

>  <m_primary>  (16) 
energy

$$$$
16:0
     RDKit          3D

 60 64  0  0  1  0  0  0  0  0999 V2000
   -0.1180   22.0050  -34.6840 N   0  0  0  0  0  0  0  0  0  0  0  0
   -0.7700   20.9610  -34.2870 C   0  0  0  0  0  0  0  0  0  0  0  0
   -0.7870   19.8340  -35.0260 N   0  0  0  0  0  0  0  0  0  0  0  0
   -1.4470   18.7530  -34.6410 N   0  0  0  0  0  0  0  0  0  0  0  0
   -2.1480   18.6880  -33.4950 C   0  0  0  0  0  0  0  0  0  0  0  0
   -2.7950   17.6420  -33.1100 N   0  0  0  0  0  0  0  0  0  0  0  0
   -3.3460   16.7340  -34.0960 C   0  0  0  0  0  0  0  0  0  0  0  0
   -4.4210   17.4420  -34.9210 C   0  0  0  0  0  0  0  0  0  0  0  0
   -5.5100   17.9470  -34.0460 C   0  0  0  0  0  0  0  0  0  0  0  0
   -6.1280   17.1480  -33.1110 C   0  0  0  0  0  0  0  0  0  0  0  0
   -7.1550   17.6470  -32.2960 C   0  0  0  0  0  0  0  0  0  0  0  0
   -7.5890   18.9370  -32.3870 C   0  0  0  0  0  0  0  0  0  0  0  0
   -8.5590   19.5480  -31.6650 O   0  0  0  0  0  0  0  0  0  0  0  0
   -9.1740   20.7440  -31.9670 C   0  0  0  0  0  0  0  0  0  0  0  0
   -9.0650   21.7340  -30.8560 C   0  0  0  0  0  0  0  0  0  0  0  0
   -7.8050   22.5590  -30.9880 C   0  0  0  0  0  0  0  0  0  0  0  0
   -7.2840   22.7980  -32.2470 C   0  0  0  0  0  0  0  0  0  0  0  0
   -6.1290   23.5550  -32.3570 C   0  0  0  0  0  0  0  0  0  0  0  0
   -5.4850   24.0760  -31.2450 C   0  0  0  0  0  0  0  0  0  0  0  0
   -6.0280   23.8210  -30.0060 C   0  0  0  0  0  0  0  0  0  0  0  0
   -7.1780   23.0700  -29.8530 C   0  0  0  0  0  0  0  0  0  0  0  0
   -6.9440   19.7300  -33.3480 C   0  0  0  0  0  0  0  0  0  0  0  0
   -5.9390   19.2510  -34.1500 C   0  0  0  0  0  0  0  0  0  0  0  0
   -2.1440   19.8470  -32.7150 C   0  0  0  0  0  0  0  0  0  0  0  0
   -2.7290   20.1620  -31.5070 C   0  0  0  0  0  0  0  0  0  0  0  0
   -2.3730   21.4710  -31.2220 C   0  0  0  0  0  0  0  0  0  0  0  0
   -2.7670   22.2260  -30.0410 C   0  0  0  0  0  0  0  0  0  0  0  0
   -3.4350   21.6650  -28.9700 C   0  0  0  0  0  0  0  0  0  0  0  0
   -3.7950   22.4270  -27.8530 C   0  0  0  0  0  0  0  0  0  0  0  0
   -3.4800   23.7890  -27.8020 C   0  0  0  0  0  0  0  0  0  0  0  0
   -2.8050   24.3590  -28.8820 C   0  0  0  0  0  0  0  0  0  0  0  0
   -2.4660   23.5700  -29.9690 C   0  0  0  0  0  0  0  0  0  0  0  0
   -1.6010   21.8970  -32.2420 N   0  0  0  0  0  0  0  0  0  0  0  0
   -1.4610   20.9390  -33.1310 N   0  0  0  0  0  0  0  0  0  0  0  0
   -0.5090   22.7070  -35.3630 H   0  0  0  0  0  0  0  0  0  0  0  0
   -0.2540   19.8370  -35.9270 H   0  0  0  0  0  0  0  0  0  0  0  0
   -1.4220   17.9220  -35.2490 H   0  0  0  0  0  0  0  0  0  0  0  0
   -2.5421   16.3911  -34.7639 H   0  0  0  0  0  0  0  0  0  0  0  0
   -3.7972   15.8736  -33.5801 H   0  0  0  0  0  0  0  0  0  0  0  0
   -3.9659   18.2888  -35.4556 H   0  0  0  0  0  0  0  0  0  0  0  0
   -4.8477   16.7228  -35.6356 H   0  0  0  0  0  0  0  0  0  0  0  0
   -5.8112   16.1004  -33.0010 H   0  0  0  0  0  0  0  0  0  0  0  0
   -7.6249   16.9772  -31.5607 H   0  0  0  0  0  0  0  0  0  0  0  0
   -8.7016   21.1675  -32.8656 H   0  0  0  0  0  0  0  0  0  0  0  0
  -10.2423   20.5404  -32.1323 H   0  0  0  0  0  0  0  0  0  0  0  0
   -9.9377   22.4031  -30.8833 H   0  0  0  0  0  0  0  0  0  0  0  0
   -9.0283   21.1878  -29.9019 H   0  0  0  0  0  0  0  0  0  0  0  0
   -7.7774   22.3947  -33.1436 H   0  0  0  0  0  0  0  0  0  0  0  0
   -5.7105   23.7484  -33.3557 H   0  0  0  0  0  0  0  0  0  0  0  0
   -4.5682   24.6748  -31.3497 H   0  0  0  0  0  0  0  0  0  0  0  0
   -5.5322   24.2267  -29.1118 H   0  0  0  0  0  0  0  0  0  0  0  0
   -7.5917   22.8787  -28.8519 H   0  0  0  0  0  0  0  0  0  0  0  0
   -7.2567   20.7783  -33.4632 H   0  0  0  0  0  0  0  0  0  0  0  0
   -5.4691   19.9188  -34.8870 H   0  0  0  0  0  0  0  0  0  0  0  0
   -3.3564   19.5026  -30.8893 H   0  0  0  0  0  0  0  0  0  0  0  0
   -3.6897   20.5952  -28.9958 H   0  0  0  0  0  0  0  0  0  0  0  0
   -4.3264   21.9544  -27.0138 H   0  0  0  0  0  0  0  0  0  0  0  0
   -3.7585   24.3977  -26.9291 H   0  0  0  0  0  0  0  0  0  0  0  0
   -2.5439   25.4275  -28.8704 H   0  0  0  0  0  0  0  0  0  0  0  0
   -1.9336   24.0357  -30.8114 H   0  0  0  0  0  0  0  0  0  0  0  0
  1  2  2  3
  2  3  1  0
  3  4  1  0
  4  5  1  0
  5  6  2  0
  6  7  1  0
  7  8  1  0
  8  9  1  0
  9 10  2  0
 10 11  1  0
 11 12  2  0
 12 13  1  0
 13 14  1  0
 14 15  1  0
 15 16  1  0
 16 17  2  0
 17 18  1  0
 18 19  2  0
 19 20  1  0
 20 21  2  0
 12 22  1  0
 22 23  2  0
  5 24  1  0
 24 25  2  0
 25 26  1  0
 26 27  1  0
 27 28  2  0
 28 29  1  0
 29 30  2  0
 30 31  1  0
 31 32  2  0
 26 33  2  0
 33 34  1  0
 34  2  1  0
 23  9  1  0
 34 24  1  0
 21 16  1  0
 32 27  1  0
  1 35  1  0
  3 36  1  0
  4 37  1  0
  7 38  1  0
  7 39  1  0
  8 40  1  0
  8 41  1  0
 10 42  1  0
 11 43  1  0
 14 44  1  0
 14 45  1  0
 15 46  1  0
 15 47  1  0
 17 48  1  0
 18 49  1  0
 19 50  1  0
 20 51  1  0
 21 52  1  0
 22 53  1  0
 23 54  1  0
 25 55  1  0
 28 56  1  0
 29 57  1  0
 30 58  1  0
 31 59  1  0
 32 60  1  0
M  END
>  <smiles>  (17) 
N=c1[nH][nH]c(=NCCc2ccc(OCCc3ccccc3)cc2)c2cc(-c3ccccc3)nn12

>  <score_type>  (17) 
oracle

>  <origin>  (17) 
adg

>  <m_score__min__energy>  (17) 
-9.6999999999999993

>  <m_primary>  (17) 
energy

$$$$
17:0
     RDKit          3D

 33 35  0  0  0  0  0  0  0  0999 V2000
   -5.5750   24.9510  -30.8100 C   0  0  0  0  0  0  0  0  0  0  0  0
   -6.8600   24.1940  -30.4830 C   0  0  0  0  0  0  0  0  0  0  0  0
   -7.6200   23.7620  -31.7440 C   0  0  0  0  0  0  0  0  0  0  0  0
   -7.4460   22.3240  -32.0040 N   0  0  0  0  0  0  0  0  0  0  0  0
   -6.3750   21.9170  -32.7180 N   0  0  0  0  0  0  0  0  0  0  0  0
   -6.1670   20.6260  -33.0060 N   0  0  0  0  0  0  0  0  0  0  0  0
   -7.0480   19.7100  -32.5530 C   0  0  0  0  0  0  0  0  0  0  0  0
   -8.1430   20.0730  -31.8570 C   0  0  0  0  0  0  0  0  0  0  0  0
   -8.8450   18.9060  -31.6370 C   0  0  0  0  0  0  0  0  0  0  0  0
   -8.1590   17.8870  -32.2130 N   0  0  0  0  0  0  0  0  0  0  0  0
   -7.0550   18.3810  -32.7700 N   0  0  0  0  0  0  0  0  0  0  0  0
   -6.0980   17.5840  -33.4930 C   0  0  0  0  0  0  0  0  0  0  0  0
   -5.4860   18.0640  -34.6670 C   0  0  0  0  0  0  0  0  0  0  0  0
   -4.5530   17.2770  -35.3510 C   0  0  0  0  0  0  0  0  0  0  0  0
   -4.2150   16.0110  -34.8680 C   0  0  0  0  0  0  0  0  0  0  0  0
   -4.8040   15.5310  -33.6960 C   0  0  0  0  0  0  0  0  0  0  0  0
   -5.7370   16.3140  -33.0090 C   0  0  0  0  0  0  0  0  0  0  0  0
   -8.3690   21.4030  -31.5600 C   0  0  0  0  0  0  0  0  0  0  0  0
   -9.3970   21.7510  -30.9150 O   0  0  0  0  0  0  0  0  0  0  0  0
   -5.0750   25.2455  -29.8755 H   0  0  0  0  0  0  0  0  0  0  0  0
   -4.9062   24.3026  -31.3950 H   0  0  0  0  0  0  0  0  0  0  0  0
   -5.8180   25.8503  -31.3950 H   0  0  0  0  0  0  0  0  0  0  0  0
   -6.6033   23.2970  -29.9003 H   0  0  0  0  0  0  0  0  0  0  0  0
   -7.5129   24.8711  -29.9128 H   0  0  0  0  0  0  0  0  0  0  0  0
   -8.6906   23.9751  -31.6083 H   0  0  0  0  0  0  0  0  0  0  0  0
   -7.2186   24.3220  -32.6015 H   0  0  0  0  0  0  0  0  0  0  0  0
   -5.6830   22.6180  -33.0680 H   0  0  0  0  0  0  0  0  0  0  0  0
   -9.7952   18.8171  -31.0900 H   0  0  0  0  0  0  0  0  0  0  0  0
   -5.7429   19.0633  -35.0484 H   0  0  0  0  0  0  0  0  0  0  0  0
   -4.0847   17.6563  -36.2712 H   0  0  0  0  0  0  0  0  0  0  0  0
   -3.4851   15.3920  -35.4104 H   0  0  0  0  0  0  0  0  0  0  0  0
   -4.5336   14.5359  -33.3130 H   0  0  0  0  0  0  0  0  0  0  0  0
   -6.1921   15.9335  -32.0827 H   0  0  0  0  0  0  0  0  0  0  0  0
  1  2  1  0
  2  3  1  0
  3  4  1  0
  4  5  1  0
  5  6  2  0
  6  7  1  0
  7  8  2  0
  8  9  1  0
  9 10  2  0
 10 11  1  0
 11 12  1  0
 12 13  2  0
 13 14  1  0
 14 15  2  0
 15 16  1  0
 16 17  2  0
  8 18  1  0
 18 19  2  0
 18  4  1  0
 11  7  1  0
 17 12  1  0
  1 20  1  0
  1 21  1  0
  1 22  1  0
  2 23  1  0
  2 24  1  0
  3 25  1  0
  3 26  1  0
  5 27  1  0
  9 28  1  0
 13 29  1  0
 14 30  1  0
 15 31  1  0
 16 32  1  0
 17 33  1  0
M  CHG  1   5   1
M  END
>  <UniqueID>  (18) 
16

>  <SMILES>  (18) 
CCCn1[nH+]nc2c(cnn2-c2ccccc2)c1=O

>  <Energy>  (18) 
78.41145377772517

>  <Genealogy>  (18) 
CCCn1[nH+]nc2c(cnn2-c2ccccc2)c1=O (protonated)
CCCn1[nH+]nc2c(cnn2-c2ccccc2)c1=O (3D coordinates assigned)
CCCn1[nH+]nc2c(cnn2-c2ccccc2)c1=O (optimized conformer: 78.41145377772517 kcal/mol)

>  <smiles>  (18) 
CCCn1nnc2c(cnn2-c2ccccc2)c1=O

>  <score_type>  (18) 
oracle

>  <origin>  (18) 
adg

>  <m_score__min__energy>  (18) 
-7.0099999999999998

>  <m_primary>  (18) 
energy

$$$$
18:0
     RDKit          3D

 26 28  0  0  0  0  0  0  0  0999 V2000
   -6.0902   25.8562  -31.3490 H   0  0  0  0  0  0  0  0  0  0  0  0
   -5.3580   25.0460  -31.2170 C   0  0  0  0  0  0  0  0  0  0  0  0
   -5.6090   23.8780  -31.8620 N   0  0  0  0  0  0  0  0  0  0  0  0
   -4.9890   22.6690  -31.9670 C   0  0  0  0  0  0  0  0  0  0  0  0
   -5.5420   21.7360  -32.6910 N   0  0  0  0  0  0  0  0  0  0  0  0
   -6.7510   21.0110  -32.4030 C   0  0  0  0  0  0  0  0  0  0  0  0
   -7.9190   21.6580  -31.9530 C   0  0  0  0  0  0  0  0  0  0  0  0
   -7.9133   22.7449  -31.7836 H   0  0  0  0  0  0  0  0  0  0  0  0
   -9.0860   20.9220  -31.7210 C   0  0  0  0  0  0  0  0  0  0  0  0
   -9.9910   21.4282  -31.3541 H   0  0  0  0  0  0  0  0  0  0  0  0
   -9.1030   19.5440  -31.9550 C   0  0  0  0  0  0  0  0  0  0  0  0
  -10.0183   18.9647  -31.7634 H   0  0  0  0  0  0  0  0  0  0  0  0
   -7.9580   18.9030  -32.4320 C   0  0  0  0  0  0  0  0  0  0  0  0
   -7.9749   17.8200  -32.6241 H   0  0  0  0  0  0  0  0  0  0  0  0
   -6.7900   19.6350  -32.6660 C   0  0  0  0  0  0  0  0  0  0  0  0
   -5.8964   19.1279  -33.0588 H   0  0  0  0  0  0  0  0  0  0  0  0
   -3.8040   22.3200  -31.3150 C   0  0  0  0  0  0  0  0  0  0  0  0
   -3.4354   21.2954  -31.4712 H   0  0  0  0  0  0  0  0  0  0  0  0
   -3.0490   23.1350  -30.4930 C   0  0  0  0  0  0  0  0  0  0  0  0
   -1.8730   22.7690  -29.8720 C   0  0  0  0  0  0  0  0  0  0  0  0
   -1.3772   21.7892  -29.9371 H   0  0  0  0  0  0  0  0  0  0  0  0
   -1.4350   23.8640  -29.1530 C   0  0  0  0  0  0  0  0  0  0  0  0
   -0.5152   23.8777  -28.5498 H   0  0  0  0  0  0  0  0  0  0  0  0
   -2.2720   24.9150  -29.2800 N   0  0  0  0  0  0  0  0  0  0  0  0
   -3.2650   24.5030  -30.0900 C   0  0  0  0  0  0  0  0  0  0  0  0
   -4.2910   25.3060  -30.4270 N   0  0  0  0  0  0  0  0  0  0  0  0
  1  2  1  0
  2  3  2  0
  3  4  1  0
  4  5  2  0
  5  6  1  0
  6  7  2  0
  7  8  1  0
  7  9  1  0
  9 10  1  0
  9 11  2  0
 11 12  1  0
 11 13  1  0
 13 14  1  0
 13 15  2  0
 15 16  1  0
  4 17  1  0
 17 18  1  0
 17 19  2  0
 19 20  1  0
 20 21  1  0
 20 22  2  0
 22 23  1  0
 22 24  1  0
 24 25  2  0
 25 26  1  0
 26  2  1  0
 15  6  1  0
 25 19  1  0
M  CHG  1  26  -1
M  END
>  <UniqueID>  (19) 
17

>  <SMILES>  (19) 
c1ccc(/N=c2/cc3ccnc-3[n-]cn2)cc1

>  <Energy>  (19) 
76.19060870927659

>  <Genealogy>  (19) 
c1ccc(N=c2cc3ccnc-3[n-]cn2)cc1 (protonated)
c1ccc(/N=c2/cc3ccnc-3[n-]cn2)cc1 (cis-trans isomerization)
c1ccc(/N=c2/cc3ccnc-3[n-]cn2)cc1 (3D coordinates assigned)
c1ccc(/N=c2/cc3ccnc-3[n-]cn2)cc1 (optimized conformer: 76.19060870927659 kcal/mol)

>  <smiles>  (19) 
c1ccc(N=c2cc3ccnc-3[nH]cn2)cc1

>  <score_type>  (19) 
oracle

>  <origin>  (19) 
adg

>  <m_score__min__energy>  (19) 
-8.3900000000000006

>  <m_primary>  (19) 
energy

$$$$
19:0
     RDKit          3D

 47 50  0  0  0  0  0  0  0  0999 V2000
   -9.1640   23.1300  -32.0270 C   0  0  0  0  0  0  0  0  0  0  0  0
   -7.8120   23.3960  -32.3800 O   0  0  0  0  0  0  0  0  0  0  0  0
   -6.6970   22.5440  -32.2310 C   0  0  0  0  0  0  0  0  0  0  0  0
   -6.8380   21.2760  -32.7090 N   0  0  0  0  0  0  0  0  0  0  0  0
   -5.8510   20.3390  -32.6330 C   0  0  0  0  0  0  0  0  0  0  0  0
   -6.0700   18.9720  -33.1680 C   0  0  0  0  0  0  0  0  0  0  0  0
   -7.0110   18.1100  -32.5740 C   0  0  0  0  0  0  0  0  0  0  0  0
   -7.2110   16.8230  -33.0830 C   0  0  0  0  0  0  0  0  0  0  0  0
   -6.4770   16.3830  -34.1860 C   0  0  0  0  0  0  0  0  0  0  0  0
   -5.5400   17.2290  -34.7840 C   0  0  0  0  0  0  0  0  0  0  0  0
   -5.3350   18.5170  -34.2790 C   0  0  0  0  0  0  0  0  0  0  0  0
   -4.6350   20.6750  -32.0310 C   0  0  0  0  0  0  0  0  0  0  0  0
   -4.4330   21.9600  -31.5220 C   0  0  0  0  0  0  0  0  0  0  0  0
   -3.1290   22.2670  -30.8800 C   0  0  0  0  0  0  0  0  0  0  0  0
   -1.9550   21.6500  -31.3390 C   0  0  0  0  0  0  0  0  0  0  0  0
   -0.7300   21.9320  -30.7330 C   0  0  0  0  0  0  0  0  0  0  0  0
   -0.6640   22.8240  -29.6620 C   0  0  0  0  0  0  0  0  0  0  0  0
   -1.8290   23.4440  -29.1770 C   0  0  0  0  0  0  0  0  0  0  0  0
   -1.7620   24.3890  -28.0330 C   0  0  0  0  0  0  0  0  0  0  0  0
   -0.6590   25.2510  -27.8810 C   0  0  0  0  0  0  0  0  0  0  0  0
   -0.5990   26.1410  -26.8050 C   0  0  0  0  0  0  0  0  0  0  0  0
   -1.6340   26.1800  -25.8690 C   0  0  0  0  0  0  0  0  0  0  0  0
   -2.7320   25.3290  -26.0060 C   0  0  0  0  0  0  0  0  0  0  0  0
   -2.7980   24.4380  -27.0820 C   0  0  0  0  0  0  0  0  0  0  0  0
   -3.0620   23.1540  -29.7920 C   0  0  0  0  0  0  0  0  0  0  0  0
   -5.4630   22.9230  -31.6310 C   0  0  0  0  0  0  0  0  0  0  0  0
   -5.1990   24.2780  -31.1980 C   0  0  0  0  0  0  0  0  0  0  0  0
   -4.9780   25.3580  -30.8420 N   0  0  0  0  0  0  0  0  0  0  0  0
   -9.2600   23.1111  -30.9314 H   0  0  0  0  0  0  0  0  0  0  0  0
   -9.8122   23.9178  -32.4383 H   0  0  0  0  0  0  0  0  0  0  0  0
   -9.4654   22.1553  -32.4383 H   0  0  0  0  0  0  0  0  0  0  0  0
   -7.7430   21.0290  -33.1710 H   0  0  0  0  0  0  0  0  0  0  0  0
   -7.5923   18.4507  -31.7045 H   0  0  0  0  0  0  0  0  0  0  0  0
   -7.9485   16.1557  -32.6131 H   0  0  0  0  0  0  0  0  0  0  0  0
   -6.6365   15.3701  -34.5842 H   0  0  0  0  0  0  0  0  0  0  0  0
   -4.9625   16.8816  -35.6534 H   0  0  0  0  0  0  0  0  0  0  0  0
   -4.5949   19.1785  -34.7529 H   0  0  0  0  0  0  0  0  0  0  0  0
   -3.8341   19.9246  -31.9578 H   0  0  0  0  0  0  0  0  0  0  0  0
   -2.0006   20.9417  -32.1793 H   0  0  0  0  0  0  0  0  0  0  0  0
    0.1873   21.4492  -31.1011 H   0  0  0  0  0  0  0  0  0  0  0  0
    0.3067   23.0438  -29.1936 H   0  0  0  0  0  0  0  0  0  0  0  0
    0.1608   25.2238  -28.6139 H   0  0  0  0  0  0  0  0  0  0  0  0
    0.2656   26.8122  -26.6955 H   0  0  0  0  0  0  0  0  0  0  0  0
   -1.5843   26.8816  -25.0232 H   0  0  0  0  0  0  0  0  0  0  0  0
   -3.5462   25.3592  -25.2669 H   0  0  0  0  0  0  0  0  0  0  0  0
   -3.6662   23.7706  -27.1856 H   0  0  0  0  0  0  0  0  0  0  0  0
   -3.9819   23.6264  -29.4171 H   0  0  0  0  0  0  0  0  0  0  0  0
  1  2  1  0
  2  3  1  0
  3  4  2  0
  4  5  1  0
  5  6  1  0
  6  7  2  0
  7  8  1  0
  8  9  2  0
  9 10  1  0
 10 11  2  0
  5 12  2  0
 12 13  1  0
 13 14  1  0
 14 15  2  0
 15 16  1  0
 16 17  2  0
 17 18  1  0
 18 19  1  0
 19 20  2  0
 20 21  1  0
 21 22  2  0
 22 23  1  0
 23 24  2  0
 18 25  2  0
 13 26  2  0
 26 27  1  0
 27 28  3  0
 26  3  1  0
 11  6  1  0
 25 14  1  0
 24 19  1  0
  1 29  1  0
  1 30  1  0
  1 31  1  0
  4 32  1  0
  7 33  1  0
  8 34  1  0
  9 35  1  0
 10 36  1  0
 11 37  1  0
 12 38  1  0
 15 39  1  0
 16 40  1  0
 17 41  1  0
 20 42  1  0
 21 43  1  0
 22 44  1  0
 23 45  1  0
 24 46  1  0
 25 47  1  0
M  CHG  1   4   1
M  END
>  <UniqueID>  (20) 
18

>  <SMILES>  (20) 
COc1[nH+]c(-c2ccccc2)cc(-c2cccc(-c3ccccc3)c2)c1C#N

>  <Energy>  (20) 
74.70394417263999

>  <Genealogy>  (20) 
COc1[nH+]c(-c2ccccc2)cc(-c2cccc(-c3ccccc3)c2)c1C#N (protonated)
COc1[nH+]c(-c2ccccc2)cc(-c2cccc(-c3ccccc3)c2)c1C#N (3D coordinates assigned)
COc1[nH+]c(-c2ccccc2)cc(-c2cccc(-c3ccccc3)c2)c1C#N (optimized conformer: 74.70394417263999 kcal/mol)

>  <smiles>  (20) 
COc1nc(-c2ccccc2)cc(-c2cccc(-c3ccccc3)c2)c1C#N

>  <score_type>  (20) 
oracle

>  <origin>  (20) 
adg

>  <m_score__min__energy>  (20) 
-8.4600000000000009

>  <m_primary>  (20) 
energy

$$$$
20:0
     RDKit          3D

 44 46  0  0  0  0  0  0  0  0999 V2000
   -1.7890   19.4070  -26.3460 C   0  0  0  0  0  0  0  0  0  0  0  0
   -1.9370   20.6660  -27.1380 C   0  0  0  0  0  0  0  0  0  0  0  0
   -3.0120   20.9640  -27.9710 C   0  0  0  0  0  0  0  0  0  0  0  0
   -2.7600   22.2380  -28.4290 C   0  0  0  0  0  0  0  0  0  0  0  0
   -3.4950   23.0540  -29.2860 C   0  0  0  0  0  0  0  0  0  0  0  0
   -2.9810   24.3380  -29.5820 C   0  0  0  0  0  0  0  0  0  0  0  0
   -3.6780   25.2410  -30.4530 N   0  0  0  0  0  0  0  0  0  0  0  0
   -5.0590   25.1530  -30.8330 C   0  0  0  0  0  0  0  0  0  0  0  0
   -5.7440   26.2100  -30.8580 O   0  0  0  0  0  0  0  0  0  0  0  0
   -5.6840   23.8720  -31.2390 C   0  0  0  0  0  0  0  0  0  0  0  0
   -5.0370   23.0320  -32.1550 C   0  0  0  0  0  0  0  0  0  0  0  0
   -5.6230   21.8280  -32.5500 C   0  0  0  0  0  0  0  0  0  0  0  0
   -6.8730   21.4190  -32.0360 C   0  0  0  0  0  0  0  0  0  0  0  0
   -7.4910   20.0850  -32.5060 C   0  0  0  0  0  0  0  0  0  0  0  0
   -7.2900   18.9320  -31.4940 C   0  0  0  0  0  0  0  0  0  0  0  0
   -6.8410   19.6580  -33.8400 C   0  0  0  0  0  0  0  0  0  0  0  0
   -9.0110   20.2680  -32.7110 C   0  0  0  0  0  0  0  0  0  0  0  0
   -7.5050   22.2650  -31.0950 C   0  0  0  0  0  0  0  0  0  0  0  0
   -6.9140   23.4690  -30.7010 C   0  0  0  0  0  0  0  0  0  0  0  0
   -1.7780   24.7700  -28.9760 C   0  0  0  0  0  0  0  0  0  0  0  0
   -1.0630   23.9240  -28.1100 C   0  0  0  0  0  0  0  0  0  0  0  0
   -1.5850   22.6550  -27.8620 C   0  0  0  0  0  0  0  0  0  0  0  0
   -1.0730   21.7040  -27.0640 N   0  0  0  0  0  0  0  0  0  0  0  0
   -1.8169   19.6439  -25.2722 H   0  0  0  0  0  0  0  0  0  0  0  0
   -2.6126   18.7204  -26.5915 H   0  0  0  0  0  0  0  0  0  0  0  0
   -0.8286   18.9301  -26.5915 H   0  0  0  0  0  0  0  0  0  0  0  0
   -3.8731   20.3229  -28.2106 H   0  0  0  0  0  0  0  0  0  0  0  0
   -4.4459   22.7103  -29.7192 H   0  0  0  0  0  0  0  0  0  0  0  0
   -4.0593   23.3236  -32.5663 H   0  0  0  0  0  0  0  0  0  0  0  0
   -5.1013   21.1860  -33.2751 H   0  0  0  0  0  0  0  0  0  0  0  0
   -7.3589   19.3270  -30.4697 H   0  0  0  0  0  0  0  0  0  0  0  0
   -8.0689   18.1704  -31.6464 H   0  0  0  0  0  0  0  0  0  0  0  0
   -6.2993   18.4789  -31.6464 H   0  0  0  0  0  0  0  0  0  0  0  0
   -5.9378   19.0647  -33.6344 H   0  0  0  0  0  0  0  0  0  0  0  0
   -7.5542   19.0519  -34.4179 H   0  0  0  0  0  0  0  0  0  0  0  0
   -6.5679   20.5532  -34.4179 H   0  0  0  0  0  0  0  0  0  0  0  0
   -9.5085   20.3279  -31.7317 H   0  0  0  0  0  0  0  0  0  0  0  0
   -9.1961   21.1949  -33.2736 H   0  0  0  0  0  0  0  0  0  0  0  0
   -9.4109   19.4115  -33.2736 H   0  0  0  0  0  0  0  0  0  0  0  0
   -8.4750   21.9714  -30.6673 H   0  0  0  0  0  0  0  0  0  0  0  0
   -7.4195   24.1069  -29.9610 H   0  0  0  0  0  0  0  0  0  0  0  0
   -1.3971   25.7806  -29.1849 H   0  0  0  0  0  0  0  0  0  0  0  0
   -0.1226   24.2525  -27.6434 H   0  0  0  0  0  0  0  0  0  0  0  0
   -0.1980   21.7610  -26.4950 H   0  0  0  0  0  0  0  0  0  0  0  0
  1  2  1  0
  2  3  2  0
  3  4  1  0
  4  5  2  0
  5  6  1  0
  6  7  1  0
  7  8  1  0
  8  9  2  0
  8 10  1  0
 10 11  2  0
 11 12  1  0
 12 13  2  0
 13 14  1  0
 14 15  1  0
 14 16  1  0
 14 17  1  0
 13 18  1  0
 18 19  2  0
  6 20  2  0
 20 21  1  0
 21 22  2  0
 22 23  1  0
 23  2  1  0
 22  4  1  0
 19 10  1  0
  1 24  1  0
  1 25  1  0
  1 26  1  0
  3 27  1  0
  5 28  1  0
 11 29  1  0
 12 30  1  0
 15 31  1  0
 15 32  1  0
 15 33  1  0
 16 34  1  0
 16 35  1  0
 16 36  1  0
 17 37  1  0
 17 38  1  0
 17 39  1  0
 18 40  1  0
 19 41  1  0
 20 42  1  0
 21 43  1  0
 23 44  1  0
M  CHG  1   7  -1
M  END
>  <UniqueID>  (21) 
19

>  <SMILES>  (21) 
Cc1cc2cc([N-]C(=O)c3ccc(C(C)(C)C)cc3)ccc2[nH]1

>  <Energy>  (21) 
84.73199041370685

>  <Genealogy>  (21) 
Cc1cc2cc([N-]C(=O)c3ccc(C(C)(C)C)cc3)ccc2[nH]1 (protonated)
Cc1cc2cc([N-]C(=O)c3ccc(C(C)(C)C)cc3)ccc2[nH]1 (3D coordinates assigned)
Cc1cc2cc([N-]C(=O)c3ccc(C(C)(C)C)cc3)ccc2[nH]1 (optimized conformer: 84.73199041370685 kcal/mol)

>  <smiles>  (21) 
Cc1cc2cc(NC(=O)c3ccc(C(C)(C)C)cc3)ccc2[nH]1

>  <score_type>  (21) 
oracle

>  <origin>  (21) 
adg

>  <m_score__min__energy>  (21) 
-10.539999999999999

>  <m_primary>  (21) 
energy

$$$$
21:0
     RDKit          3D

 53 55  0  0  0  0  0  0  0  0999 V2000
   -1.3510   13.3910  -33.2500 C   0  0  0  0  0  0  0  0  0  0  0  0
   -2.4960   14.3470  -33.0910 C   0  0  0  0  0  0  0  0  0  0  0  0
   -3.6090   13.9860  -32.3180 C   0  0  0  0  0  0  0  0  0  0  0  0
   -4.6730   14.8810  -32.1540 C   0  0  0  0  0  0  0  0  0  0  0  0
   -4.6320   16.1430  -32.7550 C   0  0  0  0  0  0  0  0  0  0  0  0
   -5.9830   17.2560  -32.5470 S   0  0  0  0  0  0  0  0  0  0  0  0
   -6.4280   17.2030  -31.1100 O   0  0  0  0  0  0  0  0  0  0  0  0
   -7.1350   16.8340  -33.4180 O   0  0  0  0  0  0  0  0  0  0  0  0
   -5.4970   18.8840  -32.9520 N   0  0  0  0  0  0  0  0  0  0  0  0
   -6.4860   19.5370  -33.8400 C   0  0  0  0  0  0  0  0  0  0  0  0
   -7.5390   20.3560  -33.0790 C   0  0  0  0  0  0  0  0  0  0  0  0
   -6.9080   21.2980  -32.1470 N   0  0  0  0  0  0  0  0  0  0  0  0
   -7.7000   22.3700  -31.5850 C   0  0  0  0  0  0  0  0  0  0  0  0
   -8.9530   22.3660  -31.7570 O   0  0  0  0  0  0  0  0  0  0  0  0
   -7.0630   23.4800  -30.7760 C   0  0  0  0  0  0  0  0  0  0  0  0
   -5.9890   24.2640  -31.5400 C   0  0  0  0  0  0  0  0  0  0  0  0
   -5.3030   25.2770  -30.6600 C   0  0  0  0  0  0  0  0  0  0  0  0
   -6.0040   26.0990  -30.0120 O   0  0  0  0  0  0  0  0  0  0  0  0
   -3.8800   25.2870  -30.4760 N   0  0  0  0  0  0  0  0  0  0  0  0
   -3.0720   24.1960  -30.0200 C   0  0  0  0  0  0  0  0  0  0  0  0
   -2.4080   24.3110  -28.7890 C   0  0  0  0  0  0  0  0  0  0  0  0
   -1.6100   23.2630  -28.3180 C   0  0  0  0  0  0  0  0  0  0  0  0
   -1.4560   22.0990  -29.0810 C   0  0  0  0  0  0  0  0  0  0  0  0
   -2.0870   21.9920  -30.3240 C   0  0  0  0  0  0  0  0  0  0  0  0
   -1.8920   20.5340  -31.2820 Cl  0  0  0  0  0  0  0  0  0  0  0  0
   -2.8820   23.0430  -30.7990 C   0  0  0  0  0  0  0  0  0  0  0  0
   -5.4830   21.1310  -31.8290 C   0  0  0  0  0  0  0  0  0  0  0  0
   -5.1600   19.6390  -31.7220 C   0  0  0  0  0  0  0  0  0  0  0  0
   -3.5090   16.5150  -33.5040 C   0  0  0  0  0  0  0  0  0  0  0  0
   -2.4440   15.6250  -33.6670 C   0  0  0  0  0  0  0  0  0  0  0  0
   -0.9867   13.0869  -32.2576 H   0  0  0  0  0  0  0  0  0  0  0  0
   -1.6889   12.5031  -33.8045 H   0  0  0  0  0  0  0  0  0  0  0  0
   -0.5377   13.8820  -33.8045 H   0  0  0  0  0  0  0  0  0  0  0  0
   -3.6461   12.9965  -31.8390 H   0  0  0  0  0  0  0  0  0  0  0  0
   -5.5450   14.5903  -31.5498 H   0  0  0  0  0  0  0  0  0  0  0  0
   -5.9493   20.2094  -34.5254 H   0  0  0  0  0  0  0  0  0  0  0  0
   -7.0197   18.7383  -34.3759 H   0  0  0  0  0  0  0  0  0  0  0  0
   -8.1464   20.9197  -33.8024 H   0  0  0  0  0  0  0  0  0  0  0  0
   -8.1677   19.6629  -32.5008 H   0  0  0  0  0  0  0  0  0  0  0  0
   -7.8521   24.1820  -30.4686 H   0  0  0  0  0  0  0  0  0  0  0  0
   -6.5642   23.0057  -29.9180 H   0  0  0  0  0  0  0  0  0  0  0  0
   -5.2374   23.5578  -31.9227 H   0  0  0  0  0  0  0  0  0  0  0  0
   -6.4803   24.8033  -32.3633 H   0  0  0  0  0  0  0  0  0  0  0  0
   -2.5154   25.2287  -28.1922 H   0  0  0  0  0  0  0  0  0  0  0  0
   -1.1025   23.3535  -27.3463 H   0  0  0  0  0  0  0  0  0  0  0  0
   -0.8395   21.2701  -28.7030 H   0  0  0  0  0  0  0  0  0  0  0  0
   -3.3597   22.9649  -31.7868 H   0  0  0  0  0  0  0  0  0  0  0  0
   -4.8734   21.5827  -32.6255 H   0  0  0  0  0  0  0  0  0  0  0  0
   -5.2584   21.6261  -30.8727 H   0  0  0  0  0  0  0  0  0  0  0  0
   -4.0835   19.5266  -31.5255 H   0  0  0  0  0  0  0  0  0  0  0  0
   -5.7715   19.2276  -30.9054 H   0  0  0  0  0  0  0  0  0  0  0  0
   -3.4649   17.5122  -33.9662 H   0  0  0  0  0  0  0  0  0  0  0  0
   -1.5613   15.9278  -34.2494 H   0  0  0  0  0  0  0  0  0  0  0  0
  1  2  1  0
  2  3  2  0
  3  4  1  0
  4  5  2  0
  5  6  1  0
  6  7  2  0
  6  8  2  0
  6  9  1  0
  9 10  1  0
 10 11  1  0
 11 12  1  0
 12 13  1  0
 13 14  2  0
 13 15  1  0
 15 16  1  0
 16 17  1  0
 17 18  2  0
 17 19  1  0
 19 20  1  0
 20 21  2  0
 21 22  1  0
 22 23  2  0
 23 24  1  0
 24 25  1  0
 24 26  2  0
 12 27  1  0
 27 28  1  0
  5 29  1  0
 29 30  2  0
 30  2  1  0
 28  9  1  0
 26 20  1  0
  1 31  1  0
  1 32  1  0
  1 33  1  0
  3 34  1  0
  4 35  1  0
 10 36  1  0
 10 37  1  0
 11 38  1  0
 11 39  1  0
 15 40  1  0
 15 41  1  0
 16 42  1  0
 16 43  1  0
 21 44  1  0
 22 45  1  0
 23 46  1  0
 26 47  1  0
 27 48  1  0
 27 49  1  0
 28 50  1  0
 28 51  1  0
 29 52  1  0
 30 53  1  0
M  CHG  1  19  -1
M  END
>  <UniqueID>  (22) 
20

>  <SMILES>  (22) 
Cc1ccc(S(=O)(=O)N2CCN(C(=O)CCC(=O)[N-]c3cccc(Cl)c3)CC2)cc1

>  <Energy>  (22) 
63.30402940578297

>  <Genealogy>  (22) 
Cc1ccc(S(=O)(=O)N2CCN(C(=O)CCC(=O)[N-]c3cccc(Cl)c3)CC2)cc1 (protonated)
Cc1ccc(S(=O)(=O)N2CCN(C(=O)CCC(=O)[N-]c3cccc(Cl)c3)CC2)cc1 (3D coordinates assigned)
Cc1ccc(S(=O)(=O)N2CCN(C(=O)CCC(=O)[N-]c3cccc(Cl)c3)CC2)cc1 (nonaromatic ring conformer: 63.30402940578297 kcal/mol)

>  <smiles>  (22) 
Cc1ccc(S(=O)(=O)N2CCN(C(=O)CCC(=O)Nc3cccc(Cl)c3)CC2)cc1

>  <score_type>  (22) 
oracle

>  <origin>  (22) 
adg

>  <m_score__min__energy>  (22) 
-11.17

>  <m_primary>  (22) 
energy

$$$$
22:0
     RDKit          3D

 16 17  0  0  0  0  0  0  0  0999 V2000
   -5.2890   18.4270  -34.4230 N   0  0  0  0  0  0  0  0  0  0  0  0
   -6.1120   19.1520  -34.0510 C   0  0  0  0  0  0  0  0  0  0  0  0
   -7.1090   20.0290  -33.6010 N   0  0  0  0  0  0  0  0  0  0  0  0
   -6.8910   20.9000  -32.4890 C   0  0  0  0  0  0  0  0  0  0  0  0
   -5.7660   20.9810  -31.8480 N   0  0  0  0  0  0  0  0  0  0  0  0
   -5.9460   22.0330  -30.8460 C   0  0  2  0  0  0  0  0  0  0  0  0
   -7.4240   21.9140  -30.5180 C   0  0  0  0  0  0  0  0  0  0  0  0
   -7.8820   21.8890  -31.9660 C   0  0  1  0  0  0  0  0  0  0  0  0
   -7.3850   23.5420  -32.6120 S   0  0  0  0  0  0  0  0  0  0  0  0
   -5.9230   23.3420  -31.5770 C   0  0  0  0  0  0  0  0  0  0  0  0
   -4.9880   24.1260  -31.5560 O   0  0  0  0  0  0  0  0  0  0  0  0
   -8.0300   20.0410  -34.0920 H   0  0  0  0  0  0  0  0  0  0  0  0
   -5.2237   21.9672  -30.0190 H   0  0  0  0  0  0  0  0  0  0  0  0
   -7.6695   20.9895  -29.9748 H   0  0  0  0  0  0  0  0  0  0  0  0
   -7.8630   22.6758  -29.8570 H   0  0  0  0  0  0  0  0  0  0  0  0
   -8.9387   21.6736  -32.1825 H   0  0  0  0  0  0  0  0  0  0  0  0
  1  2  3  0
  2  3  1  0
  3  4  1  0
  4  5  2  0
  5  6  1  0
  6  7  1  0
  7  8  1  0
  8  9  1  0
  9 10  1  0
 10 11  2  0
  8  4  1  0
 10  6  1  0
  3 12  1  0
  6 13  1  1
  7 14  1  0
  7 15  1  0
  8 16  1  1
M  END
>  <UniqueID>  (23) 
21

>  <SMILES>  (23) 
N#CNC1=N[C@@H]2C[C@H]1SC2=O

>  <Energy>  (23) 
56.671225530067055

>  <Genealogy>  (23) 
N#CNC1=N[C@@H]2C[C@H]1SC2=O (chirality)
N#CNC1=N[C@@H]2C[C@H]1SC2=O (3D coordinates assigned)
N#CNC1=N[C@@H]2C[C@H]1SC2=O (nonaromatic ring conformer: 56.671225530067055 kcal/mol)

>  <smiles>  (23) 
N#CNC1=NC2CC1SC2=O

>  <score_type>  (23) 
oracle

>  <origin>  (23) 
adg

>  <m_score__min__energy>  (23) 
-5.1699999999999999

>  <m_primary>  (23) 
energy

$$$$
23:0
     RDKit          3D

 60 63  0  0  0  0  0  0  0  0999 V2000
   -0.4640   19.6000  -27.9490 C   0  0  0  0  0  0  0  0  0  0  0  0
   -0.1320   20.8370  -28.5700 O   0  0  0  0  0  0  0  0  0  0  0  0
   -1.0680   21.8030  -28.9660 C   0  0  0  0  0  0  0  0  0  0  0  0
   -2.2890   21.3660  -29.4790 C   0  0  0  0  0  0  0  0  0  0  0  0
   -3.2580   22.2830  -29.8850 C   0  0  0  0  0  0  0  0  0  0  0  0
   -3.0290   23.6670  -29.7860 C   0  0  0  0  0  0  0  0  0  0  0  0
   -4.1240   24.6070  -30.1490 C   0  0  0  0  0  0  0  0  0  0  0  0
   -3.8860   25.6530  -30.8130 O   0  0  0  0  0  0  0  0  0  0  0  0
   -5.4560   24.3550  -29.6920 N   0  0  0  0  0  0  0  0  0  0  0  0
   -6.6490   24.6160  -30.4910 C   0  0  0  0  0  0  0  0  0  0  0  0
   -7.5430   23.3690  -30.5700 C   0  0  0  0  0  0  0  0  0  0  0  0
   -6.9710   22.3680  -31.4740 N   0  0  0  0  0  0  0  0  0  0  0  0
   -5.7090   22.3920  -31.9680 C   0  0  0  0  0  0  0  0  0  0  0  0
   -5.4360   21.2100  -32.6380 C   0  0  0  0  0  0  0  0  0  0  0  0
   -3.8990   20.7790  -33.4520 S   0  0  0  0  0  0  0  0  0  0  0  0
   -3.5800   19.3050  -32.4170 C   0  0  0  0  0  0  0  0  0  0  0  0
   -3.4550   18.0590  -33.2670 C   0  0  0  0  0  0  0  0  0  0  0  0
   -4.4970   17.1180  -33.2150 C   0  0  0  0  0  0  0  0  0  0  0  0
   -4.4660   15.9740  -34.0120 C   0  0  0  0  0  0  0  0  0  0  0  0
   -3.3890   15.7480  -34.8660 C   0  0  0  0  0  0  0  0  0  0  0  0
   -2.3340   16.6600  -34.9190 C   0  0  0  0  0  0  0  0  0  0  0  0
   -2.3480   17.8220  -34.1280 C   0  0  0  0  0  0  0  0  0  0  0  0
   -1.1740   18.7610  -34.1980 C   0  0  0  0  0  0  0  0  0  0  0  0
   -6.5700   20.4340  -32.5310 C   0  0  0  0  0  0  0  0  0  0  0  0
   -6.8340   19.1370  -32.9690 C   0  0  0  0  0  0  0  0  0  0  0  0
   -8.1000   18.5960  -32.6920 C   0  0  0  0  0  0  0  0  0  0  0  0
   -9.0620   19.3520  -31.9900 C   0  0  0  0  0  0  0  0  0  0  0  0
   -8.7640   20.6530  -31.5490 C   0  0  0  0  0  0  0  0  0  0  0  0
   -7.4930   21.1700  -31.8310 C   0  0  0  0  0  0  0  0  0  0  0  0
   -1.7960   24.1230  -29.2600 C   0  0  0  0  0  0  0  0  0  0  0  0
   -1.5730   25.5050  -29.1240 O   0  0  0  0  0  0  0  0  0  0  0  0
   -1.1670   26.1490  -27.9210 C   0  0  0  0  0  0  0  0  0  0  0  0
   -0.8200   23.1820  -28.8640 C   0  0  0  0  0  0  0  0  0  0  0  0
   -0.4322   19.7184  -26.8558 H   0  0  0  0  0  0  0  0  0  0  0  0
   -1.4756   19.2957  -28.2556 H   0  0  0  0  0  0  0  0  0  0  0  0
    0.2593   18.8300  -28.2556 H   0  0  0  0  0  0  0  0  0  0  0  0
   -2.4896   20.2878  -29.5642 H   0  0  0  0  0  0  0  0  0  0  0  0
   -4.2145   21.9188  -30.2882 H   0  0  0  0  0  0  0  0  0  0  0  0
   -7.2175   25.4375  -30.0307 H   0  0  0  0  0  0  0  0  0  0  0  0
   -6.3357   24.8875  -31.5099 H   0  0  0  0  0  0  0  0  0  0  0  0
   -7.6403   22.9321  -29.5652 H   0  0  0  0  0  0  0  0  0  0  0  0
   -8.5279   23.6685  -30.9576 H   0  0  0  0  0  0  0  0  0  0  0  0
   -5.0038   23.2284  -31.8537 H   0  0  0  0  0  0  0  0  0  0  0  0
   -2.6443   19.4541  -31.8582 H   0  0  0  0  0  0  0  0  0  0  0  0
   -4.4260   19.1733  -31.7264 H   0  0  0  0  0  0  0  0  0  0  0  0
   -5.3473   17.2856  -32.5376 H   0  0  0  0  0  0  0  0  0  0  0  0
   -5.2926   15.2497  -33.9662 H   0  0  0  0  0  0  0  0  0  0  0  0
   -3.3700   14.8491  -35.4997 H   0  0  0  0  0  0  0  0  0  0  0  0
   -1.4818   16.4674  -35.5873 H   0  0  0  0  0  0  0  0  0  0  0  0
   -0.8503   19.0199  -33.1791 H   0  0  0  0  0  0  0  0  0  0  0  0
   -0.3458   18.2733  -34.7330 H   0  0  0  0  0  0  0  0  0  0  0  0
   -1.4678   19.6761  -34.7330 H   0  0  0  0  0  0  0  0  0  0  0  0
   -6.0752   18.5562  -33.5139 H   0  0  0  0  0  0  0  0  0  0  0  0
   -8.3430   17.5761  -33.0246 H   0  0  0  0  0  0  0  0  0  0  0  0
  -10.0529   18.9201  -31.7861 H   0  0  0  0  0  0  0  0  0  0  0  0
   -9.5075   21.2480  -30.9983 H   0  0  0  0  0  0  0  0  0  0  0  0
   -1.5298   25.5735  -27.0566 H   0  0  0  0  0  0  0  0  0  0  0  0
   -0.0690   26.2065  -27.8885 H   0  0  0  0  0  0  0  0  0  0  0  0
   -1.5885   27.1645  -27.8885 H   0  0  0  0  0  0  0  0  0  0  0  0
    0.1456   23.5330  -28.4711 H   0  0  0  0  0  0  0  0  0  0  0  0
  1  2  1  0
  2  3  1  0
  3  4  2  0
  4  5  1  0
  5  6  2  0
  6  7  1  0
  7  8  2  0
  7  9  1  0
  9 10  1  0
 10 11  1  0
 11 12  1  0
 12 13  1  0
 13 14  2  0
 14 15  1  0
 15 16  1  0
 16 17  1  0
 17 18  2  0
 18 19  1  0
 19 20  2  0
 20 21  1  0
 21 22  2  0
 22 23  1  0
 14 24  1  0
 24 25  2  0
 25 26  1  0
 26 27  2  0
 27 28  1  0
 28 29  2  0
  6 30  1  0
 30 31  1  0
 31 32  1  0
 30 33  2  0
 33  3  1  0
 29 12  1  0
 22 17  1  0
 29 24  1  0
  1 34  1  0
  1 35  1  0
  1 36  1  0
  4 37  1  0
  5 38  1  0
 10 39  1  0
 10 40  1  0
 11 41  1  0
 11 42  1  0
 13 43  1  0
 16 44  1  0
 16 45  1  0
 18 46  1  0
 19 47  1  0
 20 48  1  0
 21 49  1  0
 23 50  1  0
 23 51  1  0
 23 52  1  0
 25 53  1  0
 26 54  1  0
 27 55  1  0
 28 56  1  0
 32 57  1  0
 32 58  1  0
 32 59  1  0
 33 60  1  0
M  CHG  1   9  -1
M  END
>  <UniqueID>  (24) 
22

>  <SMILES>  (24) 
COc1ccc(C(=O)[N-]CCn2cc(SCc3ccccc3C)c3ccccc32)c(OC)c1

>  <Energy>  (24) 
87.57368261874711

>  <Genealogy>  (24) 
COc1ccc(C(=O)[N-]CCn2cc(SCc3ccccc3C)c3ccccc32)c(OC)c1 (protonated)
COc1ccc(C(=O)[N-]CCn2cc(SCc3ccccc3C)c3ccccc32)c(OC)c1 (3D coordinates assigned)
COc1ccc(C(=O)[N-]CCn2cc(SCc3ccccc3C)c3ccccc32)c(OC)c1 (optimized conformer: 87.57368261874711 kcal/mol)

>  <smiles>  (24) 
COc1ccc(C(=O)NCCn2cc(SCc3ccccc3C)c3ccccc32)c(OC)c1

>  <score_type>  (24) 
oracle

>  <origin>  (24) 
adg

>  <m_score__min__energy>  (24) 
-12.140000000000001

>  <m_primary>  (24) 
energy

$$$$
24:0
     RDKit          3D

 43 45  0  0  0  0  0  0  0  0999 V2000
   -2.4810   21.8840  -30.8520 C   0  0  0  0  0  0  0  0  0  0  0  0
   -2.1240   23.1430  -30.0670 C   0  0  0  0  0  0  0  0  0  0  0  0
   -3.2600   23.5860  -29.2470 N   0  0  0  0  0  0  0  0  0  0  0  0
   -3.2630   23.2800  -27.8050 C   0  0  0  0  0  0  0  0  0  0  0  0
   -3.3410   24.5570  -26.9710 C   0  0  0  0  0  0  0  0  0  0  0  0
   -4.3040   24.3720  -29.8660 C   0  0  0  0  0  0  0  0  0  0  0  0
   -4.0230   25.1200  -30.8430 O   0  0  0  0  0  0  0  0  0  0  0  0
   -5.7370   24.2960  -29.4230 C   0  0  0  0  0  0  0  0  0  0  0  0
   -6.8490   24.5650  -30.8420 S   0  0  0  0  0  0  0  0  0  0  0  0
   -6.3870   23.0290  -31.6370 C   0  0  0  0  0  0  0  0  0  0  0  0
   -7.2080   21.9410  -31.5300 N   0  0  0  0  0  0  0  0  0  0  0  0
   -6.8270   20.7990  -32.1500 C   0  0  0  0  0  0  0  0  0  0  0  0
   -5.6680   20.7380  -32.8610 C   0  0  0  0  0  0  0  0  0  0  0  0
   -4.8570   21.8130  -32.9750 N   0  0  0  0  0  0  0  0  0  0  0  0
   -5.2180   22.9470  -32.3590 N   0  0  0  0  0  0  0  0  0  0  0  0
   -5.5810   19.4760  -33.3920 C   0  0  0  0  0  0  0  0  0  0  0  0
   -4.6360   18.8710  -34.2150 C   0  0  0  0  0  0  0  0  0  0  0  0
   -4.8750   17.5410  -34.6080 C   0  0  0  0  0  0  0  0  0  0  0  0
   -6.0370   16.8610  -34.1780 C   0  0  0  0  0  0  0  0  0  0  0  0
   -6.9770   17.4990  -33.3480 C   0  0  0  0  0  0  0  0  0  0  0  0
   -6.7230   18.8170  -32.9620 C   0  0  0  0  0  0  0  0  0  0  0  0
   -7.4940   19.6230  -32.1840 N   0  0  0  0  0  0  0  0  0  0  0  0
   -8.8000   19.3240  -31.6030 C   0  0  0  0  0  0  0  0  0  0  0  0
   -2.7123   21.0682  -30.1513 H   0  0  0  0  0  0  0  0  0  0  0  0
   -3.3581   22.0831  -31.4853 H   0  0  0  0  0  0  0  0  0  0  0  0
   -1.6299   21.5931  -31.4853 H   0  0  0  0  0  0  0  0  0  0  0  0
   -1.2676   22.9282  -29.4109 H   0  0  0  0  0  0  0  0  0  0  0  0
   -1.8699   23.9422  -30.7788 H   0  0  0  0  0  0  0  0  0  0  0  0
   -4.1323   22.6467  -27.5741 H   0  0  0  0  0  0  0  0  0  0  0  0
   -2.3270   22.7580  -27.5571 H   0  0  0  0  0  0  0  0  0  0  0  0
   -3.3252   24.2983  -25.9020 H   0  0  0  0  0  0  0  0  0  0  0  0
   -2.4805   25.2010  -27.2052 H   0  0  0  0  0  0  0  0  0  0  0  0
   -4.2735   25.0915  -27.2052 H   0  0  0  0  0  0  0  0  0  0  0  0
   -5.9319   23.3030  -28.9916 H   0  0  0  0  0  0  0  0  0  0  0  0
   -5.9217   25.0755  -28.6692 H   0  0  0  0  0  0  0  0  0  0  0  0
   -4.6000   23.7840  -32.4380 H   0  0  0  0  0  0  0  0  0  0  0  0
   -3.7368   19.4115  -34.5456 H   0  0  0  0  0  0  0  0  0  0  0  0
   -4.1506   17.0258  -35.2560 H   0  0  0  0  0  0  0  0  0  0  0  0
   -6.2083   15.8219  -34.4956 H   0  0  0  0  0  0  0  0  0  0  0  0
   -7.8847   16.9755  -33.0132 H   0  0  0  0  0  0  0  0  0  0  0  0
   -8.7257   19.3410  -30.5056 H   0  0  0  0  0  0  0  0  0  0  0  0
   -9.5295   20.0784  -31.9329 H   0  0  0  0  0  0  0  0  0  0  0  0
   -9.1286   18.3274  -31.9329 H   0  0  0  0  0  0  0  0  0  0  0  0
  1  2  1  0
  2  3  1  0
  3  4  1  0
  4  5  1  0
  3  6  1  0
  6  7  2  0
  6  8  1  0
  8  9  1  0
  9 10  1  0
 10 11  2  0
 11 12  1  0
 12 13  2  0
 13 14  1  0
 14 15  2  0
 13 16  1  0
 16 17  2  0
 17 18  1  0
 18 19  2  0
 19 20  1  0
 20 21  2  0
 21 22  1  0
 22 23  1  0
 15 10  1  0
 21 16  1  0
 22 12  1  0
  1 24  1  0
  1 25  1  0
  1 26  1  0
  2 27  1  0
  2 28  1  0
  4 29  1  0
  4 30  1  0
  5 31  1  0
  5 32  1  0
  5 33  1  0
  8 34  1  0
  8 35  1  0
 15 36  1  0
 17 37  1  0
 18 38  1  0
 19 39  1  0
 20 40  1  0
 23 41  1  0
 23 42  1  0
 23 43  1  0
M  CHG  1  15   1
M  END
>  <UniqueID>  (25) 
23

>  <SMILES>  (25) 
CCN(CC)C(=O)CSc1nc2c(n[nH+]1)c1ccccc1n2C

>  <Energy>  (25) 
82.22245017253684

>  <Genealogy>  (25) 
CCN(CC)C(=O)CSc1nc2c(n[nH+]1)c1ccccc1n2C (protonated)
CCN(CC)C(=O)CSc1nc2c(n[nH+]1)c1ccccc1n2C (3D coordinates assigned)
CCN(CC)C(=O)CSc1nc2c(n[nH+]1)c1ccccc1n2C (optimized conformer: 82.22245017253684 kcal/mol)

>  <smiles>  (25) 
CCN(CC)C(=O)CSc1nnc2c3ccccc3n(C)c2n1

>  <score_type>  (25) 
oracle

>  <origin>  (25) 
adg

>  <m_score__min__energy>  (25) 
-8.2200000000000006

>  <m_primary>  (25) 
energy

$$$$
25:0
     RDKit          3D

 45 49  0  0  0  0  0  0  0  0999 V2000
   -5.9153   15.2321  -33.7654 H   0  0  0  0  0  0  0  0  0  0  0  0
   -6.1230   16.3100  -33.8360 C   0  0  0  0  0  0  0  0  0  0  0  0
   -6.9110   16.9790  -32.9750 N   0  0  0  0  0  0  0  0  0  0  0  0
   -6.8750   18.2320  -33.4730 C   0  0  0  0  0  0  0  0  0  0  0  0
   -7.5330   19.4000  -32.8420 C   0  0  0  0  0  0  0  0  0  0  0  0
   -8.9300   19.3580  -32.6790 C   0  0  0  0  0  0  0  0  0  0  0  0
   -9.4827   18.4513  -32.9661 H   0  0  0  0  0  0  0  0  0  0  0  0
   -9.6240   20.4510  -32.1580 C   0  0  0  0  0  0  0  0  0  0  0  0
  -10.7165   20.4003  -32.0398 H   0  0  0  0  0  0  0  0  0  0  0  0
   -8.9390   21.6060  -31.7870 C   0  0  0  0  0  0  0  0  0  0  0  0
   -9.4939   22.4710  -31.3948 H   0  0  0  0  0  0  0  0  0  0  0  0
   -7.5490   21.6680  -31.9120 C   0  0  0  0  0  0  0  0  0  0  0  0
   -6.8920   22.7910  -31.5210 N   0  0  0  0  0  0  0  0  0  0  0  0
   -5.5410   22.8830  -31.6010 C   0  0  0  0  0  0  0  0  0  0  0  0
   -4.9560   23.9720  -31.1960 N   0  0  0  0  0  0  0  0  0  0  0  0
   -4.1520   24.1330  -30.0150 C   0  0  0  0  0  0  0  0  0  0  0  0
   -4.7930   24.3570  -28.7910 C   0  0  0  0  0  0  0  0  0  0  0  0
   -5.8918   24.3829  -28.7476 H   0  0  0  0  0  0  0  0  0  0  0  0
   -4.0490   24.5480  -27.6240 C   0  0  0  0  0  0  0  0  0  0  0  0
   -4.5660   24.7112  -26.6669 H   0  0  0  0  0  0  0  0  0  0  0  0
   -2.6450   24.5330  -27.6650 C   0  0  0  0  0  0  0  0  0  0  0  0
   -1.8570   24.7450  -26.4270 C   0  0  0  0  0  0  0  0  0  0  0  0
   -2.0660   25.8990  -25.6540 C   0  0  0  0  0  0  0  0  0  0  0  0
   -2.8215   26.6352  -25.9659 H   0  0  0  0  0  0  0  0  0  0  0  0
   -1.3430   26.1130  -24.5250 N   0  0  0  0  0  0  0  0  0  0  0  0
   -0.4060   25.2290  -24.1000 C   0  0  0  0  0  0  0  0  0  0  0  0
    0.1639   25.4332  -23.1816 H   0  0  0  0  0  0  0  0  0  0  0  0
   -0.1630   24.0620  -24.8240 C   0  0  0  0  0  0  0  0  0  0  0  0
    0.5976   23.3460  -24.4794 H   0  0  0  0  0  0  0  0  0  0  0  0
   -0.8960   23.8050  -25.9980 C   0  0  0  0  0  0  0  0  0  0  0  0
   -0.7080   22.6260  -26.7410 O   0  0  0  0  0  0  0  0  0  0  0  0
   -1.2970   21.3690  -26.4280 C   0  0  0  0  0  0  0  0  0  0  0  0
   -1.3520   21.2517  -25.3357 H   0  0  0  0  0  0  0  0  0  0  0  0
   -2.3105   21.3229  -26.8532 H   0  0  0  0  0  0  0  0  0  0  0  0
   -0.6839   20.5607  -26.8532 H   0  0  0  0  0  0  0  0  0  0  0  0
   -2.0000   24.3500  -28.9000 C   0  0  0  0  0  0  0  0  0  0  0  0
   -0.9011   24.3571  -28.9489 H   0  0  0  0  0  0  0  0  0  0  0  0
   -2.7460   24.1590  -30.0670 C   0  0  0  0  0  0  0  0  0  0  0  0
   -2.2314   24.0284  -31.0304 H   0  0  0  0  0  0  0  0  0  0  0  0
   -4.8220   21.8190  -32.0480 N   0  0  0  0  0  0  0  0  0  0  0  0
   -5.4260   20.6740  -32.4570 C   0  0  0  0  0  0  0  0  0  0  0  0
   -4.8169   19.8301  -32.8131 H   0  0  0  0  0  0  0  0  0  0  0  0
   -6.8290   20.5630  -32.4270 C   0  0  0  0  0  0  0  0  0  0  0  0
   -6.0850   18.3240  -34.5600 N   0  0  0  0  0  0  0  0  0  0  0  0
   -5.6180   17.1090  -34.7930 N   0  0  0  0  0  0  0  0  0  0  0  0
  1  2  1  0
  2  3  2  0
  3  4  1  0
  4  5  1  0
  5  6  2  0
  6  7  1  0
  6  8  1  0
  8  9  1  0
  8 10  2  0
 10 11  1  0
 10 12  1  0
 12 13  2  0
 13 14  1  0
 14 15  2  0
 15 16  1  0
 16 17  2  0
 17 18  1  0
 17 19  1  0
 19 20  1  0
 19 21  2  0
 21 22  1  0
 22 23  2  0
 23 24  1  0
 23 25  1  0
 25 26  2  0
 26 27  1  0
 26 28  1  0
 28 29  1  0
 28 30  2  0
 30 31  1  0
 31 32  1  0
 32 33  1  0
 32 34  1  0
 32 35  1  0
 21 36  1  0
 36 37  1  0
 36 38  2  0
 38 39  1  0
 14 40  1  0
 40 41  1  0
 41 42  1  0
 41 43  2  0
  4 44  2  0
 44 45  1  0
 45  2  1  0
 43  5  1  0
 43 12  1  0
 38 16  1  0
 30 22  1  0
M  CHG  2  40  -1  45  -1
M  END
>  <UniqueID>  (26) 
24

>  <SMILES>  (26) 
COc1ccncc1-c1ccc(/N=c2/nc3cccc(-c4nc[n-]n4)c3c[n-]2)cc1

>  <Energy>  (26) 
106.93887913490752

>  <Genealogy>  (26) 
COc1ccncc1-c1ccc(N=c2nc3cccc(-c4nc[n-]n4)c3c[n-]2)cc1 (protonated)
COc1ccncc1-c1ccc(/N=c2/nc3cccc(-c4nc[n-]n4)c3c[n-]2)cc1 (cis-trans isomerization)
COc1ccncc1-c1ccc(/N=c2/nc3cccc(-c4nc[n-]n4)c3c[n-]2)cc1 (3D coordinates assigned)
COc1ccncc1-c1ccc(/N=c2/nc3cccc(-c4nc[n-]n4)c3c[n-]2)cc1 (optimized conformer: 106.93887913490752 kcal/mol)

>  <smiles>  (26) 
COc1ccncc1-c1ccc(N=c2nc3cccc(-c4nc[nH]n4)c3c[nH]2)cc1

>  <score_type>  (26) 
oracle

>  <origin>  (26) 
adg

>  <m_score__min__energy>  (26) 
-9.8100000000000005

>  <m_primary>  (26) 
energy

$$$$
26:0
     RDKit          3D

 35 36  0  0  1  0  0  0  0  0999 V2000
   -2.7210   21.3520  -33.4720 N   0  0  0  0  0  0  0  0  0  0  0  0
   -5.5740   22.9830  -32.2740 C   0  0  0  0  0  0  0  0  0  0  0  0
   -3.6640   21.3040  -31.3200 C   0  0  0  0  0  0  0  0  0  0  0  0
   -4.6630   21.7350  -30.4780 C   0  0  0  0  0  0  0  0  0  0  0  0
   -5.5970   22.5670  -30.9790 N   0  0  0  0  0  0  0  0  0  0  0  0
   -6.6710   23.0560  -30.1520 C   0  0  0  0  0  0  0  0  0  0  0  0
   -7.9710   22.4030  -30.4710 C   0  0  0  0  0  0  0  0  0  0  0  0
   -8.0820   21.2560  -31.1160 C   0  0  0  0  0  0  0  0  0  0  0  0
   -9.1160   20.9090  -32.0930 C   0  0  0  0  0  0  0  0  0  0  0  0
   -8.7210   19.9340  -33.0800 N   0  0  0  0  0  0  0  0  0  0  0  0
   -7.4890   19.2250  -33.0470 C   0  0  0  0  0  0  0  0  0  0  0  0
   -6.4070   19.5580  -33.8520 C   0  0  0  0  0  0  0  0  0  0  0  0
   -5.2120   18.8860  -33.8170 C   0  0  0  0  0  0  0  0  0  0  0  0
   -5.0320   17.8250  -32.9560 C   0  0  0  0  0  0  0  0  0  0  0  0
   -6.0810   17.4670  -32.1440 C   0  0  0  0  0  0  0  0  0  0  0  0
   -7.2730   18.1450  -32.1880 C   0  0  0  0  0  0  0  0  0  0  0  0
   -3.6360   21.7260  -32.6430 C   0  0  0  0  0  0  0  0  0  0  0  0
   -6.4710   23.7680  -32.7120 O   0  0  0  0  0  0  0  0  0  0  0  0
   -4.5910   22.5590  -33.0980 N   0  0  0  0  0  0  0  0  0  0  0  0
   -2.6490   21.6260  -34.4550 H   0  0  0  0  0  0  0  0  0  0  0  0
   -2.8855   20.6235  -30.9446 H   0  0  0  0  0  0  0  0  0  0  0  0
   -4.6982   21.4102  -29.4276 H   0  0  0  0  0  0  0  0  0  0  0  0
   -6.4247   22.8581  -29.0984 H   0  0  0  0  0  0  0  0  0  0  0  0
   -6.7795   24.1338  -30.3431 H   0  0  0  0  0  0  0  0  0  0  0  0
   -8.8947   22.9067  -30.1499 H   0  0  0  0  0  0  0  0  0  0  0  0
   -7.3253   20.4878  -30.8985 H   0  0  0  0  0  0  0  0  0  0  0  0
   -9.9819   20.5084  -31.5454 H   0  0  0  0  0  0  0  0  0  0  0  0
   -9.3380   21.8334  -32.6464 H   0  0  0  0  0  0  0  0  0  0  0  0
   -9.3530   19.6970  -33.9000 H   0  0  0  0  0  0  0  0  0  0  0  0
   -6.5138   20.4008  -34.5508 H   0  0  0  0  0  0  0  0  0  0  0  0
   -4.3914   19.1960  -34.4808 H   0  0  0  0  0  0  0  0  0  0  0  0
   -4.0767   17.2808  -32.9199 H   0  0  0  0  0  0  0  0  0  0  0  0
   -5.9633   16.6236  -31.4477 H   0  0  0  0  0  0  0  0  0  0  0  0
   -8.0886   17.8263  -31.5223 H   0  0  0  0  0  0  0  0  0  0  0  0
   -4.6130   22.9060  -34.0920 H   0  0  0  0  0  0  0  0  0  0  0  0
  1  2  2  3
  2  3  1  0
  3  4  2  0
  4  5  1  0
  5  6  1  0
  6  7  1  0
  7  8  2  0
  8  9  1  0
  9 10  1  0
 10 11  1  0
 11 12  2  0
 12 13  1  0
 13 14  2  0
 14 15  1  0
 15 16  2  0
  5 17  1  0
 17 18  2  0
 17 19  1  0
 19  2  1  0
 16 11  1  0
  1 20  1  0
  3 21  1  0
  4 22  1  0
  6 23  1  0
  6 24  1  0
  7 25  1  0
  8 26  1  0
  9 27  1  0
  9 28  1  0
 10 29  1  0
 12 30  1  0
 13 31  1  0
 14 32  1  0
 15 33  1  0
 16 34  1  0
 19 35  1  0
M  END
>  <smiles>  (27) 
N=c1ccn(CC=CCNc2ccccc2)c(=O)[nH]1

>  <score_type>  (27) 
oracle

>  <origin>  (27) 
adg

>  <m_score__min__energy>  (27) 
-7.5199999999999996

>  <m_primary>  (27) 
energy

$$$$
27:0
     RDKit          3D

 38 40  0  0  0  0  0  0  0  0999 V2000
   -2.2560   24.5310  -28.1760 C   0  0  0  0  0  0  0  0  0  0  0  0
   -2.7680   25.1310  -29.3620 O   0  0  0  0  0  0  0  0  0  0  0  0
   -3.8520   24.6320  -30.0990 C   0  0  0  0  0  0  0  0  0  0  0  0
   -5.0890   25.2990  -30.1660 C   0  0  0  0  0  0  0  0  0  0  0  0
   -6.1380   24.7600  -30.9170 C   0  0  0  0  0  0  0  0  0  0  0  0
   -5.9750   23.5550  -31.6150 C   0  0  0  0  0  0  0  0  0  0  0  0
   -7.0740   23.0350  -32.3850 N   0  0  0  0  0  0  0  0  0  0  0  0
   -8.1280   21.7690  -31.8360 S   0  0  0  0  0  0  0  0  0  0  0  0
   -8.1490   21.7660  -30.3330 O   0  0  0  0  0  0  0  0  0  0  0  0
   -9.5180   22.0270  -32.3440 O   0  0  0  0  0  0  0  0  0  0  0  0
   -7.5790   20.2160  -32.4540 C   0  0  0  0  0  0  0  0  0  0  0  0
   -8.2690   19.0280  -32.1130 C   0  0  0  0  0  0  0  0  0  0  0  0
   -7.8260   17.7810  -32.5900 C   0  0  0  0  0  0  0  0  0  0  0  0
   -6.6930   17.7570  -33.4060 C   0  0  0  0  0  0  0  0  0  0  0  0
   -6.0280   18.9080  -33.7390 C   0  0  0  0  0  0  0  0  0  0  0  0
   -4.9650   18.5560  -34.5440 C   0  0  0  0  0  0  0  0  0  0  0  0
   -5.0370   17.1720  -34.6630 C   0  0  0  0  0  0  0  0  0  0  0  0
   -6.0940   16.6910  -33.9680 N   0  0  0  0  0  0  0  0  0  0  0  0
   -6.4930   15.2910  -33.8520 C   0  0  0  0  0  0  0  0  0  0  0  0
   -6.4420   20.1570  -33.2860 C   0  0  0  0  0  0  0  0  0  0  0  0
   -4.7380   22.8880  -31.5370 C   0  0  0  0  0  0  0  0  0  0  0  0
   -3.6890   23.4260  -30.7880 C   0  0  0  0  0  0  0  0  0  0  0  0
   -2.6847   25.0334  -27.2964 H   0  0  0  0  0  0  0  0  0  0  0  0
   -2.5271   23.4651  -28.1578 H   0  0  0  0  0  0  0  0  0  0  0  0
   -1.1607   24.6311  -28.1578 H   0  0  0  0  0  0  0  0  0  0  0  0
   -5.2312   26.2469  -29.6262 H   0  0  0  0  0  0  0  0  0  0  0  0
   -7.1023   25.2874  -30.9607 H   0  0  0  0  0  0  0  0  0  0  0  0
   -7.2120   23.3720  -33.3640 H   0  0  0  0  0  0  0  0  0  0  0  0
   -9.1595   19.0804  -31.4693 H   0  0  0  0  0  0  0  0  0  0  0  0
   -8.3558   16.8532  -32.3283 H   0  0  0  0  0  0  0  0  0  0  0  0
   -4.2192   19.2267  -34.9957 H   0  0  0  0  0  0  0  0  0  0  0  0
   -4.3334   16.5549  -35.2410 H   0  0  0  0  0  0  0  0  0  0  0  0
   -6.5706   15.0187  -32.7891 H   0  0  0  0  0  0  0  0  0  0  0  0
   -7.4682   15.1460  -34.3398 H   0  0  0  0  0  0  0  0  0  0  0  0
   -5.7407   14.6537  -34.3398 H   0  0  0  0  0  0  0  0  0  0  0  0
   -5.8986   21.0708  -33.5685 H   0  0  0  0  0  0  0  0  0  0  0  0
   -4.5964   21.9361  -32.0698 H   0  0  0  0  0  0  0  0  0  0  0  0
   -2.7261   22.8964  -30.7396 H   0  0  0  0  0  0  0  0  0  0  0  0
  1  2  1  0
  2  3  1  0
  3  4  2  0
  4  5  1  0
  5  6  2  0
  6  7  1  0
  7  8  1  0
  8  9  2  0
  8 10  2  0
  8 11  1  0
 11 12  2  0
 12 13  1  0
 13 14  2  0
 14 15  1  0
 15 16  1  0
 16 17  2  0
 17 18  1  0
 18 19  1  0
 15 20  2  0
  6 21  1  0
 21 22  2  0
 22  3  1  0
 20 11  1  0
 18 14  1  0
  1 23  1  0
  1 24  1  0
  1 25  1  0
  4 26  1  0
  5 27  1  0
  7 28  1  0
 12 29  1  0
 13 30  1  0
 16 31  1  0
 17 32  1  0
 19 33  1  0
 19 34  1  0
 19 35  1  0
 20 36  1  0
 21 37  1  0
 22 38  1  0
M  END
>  <UniqueID>  (28) 
25

>  <SMILES>  (28) 
COc1ccc(NS(=O)(=O)c2ccc3c(ccn3C)c2)cc1

>  <Energy>  (28) 
74.68398089093621

>  <Genealogy>  (28) 
COc1ccc(NS(=O)(=O)c2ccc3c(ccn3C)c2)cc1 (3D coordinates assigned)
COc1ccc(NS(=O)(=O)c2ccc3c(ccn3C)c2)cc1 (optimized conformer: 74.68398089093621 kcal/mol)

>  <smiles>  (28) 
COc1ccc(NS(=O)(=O)c2ccc3c(ccn3C)c2)cc1

>  <score_type>  (28) 
oracle

>  <origin>  (28) 
adg

>  <m_score__min__energy>  (28) 
-9.1300000000000008

>  <m_primary>  (28) 
energy

$$$$
28:0
     RDKit          3D

 40 42  0  0  0  0  0  0  0  0999 V2000
   -2.9320   16.1750  -35.2060 C   0  0  0  0  0  0  0  0  0  0  0  0
   -4.1750   16.8450  -35.3890 O   0  0  0  0  0  0  0  0  0  0  0  0
   -4.7710   17.7590  -34.5000 C   0  0  0  0  0  0  0  0  0  0  0  0
   -4.0220   18.8950  -34.1740 C   0  0  0  0  0  0  0  0  0  0  0  0
   -4.5130   19.8670  -33.2940 C   0  0  0  0  0  0  0  0  0  0  0  0
   -5.8050   19.7200  -32.7520 C   0  0  0  0  0  0  0  0  0  0  0  0
   -6.5590   18.5810  -33.0640 C   0  0  0  0  0  0  0  0  0  0  0  0
   -6.0610   17.5930  -33.9360 C   0  0  0  0  0  0  0  0  0  0  0  0
   -6.8220   16.4550  -34.2470 O   0  0  0  0  0  0  0  0  0  0  0  0
   -6.3730   15.1100  -34.1170 C   0  0  0  0  0  0  0  0  0  0  0  0
   -6.3720   20.7190  -31.7730 C   0  0  0  0  0  0  0  0  0  0  0  0
   -5.5680   21.9430  -31.7110 N   0  0  0  0  0  0  0  0  0  0  0  0
   -6.1530   23.1400  -31.1760 C   0  0  0  0  0  0  0  0  0  0  0  0
   -5.5320   24.1310  -30.4450 C   0  0  0  0  0  0  0  0  0  0  0  0
   -4.1350   24.2480  -30.1610 N   0  0  0  0  0  0  0  0  0  0  0  0
   -3.5000   25.2730  -30.4800 O   0  0  0  0  0  0  0  0  0  0  0  0
   -3.4980   23.2560  -29.4520 O   0  0  0  0  0  0  0  0  0  0  0  0
   -6.4500   25.0380  -30.0570 N   0  0  0  0  0  0  0  0  0  0  0  0
   -7.6020   24.6300  -30.5110 O   0  0  0  0  0  0  0  0  0  0  0  0
   -7.4850   23.5010  -31.1760 C   0  0  0  0  0  0  0  0  0  0  0  0
   -8.6250   22.7710  -31.8040 C   0  0  0  0  0  0  0  0  0  0  0  0
   -4.1110   21.8260  -31.7570 C   0  0  0  0  0  0  0  0  0  0  0  0
   -3.6860   21.1020  -33.0340 C   0  0  0  0  0  0  0  0  0  0  0  0
   -2.7292   16.0657  -34.1304 H   0  0  0  0  0  0  0  0  0  0  0  0
   -2.9794   15.1802  -35.6731 H   0  0  0  0  0  0  0  0  0  0  0  0
   -2.1271   16.7615  -35.6731 H   0  0  0  0  0  0  0  0  0  0  0  0
   -3.0249   19.0274  -34.6192 H   0  0  0  0  0  0  0  0  0  0  0  0
   -7.5577   18.4560  -32.6201 H   0  0  0  0  0  0  0  0  0  0  0  0
   -6.2874   14.8535  -33.0508 H   0  0  0  0  0  0  0  0  0  0  0  0
   -7.0943   14.4343  -34.5999 H   0  0  0  0  0  0  0  0  0  0  0  0
   -5.3905   15.0031  -34.5999 H   0  0  0  0  0  0  0  0  0  0  0  0
   -7.3941   20.9807  -32.0843 H   0  0  0  0  0  0  0  0  0  0  0  0
   -6.3664   20.2575  -30.7745 H   0  0  0  0  0  0  0  0  0  0  0  0
   -9.2727   22.3563  -31.0175 H   0  0  0  0  0  0  0  0  0  0  0  0
   -9.2057   23.4657  -32.4287 H   0  0  0  0  0  0  0  0  0  0  0  0
   -8.2370   21.9529  -32.4287 H   0  0  0  0  0  0  0  0  0  0  0  0
   -3.6640   22.8310  -31.7418 H   0  0  0  0  0  0  0  0  0  0  0  0
   -3.7666   21.2519  -30.8842 H   0  0  0  0  0  0  0  0  0  0  0  0
   -3.7997   21.7896  -33.8851 H   0  0  0  0  0  0  0  0  0  0  0  0
   -2.6396   20.7864  -32.9097 H   0  0  0  0  0  0  0  0  0  0  0  0
  1  2  1  0
  2  3  1  0
  3  4  2  0
  4  5  1  0
  5  6  2  0
  6  7  1  0
  7  8  2  0
  8  9  1  0
  9 10  1  0
  6 11  1  0
 11 12  1  0
 12 13  1  0
 13 14  1  0
 14 15  1  0
 15 16  2  0
 15 17  1  0
 14 18  2  0
 18 19  1  0
 19 20  1  0
 20 21  1  0
 12 22  1  0
 22 23  1  0
  8  3  1  0
 20 13  2  0
 23  5  1  0
  1 24  1  0
  1 25  1  0
  1 26  1  0
  4 27  1  0
  7 28  1  0
 10 29  1  0
 10 30  1  0
 10 31  1  0
 11 32  1  0
 11 33  1  0
 21 34  1  0
 21 35  1  0
 21 36  1  0
 22 37  1  0
 22 38  1  0
 23 39  1  0
 23 40  1  0
M  CHG  2  15   1  17  -1
M  END
>  <UniqueID>  (29) 
26

>  <SMILES>  (29) 
COc1cc2c(cc1OC)CN(c1c([N+](=O)[O-])noc1C)CC2

>  <Energy>  (29) 
81.4568800638422

>  <Genealogy>  (29) 
COc1cc2c(cc1OC)CN(c1c([N+](=O)[O-])noc1C)CC2 (3D coordinates assigned)
COc1cc2c(cc1OC)CN(c1c([N+](=O)[O-])noc1C)CC2 (nonaromatic ring conformer: 81.4568800638422 kcal/mol)

>  <smiles>  (29) 
COc1cc2c(cc1OC)CN(c1c([N+](=O)[O-])noc1C)CC2

>  <score_type>  (29) 
oracle

>  <origin>  (29) 
adg

>  <m_score__min__energy>  (29) 
-7.6900000000000004

>  <m_primary>  (29) 
energy

$$$$
29:0
     RDKit          3D

 40 41  0  0  0  0  0  0  0  0999 V2000
   -1.6060   25.4730  -27.8280 C   0  0  0  0  0  0  0  0  0  0  0  0
   -2.1880   25.2980  -29.1160 O   0  0  0  0  0  0  0  0  0  0  0  0
   -2.4700   24.0520  -29.6980 C   0  0  0  0  0  0  0  0  0  0  0  0
   -1.6950   22.9070  -29.4250 C   0  0  0  0  0  0  0  0  0  0  0  0
   -2.0080   21.6850  -30.0230 C   0  0  0  0  0  0  0  0  0  0  0  0
   -3.0900   21.5910  -30.8980 C   0  0  0  0  0  0  0  0  0  0  0  0
   -3.8650   22.7180  -31.1770 C   0  0  0  0  0  0  0  0  0  0  0  0
   -3.5630   23.9570  -30.5760 C   0  0  0  0  0  0  0  0  0  0  0  0
   -4.3140   25.1200  -30.8270 O   0  0  0  0  0  0  0  0  0  0  0  0
   -5.7130   25.1640  -31.1080 C   0  0  0  0  0  0  0  0  0  0  0  0
   -6.4070   23.8950  -30.5940 C   0  0  0  0  0  0  0  0  0  0  0  0
   -7.2530   23.2140  -31.6450 C   0  0  0  0  0  0  0  0  0  0  0  0
   -7.4350   23.7780  -32.7600 O   0  0  0  0  0  0  0  0  0  0  0  0
   -7.8610   21.9270  -31.3900 N   0  0  0  0  0  0  0  0  0  0  0  0
   -9.0330   21.8160  -30.5150 C   0  0  0  0  0  0  0  0  0  0  0  0
   -7.3950   20.7570  -32.0910 C   0  0  0  0  0  0  0  0  0  0  0  0
   -6.2210   20.8130  -32.8620 C   0  0  0  0  0  0  0  0  0  0  0  0
   -5.7660   19.6760  -33.5380 C   0  0  0  0  0  0  0  0  0  0  0  0
   -6.4750   18.4760  -33.4460 C   0  0  0  0  0  0  0  0  0  0  0  0
   -7.6410   18.4090  -32.6790 C   0  0  0  0  0  0  0  0  0  0  0  0
   -8.1000   19.5440  -32.0020 C   0  0  0  0  0  0  0  0  0  0  0  0
   -2.3544   25.2480  -27.0538 H   0  0  0  0  0  0  0  0  0  0  0  0
   -0.7484   24.7930  -27.7177 H   0  0  0  0  0  0  0  0  0  0  0  0
   -1.2657   26.5132  -27.7177 H   0  0  0  0  0  0  0  0  0  0  0  0
   -0.8393   22.9765  -28.7373 H   0  0  0  0  0  0  0  0  0  0  0  0
   -1.4002   20.7948  -29.8037 H   0  0  0  0  0  0  0  0  0  0  0  0
   -3.3331   20.6271  -31.3691 H   0  0  0  0  0  0  0  0  0  0  0  0
   -4.7160   22.6389  -31.8695 H   0  0  0  0  0  0  0  0  0  0  0  0
   -6.1536   26.0425  -30.6139 H   0  0  0  0  0  0  0  0  0  0  0  0
   -5.8543   25.2294  -32.1969 H   0  0  0  0  0  0  0  0  0  0  0  0
   -5.6361   23.1881  -30.2533 H   0  0  0  0  0  0  0  0  0  0  0  0
   -7.0792   24.1970  -29.7774 H   0  0  0  0  0  0  0  0  0  0  0  0
   -8.7101   21.8466  -29.4639 H   0  0  0  0  0  0  0  0  0  0  0  0
   -9.7186   22.6532  -30.7124 H   0  0  0  0  0  0  0  0  0  0  0  0
   -9.5492   20.8649  -30.7124 H   0  0  0  0  0  0  0  0  0  0  0  0
   -5.6576   21.7550  -32.9341 H   0  0  0  0  0  0  0  0  0  0  0  0
   -4.8486   19.7270  -34.1428 H   0  0  0  0  0  0  0  0  0  0  0  0
   -6.1151   17.5829  -33.9779 H   0  0  0  0  0  0  0  0  0  0  0  0
   -8.1983   17.4633  -32.6074 H   0  0  0  0  0  0  0  0  0  0  0  0
   -9.0170   19.4870  -31.3971 H   0  0  0  0  0  0  0  0  0  0  0  0
  1  2  1  0
  2  3  1  0
  3  4  2  0
  4  5  1  0
  5  6  2  0
  6  7  1  0
  7  8  2  0
  8  9  1  0
  9 10  1  0
 10 11  1  0
 11 12  1  0
 12 13  2  0
 12 14  1  0
 14 15  1  0
 14 16  1  0
 16 17  2  0
 17 18  1  0
 18 19  2  0
 19 20  1  0
 20 21  2  0
  8  3  1  0
 21 16  1  0
  1 22  1  0
  1 23  1  0
  1 24  1  0
  4 25  1  0
  5 26  1  0
  6 27  1  0
  7 28  1  0
 10 29  1  0
 10 30  1  0
 11 31  1  0
 11 32  1  0
 15 33  1  0
 15 34  1  0
 15 35  1  0
 17 36  1  0
 18 37  1  0
 19 38  1  0
 20 39  1  0
 21 40  1  0
M  END
>  <UniqueID>  (30) 
27

>  <SMILES>  (30) 
COc1ccccc1OCCC(=O)N(C)c1ccccc1

>  <Energy>  (30) 
44.77722614924063

>  <Genealogy>  (30) 
COc1ccccc1OCCC(=O)N(C)c1ccccc1 (3D coordinates assigned)
COc1ccccc1OCCC(=O)N(C)c1ccccc1 (optimized conformer: 44.77722614924063 kcal/mol)

>  <smiles>  (30) 
COc1ccccc1OCCC(=O)N(C)c1ccccc1

>  <score_type>  (30) 
oracle

>  <origin>  (30) 
adg

>  <m_score__min__energy>  (30) 
-8.4399999999999995

>  <m_primary>  (30) 
energy

$$$$
30:0
     RDKit          3D

 42 44  0  0  0  0  0  0  0  0999 V2000
   -6.8350   18.9350  -33.4010 C   0  0  0  0  0  0  0  0  0  0  0  0
   -6.8970   20.1710  -32.6180 N   0  0  0  0  0  0  0  0  0  0  0  0
   -5.6520   20.7320  -32.0710 C   0  0  0  0  0  0  0  0  0  0  0  0
   -5.7960   22.1490  -31.5660 C   0  0  0  0  0  0  0  0  0  0  0  0
   -4.6400   22.8930  -31.2840 C   0  0  0  0  0  0  0  0  0  0  0  0
   -4.7320   24.1780  -30.7350 C   0  0  0  0  0  0  0  0  0  0  0  0
   -3.5260   24.9110  -30.4720 N   0  0  0  0  0  0  0  0  0  0  0  0
   -2.5130   24.5500  -29.5250 C   0  0  0  0  0  0  0  0  0  0  0  0
   -1.8710   25.4630  -28.9420 O   0  0  0  0  0  0  0  0  0  0  0  0
   -2.1550   23.1470  -29.2630 C   0  0  0  0  0  0  0  0  0  0  0  0
   -2.3310   22.5240  -28.0820 N   0  0  0  0  0  0  0  0  0  0  0  0
   -1.8670   21.2870  -28.3540 C   0  0  0  0  0  0  0  0  0  0  0  0
   -1.7300   20.1990  -27.3090 C   0  0  0  0  0  0  0  0  0  0  0  0
   -0.7220   19.1290  -27.7750 C   0  0  0  0  0  0  0  0  0  0  0  0
   -1.2380   20.8330  -25.9970 C   0  0  0  0  0  0  0  0  0  0  0  0
   -3.0980   19.5270  -27.0720 C   0  0  0  0  0  0  0  0  0  0  0  0
   -1.4190   21.1790  -29.6230 N   0  0  0  0  0  0  0  0  0  0  0  0
   -1.6270   22.3450  -30.1540 O   0  0  0  0  0  0  0  0  0  0  0  0
   -5.9970   24.7390  -30.5020 C   0  0  0  0  0  0  0  0  0  0  0  0
   -7.1530   24.0010  -30.7660 C   0  0  0  0  0  0  0  0  0  0  0  0
   -7.0610   22.7050  -31.2920 C   0  0  0  0  0  0  0  0  0  0  0  0
   -8.2510   21.9630  -31.5690 N   0  0  0  0  0  0  0  0  0  0  0  0
   -8.1780   20.7190  -32.2620 C   0  0  0  0  0  0  0  0  0  0  0  0
   -9.2410   20.1170  -32.5720 O   0  0  0  0  0  0  0  0  0  0  0  0
   -6.7917   18.0717  -32.7206 H   0  0  0  0  0  0  0  0  0  0  0  0
   -7.7304   18.8574  -34.0353 H   0  0  0  0  0  0  0  0  0  0  0  0
   -5.9363   18.9474  -34.0353 H   0  0  0  0  0  0  0  0  0  0  0  0
   -5.3225   20.0971  -31.2354 H   0  0  0  0  0  0  0  0  0  0  0  0
   -4.9212   20.7558  -32.8928 H   0  0  0  0  0  0  0  0  0  0  0  0
   -3.6505   22.4620  -31.4966 H   0  0  0  0  0  0  0  0  0  0  0  0
   -0.2674   18.6465  -26.8972 H   0  0  0  0  0  0  0  0  0  0  0  0
   -1.2435   18.3728  -28.3801 H   0  0  0  0  0  0  0  0  0  0  0  0
    0.0640   19.6045  -28.3801 H   0  0  0  0  0  0  0  0  0  0  0  0
   -1.6631   20.2852  -25.1431 H   0  0  0  0  0  0  0  0  0  0  0  0
   -0.1399   20.7830  -25.9548 H   0  0  0  0  0  0  0  0  0  0  0  0
   -1.5591   21.8843  -25.9548 H   0  0  0  0  0  0  0  0  0  0  0  0
   -3.2802   19.4375  -25.9909 H   0  0  0  0  0  0  0  0  0  0  0  0
   -3.8907   20.1383  -27.5280 H   0  0  0  0  0  0  0  0  0  0  0  0
   -3.0987   18.5260  -27.5280 H   0  0  0  0  0  0  0  0  0  0  0  0
   -6.0784   25.7636  -30.1101 H   0  0  0  0  0  0  0  0  0  0  0  0
   -8.1408   24.4391  -30.5601 H   0  0  0  0  0  0  0  0  0  0  0  0
   -9.1860   22.3560  -31.3190 H   0  0  0  0  0  0  0  0  0  0  0  0
  1  2  1  0
  2  3  1  0
  3  4  1  0
  4  5  2  0
  5  6  1  0
  6  7  1  0
  7  8  1  0
  8  9  2  0
  8 10  1  0
 10 11  2  0
 11 12  1  0
 12 13  1  0
 13 14  1  0
 13 15  1  0
 13 16  1  0
 12 17  2  0
 17 18  1  0
  6 19  2  0
 19 20  1  0
 20 21  2  0
 21 22  1  0
 22 23  1  0
 23 24  2  0
 23  2  1  0
 21  4  1  0
 18 10  1  0
  1 25  1  0
  1 26  1  0
  1 27  1  0
  3 28  1  0
  3 29  1  0
  5 30  1  0
 14 31  1  0
 14 32  1  0
 14 33  1  0
 15 34  1  0
 15 35  1  0
 15 36  1  0
 16 37  1  0
 16 38  1  0
 16 39  1  0
 19 40  1  0
 20 41  1  0
 22 42  1  0
M  CHG  1   7  -1
M  END
>  <UniqueID>  (31) 
28

>  <SMILES>  (31) 
CN1Cc2cc([N-]C(=O)c3nc(C(C)(C)C)no3)ccc2NC1=O

>  <Energy>  (31) 
74.79843551214717

>  <Genealogy>  (31) 
CN1Cc2cc([N-]C(=O)c3nc(C(C)(C)C)no3)ccc2NC1=O (protonated)
CN1Cc2cc([N-]C(=O)c3nc(C(C)(C)C)no3)ccc2NC1=O (3D coordinates assigned)
CN1Cc2cc([N-]C(=O)c3nc(C(C)(C)C)no3)ccc2NC1=O (nonaromatic ring conformer: 74.79843551214717 kcal/mol)

>  <smiles>  (31) 
CN1Cc2cc(NC(=O)c3nc(C(C)(C)C)no3)ccc2NC1=O

>  <score_type>  (31) 
oracle

>  <origin>  (31) 
adg

>  <m_score__min__energy>  (31) 
-9.7200000000000006

>  <m_primary>  (31) 
energy

$$$$
31:0
     RDKit          3D

 25 26  0  0  0  0  0  0  0  0999 V2000
   -3.9430   24.1690  -28.8520 C   0  0  0  0  0  0  0  0  0  0  0  0
   -4.2380   24.9620  -30.4620 S   0  0  0  0  0  0  0  0  0  0  0  0
   -5.6280   23.9040  -30.8600 C   0  0  0  0  0  0  0  0  0  0  0  0
   -6.5180   23.4980  -29.8670 C   0  0  0  0  0  0  0  0  0  0  0  0
   -7.5860   22.6730  -30.2100 C   0  0  0  0  0  0  0  0  0  0  0  0
   -7.7380   22.2740  -31.5390 C   0  0  0  0  0  0  0  0  0  0  0  0
   -9.0960   21.2030  -32.0100 S   0  0  0  0  0  0  0  0  0  0  0  0
   -7.9930   19.9210  -32.5950 C   0  0  0  0  0  0  0  0  0  0  0  0
   -8.1440   18.6020  -32.1490 C   0  0  0  0  0  0  0  0  0  0  0  0
   -7.2750   17.6180  -32.6250 C   0  0  0  0  0  0  0  0  0  0  0  0
   -6.2710   17.9590  -33.5340 C   0  0  0  0  0  0  0  0  0  0  0  0
   -6.1500   19.2860  -33.9540 C   0  0  0  0  0  0  0  0  0  0  0  0
   -7.0060   20.2310  -33.4790 N   0  0  0  0  0  0  0  0  0  0  0  0
   -6.8460   22.7040  -32.4740 N   0  0  0  0  0  0  0  0  0  0  0  0
   -5.8220   23.4930  -32.1410 N   0  0  0  0  0  0  0  0  0  0  0  0
   -4.2036   24.8696  -28.0450 H   0  0  0  0  0  0  0  0  0  0  0  0
   -4.5653   23.2658  -28.7686 H   0  0  0  0  0  0  0  0  0  0  0  0
   -2.8817   23.8921  -28.7686 H   0  0  0  0  0  0  0  0  0  0  0  0
   -6.3785   23.8251  -28.8261 H   0  0  0  0  0  0  0  0  0  0  0  0
   -8.3010   22.3399  -29.4433 H   0  0  0  0  0  0  0  0  0  0  0  0
   -8.9377   18.3442  -31.4323 H   0  0  0  0  0  0  0  0  0  0  0  0
   -7.3809   16.5772  -32.2850 H   0  0  0  0  0  0  0  0  0  0  0  0
   -5.5825   17.1906  -33.9154 H   0  0  0  0  0  0  0  0  0  0  0  0
   -5.3625   19.5669  -34.6688 H   0  0  0  0  0  0  0  0  0  0  0  0
   -6.9560   22.4100  -33.4690 H   0  0  0  0  0  0  0  0  0  0  0  0
  1  2  1  0
  2  3  1  0
  3  4  2  0
  4  5  1  0
  5  6  2  0
  6  7  1  0
  7  8  1  0
  8  9  2  0
  9 10  1  0
 10 11  2  0
 11 12  1  0
 12 13  2  0
  6 14  1  0
 14 15  2  0
 15  3  1  0
 13  8  1  0
  1 16  1  0
  1 17  1  0
  1 18  1  0
  4 19  1  0
  5 20  1  0
  9 21  1  0
 10 22  1  0
 11 23  1  0
 12 24  1  0
 14 25  1  0
M  CHG  1  14   1
M  END
>  <UniqueID>  (32) 
29

>  <SMILES>  (32) 
CSc1ccc(Sc2ccccn2)[nH+]n1

>  <Energy>  (32) 
18.062306993595406

>  <Genealogy>  (32) 
CSc1ccc(Sc2ccccn2)[nH+]n1 (protonated)
CSc1ccc(Sc2ccccn2)[nH+]n1 (3D coordinates assigned)
CSc1ccc(Sc2ccccn2)[nH+]n1 (optimized conformer: 18.062306993595406 kcal/mol)

>  <smiles>  (32) 
CSc1ccc(Sc2ccccn2)nn1

>  <score_type>  (32) 
oracle

>  <origin>  (32) 
adg

>  <m_score__min__energy>  (32) 
-6.5300000000000002

>  <m_primary>  (32) 
energy

$$$$
32:0
     RDKit          3D

 40 42  0  0  0  0  0  0  0  0999 V2000
   -6.4850   16.7130  -33.1530 C   0  0  0  0  0  0  0  0  0  0  0  0
   -6.3270   17.8170  -34.1950 C   0  0  0  0  0  0  0  0  0  0  0  0
   -5.9090   19.0750  -33.5530 N   0  0  0  0  0  0  0  0  0  0  0  0
   -4.5790   19.3860  -33.5290 C   0  0  0  0  0  0  0  0  0  0  0  0
   -4.1160   20.5700  -32.9430 C   0  0  0  0  0  0  0  0  0  0  0  0
   -2.6530   20.7930  -32.8840 C   0  0  0  0  0  0  0  0  0  0  0  0
   -2.1020   20.9800  -31.7660 O   0  0  0  0  0  0  0  0  0  0  0  0
   -1.8880   20.9000  -34.0940 N   0  0  0  0  0  0  0  0  0  0  0  0
   -0.4550   20.8000  -34.1530 C   0  0  0  0  0  0  0  0  0  0  0  0
    0.2520   21.5760  -35.0850 C   0  0  0  0  0  0  0  0  0  0  0  0
    1.6430   21.4780  -35.1770 C   0  0  0  0  0  0  0  0  0  0  0  0
    2.3400   20.5940  -34.3500 C   0  0  0  0  0  0  0  0  0  0  0  0
    1.6440   19.8010  -33.4340 C   0  0  0  0  0  0  0  0  0  0  0  0
    0.2530   19.8960  -33.3370 C   0  0  0  0  0  0  0  0  0  0  0  0
   -5.0550   21.4870  -32.4150 C   0  0  0  0  0  0  0  0  0  0  0  0
   -4.6660   22.7410  -31.8930 C   0  0  0  0  0  0  0  0  0  0  0  0
   -5.6140   23.6320  -31.3630 C   0  0  0  0  0  0  0  0  0  0  0  0
   -5.2060   24.9040  -30.8230 N   0  0  0  0  0  0  0  0  0  0  0  0
   -6.0460   25.6910  -30.3380 O   0  0  0  0  0  0  0  0  0  0  0  0
   -3.8810   25.2760  -30.8350 O   0  0  0  0  0  0  0  0  0  0  0  0
   -6.9680   23.2720  -31.3720 C   0  0  0  0  0  0  0  0  0  0  0  0
   -7.3740   22.0530  -31.9130 C   0  0  0  0  0  0  0  0  0  0  0  0
   -6.4310   21.1550  -32.4470 C   0  0  0  0  0  0  0  0  0  0  0  0
   -6.8380   19.9360  -33.0280 C   0  0  0  0  0  0  0  0  0  0  0  0
   -8.0660   19.6420  -33.0710 O   0  0  0  0  0  0  0  0  0  0  0  0
   -6.4226   17.1487  -32.1449 H   0  0  0  0  0  0  0  0  0  0  0  0
   -7.4622   16.2246  -33.2816 H   0  0  0  0  0  0  0  0  0  0  0  0
   -5.6840   15.9701  -33.2816 H   0  0  0  0  0  0  0  0  0  0  0  0
   -5.5662   17.5152  -34.9299 H   0  0  0  0  0  0  0  0  0  0  0  0
   -7.2940   17.9762  -34.6946 H   0  0  0  0  0  0  0  0  0  0  0  0
   -3.8559   18.6906  -33.9801 H   0  0  0  0  0  0  0  0  0  0  0  0
   -2.4030   21.1220  -34.9760 H   0  0  0  0  0  0  0  0  0  0  0  0
   -0.2923   22.2655  -35.7470 H   0  0  0  0  0  0  0  0  0  0  0  0
    2.1902   22.0983  -35.9022 H   0  0  0  0  0  0  0  0  0  0  0  0
    3.4354   20.5222  -34.4198 H   0  0  0  0  0  0  0  0  0  0  0  0
    2.1923   19.1001  -32.7875 H   0  0  0  0  0  0  0  0  0  0  0  0
   -0.2909   19.2625  -32.6208 H   0  0  0  0  0  0  0  0  0  0  0  0
   -3.6031   23.0243  -31.9018 H   0  0  0  0  0  0  0  0  0  0  0  0
   -7.7172   23.9571  -30.9485 H   0  0  0  0  0  0  0  0  0  0  0  0
   -8.4421   21.7904  -31.9226 H   0  0  0  0  0  0  0  0  0  0  0  0
  1  2  1  0
  2  3  1  0
  3  4  1  0
  4  5  2  0
  5  6  1  0
  6  7  2  0
  6  8  1  0
  8  9  1  0
  9 10  2  0
 10 11  1  0
 11 12  2  0
 12 13  1  0
 13 14  2  0
  5 15  1  0
 15 16  2  0
 16 17  1  0
 17 18  1  0
 18 19  2  0
 18 20  1  0
 17 21  2  0
 21 22  1  0
 22 23  2  0
 23 24  1  0
 24 25  2  0
 24  3  1  0
 14  9  1  0
 23 15  1  0
  1 26  1  0
  1 27  1  0
  1 28  1  0
  2 29  1  0
  2 30  1  0
  4 31  1  0
  8 32  1  0
 10 33  1  0
 11 34  1  0
 12 35  1  0
 13 36  1  0
 14 37  1  0
 16 38  1  0
 21 39  1  0
 22 40  1  0
M  CHG  2  18   1  20  -1
M  END
>  <UniqueID>  (33) 
30

>  <SMILES>  (33) 
CCn1cc(C(=O)Nc2ccccc2)c2cc([N+](=O)[O-])ccc2c1=O

>  <Energy>  (33) 
58.25285793599392

>  <Genealogy>  (33) 
CCn1cc(C(=O)Nc2ccccc2)c2cc([N+](=O)[O-])ccc2c1=O (3D coordinates assigned)
CCn1cc(C(=O)Nc2ccccc2)c2cc([N+](=O)[O-])ccc2c1=O (optimized conformer: 58.25285793599392 kcal/mol)

>  <smiles>  (33) 
CCn1cc(C(=O)Nc2ccccc2)c2cc([N+](=O)[O-])ccc2c1=O

>  <score_type>  (33) 
oracle

>  <origin>  (33) 
adg

>  <m_score__min__energy>  (33) 
-9.3100000000000005

>  <m_primary>  (33) 
energy

$$$$
33:0
     RDKit          3D

 38 39  0  0  0  0  0  0  0  0999 V2000
   -3.2063   22.4546  -33.9320 H   0  0  0  0  0  0  0  0  0  0  0  0
   -3.5690   21.8110  -33.1170 C   0  0  0  0  0  0  0  0  0  0  0  0
   -3.6500   22.3110  -31.8780 C   0  0  0  0  0  0  0  0  0  0  0  0
   -2.7870   22.1942  -31.2061 H   0  0  0  0  0  0  0  0  0  0  0  0
   -4.8500   23.0140  -31.3730 C   0  0  0  0  0  0  0  0  0  0  0  0
   -6.1090   22.4640  -31.6620 C   0  0  0  0  0  0  0  0  0  0  0  0
   -6.1760   21.5382  -32.2522 H   0  0  0  0  0  0  0  0  0  0  0  0
   -7.2770   23.0800  -31.2080 C   0  0  0  0  0  0  0  0  0  0  0  0
   -8.9790   22.3030  -31.5930 Br  0  0  0  0  0  0  0  0  0  0  0  0
   -7.2000   24.2600  -30.4690 C   0  0  0  0  0  0  0  0  0  0  0  0
   -8.1199   24.7373  -30.1002 H   0  0  0  0  0  0  0  0  0  0  0  0
   -5.9590   24.8370  -30.1960 C   0  0  0  0  0  0  0  0  0  0  0  0
   -5.9073   25.7709  -29.6171 H   0  0  0  0  0  0  0  0  0  0  0  0
   -4.7710   24.2330  -30.6560 C   0  0  0  0  0  0  0  0  0  0  0  0
   -3.5160   24.8270  -30.4440 O   0  0  0  0  0  0  0  0  0  0  0  0
   -2.6520   24.5290  -29.3520 C   0  0  0  0  0  0  0  0  0  0  0  0
   -3.1814   24.7116  -28.4052 H   0  0  0  0  0  0  0  0  0  0  0  0
   -2.3465   23.4735  -29.4036 H   0  0  0  0  0  0  0  0  0  0  0  0
   -1.7608   25.1717  -29.4036 H   0  0  0  0  0  0  0  0  0  0  0  0
   -3.9520   20.4250  -33.4160 C   0  0  0  0  0  0  0  0  0  0  0  0
   -3.0570   19.4720  -33.7540 N   0  0  0  0  0  0  0  0  0  0  0  0
   -3.8180   18.3770  -33.9420 C   0  0  0  0  0  0  0  0  0  0  0  0
   -3.4495   17.3826  -34.2342 H   0  0  0  0  0  0  0  0  0  0  0  0
   -5.1330   18.7080  -33.7080 C   0  0  0  0  0  0  0  0  0  0  0  0
   -6.3220   17.8040  -33.8280 C   0  0  0  0  0  0  0  0  0  0  0  0
   -6.8835   18.0720  -34.7352 H   0  0  0  0  0  0  0  0  0  0  0  0
   -5.9601   16.7666  -33.8805 H   0  0  0  0  0  0  0  0  0  0  0  0
   -7.2570   17.9260  -32.6070 C   0  0  0  0  0  0  0  0  0  0  0  0
   -7.9431   17.0663  -32.6236 H   0  0  0  0  0  0  0  0  0  0  0  0
   -6.4380   17.9010  -31.3100 C   0  0  0  0  0  0  0  0  0  0  0  0
   -7.1186   17.9218  -30.4461 H   0  0  0  0  0  0  0  0  0  0  0  0
   -5.8315   16.9839  -31.2770 H   0  0  0  0  0  0  0  0  0  0  0  0
   -5.7767   18.7794  -31.2770 H   0  0  0  0  0  0  0  0  0  0  0  0
   -8.1030   19.2070  -32.6680 C   0  0  0  0  0  0  0  0  0  0  0  0
   -8.3276   19.5471  -31.6463 H   0  0  0  0  0  0  0  0  0  0  0  0
   -7.5441   19.9905  -33.2007 H   0  0  0  0  0  0  0  0  0  0  0  0
   -9.0430   19.0006  -33.2007 H   0  0  0  0  0  0  0  0  0  0  0  0
   -5.1870   19.9760  -33.3880 O   0  0  0  0  0  0  0  0  0  0  0  0
  1  2  1  0
  2  3  2  0
  3  4  1  0
  3  5  1  0
  5  6  2  0
  6  7  1  0
  6  8  1  0
  8  9  1  0
  8 10  2  0
 10 11  1  0
 10 12  1  0
 12 13  1  0
 12 14  2  0
 14 15  1  0
 15 16  1  0
 16 17  1  0
 16 18  1  0
 16 19  1  0
  2 20  1  0
 20 21  2  0
 21 22  1  0
 22 23  1  0
 22 24  2  0
 24 25  1  0
 25 26  1  0
 25 27  1  0
 25 28  1  0
 28 29  1  0
 28 30  1  0
 30 31  1  0
 30 32  1  0
 30 33  1  0
 28 34  1  0
 34 35  1  0
 34 36  1  0
 34 37  1  0
 24 38  1  0
 14  5  1  0
 38 20  1  0
M  END
>  <UniqueID>  (34) 
31

>  <SMILES>  (34) 
COc1ccc(Br)cc1/C=C/c1ncc(CC(C)C)o1

>  <Energy>  (34) 
62.83023407011807

>  <Genealogy>  (34) 
COc1ccc(Br)cc1/C=C/c1ncc(CC(C)C)o1 (cis-trans isomerization)
COc1ccc(Br)cc1/C=C/c1ncc(CC(C)C)o1 (3D coordinates assigned)
COc1ccc(Br)cc1/C=C/c1ncc(CC(C)C)o1 (optimized conformer: 62.83023407011807 kcal/mol)

>  <smiles>  (34) 
COc1ccc(Br)cc1C=Cc1ncc(CC(C)C)o1

>  <score_type>  (34) 
oracle

>  <origin>  (34) 
adg

>  <m_score__min__energy>  (34) 
-7.8499999999999996

>  <m_primary>  (34) 
energy

$$$$
34:0
     RDKit          3D

 40 41  0  0  0  0  0  0  0  0999 V2000
   -3.6290   21.5080  -32.5850 C   0  0  0  0  0  0  0  0  0  0  0  0
   -2.7900   22.0780  -31.0750 S   0  0  0  0  0  0  0  0  0  0  0  0
   -4.1900   23.0620  -30.5260 C   0  0  0  0  0  0  0  0  0  0  0  0
   -5.4750   22.5220  -30.5460 C   0  0  0  0  0  0  0  0  0  0  0  0
   -6.5490   23.2680  -30.1500 N   0  0  0  0  0  0  0  0  0  0  0  0
   -7.8960   22.6760  -30.2110 C   0  0  0  0  0  0  0  0  0  0  0  0
   -8.3140   22.4280  -31.6630 C   0  0  0  0  0  0  0  0  0  0  0  0
   -8.1770   20.9900  -31.9950 N   0  0  0  0  0  0  0  0  0  0  0  0
   -9.4830   20.4090  -32.3500 C   0  0  0  0  0  0  0  0  0  0  0  0
   -7.1960   20.7640  -33.0760 C   0  0  0  0  0  0  0  0  0  0  0  0
   -6.5980   19.3890  -32.9400 C   0  0  0  0  0  0  0  0  0  0  0  0
   -6.8120   18.6480  -31.7680 C   0  0  0  0  0  0  0  0  0  0  0  0
   -6.2260   17.3900  -31.6120 C   0  0  0  0  0  0  0  0  0  0  0  0
   -5.4070   16.8640  -32.6170 C   0  0  0  0  0  0  0  0  0  0  0  0
   -4.6660   15.2880  -32.3720 Cl  0  0  0  0  0  0  0  0  0  0  0  0
   -5.1800   17.6020  -33.7900 C   0  0  0  0  0  0  0  0  0  0  0  0
   -4.1400   16.9880  -35.0670 Cl  0  0  0  0  0  0  0  0  0  0  0  0
   -5.7790   18.8570  -33.9490 C   0  0  0  0  0  0  0  0  0  0  0  0
   -6.3640   24.5670  -29.7510 C   0  0  0  0  0  0  0  0  0  0  0  0
   -7.3490   25.2780  -29.4050 O   0  0  0  0  0  0  0  0  0  0  0  0
   -5.1150   25.1080  -29.7280 N   0  0  0  0  0  0  0  0  0  0  0  0
   -4.0290   24.3830  -30.1040 C   0  0  0  0  0  0  0  0  0  0  0  0
   -2.8840   24.9090  -30.0770 O   0  0  0  0  0  0  0  0  0  0  0  0
   -4.5102   20.9093  -32.3111 H   0  0  0  0  0  0  0  0  0  0  0  0
   -3.9468   22.3779  -33.1785 H   0  0  0  0  0  0  0  0  0  0  0  0
   -2.9373   20.8921  -33.1785 H   0  0  0  0  0  0  0  0  0  0  0  0
   -5.6257   21.4860  -30.8836 H   0  0  0  0  0  0  0  0  0  0  0  0
   -7.8949   21.7197  -29.6674 H   0  0  0  0  0  0  0  0  0  0  0  0
   -8.6104   23.3755  -29.7523 H   0  0  0  0  0  0  0  0  0  0  0  0
   -9.3621   22.7339  -31.7970 H   0  0  0  0  0  0  0  0  0  0  0  0
   -7.6643   23.0144  -32.3294 H   0  0  0  0  0  0  0  0  0  0  0  0
  -10.0365   20.1628  -31.4319 H   0  0  0  0  0  0  0  0  0  0  0  0
  -10.0590   21.1358  -32.9416 H   0  0  0  0  0  0  0  0  0  0  0  0
   -9.3289   19.4946  -32.9416 H   0  0  0  0  0  0  0  0  0  0  0  0
   -7.6996   20.8489  -34.0503 H   0  0  0  0  0  0  0  0  0  0  0  0
   -6.3972   21.5170  -33.0060 H   0  0  0  0  0  0  0  0  0  0  0  0
   -7.4446   19.0600  -30.9679 H   0  0  0  0  0  0  0  0  0  0  0  0
   -6.4091   16.8103  -30.6952 H   0  0  0  0  0  0  0  0  0  0  0  0
   -5.6069   19.4310  -34.8715 H   0  0  0  0  0  0  0  0  0  0  0  0
   -4.9890   26.1000  -29.4240 H   0  0  0  0  0  0  0  0  0  0  0  0
  1  2  1  0
  2  3  1  0
  3  4  2  0
  4  5  1  0
  5  6  1  0
  6  7  1  0
  7  8  1  0
  8  9  1  0
  8 10  1  0
 10 11  1  0
 11 12  2  0
 12 13  1  0
 13 14  2  0
 14 15  1  0
 14 16  1  0
 16 17  1  0
 16 18  2  0
  5 19  1  0
 19 20  2  0
 19 21  1  0
 21 22  1  0
 22 23  2  0
 22  3  1  0
 18 11  1  0
  1 24  1  0
  1 25  1  0
  1 26  1  0
  4 27  1  0
  6 28  1  0
  6 29  1  0
  7 30  1  0
  7 31  1  0
  9 32  1  0
  9 33  1  0
  9 34  1  0
 10 35  1  0
 10 36  1  0
 12 37  1  0
 13 38  1  0
 18 39  1  0
 21 40  1  0
M  END
>  <UniqueID>  (35) 
32

>  <SMILES>  (35) 
CSc1cn(CCN(C)Cc2ccc(Cl)c(Cl)c2)c(=O)[nH]c1=O

>  <Energy>  (35) 
33.46106892743316

>  <Genealogy>  (35) 
CSc1cn(CCN(C)Cc2ccc(Cl)c(Cl)c2)c(=O)[nH]c1=O (3D coordinates assigned)
CSc1cn(CCN(C)Cc2ccc(Cl)c(Cl)c2)c(=O)[nH]c1=O (optimized conformer: 33.46106892743316 kcal/mol)

>  <smiles>  (35) 
CSc1cn(CCN(C)Cc2ccc(Cl)c(Cl)c2)c(=O)[nH]c1=O

>  <score_type>  (35) 
oracle

>  <origin>  (35) 
adg

>  <m_score__min__energy>  (35) 
-8.4600000000000009

>  <m_primary>  (35) 
energy

$$$$
35:0
     RDKit          3D

 29 28  0  0  0  0  0  0  0  0999 V2000
   -2.4180   22.6190  -30.3780 C   0  0  0  0  0  0  0  0  0  0  0  0
   -3.1430   23.0150  -31.5190 O   0  0  0  0  0  0  0  0  0  0  0  0
   -3.2340   21.9280  -32.4170 C   0  0  0  0  0  0  0  0  0  0  0  0
   -4.7060   21.6410  -32.7280 C   0  0  0  0  0  0  0  0  0  0  0  0
   -5.5640   22.7740  -32.3380 N   0  0  0  0  0  0  0  0  0  0  0  0
   -6.7120   22.3540  -31.5140 C   0  0  0  0  0  0  0  0  0  0  0  0
   -7.2380   23.4500  -30.5610 C   0  0  0  0  0  0  0  0  0  0  0  0
   -6.1290   24.1690  -29.7610 C   0  0  0  0  0  0  0  0  0  0  0  0
   -5.6180   25.4410  -30.4520 C   0  0  0  0  0  0  0  0  0  0  0  0
   -4.2170   25.2970  -30.8370 N   0  0  0  0  0  0  0  0  0  0  0  0
   -2.9665   22.9186  -29.4728 H   0  0  0  0  0  0  0  0  0  0  0  0
   -2.2912   21.5264  -30.3851 H   0  0  0  0  0  0  0  0  0  0  0  0
   -1.4301   23.1028  -30.3851 H   0  0  0  0  0  0  0  0  0  0  0  0
   -2.7048   22.1773  -33.3485 H   0  0  0  0  0  0  0  0  0  0  0  0
   -2.7765   21.0377  -31.9608 H   0  0  0  0  0  0  0  0  0  0  0  0
   -4.8164   21.4624  -33.8078 H   0  0  0  0  0  0  0  0  0  0  0  0
   -5.0168   20.7553  -32.1546 H   0  0  0  0  0  0  0  0  0  0  0  0
   -5.8940   23.2940  -33.1820 H   0  0  0  0  0  0  0  0  0  0  0  0
   -4.9940   23.4390  -31.7630 H   0  0  0  0  0  0  0  0  0  0  0  0
   -7.5307   22.0590  -32.1868 H   0  0  0  0  0  0  0  0  0  0  0  0
   -6.3624   21.5245  -30.8817 H   0  0  0  0  0  0  0  0  0  0  0  0
   -7.7754   24.2005  -31.1593 H   0  0  0  0  0  0  0  0  0  0  0  0
   -7.8879   22.9503  -29.8275 H   0  0  0  0  0  0  0  0  0  0  0  0
   -6.5306   24.4435  -28.7744 H   0  0  0  0  0  0  0  0  0  0  0  0
   -5.2794   23.4749  -29.6805 H   0  0  0  0  0  0  0  0  0  0  0  0
   -6.2215   25.6292  -31.3522 H   0  0  0  0  0  0  0  0  0  0  0  0
   -5.7048   26.2824  -29.7488 H   0  0  0  0  0  0  0  0  0  0  0  0
   -4.0070   24.2760  -30.9310 H   0  0  0  0  0  0  0  0  0  0  0  0
   -4.1040   25.7110  -31.7900 H   0  0  0  0  0  0  0  0  0  0  0  0
  1  2  1  0
  2  3  1  0
  3  4  1  0
  4  5  1  0
  5  6  1  0
  6  7  1  0
  7  8  1  0
  8  9  1  0
  9 10  1  0
  1 11  1  0
  1 12  1  0
  1 13  1  0
  3 14  1  0
  3 15  1  0
  4 16  1  0
  4 17  1  0
  5 18  1  0
  5 19  1  0
  6 20  1  0
  6 21  1  0
  7 22  1  0
  7 23  1  0
  8 24  1  0
  8 25  1  0
  9 26  1  0
  9 27  1  0
 10 28  1  0
 10 29  1  0
M  CHG  1   5   1
M  END
>  <UniqueID>  (36) 
33

>  <SMILES>  (36) 
COCC[NH2+]CCCCN

>  <Energy>  (36) 
19.69121235111926

>  <Genealogy>  (36) 
COCC[NH2+]CCCCN (protonated)
COCC[NH2+]CCCCN (3D coordinates assigned)
COCC[NH2+]CCCCN (optimized conformer: 19.69121235111926 kcal/mol)

>  <smiles>  (36) 
COCCNCCCCN

>  <score_type>  (36) 
oracle

>  <origin>  (36) 
adg

>  <m_score__min__energy>  (36) 
-3.8599999999999999

>  <m_primary>  (36) 
energy

$$$$
36:0
     RDKit          3D

 41 43  0  0  0  0  0  0  0  0999 V2000
   -3.8630   25.3510  -30.5150 O   0  0  0  0  0  0  0  0  0  0  0  0
   -4.1600   24.1300  -30.4210 C   0  0  0  0  0  0  0  0  0  0  0  0
   -4.3510   23.5210  -29.0580 C   0  0  0  0  0  0  0  0  0  0  0  0
   -3.4730   24.1950  -28.0520 C   0  0  0  0  0  0  0  0  0  0  0  0
   -3.8420   24.5650  -26.7650 C   0  0  0  0  0  0  0  0  0  0  0  0
   -2.8270   25.2380  -26.0740 C   0  0  0  0  0  0  0  0  0  0  0  0
   -1.6660   25.4100  -26.8170 C   0  0  0  0  0  0  0  0  0  0  0  0
   -1.9030   24.7270  -28.3370 S   0  0  0  0  0  0  0  0  0  0  0  0
   -4.2620   23.3500  -31.6200 N   0  0  0  0  0  0  0  0  0  0  0  0
   -5.2660   22.3680  -31.9130 C   0  0  0  0  0  0  0  0  0  0  0  0
   -4.9270   21.1070  -32.4290 C   0  0  0  0  0  0  0  0  0  0  0  0
   -5.9180   20.1400  -32.7140 C   0  0  0  0  0  0  0  0  0  0  0  0
   -5.5670   18.8420  -33.2900 N   0  0  0  0  0  0  0  0  0  0  0  0
   -6.5930   17.7810  -33.3640 C   0  0  0  0  0  0  0  0  0  0  0  0
   -6.0630   16.4560  -33.9140 C   0  0  0  0  0  0  0  0  0  0  0  0
   -5.1590   16.6770  -34.9700 O   0  0  0  0  0  0  0  0  0  0  0  0
   -3.9870   17.2440  -34.4360 C   0  0  0  0  0  0  0  0  0  0  0  0
   -4.2420   18.6650  -33.9240 C   0  0  0  0  0  0  0  0  0  0  0  0
   -7.2630   20.4780  -32.4320 C   0  0  0  0  0  0  0  0  0  0  0  0
   -7.6040   21.7120  -31.8530 C   0  0  0  0  0  0  0  0  0  0  0  0
   -9.0500   22.0550  -31.5920 C   0  0  0  0  0  0  0  0  0  0  0  0
   -9.8580   21.2120  -32.3330 F   0  0  0  0  0  0  0  0  0  0  0  0
   -9.3510   21.9040  -30.2500 F   0  0  0  0  0  0  0  0  0  0  0  0
   -9.3190   23.3650  -31.9490 F   0  0  0  0  0  0  0  0  0  0  0  0
   -6.5960   22.6560  -31.6110 C   0  0  0  0  0  0  0  0  0  0  0  0
   -5.4022   23.6359  -28.7549 H   0  0  0  0  0  0  0  0  0  0  0  0
   -4.0826   22.4553  -29.1052 H   0  0  0  0  0  0  0  0  0  0  0  0
   -4.8307   24.3511  -26.3328 H   0  0  0  0  0  0  0  0  0  0  0  0
   -2.9385   25.5967  -25.0401 H   0  0  0  0  0  0  0  0  0  0  0  0
   -0.7481   25.9078  -26.4710 H   0  0  0  0  0  0  0  0  0  0  0  0
   -3.8698   20.8669  -32.6151 H   0  0  0  0  0  0  0  0  0  0  0  0
   -6.9857   17.6054  -32.3516 H   0  0  0  0  0  0  0  0  0  0  0  0
   -7.3707   18.1313  -34.0586 H   0  0  0  0  0  0  0  0  0  0  0  0
   -5.5495   15.9111  -33.1082 H   0  0  0  0  0  0  0  0  0  0  0  0
   -6.9116   15.8685  -34.2945 H   0  0  0  0  0  0  0  0  0  0  0  0
   -3.6346   16.6199  -33.6016 H   0  0  0  0  0  0  0  0  0  0  0  0
   -3.2294   17.2916  -35.2321 H   0  0  0  0  0  0  0  0  0  0  0  0
   -3.4672   18.9110  -33.1829 H   0  0  0  0  0  0  0  0  0  0  0  0
   -4.2138   19.3309  -34.7991 H   0  0  0  0  0  0  0  0  0  0  0  0
   -8.0596   19.7583  -32.6715 H   0  0  0  0  0  0  0  0  0  0  0  0
   -6.8572   23.6332  -31.1787 H   0  0  0  0  0  0  0  0  0  0  0  0
  1  2  2  0
  2  3  1  0
  3  4  1  0
  4  5  2  0
  5  6  1  0
  6  7  2  0
  7  8  1  0
  2  9  1  0
  9 10  1  0
 10 11  2  0
 11 12  1  0
 12 13  1  0
 13 14  1  0
 14 15  1  0
 15 16  1  0
 16 17  1  0
 17 18  1  0
 12 19  2  0
 19 20  1  0
 20 21  1  0
 21 22  1  0
 21 23  1  0
 21 24  1  0
 20 25  2  0
  8  4  1  0
 25 10  1  0
 18 13  1  0
  3 26  1  0
  3 27  1  0
  5 28  1  0
  6 29  1  0
  7 30  1  0
 11 31  1  0
 14 32  1  0
 14 33  1  0
 15 34  1  0
 15 35  1  0
 17 36  1  0
 17 37  1  0
 18 38  1  0
 18 39  1  0
 19 40  1  0
 25 41  1  0
M  CHG  1   9  -1
M  END
>  <UniqueID>  (37) 
34

>  <SMILES>  (37) 
O=C(Cc1cccs1)[N-]c1cc(N2CCOCC2)cc(C(F)(F)F)c1

>  <Energy>  (37) 
79.54534801722514

>  <Genealogy>  (37) 
O=C(Cc1cccs1)[N-]c1cc(N2CCOCC2)cc(C(F)(F)F)c1 (protonated)
O=C(Cc1cccs1)[N-]c1cc(N2CCOCC2)cc(C(F)(F)F)c1 (3D coordinates assigned)
O=C(Cc1cccs1)[N-]c1cc(N2CCOCC2)cc(C(F)(F)F)c1 (nonaromatic ring conformer: 79.54534801722514 kcal/mol)

>  <smiles>  (37) 
O=C(Cc1cccs1)Nc1cc(N2CCOCC2)cc(C(F)(F)F)c1

>  <score_type>  (37) 
oracle

>  <origin>  (37) 
adg

>  <m_score__min__energy>  (37) 
-9.0399999999999991

>  <m_primary>  (37) 
energy

$$$$
37:0
     RDKit          3D

 32 34  0  0  0  0  0  0  0  0999 V2000
   -1.5910   25.4890  -29.2510 O   0  0  0  0  0  0  0  0  0  0  0  0
   -2.5980   24.7370  -29.3310 C   0  0  0  0  0  0  0  0  0  0  0  0
   -2.8670   23.7570  -28.2250 C   0  0  0  0  0  0  0  0  0  0  0  0
   -3.9770   24.4680  -27.0290 Cl  0  0  0  0  0  0  0  0  0  0  0  0
   -3.5000   24.9080  -30.4330 N   0  0  0  0  0  0  0  0  0  0  0  0
   -4.7550   24.2380  -30.6020 C   0  0  0  0  0  0  0  0  0  0  0  0
   -5.9320   24.9970  -30.6470 C   0  0  0  0  0  0  0  0  0  0  0  0
   -7.1680   24.3710  -30.8370 C   0  0  0  0  0  0  0  0  0  0  0  0
   -7.2330   22.9830  -31.0080 C   0  0  0  0  0  0  0  0  0  0  0  0
   -8.8150   22.1830  -31.2650 S   0  0  0  0  0  0  0  0  0  0  0  0
   -8.0580   20.7400  -32.0040 C   0  0  0  0  0  0  0  0  0  0  0  0
   -7.2070   20.7970  -33.0550 N   0  0  0  0  0  0  0  0  0  0  0  0
   -6.7940   19.5590  -33.4290 C   0  0  0  0  0  0  0  0  0  0  0  0
   -5.9180   19.2930  -34.4830 C   0  0  0  0  0  0  0  0  0  0  0  0
   -5.5790   17.9550  -34.7570 C   0  0  0  0  0  0  0  0  0  0  0  0
   -6.1150   16.9100  -33.9810 C   0  0  0  0  0  0  0  0  0  0  0  0
   -6.9960   17.1880  -32.9240 C   0  0  0  0  0  0  0  0  0  0  0  0
   -7.3170   18.5200  -32.6720 C   0  0  0  0  0  0  0  0  0  0  0  0
   -8.3330   19.1500  -31.4910 S   0  0  0  0  0  0  0  0  0  0  0  0
   -6.0570   22.2240  -30.9950 C   0  0  0  0  0  0  0  0  0  0  0  0
   -4.8210   22.8500  -30.8040 C   0  0  0  0  0  0  0  0  0  0  0  0
   -3.3214   22.8486  -28.6472 H   0  0  0  0  0  0  0  0  0  0  0  0
   -1.9177   23.5068  -27.7288 H   0  0  0  0  0  0  0  0  0  0  0  0
   -5.8836   26.0899  -30.5324 H   0  0  0  0  0  0  0  0  0  0  0  0
   -8.0905   24.9700  -30.8521 H   0  0  0  0  0  0  0  0  0  0  0  0
   -6.9130   21.6830  -33.5220 H   0  0  0  0  0  0  0  0  0  0  0  0
   -5.5013   20.1125  -35.0869 H   0  0  0  0  0  0  0  0  0  0  0  0
   -4.8905   17.7241  -35.5832 H   0  0  0  0  0  0  0  0  0  0  0  0
   -5.8416   15.8682  -34.2044 H   0  0  0  0  0  0  0  0  0  0  0  0
   -7.4204   16.3779  -32.3127 H   0  0  0  0  0  0  0  0  0  0  0  0
   -6.1050   21.1340  -31.1352 H   0  0  0  0  0  0  0  0  0  0  0  0
   -3.8972   22.2529  -30.8121 H   0  0  0  0  0  0  0  0  0  0  0  0
  1  2  2  0
  2  3  1  0
  3  4  1  0
  2  5  1  0
  5  6  1  0
  6  7  2  0
  7  8  1  0
  8  9  2  0
  9 10  1  0
 10 11  1  0
 11 12  2  0
 12 13  1  0
 13 14  2  0
 14 15  1  0
 15 16  2  0
 16 17  1  0
 17 18  2  0
 18 19  1  0
  9 20  1  0
 20 21  2  0
 21  6  1  0
 19 11  1  0
 18 13  1  0
  3 22  1  0
  3 23  1  0
  7 24  1  0
  8 25  1  0
 12 26  1  0
 14 27  1  0
 15 28  1  0
 16 29  1  0
 17 30  1  0
 20 31  1  0
 21 32  1  0
M  CHG  2   5  -1  12   1
M  END
>  <UniqueID>  (38) 
35

>  <SMILES>  (38) 
O=C(CCl)[N-]c1ccc(Sc2[nH+]c3ccccc3s2)cc1

>  <Energy>  (38) 
68.49500442321934

>  <Genealogy>  (38) 
O=C(CCl)[N-]c1ccc(Sc2[nH+]c3ccccc3s2)cc1 (protonated)
O=C(CCl)[N-]c1ccc(Sc2[nH+]c3ccccc3s2)cc1 (3D coordinates assigned)
O=C(CCl)[N-]c1ccc(Sc2[nH+]c3ccccc3s2)cc1 (optimized conformer: 68.49500442321934 kcal/mol)

>  <smiles>  (38) 
O=C(CCl)Nc1ccc(Sc2nc3ccccc3s2)cc1

>  <score_type>  (38) 
oracle

>  <origin>  (38) 
adg

>  <m_score__min__energy>  (38) 
-10.460000000000001

>  <m_primary>  (38) 
energy

$$$$
38:0
     RDKit          3D

 27 28  0  0  0  0  0  0  0  0999 V2000
   -2.2860   24.6460  -28.8710 C   0  0  0  0  0  0  0  0  0  0  0  0
   -3.2500   25.1990  -29.7630 O   0  0  0  0  0  0  0  0  0  0  0  0
   -4.4250   24.5480  -30.1690 C   0  0  0  0  0  0  0  0  0  0  0  0
   -5.6450   25.0420  -29.7020 C   0  0  0  0  0  0  0  0  0  0  0  0
   -6.8430   24.4340  -30.0660 C   0  0  0  0  0  0  0  0  0  0  0  0
   -6.8440   23.3150  -30.9120 C   0  0  0  0  0  0  0  0  0  0  0  0
   -8.0580   22.7070  -31.2580 C   0  0  0  0  0  0  0  0  0  0  0  0
   -8.0710   21.5880  -32.0850 C   0  0  0  0  0  0  0  0  0  0  0  0
   -6.8780   21.0680  -32.5840 C   0  0  0  0  0  0  0  0  0  0  0  0
   -5.6430   21.6650  -32.2730 C   0  0  0  0  0  0  0  0  0  0  0  0
   -4.3910   21.0330  -32.8440 C   0  0  0  0  0  0  0  0  0  0  0  0
   -3.5970   22.0330  -33.5490 N   0  0  0  0  0  0  0  0  0  0  0  0
   -5.6170   22.7970  -31.4090 C   0  0  0  0  0  0  0  0  0  0  0  0
   -4.4130   23.4260  -31.0200 C   0  0  0  0  0  0  0  0  0  0  0  0
   -2.6011   24.8267  -27.8327 H   0  0  0  0  0  0  0  0  0  0  0  0
   -2.2033   23.5631  -29.0459 H   0  0  0  0  0  0  0  0  0  0  0  0
   -1.3095   25.1213  -29.0459 H   0  0  0  0  0  0  0  0  0  0  0  0
   -5.6593   25.9203  -29.0399 H   0  0  0  0  0  0  0  0  0  0  0  0
   -7.7955   24.8337  -29.6877 H   0  0  0  0  0  0  0  0  0  0  0  0
   -9.0044   23.1158  -30.8744 H   0  0  0  0  0  0  0  0  0  0  0  0
   -9.0274   21.1115  -32.3462 H   0  0  0  0  0  0  0  0  0  0  0  0
   -6.9027   20.1781  -33.2302 H   0  0  0  0  0  0  0  0  0  0  0  0
   -3.7935   20.6065  -32.0248 H   0  0  0  0  0  0  0  0  0  0  0  0
   -4.6797   20.2412  -33.5509 H   0  0  0  0  0  0  0  0  0  0  0  0
   -2.9770   21.5310  -34.2250 H   0  0  0  0  0  0  0  0  0  0  0  0
   -4.2380   22.6270  -34.1220 H   0  0  0  0  0  0  0  0  0  0  0  0
   -3.4530   23.0338  -31.3870 H   0  0  0  0  0  0  0  0  0  0  0  0
  1  2  1  0
  2  3  1  0
  3  4  2  0
  4  5  1  0
  5  6  2  0
  6  7  1  0
  7  8  2  0
  8  9  1  0
  9 10  2  0
 10 11  1  0
 11 12  1  0
 10 13  1  0
 13 14  2  0
 14  3  1  0
 13  6  1  0
  1 15  1  0
  1 16  1  0
  1 17  1  0
  4 18  1  0
  5 19  1  0
  7 20  1  0
  8 21  1  0
  9 22  1  0
 11 23  1  0
 11 24  1  0
 12 25  1  0
 12 26  1  0
 14 27  1  0
M  END
>  <UniqueID>  (39) 
36

>  <SMILES>  (39) 
COc1ccc2cccc(CN)c2c1

>  <Energy>  (39) 
31.202851672416212

>  <Genealogy>  (39) 
COc1ccc2cccc(CN)c2c1 (3D coordinates assigned)
COc1ccc2cccc(CN)c2c1 (optimized conformer: 31.202851672416212 kcal/mol)

>  <smiles>  (39) 
COc1ccc2cccc(CN)c2c1

>  <score_type>  (39) 
oracle

>  <origin>  (39) 
adg

>  <m_score__min__energy>  (39) 
-6.8799999999999999

>  <m_primary>  (39) 
energy

$$$$
39:0
     RDKit          3D

 54 56  0  0  0  0  0  0  0  0999 V2000
   -6.7160   25.3960  -29.3810 C   0  0  0  0  0  0  0  0  0  0  0  0
   -5.8900   25.5170  -30.6600 C   0  0  0  0  0  0  0  0  0  0  0  0
   -4.7600   24.4850  -30.7120 C   0  0  0  0  0  0  0  0  0  0  0  0
   -3.4900   25.1140  -30.3700 N   0  0  0  0  0  0  0  0  0  0  0  0
   -2.6110   24.6010  -29.3650 C   0  0  0  0  0  0  0  0  0  0  0  0
   -1.5770   25.2410  -29.0340 O   0  0  0  0  0  0  0  0  0  0  0  0
   -2.9020   23.2740  -28.7300 C   0  0  0  0  0  0  0  0  0  0  0  0
   -2.2360   22.1750  -29.4630 N   0  0  0  0  0  0  0  0  0  0  0  0
   -2.9590   20.8880  -29.2940 C   0  0  0  0  0  0  0  0  0  0  0  0
   -3.7210   20.4670  -30.5570 C   0  0  0  0  0  0  0  0  0  0  0  0
   -2.8000   20.2980  -31.7040 N   0  0  0  0  0  0  0  0  0  0  0  0
   -3.5550   20.2810  -32.9710 C   0  0  0  0  0  0  0  0  0  0  0  0
   -4.3710   19.0240  -33.0730 C   0  0  0  0  0  0  0  0  0  0  0  0
   -3.8810   17.8170  -32.7220 N   0  0  0  0  0  0  0  0  0  0  0  0
   -4.9030   16.9640  -32.9430 C   0  0  0  0  0  0  0  0  0  0  0  0
   -5.9900   17.6590  -33.4190 C   0  0  0  0  0  0  0  0  0  0  0  0
   -5.6540   18.9570  -33.5030 N   0  0  0  0  0  0  0  0  0  0  0  0
   -6.5390   20.0470  -33.9180 C   0  0  0  0  0  0  0  0  0  0  0  0
   -7.2060   20.6720  -32.7220 C   0  0  0  0  0  0  0  0  0  0  0  0
   -6.5800   21.7290  -32.0390 C   0  0  0  0  0  0  0  0  0  0  0  0
   -7.2020   22.3200  -30.9340 C   0  0  0  0  0  0  0  0  0  0  0  0
   -8.4460   21.8550  -30.4980 C   0  0  0  0  0  0  0  0  0  0  0  0
   -9.0700   20.7980  -31.1650 C   0  0  0  0  0  0  0  0  0  0  0  0
   -8.4530   20.2050  -32.2700 C   0  0  0  0  0  0  0  0  0  0  0  0
   -1.6950   21.2920  -31.7260 C   0  0  0  0  0  0  0  0  0  0  0  0
   -2.0050   22.5360  -30.8830 C   0  0  0  0  0  0  0  0  0  0  0  0
   -6.0550   25.4928  -28.5071 H   0  0  0  0  0  0  0  0  0  0  0  0
   -7.4741   26.1927  -29.3574 H   0  0  0  0  0  0  0  0  0  0  0  0
   -7.2138   24.4154  -29.3574 H   0  0  0  0  0  0  0  0  0  0  0  0
   -6.5511   25.3638  -31.5257 H   0  0  0  0  0  0  0  0  0  0  0  0
   -5.4365   26.5190  -30.6785 H   0  0  0  0  0  0  0  0  0  0  0  0
   -4.9710   23.6782  -29.9947 H   0  0  0  0  0  0  0  0  0  0  0  0
   -4.6951   24.0737  -31.7301 H   0  0  0  0  0  0  0  0  0  0  0  0
   -2.5387   23.2852  -27.6918 H   0  0  0  0  0  0  0  0  0  0  0  0
   -3.9885   23.1043  -28.7578 H   0  0  0  0  0  0  0  0  0  0  0  0
   -2.2285   20.1039  -29.0459 H   0  0  0  0  0  0  0  0  0  0  0  0
   -3.6976   21.0248  -28.4904 H   0  0  0  0  0  0  0  0  0  0  0  0
   -4.2349   19.5135  -30.3654 H   0  0  0  0  0  0  0  0  0  0  0  0
   -4.4475   21.2547  -30.8055 H   0  0  0  0  0  0  0  0  0  0  0  0
   -4.2250   21.1527  -33.0062 H   0  0  0  0  0  0  0  0  0  0  0  0
   -2.8460   20.3173  -33.8113 H   0  0  0  0  0  0  0  0  0  0  0  0
   -4.8714   15.8783  -32.7690 H   0  0  0  0  0  0  0  0  0  0  0  0
   -6.9659   17.2268  -33.6850 H   0  0  0  0  0  0  0  0  0  0  0  0
   -5.9486   20.8120  -34.4435 H   0  0  0  0  0  0  0  0  0  0  0  0
   -7.3141   19.6405  -34.5844 H   0  0  0  0  0  0  0  0  0  0  0  0
   -5.5976   22.0928  -32.3745 H   0  0  0  0  0  0  0  0  0  0  0  0
   -6.7114   23.1519  -30.4075 H   0  0  0  0  0  0  0  0  0  0  0  0
   -8.9338   22.3215  -29.6294 H   0  0  0  0  0  0  0  0  0  0  0  0
  -10.0483   20.4319  -30.8201 H   0  0  0  0  0  0  0  0  0  0  0  0
   -8.9452   19.3690  -32.7886 H   0  0  0  0  0  0  0  0  0  0  0  0
   -0.7851   20.8164  -31.3312 H   0  0  0  0  0  0  0  0  0  0  0  0
   -1.5616   21.6196  -32.7676 H   0  0  0  0  0  0  0  0  0  0  0  0
   -1.1550   23.2316  -30.9431 H   0  0  0  0  0  0  0  0  0  0  0  0
   -2.9181   23.0062  -31.2769 H   0  0  0  0  0  0  0  0  0  0  0  0
  1  2  1  0
  2  3  1  0
  3  4  1  0
  4  5  1  0
  5  6  2  0
  5  7  1  0
  7  8  1  0
  8  9  1  0
  9 10  1  0
 10 11  1  0
 11 12  1  0
 12 13  1  0
 13 14  2  0
 14 15  1  0
 15 16  2  0
 16 17  1  0
 17 18  1  0
 18 19  1  0
 19 20  2  0
 20 21  1  0
 21 22  2  0
 22 23  1  0
 23 24  2  0
 11 25  1  0
 25 26  1  0
 26  8  1  0
 17 13  1  0
 24 19  1  0
  1 27  1  0
  1 28  1  0
  1 29  1  0
  2 30  1  0
  2 31  1  0
  3 32  1  0
  3 33  1  0
  7 34  1  0
  7 35  1  0
  9 36  1  0
  9 37  1  0
 10 38  1  0
 10 39  1  0
 12 40  1  0
 12 41  1  0
 15 42  1  0
 16 43  1  0
 18 44  1  0
 18 45  1  0
 20 46  1  0
 21 47  1  0
 22 48  1  0
 23 49  1  0
 24 50  1  0
 25 51  1  0
 25 52  1  0
 26 53  1  0
 26 54  1  0
M  CHG  1   4  -1
M  END
>  <UniqueID>  (40) 
37

>  <SMILES>  (40) 
CCC[N-]C(=O)CN1CCN(Cc2nccn2Cc2ccccc2)CC1

>  <Energy>  (40) 
87.3939942360899

>  <Genealogy>  (40) 
CCC[N-]C(=O)CN1CCN(Cc2nccn2Cc2ccccc2)CC1 (protonated)
CCC[N-]C(=O)CN1CCN(Cc2nccn2Cc2ccccc2)CC1 (3D coordinates assigned)
CCC[N-]C(=O)CN1CCN(Cc2nccn2Cc2ccccc2)CC1 (nonaromatic ring conformer: 87.3939942360899 kcal/mol)

>  <smiles>  (40) 
CCCNC(=O)CN1CCN(Cc2nccn2Cc2ccccc2)CC1

>  <score_type>  (40) 
oracle

>  <origin>  (40) 
adg

>  <m_score__min__energy>  (40) 
-10.09

>  <m_primary>  (40) 
energy

$$$$
40:0
     RDKit          3D

 59 61  0  0  0  0  0  0  0  0999 V2000
   -2.8120   20.2990  -32.4730 C   0  0  0  0  0  0  0  0  0  0  0  0
   -2.3220   19.3220  -33.4980 C   0  0  0  0  0  0  0  0  0  0  0  0
   -1.6820   19.7490  -34.4930 O   0  0  0  0  0  0  0  0  0  0  0  0
   -2.5170   17.9090  -33.3560 N   0  0  0  0  0  0  0  0  0  0  0  0
   -3.7070   17.1660  -33.7780 C   0  0  1  0  0  0  0  0  0  0  0  0
   -3.7090   15.7870  -33.1140 C   0  0  0  0  0  0  0  0  0  0  0  0
   -4.9580   17.9340  -33.4070 C   0  0  0  0  0  0  0  0  0  0  0  0
   -5.5980   17.6790  -32.1830 C   0  0  0  0  0  0  0  0  0  0  0  0
   -6.7510   18.3810  -31.8260 C   0  0  0  0  0  0  0  0  0  0  0  0
   -7.2840   19.3540  -32.6760 C   0  0  0  0  0  0  0  0  0  0  0  0
   -8.4610   20.0050  -32.2720 O   0  0  0  0  0  0  0  0  0  0  0  0
   -8.6600   21.4210  -32.2670 C   0  0  1  0  0  0  0  0  0  0  0  0
   -9.2840   21.8330  -30.9360 C   0  0  0  0  0  0  0  0  0  0  0  0
   -8.1270   22.2800  -30.0540 C   0  0  0  0  0  0  0  0  0  0  0  0
   -7.0270   22.5690  -30.9620 N   0  0  0  0  0  0  0  0  0  0  0  0
   -5.8100   23.2380  -30.5610 C   0  0  0  0  0  0  0  0  0  0  0  0
   -4.9930   22.7080  -29.5480 C   0  0  0  0  0  0  0  0  0  0  0  0
   -3.8360   23.3810  -29.1490 C   0  0  0  0  0  0  0  0  0  0  0  0
   -3.4940   24.5890  -29.7610 C   0  0  0  0  0  0  0  0  0  0  0  0
   -2.3470   25.2720  -29.3400 O   0  0  0  0  0  0  0  0  0  0  0  0
   -1.3110   24.6900  -28.5460 C   0  0  0  0  0  0  0  0  0  0  0  0
   -1.2260   25.3700  -27.1680 C   0  0  0  0  0  0  0  0  0  0  0  0
   -2.5740   25.2740  -26.4460 C   0  0  0  0  0  0  0  0  0  0  0  0
   -0.7960   26.8370  -27.2880 C   0  0  0  0  0  0  0  0  0  0  0  0
   -4.2860   25.0880  -30.7510 N   0  0  0  0  0  0  0  0  0  0  0  0
   -5.4130   24.4480  -31.1630 C   0  0  0  0  0  0  0  0  0  0  0  0
   -7.3230   22.1630  -32.3290 C   0  0  0  0  0  0  0  0  0  0  0  0
   -6.6330   19.6340  -33.8910 C   0  0  0  0  0  0  0  0  0  0  0  0
   -5.4800   18.9280  -34.2510 C   0  0  0  0  0  0  0  0  0  0  0  0
   -2.6139   19.9039  -31.4657 H   0  0  0  0  0  0  0  0  0  0  0  0
   -2.2881   21.2578  -32.6004 H   0  0  0  0  0  0  0  0  0  0  0  0
   -3.8938   20.4525  -32.6004 H   0  0  0  0  0  0  0  0  0  0  0  0
   -3.6898   17.0379  -34.8704 H   0  0  0  0  0  0  0  0  0  0  0  0
   -3.7088   15.9066  -32.0205 H   0  0  0  0  0  0  0  0  0  0  0  0
   -4.6079   15.2330  -33.4221 H   0  0  0  0  0  0  0  0  0  0  0  0
   -2.8117   15.2304  -33.4221 H   0  0  0  0  0  0  0  0  0  0  0  0
   -5.1877   16.9203  -31.5003 H   0  0  0  0  0  0  0  0  0  0  0  0
   -7.2445   18.1662  -30.8667 H   0  0  0  0  0  0  0  0  0  0  0  0
   -9.2919   21.6674  -33.1330 H   0  0  0  0  0  0  0  0  0  0  0  0
   -9.9931   22.6606  -31.0856 H   0  0  0  0  0  0  0  0  0  0  0  0
   -9.8440   21.0041  -30.4785 H   0  0  0  0  0  0  0  0  0  0  0  0
   -8.4031   23.1814  -29.4872 H   0  0  0  0  0  0  0  0  0  0  0  0
   -7.8546   21.5074  -29.3200 H   0  0  0  0  0  0  0  0  0  0  0  0
   -5.2663   21.7575  -29.0664 H   0  0  0  0  0  0  0  0  0  0  0  0
   -3.1977   22.9620  -28.3572 H   0  0  0  0  0  0  0  0  0  0  0  0
   -1.5226   23.6196  -28.4067 H   0  0  0  0  0  0  0  0  0  0  0  0
   -0.3512   24.8281  -29.0653 H   0  0  0  0  0  0  0  0  0  0  0  0
   -0.4608   24.8414  -26.5807 H   0  0  0  0  0  0  0  0  0  0  0  0
   -2.4091   25.2857  -25.3585 H   0  0  0  0  0  0  0  0  0  0  0  0
   -3.2041   26.1295  -26.7306 H   0  0  0  0  0  0  0  0  0  0  0  0
   -3.0765   24.3378  -26.7306 H   0  0  0  0  0  0  0  0  0  0  0  0
   -0.6704   27.2657  -26.2828 H   0  0  0  0  0  0  0  0  0  0  0  0
    0.1573   26.8962  -27.8336 H   0  0  0  0  0  0  0  0  0  0  0  0
   -1.5665   27.4015  -27.8336 H   0  0  0  0  0  0  0  0  0  0  0  0
   -6.0196   24.8789  -31.9732 H   0  0  0  0  0  0  0  0  0  0  0  0
   -7.4051   23.0453  -32.9807 H   0  0  0  0  0  0  0  0  0  0  0  0
   -6.5269   21.5262  -32.7421 H   0  0  0  0  0  0  0  0  0  0  0  0
   -7.0317   20.4106  -34.5603 H   0  0  0  0  0  0  0  0  0  0  0  0
   -4.9779   19.1534  -35.2034 H   0  0  0  0  0  0  0  0  0  0  0  0
  1  2  1  0
  2  3  2  0
  2  4  1  0
  4  5  1  0
  5  6  1  0
  5  7  1  0
  7  8  2  0
  8  9  1  0
  9 10  2  0
 10 11  1  0
 11 12  1  0
 12 13  1  0
 13 14  1  0
 14 15  1  0
 15 16  1  0
 16 17  2  0
 17 18  1  0
 18 19  2  0
 19 20  1  0
 20 21  1  0
 21 22  1  0
 22 23  1  0
 22 24  1  0
 19 25  1  0
 25 26  2  0
 15 27  1  0
 10 28  1  0
 28 29  2  0
 29  7  1  0
 27 12  1  0
 26 16  1  0
  1 30  1  0
  1 31  1  0
  1 32  1  0
  5 33  1  6
  6 34  1  0
  6 35  1  0
  6 36  1  0
  8 37  1  0
  9 38  1  0
 12 39  1  6
 13 40  1  0
 13 41  1  0
 14 42  1  0
 14 43  1  0
 17 44  1  0
 18 45  1  0
 21 46  1  0
 21 47  1  0
 22 48  1  0
 23 49  1  0
 23 50  1  0
 23 51  1  0
 24 52  1  0
 24 53  1  0
 24 54  1  0
 26 55  1  0
 27 56  1  0
 27 57  1  0
 28 58  1  0
 29 59  1  0
M  CHG  1   4  -1
M  END
>  <UniqueID>  (41) 
38

>  <SMILES>  (41) 
CC(=O)[N-][C@@H](C)c1ccc(O[C@H]2CCN(c3ccc(OCC(C)C)nc3)C2)cc1

>  <Energy>  (41) 
54.03402995783703

>  <Genealogy>  (41) 
CC(=O)[N-]C(C)c1ccc(OC2CCN(c3ccc(OCC(C)C)nc3)C2)cc1 (protonated)
CC(=O)[N-][C@@H](C)c1ccc(O[C@H]2CCN(c3ccc(OCC(C)C)nc3)C2)cc1 (chirality)
CC(=O)[N-][C@@H](C)c1ccc(O[C@H]2CCN(c3ccc(OCC(C)C)nc3)C2)cc1 (3D coordinates assigned)
CC(=O)[N-][C@@H](C)c1ccc(O[C@H]2CCN(c3ccc(OCC(C)C)nc3)C2)cc1 (nonaromatic ring conformer: 54.03402995783703 kcal/mol)

>  <smiles>  (41) 
CC(=O)NC(C)c1ccc(OC2CCN(c3ccc(OCC(C)C)nc3)C2)cc1

>  <score_type>  (41) 
oracle

>  <origin>  (41) 
adg

>  <m_score__min__energy>  (41) 
-9.5

>  <m_primary>  (41) 
energy

$$$$
41:0
     RDKit          3D

 33 35  0  0  0  0  0  0  0  0999 V2000
   -4.6610   25.2140  -30.8610 N   0  0  0  0  0  0  0  0  0  0  0  0
   -4.4520   23.7690  -30.9070 C   0  0  0  0  0  0  0  0  0  0  0  0
   -5.7250   23.0510  -31.2600 C   0  0  0  0  0  0  0  0  0  0  0  0
   -6.9340   23.6740  -31.2830 N   0  0  0  0  0  0  0  0  0  0  0  0
   -7.8040   22.6940  -31.5740 C   0  0  0  0  0  0  0  0  0  0  0  0
   -9.1840   22.7640  -31.7250 C   0  0  0  0  0  0  0  0  0  0  0  0
   -9.8560   21.5650  -32.0290 C   0  0  0  0  0  0  0  0  0  0  0  0
   -9.1220   20.3610  -32.1640 C   0  0  0  0  0  0  0  0  0  0  0  0
   -7.7640   20.3520  -32.0010 N   0  0  0  0  0  0  0  0  0  0  0  0
   -7.1350   21.5200  -31.7110 C   0  0  0  0  0  0  0  0  0  0  0  0
   -5.8210   21.7140  -31.5090 N   0  0  0  0  0  0  0  0  0  0  0  0
   -4.7520   20.7150  -31.5970 C   0  0  0  0  0  0  0  0  0  0  0  0
   -5.1920   19.5430  -32.4350 C   0  0  0  0  0  0  0  0  0  0  0  0
   -5.1930   19.6380  -33.8370 C   0  0  0  0  0  0  0  0  0  0  0  0
   -5.5970   18.5500  -34.6170 C   0  0  0  0  0  0  0  0  0  0  0  0
   -6.0070   17.3630  -34.0060 C   0  0  0  0  0  0  0  0  0  0  0  0
   -6.0160   17.2620  -32.6120 C   0  0  0  0  0  0  0  0  0  0  0  0
   -5.6130   18.3480  -31.8280 C   0  0  0  0  0  0  0  0  0  0  0  0
   -4.0630   25.6650  -31.5910 H   0  0  0  0  0  0  0  0  0  0  0  0
   -4.3440   25.5700  -29.9290 H   0  0  0  0  0  0  0  0  0  0  0  0
   -3.6880   23.5401  -31.6646 H   0  0  0  0  0  0  0  0  0  0  0  0
   -4.1231   23.4308  -29.9133 H   0  0  0  0  0  0  0  0  0  0  0  0
   -7.1400   24.6820  -31.1060 H   0  0  0  0  0  0  0  0  0  0  0  0
   -9.7268   23.7140  -31.6120 H   0  0  0  0  0  0  0  0  0  0  0  0
  -10.9480   21.5630  -32.1613 H   0  0  0  0  0  0  0  0  0  0  0  0
   -9.6488   19.4251  -32.4020 H   0  0  0  0  0  0  0  0  0  0  0  0
   -3.8640   21.1746  -32.0555 H   0  0  0  0  0  0  0  0  0  0  0  0
   -4.5144   20.3584  -30.5839 H   0  0  0  0  0  0  0  0  0  0  0  0
   -4.8747   20.5721  -34.3229 H   0  0  0  0  0  0  0  0  0  0  0  0
   -5.5919   18.6292  -35.7141 H   0  0  0  0  0  0  0  0  0  0  0  0
   -6.3227   16.5078  -34.6216 H   0  0  0  0  0  0  0  0  0  0  0  0
   -6.3404   16.3275  -32.1309 H   0  0  0  0  0  0  0  0  0  0  0  0
   -5.6258   18.2660  -30.7311 H   0  0  0  0  0  0  0  0  0  0  0  0
  1  2  1  0
  2  3  1  0
  3  4  2  0
  4  5  1  0
  5  6  2  0
  6  7  1  0
  7  8  2  0
  8  9  1  0
  9 10  2  0
 10 11  1  0
 11 12  1  0
 12 13  1  0
 13 14  2  0
 14 15  1  0
 15 16  2  0
 16 17  1  0
 17 18  2  0
 11  3  1  0
 18 13  1  0
 10  5  1  0
  1 19  1  0
  1 20  1  0
  2 21  1  0
  2 22  1  0
  4 23  1  0
  6 24  1  0
  7 25  1  0
  8 26  1  0
 12 27  1  0
 12 28  1  0
 14 29  1  0
 15 30  1  0
 16 31  1  0
 17 32  1  0
 18 33  1  0
M  CHG  1   4   1
M  END
>  <UniqueID>  (42) 
39

>  <SMILES>  (42) 
NCc1[nH+]c2cccnc2n1Cc1ccccc1

>  <Energy>  (42) 
73.43375824540122

>  <Genealogy>  (42) 
NCc1[nH+]c2cccnc2n1Cc1ccccc1 (protonated)
NCc1[nH+]c2cccnc2n1Cc1ccccc1 (3D coordinates assigned)
NCc1[nH+]c2cccnc2n1Cc1ccccc1 (optimized conformer: 73.43375824540122 kcal/mol)

>  <smiles>  (42) 
NCc1nc2cccnc2n1Cc1ccccc1

>  <score_type>  (42) 
oracle

>  <origin>  (42) 
adg

>  <m_score__min__energy>  (42) 
-6.4299999999999997

>  <m_primary>  (42) 
energy

$$$$
42:0
     RDKit          3D

 36 37  0  0  0  0  0  0  0  0999 V2000
   -5.6800   18.0680  -35.0140 C   0  0  0  0  0  0  0  0  0  0  0  0
   -5.8850   18.1920  -33.8330 C   0  0  0  0  0  0  0  0  0  0  0  0
   -6.1350   18.3380  -32.3950 C   0  0  0  0  0  0  0  0  0  0  0  0
   -6.9710   19.5180  -32.1480 N   0  0  0  0  0  0  0  0  0  0  0  0
   -8.2830   19.5120  -31.8190 C   0  0  0  0  0  0  0  0  0  0  0  0
   -9.1090   18.2800  -31.6070 C   0  0  0  0  0  0  0  0  0  0  0  0
   -8.7490   20.8040  -31.6780 C   0  0  0  0  0  0  0  0  0  0  0  0
   -7.6820   21.6410  -31.9520 C   0  0  0  0  0  0  0  0  0  0  0  0
   -7.7160   23.1210  -31.9100 C   0  0  0  0  0  0  0  0  0  0  0  0
   -8.4790   23.7590  -32.6840 O   0  0  0  0  0  0  0  0  0  0  0  0
   -6.8370   23.8890  -30.9650 C   0  0  0  0  0  0  0  0  0  0  0  0
   -5.4910   23.9080  -31.4360 O   0  0  0  0  0  0  0  0  0  0  0  0
   -4.3910   24.1730  -30.6110 C   0  0  0  0  0  0  0  0  0  0  0  0
   -3.8870   25.3280  -30.5700 O   0  0  0  0  0  0  0  0  0  0  0  0
   -3.8260   23.0930  -29.7870 C   0  0  0  0  0  0  0  0  0  0  0  0
   -4.0940   22.9410  -28.4150 C   0  0  0  0  0  0  0  0  0  0  0  0
   -3.4580   21.8470  -27.8440 C   0  0  0  0  0  0  0  0  0  0  0  0
   -2.5700   21.0740  -29.0430 S   0  0  0  0  0  0  0  0  0  0  0  0
   -2.9780   22.1150  -30.2970 C   0  0  0  0  0  0  0  0  0  0  0  0
   -6.6020   20.8190  -32.2630 C   0  0  0  0  0  0  0  0  0  0  0  0
   -5.2280   21.2890  -32.6500 C   0  0  0  0  0  0  0  0  0  0  0  0
   -5.4929   17.9548  -36.0920 H   0  0  0  0  0  0  0  0  0  0  0  0
   -6.6515   17.4412  -32.0222 H   0  0  0  0  0  0  0  0  0  0  0  0
   -5.1749   18.4601  -31.8723 H   0  0  0  0  0  0  0  0  0  0  0  0
   -9.2294   18.1004  -30.5285 H   0  0  0  0  0  0  0  0  0  0  0  0
  -10.0980   18.4177  -32.0684 H   0  0  0  0  0  0  0  0  0  0  0  0
   -8.6060   17.4174  -32.0684 H   0  0  0  0  0  0  0  0  0  0  0  0
   -9.7693   21.1084  -31.4018 H   0  0  0  0  0  0  0  0  0  0  0  0
   -7.2070   24.9219  -30.8855 H   0  0  0  0  0  0  0  0  0  0  0  0
   -6.8616   23.3996  -29.9802 H   0  0  0  0  0  0  0  0  0  0  0  0
   -4.7450   23.6233  -27.8486 H   0  0  0  0  0  0  0  0  0  0  0  0
   -3.5239   21.5396  -26.7899 H   0  0  0  0  0  0  0  0  0  0  0  0
   -2.6347   22.0370  -31.3391 H   0  0  0  0  0  0  0  0  0  0  0  0
   -4.6401   21.4901  -31.7423 H   0  0  0  0  0  0  0  0  0  0  0  0
   -4.7284   20.5107  -33.2455 H   0  0  0  0  0  0  0  0  0  0  0  0
   -5.3098   22.2103  -33.2455 H   0  0  0  0  0  0  0  0  0  0  0  0
  1  2  3  0
  2  3  1  0
  3  4  1  0
  4  5  1  0
  5  6  1  0
  5  7  2  0
  7  8  1  0
  8  9  1  0
  9 10  2  0
  9 11  1  0
 11 12  1  0
 12 13  1  0
 13 14  2  0
 13 15  1  0
 15 16  1  0
 16 17  2  0
 17 18  1  0
 18 19  1  0
  8 20  2  0
 20 21  1  0
 20  4  1  0
 19 15  2  0
  1 22  1  0
  3 23  1  0
  3 24  1  0
  6 25  1  0
  6 26  1  0
  6 27  1  0
  7 28  1  0
 11 29  1  0
 11 30  1  0
 16 31  1  0
 17 32  1  0
 19 33  1  0
 21 34  1  0
 21 35  1  0
 21 36  1  0
M  END
>  <UniqueID>  (43) 
40

>  <SMILES>  (43) 
C#CCn1c(C)cc(C(=O)COC(=O)c2ccsc2)c1C

>  <Energy>  (43) 
81.21959954780054

>  <Genealogy>  (43) 
C#CCn1c(C)cc(C(=O)COC(=O)c2ccsc2)c1C (3D coordinates assigned)
C#CCn1c(C)cc(C(=O)COC(=O)c2ccsc2)c1C (optimized conformer: 81.21959954780054 kcal/mol)

>  <smiles>  (43) 
C#CCn1c(C)cc(C(=O)COC(=O)c2ccsc2)c1C

>  <score_type>  (43) 
oracle

>  <origin>  (43) 
adg

>  <m_score__min__energy>  (43) 
-7.9199999999999999

>  <m_primary>  (43) 
energy

$$$$
43:0
     RDKit          3D

 28 29  0  0  0  0  0  0  0  0999 V2000
   -4.6680   20.5300  -33.2280 C   0  0  0  0  0  0  0  0  0  0  0  0
   -5.5900   19.3980  -33.2820 N   0  0  0  0  0  0  0  0  0  0  0  0
   -5.3070   18.1970  -33.8240 C   0  0  0  0  0  0  0  0  0  0  0  0
   -6.3970   17.3600  -33.7120 C   0  0  0  0  0  0  0  0  0  0  0  0
   -7.3880   18.0820  -33.0770 C   0  0  0  0  0  0  0  0  0  0  0  0
   -6.8640   19.3390  -32.8220 C   0  0  0  0  0  0  0  0  0  0  0  0
   -7.5960   20.4530  -32.1720 C   0  0  0  0  0  0  0  0  0  0  0  0
   -8.3830   20.2110  -31.2180 O   0  0  0  0  0  0  0  0  0  0  0  0
   -7.4150   21.8070  -32.6150 N   0  0  0  0  0  0  0  0  0  0  0  0
   -8.0080   22.9430  -31.9120 C   0  0  0  0  0  0  0  0  0  0  0  0
   -6.9340   23.7870  -31.2920 C   0  0  0  0  0  0  0  0  0  0  0  0
   -5.6130   23.7230  -31.7530 C   0  0  0  0  0  0  0  0  0  0  0  0
   -4.6580   24.4820  -31.1530 N   0  0  0  0  0  0  0  0  0  0  0  0
   -4.9600   25.2990  -30.1110 C   0  0  0  0  0  0  0  0  0  0  0  0
   -6.2740   25.3590  -29.6440 C   0  0  0  0  0  0  0  0  0  0  0  0
   -7.2300   24.6010  -30.2420 N   0  0  0  0  0  0  0  0  0  0  0  0
   -4.4608   20.7844  -32.1781 H   0  0  0  0  0  0  0  0  0  0  0  0
   -3.7281   20.2618  -33.7326 H   0  0  0  0  0  0  0  0  0  0  0  0
   -5.1209   21.3962  -33.7326 H   0  0  0  0  0  0  0  0  0  0  0  0
   -4.3474   17.9245  -34.2876 H   0  0  0  0  0  0  0  0  0  0  0  0
   -6.4641   16.3190  -34.0609 H   0  0  0  0  0  0  0  0  0  0  0  0
   -8.3979   17.7278  -32.8228 H   0  0  0  0  0  0  0  0  0  0  0  0
   -6.8770   22.0030  -33.4870 H   0  0  0  0  0  0  0  0  0  0  0  0
   -8.5822   23.5522  -32.6255 H   0  0  0  0  0  0  0  0  0  0  0  0
   -8.6717   22.5675  -31.1192 H   0  0  0  0  0  0  0  0  0  0  0  0
   -5.3504   23.0640  -32.5937 H   0  0  0  0  0  0  0  0  0  0  0  0
   -4.1754   25.9085  -29.6389 H   0  0  0  0  0  0  0  0  0  0  0  0
   -6.5333   26.0142  -28.7993 H   0  0  0  0  0  0  0  0  0  0  0  0
  1  2  1  0
  2  3  1  0
  3  4  2  0
  4  5  1  0
  5  6  2  0
  6  7  1  0
  7  8  2  0
  7  9  1  0
  9 10  1  0
 10 11  1  0
 11 12  2  0
 12 13  1  0
 13 14  2  0
 14 15  1  0
 15 16  2  0
  6  2  1  0
 16 11  1  0
  1 17  1  0
  1 18  1  0
  1 19  1  0
  3 20  1  0
  4 21  1  0
  5 22  1  0
  9 23  1  0
 10 24  1  0
 10 25  1  0
 12 26  1  0
 14 27  1  0
 15 28  1  0
M  END
>  <UniqueID>  (44) 
41

>  <SMILES>  (44) 
Cn1cccc1C(=O)NCc1cnccn1

>  <Energy>  (44) 
53.99846068369575

>  <Genealogy>  (44) 
Cn1cccc1C(=O)NCc1cnccn1 (3D coordinates assigned)
Cn1cccc1C(=O)NCc1cnccn1 (optimized conformer: 53.99846068369575 kcal/mol)

>  <smiles>  (44) 
Cn1cccc1C(=O)NCc1cnccn1

>  <score_type>  (44) 
oracle

>  <origin>  (44) 
adg

>  <m_score__min__energy>  (44) 
-5.9199999999999999

>  <m_primary>  (44) 
energy

$$$$
44:0
     RDKit          3D

 30 31  0  0  0  0  0  0  0  0999 V2000
   -8.3510   19.7510  -31.9710 C   0  0  0  0  0  0  0  0  0  0  0  0
   -8.1680   21.2510  -32.1760 C   0  0  0  0  0  0  0  0  0  0  0  0
   -7.0530   21.7570  -31.3750 N   0  0  0  0  0  0  0  0  0  0  0  0
   -6.4760   23.0460  -31.6330 C   0  0  0  0  0  0  0  0  0  0  0  0
   -7.0370   23.8310  -32.4460 O   0  0  0  0  0  0  0  0  0  0  0  0
   -5.2480   23.4880  -30.9300 C   0  0  0  0  0  0  0  0  0  0  0  0
   -4.9590   24.8590  -30.8520 C   0  0  0  0  0  0  0  0  0  0  0  0
   -3.8470   25.2960  -30.2060 N   0  0  0  0  0  0  0  0  0  0  0  0
   -2.9700   24.4390  -29.6230 C   0  0  0  0  0  0  0  0  0  0  0  0
   -1.8430   24.9390  -28.9640 C   0  0  0  0  0  0  0  0  0  0  0  0
   -0.9330   24.0640  -28.3670 C   0  0  0  0  0  0  0  0  0  0  0  0
   -1.1310   22.6780  -28.4360 C   0  0  0  0  0  0  0  0  0  0  0  0
   -0.1710   21.7430  -27.7610 C   0  0  0  0  0  0  0  0  0  0  0  0
   -2.2710   22.1710  -29.0830 C   0  0  0  0  0  0  0  0  0  0  0  0
   -3.1960   23.0450  -29.6850 C   0  0  0  0  0  0  0  0  0  0  0  0
   -4.3420   22.5700  -30.3540 C   0  0  0  0  0  0  0  0  0  0  0  0
   -4.5420   21.3290  -30.4600 O   0  0  0  0  0  0  0  0  0  0  0  0
   -8.3781   19.5287  -30.8940 H   0  0  0  0  0  0  0  0  0  0  0  0
   -9.2950   19.4299  -32.4355 H   0  0  0  0  0  0  0  0  0  0  0  0
   -7.5119   19.2124  -32.4355 H   0  0  0  0  0  0  0  0  0  0  0  0
   -7.9652   21.4467  -33.2393 H   0  0  0  0  0  0  0  0  0  0  0  0
   -9.0884   21.7631  -31.8589 H   0  0  0  0  0  0  0  0  0  0  0  0
   -6.6960   21.1910  -30.5720 H   0  0  0  0  0  0  0  0  0  0  0  0
   -5.6394   25.5866  -31.3184 H   0  0  0  0  0  0  0  0  0  0  0  0
   -1.6726   26.0246  -28.9156 H   0  0  0  0  0  0  0  0  0  0  0  0
   -0.0551   24.4650  -27.8392 H   0  0  0  0  0  0  0  0  0  0  0  0
   -0.2706   21.8400  -26.6698 H   0  0  0  0  0  0  0  0  0  0  0  0
   -0.3960   20.7084  -28.0592 H   0  0  0  0  0  0  0  0  0  0  0  0
    0.8574   21.9952  -28.0592 H   0  0  0  0  0  0  0  0  0  0  0  0
   -2.4415   21.0849  -29.1192 H   0  0  0  0  0  0  0  0  0  0  0  0
  1  2  1  0
  2  3  1  0
  3  4  1  0
  4  5  2  0
  4  6  1  0
  6  7  2  0
  7  8  1  0
  8  9  1  0
  9 10  2  0
 10 11  1  0
 11 12  2  0
 12 13  1  0
 12 14  1  0
 14 15  2  0
 15 16  1  0
 16 17  2  0
 16  6  1  0
 15  9  1  0
  1 18  1  0
  1 19  1  0
  1 20  1  0
  2 21  1  0
  2 22  1  0
  3 23  1  0
  7 24  1  0
 10 25  1  0
 11 26  1  0
 13 27  1  0
 13 28  1  0
 13 29  1  0
 14 30  1  0
M  CHG  1   8  -1
M  END
>  <UniqueID>  (45) 
42

>  <SMILES>  (45) 
CCNC(=O)c1c[n-]c2ccc(C)cc2c1=O

>  <Energy>  (45) 
34.00757122674313

>  <Genealogy>  (45) 
CCNC(=O)c1c[n-]c2ccc(C)cc2c1=O (protonated)
CCNC(=O)c1c[n-]c2ccc(C)cc2c1=O (3D coordinates assigned)
CCNC(=O)c1c[n-]c2ccc(C)cc2c1=O (optimized conformer: 34.00757122674313 kcal/mol)

>  <smiles>  (45) 
CCNC(=O)c1c[nH]c2ccc(C)cc2c1=O

>  <score_type>  (45) 
oracle

>  <origin>  (45) 
adg

>  <m_score__min__energy>  (45) 
-7.29

>  <m_primary>  (45) 
energy

$$$$
45:0
     RDKit          3D

 16 17  0  0  0  0  0  0  0  0999 V2000
   -8.6420   20.9290  -32.5870 F   0  0  0  0  0  0  0  0  0  0  0  0
   -8.6480   21.9660  -31.6710 C   0  0  0  0  0  0  0  0  0  0  0  0
   -9.4290   22.9890  -32.1800 F   0  0  0  0  0  0  0  0  0  0  0  0
   -9.2060   21.5180  -30.4880 F   0  0  0  0  0  0  0  0  0  0  0  0
   -7.2470   22.4520  -31.4050 C   0  0  0  0  0  0  0  0  0  0  0  0
   -6.1560   21.5380  -31.4240 C   0  0  0  0  0  0  0  0  0  0  0  0
   -4.8350   21.9850  -31.2260 C   0  0  0  0  0  0  0  0  0  0  0  0
   -4.6460   23.3480  -31.0290 C   0  0  0  0  0  0  0  0  0  0  0  0
   -3.5040   24.0210  -30.8300 N   0  0  0  0  0  0  0  0  0  0  0  0
   -3.8640   25.2980  -30.7150 N   0  0  0  0  0  0  0  0  0  0  0  0
   -5.1810   25.4610  -30.8340 N   0  0  0  0  0  0  0  0  0  0  0  0
   -5.6740   24.2290  -31.0300 C   0  0  0  0  0  0  0  0  0  0  0  0
   -6.9940   23.8350  -31.2230 C   0  0  0  0  0  0  0  0  0  0  0  0
   -6.3470   20.4684  -31.5956 H   0  0  0  0  0  0  0  0  0  0  0  0
   -3.9873   21.2840  -31.2272 H   0  0  0  0  0  0  0  0  0  0  0  0
   -7.8122   24.5701  -31.2340 H   0  0  0  0  0  0  0  0  0  0  0  0
  1  2  1  0
  2  3  1  0
  2  4  1  0
  2  5  1  0
  5  6  1  0
  6  7  2  0
  7  8  1  0
  8  9  2  0
  9 10  1  0
 10 11  1  0
 11 12  2  0
 12 13  1  0
 13  5  2  0
 12  8  1  0
  6 14  1  0
  7 15  1  0
 13 16  1  0
M  CHG  1  10  -1
M  END
>  <UniqueID>  (46) 
43

>  <SMILES>  (46) 
FC(F)(F)c1ccc2n[n-]nc2c1

>  <Energy>  (46) 
59.93525632843495

>  <Genealogy>  (46) 
FC(F)(F)c1ccc2n[n-]nc2c1 (protonated)
FC(F)(F)c1ccc2n[n-]nc2c1 (3D coordinates assigned)
FC(F)(F)c1ccc2n[n-]nc2c1 (optimized conformer: 59.93525632843495 kcal/mol)

>  <smiles>  (46) 
FC(F)(F)c1ccc2n[nH]nc2c1

>  <score_type>  (46) 
oracle

>  <origin>  (46) 
adg

>  <m_score__min__energy>  (46) 
-7.2400000000000002

>  <m_primary>  (46) 
energy

$$$$
46:0
     RDKit          3D

 57 60  0  0  0  0  0  0  0  0999 V2000
   -5.7645   21.9976  -32.7888 H   0  0  0  0  0  0  0  0  0  0  0  0
   -5.7750   22.7230  -31.9620 C   0  0  0  0  0  0  0  0  0  0  0  0
   -4.6420   23.4040  -31.6410 N   0  0  0  0  0  0  0  0  0  0  0  0
   -4.6020   24.3140  -30.6290 C   0  0  0  0  0  0  0  0  0  0  0  0
   -3.4700   24.9060  -30.3730 N   0  0  0  0  0  0  0  0  0  0  0  0
   -2.4840   24.6940  -28.9560 S   0  0  0  0  0  0  0  0  0  0  0  0
   -3.3550   24.8130  -27.7360 O   0  0  0  0  0  0  0  0  0  0  0  0
   -1.4460   25.7790  -28.9240 O   0  0  0  0  0  0  0  0  0  0  0  0
   -1.6640   23.1270  -28.9820 C   0  0  0  0  0  0  0  0  0  0  0  0
   -1.5000   22.4530  -30.2010 C   0  0  0  0  0  0  0  0  0  0  0  0
   -1.8462   22.9311  -31.1292 H   0  0  0  0  0  0  0  0  0  0  0  0
   -0.9010   21.1750  -30.2660 C   0  0  0  0  0  0  0  0  0  0  0  0
   -0.7870   20.4520  -31.5340 N   0  0  0  0  0  0  0  0  0  0  0  0
   -0.3610   21.1970  -32.7420 C   0  0  0  0  0  0  0  0  0  0  0  0
   -1.0650   22.0290  -32.8907 H   0  0  0  0  0  0  0  0  0  0  0  0
    0.6739   21.5146  -32.5466 H   0  0  0  0  0  0  0  0  0  0  0  0
   -0.3080   20.3830  -34.0510 C   0  0  0  0  0  0  0  0  0  0  0  0
   -0.5760   21.0507  -34.8831 H   0  0  0  0  0  0  0  0  0  0  0  0
    0.7145   19.9859  -34.1340 H   0  0  0  0  0  0  0  0  0  0  0  0
   -1.2140   19.2240  -34.0800 N   0  0  0  0  0  0  0  0  0  0  0  0
   -0.9620   18.6740  -34.9370 H   0  0  0  0  0  0  0  0  0  0  0  0
   -2.6120   19.5810  -34.2070 C   0  0  0  0  0  0  0  0  0  0  0  0
   -2.9710   20.7910  -34.2090 O   0  0  0  0  0  0  0  0  0  0  0  0
   -3.5990   18.5390  -34.2290 N   0  0  0  0  0  0  0  0  0  0  0  0
   -4.9100   18.5950  -33.6480 C   0  0  0  0  0  0  0  0  0  0  0  0
   -5.4100   17.4520  -33.0100 C   0  0  0  0  0  0  0  0  0  0  0  0
   -4.7916   16.5441  -32.9517 H   0  0  0  0  0  0  0  0  0  0  0  0
   -6.6900   17.4580  -32.4470 C   0  0  0  0  0  0  0  0  0  0  0  0
   -7.0699   16.5610  -31.9361 H   0  0  0  0  0  0  0  0  0  0  0  0
   -7.4870   18.6030  -32.5330 C   0  0  0  0  0  0  0  0  0  0  0  0
   -9.0930   18.6110  -31.8250 Cl  0  0  0  0  0  0  0  0  0  0  0  0
   -7.0060   19.7400  -33.1920 C   0  0  0  0  0  0  0  0  0  0  0  0
   -7.6365   20.6382  -33.2677 H   0  0  0  0  0  0  0  0  0  0  0  0
   -5.7270   19.7370  -33.7540 C   0  0  0  0  0  0  0  0  0  0  0  0
   -5.3572   20.6291  -34.2807 H   0  0  0  0  0  0  0  0  0  0  0  0
   -0.9600   18.3540  -32.9260 C   0  0  0  0  0  0  0  0  0  0  0  0
   -1.6049   17.4663  -33.0047 H   0  0  0  0  0  0  0  0  0  0  0  0
    0.1058   18.0822  -32.9405 H   0  0  0  0  0  0  0  0  0  0  0  0
   -1.2440   19.0500  -31.5940 C   0  0  0  0  0  0  0  0  0  0  0  0
   -2.3302   19.0336  -31.4210 H   0  0  0  0  0  0  0  0  0  0  0  0
   -0.6813   18.5011  -30.8245 H   0  0  0  0  0  0  0  0  0  0  0  0
   -0.4380   20.6120  -29.0560 C   0  0  0  0  0  0  0  0  0  0  0  0
    0.0351   19.6190  -29.0685 H   0  0  0  0  0  0  0  0  0  0  0  0
   -0.5700   21.2930  -27.8450 C   0  0  0  0  0  0  0  0  0  0  0  0
   -0.1891   20.8359  -26.9198 H   0  0  0  0  0  0  0  0  0  0  0  0
   -1.1830   22.5540  -27.7940 C   0  0  0  0  0  0  0  0  0  0  0  0
   -1.3280   23.2600  -26.5880 O   0  0  0  0  0  0  0  0  0  0  0  0
   -0.2610   23.5680  -25.6980 C   0  0  0  0  0  0  0  0  0  0  0  0
   -0.6092   23.4675  -24.6594 H   0  0  0  0  0  0  0  0  0  0  0  0
    0.5745   22.8744  -25.8733 H   0  0  0  0  0  0  0  0  0  0  0  0
    0.0764   24.6002  -25.8733 H   0  0  0  0  0  0  0  0  0  0  0  0
   -5.7770   24.5650  -29.8880 C   0  0  0  0  0  0  0  0  0  0  0  0
   -5.7705   25.3005  -29.0701 H   0  0  0  0  0  0  0  0  0  0  0  0
   -6.9470   23.8720  -30.2020 C   0  0  0  0  0  0  0  0  0  0  0  0
   -7.8667   24.0579  -29.6279 H   0  0  0  0  0  0  0  0  0  0  0  0
   -6.9510   22.9440  -31.2430 C   0  0  0  0  0  0  0  0  0  0  0  0
   -8.0830   22.2660  -31.5550 F   0  0  0  0  0  0  0  0  0  0  0  0
  1  2  1  0
  2  3  1  0
  3  4  1  0
  4  5  2  0
  5  6  1  0
  6  7  2  0
  6  8  2  0
  6  9  1  0
  9 10  2  0
 10 11  1  0
 10 12  1  0
 12 13  1  0
 13 14  1  0
 14 15  1  0
 14 16  1  0
 14 17  1  0
 17 18  1  0
 17 19  1  0
 17 20  1  0
 20 21  1  0
 20 22  1  0
 22 23  2  0
 22 24  1  0
 24 25  1  0
 25 26  2  0
 26 27  1  0
 26 28  1  0
 28 29  1  0
 28 30  2  0
 30 31  1  0
 30 32  1  0
 32 33  1  0
 32 34  2  0
 34 35  1  0
 20 36  1  0
 36 37  1  0
 36 38  1  0
 36 39  1  0
 39 40  1  0
 39 41  1  0
 12 42  2  0
 42 43  1  0
 42 44  1  0
 44 45  1  0
 44 46  2  0
 46 47  1  0
 47 48  1  0
 48 49  1  0
 48 50  1  0
 48 51  1  0
  4 52  1  0
 52 53  1  0
 52 54  2  0
 54 55  1  0
 54 56  1  0
 56 57  1  0
 56  2  2  0
 46  9  1  0
 39 13  1  0
 34 25  1  0
M  CHG  3   3  -1  20   1  24  -1
M  END
>  <UniqueID>  (47) 
44

>  <SMILES>  (47) 
COc1ccc(N2CC[NH+](C(=O)[N-]c3ccc(Cl)cc3)CC2)cc1S(=O)(=O)/N=c1\ccc(F)c[n-]1

>  <Energy>  (47) 
83.21288474357225

>  <Genealogy>  (47) 
COc1ccc(N2CC[NH+](C(=O)[N-]c3ccc(Cl)cc3)CC2)cc1S(=O)(=O)N=c1ccc(F)c[n-]1 (protonated)
COc1ccc(N2CC[NH+](C(=O)[N-]c3ccc(Cl)cc3)CC2)cc1S(=O)(=O)/N=c1\ccc(F)c[n-]1 (cis-trans isomerization)
COc1ccc(N2CC[NH+](C(=O)[N-]c3ccc(Cl)cc3)CC2)cc1S(=O)(=O)/N=c1\ccc(F)c[n-]1 (3D coordinates assigned)
COc1ccc(N2CC[NH+](C(=O)[N-]c3ccc(Cl)cc3)CC2)cc1S(=O)(=O)/N=c1\ccc(F)c[n-]1 (nonaromatic ring conformer: 83.21288474357225 kcal/mol)

>  <smiles>  (47) 
COc1ccc(N2CCN(C(=O)Nc3ccc(Cl)cc3)CC2)cc1S(=O)(=O)N=c1ccc(F)c[nH]1

>  <score_type>  (47) 
oracle

>  <origin>  (47) 
adg

>  <m_score__min__energy>  (47) 
-10.59

>  <m_primary>  (47) 
energy

$$$$
