0:0
     RDKit          3D

 46 48  0  0  0  0  0  0  0  0999 V2000
   -4.1380   21.9330  -33.0760 C   0  0  0  0  0  0  0  0  0  0  0  0
   -4.6710   21.8350  -31.6500 C   0  0  0  0  0  0  0  0  0  0  0  0
   -6.0580   22.3060  -31.5700 N   0  0  0  0  0  0  0  0  0  0  0  0
   -7.2040   21.6500  -31.8850 C   0  0  0  0  0  0  0  0  0  0  0  0
   -7.3160   20.2240  -32.2600 C   0  0  0  0  0  0  0  0  0  0  0  0
   -8.2720   19.4130  -31.6310 C   0  0  0  0  0  0  0  0  0  0  0  0
   -8.3610   18.0600  -31.9680 C   0  0  0  0  0  0  0  0  0  0  0  0
   -7.5140   17.5300  -32.8890 N   0  0  0  0  0  0  0  0  0  0  0  0
   -6.5650   18.2870  -33.5010 C   0  0  0  0  0  0  0  0  0  0  0  0
   -6.4430   19.6430  -33.1930 C   0  0  0  0  0  0  0  0  0  0  0  0
   -8.2660   22.4840  -31.8840 N   0  0  0  0  0  0  0  0  0  0  0  0
   -7.8030   23.6780  -31.5540 N   0  0  0  0  0  0  0  0  0  0  0  0
   -6.4780   23.5730  -31.3640 C   0  0  0  0  0  0  0  0  0  0  0  0
   -5.4140   24.9690  -30.9840 S   0  0  0  0  0  0  0  0  0  0  0  0
   -4.6230   24.1800  -29.5370 C   0  0  0  0  0  0  0  0  0  0  0  0
   -3.1150   24.0580  -29.7480 C   0  0  0  0  0  0  0  0  0  0  0  0
   -2.4480   25.2420  -29.3080 O   0  0  0  0  0  0  0  0  0  0  0  0
   -1.8340   25.4170  -28.0560 C   0  0  0  0  0  0  0  0  0  0  0  0
   -2.5220   24.9840  -26.9180 C   0  0  0  0  0  0  0  0  0  0  0  0
   -1.9610   25.1310  -25.6460 C   0  0  0  0  0  0  0  0  0  0  0  0
   -0.6930   25.7250  -25.4950 C   0  0  0  0  0  0  0  0  0  0  0  0
   -0.0860   25.8950  -24.2420 O   0  0  0  0  0  0  0  0  0  0  0  0
   -0.5400   26.8060  -23.2470 C   0  0  0  0  0  0  0  0  0  0  0  0
   -0.0060   26.1620  -26.6320 C   0  0  0  0  0  0  0  0  0  0  0  0
   -0.5670   26.0130  -27.9050 C   0  0  0  0  0  0  0  0  0  0  0  0
   -3.0564   22.1319  -33.0503 H   0  0  0  0  0  0  0  0  0  0  0  0
   -4.3242   20.9856  -33.6030 H   0  0  0  0  0  0  0  0  0  0  0  0
   -4.6490   22.7522  -33.6030 H   0  0  0  0  0  0  0  0  0  0  0  0
   -4.6286   20.7859  -31.3221 H   0  0  0  0  0  0  0  0  0  0  0  0
   -4.0492   22.4689  -31.0008 H   0  0  0  0  0  0  0  0  0  0  0  0
   -8.9484   19.8401  -30.8760 H   0  0  0  0  0  0  0  0  0  0  0  0
   -9.1178   17.4229  -31.4871 H   0  0  0  0  0  0  0  0  0  0  0  0
   -5.8915   17.8297  -34.2408 H   0  0  0  0  0  0  0  0  0  0  0  0
   -5.6670   20.2529  -33.6788 H   0  0  0  0  0  0  0  0  0  0  0  0
   -8.3820   24.5430  -31.4870 H   0  0  0  0  0  0  0  0  0  0  0  0
   -4.8145   24.7910  -28.6426 H   0  0  0  0  0  0  0  0  0  0  0  0
   -5.0454   23.1726  -29.4076 H   0  0  0  0  0  0  0  0  0  0  0  0
   -2.7385   23.1972  -29.1759 H   0  0  0  0  0  0  0  0  0  0  0  0
   -2.9174   23.9178  -30.8210 H   0  0  0  0  0  0  0  0  0  0  0  0
   -3.5150   24.5229  -27.0249 H   0  0  0  0  0  0  0  0  0  0  0  0
   -2.5117   24.7816  -24.7602 H   0  0  0  0  0  0  0  0  0  0  0  0
   -0.3336   26.3918  -22.2491 H   0  0  0  0  0  0  0  0  0  0  0  0
   -0.0148   27.7657  -23.3615 H   0  0  0  0  0  0  0  0  0  0  0  0
   -1.6225   26.9645  -23.3615 H   0  0  0  0  0  0  0  0  0  0  0  0
    0.9849   26.6273  -26.5244 H   0  0  0  0  0  0  0  0  0  0  0  0
   -0.0166   26.3626  -28.7909 H   0  0  0  0  0  0  0  0  0  0  0  0
  1  2  1  0
  2  3  1  0
  3  4  1  0
  4  5  1  0
  5  6  2  0
  6  7  1  0
  7  8  2  0
  8  9  1  0
  9 10  2  0
  4 11  2  0
 11 12  1  0
 12 13  2  0
 13 14  1  0
 14 15  1  0
 15 16  1  0
 16 17  1  0
 17 18  1  0
 18 19  2  0
 19 20  1  0
 20 21  2  0
 21 22  1  0
 22 23  1  0
 21 24  1  0
 24 25  2  0
 13  3  1  0
 25 18  1  0
 10  5  1  0
  1 26  1  0
  1 27  1  0
  1 28  1  0
  2 29  1  0
  2 30  1  0
  6 31  1  0
  7 32  1  0
  9 33  1  0
 10 34  1  0
 12 35  1  0
 15 36  1  0
 15 37  1  0
 16 38  1  0
 16 39  1  0
 19 40  1  0
 20 41  1  0
 23 42  1  0
 23 43  1  0
 23 44  1  0
 24 45  1  0
 25 46  1  0
M  CHG  1  12   1
M  END
>  <UniqueID>  (1) 
1

>  <SMILES>  (1) 
CCn1c(-c2ccncc2)n[nH+]c1SCCOc1ccc(OC)cc1

>  <Energy>  (1) 
81.39436815061683

>  <Genealogy>  (1) 
CCn1c(-c2ccncc2)n[nH+]c1SCCOc1ccc(OC)cc1 (protonated)
CCn1c(-c2ccncc2)n[nH+]c1SCCOc1ccc(OC)cc1 (3D coordinates assigned)
CCn1c(-c2ccncc2)n[nH+]c1SCCOc1ccc(OC)cc1 (optimized conformer: 81.39436815061683 kcal/mol)

>  <smiles>  (1) 
CCn1c(SCCOc2ccc(OC)cc2)nnc1-c1ccncc1

>  <score_type>  (1) 
oracle

>  <origin>  (1) 
adg

>  <m_score__min__energy>  (1) 
-7.7699999999999996

>  <m_primary>  (1) 
energy

$$$$
1:0
     RDKit          3D

 61 63  0  0  0  0  0  0  0  0999 V2000
    0.3340   27.5610  -23.3510 C   0  0  0  0  0  0  0  0  0  0  0  0
   -0.6570   26.4880  -23.8130 C   0  0  0  0  0  0  0  0  0  0  0  0
   -0.0050   25.1670  -23.9700 N   0  0  0  0  0  0  0  0  0  0  0  0
   -0.0710   24.6450  -25.3480 C   0  0  0  0  0  0  0  0  0  0  0  0
   -1.2180   25.2800  -26.1580 C   0  0  0  0  0  0  0  0  0  0  0  0
   -0.7140   25.8920  -27.4640 C   0  0  0  0  0  0  0  0  0  0  0  0
   -1.6570   25.6560  -28.4900 O   0  0  0  0  0  0  0  0  0  0  0  0
   -2.3540   24.4450  -28.2660 C   0  0  0  0  0  0  0  0  0  0  0  0
   -3.7690   24.5510  -28.8270 C   0  0  0  0  0  0  0  0  0  0  0  0
   -3.7020   24.8520  -30.2050 O   0  0  0  0  0  0  0  0  0  0  0  0
   -4.2640   23.7940  -30.9500 C   0  0  0  0  0  0  0  0  0  0  0  0
   -5.6370   24.2170  -31.4710 C   0  0  0  0  0  0  0  0  0  0  0  0
   -6.2130   23.1990  -32.3550 N   0  0  0  0  0  0  0  0  0  0  0  0
   -7.1040   22.1460  -31.9260 C   0  0  0  0  0  0  0  0  0  0  0  0
   -8.3400   22.4930  -31.3420 C   0  0  0  0  0  0  0  0  0  0  0  0
   -9.3390   21.5430  -31.1600 C   0  0  0  0  0  0  0  0  0  0  0  0
   -9.1530   20.2410  -31.6020 C   0  0  0  0  0  0  0  0  0  0  0  0
   -7.9300   19.8560  -32.1690 C   0  0  0  0  0  0  0  0  0  0  0  0
   -7.7820   18.5620  -32.6630 C   0  0  0  0  0  0  0  0  0  0  0  0
   -6.5910   18.1830  -33.2710 C   0  0  0  0  0  0  0  0  0  0  0  0
   -6.4760   16.9130  -33.8630 C   0  0  0  0  0  0  0  0  0  0  0  0
   -5.2850   16.5320  -34.4790 C   0  0  0  0  0  0  0  0  0  0  0  0
   -4.2030   17.4090  -34.5110 C   0  0  0  0  0  0  0  0  0  0  0  0
   -4.2990   18.6690  -33.9130 C   0  0  0  0  0  0  0  0  0  0  0  0
   -5.4930   19.0770  -33.2690 C   0  0  0  0  0  0  0  0  0  0  0  0
   -5.6010   20.3030  -32.6400 N   0  0  0  0  0  0  0  0  0  0  0  0
   -4.3650   20.9930  -32.2190 C   0  0  0  0  0  0  0  0  0  0  0  0
   -6.8490   20.7740  -32.2540 C   0  0  0  0  0  0  0  0  0  0  0  0
    0.3590   27.5881  -22.2516 H   0  0  0  0  0  0  0  0  0  0  0  0
    1.3371   27.3233  -23.7348 H   0  0  0  0  0  0  0  0  0  0  0  0
    0.0175   28.5421  -23.7348 H   0  0  0  0  0  0  0  0  0  0  0  0
   -1.4612   26.4016  -23.0675 H   0  0  0  0  0  0  0  0  0  0  0  0
   -1.0561   26.7905  -24.7924 H   0  0  0  0  0  0  0  0  0  0  0  0
    0.9930   25.1860  -23.6540 H   0  0  0  0  0  0  0  0  0  0  0  0
   -0.4980   24.4790  -23.3490 H   0  0  0  0  0  0  0  0  0  0  0  0
    0.8815   24.8606  -25.8542 H   0  0  0  0  0  0  0  0  0  0  0  0
   -0.2582   23.5626  -25.2899 H   0  0  0  0  0  0  0  0  0  0  0  0
   -1.9621   24.5042  -26.3913 H   0  0  0  0  0  0  0  0  0  0  0  0
   -1.6634   26.0826  -25.5518 H   0  0  0  0  0  0  0  0  0  0  0  0
   -0.5785   26.9757  -27.3328 H   0  0  0  0  0  0  0  0  0  0  0  0
    0.2474   25.4325  -27.7371 H   0  0  0  0  0  0  0  0  0  0  0  0
   -1.8239   23.6209  -28.7658 H   0  0  0  0  0  0  0  0  0  0  0  0
   -2.4059   24.2508  -27.1845 H   0  0  0  0  0  0  0  0  0  0  0  0
   -4.2936   23.5947  -28.6846 H   0  0  0  0  0  0  0  0  0  0  0  0
   -4.3157   25.3478  -28.3014 H   0  0  0  0  0  0  0  0  0  0  0  0
   -3.6072   23.5528  -31.7988 H   0  0  0  0  0  0  0  0  0  0  0  0
   -4.3706   22.9071  -30.3081 H   0  0  0  0  0  0  0  0  0  0  0  0
   -6.3118   24.3713  -30.6161 H   0  0  0  0  0  0  0  0  0  0  0  0
   -5.5164   25.1462  -32.0471 H   0  0  0  0  0  0  0  0  0  0  0  0
   -6.0460   23.3190  -33.3790 H   0  0  0  0  0  0  0  0  0  0  0  0
   -8.5165   23.5316  -31.0255 H   0  0  0  0  0  0  0  0  0  0  0  0
  -10.2796   21.8246  -30.6641 H   0  0  0  0  0  0  0  0  0  0  0  0
   -9.9680   19.5083  -31.5072 H   0  0  0  0  0  0  0  0  0  0  0  0
   -8.6073   17.8405  -32.5720 H   0  0  0  0  0  0  0  0  0  0  0  0
   -7.3283   16.2180  -33.8400 H   0  0  0  0  0  0  0  0  0  0  0  0
   -5.1993   15.5372  -34.9406 H   0  0  0  0  0  0  0  0  0  0  0  0
   -3.2692   17.1088  -35.0089 H   0  0  0  0  0  0  0  0  0  0  0  0
   -3.4371   19.3518  -33.9429 H   0  0  0  0  0  0  0  0  0  0  0  0
   -4.3163   21.0202  -31.1204 H   0  0  0  0  0  0  0  0  0  0  0  0
   -3.4913   20.4521  -32.6115 H   0  0  0  0  0  0  0  0  0  0  0  0
   -4.3668   22.0206  -32.6115 H   0  0  0  0  0  0  0  0  0  0  0  0
  1  2  1  0
  2  3  1  0
  3  4  1  0
  4  5  1  0
  5  6  1  0
  6  7  1  0
  7  8  1  0
  8  9  1  0
  9 10  1  0
 10 11  1  0
 11 12  1  0
 12 13  1  0
 13 14  1  0
 14 15  2  0
 15 16  1  0
 16 17  2  0
 17 18  1  0
 18 19  2  0
 19 20  1  0
 20 21  2  0
 21 22  1  0
 22 23  2  0
 23 24  1  0
 24 25  2  0
 25 26  1  0
 26 27  1  0
 26 28  2  0
 28 14  1  0
 28 18  1  0
 25 20  1  0
  1 29  1  0
  1 30  1  0
  1 31  1  0
  2 32  1  0
  2 33  1  0
  3 34  1  0
  3 35  1  0
  4 36  1  0
  4 37  1  0
  5 38  1  0
  5 39  1  0
  6 40  1  0
  6 41  1  0
  8 42  1  0
  8 43  1  0
  9 44  1  0
  9 45  1  0
 11 46  1  0
 11 47  1  0
 12 48  1  0
 12 49  1  0
 13 50  1  0
 15 51  1  0
 16 52  1  0
 17 53  1  0
 19 54  1  0
 21 55  1  0
 22 56  1  0
 23 57  1  0
 24 58  1  0
 27 59  1  0
 27 60  1  0
 27 61  1  0
M  CHG  2   3   1  26   1
M  END
>  <UniqueID>  (2) 
2

>  <SMILES>  (2) 
CC[NH2+]CCCOCCOCCNc1cccc2cc3ccccc3[n+](C)c12

>  <Energy>  (2) 
82.63840648847786

>  <Genealogy>  (2) 
CC[NH2+]CCCOCCOCCNc1cccc2cc3ccccc3[n+](C)c12 (protonated)
CC[NH2+]CCCOCCOCCNc1cccc2cc3ccccc3[n+](C)c12 (3D coordinates assigned)
CC[NH2+]CCCOCCOCCNc1cccc2cc3ccccc3[n+](C)c12 (optimized conformer: 82.63840648847786 kcal/mol)

>  <smiles>  (2) 
CCNCCCOCCOCCNc1cccc2cc3ccccc3[n+](C)c12

>  <score_type>  (2) 
oracle

>  <origin>  (2) 
adg

>  <m_score__min__energy>  (2) 
-9.8200000000000003

>  <m_primary>  (2) 
energy

$$$$
2:0
     RDKit          3D

 84 88  0  0  0  0  0  0  0  0999 V2000
    0.1480   20.3790  -30.4840 C   0  0  0  0  0  0  0  0  0  0  0  0
   -0.6250   21.4970  -31.1890 C   0  0  0  0  0  0  0  0  0  0  0  0
   -1.8530   20.9640  -31.8250 N   0  0  0  0  0  0  0  0  0  0  0  0
   -1.7960   19.4900  -31.8830 C   0  0  0  0  0  0  0  0  0  0  0  0
   -2.0950   21.5180  -33.1790 C   0  0  0  0  0  0  0  0  0  0  0  0
   -3.6030   21.5380  -33.4570 C   0  0  0  0  0  0  0  0  0  0  0  0
   -4.3800   21.0440  -32.3130 N   0  0  0  0  0  0  0  0  0  0  0  0
   -5.6710   20.4360  -32.4830 C   0  0  0  0  0  0  0  0  0  0  0  0
   -5.7080   19.0940  -32.9140 C   0  0  0  0  0  0  0  0  0  0  0  0
   -4.5620   18.4780  -33.4790 C   0  0  0  0  0  0  0  0  0  0  0  0
   -4.5820   17.1400  -33.8660 C   0  0  0  0  0  0  0  0  0  0  0  0
   -5.7400   16.3890  -33.6930 C   0  0  0  0  0  0  0  0  0  0  0  0
   -6.8930   16.9810  -33.1570 C   0  0  0  0  0  0  0  0  0  0  0  0
   -6.8980   18.3480  -32.7590 C   0  0  0  0  0  0  0  0  0  0  0  0
   -8.0250   18.9560  -32.2400 N   0  0  0  0  0  0  0  0  0  0  0  0
   -9.1780   18.1240  -31.8110 C   0  0  0  0  0  0  0  0  0  0  0  0
   -8.0880   20.3400  -32.1630 C   0  0  0  0  0  0  0  0  0  0  0  0
   -9.3390   20.9820  -32.0300 C   0  0  0  0  0  0  0  0  0  0  0  0
   -9.4390   22.3510  -31.9460 C   0  0  0  0  0  0  0  0  0  0  0  0
   -8.3030   23.1440  -32.0000 C   0  0  0  0  0  0  0  0  0  0  0  0
   -7.0090   22.5890  -32.1410 C   0  0  0  0  0  0  0  0  0  0  0  0
   -5.8330   23.4560  -32.0810 N   0  0  0  0  0  0  0  0  0  0  0  0
   -5.4710   23.9770  -30.7370 C   0  0  0  0  0  0  0  0  0  0  0  0
   -3.9400   23.9450  -30.4090 C   0  0  0  0  0  0  0  0  0  0  0  0
   -3.4850   23.5180  -29.0310 N   0  0  2  0  0  0  0  0  0  0  0  0
   -4.4190   24.1870  -28.0750 C   0  0  0  0  0  0  0  0  0  0  0  0
   -2.0920   24.0090  -28.7510 C   0  0  0  0  0  0  0  0  0  0  0  0
   -1.0690   22.8960  -28.4460 C   0  0  0  0  0  0  0  0  0  0  0  0
   -1.5740   22.0600  -27.2600 C   0  0  2  0  0  0  0  0  0  0  0  0
   -0.4760   21.0900  -26.7340 C   0  0  0  0  0  0  0  0  0  0  0  0
   -0.6810   19.6280  -27.1220 C   0  0  0  0  0  0  0  0  0  0  0  0
   -2.0780   19.1790  -26.7200 C   0  0  0  0  0  0  0  0  0  0  0  0
   -3.0940   19.9050  -27.5950 C   0  0  0  0  0  0  0  0  0  0  0  0
   -3.0040   21.4600  -27.5300 C   0  0  2  0  0  0  0  0  0  0  0  0
   -3.6240   22.0370  -28.8480 C   0  0  0  0  0  0  0  0  0  0  0  0
   -6.8970   21.1390  -32.2440 C   0  0  0  0  0  0  0  0  0  0  0  0
    0.0615   20.5040  -29.3946 H   0  0  0  0  0  0  0  0  0  0  0  0
   -0.2699   19.4041  -30.7755 H   0  0  0  0  0  0  0  0  0  0  0  0
    1.2077   20.4257  -30.7755 H   0  0  0  0  0  0  0  0  0  0  0  0
   -0.9040   22.2638  -30.4514 H   0  0  0  0  0  0  0  0  0  0  0  0
    0.0165   21.9333  -31.9688 H   0  0  0  0  0  0  0  0  0  0  0  0
   -1.7803   19.0832  -30.8611 H   0  0  0  0  0  0  0  0  0  0  0  0
   -2.6801   19.1095  -32.4156 H   0  0  0  0  0  0  0  0  0  0  0  0
   -0.8852   19.1790  -32.4156 H   0  0  0  0  0  0  0  0  0  0  0  0
   -1.6979   22.5424  -33.2331 H   0  0  0  0  0  0  0  0  0  0  0  0
   -1.5906   20.8910  -33.9290 H   0  0  0  0  0  0  0  0  0  0  0  0
   -3.9102   22.5714  -33.6752 H   0  0  0  0  0  0  0  0  0  0  0  0
   -3.7995   20.8753  -34.3127 H   0  0  0  0  0  0  0  0  0  0  0  0
   -4.0860   21.3030  -31.3390 H   0  0  0  0  0  0  0  0  0  0  0  0
   -3.6425   19.0665  -33.6138 H   0  0  0  0  0  0  0  0  0  0  0  0
   -3.6856   16.6792  -34.3066 H   0  0  0  0  0  0  0  0  0  0  0  0
   -5.7515   15.3265  -33.9777 H   0  0  0  0  0  0  0  0  0  0  0  0
   -7.8072   16.3801  -33.0424 H   0  0  0  0  0  0  0  0  0  0  0  0
   -9.2197   18.0939  -30.7122 H   0  0  0  0  0  0  0  0  0  0  0  0
  -10.1097   18.5593  -32.2015 H   0  0  0  0  0  0  0  0  0  0  0  0
   -9.0586   17.1026  -32.2015 H   0  0  0  0  0  0  0  0  0  0  0  0
  -10.2543   20.3730  -31.9928 H   0  0  0  0  0  0  0  0  0  0  0  0
  -10.4276   22.8204  -31.8351 H   0  0  0  0  0  0  0  0  0  0  0  0
   -8.4108   24.2365  -31.9312 H   0  0  0  0  0  0  0  0  0  0  0  0
   -5.0340   22.8900  -32.4360 H   0  0  0  0  0  0  0  0  0  0  0  0
   -6.0030   24.2990  -32.6670 H   0  0  0  0  0  0  0  0  0  0  0  0
   -5.8130   25.0204  -30.6713 H   0  0  0  0  0  0  0  0  0  0  0  0
   -5.9573   23.3132  -30.0070 H   0  0  0  0  0  0  0  0  0  0  0  0
   -3.4724   23.2568  -31.1285 H   0  0  0  0  0  0  0  0  0  0  0  0
   -3.6402   25.0019  -30.4655 H   0  0  0  0  0  0  0  0  0  0  0  0
   -4.1088   23.9648  -27.0433 H   0  0  0  0  0  0  0  0  0  0  0  0
   -4.3948   25.2744  -28.2391 H   0  0  0  0  0  0  0  0  0  0  0  0
   -5.4408   23.8141  -28.2391 H   0  0  0  0  0  0  0  0  0  0  0  0
   -1.7408   24.5660  -29.6322 H   0  0  0  0  0  0  0  0  0  0  0  0
   -2.1562   24.6305  -27.8457 H   0  0  0  0  0  0  0  0  0  0  0  0
   -0.9531   22.2503  -29.3289 H   0  0  0  0  0  0  0  0  0  0  0  0
   -0.0966   23.3451  -28.1954 H   0  0  0  0  0  0  0  0  0  0  0  0
   -1.7532   22.7166  -26.3959 H   0  0  0  0  0  0  0  0  0  0  0  0
    0.4936   21.4190  -27.1360 H   0  0  0  0  0  0  0  0  0  0  0  0
   -0.5240   21.1308  -25.6358 H   0  0  0  0  0  0  0  0  0  0  0  0
   -0.5613   19.5187  -28.2100 H   0  0  0  0  0  0  0  0  0  0  0  0
    0.0636   19.0067  -26.6028 H   0  0  0  0  0  0  0  0  0  0  0  0
   -2.1739   18.0928  -26.8645 H   0  0  0  0  0  0  0  0  0  0  0  0
   -2.2580   19.4153  -25.6609 H   0  0  0  0  0  0  0  0  0  0  0  0
   -2.9343   19.5943  -28.6380 H   0  0  0  0  0  0  0  0  0  0  0  0
   -4.0891   19.6316  -27.2142 H   0  0  0  0  0  0  0  0  0  0  0  0
   -3.5726   21.7699  -26.6408 H   0  0  0  0  0  0  0  0  0  0  0  0
   -3.1323   21.5426  -29.6988 H   0  0  0  0  0  0  0  0  0  0  0  0
   -4.7044   21.8402  -28.7853 H   0  0  0  0  0  0  0  0  0  0  0  0
  1  2  1  0
  2  3  1  0
  3  4  1  0
  3  5  1  0
  5  6  1  0
  6  7  1  0
  7  8  1  0
  8  9  2  0
  9 10  1  0
 10 11  2  0
 11 12  1  0
 12 13  2  0
 13 14  1  0
 14 15  2  0
 15 16  1  0
 15 17  1  0
 17 18  2  0
 18 19  1  0
 19 20  2  0
 20 21  1  0
 21 22  1  0
 22 23  1  0
 23 24  1  0
 25 24  1  6
 25 26  1  0
 25 27  1  0
 27 28  1  0
 28 29  1  0
 29 30  1  0
 30 31  1  0
 31 32  1  0
 32 33  1  0
 33 34  1  0
 34 35  1  0
 21 36  2  0
 36  8  1  0
 14  9  1  0
 36 17  1  0
 35 25  1  0
 34 29  1  0
  1 37  1  0
  1 38  1  0
  1 39  1  0
  2 40  1  0
  2 41  1  0
  4 42  1  0
  4 43  1  0
  4 44  1  0
  5 45  1  0
  5 46  1  0
  6 47  1  0
  6 48  1  0
  7 49  1  0
 10 50  1  0
 11 51  1  0
 12 52  1  0
 13 53  1  0
 16 54  1  0
 16 55  1  0
 16 56  1  0
 18 57  1  0
 19 58  1  0
 20 59  1  0
 22 60  1  0
 22 61  1  0
 23 62  1  0
 23 63  1  0
 24 64  1  0
 24 65  1  0
 26 66  1  0
 26 67  1  0
 26 68  1  0
 27 69  1  0
 27 70  1  0
 28 71  1  0
 28 72  1  0
 29 73  1  1
 30 74  1  0
 30 75  1  0
 31 76  1  0
 31 77  1  0
 32 78  1  0
 32 79  1  0
 33 80  1  0
 33 81  1  0
 34 82  1  1
 35 83  1  0
 35 84  1  0
M  CHG  3  15   1  22   1  25   1
M  END
>  <UniqueID>  (3) 
3

>  <SMILES>  (3) 
CCN(C)CCNc1c2ccccc2[n+](C)c2cccc([NH2+]CC[N@+]3(C)CC[C@@H]4CCCCC4C3)c12

>  <Energy>  (3) 
163.75160974847856

>  <Genealogy>  (3) 
CCN(C)CCNc1c2ccccc2[n+](C)c2cccc([NH2+]CC[N+]3(C)CCC4CCCCC4C3)c12 (protonated)
CCN(C)CCNc1c2ccccc2[n+](C)c2cccc([NH2+]CC[N@+]3(C)CC[C@@H]4CCCCC4C3)c12 (chirality)
CCN(C)CCNc1c2ccccc2[n+](C)c2cccc([NH2+]CC[N@+]3(C)CC[C@@H]4CCCCC4C3)c12 (3D coordinates assigned)
CCN(C)CCNc1c2ccccc2[n+](C)c2cccc([NH2+]CC[N@+]3(C)CC[C@@H]4CCCCC4C3)c12 (nonaromatic ring conformer: 163.75160974847856 kcal/mol)

>  <smiles>  (3) 
CCN(C)CCNc1c2ccccc2[n+](C)c2cccc(NCC[N+]3(C)CCC4CCCCC4C3)c12

>  <score_type>  (3) 
oracle

>  <origin>  (3) 
adg

>  <m_score__min__energy>  (3) 
-8.9199999999999999

>  <m_primary>  (3) 
energy

$$$$
3:0
     RDKit          3D

 44 46  0  0  0  0  0  0  0  0999 V2000
   -9.1140   20.9850  -30.8630 C   0  0  0  0  0  0  0  0  0  0  0  0
   -9.4810   21.0700  -32.3480 C   0  0  0  0  0  0  0  0  0  0  0  0
   -9.0970   19.8580  -33.0940 N   0  0  0  0  0  0  0  0  0  0  0  0
   -8.8620   18.7100  -32.2000 C   0  0  0  0  0  0  0  0  0  0  0  0
   -7.4170   18.1960  -32.3050 C   0  0  0  0  0  0  0  0  0  0  0  0
   -6.7050   18.8030  -33.4310 N   0  0  0  0  0  0  0  0  0  0  0  0
   -5.3640   19.2750  -33.2490 C   0  0  0  0  0  0  0  0  0  0  0  0
   -5.1660   20.5190  -32.6230 C   0  0  0  0  0  0  0  0  0  0  0  0
   -6.2410   21.2000  -32.0120 C   0  0  0  0  0  0  0  0  0  0  0  0
   -6.0350   22.4090  -31.3510 C   0  0  0  0  0  0  0  0  0  0  0  0
   -4.7580   22.9550  -31.2800 C   0  0  0  0  0  0  0  0  0  0  0  0
   -4.4730   24.5870  -30.3300 Br  0  0  0  0  0  0  0  0  0  0  0  0
   -3.6860   22.3080  -31.8970 C   0  0  0  0  0  0  0  0  0  0  0  0
   -3.8750   21.0990  -32.6130 C   0  0  0  0  0  0  0  0  0  0  0  0
   -2.8430   20.4900  -33.2950 N   0  0  0  0  0  0  0  0  0  0  0  0
   -1.6040   21.2480  -33.5850 C   0  0  0  0  0  0  0  0  0  0  0  0
   -2.9730   19.1810  -33.7250 C   0  0  0  0  0  0  0  0  0  0  0  0
   -1.8440   18.4440  -34.1620 C   0  0  0  0  0  0  0  0  0  0  0  0
   -1.9680   17.1410  -34.6260 C   0  0  0  0  0  0  0  0  0  0  0  0
   -0.4220   16.1850  -35.2180 Br  0  0  0  0  0  0  0  0  0  0  0  0
   -3.2060   16.5180  -34.6290 C   0  0  0  0  0  0  0  0  0  0  0  0
   -4.3420   17.1810  -34.1610 C   0  0  0  0  0  0  0  0  0  0  0  0
   -5.9080   16.0680  -34.0570 Br  0  0  0  0  0  0  0  0  0  0  0  0
   -4.2490   18.5370  -33.7160 C   0  0  0  0  0  0  0  0  0  0  0  0
  -10.0055   21.1915  -30.2526 H   0  0  0  0  0  0  0  0  0  0  0  0
   -8.7392   19.9763  -30.6351 H   0  0  0  0  0  0  0  0  0  0  0  0
   -8.3339   21.7262  -30.6351 H   0  0  0  0  0  0  0  0  0  0  0  0
  -10.5688   21.2083  -32.4353 H   0  0  0  0  0  0  0  0  0  0  0  0
   -8.9298   21.9179  -32.7808 H   0  0  0  0  0  0  0  0  0  0  0  0
   -9.8840   19.6260  -33.7420 H   0  0  0  0  0  0  0  0  0  0  0  0
   -8.2440   20.0460  -33.6690 H   0  0  0  0  0  0  0  0  0  0  0  0
   -9.0558   19.0202  -31.1626 H   0  0  0  0  0  0  0  0  0  0  0  0
   -9.5387   17.8965  -32.5004 H   0  0  0  0  0  0  0  0  0  0  0  0
   -6.8840   18.4390  -31.3739 H   0  0  0  0  0  0  0  0  0  0  0  0
   -7.4516   17.1087  -32.4682 H   0  0  0  0  0  0  0  0  0  0  0  0
   -7.0470   18.6700  -34.4100 H   0  0  0  0  0  0  0  0  0  0  0  0
   -7.2529   20.7712  -32.0583 H   0  0  0  0  0  0  0  0  0  0  0  0
   -6.8831   22.9320  -30.8849 H   0  0  0  0  0  0  0  0  0  0  0  0
   -2.6782   22.7432  -31.8265 H   0  0  0  0  0  0  0  0  0  0  0  0
   -1.1241   21.5416  -32.6398 H   0  0  0  0  0  0  0  0  0  0  0  0
   -0.9152   20.6165  -34.1653 H   0  0  0  0  0  0  0  0  0  0  0  0
   -1.8526   22.1488  -34.1653 H   0  0  0  0  0  0  0  0  0  0  0  0
   -0.8497   18.9135  -34.1330 H   0  0  0  0  0  0  0  0  0  0  0  0
   -3.2947   15.4880  -35.0049 H   0  0  0  0  0  0  0  0  0  0  0  0
  1  2  1  0
  2  3  1  0
  3  4  1  0
  4  5  1  0
  5  6  1  0
  6  7  1  0
  7  8  2  0
  8  9  1  0
  9 10  2  0
 10 11  1  0
 11 12  1  0
 11 13  2  0
 13 14  1  0
 14 15  2  0
 15 16  1  0
 15 17  1  0
 17 18  2  0
 18 19  1  0
 19 20  1  0
 19 21  2  0
 21 22  1  0
 22 23  1  0
 22 24  2  0
 24  7  1  0
 14  8  1  0
 24 17  1  0
  1 25  1  0
  1 26  1  0
  1 27  1  0
  2 28  1  0
  2 29  1  0
  3 30  1  0
  3 31  1  0
  4 32  1  0
  4 33  1  0
  5 34  1  0
  5 35  1  0
  6 36  1  0
  9 37  1  0
 10 38  1  0
 13 39  1  0
 16 40  1  0
 16 41  1  0
 16 42  1  0
 18 43  1  0
 21 44  1  0
M  CHG  2   3   1  15   1
M  END
>  <UniqueID>  (4) 
4

>  <SMILES>  (4) 
CC[NH2+]CCNc1c2ccc(Br)cc2[n+](C)c2cc(Br)cc(Br)c12

>  <Energy>  (4) 
75.7539875745225

>  <Genealogy>  (4) 
CC[NH2+]CCNc1c2ccc(Br)cc2[n+](C)c2cc(Br)cc(Br)c12 (protonated)
CC[NH2+]CCNc1c2ccc(Br)cc2[n+](C)c2cc(Br)cc(Br)c12 (3D coordinates assigned)
CC[NH2+]CCNc1c2ccc(Br)cc2[n+](C)c2cc(Br)cc(Br)c12 (optimized conformer: 75.7539875745225 kcal/mol)

>  <smiles>  (4) 
CCNCCNc1c2ccc(Br)cc2[n+](C)c2cc(Br)cc(Br)c12

>  <score_type>  (4) 
oracle

>  <origin>  (4) 
adg

>  <m_score__min__energy>  (4) 
-7.3399999999999999

>  <m_primary>  (4) 
energy

$$$$
4:0
     RDKit          3D

 32 32  0  0  0  0  0  0  0  0999 V2000
   -6.1484   25.1349  -29.8409 H   0  0  0  0  0  0  0  0  0  0  0  0
   -5.7250   24.5590  -30.6770 C   0  0  0  0  0  0  0  0  0  0  0  0
   -4.6140   24.9450  -31.2160 N   0  0  0  0  0  0  0  0  0  0  0  0
   -3.5080   25.1980  -30.4370 O   0  0  0  0  0  0  0  0  0  0  0  0
   -2.8840   24.1480  -29.7140 C   0  0  0  0  0  0  0  0  0  0  0  0
   -1.7926   24.2824  -29.7427 H   0  0  0  0  0  0  0  0  0  0  0  0
   -3.1492   23.1831  -30.1708 H   0  0  0  0  0  0  0  0  0  0  0  0
   -3.3580   24.1690  -28.2700 C   0  0  0  0  0  0  0  0  0  0  0  0
   -2.4880   24.1305  -27.5979 H   0  0  0  0  0  0  0  0  0  0  0  0
   -3.9247   25.0931  -28.0835 H   0  0  0  0  0  0  0  0  0  0  0  0
   -4.0042   23.2986  -28.0835 H   0  0  0  0  0  0  0  0  0  0  0  0
   -6.4350   23.3590  -31.1640 C   0  0  0  0  0  0  0  0  0  0  0  0
   -5.9710   22.6300  -32.2710 C   0  0  0  0  0  0  0  0  0  0  0  0
   -5.0580   22.9521  -32.7932 H   0  0  0  0  0  0  0  0  0  0  0  0
   -6.6610   21.4980  -32.7140 C   0  0  0  0  0  0  0  0  0  0  0  0
   -6.2855   20.9326  -33.5796 H   0  0  0  0  0  0  0  0  0  0  0  0
   -7.8350   21.0770  -32.0580 C   0  0  0  0  0  0  0  0  0  0  0  0
   -8.5750   19.9480  -32.4510 O   0  0  0  0  0  0  0  0  0  0  0  0
   -8.4090   18.6110  -31.9730 C   0  0  0  0  0  0  0  0  0  0  0  0
   -8.7360   18.5622  -30.9239 H   0  0  0  0  0  0  0  0  0  0  0  0
   -9.0140   17.9400  -32.6005 H   0  0  0  0  0  0  0  0  0  0  0  0
   -6.9430   18.1660  -32.0610 C   0  0  0  0  0  0  0  0  0  0  0  0
   -6.3031   19.0035  -31.7460 H   0  0  0  0  0  0  0  0  0  0  0  0
   -6.8256   17.2900  -31.4062 H   0  0  0  0  0  0  0  0  0  0  0  0
   -6.5310   17.7420  -33.4680 C   0  0  0  0  0  0  0  0  0  0  0  0
   -5.9441   16.8132  -33.4139 H   0  0  0  0  0  0  0  0  0  0  0  0
   -7.4306   17.5725  -34.0779 H   0  0  0  0  0  0  0  0  0  0  0  0
   -5.7650   18.7380  -34.0440 F   0  0  0  0  0  0  0  0  0  0  0  0
   -8.2890   21.8040  -30.9510 C   0  0  0  0  0  0  0  0  0  0  0  0
   -9.1992   21.4807  -30.4246 H   0  0  0  0  0  0  0  0  0  0  0  0
   -7.6000   22.9350  -30.5070 C   0  0  0  0  0  0  0  0  0  0  0  0
   -7.9728   23.4963  -29.6375 H   0  0  0  0  0  0  0  0  0  0  0  0
  1  2  1  0
  2  3  2  0
  3  4  1  0
  4  5  1  0
  5  6  1  0
  5  7  1  0
  5  8  1  0
  8  9  1  0
  8 10  1  0
  8 11  1  0
  2 12  1  0
 12 13  2  0
 13 14  1  0
 13 15  1  0
 15 16  1  0
 15 17  2  0
 17 18  1  0
 18 19  1  0
 19 20  1  0
 19 21  1  0
 19 22  1  0
 22 23  1  0
 22 24  1  0
 22 25  1  0
 25 26  1  0
 25 27  1  0
 25 28  1  0
 17 29  1  0
 29 30  1  0
 29 31  2  0
 31 32  1  0
 31 12  1  0
M  END
>  <UniqueID>  (5) 
5

>  <SMILES>  (5) 
CCO/N=C/c1ccc(OCCCF)cc1

>  <Energy>  (5) 
20.368712247871294

>  <Genealogy>  (5) 
CCO/N=C/c1ccc(OCCCF)cc1 (cis-trans isomerization)
CCO/N=C/c1ccc(OCCCF)cc1 (3D coordinates assigned)
CCO/N=C/c1ccc(OCCCF)cc1 (optimized conformer: 20.368712247871294 kcal/mol)

>  <smiles>  (5) 
CCON=Cc1ccc(OCCCF)cc1

>  <score_type>  (5) 
oracle

>  <origin>  (5) 
adg

>  <m_score__min__energy>  (5) 
-6.0800000000000001

>  <m_primary>  (5) 
energy

$$$$
5:0
     RDKit          3D

 54 58  0  0  0  0  0  0  0  0999 V2000
   -7.3840   18.1040  -31.5950 C   0  0  0  0  0  0  0  0  0  0  0  0
   -8.8200   18.6100  -31.4530 C   0  0  0  0  0  0  0  0  0  0  0  0
   -9.2870   19.3210  -32.6560 N   0  0  0  0  0  0  0  0  0  0  0  0
   -9.0880   20.7730  -32.5600 C   0  0  0  0  0  0  0  0  0  0  0  0
   -9.0750   21.2080  -31.0900 C   0  0  0  0  0  0  0  0  0  0  0  0
   -8.2090   22.4570  -30.8580 C   0  0  0  0  0  0  0  0  0  0  0  0
   -7.2360   22.6810  -31.9340 N   0  0  0  0  0  0  0  0  0  0  0  0
   -5.8140   22.4880  -31.7920 C   0  0  0  0  0  0  0  0  0  0  0  0
   -5.0380   23.3950  -31.0340 C   0  0  0  0  0  0  0  0  0  0  0  0
   -5.7570   25.0120  -30.3000 Br  0  0  0  0  0  0  0  0  0  0  0  0
   -3.6690   23.1720  -30.8580 C   0  0  0  0  0  0  0  0  0  0  0  0
   -3.0500   22.0710  -31.4400 C   0  0  0  0  0  0  0  0  0  0  0  0
   -3.7890   21.1800  -32.2280 C   0  0  0  0  0  0  0  0  0  0  0  0
   -3.1560   20.0880  -32.8290 C   0  0  0  0  0  0  0  0  0  0  0  0
   -3.8930   19.1980  -33.6290 C   0  0  0  0  0  0  0  0  0  0  0  0
   -5.2480   19.3830  -33.7740 N   0  0  0  0  0  0  0  0  0  0  0  0
   -5.8750   20.4620  -33.2150 C   0  0  0  0  0  0  0  0  0  0  0  0
   -5.1730   21.3850  -32.4180 C   0  0  0  0  0  0  0  0  0  0  0  0
   -6.0390   18.4710  -34.6200 C   0  0  0  0  0  0  0  0  0  0  0  0
   -5.5490   17.0250  -34.4920 C   0  0  0  0  0  0  0  0  0  0  0  0
   -4.0700   16.9570  -34.7290 C   0  0  0  0  0  0  0  0  0  0  0  0
   -3.5020   15.8160  -35.3390 C   0  0  0  0  0  0  0  0  0  0  0  0
   -2.1260   15.7940  -35.5220 C   0  0  0  0  0  0  0  0  0  0  0  0
   -1.3310   16.8190  -35.1290 C   0  0  0  0  0  0  0  0  0  0  0  0
   -1.8420   17.9550  -34.5090 C   0  0  0  0  0  0  0  0  0  0  0  0
   -3.2400   18.0240  -34.2820 C   0  0  0  0  0  0  0  0  0  0  0  0
   -0.0180   16.5320  -35.4480 O   0  0  0  0  0  0  0  0  0  0  0  0
    0.0130   15.2460  -36.0830 C   0  0  0  0  0  0  0  0  0  0  0  0
   -1.3520   14.8070  -36.1040 O   0  0  0  0  0  0  0  0  0  0  0  0
   -6.9488   17.9507  -30.5964 H   0  0  0  0  0  0  0  0  0  0  0  0
   -7.3836   17.1516  -32.1454 H   0  0  0  0  0  0  0  0  0  0  0  0
   -6.7866   18.8458  -32.1454 H   0  0  0  0  0  0  0  0  0  0  0  0
   -9.4813   17.7498  -31.2721 H   0  0  0  0  0  0  0  0  0  0  0  0
   -8.8436   19.3204  -30.6135 H   0  0  0  0  0  0  0  0  0  0  0  0
   -8.7810   18.9610  -33.4970 H   0  0  0  0  0  0  0  0  0  0  0  0
   -8.1284   21.0402  -33.0268 H   0  0  0  0  0  0  0  0  0  0  0  0
   -9.9124   21.2840  -33.0789 H   0  0  0  0  0  0  0  0  0  0  0  0
  -10.1062   21.4297  -30.7777 H   0  0  0  0  0  0  0  0  0  0  0  0
   -8.6441   20.3858  -30.4999 H   0  0  0  0  0  0  0  0  0  0  0  0
   -8.8685   23.3349  -30.7919 H   0  0  0  0  0  0  0  0  0  0  0  0
   -7.6441   22.3007  -29.9272 H   0  0  0  0  0  0  0  0  0  0  0  0
   -7.6140   22.8520  -32.8910 H   0  0  0  0  0  0  0  0  0  0  0  0
   -3.0759   23.8740  -30.2535 H   0  0  0  0  0  0  0  0  0  0  0  0
   -1.9752   21.8993  -31.2807 H   0  0  0  0  0  0  0  0  0  0  0  0
   -2.0790   19.9250  -32.6755 H   0  0  0  0  0  0  0  0  0  0  0  0
   -6.9503   20.6115  -33.3920 H   0  0  0  0  0  0  0  0  0  0  0  0
   -7.0936   18.5204  -34.3111 H   0  0  0  0  0  0  0  0  0  0  0  0
   -5.9247   18.7841  -35.6683 H   0  0  0  0  0  0  0  0  0  0  0  0
   -5.7725   16.6537  -33.4810 H   0  0  0  0  0  0  0  0  0  0  0  0
   -6.0617   16.4044  -35.2416 H   0  0  0  0  0  0  0  0  0  0  0  0
   -4.1304   14.9717  -35.6588 H   0  0  0  0  0  0  0  0  0  0  0  0
   -1.1791   18.7777  -34.2030 H   0  0  0  0  0  0  0  0  0  0  0  0
    0.4075   15.3300  -37.1064 H   0  0  0  0  0  0  0  0  0  0  0  0
    0.6654   14.5387  -35.5500 H   0  0  0  0  0  0  0  0  0  0  0  0
  1  2  1  0
  2  3  1  0
  3  4  1  0
  4  5  1  0
  5  6  1  0
  6  7  1  0
  7  8  1  0
  8  9  2  0
  9 10  1  0
  9 11  1  0
 11 12  2  0
 12 13  1  0
 13 14  2  0
 14 15  1  0
 15 16  2  0
 16 17  1  0
 17 18  2  0
 16 19  1  0
 19 20  1  0
 20 21  1  0
 21 22  2  0
 22 23  1  0
 23 24  2  0
 24 25  1  0
 25 26  2  0
 24 27  1  0
 27 28  1  0
 28 29  1  0
 18  8  1  0
 26 21  1  0
 18 13  1  0
 29 23  1  0
 26 15  1  0
  1 30  1  0
  1 31  1  0
  1 32  1  0
  2 33  1  0
  2 34  1  0
  3 35  1  0
  4 36  1  0
  4 37  1  0
  5 38  1  0
  5 39  1  0
  6 40  1  0
  6 41  1  0
  7 42  1  0
 11 43  1  0
 12 44  1  0
 14 45  1  0
 17 46  1  0
 19 47  1  0
 19 48  1  0
 20 49  1  0
 20 50  1  0
 22 51  1  0
 25 52  1  0
 28 53  1  0
 28 54  1  0
M  CHG  1  16   1
M  END
>  <UniqueID>  (6) 
6

>  <SMILES>  (6) 
CCNCCCNc1c(Br)ccc2cc3[n+](cc12)CCc1cc2c(cc1-3)OCO2

>  <Energy>  (6) 
96.10584515516175

>  <Genealogy>  (6) 
CCNCCCNc1c(Br)ccc2cc3[n+](cc12)CCc1cc2c(cc1-3)OCO2 (3D coordinates assigned)
CCNCCCNc1c(Br)ccc2cc3[n+](cc12)CCc1cc2c(cc1-3)OCO2 (nonaromatic ring conformer: 96.10584515516175 kcal/mol)

>  <smiles>  (6) 
CCNCCCNc1c(Br)ccc2cc3[n+](cc12)CCc1cc2c(cc1-3)OCO2

>  <score_type>  (6) 
oracle

>  <origin>  (6) 
adg

>  <m_score__min__energy>  (6) 
-9.1600000000000001

>  <m_primary>  (6) 
energy

$$$$
6:0
     RDKit          3D

 65 66  0  0  0  0  0  0  0  0999 V2000
   -5.7520   18.0320  -34.9100 C   0  0  0  0  0  0  0  0  0  0  0  0
   -5.2840   17.4850  -33.5560 C   0  0  0  0  0  0  0  0  0  0  0  0
   -5.0020   18.5560  -32.5690 N   0  0  0  0  0  0  0  0  0  0  0  0
   -6.0880   18.7990  -31.5850 C   0  0  0  0  0  0  0  0  0  0  0  0
   -7.2670   17.8180  -31.6680 C   0  0  0  0  0  0  0  0  0  0  0  0
   -4.6310   19.7900  -33.2430 C   0  0  0  0  0  0  0  0  0  0  0  0
   -5.4620   20.6720  -33.4230 O   0  0  0  0  0  0  0  0  0  0  0  0
   -3.2230   20.0110  -33.7400 C   0  0  0  0  0  0  0  0  0  0  0  0
   -2.6410   21.3120  -33.1710 C   0  0  0  0  0  0  0  0  0  0  0  0
   -1.3370   21.0670  -32.3770 C   0  0  0  0  0  0  0  0  0  0  0  0
   -1.5690   20.6670  -30.8970 C   0  0  0  0  0  0  0  0  0  0  0  0
   -3.0620   20.8820  -30.5010 C   0  0  0  0  0  0  0  0  0  0  0  0
   -3.2520   21.7890  -29.2780 C   0  0  0  0  0  0  0  0  0  0  0  0
   -2.4260   22.9990  -29.4180 N   0  0  0  0  0  0  0  0  0  0  0  0
   -2.9580   24.3270  -29.2140 C   0  0  0  0  0  0  0  0  0  0  0  0
   -2.1620   25.2820  -28.9880 O   0  0  0  0  0  0  0  0  0  0  0  0
   -4.4440   24.5940  -29.2470 C   0  0  0  0  0  0  0  0  0  0  0  0
   -5.0020   24.6960  -30.6740 C   0  0  0  0  0  0  0  0  0  0  0  0
   -6.1040   23.6910  -30.8800 C   0  0  0  0  0  0  0  0  0  0  0  0
   -6.5330   23.3650  -32.1760 C   0  0  0  0  0  0  0  0  0  0  0  0
   -7.5820   22.4600  -32.3670 C   0  0  0  0  0  0  0  0  0  0  0  0
   -8.2250   21.8740  -31.2600 C   0  0  0  0  0  0  0  0  0  0  0  0
   -9.2800   20.9610  -31.3990 O   0  0  0  0  0  0  0  0  0  0  0  0
   -9.4280   20.0640  -32.4960 C   0  0  0  0  0  0  0  0  0  0  0  0
   -7.8010   22.2110  -29.9690 C   0  0  0  0  0  0  0  0  0  0  0  0
   -6.7550   23.1150  -29.7770 C   0  0  0  0  0  0  0  0  0  0  0  0
   -0.9890   22.8490  -29.7010 C   0  0  0  0  0  0  0  0  0  0  0  0
   -0.5990   21.3800  -29.9230 C   0  0  0  0  0  0  0  0  0  0  0  0
   -6.4592   18.8586  -34.7469 H   0  0  0  0  0  0  0  0  0  0  0  0
   -4.8838   18.3988  -35.4772 H   0  0  0  0  0  0  0  0  0  0  0  0
   -6.2487   17.2310  -35.4772 H   0  0  0  0  0  0  0  0  0  0  0  0
   -6.0704   16.8315  -33.1503 H   0  0  0  0  0  0  0  0  0  0  0  0
   -4.3456   16.9371  -33.7269 H   0  0  0  0  0  0  0  0  0  0  0  0
   -4.1720   18.2370  -32.0150 H   0  0  0  0  0  0  0  0  0  0  0  0
   -5.6563   18.7299  -30.5756 H   0  0  0  0  0  0  0  0  0  0  0  0
   -6.4972   19.7935  -31.8163 H   0  0  0  0  0  0  0  0  0  0  0  0
   -7.5915   17.5480  -30.6522 H   0  0  0  0  0  0  0  0  0  0  0  0
   -8.1014   18.2921  -32.2056 H   0  0  0  0  0  0  0  0  0  0  0  0
   -6.9524   16.9113  -32.2056 H   0  0  0  0  0  0  0  0  0  0  0  0
   -2.5928   19.1662  -33.4251 H   0  0  0  0  0  0  0  0  0  0  0  0
   -3.2445   20.0852  -34.8373 H   0  0  0  0  0  0  0  0  0  0  0  0
   -2.4259   21.9983  -34.0033 H   0  0  0  0  0  0  0  0  0  0  0  0
   -3.3822   21.7416  -32.4811 H   0  0  0  0  0  0  0  0  0  0  0  0
   -0.7774   20.2588  -32.8707 H   0  0  0  0  0  0  0  0  0  0  0  0
   -0.7848   22.0183  -32.3681 H   0  0  0  0  0  0  0  0  0  0  0  0
   -1.3419   19.5944  -30.8073 H   0  0  0  0  0  0  0  0  0  0  0  0
   -3.5857   21.3365  -31.3549 H   0  0  0  0  0  0  0  0  0  0  0  0
   -3.4691   19.8952  -30.2354 H   0  0  0  0  0  0  0  0  0  0  0  0
   -4.3106   22.0773  -29.1988 H   0  0  0  0  0  0  0  0  0  0  0  0
   -2.9459   21.2445  -28.3725 H   0  0  0  0  0  0  0  0  0  0  0  0
   -4.9595   23.7735  -28.7265 H   0  0  0  0  0  0  0  0  0  0  0  0
   -4.6159   25.5630  -28.7556 H   0  0  0  0  0  0  0  0  0  0  0  0
   -5.4001   25.7086  -30.8360 H   0  0  0  0  0  0  0  0  0  0  0  0
   -4.1923   24.4891  -31.3893 H   0  0  0  0  0  0  0  0  0  0  0  0
   -6.0413   23.8239  -33.0464 H   0  0  0  0  0  0  0  0  0  0  0  0
   -7.9062   22.2049  -33.3867 H   0  0  0  0  0  0  0  0  0  0  0  0
   -9.5961   19.0453  -32.1165 H   0  0  0  0  0  0  0  0  0  0  0  0
  -10.2873   20.3733  -33.1092 H   0  0  0  0  0  0  0  0  0  0  0  0
   -8.5149   20.0809  -33.1092 H   0  0  0  0  0  0  0  0  0  0  0  0
   -8.2970   21.7589  -29.0975 H   0  0  0  0  0  0  0  0  0  0  0  0
   -6.4390   23.3776  -28.7566 H   0  0  0  0  0  0  0  0  0  0  0  0
   -0.7431   23.4229  -30.6066 H   0  0  0  0  0  0  0  0  0  0  0  0
   -0.4295   23.2224  -28.8307 H   0  0  0  0  0  0  0  0  0  0  0  0
    0.4176   21.3411  -30.3413 H   0  0  0  0  0  0  0  0  0  0  0  0
   -0.6483   20.8634  -28.9531 H   0  0  0  0  0  0  0  0  0  0  0  0
  1  2  1  0
  2  3  1  0
  3  4  1  0
  4  5  1  0
  3  6  1  0
  6  7  2  0
  6  8  1  0
  8  9  1  0
  9 10  1  0
 10 11  1  0
 11 12  1  0
 12 13  1  0
 13 14  1  0
 14 15  1  0
 15 16  2  0
 15 17  1  0
 17 18  1  0
 18 19  1  0
 19 20  2  0
 20 21  1  0
 21 22  2  0
 22 23  1  0
 23 24  1  0
 22 25  1  0
 25 26  2  0
 14 27  1  0
 27 28  1  0
 28 11  1  0
 26 19  1  0
  1 29  1  0
  1 30  1  0
  1 31  1  0
  2 32  1  0
  2 33  1  0
  3 34  1  0
  4 35  1  0
  4 36  1  0
  5 37  1  0
  5 38  1  0
  5 39  1  0
  8 40  1  0
  8 41  1  0
  9 42  1  0
  9 43  1  0
 10 44  1  0
 10 45  1  0
 11 46  1  0
 12 47  1  0
 12 48  1  0
 13 49  1  0
 13 50  1  0
 17 51  1  0
 17 52  1  0
 18 53  1  0
 18 54  1  0
 20 55  1  0
 21 56  1  0
 24 57  1  0
 24 58  1  0
 24 59  1  0
 25 60  1  0
 26 61  1  0
 27 62  1  0
 27 63  1  0
 28 64  1  0
 28 65  1  0
M  CHG  1   3   1
M  END
>  <UniqueID>  (7) 
7

>  <SMILES>  (7) 
CC[NH+](CC)C(=O)CCCC1CCN(C(=O)CCc2ccc(OC)cc2)CC1

>  <Energy>  (7) 
63.22731996891771

>  <Genealogy>  (7) 
CC[NH+](CC)C(=O)CCCC1CCN(C(=O)CCc2ccc(OC)cc2)CC1 (protonated)
CC[NH+](CC)C(=O)CCCC1CCN(C(=O)CCc2ccc(OC)cc2)CC1 (3D coordinates assigned)
CC[NH+](CC)C(=O)CCCC1CCN(C(=O)CCc2ccc(OC)cc2)CC1 (nonaromatic ring conformer: 63.22731996891771 kcal/mol)

>  <smiles>  (7) 
CCN(CC)C(=O)CCCC1CCN(C(=O)CCc2ccc(OC)cc2)CC1

>  <score_type>  (7) 
oracle

>  <origin>  (7) 
adg

>  <m_score__min__energy>  (7) 
-8.0800000000000001

>  <m_primary>  (7) 
energy

$$$$
7:0
     RDKit          3D

 50 53  0  0  0  0  0  0  0  0999 V2000
   -9.2780   22.1520  -31.7720 C   0  0  0  0  0  0  0  0  0  0  0  0
   -7.8700   22.5240  -31.8850 N   0  0  0  0  0  0  0  0  0  0  0  0
   -7.3820   23.7210  -31.5900 N   0  0  0  0  0  0  0  0  0  0  0  0
   -6.0490   23.7260  -31.8130 C   0  0  0  0  0  0  0  0  0  0  0  0
   -5.2680   24.8720  -31.5900 O   0  0  0  0  0  0  0  0  0  0  0  0
   -5.3210   25.7230  -30.4500 C   0  0  0  0  0  0  0  0  0  0  0  0
   -5.7680   24.9390  -29.2080 C   0  0  0  0  0  0  0  0  0  0  0  0
   -4.5860   24.2730  -28.4940 C   0  0  0  0  0  0  0  0  0  0  0  0
   -3.4010   24.1880  -29.3710 N   0  0  0  0  0  0  0  0  0  0  0  0
   -2.1570   24.5690  -28.6890 C   0  0  0  0  0  0  0  0  0  0  0  0
   -1.0270   23.7890  -29.3500 C   0  0  0  0  0  0  0  0  0  0  0  0
   -1.7040   22.7110  -30.1790 C   0  0  0  0  0  0  0  0  0  0  0  0
   -3.1790   22.8190  -29.8400 C   0  0  0  0  0  0  0  0  0  0  0  0
   -5.6800   22.4600  -32.2790 C   0  0  0  0  0  0  0  0  0  0  0  0
   -4.4750   21.8740  -32.6790 C   0  0  0  0  0  0  0  0  0  0  0  0
   -4.4980   20.5360  -33.1070 C   0  0  0  0  0  0  0  0  0  0  0  0
   -5.7080   19.7940  -33.1340 C   0  0  0  0  0  0  0  0  0  0  0  0
   -5.7140   18.3810  -33.5890 C   0  0  0  0  0  0  0  0  0  0  0  0
   -6.8420   17.5670  -33.3860 C   0  0  0  0  0  0  0  0  0  0  0  0
   -6.8260   16.2400  -33.8220 C   0  0  0  0  0  0  0  0  0  0  0  0
   -5.7250   15.7380  -34.4400 N   0  0  0  0  0  0  0  0  0  0  0  0
   -4.6190   16.4980  -34.6520 C   0  0  0  0  0  0  0  0  0  0  0  0
   -4.5910   17.8290  -34.2320 C   0  0  0  0  0  0  0  0  0  0  0  0
   -6.9090   20.4170  -32.7250 C   0  0  0  0  0  0  0  0  0  0  0  0
   -6.8550   21.7460  -32.3050 C   0  0  0  0  0  0  0  0  0  0  0  0
   -9.5539   22.0791  -30.7097 H   0  0  0  0  0  0  0  0  0  0  0  0
   -9.8996   22.9167  -32.2606 H   0  0  0  0  0  0  0  0  0  0  0  0
   -9.4408   21.1800  -32.2606 H   0  0  0  0  0  0  0  0  0  0  0  0
   -7.9470   24.5280  -31.2420 H   0  0  0  0  0  0  0  0  0  0  0  0
   -4.3223   26.1471  -30.2692 H   0  0  0  0  0  0  0  0  0  0  0  0
   -6.0477   26.5262  -30.6417 H   0  0  0  0  0  0  0  0  0  0  0  0
   -6.2609   25.6311  -28.5094 H   0  0  0  0  0  0  0  0  0  0  0  0
   -6.4574   24.1470  -29.5357 H   0  0  0  0  0  0  0  0  0  0  0  0
   -4.3288   24.8632  -27.6021 H   0  0  0  0  0  0  0  0  0  0  0  0
   -4.8829   23.2510  -28.2156 H   0  0  0  0  0  0  0  0  0  0  0  0
   -1.9831   25.6498  -28.7971 H   0  0  0  0  0  0  0  0  0  0  0  0
   -2.2139   24.3411  -27.6144 H   0  0  0  0  0  0  0  0  0  0  0  0
   -0.4298   24.4506  -29.9947 H   0  0  0  0  0  0  0  0  0  0  0  0
   -0.3404   23.3588  -28.6061 H   0  0  0  0  0  0  0  0  0  0  0  0
   -1.5404   22.8894  -31.2520 H   0  0  0  0  0  0  0  0  0  0  0  0
   -1.3032   21.7103  -29.9600 H   0  0  0  0  0  0  0  0  0  0  0  0
   -3.7893   22.6201  -30.7333 H   0  0  0  0  0  0  0  0  0  0  0  0
   -3.4643   22.0852  -29.0718 H   0  0  0  0  0  0  0  0  0  0  0  0
   -3.5350   22.4449  -32.6591 H   0  0  0  0  0  0  0  0  0  0  0  0
   -3.5619   20.0549  -33.4268 H   0  0  0  0  0  0  0  0  0  0  0  0
   -7.7335   17.9733  -32.8859 H   0  0  0  0  0  0  0  0  0  0  0  0
   -7.7067   15.6000  -33.6647 H   0  0  0  0  0  0  0  0  0  0  0  0
   -3.7432   16.0633  -35.1560 H   0  0  0  0  0  0  0  0  0  0  0  0
   -3.6948   18.4435  -34.4030 H   0  0  0  0  0  0  0  0  0  0  0  0
   -7.8620   19.8678  -32.7376 H   0  0  0  0  0  0  0  0  0  0  0  0
  1  2  1  0
  2  3  1  0
  3  4  2  0
  4  5  1  0
  5  6  1  0
  6  7  1  0
  7  8  1  0
  8  9  1  0
  9 10  1  0
 10 11  1  0
 11 12  1  0
 12 13  1  0
  4 14  1  0
 14 15  2  0
 15 16  1  0
 16 17  2  0
 17 18  1  0
 18 19  2  0
 19 20  1  0
 20 21  2  0
 21 22  1  0
 22 23  2  0
 17 24  1  0
 24 25  2  0
 25  2  1  0
 13  9  1  0
 25 14  1  0
 23 18  1  0
  1 26  1  0
  1 27  1  0
  1 28  1  0
  3 29  1  0
  6 30  1  0
  6 31  1  0
  7 32  1  0
  7 33  1  0
  8 34  1  0
  8 35  1  0
 10 36  1  0
 10 37  1  0
 11 38  1  0
 11 39  1  0
 12 40  1  0
 12 41  1  0
 13 42  1  0
 13 43  1  0
 15 44  1  0
 16 45  1  0
 19 46  1  0
 20 47  1  0
 22 48  1  0
 23 49  1  0
 24 50  1  0
M  CHG  1   3   1
M  END
>  <UniqueID>  (8) 
8

>  <SMILES>  (8) 
Cn1[nH+]c(OCCCN2CCCC2)c2ccc(-c3ccncc3)cc21

>  <Energy>  (8) 
99.12309202362547

>  <Genealogy>  (8) 
Cn1[nH+]c(OCCCN2CCCC2)c2ccc(-c3ccncc3)cc21 (protonated)
Cn1[nH+]c(OCCCN2CCCC2)c2ccc(-c3ccncc3)cc21 (3D coordinates assigned)
Cn1[nH+]c(OCCCN2CCCC2)c2ccc(-c3ccncc3)cc21 (nonaromatic ring conformer: 99.12309202362547 kcal/mol)

>  <smiles>  (8) 
Cn1nc(OCCCN2CCCC2)c2ccc(-c3ccncc3)cc21

>  <score_type>  (8) 
oracle

>  <origin>  (8) 
adg

>  <m_score__min__energy>  (8) 
-7.8099999999999996

>  <m_primary>  (8) 
energy

$$$$
8:0
     RDKit          3D

 56 58  0  0  0  0  0  0  0  0999 V2000
    0.6990   23.9840  -36.0640 C   0  0  0  0  0  0  0  0  0  0  0  0
    1.3660   22.6560  -35.7440 C   0  0  0  0  0  0  0  0  0  0  0  0
    0.6280   21.9970  -34.7360 O   0  0  0  0  0  0  0  0  0  0  0  0
   -0.0880   20.9030  -35.2780 C   0  0  0  0  0  0  0  0  0  0  0  0
   -1.0570   20.3390  -34.2370 C   0  0  0  0  0  0  0  0  0  0  0  0
   -0.4510   20.3970  -32.9020 N   0  0  0  0  0  0  0  0  0  0  0  0
   -1.0510   21.4810  -32.1160 C   0  0  0  0  0  0  0  0  0  0  0  0
   -2.5460   21.3240  -32.0950 C   0  0  0  0  0  0  0  0  0  0  0  0
   -3.1700   20.6320  -31.0460 C   0  0  0  0  0  0  0  0  0  0  0  0
   -4.5630   20.5150  -31.0070 C   0  0  0  0  0  0  0  0  0  0  0  0
   -5.3480   21.0900  -32.0170 C   0  0  0  0  0  0  0  0  0  0  0  0
   -6.8200   20.9750  -31.9660 C   0  0  0  0  0  0  0  0  0  0  0  0
   -7.5650   22.1520  -31.7910 C   0  0  0  0  0  0  0  0  0  0  0  0
   -8.9580   22.1180  -31.7920 C   0  0  0  0  0  0  0  0  0  0  0  0
   -9.6230   20.9080  -31.9720 C   0  0  0  0  0  0  0  0  0  0  0  0
   -8.8990   19.7260  -32.1350 C   0  0  0  0  0  0  0  0  0  0  0  0
   -7.4920   19.7300  -32.1110 C   0  0  0  0  0  0  0  0  0  0  0  0
   -6.5840   18.1980  -32.2640 S   0  0  0  0  0  0  0  0  0  0  0  0
   -7.5010   17.1510  -32.8310 O   0  0  0  0  0  0  0  0  0  0  0  0
   -6.1550   17.7620  -30.8900 O   0  0  0  0  0  0  0  0  0  0  0  0
   -5.1740   18.2510  -33.3060 N   0  0  0  0  0  0  0  0  0  0  0  0
   -4.1760   17.2150  -32.9870 C   0  0  0  0  0  0  0  0  0  0  0  0
   -3.7770   16.5300  -34.2890 C   0  0  0  0  0  0  0  0  0  0  0  0
   -4.3930   17.3640  -35.3950 C   0  0  0  0  0  0  0  0  0  0  0  0
   -5.5170   18.1350  -34.7290 C   0  0  0  0  0  0  0  0  0  0  0  0
   -4.7280   21.8100  -33.0480 C   0  0  0  0  0  0  0  0  0  0  0  0
   -3.3360   21.9270  -33.0870 C   0  0  0  0  0  0  0  0  0  0  0  0
    0.4401   24.4994  -35.1273 H   0  0  0  0  0  0  0  0  0  0  0  0
    1.3897   24.6099  -36.6481 H   0  0  0  0  0  0  0  0  0  0  0  0
   -0.2155   23.8037  -36.6481 H   0  0  0  0  0  0  0  0  0  0  0  0
    1.3934   22.0306  -36.6485 H   0  0  0  0  0  0  0  0  0  0  0  0
    2.3936   22.8333  -35.3938 H   0  0  0  0  0  0  0  0  0  0  0  0
   -0.6556   21.2401  -36.1579 H   0  0  0  0  0  0  0  0  0  0  0  0
    0.6239   20.1167  -35.5694 H   0  0  0  0  0  0  0  0  0  0  0  0
   -1.9831   20.9326  -34.2425 H   0  0  0  0  0  0  0  0  0  0  0  0
   -1.2830   19.2914  -34.4851 H   0  0  0  0  0  0  0  0  0  0  0  0
    0.5670   20.6150  -33.0210 H   0  0  0  0  0  0  0  0  0  0  0  0
   -0.6649   21.4433  -31.0867 H   0  0  0  0  0  0  0  0  0  0  0  0
   -0.7926   22.4480  -32.5723 H   0  0  0  0  0  0  0  0  0  0  0  0
   -2.5604   20.1792  -30.2502 H   0  0  0  0  0  0  0  0  0  0  0  0
   -5.0445   19.9703  -30.1815 H   0  0  0  0  0  0  0  0  0  0  0  0
   -7.0438   23.1106  -31.6517 H   0  0  0  0  0  0  0  0  0  0  0  0
   -9.5316   23.0459  -31.6508 H   0  0  0  0  0  0  0  0  0  0  0  0
  -10.7226   20.8836  -31.9858 H   0  0  0  0  0  0  0  0  0  0  0  0
   -9.4359   18.7776  -32.2844 H   0  0  0  0  0  0  0  0  0  0  0  0
   -4.7280   19.1890  -33.1620 H   0  0  0  0  0  0  0  0  0  0  0  0
   -3.2927   17.6777  -32.5225 H   0  0  0  0  0  0  0  0  0  0  0  0
   -4.5969   16.4824  -32.2826 H   0  0  0  0  0  0  0  0  0  0  0  0
   -2.6819   16.5066  -34.3905 H   0  0  0  0  0  0  0  0  0  0  0  0
   -4.1260   15.4874  -34.3235 H   0  0  0  0  0  0  0  0  0  0  0  0
   -3.6487   18.0546  -35.8181 H   0  0  0  0  0  0  0  0  0  0  0  0
   -4.7559   16.7423  -36.2267 H   0  0  0  0  0  0  0  0  0  0  0  0
   -5.6073   19.1349  -35.1785 H   0  0  0  0  0  0  0  0  0  0  0  0
   -6.4790   17.6179  -34.8599 H   0  0  0  0  0  0  0  0  0  0  0  0
   -5.3397   22.2847  -33.8293 H   0  0  0  0  0  0  0  0  0  0  0  0
   -2.8569   22.4942  -33.8987 H   0  0  0  0  0  0  0  0  0  0  0  0
  1  2  1  0
  2  3  1  0
  3  4  1  0
  4  5  1  0
  5  6  1  0
  6  7  1  0
  7  8  1  0
  8  9  2  0
  9 10  1  0
 10 11  2  0
 11 12  1  0
 12 13  2  0
 13 14  1  0
 14 15  2  0
 15 16  1  0
 16 17  2  0
 17 18  1  0
 18 19  2  0
 18 20  2  0
 18 21  1  0
 21 22  1  0
 22 23  1  0
 23 24  1  0
 24 25  1  0
 11 26  1  0
 26 27  2  0
 27  8  1  0
 17 12  1  0
 25 21  1  0
  1 28  1  0
  1 29  1  0
  1 30  1  0
  2 31  1  0
  2 32  1  0
  4 33  1  0
  4 34  1  0
  5 35  1  0
  5 36  1  0
  6 37  1  0
  7 38  1  0
  7 39  1  0
  9 40  1  0
 10 41  1  0
 13 42  1  0
 14 43  1  0
 15 44  1  0
 16 45  1  0
 21 46  1  0
 22 47  1  0
 22 48  1  0
 23 49  1  0
 23 50  1  0
 24 51  1  0
 24 52  1  0
 25 53  1  0
 25 54  1  0
 26 55  1  0
 27 56  1  0
M  CHG  1  21   1
M  END
>  <UniqueID>  (9) 
9

>  <SMILES>  (9) 
CCOCCNCc1ccc(-c2ccccc2S(=O)(=O)[NH+]2CCCC2)cc1

>  <Energy>  (9) 
65.26581991507506

>  <Genealogy>  (9) 
CCOCCNCc1ccc(-c2ccccc2S(=O)(=O)[NH+]2CCCC2)cc1 (protonated)
CCOCCNCc1ccc(-c2ccccc2S(=O)(=O)[NH+]2CCCC2)cc1 (3D coordinates assigned)
CCOCCNCc1ccc(-c2ccccc2S(=O)(=O)[NH+]2CCCC2)cc1 (nonaromatic ring conformer: 65.26581991507506 kcal/mol)

>  <smiles>  (9) 
CCOCCNCc1ccc(-c2ccccc2S(=O)(=O)N2CCCC2)cc1

>  <score_type>  (9) 
oracle

>  <origin>  (9) 
adg

>  <m_score__min__energy>  (9) 
-8.3100000000000005

>  <m_primary>  (9) 
energy

$$$$
9:0
     RDKit          3D

 52 55  0  0  0  0  0  0  0  0999 V2000
   -0.6440   24.3160  -25.4010 C   0  0  0  0  0  0  0  0  0  0  0  0
   -1.6970   25.3700  -25.7890 C   0  0  1  0  0  0  0  0  0  0  0  0
   -1.5690   26.6130  -24.9050 C   0  0  0  0  0  0  0  0  0  0  0  0
   -0.7990   27.6360  -25.7380 C   0  0  0  0  0  0  0  0  0  0  0  0
   -0.6140   27.0030  -27.1130 C   0  0  0  0  0  0  0  0  0  0  0  0
   -1.5420   25.8750  -27.1600 N   0  0  0  0  0  0  0  0  0  0  0  0
   -1.4240   24.8960  -28.2640 C   0  0  0  0  0  0  0  0  0  0  0  0
   -2.3130   23.6440  -28.1260 C   0  0  0  0  0  0  0  0  0  0  0  0
   -3.3390   23.6070  -29.2260 C   0  0  0  0  0  0  0  0  0  0  0  0
   -3.1260   22.8130  -30.3630 C   0  0  0  0  0  0  0  0  0  0  0  0
   -4.0950   22.7450  -31.3690 C   0  0  0  0  0  0  0  0  0  0  0  0
   -5.3020   23.4530  -31.2420 C   0  0  0  0  0  0  0  0  0  0  0  0
   -6.3440   23.3830  -32.3300 C   0  0  0  0  0  0  0  0  0  0  0  0
   -7.2730   22.2010  -32.1300 C   0  0  0  0  0  0  0  0  0  0  0  0
   -8.5400   22.4410  -31.5660 C   0  0  0  0  0  0  0  0  0  0  0  0
   -9.4520   21.4040  -31.3840 C   0  0  0  0  0  0  0  0  0  0  0  0
   -9.1260   20.1060  -31.7640 C   0  0  0  0  0  0  0  0  0  0  0  0
   -7.8760   19.8300  -32.3330 C   0  0  0  0  0  0  0  0  0  0  0  0
   -7.5590   18.5170  -32.7170 C   0  0  0  0  0  0  0  0  0  0  0  0
   -6.3190   18.2300  -33.2870 C   0  0  0  0  0  0  0  0  0  0  0  0
   -5.3840   19.2470  -33.4770 C   0  0  0  0  0  0  0  0  0  0  0  0
   -5.6830   20.5590  -33.1000 C   0  0  0  0  0  0  0  0  0  0  0  0
   -6.9320   20.8760  -32.5230 C   0  0  0  0  0  0  0  0  0  0  0  0
   -5.5100   24.2520  -30.1050 C   0  0  0  0  0  0  0  0  0  0  0  0
   -4.5410   24.3190  -29.1000 C   0  0  0  0  0  0  0  0  0  0  0  0
   -0.5779   24.2499  -24.3050 H   0  0  0  0  0  0  0  0  0  0  0  0
   -0.9362   23.3377  -25.8104 H   0  0  0  0  0  0  0  0  0  0  0  0
    0.3345   24.6073  -25.8104 H   0  0  0  0  0  0  0  0  0  0  0  0
   -2.6598   24.8504  -25.6748 H   0  0  0  0  0  0  0  0  0  0  0  0
   -2.5643   27.0021  -24.6441 H   0  0  0  0  0  0  0  0  0  0  0  0
   -1.0524   26.3876  -23.9604 H   0  0  0  0  0  0  0  0  0  0  0  0
   -1.3727   28.5709  -25.8214 H   0  0  0  0  0  0  0  0  0  0  0  0
    0.1673   27.8870  -25.2762 H   0  0  0  0  0  0  0  0  0  0  0  0
   -0.8530   27.7289  -27.9042 H   0  0  0  0  0  0  0  0  0  0  0  0
    0.4250   26.6795  -27.2733 H   0  0  0  0  0  0  0  0  0  0  0  0
   -1.6950   25.4047  -29.2009 H   0  0  0  0  0  0  0  0  0  0  0  0
   -0.3844   24.5370  -28.2451 H   0  0  0  0  0  0  0  0  0  0  0  0
   -1.6837   22.7438  -28.1866 H   0  0  0  0  0  0  0  0  0  0  0  0
   -2.8303   23.6782  -27.1558 H   0  0  0  0  0  0  0  0  0  0  0  0
   -2.1918   22.2410  -30.4636 H   0  0  0  0  0  0  0  0  0  0  0  0
   -3.9112   22.1337  -32.2649 H   0  0  0  0  0  0  0  0  0  0  0  0
   -6.9363   24.3099  -32.3187 H   0  0  0  0  0  0  0  0  0  0  0  0
   -5.8300   23.2605  -33.2948 H   0  0  0  0  0  0  0  0  0  0  0  0
   -8.8141   23.4627  -31.2644 H   0  0  0  0  0  0  0  0  0  0  0  0
  -10.4354   21.6125  -30.9374 H   0  0  0  0  0  0  0  0  0  0  0  0
   -9.8526   19.2933  -31.6171 H   0  0  0  0  0  0  0  0  0  0  0  0
   -8.2924   17.7109  -32.5675 H   0  0  0  0  0  0  0  0  0  0  0  0
   -6.0780   17.1996  -33.5873 H   0  0  0  0  0  0  0  0  0  0  0  0
   -4.4067   19.0154  -33.9257 H   0  0  0  0  0  0  0  0  0  0  0  0
   -4.9375   21.3530  -33.2544 H   0  0  0  0  0  0  0  0  0  0  0  0
   -6.4415   24.8285  -30.0052 H   0  0  0  0  0  0  0  0  0  0  0  0
   -4.7219   24.9333  -28.2056 H   0  0  0  0  0  0  0  0  0  0  0  0
  1  2  1  0
  2  3  1  0
  3  4  1  0
  4  5  1  0
  5  6  1  0
  6  7  1  0
  7  8  1  0
  8  9  1  0
  9 10  2  0
 10 11  1  0
 11 12  2  0
 12 13  1  0
 13 14  1  0
 14 15  2  0
 15 16  1  0
 16 17  2  0
 17 18  1  0
 18 19  2  0
 19 20  1  0
 20 21  2  0
 21 22  1  0
 22 23  2  0
 12 24  1  0
 24 25  2  0
  6  2  1  0
 25  9  1  0
 23 14  1  0
 23 18  1  0
  1 26  1  0
  1 27  1  0
  1 28  1  0
  2 29  1  6
  3 30  1  0
  3 31  1  0
  4 32  1  0
  4 33  1  0
  5 34  1  0
  5 35  1  0
  7 36  1  0
  7 37  1  0
  8 38  1  0
  8 39  1  0
 10 40  1  0
 11 41  1  0
 13 42  1  0
 13 43  1  0
 15 44  1  0
 16 45  1  0
 17 46  1  0
 19 47  1  0
 20 48  1  0
 21 49  1  0
 22 50  1  0
 24 51  1  0
 25 52  1  0
M  END
>  <UniqueID>  (10) 
10

>  <SMILES>  (10) 
C[C@H]1CCCN1CCc1ccc(Cc2cccc3ccccc23)cc1

>  <Energy>  (10) 
69.57762412459681

>  <Genealogy>  (10) 
C[C@H]1CCCN1CCc1ccc(Cc2cccc3ccccc23)cc1 (chirality)
C[C@H]1CCCN1CCc1ccc(Cc2cccc3ccccc23)cc1 (3D coordinates assigned)
C[C@H]1CCCN1CCc1ccc(Cc2cccc3ccccc23)cc1 (nonaromatic ring conformer: 69.57762412459681 kcal/mol)

>  <smiles>  (10) 
CC1CCCN1CCc1ccc(Cc2cccc3ccccc23)cc1

>  <score_type>  (10) 
oracle

>  <origin>  (10) 
adg

>  <m_score__min__energy>  (10) 
-9.6400000000000006

>  <m_primary>  (10) 
energy

$$$$
10:0
     RDKit          3D

 42 43  0  0  0  0  0  0  0  0999 V2000
   -4.2200   24.9190  -26.4310 C   0  0  0  0  0  0  0  0  0  0  0  0
   -3.8710   23.7600  -27.3630 C   0  0  0  0  0  0  0  0  0  0  0  0
   -4.6870   23.7630  -28.6610 C   0  0  0  0  0  0  0  0  0  0  0  0
   -3.7360   24.2700  -30.0960 S   0  0  0  0  0  0  0  0  0  0  0  0
   -2.4620   24.9230  -29.6360 O   0  0  0  0  0  0  0  0  0  0  0  0
   -4.5140   25.2820  -30.8890 O   0  0  0  0  0  0  0  0  0  0  0  0
   -3.3720   22.8730  -31.1300 C   0  0  0  0  0  0  0  0  0  0  0  0
   -2.1250   22.2430  -30.9770 C   0  0  0  0  0  0  0  0  0  0  0  0
   -1.7810   21.1390  -31.7540 C   0  0  0  0  0  0  0  0  0  0  0  0
   -2.6730   20.6510  -32.7040 C   0  0  0  0  0  0  0  0  0  0  0  0
   -3.9130   21.2640  -32.8800 C   0  0  0  0  0  0  0  0  0  0  0  0
   -4.2910   22.3760  -32.0960 C   0  0  0  0  0  0  0  0  0  0  0  0
   -5.5790   23.0060  -32.2950 N   0  0  0  0  0  0  0  0  0  0  0  0
   -6.6910   22.9730  -31.3400 C   0  0  0  0  0  0  0  0  0  0  0  0
   -7.9680   22.3880  -31.9640 C   0  0  0  0  0  0  0  0  0  0  0  0
   -7.8880   20.8910  -32.1330 C   0  0  0  0  0  0  0  0  0  0  0  0
   -8.7570   20.0490  -31.4180 C   0  0  0  0  0  0  0  0  0  0  0  0
   -8.6730   18.6610  -31.5650 C   0  0  0  0  0  0  0  0  0  0  0  0
   -7.7280   18.1040  -32.4320 C   0  0  0  0  0  0  0  0  0  0  0  0
   -6.8690   18.9340  -33.1550 C   0  0  0  0  0  0  0  0  0  0  0  0
   -6.9440   20.3230  -33.0050 C   0  0  0  0  0  0  0  0  0  0  0  0
   -4.1213   24.5913  -25.3856 H   0  0  0  0  0  0  0  0  0  0  0  0
   -3.5350   25.7591  -26.6182 H   0  0  0  0  0  0  0  0  0  0  0  0
   -5.2550   25.2411  -26.6182 H   0  0  0  0  0  0  0  0  0  0  0  0
   -2.8037   23.8276  -27.6207 H   0  0  0  0  0  0  0  0  0  0  0  0
   -4.1086   22.8280  -26.8293 H   0  0  0  0  0  0  0  0  0  0  0  0
   -5.0681   22.7461  -28.8362 H   0  0  0  0  0  0  0  0  0  0  0  0
   -5.4992   24.4938  -28.5336 H   0  0  0  0  0  0  0  0  0  0  0  0
   -1.4109   22.6269  -30.2336 H   0  0  0  0  0  0  0  0  0  0  0  0
   -0.8039   20.6529  -31.6165 H   0  0  0  0  0  0  0  0  0  0  0  0
   -2.3994   19.7799  -33.3174 H   0  0  0  0  0  0  0  0  0  0  0  0
   -4.6066   20.8758  -33.6404 H   0  0  0  0  0  0  0  0  0  0  0  0
   -5.7830   23.4950  -33.1910 H   0  0  0  0  0  0  0  0  0  0  0  0
   -6.4009   22.3539  -30.4783 H   0  0  0  0  0  0  0  0  0  0  0  0
   -6.9058   24.0070  -31.0324 H   0  0  0  0  0  0  0  0  0  0  0  0
   -8.8214   22.6254  -31.3117 H   0  0  0  0  0  0  0  0  0  0  0  0
   -8.0897   22.8336  -32.9623 H   0  0  0  0  0  0  0  0  0  0  0  0
   -9.5063   20.4837  -30.7400 H   0  0  0  0  0  0  0  0  0  0  0  0
   -9.3512   18.0065  -30.9979 H   0  0  0  0  0  0  0  0  0  0  0  0
   -7.6613   17.0118  -32.5445 H   0  0  0  0  0  0  0  0  0  0  0  0
   -6.1321   18.4951  -33.8437 H   0  0  0  0  0  0  0  0  0  0  0  0
   -6.2612   20.9729  -33.5720 H   0  0  0  0  0  0  0  0  0  0  0  0
  1  2  1  0
  2  3  1  0
  3  4  1  0
  4  5  2  0
  4  6  2  0
  4  7  1  0
  7  8  2  0
  8  9  1  0
  9 10  2  0
 10 11  1  0
 11 12  2  0
 12 13  1  0
 13 14  1  0
 14 15  1  0
 15 16  1  0
 16 17  2  0
 17 18  1  0
 18 19  2  0
 19 20  1  0
 20 21  2  0
 12  7  1  0
 21 16  1  0
  1 22  1  0
  1 23  1  0
  1 24  1  0
  2 25  1  0
  2 26  1  0
  3 27  1  0
  3 28  1  0
  8 29  1  0
  9 30  1  0
 10 31  1  0
 11 32  1  0
 13 33  1  0
 14 34  1  0
 14 35  1  0
 15 36  1  0
 15 37  1  0
 17 38  1  0
 18 39  1  0
 19 40  1  0
 20 41  1  0
 21 42  1  0
M  END
>  <UniqueID>  (11) 
11

>  <SMILES>  (11) 
CCCS(=O)(=O)c1ccccc1NCCc1ccccc1

>  <Energy>  (11) 
33.41180948541377

>  <Genealogy>  (11) 
CCCS(=O)(=O)c1ccccc1NCCc1ccccc1 (3D coordinates assigned)
CCCS(=O)(=O)c1ccccc1NCCc1ccccc1 (optimized conformer: 33.41180948541377 kcal/mol)

>  <smiles>  (11) 
CCCS(=O)(=O)c1ccccc1NCCc1ccccc1

>  <score_type>  (11) 
oracle

>  <origin>  (11) 
adg

>  <m_score__min__energy>  (11) 
-8.9199999999999999

>  <m_primary>  (11) 
energy

$$$$
11:0
     RDKit          3D

 51 53  0  0  0  0  0  0  0  0999 V2000
   -6.0020   16.3950  -34.2080 C   0  0  0  0  0  0  0  0  0  0  0  0
   -4.9580   16.5980  -33.1120 C   0  0  0  0  0  0  0  0  0  0  0  0
   -5.2210   17.7860  -32.3690 O   0  0  0  0  0  0  0  0  0  0  0  0
   -6.4600   18.4500  -32.2920 C   0  0  0  0  0  0  0  0  0  0  0  0
   -7.5670   17.8970  -31.6150 C   0  0  0  0  0  0  0  0  0  0  0  0
   -8.7790   18.5870  -31.5600 C   0  0  0  0  0  0  0  0  0  0  0  0
   -8.9030   19.8350  -32.1680 C   0  0  0  0  0  0  0  0  0  0  0  0
   -7.8180   20.3960  -32.8430 C   0  0  0  0  0  0  0  0  0  0  0  0
   -6.5910   19.7130  -32.9090 C   0  0  0  0  0  0  0  0  0  0  0  0
   -5.4370   20.3250  -33.6790 C   0  0  0  0  0  0  0  0  0  0  0  0
   -4.1560   20.1880  -32.9650 N   0  0  0  0  0  0  0  0  0  0  0  0
   -3.0790   19.7110  -33.8490 C   0  0  0  0  0  0  0  0  0  0  0  0
   -1.7570   19.5280  -33.0870 C   0  0  0  0  0  0  0  0  0  0  0  0
   -1.9070   19.7250  -31.5630 C   0  0  0  0  0  0  0  0  0  0  0  0
   -1.5010   21.0730  -31.1680 N   0  0  0  0  0  0  0  0  0  0  0  0
   -2.4580   22.0840  -30.8150 C   0  0  0  0  0  0  0  0  0  0  0  0
   -2.0550   23.2200  -30.1010 C   0  0  0  0  0  0  0  0  0  0  0  0
   -2.9970   24.1950  -29.7580 C   0  0  0  0  0  0  0  0  0  0  0  0
   -2.6270   25.2150  -29.1150 O   0  0  0  0  0  0  0  0  0  0  0  0
   -4.3430   24.0290  -30.1360 C   0  0  0  0  0  0  0  0  0  0  0  0
   -5.3330   24.9760  -29.8140 C   0  0  0  0  0  0  0  0  0  0  0  0
   -6.6590   24.7680  -30.2100 C   0  0  0  0  0  0  0  0  0  0  0  0
   -7.0080   23.6200  -30.9280 C   0  0  0  0  0  0  0  0  0  0  0  0
   -6.0330   22.6720  -31.2520 C   0  0  0  0  0  0  0  0  0  0  0  0
   -4.7060   22.8690  -30.8590 C   0  0  0  0  0  0  0  0  0  0  0  0
   -3.7630   21.9440  -31.1750 N   0  0  0  0  0  0  0  0  0  0  0  0
   -6.9832   16.2042  -33.7489 H   0  0  0  0  0  0  0  0  0  0  0  0
   -6.0588   17.2989  -34.8323 H   0  0  0  0  0  0  0  0  0  0  0  0
   -5.7159   15.5357  -34.8323 H   0  0  0  0  0  0  0  0  0  0  0  0
   -4.9799   15.7351  -32.4301 H   0  0  0  0  0  0  0  0  0  0  0  0
   -3.9687   16.6917  -33.5837 H   0  0  0  0  0  0  0  0  0  0  0  0
   -7.4745   16.9154  -31.1272 H   0  0  0  0  0  0  0  0  0  0  0  0
   -9.6387   18.1446  -31.0354 H   0  0  0  0  0  0  0  0  0  0  0  0
   -9.8578   20.3787  -32.1157 H   0  0  0  0  0  0  0  0  0  0  0  0
   -7.9235   21.3785  -33.3263 H   0  0  0  0  0  0  0  0  0  0  0  0
   -5.3549   19.8214  -34.6535 H   0  0  0  0  0  0  0  0  0  0  0  0
   -5.6432   21.3988  -33.7990 H   0  0  0  0  0  0  0  0  0  0  0  0
   -4.2760   19.5430  -32.1510 H   0  0  0  0  0  0  0  0  0  0  0  0
   -3.8950   21.1320  -32.5950 H   0  0  0  0  0  0  0  0  0  0  0  0
   -3.3763   18.7454  -34.2840 H   0  0  0  0  0  0  0  0  0  0  0  0
   -2.9206   20.4651  -34.6340 H   0  0  0  0  0  0  0  0  0  0  0  0
   -1.3826   18.5107  -33.2738 H   0  0  0  0  0  0  0  0  0  0  0  0
   -1.0584   20.2958  -33.4509 H   0  0  0  0  0  0  0  0  0  0  0  0
   -2.9589   19.5688  -31.2816 H   0  0  0  0  0  0  0  0  0  0  0  0
   -1.2597   18.9987  -31.0497 H   0  0  0  0  0  0  0  0  0  0  0  0
   -0.4830   21.3090  -31.1760 H   0  0  0  0  0  0  0  0  0  0  0  0
   -1.0012   23.3446  -29.8112 H   0  0  0  0  0  0  0  0  0  0  0  0
   -5.0640   25.8813  -29.2500 H   0  0  0  0  0  0  0  0  0  0  0  0
   -7.4297   25.5104  -29.9555 H   0  0  0  0  0  0  0  0  0  0  0  0
   -8.0515   23.4626  -31.2384 H   0  0  0  0  0  0  0  0  0  0  0  0
   -6.3104   21.7698  -31.8169 H   0  0  0  0  0  0  0  0  0  0  0  0
  1  2  1  0
  2  3  1  0
  3  4  1  0
  4  5  2  0
  5  6  1  0
  6  7  2  0
  7  8  1  0
  8  9  2  0
  9 10  1  0
 10 11  1  0
 11 12  1  0
 12 13  1  0
 13 14  1  0
 14 15  1  0
 15 16  1  0
 16 17  2  0
 17 18  1  0
 18 19  2  0
 18 20  1  0
 20 21  2  0
 21 22  1  0
 22 23  2  0
 23 24  1  0
 24 25  2  0
 25 26  1  0
  9  4  1  0
 26 16  1  0
 25 20  1  0
  1 27  1  0
  1 28  1  0
  1 29  1  0
  2 30  1  0
  2 31  1  0
  5 32  1  0
  6 33  1  0
  7 34  1  0
  8 35  1  0
 10 36  1  0
 10 37  1  0
 11 38  1  0
 11 39  1  0
 12 40  1  0
 12 41  1  0
 13 42  1  0
 13 43  1  0
 14 44  1  0
 14 45  1  0
 15 46  1  0
 17 47  1  0
 21 48  1  0
 22 49  1  0
 23 50  1  0
 24 51  1  0
M  CHG  2  11   1  26  -1
M  END
>  <UniqueID>  (12) 
12

>  <SMILES>  (12) 
CCOc1ccccc1C[NH2+]CCCNc1cc(=O)c2ccccc2[n-]1

>  <Energy>  (12) 
50.50023328059092

>  <Genealogy>  (12) 
CCOc1ccccc1C[NH2+]CCCNc1cc(=O)c2ccccc2[n-]1 (protonated)
CCOc1ccccc1C[NH2+]CCCNc1cc(=O)c2ccccc2[n-]1 (3D coordinates assigned)
CCOc1ccccc1C[NH2+]CCCNc1cc(=O)c2ccccc2[n-]1 (optimized conformer: 50.50023328059092 kcal/mol)

>  <smiles>  (12) 
CCOc1ccccc1CNCCCNc1cc(=O)c2ccccc2[nH]1

>  <score_type>  (12) 
oracle

>  <origin>  (12) 
adg

>  <m_score__min__energy>  (12) 
-9.8100000000000005

>  <m_primary>  (12) 
energy

$$$$
12:0
     RDKit          3D

 34 35  0  0  0  0  0  0  0  0999 V2000
   -6.4370   17.7640  -31.5520 C   0  0  0  0  0  0  0  0  0  0  0  0
   -7.1920   18.0950  -32.8300 C   0  0  0  0  0  0  0  0  0  0  0  0
   -8.4970   18.5340  -32.5000 O   0  0  0  0  0  0  0  0  0  0  0  0
   -8.6940   19.8080  -32.9700 N   0  0  0  0  0  0  0  0  0  0  0  0
   -9.5130   20.5470  -32.0000 C   0  0  0  0  0  0  0  0  0  0  0  0
   -8.8040   21.8150  -31.5220 C   0  0  0  0  0  0  0  0  0  0  0  0
   -7.7070   22.1110  -32.3830 O   0  0  0  0  0  0  0  0  0  0  0  0
   -6.5060   22.7120  -31.9710 C   0  0  0  0  0  0  0  0  0  0  0  0
   -6.4800   23.9680  -31.3420 C   0  0  0  0  0  0  0  0  0  0  0  0
   -5.2530   24.5150  -30.9550 C   0  0  0  0  0  0  0  0  0  0  0  0
   -5.2160   25.6390  -30.3920 O   0  0  0  0  0  0  0  0  0  0  0  0
   -4.1210   23.8570  -31.1780 O   0  0  0  0  0  0  0  0  0  0  0  0
   -4.0890   22.6660  -31.7690 C   0  0  0  0  0  0  0  0  0  0  0  0
   -2.8620   22.0260  -31.9730 C   0  0  0  0  0  0  0  0  0  0  0  0
   -2.8180   20.7740  -32.5920 C   0  0  0  0  0  0  0  0  0  0  0  0
   -4.0000   20.1550  -33.0100 C   0  0  0  0  0  0  0  0  0  0  0  0
   -5.2320   20.7840  -32.8120 C   0  0  0  0  0  0  0  0  0  0  0  0
   -5.2880   22.0450  -32.1900 C   0  0  0  0  0  0  0  0  0  0  0  0
   -7.0531   18.0341  -30.6817 H   0  0  0  0  0  0  0  0  0  0  0  0
   -6.2165   16.6867  -31.5250 H   0  0  0  0  0  0  0  0  0  0  0  0
   -5.4953   18.3318  -31.5250 H   0  0  0  0  0  0  0  0  0  0  0  0
   -6.6627   18.8911  -33.3742 H   0  0  0  0  0  0  0  0  0  0  0  0
   -7.2533   17.1991  -33.4653 H   0  0  0  0  0  0  0  0  0  0  0  0
   -9.2310   19.7170  -33.8620 H   0  0  0  0  0  0  0  0  0  0  0  0
   -7.8080   20.3300  -33.1880 H   0  0  0  0  0  0  0  0  0  0  0  0
  -10.4649   20.8267  -32.4749 H   0  0  0  0  0  0  0  0  0  0  0  0
   -9.6870   19.8984  -31.1287 H   0  0  0  0  0  0  0  0  0  0  0  0
   -9.5133   22.6557  -31.5327 H   0  0  0  0  0  0  0  0  0  0  0  0
   -8.4299   21.6574  -30.4996 H   0  0  0  0  0  0  0  0  0  0  0  0
   -7.4157   24.5155  -31.1559 H   0  0  0  0  0  0  0  0  0  0  0  0
   -1.9298   22.5093  -31.6454 H   0  0  0  0  0  0  0  0  0  0  0  0
   -1.8511   20.2742  -32.7508 H   0  0  0  0  0  0  0  0  0  0  0  0
   -3.9599   19.1692  -33.4965 H   0  0  0  0  0  0  0  0  0  0  0  0
   -6.1590   20.2929  -33.1427 H   0  0  0  0  0  0  0  0  0  0  0  0
  1  2  1  0
  2  3  1  0
  3  4  1  0
  4  5  1  0
  5  6  1  0
  6  7  1  0
  7  8  1  0
  8  9  2  0
  9 10  1  0
 10 11  2  0
 10 12  1  0
 12 13  1  0
 13 14  2  0
 14 15  1  0
 15 16  2  0
 16 17  1  0
 17 18  2  0
 18  8  1  0
 18 13  1  0
  1 19  1  0
  1 20  1  0
  1 21  1  0
  2 22  1  0
  2 23  1  0
  4 24  1  0
  4 25  1  0
  5 26  1  0
  5 27  1  0
  6 28  1  0
  6 29  1  0
  9 30  1  0
 14 31  1  0
 15 32  1  0
 16 33  1  0
 17 34  1  0
M  CHG  1   4   1
M  END
>  <UniqueID>  (13) 
13

>  <SMILES>  (13) 
CCO[NH2+]CCOc1cc(=O)oc2ccccc12

>  <Energy>  (13) 
37.092499104618106

>  <Genealogy>  (13) 
CCO[NH2+]CCOc1cc(=O)oc2ccccc12 (protonated)
CCO[NH2+]CCOc1cc(=O)oc2ccccc12 (3D coordinates assigned)
CCO[NH2+]CCOc1cc(=O)oc2ccccc12 (optimized conformer: 37.092499104618106 kcal/mol)

>  <smiles>  (13) 
CCONCCOc1cc(=O)oc2ccccc12

>  <score_type>  (13) 
oracle

>  <origin>  (13) 
adg

>  <m_score__min__energy>  (13) 
-5.8499999999999996

>  <m_primary>  (13) 
energy

$$$$
13:0
     RDKit          3D

 58 60  0  0  0  0  0  0  0  0999 V2000
   -6.4740   25.3380  -29.6600 C   0  0  0  0  0  0  0  0  0  0  0  0
   -5.4120   25.4280  -30.7600 C   0  0  0  0  0  0  0  0  0  0  0  0
   -4.4580   24.3080  -30.7190 N   0  0  0  0  0  0  0  0  0  0  0  0
   -3.3720   24.5350  -29.7570 C   0  0  0  0  0  0  0  0  0  0  0  0
   -3.2000   23.3160  -28.8330 C   0  0  0  0  0  0  0  0  0  0  0  0
   -3.9660   22.1410  -29.2810 N   0  0  0  0  0  0  0  0  0  0  0  0
   -3.1020   21.0160  -29.6720 C   0  0  0  0  0  0  0  0  0  0  0  0
   -3.5660   20.4210  -31.0130 C   0  0  0  0  0  0  0  0  0  0  0  0
   -4.3950   21.3740  -31.7780 N   0  0  0  0  0  0  0  0  0  0  0  0
   -5.6050   20.7360  -32.2800 C   0  0  0  0  0  0  0  0  0  0  0  0
   -6.8600   21.3700  -32.1470 C   0  0  0  0  0  0  0  0  0  0  0  0
   -6.9740   22.7750  -32.0830 C   0  0  0  0  0  0  0  0  0  0  0  0
   -8.2230   23.3830  -31.9660 C   0  0  0  0  0  0  0  0  0  0  0  0
   -9.3750   22.6060  -31.9210 C   0  0  0  0  0  0  0  0  0  0  0  0
   -9.2860   21.2170  -31.9790 C   0  0  0  0  0  0  0  0  0  0  0  0
   -8.0280   20.5710  -32.0730 C   0  0  0  0  0  0  0  0  0  0  0  0
   -7.9170   19.1970  -32.0850 N   0  0  0  0  0  0  0  0  0  0  0  0
   -9.0410   18.3580  -31.6120 C   0  0  0  0  0  0  0  0  0  0  0  0
   -6.7610   18.6110  -32.5650 C   0  0  0  0  0  0  0  0  0  0  0  0
   -6.7190   17.2360  -32.9020 C   0  0  0  0  0  0  0  0  0  0  0  0
   -5.5740   16.6570  -33.4480 C   0  0  0  0  0  0  0  0  0  0  0  0
   -5.5560   15.1880  -33.7610 C   0  0  0  0  0  0  0  0  0  0  0  0
   -4.4660   17.4540  -33.7290 C   0  0  0  0  0  0  0  0  0  0  0  0
   -4.4830   18.8290  -33.4630 C   0  0  0  0  0  0  0  0  0  0  0  0
   -3.3920   19.6500  -34.1090 C   0  0  0  0  0  0  0  0  0  0  0  0
   -5.5910   19.3990  -32.7610 C   0  0  0  0  0  0  0  0  0  0  0  0
   -5.9861   25.3793  -28.6750 H   0  0  0  0  0  0  0  0  0  0  0  0
   -7.1752   26.1799  -29.7575 H   0  0  0  0  0  0  0  0  0  0  0  0
   -7.0235   24.3901  -29.7575 H   0  0  0  0  0  0  0  0  0  0  0  0
   -5.9163   25.4255  -31.7376 H   0  0  0  0  0  0  0  0  0  0  0  0
   -4.8435   26.3558  -30.5990 H   0  0  0  0  0  0  0  0  0  0  0  0
   -4.9660   23.4290  -30.4620 H   0  0  0  0  0  0  0  0  0  0  0  0
   -2.4342   24.7077  -30.3053 H   0  0  0  0  0  0  0  0  0  0  0  0
   -3.6218   25.4123  -29.1422 H   0  0  0  0  0  0  0  0  0  0  0  0
   -2.1336   23.0479  -28.8015 H   0  0  0  0  0  0  0  0  0  0  0  0
   -3.5822   23.5989  -27.8411 H   0  0  0  0  0  0  0  0  0  0  0  0
   -4.6170   21.8380  -28.5190 H   0  0  0  0  0  0  0  0  0  0  0  0
   -2.0665   21.3730  -29.7733 H   0  0  0  0  0  0  0  0  0  0  0  0
   -3.1604   20.2368  -28.8978 H   0  0  0  0  0  0  0  0  0  0  0  0
   -2.6811   20.1587  -31.6114 H   0  0  0  0  0  0  0  0  0  0  0  0
   -4.1766   19.5313  -30.7994 H   0  0  0  0  0  0  0  0  0  0  0  0
   -4.6400   22.2070  -31.1940 H   0  0  0  0  0  0  0  0  0  0  0  0
   -3.7950   21.6920  -32.5630 H   0  0  0  0  0  0  0  0  0  0  0  0
   -6.0678   23.3971  -32.1259 H   0  0  0  0  0  0  0  0  0  0  0  0
   -8.2972   24.4790  -31.9092 H   0  0  0  0  0  0  0  0  0  0  0  0
  -10.3597   23.0895  -31.8394 H   0  0  0  0  0  0  0  0  0  0  0  0
  -10.2050   20.6131  -31.9515 H   0  0  0  0  0  0  0  0  0  0  0  0
   -9.0539   18.3484  -30.5121 H   0  0  0  0  0  0  0  0  0  0  0  0
   -9.9895   18.7708  -31.9862 H   0  0  0  0  0  0  0  0  0  0  0  0
   -8.9150   17.3313  -31.9862 H   0  0  0  0  0  0  0  0  0  0  0  0
   -7.6082   16.6118  -32.7294 H   0  0  0  0  0  0  0  0  0  0  0  0
   -5.5490   14.6133  -32.8231 H   0  0  0  0  0  0  0  0  0  0  0  0
   -6.4510   14.9264  -34.3446 H   0  0  0  0  0  0  0  0  0  0  0  0
   -4.6549   14.9485  -34.3446 H   0  0  0  0  0  0  0  0  0  0  0  0
   -3.5657   16.9970  -34.1657 H   0  0  0  0  0  0  0  0  0  0  0  0
   -2.7728   20.1160  -33.3283 H   0  0  0  0  0  0  0  0  0  0  0  0
   -2.7643   18.9983  -34.7345 H   0  0  0  0  0  0  0  0  0  0  0  0
   -3.8444   20.4336  -34.7345 H   0  0  0  0  0  0  0  0  0  0  0  0
  1  2  1  0
  2  3  1  0
  3  4  1  0
  4  5  1  0
  5  6  1  0
  6  7  1  0
  7  8  1  0
  8  9  1  0
  9 10  1  0
 10 11  2  0
 11 12  1  0
 12 13  2  0
 13 14  1  0
 14 15  2  0
 15 16  1  0
 16 17  2  0
 17 18  1  0
 17 19  1  0
 19 20  2  0
 20 21  1  0
 21 22  1  0
 21 23  2  0
 23 24  1  0
 24 25  1  0
 24 26  2  0
 26 10  1  0
 16 11  1  0
 26 19  1  0
  1 27  1  0
  1 28  1  0
  1 29  1  0
  2 30  1  0
  2 31  1  0
  3 32  1  0
  4 33  1  0
  4 34  1  0
  5 35  1  0
  5 36  1  0
  6 37  1  0
  7 38  1  0
  7 39  1  0
  8 40  1  0
  8 41  1  0
  9 42  1  0
  9 43  1  0
 12 44  1  0
 13 45  1  0
 14 46  1  0
 15 47  1  0
 18 48  1  0
 18 49  1  0
 18 50  1  0
 20 51  1  0
 22 52  1  0
 22 53  1  0
 22 54  1  0
 23 55  1  0
 25 56  1  0
 25 57  1  0
 25 58  1  0
M  CHG  2   9   1  17   1
M  END
>  <UniqueID>  (14) 
14

>  <SMILES>  (14) 
CCNCCNCC[NH2+]c1c2ccccc2[n+](C)c2cc(C)cc(C)c12

>  <Energy>  (14) 
96.75781983866668

>  <Genealogy>  (14) 
CCNCCNCC[NH2+]c1c2ccccc2[n+](C)c2cc(C)cc(C)c12 (protonated)
CCNCCNCC[NH2+]c1c2ccccc2[n+](C)c2cc(C)cc(C)c12 (3D coordinates assigned)
CCNCCNCC[NH2+]c1c2ccccc2[n+](C)c2cc(C)cc(C)c12 (optimized conformer: 96.75781983866668 kcal/mol)

>  <smiles>  (14) 
CCNCCNCCNc1c2ccccc2[n+](C)c2cc(C)cc(C)c12

>  <score_type>  (14) 
oracle

>  <origin>  (14) 
adg

>  <m_score__min__energy>  (14) 
-8

>  <m_primary>  (14) 
energy

$$$$
14:0
     RDKit          3D

 58 61  0  0  0  0  0  0  0  0999 V2000
   -6.2080   19.6780  -34.1340 C   0  0  0  0  0  0  0  0  0  0  0  0
   -6.6160   19.0580  -32.8780 N   0  0  0  0  0  0  0  0  0  0  0  0
   -5.8580   18.3150  -32.0540 C   0  0  0  0  0  0  0  0  0  0  0  0
   -6.5960   17.8000  -31.0510 N   0  0  0  0  0  0  0  0  0  0  0  0
   -7.8450   18.2010  -31.2370 N   0  0  0  0  0  0  0  0  0  0  0  0
   -7.8510   18.9540  -32.3530 C   0  0  0  0  0  0  0  0  0  0  0  0
   -9.3330   19.6980  -33.0450 S   0  0  0  0  0  0  0  0  0  0  0  0
   -9.4990   20.9550  -31.7300 C   0  0  0  0  0  0  0  0  0  0  0  0
   -8.4340   22.0510  -31.8780 C   0  0  0  0  0  0  0  0  0  0  0  0
   -7.9060   22.5200  -30.5150 C   0  0  0  0  0  0  0  0  0  0  0  0
   -6.4300   22.5890  -30.5180 N   0  0  0  0  0  0  0  0  0  0  0  0
   -5.9490   23.7780  -29.7930 C   0  0  0  0  0  0  0  0  0  0  0  0
   -4.4070   23.8110  -29.8140 C   0  0  1  0  0  0  0  0  0  0  0  0
   -3.7770   22.6360  -29.0190 C   0  0  0  0  0  0  0  0  0  0  0  0
   -3.0830   21.6590  -29.8830 N   0  0  0  0  0  0  0  0  0  0  0  0
   -1.6050   21.7410  -29.8850 C   0  0  0  0  0  0  0  0  0  0  0  0
   -1.0500   23.1740  -29.9750 C   0  0  0  0  0  0  0  0  0  0  0  0
   -0.0700   23.4290  -28.9660 O   0  0  0  0  0  0  0  0  0  0  0  0
   -0.2840   24.1500  -27.7800 C   0  0  0  0  0  0  0  0  0  0  0  0
    0.2200   23.7290  -26.5320 C   0  0  0  0  0  0  0  0  0  0  0  0
   -0.0150   24.4900  -25.3830 C   0  0  0  0  0  0  0  0  0  0  0  0
   -0.7580   25.6730  -25.4630 C   0  0  0  0  0  0  0  0  0  0  0  0
   -0.9990   26.4550  -24.2790 C   0  0  0  0  0  0  0  0  0  0  0  0
   -1.1920   27.0850  -23.3270 N   0  0  0  0  0  0  0  0  0  0  0  0
   -1.2670   26.0920  -26.6970 C   0  0  0  0  0  0  0  0  0  0  0  0
   -1.0330   25.3320  -27.8480 C   0  0  0  0  0  0  0  0  0  0  0  0
   -1.5400   25.7470  -29.0350 F   0  0  0  0  0  0  0  0  0  0  0  0
   -3.7160   21.3980  -31.1920 C   0  0  0  0  0  0  0  0  0  0  0  0
   -4.3420   22.6660  -31.8270 C   0  0  1  0  0  0  0  0  0  0  0  0
   -5.8800   22.5940  -31.8870 C   0  0  0  0  0  0  0  0  0  0  0  0
   -3.9350   23.8400  -31.1480 O   0  0  0  0  0  0  0  0  0  0  0  0
   -5.6146   20.5797  -33.9221 H   0  0  0  0  0  0  0  0  0  0  0  0
   -5.6006   18.9672  -34.7135 H   0  0  0  0  0  0  0  0  0  0  0  0
   -7.1011   19.9546  -34.7135 H   0  0  0  0  0  0  0  0  0  0  0  0
   -4.7781   18.1491  -32.1813 H   0  0  0  0  0  0  0  0  0  0  0  0
  -10.4972   21.4126  -31.7939 H   0  0  0  0  0  0  0  0  0  0  0  0
   -9.3620   20.4629  -30.7558 H   0  0  0  0  0  0  0  0  0  0  0  0
   -7.5945   21.6545  -32.4679 H   0  0  0  0  0  0  0  0  0  0  0  0
   -8.8976   22.9129  -32.3803 H   0  0  0  0  0  0  0  0  0  0  0  0
   -8.3130   23.5180  -30.2949 H   0  0  0  0  0  0  0  0  0  0  0  0
   -8.2231   21.7986  -29.7475 H   0  0  0  0  0  0  0  0  0  0  0  0
   -6.2997   23.7378  -28.7512 H   0  0  0  0  0  0  0  0  0  0  0  0
   -6.3395   24.6840  -30.2794 H   0  0  0  0  0  0  0  0  0  0  0  0
   -4.0900   24.7340  -29.3064 H   0  0  0  0  0  0  0  0  0  0  0  0
   -4.5765   22.1144  -28.4725 H   0  0  0  0  0  0  0  0  0  0  0  0
   -3.0260   23.0648  -28.3392 H   0  0  0  0  0  0  0  0  0  0  0  0
   -1.2335   21.2855  -28.9552 H   0  0  0  0  0  0  0  0  0  0  0  0
   -1.2615   21.2130  -30.7868 H   0  0  0  0  0  0  0  0  0  0  0  0
   -0.5883   23.3154  -30.9634 H   0  0  0  0  0  0  0  0  0  0  0  0
   -1.8852   23.8738  -29.8245 H   0  0  0  0  0  0  0  0  0  0  0  0
    0.8008   22.7974  -26.4623 H   0  0  0  0  0  0  0  0  0  0  0  0
    0.3852   24.1580  -24.4137 H   0  0  0  0  0  0  0  0  0  0  0  0
   -1.8524   27.0210  -26.7623 H   0  0  0  0  0  0  0  0  0  0  0  0
   -4.5083   20.6474  -31.0545 H   0  0  0  0  0  0  0  0  0  0  0  0
   -2.9281   21.0442  -31.8732 H   0  0  0  0  0  0  0  0  0  0  0  0
   -3.9688   22.7093  -32.8609 H   0  0  0  0  0  0  0  0  0  0  0  0
   -6.1832   21.6730  -32.4065 H   0  0  0  0  0  0  0  0  0  0  0  0
   -6.2652   23.4685  -32.4318 H   0  0  0  0  0  0  0  0  0  0  0  0
  1  2  1  0
  2  3  1  0
  3  4  2  0
  4  5  1  0
  5  6  2  0
  6  7  1  0
  7  8  1  0
  8  9  1  0
  9 10  1  0
 10 11  1  0
 11 12  1  0
 12 13  1  0
 13 14  1  0
 14 15  1  0
 15 16  1  0
 16 17  1  0
 17 18  1  0
 18 19  1  0
 19 20  2  0
 20 21  1  0
 21 22  2  0
 22 23  1  0
 23 24  3  0
 22 25  1  0
 25 26  2  0
 26 27  1  0
 15 28  1  0
 28 29  1  0
 29 30  1  0
 29 31  1  0
  6  2  1  0
 30 11  1  0
 31 13  1  0
 26 19  1  0
  1 32  1  0
  1 33  1  0
  1 34  1  0
  3 35  1  0
  8 36  1  0
  8 37  1  0
  9 38  1  0
  9 39  1  0
 10 40  1  0
 10 41  1  0
 12 42  1  0
 12 43  1  0
 13 44  1  1
 14 45  1  0
 14 46  1  0
 16 47  1  0
 16 48  1  0
 17 49  1  0
 17 50  1  0
 20 51  1  0
 21 52  1  0
 25 53  1  0
 28 54  1  0
 28 55  1  0
 29 56  1  6
 30 57  1  0
 30 58  1  0
M  END
>  <UniqueID>  (15) 
15

>  <SMILES>  (15) 
Cn1cnnc1SCCCN1C[C@@H]2CN(CCOc3ccc(C#N)cc3F)C[C@H](C1)O2

>  <Energy>  (15) 
103.63286326981225

>  <Genealogy>  (15) 
Cn1cnnc1SCCCN1C[C@@H]2CN(CCOc3ccc(C#N)cc3F)C[C@H](C1)O2 (chirality)
Cn1cnnc1SCCCN1C[C@@H]2CN(CCOc3ccc(C#N)cc3F)C[C@H](C1)O2 (3D coordinates assigned)
Cn1cnnc1SCCCN1C[C@@H]2CN(CCOc3ccc(C#N)cc3F)C[C@H](C1)O2 (nonaromatic ring conformer: 103.63286326981225 kcal/mol)

>  <smiles>  (15) 
Cn1cnnc1SCCCN1CC2CN(CCOc3ccc(C#N)cc3F)CC(C1)O2

>  <score_type>  (15) 
oracle

>  <origin>  (15) 
adg

>  <m_score__min__energy>  (15) 
-9.4499999999999993

>  <m_primary>  (15) 
energy

$$$$
15:0
     RDKit          3D

 60 63  0  0  0  0  0  0  0  0999 V2000
   -2.7900   24.5410  -27.2010 C   0  0  0  0  0  0  0  0  0  0  0  0
   -2.1330   24.9370  -28.5330 C   0  0  0  0  0  0  0  0  0  0  0  0
   -2.7670   24.3470  -29.7360 N   0  0  0  0  0  0  0  0  0  0  0  0
   -2.2960   23.0070  -30.1180 C   0  0  0  0  0  0  0  0  0  0  0  0
   -4.2320   24.5310  -29.8400 C   0  0  0  0  0  0  0  0  0  0  0  0
   -5.0490   23.3830  -29.2160 C   0  0  0  0  0  0  0  0  0  0  0  0
   -6.2460   22.9750  -30.0910 C   0  0  0  0  0  0  0  0  0  0  0  0
   -6.4290   23.8940  -31.3090 C   0  0  0  0  0  0  0  0  0  0  0  0
   -6.2410   23.1560  -32.5600 N   0  0  0  0  0  0  0  0  0  0  0  0
   -6.0230   21.7340  -32.6200 C   0  0  0  0  0  0  0  0  0  0  0  0
   -4.7530   21.2110  -32.8580 C   0  0  0  0  0  0  0  0  0  0  0  0
   -4.5590   19.8470  -33.0240 C   0  0  0  0  0  0  0  0  0  0  0  0
   -5.6150   18.9600  -33.0220 N   0  0  0  0  0  0  0  0  0  0  0  0
   -5.4160   17.5590  -33.4430 C   0  0  0  0  0  0  0  0  0  0  0  0
   -5.3420   17.4490  -34.9670 C   0  0  0  0  0  0  0  0  0  0  0  0
   -6.8760   19.4290  -32.6720 C   0  0  0  0  0  0  0  0  0  0  0  0
   -7.9790   18.5550  -32.4890 C   0  0  0  0  0  0  0  0  0  0  0  0
   -9.2430   19.0460  -32.1580 C   0  0  0  0  0  0  0  0  0  0  0  0
   -9.4450   20.4100  -31.9920 C   0  0  0  0  0  0  0  0  0  0  0  0
   -8.3850   21.2980  -32.1480 C   0  0  0  0  0  0  0  0  0  0  0  0
   -7.0970   20.8310  -32.4850 C   0  0  0  0  0  0  0  0  0  0  0  0
   -3.1220   19.6390  -33.3100 C   0  0  0  0  0  0  0  0  0  0  0  0
   -2.3270   18.4830  -33.4130 C   0  0  0  0  0  0  0  0  0  0  0  0
   -0.9520   18.6200  -33.6550 C   0  0  0  0  0  0  0  0  0  0  0  0
   -0.3700   19.8940  -33.7580 C   0  0  0  0  0  0  0  0  0  0  0  0
   -1.1560   21.0410  -33.5980 C   0  0  0  0  0  0  0  0  0  0  0  0
   -2.5260   20.8900  -33.3700 C   0  0  0  0  0  0  0  0  0  0  0  0
   -3.4860   21.9850  -33.0640 C   0  0  0  0  0  0  0  0  0  0  0  0
   -2.1770   24.9105  -26.3657 H   0  0  0  0  0  0  0  0  0  0  0  0
   -3.7952   24.9838  -27.1420 H   0  0  0  0  0  0  0  0  0  0  0  0
   -2.8679   23.4453  -27.1420 H   0  0  0  0  0  0  0  0  0  0  0  0
   -2.1774   26.0323  -28.6246 H   0  0  0  0  0  0  0  0  0  0  0  0
   -1.1051   24.5466  -28.5005 H   0  0  0  0  0  0  0  0  0  0  0  0
   -2.0893   22.4188  -29.2117 H   0  0  0  0  0  0  0  0  0  0  0  0
   -3.0706   22.5022  -30.7140 H   0  0  0  0  0  0  0  0  0  0  0  0
   -1.3759   23.0978  -30.7140 H   0  0  0  0  0  0  0  0  0  0  0  0
   -4.5012   25.4665  -29.3278 H   0  0  0  0  0  0  0  0  0  0  0  0
   -4.4768   24.5524  -30.9122 H   0  0  0  0  0  0  0  0  0  0  0  0
   -4.3916   22.5105  -29.0870 H   0  0  0  0  0  0  0  0  0  0  0  0
   -5.4425   23.7360  -28.2513 H   0  0  0  0  0  0  0  0  0  0  0  0
   -6.0878   21.9462  -30.4467 H   0  0  0  0  0  0  0  0  0  0  0  0
   -7.1527   23.0562  -29.4735 H   0  0  0  0  0  0  0  0  0  0  0  0
   -7.4443   24.3168  -31.2906 H   0  0  0  0  0  0  0  0  0  0  0  0
   -5.6757   24.6940  -31.2590 H   0  0  0  0  0  0  0  0  0  0  0  0
   -6.4520   23.6580  -33.4520 H   0  0  0  0  0  0  0  0  0  0  0  0
   -4.4776   17.1831  -33.0094 H   0  0  0  0  0  0  0  0  0  0  0  0
   -6.2702   16.9626  -33.0900 H   0  0  0  0  0  0  0  0  0  0  0  0
   -4.7476   16.5654  -35.2424 H   0  0  0  0  0  0  0  0  0  0  0  0
   -6.3578   17.3499  -35.3772 H   0  0  0  0  0  0  0  0  0  0  0  0
   -4.8674   18.3526  -35.3772 H   0  0  0  0  0  0  0  0  0  0  0  0
   -7.8353   17.4712  -32.6102 H   0  0  0  0  0  0  0  0  0  0  0  0
  -10.0838   18.3487  -32.0279 H   0  0  0  0  0  0  0  0  0  0  0  0
  -10.4454   20.7894  -31.7366 H   0  0  0  0  0  0  0  0  0  0  0  0
   -8.5531   22.3759  -32.0070 H   0  0  0  0  0  0  0  0  0  0  0  0
   -2.7774   17.4852  -33.3052 H   0  0  0  0  0  0  0  0  0  0  0  0
   -0.3250   17.7229  -33.7649 H   0  0  0  0  0  0  0  0  0  0  0  0
    0.7060   19.9906  -33.9649 H   0  0  0  0  0  0  0  0  0  0  0  0
   -0.7036   22.0423  -33.6508 H   0  0  0  0  0  0  0  0  0  0  0  0
   -3.1961   22.5333  -32.1555 H   0  0  0  0  0  0  0  0  0  0  0  0
   -3.5511   22.7595  -33.8424 H   0  0  0  0  0  0  0  0  0  0  0  0
  1  2  1  0
  2  3  1  0
  3  4  1  0
  3  5  1  0
  5  6  1  0
  6  7  1  0
  7  8  1  0
  8  9  1  0
  9 10  1  0
 10 11  2  0
 11 12  1  0
 12 13  2  0
 13 14  1  0
 14 15  1  0
 13 16  1  0
 16 17  2  0
 17 18  1  0
 18 19  2  0
 19 20  1  0
 20 21  2  0
 12 22  1  0
 22 23  2  0
 23 24  1  0
 24 25  2  0
 25 26  1  0
 26 27  2  0
 27 28  1  0
 21 10  1  0
 27 22  1  0
 28 11  1  0
 21 16  1  0
  1 29  1  0
  1 30  1  0
  1 31  1  0
  2 32  1  0
  2 33  1  0
  4 34  1  0
  4 35  1  0
  4 36  1  0
  5 37  1  0
  5 38  1  0
  6 39  1  0
  6 40  1  0
  7 41  1  0
  7 42  1  0
  8 43  1  0
  8 44  1  0
  9 45  1  0
 14 46  1  0
 14 47  1  0
 15 48  1  0
 15 49  1  0
 15 50  1  0
 17 51  1  0
 18 52  1  0
 19 53  1  0
 20 54  1  0
 23 55  1  0
 24 56  1  0
 25 57  1  0
 26 58  1  0
 28 59  1  0
 28 60  1  0
M  CHG  1  13   1
M  END
>  <UniqueID>  (16) 
16

>  <SMILES>  (16) 
CCN(C)CCCCNc1c2c([n+](CC)c3ccccc13)-c1ccccc1C2

>  <Energy>  (16) 
106.07524382471831

>  <Genealogy>  (16) 
CCN(C)CCCCNc1c2c([n+](CC)c3ccccc13)-c1ccccc1C2 (3D coordinates assigned)
CCN(C)CCCCNc1c2c([n+](CC)c3ccccc13)-c1ccccc1C2 (nonaromatic ring conformer: 106.07524382471831 kcal/mol)

>  <smiles>  (16) 
CCN(C)CCCCNc1c2c([n+](CC)c3ccccc13)-c1ccccc1C2

>  <score_type>  (16) 
oracle

>  <origin>  (16) 
adg

>  <m_score__min__energy>  (16) 
-8.9499999999999993

>  <m_primary>  (16) 
energy

$$$$
16:0
     RDKit          3D

 50 52  0  0  0  0  0  0  0  0999 V2000
   -6.8590   24.6980  -30.1070 C   0  0  0  0  0  0  0  0  0  0  0  0
   -5.5950   25.5380  -30.2350 C   0  0  0  0  0  0  0  0  0  0  0  0
   -4.6720   24.9150  -31.1910 N   0  0  0  0  0  0  0  0  0  0  0  0
   -3.8000   23.9240  -30.5380 C   0  0  0  0  0  0  0  0  0  0  0  0
   -3.9110   22.5730  -31.2520 C   0  0  0  0  0  0  0  0  0  0  0  0
   -4.9230   22.6080  -32.3220 N   0  0  0  0  0  0  0  0  0  0  0  0
   -5.4170   21.2710  -32.6100 C   0  0  0  0  0  0  0  0  0  0  0  0
   -6.7860   20.9460  -32.4150 C   0  0  0  0  0  0  0  0  0  0  0  0
   -7.7520   21.9380  -32.1090 C   0  0  0  0  0  0  0  0  0  0  0  0
   -9.0950   21.6070  -31.9530 C   0  0  0  0  0  0  0  0  0  0  0  0
   -9.5140   20.2950  -32.1140 C   0  0  0  0  0  0  0  0  0  0  0  0
   -8.5890   19.3000  -32.4140 C   0  0  0  0  0  0  0  0  0  0  0  0
   -7.2070   19.5940  -32.5450 C   0  0  0  0  0  0  0  0  0  0  0  0
   -6.2850   18.6000  -32.8050 N   0  0  0  0  0  0  0  0  0  0  0  0
   -6.6520   17.1800  -32.6100 C   0  0  0  0  0  0  0  0  0  0  0  0
   -5.0190   18.9330  -33.2410 C   0  0  0  0  0  0  0  0  0  0  0  0
   -4.1600   17.9630  -33.8150 C   0  0  0  0  0  0  0  0  0  0  0  0
   -2.8720   18.2900  -34.2260 C   0  0  0  0  0  0  0  0  0  0  0  0
   -2.4040   19.6000  -34.1080 C   0  0  0  0  0  0  0  0  0  0  0  0
   -1.1090   19.9730  -34.5020 O   0  0  0  0  0  0  0  0  0  0  0  0
   -0.3640   21.0210  -33.9500 C   0  0  0  0  0  0  0  0  0  0  0  0
   -0.1360   21.0560  -32.4770 C   0  0  0  0  0  0  0  0  0  0  0  0
    0.0310   21.9850  -34.6610 O   0  0  0  0  0  0  0  0  0  0  0  0
   -3.2350   20.5740  -33.5560 C   0  0  0  0  0  0  0  0  0  0  0  0
   -4.5520   20.2720  -33.1300 C   0  0  0  0  0  0  0  0  0  0  0  0
   -7.0907   24.5440  -29.0428 H   0  0  0  0  0  0  0  0  0  0  0  0
   -7.6967   25.2197  -30.5929 H   0  0  0  0  0  0  0  0  0  0  0  0
   -6.7025   23.7236  -30.5929 H   0  0  0  0  0  0  0  0  0  0  0  0
   -5.8612   26.5448  -30.5891 H   0  0  0  0  0  0  0  0  0  0  0  0
   -5.1054   25.6051  -29.2522 H   0  0  0  0  0  0  0  0  0  0  0  0
   -4.0700   25.6720  -31.5960 H   0  0  0  0  0  0  0  0  0  0  0  0
   -2.7577   24.2730  -30.5798 H   0  0  0  0  0  0  0  0  0  0  0  0
   -4.1130   23.8041  -29.4903 H   0  0  0  0  0  0  0  0  0  0  0  0
   -2.9349   22.3201  -31.6916 H   0  0  0  0  0  0  0  0  0  0  0  0
   -4.2163   21.8170  -30.5135 H   0  0  0  0  0  0  0  0  0  0  0  0
   -5.7080   23.2450  -32.0630 H   0  0  0  0  0  0  0  0  0  0  0  0
   -4.5300   23.0450  -33.1860 H   0  0  0  0  0  0  0  0  0  0  0  0
   -7.4352   22.9850  -31.9932 H   0  0  0  0  0  0  0  0  0  0  0  0
   -9.8265   22.3890  -31.7011 H   0  0  0  0  0  0  0  0  0  0  0  0
  -10.5786   20.0407  -32.0044 H   0  0  0  0  0  0  0  0  0  0  0  0
   -8.9357   18.2653  -32.5523 H   0  0  0  0  0  0  0  0  0  0  0  0
   -6.7087   16.9604  -31.5336 H   0  0  0  0  0  0  0  0  0  0  0  0
   -7.6296   16.9867  -33.0757 H   0  0  0  0  0  0  0  0  0  0  0  0
   -5.8905   16.5372  -33.0757 H   0  0  0  0  0  0  0  0  0  0  0  0
   -4.5191   16.9306  -33.9380 H   0  0  0  0  0  0  0  0  0  0  0  0
   -2.2182   17.5117  -34.6465 H   0  0  0  0  0  0  0  0  0  0  0  0
   -1.0927   20.9091  -31.9543 H   0  0  0  0  0  0  0  0  0  0  0  0
    0.5627   20.2546  -32.1950 H   0  0  0  0  0  0  0  0  0  0  0  0
    0.2902   22.0301  -32.1950 H   0  0  0  0  0  0  0  0  0  0  0  0
   -2.8589   21.6021  -33.4486 H   0  0  0  0  0  0  0  0  0  0  0  0
  1  2  1  0
  2  3  1  0
  3  4  1  0
  4  5  1  0
  5  6  1  0
  6  7  1  0
  7  8  2  0
  8  9  1  0
  9 10  2  0
 10 11  1  0
 11 12  2  0
 12 13  1  0
 13 14  2  0
 14 15  1  0
 14 16  1  0
 16 17  2  0
 17 18  1  0
 18 19  2  0
 19 20  1  0
 20 21  1  0
 21 22  1  0
 21 23  2  0
 19 24  1  0
 24 25  2  0
 25  7  1  0
 13  8  1  0
 25 16  1  0
  1 26  1  0
  1 27  1  0
  1 28  1  0
  2 29  1  0
  2 30  1  0
  3 31  1  0
  4 32  1  0
  4 33  1  0
  5 34  1  0
  5 35  1  0
  6 36  1  0
  6 37  1  0
  9 38  1  0
 10 39  1  0
 11 40  1  0
 12 41  1  0
 15 42  1  0
 15 43  1  0
 15 44  1  0
 17 45  1  0
 18 46  1  0
 22 47  1  0
 22 48  1  0
 22 49  1  0
 24 50  1  0
M  CHG  2   6   1  14   1
M  END
>  <UniqueID>  (17) 
17

>  <SMILES>  (17) 
CCNCC[NH2+]c1c2ccccc2[n+](C)c2ccc(OC(C)=O)cc12

>  <Energy>  (17) 
77.2507027918403

>  <Genealogy>  (17) 
CCNCC[NH2+]c1c2ccccc2[n+](C)c2ccc(OC(C)=O)cc12 (protonated)
CCNCC[NH2+]c1c2ccccc2[n+](C)c2ccc(OC(C)=O)cc12 (3D coordinates assigned)
CCNCC[NH2+]c1c2ccccc2[n+](C)c2ccc(OC(C)=O)cc12 (optimized conformer: 77.2507027918403 kcal/mol)

>  <smiles>  (17) 
CCNCCNc1c2ccccc2[n+](C)c2ccc(OC(C)=O)cc12

>  <score_type>  (17) 
oracle

>  <origin>  (17) 
adg

>  <m_score__min__energy>  (17) 
-8.4199999999999999

>  <m_primary>  (17) 
energy

$$$$
17:0
     RDKit          3D

 74 77  0  0  0  0  0  0  0  0999 V2000
   -4.0460   23.6620  -30.0140 C   0  0  0  0  0  0  0  0  0  0  0  0
   -3.7300   22.1870  -29.7680 C   0  0  0  0  0  0  0  0  0  0  0  0
   -3.6050   21.3860  -31.0750 C   0  0  0  0  0  0  0  0  0  0  0  0
   -3.4010   22.2600  -32.3260 C   0  0  0  0  0  0  0  0  0  0  0  0
   -4.1700   21.7580  -33.4850 N   0  0  0  0  0  0  0  0  0  0  0  0
   -5.2170   20.8230  -33.0890 C   0  0  0  0  0  0  0  0  0  0  0  0
   -6.4300   21.3240  -32.5410 C   0  0  0  0  0  0  0  0  0  0  0  0
   -6.5620   22.6840  -32.1630 C   0  0  0  0  0  0  0  0  0  0  0  0
   -7.7600   23.1760  -31.6550 C   0  0  0  0  0  0  0  0  0  0  0  0
   -8.8610   22.3430  -31.5370 C   0  0  0  0  0  0  0  0  0  0  0  0
   -8.7660   21.0040  -31.9050 C   0  0  0  0  0  0  0  0  0  0  0  0
   -7.5440   20.4530  -32.3740 C   0  0  0  0  0  0  0  0  0  0  0  0
   -7.4420   19.1190  -32.7030 N   0  0  0  0  0  0  0  0  0  0  0  0
   -8.5110   18.1730  -32.3040 C   0  0  0  0  0  0  0  0  0  0  0  0
   -6.3190   18.6460  -33.3510 C   0  0  0  0  0  0  0  0  0  0  0  0
   -6.3170   17.3700  -33.9680 C   0  0  0  0  0  0  0  0  0  0  0  0
   -5.1560   16.8380  -34.5130 C   0  0  0  0  0  0  0  0  0  0  0  0
   -3.9600   17.5260  -34.4000 C   0  0  0  0  0  0  0  0  0  0  0  0
   -3.9180   18.7940  -33.7990 C   0  0  0  0  0  0  0  0  0  0  0  0
   -2.6830   19.3920  -33.5030 O   0  0  0  0  0  0  0  0  0  0  0  0
   -1.4110   18.7420  -33.5170 C   0  0  0  0  0  0  0  0  0  0  0  0
   -1.0370   18.0790  -32.1610 C   0  0  0  0  0  0  0  0  0  0  0  0
    0.1780   18.5880  -31.4330 N   0  0  0  0  0  0  0  0  0  0  0  0
    1.4000   18.3740  -32.2530 C   0  0  0  0  0  0  0  0  0  0  0  0
    0.3160   17.7790  -30.1660 C   0  0  0  0  0  0  0  0  0  0  0  0
    0.7820   18.6110  -28.9550 C   0  0  0  0  0  0  0  0  0  0  0  0
   -0.1760   19.7130  -28.6270 N   0  0  0  0  0  0  0  0  0  0  0  0
    0.5490   20.7490  -27.8450 C   0  0  0  0  0  0  0  0  0  0  0  0
   -1.2710   19.1840  -27.7690 C   0  0  0  0  0  0  0  0  0  0  0  0
   -0.7670   20.3290  -29.8610 C   0  0  0  0  0  0  0  0  0  0  0  0
    0.0760   20.0500  -31.1180 C   0  0  0  0  0  0  0  0  0  0  0  0
   -5.1360   19.4380  -33.4180 C   0  0  0  0  0  0  0  0  0  0  0  0
   -4.1568   24.1791  -29.0494 H   0  0  0  0  0  0  0  0  0  0  0  0
   -3.2261   24.1224  -30.5848 H   0  0  0  0  0  0  0  0  0  0  0  0
   -4.9825   23.7461  -30.5848 H   0  0  0  0  0  0  0  0  0  0  0  0
   -2.7795   22.1166  -29.2187 H   0  0  0  0  0  0  0  0  0  0  0  0
   -4.5628   21.7582  -29.1913 H   0  0  0  0  0  0  0  0  0  0  0  0
   -2.7450   20.7062  -30.9836 H   0  0  0  0  0  0  0  0  0  0  0  0
   -4.5553   20.8493  -31.2123 H   0  0  0  0  0  0  0  0  0  0  0  0
   -3.7286   23.2854  -32.0999 H   0  0  0  0  0  0  0  0  0  0  0  0
   -2.3333   22.2318  -32.5892 H   0  0  0  0  0  0  0  0  0  0  0  0
   -4.6040   22.5460  -34.0180 H   0  0  0  0  0  0  0  0  0  0  0  0
   -3.5300   21.3340  -34.1900 H   0  0  0  0  0  0  0  0  0  0  0  0
   -5.7026   23.3617  -32.2733 H   0  0  0  0  0  0  0  0  0  0  0  0
   -7.8334   24.2292  -31.3462 H   0  0  0  0  0  0  0  0  0  0  0  0
   -9.8116   22.7405  -31.1519 H   0  0  0  0  0  0  0  0  0  0  0  0
   -9.6547   20.3600  -31.8311 H   0  0  0  0  0  0  0  0  0  0  0  0
   -8.5664   18.1240  -31.2065 H   0  0  0  0  0  0  0  0  0  0  0  0
   -9.4752   18.5191  -32.7047 H   0  0  0  0  0  0  0  0  0  0  0  0
   -8.2848   17.1739  -32.7047 H   0  0  0  0  0  0  0  0  0  0  0  0
   -7.2512   16.7912  -34.0159 H   0  0  0  0  0  0  0  0  0  0  0  0
   -5.1865   15.8700  -35.0345 H   0  0  0  0  0  0  0  0  0  0  0  0
   -3.0336   17.0747  -34.7849 H   0  0  0  0  0  0  0  0  0  0  0  0
   -1.4272   17.9623  -34.2928 H   0  0  0  0  0  0  0  0  0  0  0  0
   -0.6551   19.5155  -33.7178 H   0  0  0  0  0  0  0  0  0  0  0  0
   -1.8976   18.2052  -31.4876 H   0  0  0  0  0  0  0  0  0  0  0  0
   -0.7826   17.0419  -32.4250 H   0  0  0  0  0  0  0  0  0  0  0  0
    2.2646   18.2226  -31.5900 H   0  0  0  0  0  0  0  0  0  0  0  0
    1.2647   17.4859  -32.8878 H   0  0  0  0  0  0  0  0  0  0  0  0
    1.5746   19.2552  -32.8878 H   0  0  0  0  0  0  0  0  0  0  0  0
   -0.6617   17.3346  -29.9280 H   0  0  0  0  0  0  0  0  0  0  0  0
    1.0863   17.0158  -30.3508 H   0  0  0  0  0  0  0  0  0  0  0  0
    0.8717   17.9475  -28.0822 H   0  0  0  0  0  0  0  0  0  0  0  0
    1.7495   19.0680  -29.2101 H   0  0  0  0  0  0  0  0  0  0  0  0
    0.4150   20.5576  -26.7701 H   0  0  0  0  0  0  0  0  0  0  0  0
    1.6200   20.7130  -28.0932 H   0  0  0  0  0  0  0  0  0  0  0  0
    0.1483   21.7429  -28.0932 H   0  0  0  0  0  0  0  0  0  0  0  0
   -1.0024   19.3138  -26.7102 H   0  0  0  0  0  0  0  0  0  0  0  0
   -2.2006   19.7323  -27.9813 H   0  0  0  0  0  0  0  0  0  0  0  0
   -1.4193   18.1149  -27.9813 H   0  0  0  0  0  0  0  0  0  0  0  0
   -1.7754   19.9167  -30.0133 H   0  0  0  0  0  0  0  0  0  0  0  0
   -0.7951   21.4184  -29.7113 H   0  0  0  0  0  0  0  0  0  0  0  0
   -0.3875   20.5629  -31.9736 H   0  0  0  0  0  0  0  0  0  0  0  0
    1.0936   20.4201  -30.9246 H   0  0  0  0  0  0  0  0  0  0  0  0
  1  2  1  0
  2  3  1  0
  3  4  1  0
  4  5  1  0
  5  6  1  0
  6  7  2  0
  7  8  1  0
  8  9  2  0
  9 10  1  0
 10 11  2  0
 11 12  1  0
 12 13  2  0
 13 14  1  0
 13 15  1  0
 15 16  2  0
 16 17  1  0
 17 18  2  0
 18 19  1  0
 19 20  1  0
 20 21  1  0
 21 22  1  0
 22 23  1  0
 23 24  1  0
 23 25  1  0
 25 26  1  0
 26 27  1  0
 27 28  1  0
 27 29  1  0
 27 30  1  0
 30 31  1  0
 19 32  2  0
 32  6  1  0
 12  7  1  0
 32 15  1  0
 31 23  1  0
  1 33  1  0
  1 34  1  0
  1 35  1  0
  2 36  1  0
  2 37  1  0
  3 38  1  0
  3 39  1  0
  4 40  1  0
  4 41  1  0
  5 42  1  0
  5 43  1  0
  8 44  1  0
  9 45  1  0
 10 46  1  0
 11 47  1  0
 14 48  1  0
 14 49  1  0
 14 50  1  0
 16 51  1  0
 17 52  1  0
 18 53  1  0
 21 54  1  0
 21 55  1  0
 22 56  1  0
 22 57  1  0
 24 58  1  0
 24 59  1  0
 24 60  1  0
 25 61  1  0
 25 62  1  0
 26 63  1  0
 26 64  1  0
 28 65  1  0
 28 66  1  0
 28 67  1  0
 29 68  1  0
 29 69  1  0
 29 70  1  0
 30 71  1  0
 30 72  1  0
 31 73  1  0
 31 74  1  0
M  CHG  4   5   1  13   1  23   1  27   1
M  END
>  <UniqueID>  (18) 
18

>  <SMILES>  (18) 
CCCC[NH2+]c1c2ccccc2[n+](C)c2cccc(OCC[N+]3(C)CC[N+](C)(C)CC3)c12

>  <Energy>  (18) 
134.56991179029055

>  <Genealogy>  (18) 
CCCC[NH2+]c1c2ccccc2[n+](C)c2cccc(OCC[N+]3(C)CC[N+](C)(C)CC3)c12 (protonated)
CCCC[NH2+]c1c2ccccc2[n+](C)c2cccc(OCC[N+]3(C)CC[N+](C)(C)CC3)c12 (3D coordinates assigned)
CCCC[NH2+]c1c2ccccc2[n+](C)c2cccc(OCC[N+]3(C)CC[N+](C)(C)CC3)c12 (nonaromatic ring conformer: 134.56991179029055 kcal/mol)

>  <smiles>  (18) 
CCCCNc1c2ccccc2[n+](C)c2cccc(OCC[N+]3(C)CC[N+](C)(C)CC3)c12

>  <score_type>  (18) 
oracle

>  <origin>  (18) 
adg

>  <m_score__min__energy>  (18) 
-6.9800000000000004

>  <m_primary>  (18) 
energy

$$$$
18:0
     RDKit          3D

 67 69  0  0  0  0  0  0  0  0999 V2000
   -5.8500   25.2780  -30.0810 C   0  0  0  0  0  0  0  0  0  0  0  0
   -4.9810   24.0170  -30.0860 C   0  0  0  0  0  0  0  0  0  0  0  0
   -4.0300   23.9990  -31.2080 N   0  0  0  0  0  0  0  0  0  0  0  0
   -3.0240   22.9280  -31.0980 C   0  0  0  0  0  0  0  0  0  0  0  0
   -3.4840   21.6890  -31.8740 C   0  0  0  0  0  0  0  0  0  0  0  0
   -4.5220   22.0270  -32.8650 N   0  0  0  0  0  0  0  0  0  0  0  0
   -5.6630   21.1320  -32.7380 C   0  0  0  0  0  0  0  0  0  0  0  0
   -6.9420   21.6360  -32.3830 C   0  0  0  0  0  0  0  0  0  0  0  0
   -7.2060   23.0290  -32.3200 C   0  0  0  0  0  0  0  0  0  0  0  0
   -8.4660   23.5070  -31.9680 C   0  0  0  0  0  0  0  0  0  0  0  0
   -9.4960   22.6180  -31.6900 C   0  0  0  0  0  0  0  0  0  0  0  0
   -9.2720   21.2450  -31.7580 C   0  0  0  0  0  0  0  0  0  0  0  0
   -7.9950   20.7240  -32.0890 C   0  0  0  0  0  0  0  0  0  0  0  0
   -7.7710   19.3650  -32.1530 N   0  0  0  0  0  0  0  0  0  0  0  0
   -8.7400   18.4240  -31.5470 C   0  0  0  0  0  0  0  0  0  0  0  0
   -6.6360   18.8820  -32.7700 C   0  0  0  0  0  0  0  0  0  0  0  0
   -6.5500   17.5330  -33.1850 C   0  0  0  0  0  0  0  0  0  0  0  0
   -5.3790   17.0070  -33.7350 C   0  0  0  0  0  0  0  0  0  0  0  0
   -5.3600   15.6210  -34.1250 N   0  0  0  0  0  0  0  0  0  0  0  0
   -6.5650   14.7940  -34.2290 C   0  0  0  0  0  0  0  0  0  0  0  0
   -6.2260   13.3070  -34.4460 C   0  0  0  0  0  0  0  0  0  0  0  0
   -5.2960   12.7570  -33.3540 C   0  0  0  0  0  0  0  0  0  0  0  0
   -4.0160   13.4970  -33.3440 N   0  0  0  0  0  0  0  0  0  0  0  0
   -2.9760   12.7770  -34.0950 C   0  0  0  0  0  0  0  0  0  0  0  0
   -3.5610   13.7150  -31.9610 C   0  0  0  0  0  0  0  0  0  0  0  0
   -4.2640   17.8360  -33.9220 C   0  0  0  0  0  0  0  0  0  0  0  0
   -3.1050   17.2970  -34.5040 O   0  0  0  0  0  0  0  0  0  0  0  0
   -2.1530   16.4860  -33.8280 C   0  0  0  0  0  0  0  0  0  0  0  0
   -4.3490   19.1920  -33.5640 C   0  0  0  0  0  0  0  0  0  0  0  0
   -5.5360   19.7430  -33.0190 C   0  0  0  0  0  0  0  0  0  0  0  0
   -6.0561   25.5771  -29.0427 H   0  0  0  0  0  0  0  0  0  0  0  0
   -5.3195   26.0910  -30.5983 H   0  0  0  0  0  0  0  0  0  0  0  0
   -6.7986   25.0717  -30.5983 H   0  0  0  0  0  0  0  0  0  0  0  0
   -4.4164   23.9727  -29.1430 H   0  0  0  0  0  0  0  0  0  0  0  0
   -5.6479   23.1491  -30.1961 H   0  0  0  0  0  0  0  0  0  0  0  0
   -3.5450   24.9260  -31.2650 H   0  0  0  0  0  0  0  0  0  0  0  0
   -2.0688   23.2826  -31.5125 H   0  0  0  0  0  0  0  0  0  0  0  0
   -2.8973   22.6616  -30.0383 H   0  0  0  0  0  0  0  0  0  0  0  0
   -2.6196   21.2530  -32.3962 H   0  0  0  0  0  0  0  0  0  0  0  0
   -3.9111   20.9718  -31.1576 H   0  0  0  0  0  0  0  0  0  0  0  0
   -4.1300   21.9920  -33.8320 H   0  0  0  0  0  0  0  0  0  0  0  0
   -4.8230   23.0230  -32.7650 H   0  0  0  0  0  0  0  0  0  0  0  0
   -6.4023   23.7430  -32.5530 H   0  0  0  0  0  0  0  0  0  0  0  0
   -8.6456   24.5907  -31.9101 H   0  0  0  0  0  0  0  0  0  0  0  0
  -10.4908   22.9989  -31.4155 H   0  0  0  0  0  0  0  0  0  0  0  0
  -10.1008   20.5519  -31.5512 H   0  0  0  0  0  0  0  0  0  0  0  0
   -8.6754   18.4867  -30.4507 H   0  0  0  0  0  0  0  0  0  0  0  0
   -9.7580   18.6874  -31.8700 H   0  0  0  0  0  0  0  0  0  0  0  0
   -8.5066   17.3987  -31.8700 H   0  0  0  0  0  0  0  0  0  0  0  0
   -7.4285   16.8808  -33.0717 H   0  0  0  0  0  0  0  0  0  0  0  0
   -4.4900   15.2530  -34.5660 H   0  0  0  0  0  0  0  0  0  0  0  0
   -7.1460   14.8942  -33.3003 H   0  0  0  0  0  0  0  0  0  0  0  0
   -7.1424   15.1417  -35.0983 H   0  0  0  0  0  0  0  0  0  0  0  0
   -7.1603   12.7265  -34.4406 H   0  0  0  0  0  0  0  0  0  0  0  0
   -5.7038   13.2175  -35.4100 H   0  0  0  0  0  0  0  0  0  0  0  0
   -5.7844   12.8649  -32.3743 H   0  0  0  0  0  0  0  0  0  0  0  0
   -5.0923   11.6960  -33.5609 H   0  0  0  0  0  0  0  0  0  0  0  0
   -2.2815   12.2962  -33.3904 H   0  0  0  0  0  0  0  0  0  0  0  0
   -3.4457   12.0098  -34.7281 H   0  0  0  0  0  0  0  0  0  0  0  0
   -2.4232   13.4867  -34.7281 H   0  0  0  0  0  0  0  0  0  0  0  0
   -4.3263   13.3483  -31.2611 H   0  0  0  0  0  0  0  0  0  0  0  0
   -2.6203   13.1698  -31.7943 H   0  0  0  0  0  0  0  0  0  0  0  0
   -3.3964   14.7898  -31.7943 H   0  0  0  0  0  0  0  0  0  0  0  0
   -2.2829   16.5966  -32.7413 H   0  0  0  0  0  0  0  0  0  0  0  0
   -2.3022   15.4332  -34.1098 H   0  0  0  0  0  0  0  0  0  0  0  0
   -1.1373   16.8006  -34.1098 H   0  0  0  0  0  0  0  0  0  0  0  0
   -3.4735   19.8417  -33.7101 H   0  0  0  0  0  0  0  0  0  0  0  0
  1  2  1  0
  2  3  1  0
  3  4  1  0
  4  5  1  0
  5  6  1  0
  6  7  1  0
  7  8  2  0
  8  9  1  0
  9 10  2  0
 10 11  1  0
 11 12  2  0
 12 13  1  0
 13 14  2  0
 14 15  1  0
 14 16  1  0
 16 17  2  0
 17 18  1  0
 18 19  1  0
 19 20  1  0
 20 21  1  0
 21 22  1  0
 22 23  1  0
 23 24  1  0
 23 25  1  0
 18 26  2  0
 26 27  1  0
 27 28  1  0
 26 29  1  0
 29 30  2  0
 30  7  1  0
 13  8  1  0
 30 16  1  0
  1 31  1  0
  1 32  1  0
  1 33  1  0
  2 34  1  0
  2 35  1  0
  3 36  1  0
  4 37  1  0
  4 38  1  0
  5 39  1  0
  5 40  1  0
  6 41  1  0
  6 42  1  0
  9 43  1  0
 10 44  1  0
 11 45  1  0
 12 46  1  0
 15 47  1  0
 15 48  1  0
 15 49  1  0
 17 50  1  0
 19 51  1  0
 20 52  1  0
 20 53  1  0
 21 54  1  0
 21 55  1  0
 22 56  1  0
 22 57  1  0
 24 58  1  0
 24 59  1  0
 24 60  1  0
 25 61  1  0
 25 62  1  0
 25 63  1  0
 28 64  1  0
 28 65  1  0
 28 66  1  0
 29 67  1  0
M  CHG  2   6   1  14   1
M  END
>  <UniqueID>  (19) 
19

>  <SMILES>  (19) 
CCNCC[NH2+]c1c2ccccc2[n+](C)c2cc(NCCCN(C)C)c(OC)cc12

>  <Energy>  (19) 
92.38238347581209

>  <Genealogy>  (19) 
CCNCC[NH2+]c1c2ccccc2[n+](C)c2cc(NCCCN(C)C)c(OC)cc12 (protonated)
CCNCC[NH2+]c1c2ccccc2[n+](C)c2cc(NCCCN(C)C)c(OC)cc12 (3D coordinates assigned)
CCNCC[NH2+]c1c2ccccc2[n+](C)c2cc(NCCCN(C)C)c(OC)cc12 (optimized conformer: 92.38238347581209 kcal/mol)

>  <smiles>  (19) 
CCNCCNc1c2ccccc2[n+](C)c2cc(NCCCN(C)C)c(OC)cc12

>  <score_type>  (19) 
oracle

>  <origin>  (19) 
adg

>  <m_score__min__energy>  (19) 
-7.7999999999999998

>  <m_primary>  (19) 
energy

$$$$
20:0
     RDKit          3D

 33 33  0  0  0  0  0  0  0  0999 V2000
   -6.6008   24.3097  -29.4805 H   0  0  0  0  0  0  0  0  0  0  0  0
   -5.8930   24.2130  -30.3170 C   0  0  0  0  0  0  0  0  0  0  0  0
   -4.4630   24.4580  -30.0750 C   0  0  0  0  0  0  0  0  0  0  0  0
   -3.8520   25.2960  -30.7930 O   0  0  0  0  0  0  0  0  0  0  0  0
   -3.7930   23.7760  -29.0550 O   0  0  0  0  0  0  0  0  0  0  0  0
   -3.8530   24.1730  -27.6890 C   0  0  0  0  0  0  0  0  0  0  0  0
   -4.4143   23.4204  -27.1159 H   0  0  0  0  0  0  0  0  0  0  0  0
   -4.3562   25.1487  -27.6200 H   0  0  0  0  0  0  0  0  0  0  0  0
   -2.4390   24.2970  -27.1130 C   0  0  0  0  0  0  0  0  0  0  0  0
   -1.9225   23.3337  -27.2366 H   0  0  0  0  0  0  0  0  0  0  0  0
   -2.5343   24.5731  -26.0525 H   0  0  0  0  0  0  0  0  0  0  0  0
   -1.6140   25.3890  -27.8050 C   0  0  0  0  0  0  0  0  0  0  0  0
   -0.7330   25.6223  -27.1890 H   0  0  0  0  0  0  0  0  0  0  0  0
   -2.2400   26.2854  -27.9258 H   0  0  0  0  0  0  0  0  0  0  0  0
   -1.1710   24.9360  -29.1310 N   0  0  0  0  0  0  0  0  0  0  0  0
   -2.0230   24.8270  -29.7300 H   0  0  0  0  0  0  0  0  0  0  0  0
   -0.4970   23.6330  -29.0580 C   0  0  0  0  0  0  0  0  0  0  0  0
   -0.5800   23.2390  -28.0343 H   0  0  0  0  0  0  0  0  0  0  0  0
    0.5612   23.7635  -29.3287 H   0  0  0  0  0  0  0  0  0  0  0  0
   -1.1380   22.6460  -30.0300 C   0  0  0  0  0  0  0  0  0  0  0  0
   -1.6517   21.8550  -29.4639 H   0  0  0  0  0  0  0  0  0  0  0  0
   -1.8654   23.1750  -30.6633 H   0  0  0  0  0  0  0  0  0  0  0  0
   -0.3589   22.1967  -30.6633 H   0  0  0  0  0  0  0  0  0  0  0  0
   -6.3570   23.8760  -31.5250 C   0  0  0  0  0  0  0  0  0  0  0  0
   -6.1231   24.5255  -32.3814 H   0  0  0  0  0  0  0  0  0  0  0  0
   -7.1690   22.6690  -31.7530 C   0  0  0  0  0  0  0  0  0  0  0  0
   -6.6130   21.1460  -32.2180 S   0  0  0  0  0  0  0  0  0  0  0  0
   -8.1200   20.3990  -32.2500 C   0  0  0  0  0  0  0  0  0  0  0  0
   -8.3128   19.3472  -32.5080 H   0  0  0  0  0  0  0  0  0  0  0  0
   -9.0780   21.3380  -31.8950 C   0  0  0  0  0  0  0  0  0  0  0  0
  -10.1521   21.1081  -31.8366 H   0  0  0  0  0  0  0  0  0  0  0  0
   -8.5510   22.6050  -31.6180 C   0  0  0  0  0  0  0  0  0  0  0  0
   -9.1696   23.4652  -31.3226 H   0  0  0  0  0  0  0  0  0  0  0  0
  1  2  1  0
  2  3  1  0
  3  4  2  0
  3  5  1  0
  5  6  1  0
  6  7  1  0
  6  8  1  0
  6  9  1  0
  9 10  1  0
  9 11  1  0
  9 12  1  0
 12 13  1  0
 12 14  1  0
 12 15  1  0
 15 16  1  0
 15 17  1  0
 17 18  1  0
 17 19  1  0
 17 20  1  0
 20 21  1  0
 20 22  1  0
 20 23  1  0
  2 24  2  0
 24 25  1  0
 24 26  1  0
 26 27  1  0
 27 28  1  0
 28 29  1  0
 28 30  2  0
 30 31  1  0
 30 32  1  0
 32 33  1  0
 32 26  2  0
M  END
>  <UniqueID>  (20) 
20

>  <SMILES>  (20) 
CCNCCCOC(=O)/C=C/c1cccs1

>  <Energy>  (20) 
44.585180250864234

>  <Genealogy>  (20) 
CCNCCCOC(=O)/C=C/c1cccs1 (cis-trans isomerization)
CCNCCCOC(=O)/C=C/c1cccs1 (3D coordinates assigned)
CCNCCCOC(=O)/C=C/c1cccs1 (optimized conformer: 44.585180250864234 kcal/mol)

>  <smiles>  (20) 
CCNCCCOC(=O)C=Cc1cccs1

>  <score_type>  (20) 
oracle

>  <origin>  (20) 
adg

>  <m_score__min__energy>  (20) 
-6.0499999999999998

>  <m_primary>  (20) 
energy

$$$$
