0:0
     RDKit          3D

 68 70  0  0  0  0  0  0  0  0999 V2000
   -2.1750   23.6430  -27.9260 C   0  0  0  0  0  0  0  0  0  0  0  0
   -3.0580   22.4040  -27.7960 C   0  0  0  0  0  0  0  0  0  0  0  0
   -2.2660   21.2490  -27.5910 O   0  0  0  0  0  0  0  0  0  0  0  0
   -3.0870   20.1130  -27.4040 C   0  0  0  0  0  0  0  0  0  0  0  0
   -2.3970   19.1340  -26.4510 C   0  0  0  0  0  0  0  0  0  0  0  0
   -1.0990   18.5750  -27.0480 C   0  0  0  0  0  0  0  0  0  0  0  0
   -0.4160   19.5990  -27.8540 N   0  0  0  0  0  0  0  0  0  0  0  0
    0.8890   19.1040  -28.3270 C   0  0  0  0  0  0  0  0  0  0  0  0
    0.8960   18.9530  -29.8510 C   0  0  0  0  0  0  0  0  0  0  0  0
   -0.2950   19.5060  -30.3750 O   0  0  0  0  0  0  0  0  0  0  0  0
   -0.0730   20.8240  -30.8420 C   0  0  0  0  0  0  0  0  0  0  0  0
   -1.2710   21.7240  -30.5360 C   0  0  0  0  0  0  0  0  0  0  0  0
   -1.7940   22.2150  -31.7550 O   0  0  0  0  0  0  0  0  0  0  0  0
   -1.3700   21.4320  -32.8530 C   0  0  0  0  0  0  0  0  0  0  0  0
   -2.4140   20.3610  -33.1940 C   0  0  0  0  0  0  0  0  0  0  0  0
   -3.6680   20.9650  -33.6540 N   0  0  0  0  0  0  0  0  0  0  0  0
   -4.9420   20.5630  -33.1180 C   0  0  0  0  0  0  0  0  0  0  0  0
   -5.4420   19.2750  -33.3750 C   0  0  0  0  0  0  0  0  0  0  0  0
   -4.6480   18.3040  -34.0230 C   0  0  0  0  0  0  0  0  0  0  0  0
   -5.1400   17.0240  -34.2610 C   0  0  0  0  0  0  0  0  0  0  0  0
   -6.4230   16.6830  -33.8450 C   0  0  0  0  0  0  0  0  0  0  0  0
   -7.2270   17.6260  -33.2050 C   0  0  0  0  0  0  0  0  0  0  0  0
   -6.7680   18.9480  -32.9800 C   0  0  0  0  0  0  0  0  0  0  0  0
   -7.5690   19.9060  -32.3870 N   0  0  0  0  0  0  0  0  0  0  0  0
   -9.0240   19.6740  -32.2490 C   0  0  0  0  0  0  0  0  0  0  0  0
   -7.0090   21.0860  -31.9310 C   0  0  0  0  0  0  0  0  0  0  0  0
   -7.7110   21.9550  -31.0560 C   0  0  0  0  0  0  0  0  0  0  0  0
   -7.1380   23.1490  -30.6150 C   0  0  0  0  0  0  0  0  0  0  0  0
   -5.8510   23.4970  -31.0120 C   0  0  0  0  0  0  0  0  0  0  0  0
   -5.0650   25.1200  -30.3800 Br  0  0  0  0  0  0  0  0  0  0  0  0
   -5.1250   22.6470  -31.8440 C   0  0  0  0  0  0  0  0  0  0  0  0
   -5.6880   21.4410  -32.3130 C   0  0  0  0  0  0  0  0  0  0  0  0
   -1.9117   24.0124  -26.9239 H   0  0  0  0  0  0  0  0  0  0  0  0
   -1.2572   23.3833  -28.4739 H   0  0  0  0  0  0  0  0  0  0  0  0
   -2.7200   24.4258  -28.4739 H   0  0  0  0  0  0  0  0  0  0  0  0
   -3.7383   22.5326  -26.9412 H   0  0  0  0  0  0  0  0  0  0  0  0
   -3.6344   22.2794  -28.7246 H   0  0  0  0  0  0  0  0  0  0  0  0
   -4.0508   20.4242  -26.9749 H   0  0  0  0  0  0  0  0  0  0  0  0
   -3.2578   19.6214  -28.3731 H   0  0  0  0  0  0  0  0  0  0  0  0
   -2.1606   19.6575  -25.5129 H   0  0  0  0  0  0  0  0  0  0  0  0
   -3.0814   18.2915  -26.2727 H   0  0  0  0  0  0  0  0  0  0  0  0
   -0.4345   18.2548  -26.2320 H   0  0  0  0  0  0  0  0  0  0  0  0
   -1.3459   17.7208  -27.6956 H   0  0  0  0  0  0  0  0  0  0  0  0
   -0.2620   20.4530  -27.2700 H   0  0  0  0  0  0  0  0  0  0  0  0
   -1.0140   19.8440  -28.6780 H   0  0  0  0  0  0  0  0  0  0  0  0
    1.6731   19.8169  -28.0320 H   0  0  0  0  0  0  0  0  0  0  0  0
    1.0761   18.1187  -27.8752 H   0  0  0  0  0  0  0  0  0  0  0  0
    1.7640   19.4832  -30.2699 H   0  0  0  0  0  0  0  0  0  0  0  0
    0.9595   17.8878  -30.1181 H   0  0  0  0  0  0  0  0  0  0  0  0
    0.8204   21.2345  -30.3487 H   0  0  0  0  0  0  0  0  0  0  0  0
    0.0696   20.7897  -31.9322 H   0  0  0  0  0  0  0  0  0  0  0  0
   -2.0434   21.1451  -30.0086 H   0  0  0  0  0  0  0  0  0  0  0  0
   -0.9554   22.5635  -29.8991 H   0  0  0  0  0  0  0  0  0  0  0  0
   -1.2244   22.0846  -33.7264 H   0  0  0  0  0  0  0  0  0  0  0  0
   -0.4268   20.9326  -32.5865 H   0  0  0  0  0  0  0  0  0  0  0  0
   -2.0159   19.7131  -33.9889 H   0  0  0  0  0  0  0  0  0  0  0  0
   -2.6230   19.7787  -32.2845 H   0  0  0  0  0  0  0  0  0  0  0  0
   -3.6270   21.7750  -34.3130 H   0  0  0  0  0  0  0  0  0  0  0  0
   -3.6280   18.5623  -34.3437 H   0  0  0  0  0  0  0  0  0  0  0  0
   -4.5142   16.2818  -34.7782 H   0  0  0  0  0  0  0  0  0  0  0  0
   -6.8045   15.6665  -34.0214 H   0  0  0  0  0  0  0  0  0  0  0  0
   -8.2344   17.3389  -32.8692 H   0  0  0  0  0  0  0  0  0  0  0  0
   -9.2890   19.6317  -31.1822 H   0  0  0  0  0  0  0  0  0  0  0  0
   -9.5737   20.4958  -32.7311 H   0  0  0  0  0  0  0  0  0  0  0  0
   -9.2908   18.7220  -32.7311 H   0  0  0  0  0  0  0  0  0  0  0  0
   -8.7226   21.6835  -30.7200 H   0  0  0  0  0  0  0  0  0  0  0  0
   -7.7062   23.8172  -29.9511 H   0  0  0  0  0  0  0  0  0  0  0  0
   -4.1008   22.9194  -32.1387 H   0  0  0  0  0  0  0  0  0  0  0  0
  1  2  1  0
  2  3  1  0
  3  4  1  0
  4  5  1  0
  5  6  1  0
  6  7  1  0
  7  8  1  0
  8  9  1  0
  9 10  1  0
 10 11  1  0
 11 12  1  0
 12 13  1  0
 13 14  1  0
 14 15  1  0
 15 16  1  0
 16 17  1  0
 17 18  2  0
 18 19  1  0
 19 20  2  0
 20 21  1  0
 21 22  2  0
 22 23  1  0
 23 24  2  0
 24 25  1  0
 24 26  1  0
 26 27  2  0
 27 28  1  0
 28 29  2  0
 29 30  1  0
 29 31  1  0
 31 32  2  0
 32 17  1  0
 23 18  1  0
 32 26  1  0
  1 33  1  0
  1 34  1  0
  1 35  1  0
  2 36  1  0
  2 37  1  0
  4 38  1  0
  4 39  1  0
  5 40  1  0
  5 41  1  0
  6 42  1  0
  6 43  1  0
  7 44  1  0
  7 45  1  0
  8 46  1  0
  8 47  1  0
  9 48  1  0
  9 49  1  0
 11 50  1  0
 11 51  1  0
 12 52  1  0
 12 53  1  0
 14 54  1  0
 14 55  1  0
 15 56  1  0
 15 57  1  0
 16 58  1  0
 19 59  1  0
 20 60  1  0
 21 61  1  0
 22 62  1  0
 25 63  1  0
 25 64  1  0
 25 65  1  0
 27 66  1  0
 28 67  1  0
 31 68  1  0
M  CHG  2   7   1  24   1
M  END
>  <UniqueID>  (1) 
1

>  <SMILES>  (1) 
CCOCCC[NH2+]CCOCCOCCNc1c2ccccc2[n+](C)c2ccc(Br)cc12

>  <Energy>  (1) 
88.53494959820317

>  <Genealogy>  (1) 
CCOCCC[NH2+]CCOCCOCCNc1c2ccccc2[n+](C)c2ccc(Br)cc12 (protonated)
CCOCCC[NH2+]CCOCCOCCNc1c2ccccc2[n+](C)c2ccc(Br)cc12 (3D coordinates assigned)
CCOCCC[NH2+]CCOCCOCCNc1c2ccccc2[n+](C)c2ccc(Br)cc12 (optimized conformer: 88.53494959820317 kcal/mol)

>  <smiles>  (1) 
CCOCCCNCCOCCOCCNc1c2ccccc2[n+](C)c2ccc(Br)cc12

>  <score_type>  (1) 
oracle

>  <origin>  (1) 
adg

>  <m_score__min__energy>  (1) 
-7.3899999999999997

>  <m_primary>  (1) 
energy

$$$$
1:0
     RDKit          3D

 64 65  0  0  0  0  0  0  0  0999 V2000
   -2.1410   24.8460  -27.3730 C   0  0  0  0  0  0  0  0  0  0  0  0
   -1.8260   24.4650  -28.8170 C   0  0  0  0  0  0  0  0  0  0  0  0
   -2.8050   25.0020  -29.7060 O   0  0  0  0  0  0  0  0  0  0  0  0
   -4.0800   24.4620  -29.9410 C   0  0  0  0  0  0  0  0  0  0  0  0
   -5.0330   25.0870  -30.7700 C   0  0  0  0  0  0  0  0  0  0  0  0
   -6.2880   24.5050  -30.9660 C   0  0  0  0  0  0  0  0  0  0  0  0
   -6.6130   23.2940  -30.3390 C   0  0  0  0  0  0  0  0  0  0  0  0
   -7.9620   22.6590  -30.5410 C   0  0  0  0  0  0  0  0  0  0  0  0
   -7.8190   21.4220  -31.3320 N   0  0  0  0  0  0  0  0  0  0  0  0
   -9.1210   20.9100  -31.7940 C   0  0  0  0  0  0  0  0  0  0  0  0
   -8.9540   19.5060  -32.4240 C   0  0  0  0  0  0  0  0  0  0  0  0
   -7.5640   19.2240  -32.8730 N   0  0  0  0  0  0  0  0  0  0  0  0
   -6.7630   18.6200  -31.7730 C   0  0  0  0  0  0  0  0  0  0  0  0
   -5.9180   17.4130  -32.2150 C   0  0  0  0  0  0  0  0  0  0  0  0
   -5.9170   17.3170  -33.6270 O   0  0  0  0  0  0  0  0  0  0  0  0
   -4.6450   17.6430  -34.1520 C   0  0  0  0  0  0  0  0  0  0  0  0
   -3.8690   18.5480  -33.1740 C   0  0  0  0  0  0  0  0  0  0  0  0
   -3.3170   19.7840  -33.7790 N   0  0  0  0  0  0  0  0  0  0  0  0
   -1.8870   19.6750  -34.1530 C   0  0  0  0  0  0  0  0  0  0  0  0
   -1.1740   20.9730  -33.8010 C   0  0  0  0  0  0  0  0  0  0  0  0
   -3.6520   21.0200  -33.0410 C   0  0  0  0  0  0  0  0  0  0  0  0
   -3.7280   20.7430  -31.5390 C   0  0  0  0  0  0  0  0  0  0  0  0
   -6.9630   20.4410  -33.4680 C   0  0  0  0  0  0  0  0  0  0  0  0
   -6.9000   21.6190  -32.4700 C   0  0  0  0  0  0  0  0  0  0  0  0
   -5.6660   22.6730  -29.5100 C   0  0  0  0  0  0  0  0  0  0  0  0
   -4.4120   23.2540  -29.3150 C   0  0  0  0  0  0  0  0  0  0  0  0
   -1.5915   24.1813  -26.6902 H   0  0  0  0  0  0  0  0  0  0  0  0
   -1.8371   25.8879  -27.1941 H   0  0  0  0  0  0  0  0  0  0  0  0
   -3.2215   24.7433  -27.1941 H   0  0  0  0  0  0  0  0  0  0  0  0
   -0.8364   24.8620  -29.0874 H   0  0  0  0  0  0  0  0  0  0  0  0
   -1.8341   23.3684  -28.9030 H   0  0  0  0  0  0  0  0  0  0  0  0
   -4.7875   26.0380  -31.2653 H   0  0  0  0  0  0  0  0  0  0  0  0
   -7.0250   24.9997  -31.6158 H   0  0  0  0  0  0  0  0  0  0  0  0
   -8.4022   22.4177  -29.5622 H   0  0  0  0  0  0  0  0  0  0  0  0
   -8.6165   23.3604  -31.0792 H   0  0  0  0  0  0  0  0  0  0  0  0
   -9.8092   20.8442  -30.9384 H   0  0  0  0  0  0  0  0  0  0  0  0
   -9.5264   21.5962  -32.5522 H   0  0  0  0  0  0  0  0  0  0  0  0
   -9.2391   18.7515  -31.6760 H   0  0  0  0  0  0  0  0  0  0  0  0
   -9.5978   19.4701  -33.3152 H   0  0  0  0  0  0  0  0  0  0  0  0
   -7.6270   18.5070  -33.6350 H   0  0  0  0  0  0  0  0  0  0  0  0
   -6.0867   19.3896  -31.3727 H   0  0  0  0  0  0  0  0  0  0  0  0
   -7.4758   18.2549  -31.0190 H   0  0  0  0  0  0  0  0  0  0  0  0
   -4.8856   17.5400  -31.8573 H   0  0  0  0  0  0  0  0  0  0  0  0
   -6.3485   16.4943  -31.7898 H   0  0  0  0  0  0  0  0  0  0  0  0
   -4.0744   16.7173  -34.3178 H   0  0  0  0  0  0  0  0  0  0  0  0
   -4.7810   18.1818  -35.1013 H   0  0  0  0  0  0  0  0  0  0  0  0
   -4.5513   18.8392  -32.3618 H   0  0  0  0  0  0  0  0  0  0  0  0
   -3.0067   17.9609  -32.8251 H   0  0  0  0  0  0  0  0  0  0  0  0
   -1.4259   18.8416  -33.6027 H   0  0  0  0  0  0  0  0  0  0  0  0
   -1.8022   19.4897  -35.2340 H   0  0  0  0  0  0  0  0  0  0  0  0
   -1.1177   21.0755  -32.7072 H   0  0  0  0  0  0  0  0  0  0  0  0
   -0.1573   20.9583  -34.2207 H   0  0  0  0  0  0  0  0  0  0  0  0
   -1.7317   21.8232  -34.2207 H   0  0  0  0  0  0  0  0  0  0  0  0
   -2.8763   21.7765  -33.2308 H   0  0  0  0  0  0  0  0  0  0  0  0
   -4.6306   21.3858  -33.3853 H   0  0  0  0  0  0  0  0  0  0  0  0
   -3.4767   21.6589  -30.9841 H   0  0  0  0  0  0  0  0  0  0  0  0
   -4.7471   20.4231  -31.2763 H   0  0  0  0  0  0  0  0  0  0  0  0
   -3.0148   19.9478  -31.2763 H   0  0  0  0  0  0  0  0  0  0  0  0
   -5.9410   20.2040  -33.7988 H   0  0  0  0  0  0  0  0  0  0  0  0
   -7.5995   20.7504  -34.3101 H   0  0  0  0  0  0  0  0  0  0  0  0
   -5.8726   21.7069  -32.0871 H   0  0  0  0  0  0  0  0  0  0  0  0
   -7.2033   22.5336  -33.0005 H   0  0  0  0  0  0  0  0  0  0  0  0
   -5.9132   21.7240  -29.0116 H   0  0  0  0  0  0  0  0  0  0  0  0
   -3.6774   22.7583  -28.6634 H   0  0  0  0  0  0  0  0  0  0  0  0
  1  2  1  0
  2  3  1  0
  3  4  1  0
  4  5  2  0
  5  6  1  0
  6  7  2  0
  7  8  1  0
  8  9  1  0
  9 10  1  0
 10 11  1  0
 11 12  1  0
 12 13  1  0
 13 14  1  0
 14 15  1  0
 15 16  1  0
 16 17  1  0
 17 18  1  0
 18 19  1  0
 19 20  1  0
 18 21  1  0
 21 22  1  0
 12 23  1  0
 23 24  1  0
  7 25  1  0
 25 26  2  0
 26  4  1  0
 24  9  1  0
  1 27  1  0
  1 28  1  0
  1 29  1  0
  2 30  1  0
  2 31  1  0
  5 32  1  0
  6 33  1  0
  8 34  1  0
  8 35  1  0
 10 36  1  0
 10 37  1  0
 11 38  1  0
 11 39  1  0
 12 40  1  0
 13 41  1  0
 13 42  1  0
 14 43  1  0
 14 44  1  0
 16 45  1  0
 16 46  1  0
 17 47  1  0
 17 48  1  0
 19 49  1  0
 19 50  1  0
 20 51  1  0
 20 52  1  0
 20 53  1  0
 21 54  1  0
 21 55  1  0
 22 56  1  0
 22 57  1  0
 22 58  1  0
 23 59  1  0
 23 60  1  0
 24 61  1  0
 24 62  1  0
 25 63  1  0
 26 64  1  0
M  CHG  1  12   1
M  END
>  <UniqueID>  (2) 
2

>  <SMILES>  (2) 
CCOc1ccc(CN2CC[NH+](CCOCCN(CC)CC)CC2)cc1

>  <Energy>  (2) 
71.90003543649598

>  <Genealogy>  (2) 
CCOc1ccc(CN2CC[NH+](CCOCCN(CC)CC)CC2)cc1 (protonated)
CCOc1ccc(CN2CC[NH+](CCOCCN(CC)CC)CC2)cc1 (3D coordinates assigned)
CCOc1ccc(CN2CC[NH+](CCOCCN(CC)CC)CC2)cc1 (nonaromatic ring conformer: 71.90003543649598 kcal/mol)

>  <smiles>  (2) 
CCOc1ccc(CN2CCN(CCOCCN(CC)CC)CC2)cc1

>  <score_type>  (2) 
oracle

>  <origin>  (2) 
adg

>  <m_score__min__energy>  (2) 
-6.7400000000000002

>  <m_primary>  (2) 
energy

$$$$
2:0
     RDKit          3D

 68 70  0  0  0  0  0  0  0  0999 V2000
    0.0650   22.8760  -26.7940 C   0  0  0  0  0  0  0  0  0  0  0  0
    1.0360   23.5780  -27.7350 C   0  0  0  0  0  0  0  0  0  0  0  0
    0.5460   24.9230  -28.0560 N   0  0  0  0  0  0  0  0  0  0  0  0
   -0.5730   25.2780  -27.1730 C   0  0  0  0  0  0  0  0  0  0  0  0
   -1.8810   25.3270  -27.9590 C   0  0  0  0  0  0  0  0  0  0  0  0
   -1.6130   25.1440  -29.3340 O   0  0  0  0  0  0  0  0  0  0  0  0
   -1.9640   23.8300  -29.7150 C   0  0  0  0  0  0  0  0  0  0  0  0
   -3.3950   23.8420  -30.2680 C   0  0  0  0  0  0  0  0  0  0  0  0
   -3.8620   25.1840  -30.6660 N   0  0  0  0  0  0  0  0  0  0  0  0
   -5.3180   25.3110  -30.8550 C   0  0  0  0  0  0  0  0  0  0  0  0
   -6.0900   24.1190  -30.2710 C   0  0  0  0  0  0  0  0  0  0  0  0
   -7.0970   23.5550  -31.2790 C   0  0  0  0  0  0  0  0  0  0  0  0
   -6.4080   22.9490  -32.4210 N   0  0  0  0  0  0  0  0  0  0  0  0
   -6.1420   21.5370  -32.4790 C   0  0  0  0  0  0  0  0  0  0  0  0
   -7.1650   20.6250  -32.1860 C   0  0  0  0  0  0  0  0  0  0  0  0
   -6.8740   19.2520  -32.0880 C   0  0  0  0  0  0  0  0  0  0  0  0
   -5.6090   18.7740  -32.3840 N   0  0  0  0  0  0  0  0  0  0  0  0
   -5.3740   17.3120  -32.4590 C   0  0  0  0  0  0  0  0  0  0  0  0
   -5.8460   16.7510  -33.7990 C   0  0  0  0  0  0  0  0  0  0  0  0
   -4.5780   19.6670  -32.6430 C   0  0  0  0  0  0  0  0  0  0  0  0
   -3.2330   19.2410  -32.8040 C   0  0  0  0  0  0  0  0  0  0  0  0
   -2.2210   20.1470  -33.1200 C   0  0  0  0  0  0  0  0  0  0  0  0
   -2.5120   21.4960  -33.2790 C   0  0  0  0  0  0  0  0  0  0  0  0
   -3.8120   21.9540  -33.0870 C   0  0  0  0  0  0  0  0  0  0  0  0
   -4.8460   21.0620  -32.7340 C   0  0  0  0  0  0  0  0  0  0  0  0
   -7.9980   18.3820  -31.5340 C   0  0  0  0  0  0  0  0  0  0  0  0
   -9.3180   18.6460  -32.2740 C   0  0  0  0  0  0  0  0  0  0  0  0
   -9.5980   20.1450  -32.5380 C   0  0  0  0  0  0  0  0  0  0  0  0
   -8.5780   21.0860  -31.8830 C   0  0  0  0  0  0  0  0  0  0  0  0
    0.3504   23.0823  -25.7519 H   0  0  0  0  0  0  0  0  0  0  0  0
   -0.9545   23.2473  -26.9753 H   0  0  0  0  0  0  0  0  0  0  0  0
    0.0980   21.7916  -26.9753 H   0  0  0  0  0  0  0  0  0  0  0  0
    2.0202   23.6558  -27.2499 H   0  0  0  0  0  0  0  0  0  0  0  0
    1.1208   22.9952  -28.6641 H   0  0  0  0  0  0  0  0  0  0  0  0
    0.1890   24.9030  -29.0400 H   0  0  0  0  0  0  0  0  0  0  0  0
   -0.6579   24.5248  -26.3759 H   0  0  0  0  0  0  0  0  0  0  0  0
   -0.3820   26.2705  -26.7388 H   0  0  0  0  0  0  0  0  0  0  0  0
   -2.5503   24.5283  -27.6067 H   0  0  0  0  0  0  0  0  0  0  0  0
   -2.3630   26.3040  -27.8069 H   0  0  0  0  0  0  0  0  0  0  0  0
   -1.2708   23.4722  -30.4905 H   0  0  0  0  0  0  0  0  0  0  0  0
   -1.9049   23.1598  -28.8448 H   0  0  0  0  0  0  0  0  0  0  0  0
   -3.4330   23.1848  -31.1493 H   0  0  0  0  0  0  0  0  0  0  0  0
   -4.0565   23.4961  -29.4601 H   0  0  0  0  0  0  0  0  0  0  0  0
   -3.3960   25.4410  -31.5680 H   0  0  0  0  0  0  0  0  0  0  0  0
   -5.6598   26.2309  -30.3582 H   0  0  0  0  0  0  0  0  0  0  0  0
   -5.5146   25.3404  -31.9369 H   0  0  0  0  0  0  0  0  0  0  0  0
   -5.3750   23.3284  -29.9993 H   0  0  0  0  0  0  0  0  0  0  0  0
   -6.6441   24.4662  -29.3864 H   0  0  0  0  0  0  0  0  0  0  0  0
   -7.7137   22.7908  -30.7832 H   0  0  0  0  0  0  0  0  0  0  0  0
   -7.7276   24.3786  -31.6450 H   0  0  0  0  0  0  0  0  0  0  0  0
   -6.1690   23.5440  -33.2450 H   0  0  0  0  0  0  0  0  0  0  0  0
   -4.2980   17.1141  -32.3449 H   0  0  0  0  0  0  0  0  0  0  0  0
   -5.9426   16.8234  -31.6541 H   0  0  0  0  0  0  0  0  0  0  0  0
   -6.5450   15.9201  -33.6229 H   0  0  0  0  0  0  0  0  0  0  0  0
   -6.3537   17.5426  -34.3696 H   0  0  0  0  0  0  0  0  0  0  0  0
   -4.9792   16.3862  -34.3696 H   0  0  0  0  0  0  0  0  0  0  0  0
   -2.9848   18.1769  -32.6771 H   0  0  0  0  0  0  0  0  0  0  0  0
   -1.1874   19.7917  -33.2439 H   0  0  0  0  0  0  0  0  0  0  0  0
   -1.7153   22.2018  -33.5565 H   0  0  0  0  0  0  0  0  0  0  0  0
   -4.0357   23.0237  -33.2119 H   0  0  0  0  0  0  0  0  0  0  0  0
   -7.7248   17.3232  -31.6534 H   0  0  0  0  0  0  0  0  0  0  0  0
   -8.1383   18.6277  -30.4710 H   0  0  0  0  0  0  0  0  0  0  0  0
   -9.2833   18.1242  -33.2417 H   0  0  0  0  0  0  0  0  0  0  0  0
  -10.1273   18.2786  -31.6259 H   0  0  0  0  0  0  0  0  0  0  0  0
   -9.5807   20.3157  -33.6245 H   0  0  0  0  0  0  0  0  0  0  0  0
  -10.5782   20.3728  -32.0938 H   0  0  0  0  0  0  0  0  0  0  0  0
   -8.7194   22.1039  -32.2753 H   0  0  0  0  0  0  0  0  0  0  0  0
   -8.7312   21.0769  -30.7938 H   0  0  0  0  0  0  0  0  0  0  0  0
  1  2  1  0
  2  3  1  0
  3  4  1  0
  4  5  1  0
  5  6  1  0
  6  7  1  0
  7  8  1  0
  8  9  1  0
  9 10  1  0
 10 11  1  0
 11 12  1  0
 12 13  1  0
 13 14  1  0
 14 15  2  0
 15 16  1  0
 16 17  2  0
 17 18  1  0
 18 19  1  0
 17 20  1  0
 20 21  2  0
 21 22  1  0
 22 23  2  0
 23 24  1  0
 24 25  2  0
 16 26  1  0
 26 27  1  0
 27 28  1  0
 28 29  1  0
 25 14  1  0
 29 15  1  0
 25 20  1  0
  1 30  1  0
  1 31  1  0
  1 32  1  0
  2 33  1  0
  2 34  1  0
  3 35  1  0
  4 36  1  0
  4 37  1  0
  5 38  1  0
  5 39  1  0
  7 40  1  0
  7 41  1  0
  8 42  1  0
  8 43  1  0
  9 44  1  0
 10 45  1  0
 10 46  1  0
 11 47  1  0
 11 48  1  0
 12 49  1  0
 12 50  1  0
 13 51  1  0
 18 52  1  0
 18 53  1  0
 19 54  1  0
 19 55  1  0
 19 56  1  0
 21 57  1  0
 22 58  1  0
 23 59  1  0
 24 60  1  0
 26 61  1  0
 26 62  1  0
 27 63  1  0
 27 64  1  0
 28 65  1  0
 28 66  1  0
 29 67  1  0
 29 68  1  0
M  CHG  1  17   1
M  END
>  <UniqueID>  (3) 
3

>  <SMILES>  (3) 
CCNCCOCCNCCCNc1c2c([n+](CC)c3ccccc13)CCCC2

>  <Energy>  (3) 
81.31497727664575

>  <Genealogy>  (3) 
CCNCCOCCNCCCNc1c2c([n+](CC)c3ccccc13)CCCC2 (3D coordinates assigned)
CCNCCOCCNCCCNc1c2c([n+](CC)c3ccccc13)CCCC2 (nonaromatic ring conformer: 81.31497727664575 kcal/mol)

>  <smiles>  (3) 
CCNCCOCCNCCCNc1c2c([n+](CC)c3ccccc13)CCCC2

>  <score_type>  (3) 
oracle

>  <origin>  (3) 
adg

>  <m_score__min__energy>  (3) 
-9.8499999999999996

>  <m_primary>  (3) 
energy

$$$$
3:0
     RDKit          3D

 40 42  0  0  0  0  0  0  0  0999 V2000
   -6.4200   25.3610  -29.5190 C   0  0  0  0  0  0  0  0  0  0  0  0
   -5.7250   25.3020  -30.8760 C   0  0  0  0  0  0  0  0  0  0  0  0
   -4.5910   24.3490  -30.8460 N   0  0  0  0  0  0  0  0  0  0  0  0
   -4.0890   24.1760  -29.4620 C   0  0  0  0  0  0  0  0  0  0  0  0
   -4.1830   22.7110  -29.0470 C   0  0  0  0  0  0  0  0  0  0  0  0
   -4.9740   23.0480  -31.4430 C   0  0  0  0  0  0  0  0  0  0  0  0
   -6.2250   23.2000  -32.3230 C   0  0  0  0  0  0  0  0  0  0  0  0
   -7.1690   22.1110  -32.0720 N   0  0  0  0  0  0  0  0  0  0  0  0
   -8.3760   22.3550  -31.5690 N   0  0  0  0  0  0  0  0  0  0  0  0
   -9.0410   21.1890  -31.4460 C   0  0  0  0  0  0  0  0  0  0  0  0
   -8.2200   20.1830  -31.8920 C   0  0  0  0  0  0  0  0  0  0  0  0
   -8.4100   18.8110  -31.9770 C   0  0  0  0  0  0  0  0  0  0  0  0
   -9.4910   18.2800  -31.6060 O   0  0  0  0  0  0  0  0  0  0  0  0
   -7.4250   18.0590  -32.4610 O   0  0  0  0  0  0  0  0  0  0  0  0
   -6.2580   18.5670  -32.8760 C   0  0  0  0  0  0  0  0  0  0  0  0
   -5.2840   17.6980  -33.3760 C   0  0  0  0  0  0  0  0  0  0  0  0
   -4.0620   18.1940  -33.8270 C   0  0  0  0  0  0  0  0  0  0  0  0
   -3.8040   19.5640  -33.7830 C   0  0  0  0  0  0  0  0  0  0  0  0
   -4.7610   20.4520  -33.2830 C   0  0  0  0  0  0  0  0  0  0  0  0
   -6.0020   19.9740  -32.8160 C   0  0  0  0  0  0  0  0  0  0  0  0
   -7.0490   20.7720  -32.2900 C   0  0  0  0  0  0  0  0  0  0  0  0
   -5.6679   25.2972  -28.7188 H   0  0  0  0  0  0  0  0  0  0  0  0
   -6.9706   26.3091  -29.4299 H   0  0  0  0  0  0  0  0  0  0  0  0
   -7.1225   24.5193  -29.4299 H   0  0  0  0  0  0  0  0  0  0  0  0
   -6.4488   24.9772  -31.6379 H   0  0  0  0  0  0  0  0  0  0  0  0
   -5.3378   26.3029  -31.1173 H   0  0  0  0  0  0  0  0  0  0  0  0
   -3.0392   24.5010  -29.4129 H   0  0  0  0  0  0  0  0  0  0  0  0
   -4.7021   24.7826  -28.7793 H   0  0  0  0  0  0  0  0  0  0  0  0
   -4.1875   22.6404  -27.9493 H   0  0  0  0  0  0  0  0  0  0  0  0
   -5.1109   22.2756  -29.4462 H   0  0  0  0  0  0  0  0  0  0  0  0
   -3.3183   22.1606  -29.4462 H   0  0  0  0  0  0  0  0  0  0  0  0
   -4.1426   22.6749  -32.0591 H   0  0  0  0  0  0  0  0  0  0  0  0
   -5.1968   22.3391  -30.6319 H   0  0  0  0  0  0  0  0  0  0  0  0
   -6.7121   24.1597  -32.0956 H   0  0  0  0  0  0  0  0  0  0  0  0
   -5.9204   23.1676  -33.3795 H   0  0  0  0  0  0  0  0  0  0  0  0
  -10.0623   21.0652  -31.0566 H   0  0  0  0  0  0  0  0  0  0  0  0
   -5.4830   16.6168  -33.4137 H   0  0  0  0  0  0  0  0  0  0  0  0
   -3.2999   17.5039  -34.2182 H   0  0  0  0  0  0  0  0  0  0  0  0
   -2.8392   19.9491  -34.1448 H   0  0  0  0  0  0  0  0  0  0  0  0
   -4.5442   21.5300  -33.2539 H   0  0  0  0  0  0  0  0  0  0  0  0
  1  2  1  0
  2  3  1  0
  3  4  1  0
  4  5  1  0
  3  6  1  0
  6  7  1  0
  7  8  1  0
  8  9  1  0
  9 10  2  0
 10 11  1  0
 11 12  1  0
 12 13  2  0
 12 14  1  0
 14 15  1  0
 15 16  2  0
 16 17  1  0
 17 18  2  0
 18 19  1  0
 19 20  2  0
 20 21  1  0
 21  8  1  0
 21 11  2  0
 20 15  1  0
  1 22  1  0
  1 23  1  0
  1 24  1  0
  2 25  1  0
  2 26  1  0
  4 27  1  0
  4 28  1  0
  5 29  1  0
  5 30  1  0
  5 31  1  0
  6 32  1  0
  6 33  1  0
  7 34  1  0
  7 35  1  0
 10 36  1  0
 16 37  1  0
 17 38  1  0
 18 39  1  0
 19 40  1  0
M  END
>  <UniqueID>  (4) 
4

>  <SMILES>  (4) 
CCN(CC)CCn1ncc2c(=O)oc3ccccc3c21

>  <Energy>  (4) 
88.53990254134374

>  <Genealogy>  (4) 
CCN(CC)CCn1ncc2c(=O)oc3ccccc3c21 (3D coordinates assigned)
CCN(CC)CCn1ncc2c(=O)oc3ccccc3c21 (optimized conformer: 88.53990254134374 kcal/mol)

>  <smiles>  (4) 
CCN(CC)CCn1ncc2c(=O)oc3ccccc3c21

>  <score_type>  (4) 
oracle

>  <origin>  (4) 
adg

>  <m_score__min__energy>  (4) 
-7.8399999999999999

>  <m_primary>  (4) 
energy

$$$$
4:0
     RDKit          3D

 33 35  0  0  0  0  0  0  0  0999 V2000
   -7.4890   22.6970  -29.6880 C   0  0  0  0  0  0  0  0  0  0  0  0
   -6.5510   22.7610  -30.8070 N   0  0  0  0  0  0  0  0  0  0  0  0
   -5.5560   23.6550  -30.9980 C   0  0  0  0  0  0  0  0  0  0  0  0
   -5.1410   24.9960  -29.8780 S   0  0  0  0  0  0  0  0  0  0  0  0
   -4.4680   23.9070  -28.5710 C   0  0  0  0  0  0  0  0  0  0  0  0
   -3.2830   23.1190  -29.0740 C   0  0  0  0  0  0  0  0  0  0  0  0
   -3.4900   21.8030  -29.5230 C   0  0  0  0  0  0  0  0  0  0  0  0
   -2.4260   21.0460  -30.0190 C   0  0  0  0  0  0  0  0  0  0  0  0
   -1.1440   21.5940  -30.0760 C   0  0  0  0  0  0  0  0  0  0  0  0
   -0.9220   22.9000  -29.6340 C   0  0  0  0  0  0  0  0  0  0  0  0
   -1.9790   23.6680  -29.1320 C   0  0  0  0  0  0  0  0  0  0  0  0
   -1.6210   25.3080  -28.5960 Cl  0  0  0  0  0  0  0  0  0  0  0  0
   -4.9010   23.4370  -32.1540 N   0  0  0  0  0  0  0  0  0  0  0  0
   -5.4840   22.3900  -32.7140 N   0  0  0  0  0  0  0  0  0  0  0  0
   -6.4720   21.9700  -31.9010 C   0  0  0  0  0  0  0  0  0  0  0  0
   -7.3430   20.8190  -32.2200 C   0  0  0  0  0  0  0  0  0  0  0  0
   -8.7290   20.8160  -32.3520 C   0  0  0  0  0  0  0  0  0  0  0  0
   -9.2590   19.5470  -32.6160 C   0  0  0  0  0  0  0  0  0  0  0  0
   -8.3020   18.5440  -32.6840 C   0  0  0  0  0  0  0  0  0  0  0  0
   -6.7980   19.2390  -32.4090 S   0  0  0  0  0  0  0  0  0  0  0  0
   -6.9321   22.7350  -28.7401 H   0  0  0  0  0  0  0  0  0  0  0  0
   -8.1816   23.5500  -29.7408 H   0  0  0  0  0  0  0  0  0  0  0  0
   -8.0593   21.7579  -29.7408 H   0  0  0  0  0  0  0  0  0  0  0  0
   -4.1521   24.5243  -27.7171 H   0  0  0  0  0  0  0  0  0  0  0  0
   -5.2539   23.1993  -28.2683 H   0  0  0  0  0  0  0  0  0  0  0  0
   -4.4985   21.3656  -29.4834 H   0  0  0  0  0  0  0  0  0  0  0  0
   -2.5990   20.0163  -30.3652 H   0  0  0  0  0  0  0  0  0  0  0  0
   -0.3079   20.9971  -30.4692 H   0  0  0  0  0  0  0  0  0  0  0  0
    0.0903   23.3280  -29.6807 H   0  0  0  0  0  0  0  0  0  0  0  0
   -5.1980   21.9740  -33.6270 H   0  0  0  0  0  0  0  0  0  0  0  0
   -9.3468   21.7213  -32.2582 H   0  0  0  0  0  0  0  0  0  0  0  0
  -10.3342   19.3622  -32.7565 H   0  0  0  0  0  0  0  0  0  0  0  0
   -8.4950   17.4795  -32.8833 H   0  0  0  0  0  0  0  0  0  0  0  0
  1  2  1  0
  2  3  1  0
  3  4  1  0
  4  5  1  0
  5  6  1  0
  6  7  2  0
  7  8  1  0
  8  9  2  0
  9 10  1  0
 10 11  2  0
 11 12  1  0
  3 13  2  0
 13 14  1  0
 14 15  2  0
 15 16  1  0
 16 17  2  0
 17 18  1  0
 18 19  2  0
 19 20  1  0
 15  2  1  0
 20 16  1  0
 11  6  1  0
  1 21  1  0
  1 22  1  0
  1 23  1  0
  5 24  1  0
  5 25  1  0
  7 26  1  0
  8 27  1  0
  9 28  1  0
 10 29  1  0
 14 30  1  0
 17 31  1  0
 18 32  1  0
 19 33  1  0
M  CHG  1  14   1
M  END
>  <UniqueID>  (5) 
5

>  <SMILES>  (5) 
Cn1c(SCc2ccccc2Cl)n[nH+]c1-c1cccs1

>  <Energy>  (5) 
95.491908243777

>  <Genealogy>  (5) 
Cn1c(SCc2ccccc2Cl)n[nH+]c1-c1cccs1 (protonated)
Cn1c(SCc2ccccc2Cl)n[nH+]c1-c1cccs1 (3D coordinates assigned)
Cn1c(SCc2ccccc2Cl)n[nH+]c1-c1cccs1 (optimized conformer: 95.491908243777 kcal/mol)

>  <smiles>  (5) 
Cn1c(SCc2ccccc2Cl)nnc1-c1cccs1

>  <score_type>  (5) 
oracle

>  <origin>  (5) 
adg

>  <m_score__min__energy>  (5) 
-7.5300000000000002

>  <m_primary>  (5) 
energy

$$$$
5:0
     RDKit          3D

 48 50  0  0  0  0  0  0  0  0999 V2000
  -10.3920   20.5923  -31.7988 H   0  0  0  0  0  0  0  0  0  0  0  0
   -9.3220   20.7700  -31.9820 C   0  0  0  0  0  0  0  0  0  0  0  0
   -8.5190   19.7440  -32.4880 C   0  0  0  0  0  0  0  0  0  0  0  0
   -8.9597   18.7613  -32.7119 H   0  0  0  0  0  0  0  0  0  0  0  0
   -7.1560   19.9650  -32.7100 C   0  0  0  0  0  0  0  0  0  0  0  0
   -6.5319   19.1587  -33.1228 H   0  0  0  0  0  0  0  0  0  0  0  0
   -6.5800   21.2070  -32.4100 C   0  0  0  0  0  0  0  0  0  0  0  0
   -5.1810   21.4000  -32.6750 N   0  0  0  0  0  0  0  0  0  0  0  0
   -4.3420   22.0970  -31.9660 C   0  0  0  0  0  0  0  0  0  0  0  0
   -4.6230   23.3710  -31.5900 N   0  0  0  0  0  0  0  0  0  0  0  0
   -3.7510   24.0780  -30.8240 C   0  0  0  0  0  0  0  0  0  0  0  0
   -4.0170   25.3020  -30.4720 N   0  0  0  0  0  0  0  0  0  0  0  0
   -5.3510   25.9030  -30.4720 C   0  0  0  0  0  0  0  0  0  0  0  0
   -5.7032   25.9977  -31.5098 H   0  0  0  0  0  0  0  0  0  0  0  0
   -5.2905   26.8922  -29.9947 H   0  0  0  0  0  0  0  0  0  0  0  0
   -6.3360   25.0430  -29.6870 C   0  0  0  0  0  0  0  0  0  0  0  0
   -6.1707   25.1873  -28.6091 H   0  0  0  0  0  0  0  0  0  0  0  0
   -7.3646   25.3373  -29.9429 H   0  0  0  0  0  0  0  0  0  0  0  0
   -6.1832   23.9841  -29.9429 H   0  0  0  0  0  0  0  0  0  0  0  0
   -2.5880   23.4980  -30.4240 N   0  0  0  0  0  0  0  0  0  0  0  0
   -1.9130   24.0360  -29.8330 H   0  0  0  0  0  0  0  0  0  0  0  0
   -2.3020   22.2170  -30.7850 C   0  0  0  0  0  0  0  0  0  0  0  0
   -1.1900   21.6710  -30.3880 N   0  0  0  0  0  0  0  0  0  0  0  0
   -1.0400   20.8360  -29.1950 C   0  0  0  0  0  0  0  0  0  0  0  0
   -1.9838   20.3019  -29.0105 H   0  0  0  0  0  0  0  0  0  0  0  0
   -0.2185   20.1256  -29.3695 H   0  0  0  0  0  0  0  0  0  0  0  0
   -0.6950   21.6820  -27.9620 C   0  0  0  0  0  0  0  0  0  0  0  0
   -1.2241   21.2747  -27.0879 H   0  0  0  0  0  0  0  0  0  0  0  0
    0.3936   21.6456  -27.8081 H   0  0  0  0  0  0  0  0  0  0  0  0
   -1.0940   23.0930  -28.1530 N   0  0  0  0  0  0  0  0  0  0  0  0
   -2.3620   23.3740  -27.4500 C   0  0  0  0  0  0  0  0  0  0  0  0
   -3.1822   22.8548  -27.9674 H   0  0  0  0  0  0  0  0  0  0  0  0
   -2.2724   23.0186  -26.4129 H   0  0  0  0  0  0  0  0  0  0  0  0
   -2.6600   24.8860  -27.4250 C   0  0  0  0  0  0  0  0  0  0  0  0
   -3.7147   25.0494  -27.6912 H   0  0  0  0  0  0  0  0  0  0  0  0
   -2.4548   25.2675  -26.4139 H   0  0  0  0  0  0  0  0  0  0  0  0
   -1.8390   25.5780  -28.3430 O   0  0  0  0  0  0  0  0  0  0  0  0
   -0.4840   25.4820  -27.9390 C   0  0  0  0  0  0  0  0  0  0  0  0
    0.1512   25.9114  -28.7277 H   0  0  0  0  0  0  0  0  0  0  0  0
   -0.3763   26.0309  -26.9919 H   0  0  0  0  0  0  0  0  0  0  0  0
   -0.0470   24.0220  -27.6900 C   0  0  0  0  0  0  0  0  0  0  0  0
    0.8849   23.8226  -28.2393 H   0  0  0  0  0  0  0  0  0  0  0  0
    0.1144   23.8737  -26.6121 H   0  0  0  0  0  0  0  0  0  0  0  0
   -3.1840   21.5230  -31.5550 N   0  0  0  0  0  0  0  0  0  0  0  0
   -7.4030   22.2470  -31.9310 C   0  0  0  0  0  0  0  0  0  0  0  0
   -6.9719   23.2391  -31.7314 H   0  0  0  0  0  0  0  0  0  0  0  0
   -8.7640   22.0220  -31.7090 C   0  0  0  0  0  0  0  0  0  0  0  0
   -9.3977   22.8320  -31.3185 H   0  0  0  0  0  0  0  0  0  0  0  0
  1  2  1  0
  2  3  2  0
  3  4  1  0
  3  5  1  0
  5  6  1  0
  5  7  2  0
  7  8  1  0
  8  9  2  0
  9 10  1  0
 10 11  1  0
 11 12  2  3
 12 13  1  0
 13 14  1  0
 13 15  1  0
 13 16  1  0
 16 17  1  0
 16 18  1  0
 16 19  1  0
 11 20  1  0
 20 21  1  0
 20 22  1  0
 22 23  2  0
 23 24  1  0
 24 25  1  0
 24 26  1  0
 24 27  1  0
 27 28  1  0
 27 29  1  0
 27 30  1  0
 30 31  1  0
 31 32  1  0
 31 33  1  0
 31 34  1  0
 34 35  1  0
 34 36  1  0
 34 37  1  0
 37 38  1  0
 38 39  1  0
 38 40  1  0
 38 41  1  0
 41 42  1  0
 41 43  1  0
 22 44  1  0
  7 45  1  0
 45 46  1  0
 45 47  2  0
 47 48  1  0
 47  2  1  0
 44  9  1  0
 41 30  1  0
M  CHG  2  10  -1  44  -1
M  END
>  <UniqueID>  (6) 
6

>  <SMILES>  (6) 
CCN=c1[n-]/c(=N\c2ccccc2)[n-]/c(=N\CCN2CCOCC2)[nH]1

>  <Energy>  (6) 
59.71894808186318

>  <Genealogy>  (6) 
CCN=c1[n-]c(=Nc2ccccc2)[n-]c(=NCCN2CCOCC2)[nH]1 (protonated)
CCN=c1[n-]/c(=N\c2ccccc2)[n-]/c(=N\CCN2CCOCC2)[nH]1 (cis-trans isomerization)
CCN=c1[n-]/c(=N\c2ccccc2)[n-]/c(=N\CCN2CCOCC2)[nH]1 (3D coordinates assigned)
CCN=c1[n-]/c(=N\c2ccccc2)[n-]/c(=N\CCN2CCOCC2)[nH]1 (nonaromatic ring conformer: 59.71894808186318 kcal/mol)

>  <smiles>  (6) 
CCN=c1[nH]c(=NCCN2CCOCC2)[nH]c(=Nc2ccccc2)[nH]1

>  <score_type>  (6) 
oracle

>  <origin>  (6) 
adg

>  <m_score__min__energy>  (6) 
-10.01

>  <m_primary>  (6) 
energy

$$$$
6:0
     RDKit          3D

 62 65  0  0  0  0  0  0  0  0999 V2000
    0.2360   20.7080  -33.2590 C   0  0  0  0  0  0  0  0  0  0  0  0
   -0.3590   19.4970  -32.4970 C   0  0  0  0  0  0  0  0  0  0  0  0
   -1.0440   18.5760  -33.5330 C   0  0  0  0  0  0  0  0  0  0  0  0
    0.7780   18.6970  -31.8050 C   0  0  0  0  0  0  0  0  0  0  0  0
    1.3300   19.3910  -30.5470 C   0  0  0  0  0  0  0  0  0  0  0  0
    0.2120   19.6980  -29.5150 C   0  0  1  0  0  0  0  0  0  0  0  0
   -0.3830   18.3370  -29.0000 C   0  0  0  0  0  0  0  0  0  0  0  0
    0.8350   20.4840  -28.3500 C   0  0  0  0  0  0  0  0  0  0  0  0
   -0.1720   20.8330  -27.2390 C   0  0  0  0  0  0  0  0  0  0  0  0
   -1.6310   21.3030  -27.6770 C   0  0  2  0  0  0  0  0  0  0  0  0
   -2.6220   20.2380  -27.1000 C   0  0  0  0  0  0  0  0  0  0  0  0
   -1.8350   21.2760  -29.2240 C   0  0  0  0  0  0  0  0  0  0  0  0
   -2.8730   21.9650  -29.7530 C   0  0  0  0  0  0  0  0  0  0  0  0
   -3.8400   22.7000  -28.8990 C   0  0  0  0  0  0  0  0  0  0  0  0
   -3.0810   23.6070  -27.9050 C   0  0  2  0  0  0  0  0  0  0  0  0
   -4.1570   24.2190  -26.9690 C   0  0  0  0  0  0  0  0  0  0  0  0
   -2.3550   24.8050  -28.6620 C   0  0  2  0  0  0  0  0  0  0  0  0
   -3.0500   25.1640  -29.8410 O   0  0  0  0  0  0  0  0  0  0  0  0
   -0.8550   24.5240  -28.9510 C   0  0  0  0  0  0  0  0  0  0  0  0
   -0.0510   24.2120  -27.6790 C   0  0  0  0  0  0  0  0  0  0  0  0
   -0.9280   23.6850  -26.5410 C   0  0  0  0  0  0  0  0  0  0  0  0
   -2.0570   22.7380  -27.0400 C   0  0  2  0  0  0  0  0  0  0  0  0
   -0.8200   20.6440  -30.1990 C   0  0  2  0  0  0  0  0  0  0  0  0
   -1.4330   19.9710  -31.4710 C   0  0  0  0  0  0  0  0  0  0  0  0
    0.6017   21.4523  -32.5363 H   0  0  0  0  0  0  0  0  0  0  0  0
    1.0704   20.3696  -33.8908 H   0  0  0  0  0  0  0  0  0  0  0  0
   -0.5418   21.1618  -33.8908 H   0  0  0  0  0  0  0  0  0  0  0  0
   -1.6211   17.8000  -33.0088 H   0  0  0  0  0  0  0  0  0  0  0  0
   -1.7198   19.1724  -34.1636 H   0  0  0  0  0  0  0  0  0  0  0  0
   -0.2784   18.1004  -34.1636 H   0  0  0  0  0  0  0  0  0  0  0  0
    0.3856   17.7108  -31.5163 H   0  0  0  0  0  0  0  0  0  0  0  0
    1.6064   18.6182  -32.5245 H   0  0  0  0  0  0  0  0  0  0  0  0
    2.0763   18.7335  -30.0772 H   0  0  0  0  0  0  0  0  0  0  0  0
    1.7797   20.3464  -30.8554 H   0  0  0  0  0  0  0  0  0  0  0  0
   -0.3857   18.3309  -27.9000 H   0  0  0  0  0  0  0  0  0  0  0  0
   -1.4128   18.2237  -29.3698 H   0  0  0  0  0  0  0  0  0  0  0  0
    0.2331   17.5042  -29.3698 H   0  0  0  0  0  0  0  0  0  0  0  0
    1.6410   19.8772  -27.9117 H   0  0  0  0  0  0  0  0  0  0  0  0
    1.2061   21.4342  -28.7616 H   0  0  0  0  0  0  0  0  0  0  0  0
   -0.2908   19.9376  -26.6111 H   0  0  0  0  0  0  0  0  0  0  0  0
    0.2623   21.7108  -26.7381 H   0  0  0  0  0  0  0  0  0  0  0  0
   -2.5937   20.2684  -26.0008 H   0  0  0  0  0  0  0  0  0  0  0  0
   -3.6419   20.4603  -27.4468 H   0  0  0  0  0  0  0  0  0  0  0  0
   -2.3269   19.2367  -27.4468 H   0  0  0  0  0  0  0  0  0  0  0  0
   -3.0037   21.9809  -30.8451 H   0  0  0  0  0  0  0  0  0  0  0  0
   -4.4902   23.3193  -29.5343 H   0  0  0  0  0  0  0  0  0  0  0  0
   -4.4488   21.9767  -28.3367 H   0  0  0  0  0  0  0  0  0  0  0  0
   -3.8675   24.0543  -25.9206 H   0  0  0  0  0  0  0  0  0  0  0  0
   -4.2390   25.2989  -27.1615 H   0  0  0  0  0  0  0  0  0  0  0  0
   -5.1271   23.7375  -27.1615 H   0  0  0  0  0  0  0  0  0  0  0  0
   -2.3785   25.6636  -27.9748 H   0  0  0  0  0  0  0  0  0  0  0  0
   -3.4880   26.0480  -29.7100 H   0  0  0  0  0  0  0  0  0  0  0  0
   -0.7837   23.6629  -29.6317 H   0  0  0  0  0  0  0  0  0  0  0  0
   -0.4279   25.4341  -29.3975 H   0  0  0  0  0  0  0  0  0  0  0  0
    0.7076   23.4525  -27.9195 H   0  0  0  0  0  0  0  0  0  0  0  0
    0.4082   25.1513  -27.3372 H   0  0  0  0  0  0  0  0  0  0  0  0
   -0.2920   23.1319  -25.8342 H   0  0  0  0  0  0  0  0  0  0  0  0
   -1.4089   24.5519  -26.0643 H   0  0  0  0  0  0  0  0  0  0  0  0
   -2.5627   22.3432  -26.1465 H   0  0  0  0  0  0  0  0  0  0  0  0
   -0.2746   21.5277  -30.5618 H   0  0  0  0  0  0  0  0  0  0  0  0
   -2.0224   19.0979  -31.1542 H   0  0  0  0  0  0  0  0  0  0  0  0
   -2.0517   20.7288  -31.9740 H   0  0  0  0  0  0  0  0  0  0  0  0
  1  2  1  0
  2  3  1  0
  2  4  1  0
  4  5  1  0
  5  6  1  0
  6  7  1  1
  6  8  1  0
  8  9  1  0
  9 10  1  0
 10 11  1  1
 10 12  1  0
 12 13  2  0
 13 14  1  0
 14 15  1  0
 15 16  1  1
 15 17  1  0
 17 18  1  0
 17 19  1  0
 19 20  1  0
 20 21  1  0
 21 22  1  0
 12 23  1  0
 23 24  1  0
 24  2  1  0
 23  6  1  0
 22 10  1  0
 22 15  1  0
  1 25  1  0
  1 26  1  0
  1 27  1  0
  3 28  1  0
  3 29  1  0
  3 30  1  0
  4 31  1  0
  4 32  1  0
  5 33  1  0
  5 34  1  0
  7 35  1  0
  7 36  1  0
  7 37  1  0
  8 38  1  0
  8 39  1  0
  9 40  1  0
  9 41  1  0
 11 42  1  0
 11 43  1  0
 11 44  1  0
 13 45  1  0
 14 46  1  0
 14 47  1  0
 16 48  1  0
 16 49  1  0
 16 50  1  0
 17 51  1  1
 18 52  1  0
 19 53  1  0
 19 54  1  0
 20 55  1  0
 20 56  1  0
 21 57  1  0
 21 58  1  0
 22 59  1  1
 23 60  1  6
 24 61  1  0
 24 62  1  0
M  END
>  <UniqueID>  (7) 
7

>  <SMILES>  (7) 
CC1(C)CC[C@@]2(C)CC[C@]3(C)C(=CCC4(C)C(O)CCCC43)C2C1

>  <Energy>  (7) 
113.18724760886776

>  <Genealogy>  (7) 
CC1(C)CC[C@@]2(C)CC[C@]3(C)C(=CCC4(C)C(O)CCCC43)C2C1 (chirality)
CC1(C)CC[C@@]2(C)CC[C@]3(C)C(=CCC4(C)C(O)CCCC43)C2C1 (3D coordinates assigned)
CC1(C)CC[C@@]2(C)CC[C@]3(C)C(=CCC4(C)C(O)CCCC43)C2C1 (nonaromatic ring conformer: 113.18724760886776 kcal/mol)

>  <smiles>  (7) 
CC1(C)CCC2(C)CCC3(C)C(=CCC4(C)C(O)CCCC34)C2C1

>  <score_type>  (7) 
oracle

>  <origin>  (7) 
adg

>  <m_score__min__energy>  (7) 
-8.2200000000000006

>  <m_primary>  (7) 
energy

$$$$
7:0
     RDKit          3D

 58 61  0  0  0  0  0  0  0  0999 V2000
   -0.8220   21.8870  -30.2710 C   0  0  0  0  0  0  0  0  0  0  0  0
   -0.6630   20.3700  -30.1690 C   0  0  0  0  0  0  0  0  0  0  0  0
   -0.0240   19.8260  -31.3770 N   0  0  0  0  0  0  0  0  0  0  0  0
   -0.2500   20.7140  -32.5290 C   0  0  0  0  0  0  0  0  0  0  0  0
   -1.5130   20.2970  -33.2950 C   0  0  0  0  0  0  0  0  0  0  0  0
   -2.6990   21.1930  -32.9410 C   0  0  0  0  0  0  0  0  0  0  0  0
   -3.5280   20.5580  -31.9150 N   0  0  0  0  0  0  0  0  0  0  0  0
   -4.9540   20.4810  -32.0450 C   0  0  0  0  0  0  0  0  0  0  0  0
   -5.5900   19.3320  -32.5730 C   0  0  0  0  0  0  0  0  0  0  0  0
   -4.8290   18.2530  -33.0670 C   0  0  0  0  0  0  0  0  0  0  0  0
   -5.4500   17.0990  -33.5400 C   0  0  0  0  0  0  0  0  0  0  0  0
   -6.8370   16.9990  -33.5330 C   0  0  0  0  0  0  0  0  0  0  0  0
   -7.6180   18.0610  -33.0770 C   0  0  0  0  0  0  0  0  0  0  0  0
   -7.0230   19.2620  -32.6170 C   0  0  0  0  0  0  0  0  0  0  0  0
   -7.7900   20.3440  -32.2090 N   0  0  0  0  0  0  0  0  0  0  0  0
   -9.2600   20.3300  -32.3340 C   0  0  0  0  0  0  0  0  0  0  0  0
   -7.1510   21.4340  -31.6770 C   0  0  0  0  0  0  0  0  0  0  0  0
   -7.7400   22.5290  -31.1340 N   0  0  0  0  0  0  0  0  0  0  0  0
   -6.7230   23.3180  -30.7400 C   0  0  0  0  0  0  0  0  0  0  0  0
   -6.8290   24.5560  -30.1110 C   0  0  0  0  0  0  0  0  0  0  0  0
   -5.6460   25.2280  -29.7630 C   0  0  0  0  0  0  0  0  0  0  0  0
   -4.3780   24.6550  -30.0510 C   0  0  0  0  0  0  0  0  0  0  0  0
   -3.1750   25.2960  -29.7240 O   0  0  0  0  0  0  0  0  0  0  0  0
   -2.2840   24.8660  -28.6990 C   0  0  0  0  0  0  0  0  0  0  0  0
   -3.0810   24.2440  -27.5630 C   0  0  0  0  0  0  0  0  0  0  0  0
   -4.3080   23.4000  -30.6860 C   0  0  0  0  0  0  0  0  0  0  0  0
   -5.5000   22.7480  -31.0160 C   0  0  0  0  0  0  0  0  0  0  0  0
   -5.7730   21.5260  -31.6110 C   0  0  0  0  0  0  0  0  0  0  0  0
   -0.8673   22.3197  -29.2607 H   0  0  0  0  0  0  0  0  0  0  0  0
    0.0367   22.3101  -30.8129 H   0  0  0  0  0  0  0  0  0  0  0  0
   -1.7498   22.1228  -30.8129 H   0  0  0  0  0  0  0  0  0  0  0  0
   -0.0406   20.1313  -29.2940 H   0  0  0  0  0  0  0  0  0  0  0  0
   -1.6608   19.9185  -30.0660 H   0  0  0  0  0  0  0  0  0  0  0  0
    1.0070   19.7360  -31.2090 H   0  0  0  0  0  0  0  0  0  0  0  0
   -0.4270   18.8820  -31.5850 H   0  0  0  0  0  0  0  0  0  0  0  0
   -0.3694   21.7471  -32.1707 H   0  0  0  0  0  0  0  0  0  0  0  0
    0.6142   20.6426  -33.2058 H   0  0  0  0  0  0  0  0  0  0  0  0
   -1.3178   20.3712  -34.3750 H   0  0  0  0  0  0  0  0  0  0  0  0
   -1.7633   19.2632  -33.0146 H   0  0  0  0  0  0  0  0  0  0  0  0
   -2.3258   22.1556  -32.5613 H   0  0  0  0  0  0  0  0  0  0  0  0
   -3.3074   21.3537  -33.8432 H   0  0  0  0  0  0  0  0  0  0  0  0
   -3.0610   20.0240  -31.1490 H   0  0  0  0  0  0  0  0  0  0  0  0
   -3.7313   18.3231  -33.0792 H   0  0  0  0  0  0  0  0  0  0  0  0
   -4.8417   16.2650  -33.9199 H   0  0  0  0  0  0  0  0  0  0  0  0
   -7.3208   16.0775  -33.8890 H   0  0  0  0  0  0  0  0  0  0  0  0
   -8.7138   17.9646  -33.0744 H   0  0  0  0  0  0  0  0  0  0  0  0
   -9.7132   20.3257  -31.3317 H   0  0  0  0  0  0  0  0  0  0  0  0
   -9.5900   21.2250  -32.8817 H   0  0  0  0  0  0  0  0  0  0  0  0
   -9.5728   19.4288  -32.8817 H   0  0  0  0  0  0  0  0  0  0  0  0
   -8.7540   22.7330  -30.9980 H   0  0  0  0  0  0  0  0  0  0  0  0
   -7.8133   24.9958  -29.8925 H   0  0  0  0  0  0  0  0  0  0  0  0
   -5.7014   26.2063  -29.2632 H   0  0  0  0  0  0  0  0  0  0  0  0
   -1.5863   24.1207  -29.1085 H   0  0  0  0  0  0  0  0  0  0  0  0
   -1.7173   25.7291  -28.3198 H   0  0  0  0  0  0  0  0  0  0  0  0
   -2.6624   24.5707  -26.5996 H   0  0  0  0  0  0  0  0  0  0  0  0
   -4.1311   24.5637  -27.6338 H   0  0  0  0  0  0  0  0  0  0  0  0
   -3.0260   23.1477  -27.6338 H   0  0  0  0  0  0  0  0  0  0  0  0
   -3.3351   22.9419  -30.9177 H   0  0  0  0  0  0  0  0  0  0  0  0
  1  2  1  0
  2  3  1  0
  3  4  1  0
  4  5  1  0
  5  6  1  0
  6  7  1  0
  7  8  1  0
  8  9  2  0
  9 10  1  0
 10 11  2  0
 11 12  1  0
 12 13  2  0
 13 14  1  0
 14 15  2  0
 15 16  1  0
 15 17  1  0
 17 18  1  0
 18 19  1  0
 19 20  2  0
 20 21  1  0
 21 22  2  0
 22 23  1  0
 23 24  1  0
 24 25  1  0
 22 26  1  0
 26 27  2  0
 27 28  1  0
 28  8  1  0
 14  9  1  0
 28 17  2  0
 27 19  1  0
  1 29  1  0
  1 30  1  0
  1 31  1  0
  2 32  1  0
  2 33  1  0
  3 34  1  0
  3 35  1  0
  4 36  1  0
  4 37  1  0
  5 38  1  0
  5 39  1  0
  6 40  1  0
  6 41  1  0
  7 42  1  0
 10 43  1  0
 11 44  1  0
 12 45  1  0
 13 46  1  0
 16 47  1  0
 16 48  1  0
 16 49  1  0
 18 50  1  0
 20 51  1  0
 21 52  1  0
 24 53  1  0
 24 54  1  0
 25 55  1  0
 25 56  1  0
 25 57  1  0
 26 58  1  0
M  CHG  2   3   1  15   1
M  END
>  <UniqueID>  (8) 
8

>  <SMILES>  (8) 
CC[NH2+]CCCNc1c2ccccc2[n+](C)c2[nH]c3ccc(OCC)cc3c12

>  <Energy>  (8) 
106.74614582226401

>  <Genealogy>  (8) 
CC[NH2+]CCCNc1c2ccccc2[n+](C)c2[nH]c3ccc(OCC)cc3c12 (protonated)
CC[NH2+]CCCNc1c2ccccc2[n+](C)c2[nH]c3ccc(OCC)cc3c12 (3D coordinates assigned)
CC[NH2+]CCCNc1c2ccccc2[n+](C)c2[nH]c3ccc(OCC)cc3c12 (optimized conformer: 106.74614582226401 kcal/mol)

>  <smiles>  (8) 
CCNCCCNc1c2ccccc2[n+](C)c2[nH]c3ccc(OCC)cc3c12

>  <score_type>  (8) 
oracle

>  <origin>  (8) 
adg

>  <m_score__min__energy>  (8) 
-8.3100000000000005

>  <m_primary>  (8) 
energy

$$$$
8:0
     RDKit          3D

 47 48  0  0  0  0  0  0  0  0999 V2000
   -7.9290   17.7980  -31.7320 C   0  0  0  0  0  0  0  0  0  0  0  0
   -6.4680   17.8120  -31.2970 C   0  0  0  0  0  0  0  0  0  0  0  0
   -5.6180   17.8550  -32.4280 O   0  0  0  0  0  0  0  0  0  0  0  0
   -5.8280   16.7410  -33.2770 C   0  0  0  0  0  0  0  0  0  0  0  0
   -5.4030   17.0570  -34.7130 C   0  0  0  0  0  0  0  0  0  0  0  0
   -4.6820   18.2750  -34.7550 O   0  0  0  0  0  0  0  0  0  0  0  0
   -3.2930   18.0660  -34.5830 C   0  0  0  0  0  0  0  0  0  0  0  0
   -2.8130   18.7210  -33.2800 C   0  0  0  0  0  0  0  0  0  0  0  0
   -3.3410   20.1550  -33.1050 C   0  0  0  0  0  0  0  0  0  0  0  0
   -4.7900   20.2420  -33.3500 N   0  0  0  0  0  0  0  0  0  0  0  0
   -5.3460   21.3640  -32.6280 C   0  0  0  0  0  0  0  0  0  0  0  0
   -4.4910   22.3510  -32.1050 C   0  0  0  0  0  0  0  0  0  0  0  0
   -5.0050   23.4390  -31.3740 C   0  0  0  0  0  0  0  0  0  0  0  0
   -4.1810   24.4450  -30.8460 O   0  0  0  0  0  0  0  0  0  0  0  0
   -3.7260   24.4880  -29.4970 C   0  0  0  0  0  0  0  0  0  0  0  0
   -6.3820   23.5330  -31.1580 C   0  0  0  0  0  0  0  0  0  0  0  0
   -7.2500   22.5520  -31.6550 C   0  0  0  0  0  0  0  0  0  0  0  0
   -8.6310   22.6300  -31.4310 C   0  0  0  0  0  0  0  0  0  0  0  0
   -9.4740   21.6350  -31.9270 C   0  0  0  0  0  0  0  0  0  0  0  0
   -8.9280   20.5700  -32.6450 C   0  0  0  0  0  0  0  0  0  0  0  0
   -7.5870   20.5060  -32.8580 N   0  0  0  0  0  0  0  0  0  0  0  0
   -6.7340   21.4600  -32.3900 C   0  0  0  0  0  0  0  0  0  0  0  0
   -8.5763   17.7918  -30.8427 H   0  0  0  0  0  0  0  0  0  0  0  0
   -8.1411   18.6942  -32.3336 H   0  0  0  0  0  0  0  0  0  0  0  0
   -8.1238   16.8979  -32.3336 H   0  0  0  0  0  0  0  0  0  0  0  0
   -6.2843   18.6979  -30.6714 H   0  0  0  0  0  0  0  0  0  0  0  0
   -6.2565   16.8961  -30.7256 H   0  0  0  0  0  0  0  0  0  0  0  0
   -5.2377   15.8900  -32.9063 H   0  0  0  0  0  0  0  0  0  0  0  0
   -6.9005   16.4965  -33.2750 H   0  0  0  0  0  0  0  0  0  0  0  0
   -4.7647   16.2442  -35.0898 H   0  0  0  0  0  0  0  0  0  0  0  0
   -6.3020   17.1514  -35.3398 H   0  0  0  0  0  0  0  0  0  0  0  0
   -3.0910   16.9855  -34.5419 H   0  0  0  0  0  0  0  0  0  0  0  0
   -2.7556   18.5178  -35.4298 H   0  0  0  0  0  0  0  0  0  0  0  0
   -3.1602   18.1125  -32.4319 H   0  0  0  0  0  0  0  0  0  0  0  0
   -1.7151   18.7746  -33.3208 H   0  0  0  0  0  0  0  0  0  0  0  0
   -3.1339   20.4869  -32.0769 H   0  0  0  0  0  0  0  0  0  0  0  0
   -2.8327   20.7967  -33.8398 H   0  0  0  0  0  0  0  0  0  0  0  0
   -5.2610   19.3550  -33.0570 H   0  0  0  0  0  0  0  0  0  0  0  0
   -4.9700   20.3690  -34.3730 H   0  0  0  0  0  0  0  0  0  0  0  0
   -3.4062   22.2717  -32.2693 H   0  0  0  0  0  0  0  0  0  0  0  0
   -4.5868   24.4067  -28.8169 H   0  0  0  0  0  0  0  0  0  0  0  0
   -3.0354   23.6511  -29.3161 H   0  0  0  0  0  0  0  0  0  0  0  0
   -3.2044   25.4394  -29.3161 H   0  0  0  0  0  0  0  0  0  0  0  0
   -6.7883   24.3847  -30.5928 H   0  0  0  0  0  0  0  0  0  0  0  0
   -9.0501   23.4748  -30.8647 H   0  0  0  0  0  0  0  0  0  0  0  0
  -10.5589   21.6894  -31.7538 H   0  0  0  0  0  0  0  0  0  0  0  0
   -9.5845   19.7804  -33.0395 H   0  0  0  0  0  0  0  0  0  0  0  0
  1  2  1  0
  2  3  1  0
  3  4  1  0
  4  5  1  0
  5  6  1  0
  6  7  1  0
  7  8  1  0
  8  9  1  0
  9 10  1  0
 10 11  1  0
 11 12  2  0
 12 13  1  0
 13 14  1  0
 14 15  1  0
 13 16  2  0
 16 17  1  0
 17 18  2  0
 18 19  1  0
 19 20  2  0
 20 21  1  0
 21 22  2  0
 22 11  1  0
 22 17  1  0
  1 23  1  0
  1 24  1  0
  1 25  1  0
  2 26  1  0
  2 27  1  0
  4 28  1  0
  4 29  1  0
  5 30  1  0
  5 31  1  0
  7 32  1  0
  7 33  1  0
  8 34  1  0
  8 35  1  0
  9 36  1  0
  9 37  1  0
 10 38  1  0
 10 39  1  0
 12 40  1  0
 15 41  1  0
 15 42  1  0
 15 43  1  0
 16 44  1  0
 18 45  1  0
 19 46  1  0
 20 47  1  0
M  CHG  1  10   1
M  END
>  <UniqueID>  (9) 
9

>  <SMILES>  (9) 
CCOCCOCCC[NH2+]c1cc(OC)cc2cccnc12

>  <Energy>  (9) 
49.245460153764654

>  <Genealogy>  (9) 
CCOCCOCCC[NH2+]c1cc(OC)cc2cccnc12 (protonated)
CCOCCOCCC[NH2+]c1cc(OC)cc2cccnc12 (3D coordinates assigned)
CCOCCOCCC[NH2+]c1cc(OC)cc2cccnc12 (optimized conformer: 49.245460153764654 kcal/mol)

>  <smiles>  (9) 
CCOCCOCCCNc1cc(OC)cc2cccnc12

>  <score_type>  (9) 
oracle

>  <origin>  (9) 
adg

>  <m_score__min__energy>  (9) 
-7

>  <m_primary>  (9) 
energy

$$$$
9:0
     RDKit          3D

 59 61  0  0  0  0  0  0  0  0999 V2000
   -2.0370   25.2520  -26.8160 C   0  0  0  0  0  0  0  0  0  0  0  0
   -1.2230   26.0320  -27.8380 C   0  0  0  0  0  0  0  0  0  0  0  0
   -1.2150   25.3240  -29.0590 O   0  0  0  0  0  0  0  0  0  0  0  0
   -0.3980   24.1790  -28.9370 C   0  0  0  0  0  0  0  0  0  0  0  0
   -0.9560   23.0600  -29.8180 C   0  0  0  0  0  0  0  0  0  0  0  0
   -2.2830   23.4230  -30.3360 N   0  0  0  0  0  0  0  0  0  0  0  0
   -3.3480   23.0980  -29.3760 C   0  0  0  0  0  0  0  0  0  0  0  0
   -4.3740   24.2430  -29.3060 C   0  0  0  0  0  0  0  0  0  0  0  0
   -4.3610   25.0910  -30.5100 N   0  0  0  0  0  0  0  0  0  0  0  0
   -5.6010   24.9500  -31.2920 C   0  0  0  0  0  0  0  0  0  0  0  0
   -6.0870   23.4910  -31.3230 C   0  0  0  0  0  0  0  0  0  0  0  0
   -6.1280   22.9600  -32.6980 N   0  0  0  0  0  0  0  0  0  0  0  0
   -5.9170   21.5200  -32.7080 C   0  0  0  0  0  0  0  0  0  0  0  0
   -6.9950   20.6340  -32.4520 C   0  0  0  0  0  0  0  0  0  0  0  0
   -8.3290   21.0980  -32.3520 C   0  0  0  0  0  0  0  0  0  0  0  0
   -9.3660   20.2380  -32.0010 C   0  0  0  0  0  0  0  0  0  0  0  0
   -9.1020   18.9020  -31.7350 C   0  0  0  0  0  0  0  0  0  0  0  0
   -7.8080   18.4060  -31.8740 C   0  0  0  0  0  0  0  0  0  0  0  0
   -6.7390   19.2430  -32.2920 C   0  0  0  0  0  0  0  0  0  0  0  0
   -5.4760   18.7330  -32.5230 N   0  0  0  0  0  0  0  0  0  0  0  0
   -5.2820   17.2690  -32.6360 C   0  0  0  0  0  0  0  0  0  0  0  0
   -4.4060   19.5840  -32.7070 C   0  0  0  0  0  0  0  0  0  0  0  0
   -3.0710   19.1020  -32.7110 C   0  0  0  0  0  0  0  0  0  0  0  0
   -1.9990   19.9410  -32.9970 C   0  0  0  0  0  0  0  0  0  0  0  0
   -2.2210   21.2790  -33.2830 C   0  0  0  0  0  0  0  0  0  0  0  0
   -3.5110   21.7990  -33.2260 C   0  0  0  0  0  0  0  0  0  0  0  0
   -4.6160   20.9810  -32.8830 C   0  0  0  0  0  0  0  0  0  0  0  0
   -1.7302   25.5460  -25.8014 H   0  0  0  0  0  0  0  0  0  0  0  0
   -3.1060   25.4716  -26.9539 H   0  0  0  0  0  0  0  0  0  0  0  0
   -1.8632   24.1746  -26.9539 H   0  0  0  0  0  0  0  0  0  0  0  0
   -1.6749   27.0233  -27.9899 H   0  0  0  0  0  0  0  0  0  0  0  0
   -0.1922   26.1559  -27.4745 H   0  0  0  0  0  0  0  0  0  0  0  0
    0.6256   24.4227  -29.2578 H   0  0  0  0  0  0  0  0  0  0  0  0
   -0.3838   23.8481  -27.8881 H   0  0  0  0  0  0  0  0  0  0  0  0
   -0.2722   22.8898  -30.6627 H   0  0  0  0  0  0  0  0  0  0  0  0
   -1.0489   22.1455  -29.2138 H   0  0  0  0  0  0  0  0  0  0  0  0
   -2.3000   24.4590  -30.4890 H   0  0  0  0  0  0  0  0  0  0  0  0
   -3.8552   22.1757  -29.6956 H   0  0  0  0  0  0  0  0  0  0  0  0
   -2.9010   22.9577  -28.3807 H   0  0  0  0  0  0  0  0  0  0  0  0
   -5.3784   23.8093  -29.1917 H   0  0  0  0  0  0  0  0  0  0  0  0
   -4.1057   24.8781  -28.4489 H   0  0  0  0  0  0  0  0  0  0  0  0
   -3.5260   24.8570  -31.0910 H   0  0  0  0  0  0  0  0  0  0  0  0
   -6.3826   25.5772  -30.8384 H   0  0  0  0  0  0  0  0  0  0  0  0
   -5.3945   25.2663  -32.3251 H   0  0  0  0  0  0  0  0  0  0  0  0
   -5.4021   22.8741  -30.7227 H   0  0  0  0  0  0  0  0  0  0  0  0
   -7.1070   23.4601  -30.9124 H   0  0  0  0  0  0  0  0  0  0  0  0
   -7.0310   23.2010  -33.1600 H   0  0  0  0  0  0  0  0  0  0  0  0
   -5.4240   23.4390  -33.3020 H   0  0  0  0  0  0  0  0  0  0  0  0
   -8.5498   22.1563  -32.5552 H   0  0  0  0  0  0  0  0  0  0  0  0
  -10.3961   20.6181  -31.9344 H   0  0  0  0  0  0  0  0  0  0  0  0
   -9.9151   18.2343  -31.4142 H   0  0  0  0  0  0  0  0  0  0  0  0
   -7.6100   17.3462  -31.6560 H   0  0  0  0  0  0  0  0  0  0  0  0
   -5.2236   16.8281  -31.6299 H   0  0  0  0  0  0  0  0  0  0  0  0
   -6.1295   16.8278  -33.1810 H   0  0  0  0  0  0  0  0  0  0  0  0
   -4.3488   17.0638  -33.1810 H   0  0  0  0  0  0  0  0  0  0  0  0
   -2.8801   18.0429  -32.4832 H   0  0  0  0  0  0  0  0  0  0  0  0
   -0.9738   19.5422  -32.9962 H   0  0  0  0  0  0  0  0  0  0  0  0
   -1.3773   21.9303  -33.5552 H   0  0  0  0  0  0  0  0  0  0  0  0
   -3.6754   22.8631  -33.4511 H   0  0  0  0  0  0  0  0  0  0  0  0
  1  2  1  0
  2  3  1  0
  3  4  1  0
  4  5  1  0
  5  6  1  0
  6  7  1  0
  7  8  1  0
  8  9  1  0
  9 10  1  0
 10 11  1  0
 11 12  1  0
 12 13  1  0
 13 14  2  0
 14 15  1  0
 15 16  2  0
 16 17  1  0
 17 18  2  0
 18 19  1  0
 19 20  2  0
 20 21  1  0
 20 22  1  0
 22 23  2  0
 23 24  1  0
 24 25  2  0
 25 26  1  0
 26 27  2  0
 27 13  1  0
 19 14  1  0
 27 22  1  0
  1 28  1  0
  1 29  1  0
  1 30  1  0
  2 31  1  0
  2 32  1  0
  4 33  1  0
  4 34  1  0
  5 35  1  0
  5 36  1  0
  6 37  1  0
  7 38  1  0
  7 39  1  0
  8 40  1  0
  8 41  1  0
  9 42  1  0
 10 43  1  0
 10 44  1  0
 11 45  1  0
 11 46  1  0
 12 47  1  0
 12 48  1  0
 15 49  1  0
 16 50  1  0
 17 51  1  0
 18 52  1  0
 21 53  1  0
 21 54  1  0
 21 55  1  0
 23 56  1  0
 24 57  1  0
 25 58  1  0
 26 59  1  0
M  CHG  2  12   1  20   1
M  END
>  <UniqueID>  (10) 
10

>  <SMILES>  (10) 
CCOCCNCCNCC[NH2+]c1c2ccccc2[n+](C)c2ccccc12

>  <Energy>  (10) 
78.7986710770409

>  <Genealogy>  (10) 
CCOCCNCCNCC[NH2+]c1c2ccccc2[n+](C)c2ccccc12 (protonated)
CCOCCNCCNCC[NH2+]c1c2ccccc2[n+](C)c2ccccc12 (3D coordinates assigned)
CCOCCNCCNCC[NH2+]c1c2ccccc2[n+](C)c2ccccc12 (optimized conformer: 78.7986710770409 kcal/mol)

>  <smiles>  (10) 
CCOCCNCCNCCNc1c2ccccc2[n+](C)c2ccccc12

>  <score_type>  (10) 
oracle

>  <origin>  (10) 
adg

>  <m_score__min__energy>  (10) 
-8.1799999999999997

>  <m_primary>  (10) 
energy

$$$$
10:0
     RDKit          3D

 32 33  0  0  0  0  0  0  0  0999 V2000
   -3.8460   22.7990  -29.3710 C   0  0  0  0  0  0  0  0  0  0  0  0
   -3.2020   23.6970  -30.4210 C   0  0  0  0  0  0  0  0  0  0  0  0
   -3.8720   24.9420  -30.4780 O   0  0  0  0  0  0  0  0  0  0  0  0
   -5.0120   24.9320  -29.6440 C   0  0  0  0  0  0  0  0  0  0  0  0
   -6.2710   24.9440  -30.5100 C   0  0  0  0  0  0  0  0  0  0  0  0
   -6.1520   24.0250  -31.5960 O   0  0  0  0  0  0  0  0  0  0  0  0
   -7.0040   22.9350  -31.8520 C   0  0  0  0  0  0  0  0  0  0  0  0
   -8.3880   22.9950  -31.6060 C   0  0  0  0  0  0  0  0  0  0  0  0
   -9.1910   21.8870  -31.8730 C   0  0  0  0  0  0  0  0  0  0  0  0
   -8.6480   20.7440  -32.3690 N   0  0  0  0  0  0  0  0  0  0  0  0
   -7.3110   20.6410  -32.6170 C   0  0  0  0  0  0  0  0  0  0  0  0
   -6.7760   19.4470  -33.1270 C   0  0  0  0  0  0  0  0  0  0  0  0
   -5.4060   19.3410  -33.3820 C   0  0  0  0  0  0  0  0  0  0  0  0
   -4.7460   17.8460  -34.0200 Cl  0  0  0  0  0  0  0  0  0  0  0  0
   -4.5610   20.4250  -33.1320 C   0  0  0  0  0  0  0  0  0  0  0  0
   -5.0800   21.6200  -32.6240 C   0  0  0  0  0  0  0  0  0  0  0  0
   -6.4570   21.7410  -32.3600 C   0  0  0  0  0  0  0  0  0  0  0  0
   -3.5846   23.1635  -28.3666 H   0  0  0  0  0  0  0  0  0  0  0  0
   -4.9389   22.8162  -29.4943 H   0  0  0  0  0  0  0  0  0  0  0  0
   -3.4792   21.7693  -29.4943 H   0  0  0  0  0  0  0  0  0  0  0  0
   -2.1470   23.8641  -30.1583 H   0  0  0  0  0  0  0  0  0  0  0  0
   -3.2719   23.2070  -31.4034 H   0  0  0  0  0  0  0  0  0  0  0  0
   -5.0034   24.0257  -29.0206 H   0  0  0  0  0  0  0  0  0  0  0  0
   -5.0021   25.8205  -28.9955 H   0  0  0  0  0  0  0  0  0  0  0  0
   -7.1358   24.6609  -29.8919 H   0  0  0  0  0  0  0  0  0  0  0  0
   -6.4058   25.9560  -30.9196 H   0  0  0  0  0  0  0  0  0  0  0  0
   -8.8361   23.9154  -31.2033 H   0  0  0  0  0  0  0  0  0  0  0  0
  -10.2728   21.9383  -31.6807 H   0  0  0  0  0  0  0  0  0  0  0  0
   -9.2830   19.9350  -32.5560 H   0  0  0  0  0  0  0  0  0  0  0  0
   -7.4380   18.5915  -33.3266 H   0  0  0  0  0  0  0  0  0  0  0  0
   -3.4835   20.3382  -33.3355 H   0  0  0  0  0  0  0  0  0  0  0  0
   -4.4087   22.4695  -32.4298 H   0  0  0  0  0  0  0  0  0  0  0  0
  1  2  1  0
  2  3  1  0
  3  4  1  0
  4  5  1  0
  5  6  1  0
  6  7  1  0
  7  8  2  0
  8  9  1  0
  9 10  2  0
 10 11  1  0
 11 12  2  0
 12 13  1  0
 13 14  1  0
 13 15  2  0
 15 16  1  0
 16 17  2  0
 17  7  1  0
 17 11  1  0
  1 18  1  0
  1 19  1  0
  1 20  1  0
  2 21  1  0
  2 22  1  0
  4 23  1  0
  4 24  1  0
  5 25  1  0
  5 26  1  0
  8 27  1  0
  9 28  1  0
 10 29  1  0
 12 30  1  0
 15 31  1  0
 16 32  1  0
M  CHG  1  10   1
M  END
>  <UniqueID>  (11) 
11

>  <SMILES>  (11) 
CCOCCOc1cc[nH+]c2cc(Cl)ccc12

>  <Energy>  (11) 
33.81978495887044

>  <Genealogy>  (11) 
CCOCCOc1cc[nH+]c2cc(Cl)ccc12 (protonated)
CCOCCOc1cc[nH+]c2cc(Cl)ccc12 (3D coordinates assigned)
CCOCCOc1cc[nH+]c2cc(Cl)ccc12 (optimized conformer: 33.81978495887044 kcal/mol)

>  <smiles>  (11) 
CCOCCOc1ccnc2cc(Cl)ccc12

>  <score_type>  (11) 
oracle

>  <origin>  (11) 
adg

>  <m_score__min__energy>  (11) 
-6.4299999999999997

>  <m_primary>  (11) 
energy

$$$$
11:0
     RDKit          3D

 69 72  0  0  0  0  0  0  0  0999 V2000
   -9.1160   20.1740  -32.1150 C   0  0  0  0  0  0  0  0  0  0  0  0
   -7.6600   20.3770  -32.2910 N   0  0  0  0  0  0  0  0  0  0  0  0
   -7.0880   21.5880  -31.9540 C   0  0  0  0  0  0  0  0  0  0  0  0
   -7.7880   22.5590  -31.1920 C   0  0  0  0  0  0  0  0  0  0  0  0
   -7.2140   23.7970  -30.9020 C   0  0  0  0  0  0  0  0  0  0  0  0
   -5.9330   24.0980  -31.3500 C   0  0  0  0  0  0  0  0  0  0  0  0
   -5.2070   23.1510  -32.0660 C   0  0  0  0  0  0  0  0  0  0  0  0
   -5.7600   21.8840  -32.3550 C   0  0  0  0  0  0  0  0  0  0  0  0
   -5.0080   20.9140  -33.0420 C   0  0  0  0  0  0  0  0  0  0  0  0
   -3.6480   21.2070  -33.3950 N   0  0  0  0  0  0  0  0  0  0  0  0
   -2.6420   21.4060  -32.3490 C   0  0  0  0  0  0  0  0  0  0  0  0
   -1.2270   21.1480  -32.8730 C   0  0  0  0  0  0  0  0  0  0  0  0
   -1.2270   21.0350  -34.3300 N   0  0  0  0  0  0  0  0  0  0  0  0
   -5.5610   19.6360  -33.2880 C   0  0  0  0  0  0  0  0  0  0  0  0
   -4.8390   18.6210  -33.9850 C   0  0  0  0  0  0  0  0  0  0  0  0
   -3.5910   18.9160  -34.5650 O   0  0  0  0  0  0  0  0  0  0  0  0
   -2.3850   18.1690  -34.4110 C   0  0  0  0  0  0  0  0  0  0  0  0
   -2.4140   16.9140  -35.3160 C   0  0  0  0  0  0  0  0  0  0  0  0
   -1.9460   15.6450  -34.6700 N   0  0  0  0  0  0  0  0  0  0  0  0
   -0.5490   15.3580  -35.0890 C   0  0  0  0  0  0  0  0  0  0  0  0
   -2.8170   14.5200  -35.1590 C   0  0  0  0  0  0  0  0  0  0  0  0
   -4.0170   14.2540  -34.2270 C   0  0  0  0  0  0  0  0  0  0  0  0
   -3.5830   13.8240  -32.8600 N   0  0  0  0  0  0  0  0  0  0  0  0
   -3.4760   12.3450  -32.8100 C   0  0  0  0  0  0  0  0  0  0  0  0
   -4.6150   14.2360  -31.8770 C   0  0  0  0  0  0  0  0  0  0  0  0
   -2.2620   14.4200  -32.4810 C   0  0  0  0  0  0  0  0  0  0  0  0
   -2.0100   15.7720  -33.1780 C   0  0  0  0  0  0  0  0  0  0  0  0
   -5.3860   17.3310  -34.0910 C   0  0  0  0  0  0  0  0  0  0  0  0
   -6.6240   17.0430  -33.5380 C   0  0  0  0  0  0  0  0  0  0  0  0
   -7.3660   18.0390  -32.9160 C   0  0  0  0  0  0  0  0  0  0  0  0
   -6.8820   19.3660  -32.8260 C   0  0  0  0  0  0  0  0  0  0  0  0
   -9.3545   20.1408  -31.0417 H   0  0  0  0  0  0  0  0  0  0  0  0
   -9.6617   21.0048  -32.5863 H   0  0  0  0  0  0  0  0  0  0  0  0
   -9.4136   19.2257  -32.5863 H   0  0  0  0  0  0  0  0  0  0  0  0
   -8.7995   22.3319  -30.8241 H   0  0  0  0  0  0  0  0  0  0  0  0
   -7.7775   24.5382  -30.3163 H   0  0  0  0  0  0  0  0  0  0  0  0
   -5.4935   25.0840  -31.1387 H   0  0  0  0  0  0  0  0  0  0  0  0
   -4.1907   23.3920  -32.4109 H   0  0  0  0  0  0  0  0  0  0  0  0
   -3.3840   21.2030  -34.4050 H   0  0  0  0  0  0  0  0  0  0  0  0
   -2.7048   22.4423  -31.9856 H   0  0  0  0  0  0  0  0  0  0  0  0
   -2.8439   20.6924  -31.5366 H   0  0  0  0  0  0  0  0  0  0  0  0
   -0.5744   21.9822  -32.5758 H   0  0  0  0  0  0  0  0  0  0  0  0
   -0.8589   20.2036  -32.4456 H   0  0  0  0  0  0  0  0  0  0  0  0
   -1.2740   21.9960  -34.7370 H   0  0  0  0  0  0  0  0  0  0  0  0
   -2.1120   20.5530  -34.6110 H   0  0  0  0  0  0  0  0  0  0  0  0
   -1.5286   18.7997  -34.6918 H   0  0  0  0  0  0  0  0  0  0  0  0
   -2.2905   17.8526  -33.3617 H   0  0  0  0  0  0  0  0  0  0  0  0
   -3.4503   16.7617  -35.6520 H   0  0  0  0  0  0  0  0  0  0  0  0
   -1.7087   17.1150  -36.1358 H   0  0  0  0  0  0  0  0  0  0  0  0
    0.0820   15.2284  -34.1973 H   0  0  0  0  0  0  0  0  0  0  0  0
   -0.5283   14.4368  -35.6899 H   0  0  0  0  0  0  0  0  0  0  0  0
   -0.1668   16.1964  -35.6899 H   0  0  0  0  0  0  0  0  0  0  0  0
   -3.1970   14.7770  -36.1588 H   0  0  0  0  0  0  0  0  0  0  0  0
   -2.2030   13.6076  -35.1820 H   0  0  0  0  0  0  0  0  0  0  0  0
   -4.6083   15.1772  -34.1375 H   0  0  0  0  0  0  0  0  0  0  0  0
   -4.6128   13.4398  -34.6653 H   0  0  0  0  0  0  0  0  0  0  0  0
   -3.4521   12.0144  -31.7611 H   0  0  0  0  0  0  0  0  0  0  0  0
   -4.3441   11.8973  -33.3159 H   0  0  0  0  0  0  0  0  0  0  0  0
   -2.5525   12.0269  -33.3159 H   0  0  0  0  0  0  0  0  0  0  0  0
   -4.2319   14.0830  -30.8573 H   0  0  0  0  0  0  0  0  0  0  0  0
   -4.8561   15.2993  -32.0224 H   0  0  0  0  0  0  0  0  0  0  0  0
   -5.5222   13.6311  -32.0224 H   0  0  0  0  0  0  0  0  0  0  0  0
   -2.2425   14.5741  -31.3920 H   0  0  0  0  0  0  0  0  0  0  0  0
   -1.4734   13.7233  -32.8016 H   0  0  0  0  0  0  0  0  0  0  0  0
   -2.8268   16.4610  -32.9173 H   0  0  0  0  0  0  0  0  0  0  0  0
   -1.0365   16.1500  -32.8325 H   0  0  0  0  0  0  0  0  0  0  0  0
   -4.8271   16.5431  -34.6172 H   0  0  0  0  0  0  0  0  0  0  0  0
   -7.0215   16.0188  -33.5921 H   0  0  0  0  0  0  0  0  0  0  0  0
   -8.3477   17.7919  -32.4855 H   0  0  0  0  0  0  0  0  0  0  0  0
  1  2  1  0
  2  3  2  0
  3  4  1  0
  4  5  2  0
  5  6  1  0
  6  7  2  0
  7  8  1  0
  8  9  2  0
  9 10  1  0
 10 11  1  0
 11 12  1  0
 12 13  1  0
  9 14  1  0
 14 15  2  0
 15 16  1  0
 16 17  1  0
 17 18  1  0
 18 19  1  0
 19 20  1  0
 19 21  1  0
 21 22  1  0
 22 23  1  0
 23 24  1  0
 23 25  1  0
 23 26  1  0
 26 27  1  0
 15 28  1  0
 28 29  2  0
 29 30  1  0
 30 31  2  0
 31  2  1  0
  8  3  1  0
 31 14  1  0
 27 19  1  0
  1 32  1  0
  1 33  1  0
  1 34  1  0
  4 35  1  0
  5 36  1  0
  6 37  1  0
  7 38  1  0
 10 39  1  0
 11 40  1  0
 11 41  1  0
 12 42  1  0
 12 43  1  0
 13 44  1  0
 13 45  1  0
 17 46  1  0
 17 47  1  0
 18 48  1  0
 18 49  1  0
 20 50  1  0
 20 51  1  0
 20 52  1  0
 21 53  1  0
 21 54  1  0
 22 55  1  0
 22 56  1  0
 24 57  1  0
 24 58  1  0
 24 59  1  0
 25 60  1  0
 25 61  1  0
 25 62  1  0
 26 63  1  0
 26 64  1  0
 27 65  1  0
 27 66  1  0
 28 67  1  0
 29 68  1  0
 30 69  1  0
M  CHG  3   2   1  19   1  23   1
M  END
>  <UniqueID>  (12) 
12

>  <SMILES>  (12) 
C[n+]1c2ccccc2c(NCCN)c2c(OCC[N+]3(C)CC[N+](C)(C)CC3)cccc21

>  <Energy>  (12) 
122.34486744232208

>  <Genealogy>  (12) 
C[n+]1c2ccccc2c(NCCN)c2c(OCC[N+]3(C)CC[N+](C)(C)CC3)cccc21 (3D coordinates assigned)
C[n+]1c2ccccc2c(NCCN)c2c(OCC[N+]3(C)CC[N+](C)(C)CC3)cccc21 (nonaromatic ring conformer: 122.34486744232208 kcal/mol)

>  <smiles>  (12) 
C[n+]1c2ccccc2c(NCCN)c2c(OCC[N+]3(C)CC[N+](C)(C)CC3)cccc21

>  <score_type>  (12) 
oracle

>  <origin>  (12) 
adg

>  <m_score__min__energy>  (12) 
-7.5099999999999998

>  <m_primary>  (12) 
energy

$$$$
12:0
     RDKit          3D

 43 45  0  0  0  0  0  0  0  0999 V2000
   -0.0710   20.5110  -27.4770 C   0  0  0  0  0  0  0  0  0  0  0  0
   -0.4250   21.9420  -27.7010 C   0  0  0  0  0  0  0  0  0  0  0  0
    0.3770   23.0260  -27.4020 C   0  0  0  0  0  0  0  0  0  0  0  0
   -0.3360   24.1380  -27.7940 C   0  0  0  0  0  0  0  0  0  0  0  0
   -1.5260   23.6580  -28.3100 C   0  0  0  0  0  0  0  0  0  0  0  0
   -2.6280   24.4840  -28.8880 C   0  0  0  0  0  0  0  0  0  0  0  0
   -3.6490   23.6190  -29.4740 N   0  0  0  0  0  0  0  0  0  0  0  0
   -4.5620   24.0840  -30.4820 C   0  0  0  0  0  0  0  0  0  0  0  0
   -4.5060   25.2800  -30.8740 O   0  0  0  0  0  0  0  0  0  0  0  0
   -5.5890   23.1750  -31.0390 C   0  0  0  0  0  0  0  0  0  0  0  0
   -6.9530   23.3750  -30.9180 C   0  0  0  0  0  0  0  0  0  0  0  0
   -7.5660   22.3650  -31.6320 C   0  0  0  0  0  0  0  0  0  0  0  0
   -6.5520   21.5920  -32.1790 C   0  0  0  0  0  0  0  0  0  0  0  0
   -5.3450   22.0690  -31.7860 N   0  0  0  0  0  0  0  0  0  0  0  0
   -4.0340   21.5010  -32.1140 C   0  0  0  0  0  0  0  0  0  0  0  0
   -6.7760   20.4250  -33.1020 C   0  0  0  0  0  0  0  0  0  0  0  0
   -7.4910   19.2600  -32.3980 C   0  0  0  0  0  0  0  0  0  0  0  0
   -8.7840   19.6400  -31.6440 C   0  0  0  0  0  0  0  0  0  0  0  0
   -9.5390   20.8230  -32.2780 C   0  0  0  0  0  0  0  0  0  0  0  0
   -9.0590   22.2050  -31.7810 C   0  0  0  0  0  0  0  0  0  0  0  0
   -1.5500   22.3450  -28.2460 O   0  0  0  0  0  0  0  0  0  0  0  0
   -0.0214   20.3103  -26.3966 H   0  0  0  0  0  0  0  0  0  0  0  0
   -0.8371   19.8678  -27.9346 H   0  0  0  0  0  0  0  0  0  0  0  0
    0.9066   20.2992  -27.9346 H   0  0  0  0  0  0  0  0  0  0  0  0
    1.3776   23.0058  -26.9455 H   0  0  0  0  0  0  0  0  0  0  0  0
   -0.0235   25.1896  -27.7133 H   0  0  0  0  0  0  0  0  0  0  0  0
   -3.0809   25.0943  -28.0927 H   0  0  0  0  0  0  0  0  0  0  0  0
   -2.2159   25.1367  -29.6717 H   0  0  0  0  0  0  0  0  0  0  0  0
   -3.6840   22.6230  -29.1640 H   0  0  0  0  0  0  0  0  0  0  0  0
   -7.4518   24.1819  -30.3611 H   0  0  0  0  0  0  0  0  0  0  0  0
   -3.4932   21.2667  -31.1852 H   0  0  0  0  0  0  0  0  0  0  0  0
   -4.1696   20.5809  -32.7014 H   0  0  0  0  0  0  0  0  0  0  0  0
   -3.4555   22.2292  -32.7014 H   0  0  0  0  0  0  0  0  0  0  0  0
   -7.3910   20.7574  -33.9513 H   0  0  0  0  0  0  0  0  0  0  0  0
   -5.7924   20.0653  -33.4383 H   0  0  0  0  0  0  0  0  0  0  0  0
   -7.7495   18.5096  -33.1596 H   0  0  0  0  0  0  0  0  0  0  0  0
   -6.7909   18.8893  -31.6348 H   0  0  0  0  0  0  0  0  0  0  0  0
   -9.4514   18.7657  -31.6346 H   0  0  0  0  0  0  0  0  0  0  0  0
   -8.4887   19.9500  -30.6307 H   0  0  0  0  0  0  0  0  0  0  0  0
   -9.4006   20.7789  -33.3684 H   0  0  0  0  0  0  0  0  0  0  0  0
  -10.5945   20.7249  -31.9843 H   0  0  0  0  0  0  0  0  0  0  0  0
   -9.4101   22.9623  -32.4974 H   0  0  0  0  0  0  0  0  0  0  0  0
   -9.4751   22.3207  -30.7693 H   0  0  0  0  0  0  0  0  0  0  0  0
  1  2  1  0
  2  3  2  0
  3  4  1  0
  4  5  2  0
  5  6  1  0
  6  7  1  0
  7  8  1  0
  8  9  2  0
  8 10  1  0
 10 11  2  0
 11 12  1  0
 12 13  2  0
 13 14  1  0
 14 15  1  0
 13 16  1  0
 16 17  1  0
 17 18  1  0
 18 19  1  0
 19 20  1  0
  5 21  1  0
 21  2  1  0
 14 10  1  0
 20 12  1  0
  1 22  1  0
  1 23  1  0
  1 24  1  0
  3 25  1  0
  4 26  1  0
  6 27  1  0
  6 28  1  0
  7 29  1  0
 11 30  1  0
 15 31  1  0
 15 32  1  0
 15 33  1  0
 16 34  1  0
 16 35  1  0
 17 36  1  0
 17 37  1  0
 18 38  1  0
 18 39  1  0
 19 40  1  0
 19 41  1  0
 20 42  1  0
 20 43  1  0
M  END
>  <UniqueID>  (13) 
13

>  <SMILES>  (13) 
Cc1ccc(CNC(=O)c2cc3c(n2C)CCCCC3)o1

>  <Energy>  (13) 
98.74250578458856

>  <Genealogy>  (13) 
Cc1ccc(CNC(=O)c2cc3c(n2C)CCCCC3)o1 (3D coordinates assigned)
Cc1ccc(CNC(=O)c2cc3c(n2C)CCCCC3)o1 (nonaromatic ring conformer: 98.74250578458856 kcal/mol)

>  <smiles>  (13) 
Cc1ccc(CNC(=O)c2cc3c(n2C)CCCCC3)o1

>  <score_type>  (13) 
oracle

>  <origin>  (13) 
adg

>  <m_score__min__energy>  (13) 
-6.6299999999999999

>  <m_primary>  (13) 
energy

$$$$
13:0
     RDKit          3D

 69 71  0  0  0  0  0  0  0  0999 V2000
   -3.4830   18.5580  -25.9980 C   0  0  0  0  0  0  0  0  0  0  0  0
   -2.3760   19.3780  -26.6570 C   0  0  0  0  0  0  0  0  0  0  0  0
   -2.9500   20.4320  -27.6110 C   0  0  0  0  0  0  0  0  0  0  0  0
   -1.8630   21.3330  -28.0850 N   0  0  0  0  0  0  0  0  0  0  0  0
   -0.5750   21.0400  -27.4100 C   0  0  0  0  0  0  0  0  0  0  0  0
    0.0610   22.3100  -26.8250 C   0  0  0  0  0  0  0  0  0  0  0  0
   -0.5120   22.6280  -25.4490 C   0  0  0  0  0  0  0  0  0  0  0  0
   -1.6970   21.2470  -29.5550 C   0  0  0  0  0  0  0  0  0  0  0  0
   -1.6020   22.6420  -30.1970 C   0  0  0  0  0  0  0  0  0  0  0  0
   -1.8630   23.7760  -29.1970 C   0  0  0  0  0  0  0  0  0  0  0  0
   -3.2310   23.6980  -28.6680 N   0  0  0  0  0  0  0  0  0  0  0  0
   -4.1750   24.3270  -29.6000 C   0  0  0  0  0  0  0  0  0  0  0  0
   -5.1490   23.2920  -30.1760 C   0  0  0  0  0  0  0  0  0  0  0  0
   -6.0790   23.9010  -31.2290 C   0  0  0  0  0  0  0  0  0  0  0  0
   -6.0030   23.1520  -32.4820 N   0  0  0  0  0  0  0  0  0  0  0  0
   -5.9280   21.7170  -32.4900 C   0  0  0  0  0  0  0  0  0  0  0  0
   -7.0920   20.9500  -32.3180 C   0  0  0  0  0  0  0  0  0  0  0  0
   -8.3310   21.5730  -32.0560 C   0  0  0  0  0  0  0  0  0  0  0  0
   -9.5000   20.8220  -31.9600 C   0  0  0  0  0  0  0  0  0  0  0  0
   -9.4580   19.4440  -32.1360 C   0  0  0  0  0  0  0  0  0  0  0  0
   -8.2430   18.8050  -32.3780 C   0  0  0  0  0  0  0  0  0  0  0  0
   -7.0250   19.5340  -32.4350 C   0  0  0  0  0  0  0  0  0  0  0  0
   -5.8040   18.9070  -32.6240 N   0  0  0  0  0  0  0  0  0  0  0  0
   -5.7060   17.4340  -32.5140 C   0  0  0  0  0  0  0  0  0  0  0  0
   -4.6710   19.6580  -32.8810 C   0  0  0  0  0  0  0  0  0  0  0  0
   -3.4490   19.0590  -33.2850 C   0  0  0  0  0  0  0  0  0  0  0  0
   -2.2890   19.8170  -33.4390 C   0  0  0  0  0  0  0  0  0  0  0  0
   -2.3160   21.1880  -33.2160 C   0  0  0  0  0  0  0  0  0  0  0  0
   -3.5130   21.8150  -32.8810 C   0  0  0  0  0  0  0  0  0  0  0  0
   -4.7060   21.0730  -32.7540 C   0  0  0  0  0  0  0  0  0  0  0  0
   -3.3892   18.6275  -24.9042 H   0  0  0  0  0  0  0  0  0  0  0  0
   -4.4632   18.9496  -26.3076 H   0  0  0  0  0  0  0  0  0  0  0  0
   -3.3940   17.5062  -26.3076 H   0  0  0  0  0  0  0  0  0  0  0  0
   -1.7920   19.8844  -25.8744 H   0  0  0  0  0  0  0  0  0  0  0  0
   -1.7403   18.6948  -27.2394 H   0  0  0  0  0  0  0  0  0  0  0  0
   -3.4101   19.9299  -28.4748 H   0  0  0  0  0  0  0  0  0  0  0  0
   -3.7073   21.0270  -27.0796 H   0  0  0  0  0  0  0  0  0  0  0  0
   -0.7544   20.3232  -26.5951 H   0  0  0  0  0  0  0  0  0  0  0  0
    0.1165   20.6226  -28.1567 H   0  0  0  0  0  0  0  0  0  0  0  0
    1.1470   22.1593  -26.7357 H   0  0  0  0  0  0  0  0  0  0  0  0
   -0.1590   23.1521  -27.4977 H   0  0  0  0  0  0  0  0  0  0  0  0
    0.1688   22.2501  -24.6720 H   0  0  0  0  0  0  0  0  0  0  0  0
   -0.6234   23.7170  -25.3409 H   0  0  0  0  0  0  0  0  0  0  0  0
   -1.4950   22.1464  -25.3409 H   0  0  0  0  0  0  0  0  0  0  0  0
   -0.7763   20.6879  -29.7781 H   0  0  0  0  0  0  0  0  0  0  0  0
   -2.5777   20.7360  -29.9713 H   0  0  0  0  0  0  0  0  0  0  0  0
   -0.5927   22.7681  -30.6158 H   0  0  0  0  0  0  0  0  0  0  0  0
   -2.3772   22.7018  -30.9752 H   0  0  0  0  0  0  0  0  0  0  0  0
   -1.1488   23.6945  -28.3644 H   0  0  0  0  0  0  0  0  0  0  0  0
   -1.7385   24.7388  -29.7142 H   0  0  0  0  0  0  0  0  0  0  0  0
   -3.4810   22.6830  -28.5870 H   0  0  0  0  0  0  0  0  0  0  0  0
   -4.7462   25.1007  -29.0662 H   0  0  0  0  0  0  0  0  0  0  0  0
   -3.6055   24.7723  -30.4290 H   0  0  0  0  0  0  0  0  0  0  0  0
   -4.5702   22.4802  -30.6407 H   0  0  0  0  0  0  0  0  0  0  0  0
   -5.7714   22.9160  -29.3506 H   0  0  0  0  0  0  0  0  0  0  0  0
   -7.1132   23.8752  -30.8553 H   0  0  0  0  0  0  0  0  0  0  0  0
   -5.7668   24.9387  -31.4182 H   0  0  0  0  0  0  0  0  0  0  0  0
   -5.8520   23.6770  -33.3780 H   0  0  0  0  0  0  0  0  0  0  0  0
   -8.3739   22.6645  -31.9261 H   0  0  0  0  0  0  0  0  0  0  0  0
  -10.4570   21.3198  -31.7448 H   0  0  0  0  0  0  0  0  0  0  0  0
  -10.3862   18.8559  -32.0842 H   0  0  0  0  0  0  0  0  0  0  0  0
   -8.2270   17.7154  -32.5277 H   0  0  0  0  0  0  0  0  0  0  0  0
   -5.6868   17.1461  -31.4525 H   0  0  0  0  0  0  0  0  0  0  0  0
   -6.5753   16.9711  -33.0039 H   0  0  0  0  0  0  0  0  0  0  0  0
   -4.7830   17.0903  -33.0039 H   0  0  0  0  0  0  0  0  0  0  0  0
   -3.4167   17.9769  -33.4801 H   0  0  0  0  0  0  0  0  0  0  0  0
   -1.3500   19.3282  -33.7378 H   0  0  0  0  0  0  0  0  0  0  0  0
   -1.3918   21.7780  -33.3041 H   0  0  0  0  0  0  0  0  0  0  0  0
   -3.5287   22.9020  -32.7133 H   0  0  0  0  0  0  0  0  0  0  0  0
  1  2  1  0
  2  3  1  0
  3  4  1  0
  4  5  1  0
  5  6  1  0
  6  7  1  0
  4  8  1  0
  8  9  1  0
  9 10  1  0
 10 11  1  0
 11 12  1  0
 12 13  1  0
 13 14  1  0
 14 15  1  0
 15 16  1  0
 16 17  2  0
 17 18  1  0
 18 19  2  0
 19 20  1  0
 20 21  2  0
 21 22  1  0
 22 23  2  0
 23 24  1  0
 23 25  1  0
 25 26  2  0
 26 27  1  0
 27 28  2  0
 28 29  1  0
 29 30  2  0
 30 16  1  0
 22 17  1  0
 30 25  1  0
  1 31  1  0
  1 32  1  0
  1 33  1  0
  2 34  1  0
  2 35  1  0
  3 36  1  0
  3 37  1  0
  5 38  1  0
  5 39  1  0
  6 40  1  0
  6 41  1  0
  7 42  1  0
  7 43  1  0
  7 44  1  0
  8 45  1  0
  8 46  1  0
  9 47  1  0
  9 48  1  0
 10 49  1  0
 10 50  1  0
 11 51  1  0
 12 52  1  0
 12 53  1  0
 13 54  1  0
 13 55  1  0
 14 56  1  0
 14 57  1  0
 15 58  1  0
 18 59  1  0
 19 60  1  0
 20 61  1  0
 21 62  1  0
 24 63  1  0
 24 64  1  0
 24 65  1  0
 26 66  1  0
 27 67  1  0
 28 68  1  0
 29 69  1  0
M  CHG  1  23   1
M  END
>  <UniqueID>  (14) 
14

>  <SMILES>  (14) 
CCCN(CCC)CCCNCCCNc1c2ccccc2[n+](C)c2ccccc12

>  <Energy>  (14) 
76.85344030392422

>  <Genealogy>  (14) 
CCCN(CCC)CCCNCCCNc1c2ccccc2[n+](C)c2ccccc12 (3D coordinates assigned)
CCCN(CCC)CCCNCCCNc1c2ccccc2[n+](C)c2ccccc12 (optimized conformer: 76.85344030392422 kcal/mol)

>  <smiles>  (14) 
CCCN(CCC)CCCNCCCNc1c2ccccc2[n+](C)c2ccccc12

>  <score_type>  (14) 
oracle

>  <origin>  (14) 
adg

>  <m_score__min__energy>  (14) 
-9.4100000000000001

>  <m_primary>  (14) 
energy

$$$$
14:0
     RDKit          3D

 52 54  0  0  0  0  0  0  0  0999 V2000
   -2.3560   20.4560  -28.2580 C   0  0  0  0  0  0  0  0  0  0  0  0
   -2.7410   21.0950  -29.5890 C   0  0  0  0  0  0  0  0  0  0  0  0
   -1.7600   22.2090  -29.9780 C   0  0  0  0  0  0  0  0  0  0  0  0
   -2.4460   23.4410  -30.1070 O   0  0  0  0  0  0  0  0  0  0  0  0
   -3.1840   23.7220  -28.9340 C   0  0  0  0  0  0  0  0  0  0  0  0
   -4.4310   24.5270  -29.3040 C   0  0  0  0  0  0  0  0  0  0  0  0
   -4.3920   24.9320  -30.6590 O   0  0  0  0  0  0  0  0  0  0  0  0
   -5.6880   25.0050  -31.2300 C   0  0  0  0  0  0  0  0  0  0  0  0
   -5.9280   23.7880  -32.1230 C   0  0  0  0  0  0  0  0  0  0  0  0
   -5.1190   22.6500  -31.6840 N   0  0  0  0  0  0  0  0  0  0  0  0
   -5.3330   21.3550  -32.2670 C   0  0  0  0  0  0  0  0  0  0  0  0
   -6.5980   20.7470  -32.1880 C   0  0  0  0  0  0  0  0  0  0  0  0
   -7.6460   21.3540  -31.4600 C   0  0  0  0  0  0  0  0  0  0  0  0
   -8.8900   20.7410  -31.3590 C   0  0  0  0  0  0  0  0  0  0  0  0
   -9.1040   19.5040  -31.9540 C   0  0  0  0  0  0  0  0  0  0  0  0
   -8.0830   18.8800  -32.6720 C   0  0  0  0  0  0  0  0  0  0  0  0
   -6.8150   19.4990  -32.8300 C   0  0  0  0  0  0  0  0  0  0  0  0
   -5.8020   18.9090  -33.5660 N   0  0  0  0  0  0  0  0  0  0  0  0
   -6.1050   17.7630  -34.4530 C   0  0  0  0  0  0  0  0  0  0  0  0
   -4.5130   19.4070  -33.4890 C   0  0  0  0  0  0  0  0  0  0  0  0
   -3.4020   18.6890  -34.0050 C   0  0  0  0  0  0  0  0  0  0  0  0
   -2.1190   19.2350  -33.9820 C   0  0  0  0  0  0  0  0  0  0  0  0
   -1.9030   20.4960  -33.4360 C   0  0  0  0  0  0  0  0  0  0  0  0
   -0.2860   21.1790  -33.4200 Cl  0  0  0  0  0  0  0  0  0  0  0  0
   -2.9670   21.2070  -32.8820 C   0  0  0  0  0  0  0  0  0  0  0  0
   -4.2700   20.6650  -32.8740 C   0  0  0  0  0  0  0  0  0  0  0  0
   -2.7304   21.0773  -27.4311 H   0  0  0  0  0  0  0  0  0  0  0  0
   -2.7993   19.4515  -28.1917 H   0  0  0  0  0  0  0  0  0  0  0  0
   -1.2607   20.3785  -28.1917 H   0  0  0  0  0  0  0  0  0  0  0  0
   -2.7348   20.3226  -30.3722 H   0  0  0  0  0  0  0  0  0  0  0  0
   -3.7433   21.5362  -29.4849 H   0  0  0  0  0  0  0  0  0  0  0  0
   -0.9887   22.3023  -29.1993 H   0  0  0  0  0  0  0  0  0  0  0  0
   -1.2925   21.9557  -30.9409 H   0  0  0  0  0  0  0  0  0  0  0  0
   -3.4841   22.7791  -28.4536 H   0  0  0  0  0  0  0  0  0  0  0  0
   -2.5625   24.3035  -28.2372 H   0  0  0  0  0  0  0  0  0  0  0  0
   -5.3226   23.9037  -29.1408 H   0  0  0  0  0  0  0  0  0  0  0  0
   -4.4670   25.4262  -28.6714 H   0  0  0  0  0  0  0  0  0  0  0  0
   -6.4403   25.0236  -30.4277 H   0  0  0  0  0  0  0  0  0  0  0  0
   -5.7684   25.9209  -31.8339 H   0  0  0  0  0  0  0  0  0  0  0  0
   -6.9919   23.5123  -32.0776 H   0  0  0  0  0  0  0  0  0  0  0  0
   -5.6414   24.0462  -33.1532 H   0  0  0  0  0  0  0  0  0  0  0  0
   -4.2030   22.8350  -31.2090 H   0  0  0  0  0  0  0  0  0  0  0  0
   -7.4757   22.3227  -30.9675 H   0  0  0  0  0  0  0  0  0  0  0  0
   -9.7040   21.2351  -30.8084 H   0  0  0  0  0  0  0  0  0  0  0  0
  -10.0840   19.0136  -31.8586 H   0  0  0  0  0  0  0  0  0  0  0  0
   -8.2634   17.8929  -33.1227 H   0  0  0  0  0  0  0  0  0  0  0  0
   -6.3389   16.8785  -33.8423 H   0  0  0  0  0  0  0  0  0  0  0  0
   -6.9689   18.0091  -35.0879 H   0  0  0  0  0  0  0  0  0  0  0  0
   -5.2323   17.5499  -35.0879 H   0  0  0  0  0  0  0  0  0  0  0  0
   -3.5558   17.6860  -34.4297 H   0  0  0  0  0  0  0  0  0  0  0  0
   -1.2742   18.6661  -34.3974 H   0  0  0  0  0  0  0  0  0  0  0  0
   -2.7887   22.2012  -32.4464 H   0  0  0  0  0  0  0  0  0  0  0  0
  1  2  1  0
  2  3  1  0
  3  4  1  0
  4  5  1  0
  5  6  1  0
  6  7  1  0
  7  8  1  0
  8  9  1  0
  9 10  1  0
 10 11  1  0
 11 12  2  0
 12 13  1  0
 13 14  2  0
 14 15  1  0
 15 16  2  0
 16 17  1  0
 17 18  2  0
 18 19  1  0
 18 20  1  0
 20 21  2  0
 21 22  1  0
 22 23  2  0
 23 24  1  0
 23 25  1  0
 25 26  2  0
 26 11  1  0
 17 12  1  0
 26 20  1  0
  1 27  1  0
  1 28  1  0
  1 29  1  0
  2 30  1  0
  2 31  1  0
  3 32  1  0
  3 33  1  0
  5 34  1  0
  5 35  1  0
  6 36  1  0
  6 37  1  0
  8 38  1  0
  8 39  1  0
  9 40  1  0
  9 41  1  0
 10 42  1  0
 13 43  1  0
 14 44  1  0
 15 45  1  0
 16 46  1  0
 19 47  1  0
 19 48  1  0
 19 49  1  0
 21 50  1  0
 22 51  1  0
 25 52  1  0
M  CHG  1  18   1
M  END
>  <UniqueID>  (15) 
15

>  <SMILES>  (15) 
CCCOCCOCCNc1c2ccccc2[n+](C)c2ccc(Cl)cc12

>  <Energy>  (15) 
75.64574617391254

>  <Genealogy>  (15) 
CCCOCCOCCNc1c2ccccc2[n+](C)c2ccc(Cl)cc12 (3D coordinates assigned)
CCCOCCOCCNc1c2ccccc2[n+](C)c2ccc(Cl)cc12 (optimized conformer: 75.64574617391254 kcal/mol)

>  <smiles>  (15) 
CCCOCCOCCNc1c2ccccc2[n+](C)c2ccc(Cl)cc12

>  <score_type>  (15) 
oracle

>  <origin>  (15) 
adg

>  <m_score__min__energy>  (15) 
-9.6699999999999999

>  <m_primary>  (15) 
energy

$$$$
15:0
     RDKit          3D

 49 51  0  0  0  0  0  0  0  0999 V2000
   -3.0110   22.9770  -29.9350 C   0  0  0  0  0  0  0  0  0  0  0  0
   -3.8400   24.2120  -29.6260 C   0  0  0  0  0  0  0  0  0  0  0  0
   -4.3090   24.7640  -30.8380 O   0  0  0  0  0  0  0  0  0  0  0  0
   -5.3700   25.6700  -30.5990 C   0  0  0  0  0  0  0  0  0  0  0  0
   -6.4270   25.0610  -29.6770 C   0  0  0  0  0  0  0  0  0  0  0  0
   -6.7380   23.7520  -30.1080 O   0  0  0  0  0  0  0  0  0  0  0  0
   -7.6050   23.8040  -31.2200 C   0  0  0  0  0  0  0  0  0  0  0  0
   -6.8760   23.2840  -32.4570 C   0  0  0  0  0  0  0  0  0  0  0  0
   -5.7170   22.4800  -32.0740 N   0  0  0  0  0  0  0  0  0  0  0  0
   -5.5530   21.1240  -32.5260 C   0  0  0  0  0  0  0  0  0  0  0  0
   -6.5930   20.1890  -32.3660 C   0  0  0  0  0  0  0  0  0  0  0  0
   -7.8140   20.5580  -31.7610 C   0  0  0  0  0  0  0  0  0  0  0  0
   -8.8200   19.6170  -31.5550 C   0  0  0  0  0  0  0  0  0  0  0  0
   -8.6240   18.2950  -31.9370 C   0  0  0  0  0  0  0  0  0  0  0  0
   -7.4350   17.9110  -32.5540 C   0  0  0  0  0  0  0  0  0  0  0  0
   -6.4110   18.8550  -32.8210 C   0  0  0  0  0  0  0  0  0  0  0  0
   -5.2560   18.5040  -33.4950 N   0  0  0  0  0  0  0  0  0  0  0  0
   -5.1800   17.2230  -34.2280 C   0  0  0  0  0  0  0  0  0  0  0  0
   -4.1720   19.3600  -33.5020 C   0  0  0  0  0  0  0  0  0  0  0  0
   -2.9330   18.9400  -33.9260 N   0  0  0  0  0  0  0  0  0  0  0  0
   -1.8580   19.7720  -33.9630 C   0  0  0  0  0  0  0  0  0  0  0  0
   -1.9750   21.0880  -33.5380 C   0  0  0  0  0  0  0  0  0  0  0  0
   -3.1980   21.5460  -33.0630 C   0  0  0  0  0  0  0  0  0  0  0  0
   -4.3170   20.6930  -33.0380 C   0  0  0  0  0  0  0  0  0  0  0  0
   -2.6934   22.5038  -28.9942 H   0  0  0  0  0  0  0  0  0  0  0  0
   -3.6154   22.2659  -30.5173 H   0  0  0  0  0  0  0  0  0  0  0  0
   -2.1240   23.2671  -30.5173 H   0  0  0  0  0  0  0  0  0  0  0  0
   -4.6948   23.9337  -28.9920 H   0  0  0  0  0  0  0  0  0  0  0  0
   -3.2229   24.9513  -29.0944 H   0  0  0  0  0  0  0  0  0  0  0  0
   -4.9657   26.5786  -30.1288 H   0  0  0  0  0  0  0  0  0  0  0  0
   -5.8460   25.9073  -31.5619 H   0  0  0  0  0  0  0  0  0  0  0  0
   -6.0380   25.0246  -28.6487 H   0  0  0  0  0  0  0  0  0  0  0  0
   -7.3360   25.6797  -29.7065 H   0  0  0  0  0  0  0  0  0  0  0  0
   -8.4891   23.1791  -31.0254 H   0  0  0  0  0  0  0  0  0  0  0  0
   -7.9218   24.8435  -31.3904 H   0  0  0  0  0  0  0  0  0  0  0  0
   -7.5658   22.6642  -33.0487 H   0  0  0  0  0  0  0  0  0  0  0  0
   -6.5299   24.1430  -33.0506 H   0  0  0  0  0  0  0  0  0  0  0  0
   -5.1340   22.8150  -31.2740 H   0  0  0  0  0  0  0  0  0  0  0  0
   -7.9727   21.6007  -31.4487 H   0  0  0  0  0  0  0  0  0  0  0  0
   -9.7697   19.9201  -31.0900 H   0  0  0  0  0  0  0  0  0  0  0  0
   -9.4107   17.5489  -31.7515 H   0  0  0  0  0  0  0  0  0  0  0  0
   -7.2884   16.8586  -32.8385 H   0  0  0  0  0  0  0  0  0  0  0  0
   -5.1307   16.3917  -33.5093 H   0  0  0  0  0  0  0  0  0  0  0  0
   -6.0729   17.1087  -34.8601 H   0  0  0  0  0  0  0  0  0  0  0  0
   -4.2798   17.2151  -34.8601 H   0  0  0  0  0  0  0  0  0  0  0  0
   -2.7510   17.9490  -34.1940 H   0  0  0  0  0  0  0  0  0  0  0  0
   -0.8907   19.4000  -34.3317 H   0  0  0  0  0  0  0  0  0  0  0  0
   -1.1071   21.7627  -33.5768 H   0  0  0  0  0  0  0  0  0  0  0  0
   -3.2920   22.5816  -32.7044 H   0  0  0  0  0  0  0  0  0  0  0  0
  1  2  1  0
  2  3  1  0
  3  4  1  0
  4  5  1  0
  5  6  1  0
  6  7  1  0
  7  8  1  0
  8  9  1  0
  9 10  1  0
 10 11  2  0
 11 12  1  0
 12 13  2  0
 13 14  1  0
 14 15  2  0
 15 16  1  0
 16 17  2  0
 17 18  1  0
 17 19  1  0
 19 20  2  0
 20 21  1  0
 21 22  2  0
 22 23  1  0
 23 24  2  0
 24 10  1  0
 16 11  1  0
 24 19  1  0
  1 25  1  0
  1 26  1  0
  1 27  1  0
  2 28  1  0
  2 29  1  0
  4 30  1  0
  4 31  1  0
  5 32  1  0
  5 33  1  0
  7 34  1  0
  7 35  1  0
  8 36  1  0
  8 37  1  0
  9 38  1  0
 12 39  1  0
 13 40  1  0
 14 41  1  0
 15 42  1  0
 18 43  1  0
 18 44  1  0
 18 45  1  0
 20 46  1  0
 21 47  1  0
 22 48  1  0
 23 49  1  0
M  CHG  2  17   1  20   1
M  END
>  <UniqueID>  (16) 
16

>  <SMILES>  (16) 
CCOCCOCCNc1c2ccccc2[n+](C)c2[nH+]cccc12

>  <Energy>  (16) 
68.38136905914176

>  <Genealogy>  (16) 
CCOCCOCCNc1c2ccccc2[n+](C)c2[nH+]cccc12 (protonated)
CCOCCOCCNc1c2ccccc2[n+](C)c2[nH+]cccc12 (3D coordinates assigned)
CCOCCOCCNc1c2ccccc2[n+](C)c2[nH+]cccc12 (optimized conformer: 68.38136905914176 kcal/mol)

>  <smiles>  (16) 
CCOCCOCCNc1c2ccccc2[n+](C)c2ncccc12

>  <score_type>  (16) 
oracle

>  <origin>  (16) 
adg

>  <m_score__min__energy>  (16) 
-8.0099999999999998

>  <m_primary>  (16) 
energy

$$$$
16:0
     RDKit          3D

 61 63  0  0  0  0  0  0  0  0999 V2000
   -1.0120   24.6820  -28.9720 C   0  0  0  0  0  0  0  0  0  0  0  0
   -2.2720   25.2540  -29.2550 O   0  0  0  0  0  0  0  0  0  0  0  0
   -3.2840   24.5240  -28.5890 C   0  0  0  0  0  0  0  0  0  0  0  0
   -3.4530   23.1640  -29.2660 C   0  0  0  0  0  0  0  0  0  0  0  0
   -3.4250   22.0290  -28.2300 C   0  0  0  0  0  0  0  0  0  0  0  0
   -2.0600   21.3050  -28.1570 C   0  0  1  0  0  0  0  0  0  0  0  0
   -1.9560   20.4750  -26.8690 C   0  0  0  0  0  0  0  0  0  0  0  0
   -1.7060   20.4720  -29.4260 C   0  0  0  0  0  0  0  0  0  0  0  0
   -0.9450   21.1950  -30.5650 C   0  0  0  0  0  0  0  0  0  0  0  0
   -1.8560   21.8360  -31.6340 C   0  0  0  0  0  0  0  0  0  0  0  0
   -2.2090   20.8470  -32.7600 C   0  0  0  0  0  0  0  0  0  0  0  0
   -3.2990   21.3700  -33.5980 N   0  0  0  0  0  0  0  0  0  0  0  0
   -4.5770   20.8070  -33.1840 C   0  0  0  0  0  0  0  0  0  0  0  0
   -4.9340   19.4800  -33.5450 C   0  0  0  0  0  0  0  0  0  0  0  0
   -4.0230   18.6150  -34.2040 C   0  0  0  0  0  0  0  0  0  0  0  0
   -4.4190   17.3580  -34.6490 C   0  0  0  0  0  0  0  0  0  0  0  0
   -5.7240   16.9310  -34.4570 C   0  0  0  0  0  0  0  0  0  0  0  0
   -6.6260   17.7330  -33.7650 C   0  0  0  0  0  0  0  0  0  0  0  0
   -6.2370   18.9940  -33.2400 C   0  0  0  0  0  0  0  0  0  0  0  0
   -7.0970   19.7420  -32.4600 N   0  0  0  0  0  0  0  0  0  0  0  0
   -8.3140   19.1140  -31.8920 C   0  0  0  0  0  0  0  0  0  0  0  0
   -6.7990   21.0560  -32.1570 C   0  0  0  0  0  0  0  0  0  0  0  0
   -7.7610   21.9080  -31.5530 C   0  0  0  0  0  0  0  0  0  0  0  0
   -7.4360   23.2040  -31.1620 C   0  0  0  0  0  0  0  0  0  0  0  0
   -6.1530   23.6900  -31.3660 C   0  0  0  0  0  0  0  0  0  0  0  0
   -5.7370   25.3120  -30.8350 Cl  0  0  0  0  0  0  0  0  0  0  0  0
   -5.2020   22.9000  -32.0060 C   0  0  0  0  0  0  0  0  0  0  0  0
   -5.5130   21.5910  -32.4540 C   0  0  0  0  0  0  0  0  0  0  0  0
   -0.8741   24.6194  -27.8825 H   0  0  0  0  0  0  0  0  0  0  0  0
   -0.9616   23.6727  -29.4066 H   0  0  0  0  0  0  0  0  0  0  0  0
   -0.2190   25.3084  -29.4066 H   0  0  0  0  0  0  0  0  0  0  0  0
   -2.9998   24.3779  -27.5364 H   0  0  0  0  0  0  0  0  0  0  0  0
   -4.2319   25.0800  -28.6363 H   0  0  0  0  0  0  0  0  0  0  0  0
   -4.4160   23.1432  -29.7972 H   0  0  0  0  0  0  0  0  0  0  0  0
   -2.6221   23.0167  -29.9716 H   0  0  0  0  0  0  0  0  0  0  0  0
   -3.6492   22.4533  -27.2402 H   0  0  0  0  0  0  0  0  0  0  0  0
   -4.1738   21.2850  -28.5395 H   0  0  0  0  0  0  0  0  0  0  0  0
   -1.2951   22.0949  -28.1275 H   0  0  0  0  0  0  0  0  0  0  0  0
   -2.0393   21.1399  -25.9966 H   0  0  0  0  0  0  0  0  0  0  0  0
   -2.7683   19.7337  -26.8439 H   0  0  0  0  0  0  0  0  0  0  0  0
   -0.9859   19.9570  -26.8439 H   0  0  0  0  0  0  0  0  0  0  0  0
   -1.0853   19.6239  -29.1012 H   0  0  0  0  0  0  0  0  0  0  0  0
   -2.6779   20.2019  -29.8648 H   0  0  0  0  0  0  0  0  0  0  0  0
   -0.3288   21.9887  -30.1174 H   0  0  0  0  0  0  0  0  0  0  0  0
   -0.3482   20.4279  -31.0801 H   0  0  0  0  0  0  0  0  0  0  0  0
   -2.7860   22.1724  -31.1525 H   0  0  0  0  0  0  0  0  0  0  0  0
   -1.3116   22.6803  -32.0820 H   0  0  0  0  0  0  0  0  0  0  0  0
   -1.3200   20.6833  -33.3869 H   0  0  0  0  0  0  0  0  0  0  0  0
   -2.5391   19.9013  -32.3053 H   0  0  0  0  0  0  0  0  0  0  0  0
   -3.3170   22.4130  -33.5640 H   0  0  0  0  0  0  0  0  0  0  0  0
   -3.1090   21.1770  -34.6060 H   0  0  0  0  0  0  0  0  0  0  0  0
   -2.9859   18.9439  -34.3658 H   0  0  0  0  0  0  0  0  0  0  0  0
   -3.6953   16.7015  -35.1542 H   0  0  0  0  0  0  0  0  0  0  0  0
   -6.0467   15.9566  -34.8524 H   0  0  0  0  0  0  0  0  0  0  0  0
   -7.6593   17.3840  -33.6219 H   0  0  0  0  0  0  0  0  0  0  0  0
   -8.2619   19.1409  -30.7936 H   0  0  0  0  0  0  0  0  0  0  0  0
   -9.2034   19.6657  -32.2305 H   0  0  0  0  0  0  0  0  0  0  0  0
   -8.3797   18.0694  -32.2305 H   0  0  0  0  0  0  0  0  0  0  0  0
   -8.7836   21.5366  -31.3908 H   0  0  0  0  0  0  0  0  0  0  0  0
   -8.1973   23.8431  -30.6909 H   0  0  0  0  0  0  0  0  0  0  0  0
   -4.1897   23.2989  -32.1673 H   0  0  0  0  0  0  0  0  0  0  0  0
  1  2  1  0
  2  3  1  0
  3  4  1  0
  4  5  1  0
  5  6  1  0
  6  7  1  0
  6  8  1  0
  8  9  1  0
  9 10  1  0
 10 11  1  0
 11 12  1  0
 12 13  1  0
 13 14  2  0
 14 15  1  0
 15 16  2  0
 16 17  1  0
 17 18  2  0
 18 19  1  0
 19 20  2  0
 20 21  1  0
 20 22  1  0
 22 23  2  0
 23 24  1  0
 24 25  2  0
 25 26  1  0
 25 27  1  0
 27 28  2  0
 28 13  1  0
 19 14  1  0
 28 22  1  0
  1 29  1  0
  1 30  1  0
  1 31  1  0
  3 32  1  0
  3 33  1  0
  4 34  1  0
  4 35  1  0
  5 36  1  0
  5 37  1  0
  6 38  1  1
  7 39  1  0
  7 40  1  0
  7 41  1  0
  8 42  1  0
  8 43  1  0
  9 44  1  0
  9 45  1  0
 10 46  1  0
 10 47  1  0
 11 48  1  0
 11 49  1  0
 12 50  1  0
 12 51  1  0
 15 52  1  0
 16 53  1  0
 17 54  1  0
 18 55  1  0
 21 56  1  0
 21 57  1  0
 21 58  1  0
 23 59  1  0
 24 60  1  0
 27 61  1  0
M  CHG  2  12   1  20   1
M  END
>  <UniqueID>  (17) 
17

>  <SMILES>  (17) 
COCCC[C@@H](C)CCCC[NH2+]c1c2ccccc2[n+](C)c2ccc(Cl)cc12

>  <Energy>  (17) 
84.52778479210264

>  <Genealogy>  (17) 
COCCCC(C)CCCC[NH2+]c1c2ccccc2[n+](C)c2ccc(Cl)cc12 (protonated)
COCCC[C@@H](C)CCCC[NH2+]c1c2ccccc2[n+](C)c2ccc(Cl)cc12 (chirality)
COCCC[C@@H](C)CCCC[NH2+]c1c2ccccc2[n+](C)c2ccc(Cl)cc12 (3D coordinates assigned)
COCCC[C@@H](C)CCCC[NH2+]c1c2ccccc2[n+](C)c2ccc(Cl)cc12 (optimized conformer: 84.52778479210264 kcal/mol)

>  <smiles>  (17) 
COCCCC(C)CCCCNc1c2ccccc2[n+](C)c2ccc(Cl)cc12

>  <score_type>  (17) 
oracle

>  <origin>  (17) 
adg

>  <m_score__min__energy>  (17) 
-8.8100000000000005

>  <m_primary>  (17) 
energy

$$$$
17:0
     RDKit          3D

 43 44  0  0  0  0  0  0  0  0999 V2000
   -3.4630   24.0750  -28.2330 C   0  0  0  0  0  0  0  0  0  0  0  0
   -2.9280   24.9150  -29.3510 C   0  0  0  0  0  0  0  0  0  0  0  0
   -1.7300   25.3010  -29.3180 O   0  0  0  0  0  0  0  0  0  0  0  0
   -3.7510   25.2930  -30.4600 N   0  0  0  0  0  0  0  0  0  0  0  0
   -5.2080   25.3350  -30.4140 C   0  0  0  0  0  0  0  0  0  0  0  0
   -5.7800   23.9090  -30.3170 C   0  0  1  0  0  0  0  0  0  0  0  0
   -7.2370   23.8540  -30.8410 C   0  0  0  0  0  0  0  0  0  0  0  0
   -7.2840   23.4160  -32.3130 C   0  0  0  0  0  0  0  0  0  0  0  0
   -6.7040   22.0580  -32.5350 N   0  0  2  0  0  0  0  0  0  0  0  0
   -7.7560   21.0080  -32.5990 C   0  0  0  0  0  0  0  0  0  0  0  0
   -7.2080   19.6730  -33.0770 C   0  0  0  0  0  0  0  0  0  0  0  0
   -6.1930   19.6630  -34.0520 C   0  0  0  0  0  0  0  0  0  0  0  0
   -5.6480   18.4600  -34.5020 C   0  0  0  0  0  0  0  0  0  0  0  0
   -6.1140   17.2490  -33.9960 C   0  0  0  0  0  0  0  0  0  0  0  0
   -7.1340   17.2340  -33.0430 C   0  0  0  0  0  0  0  0  0  0  0  0
   -7.6900   18.4360  -32.5700 C   0  0  0  0  0  0  0  0  0  0  0  0
   -8.8400   18.3680  -31.5970 C   0  0  0  0  0  0  0  0  0  0  0  0
   -5.6790   21.6820  -31.5230 C   0  0  0  0  0  0  0  0  0  0  0  0
   -4.8690   22.8940  -31.0510 C   0  0  0  0  0  0  0  0  0  0  0  0
   -3.1780   24.5225  -27.2694 H   0  0  0  0  0  0  0  0  0  0  0  0
   -4.5596   24.0252  -28.3041 H   0  0  0  0  0  0  0  0  0  0  0  0
   -3.0445   23.0602  -28.3041 H   0  0  0  0  0  0  0  0  0  0  0  0
   -5.5269   25.9146  -29.5352 H   0  0  0  0  0  0  0  0  0  0  0  0
   -5.5819   25.8091  -31.3335 H   0  0  0  0  0  0  0  0  0  0  0  0
   -5.8035   23.6233  -29.2550 H   0  0  0  0  0  0  0  0  0  0  0  0
   -7.6887   24.8528  -30.7496 H   0  0  0  0  0  0  0  0  0  0  0  0
   -7.7943   23.1189  -30.2418 H   0  0  0  0  0  0  0  0  0  0  0  0
   -6.7165   24.1423  -32.9134 H   0  0  0  0  0  0  0  0  0  0  0  0
   -8.3420   23.3754  -32.6112 H   0  0  0  0  0  0  0  0  0  0  0  0
   -6.2120   22.0900  -33.4590 H   0  0  0  0  0  0  0  0  0  0  0  0
   -8.1854   20.8754  -31.5950 H   0  0  0  0  0  0  0  0  0  0  0  0
   -8.5180   21.3376  -33.3206 H   0  0  0  0  0  0  0  0  0  0  0  0
   -5.8252   20.6144  -34.4639 H   0  0  0  0  0  0  0  0  0  0  0  0
   -4.8488   18.4680  -35.2578 H   0  0  0  0  0  0  0  0  0  0  0  0
   -5.6775   16.3026  -34.3479 H   0  0  0  0  0  0  0  0  0  0  0  0
   -7.5063   16.2730  -32.6585 H   0  0  0  0  0  0  0  0  0  0  0  0
   -8.4516   18.3910  -30.5681 H   0  0  0  0  0  0  0  0  0  0  0  0
   -9.5067   19.2283  -31.7566 H   0  0  0  0  0  0  0  0  0  0  0  0
   -9.4006   17.4351  -31.7566 H   0  0  0  0  0  0  0  0  0  0  0  0
   -4.9923   20.9473  -31.9687 H   0  0  0  0  0  0  0  0  0  0  0  0
   -6.2003   21.2604  -30.6509 H   0  0  0  0  0  0  0  0  0  0  0  0
   -4.4114   23.3842  -31.9229 H   0  0  0  0  0  0  0  0  0  0  0  0
   -4.0903   22.5495  -30.3546 H   0  0  0  0  0  0  0  0  0  0  0  0
  1  2  1  0
  2  3  2  0
  2  4  1  0
  4  5  1  0
  5  6  1  0
  6  7  1  0
  7  8  1  0
  8  9  1  0
  9 10  1  0
 10 11  1  0
 11 12  2  0
 12 13  1  0
 13 14  2  0
 14 15  1  0
 15 16  2  0
 16 17  1  0
  9 18  1  0
 18 19  1  0
 19  6  1  0
 16 11  1  0
  1 20  1  0
  1 21  1  0
  1 22  1  0
  5 23  1  0
  5 24  1  0
  6 25  1  1
  7 26  1  0
  7 27  1  0
  8 28  1  0
  8 29  1  0
  9 30  1  6
 10 31  1  0
 10 32  1  0
 12 33  1  0
 13 34  1  0
 14 35  1  0
 15 36  1  0
 17 37  1  0
 17 38  1  0
 17 39  1  0
 18 40  1  0
 18 41  1  0
 19 42  1  0
 19 43  1  0
M  CHG  2   4  -1   9   1
M  END
>  <UniqueID>  (18) 
18

>  <SMILES>  (18) 
CC(=O)[N-]CC1CC[NH+](Cc2ccccc2C)CC1

>  <Energy>  (18) 
48.0369084830649

>  <Genealogy>  (18) 
CC(=O)[N-]CC1CC[NH+](Cc2ccccc2C)CC1 (protonated)
CC(=O)[N-]CC1CC[NH+](Cc2ccccc2C)CC1 (3D coordinates assigned)
CC(=O)[N-]CC1CC[NH+](Cc2ccccc2C)CC1 (nonaromatic ring conformer: 48.0369084830649 kcal/mol)

>  <smiles>  (18) 
CC(=O)NCC1CCN(Cc2ccccc2C)CC1

>  <score_type>  (18) 
oracle

>  <origin>  (18) 
adg

>  <m_score__min__energy>  (18) 
-9.9499999999999993

>  <m_primary>  (18) 
energy

$$$$
18:0
     RDKit          3D

 59 62  0  0  0  0  0  0  0  0999 V2000
   -3.6710   18.5670  -26.1140 C   0  0  0  0  0  0  0  0  0  0  0  0
   -2.6690   19.4600  -26.8400 C   0  0  0  0  0  0  0  0  0  0  0  0
   -3.3180   20.5920  -27.4180 O   0  0  0  0  0  0  0  0  0  0  0  0
   -2.6870   21.6010  -28.1640 C   0  0  0  0  0  0  0  0  0  0  0  0
   -1.2790   21.7320  -28.2660 C   0  0  0  0  0  0  0  0  0  0  0  0
   -0.7130   22.7590  -29.0500 C   0  0  0  0  0  0  0  0  0  0  0  0
   -1.5340   23.6750  -29.7270 C   0  0  0  0  0  0  0  0  0  0  0  0
   -2.9140   23.5360  -29.5960 C   0  0  0  0  0  0  0  0  0  0  0  0
   -3.4800   22.5320  -28.8420 C   0  0  0  0  0  0  0  0  0  0  0  0
   -4.9800   22.6370  -28.8440 C   0  0  0  0  0  0  0  0  0  0  0  0
   -5.2360   23.8160  -29.6780 N   0  0  0  0  0  0  0  0  0  0  0  0
   -6.5660   24.2890  -30.0660 C   0  0  0  0  0  0  0  0  0  0  0  0
   -7.1280   23.4570  -31.2190 C   0  0  0  0  0  0  0  0  0  0  0  0
   -7.7490   22.2300  -30.7010 N   0  0  0  0  0  0  0  0  0  0  0  0
   -8.9260   21.8240  -31.4850 C   0  0  0  0  0  0  0  0  0  0  0  0
   -8.8780   20.3170  -31.8040 C   0  0  0  0  0  0  0  0  0  0  0  0
   -8.1950   20.0480  -33.0730 N   0  0  0  0  0  0  0  0  0  0  0  0
   -6.7700   19.8790  -33.1940 C   0  0  0  0  0  0  0  0  0  0  0  0
   -6.2750   18.7300  -33.8190 C   0  0  0  0  0  0  0  0  0  0  0  0
   -4.9010   18.5150  -33.9620 C   0  0  0  0  0  0  0  0  0  0  0  0
   -4.5240   17.3790  -34.5970 F   0  0  0  0  0  0  0  0  0  0  0  0
   -3.9650   19.4700  -33.4750 C   0  0  0  0  0  0  0  0  0  0  0  0
   -4.4790   20.6430  -32.8550 C   0  0  0  0  0  0  0  0  0  0  0  0
   -3.5950   21.6180  -32.3870 C   0  0  0  0  0  0  0  0  0  0  0  0
   -2.2280   21.4390  -32.5300 C   0  0  0  0  0  0  0  0  0  0  0  0
   -1.7430   20.2810  -33.1290 C   0  0  0  0  0  0  0  0  0  0  0  0
   -2.5930   19.3070  -33.5860 N   0  0  0  0  0  0  0  0  0  0  0  0
   -1.9830   18.1140  -34.1960 C   0  0  0  0  0  0  0  0  0  0  0  0
   -5.8630   20.8340  -32.7120 C   0  0  0  0  0  0  0  0  0  0  0  0
   -3.9880   24.3430  -30.1180 C   0  0  0  0  0  0  0  0  0  0  0  0
   -3.8600   25.3700  -30.8350 O   0  0  0  0  0  0  0  0  0  0  0  0
   -3.5434   18.6807  -25.0274 H   0  0  0  0  0  0  0  0  0  0  0  0
   -4.6935   18.8588  -26.3956 H   0  0  0  0  0  0  0  0  0  0  0  0
   -3.4984   17.5178  -26.3956 H   0  0  0  0  0  0  0  0  0  0  0  0
   -1.9109   19.8074  -26.1226 H   0  0  0  0  0  0  0  0  0  0  0  0
   -2.1987   18.8766  -27.6452 H   0  0  0  0  0  0  0  0  0  0  0  0
   -0.6242   21.0287  -27.7307 H   0  0  0  0  0  0  0  0  0  0  0  0
    0.3807   22.8430  -29.1317 H   0  0  0  0  0  0  0  0  0  0  0  0
   -1.1009   24.4777  -30.3419 H   0  0  0  0  0  0  0  0  0  0  0  0
   -5.4371   21.7377  -29.2825 H   0  0  0  0  0  0  0  0  0  0  0  0
   -5.4062   22.7244  -27.8337 H   0  0  0  0  0  0  0  0  0  0  0  0
   -7.2423   24.2098  -29.2021 H   0  0  0  0  0  0  0  0  0  0  0  0
   -6.4837   25.3351  -30.3960 H   0  0  0  0  0  0  0  0  0  0  0  0
   -7.8833   24.0470  -31.7589 H   0  0  0  0  0  0  0  0  0  0  0  0
   -6.3079   23.1855  -31.9000 H   0  0  0  0  0  0  0  0  0  0  0  0
   -8.0620   22.4230  -29.7190 H   0  0  0  0  0  0  0  0  0  0  0  0
   -9.8365   22.0415  -30.9074 H   0  0  0  0  0  0  0  0  0  0  0  0
   -8.9297   22.3847  -32.4314 H   0  0  0  0  0  0  0  0  0  0  0  0
   -8.3420   19.7992  -30.9950 H   0  0  0  0  0  0  0  0  0  0  0  0
   -9.9127   19.9538  -31.8903 H   0  0  0  0  0  0  0  0  0  0  0  0
   -8.7680   19.9710  -33.9460 H   0  0  0  0  0  0  0  0  0  0  0  0
   -6.9809   17.9803  -34.2059 H   0  0  0  0  0  0  0  0  0  0  0  0
   -3.9835   22.5274  -31.9052 H   0  0  0  0  0  0  0  0  0  0  0  0
   -1.5296   22.2094  -32.1713 H   0  0  0  0  0  0  0  0  0  0  0  0
   -0.6570   20.1441  -33.2381 H   0  0  0  0  0  0  0  0  0  0  0  0
   -1.6355   17.4343  -33.4040 H   0  0  0  0  0  0  0  0  0  0  0  0
   -2.7286   17.5993  -34.8199 H   0  0  0  0  0  0  0  0  0  0  0  0
   -1.1292   18.4171  -34.8199 H   0  0  0  0  0  0  0  0  0  0  0  0
   -6.2393   21.7415  -32.2171 H   0  0  0  0  0  0  0  0  0  0  0  0
  1  2  1  0
  2  3  1  0
  3  4  1  0
  4  5  2  0
  5  6  1  0
  6  7  2  0
  7  8  1  0
  8  9  2  0
  9 10  1  0
 10 11  1  0
 11 12  1  0
 12 13  1  0
 13 14  1  0
 14 15  1  0
 15 16  1  0
 16 17  1  0
 17 18  1  0
 18 19  2  0
 19 20  1  0
 20 21  1  0
 20 22  2  0
 22 23  1  0
 23 24  1  0
 24 25  2  0
 25 26  1  0
 26 27  2  0
 27 28  1  0
 23 29  2  0
 11 30  1  0
 30 31  2  0
  9  4  1  0
 29 18  1  0
 30  8  1  0
 27 22  1  0
  1 32  1  0
  1 33  1  0
  1 34  1  0
  2 35  1  0
  2 36  1  0
  5 37  1  0
  6 38  1  0
  7 39  1  0
 10 40  1  0
 10 41  1  0
 12 42  1  0
 12 43  1  0
 13 44  1  0
 13 45  1  0
 14 46  1  0
 15 47  1  0
 15 48  1  0
 16 49  1  0
 16 50  1  0
 17 51  1  0
 19 52  1  0
 24 53  1  0
 25 54  1  0
 26 55  1  0
 28 56  1  0
 28 57  1  0
 28 58  1  0
 29 59  1  0
M  CHG  1  27   1
M  END
>  <UniqueID>  (19) 
19

>  <SMILES>  (19) 
CCOc1cccc2c1CN(CCNCCNc1cc(F)c3c(ccc[n+]3C)c1)C2=O

>  <Energy>  (19) 
84.82963363463094

>  <Genealogy>  (19) 
CCOc1cccc2c1CN(CCNCCNc1cc(F)c3c(ccc[n+]3C)c1)C2=O (3D coordinates assigned)
CCOc1cccc2c1CN(CCNCCNc1cc(F)c3c(ccc[n+]3C)c1)C2=O (nonaromatic ring conformer: 84.82963363463094 kcal/mol)

>  <smiles>  (19) 
CCOc1cccc2c1CN(CCNCCNc1cc(F)c3c(ccc[n+]3C)c1)C2=O

>  <score_type>  (19) 
oracle

>  <origin>  (19) 
adg

>  <m_score__min__energy>  (19) 
-9.1999999999999993

>  <m_primary>  (19) 
energy

$$$$
19:0
     RDKit          3D

 31 33  0  0  0  0  0  0  0  0999 V2000
   -4.5920   15.4300  -33.7520 C   0  0  0  0  0  0  0  0  0  0  0  0
   -5.5240   16.5420  -33.6380 N   0  0  0  0  0  0  0  0  0  0  0  0
   -5.6610   17.4930  -34.5470 N   0  0  0  0  0  0  0  0  0  0  0  0
   -6.5420   18.3660  -34.0930 N   0  0  0  0  0  0  0  0  0  0  0  0
   -6.9150   17.9240  -32.8780 C   0  0  0  0  0  0  0  0  0  0  0  0
   -7.9470   18.5750  -32.0140 C   0  0  0  0  0  0  0  0  0  0  0  0
   -8.6050   19.7410  -32.7520 C   0  0  0  0  0  0  0  0  0  0  0  0
   -7.9540   20.9980  -32.3950 N   0  0  0  0  0  0  0  0  0  0  0  0
   -6.5910   21.3490  -32.6540 C   0  0  0  0  0  0  0  0  0  0  0  0
   -5.8420   20.7350  -33.4580 O   0  0  0  0  0  0  0  0  0  0  0  0
   -6.2040   22.4900  -31.8320 C   0  0  0  0  0  0  0  0  0  0  0  0
   -4.9960   23.1800  -31.7430 C   0  0  0  0  0  0  0  0  0  0  0  0
   -4.9120   24.2480  -30.8310 C   0  0  0  0  0  0  0  0  0  0  0  0
   -6.0220   24.5960  -30.0320 C   0  0  0  0  0  0  0  0  0  0  0  0
   -7.2290   23.8800  -30.1370 C   0  0  0  0  0  0  0  0  0  0  0  0
   -7.2880   22.8310  -31.0510 C   0  0  0  0  0  0  0  0  0  0  0  0
   -8.3720   21.9090  -31.3740 C   0  0  0  0  0  0  0  0  0  0  0  0
   -9.5040   21.8850  -30.8240 O   0  0  0  0  0  0  0  0  0  0  0  0
   -6.2830   16.7730  -32.5770 N   0  0  0  0  0  0  0  0  0  0  0  0
   -4.3050   15.0876  -32.7468 H   0  0  0  0  0  0  0  0  0  0  0  0
   -5.0716   14.6040  -34.2977 H   0  0  0  0  0  0  0  0  0  0  0  0
   -3.6949   15.7579  -34.2977 H   0  0  0  0  0  0  0  0  0  0  0  0
   -6.8680   19.2200  -34.5980 H   0  0  0  0  0  0  0  0  0  0  0  0
   -8.7159   17.8347  -31.7482 H   0  0  0  0  0  0  0  0  0  0  0  0
   -7.4598   18.9586  -31.1054 H   0  0  0  0  0  0  0  0  0  0  0  0
   -8.5153   19.5810  -33.8366 H   0  0  0  0  0  0  0  0  0  0  0  0
   -9.6657   19.7932  -32.4655 H   0  0  0  0  0  0  0  0  0  0  0  0
   -4.1349   22.8981  -32.3667 H   0  0  0  0  0  0  0  0  0  0  0  0
   -3.9743   24.8159  -30.7401 H   0  0  0  0  0  0  0  0  0  0  0  0
   -5.9432   25.4327  -29.3222 H   0  0  0  0  0  0  0  0  0  0  0  0
   -8.0989   24.1409  -29.5163 H   0  0  0  0  0  0  0  0  0  0  0  0
  1  2  1  0
  2  3  1  0
  3  4  2  0
  4  5  1  0
  5  6  1  0
  6  7  1  0
  7  8  1  0
  8  9  1  0
  9 10  2  0
  9 11  1  0
 11 12  2  0
 12 13  1  0
 13 14  2  0
 14 15  1  0
 15 16  2  0
 16 17  1  0
 17 18  2  0
  5 19  2  0
 19  2  1  0
 17  8  1  0
 16 11  1  0
  1 20  1  0
  1 21  1  0
  1 22  1  0
  4 23  1  0
  6 24  1  0
  6 25  1  0
  7 26  1  0
  7 27  1  0
 12 28  1  0
 13 29  1  0
 14 30  1  0
 15 31  1  0
M  CHG  1   4   1
M  END
>  <UniqueID>  (20) 
20

>  <SMILES>  (20) 
Cn1n[nH+]c(CCN2C(=O)c3ccccc3C2=O)n1

>  <Energy>  (20) 
98.97397593136353

>  <Genealogy>  (20) 
Cn1n[nH+]c(CCN2C(=O)c3ccccc3C2=O)n1 (protonated)
Cn1n[nH+]c(CCN2C(=O)c3ccccc3C2=O)n1 (3D coordinates assigned)
Cn1n[nH+]c(CCN2C(=O)c3ccccc3C2=O)n1 (nonaromatic ring conformer: 98.97397593136353 kcal/mol)

>  <smiles>  (20) 
Cn1nnc(CCN2C(=O)c3ccccc3C2=O)n1

>  <score_type>  (20) 
oracle

>  <origin>  (20) 
adg

>  <m_score__min__energy>  (20) 
-7.6500000000000004

>  <m_primary>  (20) 
energy

$$$$
20:0
     RDKit          3D

 46 49  0  0  0  0  0  0  0  0999 V2000
   -1.3200   19.6850  -34.2200 C   0  0  0  0  0  0  0  0  0  0  0  0
   -2.0280   20.1730  -33.0430 N   0  0  0  0  0  0  0  0  0  0  0  0
   -2.2940   21.4960  -32.8400 C   0  0  0  0  0  0  0  0  0  0  0  0
   -2.9750   21.5540  -31.6220 C   0  0  0  0  0  0  0  0  0  0  0  0
   -3.4340   22.8190  -31.0600 C   0  0  0  0  0  0  0  0  0  0  0  0
   -2.6850   23.7980  -30.5210 N   0  0  0  0  0  0  0  0  0  0  0  0
   -3.4220   24.7980  -30.1120 N   0  0  0  0  0  0  0  0  0  0  0  0
   -4.6990   24.4860  -30.3780 C   0  0  0  0  0  0  0  0  0  0  0  0
   -5.9180   25.1280  -30.1840 C   0  0  0  0  0  0  0  0  0  0  0  0
   -7.1160   24.5480  -30.5720 C   0  0  0  0  0  0  0  0  0  0  0  0
   -7.1280   23.3050  -31.1680 C   0  0  0  0  0  0  0  0  0  0  0  0
   -8.3480   22.6340  -31.6020 C   0  0  0  0  0  0  0  0  0  0  0  0
   -9.3680   23.2910  -32.0020 O   0  0  0  0  0  0  0  0  0  0  0  0
   -8.4920   21.2190  -31.6130 N   0  0  0  0  0  0  0  0  0  0  0  0
   -9.7640   20.6730  -32.0710 C   0  0  0  0  0  0  0  0  0  0  0  0
   -9.4740   19.3320  -32.7280 C   0  0  0  0  0  0  0  0  0  0  0  0
   -8.4080   18.6000  -31.9670 C   0  0  0  0  0  0  0  0  0  0  0  0
   -7.1130   18.6360  -32.7270 C   0  0  0  0  0  0  0  0  0  0  0  0
   -6.6000   17.4680  -33.2880 C   0  0  0  0  0  0  0  0  0  0  0  0
   -5.4330   17.4750  -33.9800 N   0  0  0  0  0  0  0  0  0  0  0  0
   -4.7480   18.6440  -34.1310 C   0  0  0  0  0  0  0  0  0  0  0  0
   -5.2680   19.8050  -33.5690 C   0  0  0  0  0  0  0  0  0  0  0  0
   -6.4330   19.7860  -32.8800 N   0  0  0  0  0  0  0  0  0  0  0  0
   -5.9280   22.6540  -31.3680 C   0  0  0  0  0  0  0  0  0  0  0  0
   -4.7400   23.2440  -30.9760 C   0  0  0  0  0  0  0  0  0  0  0  0
   -3.1040   20.2760  -31.1190 C   0  0  0  0  0  0  0  0  0  0  0  0
   -2.5100   19.4710  -32.0230 N   0  0  0  0  0  0  0  0  0  0  0  0
   -0.4524   19.0870  -33.9043 H   0  0  0  0  0  0  0  0  0  0  0  0
   -1.9964   19.0604  -34.8220 H   0  0  0  0  0  0  0  0  0  0  0  0
   -0.9769   20.5394  -34.8220 H   0  0  0  0  0  0  0  0  0  0  0  0
   -2.0285   22.3379  -33.4963 H   0  0  0  0  0  0  0  0  0  0  0  0
   -3.1190   25.6860  -29.6580 H   0  0  0  0  0  0  0  0  0  0  0  0
   -5.9316   26.1209  -29.7108 H   0  0  0  0  0  0  0  0  0  0  0  0
   -8.0624   25.0827  -30.4033 H   0  0  0  0  0  0  0  0  0  0  0  0
   -7.7070   20.6080  -31.3020 H   0  0  0  0  0  0  0  0  0  0  0  0
  -10.4428   20.5340  -31.2166 H   0  0  0  0  0  0  0  0  0  0  0  0
  -10.2464   21.3581  -32.7837 H   0  0  0  0  0  0  0  0  0  0  0  0
  -10.3926   18.7269  -32.7391 H   0  0  0  0  0  0  0  0  0  0  0  0
   -9.1249   19.5051  -33.7567 H   0  0  0  0  0  0  0  0  0  0  0  0
   -8.2676   19.0784  -30.9865 H   0  0  0  0  0  0  0  0  0  0  0  0
   -8.7170   17.5529  -31.8323 H   0  0  0  0  0  0  0  0  0  0  0  0
   -7.1510   16.5236  -33.1676 H   0  0  0  0  0  0  0  0  0  0  0  0
   -3.7998   18.6685  -34.6881 H   0  0  0  0  0  0  0  0  0  0  0  0
   -4.7239   20.7538  -33.6863 H   0  0  0  0  0  0  0  0  0  0  0  0
   -5.9161   21.6612  -31.8414 H   0  0  0  0  0  0  0  0  0  0  0  0
   -3.5893   19.9766  -30.1783 H   0  0  0  0  0  0  0  0  0  0  0  0
  1  2  1  0
  2  3  1  0
  3  4  2  0
  4  5  1  0
  5  6  2  0
  6  7  1  0
  7  8  1  0
  8  9  2  0
  9 10  1  0
 10 11  2  0
 11 12  1  0
 12 13  2  0
 12 14  1  0
 14 15  1  0
 15 16  1  0
 16 17  1  0
 17 18  1  0
 18 19  2  0
 19 20  1  0
 20 21  2  0
 21 22  1  0
 22 23  2  0
 11 24  1  0
 24 25  2  0
  4 26  1  0
 26 27  2  0
 27  2  1  0
 25  5  1  0
 25  8  1  0
 23 18  1  0
  1 28  1  0
  1 29  1  0
  1 30  1  0
  3 31  1  0
  7 32  1  0
  9 33  1  0
 10 34  1  0
 14 35  1  0
 15 36  1  0
 15 37  1  0
 16 38  1  0
 16 39  1  0
 17 40  1  0
 17 41  1  0
 19 42  1  0
 21 43  1  0
 22 44  1  0
 24 45  1  0
 26 46  1  0
M  END
>  <smiles>  (21) 
Cn1cc(-c2n[nH]c3ccc(C(=O)NCCCc4cnccn4)cc23)cn1

>  <score_type>  (21) 
oracle

>  <origin>  (21) 
adg

>  <m_score__min__energy>  (21) 
-8.6999999999999993

>  <m_primary>  (21) 
energy

$$$$
21:0
     RDKit          3D

 37 39  0  0  0  0  0  0  0  0999 V2000
   -0.3240   20.8180  -34.8530 C   0  0  0  0  0  0  0  0  0  0  0  0
   -0.8460   21.0110  -33.5430 O   0  0  0  0  0  0  0  0  0  0  0  0
   -2.1970   20.8610  -33.1950 C   0  0  0  0  0  0  0  0  0  0  0  0
   -2.8080   19.6290  -33.4280 C   0  0  0  0  0  0  0  0  0  0  0  0
   -4.1500   19.4300  -33.1060 C   0  0  0  0  0  0  0  0  0  0  0  0
   -4.9300   20.4800  -32.5750 C   0  0  0  0  0  0  0  0  0  0  0  0
   -4.3030   21.7070  -32.2860 C   0  0  0  0  0  0  0  0  0  0  0  0
   -2.9470   21.8980  -32.6140 C   0  0  0  0  0  0  0  0  0  0  0  0
   -5.0660   22.7800  -31.6170 C   0  0  0  0  0  0  0  0  0  0  0  0
   -4.4620   23.8150  -31.2220 O   0  0  0  0  0  0  0  0  0  0  0  0
   -6.4890   22.6510  -31.4140 N   0  0  0  0  0  0  0  0  0  0  0  0
   -7.2360   23.8490  -30.9910 C   0  0  0  0  0  0  0  0  0  0  0  0
   -7.2030   21.5560  -32.1090 C   0  0  2  0  0  0  0  0  0  0  0  0
   -8.5780   21.2500  -31.4560 C   0  0  0  0  0  0  0  0  0  0  0  0
   -9.1110   19.8480  -31.8110 C   0  0  0  0  0  0  0  0  0  0  0  0
   -8.5740   19.3810  -33.0940 N   0  0  0  0  0  0  0  0  0  0  0  0
   -7.1070   19.2070  -33.0580 C   0  0  0  0  0  0  0  0  0  0  0  0
   -6.3740   20.2470  -32.1530 C   0  0  1  0  0  0  0  0  0  0  0  0
    0.7058   20.4373  -34.7850 H   0  0  0  0  0  0  0  0  0  0  0  0
   -0.9486   20.0914  -35.3932 H   0  0  0  0  0  0  0  0  0  0  0  0
   -0.3257   21.7762  -35.3932 H   0  0  0  0  0  0  0  0  0  0  0  0
   -2.2259   18.8069  -33.8698 H   0  0  0  0  0  0  0  0  0  0  0  0
   -4.6066   18.4424  -33.2678 H   0  0  0  0  0  0  0  0  0  0  0  0
   -2.4699   22.8686  -32.4135 H   0  0  0  0  0  0  0  0  0  0  0  0
   -7.2644   23.8945  -29.8923 H   0  0  0  0  0  0  0  0  0  0  0  0
   -6.7385   24.7486  -31.3825 H   0  0  0  0  0  0  0  0  0  0  0  0
   -8.2627   23.7981  -31.3825 H   0  0  0  0  0  0  0  0  0  0  0  0
   -7.3598   21.9161  -33.1365 H   0  0  0  0  0  0  0  0  0  0  0  0
   -8.4709   21.3186  -30.3634 H   0  0  0  0  0  0  0  0  0  0  0  0
   -9.2987   21.9853  -31.8433 H   0  0  0  0  0  0  0  0  0  0  0  0
   -8.8155   19.1420  -31.0209 H   0  0  0  0  0  0  0  0  0  0  0  0
  -10.2064   19.9045  -31.8938 H   0  0  0  0  0  0  0  0  0  0  0  0
   -8.8340   20.0600  -33.8470 H   0  0  0  0  0  0  0  0  0  0  0  0
   -9.0190   18.4620  -33.3290 H   0  0  0  0  0  0  0  0  0  0  0  0
   -6.8860   18.1988  -32.6776 H   0  0  0  0  0  0  0  0  0  0  0  0
   -6.7399   19.3581  -34.0839 H   0  0  0  0  0  0  0  0  0  0  0  0
   -6.3054   19.8392  -31.1337 H   0  0  0  0  0  0  0  0  0  0  0  0
  1  2  1  0
  2  3  1  0
  3  4  2  0
  4  5  1  0
  5  6  2  0
  6  7  1  0
  7  8  2  0
  7  9  1  0
  9 10  2  0
  9 11  1  0
 11 12  1  0
 11 13  1  0
 13 14  1  0
 14 15  1  0
 15 16  1  0
 16 17  1  0
 17 18  1  0
  8  3  1  0
 18 13  1  0
 18  6  1  0
  1 19  1  0
  1 20  1  0
  1 21  1  0
  4 22  1  0
  5 23  1  0
  8 24  1  0
 12 25  1  0
 12 26  1  0
 12 27  1  0
 13 28  1  6
 14 29  1  0
 14 30  1  0
 15 31  1  0
 15 32  1  0
 16 33  1  0
 16 34  1  0
 17 35  1  0
 17 36  1  0
 18 37  1  1
M  CHG  1  16   1
M  END
>  <UniqueID>  (22) 
21

>  <SMILES>  (22) 
COc1ccc2c(c1)C(=O)N(C)[C@@H]1CC[NH2+]C[C@@H]21

>  <Energy>  (22) 
51.597774924587554

>  <Genealogy>  (22) 
COc1ccc2c(c1)C(=O)N(C)C1CC[NH2+]CC21 (protonated)
COc1ccc2c(c1)C(=O)N(C)[C@@H]1CC[NH2+]C[C@@H]21 (chirality)
COc1ccc2c(c1)C(=O)N(C)[C@@H]1CC[NH2+]C[C@@H]21 (3D coordinates assigned)
COc1ccc2c(c1)C(=O)N(C)[C@@H]1CC[NH2+]C[C@@H]21 (nonaromatic ring conformer: 51.597774924587554 kcal/mol)

>  <smiles>  (22) 
COc1ccc2c(c1)C(=O)N(C)C1CCNCC21

>  <score_type>  (22) 
oracle

>  <origin>  (22) 
adg

>  <m_score__min__energy>  (22) 
-6.8600000000000003

>  <m_primary>  (22) 
energy

$$$$
22:0
     RDKit          3D

 51 52  0  0  0  0  0  0  0  0999 V2000
   -4.6950   15.1520  -32.4500 C   0  0  0  0  0  0  0  0  0  0  0  0
   -5.6260   15.6210  -33.5670 C   0  0  0  0  0  0  0  0  0  0  0  0
   -5.3680   17.0660  -34.0710 C   0  0  0  0  0  0  0  0  0  0  0  0
   -5.9460   18.2010  -33.2730 N   0  0  2  0  0  0  0  0  0  0  0  0
   -4.9880   18.7600  -32.2790 C   0  0  0  0  0  0  0  0  0  0  0  0
   -5.6110   19.9700  -31.5350 C   0  0  0  0  0  0  0  0  0  0  0  0
   -6.9980   20.2200  -32.0120 N   0  0  2  0  0  0  0  0  0  0  0  0
   -7.6220   21.4110  -31.3520 C   0  0  0  0  0  0  0  0  0  0  0  0
   -7.1450   22.7920  -31.8520 C   0  0  0  0  0  0  0  0  0  0  0  0
   -5.8030   23.0030  -31.4660 O   0  0  0  0  0  0  0  0  0  0  0  0
   -5.7630   23.7970  -30.2990 C   0  0  0  0  0  0  0  0  0  0  0  0
   -5.2700   25.1970  -30.6580 C   0  0  0  0  0  0  0  0  0  0  0  0
   -3.8690   25.2930  -30.4860 O   0  0  0  0  0  0  0  0  0  0  0  0
   -3.3410   24.1300  -29.8740 C   0  0  0  0  0  0  0  0  0  0  0  0
   -2.3150   24.5080  -28.8120 C   0  0  0  0  0  0  0  0  0  0  0  0
   -7.8130   18.9910  -31.8030 C   0  0  0  0  0  0  0  0  0  0  0  0
   -7.1970   17.7930  -32.5720 C   0  0  0  0  0  0  0  0  0  0  0  0
   -6.9420   20.4860  -33.4760 C   0  0  0  0  0  0  0  0  0  0  0  0
   -6.3070   19.2920  -34.2230 C   0  0  0  0  0  0  0  0  0  0  0  0
   -5.1487   15.3806  -31.4743 H   0  0  0  0  0  0  0  0  0  0  0  0
   -4.5371   14.0668  -32.5357 H   0  0  0  0  0  0  0  0  0  0  0  0
   -3.7289   15.6710  -32.5357 H   0  0  0  0  0  0  0  0  0  0  0  0
   -5.5085   14.9359  -34.4196 H   0  0  0  0  0  0  0  0  0  0  0  0
   -6.6409   15.6195  -33.1429 H   0  0  0  0  0  0  0  0  0  0  0  0
   -4.2782   17.2114  -34.1061 H   0  0  0  0  0  0  0  0  0  0  0  0
   -5.8856   17.1175  -35.0402 H   0  0  0  0  0  0  0  0  0  0  0  0
   -4.7311   17.9799  -31.5473 H   0  0  0  0  0  0  0  0  0  0  0  0
   -4.0860   19.0984  -32.8099 H   0  0  0  0  0  0  0  0  0  0  0  0
   -5.6324   19.7588  -30.4557 H   0  0  0  0  0  0  0  0  0  0  0  0
   -5.0004   20.8627  -31.7359 H   0  0  0  0  0  0  0  0  0  0  0  0
   -8.7088   21.3527  -31.5116 H   0  0  0  0  0  0  0  0  0  0  0  0
   -7.3173   21.3574  -30.2964 H   0  0  0  0  0  0  0  0  0  0  0  0
   -7.2197   22.8290  -32.9488 H   0  0  0  0  0  0  0  0  0  0  0  0
   -7.7775   23.5764  -31.4108 H   0  0  0  0  0  0  0  0  0  0  0  0
   -6.7714   23.8627  -29.8645 H   0  0  0  0  0  0  0  0  0  0  0  0
   -5.0796   23.3420  -29.5669 H   0  0  0  0  0  0  0  0  0  0  0  0
   -5.5204   25.4099  -31.7078 H   0  0  0  0  0  0  0  0  0  0  0  0
   -5.7586   25.9252  -29.9940 H   0  0  0  0  0  0  0  0  0  0  0  0
   -4.1589   23.5650  -29.4030 H   0  0  0  0  0  0  0  0  0  0  0  0
   -2.8497   23.5143  -30.6418 H   0  0  0  0  0  0  0  0  0  0  0  0
   -2.7462   24.3491  -27.8126 H   0  0  0  0  0  0  0  0  0  0  0  0
   -1.4187   23.8811  -28.9285 H   0  0  0  0  0  0  0  0  0  0  0  0
   -2.0397   25.5666  -28.9285 H   0  0  0  0  0  0  0  0  0  0  0  0
   -7.8429   18.7549  -30.7291 H   0  0  0  0  0  0  0  0  0  0  0  0
   -8.8305   19.1706  -32.1805 H   0  0  0  0  0  0  0  0  0  0  0  0
   -6.9649   16.9879  -31.8593 H   0  0  0  0  0  0  0  0  0  0  0  0
   -7.9231   17.4438  -33.3209 H   0  0  0  0  0  0  0  0  0  0  0  0
   -7.9627   20.6467  -33.8533 H   0  0  0  0  0  0  0  0  0  0  0  0
   -6.3261   21.3806  -33.6500 H   0  0  0  0  0  0  0  0  0  0  0  0
   -7.0260   18.9046  -34.9598 H   0  0  0  0  0  0  0  0  0  0  0  0
   -5.3914   19.6382  -34.7248 H   0  0  0  0  0  0  0  0  0  0  0  0
  1  2  1  0
  2  3  1  0
  4  3  1  6
  4  5  1  0
  5  6  1  0
  6  7  1  0
  7  8  1  1
  8  9  1  0
  9 10  1  0
 10 11  1  0
 11 12  1  0
 12 13  1  0
 13 14  1  0
 14 15  1  0
  7 16  1  0
 16 17  1  0
  7 18  1  0
 18 19  1  0
 17  4  1  0
 19  4  1  0
  1 20  1  0
  1 21  1  0
  1 22  1  0
  2 23  1  0
  2 24  1  0
  3 25  1  0
  3 26  1  0
  5 27  1  0
  5 28  1  0
  6 29  1  0
  6 30  1  0
  8 31  1  0
  8 32  1  0
  9 33  1  0
  9 34  1  0
 11 35  1  0
 11 36  1  0
 12 37  1  0
 12 38  1  0
 14 39  1  0
 14 40  1  0
 15 41  1  0
 15 42  1  0
 15 43  1  0
 16 44  1  0
 16 45  1  0
 17 46  1  0
 17 47  1  0
 18 48  1  0
 18 49  1  0
 19 50  1  0
 19 51  1  0
M  CHG  2   4   1   7   1
M  END
>  <UniqueID>  (23) 
22

>  <SMILES>  (23) 
CCC[N+]12CC[N+](CCOCCOCC)(CC1)CC2

>  <Energy>  (23) 
79.33897209546143

>  <Genealogy>  (23) 
CCC[N+]12CC[N+](CCOCCOCC)(CC1)CC2 (3D coordinates assigned)
CCC[N+]12CC[N+](CCOCCOCC)(CC1)CC2 (nonaromatic ring conformer: 79.33897209546143 kcal/mol)

>  <smiles>  (23) 
CCC[N+]12CC[N+](CCOCCOCC)(CC1)CC2

>  <score_type>  (23) 
oracle

>  <origin>  (23) 
adg

>  <m_score__min__energy>  (23) 
-4.75

>  <m_primary>  (23) 
energy

$$$$
23:0
     RDKit          3D

 67 70  0  0  0  0  0  0  0  0999 V2000
   -1.0240   20.8270  -32.5960 C   0  0  0  0  0  0  0  0  0  0  0  0
   -2.0620   19.9890  -32.6150 C   0  0  0  0  0  0  0  0  0  0  0  0
   -2.9100   19.8350  -33.8450 C   0  0  0  0  0  0  0  0  0  0  0  0
   -4.1960   19.2050  -33.5150 N   0  0  0  0  0  0  0  0  0  0  0  0
   -4.5080   17.8820  -33.6320 C   0  0  0  0  0  0  0  0  0  0  0  0
   -3.6710   16.7880  -33.9720 C   0  0  0  0  0  0  0  0  0  0  0  0
   -1.9160   16.8610  -34.0920 Cl  0  0  0  0  0  0  0  0  0  0  0  0
   -4.2640   15.5260  -34.1340 C   0  0  0  0  0  0  0  0  0  0  0  0
   -5.6440   15.3500  -33.9630 C   0  0  0  0  0  0  0  0  0  0  0  0
   -6.4540   16.4240  -33.5770 C   0  0  0  0  0  0  0  0  0  0  0  0
   -5.8540   17.6720  -33.3640 C   0  0  0  0  0  0  0  0  0  0  0  0
   -6.3750   18.9020  -32.9760 C   0  0  0  0  0  0  0  0  0  0  0  0
   -5.3460   19.8200  -33.0980 C   0  0  0  0  0  0  0  0  0  0  0  0
   -5.5740   21.1790  -32.7930 C   0  0  0  0  0  0  0  0  0  0  0  0
   -4.5320   22.1600  -32.8760 N   0  0  0  0  0  0  0  0  0  0  0  0
   -3.8060   22.6020  -31.6790 C   0  0  0  0  0  0  0  0  0  0  0  0
   -4.3970   21.9920  -30.3910 C   0  0  0  0  0  0  0  0  0  0  0  0
   -4.8640   23.0220  -29.4120 N   0  0  2  0  0  0  0  0  0  0  0  0
   -4.7520   24.3910  -29.9890 C   0  0  0  0  0  0  0  0  0  0  0  0
   -6.0300   25.2190  -29.8050 C   0  0  0  0  0  0  0  0  0  0  0  0
   -4.0830   22.9730  -28.1480 C   0  0  0  0  0  0  0  0  0  0  0  0
   -3.2460   24.2450  -27.9090 C   0  0  0  0  0  0  0  0  0  0  0  0
   -3.6390   24.9280  -26.5950 C   0  0  0  0  0  0  0  0  0  0  0  0
   -2.4480   25.6560  -25.9750 C   0  0  0  0  0  0  0  0  0  0  0  0
   -6.8750   21.5550  -32.3780 C   0  0  0  0  0  0  0  0  0  0  0  0
   -7.1630   22.8890  -32.0120 C   0  0  0  0  0  0  0  0  0  0  0  0
   -8.4590   23.2730  -31.6790 C   0  0  0  0  0  0  0  0  0  0  0  0
   -9.4910   22.3420  -31.7010 C   0  0  0  0  0  0  0  0  0  0  0  0
   -9.2260   21.0070  -32.0040 C   0  0  0  0  0  0  0  0  0  0  0  0
   -7.9110   20.5710  -32.2950 C   0  0  0  0  0  0  0  0  0  0  0  0
   -7.6160   19.2330  -32.4880 N   0  0  0  0  0  0  0  0  0  0  0  0
   -8.5550   18.1800  -32.0620 C   0  0  0  0  0  0  0  0  0  0  0  0
   -0.4142   20.9266  -31.6860 H   0  0  0  0  0  0  0  0  0  0  0  0
   -0.7780   21.4183  -33.4904 H   0  0  0  0  0  0  0  0  0  0  0  0
   -2.3004   19.4018  -31.7159 H   0  0  0  0  0  0  0  0  0  0  0  0
   -3.0958   20.8273  -34.2818 H   0  0  0  0  0  0  0  0  0  0  0  0
   -2.3771   19.1948  -34.5635 H   0  0  0  0  0  0  0  0  0  0  0  0
   -3.6364   14.6624  -34.3991 H   0  0  0  0  0  0  0  0  0  0  0  0
   -6.0936   14.3606  -34.1334 H   0  0  0  0  0  0  0  0  0  0  0  0
   -7.5378   16.2912  -33.4438 H   0  0  0  0  0  0  0  0  0  0  0  0
   -4.3360   22.5810  -33.8090 H   0  0  0  0  0  0  0  0  0  0  0  0
   -2.7534   22.2950  -31.7676 H   0  0  0  0  0  0  0  0  0  0  0  0
   -3.8949   23.6963  -31.6105 H   0  0  0  0  0  0  0  0  0  0  0  0
   -5.2524   21.3571  -30.6653 H   0  0  0  0  0  0  0  0  0  0  0  0
   -3.5956   21.4173  -29.9037 H   0  0  0  0  0  0  0  0  0  0  0  0
   -5.8680   22.8670  -29.1610 H   0  0  0  0  0  0  0  0  0  0  0  0
   -3.9200   24.9139  -29.4947 H   0  0  0  0  0  0  0  0  0  0  0  0
   -4.5802   24.2822  -31.0700 H   0  0  0  0  0  0  0  0  0  0  0  0
   -6.2311   25.3493  -28.7314 H   0  0  0  0  0  0  0  0  0  0  0  0
   -5.8994   26.2045  -30.2758 H   0  0  0  0  0  0  0  0  0  0  0  0
   -6.8761   24.6970  -30.2758 H   0  0  0  0  0  0  0  0  0  0  0  0
   -4.7825   22.8504  -27.3080 H   0  0  0  0  0  0  0  0  0  0  0  0
   -3.3833   22.1278  -28.2255 H   0  0  0  0  0  0  0  0  0  0  0  0
   -2.1814   23.9713  -27.8667 H   0  0  0  0  0  0  0  0  0  0  0  0
   -3.4337   24.9460  -28.7357 H   0  0  0  0  0  0  0  0  0  0  0  0
   -4.4403   25.6549  -26.7938 H   0  0  0  0  0  0  0  0  0  0  0  0
   -3.9822   24.1567  -25.8898 H   0  0  0  0  0  0  0  0  0  0  0  0
   -2.5213   25.6112  -24.8784 H   0  0  0  0  0  0  0  0  0  0  0  0
   -1.5141   25.1742  -26.3001 H   0  0  0  0  0  0  0  0  0  0  0  0
   -2.4509   26.7069  -26.3001 H   0  0  0  0  0  0  0  0  0  0  0  0
   -6.3533   23.6332  -31.9899 H   0  0  0  0  0  0  0  0  0  0  0  0
   -8.6670   24.3159  -31.3977 H   0  0  0  0  0  0  0  0  0  0  0  0
  -10.5204   22.6596  -31.4786 H   0  0  0  0  0  0  0  0  0  0  0  0
  -10.0522   20.2808  -32.0171 H   0  0  0  0  0  0  0  0  0  0  0  0
   -8.5891   18.1418  -30.9632 H   0  0  0  0  0  0  0  0  0  0  0  0
   -9.5587   18.4039  -32.4524 H   0  0  0  0  0  0  0  0  0  0  0  0
   -8.2180   17.2084  -32.4524 H   0  0  0  0  0  0  0  0  0  0  0  0
  1  2  2  0
  2  3  1  0
  3  4  1  0
  4  5  1  0
  5  6  2  0
  6  7  1  0
  6  8  1  0
  8  9  2  0
  9 10  1  0
 10 11  2  0
 11 12  1  0
 12 13  2  0
 13 14  1  0
 14 15  1  0
 15 16  1  0
 16 17  1  0
 17 18  1  0
 18 19  1  0
 19 20  1  0
 18 21  1  0
 21 22  1  0
 22 23  1  0
 23 24  1  0
 14 25  2  0
 25 26  1  0
 26 27  2  0
 27 28  1  0
 28 29  2  0
 29 30  1  0
 30 31  2  0
 31 32  1  0
 13  4  1  0
 30 25  1  0
 11  5  1  0
 31 12  1  0
  1 33  1  0
  1 34  1  0
  2 35  1  0
  3 36  1  0
  3 37  1  0
  8 38  1  0
  9 39  1  0
 10 40  1  0
 15 41  1  0
 16 42  1  0
 16 43  1  0
 17 44  1  0
 17 45  1  0
 18 46  1  1
 19 47  1  0
 19 48  1  0
 20 49  1  0
 20 50  1  0
 20 51  1  0
 21 52  1  0
 21 53  1  0
 22 54  1  0
 22 55  1  0
 23 56  1  0
 23 57  1  0
 24 58  1  0
 24 59  1  0
 24 60  1  0
 26 61  1  0
 27 62  1  0
 28 63  1  0
 29 64  1  0
 32 65  1  0
 32 66  1  0
 32 67  1  0
M  CHG  2  18   1  31   1
M  END
>  <UniqueID>  (24) 
23

>  <SMILES>  (24) 
C=CCn1c2c(Cl)cccc2c2c1c(NCC[N@H+](CC)CCCC)c1ccccc1[n+]2C

>  <Energy>  (24) 
134.74435006559696

>  <Genealogy>  (24) 
C=CCn1c2c(Cl)cccc2c2c1c(NCC[NH+](CC)CCCC)c1ccccc1[n+]2C (protonated)
C=CCn1c2c(Cl)cccc2c2c1c(NCC[N@H+](CC)CCCC)c1ccccc1[n+]2C (chirality)
C=CCn1c2c(Cl)cccc2c2c1c(NCC[N@H+](CC)CCCC)c1ccccc1[n+]2C (3D coordinates assigned)
C=CCn1c2c(Cl)cccc2c2c1c(NCC[N@H+](CC)CCCC)c1ccccc1[n+]2C (optimized conformer: 134.74435006559696 kcal/mol)

>  <smiles>  (24) 
C=CCn1c2c(Cl)cccc2c2c1c(NCCN(CC)CCCC)c1ccccc1[n+]2C

>  <score_type>  (24) 
oracle

>  <origin>  (24) 
adg

>  <m_score__min__energy>  (24) 
-8.3800000000000008

>  <m_primary>  (24) 
energy

$$$$
