0:0
     RDKit          3D

 28 29  0  0  0  0  0  0  0  0999 V2000
   -2.8610   23.3020  -29.6020 O   0  0  0  0  0  0  0  0  0  0  0  0
   -2.8480   24.5550  -29.7250 C   0  0  0  0  0  0  0  0  0  0  0  0
   -3.8340   25.2120  -30.5310 N   0  0  0  0  0  0  0  0  0  0  0  0
   -5.2660   25.1540  -30.2630 C   0  0  0  0  0  0  0  0  0  0  0  0
   -5.8820   23.9900  -30.9870 C   0  0  0  0  0  0  0  0  0  0  0  0
   -7.2690   23.7830  -30.9370 C   0  0  0  0  0  0  0  0  0  0  0  0
   -7.8250   22.6830  -31.5930 C   0  0  0  0  0  0  0  0  0  0  0  0
   -7.0250   21.8160  -32.2700 N   0  0  0  0  0  0  0  0  0  0  0  0
   -5.6770   21.9890  -32.3300 C   0  0  0  0  0  0  0  0  0  0  0  0
   -5.0800   23.0760  -31.6880 C   0  0  0  0  0  0  0  0  0  0  0  0
   -1.8050   25.3070  -29.0990 N   0  0  0  0  0  0  0  0  0  0  0  0
   -1.4350   25.2150  -27.7170 C   0  0  0  0  0  0  0  0  0  0  0  0
   -2.3510   25.6380  -26.7450 C   0  0  0  0  0  0  0  0  0  0  0  0
   -2.0220   25.5750  -25.3870 C   0  0  0  0  0  0  0  0  0  0  0  0
   -0.7660   25.1070  -24.9930 C   0  0  0  0  0  0  0  0  0  0  0  0
   -0.4460   25.0490  -23.6770 F   0  0  0  0  0  0  0  0  0  0  0  0
    0.1670   24.7130  -25.9570 C   0  0  0  0  0  0  0  0  0  0  0  0
   -0.1570   24.7730  -27.3170 C   0  0  0  0  0  0  0  0  0  0  0  0
    0.7920   24.4590  -28.2330 F   0  0  0  0  0  0  0  0  0  0  0  0
   -5.4289   25.0368  -29.1815 H   0  0  0  0  0  0  0  0  0  0  0  0
   -5.7352   26.0848  -30.6144 H   0  0  0  0  0  0  0  0  0  0  0  0
   -7.9138   24.4825  -30.3848 H   0  0  0  0  0  0  0  0  0  0  0  0
   -8.9120   22.5173  -31.5623 H   0  0  0  0  0  0  0  0  0  0  0  0
   -5.0558   21.2710  -32.8855 H   0  0  0  0  0  0  0  0  0  0  0  0
   -3.9897   23.2148  -31.7313 H   0  0  0  0  0  0  0  0  0  0  0  0
   -3.3351   26.0221  -27.0517 H   0  0  0  0  0  0  0  0  0  0  0  0
   -2.7525   25.8941  -24.6290 H   0  0  0  0  0  0  0  0  0  0  0  0
    1.1592   24.3546  -25.6452 H   0  0  0  0  0  0  0  0  0  0  0  0
  1  2  2  0
  2  3  1  0
  3  4  1  0
  4  5  1  0
  5  6  2  0
  6  7  1  0
  7  8  2  0
  8  9  1  0
  9 10  2  0
  2 11  1  0
 11 12  1  0
 12 13  2  0
 13 14  1  0
 14 15  2  0
 15 16  1  0
 15 17  1  0
 17 18  2  0
 18 19  1  0
 10  5  1  0
 18 12  1  0
  4 20  1  0
  4 21  1  0
  6 22  1  0
  7 23  1  0
  9 24  1  0
 10 25  1  0
 13 26  1  0
 14 27  1  0
 17 28  1  0
M  CHG  2   3  -1  11  -1
M  END
>  <UniqueID>  (1) 
1

>  <SMILES>  (1) 
O=C([N-]Cc1ccncc1)[N-]c1ccc(F)cc1F

>  <Energy>  (1) 
31.653858028695456

>  <Genealogy>  (1) 
O=C([N-]Cc1ccncc1)[N-]c1ccc(F)cc1F (protonated)
O=C([N-]Cc1ccncc1)[N-]c1ccc(F)cc1F (3D coordinates assigned)
O=C([N-]Cc1ccncc1)[N-]c1ccc(F)cc1F (optimized conformer: 31.653858028695456 kcal/mol)

>  <smiles>  (1) 
O=C(NCc1ccncc1)Nc1ccc(F)cc1F

>  <score_type>  (1) 
oracle

>  <origin>  (1) 
adg

>  <m_score__min__energy>  (1) 
-9.1999999999999993

>  <m_primary>  (1) 
energy

$$$$
1:0
     RDKit          3D

 63 68  0  0  0  0  0  0  0  0999 V2000
    0.0232   20.7780  -33.6151 H   0  0  0  0  0  0  0  0  0  0  0  0
   -1.0310   20.7350  -33.3040 C   0  0  0  0  0  0  0  0  0  0  0  0
   -1.5600   21.7380  -32.5560 N   0  0  0  0  0  0  0  0  0  0  0  0
   -2.8630   21.7130  -32.1570 C   0  0  0  0  0  0  0  0  0  0  0  0
   -3.3690   22.6810  -31.4510 N   0  0  0  0  0  0  0  0  0  0  0  0
   -2.8990   23.1150  -30.1650 C   0  0  0  0  0  0  0  0  0  0  0  0
   -2.0790   22.2530  -29.4290 C   0  0  0  0  0  0  0  0  0  0  0  0
   -1.8212   21.2651  -29.8383 H   0  0  0  0  0  0  0  0  0  0  0  0
   -1.5850   22.6340  -28.1810 C   0  0  0  0  0  0  0  0  0  0  0  0
   -0.9540   21.9400  -27.6064 H   0  0  0  0  0  0  0  0  0  0  0  0
   -1.8900   23.8990  -27.6560 C   0  0  0  0  0  0  0  0  0  0  0  0
   -1.4060   24.2840  -26.3560 N   0  0  0  0  0  0  0  0  0  0  0  0
   -0.6360   23.3180  -25.5520 C   0  0  0  0  0  0  0  0  0  0  0  0
   -1.3408   22.6626  -25.0194 H   0  0  0  0  0  0  0  0  0  0  0  0
    0.0066   22.7501  -26.2409 H   0  0  0  0  0  0  0  0  0  0  0  0
    0.2840   24.0040  -24.5130 C   0  0  0  0  0  0  0  0  0  0  0  0
   -0.0566   23.7225  -23.5056 H   0  0  0  0  0  0  0  0  0  0  0  0
    1.3110   23.6649  -24.7137 H   0  0  0  0  0  0  0  0  0  0  0  0
    0.2830   25.4160  -24.6090 O   0  0  0  0  0  0  0  0  0  0  0  0
   -1.0420   25.8880  -24.5160 C   0  0  0  0  0  0  0  0  0  0  0  0
   -1.5577   25.3751  -23.6908 H   0  0  0  0  0  0  0  0  0  0  0  0
   -1.0348   26.9711  -24.3242 H   0  0  0  0  0  0  0  0  0  0  0  0
   -1.7700   25.6060  -25.8250 C   0  0  0  0  0  0  0  0  0  0  0  0
   -2.8551   25.6358  -25.6468 H   0  0  0  0  0  0  0  0  0  0  0  0
   -1.4790   26.3711  -26.5598 H   0  0  0  0  0  0  0  0  0  0  0  0
   -2.6830   24.7820  -28.4060 C   0  0  0  0  0  0  0  0  0  0  0  0
   -2.9229   25.7761  -28.0007 H   0  0  0  0  0  0  0  0  0  0  0  0
   -3.1750   24.4080  -29.6730 C   0  0  0  0  0  0  0  0  0  0  0  0
   -3.9150   25.2980  -30.4700 O   0  0  0  0  0  0  0  0  0  0  0  0
   -5.3370   25.3180  -30.5580 C   0  0  0  0  0  0  0  0  0  0  0  0
   -5.7670   25.3240  -29.5455 H   0  0  0  0  0  0  0  0  0  0  0  0
   -5.6583   26.2208  -31.0982 H   0  0  0  0  0  0  0  0  0  0  0  0
   -5.6835   24.4246  -31.0982 H   0  0  0  0  0  0  0  0  0  0  0  0
   -3.6610   20.6800  -32.5320 N   0  0  0  0  0  0  0  0  0  0  0  0
   -3.1780   19.6620  -33.2890 C   0  0  0  0  0  0  0  0  0  0  0  0
   -1.8260   19.6490  -33.6780 C   0  0  0  0  0  0  0  0  0  0  0  0
   -1.2890   18.5560  -34.5930 C   0  0  0  0  0  0  0  0  0  0  0  0
   -1.4222   18.8776  -35.6364 H   0  0  0  0  0  0  0  0  0  0  0  0
   -0.2296   18.4082  -34.3365 H   0  0  0  0  0  0  0  0  0  0  0  0
   -2.0010   17.1930  -34.4040 C   0  0  0  0  0  0  0  0  0  0  0  0
   -1.8282   16.5694  -35.2935 H   0  0  0  0  0  0  0  0  0  0  0  0
   -1.5926   16.7029  -33.5079 H   0  0  0  0  0  0  0  0  0  0  0  0
   -3.4770   17.3850  -34.2170 C   0  0  0  0  0  0  0  0  0  0  0  0
   -4.0150   18.5210  -33.6710 C   0  0  0  0  0  0  0  0  0  0  0  0
   -5.3590   18.2380  -33.4800 C   0  0  0  0  0  0  0  0  0  0  0  0
   -6.3800   19.1420  -32.9130 C   0  0  0  0  0  0  0  0  0  0  0  0
   -6.3750   20.5100  -33.2320 C   0  0  0  0  0  0  0  0  0  0  0  0
   -5.6063   20.9127  -33.9079 H   0  0  0  0  0  0  0  0  0  0  0  0
   -7.3440   21.3610  -32.6930 C   0  0  0  0  0  0  0  0  0  0  0  0
   -7.3353   22.4320  -32.9436 H   0  0  0  0  0  0  0  0  0  0  0  0
   -8.3250   20.8520  -31.8350 C   0  0  0  0  0  0  0  0  0  0  0  0
   -9.0861   21.5235  -31.4110 H   0  0  0  0  0  0  0  0  0  0  0  0
   -8.3390   19.4910  -31.5160 C   0  0  0  0  0  0  0  0  0  0  0  0
   -9.1136   19.0914  -30.8450 H   0  0  0  0  0  0  0  0  0  0  0  0
   -7.3680   18.6370  -32.0500 C   0  0  0  0  0  0  0  0  0  0  0  0
   -7.3777   17.5673  -31.7938 H   0  0  0  0  0  0  0  0  0  0  0  0
   -5.5790   16.9690  -33.9090 N   0  0  0  0  0  0  0  0  0  0  0  0
   -6.8420   16.2340  -33.8820 C   0  0  0  0  0  0  0  0  0  0  0  0
   -7.1423   16.0592  -32.8383 H   0  0  0  0  0  0  0  0  0  0  0  0
   -7.6189   16.8211  -34.3937 H   0  0  0  0  0  0  0  0  0  0  0  0
   -6.7154   15.2685  -34.3937 H   0  0  0  0  0  0  0  0  0  0  0  0
   -4.4340   16.4480  -34.3350 N   0  0  0  0  0  0  0  0  0  0  0  0
   -4.3060   15.4660  -34.6700 H   0  0  0  0  0  0  0  0  0  0  0  0
  1  2  1  0
  2  3  1  0
  3  4  1  0
  4  5  2  0
  5  6  1  0
  6  7  2  0
  7  8  1  0
  7  9  1  0
  9 10  1  0
  9 11  2  0
 11 12  1  0
 12 13  1  0
 13 14  1  0
 13 15  1  0
 13 16  1  0
 16 17  1  0
 16 18  1  0
 16 19  1  0
 19 20  1  0
 20 21  1  0
 20 22  1  0
 20 23  1  0
 23 24  1  0
 23 25  1  0
 11 26  1  0
 26 27  1  0
 26 28  2  0
 28 29  1  0
 29 30  1  0
 30 31  1  0
 30 32  1  0
 30 33  1  0
  4 34  1  0
 34 35  2  0
 35 36  1  0
 36 37  1  0
 37 38  1  0
 37 39  1  0
 37 40  1  0
 40 41  1  0
 40 42  1  0
 40 43  1  0
 43 44  1  0
 44 45  2  0
 45 46  1  0
 46 47  2  0
 47 48  1  0
 47 49  1  0
 49 50  1  0
 49 51  2  0
 51 52  1  0
 51 53  1  0
 53 54  1  0
 53 55  2  0
 55 56  1  0
 45 57  1  0
 57 58  1  0
 58 59  1  0
 58 60  1  0
 58 61  1  0
 57 62  1  0
 62 63  1  0
 36  2  2  0
 62 43  2  0
 28  6  1  0
 44 35  1  0
 55 46  1  0
 23 12  1  0
M  CHG  2   3  -1  62   1
M  END
>  <UniqueID>  (2) 
2

>  <SMILES>  (2) 
COc1cc(N2CCOCC2)ccc1/N=c1/nc2c(c[n-]1)CCc1[nH+]n(C)c(-c3ccccc3)c1-2

>  <Energy>  (2) 
129.99430811517632

>  <Genealogy>  (2) 
COc1cc(N2CCOCC2)ccc1N=c1nc2c(c[n-]1)CCc1[nH+]n(C)c(-c3ccccc3)c1-2 (protonated)
COc1cc(N2CCOCC2)ccc1/N=c1/nc2c(c[n-]1)CCc1[nH+]n(C)c(-c3ccccc3)c1-2 (cis-trans isomerization)
COc1cc(N2CCOCC2)ccc1/N=c1/nc2c(c[n-]1)CCc1[nH+]n(C)c(-c3ccccc3)c1-2 (3D coordinates assigned)
COc1cc(N2CCOCC2)ccc1/N=c1/nc2c(c[n-]1)CCc1[nH+]n(C)c(-c3ccccc3)c1-2 (nonaromatic ring conformer: 129.99430811517632 kcal/mol)

>  <smiles>  (2) 
COc1cc(N2CCOCC2)ccc1N=c1nc2c(c[nH]1)CCc1nn(C)c(-c3ccccc3)c1-2

>  <score_type>  (2) 
oracle

>  <origin>  (2) 
adg

>  <m_score__min__energy>  (2) 
-10.81

>  <m_primary>  (2) 
energy

$$$$
2:0
     RDKit          3D

 23 24  0  0  0  0  0  0  0  0999 V2000
   -2.9970   21.0150  -28.6450 O   0  0  0  0  0  0  0  0  0  0  0  0
   -3.4520   21.6830  -29.6320 C   0  0  0  0  0  0  0  0  0  0  0  0
   -3.3960   23.0650  -29.6510 C   0  0  0  0  0  0  0  0  0  0  0  0
   -3.9140   23.7350  -30.7670 C   0  0  0  0  0  0  0  0  0  0  0  0
   -3.8450   25.1300  -30.7600 O   0  0  0  0  0  0  0  0  0  0  0  0
   -4.4560   23.0670  -31.8040 N   0  0  0  0  0  0  0  0  0  0  0  0
   -4.4910   21.7230  -31.7460 C   0  0  0  0  0  0  0  0  0  0  0  0
   -5.1840   20.7170  -33.0560 S   0  0  0  0  0  0  0  0  0  0  0  0
   -6.7230   19.9860  -32.5850 C   0  0  0  0  0  0  0  0  0  0  0  0
   -6.8550   18.5970  -32.6910 C   0  0  0  0  0  0  0  0  0  0  0  0
   -5.5160   17.6170  -33.2800 Cl  0  0  0  0  0  0  0  0  0  0  0  0
   -8.0430   17.9780  -32.3320 C   0  0  0  0  0  0  0  0  0  0  0  0
   -9.1280   18.6860  -31.8640 C   0  0  0  0  0  0  0  0  0  0  0  0
   -8.9720   20.0710  -31.7670 C   0  0  0  0  0  0  0  0  0  0  0  0
   -7.8080   20.7080  -32.1150 C   0  0  0  0  0  0  0  0  0  0  0  0
   -7.6440   22.4490  -31.9820 Cl  0  0  0  0  0  0  0  0  0  0  0  0
   -3.9960   21.0470  -30.6770 N   0  0  0  0  0  0  0  0  0  0  0  0
   -2.9561   23.6235  -28.8116 H   0  0  0  0  0  0  0  0  0  0  0  0
   -4.0050   25.6770  -31.5970 H   0  0  0  0  0  0  0  0  0  0  0  0
   -4.8400   23.5580  -32.6300 H   0  0  0  0  0  0  0  0  0  0  0  0
   -8.1215   16.8847  -32.4241 H   0  0  0  0  0  0  0  0  0  0  0  0
  -10.0671   18.1875  -31.5817 H   0  0  0  0  0  0  0  0  0  0  0  0
   -9.8148   20.6737  -31.3975 H   0  0  0  0  0  0  0  0  0  0  0  0
  1  2  2  0
  2  3  1  0
  3  4  2  0
  4  5  1  0
  4  6  1  0
  6  7  1  0
  7  8  1  0
  8  9  1  0
  9 10  2  0
 10 11  1  0
 10 12  1  0
 12 13  2  0
 13 14  1  0
 14 15  2  0
 15 16  1  0
  7 17  2  0
 17  2  1  0
 15  9  1  0
  3 18  1  0
  5 19  1  0
  6 20  1  0
 12 21  1  0
 13 22  1  0
 14 23  1  0
M  END
>  <smiles>  (3) 
O=c1cc(O)[nH]c(Sc2c(Cl)cccc2Cl)n1

>  <score_type>  (3) 
oracle

>  <origin>  (3) 
adg

>  <m_score__min__energy>  (3) 
-7.7699999999999996

>  <m_primary>  (3) 
energy

$$$$
3:0
     RDKit          3D

 58 61  0  0  0  0  0  0  0  0999 V2000
   -5.8690   20.2432  -34.5980 H   0  0  0  0  0  0  0  0  0  0  0  0
   -6.4540   19.6760  -33.8590 C   0  0  0  0  0  0  0  0  0  0  0  0
   -7.4370   20.2950  -33.1530 N   0  0  0  0  0  0  0  0  0  0  0  0
   -8.1930   19.6420  -32.2290 C   0  0  0  0  0  0  0  0  0  0  0  0
   -9.1160   20.3110  -31.5950 N   0  0  0  0  0  0  0  0  0  0  0  0
   -8.9810   21.6060  -30.9940 C   0  0  0  0  0  0  0  0  0  0  0  0
   -9.3340   21.7630  -29.7940 O   0  0  0  0  0  0  0  0  0  0  0  0
   -8.6400   22.8050  -31.8420 C   0  0  0  0  0  0  0  0  0  0  0  0
   -8.6370   22.5025  -32.8996 H   0  0  0  0  0  0  0  0  0  0  0  0
   -9.3959   23.5812  -31.6517 H   0  0  0  0  0  0  0  0  0  0  0  0
   -7.2890   23.3770  -31.4960 C   0  0  0  0  0  0  0  0  0  0  0  0
   -6.1170   22.8170  -32.0280 C   0  0  0  0  0  0  0  0  0  0  0  0
   -6.1828   21.9606  -32.7152 H   0  0  0  0  0  0  0  0  0  0  0  0
   -4.8670   23.3420  -31.6890 C   0  0  0  0  0  0  0  0  0  0  0  0
   -3.9546   22.9029  -32.1188 H   0  0  0  0  0  0  0  0  0  0  0  0
   -4.7690   24.4280  -30.8020 C   0  0  0  0  0  0  0  0  0  0  0  0
   -3.5060   25.0160  -30.4640 N   0  0  0  0  0  0  0  0  0  0  0  0
   -2.7880   24.8100  -29.2400 C   0  0  0  0  0  0  0  0  0  0  0  0
   -1.7900   25.5300  -28.9630 O   0  0  0  0  0  0  0  0  0  0  0  0
   -3.2430   23.7110  -28.3060 C   0  0  2  0  0  0  0  0  0  0  0  0
   -4.3198   23.8776  -28.1549 H   0  0  0  0  0  0  0  0  0  0  0  0
   -2.5200   23.8030  -26.9540 C   0  0  0  0  0  0  0  0  0  0  0  0
   -2.4823   24.8575  -26.6430 H   0  0  0  0  0  0  0  0  0  0  0  0
   -3.0786   23.1927  -26.2291 H   0  0  0  0  0  0  0  0  0  0  0  0
   -1.0820   23.2550  -27.0270 C   0  0  0  0  0  0  0  0  0  0  0  0
   -0.4879   23.9130  -27.6783 H   0  0  0  0  0  0  0  0  0  0  0  0
   -0.6853   23.2292  -26.0014 H   0  0  0  0  0  0  0  0  0  0  0  0
   -1.0190   21.8730  -27.5650 N   0  0  1  0  0  0  0  0  0  0  0  0
   -0.0020   21.6620  -27.6990 H   0  0  0  0  0  0  0  0  0  0  0  0
   -1.5320   20.8550  -26.6510 C   0  0  0  0  0  0  0  0  0  0  0  0
   -1.2910   20.9040  -25.4520 O   0  0  0  0  0  0  0  0  0  0  0  0
   -2.3580   19.7000  -27.1620 C   0  0  0  0  0  0  0  0  0  0  0  0
   -2.5950   20.1587  -28.1333 H   0  0  0  0  0  0  0  0  0  0  0  0
   -1.9120   18.3160  -26.7110 C   0  0  0  0  0  0  0  0  0  0  0  0
   -2.0233   17.4553  -27.3868 H   0  0  0  0  0  0  0  0  0  0  0  0
   -0.9756   17.8898  -26.3217 H   0  0  0  0  0  0  0  0  0  0  0  0
   -3.1400   18.9550  -26.0880 C   0  0  0  0  0  0  0  0  0  0  0  0
   -4.1406   18.5573  -26.3128 H   0  0  0  0  0  0  0  0  0  0  0  0
   -3.4611   19.1833  -25.0610 H   0  0  0  0  0  0  0  0  0  0  0  0
   -1.6520   21.7950  -28.9010 C   0  0  0  0  0  0  0  0  0  0  0  0
   -1.0709   22.4116  -29.6025 H   0  0  0  0  0  0  0  0  0  0  0  0
   -1.6629   20.7373  -29.2028 H   0  0  0  0  0  0  0  0  0  0  0  0
   -3.1080   22.2930  -28.8970 C   0  0  0  0  0  0  0  0  0  0  0  0
   -3.4801   22.3049  -29.9321 H   0  0  0  0  0  0  0  0  0  0  0  0
   -3.6944   21.6094  -28.2655 H   0  0  0  0  0  0  0  0  0  0  0  0
   -5.9390   24.9970  -30.2870 C   0  0  0  0  0  0  0  0  0  0  0  0
   -5.8736   25.8663  -29.6161 H   0  0  0  0  0  0  0  0  0  0  0  0
   -7.1890   24.4700  -30.6180 C   0  0  0  0  0  0  0  0  0  0  0  0
   -8.1003   24.9126  -30.1894 H   0  0  0  0  0  0  0  0  0  0  0  0
   -7.9750   18.2660  -32.0160 C   0  0  0  0  0  0  0  0  0  0  0  0
   -8.5920   17.7128  -31.2926 H   0  0  0  0  0  0  0  0  0  0  0  0
   -6.9700   17.6100  -32.7300 C   0  0  0  0  0  0  0  0  0  0  0  0
   -6.7954   16.5356  -32.5712 H   0  0  0  0  0  0  0  0  0  0  0  0
   -6.1840   18.3180  -33.6480 C   0  0  0  0  0  0  0  0  0  0  0  0
   -5.1240   17.6110  -34.4390 C   0  0  0  0  0  0  0  0  0  0  0  0
   -4.4098   17.1346  -33.7513 H   0  0  0  0  0  0  0  0  0  0  0  0
   -5.5907   16.8427  -35.0729 H   0  0  0  0  0  0  0  0  0  0  0  0
   -4.5940   18.3371  -35.0729 H   0  0  0  0  0  0  0  0  0  0  0  0
  1  2  1  0
  2  3  1  0
  3  4  1  0
  4  5  2  0
  5  6  1  0
  6  7  2  0
  6  8  1  0
  8  9  1  0
  8 10  1  0
  8 11  1  0
 11 12  2  0
 12 13  1  0
 12 14  1  0
 14 15  1  0
 14 16  2  0
 16 17  1  0
 17 18  1  0
 18 19  2  0
 18 20  1  0
 20 21  1  1
 20 22  1  0
 22 23  1  0
 22 24  1  0
 22 25  1  0
 25 26  1  0
 25 27  1  0
 25 28  1  0
 28 29  1  6
 28 30  1  0
 30 31  2  0
 30 32  1  0
 32 33  1  0
 32 34  1  0
 34 35  1  0
 34 36  1  0
 34 37  1  0
 37 38  1  0
 37 39  1  0
 28 40  1  0
 40 41  1  0
 40 42  1  0
 40 43  1  0
 43 44  1  0
 43 45  1  0
 16 46  1  0
 46 47  1  0
 46 48  2  0
 48 49  1  0
  4 50  1  0
 50 51  1  0
 50 52  2  0
 52 53  1  0
 52 54  1  0
 54 55  1  0
 55 56  1  0
 55 57  1  0
 55 58  1  0
 54  2  2  0
 48 11  1  0
 43 20  1  0
 37 32  1  0
M  CHG  3   3  -1  17  -1  28   1
M  END
>  <UniqueID>  (4) 
3

>  <SMILES>  (4) 
Cc1cc/c(=N\C(=O)Cc2ccc([N-]C(=O)C3CC[NH+](C(=O)C4CC4)CC3)cc2)[n-]c1

>  <Energy>  (4) 
341.8094374187632

>  <Genealogy>  (4) 
Cc1ccc(=NC(=O)Cc2ccc([N-]C(=O)C3CC[NH+](C(=O)C4CC4)CC3)cc2)[n-]c1 (protonated)
Cc1cc/c(=N\C(=O)Cc2ccc([N-]C(=O)C3CC[NH+](C(=O)C4CC4)CC3)cc2)[n-]c1 (cis-trans isomerization)
Cc1cc/c(=N\C(=O)Cc2ccc([N-]C(=O)C3CC[NH+](C(=O)C4CC4)CC3)cc2)[n-]c1 (3D coordinates assigned)
Cc1cc/c(=N\C(=O)Cc2ccc([N-]C(=O)C3CC[NH+](C(=O)C4CC4)CC3)cc2)[n-]c1 (nonaromatic ring conformer: 341.8094374187632 kcal/mol)

>  <smiles>  (4) 
Cc1ccc(=NC(=O)Cc2ccc(NC(=O)C3CCN(C(=O)C4CC4)CC3)cc2)[nH]c1

>  <score_type>  (4) 
oracle

>  <origin>  (4) 
adg

>  <m_score__min__energy>  (4) 
-11.720000000000001

>  <m_primary>  (4) 
energy

$$$$
4:0
     RDKit          3D

 53 55  0  0  0  0  0  0  0  0999 V2000
   -3.4140   20.4910  -33.4500 C   0  0  0  0  0  0  0  0  0  0  0  0
   -4.3720   19.4380  -33.4610 O   0  0  0  0  0  0  0  0  0  0  0  0
   -4.0530   18.0710  -33.4980 C   0  0  0  0  0  0  0  0  0  0  0  0
   -2.7550   17.6030  -33.2110 C   0  0  0  0  0  0  0  0  0  0  0  0
   -2.4720   16.2350  -33.2400 C   0  0  0  0  0  0  0  0  0  0  0  0
   -3.4760   15.3200  -33.5550 C   0  0  0  0  0  0  0  0  0  0  0  0
   -4.7650   15.7680  -33.8480 C   0  0  0  0  0  0  0  0  0  0  0  0
   -5.0630   17.1420  -33.8270 C   0  0  0  0  0  0  0  0  0  0  0  0
   -6.4820   17.5970  -34.0790 C   0  0  0  0  0  0  0  0  0  0  0  0
   -7.2390   17.8410  -32.7680 C   0  0  0  0  0  0  0  0  0  0  0  0
   -6.7900   19.0810  -32.1330 N   0  0  0  0  0  0  0  0  0  0  0  0
   -7.5860   20.2790  -32.1350 C   0  0  0  0  0  0  0  0  0  0  0  0
   -8.7650   20.2460  -32.5830 O   0  0  0  0  0  0  0  0  0  0  0  0
   -7.0300   21.5660  -31.6600 C   0  0  0  0  0  0  0  0  0  0  0  0
   -5.9410   22.1490  -32.3320 C   0  0  0  0  0  0  0  0  0  0  0  0
   -5.4000   23.3600  -31.8910 C   0  0  0  0  0  0  0  0  0  0  0  0
   -5.9490   24.0190  -30.7820 C   0  0  0  0  0  0  0  0  0  0  0  0
   -5.3440   25.2990  -30.2840 C   0  0  0  0  0  0  0  0  0  0  0  0
   -3.9140   25.2980  -30.5780 N   0  0  0  0  0  0  0  0  0  0  0  0
   -3.0460   24.5430  -29.2780 S   0  0  0  0  0  0  0  0  0  0  0  0
   -1.8560   25.3880  -28.9210 O   0  0  0  0  0  0  0  0  0  0  0  0
   -3.9330   24.4320  -28.0690 O   0  0  0  0  0  0  0  0  0  0  0  0
   -2.4850   22.9470  -29.7720 C   0  0  0  0  0  0  0  0  0  0  0  0
   -3.3920   21.8790  -29.8310 C   0  0  0  0  0  0  0  0  0  0  0  0
   -2.9540   20.6040  -30.2030 C   0  0  0  0  0  0  0  0  0  0  0  0
   -1.6070   20.3890  -30.5140 C   0  0  0  0  0  0  0  0  0  0  0  0
   -1.1830   19.1530  -30.8740 F   0  0  0  0  0  0  0  0  0  0  0  0
   -0.6980   21.4500  -30.4510 C   0  0  0  0  0  0  0  0  0  0  0  0
   -1.1340   22.7260  -30.0790 C   0  0  0  0  0  0  0  0  0  0  0  0
   -7.0310   23.4390  -30.1050 C   0  0  0  0  0  0  0  0  0  0  0  0
   -7.5730   22.2270  -30.5440 C   0  0  0  0  0  0  0  0  0  0  0  0
   -3.1727   20.7563  -32.4101 H   0  0  0  0  0  0  0  0  0  0  0  0
   -2.5002   20.1608  -33.9657 H   0  0  0  0  0  0  0  0  0  0  0  0
   -3.8289   21.3696  -33.9657 H   0  0  0  0  0  0  0  0  0  0  0  0
   -1.9587   18.3200  -32.9623 H   0  0  0  0  0  0  0  0  0  0  0  0
   -1.4559   15.8794  -33.0141 H   0  0  0  0  0  0  0  0  0  0  0  0
   -3.2517   14.2432  -33.5726 H   0  0  0  0  0  0  0  0  0  0  0  0
   -5.5527   15.0416  -34.0969 H   0  0  0  0  0  0  0  0  0  0  0  0
   -6.4593   18.5324  -34.6573 H   0  0  0  0  0  0  0  0  0  0  0  0
   -7.0037   16.8037  -34.6344 H   0  0  0  0  0  0  0  0  0  0  0  0
   -8.3157   17.9141  -32.9812 H   0  0  0  0  0  0  0  0  0  0  0  0
   -7.0407   17.0023  -32.0844 H   0  0  0  0  0  0  0  0  0  0  0  0
   -5.7830   19.1340  -31.8640 H   0  0  0  0  0  0  0  0  0  0  0  0
   -5.5114   21.6479  -33.2120 H   0  0  0  0  0  0  0  0  0  0  0  0
   -4.5390   23.7983  -32.4168 H   0  0  0  0  0  0  0  0  0  0  0  0
   -5.8227   26.1525  -30.7864 H   0  0  0  0  0  0  0  0  0  0  0  0
   -5.4989   25.3841  -29.1983 H   0  0  0  0  0  0  0  0  0  0  0  0
   -4.4510   22.0446  -29.5840 H   0  0  0  0  0  0  0  0  0  0  0  0
   -3.6691   19.7696  -30.2511 H   0  0  0  0  0  0  0  0  0  0  0  0
    0.3613   21.2808  -30.6943 H   0  0  0  0  0  0  0  0  0  0  0  0
   -0.4161   23.5578  -30.0271 H   0  0  0  0  0  0  0  0  0  0  0  0
   -7.4562   23.9404  -29.2231 H   0  0  0  0  0  0  0  0  0  0  0  0
   -8.4301   21.7876  -30.0126 H   0  0  0  0  0  0  0  0  0  0  0  0
  1  2  1  0
  2  3  1  0
  3  4  2  0
  4  5  1  0
  5  6  2  0
  6  7  1  0
  7  8  2  0
  8  9  1  0
  9 10  1  0
 10 11  1  0
 11 12  1  0
 12 13  2  0
 12 14  1  0
 14 15  2  0
 15 16  1  0
 16 17  2  0
 17 18  1  0
 18 19  1  0
 19 20  1  0
 20 21  2  0
 20 22  2  0
 20 23  1  0
 23 24  2  0
 24 25  1  0
 25 26  2  0
 26 27  1  0
 26 28  1  0
 28 29  2  0
 17 30  1  0
 30 31  2  0
  8  3  1  0
 31 14  1  0
 29 23  1  0
  1 32  1  0
  1 33  1  0
  1 34  1  0
  4 35  1  0
  5 36  1  0
  6 37  1  0
  7 38  1  0
  9 39  1  0
  9 40  1  0
 10 41  1  0
 10 42  1  0
 11 43  1  0
 15 44  1  0
 16 45  1  0
 18 46  1  0
 18 47  1  0
 24 48  1  0
 25 49  1  0
 28 50  1  0
 29 51  1  0
 30 52  1  0
 31 53  1  0
M  CHG  1  19  -1
M  END
>  <UniqueID>  (5) 
4

>  <SMILES>  (5) 
COc1ccccc1CCNC(=O)c1ccc(C[N-]S(=O)(=O)c2ccc(F)cc2)cc1

>  <Energy>  (5) 
50.24788353377956

>  <Genealogy>  (5) 
COc1ccccc1CCNC(=O)c1ccc(C[N-]S(=O)(=O)c2ccc(F)cc2)cc1 (protonated)
COc1ccccc1CCNC(=O)c1ccc(C[N-]S(=O)(=O)c2ccc(F)cc2)cc1 (3D coordinates assigned)
COc1ccccc1CCNC(=O)c1ccc(C[N-]S(=O)(=O)c2ccc(F)cc2)cc1 (optimized conformer: 50.24788353377956 kcal/mol)

>  <smiles>  (5) 
COc1ccccc1CCNC(=O)c1ccc(CNS(=O)(=O)c2ccc(F)cc2)cc1

>  <score_type>  (5) 
oracle

>  <origin>  (5) 
adg

>  <m_score__min__energy>  (5) 
-10.35

>  <m_primary>  (5) 
energy

$$$$
5:0
     RDKit          3D

 37 38  0  0  0  0  0  0  0  0999 V2000
   -8.3188   17.1534  -31.6444 H   0  0  0  0  0  0  0  0  0  0  0  0
   -7.4540   17.7660  -31.9390 C   0  0  0  0  0  0  0  0  0  0  0  0
   -6.3250   17.1140  -32.2660 C   0  0  0  0  0  0  0  0  0  0  0  0
   -5.6426   16.8806  -31.4354 H   0  0  0  0  0  0  0  0  0  0  0  0
   -5.8760   16.6580  -33.6550 C   0  0  0  0  0  0  0  0  0  0  0  0
   -6.8290   15.5870  -34.2190 C   0  0  0  0  0  0  0  0  0  0  0  0
   -7.3082   15.0485  -33.3881 H   0  0  0  0  0  0  0  0  0  0  0  0
   -7.6006   16.0710  -34.8358 H   0  0  0  0  0  0  0  0  0  0  0  0
   -6.2587   14.8769  -34.8358 H   0  0  0  0  0  0  0  0  0  0  0  0
   -5.7710   17.8450  -34.6340 C   0  0  0  0  0  0  0  0  0  0  0  0
   -5.6880   18.7830  -34.0654 H   0  0  0  0  0  0  0  0  0  0  0  0
   -4.8804   17.7202  -35.2674 H   0  0  0  0  0  0  0  0  0  0  0  0
   -6.6697   17.8785  -35.2674 H   0  0  0  0  0  0  0  0  0  0  0  0
   -4.4730   16.0240  -33.5200 C   0  0  0  0  0  0  0  0  0  0  0  0
   -4.2227   15.9109  -32.4548 H   0  0  0  0  0  0  0  0  0  0  0  0
   -4.4687   15.0365  -34.0045 H   0  0  0  0  0  0  0  0  0  0  0  0
   -3.7290   16.6734  -34.0045 H   0  0  0  0  0  0  0  0  0  0  0  0
   -7.6360   19.2240  -31.9400 C   0  0  0  0  0  0  0  0  0  0  0  0
   -8.9110   19.7720  -31.7430 C   0  0  0  0  0  0  0  0  0  0  0  0
   -9.7833   19.1091  -31.6447 H   0  0  0  0  0  0  0  0  0  0  0  0
   -9.0780   21.1590  -31.6710 C   0  0  0  0  0  0  0  0  0  0  0  0
  -10.0832   21.5839  -31.5332 H   0  0  0  0  0  0  0  0  0  0  0  0
   -7.9670   22.0100  -31.7740 C   0  0  0  0  0  0  0  0  0  0  0  0
   -8.1380   23.5000  -31.6710 C   0  0  0  0  0  0  0  0  0  0  0  0
   -8.3092   23.9172  -32.6743 H   0  0  0  0  0  0  0  0  0  0  0  0
   -8.9992   23.7207  -31.0232 H   0  0  0  0  0  0  0  0  0  0  0  0
   -6.9400   24.1010  -31.0960 N   0  0  0  0  0  0  0  0  0  0  0  0
   -6.8780   24.7040  -29.9230 N   0  0  0  0  0  0  0  0  0  0  0  0
   -5.6540   25.1810  -29.7780 N   0  0  0  0  0  0  0  0  0  0  0  0
   -5.3180   25.7030  -28.9390 H   0  0  0  0  0  0  0  0  0  0  0  0
   -4.9110   24.9140  -30.8430 N   0  0  0  0  0  0  0  0  0  0  0  0
   -5.7320   24.2380  -31.6700 C   0  0  0  0  0  0  0  0  0  0  0  0
   -5.4559   23.8561  -32.6640 H   0  0  0  0  0  0  0  0  0  0  0  0
   -6.6850   21.4570  -31.9070 C   0  0  0  0  0  0  0  0  0  0  0  0
   -5.8063   22.1169  -31.9557 H   0  0  0  0  0  0  0  0  0  0  0  0
   -6.5190   20.0700  -31.9780 C   0  0  0  0  0  0  0  0  0  0  0  0
   -5.5093   19.6420  -32.0639 H   0  0  0  0  0  0  0  0  0  0  0  0
  1  2  1  0
  2  3  2  0
  3  4  1  0
  3  5  1  0
  5  6  1  0
  6  7  1  0
  6  8  1  0
  6  9  1  0
  5 10  1  0
 10 11  1  0
 10 12  1  0
 10 13  1  0
  5 14  1  0
 14 15  1  0
 14 16  1  0
 14 17  1  0
  2 18  1  0
 18 19  2  0
 19 20  1  0
 19 21  1  0
 21 22  1  0
 21 23  2  0
 23 24  1  0
 24 25  1  0
 24 26  1  0
 24 27  1  0
 27 28  1  0
 28 29  2  0
 29 30  1  0
 29 31  1  0
 31 32  2  0
 32 33  1  0
 23 34  1  0
 34 35  1  0
 34 36  2  0
 36 37  1  0
 36 18  1  0
 32 27  1  0
M  CHG  1  29   1
M  END
>  <UniqueID>  (6) 
5

>  <SMILES>  (6) 
CC(C)(C)/C=C\c1ccc(Cn2cn[nH+]n2)cc1

>  <Energy>  (6) 
81.27702720598771

>  <Genealogy>  (6) 
CC(C)(C)C=Cc1ccc(Cn2cn[nH+]n2)cc1 (protonated)
CC(C)(C)/C=C\c1ccc(Cn2cn[nH+]n2)cc1 (cis-trans isomerization)
CC(C)(C)/C=C\c1ccc(Cn2cn[nH+]n2)cc1 (3D coordinates assigned)
CC(C)(C)/C=C\c1ccc(Cn2cn[nH+]n2)cc1 (optimized conformer: 81.27702720598771 kcal/mol)

>  <smiles>  (6) 
CC(C)(C)C=Cc1ccc(Cn2cnnn2)cc1

>  <score_type>  (6) 
oracle

>  <origin>  (6) 
adg

>  <m_score__min__energy>  (6) 
-7.6600000000000001

>  <m_primary>  (6) 
energy

$$$$
6:0
     RDKit          3D

 44 46  0  0  0  0  0  0  0  0999 V2000
   -4.6850   25.2860  -30.8540 N   0  0  0  0  0  0  0  0  0  0  0  0
   -4.0870   24.2770  -30.2740 C   0  0  0  0  0  0  0  0  0  0  0  0
   -4.0810   23.0650  -30.8940 N   0  0  0  0  0  0  0  0  0  0  0  0
   -3.4480   21.9980  -30.3070 C   0  0  0  0  0  0  0  0  0  0  0  0
   -3.3770   20.7860  -31.1710 C   0  0  0  0  0  0  0  0  0  0  0  0
   -4.0370   20.8990  -32.3240 O   0  0  0  0  0  0  0  0  0  0  0  0
   -4.7350   19.9700  -32.9940 C   0  0  0  0  0  0  0  0  0  0  0  0
   -6.2230   20.0990  -32.6170 C   0  0  0  0  0  0  0  0  0  0  0  0
   -6.7650   21.3180  -32.3080 C   0  0  0  0  0  0  0  0  0  0  0  0
   -8.1380   21.3660  -32.0000 C   0  0  0  0  0  0  0  0  0  0  0  0
   -8.9010   20.2040  -32.0180 C   0  0  0  0  0  0  0  0  0  0  0  0
   -8.3540   18.9780  -32.3290 C   0  0  0  0  0  0  0  0  0  0  0  0
   -7.0140   18.9220  -32.6280 C   0  0  0  0  0  0  0  0  0  0  0  0
   -2.8300   22.1590  -29.0990 C   0  0  0  0  0  0  0  0  0  0  0  0
   -2.2720   20.9860  -28.4590 C   0  0  0  0  0  0  0  0  0  0  0  0
   -3.1050   20.4020  -27.4790 C   0  0  0  0  0  0  0  0  0  0  0  0
   -2.6570   19.2920  -26.8200 C   0  0  0  0  0  0  0  0  0  0  0  0
   -1.4160   18.7100  -27.0670 C   0  0  0  0  0  0  0  0  0  0  0  0
   -0.6160   19.2830  -28.0200 C   0  0  0  0  0  0  0  0  0  0  0  0
    0.7210   18.6610  -28.2950 C   0  0  0  0  0  0  0  0  0  0  0  0
    0.9040   18.3520  -29.6220 F   0  0  0  0  0  0  0  0  0  0  0  0
    1.6720   19.6340  -27.9810 F   0  0  0  0  0  0  0  0  0  0  0  0
    0.8830   17.5440  -27.5250 F   0  0  0  0  0  0  0  0  0  0  0  0
   -1.0610   20.4000  -28.6860 C   0  0  0  0  0  0  0  0  0  0  0  0
   -2.8670   23.4050  -28.5200 C   0  0  0  0  0  0  0  0  0  0  0  0
   -2.3060   23.5810  -27.3770 N   0  0  0  0  0  0  0  0  0  0  0  0
   -3.4890   24.4700  -29.0920 N   0  0  0  0  0  0  0  0  0  0  0  0
   -4.1610   25.6770  -31.6930 H   0  0  0  0  0  0  0  0  0  0  0  0
   -4.5660   22.9310  -31.8290 H   0  0  0  0  0  0  0  0  0  0  0  0
   -2.3195   20.5844  -31.3968 H   0  0  0  0  0  0  0  0  0  0  0  0
   -3.8555   19.9691  -30.6108 H   0  0  0  0  0  0  0  0  0  0  0  0
   -4.6130   20.1251  -34.0762 H   0  0  0  0  0  0  0  0  0  0  0  0
   -4.3688   18.9664  -32.7319 H   0  0  0  0  0  0  0  0  0  0  0  0
   -6.1485   22.2290  -32.3007 H   0  0  0  0  0  0  0  0  0  0  0  0
   -8.6088   22.3267  -31.7441 H   0  0  0  0  0  0  0  0  0  0  0  0
   -9.9725   20.2650  -31.7770 H   0  0  0  0  0  0  0  0  0  0  0  0
   -8.9732   18.0689  -32.3377 H   0  0  0  0  0  0  0  0  0  0  0  0
   -6.5509   17.9560  -32.8780 H   0  0  0  0  0  0  0  0  0  0  0  0
   -4.0920   20.8311  -27.2515 H   0  0  0  0  0  0  0  0  0  0  0  0
   -3.3072   18.8366  -26.0585 H   0  0  0  0  0  0  0  0  0  0  0  0
   -1.0883   17.8175  -26.5137 H   0  0  0  0  0  0  0  0  0  0  0  0
   -0.4030   20.8471  -29.4456 H   0  0  0  0  0  0  0  0  0  0  0  0
   -2.6480   23.1520  -26.5090 H   0  0  0  0  0  0  0  0  0  0  0  0
   -3.4670   25.3990  -28.5880 H   0  0  0  0  0  0  0  0  0  0  0  0
  1  2  2  3
  2  3  1  0
  3  4  1  0
  4  5  1  0
  5  6  1  0
  6  7  1  0
  7  8  1  0
  8  9  2  0
  9 10  1  0
 10 11  2  0
 11 12  1  0
 12 13  2  0
  4 14  2  0
 14 15  1  0
 15 16  2  0
 16 17  1  0
 17 18  2  0
 18 19  1  0
 19 20  1  0
 20 21  1  0
 20 22  1  0
 20 23  1  0
 19 24  2  0
 14 25  1  0
 25 26  2  3
 25 27  1  0
 27  2  1  0
 13  8  1  0
 24 15  1  0
  1 28  1  0
  3 29  1  0
  5 30  1  0
  5 31  1  0
  7 32  1  0
  7 33  1  0
  9 34  1  0
 10 35  1  0
 11 36  1  0
 12 37  1  0
 13 38  1  0
 16 39  1  0
 17 40  1  0
 18 41  1  0
 24 42  1  0
 26 43  1  0
 27 44  1  0
M  END
>  <smiles>  (7) 
N=c1[nH]c(COCc2ccccc2)c(-c2cccc(C(F)(F)F)c2)c(=N)[nH]1

>  <score_type>  (7) 
oracle

>  <origin>  (7) 
adg

>  <m_score__min__energy>  (7) 
-7.6500000000000004

>  <m_primary>  (7) 
energy

$$$$
7:0
     RDKit          3D

 23 24  0  0  0  0  0  0  0  0999 V2000
   -3.4630   23.0460  -29.9860 O   0  0  0  0  0  0  0  0  0  0  0  0
   -3.1900   24.2530  -29.7480 C   0  0  0  0  0  0  0  0  0  0  0  0
   -3.8220   25.2970  -30.4970 N   0  0  0  0  0  0  0  0  0  0  0  0
   -5.2570   25.5530  -30.4740 C   0  0  0  0  0  0  0  0  0  0  0  0
   -6.0180   24.2930  -30.7840 C   0  0  0  0  0  0  0  0  0  0  0  0
   -5.8880   23.6860  -32.0450 C   0  0  0  0  0  0  0  0  0  0  0  0
   -6.6090   22.5280  -32.3480 C   0  0  0  0  0  0  0  0  0  0  0  0
   -7.4670   21.9680  -31.3960 C   0  0  0  0  0  0  0  0  0  0  0  0
   -8.1660   20.8440  -31.6910 F   0  0  0  0  0  0  0  0  0  0  0  0
   -7.6060   22.5680  -30.1420 C   0  0  0  0  0  0  0  0  0  0  0  0
   -6.8870   23.7290  -29.8360 C   0  0  0  0  0  0  0  0  0  0  0  0
   -2.2170   24.5850  -28.6970 C   0  0  0  0  0  0  0  0  0  0  0  0
   -2.5210   24.5580  -27.3350 C   0  0  0  0  0  0  0  0  0  0  0  0
   -1.0980   25.0040  -26.5890 S   0  0  0  0  0  0  0  0  0  0  0  0
   -0.1660   25.2120  -27.9440 N   0  0  0  0  0  0  0  0  0  0  0  0
   -0.9310   24.9430  -28.9980 N   0  0  0  0  0  0  0  0  0  0  0  0
   -5.5450   25.9144  -29.4758 H   0  0  0  0  0  0  0  0  0  0  0  0
   -5.4970   26.3116  -31.2336 H   0  0  0  0  0  0  0  0  0  0  0  0
   -5.2155   24.1246  -32.7969 H   0  0  0  0  0  0  0  0  0  0  0  0
   -6.5017   22.0565  -33.3360 H   0  0  0  0  0  0  0  0  0  0  0  0
   -8.2816   22.1272  -29.3941 H   0  0  0  0  0  0  0  0  0  0  0  0
   -7.0030   24.2014  -28.8494 H   0  0  0  0  0  0  0  0  0  0  0  0
   -3.4802   24.3012  -26.8618 H   0  0  0  0  0  0  0  0  0  0  0  0
  1  2  2  0
  2  3  1  0
  3  4  1  0
  4  5  1  0
  5  6  2  0
  6  7  1  0
  7  8  2  0
  8  9  1  0
  8 10  1  0
 10 11  2  0
  2 12  1  0
 12 13  2  0
 13 14  1  0
 14 15  1  0
 15 16  2  0
 11  5  1  0
 16 12  1  0
  4 17  1  0
  4 18  1  0
  6 19  1  0
  7 20  1  0
 10 21  1  0
 11 22  1  0
 13 23  1  0
M  CHG  1   3  -1
M  END
>  <UniqueID>  (8) 
6

>  <SMILES>  (8) 
O=C([N-]Cc1ccc(F)cc1)c1csnn1

>  <Energy>  (8) 
56.887379134496186

>  <Genealogy>  (8) 
O=C([N-]Cc1ccc(F)cc1)c1csnn1 (protonated)
O=C([N-]Cc1ccc(F)cc1)c1csnn1 (3D coordinates assigned)
O=C([N-]Cc1ccc(F)cc1)c1csnn1 (optimized conformer: 56.887379134496186 kcal/mol)

>  <smiles>  (8) 
O=C(NCc1ccc(F)cc1)c1csnn1

>  <score_type>  (8) 
oracle

>  <origin>  (8) 
adg

>  <m_score__min__energy>  (8) 
-7.8300000000000001

>  <m_primary>  (8) 
energy

$$$$
8:0
     RDKit          3D

 17 17  0  0  0  0  0  0  0  0999 V2000
   -4.6810   21.9160  -33.8800 H   0  0  0  0  0  0  0  0  0  0  0  0
   -5.0770   21.6770  -32.9420 N   0  0  0  0  0  0  0  0  0  0  0  0
   -5.4540   22.5970  -32.1140 C   0  0  0  0  0  0  0  0  0  0  0  0
   -4.5410   23.4560  -31.5840 N   0  0  0  0  0  0  0  0  0  0  0  0
   -4.8880   24.4400  -30.7090 C   0  0  0  0  0  0  0  0  0  0  0  0
   -3.8640   25.3000  -30.1990 N   0  0  0  0  0  0  0  0  0  0  0  0
   -3.8690   25.5720  -29.1900 H   0  0  0  0  0  0  0  0  0  0  0  0
   -3.0970   25.6740  -30.8000 H   0  0  0  0  0  0  0  0  0  0  0  0
   -6.2410   24.5890  -30.3280 C   0  0  0  0  0  0  0  0  0  0  0  0
   -6.6770   25.6590  -29.3650 C   0  0  0  0  0  0  0  0  0  0  0  0
   -6.5327   25.3049  -28.3336 H   0  0  0  0  0  0  0  0  0  0  0  0
   -6.0768   26.5662  -29.5286 H   0  0  0  0  0  0  0  0  0  0  0  0
   -7.7403   25.8884  -29.5286 H   0  0  0  0  0  0  0  0  0  0  0  0
   -7.1910   23.7090  -30.8690 C   0  0  0  0  0  0  0  0  0  0  0  0
   -8.2498   23.8057  -30.5869 H   0  0  0  0  0  0  0  0  0  0  0  0
   -6.7990   22.7120  -31.7630 C   0  0  0  0  0  0  0  0  0  0  0  0
   -7.5441   22.0228  -32.1872 H   0  0  0  0  0  0  0  0  0  0  0  0
  1  2  1  0
  2  3  2  0
  3  4  1  0
  4  5  1  0
  5  6  1  0
  6  7  1  0
  6  8  1  0
  5  9  2  0
  9 10  1  0
 10 11  1  0
 10 12  1  0
 10 13  1  0
  9 14  1  0
 14 15  1  0
 14 16  2  0
 16 17  1  0
 16  3  1  0
M  CHG  1   4  -1
M  END
>  <UniqueID>  (9) 
7

>  <SMILES>  (9) 
[H]/N=c1/ccc(C)c(N)[n-]1

>  <Energy>  (9) 
15.42771977420462

>  <Genealogy>  (9) 
Cc1ccc(=N)[n-]c1N (protonated)
[H]/N=c1/ccc(C)c(N)[n-]1 (cis-trans isomerization)
[H]/N=c1/ccc(C)c(N)[n-]1 (3D coordinates assigned)
[H]/N=c1/ccc(C)c(N)[n-]1 (optimized conformer: 15.42771977420462 kcal/mol)

>  <smiles>  (9) 
Cc1ccc(=N)[nH]c1N

>  <score_type>  (9) 
oracle

>  <origin>  (9) 
adg

>  <m_score__min__energy>  (9) 
-6.2400000000000002

>  <m_primary>  (9) 
energy

$$$$
9:0
     RDKit          3D

 44 46  0  0  1  0  0  0  0  0999 V2000
   -4.1910   24.1130  -28.8350 C   0  0  0  0  0  0  0  0  0  0  0  0
   -4.3850   24.3030  -30.2830 C   0  0  0  0  0  0  0  0  0  0  0  0
   -3.8670   25.2870  -30.8010 O   0  0  0  0  0  0  0  0  0  0  0  0
   -5.1580   23.4040  -31.1720 C   0  0  0  0  0  0  0  0  0  0  0  0
   -6.5210   23.8770  -31.2490 N   0  0  0  0  0  0  0  0  0  0  0  0
   -7.2190   23.3120  -32.3970 C   0  0  0  0  0  0  0  0  0  0  0  0
   -8.7120   23.3620  -32.0740 C   0  0  0  0  0  0  0  0  0  0  0  0
   -8.9650   22.0630  -31.2850 C   0  0  0  0  0  0  0  0  0  0  0  0
   -8.9380   21.0400  -32.3430 N   0  0  0  0  0  0  0  0  0  0  0  0
   -8.0950   20.0790  -32.3730 C   0  0  0  0  0  0  0  0  0  0  0  0
   -6.8030   20.2750  -32.8160 C   0  0  0  0  0  0  0  0  0  0  0  0
   -5.9570   19.2160  -32.8220 C   0  0  0  0  0  0  0  0  0  0  0  0
   -4.6130   19.3500  -33.2650 N   0  0  0  0  0  0  0  0  0  0  0  0
   -3.3820   18.7060  -33.7560 C   0  0  0  0  0  0  0  0  0  0  0  0
   -3.4240   20.1390  -33.5880 C   0  0  2  0  0  0  0  0  0  0  0  0
   -2.7650   20.8190  -32.4040 C   0  0  0  0  0  0  0  0  0  0  0  0
   -6.3720   18.0060  -32.4060 N   0  0  0  0  0  0  0  0  0  0  0  0
   -7.6310   17.7980  -31.9710 C   0  0  0  0  0  0  0  0  0  0  0  0
   -8.4730   18.8540  -31.9650 N   0  0  0  0  0  0  0  0  0  0  0  0
   -7.7900   21.9420  -30.3650 C   0  0  0  0  0  0  0  0  0  0  0  0
   -7.2060   23.3330  -30.0870 C   0  0  0  0  0  0  0  0  0  0  0  0
   -4.8710   24.7789  -28.2835 H   0  0  0  0  0  0  0  0  0  0  0  0
   -4.4070   23.0674  -28.5702 H   0  0  0  0  0  0  0  0  0  0  0  0
   -3.1502   24.3508  -28.5702 H   0  0  0  0  0  0  0  0  0  0  0  0
   -4.7101   23.4044  -32.1767 H   0  0  0  0  0  0  0  0  0  0  0  0
   -5.1420   22.3802  -30.7702 H   0  0  0  0  0  0  0  0  0  0  0  0
   -7.0065   23.9049  -33.2988 H   0  0  0  0  0  0  0  0  0  0  0  0
   -6.8911   22.2799  -32.5897 H   0  0  0  0  0  0  0  0  0  0  0  0
   -8.9505   24.2443  -31.4619 H   0  0  0  0  0  0  0  0  0  0  0  0
   -9.3383   23.4395  -32.9750 H   0  0  0  0  0  0  0  0  0  0  0  0
   -9.8911   21.9986  -30.6949 H   0  0  0  0  0  0  0  0  0  0  0  0
   -6.4679   21.2661  -33.1559 H   0  0  0  0  0  0  0  0  0  0  0  0
   -2.7749   18.0906  -33.0757 H   0  0  0  0  0  0  0  0  0  0  0  0
   -3.1386   18.0283  -34.5876 H   0  0  0  0  0  0  0  0  0  0  0  0
   -3.1579   20.9655  -34.2633 H   0  0  0  0  0  0  0  0  0  0  0  0
   -3.1693   20.4018  -31.4699 H   0  0  0  0  0  0  0  0  0  0  0  0
   -1.6788   20.6492  -32.4415 H   0  0  0  0  0  0  0  0  0  0  0  0
   -2.9688   21.8993  -32.4415 H   0  0  0  0  0  0  0  0  0  0  0  0
   -7.9605   16.8043  -31.6332 H   0  0  0  0  0  0  0  0  0  0  0  0
   -9.4430   18.6760  -31.6270 H   0  0  0  0  0  0  0  0  0  0  0  0
   -8.1126   21.4849  -29.4179 H   0  0  0  0  0  0  0  0  0  0  0  0
   -7.0215   21.3117  -30.8363 H   0  0  0  0  0  0  0  0  0  0  0  0
   -8.0243   24.0124  -29.8065 H   0  0  0  0  0  0  0  0  0  0  0  0
   -6.4723   23.2377  -29.2730 H   0  0  0  0  0  0  0  0  0  0  0  0
  1  2  1  0
  2  3  2  0
  2  4  1  0
  4  5  1  0
  5  6  1  0
  6  7  1  0
  7  8  1  0
  8  9  1  0
  9 10  2  0
 10 11  1  0
 11 12  2  0
 12 13  1  0
 13 14  1  0
 14 15  1  0
 15 16  1  0
 12 17  1  0
 17 18  2  0
 18 19  1  0
  8 20  1  0
 20 21  1  0
 21  5  1  0
 19 10  1  0
 15 13  1  0
  1 22  1  0
  1 23  1  0
  1 24  1  0
  4 25  1  0
  4 26  1  0
  6 27  1  0
  6 28  1  0
  7 29  1  0
  7 30  1  0
  8 31  1  0
 11 32  1  0
 14 33  1  0
 14 34  1  0
 15 35  1  6
 16 36  1  0
 16 37  1  0
 16 38  1  0
 18 39  1  0
 19 40  1  0
 20 41  1  0
 20 42  1  0
 21 43  1  0
 21 44  1  0
M  END
>  <smiles>  (10) 
CC(=O)CN1CCC(N=c2cc(N3CC3C)nc[nH]2)CC1

>  <score_type>  (10) 
oracle

>  <origin>  (10) 
adg

>  <m_score__min__energy>  (10) 
-7.9900000000000002

>  <m_primary>  (10) 
energy

$$$$
10:0
     RDKit          3D

 27 28  0  0  0  0  0  0  0  0999 V2000
   -8.2937   23.3332  -30.7290 H   0  0  0  0  0  0  0  0  0  0  0  0
   -8.2960   22.4280  -31.3540 C   0  0  0  0  0  0  0  0  0  0  0  0
   -9.4760   21.7150  -31.5280 C   0  0  0  0  0  0  0  0  0  0  0  0
  -10.4039   22.0467  -31.0391 H   0  0  0  0  0  0  0  0  0  0  0  0
   -9.4700   20.5780  -32.3270 C   0  0  0  0  0  0  0  0  0  0  0  0
  -10.3998   20.0103  -32.4791 H   0  0  0  0  0  0  0  0  0  0  0  0
   -8.3200   20.1650  -32.9210 N   0  0  0  0  0  0  0  0  0  0  0  0
   -8.3570   19.3000  -33.5090 H   0  0  0  0  0  0  0  0  0  0  0  0
   -7.1310   20.8220  -32.7670 C   0  0  0  0  0  0  0  0  0  0  0  0
   -6.0890   20.3110  -33.3720 N   0  0  0  0  0  0  0  0  0  0  0  0
   -5.4810   18.9780  -33.3220 C   0  0  0  0  0  0  0  0  0  0  0  0
   -4.4050   19.1353  -33.1563 H   0  0  0  0  0  0  0  0  0  0  0  0
   -5.7920   18.2230  -34.6050 C   0  0  0  0  0  0  0  0  0  0  0  0
   -6.7892   18.4964  -34.9804 H   0  0  0  0  0  0  0  0  0  0  0  0
   -5.0740   18.4605  -35.4038 H   0  0  0  0  0  0  0  0  0  0  0  0
   -5.7510   16.7510  -34.2270 C   0  0  0  0  0  0  0  0  0  0  0  0
   -6.5050   16.1902  -34.7989 H   0  0  0  0  0  0  0  0  0  0  0  0
   -4.7693   16.3086  -34.4518 H   0  0  0  0  0  0  0  0  0  0  0  0
   -6.0610   16.6810  -32.7340 C   0  0  0  0  0  0  0  0  0  0  0  0
   -7.0339   16.1938  -32.5721 H   0  0  0  0  0  0  0  0  0  0  0  0
   -5.2984   16.0945  -32.2006 H   0  0  0  0  0  0  0  0  0  0  0  0
   -6.1020   18.1180  -32.2220 C   0  0  0  0  0  0  0  0  0  0  0  0
   -7.1411   18.4276  -32.0363 H   0  0  0  0  0  0  0  0  0  0  0  0
   -5.5548   18.2223  -31.2735 H   0  0  0  0  0  0  0  0  0  0  0  0
   -7.1090   22.0050  -31.9670 C   0  0  0  0  0  0  0  0  0  0  0  0
   -5.9540   22.8480  -31.7730 C   0  0  0  0  0  0  0  0  0  0  0  0
   -5.0360   23.5320  -31.5990 N   0  0  0  0  0  0  0  0  0  0  0  0
  1  2  1  0
  2  3  1  0
  3  4  1  0
  3  5  2  0
  5  6  1  0
  5  7  1  0
  7  8  1  0
  7  9  1  0
  9 10  2  0
 10 11  1  0
 11 12  1  0
 11 13  1  0
 13 14  1  0
 13 15  1  0
 13 16  1  0
 16 17  1  0
 16 18  1  0
 16 19  1  0
 19 20  1  0
 19 21  1  0
 19 22  1  0
 22 23  1  0
 22 24  1  0
  9 25  1  0
 25 26  1  0
 26 27  3  0
 25  2  2  0
 22 11  1  0
M  END
>  <UniqueID>  (11) 
8

>  <SMILES>  (11) 
N#Cc1ccc[nH]/c1=N/C1CCCC1

>  <Energy>  (11) 
35.71904870457015

>  <Genealogy>  (11) 
N#Cc1ccc[nH]/c1=N/C1CCCC1 (cis-trans isomerization)
N#Cc1ccc[nH]/c1=N/C1CCCC1 (3D coordinates assigned)
N#Cc1ccc[nH]/c1=N/C1CCCC1 (nonaromatic ring conformer: 35.71904870457015 kcal/mol)

>  <smiles>  (11) 
N#Cc1ccc[nH]c1=NC1CCCC1

>  <score_type>  (11) 
oracle

>  <origin>  (11) 
adg

>  <m_score__min__energy>  (11) 
-6.0999999999999996

>  <m_primary>  (11) 
energy

$$$$
11:0
     RDKit          3D

 39 41  0  0  0  0  0  0  0  0999 V2000
   -4.1980   24.5410  -26.8660 C   0  0  0  0  0  0  0  0  0  0  0  0
   -3.1490   23.9530  -27.7730 C   0  0  0  0  0  0  0  0  0  0  0  0
   -1.8550   23.7410  -27.2650 C   0  0  0  0  0  0  0  0  0  0  0  0
   -0.8480   23.2180  -28.0780 C   0  0  0  0  0  0  0  0  0  0  0  0
   -1.1200   22.8940  -29.4070 C   0  0  0  0  0  0  0  0  0  0  0  0
   -0.1390   22.3890  -30.1950 F   0  0  0  0  0  0  0  0  0  0  0  0
   -2.4040   23.0800  -29.9240 C   0  0  0  0  0  0  0  0  0  0  0  0
   -3.4330   23.5930  -29.1150 C   0  0  0  0  0  0  0  0  0  0  0  0
   -4.7850   23.7430  -29.7000 C   0  0  0  0  0  0  0  0  0  0  0  0
   -5.4970   24.9370  -29.5270 C   0  0  0  0  0  0  0  0  0  0  0  0
   -6.7700   25.0630  -30.0820 C   0  0  0  0  0  0  0  0  0  0  0  0
   -7.3070   24.0390  -30.7960 N   0  0  0  0  0  0  0  0  0  0  0  0
   -6.6410   22.8700  -31.0030 C   0  0  0  0  0  0  0  0  0  0  0  0
   -7.2650   21.8220  -31.7740 N   0  0  0  0  0  0  0  0  0  0  0  0
   -8.7270   21.7230  -31.8750 C   0  0  0  0  0  0  0  0  0  0  0  0
   -9.1560   20.2580  -32.0120 C   0  0  0  0  0  0  0  0  0  0  0  0
   -8.4120   19.5860  -33.0860 N   0  0  0  0  0  0  0  0  0  0  0  0
   -6.9670   19.6120  -32.8220 C   0  0  0  0  0  0  0  0  0  0  0  0
   -6.4540   21.0530  -32.7290 C   0  0  0  0  0  0  0  0  0  0  0  0
   -5.3560   22.7060  -30.4520 C   0  0  0  0  0  0  0  0  0  0  0  0
   -3.9086   24.3788  -25.8172 H   0  0  0  0  0  0  0  0  0  0  0  0
   -4.2866   25.6203  -27.0592 H   0  0  0  0  0  0  0  0  0  0  0  0
   -5.1649   24.0534  -27.0592 H   0  0  0  0  0  0  0  0  0  0  0  0
   -1.6341   23.9898  -26.2165 H   0  0  0  0  0  0  0  0  0  0  0  0
    0.1614   23.0612  -27.6699 H   0  0  0  0  0  0  0  0  0  0  0  0
   -2.6120   22.8229  -30.9731 H   0  0  0  0  0  0  0  0  0  0  0  0
   -5.0554   25.7684  -28.9580 H   0  0  0  0  0  0  0  0  0  0  0  0
   -7.3406   25.9929  -29.9416 H   0  0  0  0  0  0  0  0  0  0  0  0
   -9.1825   22.1507  -30.9697 H   0  0  0  0  0  0  0  0  0  0  0  0
   -9.0612   22.2769  -32.7647 H   0  0  0  0  0  0  0  0  0  0  0  0
   -8.9641   19.7374  -31.0622 H   0  0  0  0  0  0  0  0  0  0  0  0
  -10.2274   20.2299  -32.2594 H   0  0  0  0  0  0  0  0  0  0  0  0
   -8.6180   20.0460  -34.0040 H   0  0  0  0  0  0  0  0  0  0  0  0
   -8.7270   18.5890  -33.1390 H   0  0  0  0  0  0  0  0  0  0  0  0
   -6.7651   19.0958  -31.8718 H   0  0  0  0  0  0  0  0  0  0  0  0
   -6.4491   19.1074  -33.6509 H   0  0  0  0  0  0  0  0  0  0  0  0
   -5.4070   21.0445  -32.3918 H   0  0  0  0  0  0  0  0  0  0  0  0
   -6.5264   21.5236  -33.7206 H   0  0  0  0  0  0  0  0  0  0  0  0
   -4.8023   21.7688  -30.6105 H   0  0  0  0  0  0  0  0  0  0  0  0
  1  2  1  0
  2  3  2  0
  3  4  1  0
  4  5  2  0
  5  6  1  0
  5  7  1  0
  7  8  2  0
  8  9  1  0
  9 10  2  0
 10 11  1  0
 11 12  2  0
 12 13  1  0
 13 14  1  0
 14 15  1  0
 15 16  1  0
 16 17  1  0
 17 18  1  0
 18 19  1  0
 13 20  2  0
  8  2  1  0
 20  9  1  0
 19 14  1  0
  1 21  1  0
  1 22  1  0
  1 23  1  0
  3 24  1  0
  4 25  1  0
  7 26  1  0
 10 27  1  0
 11 28  1  0
 15 29  1  0
 15 30  1  0
 16 31  1  0
 16 32  1  0
 17 33  1  0
 17 34  1  0
 18 35  1  0
 18 36  1  0
 19 37  1  0
 19 38  1  0
 20 39  1  0
M  CHG  1  17   1
M  END
>  <UniqueID>  (12) 
9

>  <SMILES>  (12) 
Cc1ccc(F)cc1-c1ccnc(N2CC[NH2+]CC2)c1

>  <Energy>  (12) 
49.63684918037513

>  <Genealogy>  (12) 
Cc1ccc(F)cc1-c1ccnc(N2CC[NH2+]CC2)c1 (protonated)
Cc1ccc(F)cc1-c1ccnc(N2CC[NH2+]CC2)c1 (3D coordinates assigned)
Cc1ccc(F)cc1-c1ccnc(N2CC[NH2+]CC2)c1 (nonaromatic ring conformer: 49.63684918037513 kcal/mol)

>  <smiles>  (12) 
Cc1ccc(F)cc1-c1ccnc(N2CCNCC2)c1

>  <score_type>  (12) 
oracle

>  <origin>  (12) 
adg

>  <m_score__min__energy>  (12) 
-6.7199999999999998

>  <m_primary>  (12) 
energy

$$$$
12:0
     RDKit          3D

 66 70  0  0  0  0  0  0  0  0999 V2000
   -7.8390   18.2860  -31.9620 C   0  0  0  0  0  0  0  0  0  0  0  0
   -9.1210   19.0090  -32.3400 C   0  0  0  0  0  0  0  0  0  0  0  0
   -8.8100   20.3180  -32.8140 O   0  0  0  0  0  0  0  0  0  0  0  0
   -7.9420   21.2100  -32.1660 C   0  0  0  0  0  0  0  0  0  0  0  0
   -6.6460   21.3660  -32.6750 C   0  0  0  0  0  0  0  0  0  0  0  0
   -5.7470   22.2540  -32.0720 C   0  0  0  0  0  0  0  0  0  0  0  0
   -6.1350   22.9910  -30.9430 C   0  0  0  0  0  0  0  0  0  0  0  0
   -5.0270   24.1230  -30.1670 S   0  0  0  0  0  0  0  0  0  0  0  0
   -5.8470   24.9220  -29.1980 O   0  0  0  0  0  0  0  0  0  0  0  0
   -4.4590   25.0520  -31.2010 O   0  0  0  0  0  0  0  0  0  0  0  0
   -3.7510   23.2520  -29.3230 N   0  0  0  0  0  0  0  0  0  0  0  0
   -2.3930   23.6520  -29.7530 C   0  0  0  0  0  0  0  0  0  0  0  0
   -1.6960   22.5960  -30.5620 C   0  0  0  0  0  0  0  0  0  0  0  0
   -0.4100   22.2360  -30.3540 N   0  0  0  0  0  0  0  0  0  0  0  0
   -0.1840   21.3000  -31.2890 C   0  0  0  0  0  0  0  0  0  0  0  0
   -1.3250   21.1130  -32.0310 C   0  0  0  0  0  0  0  0  0  0  0  0
   -2.2890   21.9330  -31.5760 N   0  0  0  0  0  0  0  0  0  0  0  0
   -3.8890   23.0320  -27.8510 C   0  0  2  0  0  0  0  0  0  0  0  0
   -3.7640   24.3400  -27.0600 C   0  0  0  0  0  0  0  0  0  0  0  0
   -2.3410   24.7100  -26.7740 C   0  0  0  0  0  0  0  0  0  0  0  0
   -2.0000   26.0580  -26.6020 C   0  0  0  0  0  0  0  0  0  0  0  0
   -0.6750   26.4170  -26.3580 C   0  0  0  0  0  0  0  0  0  0  0  0
   -0.3130   27.8010  -26.1920 C   0  0  0  0  0  0  0  0  0  0  0  0
   -0.0210   28.9130  -26.0590 N   0  0  0  0  0  0  0  0  0  0  0  0
    0.2980   25.4200  -26.2930 C   0  0  0  0  0  0  0  0  0  0  0  0
   -0.0470   24.1130  -26.4370 N   0  0  0  0  0  0  0  0  0  0  0  0
   -1.3460   23.7220  -26.6400 C   0  0  0  0  0  0  0  0  0  0  0  0
   -1.6900   22.3170  -26.7690 N   0  0  0  0  0  0  0  0  0  0  0  0
   -0.7300   21.2890  -26.3060 C   0  0  0  0  0  0  0  0  0  0  0  0
   -0.4590   20.2110  -27.3280 C   0  0  0  0  0  0  0  0  0  0  0  0
    0.5720   20.2130  -28.2440 C   0  0  0  0  0  0  0  0  0  0  0  0
    0.5590   19.0540  -28.9350 N   0  0  0  0  0  0  0  0  0  0  0  0
   -0.4820   18.3660  -28.4180 C   0  0  0  0  0  0  0  0  0  0  0  0
   -1.1120   19.0380  -27.4340 N   0  0  0  0  0  0  0  0  0  0  0  0
   -2.2950   18.5960  -26.7020 C   0  0  0  0  0  0  0  0  0  0  0  0
   -3.0250   21.9000  -27.2480 C   0  0  0  0  0  0  0  0  0  0  0  0
   -7.4260   22.8280  -30.4210 C   0  0  0  0  0  0  0  0  0  0  0  0
   -8.3280   21.9480  -31.0280 C   0  0  0  0  0  0  0  0  0  0  0  0
   -7.7544   18.2383  -30.8663 H   0  0  0  0  0  0  0  0  0  0  0  0
   -7.8585   17.2659  -32.3730 H   0  0  0  0  0  0  0  0  0  0  0  0
   -6.9761   18.8305  -32.3730 H   0  0  0  0  0  0  0  0  0  0  0  0
   -9.6389   18.4467  -33.1309 H   0  0  0  0  0  0  0  0  0  0  0  0
   -9.7716   19.0854  -31.4563 H   0  0  0  0  0  0  0  0  0  0  0  0
   -6.3322   20.7861  -33.5555 H   0  0  0  0  0  0  0  0  0  0  0  0
   -4.7343   22.3741  -32.4843 H   0  0  0  0  0  0  0  0  0  0  0  0
   -2.4733   24.5640  -30.3628 H   0  0  0  0  0  0  0  0  0  0  0  0
   -1.7961   23.8157  -28.8437 H   0  0  0  0  0  0  0  0  0  0  0  0
    0.7662   20.7661  -31.4379 H   0  0  0  0  0  0  0  0  0  0  0  0
   -1.4330   20.4045  -32.8655 H   0  0  0  0  0  0  0  0  0  0  0  0
   -4.9167   22.6559  -27.7400 H   0  0  0  0  0  0  0  0  0  0  0  0
   -4.2275   25.1494  -27.6432 H   0  0  0  0  0  0  0  0  0  0  0  0
   -4.2692   24.1932  -26.0940 H   0  0  0  0  0  0  0  0  0  0  0  0
   -2.7780   26.8335  -26.6595 H   0  0  0  0  0  0  0  0  0  0  0  0
    1.3502   25.6927  -26.1243 H   0  0  0  0  0  0  0  0  0  0  0  0
    0.7260   23.4130  -26.4100 H   0  0  0  0  0  0  0  0  0  0  0  0
    0.2212   21.7855  -26.0637 H   0  0  0  0  0  0  0  0  0  0  0  0
   -1.1804   20.7979  -25.4308 H   0  0  0  0  0  0  0  0  0  0  0  0
    1.2924   21.0316  -28.3887 H   0  0  0  0  0  0  0  0  0  0  0  0
   -0.7830   17.3657  -28.7626 H   0  0  0  0  0  0  0  0  0  0  0  0
   -2.1050   18.6670  -25.6209 H   0  0  0  0  0  0  0  0  0  0  0  0
   -3.1501   19.2353  -26.9668 H   0  0  0  0  0  0  0  0  0  0  0  0
   -2.5214   17.5526  -26.9668 H   0  0  0  0  0  0  0  0  0  0  0  0
   -2.8845   21.1301  -28.0210 H   0  0  0  0  0  0  0  0  0  0  0  0
   -3.5687   21.5382  -26.3628 H   0  0  0  0  0  0  0  0  0  0  0  0
   -7.7312   23.3952  -29.5293 H   0  0  0  0  0  0  0  0  0  0  0  0
   -9.3414   21.8313  -30.6165 H   0  0  0  0  0  0  0  0  0  0  0  0
  1  2  1  0
  2  3  1  0
  3  4  1  0
  4  5  2  0
  5  6  1  0
  6  7  2  0
  7  8  1  0
  8  9  2  0
  8 10  2  0
  8 11  1  0
 11 12  1  0
 12 13  1  0
 13 14  2  0
 14 15  1  0
 15 16  2  0
 16 17  1  0
 11 18  1  0
 18 19  1  0
 19 20  1  0
 20 21  2  0
 21 22  1  0
 22 23  1  0
 23 24  3  0
 22 25  2  0
 25 26  1  0
 26 27  2  0
 27 28  1  0
 28 29  1  0
 29 30  1  0
 30 31  2  0
 31 32  1  0
 32 33  2  0
 33 34  1  0
 34 35  1  0
 28 36  1  0
  7 37  1  0
 37 38  2  0
 38  4  1  0
 17 13  1  0
 36 18  1  0
 27 20  1  0
 34 30  1  0
  1 39  1  0
  1 40  1  0
  1 41  1  0
  2 42  1  0
  2 43  1  0
  5 44  1  0
  6 45  1  0
 12 46  1  0
 12 47  1  0
 15 48  1  0
 16 49  1  0
 18 50  1  6
 19 51  1  0
 19 52  1  0
 21 53  1  0
 25 54  1  0
 26 55  1  0
 29 56  1  0
 29 57  1  0
 31 58  1  0
 33 59  1  0
 35 60  1  0
 35 61  1  0
 35 62  1  0
 36 63  1  0
 36 64  1  0
 37 65  1  0
 38 66  1  0
M  CHG  2  17  -1  26   1
M  END
>  <UniqueID>  (13) 
10

>  <SMILES>  (13) 
CCOc1ccc(S(=O)(=O)N(Cc2ncc[n-]2)[C@@H]2Cc3cc(C#N)c[nH+]c3N(Cc3cncn3C)C2)cc1

>  <Energy>  (13) 
137.9657259580682

>  <Genealogy>  (13) 
CCOc1ccc(S(=O)(=O)N(Cc2ncc[n-]2)C2Cc3cc(C#N)c[nH+]c3N(Cc3cncn3C)C2)cc1 (protonated)
CCOc1ccc(S(=O)(=O)N(Cc2ncc[n-]2)[C@@H]2Cc3cc(C#N)c[nH+]c3N(Cc3cncn3C)C2)cc1 (chirality)
CCOc1ccc(S(=O)(=O)N(Cc2ncc[n-]2)[C@@H]2Cc3cc(C#N)c[nH+]c3N(Cc3cncn3C)C2)cc1 (3D coordinates assigned)
CCOc1ccc(S(=O)(=O)N(Cc2ncc[n-]2)[C@@H]2Cc3cc(C#N)c[nH+]c3N(Cc3cncn3C)C2)cc1 (nonaromatic ring conformer: 137.9657259580682 kcal/mol)

>  <smiles>  (13) 
CCOc1ccc(S(=O)(=O)N(Cc2ncc[nH]2)C2Cc3cc(C#N)cnc3N(Cc3cncn3C)C2)cc1

>  <score_type>  (13) 
oracle

>  <origin>  (13) 
adg

>  <m_score__min__energy>  (13) 
-10.19

>  <m_primary>  (13) 
energy

$$$$
13:0
     RDKit          3D

 42 43  0  0  0  0  0  0  0  0999 V2000
   -3.8630   24.0150  -28.0850 C   0  0  0  0  0  0  0  0  0  0  0  0
   -2.8530   24.5590  -29.4450 S   0  0  0  0  0  0  0  0  0  0  0  0
   -1.8310   25.5410  -28.9430 O   0  0  0  0  0  0  0  0  0  0  0  0
   -2.1430   23.3690  -30.0250 O   0  0  0  0  0  0  0  0  0  0  0  0
   -3.8720   25.2590  -30.6740 N   0  0  0  0  0  0  0  0  0  0  0  0
   -5.1970   25.6190  -30.1620 C   0  0  0  0  0  0  0  0  0  0  0  0
   -6.2900   24.6760  -30.6840 C   0  0  0  0  0  0  0  0  0  0  0  0
   -6.0110   23.2120  -30.3190 C   0  0  0  0  0  0  0  0  0  0  0  0
   -5.8380   22.3910  -31.5270 N   0  0  0  0  0  0  0  0  0  0  0  0
   -7.0020   22.1230  -32.3870 C   0  0  0  0  0  0  0  0  0  0  0  0
   -7.3470   20.6610  -32.3840 C   0  0  0  0  0  0  0  0  0  0  0  0
   -6.5900   19.7420  -33.1260 C   0  0  0  0  0  0  0  0  0  0  0  0
   -6.9110   18.3850  -33.0690 C   0  0  0  0  0  0  0  0  0  0  0  0
   -7.9750   17.9560  -32.2740 C   0  0  0  0  0  0  0  0  0  0  0  0
   -8.7040   18.8950  -31.5440 C   0  0  0  0  0  0  0  0  0  0  0  0
   -8.3760   20.2140  -31.6110 N   0  0  0  0  0  0  0  0  0  0  0  0
   -4.5500   21.8000  -31.8200 C   0  0  0  0  0  0  0  0  0  0  0  0
   -3.8500   21.0770  -30.8350 C   0  0  0  0  0  0  0  0  0  0  0  0
   -2.6140   20.4930  -31.1270 C   0  0  0  0  0  0  0  0  0  0  0  0
   -2.0600   20.6250  -32.4030 C   0  0  0  0  0  0  0  0  0  0  0  0
   -0.5100   19.8910  -32.7680 Cl  0  0  0  0  0  0  0  0  0  0  0  0
   -2.7430   21.3440  -33.3880 C   0  0  0  0  0  0  0  0  0  0  0  0
   -3.9800   21.9280  -33.1000 C   0  0  0  0  0  0  0  0  0  0  0  0
   -3.3732   24.2788  -27.1360 H   0  0  0  0  0  0  0  0  0  0  0  0
   -4.8460   24.5057  -28.1391 H   0  0  0  0  0  0  0  0  0  0  0  0
   -3.9942   22.9242  -28.1391 H   0  0  0  0  0  0  0  0  0  0  0  0
   -5.1791   25.5684  -29.0633 H   0  0  0  0  0  0  0  0  0  0  0  0
   -5.4310   26.6362  -30.5093 H   0  0  0  0  0  0  0  0  0  0  0  0
   -7.2541   24.9734  -30.2458 H   0  0  0  0  0  0  0  0  0  0  0  0
   -6.3095   24.7541  -31.7811 H   0  0  0  0  0  0  0  0  0  0  0  0
   -5.0933   23.1606  -29.7147 H   0  0  0  0  0  0  0  0  0  0  0  0
   -6.8689   22.8230  -29.7510 H   0  0  0  0  0  0  0  0  0  0  0  0
   -7.8637   22.6969  -32.0155 H   0  0  0  0  0  0  0  0  0  0  0  0
   -6.7546   22.4230  -33.4160 H   0  0  0  0  0  0  0  0  0  0  0  0
   -5.7508   20.0880  -33.7473 H   0  0  0  0  0  0  0  0  0  0  0  0
   -6.3270   17.6554  -33.6491 H   0  0  0  0  0  0  0  0  0  0  0  0
   -8.2360   16.8886  -32.2236 H   0  0  0  0  0  0  0  0  0  0  0  0
   -9.5446   18.5690  -30.9138 H   0  0  0  0  0  0  0  0  0  0  0  0
   -4.2792   20.9709  -29.8278 H   0  0  0  0  0  0  0  0  0  0  0  0
   -2.0765   19.9285  -30.3509 H   0  0  0  0  0  0  0  0  0  0  0  0
   -2.3062   21.4505  -34.3919 H   0  0  0  0  0  0  0  0  0  0  0  0
   -4.5120   22.4921  -33.8803 H   0  0  0  0  0  0  0  0  0  0  0  0
  1  2  1  0
  2  3  2  0
  2  4  2  0
  2  5  1  0
  5  6  1  0
  6  7  1  0
  7  8  1  0
  8  9  1  0
  9 10  1  0
 10 11  1  0
 11 12  2  0
 12 13  1  0
 13 14  2  0
 14 15  1  0
 15 16  2  0
  9 17  1  0
 17 18  2  0
 18 19  1  0
 19 20  2  0
 20 21  1  0
 20 22  1  0
 22 23  2  0
 16 11  1  0
 23 17  1  0
  1 24  1  0
  1 25  1  0
  1 26  1  0
  6 27  1  0
  6 28  1  0
  7 29  1  0
  7 30  1  0
  8 31  1  0
  8 32  1  0
 10 33  1  0
 10 34  1  0
 12 35  1  0
 13 36  1  0
 14 37  1  0
 15 38  1  0
 18 39  1  0
 19 40  1  0
 22 41  1  0
 23 42  1  0
M  CHG  1   5  -1
M  END
>  <UniqueID>  (14) 
11

>  <SMILES>  (14) 
CS(=O)(=O)[N-]CCCN(Cc1ccccn1)c1ccc(Cl)cc1

>  <Energy>  (14) 
35.78848486117558

>  <Genealogy>  (14) 
CS(=O)(=O)[N-]CCCN(Cc1ccccn1)c1ccc(Cl)cc1 (protonated)
CS(=O)(=O)[N-]CCCN(Cc1ccccn1)c1ccc(Cl)cc1 (3D coordinates assigned)
CS(=O)(=O)[N-]CCCN(Cc1ccccn1)c1ccc(Cl)cc1 (optimized conformer: 35.78848486117558 kcal/mol)

>  <smiles>  (14) 
CS(=O)(=O)NCCCN(Cc1ccccn1)c1ccc(Cl)cc1

>  <score_type>  (14) 
oracle

>  <origin>  (14) 
adg

>  <m_score__min__energy>  (14) 
-9.5999999999999996

>  <m_primary>  (14) 
energy

$$$$
14:0
     RDKit          3D

 49 51  0  0  0  0  0  0  0  0999 V2000
   -2.0320   25.2950  -26.9050 C   0  0  0  0  0  0  0  0  0  0  0  0
   -1.0620   25.5610  -28.0510 C   0  0  0  0  0  0  0  0  0  0  0  0
   -1.6910   25.2900  -29.3410 N   0  0  0  0  0  0  0  0  0  0  0  0
   -2.5290   24.1760  -29.6880 C   0  0  0  0  0  0  0  0  0  0  0  0
   -2.0300   23.0210  -29.6310 O   0  0  0  0  0  0  0  0  0  0  0  0
   -3.9460   24.3260  -30.0990 C   0  0  0  0  0  0  0  0  0  0  0  0
   -4.8200   23.2260  -30.0540 C   0  0  0  0  0  0  0  0  0  0  0  0
   -6.1560   23.3790  -30.4350 C   0  0  0  0  0  0  0  0  0  0  0  0
   -7.0080   22.2670  -30.3740 O   0  0  0  0  0  0  0  0  0  0  0  0
   -6.9890   21.1790  -31.2580 C   0  0  0  0  0  0  0  0  0  0  0  0
   -8.1880   20.4570  -31.4660 C   0  0  0  0  0  0  0  0  0  0  0  0
   -8.2230   19.3530  -32.3350 C   0  0  0  0  0  0  0  0  0  0  0  0
   -7.0360   18.9870  -32.9630 C   0  0  0  0  0  0  0  0  0  0  0  0
   -6.8380   17.9840  -33.8330 N   0  0  0  0  0  0  0  0  0  0  0  0
   -5.5210   18.0670  -34.1460 C   0  0  0  0  0  0  0  0  0  0  0  0
   -4.8720   17.1570  -35.1530 C   0  0  0  0  0  0  0  0  0  0  0  0
   -4.3620   15.9370  -34.4960 N   0  0  0  0  0  0  0  0  0  0  0  0
   -3.0640   16.1950  -33.8460 C   0  0  0  0  0  0  0  0  0  0  0  0
   -5.3300   15.4650  -33.4930 C   0  0  0  0  0  0  0  0  0  0  0  0
   -4.8910   19.0840  -33.4950 N   0  0  0  0  0  0  0  0  0  0  0  0
   -3.4920   19.4910  -33.6270 C   0  0  0  0  0  0  0  0  0  0  0  0
   -5.8650   19.6600  -32.7570 C   0  0  0  0  0  0  0  0  0  0  0  0
   -5.7980   20.7650  -31.9040 C   0  0  0  0  0  0  0  0  0  0  0  0
   -6.6160   24.6490  -30.8210 C   0  0  0  0  0  0  0  0  0  0  0  0
   -5.7250   25.7210  -30.8460 C   0  0  0  0  0  0  0  0  0  0  0  0
   -4.4280   25.5380  -30.4880 N   0  0  0  0  0  0  0  0  0  0  0  0
   -1.5135   25.4372  -25.9453 H   0  0  0  0  0  0  0  0  0  0  0  0
   -2.8786   25.9941  -26.9715 H   0  0  0  0  0  0  0  0  0  0  0  0
   -2.4036   24.2618  -26.9715 H   0  0  0  0  0  0  0  0  0  0  0  0
   -0.7466   26.6143  -28.0185 H   0  0  0  0  0  0  0  0  0  0  0  0
   -0.1934   24.8957  -27.9373 H   0  0  0  0  0  0  0  0  0  0  0  0
   -4.4525   22.2448  -29.7189 H   0  0  0  0  0  0  0  0  0  0  0  0
   -9.1045   20.7638  -30.9408 H   0  0  0  0  0  0  0  0  0  0  0  0
   -9.1558   18.7977  -32.5126 H   0  0  0  0  0  0  0  0  0  0  0  0
   -7.5420   17.3050  -34.1990 H   0  0  0  0  0  0  0  0  0  0  0  0
   -5.6127   16.8745  -35.9156 H   0  0  0  0  0  0  0  0  0  0  0  0
   -4.0293   17.6876  -35.6202 H   0  0  0  0  0  0  0  0  0  0  0  0
   -3.1896   16.1700  -32.7535 H   0  0  0  0  0  0  0  0  0  0  0  0
   -2.3419   15.4228  -34.1498 H   0  0  0  0  0  0  0  0  0  0  0  0
   -2.6921   17.1846  -34.1498 H   0  0  0  0  0  0  0  0  0  0  0  0
   -4.9359   15.6572  -32.4842 H   0  0  0  0  0  0  0  0  0  0  0  0
   -6.2825   15.9998  -33.6226 H   0  0  0  0  0  0  0  0  0  0  0  0
   -5.4952   14.3852  -33.6226 H   0  0  0  0  0  0  0  0  0  0  0  0
   -3.0515   19.6191  -32.6272 H   0  0  0  0  0  0  0  0  0  0  0  0
   -2.9354   18.7175  -34.1765 H   0  0  0  0  0  0  0  0  0  0  0  0
   -3.4372   20.4423  -34.1765 H   0  0  0  0  0  0  0  0  0  0  0  0
   -4.8495   21.2971  -31.7392 H   0  0  0  0  0  0  0  0  0  0  0  0
   -7.6695   24.7963  -31.1010 H   0  0  0  0  0  0  0  0  0  0  0  0
   -6.0734   26.7171  -31.1564 H   0  0  0  0  0  0  0  0  0  0  0  0
  1  2  1  0
  2  3  1  0
  3  4  1  0
  4  5  2  0
  4  6  1  0
  6  7  2  0
  7  8  1  0
  8  9  1  0
  9 10  1  0
 10 11  2  0
 11 12  1  0
 12 13  2  0
 13 14  1  0
 14 15  2  0
 15 16  1  0
 16 17  1  0
 17 18  1  0
 17 19  1  0
 15 20  1  0
 20 21  1  0
 20 22  1  0
 22 23  2  0
  8 24  2  0
 24 25  1  0
 25 26  2  0
 26  6  1  0
 23 10  1  0
 22 13  1  0
  1 27  1  0
  1 28  1  0
  1 29  1  0
  2 30  1  0
  2 31  1  0
  7 32  1  0
 11 33  1  0
 12 34  1  0
 14 35  1  0
 16 36  1  0
 16 37  1  0
 18 38  1  0
 18 39  1  0
 18 40  1  0
 19 41  1  0
 19 42  1  0
 19 43  1  0
 21 44  1  0
 21 45  1  0
 21 46  1  0
 23 47  1  0
 24 48  1  0
 25 49  1  0
M  CHG  2   3  -1  14   1
M  END
>  <UniqueID>  (15) 
12

>  <SMILES>  (15) 
CC[N-]C(=O)c1cc(Oc2ccc3[nH+]c(CN(C)C)n(C)c3c2)ccn1

>  <Energy>  (15) 
95.01153840369922

>  <Genealogy>  (15) 
CC[N-]C(=O)c1cc(Oc2ccc3[nH+]c(CN(C)C)n(C)c3c2)ccn1 (protonated)
CC[N-]C(=O)c1cc(Oc2ccc3[nH+]c(CN(C)C)n(C)c3c2)ccn1 (3D coordinates assigned)
CC[N-]C(=O)c1cc(Oc2ccc3[nH+]c(CN(C)C)n(C)c3c2)ccn1 (optimized conformer: 95.01153840369922 kcal/mol)

>  <smiles>  (15) 
CCNC(=O)c1cc(Oc2ccc3nc(CN(C)C)n(C)c3c2)ccn1

>  <score_type>  (15) 
oracle

>  <origin>  (15) 
adg

>  <m_score__min__energy>  (15) 
-8.5099999999999998

>  <m_primary>  (15) 
energy

$$$$
15:0
     RDKit          3D

 34 36  0  0  0  0  0  0  0  0999 V2000
   -9.8270   21.5760  -31.5150 C   0  0  0  0  0  0  0  0  0  0  0  0
   -8.5000   21.8920  -30.8180 C   0  0  0  0  0  0  0  0  0  0  0  0
   -7.3470   22.2580  -31.7860 C   0  0  2  0  0  0  0  0  0  0  0  0
   -6.5920   21.0910  -32.4230 C   0  0  0  0  0  0  0  0  0  0  0  0
   -5.2610   21.1880  -32.8830 C   0  0  0  0  0  0  0  0  0  0  0  0
   -4.6100   20.0790  -33.4300 C   0  0  0  0  0  0  0  0  0  0  0  0
   -5.2620   18.8420  -33.5100 C   0  0  0  0  0  0  0  0  0  0  0  0
   -4.6150   17.7240  -34.0590 C   0  0  0  0  0  0  0  0  0  0  0  0
   -5.2760   16.4940  -34.1250 C   0  0  0  0  0  0  0  0  0  0  0  0
   -6.5830   16.3710  -33.6440 C   0  0  0  0  0  0  0  0  0  0  0  0
   -7.2370   17.4790  -33.0960 C   0  0  0  0  0  0  0  0  0  0  0  0
   -6.5850   18.7190  -33.0260 C   0  0  0  0  0  0  0  0  0  0  0  0
   -7.2320   19.8370  -32.4780 C   0  0  0  0  0  0  0  0  0  0  0  0
   -6.4220   23.1980  -31.1370 N   0  0  0  0  0  0  0  0  0  0  0  0
   -6.1610   23.3310  -29.8230 C   0  0  0  0  0  0  0  0  0  0  0  0
   -5.2840   24.3790  -29.6670 C   0  0  0  0  0  0  0  0  0  0  0  0
   -5.0010   24.9150  -30.8720 N   0  0  0  0  0  0  0  0  0  0  0  0
   -5.7160   24.1730  -31.7430 C   0  0  0  0  0  0  0  0  0  0  0  0
  -10.6037   21.3911  -30.7583 H   0  0  0  0  0  0  0  0  0  0  0  0
  -10.1232   22.4287  -32.1436 H   0  0  0  0  0  0  0  0  0  0  0  0
   -9.7071   20.6813  -32.1436 H   0  0  0  0  0  0  0  0  0  0  0  0
   -8.6613   22.7405  -30.1369 H   0  0  0  0  0  0  0  0  0  0  0  0
   -8.1929   20.9762  -30.2917 H   0  0  0  0  0  0  0  0  0  0  0  0
   -7.8469   22.7329  -32.6431 H   0  0  0  0  0  0  0  0  0  0  0  0
   -4.7297   22.1484  -32.8100 H   0  0  0  0  0  0  0  0  0  0  0  0
   -3.5789   20.1782  -33.8001 H   0  0  0  0  0  0  0  0  0  0  0  0
   -3.5864   17.8158  -34.4378 H   0  0  0  0  0  0  0  0  0  0  0  0
   -4.7662   15.6201  -34.5568 H   0  0  0  0  0  0  0  0  0  0  0  0
   -7.0981   15.4005  -33.6967 H   0  0  0  0  0  0  0  0  0  0  0  0
   -8.2654   17.3779  -32.7189 H   0  0  0  0  0  0  0  0  0  0  0  0
   -8.2543   19.7329  -32.0854 H   0  0  0  0  0  0  0  0  0  0  0  0
   -6.5764   22.7102  -29.0155 H   0  0  0  0  0  0  0  0  0  0  0  0
   -4.8759   24.7268  -28.7066 H   0  0  0  0  0  0  0  0  0  0  0  0
   -5.7220   24.3451  -32.8294 H   0  0  0  0  0  0  0  0  0  0  0  0
  1  2  1  0
  2  3  1  0
  3  4  1  0
  4  5  2  0
  5  6  1  0
  6  7  2  0
  7  8  1  0
  8  9  2  0
  9 10  1  0
 10 11  2  0
 11 12  1  0
 12 13  2  0
  3 14  1  0
 14 15  1  0
 15 16  2  0
 16 17  1  0
 17 18  2  0
 13  4  1  0
 18 14  1  0
 12  7  1  0
  1 19  1  0
  1 20  1  0
  1 21  1  0
  2 22  1  0
  2 23  1  0
  3 24  1  6
  5 25  1  0
  6 26  1  0
  8 27  1  0
  9 28  1  0
 10 29  1  0
 11 30  1  0
 13 31  1  0
 15 32  1  0
 16 33  1  0
 18 34  1  0
M  END
>  <UniqueID>  (16) 
13

>  <SMILES>  (16) 
CC[C@H](c1ccc2ccccc2c1)n1ccnc1

>  <Energy>  (16) 
70.30102371135979

>  <Genealogy>  (16) 
CC[C@H](c1ccc2ccccc2c1)n1ccnc1 (chirality)
CC[C@H](c1ccc2ccccc2c1)n1ccnc1 (3D coordinates assigned)
CC[C@H](c1ccc2ccccc2c1)n1ccnc1 (optimized conformer: 70.30102371135979 kcal/mol)

>  <smiles>  (16) 
CCC(c1ccc2ccccc2c1)n1ccnc1

>  <score_type>  (16) 
oracle

>  <origin>  (16) 
adg

>  <m_score__min__energy>  (16) 
-7.5

>  <m_primary>  (16) 
energy

$$$$
16:0
     RDKit          3D

 46 47  0  0  1  0  0  0  0  0999 V2000
   -6.7130   24.7090  -29.7800 C   0  0  0  0  0  0  0  0  0  0  0  0
   -5.2270   24.9080  -29.5750 C   0  0  0  0  0  0  0  0  0  0  0  0
   -4.6870   23.8210  -28.6450 C   0  0  0  0  0  0  0  0  0  0  0  0
   -4.5860   24.6570  -30.8560 N   0  0  0  0  0  0  0  0  0  0  0  0
   -4.3780   23.4120  -31.2090 C   0  0  0  0  0  0  0  0  0  0  0  0
   -3.0910   23.0160  -31.2770 N   0  0  0  0  0  0  0  0  0  0  0  0
   -2.8660   21.7290  -31.6430 C   0  0  0  0  0  0  0  0  0  0  0  0
   -1.5300   21.3020  -31.7170 N   0  0  0  0  0  0  0  0  0  0  0  0
   -0.7810   21.0990  -30.4710 C   0  0  0  0  0  0  0  0  0  0  0  0
   -0.8530   21.0520  -32.9730 C   0  0  0  0  0  0  0  0  0  0  0  0
   -3.8790   20.8930  -31.9230 N   0  0  0  0  0  0  0  0  0  0  0  0
   -5.1580   21.3040  -31.8510 C   0  0  0  0  0  0  0  0  0  0  0  0
   -6.2660   20.4540  -32.1390 N   0  0  0  0  0  0  0  0  0  0  0  0
   -6.1320   19.0320  -31.8440 C   0  0  0  0  0  0  0  0  0  0  0  0
   -7.3060   18.2160  -32.2720 C   0  0  0  0  0  0  0  0  0  0  0  0
   -8.6010   18.5590  -31.6050 C   0  0  0  0  0  0  0  0  0  0  0  0
   -9.3210   19.7100  -32.2760 C   0  0  0  0  0  0  0  0  0  0  0  0
   -8.6450   20.9920  -31.8630 C   0  0  0  0  0  0  0  0  0  0  0  0
   -7.4030   21.1570  -32.7030 C   0  0  0  0  0  0  0  0  0  0  0  0
   -5.4110   22.5830  -31.4890 N   0  0  0  0  0  0  0  0  0  0  0  0
   -7.2123   24.6421  -28.8021 H   0  0  0  0  0  0  0  0  0  0  0  0
   -7.1227   25.5603  -30.3434 H   0  0  0  0  0  0  0  0  0  0  0  0
   -6.8842   23.7799  -30.3434 H   0  0  0  0  0  0  0  0  0  0  0  0
   -5.0406   25.9138  -29.1706 H   0  0  0  0  0  0  0  0  0  0  0  0
   -4.8381   24.1252  -27.5988 H   0  0  0  0  0  0  0  0  0  0  0  0
   -5.2216   22.8783  -28.8336 H   0  0  0  0  0  0  0  0  0  0  0  0
   -3.6128   23.6775  -28.8336 H   0  0  0  0  0  0  0  0  0  0  0  0
   -1.4436   21.2786  -29.6115 H   0  0  0  0  0  0  0  0  0  0  0  0
   -0.4040   20.0663  -30.4339 H   0  0  0  0  0  0  0  0  0  0  0  0
    0.0659   21.8000  -30.4339 H   0  0  0  0  0  0  0  0  0  0  0  0
    0.1619   20.6772  -32.7742 H   0  0  0  0  0  0  0  0  0  0  0  0
   -1.4145   20.3019  -33.5493 H   0  0  0  0  0  0  0  0  0  0  0  0
   -0.7923   21.9870  -33.5493 H   0  0  0  0  0  0  0  0  0  0  0  0
   -3.6620   19.9190  -32.1980 H   0  0  0  0  0  0  0  0  0  0  0  0
   -5.2386   18.6529  -32.3617 H   0  0  0  0  0  0  0  0  0  0  0  0
   -6.0565   18.9368  -30.7507 H   0  0  0  0  0  0  0  0  0  0  0  0
   -7.4361   18.3503  -33.3560 H   0  0  0  0  0  0  0  0  0  0  0  0
   -7.0788   17.1800  -31.9802 H   0  0  0  0  0  0  0  0  0  0  0  0
   -9.2539   17.6741  -31.6295 H   0  0  0  0  0  0  0  0  0  0  0  0
   -8.3707   18.8684  -30.5748 H   0  0  0  0  0  0  0  0  0  0  0  0
   -9.2680   19.5962  -33.3688 H   0  0  0  0  0  0  0  0  0  0  0  0
  -10.3790   19.7239  -31.9753 H   0  0  0  0  0  0  0  0  0  0  0  0
   -9.3234   21.8418  -32.0291 H   0  0  0  0  0  0  0  0  0  0  0  0
   -8.3820   20.9580  -30.7954 H   0  0  0  0  0  0  0  0  0  0  0  0
   -7.6007   20.7614  -33.7102 H   0  0  0  0  0  0  0  0  0  0  0  0
   -7.1564   22.2285  -32.7367 H   0  0  0  0  0  0  0  0  0  0  0  0
  1  2  1  0
  2  3  1  0
  2  4  1  0
  4  5  2  0
  5  6  1  0
  6  7  2  0
  7  8  1  0
  8  9  1  0
  8 10  1  0
  7 11  1  0
 11 12  1  0
 12 13  1  0
 13 14  1  0
 14 15  1  0
 15 16  1  0
 16 17  1  0
 17 18  1  0
 18 19  1  0
 12 20  2  0
 20  5  1  0
 19 13  1  0
  1 21  1  0
  1 22  1  0
  1 23  1  0
  2 24  1  0
  3 25  1  0
  3 26  1  0
  3 27  1  0
  9 28  1  0
  9 29  1  0
  9 30  1  0
 10 31  1  0
 10 32  1  0
 10 33  1  0
 11 34  1  0
 14 35  1  0
 14 36  1  0
 15 37  1  0
 15 38  1  0
 16 39  1  0
 16 40  1  0
 17 41  1  0
 17 42  1  0
 18 43  1  0
 18 44  1  0
 19 45  1  0
 19 46  1  0
M  END
>  <smiles>  (17) 
CC(C)N=c1nc(N(C)C)[nH]c(N2CCCCCC2)n1

>  <score_type>  (17) 
oracle

>  <origin>  (17) 
adg

>  <m_score__min__energy>  (17) 
-5.4199999999999999

>  <m_primary>  (17) 
energy

$$$$
17:0
     RDKit          3D

 59 60  0  0  0  0  0  0  0  0999 V2000
   -0.5181   24.9255  -28.4261 H   0  0  0  0  0  0  0  0  0  0  0  0
   -1.5750   24.6230  -28.4650 C   0  0  0  0  0  0  0  0  0  0  0  0
   -2.3270   24.9200  -29.5580 N   0  0  0  0  0  0  0  0  0  0  0  0
   -3.6390   24.5710  -29.6550 C   0  0  0  0  0  0  0  0  0  0  0  0
   -4.2870   24.8910  -30.7380 N   0  0  0  0  0  0  0  0  0  0  0  0
   -0.8170   20.1310  -29.1420 C   0  0  0  0  0  0  0  0  0  0  0  0
    0.2781   20.0277  -29.1445 H   0  0  0  0  0  0  0  0  0  0  0  0
   -1.2822   19.1607  -29.3702 H   0  0  0  0  0  0  0  0  0  0  0  0
   -6.5300   24.3680  -31.5720 C   0  0  0  0  0  0  0  0  0  0  0  0
   -6.7199   24.7568  -32.5833 H   0  0  0  0  0  0  0  0  0  0  0  0
   -7.4697   24.2350  -31.0159 H   0  0  0  0  0  0  0  0  0  0  0  0
   -5.8460   22.9970  -31.6870 C   0  0  0  0  0  0  0  0  0  0  0  0
   -6.5797   22.2568  -32.0390 H   0  0  0  0  0  0  0  0  0  0  0  0
   -5.4587   22.7133  -30.6973 H   0  0  0  0  0  0  0  0  0  0  0  0
   -4.7260   23.0490  -32.6310 N   0  0  0  0  0  0  0  0  0  0  0  0
   -4.9260   23.4060  -33.5920 H   0  0  0  0  0  0  0  0  0  0  0  0
   -2.4490   21.3350  -30.4890 C   0  0  0  0  0  0  0  0  0  0  0  0
   -3.1260   21.3740  -33.4750 N   0  0  0  0  0  0  0  0  0  0  0  0
   -3.0810   21.7380  -34.4520 H   0  0  0  0  0  0  0  0  0  0  0  0
   -3.2640   19.9290  -33.3000 C   0  0  0  0  0  0  0  0  0  0  0  0
   -2.9871   19.4254  -34.2379 H   0  0  0  0  0  0  0  0  0  0  0  0
   -2.6021   19.6113  -32.4809 H   0  0  0  0  0  0  0  0  0  0  0  0
   -4.6770   19.5600  -32.9430 C   0  0  0  0  0  0  0  0  0  0  0  0
   -5.7620   20.2390  -33.5230 C   0  0  0  0  0  0  0  0  0  0  0  0
   -5.5811   21.0166  -34.2797 H   0  0  0  0  0  0  0  0  0  0  0  0
   -7.0710   19.9290  -33.1410 C   0  0  0  0  0  0  0  0  0  0  0  0
   -7.9172   20.4641  -33.5965 H   0  0  0  0  0  0  0  0  0  0  0  0
   -7.3060   18.9400  -32.1810 C   0  0  0  0  0  0  0  0  0  0  0  0
   -9.0950   18.5290  -31.6510 Br  0  0  0  0  0  0  0  0  0  0  0  0
   -6.2310   18.2580  -31.6040 C   0  0  0  0  0  0  0  0  0  0  0  0
   -6.4166   17.4773  -30.8517 H   0  0  0  0  0  0  0  0  0  0  0  0
   -4.9200   18.5660  -31.9810 C   0  0  0  0  0  0  0  0  0  0  0  0
   -4.0768   18.0283  -31.5228 H   0  0  0  0  0  0  0  0  0  0  0  0
   -2.7820   22.4170  -31.3720 N   0  0  0  0  0  0  0  0  0  0  0  0
   -2.4610   23.3670  -31.0860 H   0  0  0  0  0  0  0  0  0  0  0  0
   -3.5180   22.2910  -32.4460 C   0  0  0  0  0  0  0  0  0  0  0  0
   -1.2140   21.1050  -30.1550 N   0  0  0  0  0  0  0  0  0  0  0  0
   -5.6660   25.3730  -30.8100 C   0  0  0  0  0  0  0  0  0  0  0  0
   -5.6871   26.3412  -31.3316 H   0  0  0  0  0  0  0  0  0  0  0  0
   -6.0619   25.4908  -29.7905 H   0  0  0  0  0  0  0  0  0  0  0  0
   -1.2790   20.5990  -27.7620 C   0  0  0  0  0  0  0  0  0  0  0  0
   -2.1763   21.2238  -27.8820 H   0  0  0  0  0  0  0  0  0  0  0  0
   -0.4547   21.1656  -27.3043 H   0  0  0  0  0  0  0  0  0  0  0  0
   -1.6160   19.4220  -26.8320 C   0  0  0  0  0  0  0  0  0  0  0  0
   -1.2096   19.6353  -25.8323 H   0  0  0  0  0  0  0  0  0  0  0  0
   -1.1694   18.5156  -27.2666 H   0  0  0  0  0  0  0  0  0  0  0  0
   -3.1200   19.1830  -26.7080 C   0  0  0  0  0  0  0  0  0  0  0  0
   -3.3978   19.1389  -25.6446 H   0  0  0  0  0  0  0  0  0  0  0  0
   -3.6634   20.0061  -27.1951 H   0  0  0  0  0  0  0  0  0  0  0  0
   -3.3815   18.2320  -27.1951 H   0  0  0  0  0  0  0  0  0  0  0  0
   -3.4830   20.5170  -29.9400 N   0  0  0  0  0  0  0  0  0  0  0  0
   -3.2500   19.7210  -29.3060 H   0  0  0  0  0  0  0  0  0  0  0  0
   -4.4860   20.7210  -30.1460 H   0  0  0  0  0  0  0  0  0  0  0  0
   -4.2460   23.8790  -28.5870 C   0  0  0  0  0  0  0  0  0  0  0  0
   -5.3057   23.5894  -28.6437 H   0  0  0  0  0  0  0  0  0  0  0  0
   -3.4890   23.5650  -27.4570 C   0  0  0  0  0  0  0  0  0  0  0  0
   -3.9520   23.0264  -26.6170 H   0  0  0  0  0  0  0  0  0  0  0  0
   -2.1430   23.9350  -27.3930 C   0  0  0  0  0  0  0  0  0  0  0  0
   -1.5388   23.6867  -26.5080 H   0  0  0  0  0  0  0  0  0  0  0  0
  1  2  1  0
  2  3  1  0
  3  4  1  0
  4  5  2  0
  5  6  1  0
  6  7  1  0
  6  8  1  0
  6  9  1  0
  9 10  1  0
  9 11  1  0
  9 12  1  0
 12 13  1  0
 12 14  1  0
 12 15  1  0
 15 16  1  0
 15 17  1  0
 17 18  1  0
 18 19  1  0
 18 20  1  0
 20 21  1  0
 20 22  1  0
 20 23  1  0
 23 24  2  0
 24 25  1  0
 24 26  1  0
 26 27  1  0
 26 28  2  0
 28 29  1  0
 28 30  1  0
 30 31  1  0
 30 32  2  0
 32 33  1  0
 17 34  2  0
 34 35  1  0
 34 36  1  0
 36 37  2  0
 37 38  1  0
 38 39  1  0
 38 40  1  0
 38 41  1  0
 41 42  1  0
 41 43  1  0
 41 44  1  0
 44 45  1  0
 44 46  1  0
 44 47  1  0
 47 48  1  0
 47 49  1  0
 47 50  1  0
 36 51  1  0
 51 52  1  0
 51 53  1  0
  4 54  1  0
 54 55  1  0
 54 56  2  0
 56 57  1  0
 56 58  1  0
 58 59  1  0
 58  2  2  0
 32 23  1  0
M  CHG  2   3  -1  34   1
M  END
>  <UniqueID>  (18) 
14

>  <SMILES>  (18) 
CCCC/N=C(/N)[NH+]=C(NCCC/N=c1\cccc[n-]1)NCc1ccc(Br)cc1

>  <Energy>  (18) 
53.1563881219629

>  <Genealogy>  (18) 
CCCCN=C(N)[NH+]=C(NCCCN=c1cccc[n-]1)NCc1ccc(Br)cc1 (protonated)
CCCC/N=C(/N)[NH+]=C(NCCC/N=c1\cccc[n-]1)NCc1ccc(Br)cc1 (cis-trans isomerization)
CCCC/N=C(/N)[NH+]=C(NCCC/N=c1\cccc[n-]1)NCc1ccc(Br)cc1 (3D coordinates assigned)
CCCC/N=C(/N)[NH+]=C(NCCC/N=c1\cccc[n-]1)NCc1ccc(Br)cc1 (optimized conformer: 53.1563881219629 kcal/mol)

>  <smiles>  (18) 
CCCCN=C(N)N=C(NCCCN=c1cccc[nH]1)NCc1ccc(Br)cc1

>  <score_type>  (18) 
oracle

>  <origin>  (18) 
adg

>  <m_score__min__energy>  (18) 
-10.550000000000001

>  <m_primary>  (18) 
energy

$$$$
18:0
     RDKit          3D

 41 42  0  0  0  0  0  0  0  0999 V2000
   -2.3890   19.3520  -26.6970 C   0  0  0  0  0  0  0  0  0  0  0  0
   -1.6490   20.4650  -26.7200 C   0  0  0  0  0  0  0  0  0  0  0  0
   -0.9180   20.9010  -27.9590 C   0  0  0  0  0  0  0  0  0  0  0  0
   -1.6970   21.9620  -28.6910 C   0  0  0  0  0  0  0  0  0  0  0  0
   -2.6220   21.5980  -29.6760 C   0  0  0  0  0  0  0  0  0  0  0  0
   -3.3400   22.5810  -30.3790 C   0  0  0  0  0  0  0  0  0  0  0  0
   -4.2850   22.2450  -31.3640 O   0  0  0  0  0  0  0  0  0  0  0  0
   -3.9620   21.7720  -32.6660 C   0  0  0  0  0  0  0  0  0  0  0  0
   -3.1270   23.9410  -30.1000 C   0  0  0  0  0  0  0  0  0  0  0  0
   -3.9090   24.8660  -30.8200 O   0  0  0  0  0  0  0  0  0  0  0  0
   -5.2440   25.2820  -30.5210 C   0  0  0  0  0  0  0  0  0  0  0  0
   -6.2350   24.1780  -30.7880 C   0  0  0  0  0  0  0  0  0  0  0  0
   -6.6420   23.8860  -32.1010 C   0  0  0  0  0  0  0  0  0  0  0  0
   -7.5580   22.8580  -32.3430 C   0  0  0  0  0  0  0  0  0  0  0  0
   -8.0650   22.1060  -31.2790 C   0  0  0  0  0  0  0  0  0  0  0  0
   -7.6500   22.3760  -29.9730 C   0  0  0  0  0  0  0  0  0  0  0  0
   -6.7340   23.4030  -29.7260 C   0  0  0  0  0  0  0  0  0  0  0  0
   -2.1570   24.3180  -29.1380 C   0  0  0  0  0  0  0  0  0  0  0  0
   -1.8840   25.6770  -28.9180 O   0  0  0  0  0  0  0  0  0  0  0  0
   -1.1430   26.1990  -27.8170 C   0  0  0  0  0  0  0  0  0  0  0  0
   -1.4600   23.3180  -28.4350 C   0  0  0  0  0  0  0  0  0  0  0  0
   -2.9125   19.0586  -25.7751 H   0  0  0  0  0  0  0  0  0  0  0  0
   -2.4744   18.7296  -27.5999 H   0  0  0  0  0  0  0  0  0  0  0  0
   -1.5731   21.0773  -25.8093 H   0  0  0  0  0  0  0  0  0  0  0  0
    0.0646   21.3058  -27.6749 H   0  0  0  0  0  0  0  0  0  0  0  0
   -0.7955   20.0317  -28.6217 H   0  0  0  0  0  0  0  0  0  0  0  0
   -2.7885   20.5344  -29.9019 H   0  0  0  0  0  0  0  0  0  0  0  0
   -3.3434   20.8661  -32.5840 H   0  0  0  0  0  0  0  0  0  0  0  0
   -4.8881   21.5356  -33.2104 H   0  0  0  0  0  0  0  0  0  0  0  0
   -3.4047   22.5485  -33.2104 H   0  0  0  0  0  0  0  0  0  0  0  0
   -5.3015   25.5661  -29.4599 H   0  0  0  0  0  0  0  0  0  0  0  0
   -5.4941   26.1365  -31.1670 H   0  0  0  0  0  0  0  0  0  0  0  0
   -6.2381   24.4688  -32.9420 H   0  0  0  0  0  0  0  0  0  0  0  0
   -7.8803   22.6405  -33.3720 H   0  0  0  0  0  0  0  0  0  0  0  0
   -8.7907   21.3018  -31.4704 H   0  0  0  0  0  0  0  0  0  0  0  0
   -8.0446   21.7795  -29.1372 H   0  0  0  0  0  0  0  0  0  0  0  0
   -6.4024   23.6056  -28.6969 H   0  0  0  0  0  0  0  0  0  0  0  0
   -1.6070   25.8721  -26.8748 H   0  0  0  0  0  0  0  0  0  0  0  0
   -0.1080   25.8295  -27.8635 H   0  0  0  0  0  0  0  0  0  0  0  0
   -1.1424   27.2980  -27.8635 H   0  0  0  0  0  0  0  0  0  0  0  0
   -0.7192   23.6054  -27.6743 H   0  0  0  0  0  0  0  0  0  0  0  0
  1  2  2  0
  2  3  1  0
  3  4  1  0
  4  5  2  0
  5  6  1  0
  6  7  1  0
  7  8  1  0
  6  9  2  0
  9 10  1  0
 10 11  1  0
 11 12  1  0
 12 13  2  0
 13 14  1  0
 14 15  2  0
 15 16  1  0
 16 17  2  0
  9 18  1  0
 18 19  1  0
 19 20  1  0
 18 21  2  0
 21  4  1  0
 17 12  1  0
  1 22  1  0
  1 23  1  0
  2 24  1  0
  3 25  1  0
  3 26  1  0
  5 27  1  0
  8 28  1  0
  8 29  1  0
  8 30  1  0
 11 31  1  0
 11 32  1  0
 13 33  1  0
 14 34  1  0
 15 35  1  0
 16 36  1  0
 17 37  1  0
 20 38  1  0
 20 39  1  0
 20 40  1  0
 21 41  1  0
M  END
>  <UniqueID>  (19) 
15

>  <SMILES>  (19) 
C=CCc1cc(OC)c(OCc2ccccc2)c(OC)c1

>  <Energy>  (19) 
39.39147238132675

>  <Genealogy>  (19) 
C=CCc1cc(OC)c(OCc2ccccc2)c(OC)c1 (3D coordinates assigned)
C=CCc1cc(OC)c(OCc2ccccc2)c(OC)c1 (optimized conformer: 39.39147238132675 kcal/mol)

>  <smiles>  (19) 
C=CCc1cc(OC)c(OCc2ccccc2)c(OC)c1

>  <score_type>  (19) 
oracle

>  <origin>  (19) 
adg

>  <m_score__min__energy>  (19) 
-7.3600000000000003

>  <m_primary>  (19) 
energy

$$$$
19:0
     RDKit          3D

 30 31  0  0  0  0  0  0  0  0999 V2000
   -5.3829   22.0639  -28.7718 H   0  0  0  0  0  0  0  0  0  0  0  0
   -4.4740   22.6820  -28.7300 C   0  0  0  0  0  0  0  0  0  0  0  0
   -3.5610   22.6510  -29.7840 C   0  0  0  0  0  0  0  0  0  0  0  0
   -3.7393   21.9929  -30.6472 H   0  0  0  0  0  0  0  0  0  0  0  0
   -2.4200   23.4560  -29.7430 C   0  0  0  0  0  0  0  0  0  0  0  0
   -1.7055   23.4300  -30.5790 H   0  0  0  0  0  0  0  0  0  0  0  0
   -2.1750   24.2990  -28.6450 C   0  0  0  0  0  0  0  0  0  0  0  0
   -1.0570   25.1970  -28.6920 N   0  0  0  0  0  0  0  0  0  0  0  0
   -1.2360   26.4060  -28.9450 O   0  0  0  0  0  0  0  0  0  0  0  0
    0.1660   24.7940  -28.2060 O   0  0  0  0  0  0  0  0  0  0  0  0
   -3.0810   24.2900  -27.5510 C   0  0  0  0  0  0  0  0  0  0  0  0
   -2.8530   25.0230  -26.3400 N   0  0  0  0  0  0  0  0  0  0  0  0
   -2.0900   26.0390  -26.2850 N   0  0  0  0  0  0  0  0  0  0  0  0
   -1.1240   26.2010  -25.2430 C   0  0  0  0  0  0  0  0  0  0  0  0
   -0.6780   27.4090  -24.7490 C   0  0  0  0  0  0  0  0  0  0  0  0
   -1.0052   28.4055  -25.0804 H   0  0  0  0  0  0  0  0  0  0  0  0
    0.2310   27.1500  -23.7870 N   0  0  0  0  0  0  0  0  0  0  0  0
    1.0110   28.1420  -23.0600 C   0  0  0  0  0  0  0  0  0  0  0  0
    0.8874   27.9848  -21.9783 H   0  0  0  0  0  0  0  0  0  0  0  0
    2.0734   28.0401  -23.3263 H   0  0  0  0  0  0  0  0  0  0  0  0
    0.6613   29.1504  -23.3263 H   0  0  0  0  0  0  0  0  0  0  0  0
    0.3920   25.8390  -23.6700 N   0  0  0  0  0  0  0  0  0  0  0  0
    1.0610   25.3770  -23.0130 H   0  0  0  0  0  0  0  0  0  0  0  0
   -0.4310   25.2240  -24.5410 C   0  0  0  0  0  0  0  0  0  0  0  0
   -0.5230   23.7400  -24.7070 C   0  0  0  0  0  0  0  0  0  0  0  0
   -0.5527   23.2614  -23.7170 H   0  0  0  0  0  0  0  0  0  0  0  0
   -1.4384   23.4893  -25.2630 H   0  0  0  0  0  0  0  0  0  0  0  0
    0.3544   23.3781  -25.2630 H   0  0  0  0  0  0  0  0  0  0  0  0
   -4.2350   23.4970  -27.6220 C   0  0  0  0  0  0  0  0  0  0  0  0
   -4.9604   23.5172  -26.7953 H   0  0  0  0  0  0  0  0  0  0  0  0
  1  2  1  0
  2  3  2  0
  3  4  1  0
  3  5  1  0
  5  6  1  0
  5  7  2  0
  7  8  1  0
  8  9  2  0
  8 10  1  0
  7 11  1  0
 11 12  1  0
 12 13  2  0
 13 14  1  0
 14 15  2  0
 15 16  1  0
 15 17  1  0
 17 18  1  0
 18 19  1  0
 18 20  1  0
 18 21  1  0
 17 22  1  0
 22 23  1  0
 22 24  2  0
 24 25  1  0
 25 26  1  0
 25 27  1  0
 25 28  1  0
 11 29  2  0
 29 30  1  0
 29  2  1  0
 24 14  1  0
M  CHG  3   8   1  10  -1  22   1
M  END
>  <UniqueID>  (20) 
16

>  <SMILES>  (20) 
Cc1[nH+]n(C)cc1/N=N/c1ccccc1[N+](=O)[O-]

>  <Energy>  (20) 
68.25056868120176

>  <Genealogy>  (20) 
Cc1[nH+]n(C)cc1N=Nc1ccccc1[N+](=O)[O-] (protonated)
Cc1[nH+]n(C)cc1/N=N/c1ccccc1[N+](=O)[O-] (cis-trans isomerization)
Cc1[nH+]n(C)cc1/N=N/c1ccccc1[N+](=O)[O-] (3D coordinates assigned)
Cc1[nH+]n(C)cc1/N=N/c1ccccc1[N+](=O)[O-] (optimized conformer: 68.25056868120176 kcal/mol)

>  <smiles>  (20) 
Cc1nn(C)cc1N=Nc1ccccc1[N+](=O)[O-]

>  <score_type>  (20) 
oracle

>  <origin>  (20) 
adg

>  <m_score__min__energy>  (20) 
-6.96

>  <m_primary>  (20) 
energy

$$$$
20:0
     RDKit          3D

 51 54  0  0  0  0  0  0  0  0999 V2000
   -3.2154   21.4826  -33.6957 H   0  0  0  0  0  0  0  0  0  0  0  0
   -3.7570   21.2420  -32.7690 C   0  0  0  0  0  0  0  0  0  0  0  0
   -4.6830   20.2710  -32.8310 C   0  0  0  0  0  0  0  0  0  0  0  0
   -4.3539   19.2455  -32.6074 H   0  0  0  0  0  0  0  0  0  0  0  0
   -6.1460   20.4710  -33.1840 C   0  0  2  0  0  0  0  0  0  0  0  0
   -6.2046   20.9927  -34.1506 H   0  0  0  0  0  0  0  0  0  0  0  0
   -6.7950   21.3440  -32.0810 C   0  0  0  0  0  0  0  0  0  0  0  0
   -6.3111   21.1185  -31.1192 H   0  0  0  0  0  0  0  0  0  0  0  0
   -6.6571   22.3995  -32.3584 H   0  0  0  0  0  0  0  0  0  0  0  0
   -8.2920   21.0830  -31.9520 C   0  0  0  0  0  0  0  0  0  0  0  0
   -8.7212   21.7865  -31.2234 H   0  0  0  0  0  0  0  0  0  0  0  0
   -8.7647   21.2224  -32.9354 H   0  0  0  0  0  0  0  0  0  0  0  0
   -8.5450   19.6460  -31.4770 C   0  0  0  0  0  0  0  0  0  0  0  0
   -8.3374   19.5961  -30.3979 H   0  0  0  0  0  0  0  0  0  0  0  0
   -9.5924   19.4098  -31.7163 H   0  0  0  0  0  0  0  0  0  0  0  0
   -7.6660   18.5820  -32.1950 C   0  0  2  0  0  0  0  0  0  0  0  0
   -8.3697   17.8213  -32.5640 H   0  0  0  0  0  0  0  0  0  0  0  0
   -6.6880   17.8830  -31.2230 C   0  0  0  0  0  0  0  0  0  0  0  0
   -6.1282   18.6568  -30.6773 H   0  0  0  0  0  0  0  0  0  0  0  0
   -7.2937   17.2536  -30.5544 H   0  0  0  0  0  0  0  0  0  0  0  0
   -5.6740   16.9510  -31.9260 C   0  0  0  0  0  0  0  0  0  0  0  0
   -4.6754   17.4073  -31.8587 H   0  0  0  0  0  0  0  0  0  0  0  0
   -5.7194   15.9769  -31.4171 H   0  0  0  0  0  0  0  0  0  0  0  0
   -5.9990   16.7070  -33.4040 C   0  0  0  0  0  0  0  0  0  0  0  0
   -5.2018   16.0927  -33.8480 H   0  0  0  0  0  0  0  0  0  0  0  0
   -6.9698   16.1931  -33.4623 H   0  0  0  0  0  0  0  0  0  0  0  0
   -6.1060   18.0270  -34.1860 C   0  0  0  0  0  0  0  0  0  0  0  0
   -5.0897   18.4100  -34.3608 H   0  0  0  0  0  0  0  0  0  0  0  0
   -6.6380   17.8027  -35.1223 H   0  0  0  0  0  0  0  0  0  0  0  0
   -6.9290   19.1320  -33.4480 C   0  0  2  0  0  0  0  0  0  0  0  0
   -7.7111   19.4304  -34.1616 H   0  0  0  0  0  0  0  0  0  0  0  0
   -3.4070   22.0110  -31.5630 C   0  0  0  0  0  0  0  0  0  0  0  0
   -3.7740   23.2870  -31.4940 O   0  0  0  0  0  0  0  0  0  0  0  0
   -3.5260   24.0590  -30.4390 C   0  0  0  0  0  0  0  0  0  0  0  0
   -3.8800   25.2680  -30.4700 O   0  0  0  0  0  0  0  0  0  0  0  0
   -2.8580   23.5330  -29.3130 C   0  0  0  0  0  0  0  0  0  0  0  0
   -2.5670   24.3560  -28.1120 C   0  0  0  0  0  0  0  0  0  0  0  0
   -3.5420   24.5410  -27.1150 C   0  0  0  0  0  0  0  0  0  0  0  0
   -4.5339   24.0790  -27.2274 H   0  0  0  0  0  0  0  0  0  0  0  0
   -3.2570   25.3090  -25.9820 C   0  0  0  0  0  0  0  0  0  0  0  0
   -4.0254   25.4514  -25.2079 H   0  0  0  0  0  0  0  0  0  0  0  0
   -1.9980   25.8960  -25.8310 C   0  0  0  0  0  0  0  0  0  0  0  0
   -1.7765   26.5012  -24.9395 H   0  0  0  0  0  0  0  0  0  0  0  0
   -1.0200   25.7140  -26.8130 C   0  0  0  0  0  0  0  0  0  0  0  0
   -0.0290   26.1762  -26.6937 H   0  0  0  0  0  0  0  0  0  0  0  0
   -1.3000   24.9450  -27.9470 C   0  0  0  0  0  0  0  0  0  0  0  0
   -0.5253   24.7998  -28.7143 H   0  0  0  0  0  0  0  0  0  0  0  0
   -2.4670   22.1890  -29.3550 C   0  0  0  0  0  0  0  0  0  0  0  0
   -1.9369   21.7435  -28.5003 H   0  0  0  0  0  0  0  0  0  0  0  0
   -2.7490   21.4170  -30.4780 C   0  0  0  0  0  0  0  0  0  0  0  0
   -2.4596   20.3563  -30.5133 H   0  0  0  0  0  0  0  0  0  0  0  0
  1  2  1  0
  2  3  2  0
  3  4  1  0
  3  5  1  0
  5  6  1  6
  5  7  1  0
  7  8  1  0
  7  9  1  0
  7 10  1  0
 10 11  1  0
 10 12  1  0
 10 13  1  0
 13 14  1  0
 13 15  1  0
 13 16  1  0
 16 17  1  6
 16 18  1  0
 18 19  1  0
 18 20  1  0
 18 21  1  0
 21 22  1  0
 21 23  1  0
 21 24  1  0
 24 25  1  0
 24 26  1  0
 24 27  1  0
 27 28  1  0
 27 29  1  0
 27 30  1  0
 30 31  1  6
  2 32  1  0
 32 33  1  0
 33 34  1  0
 34 35  2  0
 34 36  1  0
 36 37  1  0
 37 38  2  0
 38 39  1  0
 38 40  1  0
 40 41  1  0
 40 42  2  0
 42 43  1  0
 42 44  1  0
 44 45  1  0
 44 46  2  0
 46 47  1  0
 36 48  2  0
 48 49  1  0
 48 50  1  0
 50 51  1  0
 30  5  1  0
 50 32  2  0
 30 16  1  0
 46 37  1  0
M  END
>  <UniqueID>  (21) 
17

>  <SMILES>  (21) 
O=c1oc(/C=C\[C@@H]2CCC[C@@H]3CCCCC32)ccc1-c1ccccc1

>  <Energy>  (21) 
82.14957446940875

>  <Genealogy>  (21) 
O=c1oc(C=C[C@@H]2CCC[C@@H]3CCCCC32)ccc1-c1ccccc1 (chirality)
O=c1oc(/C=C\[C@@H]2CCC[C@@H]3CCCCC32)ccc1-c1ccccc1 (cis-trans isomerization)
O=c1oc(/C=C\[C@@H]2CCC[C@@H]3CCCCC32)ccc1-c1ccccc1 (3D coordinates assigned)
O=c1oc(/C=C\[C@@H]2CCC[C@@H]3CCCCC32)ccc1-c1ccccc1 (nonaromatic ring conformer: 82.14957446940875 kcal/mol)

>  <smiles>  (21) 
O=c1oc(C=CC2CCCC3CCCCC23)ccc1-c1ccccc1

>  <score_type>  (21) 
oracle

>  <origin>  (21) 
adg

>  <m_score__min__energy>  (21) 
-10.74

>  <m_primary>  (21) 
energy

$$$$
21:0
     RDKit          3D

 53 55  0  0  0  0  0  0  0  0999 V2000
   -3.1010   13.5940  -32.0570 C   0  0  0  0  0  0  0  0  0  0  0  0
   -4.6260   13.5950  -32.0010 C   0  0  0  0  0  0  0  0  0  0  0  0
   -5.2330   13.3750  -33.3990 C   0  0  0  0  0  0  0  0  0  0  0  0
   -4.8550   14.4420  -34.3430 N   0  0  0  0  0  0  0  0  0  0  0  0
   -5.1480   15.7510  -33.8130 C   0  0  0  0  0  0  0  0  0  0  0  0
   -4.1300   16.7150  -33.7000 C   0  0  0  0  0  0  0  0  0  0  0  0
   -4.4010   17.9780  -33.1690 C   0  0  0  0  0  0  0  0  0  0  0  0
   -5.6990   18.3030  -32.7380 C   0  0  0  0  0  0  0  0  0  0  0  0
   -6.0140   19.5640  -32.1910 C   0  0  0  0  0  0  0  0  0  0  0  0
   -5.0220   20.5880  -32.0570 N   0  0  0  0  0  0  0  0  0  0  0  0
   -4.9350   21.6600  -33.0560 C   0  0  0  0  0  0  0  0  0  0  0  0
   -4.7700   23.0150  -32.3560 C   0  0  0  0  0  0  0  0  0  0  0  0
   -3.8140   22.9490  -31.2360 N   0  0  0  0  0  0  0  0  0  0  0  0
   -3.6390   24.1240  -30.4090 C   0  0  0  0  0  0  0  0  0  0  0  0
   -4.0400   25.2440  -30.8280 O   0  0  0  0  0  0  0  0  0  0  0  0
   -3.0210   24.0560  -29.0400 C   0  0  0  0  0  0  0  0  0  0  0  0
   -2.0500   25.1440  -28.8750 N   0  0  0  0  0  0  0  0  0  0  0  0
   -0.7210   24.6080  -28.5810 C   0  0  0  0  0  0  0  0  0  0  0  0
   -3.0900   21.6920  -30.9870 C   0  0  0  0  0  0  0  0  0  0  0  0
   -4.0860   20.5330  -30.9270 C   0  0  0  0  0  0  0  0  0  0  0  0
   -7.3220   19.8240  -31.7670 C   0  0  0  0  0  0  0  0  0  0  0  0
   -8.2990   18.8360  -31.8910 C   0  0  0  0  0  0  0  0  0  0  0  0
   -7.9850   17.6270  -32.4230 N   0  0  0  0  0  0  0  0  0  0  0  0
   -6.7250   17.3340  -32.8450 C   0  0  0  0  0  0  0  0  0  0  0  0
   -6.4460   16.0730  -33.3810 C   0  0  0  0  0  0  0  0  0  0  0  0
   -2.6965   13.5937  -31.0341 H   0  0  0  0  0  0  0  0  0  0  0  0
   -2.7542   12.6956  -32.5887 H   0  0  0  0  0  0  0  0  0  0  0  0
   -2.7530   14.4919  -32.5887 H   0  0  0  0  0  0  0  0  0  0  0  0
   -4.9614   12.7881  -31.3328 H   0  0  0  0  0  0  0  0  0  0  0  0
   -4.9608   14.5730  -31.6251 H   0  0  0  0  0  0  0  0  0  0  0  0
   -4.8772   12.4113  -33.7923 H   0  0  0  0  0  0  0  0  0  0  0  0
   -6.3283   13.3855  -33.2976 H   0  0  0  0  0  0  0  0  0  0  0  0
   -5.3380   14.2950  -35.2600 H   0  0  0  0  0  0  0  0  0  0  0  0
   -3.8260   14.3750  -34.5250 H   0  0  0  0  0  0  0  0  0  0  0  0
   -3.1103   16.4717  -34.0332 H   0  0  0  0  0  0  0  0  0  0  0  0
   -3.5949   18.7220  -33.0876 H   0  0  0  0  0  0  0  0  0  0  0  0
   -4.0690   21.4796  -33.7099 H   0  0  0  0  0  0  0  0  0  0  0  0
   -5.8576   21.6721  -33.6549 H   0  0  0  0  0  0  0  0  0  0  0  0
   -4.4072   23.7507  -33.0889 H   0  0  0  0  0  0  0  0  0  0  0  0
   -5.7491   23.3065  -31.9482 H   0  0  0  0  0  0  0  0  0  0  0  0
   -3.8093   24.1523  -28.2789 H   0  0  0  0  0  0  0  0  0  0  0  0
   -2.5064   23.0909  -28.9228 H   0  0  0  0  0  0  0  0  0  0  0  0
   -1.9890   25.6740  -29.7770 H   0  0  0  0  0  0  0  0  0  0  0  0
   -0.5812   24.5516  -27.4914 H   0  0  0  0  0  0  0  0  0  0  0  0
   -0.6272   23.6017  -29.0153 H   0  0  0  0  0  0  0  0  0  0  0  0
    0.0447   25.2676  -29.0153 H   0  0  0  0  0  0  0  0  0  0  0  0
   -2.3709   21.5157  -31.8006 H   0  0  0  0  0  0  0  0  0  0  0  0
   -2.5515   21.7625  -30.0304 H   0  0  0  0  0  0  0  0  0  0  0  0
   -3.5345   19.5819  -30.9621 H   0  0  0  0  0  0  0  0  0  0  0  0
   -4.6594   20.6102  -29.9914 H   0  0  0  0  0  0  0  0  0  0  0  0
   -7.5788   20.8036  -31.3376 H   0  0  0  0  0  0  0  0  0  0  0  0
   -9.3274   19.0372  -31.5566 H   0  0  0  0  0  0  0  0  0  0  0  0
   -7.2495   15.3265  -33.4653 H   0  0  0  0  0  0  0  0  0  0  0  0
  1  2  1  0
  2  3  1  0
  3  4  1  0
  4  5  1  0
  5  6  2  0
  6  7  1  0
  7  8  2  0
  8  9  1  0
  9 10  1  0
 10 11  1  0
 11 12  1  0
 12 13  1  0
 13 14  1  0
 14 15  2  0
 14 16  1  0
 16 17  1  0
 17 18  1  0
 13 19  1  0
 19 20  1  0
  9 21  2  0
 21 22  1  0
 22 23  2  0
 23 24  1  0
 24 25  2  0
 25  5  1  0
 24  8  1  0
 20 10  1  0
  1 26  1  0
  1 27  1  0
  1 28  1  0
  2 29  1  0
  2 30  1  0
  3 31  1  0
  3 32  1  0
  4 33  1  0
  4 34  1  0
  6 35  1  0
  7 36  1  0
 11 37  1  0
 11 38  1  0
 12 39  1  0
 12 40  1  0
 16 41  1  0
 16 42  1  0
 17 43  1  0
 18 44  1  0
 18 45  1  0
 18 46  1  0
 19 47  1  0
 19 48  1  0
 20 49  1  0
 20 50  1  0
 21 51  1  0
 22 52  1  0
 25 53  1  0
M  CHG  1   4   1
M  END
>  <UniqueID>  (22) 
18

>  <SMILES>  (22) 
CCC[NH2+]c1ccc2c(N3CCN(C(=O)CNC)CC3)ccnc2c1

>  <Energy>  (22) 
58.288847600110095

>  <Genealogy>  (22) 
CCC[NH2+]c1ccc2c(N3CCN(C(=O)CNC)CC3)ccnc2c1 (protonated)
CCC[NH2+]c1ccc2c(N3CCN(C(=O)CNC)CC3)ccnc2c1 (3D coordinates assigned)
CCC[NH2+]c1ccc2c(N3CCN(C(=O)CNC)CC3)ccnc2c1 (nonaromatic ring conformer: 58.288847600110095 kcal/mol)

>  <smiles>  (22) 
CCCNc1ccc2c(N3CCN(C(=O)CNC)CC3)ccnc2c1

>  <score_type>  (22) 
oracle

>  <origin>  (22) 
adg

>  <m_score__min__energy>  (22) 
-7.21

>  <m_primary>  (22) 
energy

$$$$
22:0
     RDKit          3D

 41 43  0  0  0  0  0  0  0  0999 V2000
   -3.7810   23.9630  -27.7750 O   0  0  0  0  0  0  0  0  0  0  0  0
   -3.5630   24.4950  -28.8950 C   0  0  0  0  0  0  0  0  0  0  0  0
   -2.3830   25.2950  -29.0550 N   0  0  0  0  0  0  0  0  0  0  0  0
   -0.9960   24.8840  -28.8450 C   0  0  0  0  0  0  0  0  0  0  0  0
   -0.6110   24.8130  -27.3570 C   0  0  0  0  0  0  0  0  0  0  0  0
   -1.6050   25.5220  -26.4210 C   0  0  0  0  0  0  0  0  0  0  0  0
   -0.9180   26.1530  -25.2940 N   0  0  0  0  0  0  0  0  0  0  0  0
   -0.8880   27.4650  -24.9940 C   0  0  0  0  0  0  0  0  0  0  0  0
   -0.1510   27.6240  -23.8390 C   0  0  0  0  0  0  0  0  0  0  0  0
    0.2620   26.4130  -23.4210 N   0  0  0  0  0  0  0  0  0  0  0  0
   -0.2210   25.5340  -24.3190 C   0  0  0  0  0  0  0  0  0  0  0  0
   -4.5570   24.3210  -29.9660 C   0  0  0  0  0  0  0  0  0  0  0  0
   -5.7490   23.6390  -29.8370 C   0  0  0  0  0  0  0  0  0  0  0  0
   -6.3630   23.8380  -31.0540 C   0  0  0  0  0  0  0  0  0  0  0  0
   -7.7450   23.4090  -31.4220 C   0  0  0  0  0  0  0  0  0  0  0  0
   -7.7150   21.9770  -31.8820 C   0  0  0  0  0  0  0  0  0  0  0  0
   -6.5600   21.4510  -32.4850 C   0  0  0  0  0  0  0  0  0  0  0  0
   -6.5060   20.1010  -32.8440 C   0  0  0  0  0  0  0  0  0  0  0  0
   -7.5980   19.2660  -32.5970 C   0  0  0  0  0  0  0  0  0  0  0  0
   -8.7470   19.7790  -31.9880 C   0  0  0  0  0  0  0  0  0  0  0  0
   -8.8050   21.1280  -31.6250 C   0  0  0  0  0  0  0  0  0  0  0  0
   -5.5710   24.5480  -31.8220 O   0  0  0  0  0  0  0  0  0  0  0  0
   -4.4700   24.8550  -31.2000 N   0  0  0  0  0  0  0  0  0  0  0  0
   -0.8532   23.8892  -29.2923 H   0  0  0  0  0  0  0  0  0  0  0  0
   -0.3524   25.6413  -29.3166 H   0  0  0  0  0  0  0  0  0  0  0  0
   -0.5545   23.7542  -27.0641 H   0  0  0  0  0  0  0  0  0  0  0  0
    0.3528   25.3326  -27.2516 H   0  0  0  0  0  0  0  0  0  0  0  0
   -2.1440   26.2941  -26.9896 H   0  0  0  0  0  0  0  0  0  0  0  0
   -2.3040   24.7709  -26.0245 H   0  0  0  0  0  0  0  0  0  0  0  0
   -1.3678   28.2702  -25.5698 H   0  0  0  0  0  0  0  0  0  0  0  0
    0.0636   28.5815  -23.3420 H   0  0  0  0  0  0  0  0  0  0  0  0
    0.8380   26.2000  -22.5770 H   0  0  0  0  0  0  0  0  0  0  0  0
   -0.0665   24.4463  -24.2645 H   0  0  0  0  0  0  0  0  0  0  0  0
   -6.1202   23.0723  -28.9704 H   0  0  0  0  0  0  0  0  0  0  0  0
   -8.4035   23.4997  -30.5456 H   0  0  0  0  0  0  0  0  0  0  0  0
   -8.1260   24.0484  -32.2320 H   0  0  0  0  0  0  0  0  0  0  0  0
   -5.6953   22.1037  -32.6752 H   0  0  0  0  0  0  0  0  0  0  0  0
   -5.6019   19.6957  -33.3218 H   0  0  0  0  0  0  0  0  0  0  0  0
   -7.5539   18.2044  -32.8817 H   0  0  0  0  0  0  0  0  0  0  0  0
   -9.6066   19.1205  -31.7941 H   0  0  0  0  0  0  0  0  0  0  0  0
   -9.7067   21.5260  -31.1367 H   0  0  0  0  0  0  0  0  0  0  0  0
  1  2  2  0
  2  3  1  0
  3  4  1  0
  4  5  1  0
  5  6  1  0
  6  7  1  0
  7  8  1  0
  8  9  2  0
  9 10  1  0
 10 11  2  0
  2 12  1  0
 12 13  1  0
 13 14  2  0
 14 15  1  0
 15 16  1  0
 16 17  2  0
 17 18  1  0
 18 19  2  0
 19 20  1  0
 20 21  2  0
 14 22  1  0
 22 23  1  0
 11  7  1  0
 23 12  2  0
 21 16  1  0
  4 24  1  0
  4 25  1  0
  5 26  1  0
  5 27  1  0
  6 28  1  0
  6 29  1  0
  8 30  1  0
  9 31  1  0
 10 32  1  0
 11 33  1  0
 13 34  1  0
 15 35  1  0
 15 36  1  0
 17 37  1  0
 18 38  1  0
 19 39  1  0
 20 40  1  0
 21 41  1  0
M  CHG  2   3  -1  10   1
M  END
>  <UniqueID>  (23) 
19

>  <SMILES>  (23) 
O=C([N-]CCCn1cc[nH+]c1)c1cc(Cc2ccccc2)on1

>  <Energy>  (23) 
96.02295324320457

>  <Genealogy>  (23) 
O=C([N-]CCCn1cc[nH+]c1)c1cc(Cc2ccccc2)on1 (protonated)
O=C([N-]CCCn1cc[nH+]c1)c1cc(Cc2ccccc2)on1 (3D coordinates assigned)
O=C([N-]CCCn1cc[nH+]c1)c1cc(Cc2ccccc2)on1 (optimized conformer: 96.02295324320457 kcal/mol)

>  <smiles>  (23) 
O=C(NCCCn1ccnc1)c1cc(Cc2ccccc2)on1

>  <score_type>  (23) 
oracle

>  <origin>  (23) 
adg

>  <m_score__min__energy>  (23) 
-10.5

>  <m_primary>  (23) 
energy

$$$$
23:0
     RDKit          3D

 15 15  0  0  0  0  0  0  0  0999 V2000
   -5.6879   25.4586  -31.5727 H   0  0  0  0  0  0  0  0  0  0  0  0
   -5.1010   24.8790  -30.8450 C   0  0  0  0  0  0  0  0  0  0  0  0
   -3.8620   25.2990  -30.4830 N   0  0  0  0  0  0  0  0  0  0  0  0
   -3.0820   24.6320  -29.5890 C   0  0  0  0  0  0  0  0  0  0  0  0
   -1.9100   25.1460  -29.3300 N   0  0  0  0  0  0  0  0  0  0  0  0
   -1.3330   25.5660  -28.0590 C   0  0  0  0  0  0  0  0  0  0  0  0
   -1.9190   25.1395  -27.2315 H   0  0  0  0  0  0  0  0  0  0  0  0
   -0.2937   25.2116  -27.9932 H   0  0  0  0  0  0  0  0  0  0  0  0
   -1.3509   26.6639  -27.9932 H   0  0  0  0  0  0  0  0  0  0  0  0
   -3.5910   23.4330  -29.0050 C   0  0  0  0  0  0  0  0  0  0  0  0
   -2.7450   22.4260  -27.8320 Cl  0  0  0  0  0  0  0  0  0  0  0  0
   -4.8690   22.9950  -29.3750 C   0  0  0  0  0  0  0  0  0  0  0  0
   -5.2774   22.0734  -28.9348 H   0  0  0  0  0  0  0  0  0  0  0  0
   -5.6280   23.7150  -30.2950 C   0  0  0  0  0  0  0  0  0  0  0  0
   -7.2280   23.1610  -30.7550 Cl  0  0  0  0  0  0  0  0  0  0  0  0
  1  2  1  0
  2  3  1  0
  3  4  1  0
  4  5  2  0
  5  6  1  0
  6  7  1  0
  6  8  1  0
  6  9  1  0
  4 10  1  0
 10 11  1  0
 10 12  2  0
 12 13  1  0
 12 14  1  0
 14 15  1  0
 14  2  2  0
M  CHG  1   3  -1
M  END
>  <UniqueID>  (24) 
20

>  <SMILES>  (24) 
C/N=c1/[n-]cc(Cl)cc1Cl

>  <Energy>  (24) 
21.769500971083104

>  <Genealogy>  (24) 
CN=c1[n-]cc(Cl)cc1Cl (protonated)
C/N=c1/[n-]cc(Cl)cc1Cl (cis-trans isomerization)
C/N=c1/[n-]cc(Cl)cc1Cl (3D coordinates assigned)
C/N=c1/[n-]cc(Cl)cc1Cl (optimized conformer: 21.769500971083104 kcal/mol)

>  <smiles>  (24) 
CN=c1[nH]cc(Cl)cc1Cl

>  <score_type>  (24) 
oracle

>  <origin>  (24) 
adg

>  <m_score__min__energy>  (24) 
-6.8399999999999999

>  <m_primary>  (24) 
energy

$$$$
24:0
     RDKit          3D

 26 26  0  0  0  0  0  0  0  0999 V2000
   -6.9120   19.9110  -34.2230 N   0  0  0  0  0  0  0  0  0  0  0  0
   -6.3920   19.5950  -32.8880 C   0  0  2  0  0  0  0  0  0  0  0  0
   -7.5390   19.0310  -32.0010 C   0  0  0  0  0  0  0  0  0  0  0  0
   -8.9230   19.6700  -32.2260 C   0  0  0  0  0  0  0  0  0  0  0  0
   -9.0510   21.1610  -31.8170 C   0  0  0  0  0  0  0  0  0  0  0  0
   -7.9200   22.0940  -32.2940 C   0  0  0  0  0  0  0  0  0  0  0  0
   -6.5600   21.8600  -31.6090 C   0  0  0  0  0  0  0  0  0  0  0  0
   -5.6330   20.8190  -32.2820 C   0  0  2  0  0  0  0  0  0  0  0  0
   -4.7980   21.4800  -33.2970 N   0  0  0  0  0  0  0  0  0  0  0  0
   -7.9540   19.9910  -34.1670 H   0  0  0  0  0  0  0  0  0  0  0  0
   -6.7420   19.0930  -34.8510 H   0  0  0  0  0  0  0  0  0  0  0  0
   -5.6345   18.7996  -32.9480 H   0  0  0  0  0  0  0  0  0  0  0  0
   -7.6258   17.9532  -32.2031 H   0  0  0  0  0  0  0  0  0  0  0  0
   -7.2622   19.2648  -30.9624 H   0  0  0  0  0  0  0  0  0  0  0  0
   -9.1610   19.5919  -33.2971 H   0  0  0  0  0  0  0  0  0  0  0  0
   -9.6166   19.1198  -31.5732 H   0  0  0  0  0  0  0  0  0  0  0  0
   -9.9973   21.5424  -32.2281 H   0  0  0  0  0  0  0  0  0  0  0  0
   -8.9997   21.1717  -30.7183 H   0  0  0  0  0  0  0  0  0  0  0  0
   -7.7883   21.9472  -33.3762 H   0  0  0  0  0  0  0  0  0  0  0  0
   -8.2287   23.1163  -32.0302 H   0  0  0  0  0  0  0  0  0  0  0  0
   -6.0254   22.8211  -31.5846 H   0  0  0  0  0  0  0  0  0  0  0  0
   -6.7943   21.4507  -30.6152 H   0  0  0  0  0  0  0  0  0  0  0  0
   -4.9952   20.4015  -31.4889 H   0  0  0  0  0  0  0  0  0  0  0  0
   -4.9920   22.5070  -33.3150 H   0  0  0  0  0  0  0  0  0  0  0  0
   -5.0230   21.0920  -34.2420 H   0  0  0  0  0  0  0  0  0  0  0  0
   -3.7810   21.3210  -33.1110 H   0  0  0  0  0  0  0  0  0  0  0  0
  1  2  1  0
  2  3  1  0
  3  4  1  0
  4  5  1  0
  5  6  1  0
  6  7  1  0
  7  8  1  0
  8  9  1  0
  8  2  1  0
  1 10  1  0
  1 11  1  0
  2 12  1  6
  3 13  1  0
  3 14  1  0
  4 15  1  0
  4 16  1  0
  5 17  1  0
  5 18  1  0
  6 19  1  0
  6 20  1  0
  7 21  1  0
  7 22  1  0
  8 23  1  1
  9 24  1  0
  9 25  1  0
  9 26  1  0
M  CHG  1   9   1
M  END
>  <UniqueID>  (25) 
21

>  <SMILES>  (25) 
N[C@@H]1CCCCC[C@@H]1[NH3+]

>  <Energy>  (25) 
32.243977027067075

>  <Genealogy>  (25) 
NC1CCCCCC1[NH3+] (protonated)
N[C@@H]1CCCCC[C@@H]1[NH3+] (chirality)
N[C@@H]1CCCCC[C@@H]1[NH3+] (3D coordinates assigned)
N[C@@H]1CCCCC[C@@H]1[NH3+] (nonaromatic ring conformer: 32.243977027067075 kcal/mol)

>  <smiles>  (25) 
NC1CCCCCC1N

>  <score_type>  (25) 
oracle

>  <origin>  (25) 
adg

>  <m_score__min__energy>  (25) 
-2.9500000000000002

>  <m_primary>  (25) 
energy

$$$$
25:0
     RDKit          3D

 33 34  0  0  0  0  0  0  0  0999 V2000
   -2.9510   21.5050  -28.6820 C   0  0  0  0  0  0  0  0  0  0  0  0
   -4.2060   22.3200  -28.3830 C   0  0  0  0  0  0  0  0  0  0  0  0
   -3.9870   23.7380  -28.6860 N   0  0  0  0  0  0  0  0  0  0  0  0
   -3.0480   24.5180  -27.9220 C   0  0  0  0  0  0  0  0  0  0  0  0
   -1.8290   24.9190  -28.4940 C   0  0  0  0  0  0  0  0  0  0  0  0
   -0.9200   25.6850  -27.7600 C   0  0  0  0  0  0  0  0  0  0  0  0
   -1.2200   26.0590  -26.4460 C   0  0  0  0  0  0  0  0  0  0  0  0
   -0.0780   27.0210  -25.5250 Cl  0  0  0  0  0  0  0  0  0  0  0  0
   -2.4310   25.6670  -25.8690 C   0  0  0  0  0  0  0  0  0  0  0  0
   -3.3420   24.9010  -26.6020 C   0  0  0  0  0  0  0  0  0  0  0  0
   -4.9000   24.4900  -29.9630 S   0  0  0  0  0  0  0  0  0  0  0  0
   -5.9200   25.4240  -29.3720 O   0  0  0  0  0  0  0  0  0  0  0  0
   -3.9830   25.2970  -30.8380 O   0  0  0  0  0  0  0  0  0  0  0  0
   -5.7010   23.2530  -30.9280 C   0  0  0  0  0  0  0  0  0  0  0  0
   -4.9610   22.4270  -31.7890 C   0  0  0  0  0  0  0  0  0  0  0  0
   -5.6100   21.4590  -32.5610 C   0  0  0  0  0  0  0  0  0  0  0  0
   -6.9960   21.3090  -32.4790 C   0  0  0  0  0  0  0  0  0  0  0  0
   -7.7380   22.1290  -31.6220 C   0  0  0  0  0  0  0  0  0  0  0  0
   -7.0920   23.0980  -30.8480 C   0  0  0  0  0  0  0  0  0  0  0  0
   -2.4790   21.1985  -27.7369 H   0  0  0  0  0  0  0  0  0  0  0  0
   -3.2238   20.6113  -29.2623 H   0  0  0  0  0  0  0  0  0  0  0  0
   -2.2455   22.1178  -29.2623 H   0  0  0  0  0  0  0  0  0  0  0  0
   -5.0364   21.9433  -28.9982 H   0  0  0  0  0  0  0  0  0  0  0  0
   -4.4469   22.2196  -27.3144 H   0  0  0  0  0  0  0  0  0  0  0  0
   -1.5886   24.6278  -29.5271 H   0  0  0  0  0  0  0  0  0  0  0  0
    0.0322   25.9942  -28.2157 H   0  0  0  0  0  0  0  0  0  0  0  0
   -2.6677   25.9618  -24.8360 H   0  0  0  0  0  0  0  0  0  0  0  0
   -4.2942   24.5963  -26.1432 H   0  0  0  0  0  0  0  0  0  0  0  0
   -3.8691   22.5417  -31.8562 H   0  0  0  0  0  0  0  0  0  0  0  0
   -5.0274   20.8137  -33.2349 H   0  0  0  0  0  0  0  0  0  0  0  0
   -7.5040   20.5466  -33.0878 H   0  0  0  0  0  0  0  0  0  0  0  0
   -8.8298   22.0114  -31.5571 H   0  0  0  0  0  0  0  0  0  0  0  0
   -7.6773   23.7408  -30.1741 H   0  0  0  0  0  0  0  0  0  0  0  0
  1  2  1  0
  2  3  1  0
  3  4  1  0
  4  5  2  0
  5  6  1  0
  6  7  2  0
  7  8  1  0
  7  9  1  0
  9 10  2  0
  3 11  1  0
 11 12  2  0
 11 13  2  0
 11 14  1  0
 14 15  2  0
 15 16  1  0
 16 17  2  0
 17 18  1  0
 18 19  2  0
 10  4  1  0
 19 14  1  0
  1 20  1  0
  1 21  1  0
  1 22  1  0
  2 23  1  0
  2 24  1  0
  5 25  1  0
  6 26  1  0
  9 27  1  0
 10 28  1  0
 15 29  1  0
 16 30  1  0
 17 31  1  0
 18 32  1  0
 19 33  1  0
M  END
>  <UniqueID>  (26) 
22

>  <SMILES>  (26) 
CCN(c1ccc(Cl)cc1)S(=O)(=O)c1ccccc1

>  <Energy>  (26) 
34.75684162732077

>  <Genealogy>  (26) 
CCN(c1ccc(Cl)cc1)S(=O)(=O)c1ccccc1 (3D coordinates assigned)
CCN(c1ccc(Cl)cc1)S(=O)(=O)c1ccccc1 (optimized conformer: 34.75684162732077 kcal/mol)

>  <smiles>  (26) 
CCN(c1ccc(Cl)cc1)S(=O)(=O)c1ccccc1

>  <score_type>  (26) 
oracle

>  <origin>  (26) 
adg

>  <m_score__min__energy>  (26) 
-7.4900000000000002

>  <m_primary>  (26) 
energy

$$$$
26:0
     RDKit          3D

 46 48  0  0  1  0  0  0  0  0999 V2000
   -2.7380   20.8110  -29.3060 C   0  0  0  0  0  0  0  0  0  0  0  0
   -6.5290   19.8490  -33.6370 N   0  0  0  0  0  0  0  0  0  0  0  0
   -6.0380   18.7240  -33.4710 C   0  0  0  0  0  0  0  0  0  0  0  0
   -4.7060   18.5140  -33.3650 C   0  0  0  0  0  0  0  0  0  0  0  0
   -3.6480   19.4730  -33.2110 C   0  0  0  0  0  0  0  0  0  0  0  0
   -3.6010   20.1120  -31.9490 C   0  0  0  0  0  0  0  0  0  0  0  0
   -4.2930   17.1720  -33.3910 C   0  0  0  0  0  0  0  0  0  0  0  0
   -5.1510   16.1130  -33.5090 C   0  0  0  0  0  0  0  0  0  0  0  0
   -1.7530   20.7560  -33.7960 C   0  0  0  0  0  0  0  0  0  0  0  0
   -1.7220   21.3620  -32.5770 N   0  0  0  0  0  0  0  0  0  0  0  0
   -2.6360   21.0480  -31.6510 C   0  0  0  0  0  0  0  0  0  0  0  0
   -2.5800   21.6360  -30.5060 N   0  0  0  0  0  0  0  0  0  0  0  0
   -7.1300   20.7180  -32.7540 C   0  0  0  0  0  0  0  0  0  0  0  0
   -8.3890   20.4360  -32.1980 C   0  0  0  0  0  0  0  0  0  0  0  0
   -8.9560   19.2260  -32.4370 F   0  0  0  0  0  0  0  0  0  0  0  0
   -8.9960   21.3990  -31.4340 C   0  0  0  0  0  0  0  0  0  0  0  0
   -8.3610   22.6060  -31.2320 C   0  0  0  0  0  0  0  0  0  0  0  0
   -7.1390   22.9370  -31.7460 C   0  0  0  0  0  0  0  0  0  0  0  0
   -6.4800   24.1660  -31.5960 N   0  0  0  0  0  0  0  0  0  0  0  0
   -5.1700   24.5220  -30.5550 S   0  0  0  0  0  0  0  0  0  0  0  0
   -3.8790   24.0120  -31.1650 O   0  0  0  0  0  0  0  0  0  0  0  0
   -4.9910   26.0420  -30.4730 O   0  0  0  0  0  0  0  0  0  0  0  0
   -5.2870   23.9610  -28.9680 N   0  0  0  0  0  0  0  0  0  0  0  0
   -4.1080   23.8180  -28.2050 C   0  0  0  0  0  0  0  0  0  0  0  0
   -6.5150   21.9580  -32.5260 C   0  0  0  0  0  0  0  0  0  0  0  0
   -5.3030   22.1970  -33.0820 F   0  0  0  0  0  0  0  0  0  0  0  0
   -2.7020   19.8510  -34.0500 N   0  0  0  0  0  0  0  0  0  0  0  0
   -6.4950   16.3940  -33.6050 C   0  0  0  0  0  0  0  0  0  0  0  0
   -6.9160   17.6640  -33.5870 N   0  0  0  0  0  0  0  0  0  0  0  0
   -2.6177   21.4389  -28.4109 H   0  0  0  0  0  0  0  0  0  0  0  0
   -3.7396   20.3562  -29.3030 H   0  0  0  0  0  0  0  0  0  0  0  0
   -1.9753   20.0183  -29.3030 H   0  0  0  0  0  0  0  0  0  0  0  0
   -4.3529   19.8549  -31.1884 H   0  0  0  0  0  0  0  0  0  0  0  0
   -3.2165   16.9599  -33.3118 H   0  0  0  0  0  0  0  0  0  0  0  0
   -4.7812   15.0772  -33.5265 H   0  0  0  0  0  0  0  0  0  0  0  0
   -1.0055   21.0087  -34.5624 H   0  0  0  0  0  0  0  0  0  0  0  0
   -0.9550   22.0780  -32.3960 H   0  0  0  0  0  0  0  0  0  0  0  0
   -9.9825   21.2101  -30.9854 H   0  0  0  0  0  0  0  0  0  0  0  0
   -8.8748   23.3561  -30.6128 H   0  0  0  0  0  0  0  0  0  0  0  0
   -6.8330   24.9750  -32.1970 H   0  0  0  0  0  0  0  0  0  0  0  0
   -6.0900   24.3600  -28.4310 H   0  0  0  0  0  0  0  0  0  0  0  0
   -4.3582   23.8484  -27.1343 H   0  0  0  0  0  0  0  0  0  0  0  0
   -3.6317   22.8555  -28.4431 H   0  0  0  0  0  0  0  0  0  0  0  0
   -3.4154   24.6387  -28.4431 H   0  0  0  0  0  0  0  0  0  0  0  0
   -7.2230   15.5745  -33.6965 H   0  0  0  0  0  0  0  0  0  0  0  0
   -7.9440   17.8240  -33.6660 H   0  0  0  0  0  0  0  0  0  0  0  0
  1  2  1  0
  2  3  2  0
  3  4  1  0
  4  5  2  0
  5  6  1  0
  6  7  2  0
  7  8  1  0
  8  9  2  0
  9 10  1  0
 10 11  1  0
 11 12  2  0
 12 13  1  0
 13 14  2  0
 14 15  1  0
 14 16  1  0
 16 17  2  0
 17 18  1  0
 18 19  1  0
 19 20  1  0
 20 21  2  0
 20 22  2  0
 20 23  1  0
 23 24  1  0
 18 25  2  0
 25 26  1  0
  5 27  1  0
 27 28  2  0
 28 29  1  0
 29  3  1  0
 11  6  1  0
 25 13  1  0
  1 30  1  0
  1 31  1  0
  1 32  1  0
  4 33  1  0
  7 34  1  0
  8 35  1  0
  9 36  1  0
 10 37  1  0
 16 38  1  0
 17 39  1  0
 19 40  1  0
 23 41  1  0
 24 42  1  0
 24 43  1  0
 24 44  1  0
 28 45  1  0
 29 46  1  0
M  END
>  <smiles>  (27) 
CN=c1cc(-c2ccc[nH]c2=Nc2c(F)ccc(NS(=O)(=O)NC)c2F)nc[nH]1

>  <score_type>  (27) 
oracle

>  <origin>  (27) 
adg

>  <m_score__min__energy>  (27) 
-8.9700000000000006

>  <m_primary>  (27) 
energy

$$$$
27:0
     RDKit          3D

 33 34  0  0  0  0  0  0  0  0999 V2000
   -8.4868   23.6972  -32.4801 H   0  0  0  0  0  0  0  0  0  0  0  0
   -7.8430   23.0690  -31.8470 C   0  0  0  0  0  0  0  0  0  0  0  0
   -7.0340   23.6970  -30.9780 C   0  0  0  0  0  0  0  0  0  0  0  0
   -7.4993   24.4048  -30.2762 H   0  0  0  0  0  0  0  0  0  0  0  0
   -5.5680   23.5150  -30.8870 C   0  0  0  0  0  0  0  0  0  0  0  0
   -4.9340   22.3860  -31.4310 C   0  0  0  0  0  0  0  0  0  0  0  0
   -5.5326   21.6247  -31.9526 H   0  0  0  0  0  0  0  0  0  0  0  0
   -3.5510   22.2190  -31.3170 C   0  0  0  0  0  0  0  0  0  0  0  0
   -2.9700   21.0810  -31.8980 O   0  0  0  0  0  0  0  0  0  0  0  0
   -3.5030   20.3880  -33.0220 C   0  0  0  0  0  0  0  0  0  0  0  0
   -4.1393   19.5607  -32.6747 H   0  0  0  0  0  0  0  0  0  0  0  0
   -4.1026   21.0816  -33.6298 H   0  0  0  0  0  0  0  0  0  0  0  0
   -2.6788   19.9864  -33.6298 H   0  0  0  0  0  0  0  0  0  0  0  0
   -2.7920   23.1850  -30.6290 C   0  0  0  0  0  0  0  0  0  0  0  0
   -1.7019   23.0653  -30.5432 H   0  0  0  0  0  0  0  0  0  0  0  0
   -3.4220   24.3040  -30.0500 C   0  0  0  0  0  0  0  0  0  0  0  0
   -2.7110   25.2860  -29.3430 O   0  0  0  0  0  0  0  0  0  0  0  0
   -1.9680   25.0420  -28.1520 C   0  0  0  0  0  0  0  0  0  0  0  0
   -2.6004   25.2497  -27.2763 H   0  0  0  0  0  0  0  0  0  0  0  0
   -1.6452   23.9907  -28.1301 H   0  0  0  0  0  0  0  0  0  0  0  0
   -1.0847   25.6973  -28.1301 H   0  0  0  0  0  0  0  0  0  0  0  0
   -4.8070   24.4530  -30.1760 C   0  0  0  0  0  0  0  0  0  0  0  0
   -5.3050   25.3168  -29.7115 H   0  0  0  0  0  0  0  0  0  0  0  0
   -7.9410   21.6070  -32.0240 C   0  0  0  0  0  0  0  0  0  0  0  0
   -7.1180   21.0000  -32.9230 N   0  0  0  0  0  0  0  0  0  0  0  0
   -7.1290   19.6540  -33.1180 C   0  0  0  0  0  0  0  0  0  0  0  0
   -6.4561   19.2005  -33.8606 H   0  0  0  0  0  0  0  0  0  0  0  0
   -7.9940   18.8480  -32.3760 C   0  0  0  0  0  0  0  0  0  0  0  0
   -8.0158   17.7601  -32.5375 H   0  0  0  0  0  0  0  0  0  0  0  0
   -8.8310   19.4370  -31.4270 C   0  0  0  0  0  0  0  0  0  0  0  0
   -9.5124   18.8133  -30.8297 H   0  0  0  0  0  0  0  0  0  0  0  0
   -8.8010   20.8200  -31.2380 C   0  0  0  0  0  0  0  0  0  0  0  0
   -9.4450   21.2901  -30.4802 H   0  0  0  0  0  0  0  0  0  0  0  0
  1  2  1  0
  2  3  2  0
  3  4  1  0
  3  5  1  0
  5  6  2  0
  6  7  1  0
  6  8  1  0
  8  9  1  0
  9 10  1  0
 10 11  1  0
 10 12  1  0
 10 13  1  0
  8 14  2  0
 14 15  1  0
 14 16  1  0
 16 17  1  0
 17 18  1  0
 18 19  1  0
 18 20  1  0
 18 21  1  0
 16 22  2  0
 22 23  1  0
  2 24  1  0
 24 25  2  0
 25 26  1  0
 26 27  1  0
 26 28  2  0
 28 29  1  0
 28 30  1  0
 30 31  1  0
 30 32  2  0
 32 33  1  0
 22  5  1  0
 32 24  1  0
M  END
>  <UniqueID>  (28) 
23

>  <SMILES>  (28) 
COc1cc(/C=C\c2ccccn2)cc(OC)c1

>  <Energy>  (28) 
42.115341741980956

>  <Genealogy>  (28) 
COc1cc(/C=C\c2ccccn2)cc(OC)c1 (cis-trans isomerization)
COc1cc(/C=C\c2ccccn2)cc(OC)c1 (3D coordinates assigned)
COc1cc(/C=C\c2ccccn2)cc(OC)c1 (optimized conformer: 42.115341741980956 kcal/mol)

>  <smiles>  (28) 
COc1cc(C=Cc2ccccn2)cc(OC)c1

>  <score_type>  (28) 
oracle

>  <origin>  (28) 
adg

>  <m_score__min__energy>  (28) 
-6.6100000000000003

>  <m_primary>  (28) 
energy

$$$$
28:0
     RDKit          3D

 40 43  0  0  1  0  0  0  0  0999 V2000
   -6.0770   25.3120  -29.3410 C   0  0  0  0  0  0  0  0  0  0  0  0
   -5.3120   25.7790  -30.5510 C   0  0  0  0  0  0  0  0  0  0  0  0
   -3.9350   25.4110  -30.4890 O   0  0  0  0  0  0  0  0  0  0  0  0
   -3.6070   24.2220  -29.8450 C   0  0  0  0  0  0  0  0  0  0  0  0
   -2.9780   24.1790  -28.6160 C   0  0  0  0  0  0  0  0  0  0  0  0
   -2.6870   22.9520  -28.0430 C   0  0  0  0  0  0  0  0  0  0  0  0
   -3.0100   21.7640  -28.6730 C   0  0  0  0  0  0  0  0  0  0  0  0
   -3.6370   21.8650  -29.8980 C   0  0  0  0  0  0  0  0  0  0  0  0
   -3.9490   23.0400  -30.5140 C   0  0  0  0  0  0  0  0  0  0  0  0
   -4.6000   23.1080  -31.7860 N   0  0  0  0  0  0  0  0  0  0  0  0
   -5.7360   22.5000  -31.8700 C   0  0  0  0  0  0  0  0  0  0  0  0
   -6.8120   23.1640  -31.4240 N   0  0  0  0  0  0  0  0  0  0  0  0
   -8.0330   22.6010  -31.4760 C   0  0  0  0  0  0  0  0  0  0  0  0
   -8.1530   21.3270  -31.9960 C   0  0  0  0  0  0  0  0  0  0  0  0
   -9.2650   20.5320  -32.1620 C   0  0  0  0  0  0  0  0  0  0  0  0
   -8.8220   19.3700  -32.7210 N   0  0  0  0  0  0  0  0  0  0  0  0
   -7.4710   19.4830  -32.8800 C   0  0  0  0  0  0  0  0  0  0  0  0
   -6.6720   18.4070  -33.4570 C   0  0  0  0  0  0  0  0  0  0  0  0
   -6.8160   17.0960  -32.9980 C   0  0  0  0  0  0  0  0  0  0  0  0
   -6.0370   16.0830  -33.5670 C   0  0  0  0  0  0  0  0  0  0  0  0
   -5.1490   16.3340  -34.5470 N   0  0  0  0  0  0  0  0  0  0  0  0
   -5.0380   17.5820  -34.9570 N   0  0  0  0  0  0  0  0  0  0  0  0
   -5.7480   18.6080  -34.4620 C   0  0  0  0  0  0  0  0  0  0  0  0
   -7.0590   20.6840  -32.4350 N   0  0  0  0  0  0  0  0  0  0  0  0
   -5.8700   21.2580  -32.3740 N   0  0  0  0  0  0  0  0  0  0  0  0
   -5.5520   25.6325  -28.4291 H   0  0  0  0  0  0  0  0  0  0  0  0
   -7.0869   25.7478  -29.3550 H   0  0  0  0  0  0  0  0  0  0  0  0
   -6.1510   24.2146  -29.3550 H   0  0  0  0  0  0  0  0  0  0  0  0
   -5.7596   25.3288  -31.4494 H   0  0  0  0  0  0  0  0  0  0  0  0
   -5.3685   26.8770  -30.5851 H   0  0  0  0  0  0  0  0  0  0  0  0
   -2.7105   25.1111  -28.0968 H   0  0  0  0  0  0  0  0  0  0  0  0
   -2.1871   22.9218  -27.0636 H   0  0  0  0  0  0  0  0  0  0  0  0
   -2.7789   20.7883  -28.2206 H   0  0  0  0  0  0  0  0  0  0  0  0
   -3.9040   20.9309  -30.4140 H   0  0  0  0  0  0  0  0  0  0  0  0
   -8.9175   23.1442  -31.1119 H   0  0  0  0  0  0  0  0  0  0  0  0
  -10.3024   20.7838  -31.8968 H   0  0  0  0  0  0  0  0  0  0  0  0
   -7.5340   16.8625  -32.1980 H   0  0  0  0  0  0  0  0  0  0  0  0
   -6.1534   15.0515  -33.2031 H   0  0  0  0  0  0  0  0  0  0  0  0
   -5.5915   19.6206  -34.8621 H   0  0  0  0  0  0  0  0  0  0  0  0
   -5.0290   20.7440  -32.7200 H   0  0  0  0  0  0  0  0  0  0  0  0
  1  2  1  0
  2  3  1  0
  3  4  1  0
  4  5  2  0
  5  6  1  0
  6  7  2  0
  7  8  1  0
  8  9  2  0
  9 10  1  0
 10 11  2  0
 11 12  1  0
 12 13  2  0
 13 14  1  0
 14 15  2  0
 15 16  1  0
 16 17  2  0
 17 18  1  0
 18 19  2  0
 19 20  1  0
 20 21  2  0
 21 22  1  0
 22 23  2  0
 17 24  1  0
 24 25  1  0
  9  4  1  0
 25 11  1  0
 24 14  1  0
 23 18  1  0
  1 26  1  0
  1 27  1  0
  1 28  1  0
  2 29  1  0
  2 30  1  0
  5 31  1  0
  6 32  1  0
  7 33  1  0
  8 34  1  0
 13 35  1  0
 15 36  1  0
 19 37  1  0
 20 38  1  0
 23 39  1  0
 25 40  1  0
M  END
>  <smiles>  (29) 
CCOc1ccccc1N=c1ncc2cnc(-c3ccnnc3)n2[nH]1

>  <score_type>  (29) 
oracle

>  <origin>  (29) 
adg

>  <m_score__min__energy>  (29) 
-9.2100000000000009

>  <m_primary>  (29) 
energy

$$$$
29:0
     RDKit          3D

 29 30  0  0  0  0  0  0  0  0999 V2000
   -2.8870   24.5030  -29.2400 C   0  0  0  0  0  0  0  0  0  0  0  0
   -3.4900   24.9280  -30.4950 N   0  0  0  0  0  0  0  0  0  0  0  0
   -4.8980   25.1360  -30.6460 C   0  0  0  0  0  0  0  0  0  0  0  0
   -5.3830   26.2840  -30.4490 O   0  0  0  0  0  0  0  0  0  0  0  0
   -5.7710   24.0130  -31.0680 C   0  0  0  0  0  0  0  0  0  0  0  0
   -7.1620   24.1310  -30.8870 C   0  0  0  0  0  0  0  0  0  0  0  0
   -8.0180   23.0790  -31.2190 C   0  0  0  0  0  0  0  0  0  0  0  0
   -7.4990   21.8950  -31.7400 C   0  0  0  0  0  0  0  0  0  0  0  0
   -6.1250   21.7620  -31.9400 C   0  0  0  0  0  0  0  0  0  0  0  0
   -5.2480   22.8090  -31.6080 C   0  0  0  0  0  0  0  0  0  0  0  0
   -3.8480   22.6800  -31.9130 N   0  0  0  0  0  0  0  0  0  0  0  0
   -3.2000   21.4070  -32.0720 C   0  0  0  0  0  0  0  0  0  0  0  0
   -3.7970   20.3480  -31.7390 O   0  0  0  0  0  0  0  0  0  0  0  0
   -1.8260   21.3110  -32.5960 C   0  0  0  0  0  0  0  0  0  0  0  0
   -0.6840   20.9930  -31.8800 C   0  0  0  0  0  0  0  0  0  0  0  0
    0.3510   21.0330  -32.7910 C   0  0  0  0  0  0  0  0  0  0  0  0
   -0.2220   21.3730  -33.9970 C   0  0  0  0  0  0  0  0  0  0  0  0
    0.7080   21.5860  -35.6470 Br  0  0  0  0  0  0  0  0  0  0  0  0
   -1.5160   21.5330  -33.8530 O   0  0  0  0  0  0  0  0  0  0  0  0
   -3.4659   24.9110  -28.3984 H   0  0  0  0  0  0  0  0  0  0  0  0
   -2.8871   23.4043  -29.1867 H   0  0  0  0  0  0  0  0  0  0  0  0
   -1.8523   24.8725  -29.1867 H   0  0  0  0  0  0  0  0  0  0  0  0
   -7.5797   25.0633  -30.4791 H   0  0  0  0  0  0  0  0  0  0  0  0
   -9.1026   23.1847  -31.0693 H   0  0  0  0  0  0  0  0  0  0  0  0
   -8.1739   21.0643  -31.9938 H   0  0  0  0  0  0  0  0  0  0  0  0
   -5.7239   20.8286  -32.3617 H   0  0  0  0  0  0  0  0  0  0  0  0
   -3.2820   23.5530  -31.9890 H   0  0  0  0  0  0  0  0  0  0  0  0
   -0.6163   20.7575  -30.8076 H   0  0  0  0  0  0  0  0  0  0  0  0
    1.4150   20.8343  -32.5950 H   0  0  0  0  0  0  0  0  0  0  0  0
  1  2  1  0
  2  3  1  0
  3  4  2  0
  3  5  1  0
  5  6  2  0
  6  7  1  0
  7  8  2  0
  8  9  1  0
  9 10  2  0
 10 11  1  0
 11 12  1  0
 12 13  2  0
 12 14  1  0
 14 15  2  0
 15 16  1  0
 16 17  2  0
 17 18  1  0
 17 19  1  0
 10  5  1  0
 19 14  1  0
  1 20  1  0
  1 21  1  0
  1 22  1  0
  6 23  1  0
  7 24  1  0
  8 25  1  0
  9 26  1  0
 11 27  1  0
 15 28  1  0
 16 29  1  0
M  CHG  1   2  -1
M  END
>  <UniqueID>  (30) 
24

>  <SMILES>  (30) 
C[N-]C(=O)c1ccccc1NC(=O)c1ccc(Br)o1

>  <Energy>  (30) 
60.30844602215069

>  <Genealogy>  (30) 
C[N-]C(=O)c1ccccc1NC(=O)c1ccc(Br)o1 (protonated)
C[N-]C(=O)c1ccccc1NC(=O)c1ccc(Br)o1 (3D coordinates assigned)
C[N-]C(=O)c1ccccc1NC(=O)c1ccc(Br)o1 (optimized conformer: 60.30844602215069 kcal/mol)

>  <smiles>  (30) 
CNC(=O)c1ccccc1NC(=O)c1ccc(Br)o1

>  <score_type>  (30) 
oracle

>  <origin>  (30) 
adg

>  <m_score__min__energy>  (30) 
-7.9800000000000004

>  <m_primary>  (30) 
energy

$$$$
30:0
     RDKit          3D

 50 52  0  0  0  0  0  0  0  0999 V2000
   -3.1040   25.2620  -26.0620 C   0  0  0  0  0  0  0  0  0  0  0  0
   -3.4570   24.2140  -27.1240 C   0  0  0  0  0  0  0  0  0  0  0  0
   -3.0600   24.5620  -28.5940 C   0  0  1  0  0  0  0  0  0  0  0  0
   -1.5900   24.8270  -28.8300 C   0  0  0  0  0  0  0  0  0  0  0  0
   -1.2270   25.9510  -29.2740 O   0  0  0  0  0  0  0  0  0  0  0  0
   -0.6110   23.8310  -28.5120 N   0  0  0  0  0  0  0  0  0  0  0  0
   -0.5470   22.5080  -29.0650 C   0  0  0  0  0  0  0  0  0  0  0  0
   -0.5330   22.3130  -30.4580 C   0  0  0  0  0  0  0  0  0  0  0  0
   -0.5160   21.0240  -30.9910 C   0  0  0  0  0  0  0  0  0  0  0  0
   -0.5140   19.9170  -30.1440 C   0  0  0  0  0  0  0  0  0  0  0  0
   -0.5320   20.0930  -28.7580 C   0  0  0  0  0  0  0  0  0  0  0  0
   -0.5640   21.3860  -28.2010 C   0  0  0  0  0  0  0  0  0  0  0  0
   -0.6000   21.5790  -26.7010 C   0  0  0  0  0  0  0  0  0  0  0  0
    0.6370   22.0130  -26.2560 F   0  0  0  0  0  0  0  0  0  0  0  0
   -0.9050   20.3770  -26.0890 F   0  0  0  0  0  0  0  0  0  0  0  0
   -1.5490   22.5150  -26.3240 F   0  0  0  0  0  0  0  0  0  0  0  0
   -3.5780   23.5770  -29.5790 N   0  0  0  0  0  0  0  0  0  0  0  0
   -3.4810   22.2420  -29.2720 C   0  0  0  0  0  0  0  0  0  0  0  0
   -3.9900   21.2630  -30.1270 C   0  0  0  0  0  0  0  0  0  0  0  0
   -4.6170   21.6420  -31.3120 C   0  0  0  0  0  0  0  0  0  0  0  0
   -5.3080   20.4230  -32.3780 S   0  0  0  0  0  0  0  0  0  0  0  0
   -4.7910   20.6410  -33.7710 O   0  0  0  0  0  0  0  0  0  0  0  0
   -4.9070   19.0450  -31.9250 O   0  0  0  0  0  0  0  0  0  0  0  0
   -7.0660   20.5270  -32.3530 C   0  0  0  0  0  0  0  0  0  0  0  0
   -7.7050   21.7160  -31.9660 C   0  0  0  0  0  0  0  0  0  0  0  0
   -9.1010   21.7890  -31.9440 C   0  0  0  0  0  0  0  0  0  0  0  0
   -9.8660   20.6750  -32.3070 C   0  0  0  0  0  0  0  0  0  0  0  0
   -9.2340   19.4880  -32.6850 C   0  0  0  0  0  0  0  0  0  0  0  0
   -7.8370   19.4110  -32.7070 C   0  0  0  0  0  0  0  0  0  0  0  0
   -4.7270   22.9970  -31.6190 C   0  0  0  0  0  0  0  0  0  0  0  0
   -4.2000   23.9570  -30.7500 C   0  0  0  0  0  0  0  0  0  0  0  0
   -4.3120   25.1720  -31.0620 O   0  0  0  0  0  0  0  0  0  0  0  0
   -3.2489   24.8319  -25.0600 H   0  0  0  0  0  0  0  0  0  0  0  0
   -2.0538   25.5663  -26.1820 H   0  0  0  0  0  0  0  0  0  0  0  0
   -3.7561   26.1397  -26.1820 H   0  0  0  0  0  0  0  0  0  0  0  0
   -2.9497   23.2765  -26.8522 H   0  0  0  0  0  0  0  0  0  0  0  0
   -4.5552   24.1512  -27.1224 H   0  0  0  0  0  0  0  0  0  0  0  0
   -3.5617   25.5267  -28.7601 H   0  0  0  0  0  0  0  0  0  0  0  0
   -0.5355   23.1827  -31.1315 H   0  0  0  0  0  0  0  0  0  0  0  0
   -0.5042   20.8809  -32.0816 H   0  0  0  0  0  0  0  0  0  0  0  0
   -0.4982   18.9021  -30.5679 H   0  0  0  0  0  0  0  0  0  0  0  0
   -0.5211   19.2143  -28.0964 H   0  0  0  0  0  0  0  0  0  0  0  0
   -2.9928   21.9383  -28.3342 H   0  0  0  0  0  0  0  0  0  0  0  0
   -3.8966   20.1984  -29.8666 H   0  0  0  0  0  0  0  0  0  0  0  0
   -7.1054   22.5925  -31.6793 H   0  0  0  0  0  0  0  0  0  0  0  0
   -9.5981   22.7224  -31.6413 H   0  0  0  0  0  0  0  0  0  0  0  0
  -10.9644   20.7340  -32.2947 H   0  0  0  0  0  0  0  0  0  0  0  0
   -9.8362   18.6114  -32.9661 H   0  0  0  0  0  0  0  0  0  0  0  0
   -7.3431   18.4736  -33.0025 H   0  0  0  0  0  0  0  0  0  0  0  0
   -5.2289   23.3114  -32.5459 H   0  0  0  0  0  0  0  0  0  0  0  0
  1  2  1  0
  2  3  1  0
  3  4  1  0
  4  5  2  0
  4  6  1  0
  6  7  1  0
  7  8  2  0
  8  9  1  0
  9 10  2  0
 10 11  1  0
 11 12  2  0
 12 13  1  0
 13 14  1  0
 13 15  1  0
 13 16  1  0
  3 17  1  0
 17 18  1  0
 18 19  2  0
 19 20  1  0
 20 21  1  0
 21 22  2  0
 21 23  2  0
 21 24  1  0
 24 25  2  0
 25 26  1  0
 26 27  2  0
 27 28  1  0
 28 29  2  0
 20 30  2  0
 30 31  1  0
 31 32  2  0
 12  7  1  0
 31 17  1  0
 29 24  1  0
  1 33  1  0
  1 34  1  0
  1 35  1  0
  2 36  1  0
  2 37  1  0
  3 38  1  6
  8 39  1  0
  9 40  1  0
 10 41  1  0
 11 42  1  0
 18 43  1  0
 19 44  1  0
 25 45  1  0
 26 46  1  0
 27 47  1  0
 28 48  1  0
 29 49  1  0
 30 50  1  0
M  CHG  1   6  -1
M  END
>  <UniqueID>  (31) 
25

>  <SMILES>  (31) 
CC[C@@H](C(=O)[N-]c1ccccc1C(F)(F)F)n1ccc(S(=O)(=O)c2ccccc2)cc1=O

>  <Energy>  (31) 
68.03222851951813

>  <Genealogy>  (31) 
CCC(C(=O)[N-]c1ccccc1C(F)(F)F)n1ccc(S(=O)(=O)c2ccccc2)cc1=O (protonated)
CC[C@@H](C(=O)[N-]c1ccccc1C(F)(F)F)n1ccc(S(=O)(=O)c2ccccc2)cc1=O (chirality)
CC[C@@H](C(=O)[N-]c1ccccc1C(F)(F)F)n1ccc(S(=O)(=O)c2ccccc2)cc1=O (3D coordinates assigned)
CC[C@@H](C(=O)[N-]c1ccccc1C(F)(F)F)n1ccc(S(=O)(=O)c2ccccc2)cc1=O (optimized conformer: 68.03222851951813 kcal/mol)

>  <smiles>  (31) 
CCC(C(=O)Nc1ccccc1C(F)(F)F)n1ccc(S(=O)(=O)c2ccccc2)cc1=O

>  <score_type>  (31) 
oracle

>  <origin>  (31) 
adg

>  <m_score__min__energy>  (31) 
-10.039999999999999

>  <m_primary>  (31) 
energy

$$$$
31:0
     RDKit          3D

 43 46  0  0  0  0  0  0  0  0999 V2000
   -5.3660   26.3130  -30.4470 O   0  0  0  0  0  0  0  0  0  0  0  0
   -4.9510   25.1370  -30.6110 C   0  0  0  0  0  0  0  0  0  0  0  0
   -3.5510   24.8680  -30.4660 N   0  0  0  0  0  0  0  0  0  0  0  0
   -2.9690   23.5600  -30.4740 C   0  0  0  0  0  0  0  0  0  0  0  0
   -2.0500   23.0790  -29.5670 C   0  0  0  0  0  0  0  0  0  0  0  0
   -1.7160   21.8290  -29.9390 N   0  0  0  0  0  0  0  0  0  0  0  0
   -2.3710   21.5240  -31.0500 N   0  0  0  0  0  0  0  0  0  0  0  0
   -2.2940   20.2290  -31.7270 C   0  0  0  0  0  0  0  0  0  0  0  0
   -3.1010   20.2430  -33.0290 C   0  0  0  0  0  0  0  0  0  0  0  0
   -4.3360   19.3850  -32.9220 C   0  0  0  0  0  0  0  0  0  0  0  0
   -4.8580   18.7490  -34.0600 C   0  0  0  0  0  0  0  0  0  0  0  0
   -6.0280   17.9900  -33.9680 C   0  0  0  0  0  0  0  0  0  0  0  0
   -6.6860   17.8640  -32.7420 C   0  0  0  0  0  0  0  0  0  0  0  0
   -6.1770   18.4990  -31.6050 C   0  0  0  0  0  0  0  0  0  0  0  0
   -5.0070   19.2620  -31.6940 C   0  0  0  0  0  0  0  0  0  0  0  0
   -3.1520   22.5610  -31.4110 C   0  0  0  0  0  0  0  0  0  0  0  0
   -5.9170   24.0620  -30.9060 C   0  0  0  0  0  0  0  0  0  0  0  0
   -6.9860   23.7010  -30.0870 C   0  0  0  0  0  0  0  0  0  0  0  0
   -7.6040   22.6640  -30.7490 C   0  0  0  0  0  0  0  0  0  0  0  0
   -8.7300   21.9140  -30.4100 C   0  0  0  0  0  0  0  0  0  0  0  0
   -9.1310   20.8980  -31.2970 C   0  0  0  0  0  0  0  0  0  0  0  0
   -8.4070   20.6570  -32.4850 C   0  0  0  0  0  0  0  0  0  0  0  0
   -7.2730   21.4300  -32.7980 C   0  0  0  0  0  0  0  0  0  0  0  0
   -6.9020   22.4310  -31.9030 C   0  0  0  0  0  0  0  0  0  0  0  0
   -5.8630   23.2760  -32.0080 N   0  0  0  0  0  0  0  0  0  0  0  0
   -1.6584   23.6206  -28.6933 H   0  0  0  0  0  0  0  0  0  0  0  0
   -1.0530   21.1940  -29.4400 H   0  0  0  0  0  0  0  0  0  0  0  0
   -1.2420   20.0055  -31.9579 H   0  0  0  0  0  0  0  0  0  0  0  0
   -2.7137   19.4597  -31.0621 H   0  0  0  0  0  0  0  0  0  0  0  0
   -3.4023   21.2772  -33.2518 H   0  0  0  0  0  0  0  0  0  0  0  0
   -2.4678   19.8383  -33.8323 H   0  0  0  0  0  0  0  0  0  0  0  0
   -4.3441   18.8485  -35.0275 H   0  0  0  0  0  0  0  0  0  0  0  0
   -6.4312   17.4913  -34.8618 H   0  0  0  0  0  0  0  0  0  0  0  0
   -7.6056   17.2645  -32.6711 H   0  0  0  0  0  0  0  0  0  0  0  0
   -6.6962   18.3989  -30.6404 H   0  0  0  0  0  0  0  0  0  0  0  0
   -4.6119   19.7667  -30.8000 H   0  0  0  0  0  0  0  0  0  0  0  0
   -3.8130   22.6043  -32.2892 H   0  0  0  0  0  0  0  0  0  0  0  0
   -7.2728   24.1469  -29.1232 H   0  0  0  0  0  0  0  0  0  0  0  0
   -9.2855   22.1100  -29.4810 H   0  0  0  0  0  0  0  0  0  0  0  0
  -10.0152   20.2869  -31.0631 H   0  0  0  0  0  0  0  0  0  0  0  0
   -8.7312   19.8600  -33.1704 H   0  0  0  0  0  0  0  0  0  0  0  0
   -6.6988   21.2496  -33.7188 H   0  0  0  0  0  0  0  0  0  0  0  0
   -5.1510   23.3000  -32.7720 H   0  0  0  0  0  0  0  0  0  0  0  0
  1  2  2  0
  2  3  1  0
  3  4  1  0
  4  5  1  0
  5  6  2  0
  6  7  1  0
  7  8  1  0
  8  9  1  0
  9 10  1  0
 10 11  2  0
 11 12  1  0
 12 13  2  0
 13 14  1  0
 14 15  2  0
  7 16  1  0
  2 17  1  0
 17 18  2  0
 18 19  1  0
 19 20  2  0
 20 21  1  0
 21 22  2  0
 22 23  1  0
 23 24  2  0
 24 25  1  0
 16  4  2  0
 25 17  1  0
 15 10  1  0
 24 19  1  0
  5 26  1  0
  6 27  1  0
  8 28  1  0
  8 29  1  0
  9 30  1  0
  9 31  1  0
 11 32  1  0
 12 33  1  0
 13 34  1  0
 14 35  1  0
 15 36  1  0
 16 37  1  0
 18 38  1  0
 20 39  1  0
 21 40  1  0
 22 41  1  0
 23 42  1  0
 25 43  1  0
M  CHG  2   3  -1   6   1
M  END
>  <UniqueID>  (32) 
26

>  <SMILES>  (32) 
O=C([N-]c1c[nH+]n(CCc2ccccc2)c1)c1cc2ccccc2[nH]1

>  <Energy>  (32) 
109.18974705548042

>  <Genealogy>  (32) 
O=C([N-]c1c[nH+]n(CCc2ccccc2)c1)c1cc2ccccc2[nH]1 (protonated)
O=C([N-]c1c[nH+]n(CCc2ccccc2)c1)c1cc2ccccc2[nH]1 (3D coordinates assigned)
O=C([N-]c1c[nH+]n(CCc2ccccc2)c1)c1cc2ccccc2[nH]1 (optimized conformer: 109.18974705548042 kcal/mol)

>  <smiles>  (32) 
O=C(Nc1cnn(CCc2ccccc2)c1)c1cc2ccccc2[nH]1

>  <score_type>  (32) 
oracle

>  <origin>  (32) 
adg

>  <m_score__min__energy>  (32) 
-10.390000000000001

>  <m_primary>  (32) 
energy

$$$$
32:0
     RDKit          3D

 36 38  0  0  0  0  0  0  0  0999 V2000
   -0.1330   22.8570  -24.1650 C   0  0  0  0  0  0  0  0  0  0  0  0
    0.2110   23.8420  -25.2780 C   0  0  0  0  0  0  0  0  0  0  0  0
    0.4160   23.1560  -26.5110 O   0  0  0  0  0  0  0  0  0  0  0  0
    0.2870   23.7660  -27.7650 C   0  0  0  0  0  0  0  0  0  0  0  0
    1.2200   24.4780  -28.2240 O   0  0  0  0  0  0  0  0  0  0  0  0
   -0.9700   23.5940  -28.5180 C   0  0  0  0  0  0  0  0  0  0  0  0
   -1.9410   24.9060  -28.9660 S   0  0  0  0  0  0  0  0  0  0  0  0
   -3.0420   23.9850  -29.8200 C   0  0  0  0  0  0  0  0  0  0  0  0
   -4.1190   24.4450  -30.4900 N   0  0  0  0  0  0  0  0  0  0  0  0
   -4.9110   23.5720  -31.1680 C   0  0  0  0  0  0  0  0  0  0  0  0
   -6.2010   24.1810  -31.9850 S   0  0  0  0  0  0  0  0  0  0  0  0
   -4.6060   22.2240  -31.1840 N   0  0  0  0  0  0  0  0  0  0  0  0
   -5.4330   21.2900  -31.9080 C   0  0  0  0  0  0  0  0  0  0  0  0
   -6.7490   21.0400  -31.4910 C   0  0  0  0  0  0  0  0  0  0  0  0
   -7.5460   20.1300  -32.1910 C   0  0  0  0  0  0  0  0  0  0  0  0
   -7.0330   19.4630  -33.3080 C   0  0  0  0  0  0  0  0  0  0  0  0
   -5.7190   19.7050  -33.7250 C   0  0  0  0  0  0  0  0  0  0  0  0
   -4.9200   20.6150  -33.0270 C   0  0  0  0  0  0  0  0  0  0  0  0
   -3.5020   21.7520  -30.5100 C   0  0  0  0  0  0  0  0  0  0  0  0
   -3.2110   20.5240  -30.5530 O   0  0  0  0  0  0  0  0  0  0  0  0
   -2.6980   22.6500  -29.7890 C   0  0  0  0  0  0  0  0  0  0  0  0
   -1.5350   22.4010  -29.0190 C   0  0  0  0  0  0  0  0  0  0  0  0
   -0.9700   21.0280  -28.7650 C   0  0  0  0  0  0  0  0  0  0  0  0
    0.0338   23.3346  -23.1882 H   0  0  0  0  0  0  0  0  0  0  0  0
   -1.1883   22.5592  -24.2521 H   0  0  0  0  0  0  0  0  0  0  0  0
    0.5075   21.9670  -24.2521 H   0  0  0  0  0  0  0  0  0  0  0  0
   -0.6162   24.5574  -25.3958 H   0  0  0  0  0  0  0  0  0  0  0  0
    1.1371   24.3712  -25.0089 H   0  0  0  0  0  0  0  0  0  0  0  0
   -7.1544   21.5613  -30.6113 H   0  0  0  0  0  0  0  0  0  0  0  0
   -8.5782   19.9381  -31.8629 H   0  0  0  0  0  0  0  0  0  0  0  0
   -7.6621   18.7483  -33.8588 H   0  0  0  0  0  0  0  0  0  0  0  0
   -5.3149   19.1788  -34.6024 H   0  0  0  0  0  0  0  0  0  0  0  0
   -3.8870   20.8027  -33.3552 H   0  0  0  0  0  0  0  0  0  0  0  0
   -0.8990   20.8555  -27.6809 H   0  0  0  0  0  0  0  0  0  0  0  0
   -1.6298   20.2711  -29.2143 H   0  0  0  0  0  0  0  0  0  0  0  0
    0.0314   20.9547  -29.2143 H   0  0  0  0  0  0  0  0  0  0  0  0
  1  2  1  0
  2  3  1  0
  3  4  1  0
  4  5  2  0
  4  6  1  0
  6  7  1  0
  7  8  1  0
  8  9  1  0
  9 10  1  0
 10 11  2  0
 10 12  1  0
 12 13  1  0
 13 14  2  0
 14 15  1  0
 15 16  2  0
 16 17  1  0
 17 18  2  0
 12 19  1  0
 19 20  2  0
 19 21  1  0
 21 22  1  0
 22 23  1  0
 22  6  2  0
 21  8  2  0
 18 13  1  0
  1 24  1  0
  1 25  1  0
  1 26  1  0
  2 27  1  0
  2 28  1  0
 14 29  1  0
 15 30  1  0
 16 31  1  0
 17 32  1  0
 18 33  1  0
 23 34  1  0
 23 35  1  0
 23 36  1  0
M  CHG  1   9  -1
M  END
>  <UniqueID>  (33) 
27

>  <SMILES>  (33) 
CCOC(=O)c1sc2[n-]c(=S)n(-c3ccccc3)c(=O)c2c1C

>  <Energy>  (33) 
83.01530822809322

>  <Genealogy>  (33) 
CCOC(=O)c1sc2[n-]c(=S)n(-c3ccccc3)c(=O)c2c1C (protonated)
CCOC(=O)c1sc2[n-]c(=S)n(-c3ccccc3)c(=O)c2c1C (3D coordinates assigned)
CCOC(=O)c1sc2[n-]c(=S)n(-c3ccccc3)c(=O)c2c1C (optimized conformer: 83.01530822809322 kcal/mol)

>  <smiles>  (33) 
CCOC(=O)c1sc2[nH]c(=S)n(-c3ccccc3)c(=O)c2c1C

>  <score_type>  (33) 
oracle

>  <origin>  (33) 
adg

>  <m_score__min__energy>  (33) 
-8.5600000000000005

>  <m_primary>  (33) 
energy

$$$$
33:0
     RDKit          3D

 30 31  0  0  0  0  0  0  0  0999 V2000
   -0.8640   26.5580  -27.8960 C   0  0  0  0  0  0  0  0  0  0  0  0
   -1.6020   25.9600  -28.9570 O   0  0  0  0  0  0  0  0  0  0  0  0
   -2.0010   24.6140  -28.9870 C   0  0  0  0  0  0  0  0  0  0  0  0
   -1.3020   23.6120  -28.2830 C   0  0  0  0  0  0  0  0  0  0  0  0
   -1.7340   22.2850  -28.3310 C   0  0  0  0  0  0  0  0  0  0  0  0
   -2.8680   21.9440  -29.0680 C   0  0  0  0  0  0  0  0  0  0  0  0
   -3.5690   22.9270  -29.7690 C   0  0  0  0  0  0  0  0  0  0  0  0
   -3.1300   24.2650  -29.7490 C   0  0  0  0  0  0  0  0  0  0  0  0
   -3.8440   25.3010  -30.4420 N   0  0  0  0  0  0  0  0  0  0  0  0
   -5.2250   25.2760  -30.8180 C   0  0  0  0  0  0  0  0  0  0  0  0
   -6.0960   25.8220  -30.0880 O   0  0  0  0  0  0  0  0  0  0  0  0
   -5.6000   24.5450  -31.9520 O   0  0  0  0  0  0  0  0  0  0  0  0
   -6.3970   23.3900  -31.9470 C   0  0  0  0  0  0  0  0  0  0  0  0
   -5.8170   22.1780  -32.3410 C   0  0  0  0  0  0  0  0  0  0  0  0
   -6.5740   21.0030  -32.3610 C   0  0  0  0  0  0  0  0  0  0  0  0
   -7.9230   21.0340  -31.9960 C   0  0  0  0  0  0  0  0  0  0  0  0
   -8.5170   22.2410  -31.6190 C   0  0  0  0  0  0  0  0  0  0  0  0
   -7.7620   23.4180  -31.5980 C   0  0  0  0  0  0  0  0  0  0  0  0
   -1.2743   26.2255  -26.9311 H   0  0  0  0  0  0  0  0  0  0  0  0
    0.1916   26.2574  -27.9687 H   0  0  0  0  0  0  0  0  0  0  0  0
   -0.9393   27.6530  -27.9687 H   0  0  0  0  0  0  0  0  0  0  0  0
   -0.4121   23.8769  -27.6932 H   0  0  0  0  0  0  0  0  0  0  0  0
   -1.1788   21.5070  -27.7865 H   0  0  0  0  0  0  0  0  0  0  0  0
   -3.2105   20.8991  -29.0970 H   0  0  0  0  0  0  0  0  0  0  0  0
   -4.4690   22.6550  -30.3400 H   0  0  0  0  0  0  0  0  0  0  0  0
   -4.7579   22.1503  -32.6369 H   0  0  0  0  0  0  0  0  0  0  0  0
   -6.1080   20.0538  -32.6640 H   0  0  0  0  0  0  0  0  0  0  0  0
   -8.5168   20.1081  -32.0056 H   0  0  0  0  0  0  0  0  0  0  0  0
   -9.5803   22.2656  -31.3382 H   0  0  0  0  0  0  0  0  0  0  0  0
   -8.2348   24.3680  -31.3083 H   0  0  0  0  0  0  0  0  0  0  0  0
  1  2  1  0
  2  3  1  0
  3  4  2  0
  4  5  1  0
  5  6  2  0
  6  7  1  0
  7  8  2  0
  8  9  1  0
  9 10  1  0
 10 11  2  0
 10 12  1  0
 12 13  1  0
 13 14  2  0
 14 15  1  0
 15 16  2  0
 16 17  1  0
 17 18  2  0
  8  3  1  0
 18 13  1  0
  1 19  1  0
  1 20  1  0
  1 21  1  0
  4 22  1  0
  5 23  1  0
  6 24  1  0
  7 25  1  0
 14 26  1  0
 15 27  1  0
 16 28  1  0
 17 29  1  0
 18 30  1  0
M  CHG  1   9  -1
M  END
>  <UniqueID>  (34) 
28

>  <SMILES>  (34) 
COc1ccccc1[N-]C(=O)Oc1ccccc1

>  <Energy>  (34) 
38.256267369728434

>  <Genealogy>  (34) 
COc1ccccc1[N-]C(=O)Oc1ccccc1 (protonated)
COc1ccccc1[N-]C(=O)Oc1ccccc1 (3D coordinates assigned)
COc1ccccc1[N-]C(=O)Oc1ccccc1 (optimized conformer: 38.256267369728434 kcal/mol)

>  <smiles>  (34) 
COc1ccccc1NC(=O)Oc1ccccc1

>  <score_type>  (34) 
oracle

>  <origin>  (34) 
adg

>  <m_score__min__energy>  (34) 
-9.0399999999999991

>  <m_primary>  (34) 
energy

$$$$
34:0
     RDKit          3D

 35 36  0  0  0  0  0  0  0  0999 V2000
   -9.8640   21.1360  -32.3280 C   0  0  0  0  0  0  0  0  0  0  0  0
   -9.1100   20.1250  -31.4680 C   0  0  0  0  0  0  0  0  0  0  0  0
   -7.9160   19.5600  -32.2070 C   0  0  0  0  0  0  0  0  0  0  0  0
   -7.8270   18.1620  -32.3420 C   0  0  0  0  0  0  0  0  0  0  0  0
   -6.7520   17.5750  -33.0080 C   0  0  0  0  0  0  0  0  0  0  0  0
   -5.7490   18.3740  -33.5490 C   0  0  0  0  0  0  0  0  0  0  0  0
   -5.8240   19.7620  -33.4420 C   0  0  0  0  0  0  0  0  0  0  0  0
   -6.9100   20.3830  -32.7890 C   0  0  0  0  0  0  0  0  0  0  0  0
   -6.9990   21.8240  -32.7260 N   0  0  0  0  0  0  0  0  0  0  0  0
   -7.1130   22.7330  -31.2500 S   0  0  0  0  0  0  0  0  0  0  0  0
   -7.4400   21.7940  -30.1240 O   0  0  0  0  0  0  0  0  0  0  0  0
   -8.2170   23.7440  -31.3760 O   0  0  0  0  0  0  0  0  0  0  0  0
   -5.6030   23.5880  -30.9350 C   0  0  0  0  0  0  0  0  0  0  0  0
   -5.4330   24.7870  -30.2730 C   0  0  0  0  0  0  0  0  0  0  0  0
   -6.5030   25.6640  -29.7110 C   0  0  0  0  0  0  0  0  0  0  0  0
   -4.1250   25.1140  -30.2750 N   0  0  0  0  0  0  0  0  0  0  0  0
   -3.4930   24.1570  -30.8910 O   0  0  0  0  0  0  0  0  0  0  0  0
   -4.3220   23.2230  -31.3000 C   0  0  0  0  0  0  0  0  0  0  0  0
   -3.9060   22.0020  -32.0500 C   0  0  0  0  0  0  0  0  0  0  0  0
  -10.3944   21.8472  -31.6777 H   0  0  0  0  0  0  0  0  0  0  0  0
   -9.1505   21.6816  -32.9630 H   0  0  0  0  0  0  0  0  0  0  0  0
  -10.5904   20.6077  -32.9630 H   0  0  0  0  0  0  0  0  0  0  0  0
   -8.7616   20.6230  -30.5511 H   0  0  0  0  0  0  0  0  0  0  0  0
   -9.7924   19.2973  -31.2246 H   0  0  0  0  0  0  0  0  0  0  0  0
   -8.6158   17.5242  -31.9166 H   0  0  0  0  0  0  0  0  0  0  0  0
   -6.6966   16.4808  -33.1059 H   0  0  0  0  0  0  0  0  0  0  0  0
   -4.8946   17.9090  -34.0625 H   0  0  0  0  0  0  0  0  0  0  0  0
   -5.0245   20.3825  -33.8731 H   0  0  0  0  0  0  0  0  0  0  0  0
   -6.9450   22.4010  -33.5920 H   0  0  0  0  0  0  0  0  0  0  0  0
   -6.4639   25.6319  -28.6122 H   0  0  0  0  0  0  0  0  0  0  0  0
   -6.3473   26.6977  -30.0534 H   0  0  0  0  0  0  0  0  0  0  0  0
   -7.4860   25.3084  -30.0534 H   0  0  0  0  0  0  0  0  0  0  0  0
   -3.6357   21.2085  -31.3377 H   0  0  0  0  0  0  0  0  0  0  0  0
   -4.7380   21.6590  -32.6826 H   0  0  0  0  0  0  0  0  0  0  0  0
   -3.0377   22.2383  -32.6826 H   0  0  0  0  0  0  0  0  0  0  0  0
  1  2  1  0
  2  3  1  0
  3  4  2  0
  4  5  1  0
  5  6  2  0
  6  7  1  0
  7  8  2  0
  8  9  1  0
  9 10  1  0
 10 11  2  0
 10 12  2  0
 10 13  1  0
 13 14  1  0
 14 15  1  0
 14 16  2  0
 16 17  1  0
 17 18  1  0
 18 19  1  0
  8  3  1  0
 18 13  2  0
  1 20  1  0
  1 21  1  0
  1 22  1  0
  2 23  1  0
  2 24  1  0
  4 25  1  0
  5 26  1  0
  6 27  1  0
  7 28  1  0
  9 29  1  0
 15 30  1  0
 15 31  1  0
 15 32  1  0
 19 33  1  0
 19 34  1  0
 19 35  1  0
M  END
>  <UniqueID>  (35) 
29

>  <SMILES>  (35) 
CCc1ccccc1NS(=O)(=O)c1c(C)noc1C

>  <Energy>  (35) 
64.95788116135498

>  <Genealogy>  (35) 
CCc1ccccc1NS(=O)(=O)c1c(C)noc1C (3D coordinates assigned)
CCc1ccccc1NS(=O)(=O)c1c(C)noc1C (optimized conformer: 64.95788116135498 kcal/mol)

>  <smiles>  (35) 
CCc1ccccc1NS(=O)(=O)c1c(C)noc1C

>  <score_type>  (35) 
oracle

>  <origin>  (35) 
adg

>  <m_score__min__energy>  (35) 
-8.6199999999999992

>  <m_primary>  (35) 
energy

$$$$
35:0
     RDKit          3D

 49 52  0  0  0  0  0  0  0  0999 V2000
   -0.7860   30.2620  -26.4230 C   0  0  0  0  0  0  0  0  0  0  0  0
   -0.9050   29.4500  -25.1370 C   0  0  0  0  0  0  0  0  0  0  0  0
   -0.7290   27.9810  -25.4160 C   0  0  0  0  0  0  0  0  0  0  0  0
   -0.5920   27.0720  -24.3550 C   0  0  0  0  0  0  0  0  0  0  0  0
   -0.4800   25.7040  -24.6110 C   0  0  0  0  0  0  0  0  0  0  0  0
   -0.5010   25.2330  -25.9270 C   0  0  0  0  0  0  0  0  0  0  0  0
   -0.6220   26.1260  -26.9980 C   0  0  0  0  0  0  0  0  0  0  0  0
   -0.6670   25.6010  -28.3320 N   0  0  0  0  0  0  0  0  0  0  0  0
   -1.6700   24.7290  -28.8630 C   0  0  0  0  0  0  0  0  0  0  0  0
   -1.4470   23.4900  -28.8900 O   0  0  0  0  0  0  0  0  0  0  0  0
   -2.9070   25.2580  -29.3610 N   0  0  0  0  0  0  0  0  0  0  0  0
   -3.8680   24.5780  -30.1800 C   0  0  0  0  0  0  0  0  0  0  0  0
   -5.0580   25.2390  -30.5060 C   0  0  0  0  0  0  0  0  0  0  0  0
   -6.0140   24.6210  -31.3160 C   0  0  0  0  0  0  0  0  0  0  0  0
   -5.7950   23.3290  -31.8110 C   0  0  0  0  0  0  0  0  0  0  0  0
   -6.7690   22.7290  -32.6810 N   0  0  0  0  0  0  0  0  0  0  0  0
   -7.2260   21.5130  -32.5400 C   0  0  0  0  0  0  0  0  0  0  0  0
   -8.5460   21.2160  -32.0590 N   0  0  0  0  0  0  0  0  0  0  0  0
   -8.7980   19.5130  -32.1150 S   0  0  0  0  0  0  0  0  0  0  0  0
   -9.0140   18.9420  -30.7420 O   0  0  0  0  0  0  0  0  0  0  0  0
   -9.9020   19.1500  -33.0670 O   0  0  0  0  0  0  0  0  0  0  0  0
   -7.2270   19.1450  -32.7530 C   0  0  0  0  0  0  0  0  0  0  0  0
   -6.7210   17.8840  -33.0590 C   0  0  0  0  0  0  0  0  0  0  0  0
   -5.4160   17.7900  -33.5640 C   0  0  0  0  0  0  0  0  0  0  0  0
   -4.6440   18.9500  -33.7530 C   0  0  0  0  0  0  0  0  0  0  0  0
   -5.1700   20.2130  -33.4400 C   0  0  0  0  0  0  0  0  0  0  0  0
   -6.4770   20.2980  -32.9390 C   0  0  0  0  0  0  0  0  0  0  0  0
   -4.5770   22.6850  -31.5310 C   0  0  0  0  0  0  0  0  0  0  0  0
   -3.6210   23.3030  -30.7190 C   0  0  0  0  0  0  0  0  0  0  0  0
   -0.7640   27.5020  -26.7350 C   0  0  0  0  0  0  0  0  0  0  0  0
   -0.6306   31.3222  -26.1742 H   0  0  0  0  0  0  0  0  0  0  0  0
    0.0679   29.8944  -27.0110 H   0  0  0  0  0  0  0  0  0  0  0  0
   -1.7094   30.1549  -27.0110 H   0  0  0  0  0  0  0  0  0  0  0  0
   -0.1293   29.7785  -24.4296 H   0  0  0  0  0  0  0  0  0  0  0  0
   -1.9054   29.6109  -24.7088 H   0  0  0  0  0  0  0  0  0  0  0  0
   -0.5728   27.4388  -23.3181 H   0  0  0  0  0  0  0  0  0  0  0  0
   -0.3751   24.9958  -23.7759 H   0  0  0  0  0  0  0  0  0  0  0  0
   -0.4219   24.1533  -26.1222 H   0  0  0  0  0  0  0  0  0  0  0  0
   -5.2419   26.2530  -30.1214 H   0  0  0  0  0  0  0  0  0  0  0  0
   -6.9441   25.1521  -31.5665 H   0  0  0  0  0  0  0  0  0  0  0  0
   -7.1450   23.3340  -33.4430 H   0  0  0  0  0  0  0  0  0  0  0  0
   -9.3220   21.9050  -31.9460 H   0  0  0  0  0  0  0  0  0  0  0  0
   -7.3316   16.9816  -32.9079 H   0  0  0  0  0  0  0  0  0  0  0  0
   -4.9947   16.8049  -33.8132 H   0  0  0  0  0  0  0  0  0  0  0  0
   -3.6210   18.8670  -34.1488 H   0  0  0  0  0  0  0  0  0  0  0  0
   -4.5669   21.1214  -33.5853 H   0  0  0  0  0  0  0  0  0  0  0  0
   -4.3750   21.6895  -31.9530 H   0  0  0  0  0  0  0  0  0  0  0  0
   -2.6726   22.7901  -30.5012 H   0  0  0  0  0  0  0  0  0  0  0  0
   -0.9033   28.2061  -27.5686 H   0  0  0  0  0  0  0  0  0  0  0  0
  1  2  1  0
  2  3  1  0
  3  4  2  0
  4  5  1  0
  5  6  2  0
  6  7  1  0
  7  8  1  0
  8  9  1  0
  9 10  2  0
  9 11  1  0
 11 12  1  0
 12 13  2  0
 13 14  1  0
 14 15  2  0
 15 16  1  0
 16 17  2  3
 17 18  1  0
 18 19  1  0
 19 20  2  0
 19 21  2  0
 19 22  1  0
 22 23  2  0
 23 24  1  0
 24 25  2  0
 25 26  1  0
 26 27  2  0
 15 28  1  0
 28 29  2  0
  7 30  2  0
 30  3  1  0
 29 12  1  0
 27 17  1  0
 27 22  1  0
  1 31  1  0
  1 32  1  0
  1 33  1  0
  2 34  1  0
  2 35  1  0
  4 36  1  0
  5 37  1  0
  6 38  1  0
 13 39  1  0
 14 40  1  0
 16 41  1  0
 18 42  1  0
 23 43  1  0
 24 44  1  0
 25 45  1  0
 26 46  1  0
 28 47  1  0
 29 48  1  0
 30 49  1  0
M  CHG  3   8  -1  11  -1  16   1
M  END
>  <UniqueID>  (36) 
30

>  <SMILES>  (36) 
CCc1cccc([N-]C(=O)[N-]c2ccc([NH+]=C3NS(=O)(=O)c4ccccc43)cc2)c1

>  <Energy>  (36) 
86.53028207388131

>  <Genealogy>  (36) 
CCc1cccc([N-]C(=O)[N-]c2ccc([NH+]=C3NS(=O)(=O)c4ccccc43)cc2)c1 (protonated)
CCc1cccc([N-]C(=O)[N-]c2ccc([NH+]=C3NS(=O)(=O)c4ccccc43)cc2)c1 (3D coordinates assigned)
CCc1cccc([N-]C(=O)[N-]c2ccc([NH+]=C3NS(=O)(=O)c4ccccc43)cc2)c1 (nonaromatic ring conformer: 86.53028207388131 kcal/mol)

>  <smiles>  (36) 
CCc1cccc(NC(=O)Nc2ccc(N=C3NS(=O)(=O)c4ccccc43)cc2)c1

>  <score_type>  (36) 
oracle

>  <origin>  (36) 
adg

>  <m_score__min__energy>  (36) 
-12.56

>  <m_primary>  (36) 
energy

$$$$
36:0
     RDKit          3D

 39 41  0  0  0  0  0  0  0  0999 V2000
   -4.4840   26.0040  -29.4450 H   0  0  0  0  0  0  0  0  0  0  0  0
   -4.2470   25.6700  -30.4050 N   0  0  0  0  0  0  0  0  0  0  0  0
   -4.6780   24.5330  -30.8440 C   0  0  0  0  0  0  0  0  0  0  0  0
   -3.8570   23.5810  -31.3340 N   0  0  0  0  0  0  0  0  0  0  0  0
   -4.5450   22.4760  -31.7350 C   0  0  0  0  0  0  0  0  0  0  0  0
   -3.8460   21.2950  -32.2930 C   0  0  0  0  0  0  0  0  0  0  0  0
   -4.1350   19.9970  -31.8430 C   0  0  0  0  0  0  0  0  0  0  0  0
   -4.8912   19.8475  -31.0582 H   0  0  0  0  0  0  0  0  0  0  0  0
   -3.4710   18.8950  -32.3830 C   0  0  0  0  0  0  0  0  0  0  0  0
   -3.7014   17.8844  -32.0147 H   0  0  0  0  0  0  0  0  0  0  0  0
   -2.5090   19.0670  -33.3950 C   0  0  0  0  0  0  0  0  0  0  0  0
   -1.8190   17.9830  -33.9600 O   0  0  0  0  0  0  0  0  0  0  0  0
   -2.4290   16.9480  -34.7220 C   0  0  0  0  0  0  0  0  0  0  0  0
   -2.8683   16.2027  -34.0426 H   0  0  0  0  0  0  0  0  0  0  0  0
   -3.2190   17.3766  -35.3563 H   0  0  0  0  0  0  0  0  0  0  0  0
   -1.6714   16.4645  -35.3563 H   0  0  0  0  0  0  0  0  0  0  0  0
   -2.2230   20.3580  -33.8660 C   0  0  0  0  0  0  0  0  0  0  0  0
   -1.2630   20.4990  -34.8800 O   0  0  0  0  0  0  0  0  0  0  0  0
    0.0110   21.1120  -34.7070 C   0  0  0  0  0  0  0  0  0  0  0  0
    0.2255   21.2152  -33.6331 H   0  0  0  0  0  0  0  0  0  0  0  0
    0.7851   20.4878  -35.1772 H   0  0  0  0  0  0  0  0  0  0  0  0
    0.0063   22.1064  -35.1772 H   0  0  0  0  0  0  0  0  0  0  0  0
   -2.8990   21.4660  -33.3160 C   0  0  0  0  0  0  0  0  0  0  0  0
   -2.6822   22.4766  -33.6925 H   0  0  0  0  0  0  0  0  0  0  0  0
   -5.9260   22.5710  -31.5410 C   0  0  0  0  0  0  0  0  0  0  0  0
   -6.8700   21.5280  -31.7870 N   0  0  0  0  0  0  0  0  0  0  0  0
   -7.0530   21.0630  -32.9580 N   0  0  0  0  0  0  0  0  0  0  0  0
   -6.8520   19.6780  -33.2630 C   0  0  0  0  0  0  0  0  0  0  0  0
   -6.0950   19.2700  -34.3790 C   0  0  0  0  0  0  0  0  0  0  0  0
   -5.6407   20.0234  -35.0393 H   0  0  0  0  0  0  0  0  0  0  0  0
   -5.9200   17.9090  -34.6490 C   0  0  0  0  0  0  0  0  0  0  0  0
   -5.3274   17.5933  -35.5203 H   0  0  0  0  0  0  0  0  0  0  0  0
   -6.4980   16.9490  -33.8120 C   0  0  0  0  0  0  0  0  0  0  0  0
   -6.3605   15.8787  -34.0253 H   0  0  0  0  0  0  0  0  0  0  0  0
   -7.2500   17.3500  -32.7050 C   0  0  0  0  0  0  0  0  0  0  0  0
   -7.7038   16.5944  -32.0468 H   0  0  0  0  0  0  0  0  0  0  0  0
   -7.4270   18.7100  -32.4320 C   0  0  0  0  0  0  0  0  0  0  0  0
   -8.0211   19.0204  -31.5598 H   0  0  0  0  0  0  0  0  0  0  0  0
   -6.2960   24.0690  -30.8610 S   0  0  0  0  0  0  0  0  0  0  0  0
  1  2  1  0
  2  3  2  0
  3  4  1  0
  4  5  1  0
  5  6  1  0
  6  7  2  0
  7  8  1  0
  7  9  1  0
  9 10  1  0
  9 11  2  0
 11 12  1  0
 12 13  1  0
 13 14  1  0
 13 15  1  0
 13 16  1  0
 11 17  1  0
 17 18  1  0
 18 19  1  0
 19 20  1  0
 19 21  1  0
 19 22  1  0
 17 23  2  0
 23 24  1  0
  5 25  2  0
 25 26  1  0
 26 27  2  0
 27 28  1  0
 28 29  2  0
 29 30  1  0
 29 31  1  0
 31 32  1  0
 31 33  2  0
 33 34  1  0
 33 35  1  0
 35 36  1  0
 35 37  2  0
 37 38  1  0
 25 39  1  0
 39  3  1  0
 23  6  1  0
 37 28  1  0
M  CHG  1   4  -1
M  END
>  <UniqueID>  (37) 
31

>  <SMILES>  (37) 
[H]/N=c1/[n-]c(-c2ccc(OC)c(OC)c2)c(/N=N/c2ccccc2)s1

>  <Energy>  (37) 
74.29040064466035

>  <Genealogy>  (37) 
COc1ccc(-c2[n-]c(=N)sc2N=Nc2ccccc2)cc1OC (protonated)
[H]/N=c1/[n-]c(-c2ccc(OC)c(OC)c2)c(/N=N/c2ccccc2)s1 (cis-trans isomerization)
[H]/N=c1/[n-]c(-c2ccc(OC)c(OC)c2)c(/N=N/c2ccccc2)s1 (3D coordinates assigned)
[H]/N=c1/[n-]c(-c2ccc(OC)c(OC)c2)c(/N=N/c2ccccc2)s1 (optimized conformer: 74.29040064466035 kcal/mol)

>  <smiles>  (37) 
COc1ccc(-c2[nH]c(=N)sc2N=Nc2ccccc2)cc1OC

>  <score_type>  (37) 
oracle

>  <origin>  (37) 
adg

>  <m_score__min__energy>  (37) 
-8.9000000000000004

>  <m_primary>  (37) 
energy

$$$$
37:0
     RDKit          3D

 38 40  0  0  0  0  0  0  0  0999 V2000
   -8.1320   19.0480  -31.9030 C   0  0  0  0  0  0  0  0  0  0  0  0
   -7.9870   20.0540  -32.8610 C   0  0  0  0  0  0  0  0  0  0  0  0
   -6.7430   20.2750  -33.4630 C   0  0  0  0  0  0  0  0  0  0  0  0
   -5.6340   19.4920  -33.0990 C   0  0  0  0  0  0  0  0  0  0  0  0
   -4.3030   19.7020  -33.7730 C   0  0  0  0  0  0  0  0  0  0  0  0
   -3.7820   21.0490  -33.4820 N   0  0  0  0  0  0  0  0  0  0  0  0
   -2.7090   21.0180  -32.4620 C   0  0  0  0  0  0  0  0  0  0  0  0
   -3.2460   21.1860  -31.0280 C   0  0  0  0  0  0  0  0  0  0  0  0
   -3.6170   22.6080  -30.7250 C   0  0  0  0  0  0  0  0  0  0  0  0
   -2.7520   23.6200  -30.3180 C   0  0  0  0  0  0  0  0  0  0  0  0
   -3.4430   24.7520  -30.0530 N   0  0  0  0  0  0  0  0  0  0  0  0
   -4.7360   24.4610  -30.2820 C   0  0  0  0  0  0  0  0  0  0  0  0
   -5.8330   25.3060  -30.1230 C   0  0  0  0  0  0  0  0  0  0  0  0
   -7.1100   24.7830  -30.3970 C   0  0  0  0  0  0  0  0  0  0  0  0
   -7.2600   23.4420  -30.8150 C   0  0  0  0  0  0  0  0  0  0  0  0
   -6.1340   22.6120  -30.9650 C   0  0  0  0  0  0  0  0  0  0  0  0
   -4.8810   23.1600  -30.6910 C   0  0  0  0  0  0  0  0  0  0  0  0
   -5.7920   18.4740  -32.1460 C   0  0  0  0  0  0  0  0  0  0  0  0
   -7.0370   18.2560  -31.5470 C   0  0  0  0  0  0  0  0  0  0  0  0
   -9.1096   18.8788  -31.4280 H   0  0  0  0  0  0  0  0  0  0  0  0
   -8.8514   20.6732  -33.1426 H   0  0  0  0  0  0  0  0  0  0  0  0
   -6.6330   21.0630  -34.2225 H   0  0  0  0  0  0  0  0  0  0  0  0
   -3.5888   18.9507  -33.4050 H   0  0  0  0  0  0  0  0  0  0  0  0
   -4.4357   19.6000  -34.8602 H   0  0  0  0  0  0  0  0  0  0  0  0
   -4.5730   21.6300  -33.1150 H   0  0  0  0  0  0  0  0  0  0  0  0
   -3.4450   21.5000  -34.3640 H   0  0  0  0  0  0  0  0  0  0  0  0
   -2.1859   20.0528  -32.5309 H   0  0  0  0  0  0  0  0  0  0  0  0
   -2.0338   21.8624  -32.6647 H   0  0  0  0  0  0  0  0  0  0  0  0
   -4.1380   20.5537  -30.9073 H   0  0  0  0  0  0  0  0  0  0  0  0
   -2.4480   20.8893  -30.3315 H   0  0  0  0  0  0  0  0  0  0  0  0
   -1.6611   23.5140  -30.2251 H   0  0  0  0  0  0  0  0  0  0  0  0
   -3.0500   25.6610  -29.7220 H   0  0  0  0  0  0  0  0  0  0  0  0
   -5.7045   26.3478  -29.7940 H   0  0  0  0  0  0  0  0  0  0  0  0
   -7.9978   25.4227  -30.2850 H   0  0  0  0  0  0  0  0  0  0  0  0
   -8.2639   23.0441  -31.0246 H   0  0  0  0  0  0  0  0  0  0  0  0
   -6.2383   21.5656  -31.2877 H   0  0  0  0  0  0  0  0  0  0  0  0
   -4.9332   17.8449  -31.8690 H   0  0  0  0  0  0  0  0  0  0  0  0
   -7.1542   17.4611  -30.7957 H   0  0  0  0  0  0  0  0  0  0  0  0
  1  2  2  0
  2  3  1  0
  3  4  2  0
  4  5  1  0
  5  6  1  0
  6  7  1  0
  7  8  1  0
  8  9  1  0
  9 10  2  0
 10 11  1  0
 11 12  1  0
 12 13  2  0
 13 14  1  0
 14 15  2  0
 15 16  1  0
 16 17  2  0
  4 18  1  0
 18 19  2  0
 19  1  1  0
 17  9  1  0
 17 12  1  0
  1 20  1  0
  2 21  1  0
  3 22  1  0
  5 23  1  0
  5 24  1  0
  6 25  1  0
  6 26  1  0
  7 27  1  0
  7 28  1  0
  8 29  1  0
  8 30  1  0
 10 31  1  0
 11 32  1  0
 13 33  1  0
 14 34  1  0
 15 35  1  0
 16 36  1  0
 18 37  1  0
 19 38  1  0
M  CHG  1   6   1
M  END
>  <UniqueID>  (38) 
32

>  <SMILES>  (38) 
c1ccc(C[NH2+]CCc2c[nH]c3ccccc23)cc1

>  <Energy>  (38) 
70.28169990859878

>  <Genealogy>  (38) 
c1ccc(C[NH2+]CCc2c[nH]c3ccccc23)cc1 (protonated)
c1ccc(C[NH2+]CCc2c[nH]c3ccccc23)cc1 (3D coordinates assigned)
c1ccc(C[NH2+]CCc2c[nH]c3ccccc23)cc1 (optimized conformer: 70.28169990859878 kcal/mol)

>  <smiles>  (38) 
c1ccc(CNCCc2c[nH]c3ccccc23)cc1

>  <score_type>  (38) 
oracle

>  <origin>  (38) 
adg

>  <m_score__min__energy>  (38) 
-7.0899999999999999

>  <m_primary>  (38) 
energy

$$$$
38:0
     RDKit          3D

 42 44  0  0  0  0  0  0  0  0999 V2000
   -2.0770   25.6660  -25.3590 C   0  0  0  0  0  0  0  0  0  0  0  0
   -1.2670   26.8460  -25.1250 N   0  0  0  0  0  0  0  0  0  0  0  0
   -0.3760   26.6720  -24.0230 C   0  0  0  0  0  0  0  0  0  0  0  0
   -0.6070   27.2690  -26.3690 C   0  0  0  0  0  0  0  0  0  0  0  0
   -0.9550   26.6550  -27.5870 C   0  0  0  0  0  0  0  0  0  0  0  0
   -1.2850   26.0730  -28.7440 O   0  0  0  0  0  0  0  0  0  0  0  0
   -1.5960   24.7030  -28.9100 C   0  0  0  0  0  0  0  0  0  0  0  0
   -0.7090   23.7050  -28.5900 C   0  0  0  0  0  0  0  0  0  0  0  0
   -1.1220   22.3890  -28.7940 C   0  0  0  0  0  0  0  0  0  0  0  0
   -2.3800   22.0880  -29.3010 C   0  0  0  0  0  0  0  0  0  0  0  0
   -3.2120   23.1440  -29.5980 C   0  0  0  0  0  0  0  0  0  0  0  0
   -4.4840   23.1880  -30.1050 C   0  0  0  0  0  0  0  0  0  0  0  0
   -4.8240   24.5330  -30.2010 C   0  0  0  0  0  0  0  0  0  0  0  0
   -3.8110   25.3040  -29.7720 N   0  0  0  0  0  0  0  0  0  0  0  0
   -2.8420   24.4550  -29.4100 C   0  0  0  0  0  0  0  0  0  0  0  0
   -6.1740   24.8340  -30.7340 C   0  0  0  0  0  0  0  0  0  0  0  0
   -6.3530   24.0820  -32.0200 C   0  0  0  0  0  0  0  0  0  0  0  0
   -6.0760   22.6270  -31.9100 C   0  0  0  0  0  0  0  0  0  0  0  0
   -5.5170   22.2230  -30.5620 C   0  0  0  0  0  0  0  0  0  0  0  0
   -2.3765   25.2297  -24.3947 H   0  0  0  0  0  0  0  0  0  0  0  0
   -2.9749   25.9449  -25.9299 H   0  0  0  0  0  0  0  0  0  0  0  0
   -1.4940   24.9283  -25.9299 H   0  0  0  0  0  0  0  0  0  0  0  0
   -1.9310   27.6040  -24.8620 H   0  0  0  0  0  0  0  0  0  0  0  0
   -0.9328   26.7807  -23.0806 H   0  0  0  0  0  0  0  0  0  0  0  0
    0.0735   25.6691  -24.0697 H   0  0  0  0  0  0  0  0  0  0  0  0
    0.4178   27.4321  -24.0697 H   0  0  0  0  0  0  0  0  0  0  0  0
   -0.8058   28.3446  -26.4858 H   0  0  0  0  0  0  0  0  0  0  0  0
    0.4398   26.9659  -26.2193 H   0  0  0  0  0  0  0  0  0  0  0  0
    0.0000    0.0000    0.0000 H   0  0  0  0  0  0  0  0  0  0  0  0
   -2.0189   26.8367  -27.3746 H   0  0  0  0  0  0  0  0  0  0  0  0
    0.2889   23.9348  -28.1882 H   0  0  0  0  0  0  0  0  0  0  0  0
   -0.4336   21.5674  -28.5470 H   0  0  0  0  0  0  0  0  0  0  0  0
   -2.6987   21.0471  -29.4589 H   0  0  0  0  0  0  0  0  0  0  0  0
   -3.8620   26.3440  -29.7610 H   0  0  0  0  0  0  0  0  0  0  0  0
   -6.9387   24.5180  -30.0092 H   0  0  0  0  0  0  0  0  0  0  0  0
   -6.2789   25.9147  -30.9100 H   0  0  0  0  0  0  0  0  0  0  0  0
   -7.3924   24.2123  -32.3556 H   0  0  0  0  0  0  0  0  0  0  0  0
   -5.6240   24.4927  -32.7341 H   0  0  0  0  0  0  0  0  0  0  0  0
   -7.0153   22.0794  -32.0766 H   0  0  0  0  0  0  0  0  0  0  0  0
   -5.3139   22.3829  -32.6647 H   0  0  0  0  0  0  0  0  0  0  0  0
   -6.3346   22.1957  -29.8267 H   0  0  0  0  0  0  0  0  0  0  0  0
   -5.0526   21.2304  -30.6576 H   0  0  0  0  0  0  0  0  0  0  0  0
  1  2  1  0
  2  3  1  0
  2  4  1  0
  4  5  1  0
  5  6  1  0
  6  7  1  0
  7  8  2  0
  8  9  1  0
  9 10  2  0
 10 11  1  0
 11 12  1  0
 12 13  2  0
 13 14  1  0
 14 15  1  0
 13 16  1  0
 16 17  1  0
 17 18  1  0
 18 19  1  0
 15  7  1  0
 15 11  2  0
 19 12  1  0
  1 20  1  0
  1 21  1  0
  1 22  1  0
  2 23  1  0
  3 24  1  0
  3 25  1  0
  3 26  1  0
  4 27  1  0
  4 28  1  0
  5 29  1  0
  5 30  1  0
  8 31  1  0
  9 32  1  0
 10 33  1  0
 14 34  1  0
 16 35  1  0
 16 36  1  0
 17 37  1  0
 17 38  1  0
 18 39  1  0
 18 40  1  0
 19 41  1  0
 19 42  1  0
M  CHG  1   2   1
M  END
>  <UniqueID>  (39) 
33

>  <SMILES>  (39) 
C[NH+](C)CCOc1cccc2c3c([nH]c12)CCCC3

>  <Energy>  (39) 
312.6914451648348

>  <Genealogy>  (39) 
C[NH+](C)CCOc1cccc2c3c([nH]c12)CCCC3 (protonated)
C[NH+](C)CCOc1cccc2c3c([nH]c12)CCCC3 (3D coordinates assigned)
C[NH+](C)CCOc1cccc2c3c([nH]c12)CCCC3 (nonaromatic ring conformer: 312.6914451648348 kcal/mol)

>  <smiles>  (39) 
CN(C)CCOc1cccc2c3c([nH]c12)CCCC3

>  <score_type>  (39) 
oracle

>  <origin>  (39) 
adg

>  <m_score__min__energy>  (39) 
-7.1799999999999997

>  <m_primary>  (39) 
energy

$$$$
39:0
     RDKit          3D

 25 27  0  0  0  0  0  0  0  0999 V2000
   -3.4840   25.2990  -30.2870 F   0  0  0  0  0  0  0  0  0  0  0  0
   -4.6030   24.5580  -30.4770 C   0  0  0  0  0  0  0  0  0  0  0  0
   -5.8610   25.1190  -30.2420 C   0  0  0  0  0  0  0  0  0  0  0  0
   -7.0140   24.3540  -30.4330 C   0  0  0  0  0  0  0  0  0  0  0  0
   -6.9140   23.0230  -30.8640 C   0  0  0  0  0  0  0  0  0  0  0  0
   -5.6530   22.4570  -31.1050 C   0  0  0  0  0  0  0  0  0  0  0  0
   -4.4990   23.2300  -30.9020 C   0  0  0  0  0  0  0  0  0  0  0  0
   -5.5130   21.0120  -31.5160 C   0  0  0  0  0  0  0  0  0  0  0  0
   -6.7840   20.3510  -31.8680 N   0  0  0  0  0  0  0  0  0  0  0  0
   -6.7130   19.0940  -32.4060 C   0  0  0  0  0  0  0  0  0  0  0  0
   -7.8720   18.3830  -32.7230 C   0  0  0  0  0  0  0  0  0  0  0  0
   -9.1150   18.9590  -32.4790 C   0  0  0  0  0  0  0  0  0  0  0  0
   -9.1880   20.2350  -31.9260 C   0  0  0  0  0  0  0  0  0  0  0  0
   -8.0080   20.9280  -31.6220 C   0  0  0  0  0  0  0  0  0  0  0  0
   -8.0920   22.2450  -31.0710 N   0  0  0  0  0  0  0  0  0  0  0  0
   -5.9434   26.1633  -29.9065 H   0  0  0  0  0  0  0  0  0  0  0  0
   -8.0033   24.7967  -30.2449 H   0  0  0  0  0  0  0  0  0  0  0  0
   -3.5071   22.7884  -31.0783 H   0  0  0  0  0  0  0  0  0  0  0  0
   -4.8480   20.9664  -32.3910 H   0  0  0  0  0  0  0  0  0  0  0  0
   -5.1122   20.4756  -30.6433 H   0  0  0  0  0  0  0  0  0  0  0  0
   -5.7292   18.6380  -32.5910 H   0  0  0  0  0  0  0  0  0  0  0  0
   -7.8032   17.3766  -33.1617 H   0  0  0  0  0  0  0  0  0  0  0  0
  -10.0360   18.4088  -32.7219 H   0  0  0  0  0  0  0  0  0  0  0  0
  -10.1667   20.6968  -31.7287 H   0  0  0  0  0  0  0  0  0  0  0  0
   -9.0290   22.6630  -30.8670 H   0  0  0  0  0  0  0  0  0  0  0  0
  1  2  1  0
  2  3  2  0
  3  4  1  0
  4  5  2  0
  5  6  1  0
  6  7  2  0
  6  8  1  0
  8  9  1  0
  9 10  2  0
 10 11  1  0
 11 12  2  0
 12 13  1  0
 13 14  2  0
 14 15  1  0
  7  2  1  0
 14  9  1  0
 15  5  1  0
  3 16  1  0
  4 17  1  0
  7 18  1  0
  8 19  1  0
  8 20  1  0
 10 21  1  0
 11 22  1  0
 12 23  1  0
 13 24  1  0
 15 25  1  0
M  CHG  1   9   1
M  END
>  <UniqueID>  (40) 
34

>  <SMILES>  (40) 
Fc1ccc2c(c1)C[n+]1ccccc1N2

>  <Energy>  (40) 
31.427861601142688

>  <Genealogy>  (40) 
Fc1ccc2c(c1)C[n+]1ccccc1N2 (3D coordinates assigned)
Fc1ccc2c(c1)C[n+]1ccccc1N2 (nonaromatic ring conformer: 31.427861601142688 kcal/mol)

>  <smiles>  (40) 
Fc1ccc2c(c1)C[n+]1ccccc1N2

>  <score_type>  (40) 
oracle

>  <origin>  (40) 
adg

>  <m_score__min__energy>  (40) 
-6.0700000000000003

>  <m_primary>  (40) 
energy

$$$$
40:0
     RDKit          3D

 51 53  0  0  0  0  0  0  0  0999 V2000
   -5.3940   13.2460  -34.5380 C   0  0  0  0  0  0  0  0  0  0  0  0
   -4.6500   14.4100  -34.8800 O   0  0  0  0  0  0  0  0  0  0  0  0
   -5.0360   15.7190  -34.5580 C   0  0  0  0  0  0  0  0  0  0  0  0
   -4.2860   16.8450  -34.9470 C   0  0  0  0  0  0  0  0  0  0  0  0
   -4.7140   18.1320  -34.6020 C   0  0  0  0  0  0  0  0  0  0  0  0
   -5.9030   18.3140  -33.8770 C   0  0  0  0  0  0  0  0  0  0  0  0
   -6.3490   19.6220  -33.4810 N   0  0  0  0  0  0  0  0  0  0  0  0
   -5.4940   20.6370  -32.9260 C   0  0  0  0  0  0  0  0  0  0  0  0
   -4.2420   20.5350  -33.0280 O   0  0  0  0  0  0  0  0  0  0  0  0
   -6.0820   21.8470  -32.3080 C   0  0  0  0  0  0  0  0  0  0  0  0
   -7.4570   21.9120  -32.0320 C   0  0  0  0  0  0  0  0  0  0  0  0
   -7.9910   23.0240  -31.3760 C   0  0  0  0  0  0  0  0  0  0  0  0
   -7.1580   24.0710  -30.9740 C   0  0  0  0  0  0  0  0  0  0  0  0
   -5.7800   24.0280  -31.2430 C   0  0  0  0  0  0  0  0  0  0  0  0
   -4.8960   25.1330  -30.7900 C   0  0  0  0  0  0  0  0  0  0  0  0
   -5.3610   26.3020  -30.7190 O   0  0  0  0  0  0  0  0  0  0  0  0
   -3.5100   24.9300  -30.4690 N   0  0  0  0  0  0  0  0  0  0  0  0
   -2.9580   23.8290  -29.7320 C   0  0  0  0  0  0  0  0  0  0  0  0
   -2.3140   22.8030  -30.4250 C   0  0  0  0  0  0  0  0  0  0  0  0
   -1.8390   21.6780  -29.7470 C   0  0  0  0  0  0  0  0  0  0  0  0
   -1.9830   21.5610  -28.3480 C   0  0  0  0  0  0  0  0  0  0  0  0
   -1.5330   20.3690  -27.6470 N   0  0  0  0  0  0  0  0  0  0  0  0
   -2.4470   19.6280  -26.7680 C   0  0  0  0  0  0  0  0  0  0  0  0
   -0.1640   19.8670  -27.8260 C   0  0  0  0  0  0  0  0  0  0  0  0
   -2.5860   22.6310  -27.6520 C   0  0  0  0  0  0  0  0  0  0  0  0
   -3.0590   23.7540  -28.3340 C   0  0  0  0  0  0  0  0  0  0  0  0
   -5.2620   22.9310  -31.9550 C   0  0  0  0  0  0  0  0  0  0  0  0
   -6.6380   17.1890  -33.4770 C   0  0  0  0  0  0  0  0  0  0  0  0
   -6.2110   15.9040  -33.8200 C   0  0  0  0  0  0  0  0  0  0  0  0
   -5.4515   13.1561  -33.4432 H   0  0  0  0  0  0  0  0  0  0  0  0
   -6.4096   13.3248  -34.9532 H   0  0  0  0  0  0  0  0  0  0  0  0
   -4.8960   12.3574  -34.9532 H   0  0  0  0  0  0  0  0  0  0  0  0
   -3.3593   16.7127  -35.5247 H   0  0  0  0  0  0  0  0  0  0  0  0
   -4.1160   19.0057  -34.9003 H   0  0  0  0  0  0  0  0  0  0  0  0
   -7.3280   19.8910  -33.7280 H   0  0  0  0  0  0  0  0  0  0  0  0
   -8.1162   21.0845  -32.3333 H   0  0  0  0  0  0  0  0  0  0  0  0
   -9.0713   23.0753  -31.1753 H   0  0  0  0  0  0  0  0  0  0  0  0
   -7.5842   24.9350  -30.4431 H   0  0  0  0  0  0  0  0  0  0  0  0
   -2.1794   22.8809  -31.5139 H   0  0  0  0  0  0  0  0  0  0  0  0
   -1.3461   20.8725  -30.3110 H   0  0  0  0  0  0  0  0  0  0  0  0
   -2.1930   19.8339  -25.7177 H   0  0  0  0  0  0  0  0  0  0  0  0
   -3.4819   19.9452  -26.9640 H   0  0  0  0  0  0  0  0  0  0  0  0
   -2.3506   18.5499  -26.9640 H   0  0  0  0  0  0  0  0  0  0  0  0
    0.2963   19.6982  -26.8413 H   0  0  0  0  0  0  0  0  0  0  0  0
   -0.1908   18.9202  -28.3854 H   0  0  0  0  0  0  0  0  0  0  0  0
    0.4276   20.6067  -28.3854 H   0  0  0  0  0  0  0  0  0  0  0  0
   -2.6846   22.5794  -26.5576 H   0  0  0  0  0  0  0  0  0  0  0  0
   -3.5130   24.5840  -27.7728 H   0  0  0  0  0  0  0  0  0  0  0  0
   -4.1994   22.9221  -32.2393 H   0  0  0  0  0  0  0  0  0  0  0  0
   -7.5581   17.3193  -32.8885 H   0  0  0  0  0  0  0  0  0  0  0  0
   -6.8026   15.0308  -33.5078 H   0  0  0  0  0  0  0  0  0  0  0  0
  1  2  1  0
  2  3  1  0
  3  4  2  0
  4  5  1  0
  5  6  2  0
  6  7  1  0
  7  8  1  0
  8  9  2  0
  8 10  1  0
 10 11  2  0
 11 12  1  0
 12 13  2  0
 13 14  1  0
 14 15  1  0
 15 16  2  0
 15 17  1  0
 17 18  1  0
 18 19  2  0
 19 20  1  0
 20 21  2  0
 21 22  1  0
 22 23  1  0
 22 24  1  0
 21 25  1  0
 25 26  2  0
 14 27  2  0
  6 28  1  0
 28 29  2  0
 29  3  1  0
 27 10  1  0
 26 18  1  0
  1 30  1  0
  1 31  1  0
  1 32  1  0
  4 33  1  0
  5 34  1  0
  7 35  1  0
 11 36  1  0
 12 37  1  0
 13 38  1  0
 19 39  1  0
 20 40  1  0
 23 41  1  0
 23 42  1  0
 23 43  1  0
 24 44  1  0
 24 45  1  0
 24 46  1  0
 25 47  1  0
 26 48  1  0
 27 49  1  0
 28 50  1  0
 29 51  1  0
M  CHG  1  17  -1
M  END
>  <UniqueID>  (41) 
35

>  <SMILES>  (41) 
COc1ccc(NC(=O)c2cccc(C(=O)[N-]c3ccc(N(C)C)cc3)c2)cc1

>  <Energy>  (41) 
64.38046067518687

>  <Genealogy>  (41) 
COc1ccc(NC(=O)c2cccc(C(=O)[N-]c3ccc(N(C)C)cc3)c2)cc1 (protonated)
COc1ccc(NC(=O)c2cccc(C(=O)[N-]c3ccc(N(C)C)cc3)c2)cc1 (3D coordinates assigned)
COc1ccc(NC(=O)c2cccc(C(=O)[N-]c3ccc(N(C)C)cc3)c2)cc1 (optimized conformer: 64.38046067518687 kcal/mol)

>  <smiles>  (41) 
COc1ccc(NC(=O)c2cccc(C(=O)Nc3ccc(N(C)C)cc3)c2)cc1

>  <score_type>  (41) 
oracle

>  <origin>  (41) 
adg

>  <m_score__min__energy>  (41) 
-10.26

>  <m_primary>  (41) 
energy

$$$$
41:0
     RDKit          3D

 27 29  0  0  0  0  0  0  0  0999 V2000
   -6.6820   18.5740  -31.5840 C   0  0  0  0  0  0  0  0  0  0  0  0
   -7.0320   19.2360  -32.9270 C   0  0  1  0  0  0  0  0  0  0  0  0
   -8.4960   19.7150  -32.9610 C   0  0  0  0  0  0  0  0  0  0  0  0
   -8.7120   20.9230  -32.0940 C   0  0  0  0  0  0  0  0  0  0  0  0
   -9.8590   21.1420  -31.6190 O   0  0  0  0  0  0  0  0  0  0  0  0
   -7.6040   21.8740  -31.8450 C   0  0  0  0  0  0  0  0  0  0  0  0
   -7.8130   23.0340  -31.0630 C   0  0  0  0  0  0  0  0  0  0  0  0
   -6.7340   23.8850  -30.8540 C   0  0  0  0  0  0  0  0  0  0  0  0
   -5.5080   23.6360  -31.3740 C   0  0  0  0  0  0  0  0  0  0  0  0
   -5.2490   22.5090  -32.1470 C   0  0  0  0  0  0  0  0  0  0  0  0
   -6.3080   21.6040  -32.3770 C   0  0  0  0  0  0  0  0  0  0  0  0
   -6.0730   20.3970  -33.2550 C   0  0  0  0  0  0  0  0  0  0  0  0
   -4.6380   24.6460  -31.0100 O   0  0  0  0  0  0  0  0  0  0  0  0
   -5.3640   25.5890  -30.2110 C   0  0  0  0  0  0  0  0  0  0  0  0
   -6.6980   25.0660  -30.1360 O   0  0  0  0  0  0  0  0  0  0  0  0
   -7.0219   19.2169  -30.7587 H   0  0  0  0  0  0  0  0  0  0  0  0
   -7.1809   17.5960  -31.5163 H   0  0  0  0  0  0  0  0  0  0  0  0
   -5.5929   18.4355  -31.5163 H   0  0  0  0  0  0  0  0  0  0  0  0
   -6.9101   18.4659  -33.7029 H   0  0  0  0  0  0  0  0  0  0  0  0
   -8.7628   19.9692  -33.9975 H   0  0  0  0  0  0  0  0  0  0  0  0
   -9.1291   18.9021  -32.5758 H   0  0  0  0  0  0  0  0  0  0  0  0
   -8.8007   23.2562  -30.6328 H   0  0  0  0  0  0  0  0  0  0  0  0
   -4.2485   22.3281  -32.5668 H   0  0  0  0  0  0  0  0  0  0  0  0
   -6.2194   20.6902  -34.3051 H   0  0  0  0  0  0  0  0  0  0  0  0
   -5.0466   20.0454  -33.0739 H   0  0  0  0  0  0  0  0  0  0  0  0
   -4.9220   25.6654  -29.2066 H   0  0  0  0  0  0  0  0  0  0  0  0
   -5.3412   26.6000  -30.6438 H   0  0  0  0  0  0  0  0  0  0  0  0
  1  2  1  0
  2  3  1  0
  3  4  1  0
  4  5  2  0
  4  6  1  0
  6  7  2  0
  7  8  1  0
  8  9  2  0
  9 10  1  0
 10 11  2  0
 11 12  1  0
  9 13  1  0
 13 14  1  0
 14 15  1  0
 12  2  1  0
 11  6  1  0
 15  8  1  0
  1 16  1  0
  1 17  1  0
  1 18  1  0
  2 19  1  6
  3 20  1  0
  3 21  1  0
  7 22  1  0
 10 23  1  0
 12 24  1  0
 12 25  1  0
 14 26  1  0
 14 27  1  0
M  END
>  <UniqueID>  (42) 
36

>  <SMILES>  (42) 
C[C@H]1CC(=O)c2cc3c(cc2C1)OCO3

>  <Energy>  (42) 
54.992378327563486

>  <Genealogy>  (42) 
C[C@H]1CC(=O)c2cc3c(cc2C1)OCO3 (chirality)
C[C@H]1CC(=O)c2cc3c(cc2C1)OCO3 (3D coordinates assigned)
C[C@H]1CC(=O)c2cc3c(cc2C1)OCO3 (nonaromatic ring conformer: 54.992378327563486 kcal/mol)

>  <smiles>  (42) 
CC1CC(=O)c2cc3c(cc2C1)OCO3

>  <score_type>  (42) 
oracle

>  <origin>  (42) 
adg

>  <m_score__min__energy>  (42) 
-6.9900000000000002

>  <m_primary>  (42) 
energy

$$$$
42:0
     RDKit          3D

 44 46  0  0  0  0  0  0  0  0999 V2000
   -8.7874   23.6031  -32.3176 H   0  0  0  0  0  0  0  0  0  0  0  0
   -8.0610   23.0890  -31.6710 C   0  0  0  0  0  0  0  0  0  0  0  0
   -7.5690   23.7490  -30.6590 N   0  0  0  0  0  0  0  0  0  0  0  0
   -6.1870   23.8620  -30.2870 C   0  0  0  0  0  0  0  0  0  0  0  0
   -5.3620   24.8640  -30.8260 C   0  0  0  0  0  0  0  0  0  0  0  0
   -5.7796   25.5943  -31.5347 H   0  0  0  0  0  0  0  0  0  0  0  0
   -4.0140   24.9370  -30.4660 C   0  0  0  0  0  0  0  0  0  0  0  0
   -3.3797   25.7342  -30.8808 H   0  0  0  0  0  0  0  0  0  0  0  0
   -3.4650   24.0000  -29.5790 C   0  0  0  0  0  0  0  0  0  0  0  0
   -2.0780   24.0970  -29.2060 N   0  0  0  0  0  0  0  0  0  0  0  0
   -1.0980   23.1210  -29.6920 C   0  0  0  0  0  0  0  0  0  0  0  0
   -1.6010   22.1630  -29.8902 H   0  0  0  0  0  0  0  0  0  0  0  0
   -0.6391   23.4914  -30.6205 H   0  0  0  0  0  0  0  0  0  0  0  0
   -0.0140   22.9190  -28.6300 C   0  0  0  0  0  0  0  0  0  0  0  0
   -0.4566   22.4259  -27.7520 H   0  0  0  0  0  0  0  0  0  0  0  0
    0.7857   22.2956  -29.0563 H   0  0  0  0  0  0  0  0  0  0  0  0
    0.5400   24.1610  -28.2350 O   0  0  0  0  0  0  0  0  0  0  0  0
   -0.4480   24.9440  -27.5900 C   0  0  0  0  0  0  0  0  0  0  0  0
   -0.8711   24.3714  -26.7514 H   0  0  0  0  0  0  0  0  0  0  0  0
    0.0196   25.8701  -27.2243 H   0  0  0  0  0  0  0  0  0  0  0  0
   -1.5720   25.3130  -28.5640 C   0  0  0  0  0  0  0  0  0  0  0  0
   -2.3880   25.8043  -28.0137 H   0  0  0  0  0  0  0  0  0  0  0  0
   -1.1833   25.9990  -29.3310 H   0  0  0  0  0  0  0  0  0  0  0  0
   -4.2830   22.9760  -29.0660 C   0  0  0  0  0  0  0  0  0  0  0  0
   -3.7740   22.0310  -28.2360 F   0  0  0  0  0  0  0  0  0  0  0  0
   -5.6310   22.9040  -29.4330 C   0  0  0  0  0  0  0  0  0  0  0  0
   -6.2587   22.0874  -29.0468 H   0  0  0  0  0  0  0  0  0  0  0  0
   -7.7030   21.6910  -32.0040 C   0  0  0  0  0  0  0  0  0  0  0  0
   -8.5650   20.6250  -31.6960 C   0  0  0  0  0  0  0  0  0  0  0  0
   -9.5316   20.8269  -31.2113 H   0  0  0  0  0  0  0  0  0  0  0  0
   -8.2020   19.3060  -32.0020 C   0  0  0  0  0  0  0  0  0  0  0  0
   -9.1210   18.1740  -31.6460 C   0  0  0  0  0  0  0  0  0  0  0  0
   -9.1905   18.0884  -30.5515 H   0  0  0  0  0  0  0  0  0  0  0  0
  -10.1203   18.3681  -32.0628 H   0  0  0  0  0  0  0  0  0  0  0  0
   -8.7257   17.2359  -32.0628 H   0  0  0  0  0  0  0  0  0  0  0  0
   -6.9470   19.0480  -32.5740 C   0  0  0  0  0  0  0  0  0  0  0  0
   -6.6467   18.0119  -32.7892 H   0  0  0  0  0  0  0  0  0  0  0  0
   -6.0730   20.1040  -32.8730 C   0  0  0  0  0  0  0  0  0  0  0  0
   -4.7180   19.8210  -33.4490 C   0  0  0  0  0  0  0  0  0  0  0  0
   -3.9966   19.6703  -32.6324 H   0  0  0  0  0  0  0  0  0  0  0  0
   -4.7652   18.9133  -34.0686 H   0  0  0  0  0  0  0  0  0  0  0  0
   -4.3980   20.6717  -34.0686 H   0  0  0  0  0  0  0  0  0  0  0  0
   -6.4470   21.4210  -32.5630 C   0  0  0  0  0  0  0  0  0  0  0  0
   -5.7485   22.2475  -32.7605 H   0  0  0  0  0  0  0  0  0  0  0  0
  1  2  1  0
  2  3  2  0
  3  4  1  0
  4  5  2  0
  5  6  1  0
  5  7  1  0
  7  8  1  0
  7  9  2  0
  9 10  1  0
 10 11  1  0
 11 12  1  0
 11 13  1  0
 11 14  1  0
 14 15  1  0
 14 16  1  0
 14 17  1  0
 17 18  1  0
 18 19  1  0
 18 20  1  0
 18 21  1  0
 21 22  1  0
 21 23  1  0
  9 24  1  0
 24 25  1  0
 24 26  2  0
 26 27  1  0
  2 28  1  0
 28 29  2  0
 29 30  1  0
 29 31  1  0
 31 32  1  0
 32 33  1  0
 32 34  1  0
 32 35  1  0
 31 36  2  0
 36 37  1  0
 36 38  1  0
 38 39  1  0
 39 40  1  0
 39 41  1  0
 39 42  1  0
 38 43  2  0
 43 44  1  0
 26  4  1  0
 43 28  1  0
 21 10  1  0
M  END
>  <UniqueID>  (43) 
37

>  <SMILES>  (43) 
Cc1cc(C)cc(/C=N\c2ccc(N3CCOCC3)c(F)c2)c1

>  <Energy>  (43) 
60.42254719113166

>  <Genealogy>  (43) 
Cc1cc(C)cc(/C=N\c2ccc(N3CCOCC3)c(F)c2)c1 (cis-trans isomerization)
Cc1cc(C)cc(/C=N\c2ccc(N3CCOCC3)c(F)c2)c1 (3D coordinates assigned)
Cc1cc(C)cc(/C=N\c2ccc(N3CCOCC3)c(F)c2)c1 (nonaromatic ring conformer: 60.42254719113166 kcal/mol)

>  <smiles>  (43) 
Cc1cc(C)cc(C=Nc2ccc(N3CCOCC3)c(F)c2)c1

>  <score_type>  (43) 
oracle

>  <origin>  (43) 
adg

>  <m_score__min__energy>  (43) 
-7.7599999999999998

>  <m_primary>  (43) 
energy

$$$$
43:0
     RDKit          3D

 44 46  0  0  0  0  0  0  0  0999 V2000
   -6.7300   16.3090  -33.9720 C   0  0  0  0  0  0  0  0  0  0  0  0
   -6.7240   17.6780  -33.3600 C   0  0  0  0  0  0  0  0  0  0  0  0
   -7.8370   18.1230  -32.6020 C   0  0  0  0  0  0  0  0  0  0  0  0
   -7.8570   19.4130  -32.0400 C   0  0  0  0  0  0  0  0  0  0  0  0
   -6.7520   20.2370  -32.2660 C   0  0  0  0  0  0  0  0  0  0  0  0
   -5.6850   19.8140  -33.0140 C   0  0  0  0  0  0  0  0  0  0  0  0
   -4.7820   20.8550  -33.0110 C   0  0  0  0  0  0  0  0  0  0  0  0
   -5.3130   21.8560  -32.2740 N   0  0  0  0  0  0  0  0  0  0  0  0
   -6.5060   21.4860  -31.8180 N   0  0  0  0  0  0  0  0  0  0  0  0
   -7.3450   22.3200  -30.9550 C   0  0  0  0  0  0  0  0  0  0  0  0
   -7.1560   23.8140  -31.2580 C   0  0  0  0  0  0  0  0  0  0  0  0
   -6.3640   24.5670  -30.1740 C   0  0  0  0  0  0  0  0  0  0  0  0
   -4.9580   24.8780  -30.5940 C   0  0  0  0  0  0  0  0  0  0  0  0
   -4.5110   26.0510  -30.4840 O   0  0  0  0  0  0  0  0  0  0  0  0
   -4.1200   23.8270  -31.0870 N   0  0  0  0  0  0  0  0  0  0  0  0
   -3.1530   23.1110  -30.2630 C   0  0  0  0  0  0  0  0  0  0  0  0
   -2.8620   23.8840  -29.0060 C   0  0  0  0  0  0  0  0  0  0  0  0
   -3.7510   23.8440  -27.9200 C   0  0  0  0  0  0  0  0  0  0  0  0
   -3.4620   24.5500  -26.7480 C   0  0  0  0  0  0  0  0  0  0  0  0
   -2.2840   25.2970  -26.6520 C   0  0  0  0  0  0  0  0  0  0  0  0
   -1.3920   25.3380  -27.7280 C   0  0  0  0  0  0  0  0  0  0  0  0
   -1.6780   24.6330  -28.9020 C   0  0  0  0  0  0  0  0  0  0  0  0
   -5.6330   18.5460  -33.5840 C   0  0  0  0  0  0  0  0  0  0  0  0
   -6.7333   15.5510  -33.1748 H   0  0  0  0  0  0  0  0  0  0  0  0
   -7.6287   16.1898  -34.5950 H   0  0  0  0  0  0  0  0  0  0  0  0
   -5.8324   16.1819  -34.5950 H   0  0  0  0  0  0  0  0  0  0  0  0
   -8.6952   17.4515  -32.4515 H   0  0  0  0  0  0  0  0  0  0  0  0
   -8.7133   19.7605  -31.4433 H   0  0  0  0  0  0  0  0  0  0  0  0
   -3.8054   20.8688  -33.5170 H   0  0  0  0  0  0  0  0  0  0  0  0
   -4.8600   22.7760  -32.0790 H   0  0  0  0  0  0  0  0  0  0  0  0
   -8.3999   22.0534  -31.1167 H   0  0  0  0  0  0  0  0  0  0  0  0
   -7.0508   22.1403  -29.9104 H   0  0  0  0  0  0  0  0  0  0  0  0
   -6.6172   23.9099  -32.2122 H   0  0  0  0  0  0  0  0  0  0  0  0
   -8.1587   24.2648  -31.2967 H   0  0  0  0  0  0  0  0  0  0  0  0
   -6.8820   25.5117  -29.9523 H   0  0  0  0  0  0  0  0  0  0  0  0
   -6.3097   23.9151  -29.2897 H   0  0  0  0  0  0  0  0  0  0  0  0
   -3.5631   22.1258  -29.9961 H   0  0  0  0  0  0  0  0  0  0  0  0
   -2.2194   22.9899  -30.8319 H   0  0  0  0  0  0  0  0  0  0  0  0
   -4.6776   23.2555  -27.9913 H   0  0  0  0  0  0  0  0  0  0  0  0
   -4.1624   24.5176  -25.9004 H   0  0  0  0  0  0  0  0  0  0  0  0
   -2.0589   25.8526  -25.7297 H   0  0  0  0  0  0  0  0  0  0  0  0
   -0.4648   25.9249  -27.6513 H   0  0  0  0  0  0  0  0  0  0  0  0
   -0.9736   24.6652  -29.7463 H   0  0  0  0  0  0  0  0  0  0  0  0
   -4.7705   18.2300  -34.1892 H   0  0  0  0  0  0  0  0  0  0  0  0
  1  2  1  0
  2  3  2  0
  3  4  1  0
  4  5  2  0
  5  6  1  0
  6  7  1  0
  7  8  2  0
  8  9  1  0
  9 10  1  0
 10 11  1  0
 11 12  1  0
 12 13  1  0
 13 14  2  0
 13 15  1  0
 15 16  1  0
 16 17  1  0
 17 18  2  0
 18 19  1  0
 19 20  2  0
 20 21  1  0
 21 22  2  0
  6 23  2  0
 23  2  1  0
  9  5  1  0
 22 17  1  0
  1 24  1  0
  1 25  1  0
  1 26  1  0
  3 27  1  0
  4 28  1  0
  7 29  1  0
  8 30  1  0
 10 31  1  0
 10 32  1  0
 11 33  1  0
 11 34  1  0
 12 35  1  0
 12 36  1  0
 16 37  1  0
 16 38  1  0
 18 39  1  0
 19 40  1  0
 20 41  1  0
 21 42  1  0
 22 43  1  0
 23 44  1  0
M  CHG  2   8   1  15  -1
M  END
>  <UniqueID>  (44) 
38

>  <SMILES>  (44) 
Cc1ccc2c(c[nH+]n2CCCC(=O)[N-]Cc2ccccc2)c1

>  <Energy>  (44) 
74.53549987701048

>  <Genealogy>  (44) 
Cc1ccc2c(c[nH+]n2CCCC(=O)[N-]Cc2ccccc2)c1 (protonated)
Cc1ccc2c(c[nH+]n2CCCC(=O)[N-]Cc2ccccc2)c1 (3D coordinates assigned)
Cc1ccc2c(c[nH+]n2CCCC(=O)[N-]Cc2ccccc2)c1 (optimized conformer: 74.53549987701048 kcal/mol)

>  <smiles>  (44) 
Cc1ccc2c(cnn2CCCC(=O)NCc2ccccc2)c1

>  <score_type>  (44) 
oracle

>  <origin>  (44) 
adg

>  <m_score__min__energy>  (44) 
-9.4800000000000004

>  <m_primary>  (44) 
energy

$$$$
44:0
     RDKit          3D

 39 40  0  0  0  0  0  0  0  0999 V2000
    0.1480   27.1820  -22.9990 C   0  0  0  0  0  0  0  0  0  0  0  0
   -0.7710   27.6960  -23.9590 O   0  0  0  0  0  0  0  0  0  0  0  0
   -1.0110   27.1130  -25.2130 C   0  0  0  0  0  0  0  0  0  0  0  0
   -0.3120   27.4960  -26.3710 C   0  0  0  0  0  0  0  0  0  0  0  0
   -0.5880   26.8810  -27.5940 C   0  0  0  0  0  0  0  0  0  0  0  0
   -1.5700   25.8850  -27.6870 C   0  0  0  0  0  0  0  0  0  0  0  0
   -1.7970   25.2600  -28.9590 N   0  0  0  0  0  0  0  0  0  0  0  0
   -1.7160   23.8610  -29.2570 C   0  0  0  0  0  0  0  0  0  0  0  0
   -0.9090   23.4310  -30.1230 O   0  0  0  0  0  0  0  0  0  0  0  0
   -2.5450   22.8960  -28.4730 C   0  0  0  0  0  0  0  0  0  0  0  0
   -3.9800   22.3460  -29.4630 S   0  0  0  0  0  0  0  0  0  0  0  0
   -4.8790   23.9370  -29.4590 C   0  0  0  0  0  0  0  0  0  0  0  0
   -4.6860   24.6350  -30.7670 C   0  0  0  0  0  0  0  0  0  0  0  0
   -3.9590   25.6630  -30.8250 O   0  0  0  0  0  0  0  0  0  0  0  0
   -5.3760   24.1590  -31.9280 N   0  0  0  0  0  0  0  0  0  0  0  0
   -6.3280   23.0860  -31.9800 C   0  0  0  0  0  0  0  0  0  0  0  0
   -7.6490   23.3430  -31.5910 C   0  0  0  0  0  0  0  0  0  0  0  0
   -8.6040   22.3220  -31.6060 C   0  0  0  0  0  0  0  0  0  0  0  0
   -8.2380   21.0290  -31.9900 C   0  0  0  0  0  0  0  0  0  0  0  0
   -6.9180   20.7580  -32.3600 C   0  0  0  0  0  0  0  0  0  0  0  0
   -5.9630   21.7790  -32.3510 C   0  0  0  0  0  0  0  0  0  0  0  0
   -2.2570   25.4890  -26.5240 C   0  0  0  0  0  0  0  0  0  0  0  0
   -1.9840   26.1090  -25.3020 C   0  0  0  0  0  0  0  0  0  0  0  0
   -0.2253   27.3908  -21.9856 H   0  0  0  0  0  0  0  0  0  0  0  0
    0.2510   26.0953  -23.1352 H   0  0  0  0  0  0  0  0  0  0  0  0
    1.1278   27.6631  -23.1352 H   0  0  0  0  0  0  0  0  0  0  0  0
    0.4548   28.2826  -26.3136 H   0  0  0  0  0  0  0  0  0  0  0  0
   -0.0295   27.1810  -28.4929 H   0  0  0  0  0  0  0  0  0  0  0  0
   -1.9314   22.0228  -28.2065 H   0  0  0  0  0  0  0  0  0  0  0  0
   -2.9076   23.3929  -27.5610 H   0  0  0  0  0  0  0  0  0  0  0  0
   -5.9513   23.7494  -29.3006 H   0  0  0  0  0  0  0  0  0  0  0  0
   -4.4884   24.5711  -28.6495 H   0  0  0  0  0  0  0  0  0  0  0  0
   -7.9370   24.3554  -31.2714 H   0  0  0  0  0  0  0  0  0  0  0  0
   -9.6431   22.5363  -31.3157 H   0  0  0  0  0  0  0  0  0  0  0  0
   -8.9887   20.2250  -32.0010 H   0  0  0  0  0  0  0  0  0  0  0  0
   -6.6298   19.7394  -32.6589 H   0  0  0  0  0  0  0  0  0  0  0  0
   -4.9231   21.5597  -32.6349 H   0  0  0  0  0  0  0  0  0  0  0  0
   -3.0106   24.6895  -26.5773 H   0  0  0  0  0  0  0  0  0  0  0  0
   -2.5382   25.8060  -24.4014 H   0  0  0  0  0  0  0  0  0  0  0  0
  1  2  1  0
  2  3  1  0
  3  4  2  0
  4  5  1  0
  5  6  2  0
  6  7  1  0
  7  8  1  0
  8  9  2  0
  8 10  1  0
 10 11  1  0
 11 12  1  0
 12 13  1  0
 13 14  2  0
 13 15  1  0
 15 16  1  0
 16 17  2  0
 17 18  1  0
 18 19  2  0
 19 20  1  0
 20 21  2  0
  6 22  1  0
 22 23  2  0
 23  3  1  0
 21 16  1  0
  1 24  1  0
  1 25  1  0
  1 26  1  0
  4 27  1  0
  5 28  1  0
 10 29  1  0
 10 30  1  0
 12 31  1  0
 12 32  1  0
 17 33  1  0
 18 34  1  0
 19 35  1  0
 20 36  1  0
 21 37  1  0
 22 38  1  0
 23 39  1  0
M  CHG  2   7  -1  15  -1
M  END
>  <UniqueID>  (45) 
39

>  <SMILES>  (45) 
COc1ccc([N-]C(=O)CSCC(=O)[N-]c2ccccc2)cc1

>  <Energy>  (45) 
40.94087317573748

>  <Genealogy>  (45) 
COc1ccc([N-]C(=O)CSCC(=O)[N-]c2ccccc2)cc1 (protonated)
COc1ccc([N-]C(=O)CSCC(=O)[N-]c2ccccc2)cc1 (3D coordinates assigned)
COc1ccc([N-]C(=O)CSCC(=O)[N-]c2ccccc2)cc1 (optimized conformer: 40.94087317573748 kcal/mol)

>  <smiles>  (45) 
COc1ccc(NC(=O)CSCC(=O)Nc2ccccc2)cc1

>  <score_type>  (45) 
oracle

>  <origin>  (45) 
adg

>  <m_score__min__energy>  (45) 
-9.8399999999999999

>  <m_primary>  (45) 
energy

$$$$
45:0
     RDKit          3D

 31 32  0  0  0  0  0  0  0  0999 V2000
   -6.6000   24.5178  -31.1033 H   0  0  0  0  0  0  0  0  0  0  0  0
   -6.4490   23.5380  -31.5800 C   0  0  0  0  0  0  0  0  0  0  0  0
   -5.0550   23.0500  -31.6970 C   0  0  0  0  0  0  0  0  0  0  0  0
   -4.7230   22.4530  -32.7560 O   0  0  0  0  0  0  0  0  0  0  0  0
   -4.0560   23.1900  -30.6080 C   0  0  0  0  0  0  0  0  0  0  0  0
   -3.6280   22.0510  -29.8970 C   0  0  0  0  0  0  0  0  0  0  0  0
   -4.1220   20.8220  -30.1940 F   0  0  0  0  0  0  0  0  0  0  0  0
   -2.6510   22.1680  -28.9040 C   0  0  0  0  0  0  0  0  0  0  0  0
   -2.3130   21.2739  -28.3596 H   0  0  0  0  0  0  0  0  0  0  0  0
   -2.1030   23.4150  -28.6010 C   0  0  0  0  0  0  0  0  0  0  0  0
   -1.3286   23.5004  -27.8244 H   0  0  0  0  0  0  0  0  0  0  0  0
   -2.5360   24.5550  -29.2820 C   0  0  0  0  0  0  0  0  0  0  0  0
   -1.9950   25.7960  -28.9670 O   0  0  0  0  0  0  0  0  0  0  0  0
   -3.5150   24.4490  -30.2780 C   0  0  0  0  0  0  0  0  0  0  0  0
   -3.9410   25.5740  -30.9070 F   0  0  0  0  0  0  0  0  0  0  0  0
   -7.5450   22.8870  -32.0060 C   0  0  0  0  0  0  0  0  0  0  0  0
   -8.4088   23.4950  -32.3131 H   0  0  0  0  0  0  0  0  0  0  0  0
   -7.6800   21.4180  -32.0940 C   0  0  0  0  0  0  0  0  0  0  0  0
   -8.6220   20.7670  -31.2850 C   0  0  0  0  0  0  0  0  0  0  0  0
   -9.2429   21.3500  -30.5889 H   0  0  0  0  0  0  0  0  0  0  0  0
   -8.7750   19.3790  -31.3600 C   0  0  0  0  0  0  0  0  0  0  0  0
   -9.5216   18.8744  -30.7292 H   0  0  0  0  0  0  0  0  0  0  0  0
   -7.9820   18.6320  -32.2340 C   0  0  0  0  0  0  0  0  0  0  0  0
   -8.1088   17.5409  -32.2924 H   0  0  0  0  0  0  0  0  0  0  0  0
   -7.0250   19.2680  -33.0370 C   0  0  0  0  0  0  0  0  0  0  0  0
   -6.1450   18.4640  -33.9480 C   0  0  0  0  0  0  0  0  0  0  0  0
   -5.4650   17.8427  -33.3467 H   0  0  0  0  0  0  0  0  0  0  0  0
   -6.7682   17.8168  -34.5827 H   0  0  0  0  0  0  0  0  0  0  0  0
   -5.5566   19.1430  -34.5827 H   0  0  0  0  0  0  0  0  0  0  0  0
   -6.8540   20.6570  -32.9390 C   0  0  0  0  0  0  0  0  0  0  0  0
   -6.0684   21.1537  -33.5273 H   0  0  0  0  0  0  0  0  0  0  0  0
  1  2  1  0
  2  3  1  0
  3  4  2  0
  3  5  1  0
  5  6  2  0
  6  7  1  0
  6  8  1  0
  8  9  1  0
  8 10  2  0
 10 11  1  0
 10 12  1  0
 12 13  1  0
 12 14  2  0
 14 15  1  0
  2 16  2  0
 16 17  1  0
 16 18  1  0
 18 19  2  0
 19 20  1  0
 19 21  1  0
 21 22  1  0
 21 23  2  0
 23 24  1  0
 23 25  1  0
 25 26  1  0
 26 27  1  0
 26 28  1  0
 26 29  1  0
 25 30  2  0
 30 31  1  0
 14  5  1  0
 30 18  1  0
M  CHG  1  13  -1
M  END
>  <UniqueID>  (46) 
40

>  <SMILES>  (46) 
Cc1cccc(/C=C\C(=O)c2c(F)ccc([O-])c2F)c1

>  <Energy>  (46) 
42.18159025097545

>  <Genealogy>  (46) 
Cc1cccc(C=CC(=O)c2c(F)ccc([O-])c2F)c1 (protonated)
Cc1cccc(/C=C\C(=O)c2c(F)ccc([O-])c2F)c1 (cis-trans isomerization)
Cc1cccc(/C=C\C(=O)c2c(F)ccc([O-])c2F)c1 (3D coordinates assigned)
Cc1cccc(/C=C\C(=O)c2c(F)ccc([O-])c2F)c1 (optimized conformer: 42.18159025097545 kcal/mol)

>  <smiles>  (46) 
Cc1cccc(C=CC(=O)c2c(F)ccc(O)c2F)c1

>  <score_type>  (46) 
oracle

>  <origin>  (46) 
adg

>  <m_score__min__energy>  (46) 
-10.66

>  <m_primary>  (46) 
energy

$$$$
46:0
     RDKit          3D

 41 43  0  0  0  0  0  0  0  0999 V2000
    0.9530   23.9880  -35.8380 C   0  0  0  0  0  0  0  0  0  0  0  0
    0.8570   25.1720  -36.4600 C   0  0  0  0  0  0  0  0  0  0  0  0
    0.2150   26.3510  -35.7730 C   0  0  0  0  0  0  0  0  0  0  0  0
    0.5820   27.7020  -36.4880 C   0  0  2  0  0  0  0  0  0  0  0  0
   -0.2930   28.8330  -35.9030 C   0  0  0  0  0  0  0  0  0  0  0  0
    0.1300   30.1130  -35.8340 C   0  0  0  0  0  0  0  0  0  0  0  0
   -1.7950   28.5970  -35.8970 C   0  0  0  0  0  0  0  0  0  0  0  0
   -2.2500   27.9120  -37.2060 C   0  0  0  0  0  0  0  0  0  0  0  0
   -1.2560   28.1370  -38.3580 C   0  0  0  0  0  0  0  0  0  0  0  0
    0.2310   27.6740  -38.0580 C   0  0  1  0  0  0  0  0  0  0  0  0
    1.1260   28.6740  -38.8550 C   0  0  0  0  0  0  0  0  0  0  0  0
    0.4320   26.2440  -38.6550 C   0  0  0  0  0  0  0  0  0  0  0  0
    1.4070   25.3730  -37.8510 C   0  0  1  0  0  0  0  0  0  0  0  0
    2.8240   25.9720  -37.8130 C   0  0  0  0  0  0  0  0  0  0  0  0
    3.0530   27.0930  -36.8150 C   0  0  0  0  0  0  0  0  0  0  0  0
    2.1070   27.8540  -36.1960 C   0  0  0  0  0  0  0  0  0  0  0  0
    2.5980   28.5660  -34.9470 C   0  0  0  0  0  0  0  0  0  0  0  0
    1.4233   23.1349  -36.3489 H   0  0  0  0  0  0  0  0  0  0  0  0
    0.5614   23.8698  -34.8169 H   0  0  0  0  0  0  0  0  0  0  0  0
   -0.8774   26.2230  -35.7889 H   0  0  0  0  0  0  0  0  0  0  0  0
    0.5883   26.3943  -34.7392 H   0  0  0  0  0  0  0  0  0  0  0  0
   -0.5263   30.8870  -35.4095 H   0  0  0  0  0  0  0  0  0  0  0  0
    1.1310   30.3821  -36.2022 H   0  0  0  0  0  0  0  0  0  0  0  0
   -2.0551   27.9530  -35.0440 H   0  0  0  0  0  0  0  0  0  0  0  0
   -2.3035   29.5688  -35.8132 H   0  0  0  0  0  0  0  0  0  0  0  0
   -2.3437   26.8310  -37.0256 H   0  0  0  0  0  0  0  0  0  0  0  0
   -3.2128   28.3548  -37.5007 H   0  0  0  0  0  0  0  0  0  0  0  0
   -1.6171   27.5792  -39.2346 H   0  0  0  0  0  0  0  0  0  0  0  0
   -1.2134   29.2241  -38.5204 H   0  0  0  0  0  0  0  0  0  0  0  0
    1.6894   29.3035  -38.1505 H   0  0  0  0  0  0  0  0  0  0  0  0
    1.8289   28.1126  -39.4881 H   0  0  0  0  0  0  0  0  0  0  0  0
    0.4904   29.3106  -39.4881 H   0  0  0  0  0  0  0  0  0  0  0  0
   -0.5445   25.7383  -38.6822 H   0  0  0  0  0  0  0  0  0  0  0  0
    0.8657   26.3716  -39.6578 H   0  0  0  0  0  0  0  0  0  0  0  0
    1.5004   24.3978  -38.3513 H   0  0  0  0  0  0  0  0  0  0  0  0
    3.5251   25.1595  -37.5714 H   0  0  0  0  0  0  0  0  0  0  0  0
    2.9781   26.4247  -38.8036 H   0  0  0  0  0  0  0  0  0  0  0  0
    4.1003   27.3160  -36.5632 H   0  0  0  0  0  0  0  0  0  0  0  0
    2.2325   28.0359  -34.0551 H   0  0  0  0  0  0  0  0  0  0  0  0
    3.6979   28.5789  -34.9408 H   0  0  0  0  0  0  0  0  0  0  0  0
    2.2191   29.5987  -34.9408 H   0  0  0  0  0  0  0  0  0  0  0  0
  1  2  2  0
  2  3  1  0
  4  3  1  1
  4  5  1  0
  5  6  2  0
  5  7  1  0
  7  8  1  0
  8  9  1  0
  9 10  1  0
 10 11  1  6
 10 12  1  0
 12 13  1  0
 13 14  1  0
 14 15  1  0
 15 16  2  0
 16 17  1  0
 13  2  1  0
 10  4  1  0
 16  4  1  0
  1 18  1  0
  1 19  1  0
  3 20  1  0
  3 21  1  0
  6 22  1  0
  6 23  1  0
  7 24  1  0
  7 25  1  0
  8 26  1  0
  8 27  1  0
  9 28  1  0
  9 29  1  0
 11 30  1  0
 11 31  1  0
 11 32  1  0
 12 33  1  0
 12 34  1  0
 13 35  1  6
 14 36  1  0
 14 37  1  0
 15 38  1  0
 17 39  1  0
 17 40  1  0
 17 41  1  0
M  END
>  <UniqueID>  (47) 
41

>  <SMILES>  (47) 
C=C1C[C@]23C(=C)CCC[C@]2(C)CC1CC=C3C

>  <Energy>  (47) 
81.01186943437743

>  <Genealogy>  (47) 
C=C1C[C@]23C(=C)CCC[C@]2(C)CC1CC=C3C (chirality)
C=C1C[C@]23C(=C)CCC[C@]2(C)CC1CC=C3C (3D coordinates assigned)
C=C1C[C@]23C(=C)CCC[C@]2(C)CC1CC=C3C (nonaromatic ring conformer: 81.01186943437743 kcal/mol)

>  <smiles>  (47) 
C=C1CC23C(=C)CCCC2(C)CC1CC=C3C

>  <score_type>  (47) 
oracle

>  <origin>  (47) 
adg

>  <m_score__min__energy>  (47) 
-6.0700000000000003

>  <m_primary>  (47) 
energy

$$$$
47:0
     RDKit          3D

 20 21  0  0  0  0  0  0  0  0999 V2000
   -4.2180   25.6720  -30.8430 O   0  0  0  0  0  0  0  0  0  0  0  0
   -3.5710   24.6920  -30.3880 C   0  0  0  0  0  0  0  0  0  0  0  0
   -2.5960   24.9150  -29.4240 O   0  0  0  0  0  0  0  0  0  0  0  0
   -3.9060   23.3160  -30.8230 C   0  0  0  0  0  0  0  0  0  0  0  0
   -2.8640   22.3790  -30.8990 C   0  0  0  0  0  0  0  0  0  0  0  0
   -3.1080   21.0910  -31.3760 C   0  0  0  0  0  0  0  0  0  0  0  0
   -2.1630   20.2620  -31.4510 O   0  0  0  0  0  0  0  0  0  0  0  0
   -4.3590   20.7320  -31.7670 N   0  0  0  0  0  0  0  0  0  0  0  0
   -5.4110   21.5970  -31.6870 C   0  0  0  0  0  0  0  0  0  0  0  0
   -6.6930   21.1770  -32.0770 C   0  0  0  0  0  0  0  0  0  0  0  0
   -7.7820   22.0410  -31.9650 C   0  0  0  0  0  0  0  0  0  0  0  0
   -7.6070   23.3240  -31.4520 C   0  0  0  0  0  0  0  0  0  0  0  0
   -6.3380   23.7620  -31.0620 C   0  0  0  0  0  0  0  0  0  0  0  0
   -5.2150   22.9160  -31.1970 C   0  0  0  0  0  0  0  0  0  0  0  0
   -1.8497   22.6616  -30.5808 H   0  0  0  0  0  0  0  0  0  0  0  0
   -4.5120   19.7600  -32.1260 H   0  0  0  0  0  0  0  0  0  0  0  0
   -6.8390   20.1612  -32.4729 H   0  0  0  0  0  0  0  0  0  0  0  0
   -8.7813   21.7085  -32.2825 H   0  0  0  0  0  0  0  0  0  0  0  0
   -8.4720   23.9963  -31.3532 H   0  0  0  0  0  0  0  0  0  0  0  0
   -6.2131   24.7730  -30.6469 H   0  0  0  0  0  0  0  0  0  0  0  0
  1  2  2  0
  2  3  1  0
  2  4  1  0
  4  5  2  0
  5  6  1  0
  6  7  2  0
  6  8  1  0
  8  9  1  0
  9 10  2  0
 10 11  1  0
 11 12  2  0
 12 13  1  0
 13 14  2  0
 14  4  1  0
 14  9  1  0
  5 15  1  0
  8 16  1  0
 10 17  1  0
 11 18  1  0
 12 19  1  0
 13 20  1  0
M  CHG  1   3  -1
M  END
>  <UniqueID>  (48) 
42

>  <SMILES>  (48) 
O=C([O-])c1cc(=O)[nH]c2ccccc12

>  <Energy>  (48) 
31.598673867163846

>  <Genealogy>  (48) 
O=C([O-])c1cc(=O)[nH]c2ccccc12 (protonated)
O=C([O-])c1cc(=O)[nH]c2ccccc12 (3D coordinates assigned)
O=C([O-])c1cc(=O)[nH]c2ccccc12 (optimized conformer: 31.598673867163846 kcal/mol)

>  <smiles>  (48) 
O=C(O)c1cc(=O)[nH]c2ccccc12

>  <score_type>  (48) 
oracle

>  <origin>  (48) 
adg

>  <m_score__min__energy>  (48) 
-7.5899999999999999

>  <m_primary>  (48) 
energy

$$$$
