0:0
     RDKit          3D

 28 29  0  0  0  0  0  0  0  0999 V2000
   -5.3760   25.7470  -30.4650 C   0  0  0  0  0  0  0  0  0  0  0  0
   -4.1320   25.1630  -30.8390 O   0  0  0  0  0  0  0  0  0  0  0  0
   -3.8100   23.8040  -30.6890 C   0  0  0  0  0  0  0  0  0  0  0  0
   -2.7950   23.3750  -29.8090 C   0  0  0  0  0  0  0  0  0  0  0  0
   -2.4600   22.0230  -29.7220 C   0  0  0  0  0  0  0  0  0  0  0  0
   -3.1250   21.0840  -30.5110 C   0  0  0  0  0  0  0  0  0  0  0  0
   -4.1380   21.4940  -31.3790 C   0  0  0  0  0  0  0  0  0  0  0  0
   -4.5040   22.8470  -31.4590 C   0  0  0  0  0  0  0  0  0  0  0  0
   -5.5500   23.2320  -32.3630 N   0  0  0  0  0  0  0  0  0  0  0  0
   -6.9520   23.3120  -31.9550 C   0  0  0  0  0  0  0  0  0  0  0  0
   -7.5810   21.9590  -32.0360 C   0  0  0  0  0  0  0  0  0  0  0  0
   -7.0650   20.8630  -32.7140 C   0  0  0  0  0  0  0  0  0  0  0  0
   -7.9090   19.7460  -32.6770 C   0  0  0  0  0  0  0  0  0  0  0  0
   -9.0920   19.9640  -31.9820 C   0  0  0  0  0  0  0  0  0  0  0  0
   -9.0900   21.5490  -31.4180 S   0  0  0  0  0  0  0  0  0  0  0  0
   -5.4497   25.7816  -29.3680 H   0  0  0  0  0  0  0  0  0  0  0  0
   -5.4379   26.7682  -30.8691 H   0  0  0  0  0  0  0  0  0  0  0  0
   -6.2012   25.1422  -30.8691 H   0  0  0  0  0  0  0  0  0  0  0  0
   -2.2639   24.1107  -29.1872 H   0  0  0  0  0  0  0  0  0  0  0  0
   -1.6698   21.6969  -29.0297 H   0  0  0  0  0  0  0  0  0  0  0  0
   -2.8509   20.0205  -30.4489 H   0  0  0  0  0  0  0  0  0  0  0  0
   -4.6537   20.7512  -32.0054 H   0  0  0  0  0  0  0  0  0  0  0  0
   -5.3600   23.1660  -33.3900 H   0  0  0  0  0  0  0  0  0  0  0  0
   -7.0107   23.6806  -30.9203 H   0  0  0  0  0  0  0  0  0  0  0  0
   -7.4864   24.0015  -32.6251 H   0  0  0  0  0  0  0  0  0  0  0  0
   -6.0924   20.8711  -33.2279 H   0  0  0  0  0  0  0  0  0  0  0  0
   -7.6588   18.7866  -33.1533 H   0  0  0  0  0  0  0  0  0  0  0  0
   -9.8931   19.2263  -31.8270 H   0  0  0  0  0  0  0  0  0  0  0  0
  1  2  1  0
  2  3  1  0
  3  4  2  0
  4  5  1  0
  5  6  2  0
  6  7  1  0
  7  8  2  0
  8  9  1  0
  9 10  1  0
 10 11  1  0
 11 12  2  0
 12 13  1  0
 13 14  2  0
 14 15  1  0
  8  3  1  0
 15 11  1  0
  1 16  1  0
  1 17  1  0
  1 18  1  0
  4 19  1  0
  5 20  1  0
  6 21  1  0
  7 22  1  0
  9 23  1  0
 10 24  1  0
 10 25  1  0
 12 26  1  0
 13 27  1  0
 14 28  1  0
M  END
>  <UniqueID>  (1) 
1

>  <SMILES>  (1) 
COc1ccccc1NCc1cccs1

>  <Energy>  (1) 
55.59891888906563

>  <Genealogy>  (1) 
COc1ccccc1NCc1cccs1 (3D coordinates assigned)
COc1ccccc1NCc1cccs1 (optimized conformer: 55.59891888906563 kcal/mol)

>  <smiles>  (1) 
COc1ccccc1NCc1cccs1

>  <score_type>  (1) 
oracle

>  <origin>  (1) 
adg

>  <m_score__min__energy>  (1) 
-6.6100000000000003

>  <m_primary>  (1) 
energy

$$$$
1:0
     RDKit          3D

 30 30  0  0  0  0  0  0  0  0999 V2000
   -7.2870   24.5158  -32.3963 H   0  0  0  0  0  0  0  0  0  0  0  0
   -6.9070   23.8230  -31.6310 C   0  0  0  0  0  0  0  0  0  0  0  0
   -6.0260   24.3080  -30.7390 C   0  0  0  0  0  0  0  0  0  0  0  0
   -6.4910   25.2590  -29.7590 C   0  0  0  0  0  0  0  0  0  0  0  0
   -6.8630   26.0230  -28.9730 N   0  0  0  0  0  0  0  0  0  0  0  0
   -4.5850   23.9780  -30.7400 C   0  0  0  0  0  0  0  0  0  0  0  0
   -3.7420   24.9110  -30.8260 O   0  0  0  0  0  0  0  0  0  0  0  0
   -4.1470   22.6100  -30.7290 N   0  0  0  0  0  0  0  0  0  0  0  0
   -4.8700   21.8560  -30.7580 H   0  0  0  0  0  0  0  0  0  0  0  0
   -2.7260   22.2410  -30.7640 C   0  0  1  0  0  0  0  0  0  0  0  0
   -2.1301   23.1538  -30.9116 H   0  0  0  0  0  0  0  0  0  0  0  0
   -2.3290   21.5860  -29.4370 C   0  0  0  0  0  0  0  0  0  0  0  0
   -2.6996   22.1974  -28.6010 H   0  0  0  0  0  0  0  0  0  0  0  0
   -2.7693   20.5796  -29.3786 H   0  0  0  0  0  0  0  0  0  0  0  0
   -1.2331   21.5107  -29.3786 H   0  0  0  0  0  0  0  0  0  0  0  0
   -2.4360   21.2840  -31.9370 C   0  0  0  0  0  0  0  0  0  0  0  0
   -2.5533   20.2477  -31.5873 H   0  0  0  0  0  0  0  0  0  0  0  0
   -1.4094   21.4728  -32.2840 H   0  0  0  0  0  0  0  0  0  0  0  0
   -3.3830   21.5180  -33.1140 C   0  0  0  0  0  0  0  0  0  0  0  0
   -4.3853   21.7657  -32.7345 H   0  0  0  0  0  0  0  0  0  0  0  0
   -3.0071   22.3503  -33.7272 H   0  0  0  0  0  0  0  0  0  0  0  0
   -3.4380   20.6064  -33.7272 H   0  0  0  0  0  0  0  0  0  0  0  0
   -7.4040   22.4350  -31.6640 C   0  0  0  0  0  0  0  0  0  0  0  0
   -8.9220   21.8940  -31.1660 S   0  0  0  0  0  0  0  0  0  0  0  0
   -8.7320   20.3010  -31.6670 C   0  0  0  0  0  0  0  0  0  0  0  0
   -9.4694   19.4934  -31.5488 H   0  0  0  0  0  0  0  0  0  0  0  0
   -7.4810   20.1840  -32.2560 C   0  0  0  0  0  0  0  0  0  0  0  0
   -6.8330   18.5520  -33.0020 Br  0  0  0  0  0  0  0  0  0  0  0  0
   -6.7440   21.3750  -32.2720 C   0  0  0  0  0  0  0  0  0  0  0  0
   -5.7435   21.4620  -32.7208 H   0  0  0  0  0  0  0  0  0  0  0  0
  1  2  1  0
  2  3  2  0
  3  4  1  0
  4  5  3  0
  3  6  1  0
  6  7  2  0
  6  8  1  0
  8  9  1  0
  8 10  1  0
 10 11  1  6
 10 12  1  0
 12 13  1  0
 12 14  1  0
 12 15  1  0
 10 16  1  0
 16 17  1  0
 16 18  1  0
 16 19  1  0
 19 20  1  0
 19 21  1  0
 19 22  1  0
  2 23  1  0
 23 24  1  0
 24 25  1  0
 25 26  1  0
 25 27  2  0
 27 28  1  0
 27 29  1  0
 29 30  1  0
 29 23  2  0
M  END
>  <UniqueID>  (2) 
2

>  <SMILES>  (2) 
CC[C@H](C)NC(=O)/C(C#N)=C\c1cc(Br)cs1

>  <Energy>  (2) 
51.912239826485205

>  <Genealogy>  (2) 
CC[C@H](C)NC(=O)C(C#N)=Cc1cc(Br)cs1 (chirality)
CC[C@H](C)NC(=O)/C(C#N)=C\c1cc(Br)cs1 (cis-trans isomerization)
CC[C@H](C)NC(=O)/C(C#N)=C\c1cc(Br)cs1 (3D coordinates assigned)
CC[C@H](C)NC(=O)/C(C#N)=C\c1cc(Br)cs1 (optimized conformer: 51.912239826485205 kcal/mol)

>  <smiles>  (2) 
CCC(C)NC(=O)C(C#N)=Cc1cc(Br)cs1

>  <score_type>  (2) 
oracle

>  <origin>  (2) 
adg

>  <m_score__min__energy>  (2) 
-7.21

>  <m_primary>  (2) 
energy

$$$$
2:0
     RDKit          3D

 57 60  0  0  0  0  0  0  0  0999 V2000
    0.9950   19.4020  -31.3220 C   0  0  0  0  0  0  0  0  0  0  0  0
    0.0970   18.6670  -30.3330 C   0  0  0  0  0  0  0  0  0  0  0  0
    0.7980   18.4920  -29.0410 N   0  0  0  0  0  0  0  0  0  0  0  0
    1.3880   19.7520  -28.5460 C   0  0  0  0  0  0  0  0  0  0  0  0
    0.3090   20.7790  -28.1340 C   0  0  0  0  0  0  0  0  0  0  0  0
   -0.9960   20.1360  -27.8550 N   0  0  0  0  0  0  0  0  0  0  0  0
   -1.8910   21.0430  -27.1070 C   0  0  0  0  0  0  0  0  0  0  0  0
   -2.3890   22.1500  -27.9990 C   0  0  0  0  0  0  0  0  0  0  0  0
   -1.8650   23.4410  -27.8690 C   0  0  0  0  0  0  0  0  0  0  0  0
   -2.3480   24.4770  -28.6670 C   0  0  0  0  0  0  0  0  0  0  0  0
   -3.3740   24.2490  -29.5900 C   0  0  0  0  0  0  0  0  0  0  0  0
   -3.9000   22.9430  -29.7500 C   0  0  0  0  0  0  0  0  0  0  0  0
   -3.4020   21.9080  -28.9380 C   0  0  0  0  0  0  0  0  0  0  0  0
   -4.9210   22.5560  -30.8090 C   0  0  0  0  0  0  0  0  0  0  0  0
   -5.4760   23.6960  -31.5720 N   0  0  0  0  0  0  0  0  0  0  0  0
   -6.3990   23.2210  -32.6270 C   0  0  0  0  0  0  0  0  0  0  0  0
   -7.2110   22.0480  -32.1400 C   0  0  0  0  0  0  0  0  0  0  0  0
   -6.9150   20.7510  -32.5830 C   0  0  0  0  0  0  0  0  0  0  0  0
   -7.6640   19.6670  -32.1200 C   0  0  0  0  0  0  0  0  0  0  0  0
   -8.7020   19.8920  -31.2140 C   0  0  0  0  0  0  0  0  0  0  0  0
   -8.9760   21.1550  -30.7910 N   0  0  0  0  0  0  0  0  0  0  0  0
   -8.2630   22.2270  -31.2280 C   0  0  0  0  0  0  0  0  0  0  0  0
   -6.1510   24.6490  -30.6660 C   0  0  0  0  0  0  0  0  0  0  0  0
   -5.1890   25.7770  -30.3140 C   0  0  0  0  0  0  0  0  0  0  0  0
   -3.8330   25.3380  -30.3350 O   0  0  0  0  0  0  0  0  0  0  0  0
   -0.8050   18.8730  -27.1240 C   0  0  0  0  0  0  0  0  0  0  0  0
   -0.0530   17.8540  -28.0070 C   0  0  0  0  0  0  0  0  0  0  0  0
    1.7315   20.0048  -30.7705 H   0  0  0  0  0  0  0  0  0  0  0  0
    1.5195   18.6707  -31.9545 H   0  0  0  0  0  0  0  0  0  0  0  0
    0.3818   20.0607  -31.9545 H   0  0  0  0  0  0  0  0  0  0  0  0
   -0.8213   19.2508  -30.1723 H   0  0  0  0  0  0  0  0  0  0  0  0
   -0.1548   17.6776  -30.7425 H   0  0  0  0  0  0  0  0  0  0  0  0
    2.0173   19.5292  -27.6717 H   0  0  0  0  0  0  0  0  0  0  0  0
    1.9791   20.1921  -29.3627 H   0  0  0  0  0  0  0  0  0  0  0  0
    0.6466   21.3037  -27.2281 H   0  0  0  0  0  0  0  0  0  0  0  0
    0.1696   21.4778  -28.9720 H   0  0  0  0  0  0  0  0  0  0  0  0
   -2.7501   20.4708  -26.7268 H   0  0  0  0  0  0  0  0  0  0  0  0
   -1.3294   21.4861  -26.2713 H   0  0  0  0  0  0  0  0  0  0  0  0
   -1.0698   23.6389  -27.1352 H   0  0  0  0  0  0  0  0  0  0  0  0
   -1.9176   25.4846  -28.5698 H   0  0  0  0  0  0  0  0  0  0  0  0
   -3.8135   20.8931  -29.0412 H   0  0  0  0  0  0  0  0  0  0  0  0
   -4.4360   21.8706  -31.5196 H   0  0  0  0  0  0  0  0  0  0  0  0
   -5.7658   22.0957  -30.2756 H   0  0  0  0  0  0  0  0  0  0  0  0
   -7.0791   24.0392  -32.9062 H   0  0  0  0  0  0  0  0  0  0  0  0
   -5.8059   22.9022  -33.4968 H   0  0  0  0  0  0  0  0  0  0  0  0
   -6.0928   20.5873  -33.2952 H   0  0  0  0  0  0  0  0  0  0  0  0
   -7.4386   18.6472  -32.4654 H   0  0  0  0  0  0  0  0  0  0  0  0
   -9.2991   19.0465  -30.8418 H   0  0  0  0  0  0  0  0  0  0  0  0
   -8.5108   23.2359  -30.8664 H   0  0  0  0  0  0  0  0  0  0  0  0
   -7.0383   25.0652  -31.1655 H   0  0  0  0  0  0  0  0  0  0  0  0
   -6.4601   24.1284  -29.7476 H   0  0  0  0  0  0  0  0  0  0  0  0
   -5.3117   26.5911  -31.0435 H   0  0  0  0  0  0  0  0  0  0  0  0
   -5.4224   26.1222  -29.2960 H   0  0  0  0  0  0  0  0  0  0  0  0
   -0.2198   19.0656  -26.2127 H   0  0  0  0  0  0  0  0  0  0  0  0
   -1.7892   18.4599  -26.8582 H   0  0  0  0  0  0  0  0  0  0  0  0
    0.5871   17.2362  -27.3600 H   0  0  0  0  0  0  0  0  0  0  0  0
   -0.8112   17.2546  -28.5322 H   0  0  0  0  0  0  0  0  0  0  0  0
  1  2  1  0
  2  3  1  0
  3  4  1  0
  4  5  1  0
  5  6  1  0
  6  7  1  0
  7  8  1  0
  8  9  2  0
  9 10  1  0
 10 11  2  0
 11 12  1  0
 12 13  2  0
 12 14  1  0
 14 15  1  0
 15 16  1  0
 16 17  1  0
 17 18  2  0
 18 19  1  0
 19 20  2  0
 20 21  1  0
 21 22  2  0
 15 23  1  0
 23 24  1  0
 24 25  1  0
  6 26  1  0
 26 27  1  0
 27  3  1  0
 13  8  1  0
 22 17  1  0
 25 11  1  0
  1 28  1  0
  1 29  1  0
  1 30  1  0
  2 31  1  0
  2 32  1  0
  4 33  1  0
  4 34  1  0
  5 35  1  0
  5 36  1  0
  7 37  1  0
  7 38  1  0
  9 39  1  0
 10 40  1  0
 13 41  1  0
 14 42  1  0
 14 43  1  0
 16 44  1  0
 16 45  1  0
 18 46  1  0
 19 47  1  0
 20 48  1  0
 22 49  1  0
 23 50  1  0
 23 51  1  0
 24 52  1  0
 24 53  1  0
 26 54  1  0
 26 55  1  0
 27 56  1  0
 27 57  1  0
M  END
>  <UniqueID>  (3) 
3

>  <SMILES>  (3) 
CCN1CCN(Cc2ccc3c(c2)CN(Cc2cccnc2)CCO3)CC1

>  <Energy>  (3) 
84.3415659744094

>  <Genealogy>  (3) 
CCN1CCN(Cc2ccc3c(c2)CN(Cc2cccnc2)CCO3)CC1 (3D coordinates assigned)
CCN1CCN(Cc2ccc3c(c2)CN(Cc2cccnc2)CCO3)CC1 (nonaromatic ring conformer: 84.3415659744094 kcal/mol)

>  <smiles>  (3) 
CCN1CCN(Cc2ccc3c(c2)CN(Cc2cccnc2)CCO3)CC1

>  <score_type>  (3) 
oracle

>  <origin>  (3) 
adg

>  <m_score__min__energy>  (3) 
-6.7199999999999998

>  <m_primary>  (3) 
energy

$$$$
3:0
     RDKit          3D

 30 31  0  0  0  0  0  0  0  0999 V2000
   -6.0930   17.0560  -31.8810 C   0  0  0  0  0  0  0  0  0  0  0  0
   -6.3970   18.1180  -32.8570 N   0  0  0  0  0  0  0  0  0  0  0  0
   -6.1370   17.6250  -34.2230 C   0  0  0  0  0  0  0  0  0  0  0  0
   -7.8010   18.5600  -32.7010 C   0  0  0  0  0  0  0  0  0  0  0  0
   -7.8870   19.9660  -32.1790 C   0  0  0  0  0  0  0  0  0  0  0  0
   -9.0370   20.7070  -32.0220 C   0  0  0  0  0  0  0  0  0  0  0  0
   -8.6830   21.8860  -31.5760 O   0  0  0  0  0  0  0  0  0  0  0  0
   -7.3720   21.8850  -31.4630 C   0  0  0  0  0  0  0  0  0  0  0  0
   -6.5900   23.0460  -30.9890 C   0  0  0  0  0  0  0  0  0  0  0  0
   -7.2360   24.2170  -30.5550 C   0  0  0  0  0  0  0  0  0  0  0  0
   -6.4880   25.3110  -30.1070 C   0  0  0  0  0  0  0  0  0  0  0  0
   -5.0930   25.2460  -30.0880 C   0  0  0  0  0  0  0  0  0  0  0  0
   -4.4420   24.0850  -30.5170 C   0  0  0  0  0  0  0  0  0  0  0  0
   -3.0880   24.0230  -30.4980 F   0  0  0  0  0  0  0  0  0  0  0  0
   -5.1860   22.9890  -30.9660 C   0  0  0  0  0  0  0  0  0  0  0  0
   -6.8200   20.7080  -31.8300 N   0  0  0  0  0  0  0  0  0  0  0  0
   -6.2064   17.4520  -30.8610 H   0  0  0  0  0  0  0  0  0  0  0  0
   -6.7864   16.2146  -32.0268 H   0  0  0  0  0  0  0  0  0  0  0  0
   -5.0594   16.7089  -32.0268 H   0  0  0  0  0  0  0  0  0  0  0  0
   -5.7540   18.9240  -32.6640 H   0  0  0  0  0  0  0  0  0  0  0  0
   -5.6244   16.6531  -34.1707 H   0  0  0  0  0  0  0  0  0  0  0  0
   -7.0908   17.5082  -34.7584 H   0  0  0  0  0  0  0  0  0  0  0  0
   -5.5019   18.3461  -34.7584 H   0  0  0  0  0  0  0  0  0  0  0  0
   -8.3005   18.5122  -33.6799 H   0  0  0  0  0  0  0  0  0  0  0  0
   -8.2910   17.8945  -31.9750 H   0  0  0  0  0  0  0  0  0  0  0  0
  -10.0630   20.3707  -32.2323 H   0  0  0  0  0  0  0  0  0  0  0  0
   -8.3345   24.2732  -30.5678 H   0  0  0  0  0  0  0  0  0  0  0  0
   -6.9996   26.2243  -29.7690 H   0  0  0  0  0  0  0  0  0  0  0  0
   -4.5067   26.1075  -29.7358 H   0  0  0  0  0  0  0  0  0  0  0  0
   -4.6696   22.0780  -31.3028 H   0  0  0  0  0  0  0  0  0  0  0  0
  1  2  1  0
  2  3  1  0
  2  4  1  0
  4  5  1  0
  5  6  2  0
  6  7  1  0
  7  8  1  0
  8  9  1  0
  9 10  2  0
 10 11  1  0
 11 12  2  0
 12 13  1  0
 13 14  1  0
 13 15  2  0
  8 16  2  0
 16  5  1  0
 15  9  1  0
  1 17  1  0
  1 18  1  0
  1 19  1  0
  2 20  1  0
  3 21  1  0
  3 22  1  0
  3 23  1  0
  4 24  1  0
  4 25  1  0
  6 26  1  0
 10 27  1  0
 11 28  1  0
 12 29  1  0
 15 30  1  0
M  CHG  1   2   1
M  END
>  <UniqueID>  (4) 
4

>  <SMILES>  (4) 
C[NH+](C)Cc1coc(-c2cccc(F)c2)n1

>  <Energy>  (4) 
59.25355726551697

>  <Genealogy>  (4) 
C[NH+](C)Cc1coc(-c2cccc(F)c2)n1 (protonated)
C[NH+](C)Cc1coc(-c2cccc(F)c2)n1 (3D coordinates assigned)
C[NH+](C)Cc1coc(-c2cccc(F)c2)n1 (optimized conformer: 59.25355726551697 kcal/mol)

>  <smiles>  (4) 
CN(C)Cc1coc(-c2cccc(F)c2)n1

>  <score_type>  (4) 
oracle

>  <origin>  (4) 
adg

>  <m_score__min__energy>  (4) 
-4.6399999999999997

>  <m_primary>  (4) 
energy

$$$$
4:0
     RDKit          3D

 40 41  0  0  0  0  0  0  0  0999 V2000
   -0.6852   19.7376  -33.5866 H   0  0  0  0  0  0  0  0  0  0  0  0
   -1.4610   20.3540  -33.1090 C   0  0  0  0  0  0  0  0  0  0  0  0
   -2.7310   20.3400  -33.5880 N   0  0  0  0  0  0  0  0  0  0  0  0
   -3.7070   21.0960  -33.0180 C   0  0  0  0  0  0  0  0  0  0  0  0
   -5.0050   21.0310  -33.5410 O   0  0  0  0  0  0  0  0  0  0  0  0
   -5.9720   20.0800  -33.1830 C   0  0  0  0  0  0  0  0  0  0  0  0
   -5.8480   18.7350  -33.5790 C   0  0  0  0  0  0  0  0  0  0  0  0
   -5.0030   18.4282  -34.2129 H   0  0  0  0  0  0  0  0  0  0  0  0
   -6.7900   17.7870  -33.1730 C   0  0  0  0  0  0  0  0  0  0  0  0
   -6.6898   16.7397  -33.4943 H   0  0  0  0  0  0  0  0  0  0  0  0
   -7.8580   18.1680  -32.3600 C   0  0  0  0  0  0  0  0  0  0  0  0
   -8.5986   17.4203  -32.0398 H   0  0  0  0  0  0  0  0  0  0  0  0
   -7.9880   19.4980  -31.9520 C   0  0  0  0  0  0  0  0  0  0  0  0
   -8.8297   19.7921  -31.3078 H   0  0  0  0  0  0  0  0  0  0  0  0
   -7.0510   20.4620  -32.3590 C   0  0  0  0  0  0  0  0  0  0  0  0
   -7.2370   21.8740  -31.9440 C   0  0  0  0  0  0  0  0  0  0  0  0
   -6.2420   22.7090  -31.9640 N   0  0  0  0  0  0  0  0  0  0  0  0
   -5.6180   23.1310  -30.8090 O   0  0  0  0  0  0  0  0  0  0  0  0
   -4.9900   24.3740  -30.7450 C   0  0  0  0  0  0  0  0  0  0  0  0
   -3.7360   24.4600  -30.8350 O   0  0  0  0  0  0  0  0  0  0  0  0
   -5.8090   25.6050  -30.5280 C   0  0  0  0  0  0  0  0  0  0  0  0
   -6.3404   25.8546  -31.4582 H   0  0  0  0  0  0  0  0  0  0  0  0
   -5.1409   26.4297  -30.2391 H   0  0  0  0  0  0  0  0  0  0  0  0
   -6.8260   25.3820  -29.4140 C   0  0  0  0  0  0  0  0  0  0  0  0
   -6.3305   25.4907  -28.4380 H   0  0  0  0  0  0  0  0  0  0  0  0
   -7.6330   26.1245  -29.5002 H   0  0  0  0  0  0  0  0  0  0  0  0
   -7.2482   24.3699  -29.5002 H   0  0  0  0  0  0  0  0  0  0  0  0
   -8.5690   22.3440  -31.4230 C   0  0  0  0  0  0  0  0  0  0  0  0
   -9.2576   21.4877  -31.3736 H   0  0  0  0  0  0  0  0  0  0  0  0
   -8.4191   22.7785  -30.4236 H   0  0  0  0  0  0  0  0  0  0  0  0
   -9.1690   23.4140  -32.3310 C   0  0  0  0  0  0  0  0  0  0  0  0
   -9.6149   24.2092  -31.7156 H   0  0  0  0  0  0  0  0  0  0  0  0
   -8.3789   23.8413  -32.9659 H   0  0  0  0  0  0  0  0  0  0  0  0
   -9.9456   22.9627  -32.9659 H   0  0  0  0  0  0  0  0  0  0  0  0
   -3.4150   21.8670  -31.9290 N   0  0  0  0  0  0  0  0  0  0  0  0
   -4.1640   22.4130  -31.4480 H   0  0  0  0  0  0  0  0  0  0  0  0
   -2.1530   21.9090  -31.4250 C   0  0  0  0  0  0  0  0  0  0  0  0
   -1.9297   22.5422  -30.5537 H   0  0  0  0  0  0  0  0  0  0  0  0
   -1.1420   21.1500  -32.0120 C   0  0  0  0  0  0  0  0  0  0  0  0
   -0.1155   21.1792  -31.6176 H   0  0  0  0  0  0  0  0  0  0  0  0
  1  2  1  0
  2  3  2  0
  3  4  1  0
  4  5  1  0
  5  6  1  0
  6  7  2  0
  7  8  1  0
  7  9  1  0
  9 10  1  0
  9 11  2  0
 11 12  1  0
 11 13  1  0
 13 14  1  0
 13 15  2  0
 15 16  1  0
 16 17  2  0
 17 18  1  0
 18 19  1  0
 19 20  2  0
 19 21  1  0
 21 22  1  0
 21 23  1  0
 21 24  1  0
 24 25  1  0
 24 26  1  0
 24 27  1  0
 16 28  1  0
 28 29  1  0
 28 30  1  0
 28 31  1  0
 31 32  1  0
 31 33  1  0
 31 34  1  0
  4 35  2  0
 35 36  1  0
 35 37  1  0
 37 38  1  0
 37 39  2  0
 39 40  1  0
 39  2  1  0
 15  6  1  0
M  CHG  1  35   1
M  END
>  <UniqueID>  (5) 
5

>  <SMILES>  (5) 
CCC(=O)O/N=C(/CC)c1ccccc1Oc1nccc[nH+]1

>  <Energy>  (5) 
42.653881518953206

>  <Genealogy>  (5) 
CCC(=O)ON=C(CC)c1ccccc1Oc1nccc[nH+]1 (protonated)
CCC(=O)O/N=C(/CC)c1ccccc1Oc1nccc[nH+]1 (cis-trans isomerization)
CCC(=O)O/N=C(/CC)c1ccccc1Oc1nccc[nH+]1 (3D coordinates assigned)
CCC(=O)O/N=C(/CC)c1ccccc1Oc1nccc[nH+]1 (optimized conformer: 42.653881518953206 kcal/mol)

>  <smiles>  (5) 
CCC(=O)ON=C(CC)c1ccccc1Oc1ncccn1

>  <score_type>  (5) 
oracle

>  <origin>  (5) 
adg

>  <m_score__min__energy>  (5) 
-6.6399999999999997

>  <m_primary>  (5) 
energy

$$$$
5:0
     RDKit          3D

 43 45  0  0  0  0  0  0  0  0999 V2000
   -5.4050   25.6610  -30.2110 C   0  0  0  0  0  0  0  0  0  0  0  0
   -4.9510   24.7500  -31.2060 O   0  0  0  0  0  0  0  0  0  0  0  0
   -5.6480   23.6000  -31.6040 C   0  0  0  0  0  0  0  0  0  0  0  0
   -5.0380   22.5620  -32.3340 C   0  0  0  0  0  0  0  0  0  0  0  0
   -5.7760   21.4360  -32.7080 C   0  0  0  0  0  0  0  0  0  0  0  0
   -7.1330   21.3160  -32.3560 C   0  0  0  0  0  0  0  0  0  0  0  0
   -7.8970   20.1070  -32.7710 C   0  0  0  0  0  0  0  0  0  0  0  0
   -9.1240   20.2340  -33.0520 O   0  0  0  0  0  0  0  0  0  0  0  0
   -7.2820   18.7950  -32.8310 N   0  0  0  0  0  0  0  0  0  0  0  0
   -6.4020   18.7010  -34.0220 C   0  0  0  0  0  0  0  0  0  0  0  0
   -5.3060   17.6160  -33.9010 C   0  0  0  0  0  0  0  0  0  0  0  0
   -5.6410   16.6130  -32.8820 N   0  0  0  0  0  0  0  0  0  0  0  0
   -5.3090   15.2300  -33.0930 C   0  0  0  0  0  0  0  0  0  0  0  0
   -4.1920   14.6700  -32.4510 C   0  0  0  0  0  0  0  0  0  0  0  0
   -3.8640   13.3250  -32.6460 C   0  0  0  0  0  0  0  0  0  0  0  0
   -4.6470   12.5280  -33.4870 C   0  0  0  0  0  0  0  0  0  0  0  0
   -5.7580   13.0760  -34.1320 C   0  0  0  0  0  0  0  0  0  0  0  0
   -6.0920   14.4200  -33.9390 C   0  0  0  0  0  0  0  0  0  0  0  0
   -7.1600   14.9380  -34.5980 F   0  0  0  0  0  0  0  0  0  0  0  0
   -6.1120   17.0410  -31.5590 C   0  0  0  0  0  0  0  0  0  0  0  0
   -6.5440   18.5130  -31.5830 C   0  0  0  0  0  0  0  0  0  0  0  0
   -7.7380   22.3620  -31.6360 C   0  0  0  0  0  0  0  0  0  0  0  0
   -6.9990   23.4880  -31.2630 C   0  0  0  0  0  0  0  0  0  0  0  0
   -5.1986   25.2468  -29.2131 H   0  0  0  0  0  0  0  0  0  0  0  0
   -4.8798   26.6207  -30.3255 H   0  0  0  0  0  0  0  0  0  0  0  0
   -6.4875   25.8195  -30.3255 H   0  0  0  0  0  0  0  0  0  0  0  0
   -3.9762   22.6378  -32.6110 H   0  0  0  0  0  0  0  0  0  0  0  0
   -5.2907   20.6344  -33.2841 H   0  0  0  0  0  0  0  0  0  0  0  0
   -8.0360   18.0720  -32.9100 H   0  0  0  0  0  0  0  0  0  0  0  0
   -7.0260   18.4682  -34.8974 H   0  0  0  0  0  0  0  0  0  0  0  0
   -5.8875   19.6684  -34.1188 H   0  0  0  0  0  0  0  0  0  0  0  0
   -5.1945   17.1127  -34.8727 H   0  0  0  0  0  0  0  0  0  0  0  0
   -4.3693   18.1085  -33.6008 H   0  0  0  0  0  0  0  0  0  0  0  0
   -3.5715   15.2937  -31.7907 H   0  0  0  0  0  0  0  0  0  0  0  0
   -2.9893   12.8933  -32.1375 H   0  0  0  0  0  0  0  0  0  0  0  0
   -4.3880   11.4700  -33.6405 H   0  0  0  0  0  0  0  0  0  0  0  0
   -6.3724   12.4481  -34.7941 H   0  0  0  0  0  0  0  0  0  0  0  0
   -6.9693   16.4186  -31.2629 H   0  0  0  0  0  0  0  0  0  0  0  0
   -5.2886   16.9275  -30.8385 H   0  0  0  0  0  0  0  0  0  0  0  0
   -7.1942   18.7174  -30.7196 H   0  0  0  0  0  0  0  0  0  0  0  0
   -5.6523   19.1552  -31.5341 H   0  0  0  0  0  0  0  0  0  0  0  0
   -8.8017   22.2932  -31.3643 H   0  0  0  0  0  0  0  0  0  0  0  0
   -7.4856   24.2947  -30.6951 H   0  0  0  0  0  0  0  0  0  0  0  0
  1  2  1  0
  2  3  1  0
  3  4  2  0
  4  5  1  0
  5  6  2  0
  6  7  1  0
  7  8  2  0
  7  9  1  0
  9 10  1  0
 10 11  1  0
 11 12  1  0
 12 13  1  0
 13 14  2  0
 14 15  1  0
 15 16  2  0
 16 17  1  0
 17 18  2  0
 18 19  1  0
 12 20  1  0
 20 21  1  0
  6 22  1  0
 22 23  2  0
 23  3  1  0
 21  9  1  0
 18 13  1  0
  1 24  1  0
  1 25  1  0
  1 26  1  0
  4 27  1  0
  5 28  1  0
  9 29  1  0
 10 30  1  0
 10 31  1  0
 11 32  1  0
 11 33  1  0
 14 34  1  0
 15 35  1  0
 16 36  1  0
 17 37  1  0
 20 38  1  0
 20 39  1  0
 21 40  1  0
 21 41  1  0
 22 42  1  0
 23 43  1  0
M  CHG  1   9   1
M  END
>  <UniqueID>  (6) 
6

>  <SMILES>  (6) 
COc1ccc(C(=O)[NH+]2CCN(c3ccccc3F)CC2)cc1

>  <Energy>  (6) 
59.32625329622768

>  <Genealogy>  (6) 
COc1ccc(C(=O)[NH+]2CCN(c3ccccc3F)CC2)cc1 (protonated)
COc1ccc(C(=O)[NH+]2CCN(c3ccccc3F)CC2)cc1 (3D coordinates assigned)
COc1ccc(C(=O)[NH+]2CCN(c3ccccc3F)CC2)cc1 (nonaromatic ring conformer: 59.32625329622768 kcal/mol)

>  <smiles>  (6) 
COc1ccc(C(=O)N2CCN(c3ccccc3F)CC2)cc1

>  <score_type>  (6) 
oracle

>  <origin>  (6) 
adg

>  <m_score__min__energy>  (6) 
-7.0800000000000001

>  <m_primary>  (6) 
energy

$$$$
6:0
     RDKit          3D

 18 19  0  0  0  0  0  0  0  0999 V2000
   -5.9080   18.7000  -34.3210 C   0  0  0  0  0  0  0  0  0  0  0  0
   -6.0890   19.8860  -33.4920 N   0  0  0  0  0  0  0  0  0  0  0  0
   -5.1430   20.7720  -33.0910 C   0  0  0  0  0  0  0  0  0  0  0  0
   -5.6350   21.7640  -32.2990 N   0  0  0  0  0  0  0  0  0  0  0  0
   -6.9440   21.4610  -32.2150 C   0  0  0  0  0  0  0  0  0  0  0  0
   -7.9450   22.1330  -31.5230 C   0  0  0  0  0  0  0  0  0  0  0  0
   -9.2460   21.5980  -31.5920 C   0  0  0  0  0  0  0  0  0  0  0  0
   -9.4860   20.4220  -32.3430 C   0  0  0  0  0  0  0  0  0  0  0  0
   -8.4620   19.8010  -33.0050 N   0  0  0  0  0  0  0  0  0  0  0  0
   -7.2160   20.3370  -32.9260 C   0  0  0  0  0  0  0  0  0  0  0  0
   -5.7735   17.8190  -33.6762 H   0  0  0  0  0  0  0  0  0  0  0  0
   -6.7948   18.5577  -34.9560 H   0  0  0  0  0  0  0  0  0  0  0  0
   -5.0191   18.8287  -34.9560 H   0  0  0  0  0  0  0  0  0  0  0  0
   -4.0836   20.6963  -33.3774 H   0  0  0  0  0  0  0  0  0  0  0  0
   -7.7300   23.0444  -30.9458 H   0  0  0  0  0  0  0  0  0  0  0  0
  -10.0741   22.0929  -31.0634 H   0  0  0  0  0  0  0  0  0  0  0  0
  -10.5025   20.0047  -32.3947 H   0  0  0  0  0  0  0  0  0  0  0  0
   -8.6410   18.9330  -33.5580 H   0  0  0  0  0  0  0  0  0  0  0  0
  1  2  1  0
  2  3  1  0
  3  4  2  0
  4  5  1  0
  5  6  2  0
  6  7  1  0
  7  8  2  0
  8  9  1  0
  9 10  2  0
 10  2  1  0
 10  5  1  0
  1 11  1  0
  1 12  1  0
  1 13  1  0
  3 14  1  0
  6 15  1  0
  7 16  1  0
  8 17  1  0
  9 18  1  0
M  CHG  1   9   1
M  END
>  <UniqueID>  (7) 
7

>  <SMILES>  (7) 
Cn1cnc2ccc[nH+]c21

>  <Energy>  (7) 
56.60627650446174

>  <Genealogy>  (7) 
Cn1cnc2ccc[nH+]c21 (protonated)
Cn1cnc2ccc[nH+]c21 (3D coordinates assigned)
Cn1cnc2ccc[nH+]c21 (optimized conformer: 56.60627650446174 kcal/mol)

>  <smiles>  (7) 
Cn1cnc2cccnc21

>  <score_type>  (7) 
oracle

>  <origin>  (7) 
adg

>  <m_score__min__energy>  (7) 
-3.96

>  <m_primary>  (7) 
energy

$$$$
7:0
     RDKit          3D

 57 60  0  0  0  0  0  0  0  0999 V2000
   -2.0990   24.5450  -29.2470 C   0  0  0  0  0  0  0  0  0  0  0  0
   -3.1610   24.9640  -30.0970 O   0  0  0  0  0  0  0  0  0  0  0  0
   -4.3960   24.3060  -30.2050 C   0  0  0  0  0  0  0  0  0  0  0  0
   -4.5060   22.9790  -30.6630 C   0  0  0  0  0  0  0  0  0  0  0  0
   -5.7590   22.3660  -30.7540 C   0  0  0  0  0  0  0  0  0  0  0  0
   -6.9200   23.0680  -30.3920 C   0  0  0  0  0  0  0  0  0  0  0  0
   -8.2750   22.4080  -30.5100 C   0  0  0  0  0  0  0  0  0  0  0  0
   -8.7970   22.4490  -31.8860 N   0  0  0  0  0  0  0  0  0  0  0  0
   -9.4380   21.1890  -32.2900 C   0  0  0  0  0  0  0  0  0  0  0  0
   -8.4070   20.1180  -32.5280 C   0  0  0  0  0  0  0  0  0  0  0  0
   -8.6270   18.8160  -32.0580 C   0  0  0  0  0  0  0  0  0  0  0  0
   -7.6790   17.8140  -32.2820 C   0  0  0  0  0  0  0  0  0  0  0  0
   -6.4930   18.0970  -32.9830 C   0  0  0  0  0  0  0  0  0  0  0  0
   -5.4810   17.0340  -33.2170 C   0  0  0  0  0  0  0  0  0  0  0  0
   -5.2800   16.0190  -32.2690 C   0  0  0  0  0  0  0  0  0  0  0  0
   -4.3250   15.0220  -32.4840 C   0  0  0  0  0  0  0  0  0  0  0  0
   -3.5330   15.0060  -33.6550 C   0  0  0  0  0  0  0  0  0  0  0  0
   -2.5310   13.9660  -33.8810 N   0  0  0  0  0  0  0  0  0  0  0  0
   -2.2580   12.9800  -32.8140 C   0  0  0  0  0  0  0  0  0  0  0  0
   -1.2520   11.9020  -33.2210 C   0  0  0  0  0  0  0  0  0  0  0  0
   -0.2170   12.4480  -34.0030 O   0  0  0  0  0  0  0  0  0  0  0  0
   -0.7530   12.8190  -35.2500 C   0  0  0  0  0  0  0  0  0  0  0  0
   -1.7080   14.0070  -35.1100 C   0  0  0  0  0  0  0  0  0  0  0  0
   -3.7530   16.0310  -34.6050 C   0  0  0  0  0  0  0  0  0  0  0  0
   -4.7080   17.0270  -34.3860 C   0  0  0  0  0  0  0  0  0  0  0  0
   -6.2790   19.4040  -33.4570 C   0  0  0  0  0  0  0  0  0  0  0  0
   -7.2270   20.4050  -33.2300 C   0  0  0  0  0  0  0  0  0  0  0  0
   -6.8080   24.3890  -29.9330 C   0  0  0  0  0  0  0  0  0  0  0  0
   -5.5550   25.0010  -29.8420 C   0  0  0  0  0  0  0  0  0  0  0  0
   -2.4015   24.6644  -28.1962 H   0  0  0  0  0  0  0  0  0  0  0  0
   -1.8670   23.4879  -29.4440 H   0  0  0  0  0  0  0  0  0  0  0  0
   -1.2077   25.1589  -29.4440 H   0  0  0  0  0  0  0  0  0  0  0  0
   -3.6019   22.4223  -30.9505 H   0  0  0  0  0  0  0  0  0  0  0  0
   -5.8359   21.3284  -31.1110 H   0  0  0  0  0  0  0  0  0  0  0  0
   -8.1856   21.3574  -30.1965 H   0  0  0  0  0  0  0  0  0  0  0  0
   -8.9761   22.9601  -29.8669 H   0  0  0  0  0  0  0  0  0  0  0  0
   -9.4990   23.2220  -31.9670 H   0  0  0  0  0  0  0  0  0  0  0  0
  -10.1221   20.8607  -31.4936 H   0  0  0  0  0  0  0  0  0  0  0  0
   -9.9926   21.3590  -33.2246 H   0  0  0  0  0  0  0  0  0  0  0  0
   -9.5513   18.5815  -31.5096 H   0  0  0  0  0  0  0  0  0  0  0  0
   -7.8618   16.7961  -31.9072 H   0  0  0  0  0  0  0  0  0  0  0  0
   -5.8804   16.0082  -31.3473 H   0  0  0  0  0  0  0  0  0  0  0  0
   -4.1868   14.2349  -31.7281 H   0  0  0  0  0  0  0  0  0  0  0  0
   -1.8599   13.5151  -31.9393 H   0  0  0  0  0  0  0  0  0  0  0  0
   -3.2075   12.4697  -32.5949 H   0  0  0  0  0  0  0  0  0  0  0  0
   -0.8196   11.4528  -32.3148 H   0  0  0  0  0  0  0  0  0  0  0  0
   -1.7763   11.1398  -33.8161 H   0  0  0  0  0  0  0  0  0  0  0  0
    0.0693   13.0972  -35.9257 H   0  0  0  0  0  0  0  0  0  0  0  0
   -1.3158   11.9652  -35.6554 H   0  0  0  0  0  0  0  0  0  0  0  0
   -1.1126   14.9319  -35.0988 H   0  0  0  0  0  0  0  0  0  0  0  0
   -2.4012   13.9649  -35.9631 H   0  0  0  0  0  0  0  0  0  0  0  0
   -3.1617   16.0440  -35.5325 H   0  0  0  0  0  0  0  0  0  0  0  0
   -4.8548   17.8146  -35.1397 H   0  0  0  0  0  0  0  0  0  0  0  0
   -5.3582   19.6398  -34.0107 H   0  0  0  0  0  0  0  0  0  0  0  0
   -7.0470   21.4237  -33.6039 H   0  0  0  0  0  0  0  0  0  0  0  0
   -7.7112   24.9459  -29.6432 H   0  0  0  0  0  0  0  0  0  0  0  0
   -5.4792   26.0377  -29.4820 H   0  0  0  0  0  0  0  0  0  0  0  0
  1  2  1  0
  2  3  1  0
  3  4  2  0
  4  5  1  0
  5  6  2  0
  6  7  1  0
  7  8  1  0
  8  9  1  0
  9 10  1  0
 10 11  2  0
 11 12  1  0
 12 13  2  0
 13 14  1  0
 14 15  2  0
 15 16  1  0
 16 17  2  0
 17 18  1  0
 18 19  1  0
 19 20  1  0
 20 21  1  0
 21 22  1  0
 22 23  1  0
 17 24  1  0
 24 25  2  0
 13 26  1  0
 26 27  2  0
  6 28  1  0
 28 29  2  0
 29  3  1  0
 27 10  1  0
 25 14  1  0
 23 18  1  0
  1 30  1  0
  1 31  1  0
  1 32  1  0
  4 33  1  0
  5 34  1  0
  7 35  1  0
  7 36  1  0
  8 37  1  0
  9 38  1  0
  9 39  1  0
 11 40  1  0
 12 41  1  0
 15 42  1  0
 16 43  1  0
 19 44  1  0
 19 45  1  0
 20 46  1  0
 20 47  1  0
 22 48  1  0
 22 49  1  0
 23 50  1  0
 23 51  1  0
 24 52  1  0
 25 53  1  0
 26 54  1  0
 27 55  1  0
 28 56  1  0
 29 57  1  0
M  END
>  <UniqueID>  (8) 
8

>  <SMILES>  (8) 
COc1ccc(CNCc2ccc(-c3ccc(N4CCOCC4)cc3)cc2)cc1

>  <Energy>  (8) 
72.41114982678442

>  <Genealogy>  (8) 
COc1ccc(CNCc2ccc(-c3ccc(N4CCOCC4)cc3)cc2)cc1 (3D coordinates assigned)
COc1ccc(CNCc2ccc(-c3ccc(N4CCOCC4)cc3)cc2)cc1 (nonaromatic ring conformer: 72.41114982678442 kcal/mol)

>  <smiles>  (8) 
COc1ccc(CNCc2ccc(-c3ccc(N4CCOCC4)cc3)cc2)cc1

>  <score_type>  (8) 
oracle

>  <origin>  (8) 
adg

>  <m_score__min__energy>  (8) 
-9.0399999999999991

>  <m_primary>  (8) 
energy

$$$$
8:0
     RDKit          3D

 41 42  0  0  0  0  0  0  0  0999 V2000
   -2.7960   19.6550  -33.8770 C   0  0  0  0  0  0  0  0  0  0  0  0
   -4.1940   19.8440  -33.4560 N   0  0  0  0  0  0  0  0  0  0  0  0
   -4.3460   20.9230  -32.4550 C   0  0  0  0  0  0  0  0  0  0  0  0
   -3.0450   21.7140  -32.1600 C   0  0  0  0  0  0  0  0  0  0  0  0
   -3.1320   22.5020  -30.8470 C   0  0  0  0  0  0  0  0  0  0  0  0
   -4.4880   23.0090  -30.6430 N   0  0  0  0  0  0  0  0  0  0  0  0
   -4.7950   24.4100  -30.6090 C   0  0  0  0  0  0  0  0  0  0  0  0
   -3.8810   25.2670  -30.7460 O   0  0  0  0  0  0  0  0  0  0  0  0
   -6.1940   24.8660  -30.3370 C   0  0  0  0  0  0  0  0  0  0  0  0
   -7.1240   23.7700  -30.5720 N   0  0  0  0  0  0  0  0  0  0  0  0
   -7.9070   23.5720  -31.6430 C   0  0  0  0  0  0  0  0  0  0  0  0
   -8.5580   22.4020  -31.5150 N   0  0  0  0  0  0  0  0  0  0  0  0
   -8.1480   21.8980  -30.3570 N   0  0  0  0  0  0  0  0  0  0  0  0
   -7.2770   22.7180  -29.7880 N   0  0  0  0  0  0  0  0  0  0  0  0
   -4.8250   18.5730  -33.0410 C   0  0  0  0  0  0  0  0  0  0  0  0
   -6.2740   18.8060  -32.7050 C   0  0  0  0  0  0  0  0  0  0  0  0
   -6.9110   18.0400  -31.7130 C   0  0  0  0  0  0  0  0  0  0  0  0
   -8.2600   18.2580  -31.4150 C   0  0  0  0  0  0  0  0  0  0  0  0
   -8.9820   19.2340  -32.1090 C   0  0  0  0  0  0  0  0  0  0  0  0
   -8.3570   19.9910  -33.1030 C   0  0  0  0  0  0  0  0  0  0  0  0
   -7.0090   19.7780  -33.4040 C   0  0  0  0  0  0  0  0  0  0  0  0
   -2.1539   19.5682  -32.9881 H   0  0  0  0  0  0  0  0  0  0  0  0
   -2.7151   18.7377  -34.4787 H   0  0  0  0  0  0  0  0  0  0  0  0
   -2.4744   20.5178  -34.4787 H   0  0  0  0  0  0  0  0  0  0  0  0
   -5.1022   21.6310  -32.8250 H   0  0  0  0  0  0  0  0  0  0  0  0
   -4.6372   20.4367  -31.5123 H   0  0  0  0  0  0  0  0  0  0  0  0
   -2.2067   21.0050  -32.0929 H   0  0  0  0  0  0  0  0  0  0  0  0
   -2.8949   22.4347  -32.9774 H   0  0  0  0  0  0  0  0  0  0  0  0
   -2.8628   21.8413  -30.0098 H   0  0  0  0  0  0  0  0  0  0  0  0
   -2.4375   23.3536  -30.8965 H   0  0  0  0  0  0  0  0  0  0  0  0
   -5.2520   22.3200  -30.4570 H   0  0  0  0  0  0  0  0  0  0  0  0
   -6.2740   25.1949  -29.2904 H   0  0  0  0  0  0  0  0  0  0  0  0
   -6.4406   25.7021  -31.0079 H   0  0  0  0  0  0  0  0  0  0  0  0
   -8.0021   24.2609  -32.4953 H   0  0  0  0  0  0  0  0  0  0  0  0
   -4.7536   17.8450  -33.8626 H   0  0  0  0  0  0  0  0  0  0  0  0
   -4.3054   18.1837  -32.1530 H   0  0  0  0  0  0  0  0  0  0  0  0
   -6.3470   17.2673  -31.1699 H   0  0  0  0  0  0  0  0  0  0  0  0
   -8.7536   17.6611  -30.6339 H   0  0  0  0  0  0  0  0  0  0  0  0
  -10.0424   19.4057  -31.8722 H   0  0  0  0  0  0  0  0  0  0  0  0
   -8.9272   20.7564  -33.6499 H   0  0  0  0  0  0  0  0  0  0  0  0
   -6.5221   20.3732  -34.1905 H   0  0  0  0  0  0  0  0  0  0  0  0
  1  2  1  0
  2  3  1  0
  3  4  1  0
  4  5  1  0
  5  6  1  0
  6  7  1  0
  7  8  2  0
  7  9  1  0
  9 10  1  0
 10 11  1  0
 11 12  2  0
 12 13  1  0
 13 14  2  0
  2 15  1  0
 15 16  1  0
 16 17  2  0
 17 18  1  0
 18 19  2  0
 19 20  1  0
 20 21  2  0
 14 10  1  0
 21 16  1  0
  1 22  1  0
  1 23  1  0
  1 24  1  0
  3 25  1  0
  3 26  1  0
  4 27  1  0
  4 28  1  0
  5 29  1  0
  5 30  1  0
  6 31  1  0
  9 32  1  0
  9 33  1  0
 11 34  1  0
 15 35  1  0
 15 36  1  0
 17 37  1  0
 18 38  1  0
 19 39  1  0
 20 40  1  0
 21 41  1  0
M  END
>  <UniqueID>  (9) 
9

>  <SMILES>  (9) 
CN(CCCNC(=O)Cn1cnnn1)Cc1ccccc1

>  <Energy>  (9) 
78.37660981509708

>  <Genealogy>  (9) 
CN(CCCNC(=O)Cn1cnnn1)Cc1ccccc1 (3D coordinates assigned)
CN(CCCNC(=O)Cn1cnnn1)Cc1ccccc1 (optimized conformer: 78.37660981509708 kcal/mol)

>  <smiles>  (9) 
CN(CCCNC(=O)Cn1cnnn1)Cc1ccccc1

>  <score_type>  (9) 
oracle

>  <origin>  (9) 
adg

>  <m_score__min__energy>  (9) 
-8.3599999999999994

>  <m_primary>  (9) 
energy

$$$$
9:0
     RDKit          3D

 38 42  0  0  0  0  0  0  0  0999 V2000
   -9.4860   18.1710  -31.6210 C   0  0  0  0  0  0  0  0  0  0  0  0
   -8.3080   18.9810  -31.9140 N   0  0  0  0  0  0  0  0  0  0  0  0
   -8.0160   20.1910  -31.3820 C   0  0  0  0  0  0  0  0  0  0  0  0
   -6.7970   20.6530  -31.8740 C   0  0  0  0  0  0  0  0  0  0  0  0
   -6.1580   21.9420  -31.5340 C   0  0  0  0  0  0  0  0  0  0  0  0
   -6.7650   23.1610  -31.9200 C   0  0  0  0  0  0  0  0  0  0  0  0
   -6.1740   24.3900  -31.5900 C   0  0  0  0  0  0  0  0  0  0  0  0
   -4.9650   24.3570  -30.9020 C   0  0  0  0  0  0  0  0  0  0  0  0
   -4.2640   25.4180  -30.4630 N   0  0  0  0  0  0  0  0  0  0  0  0
   -3.1950   24.9240  -29.8470 N   0  0  0  0  0  0  0  0  0  0  0  0
   -3.2610   23.5760  -29.9290 C   0  0  0  0  0  0  0  0  0  0  0  0
   -2.2320   22.6860  -29.3640 C   0  0  0  0  0  0  0  0  0  0  0  0
   -2.1340   22.2460  -28.0470 C   0  0  0  0  0  0  0  0  0  0  0  0
   -1.0800   21.3470  -27.8430 C   0  0  0  0  0  0  0  0  0  0  0  0
   -0.3570   21.0620  -28.9920 C   0  0  0  0  0  0  0  0  0  0  0  0
   -1.0340   21.9240  -30.2660 S   0  0  0  0  0  0  0  0  0  0  0  0
   -4.3770   23.1960  -30.5820 N   0  0  0  0  0  0  0  0  0  0  0  0
   -4.9260   21.9820  -30.8500 C   0  0  0  0  0  0  0  0  0  0  0  0
   -6.3340   19.6590  -32.7240 C   0  0  0  0  0  0  0  0  0  0  0  0
   -5.1410   19.5310  -33.4400 C   0  0  0  0  0  0  0  0  0  0  0  0
   -4.9460   18.3630  -34.1980 C   0  0  0  0  0  0  0  0  0  0  0  0
   -5.9270   17.3490  -34.2150 C   0  0  0  0  0  0  0  0  0  0  0  0
   -7.1080   17.4880  -33.4650 C   0  0  0  0  0  0  0  0  0  0  0  0
   -7.2800   18.6600  -32.7240 C   0  0  0  0  0  0  0  0  0  0  0  0
   -9.6104   18.0855  -30.5314 H   0  0  0  0  0  0  0  0  0  0  0  0
  -10.3767   18.6486  -32.0554 H   0  0  0  0  0  0  0  0  0  0  0  0
   -9.3589   17.1684  -32.0554 H   0  0  0  0  0  0  0  0  0  0  0  0
   -8.6501   20.7320  -30.6642 H   0  0  0  0  0  0  0  0  0  0  0  0
   -7.7092   23.1447  -32.4841 H   0  0  0  0  0  0  0  0  0  0  0  0
   -6.6485   25.3436  -31.8648 H   0  0  0  0  0  0  0  0  0  0  0  0
   -2.8156   22.5716  -27.2474 H   0  0  0  0  0  0  0  0  0  0  0  0
   -0.8468   20.9073  -26.8620 H   0  0  0  0  0  0  0  0  0  0  0  0
    0.5099   20.3881  -29.0579 H   0  0  0  0  0  0  0  0  0  0  0  0
   -4.4219   21.0544  -30.5411 H   0  0  0  0  0  0  0  0  0  0  0  0
   -4.3764   20.3213  -33.4115 H   0  0  0  0  0  0  0  0  0  0  0  0
   -4.0221   18.2388  -34.7819 H   0  0  0  0  0  0  0  0  0  0  0  0
   -5.7667   16.4438  -34.8190 H   0  0  0  0  0  0  0  0  0  0  0  0
   -7.8734   16.6980  -33.4617 H   0  0  0  0  0  0  0  0  0  0  0  0
  1  2  1  0
  2  3  1  0
  3  4  2  0
  4  5  1  0
  5  6  1  0
  6  7  2  0
  7  8  1  0
  8  9  2  0
  9 10  1  0
 10 11  2  0
 11 12  1  0
 12 13  2  0
 13 14  1  0
 14 15  2  0
 15 16  1  0
 11 17  1  0
 17 18  1  0
  4 19  1  0
 19 20  2  0
 20 21  1  0
 21 22  2  0
 22 23  1  0
 23 24  2  0
 24  2  1  0
 18  5  2  0
 24 19  1  0
 17  8  1  0
 16 12  1  0
  1 25  1  0
  1 26  1  0
  1 27  1  0
  3 28  1  0
  6 29  1  0
  7 30  1  0
 13 31  1  0
 14 32  1  0
 15 33  1  0
 18 34  1  0
 20 35  1  0
 21 36  1  0
 22 37  1  0
 23 38  1  0
M  END
>  <UniqueID>  (10) 
10

>  <SMILES>  (10) 
Cn1cc(-c2ccc3nnc(-c4cccs4)n3c2)c2ccccc21

>  <Energy>  (10) 
152.15829487915966

>  <Genealogy>  (10) 
Cn1cc(-c2ccc3nnc(-c4cccs4)n3c2)c2ccccc21 (3D coordinates assigned)
Cn1cc(-c2ccc3nnc(-c4cccs4)n3c2)c2ccccc21 (optimized conformer: 152.15829487915966 kcal/mol)

>  <smiles>  (10) 
Cn1cc(-c2ccc3nnc(-c4cccs4)n3c2)c2ccccc21

>  <score_type>  (10) 
oracle

>  <origin>  (10) 
adg

>  <m_score__min__energy>  (10) 
-9.0399999999999991

>  <m_primary>  (10) 
energy

$$$$
10:0
     RDKit          3D

 36 38  0  0  0  0  0  0  0  0999 V2000
   -5.7210   25.3140  -30.4600 C   0  0  0  0  0  0  0  0  0  0  0  0
   -6.7970   24.2650  -30.1410 C   0  0  0  0  0  0  0  0  0  0  0  0
   -6.9490   23.2110  -31.1730 N   0  0  0  0  0  0  0  0  0  0  0  0
   -6.0340   23.3710  -32.3260 C   0  0  0  0  0  0  0  0  0  0  0  0
   -4.9550   22.3280  -32.3050 C   0  0  0  0  0  0  0  0  0  0  0  0
   -4.9970   21.1700  -33.0970 C   0  0  0  0  0  0  0  0  0  0  0  0
   -3.9120   20.3270  -32.9020 C   0  0  0  0  0  0  0  0  0  0  0  0
   -2.9120   21.0230  -31.7450 S   0  0  0  0  0  0  0  0  0  0  0  0
   -3.8390   22.3990  -31.4790 C   0  0  0  0  0  0  0  0  0  0  0  0
   -8.3510   23.0460  -31.6080 C   0  0  0  0  0  0  0  0  0  0  0  0
   -8.6270   21.6050  -31.9050 C   0  0  0  0  0  0  0  0  0  0  0  0
   -9.8170   21.1410  -32.3330 N   0  0  0  0  0  0  0  0  0  0  0  0
   -9.6670   19.8520  -32.4170 O   0  0  0  0  0  0  0  0  0  0  0  0
   -8.4510   19.5160  -32.0550 C   0  0  0  0  0  0  0  0  0  0  0  0
   -7.9610   18.0930  -32.0300 C   0  0  0  0  0  0  0  0  0  0  0  0
   -6.5200   17.8970  -31.5840 C   0  0  0  0  0  0  0  0  0  0  0  0
   -6.8920   17.7330  -33.0510 C   0  0  0  0  0  0  0  0  0  0  0  0
   -7.7420   20.6100  -31.7140 N   0  0  0  0  0  0  0  0  0  0  0  0
   -5.3100   25.7147  -29.5217 H   0  0  0  0  0  0  0  0  0  0  0  0
   -4.9143   24.8461  -31.0434 H   0  0  0  0  0  0  0  0  0  0  0  0
   -6.1682   26.1323  -31.0434 H   0  0  0  0  0  0  0  0  0  0  0  0
   -6.5333   23.7797  -29.1897 H   0  0  0  0  0  0  0  0  0  0  0  0
   -7.7560   24.8020  -30.0966 H   0  0  0  0  0  0  0  0  0  0  0  0
   -6.6097   23.2743  -33.2583 H   0  0  0  0  0  0  0  0  0  0  0  0
   -5.5634   24.3634  -32.2649 H   0  0  0  0  0  0  0  0  0  0  0  0
   -5.8111   20.9518  -33.8038 H   0  0  0  0  0  0  0  0  0  0  0  0
   -3.7372   19.3700  -33.4154 H   0  0  0  0  0  0  0  0  0  0  0  0
   -3.6044   23.2118  -30.7760 H   0  0  0  0  0  0  0  0  0  0  0  0
   -9.0237   23.3887  -30.8079 H   0  0  0  0  0  0  0  0  0  0  0  0
   -8.5202   23.6416  -32.5172 H   0  0  0  0  0  0  0  0  0  0  0  0
   -8.9331   17.6673  -31.7405 H   0  0  0  0  0  0  0  0  0  0  0  0
   -5.9215   18.7618  -31.2617 H   0  0  0  0  0  0  0  0  0  0  0  0
   -6.0163   17.2691  -30.8343 H   0  0  0  0  0  0  0  0  0  0  0  0
   -6.5624   18.4793  -33.7888 H   0  0  0  0  0  0  0  0  0  0  0  0
   -6.7686   16.9376  -33.8007 H   0  0  0  0  0  0  0  0  0  0  0  0
   -6.7590   20.6820  -31.3690 H   0  0  0  0  0  0  0  0  0  0  0  0
  1  2  1  0
  2  3  1  0
  3  4  1  0
  4  5  1  0
  5  6  1  0
  6  7  2  0
  7  8  1  0
  8  9  1  0
  3 10  1  0
 10 11  1  0
 11 12  2  0
 12 13  1  0
 13 14  1  0
 14 15  1  0
 15 16  1  0
 16 17  1  0
 14 18  2  0
  9  5  2  0
 18 11  1  0
 17 15  1  0
  1 19  1  0
  1 20  1  0
  1 21  1  0
  2 22  1  0
  2 23  1  0
  4 24  1  0
  4 25  1  0
  6 26  1  0
  7 27  1  0
  9 28  1  0
 10 29  1  0
 10 30  1  0
 15 31  1  0
 16 32  1  0
 16 33  1  0
 17 34  1  0
 17 35  1  0
 18 36  1  0
M  CHG  1  18   1
M  END
>  <UniqueID>  (11) 
11

>  <SMILES>  (11) 
CCN(Cc1ccsc1)Cc1noc(C2CC2)[nH+]1

>  <Energy>  (11) 
362.28289421407743

>  <Genealogy>  (11) 
CCN(Cc1ccsc1)Cc1noc(C2CC2)[nH+]1 (protonated)
CCN(Cc1ccsc1)Cc1noc(C2CC2)[nH+]1 (3D coordinates assigned)
CCN(Cc1ccsc1)Cc1noc(C2CC2)[nH+]1 (nonaromatic ring conformer: 362.28289421407743 kcal/mol)

>  <smiles>  (11) 
CCN(Cc1ccsc1)Cc1noc(C2CC2)n1

>  <score_type>  (11) 
oracle

>  <origin>  (11) 
adg

>  <m_score__min__energy>  (11) 
-6.6600000000000001

>  <m_primary>  (11) 
energy

$$$$
11:0
     RDKit          3D

 27 29  0  0  0  0  0  0  0  0999 V2000
   -5.3980   23.7760  -31.4720 C   0  0  0  0  0  0  0  0  0  0  0  0
   -5.8610   22.5200  -32.0550 N   0  0  0  0  0  0  0  0  0  0  0  0
   -5.0990   21.6140  -32.7130 C   0  0  0  0  0  0  0  0  0  0  0  0
   -5.8820   20.5330  -33.1000 C   0  0  0  0  0  0  0  0  0  0  0  0
   -5.4190   19.3850  -33.8280 N   0  0  0  0  0  0  0  0  0  0  0  0
   -4.3720   18.5960  -33.5140 C   0  0  0  0  0  0  0  0  0  0  0  0
   -4.3020   17.5710  -34.4380 C   0  0  0  0  0  0  0  0  0  0  0  0
   -5.3620   17.7910  -35.2980 C   0  0  0  0  0  0  0  0  0  0  0  0
   -6.0230   18.8920  -34.8980 N   0  0  0  0  0  0  0  0  0  0  0  0
   -7.1620   20.7880  -32.6360 C   0  0  0  0  0  0  0  0  0  0  0  0
   -8.3350   20.0290  -32.6610 C   0  0  0  0  0  0  0  0  0  0  0  0
   -9.4830   20.5690  -32.0560 C   0  0  0  0  0  0  0  0  0  0  0  0
   -9.4350   21.8330  -31.4290 C   0  0  0  0  0  0  0  0  0  0  0  0
   -8.2360   22.5650  -31.3940 C   0  0  0  0  0  0  0  0  0  0  0  0
   -7.1090   22.0110  -32.0070 C   0  0  0  0  0  0  0  0  0  0  0  0
   -5.4250   23.7029  -30.3748 H   0  0  0  0  0  0  0  0  0  0  0  0
   -4.3674   23.9750  -31.8010 H   0  0  0  0  0  0  0  0  0  0  0  0
   -6.0528   24.5963  -31.8010 H   0  0  0  0  0  0  0  0  0  0  0  0
   -4.0221   21.7182  -32.9113 H   0  0  0  0  0  0  0  0  0  0  0  0
   -3.6883   18.7434  -32.6650 H   0  0  0  0  0  0  0  0  0  0  0  0
   -3.5634   16.7569  -34.4802 H   0  0  0  0  0  0  0  0  0  0  0  0
   -5.6220   17.1681  -36.1665 H   0  0  0  0  0  0  0  0  0  0  0  0
   -6.8710   19.2980  -35.3530 H   0  0  0  0  0  0  0  0  0  0  0  0
   -8.3592   19.0389  -33.1397 H   0  0  0  0  0  0  0  0  0  0  0  0
  -10.4258   20.0026  -32.0712 H   0  0  0  0  0  0  0  0  0  0  0  0
  -10.3420   22.2475  -30.9649 H   0  0  0  0  0  0  0  0  0  0  0  0
   -8.1860   23.5458  -30.8984 H   0  0  0  0  0  0  0  0  0  0  0  0
  1  2  1  0
  2  3  1  0
  3  4  2  0
  4  5  1  0
  5  6  1  0
  6  7  2  0
  7  8  1  0
  8  9  2  0
  4 10  1  0
 10 11  2  0
 11 12  1  0
 12 13  2  0
 13 14  1  0
 14 15  2  0
 15  2  1  0
  9  5  1  0
 15 10  1  0
  1 16  1  0
  1 17  1  0
  1 18  1  0
  3 19  1  0
  6 20  1  0
  7 21  1  0
  8 22  1  0
  9 23  1  0
 11 24  1  0
 12 25  1  0
 13 26  1  0
 14 27  1  0
M  CHG  1   9   1
M  END
>  <UniqueID>  (12) 
12

>  <SMILES>  (12) 
Cn1cc(-n2ccc[nH+]2)c2ccccc21

>  <Energy>  (12) 
96.89725022356224

>  <Genealogy>  (12) 
Cn1cc(-n2ccc[nH+]2)c2ccccc21 (protonated)
Cn1cc(-n2ccc[nH+]2)c2ccccc21 (3D coordinates assigned)
Cn1cc(-n2ccc[nH+]2)c2ccccc21 (optimized conformer: 96.89725022356224 kcal/mol)

>  <smiles>  (12) 
Cn1cc(-n2cccn2)c2ccccc21

>  <score_type>  (12) 
oracle

>  <origin>  (12) 
adg

>  <m_score__min__energy>  (12) 
-6.0499999999999998

>  <m_primary>  (12) 
energy

$$$$
12:0
     RDKit          3D

 41 44  0  0  0  0  0  0  0  0999 V2000
   -4.0585   18.6191  -34.9829 H   0  0  0  0  0  0  0  0  0  0  0  0
   -4.5290   18.0900  -34.1410 C   0  0  0  0  0  0  0  0  0  0  0  0
   -4.3950   16.7030  -34.0290 C   0  0  0  0  0  0  0  0  0  0  0  0
   -3.8375   16.1431  -34.7943 H   0  0  0  0  0  0  0  0  0  0  0  0
   -4.9710   16.0190  -32.9400 C   0  0  0  0  0  0  0  0  0  0  0  0
   -4.8720   14.6270  -32.7760 O   0  0  0  0  0  0  0  0  0  0  0  0
   -4.6050   13.9530  -31.5470 C   0  0  0  0  0  0  0  0  0  0  0  0
   -5.4708   13.3281  -31.2828 H   0  0  0  0  0  0  0  0  0  0  0  0
   -4.4228   14.7045  -30.7647 H   0  0  0  0  0  0  0  0  0  0  0  0
   -3.3690   13.0680  -31.6730 C   0  0  0  0  0  0  0  0  0  0  0  0
   -3.0022   12.8054  -30.6697 H   0  0  0  0  0  0  0  0  0  0  0  0
   -3.6296   12.1500  -32.2201 H   0  0  0  0  0  0  0  0  0  0  0  0
   -2.5838   13.6105  -32.2201 H   0  0  0  0  0  0  0  0  0  0  0  0
   -5.6630   16.7500  -31.9670 C   0  0  0  0  0  0  0  0  0  0  0  0
   -6.1053   16.2282  -31.1055 H   0  0  0  0  0  0  0  0  0  0  0  0
   -5.7970   18.1360  -32.0800 C   0  0  0  0  0  0  0  0  0  0  0  0
   -6.3260   18.7013  -31.2986 H   0  0  0  0  0  0  0  0  0  0  0  0
   -5.2590   18.8090  -33.1870 C   0  0  0  0  0  0  0  0  0  0  0  0
   -5.3370   20.2360  -33.2910 N   0  0  0  0  0  0  0  0  0  0  0  0
   -5.8690   21.1200  -32.4810 C   0  0  0  0  0  0  0  0  0  0  0  0
   -7.2740   21.0960  -32.3160 C   0  0  0  0  0  0  0  0  0  0  0  0
   -8.0780   20.0690  -32.8600 C   0  0  0  0  0  0  0  0  0  0  0  0
   -7.6071   19.2345  -33.4002 H   0  0  0  0  0  0  0  0  0  0  0  0
   -9.4670   20.1070  -32.7160 C   0  0  0  0  0  0  0  0  0  0  0  0
  -10.0838   19.2988  -33.1360 H   0  0  0  0  0  0  0  0  0  0  0  0
  -10.0750   21.1670  -32.0410 C   0  0  0  0  0  0  0  0  0  0  0  0
  -11.1692   21.1928  -31.9307 H   0  0  0  0  0  0  0  0  0  0  0  0
   -9.2960   22.1940  -31.5060 C   0  0  0  0  0  0  0  0  0  0  0  0
   -9.7791   23.0300  -30.9790 H   0  0  0  0  0  0  0  0  0  0  0  0
   -7.9030   22.1650  -31.6370 C   0  0  0  0  0  0  0  0  0  0  0  0
   -7.1860   23.1530  -31.1270 O   0  0  0  0  0  0  0  0  0  0  0  0
   -5.8610   23.1790  -31.1660 C   0  0  0  0  0  0  0  0  0  0  0  0
   -5.1920   24.2390  -30.5430 C   0  0  0  0  0  0  0  0  0  0  0  0
   -5.7669   25.0760  -30.1200 H   0  0  0  0  0  0  0  0  0  0  0  0
   -3.8010   24.2390  -30.4560 C   0  0  0  0  0  0  0  0  0  0  0  0
   -3.1440   25.2920  -29.8330 O   0  0  0  0  0  0  0  0  0  0  0  0
   -3.0730   23.1690  -30.9720 C   0  0  0  0  0  0  0  0  0  0  0  0
   -1.9773   23.1555  -30.8759 H   0  0  0  0  0  0  0  0  0  0  0  0
   -3.7280   22.1130  -31.6110 C   0  0  0  0  0  0  0  0  0  0  0  0
   -3.1460   21.2530  -31.9740 H   0  0  0  0  0  0  0  0  0  0  0  0
   -5.1310   22.1360  -31.7970 C   0  0  0  0  0  0  0  0  0  0  0  0
  1  2  1  0
  2  3  2  0
  3  4  1  0
  3  5  1  0
  5  6  1  0
  6  7  1  0
  7  8  1  0
  7  9  1  0
  7 10  1  0
 10 11  1  0
 10 12  1  0
 10 13  1  0
  5 14  2  0
 14 15  1  0
 14 16  1  0
 16 17  1  0
 16 18  2  0
 18 19  1  0
 19 20  2  0
 20 21  1  0
 21 22  2  0
 22 23  1  0
 22 24  1  0
 24 25  1  0
 24 26  2  0
 26 27  1  0
 26 28  1  0
 28 29  1  0
 28 30  2  0
 30 31  1  0
 31 32  1  0
 32 33  2  0
 33 34  1  0
 33 35  1  0
 35 36  1  0
 35 37  2  0
 37 38  1  0
 37 39  1  0
 39 40  1  0
 39 41  2  0
 18  2  1  0
 41 20  1  0
 30 21  1  0
 41 32  1  0
M  CHG  1  36  -1
M  END
>  <UniqueID>  (13) 
13

>  <SMILES>  (13) 
CCOc1ccc(/N=c2/c3ccccc3oc3cc([O-])ccc23)cc1

>  <Energy>  (13) 
72.1559605112772

>  <Genealogy>  (13) 
CCOc1ccc(N=c2c3ccccc3oc3cc([O-])ccc23)cc1 (protonated)
CCOc1ccc(/N=c2/c3ccccc3oc3cc([O-])ccc23)cc1 (cis-trans isomerization)
CCOc1ccc(/N=c2/c3ccccc3oc3cc([O-])ccc23)cc1 (3D coordinates assigned)
CCOc1ccc(/N=c2/c3ccccc3oc3cc([O-])ccc23)cc1 (optimized conformer: 72.1559605112772 kcal/mol)

>  <smiles>  (13) 
CCOc1ccc(N=c2c3ccccc3oc3cc(O)ccc23)cc1

>  <score_type>  (13) 
oracle

>  <origin>  (13) 
adg

>  <m_score__min__energy>  (13) 
-11.35

>  <m_primary>  (13) 
energy

$$$$
13:0
     RDKit          3D

 48 51  0  0  0  0  0  0  0  0999 V2000
    0.1820   18.6890  -30.6370 C   0  0  0  0  0  0  0  0  0  0  0  0
   -0.1740   19.7120  -31.5610 O   0  0  0  0  0  0  0  0  0  0  0  0
   -0.9910   20.8120  -31.2560 C   0  0  0  0  0  0  0  0  0  0  0  0
   -0.6800   21.7040  -30.2110 C   0  0  0  0  0  0  0  0  0  0  0  0
   -1.5180   22.7890  -29.9350 C   0  0  0  0  0  0  0  0  0  0  0  0
   -1.2090   23.6440  -28.9250 N   0  0  0  0  0  0  0  0  0  0  0  0
   -2.0030   24.7080  -28.6300 C   0  0  0  0  0  0  0  0  0  0  0  0
   -1.6460   25.6000  -27.5530 N   0  0  0  0  0  0  0  0  0  0  0  0
   -0.7010   26.6990  -27.8190 C   0  0  0  0  0  0  0  0  0  0  0  0
   -0.5650   27.6280  -26.6100 C   0  0  0  0  0  0  0  0  0  0  0  0
   -0.3720   26.8270  -25.3970 N   0  0  0  0  0  0  0  0  0  0  0  0
    0.7570   27.0660  -24.5360 C   0  0  0  0  0  0  0  0  0  0  0  0
    1.9620   26.3730  -24.7350 C   0  0  0  0  0  0  0  0  0  0  0  0
    3.0460   26.6200  -23.8930 C   0  0  0  0  0  0  0  0  0  0  0  0
    2.9280   27.5550  -22.8640 C   0  0  0  0  0  0  0  0  0  0  0  0
    4.4030   27.9060  -21.7040 Br  0  0  0  0  0  0  0  0  0  0  0  0
    1.7180   28.2340  -22.6940 C   0  0  0  0  0  0  0  0  0  0  0  0
    0.6690   27.9820  -23.5240 N   0  0  0  0  0  0  0  0  0  0  0  0
   -1.2830   25.7100  -25.1080 C   0  0  0  0  0  0  0  0  0  0  0  0
   -2.3020   25.4970  -26.2380 C   0  0  0  0  0  0  0  0  0  0  0  0
   -3.1300   24.9250  -29.3630 N   0  0  0  0  0  0  0  0  0  0  0  0
   -3.4860   24.1020  -30.3840 C   0  0  0  0  0  0  0  0  0  0  0  0
   -4.5390   24.3460  -31.0320 O   0  0  0  0  0  0  0  0  0  0  0  0
   -2.6790   22.9980  -30.7020 C   0  0  0  0  0  0  0  0  0  0  0  0
   -2.9910   22.1100  -31.7430 C   0  0  0  0  0  0  0  0  0  0  0  0
   -2.1490   21.0150  -32.0240 C   0  0  0  0  0  0  0  0  0  0  0  0
   -2.4270   20.1060  -33.0570 O   0  0  0  0  0  0  0  0  0  0  0  0
   -3.7330   19.6590  -33.4110 C   0  0  0  0  0  0  0  0  0  0  0  0
    0.0525   19.0612  -29.6100 H   0  0  0  0  0  0  0  0  0  0  0  0
   -0.4640   17.8125  -30.7935 H   0  0  0  0  0  0  0  0  0  0  0  0
    1.2325   18.4029  -30.7935 H   0  0  0  0  0  0  0  0  0  0  0  0
    0.2269   21.5462  -29.6088 H   0  0  0  0  0  0  0  0  0  0  0  0
    0.2853   26.2729  -28.0549 H   0  0  0  0  0  0  0  0  0  0  0  0
   -1.0861   27.2878  -28.6646 H   0  0  0  0  0  0  0  0  0  0  0  0
    0.3008   28.2913  -26.7529 H   0  0  0  0  0  0  0  0  0  0  0  0
   -1.4779   28.2332  -26.5082 H   0  0  0  0  0  0  0  0  0  0  0  0
    2.0504   25.6397  -25.5501 H   0  0  0  0  0  0  0  0  0  0  0  0
    3.9923   26.0787  -24.0398 H   0  0  0  0  0  0  0  0  0  0  0  0
    1.6132   28.9742  -21.8871 H   0  0  0  0  0  0  0  0  0  0  0  0
   -0.2130   28.5240  -23.3870 H   0  0  0  0  0  0  0  0  0  0  0  0
   -0.6913   24.7910  -24.9844 H   0  0  0  0  0  0  0  0  0  0  0  0
   -1.8374   25.9503  -24.1888 H   0  0  0  0  0  0  0  0  0  0  0  0
   -2.7521   24.4985  -26.1356 H   0  0  0  0  0  0  0  0  0  0  0  0
   -3.0783   26.2731  -26.1668 H   0  0  0  0  0  0  0  0  0  0  0  0
   -3.8986   22.2695  -32.3436 H   0  0  0  0  0  0  0  0  0  0  0  0
   -4.3128   19.4606  -32.4975 H   0  0  0  0  0  0  0  0  0  0  0  0
   -4.2380   20.4354  -34.0044 H   0  0  0  0  0  0  0  0  0  0  0  0
   -3.6563   18.7359  -34.0044 H   0  0  0  0  0  0  0  0  0  0  0  0
  1  2  1  0
  2  3  1  0
  3  4  2  0
  4  5  1  0
  5  6  1  0
  6  7  1  0
  7  8  1  0
  8  9  1  0
  9 10  1  0
 10 11  1  0
 11 12  1  0
 12 13  2  0
 13 14  1  0
 14 15  2  0
 15 16  1  0
 15 17  1  0
 17 18  2  0
 11 19  1  0
 19 20  1  0
  7 21  2  0
 21 22  1  0
 22 23  2  0
 22 24  1  0
 24 25  1  0
 25 26  2  0
 26 27  1  0
 27 28  1  0
 26  3  1  0
 24  5  2  0
 20  8  1  0
 18 12  1  0
  1 29  1  0
  1 30  1  0
  1 31  1  0
  4 32  1  0
  9 33  1  0
  9 34  1  0
 10 35  1  0
 10 36  1  0
 13 37  1  0
 14 38  1  0
 17 39  1  0
 18 40  1  0
 19 41  1  0
 19 42  1  0
 20 43  1  0
 20 44  1  0
 25 45  1  0
 28 46  1  0
 28 47  1  0
 28 48  1  0
M  CHG  2   6  -1  18   1
M  END
>  <UniqueID>  (14) 
14

>  <SMILES>  (14) 
COc1cc2[n-]c(N3CCN(c4ccc(Br)c[nH+]4)CC3)nc(=O)c2cc1OC

>  <Energy>  (14) 
59.636342296535965

>  <Genealogy>  (14) 
COc1cc2[n-]c(N3CCN(c4ccc(Br)c[nH+]4)CC3)nc(=O)c2cc1OC (protonated)
COc1cc2[n-]c(N3CCN(c4ccc(Br)c[nH+]4)CC3)nc(=O)c2cc1OC (3D coordinates assigned)
COc1cc2[n-]c(N3CCN(c4ccc(Br)c[nH+]4)CC3)nc(=O)c2cc1OC (nonaromatic ring conformer: 59.636342296535965 kcal/mol)

>  <smiles>  (14) 
COc1cc2[nH]c(N3CCN(c4ccc(Br)cn4)CC3)nc(=O)c2cc1OC

>  <score_type>  (14) 
oracle

>  <origin>  (14) 
adg

>  <m_score__min__energy>  (14) 
-7.29

>  <m_primary>  (14) 
energy

$$$$
14:0
     RDKit          3D

 42 44  0  0  1  0  0  0  0  0999 V2000
   -0.9710   25.5200  -27.5340 C   0  0  0  0  0  0  0  0  0  0  0  0
   -0.2060   24.9480  -28.5230 O   0  0  0  0  0  0  0  0  0  0  0  0
    0.1380   23.6270  -28.2480 C   0  0  0  0  0  0  0  0  0  0  0  0
   -0.6190   22.6340  -29.1030 C   0  0  0  0  0  0  0  0  0  0  0  0
   -1.5970   23.3520  -29.8920 N   0  0  0  0  0  0  0  0  0  0  0  0
   -2.7570   22.6980  -30.4540 C   0  0  0  0  0  0  0  0  0  0  0  0
   -2.9670   21.4500  -30.2670 O   0  0  0  0  0  0  0  0  0  0  0  0
   -3.6620   23.4060  -31.2160 N   0  0  0  0  0  0  0  0  0  0  0  0
   -4.7440   23.9640  -30.9190 C   0  0  0  0  0  0  0  0  0  0  0  0
   -4.6630   25.2880  -30.5760 N   0  0  0  0  0  0  0  0  0  0  0  0
   -5.7300   25.9650  -30.1180 C   0  0  0  0  0  0  0  0  0  0  0  0
   -6.8790   25.2980  -30.0100 N   0  0  0  0  0  0  0  0  0  0  0  0
   -6.9920   24.0220  -30.3360 C   0  0  0  0  0  0  0  0  0  0  0  0
   -5.8850   23.2660  -30.8310 C   0  0  0  0  0  0  0  0  0  0  0  0
   -6.2670   21.9850  -31.3400 C   0  0  0  0  0  0  0  0  0  0  0  0
   -5.4680   21.1880  -32.1070 C   0  0  0  0  0  0  0  0  0  0  0  0
   -5.9420   20.0200  -32.5320 C   0  0  0  0  0  0  0  0  0  0  0  0
   -5.2910   19.0480  -33.3320 C   0  0  0  0  0  0  0  0  0  0  0  0
   -5.9430   17.9030  -33.6720 C   0  0  0  0  0  0  0  0  0  0  0  0
   -5.2340   16.8940  -34.5170 C   0  0  0  0  0  0  0  0  0  0  0  0
   -7.2320   17.5850  -33.2950 C   0  0  0  0  0  0  0  0  0  0  0  0
   -7.8860   18.5180  -32.5150 C   0  0  0  0  0  0  0  0  0  0  0  0
   -7.2110   19.6750  -32.1790 C   0  0  0  0  0  0  0  0  0  0  0  0
   -7.8440   21.0900  -31.1510 S   0  0  0  0  0  0  0  0  0  0  0  0
   -0.5776   25.2258  -26.5498 H   0  0  0  0  0  0  0  0  0  0  0  0
   -0.9359   26.6152  -27.6305 H   0  0  0  0  0  0  0  0  0  0  0  0
   -2.0116   25.1766  -27.6305 H   0  0  0  0  0  0  0  0  0  0  0  0
    1.2151   23.4989  -28.4308 H   0  0  0  0  0  0  0  0  0  0  0  0
   -0.1242   23.4280  -27.1984 H   0  0  0  0  0  0  0  0  0  0  0  0
    0.0816   22.1097  -29.7695 H   0  0  0  0  0  0  0  0  0  0  0  0
   -1.1233   21.8955  -28.4624 H   0  0  0  0  0  0  0  0  0  0  0  0
   -1.4750   24.3900  -30.0820 H   0  0  0  0  0  0  0  0  0  0  0  0
   -5.6579   27.0277  -29.8431 H   0  0  0  0  0  0  0  0  0  0  0  0
   -7.7060   25.8400  -29.6470 H   0  0  0  0  0  0  0  0  0  0  0  0
   -7.9678   23.5271  -30.2228 H   0  0  0  0  0  0  0  0  0  0  0  0
   -4.4483   21.5062  -32.3696 H   0  0  0  0  0  0  0  0  0  0  0  0
   -4.2607   19.2188  -33.6774 H   0  0  0  0  0  0  0  0  0  0  0  0
   -4.7231   16.1669  -33.8687 H   0  0  0  0  0  0  0  0  0  0  0  0
   -5.9635   16.3700  -35.1520 H   0  0  0  0  0  0  0  0  0  0  0  0
   -4.4938   17.4027  -35.1520 H   0  0  0  0  0  0  0  0  0  0  0  0
   -7.7109   16.6424  -33.5985 H   0  0  0  0  0  0  0  0  0  0  0  0
   -8.9162   18.3445  -32.1707 H   0  0  0  0  0  0  0  0  0  0  0  0
  1  2  1  0
  2  3  1  0
  3  4  1  0
  4  5  1  0
  5  6  1  0
  6  7  2  0
  6  8  1  0
  8  9  2  0
  9 10  1  0
 10 11  2  0
 11 12  1  0
 12 13  1  0
 13 14  2  0
 14 15  1  0
 15 16  2  0
 16 17  1  0
 17 18  2  0
 18 19  1  0
 19 20  1  0
 19 21  2  0
 21 22  1  0
 22 23  2  0
 23 24  1  0
 14  9  1  0
 24 15  1  0
 23 17  1  0
  1 25  1  0
  1 26  1  0
  1 27  1  0
  3 28  1  0
  3 29  1  0
  4 30  1  0
  4 31  1  0
  5 32  1  0
 11 33  1  0
 12 34  1  0
 13 35  1  0
 16 36  1  0
 18 37  1  0
 20 38  1  0
 20 39  1  0
 20 40  1  0
 21 41  1  0
 22 42  1  0
M  END
>  <smiles>  (15) 
COCCNC(=O)N=c1nc[nH]cc1-c1cc2cc(C)ccc2s1

>  <score_type>  (15) 
oracle

>  <origin>  (15) 
adg

>  <m_score__min__energy>  (15) 
-8.0299999999999994

>  <m_primary>  (15) 
energy

$$$$
15:0
     RDKit          3D

 42 43  0  0  0  0  0  0  0  0999 V2000
   -4.0820   21.5010  -33.1020 C   0  0  0  0  0  0  0  0  0  0  0  0
   -4.9530   20.9650  -32.1120 O   0  0  0  0  0  0  0  0  0  0  0  0
   -6.3380   21.1890  -32.0640 C   0  0  0  0  0  0  0  0  0  0  0  0
   -7.2670   20.1800  -32.3930 C   0  0  0  0  0  0  0  0  0  0  0  0
   -8.6380   20.4360  -32.3350 C   0  0  0  0  0  0  0  0  0  0  0  0
   -9.1000   21.6960  -31.9580 C   0  0  0  0  0  0  0  0  0  0  0  0
   -8.1920   22.7050  -31.6310 C   0  0  0  0  0  0  0  0  0  0  0  0
   -6.8070   22.4570  -31.6650 C   0  0  0  0  0  0  0  0  0  0  0  0
   -5.8670   23.5010  -31.3560 N   0  0  0  0  0  0  0  0  0  0  0  0
   -6.1760   24.6400  -30.5390 C   0  0  0  0  0  0  0  0  0  0  0  0
   -7.2570   24.6920  -29.8900 O   0  0  0  0  0  0  0  0  0  0  0  0
   -5.2080   25.7760  -30.4450 C   0  0  0  0  0  0  0  0  0  0  0  0
   -3.8650   25.2840  -30.7290 N   0  0  0  0  0  0  0  0  0  0  0  0
   -3.1880   24.1790  -30.1080 C   0  0  0  0  0  0  0  0  0  0  0  0
   -2.9570   23.1590  -30.8110 O   0  0  0  0  0  0  0  0  0  0  0  0
   -2.6550   24.2080  -28.6890 C   0  0  0  0  0  0  0  0  0  0  0  0
   -3.7740   24.1740  -27.6140 C   0  0  0  0  0  0  0  0  0  0  0  0
   -3.4600   25.0470  -26.3890 C   0  0  0  0  0  0  0  0  0  0  0  0
   -1.9940   24.8950  -25.9710 C   0  0  0  0  0  0  0  0  0  0  0  0
   -1.0150   25.3250  -27.0840 C   0  0  0  0  0  0  0  0  0  0  0  0
   -1.6440   25.3560  -28.4910 C   0  0  0  0  0  0  0  0  0  0  0  0
   -3.2433   22.0171  -32.6119 H   0  0  0  0  0  0  0  0  0  0  0  0
   -3.6941   20.6851  -33.7296 H   0  0  0  0  0  0  0  0  0  0  0  0
   -4.6355   22.2150  -33.7296 H   0  0  0  0  0  0  0  0  0  0  0  0
   -6.9090   19.1853  -32.6971 H   0  0  0  0  0  0  0  0  0  0  0  0
   -9.3556   19.6415  -32.5874 H   0  0  0  0  0  0  0  0  0  0  0  0
  -10.1810   21.8956  -31.9181 H   0  0  0  0  0  0  0  0  0  0  0  0
   -8.5617   23.7007  -31.3448 H   0  0  0  0  0  0  0  0  0  0  0  0
   -4.8810   23.3940  -31.6870 H   0  0  0  0  0  0  0  0  0  0  0  0
   -5.4784   26.5517  -31.1766 H   0  0  0  0  0  0  0  0  0  0  0  0
   -5.2386   26.2058  -29.4329 H   0  0  0  0  0  0  0  0  0  0  0  0
   -2.0993   23.2711  -28.5358 H   0  0  0  0  0  0  0  0  0  0  0  0
   -4.7083   24.5335  -28.0698 H   0  0  0  0  0  0  0  0  0  0  0  0
   -3.8600   23.1351  -27.2629 H   0  0  0  0  0  0  0  0  0  0  0  0
   -3.6563   26.1004  -26.6376 H   0  0  0  0  0  0  0  0  0  0  0  0
   -4.0990   24.7239  -25.5539 H   0  0  0  0  0  0  0  0  0  0  0  0
   -1.8140   25.5181  -25.0826 H   0  0  0  0  0  0  0  0  0  0  0  0
   -1.8148   23.8302  -25.7609 H   0  0  0  0  0  0  0  0  0  0  0  0
   -0.6437   26.3333  -26.8482 H   0  0  0  0  0  0  0  0  0  0  0  0
   -0.2112   24.5745  -27.1099 H   0  0  0  0  0  0  0  0  0  0  0  0
   -2.1632   26.3160  -28.6284 H   0  0  0  0  0  0  0  0  0  0  0  0
   -0.8381   25.2346  -29.2298 H   0  0  0  0  0  0  0  0  0  0  0  0
  1  2  1  0
  2  3  1  0
  3  4  2  0
  4  5  1  0
  5  6  2  0
  6  7  1  0
  7  8  2  0
  8  9  1  0
  9 10  1  0
 10 11  2  0
 10 12  1  0
 12 13  1  0
 13 14  1  0
 14 15  2  0
 14 16  1  0
 16 17  1  0
 17 18  1  0
 18 19  1  0
 19 20  1  0
 20 21  1  0
  8  3  1  0
 21 16  1  0
  1 22  1  0
  1 23  1  0
  1 24  1  0
  4 25  1  0
  5 26  1  0
  6 27  1  0
  7 28  1  0
  9 29  1  0
 12 30  1  0
 12 31  1  0
 16 32  1  0
 17 33  1  0
 17 34  1  0
 18 35  1  0
 18 36  1  0
 19 37  1  0
 19 38  1  0
 20 39  1  0
 20 40  1  0
 21 41  1  0
 21 42  1  0
M  CHG  1  13  -1
M  END
>  <UniqueID>  (16) 
15

>  <SMILES>  (16) 
COc1ccccc1NC(=O)C[N-]C(=O)C1CCCCC1

>  <Energy>  (16) 
47.61184325549278

>  <Genealogy>  (16) 
COc1ccccc1NC(=O)C[N-]C(=O)C1CCCCC1 (protonated)
COc1ccccc1NC(=O)C[N-]C(=O)C1CCCCC1 (3D coordinates assigned)
COc1ccccc1NC(=O)C[N-]C(=O)C1CCCCC1 (nonaromatic ring conformer: 47.61184325549278 kcal/mol)

>  <smiles>  (16) 
COc1ccccc1NC(=O)CNC(=O)C1CCCCC1

>  <score_type>  (16) 
oracle

>  <origin>  (16) 
adg

>  <m_score__min__energy>  (16) 
-9.0299999999999994

>  <m_primary>  (16) 
energy

$$$$
16:0
     RDKit          3D

 34 35  0  0  0  0  0  0  0  0999 V2000
   -5.2240   25.6510  -30.4700 C   0  0  0  0  0  0  0  0  0  0  0  0
   -3.8650   25.2300  -30.4660 O   0  0  0  0  0  0  0  0  0  0  0  0
   -3.4430   23.9020  -30.2970 C   0  0  0  0  0  0  0  0  0  0  0  0
   -3.6190   22.9260  -31.2970 C   0  0  0  0  0  0  0  0  0  0  0  0
   -3.1780   21.6150  -31.0890 C   0  0  0  0  0  0  0  0  0  0  0  0
   -2.5600   21.2670  -29.8870 C   0  0  0  0  0  0  0  0  0  0  0  0
   -2.3820   22.2260  -28.8870 C   0  0  0  0  0  0  0  0  0  0  0  0
   -2.8220   23.5400  -29.0870 C   0  0  0  0  0  0  0  0  0  0  0  0
   -2.6540   24.5080  -28.0470 N   0  0  0  0  0  0  0  0  0  0  0  0
   -3.6520   24.6030  -26.9850 C   0  0  0  0  0  0  0  0  0  0  0  0
   -1.1800   25.4210  -27.9750 S   0  0  0  0  0  0  0  0  0  0  0  0
   -0.0230   24.5340  -28.3460 O   0  0  0  0  0  0  0  0  0  0  0  0
   -1.2280   26.5620  -28.9520 O   0  0  0  0  0  0  0  0  0  0  0  0
   -0.9690   26.0460  -26.3450 C   0  0  0  0  0  0  0  0  0  0  0  0
   -0.8540   25.1670  -25.2590 C   0  0  0  0  0  0  0  0  0  0  0  0
   -0.7390   25.6850  -23.9680 C   0  0  0  0  0  0  0  0  0  0  0  0
   -0.7410   27.0660  -23.7710 C   0  0  0  0  0  0  0  0  0  0  0  0
   -0.8620   27.9140  -24.8750 C   0  0  0  0  0  0  0  0  0  0  0  0
   -0.9750   27.3930  -26.1290 N   0  0  0  0  0  0  0  0  0  0  0  0
   -5.5770   25.7604  -29.4339 H   0  0  0  0  0  0  0  0  0  0  0  0
   -5.3071   26.6170  -30.9896 H   0  0  0  0  0  0  0  0  0  0  0  0
   -5.8386   24.9011  -30.9896 H   0  0  0  0  0  0  0  0  0  0  0  0
   -4.1055   23.1959  -32.2459 H   0  0  0  0  0  0  0  0  0  0  0  0
   -3.3185   20.8572  -31.8739 H   0  0  0  0  0  0  0  0  0  0  0  0
   -2.2125   20.2357  -29.7268 H   0  0  0  0  0  0  0  0  0  0  0  0
   -1.8952   21.9482  -27.9405 H   0  0  0  0  0  0  0  0  0  0  0  0
   -3.1518   24.5554  -26.0065 H   0  0  0  0  0  0  0  0  0  0  0  0
   -4.1928   25.5567  -27.0743 H   0  0  0  0  0  0  0  0  0  0  0  0
   -4.3631   23.7685  -27.0743 H   0  0  0  0  0  0  0  0  0  0  0  0
   -0.8544   24.0793  -25.4227 H   0  0  0  0  0  0  0  0  0  0  0  0
   -0.6470   25.0057  -23.1077 H   0  0  0  0  0  0  0  0  0  0  0  0
   -0.6483   27.4830  -22.7573 H   0  0  0  0  0  0  0  0  0  0  0  0
   -0.8660   29.0046  -24.7314 H   0  0  0  0  0  0  0  0  0  0  0  0
   -1.0780   28.0470  -26.9360 H   0  0  0  0  0  0  0  0  0  0  0  0
  1  2  1  0
  2  3  1  0
  3  4  2  0
  4  5  1  0
  5  6  2  0
  6  7  1  0
  7  8  2  0
  8  9  1  0
  9 10  1  0
  9 11  1  0
 11 12  2  0
 11 13  2  0
 11 14  1  0
 14 15  2  0
 15 16  1  0
 16 17  2  0
 17 18  1  0
 18 19  2  0
  8  3  1  0
 19 14  1  0
  1 20  1  0
  1 21  1  0
  1 22  1  0
  4 23  1  0
  5 24  1  0
  6 25  1  0
  7 26  1  0
 10 27  1  0
 10 28  1  0
 10 29  1  0
 15 30  1  0
 16 31  1  0
 17 32  1  0
 18 33  1  0
 19 34  1  0
M  CHG  1  19   1
M  END
>  <UniqueID>  (17) 
16

>  <SMILES>  (17) 
COc1ccccc1N(C)S(=O)(=O)c1cccc[nH+]1

>  <Energy>  (17) 
38.49111569851097

>  <Genealogy>  (17) 
COc1ccccc1N(C)S(=O)(=O)c1cccc[nH+]1 (protonated)
COc1ccccc1N(C)S(=O)(=O)c1cccc[nH+]1 (3D coordinates assigned)
COc1ccccc1N(C)S(=O)(=O)c1cccc[nH+]1 (optimized conformer: 38.49111569851097 kcal/mol)

>  <smiles>  (17) 
COc1ccccc1N(C)S(=O)(=O)c1ccccn1

>  <score_type>  (17) 
oracle

>  <origin>  (17) 
adg

>  <m_score__min__energy>  (17) 
-6.7999999999999998

>  <m_primary>  (17) 
energy

$$$$
17:0
     RDKit          3D

 40 41  0  0  0  0  0  0  0  0999 V2000
   -6.7819   24.9538  -31.3179 H   0  0  0  0  0  0  0  0  0  0  0  0
   -5.9340   24.2580  -31.2340 C   0  0  0  0  0  0  0  0  0  0  0  0
   -4.8550   24.6170  -30.2840 C   0  0  0  0  0  0  0  0  0  0  0  0
   -3.8670   25.2920  -30.6790 O   0  0  0  0  0  0  0  0  0  0  0  0
   -4.8200   24.0720  -28.9100 C   0  0  0  0  0  0  0  0  0  0  0  0
   -5.7285   23.5718  -28.5434 H   0  0  0  0  0  0  0  0  0  0  0  0
   -3.7730   24.1360  -28.0720 C   0  0  0  0  0  0  0  0  0  0  0  0
   -3.9036   24.6899  -27.1306 H   0  0  0  0  0  0  0  0  0  0  0  0
   -2.4580   23.5140  -28.3270 C   0  0  0  0  0  0  0  0  0  0  0  0
   -2.2750   22.1310  -28.1240 C   0  0  0  0  0  0  0  0  0  0  0  0
   -3.3570   21.3620  -27.6610 O   0  0  0  0  0  0  0  0  0  0  0  0
   -3.2380   20.0600  -27.0950 C   0  0  0  0  0  0  0  0  0  0  0  0
   -3.2449   20.1352  -25.9976 H   0  0  0  0  0  0  0  0  0  0  0  0
   -4.0830   19.4380  -27.4252 H   0  0  0  0  0  0  0  0  0  0  0  0
   -2.2942   19.6015  -27.4252 H   0  0  0  0  0  0  0  0  0  0  0  0
   -1.0140   21.5590  -28.3730 C   0  0  0  0  0  0  0  0  0  0  0  0
   -0.8667   20.4775  -28.2366 H   0  0  0  0  0  0  0  0  0  0  0  0
    0.0500   22.3570  -28.7920 C   0  0  0  0  0  0  0  0  0  0  0  0
    1.0312   21.9007  -28.9896 H   0  0  0  0  0  0  0  0  0  0  0  0
   -0.1230   23.7310  -28.9620 C   0  0  0  0  0  0  0  0  0  0  0  0
    0.7249   24.3541  -29.2828 H   0  0  0  0  0  0  0  0  0  0  0  0
   -1.3770   24.3230  -28.7250 C   0  0  0  0  0  0  0  0  0  0  0  0
   -1.5860   25.7040  -28.8860 O   0  0  0  0  0  0  0  0  0  0  0  0
   -0.8880   26.7170  -28.1700 C   0  0  0  0  0  0  0  0  0  0  0  0
   -1.0042   26.5484  -27.0892 H   0  0  0  0  0  0  0  0  0  0  0  0
    0.1794   26.6831  -28.4337 H   0  0  0  0  0  0  0  0  0  0  0  0
   -1.2998   27.7023  -28.4337 H   0  0  0  0  0  0  0  0  0  0  0  0
   -5.9660   23.1570  -32.0010 C   0  0  0  0  0  0  0  0  0  0  0  0
   -5.1264   23.0048  -32.6952 H   0  0  0  0  0  0  0  0  0  0  0  0
   -7.0310   22.1300  -31.9950 C   0  0  0  0  0  0  0  0  0  0  0  0
   -8.3230   22.4880  -31.5800 C   0  0  0  0  0  0  0  0  0  0  0  0
   -8.5210   23.5111  -31.2279 H   0  0  0  0  0  0  0  0  0  0  0  0
   -9.3610   21.5490  -31.6120 C   0  0  0  0  0  0  0  0  0  0  0  0
  -10.3676   21.8306  -31.2694 H   0  0  0  0  0  0  0  0  0  0  0  0
   -9.1190   20.2540  -32.0790 C   0  0  0  0  0  0  0  0  0  0  0  0
   -9.9339   19.5153  -32.0977 H   0  0  0  0  0  0  0  0  0  0  0  0
   -7.8430   19.8970  -32.5220 C   0  0  0  0  0  0  0  0  0  0  0  0
   -7.6130   18.6470  -32.9910 F   0  0  0  0  0  0  0  0  0  0  0  0
   -6.8040   20.8340  -32.4890 C   0  0  0  0  0  0  0  0  0  0  0  0
   -5.8039   20.5545  -32.8518 H   0  0  0  0  0  0  0  0  0  0  0  0
  1  2  1  0
  2  3  1  0
  3  4  2  0
  3  5  1  0
  5  6  1  0
  5  7  2  0
  7  8  1  0
  7  9  1  0
  9 10  2  0
 10 11  1  0
 11 12  1  0
 12 13  1  0
 12 14  1  0
 12 15  1  0
 10 16  1  0
 16 17  1  0
 16 18  2  0
 18 19  1  0
 18 20  1  0
 20 21  1  0
 20 22  2  0
 22 23  1  0
 23 24  1  0
 24 25  1  0
 24 26  1  0
 24 27  1  0
  2 28  2  3
 28 29  1  0
 28 30  1  0
 30 31  2  0
 31 32  1  0
 31 33  1  0
 33 34  1  0
 33 35  2  0
 35 36  1  0
 35 37  1  0
 37 38  1  0
 37 39  2  0
 39 40  1  0
 22  9  1  0
 39 30  1  0
M  END
>  <UniqueID>  (18) 
17

>  <SMILES>  (18) 
COc1cccc(OC)c1/C=C\C(=O)C=Cc1cccc(F)c1

>  <Energy>  (18) 
55.704301079598636

>  <Genealogy>  (18) 
COc1cccc(OC)c1/C=C\C(=O)C=Cc1cccc(F)c1 (cis-trans isomerization)
COc1cccc(OC)c1/C=C\C(=O)C=Cc1cccc(F)c1 (3D coordinates assigned)
COc1cccc(OC)c1/C=C\C(=O)C=Cc1cccc(F)c1 (optimized conformer: 55.704301079598636 kcal/mol)

>  <smiles>  (18) 
COc1cccc(OC)c1C=CC(=O)C=Cc1cccc(F)c1

>  <score_type>  (18) 
oracle

>  <origin>  (18) 
adg

>  <m_score__min__energy>  (18) 
-7.9500000000000002

>  <m_primary>  (18) 
energy

$$$$
18:0
     RDKit          3D

 38 40  0  0  1  0  0  0  0  0999 V2000
   -2.5890   24.5520  -29.3290 C   0  0  0  0  0  0  0  0  0  0  0  0
   -3.4970   25.1690  -30.2350 O   0  0  0  0  0  0  0  0  0  0  0  0
   -4.7330   24.5830  -30.4630 C   0  0  0  0  0  0  0  0  0  0  0  0
   -5.8820   25.0370  -29.8530 C   0  0  0  0  0  0  0  0  0  0  0  0
   -7.0960   24.4490  -30.0860 C   0  0  0  0  0  0  0  0  0  0  0  0
   -7.1610   23.3760  -30.9560 C   0  0  0  0  0  0  0  0  0  0  0  0
   -8.3390   22.7880  -31.1980 N   0  0  0  0  0  0  0  0  0  0  0  0
   -8.3620   21.7440  -32.0530 C   0  0  0  0  0  0  0  0  0  0  0  0
   -7.2710   21.2700  -32.6680 N   0  0  0  0  0  0  0  0  0  0  0  0
   -6.0690   21.8250  -32.4580 C   0  0  0  0  0  0  0  0  0  0  0  0
   -4.9960   21.4210  -33.0120 N   0  0  0  0  0  0  0  0  0  0  0  0
   -4.3780   20.1840  -32.5290 C   0  0  2  0  0  0  0  0  0  0  0  0
   -3.0210   20.0600  -33.1850 C   0  0  0  0  0  0  0  0  0  0  0  0
   -5.2590   19.0290  -32.8780 C   0  0  0  0  0  0  0  0  0  0  0  0
   -5.2260   18.5700  -34.1930 C   0  0  0  0  0  0  0  0  0  0  0  0
   -6.0300   17.4920  -34.5720 C   0  0  0  0  0  0  0  0  0  0  0  0
   -6.8530   16.8900  -33.6390 C   0  0  0  0  0  0  0  0  0  0  0  0
   -6.8900   17.3430  -32.3310 C   0  0  0  0  0  0  0  0  0  0  0  0
   -6.0870   18.4170  -31.9580 C   0  0  0  0  0  0  0  0  0  0  0  0
   -6.0240   22.9050  -31.5790 C   0  0  0  0  0  0  0  0  0  0  0  0
   -4.8260   23.5100  -31.3270 C   0  0  0  0  0  0  0  0  0  0  0  0
   -2.9011   24.7641  -28.2957 H   0  0  0  0  0  0  0  0  0  0  0  0
   -2.5869   23.4647  -29.4955 H   0  0  0  0  0  0  0  0  0  0  0  0
   -1.5773   24.9504  -29.4955 H   0  0  0  0  0  0  0  0  0  0  0  0
   -5.8224   25.8916  -29.1629 H   0  0  0  0  0  0  0  0  0  0  0  0
   -8.0037   24.8233  -29.5900 H   0  0  0  0  0  0  0  0  0  0  0  0
   -9.3274   21.2570  -32.2552 H   0  0  0  0  0  0  0  0  0  0  0  0
   -7.3680   20.4720  -33.3040 H   0  0  0  0  0  0  0  0  0  0  0  0
   -4.2527   20.1956  -31.4362 H   0  0  0  0  0  0  0  0  0  0  0  0
   -2.2440   19.9890  -32.4096 H   0  0  0  0  0  0  0  0  0  0  0  0
   -2.9977   19.1560  -33.8113 H   0  0  0  0  0  0  0  0  0  0  0  0
   -2.8343   20.9448  -33.8113 H   0  0  0  0  0  0  0  0  0  0  0  0
   -4.5692   19.0547  -34.9304 H   0  0  0  0  0  0  0  0  0  0  0  0
   -6.0081   17.1240  -35.6084 H   0  0  0  0  0  0  0  0  0  0  0  0
   -7.4857   16.0416  -33.9388 H   0  0  0  0  0  0  0  0  0  0  0  0
   -7.5475   16.8588  -31.5940 H   0  0  0  0  0  0  0  0  0  0  0  0
   -6.1123   18.7816  -30.9205 H   0  0  0  0  0  0  0  0  0  0  0  0
   -3.9178   23.1354  -31.8217 H   0  0  0  0  0  0  0  0  0  0  0  0
  1  2  1  0
  2  3  1  0
  3  4  2  0
  4  5  1  0
  5  6  2  0
  6  7  1  0
  7  8  2  0
  8  9  1  0
  9 10  1  0
 10 11  2  0
 11 12  1  0
 12 13  1  0
 12 14  1  0
 14 15  2  0
 15 16  1  0
 16 17  2  0
 17 18  1  0
 18 19  2  0
 10 20  1  0
 20 21  2  0
 21  3  1  0
 20  6  1  0
 19 14  1  0
  1 22  1  0
  1 23  1  0
  1 24  1  0
  4 25  1  0
  5 26  1  0
  8 27  1  0
  9 28  1  0
 12 29  1  1
 13 30  1  0
 13 31  1  0
 13 32  1  0
 15 33  1  0
 16 34  1  0
 17 35  1  0
 18 36  1  0
 19 37  1  0
 21 38  1  0
M  END
>  <smiles>  (19) 
COc1ccc2nc[nH]c(=NC(C)c3ccccc3)c2c1

>  <score_type>  (19) 
oracle

>  <origin>  (19) 
adg

>  <m_score__min__energy>  (19) 
-7.8300000000000001

>  <m_primary>  (19) 
energy

$$$$
19:0
     RDKit          3D

 43 45  0  0  0  0  0  0  0  0999 V2000
   -2.1250   24.9250  -28.7680 C   0  0  0  0  0  0  0  0  0  0  0  0
   -3.1170   25.2950  -29.7190 O   0  0  0  0  0  0  0  0  0  0  0  0
   -4.2960   24.5730  -29.9550 C   0  0  0  0  0  0  0  0  0  0  0  0
   -5.3540   25.2190  -30.6040 C   0  0  0  0  0  0  0  0  0  0  0  0
   -6.5500   24.5430  -30.8630 C   0  0  0  0  0  0  0  0  0  0  0  0
   -6.7030   23.1980  -30.4760 C   0  0  0  0  0  0  0  0  0  0  0  0
   -7.8790   22.4680  -30.7180 O   0  0  0  0  0  0  0  0  0  0  0  0
   -8.2930   21.9690  -31.9890 C   0  0  0  0  0  0  0  0  0  0  0  0
   -7.1980   21.1670  -32.6170 C   0  0  0  0  0  0  0  0  0  0  0  0
   -7.4090   20.1270  -33.4470 N   0  0  0  0  0  0  0  0  0  0  0  0
   -6.1790   19.6810  -33.7530 C   0  0  0  0  0  0  0  0  0  0  0  0
   -5.9310   18.5250  -34.5740 C   0  0  0  0  0  0  0  0  0  0  0  0
   -5.7350   17.5970  -35.2360 N   0  0  0  0  0  0  0  0  0  0  0  0
   -5.2560   20.4750  -33.0890 C   0  0  0  0  0  0  0  0  0  0  0  0
   -3.8190   20.3710  -33.0940 N   0  0  0  0  0  0  0  0  0  0  0  0
   -3.2020   19.0390  -33.0130 C   0  0  0  0  0  0  0  0  0  0  0  0
   -1.9120   19.0060  -33.8400 C   0  0  0  0  0  0  0  0  0  0  0  0
   -0.9240   20.1290  -33.4600 C   0  0  0  0  0  0  0  0  0  0  0  0
   -1.5450   21.2330  -32.5910 C   0  0  0  0  0  0  0  0  0  0  0  0
   -2.9710   21.5730  -33.0360 C   0  0  0  0  0  0  0  0  0  0  0  0
   -5.9180   21.3790  -32.4010 O   0  0  0  0  0  0  0  0  0  0  0  0
   -5.6470   22.5540  -29.8230 C   0  0  0  0  0  0  0  0  0  0  0  0
   -4.4510   23.2300  -29.5630 C   0  0  0  0  0  0  0  0  0  0  0  0
   -2.5187   25.0719  -27.7514 H   0  0  0  0  0  0  0  0  0  0  0  0
   -1.8586   23.8671  -28.9088 H   0  0  0  0  0  0  0  0  0  0  0  0
   -1.2309   25.5501  -28.9088 H   0  0  0  0  0  0  0  0  0  0  0  0
   -5.2436   26.2688  -30.9134 H   0  0  0  0  0  0  0  0  0  0  0  0
   -7.3748   25.0640  -31.3712 H   0  0  0  0  0  0  0  0  0  0  0  0
   -9.1792   21.3309  -31.8565 H   0  0  0  0  0  0  0  0  0  0  0  0
   -8.5333   22.8190  -32.6446 H   0  0  0  0  0  0  0  0  0  0  0  0
   -8.3270   19.7390  -33.7630 H   0  0  0  0  0  0  0  0  0  0  0  0
   -2.9672   18.8098  -31.9631 H   0  0  0  0  0  0  0  0  0  0  0  0
   -3.9043   18.2916  -33.4107 H   0  0  0  0  0  0  0  0  0  0  0  0
   -1.4183   18.0360  -33.6810 H   0  0  0  0  0  0  0  0  0  0  0  0
   -2.1920   19.1562  -34.8931 H   0  0  0  0  0  0  0  0  0  0  0  0
   -0.0863   19.6810  -32.9054 H   0  0  0  0  0  0  0  0  0  0  0  0
   -0.6016   20.6033  -34.3986 H   0  0  0  0  0  0  0  0  0  0  0  0
   -1.5702   20.8914  -31.5457 H   0  0  0  0  0  0  0  0  0  0  0  0
   -0.9290   22.1382  -32.6965 H   0  0  0  0  0  0  0  0  0  0  0  0
   -3.4085   22.2849  -32.3207 H   0  0  0  0  0  0  0  0  0  0  0  0
   -2.9229   22.0105  -34.0441 H   0  0  0  0  0  0  0  0  0  0  0  0
   -5.7585   21.5051  -29.5108 H   0  0  0  0  0  0  0  0  0  0  0  0
   -3.6282   22.7104  -29.0502 H   0  0  0  0  0  0  0  0  0  0  0  0
  1  2  1  0
  2  3  1  0
  3  4  2  0
  4  5  1  0
  5  6  2  0
  6  7  1  0
  7  8  1  0
  8  9  1  0
  9 10  2  0
 10 11  1  0
 11 12  1  0
 12 13  3  0
 11 14  2  0
 14 15  1  0
 15 16  1  0
 16 17  1  0
 17 18  1  0
 18 19  1  0
 19 20  1  0
 14 21  1  0
  6 22  1  0
 22 23  2  0
 23  3  1  0
 21  9  1  0
 20 15  1  0
  1 24  1  0
  1 25  1  0
  1 26  1  0
  4 27  1  0
  5 28  1  0
  8 29  1  0
  8 30  1  0
 10 31  1  0
 16 32  1  0
 16 33  1  0
 17 34  1  0
 17 35  1  0
 18 36  1  0
 18 37  1  0
 19 38  1  0
 19 39  1  0
 20 40  1  0
 20 41  1  0
 22 42  1  0
 23 43  1  0
M  CHG  1  10   1
M  END
>  <UniqueID>  (20) 
18

>  <SMILES>  (20) 
COc1ccc(OCc2[nH+]c(C#N)c(N3CCCCC3)o2)cc1

>  <Energy>  (20) 
75.46701599879079

>  <Genealogy>  (20) 
COc1ccc(OCc2[nH+]c(C#N)c(N3CCCCC3)o2)cc1 (protonated)
COc1ccc(OCc2[nH+]c(C#N)c(N3CCCCC3)o2)cc1 (3D coordinates assigned)
COc1ccc(OCc2[nH+]c(C#N)c(N3CCCCC3)o2)cc1 (nonaromatic ring conformer: 75.46701599879079 kcal/mol)

>  <smiles>  (20) 
COc1ccc(OCc2nc(C#N)c(N3CCCCC3)o2)cc1

>  <score_type>  (20) 
oracle

>  <origin>  (20) 
adg

>  <m_score__min__energy>  (20) 
-6.6600000000000001

>  <m_primary>  (20) 
energy

$$$$
20:0
     RDKit          3D

 37 38  0  0  0  0  0  0  0  0999 V2000
   -8.6240   19.0600  -31.5540 C   0  0  0  0  0  0  0  0  0  0  0  0
   -7.5270   18.7900  -32.4870 N   0  0  0  0  0  0  0  0  0  0  0  0
   -7.2240   17.4060  -32.8550 C   0  0  0  0  0  0  0  0  0  0  0  0
   -6.7790   19.8600  -33.0990 C   0  0  0  0  0  0  0  0  0  0  0  0
   -6.4090   19.7440  -34.3000 O   0  0  0  0  0  0  0  0  0  0  0  0
   -6.4180   21.0880  -32.3510 C   0  0  0  0  0  0  0  0  0  0  0  0
   -5.0750   21.3960  -32.0760 C   0  0  0  0  0  0  0  0  0  0  0  0
   -4.7440   22.5640  -31.3820 C   0  0  0  0  0  0  0  0  0  0  0  0
   -5.7490   23.4440  -30.9610 C   0  0  0  0  0  0  0  0  0  0  0  0
   -5.3210   24.9210  -30.1060 S   0  0  0  0  0  0  0  0  0  0  0  0
   -6.5270   25.8140  -30.0330 O   0  0  0  0  0  0  0  0  0  0  0  0
   -4.2290   25.6400  -30.8510 O   0  0  0  0  0  0  0  0  0  0  0  0
   -4.7770   24.5050  -28.5060 N   0  0  0  0  0  0  0  0  0  0  0  0
   -3.4720   23.8390  -28.5550 C   0  0  0  0  0  0  0  0  0  0  0  0
   -2.3860   24.7750  -28.1270 C   0  0  0  0  0  0  0  0  0  0  0  0
   -1.8230   24.8390  -26.8680 C   0  0  0  0  0  0  0  0  0  0  0  0
   -0.8780   25.8400  -26.9380 C   0  0  0  0  0  0  0  0  0  0  0  0
   -0.9220   26.3210  -28.2310 C   0  0  0  0  0  0  0  0  0  0  0  0
   -1.8310   25.6670  -28.9160 O   0  0  0  0  0  0  0  0  0  0  0  0
   -7.0880   23.1550  -31.2540 C   0  0  0  0  0  0  0  0  0  0  0  0
   -7.4210   21.9870  -31.9470 C   0  0  0  0  0  0  0  0  0  0  0  0
   -8.2573   18.9697  -30.5209 H   0  0  0  0  0  0  0  0  0  0  0  0
   -9.0045   20.0786  -31.7203 H   0  0  0  0  0  0  0  0  0  0  0  0
   -9.4338   18.3344  -31.7203 H   0  0  0  0  0  0  0  0  0  0  0  0
   -7.0923   16.8046  -31.9434 H   0  0  0  0  0  0  0  0  0  0  0  0
   -8.0533   16.9946  -33.4491 H   0  0  0  0  0  0  0  0  0  0  0  0
   -6.2986   17.3787  -33.4491 H   0  0  0  0  0  0  0  0  0  0  0  0
   -4.2788   20.7139  -32.4088 H   0  0  0  0  0  0  0  0  0  0  0  0
   -3.6900   22.7926  -31.1658 H   0  0  0  0  0  0  0  0  0  0  0  0
   -5.4690   23.8180  -28.1280 H   0  0  0  0  0  0  0  0  0  0  0  0
   -3.4849   22.9687  -27.8824 H   0  0  0  0  0  0  0  0  0  0  0  0
   -3.2764   23.5184  -29.5889 H   0  0  0  0  0  0  0  0  0  0  0  0
   -2.0754   24.2214  -25.9934 H   0  0  0  0  0  0  0  0  0  0  0  0
   -0.2209   26.1860  -26.1265 H   0  0  0  0  0  0  0  0  0  0  0  0
   -0.2908   27.1300  -28.6275 H   0  0  0  0  0  0  0  0  0  0  0  0
   -7.8804   23.8494  -30.9378 H   0  0  0  0  0  0  0  0  0  0  0  0
   -8.4744   21.7700  -32.1776 H   0  0  0  0  0  0  0  0  0  0  0  0
  1  2  1  0
  2  3  1  0
  2  4  1  0
  4  5  2  0
  4  6  1  0
  6  7  2  0
  7  8  1  0
  8  9  2  0
  9 10  1  0
 10 11  2  0
 10 12  2  0
 10 13  1  0
 13 14  1  0
 14 15  1  0
 15 16  2  0
 16 17  1  0
 17 18  2  0
 18 19  1  0
  9 20  1  0
 20 21  2  0
 21  6  1  0
 19 15  1  0
  1 22  1  0
  1 23  1  0
  1 24  1  0
  3 25  1  0
  3 26  1  0
  3 27  1  0
  7 28  1  0
  8 29  1  0
 13 30  1  0
 14 31  1  0
 14 32  1  0
 16 33  1  0
 17 34  1  0
 18 35  1  0
 20 36  1  0
 21 37  1  0
M  END
>  <UniqueID>  (21) 
19

>  <SMILES>  (21) 
CN(C)C(=O)c1ccc(S(=O)(=O)NCc2ccco2)cc1

>  <Energy>  (21) 
63.525608496314284

>  <Genealogy>  (21) 
CN(C)C(=O)c1ccc(S(=O)(=O)NCc2ccco2)cc1 (3D coordinates assigned)
CN(C)C(=O)c1ccc(S(=O)(=O)NCc2ccco2)cc1 (optimized conformer: 63.525608496314284 kcal/mol)

>  <smiles>  (21) 
CN(C)C(=O)c1ccc(S(=O)(=O)NCc2ccco2)cc1

>  <score_type>  (21) 
oracle

>  <origin>  (21) 
adg

>  <m_score__min__energy>  (21) 
-9.1699999999999999

>  <m_primary>  (21) 
energy

$$$$
21:0
     RDKit          3D

 39 41  0  0  0  0  0  0  0  0999 V2000
   -8.9090   21.2200  -31.2170 C   0  0  0  0  0  0  0  0  0  0  0  0
   -7.5340   20.9650  -30.9560 O   0  0  0  0  0  0  0  0  0  0  0  0
   -6.6160   20.5070  -31.9150 C   0  0  0  0  0  0  0  0  0  0  0  0
   -6.8760   19.3860  -32.7270 C   0  0  0  0  0  0  0  0  0  0  0  0
   -5.9390   18.9730  -33.6790 C   0  0  0  0  0  0  0  0  0  0  0  0
   -4.7400   19.6710  -33.8330 C   0  0  0  0  0  0  0  0  0  0  0  0
   -4.4710   20.7820  -33.0310 C   0  0  0  0  0  0  0  0  0  0  0  0
   -5.4000   21.1990  -32.0680 C   0  0  0  0  0  0  0  0  0  0  0  0
   -5.1150   22.3490  -31.2580 N   0  0  0  0  0  0  0  0  0  0  0  0
   -5.7780   23.5240  -31.2910 C   0  0  0  0  0  0  0  0  0  0  0  0
   -6.9240   23.8320  -32.2050 C   0  0  0  0  0  0  0  0  0  0  0  0
   -5.2220   24.4120  -30.3920 C   0  0  0  0  0  0  0  0  0  0  0  0
   -4.1670   23.7490  -29.7870 C   0  0  0  0  0  0  0  0  0  0  0  0
   -3.2840   24.3430  -28.7630 C   0  0  0  0  0  0  0  0  0  0  0  0
   -3.4570   24.1280  -27.5040 N   0  0  0  0  0  0  0  0  0  0  0  0
   -2.4610   24.8600  -26.7340 C   0  0  0  0  0  0  0  0  0  0  0  0
   -1.6430   25.6370  -27.7750 C   0  0  0  0  0  0  0  0  0  0  0  0
   -2.2190   25.2330  -29.0420 N   0  0  0  0  0  0  0  0  0  0  0  0
   -4.1370   22.4670  -30.3290 C   0  0  0  0  0  0  0  0  0  0  0  0
   -3.1550   21.3820  -29.9900 C   0  0  0  0  0  0  0  0  0  0  0  0
   -9.4505   21.3204  -30.2648 H   0  0  0  0  0  0  0  0  0  0  0  0
   -9.0061   22.1515  -31.7940 H   0  0  0  0  0  0  0  0  0  0  0  0
   -9.3336   20.3853  -31.7940 H   0  0  0  0  0  0  0  0  0  0  0  0
   -7.8200   18.8332  -32.6118 H   0  0  0  0  0  0  0  0  0  0  0  0
   -6.1473   18.0953  -34.3086 H   0  0  0  0  0  0  0  0  0  0  0  0
   -4.0071   19.3459  -34.5861 H   0  0  0  0  0  0  0  0  0  0  0  0
   -3.5265   21.3319  -33.1555 H   0  0  0  0  0  0  0  0  0  0  0  0
   -7.8157   24.0717  -31.6071 H   0  0  0  0  0  0  0  0  0  0  0  0
   -6.6658   24.6926  -32.8396 H   0  0  0  0  0  0  0  0  0  0  0  0
   -7.1321   22.9579  -32.8396 H   0  0  0  0  0  0  0  0  0  0  0  0
   -5.5518   25.4428  -30.1950 H   0  0  0  0  0  0  0  0  0  0  0  0
   -2.9481   25.5517  -26.0310 H   0  0  0  0  0  0  0  0  0  0  0  0
   -1.8309   24.1891  -26.1316 H   0  0  0  0  0  0  0  0  0  0  0  0
   -1.7481   26.7217  -27.6253 H   0  0  0  0  0  0  0  0  0  0  0  0
   -0.5653   25.4257  -27.7119 H   0  0  0  0  0  0  0  0  0  0  0  0
   -2.0000   25.6760  -29.9600 H   0  0  0  0  0  0  0  0  0  0  0  0
   -3.0724   21.2907  -28.8969 H   0  0  0  0  0  0  0  0  0  0  0  0
   -3.5027   20.4277  -30.4124 H   0  0  0  0  0  0  0  0  0  0  0  0
   -2.1709   21.6331  -30.4124 H   0  0  0  0  0  0  0  0  0  0  0  0
  1  2  1  0
  2  3  1  0
  3  4  2  0
  4  5  1  0
  5  6  2  0
  6  7  1  0
  7  8  2  0
  8  9  1  0
  9 10  1  0
 10 11  1  0
 10 12  2  0
 12 13  1  0
 13 14  1  0
 14 15  2  0
 15 16  1  0
 16 17  1  0
 17 18  1  0
 13 19  2  0
 19 20  1  0
  8  3  1  0
 19  9  1  0
 18 14  1  0
  1 21  1  0
  1 22  1  0
  1 23  1  0
  4 24  1  0
  5 25  1  0
  6 26  1  0
  7 27  1  0
 11 28  1  0
 11 29  1  0
 11 30  1  0
 12 31  1  0
 16 32  1  0
 16 33  1  0
 17 34  1  0
 17 35  1  0
 18 36  1  0
 20 37  1  0
 20 38  1  0
 20 39  1  0
M  END
>  <UniqueID>  (22) 
20

>  <SMILES>  (22) 
COc1ccccc1-n1c(C)cc(C2=NCCN2)c1C

>  <Energy>  (22) 
84.96362657197128

>  <Genealogy>  (22) 
COc1ccccc1-n1c(C)cc(C2=NCCN2)c1C (3D coordinates assigned)
COc1ccccc1-n1c(C)cc(C2=NCCN2)c1C (nonaromatic ring conformer: 84.96362657197128 kcal/mol)

>  <smiles>  (22) 
COc1ccccc1-n1c(C)cc(C2=NCCN2)c1C

>  <score_type>  (22) 
oracle

>  <origin>  (22) 
adg

>  <m_score__min__energy>  (22) 
-7.0300000000000002

>  <m_primary>  (22) 
energy

$$$$
22:0
     RDKit          3D

 39 41  0  0  0  0  0  0  0  0999 V2000
   -3.5120   24.6150  -26.7390 C   0  0  0  0  0  0  0  0  0  0  0  0
   -2.0450   24.5930  -26.7920 N   0  0  0  0  0  0  0  0  0  0  0  0
   -1.4990   25.7550  -26.0810 C   0  0  0  0  0  0  0  0  0  0  0  0
   -1.5200   24.6360  -28.4560 S   0  0  0  0  0  0  0  0  0  0  0  0
   -1.5400   26.0500  -28.9700 O   0  0  0  0  0  0  0  0  0  0  0  0
   -0.1160   24.1090  -28.5610 O   0  0  0  0  0  0  0  0  0  0  0  0
   -2.5750   23.6250  -29.4410 C   0  0  0  0  0  0  0  0  0  0  0  0
   -3.5620   24.2190  -30.2390 C   0  0  0  0  0  0  0  0  0  0  0  0
   -4.3900   23.4280  -31.0410 C   0  0  0  0  0  0  0  0  0  0  0  0
   -4.2320   22.0350  -31.0560 C   0  0  0  0  0  0  0  0  0  0  0  0
   -5.0810   21.2200  -31.8860 N   0  0  0  0  0  0  0  0  0  0  0  0
   -4.5020   20.4650  -32.8760 C   0  0  0  0  0  0  0  0  0  0  0  0
   -3.2510   20.4780  -33.0480 O   0  0  0  0  0  0  0  0  0  0  0  0
   -5.2880   19.6730  -33.7160 C   0  0  0  0  0  0  0  0  0  0  0  0
   -6.6680   19.6490  -33.5530 C   0  0  0  0  0  0  0  0  0  0  0  0
   -7.2600   20.4120  -32.5440 C   0  0  0  0  0  0  0  0  0  0  0  0
   -8.6470   20.3990  -32.3570 C   0  0  0  0  0  0  0  0  0  0  0  0
   -9.2150   21.1600  -31.3390 C   0  0  0  0  0  0  0  0  0  0  0  0
   -8.3920   21.9260  -30.5140 C   0  0  0  0  0  0  0  0  0  0  0  0
   -7.0430   21.9350  -30.7010 N   0  0  0  0  0  0  0  0  0  0  0  0
   -6.4460   21.2050  -31.6980 C   0  0  0  0  0  0  0  0  0  0  0  0
   -3.2440   21.4390  -30.2580 C   0  0  0  0  0  0  0  0  0  0  0  0
   -2.4170   22.2310  -29.4560 C   0  0  0  0  0  0  0  0  0  0  0  0
   -3.8409   24.6199  -25.6893 H   0  0  0  0  0  0  0  0  0  0  0  0
   -3.8836   25.5188  -27.2440 H   0  0  0  0  0  0  0  0  0  0  0  0
   -3.9106   23.7227  -27.2440 H   0  0  0  0  0  0  0  0  0  0  0  0
   -1.5763   25.5906  -24.9961 H   0  0  0  0  0  0  0  0  0  0  0  0
   -0.4429   25.8907  -26.3570 H   0  0  0  0  0  0  0  0  0  0  0  0
   -2.0686   26.6546  -26.3570 H   0  0  0  0  0  0  0  0  0  0  0  0
   -3.6858   25.3120  -30.2343 H   0  0  0  0  0  0  0  0  0  0  0  0
   -5.1667   23.8993  -31.6612 H   0  0  0  0  0  0  0  0  0  0  0  0
   -4.8157   19.0694  -34.5051 H   0  0  0  0  0  0  0  0  0  0  0  0
   -7.2916   19.0314  -34.2161 H   0  0  0  0  0  0  0  0  0  0  0  0
   -9.2863   19.7893  -33.0124 H   0  0  0  0  0  0  0  0  0  0  0  0
  -10.3044   21.1571  -31.1866 H   0  0  0  0  0  0  0  0  0  0  0  0
   -8.8355   22.5272  -29.7066 H   0  0  0  0  0  0  0  0  0  0  0  0
   -6.4800   22.5200  -30.0460 H   0  0  0  0  0  0  0  0  0  0  0  0
   -3.1198   20.3461  -30.2634 H   0  0  0  0  0  0  0  0  0  0  0  0
   -1.6405   21.7601  -28.8352 H   0  0  0  0  0  0  0  0  0  0  0  0
  1  2  1  0
  2  3  1  0
  2  4  1  0
  4  5  2  0
  4  6  2  0
  4  7  1  0
  7  8  2  0
  8  9  1  0
  9 10  2  0
 10 11  1  0
 11 12  1  0
 12 13  2  0
 12 14  1  0
 14 15  2  0
 15 16  1  0
 16 17  2  0
 17 18  1  0
 18 19  2  0
 19 20  1  0
 20 21  2  0
 10 22  1  0
 22 23  2  0
 23  7  1  0
 21 11  1  0
 21 16  1  0
  1 24  1  0
  1 25  1  0
  1 26  1  0
  3 27  1  0
  3 28  1  0
  3 29  1  0
  8 30  1  0
  9 31  1  0
 14 32  1  0
 15 33  1  0
 17 34  1  0
 18 35  1  0
 19 36  1  0
 20 37  1  0
 22 38  1  0
 23 39  1  0
M  CHG  1  20   1
M  END
>  <UniqueID>  (23) 
21

>  <SMILES>  (23) 
CN(C)S(=O)(=O)c1ccc(-n2c(=O)ccc3ccc[nH+]c32)cc1

>  <Energy>  (23) 
54.032027954530854

>  <Genealogy>  (23) 
CN(C)S(=O)(=O)c1ccc(-n2c(=O)ccc3ccc[nH+]c32)cc1 (protonated)
CN(C)S(=O)(=O)c1ccc(-n2c(=O)ccc3ccc[nH+]c32)cc1 (3D coordinates assigned)
CN(C)S(=O)(=O)c1ccc(-n2c(=O)ccc3ccc[nH+]c32)cc1 (optimized conformer: 54.032027954530854 kcal/mol)

>  <smiles>  (23) 
CN(C)S(=O)(=O)c1ccc(-n2c(=O)ccc3cccnc32)cc1

>  <score_type>  (23) 
oracle

>  <origin>  (23) 
adg

>  <m_score__min__energy>  (23) 
-7.6100000000000003

>  <m_primary>  (23) 
energy

$$$$
23:0
     RDKit          3D

 47 49  0  0  0  0  0  0  0  0999 V2000
   -9.0480   21.5610  -31.5950 C   0  0  0  0  0  0  0  0  0  0  0  0
   -8.6990   22.9310  -31.4310 O   0  0  0  0  0  0  0  0  0  0  0  0
   -7.3910   23.3970  -31.2380 C   0  0  0  0  0  0  0  0  0  0  0  0
   -7.1580   24.3240  -30.2150 C   0  0  0  0  0  0  0  0  0  0  0  0
   -5.8710   24.8200  -29.9850 C   0  0  0  0  0  0  0  0  0  0  0  0
   -4.8040   24.4110  -30.7920 C   0  0  0  0  0  0  0  0  0  0  0  0
   -3.4910   24.9160  -30.5210 N   0  0  0  0  0  0  0  0  0  0  0  0
   -2.7570   24.7310  -29.3030 C   0  0  0  0  0  0  0  0  0  0  0  0
   -1.9660   25.6430  -28.9410 O   0  0  0  0  0  0  0  0  0  0  0  0
   -2.8340   23.4290  -28.5190 C   0  0  2  0  0  0  0  0  0  0  0  0
   -1.4340   22.8700  -28.1600 C   0  0  0  0  0  0  0  0  0  0  0  0
   -1.5130   21.3840  -27.8080 C   0  0  0  0  0  0  0  0  0  0  0  0
   -1.9290   20.5830  -29.0470 C   0  0  0  0  0  0  0  0  0  0  0  0
   -2.9420   21.2960  -29.8380 N   0  0  0  0  0  0  0  0  0  0  0  0
   -3.3440   20.7490  -31.1020 C   0  0  0  0  0  0  0  0  0  0  0  0
   -4.5970   20.1270  -31.2190 C   0  0  0  0  0  0  0  0  0  0  0  0
   -5.0180   19.6100  -32.4460 C   0  0  0  0  0  0  0  0  0  0  0  0
   -4.1930   19.7120  -33.5670 C   0  0  0  0  0  0  0  0  0  0  0  0
   -2.9420   20.3260  -33.4640 C   0  0  0  0  0  0  0  0  0  0  0  0
   -2.4990   20.8360  -32.2310 C   0  0  0  0  0  0  0  0  0  0  0  0
   -1.1540   21.5020  -32.1450 C   0  0  0  0  0  0  0  0  0  0  0  0
   -3.7300   22.3850  -29.2460 C   0  0  0  0  0  0  0  0  0  0  0  0
   -5.0230   23.4590  -31.7970 C   0  0  0  0  0  0  0  0  0  0  0  0
   -6.3090   22.9610  -32.0270 C   0  0  0  0  0  0  0  0  0  0  0  0
   -9.1674   21.0922  -30.6071 H   0  0  0  0  0  0  0  0  0  0  0  0
   -9.9935   21.4877  -32.1523 H   0  0  0  0  0  0  0  0  0  0  0  0
   -8.2528   21.0442  -32.1523 H   0  0  0  0  0  0  0  0  0  0  0  0
   -7.9943   24.6650  -29.5870 H   0  0  0  0  0  0  0  0  0  0  0  0
   -5.6970   25.5342  -29.1667 H   0  0  0  0  0  0  0  0  0  0  0  0
   -3.3184   23.6545  -27.5575 H   0  0  0  0  0  0  0  0  0  0  0  0
   -0.7624   23.0008  -29.0213 H   0  0  0  0  0  0  0  0  0  0  0  0
   -1.0504   23.4179  -27.2867 H   0  0  0  0  0  0  0  0  0  0  0  0
   -0.5283   21.0371  -27.4615 H   0  0  0  0  0  0  0  0  0  0  0  0
   -2.2569   21.2366  -27.0112 H   0  0  0  0  0  0  0  0  0  0  0  0
   -1.0423   20.4107  -29.6748 H   0  0  0  0  0  0  0  0  0  0  0  0
   -2.3637   19.6302  -28.7104 H   0  0  0  0  0  0  0  0  0  0  0  0
   -5.2514   20.0463  -30.3385 H   0  0  0  0  0  0  0  0  0  0  0  0
   -6.0004   19.1221  -32.5290 H   0  0  0  0  0  0  0  0  0  0  0  0
   -4.5282   19.3082  -34.5337 H   0  0  0  0  0  0  0  0  0  0  0  0
   -2.2999   20.4108  -34.3531 H   0  0  0  0  0  0  0  0  0  0  0  0
   -0.8791   21.6381  -31.0886 H   0  0  0  0  0  0  0  0  0  0  0  0
   -0.4008   20.8727  -32.6417 H   0  0  0  0  0  0  0  0  0  0  0  0
   -1.1979   22.4825  -32.6417 H   0  0  0  0  0  0  0  0  0  0  0  0
   -4.2891   22.8932  -30.0455 H   0  0  0  0  0  0  0  0  0  0  0  0
   -4.4091   21.9448  -28.5010 H   0  0  0  0  0  0  0  0  0  0  0  0
   -4.1800   23.1023  -32.4070 H   0  0  0  0  0  0  0  0  0  0  0  0
   -6.4764   22.2255  -32.8276 H   0  0  0  0  0  0  0  0  0  0  0  0
  1  2  1  0
  2  3  1  0
  3  4  2  0
  4  5  1  0
  5  6  2  0
  6  7  1  0
  7  8  1  0
  8  9  2  0
  8 10  1  0
 10 11  1  0
 11 12  1  0
 12 13  1  0
 13 14  1  0
 14 15  1  0
 15 16  2  0
 16 17  1  0
 17 18  2  0
 18 19  1  0
 19 20  2  0
 20 21  1  0
 14 22  1  0
  6 23  1  0
 23 24  2  0
 24  3  1  0
 22 10  1  0
 20 15  1  0
  1 25  1  0
  1 26  1  0
  1 27  1  0
  4 28  1  0
  5 29  1  0
 10 30  1  1
 11 31  1  0
 11 32  1  0
 12 33  1  0
 12 34  1  0
 13 35  1  0
 13 36  1  0
 16 37  1  0
 17 38  1  0
 18 39  1  0
 19 40  1  0
 21 41  1  0
 21 42  1  0
 21 43  1  0
 22 44  1  0
 22 45  1  0
 23 46  1  0
 24 47  1  0
M  CHG  1   7  -1
M  END
>  <UniqueID>  (24) 
22

>  <SMILES>  (24) 
COc1ccc([N-]C(=O)[C@@H]2CCCN(c3ccccc3C)C2)cc1

>  <Energy>  (24) 
61.273932310943685

>  <Genealogy>  (24) 
COc1ccc([N-]C(=O)C2CCCN(c3ccccc3C)C2)cc1 (protonated)
COc1ccc([N-]C(=O)[C@@H]2CCCN(c3ccccc3C)C2)cc1 (chirality)
COc1ccc([N-]C(=O)[C@@H]2CCCN(c3ccccc3C)C2)cc1 (3D coordinates assigned)
COc1ccc([N-]C(=O)[C@@H]2CCCN(c3ccccc3C)C2)cc1 (nonaromatic ring conformer: 61.273932310943685 kcal/mol)

>  <smiles>  (24) 
COc1ccc(NC(=O)C2CCCN(c3ccccc3C)C2)cc1

>  <score_type>  (24) 
oracle

>  <origin>  (24) 
adg

>  <m_score__min__energy>  (24) 
-9.7200000000000006

>  <m_primary>  (24) 
energy

$$$$
24:0
     RDKit          3D

 21 22  0  0  1  0  0  0  0  0999 V2000
   -2.5630   24.1700  -29.6280 C   0  0  0  0  0  0  0  0  0  0  0  0
   -3.4770   24.9220  -30.4610 N   0  0  0  0  0  0  0  0  0  0  0  0
   -4.7150   24.6290  -30.4510 C   0  0  0  0  0  0  0  0  0  0  0  0
   -5.6490   25.2990  -29.7900 N   0  0  0  0  0  0  0  0  0  0  0  0
   -6.9440   24.9440  -29.8150 C   0  0  0  0  0  0  0  0  0  0  0  0
   -7.3480   23.8730  -30.5260 N   0  0  0  0  0  0  0  0  0  0  0  0
   -6.4390   23.1570  -31.2150 C   0  0  0  0  0  0  0  0  0  0  0  0
   -5.1040   23.5140  -31.1960 C   0  0  0  0  0  0  0  0  0  0  0  0
   -4.4270   22.6540  -31.9500 N   0  0  0  0  0  0  0  0  0  0  0  0
   -5.3000   21.7520  -32.4530 C   0  0  0  0  0  0  0  0  0  0  0  0
   -6.5250   22.0680  -31.9980 N   0  0  0  0  0  0  0  0  0  0  0  0
   -7.7070   21.3100  -32.3370 C   0  0  0  0  0  0  0  0  0  0  0  0
   -2.7924   24.3587  -28.5689 H   0  0  0  0  0  0  0  0  0  0  0  0
   -2.6716   23.0963  -29.8410 H   0  0  0  0  0  0  0  0  0  0  0  0
   -1.5303   24.4834  -29.8410 H   0  0  0  0  0  0  0  0  0  0  0  0
   -5.3570   26.1310  -29.2340 H   0  0  0  0  0  0  0  0  0  0  0  0
   -7.6816   25.5328  -29.2500 H   0  0  0  0  0  0  0  0  0  0  0  0
   -5.0521   20.9100  -33.1161 H   0  0  0  0  0  0  0  0  0  0  0  0
   -8.2119   20.9862  -31.4149 H   0  0  0  0  0  0  0  0  0  0  0  0
   -8.3894   21.9393  -32.9271 H   0  0  0  0  0  0  0  0  0  0  0  0
   -7.4198   20.4272  -32.9271 H   0  0  0  0  0  0  0  0  0  0  0  0
  1  2  1  0
  2  3  2  0
  3  4  1  0
  4  5  1  0
  5  6  2  0
  6  7  1  0
  7  8  2  0
  8  9  1  0
  9 10  2  0
 10 11  1  0
 11 12  1  0
  8  3  1  0
 11  7  1  0
  1 13  1  0
  1 14  1  0
  1 15  1  0
  4 16  1  0
  5 17  1  0
 10 18  1  0
 12 19  1  0
 12 20  1  0
 12 21  1  0
M  END
>  <smiles>  (25) 
CN=c1[nH]cnc2c1ncn2C

>  <score_type>  (25) 
oracle

>  <origin>  (25) 
adg

>  <m_score__min__energy>  (25) 
-4.6200000000000001

>  <m_primary>  (25) 
energy

$$$$
25:0
     RDKit          3D

 25 26  0  0  0  0  0  0  0  0999 V2000
   -2.6480   24.4430  -27.5140 C   0  0  0  0  0  0  0  0  0  0  0  0
   -2.3770   24.5220  -29.0110 C   0  0  0  0  0  0  0  0  0  0  0  0
   -3.6540   24.4130  -29.7840 C   0  0  0  0  0  0  0  0  0  0  0  0
   -4.3320   23.2560  -29.9370 N   0  0  0  0  0  0  0  0  0  0  0  0
   -5.3710   23.5840  -30.7340 C   0  0  0  0  0  0  0  0  0  0  0  0
   -6.4030   22.6140  -31.1790 C   0  0  0  0  0  0  0  0  0  0  0  0
   -6.1360   21.6750  -32.1940 C   0  0  0  0  0  0  0  0  0  0  0  0
   -7.1240   20.7700  -32.5980 C   0  0  0  0  0  0  0  0  0  0  0  0
   -8.3840   20.7920  -31.9970 C   0  0  0  0  0  0  0  0  0  0  0  0
   -8.6600   21.7190  -30.9910 C   0  0  0  0  0  0  0  0  0  0  0  0
   -7.6780   22.6260  -30.5830 C   0  0  0  0  0  0  0  0  0  0  0  0
   -5.2930   24.9280  -31.0550 C   0  0  0  0  0  0  0  0  0  0  0  0
   -4.2070   25.4390  -30.4570 N   0  0  0  0  0  0  0  0  0  0  0  0
   -1.7348   24.7092  -26.9615 H   0  0  0  0  0  0  0  0  0  0  0  0
   -3.4538   25.1436  -27.2498 H   0  0  0  0  0  0  0  0  0  0  0  0
   -2.9511   23.4191  -27.2498 H   0  0  0  0  0  0  0  0  0  0  0  0
   -1.8962   25.4842  -29.2411 H   0  0  0  0  0  0  0  0  0  0  0  0
   -1.7175   23.6892  -29.2964 H   0  0  0  0  0  0  0  0  0  0  0  0
   -5.1455   21.6528  -32.6719 H   0  0  0  0  0  0  0  0  0  0  0  0
   -6.9073   20.0393  -33.3912 H   0  0  0  0  0  0  0  0  0  0  0  0
   -9.1586   20.0792  -32.3162 H   0  0  0  0  0  0  0  0  0  0  0  0
   -9.6529   21.7359  -30.5180 H   0  0  0  0  0  0  0  0  0  0  0  0
   -7.9033   23.3546  -29.7903 H   0  0  0  0  0  0  0  0  0  0  0  0
   -5.9997   25.4814  -31.6908 H   0  0  0  0  0  0  0  0  0  0  0  0
   -3.8620   26.4240  -30.5130 H   0  0  0  0  0  0  0  0  0  0  0  0
  1  2  1  0
  2  3  1  0
  3  4  2  0
  4  5  1  0
  5  6  1  0
  6  7  2  0
  7  8  1  0
  8  9  2  0
  9 10  1  0
 10 11  2  0
  5 12  2  0
 12 13  1  0
 13  3  1  0
 11  6  1  0
  1 14  1  0
  1 15  1  0
  1 16  1  0
  2 17  1  0
  2 18  1  0
  7 19  1  0
  8 20  1  0
  9 21  1  0
 10 22  1  0
 11 23  1  0
 12 24  1  0
 13 25  1  0
M  END
>  <UniqueID>  (26) 
23

>  <SMILES>  (26) 
CCc1nc(-c2ccccc2)c[nH]1

>  <Energy>  (26) 
51.135636072251316

>  <Genealogy>  (26) 
CCc1nc(-c2ccccc2)c[nH]1 (3D coordinates assigned)
CCc1nc(-c2ccccc2)c[nH]1 (optimized conformer: 51.135636072251316 kcal/mol)

>  <smiles>  (26) 
CCc1nc(-c2ccccc2)c[nH]1

>  <score_type>  (26) 
oracle

>  <origin>  (26) 
adg

>  <m_score__min__energy>  (26) 
-5.8200000000000003

>  <m_primary>  (26) 
energy

$$$$
26:0
     RDKit          3D

 33 34  0  0  0  0  0  0  0  0999 V2000
   -3.1760   24.5190  -29.4890 C   0  0  0  0  0  0  0  0  0  0  0  0
   -3.9080   24.5670  -30.7100 O   0  0  0  0  0  0  0  0  0  0  0  0
   -4.6730   23.5060  -31.2220 C   0  0  0  0  0  0  0  0  0  0  0  0
   -4.0820   22.3520  -31.7630 C   0  0  0  0  0  0  0  0  0  0  0  0
   -4.8720   21.3100  -32.2680 C   0  0  0  0  0  0  0  0  0  0  0  0
   -4.2760   20.2030  -32.7990 N   0  0  0  0  0  0  0  0  0  0  0  0
   -5.0040   19.1770  -33.3220 C   0  0  0  0  0  0  0  0  0  0  0  0
   -4.3090   17.9650  -33.8720 C   0  0  0  0  0  0  0  0  0  0  0  0
   -6.4000   19.2230  -33.2840 C   0  0  0  0  0  0  0  0  0  0  0  0
   -7.0590   20.3330  -32.7340 C   0  0  0  0  0  0  0  0  0  0  0  0
   -8.5710   20.3370  -32.7280 C   0  0  0  0  0  0  0  0  0  0  0  0
   -9.0820   19.1140  -32.0990 C   0  0  0  0  0  0  0  0  0  0  0  0
   -9.4840   18.1500  -31.6020 N   0  0  0  0  0  0  0  0  0  0  0  0
   -6.2840   21.4100  -32.2280 C   0  0  0  0  0  0  0  0  0  0  0  0
   -6.8680   22.5750  -31.6900 C   0  0  0  0  0  0  0  0  0  0  0  0
   -6.0690   23.6200  -31.1890 C   0  0  0  0  0  0  0  0  0  0  0  0
   -6.6260   24.7900  -30.6470 O   0  0  0  0  0  0  0  0  0  0  0  0
   -6.3530   25.2890  -29.3420 C   0  0  0  0  0  0  0  0  0  0  0  0
   -3.8747   24.5648  -28.6406 H   0  0  0  0  0  0  0  0  0  0  0  0
   -2.6028   23.5813  -29.4417 H   0  0  0  0  0  0  0  0  0  0  0  0
   -2.4853   25.3738  -29.4417 H   0  0  0  0  0  0  0  0  0  0  0  0
   -2.9858   22.2651  -31.7906 H   0  0  0  0  0  0  0  0  0  0  0  0
   -3.2320   20.1380  -32.8130 H   0  0  0  0  0  0  0  0  0  0  0  0
   -3.9503   17.3395  -33.0413 H   0  0  0  0  0  0  0  0  0  0  0  0
   -5.0129   17.3870  -34.4888 H   0  0  0  0  0  0  0  0  0  0  0  0
   -3.4546   18.2806  -34.4888 H   0  0  0  0  0  0  0  0  0  0  0  0
   -6.9859   18.3841  -33.6877 H   0  0  0  0  0  0  0  0  0  0  0  0
   -8.9291   21.2114  -32.1648 H   0  0  0  0  0  0  0  0  0  0  0  0
   -8.9323   20.3828  -33.7659 H   0  0  0  0  0  0  0  0  0  0  0  0
   -7.9636   22.6687  -31.6613 H   0  0  0  0  0  0  0  0  0  0  0  0
   -6.7390   24.5835  -28.5915 H   0  0  0  0  0  0  0  0  0  0  0  0
   -5.2666   25.4035  -29.2131 H   0  0  0  0  0  0  0  0  0  0  0  0
   -6.8425   26.2656  -29.2131 H   0  0  0  0  0  0  0  0  0  0  0  0
  1  2  1  0
  2  3  1  0
  3  4  2  0
  4  5  1  0
  5  6  2  0
  6  7  1  0
  7  8  1  0
  7  9  2  0
  9 10  1  0
 10 11  1  0
 11 12  1  0
 12 13  3  0
 10 14  2  0
 14 15  1  0
 15 16  2  0
 16 17  1  0
 17 18  1  0
 16  3  1  0
 14  5  1  0
  1 19  1  0
  1 20  1  0
  1 21  1  0
  4 22  1  0
  6 23  1  0
  8 24  1  0
  8 25  1  0
  8 26  1  0
  9 27  1  0
 11 28  1  0
 11 29  1  0
 15 30  1  0
 18 31  1  0
 18 32  1  0
 18 33  1  0
M  CHG  1   6   1
M  END
>  <UniqueID>  (27) 
24

>  <SMILES>  (27) 
COc1cc2[nH+]c(C)cc(CC#N)c2cc1OC

>  <Energy>  (27) 
35.32057318193954

>  <Genealogy>  (27) 
COc1cc2[nH+]c(C)cc(CC#N)c2cc1OC (protonated)
COc1cc2[nH+]c(C)cc(CC#N)c2cc1OC (3D coordinates assigned)
COc1cc2[nH+]c(C)cc(CC#N)c2cc1OC (optimized conformer: 35.32057318193954 kcal/mol)

>  <smiles>  (27) 
COc1cc2nc(C)cc(CC#N)c2cc1OC

>  <score_type>  (27) 
oracle

>  <origin>  (27) 
adg

>  <m_score__min__energy>  (27) 
-5.8099999999999996

>  <m_primary>  (27) 
energy

$$$$
27:0
     RDKit          3D

 26 28  0  0  0  0  0  0  0  0999 V2000
   -6.2980   26.0490  -29.3530 C   0  0  0  0  0  0  0  0  0  0  0  0
   -5.3640   25.0420  -29.9420 C   0  0  0  0  0  0  0  0  0  0  0  0
   -4.0350   25.2240  -30.0880 N   0  0  0  0  0  0  0  0  0  0  0  0
   -3.5180   24.2190  -30.7820 N   0  0  0  0  0  0  0  0  0  0  0  0
   -4.5350   23.3830  -31.0740 C   0  0  0  0  0  0  0  0  0  0  0  0
   -5.7080   23.8590  -30.5590 C   0  0  0  0  0  0  0  0  0  0  0  0
   -7.0470   23.2840  -30.9080 C   0  0  0  0  0  0  0  0  0  0  0  0
   -6.9200   21.7770  -31.2380 C   0  0  0  0  0  0  0  0  0  0  0  0
   -5.6790   21.4280  -32.0530 C   0  0  0  0  0  0  0  0  0  0  0  0
   -5.6700   20.2800  -32.8600 C   0  0  0  0  0  0  0  0  0  0  0  0
   -4.5050   19.9020  -33.5360 C   0  0  0  0  0  0  0  0  0  0  0  0
   -3.3360   20.6550  -33.4000 C   0  0  0  0  0  0  0  0  0  0  0  0
   -3.3230   21.7920  -32.5870 C   0  0  0  0  0  0  0  0  0  0  0  0
   -4.4880   22.1790  -31.9100 C   0  0  0  0  0  0  0  0  0  0  0  0
   -6.2492   25.9964  -28.2553 H   0  0  0  0  0  0  0  0  0  0  0  0
   -6.0076   27.0567  -29.6851 H   0  0  0  0  0  0  0  0  0  0  0  0
   -7.3246   25.8351  -29.6851 H   0  0  0  0  0  0  0  0  0  0  0  0
   -3.4840   26.0440  -29.7500 H   0  0  0  0  0  0  0  0  0  0  0  0
   -7.7294   23.4116  -30.0547 H   0  0  0  0  0  0  0  0  0  0  0  0
   -7.4411   23.8096  -31.7903 H   0  0  0  0  0  0  0  0  0  0  0  0
   -6.8826   21.2168  -30.2921 H   0  0  0  0  0  0  0  0  0  0  0  0
   -7.7924   21.5087  -31.8519 H   0  0  0  0  0  0  0  0  0  0  0  0
   -6.5829   19.6747  -32.9615 H   0  0  0  0  0  0  0  0  0  0  0  0
   -4.5093   19.0083  -34.1772 H   0  0  0  0  0  0  0  0  0  0  0  0
   -2.4233   20.3523  -33.9342 H   0  0  0  0  0  0  0  0  0  0  0  0
   -2.4008   22.3817  -32.4787 H   0  0  0  0  0  0  0  0  0  0  0  0
  1  2  1  0
  2  3  1  0
  3  4  1  0
  4  5  2  0
  5  6  1  0
  6  7  1  0
  7  8  1  0
  8  9  1  0
  9 10  2  0
 10 11  1  0
 11 12  2  0
 12 13  1  0
 13 14  2  0
  6  2  2  0
 14  9  1  0
 14  5  1  0
  1 15  1  0
  1 16  1  0
  1 17  1  0
  3 18  1  0
  7 19  1  0
  7 20  1  0
  8 21  1  0
  8 22  1  0
 10 23  1  0
 11 24  1  0
 12 25  1  0
 13 26  1  0
M  END
>  <UniqueID>  (28) 
25

>  <SMILES>  (28) 
Cc1[nH]nc2c1CCc1ccccc1-2

>  <Energy>  (28) 
62.78336441901876

>  <Genealogy>  (28) 
Cc1[nH]nc2c1CCc1ccccc1-2 (3D coordinates assigned)
Cc1[nH]nc2c1CCc1ccccc1-2 (nonaromatic ring conformer: 62.78336441901876 kcal/mol)

>  <smiles>  (28) 
Cc1[nH]nc2c1CCc1ccccc1-2

>  <score_type>  (28) 
oracle

>  <origin>  (28) 
adg

>  <m_score__min__energy>  (28) 
-7.2999999999999998

>  <m_primary>  (28) 
energy

$$$$
28:0
     RDKit          3D

 53 55  0  0  0  0  0  0  0  0999 V2000
   -6.9190   16.8540  -33.1340 C   0  0  0  0  0  0  0  0  0  0  0  0
   -7.9490   17.7290  -32.6860 O   0  0  0  0  0  0  0  0  0  0  0  0
   -7.7690   19.0960  -32.4320 C   0  0  0  0  0  0  0  0  0  0  0  0
   -8.6490   19.7330  -31.5460 C   0  0  0  0  0  0  0  0  0  0  0  0
   -8.4910   21.0890  -31.2410 C   0  0  0  0  0  0  0  0  0  0  0  0
   -7.4410   21.8300  -31.8110 C   0  0  0  0  0  0  0  0  0  0  0  0
   -7.2510   23.2990  -31.4820 C   0  0  2  0  0  0  0  0  0  0  0  0
   -5.9020   23.8270  -32.0050 C   0  0  0  0  0  0  0  0  0  0  0  0
   -4.7580   23.2480  -31.2940 N   0  0  0  0  0  0  0  0  0  0  0  0
   -3.8540   24.0400  -30.5110 C   0  0  0  0  0  0  0  0  0  0  0  0
   -3.7960   25.2870  -30.6810 O   0  0  0  0  0  0  0  0  0  0  0  0
   -3.0680   23.4170  -29.4240 C   0  0  0  0  0  0  0  0  0  0  0  0
   -2.9990   24.0920  -28.1930 C   0  0  0  0  0  0  0  0  0  0  0  0
   -2.3630   23.5060  -27.0960 C   0  0  0  0  0  0  0  0  0  0  0  0
   -1.7840   22.2420  -27.2140 C   0  0  0  0  0  0  0  0  0  0  0  0
   -1.8180   21.5690  -28.4400 C   0  0  0  0  0  0  0  0  0  0  0  0
   -2.4450   22.1460  -29.5570 C   0  0  0  0  0  0  0  0  0  0  0  0
   -2.3310   21.4810  -30.8300 N   0  0  0  0  0  0  0  0  0  0  0  0
   -1.1240   21.6510  -31.6520 C   0  0  0  0  0  0  0  0  0  0  0  0
   -1.4630   21.5050  -33.1420 C   0  0  0  0  0  0  0  0  0  0  0  0
   -2.2280   20.3370  -33.3770 O   0  0  0  0  0  0  0  0  0  0  0  0
   -3.4940   20.4870  -32.7610 C   0  0  0  0  0  0  0  0  0  0  0  0
   -3.3510   20.5040  -31.2300 C   0  0  0  0  0  0  0  0  0  0  0  0
   -7.2840   23.4820  -30.0750 O   0  0  0  0  0  0  0  0  0  0  0  0
   -6.8560   24.7820  -29.7300 C   0  0  0  0  0  0  0  0  0  0  0  0
   -6.5840   21.2010  -32.7320 C   0  0  0  0  0  0  0  0  0  0  0  0
   -6.7390   19.8450  -33.0340 C   0  0  0  0  0  0  0  0  0  0  0  0
   -6.4051   16.4174  -32.2650 H   0  0  0  0  0  0  0  0  0  0  0  0
   -7.3596   16.0498  -33.7416 H   0  0  0  0  0  0  0  0  0  0  0  0
   -6.1966   17.4188  -33.7416 H   0  0  0  0  0  0  0  0  0  0  0  0
   -9.4699   19.1623  -31.0872 H   0  0  0  0  0  0  0  0  0  0  0  0
   -9.1932   21.5789  -30.5504 H   0  0  0  0  0  0  0  0  0  0  0  0
   -8.0656   23.8549  -31.9691 H   0  0  0  0  0  0  0  0  0  0  0  0
   -5.8161   23.5782  -33.0730 H   0  0  0  0  0  0  0  0  0  0  0  0
   -5.8823   24.9144  -31.8398 H   0  0  0  0  0  0  0  0  0  0  0  0
   -4.7740   22.2150  -31.1460 H   0  0  0  0  0  0  0  0  0  0  0  0
   -3.4497   25.0904  -28.0926 H   0  0  0  0  0  0  0  0  0  0  0  0
   -2.3185   24.0424  -26.1367 H   0  0  0  0  0  0  0  0  0  0  0  0
   -1.3009   21.7748  -26.3432 H   0  0  0  0  0  0  0  0  0  0  0  0
   -1.3491   20.5781  -28.5303 H   0  0  0  0  0  0  0  0  0  0  0  0
   -0.7021   22.6510  -31.4731 H   0  0  0  0  0  0  0  0  0  0  0  0
   -0.3936   20.8762  -31.3759 H   0  0  0  0  0  0  0  0  0  0  0  0
   -2.0391   22.3837  -33.4675 H   0  0  0  0  0  0  0  0  0  0  0  0
   -0.5235   21.4281  -33.7089 H   0  0  0  0  0  0  0  0  0  0  0  0
   -3.9478   21.4326  -33.0924 H   0  0  0  0  0  0  0  0  0  0  0  0
   -4.1317   19.6382  -33.0487 H   0  0  0  0  0  0  0  0  0  0  0  0
   -4.3153   20.7786  -30.7775 H   0  0  0  0  0  0  0  0  0  0  0  0
   -3.0473   19.5045  -30.8854 H   0  0  0  0  0  0  0  0  0  0  0  0
   -6.8241   24.8789  -28.6347 H   0  0  0  0  0  0  0  0  0  0  0  0
   -5.8521   24.9592  -30.1432 H   0  0  0  0  0  0  0  0  0  0  0  0
   -7.5583   25.5210  -30.1432 H   0  0  0  0  0  0  0  0  0  0  0  0
   -5.7856   21.7806  -33.2184 H   0  0  0  0  0  0  0  0  0  0  0  0
   -6.0535   19.3606  -33.7450 H   0  0  0  0  0  0  0  0  0  0  0  0
  1  2  1  0
  2  3  1  0
  3  4  2  0
  4  5  1  0
  5  6  2  0
  6  7  1  0
  7  8  1  0
  8  9  1  0
  9 10  1  0
 10 11  2  0
 10 12  1  0
 12 13  2  0
 13 14  1  0
 14 15  2  0
 15 16  1  0
 16 17  2  0
 17 18  1  0
 18 19  1  0
 19 20  1  0
 20 21  1  0
 21 22  1  0
 22 23  1  0
  7 24  1  0
 24 25  1  0
  6 26  1  0
 26 27  2  0
 27  3  1  0
 17 12  1  0
 23 18  1  0
  1 28  1  0
  1 29  1  0
  1 30  1  0
  4 31  1  0
  5 32  1  0
  7 33  1  6
  8 34  1  0
  8 35  1  0
  9 36  1  0
 13 37  1  0
 14 38  1  0
 15 39  1  0
 16 40  1  0
 19 41  1  0
 19 42  1  0
 20 43  1  0
 20 44  1  0
 22 45  1  0
 22 46  1  0
 23 47  1  0
 23 48  1  0
 25 49  1  0
 25 50  1  0
 25 51  1  0
 26 52  1  0
 27 53  1  0
M  END
>  <UniqueID>  (29) 
26

>  <SMILES>  (29) 
COc1ccc([C@H](CNC(=O)c2ccccc2N2CCOCC2)OC)cc1

>  <Energy>  (29) 
62.21235690462515

>  <Genealogy>  (29) 
COc1ccc([C@H](CNC(=O)c2ccccc2N2CCOCC2)OC)cc1 (chirality)
COc1ccc([C@H](CNC(=O)c2ccccc2N2CCOCC2)OC)cc1 (3D coordinates assigned)
COc1ccc([C@H](CNC(=O)c2ccccc2N2CCOCC2)OC)cc1 (nonaromatic ring conformer: 62.21235690462515 kcal/mol)

>  <smiles>  (29) 
COc1ccc(C(CNC(=O)c2ccccc2N2CCOCC2)OC)cc1

>  <score_type>  (29) 
oracle

>  <origin>  (29) 
adg

>  <m_score__min__energy>  (29) 
-8.5099999999999998

>  <m_primary>  (29) 
energy

$$$$
29:0
     RDKit          3D

 47 49  0  0  1  0  0  0  0  0999 V2000
   -9.1060   19.8320  -32.3760 C   0  0  0  0  0  0  0  0  0  0  0  0
   -8.3650   18.6210  -31.8670 C   0  0  0  0  0  0  0  0  0  0  0  0
   -7.5950   17.9030  -32.9620 C   0  0  0  0  0  0  0  0  0  0  0  0
   -6.2640   18.5910  -33.1190 C   0  0  0  0  0  0  0  0  0  0  0  0
   -5.3920   18.4750  -34.1260 N   0  0  0  0  0  0  0  0  0  0  0  0
   -4.3480   19.2680  -33.8450 N   0  0  0  0  0  0  0  0  0  0  0  0
   -4.5510   19.8820  -32.6750 C   0  0  0  0  0  0  0  0  0  0  0  0
   -3.6370   20.8420  -32.0030 C   0  0  2  0  0  0  0  0  0  0  0  0
   -3.8280   20.6850  -30.5130 C   0  0  0  0  0  0  0  0  0  0  0  0
   -2.7940   21.4390  -29.7160 C   0  0  0  0  0  0  0  0  0  0  0  0
   -2.4930   22.7320  -30.4030 C   0  0  0  0  0  0  0  0  0  0  0  0
   -3.6680   23.0810  -31.2020 N   0  0  0  0  0  0  0  0  0  0  0  0
   -4.4520   24.1660  -30.7710 C   0  0  0  0  0  0  0  0  0  0  0  0
   -3.8910   25.3040  -30.7440 O   0  0  0  0  0  0  0  0  0  0  0  0
   -5.8610   24.1060  -30.3520 C   0  0  0  0  0  0  0  0  0  0  0  0
   -6.2040   22.7780  -29.7050 C   0  0  0  0  0  0  0  0  0  0  0  0
   -7.2570   22.1220  -30.5720 C   0  0  0  0  0  0  0  0  0  0  0  0
   -6.8790   22.6640  -31.9290 C   0  0  0  0  0  0  0  0  0  0  0  0
   -6.7580   24.1560  -31.5940 C   0  0  0  0  0  0  0  0  0  0  0  0
   -3.9040   22.2810  -32.3800 C   0  0  0  0  0  0  0  0  0  0  0  0
   -5.7650   19.4410  -32.2340 N   0  0  0  0  0  0  0  0  0  0  0  0
   -9.4688   20.4250  -31.5235 H   0  0  0  0  0  0  0  0  0  0  0  0
   -8.4287   20.4459  -32.9879 H   0  0  0  0  0  0  0  0  0  0  0  0
   -9.9609   19.5084  -32.9879 H   0  0  0  0  0  0  0  0  0  0  0  0
   -7.6553   18.9430  -31.0907 H   0  0  0  0  0  0  0  0  0  0  0  0
   -9.1111   17.9175  -31.4689 H   0  0  0  0  0  0  0  0  0  0  0  0
   -7.4410   16.8504  -32.6821 H   0  0  0  0  0  0  0  0  0  0  0  0
   -8.1559   17.9329  -33.9078 H   0  0  0  0  0  0  0  0  0  0  0  0
   -3.5430   19.3360  -34.4980 H   0  0  0  0  0  0  0  0  0  0  0  0
   -2.6089   20.6156  -32.3220 H   0  0  0  0  0  0  0  0  0  0  0  0
   -4.8254   21.0625  -30.2435 H   0  0  0  0  0  0  0  0  0  0  0  0
   -3.7215   19.6168  -30.2730 H   0  0  0  0  0  0  0  0  0  0  0  0
   -3.1819   21.6400  -28.7065 H   0  0  0  0  0  0  0  0  0  0  0  0
   -1.8757   20.8383  -29.6387 H   0  0  0  0  0  0  0  0  0  0  0  0
   -2.2966   23.5176  -29.6585 H   0  0  0  0  0  0  0  0  0  0  0  0
   -1.6014   22.6373  -31.0403 H   0  0  0  0  0  0  0  0  0  0  0  0
   -6.0137   24.9429  -29.6547 H   0  0  0  0  0  0  0  0  0  0  0  0
   -5.3085   22.1414  -29.6515 H   0  0  0  0  0  0  0  0  0  0  0  0
   -6.5754   22.9251  -28.6801 H   0  0  0  0  0  0  0  0  0  0  0  0
   -7.1836   21.0250  -30.5388 H   0  0  0  0  0  0  0  0  0  0  0  0
   -8.2935   22.3316  -30.2690 H   0  0  0  0  0  0  0  0  0  0  0  0
   -5.9254   22.2465  -32.2844 H   0  0  0  0  0  0  0  0  0  0  0  0
   -7.5864   22.4259  -32.7371 H   0  0  0  0  0  0  0  0  0  0  0  0
   -6.2832   24.7165  -32.4128 H   0  0  0  0  0  0  0  0  0  0  0  0
   -7.7206   24.6648  -31.4375 H   0  0  0  0  0  0  0  0  0  0  0  0
   -4.9464   22.3966  -32.7116 H   0  0  0  0  0  0  0  0  0  0  0  0
   -3.2483   22.5970  -33.2047 H   0  0  0  0  0  0  0  0  0  0  0  0
  1  2  1  0
  2  3  1  0
  3  4  1  0
  4  5  2  0
  5  6  1  0
  6  7  1  0
  7  8  1  0
  8  9  1  0
  9 10  1  0
 10 11  1  0
 11 12  1  0
 12 13  1  0
 13 14  2  0
 13 15  1  0
 15 16  1  0
 16 17  1  0
 17 18  1  0
 18 19  1  0
 12 20  1  0
  7 21  2  0
 21  4  1  0
 20  8  1  0
 19 15  1  0
  1 22  1  0
  1 23  1  0
  1 24  1  0
  2 25  1  0
  2 26  1  0
  3 27  1  0
  3 28  1  0
  6 29  1  0
  8 30  1  1
  9 31  1  0
  9 32  1  0
 10 33  1  0
 10 34  1  0
 11 35  1  0
 11 36  1  0
 15 37  1  0
 16 38  1  0
 16 39  1  0
 17 40  1  0
 17 41  1  0
 18 42  1  0
 18 43  1  0
 19 44  1  0
 19 45  1  0
 20 46  1  0
 20 47  1  0
M  END
>  <smiles>  (30) 
CCCc1n[nH]c(C2CCCN(C(=O)C3CCCC3)C2)n1

>  <score_type>  (30) 
oracle

>  <origin>  (30) 
adg

>  <m_score__min__energy>  (30) 
-8.5399999999999991

>  <m_primary>  (30) 
energy

$$$$
30:0
     RDKit          3D

 28 27  0  0  0  0  0  0  0  0999 V2000
   -5.6520   25.1160  -30.5370 C   0  0  0  0  0  0  0  0  0  0  0  0
   -5.3570   24.1240  -31.5870 N   0  0  0  0  0  0  0  0  0  0  0  0
   -4.4770   23.0790  -31.0380 C   0  0  0  0  0  0  0  0  0  0  0  0
   -6.6000   23.5180  -32.1150 C   0  0  0  0  0  0  0  0  0  0  0  0
   -6.4510   22.0010  -32.3160 C   0  0  0  0  0  0  0  0  0  0  0  0
   -7.8140   21.2820  -32.3070 C   0  0  0  0  0  0  0  0  0  0  0  0
   -7.7780   19.9870  -33.0290 N   0  0  0  0  0  0  0  0  0  0  0  0
   -8.3180   18.9200  -32.1690 C   0  0  0  0  0  0  0  0  0  0  0  0
   -6.4080   19.6360  -33.4500 C   0  0  0  0  0  0  0  0  0  0  0  0
   -5.5148   24.6547  -29.5478 H   0  0  0  0  0  0  0  0  0  0  0  0
   -4.9698   25.9727  -30.6399 H   0  0  0  0  0  0  0  0  0  0  0  0
   -6.6915   25.4607  -30.6399 H   0  0  0  0  0  0  0  0  0  0  0  0
   -4.5069   23.1146  -29.9390 H   0  0  0  0  0  0  0  0  0  0  0  0
   -4.8203   22.0923  -31.3824 H   0  0  0  0  0  0  0  0  0  0  0  0
   -3.4463   23.2494  -31.3824 H   0  0  0  0  0  0  0  0  0  0  0  0
   -7.4180   23.7049  -31.4037 H   0  0  0  0  0  0  0  0  0  0  0  0
   -6.8162   23.9742  -33.0923 H   0  0  0  0  0  0  0  0  0  0  0  0
   -5.9587   21.8173  -33.2824 H   0  0  0  0  0  0  0  0  0  0  0  0
   -5.8517   21.6046  -31.4831 H   0  0  0  0  0  0  0  0  0  0  0  0
   -8.1078   21.0960  -31.2634 H   0  0  0  0  0  0  0  0  0  0  0  0
   -8.5377   21.9313  -32.8214 H   0  0  0  0  0  0  0  0  0  0  0  0
   -8.3850   20.0460  -33.8810 H   0  0  0  0  0  0  0  0  0  0  0  0
   -8.1790   19.1947  -31.1129 H   0  0  0  0  0  0  0  0  0  0  0  0
   -9.3905   18.7898  -32.3759 H   0  0  0  0  0  0  0  0  0  0  0  0
   -7.7878   17.9787  -32.3759 H   0  0  0  0  0  0  0  0  0  0  0  0
   -5.7809   19.4753  -32.5606 H   0  0  0  0  0  0  0  0  0  0  0  0
   -6.4338   18.7155  -34.0516 H   0  0  0  0  0  0  0  0  0  0  0  0
   -5.9880   20.4555  -34.0516 H   0  0  0  0  0  0  0  0  0  0  0  0
  1  2  1  0
  2  3  1  0
  2  4  1  0
  4  5  1  0
  5  6  1  0
  6  7  1  0
  7  8  1  0
  7  9  1  0
  1 10  1  0
  1 11  1  0
  1 12  1  0
  3 13  1  0
  3 14  1  0
  3 15  1  0
  4 16  1  0
  4 17  1  0
  5 18  1  0
  5 19  1  0
  6 20  1  0
  6 21  1  0
  7 22  1  0
  8 23  1  0
  8 24  1  0
  8 25  1  0
  9 26  1  0
  9 27  1  0
  9 28  1  0
M  CHG  1   7   1
M  END
>  <UniqueID>  (31) 
27

>  <SMILES>  (31) 
CN(C)CCC[NH+](C)C

>  <Energy>  (31) 
21.38039475343266

>  <Genealogy>  (31) 
CN(C)CCC[NH+](C)C (protonated)
CN(C)CCC[NH+](C)C (3D coordinates assigned)
CN(C)CCC[NH+](C)C (optimized conformer: 21.38039475343266 kcal/mol)

>  <smiles>  (31) 
CN(C)CCCN(C)C

>  <score_type>  (31) 
oracle

>  <origin>  (31) 
adg

>  <m_score__min__energy>  (31) 
-3.21

>  <m_primary>  (31) 
energy

$$$$
31:0
     RDKit          3D

 28 29  0  0  0  0  0  0  0  0999 V2000
   -3.7620   24.4860  -27.0820 C   0  0  0  0  0  0  0  0  0  0  0  0
   -2.4920   24.7150  -27.4250 C   0  0  0  0  0  0  0  0  0  0  0  0
   -2.0610   24.7380  -28.8640 C   0  0  0  0  0  0  0  0  0  0  0  0
   -3.1130   25.2160  -29.7030 O   0  0  0  0  0  0  0  0  0  0  0  0
   -4.2080   24.4550  -30.1440 C   0  0  0  0  0  0  0  0  0  0  0  0
   -5.5280   24.9420  -30.1310 C   0  0  0  0  0  0  0  0  0  0  0  0
   -6.5810   24.1410  -30.5820 C   0  0  0  0  0  0  0  0  0  0  0  0
   -6.3380   22.8380  -31.0560 C   0  0  0  0  0  0  0  0  0  0  0  0
   -7.4250   22.0120  -31.5210 N   0  0  0  0  0  0  0  0  0  0  0  0
   -7.3190   20.8140  -32.1360 C   0  0  0  0  0  0  0  0  0  0  0  0
   -8.5740   20.3250  -32.4340 C   0  0  0  0  0  0  0  0  0  0  0  0
   -9.4810   21.2630  -31.9830 C   0  0  0  0  0  0  0  0  0  0  0  0
   -8.7430   22.2870  -31.4260 C   0  0  0  0  0  0  0  0  0  0  0  0
   -5.0170   22.3590  -31.0690 C   0  0  0  0  0  0  0  0  0  0  0  0
   -3.9650   23.1610  -30.6180 C   0  0  0  0  0  0  0  0  0  0  0  0
   -4.0516   24.4744  -26.0209 H   0  0  0  0  0  0  0  0  0  0  0  0
   -4.5186   24.3089  -27.8606 H   0  0  0  0  0  0  0  0  0  0  0  0
   -1.7451   24.8906  -26.6368 H   0  0  0  0  0  0  0  0  0  0  0  0
   -1.1884   25.3996  -28.9681 H   0  0  0  0  0  0  0  0  0  0  0  0
   -1.8047   23.7132  -29.1707 H   0  0  0  0  0  0  0  0  0  0  0  0
   -5.7324   25.9586  -29.7639 H   0  0  0  0  0  0  0  0  0  0  0  0
   -7.6089   24.5324  -30.5664 H   0  0  0  0  0  0  0  0  0  0  0  0
   -6.3719   20.3037  -32.3653 H   0  0  0  0  0  0  0  0  0  0  0  0
   -8.8067   19.3731  -32.9337 H   0  0  0  0  0  0  0  0  0  0  0  0
  -10.5772   21.2053  -32.0539 H   0  0  0  0  0  0  0  0  0  0  0  0
   -9.1666   23.1945  -30.9711 H   0  0  0  0  0  0  0  0  0  0  0  0
   -4.8090   21.3436  -31.4375 H   0  0  0  0  0  0  0  0  0  0  0  0
   -2.9365   22.7714  -30.6358 H   0  0  0  0  0  0  0  0  0  0  0  0
  1  2  2  0
  2  3  1  0
  3  4  1  0
  4  5  1  0
  5  6  2  0
  6  7  1  0
  7  8  2  0
  8  9  1  0
  9 10  1  0
 10 11  2  0
 11 12  1  0
 12 13  2  0
  8 14  1  0
 14 15  2  0
 15  5  1  0
 13  9  1  0
  1 16  1  0
  1 17  1  0
  2 18  1  0
  3 19  1  0
  3 20  1  0
  6 21  1  0
  7 22  1  0
 10 23  1  0
 11 24  1  0
 12 25  1  0
 13 26  1  0
 14 27  1  0
 15 28  1  0
M  END
>  <UniqueID>  (32) 
28

>  <SMILES>  (32) 
C=CCOc1ccc(-n2cccc2)cc1

>  <Energy>  (32) 
54.63049642009395

>  <Genealogy>  (32) 
C=CCOc1ccc(-n2cccc2)cc1 (3D coordinates assigned)
C=CCOc1ccc(-n2cccc2)cc1 (optimized conformer: 54.63049642009395 kcal/mol)

>  <smiles>  (32) 
C=CCOc1ccc(-n2cccc2)cc1

>  <score_type>  (32) 
oracle

>  <origin>  (32) 
adg

>  <m_score__min__energy>  (32) 
-6.2400000000000002

>  <m_primary>  (32) 
energy

$$$$
32:0
     RDKit          3D

 49 53  0  0  0  0  0  0  0  0999 V2000
   -0.7840   27.5420  -24.4310 C   0  0  0  0  0  0  0  0  0  0  0  0
   -0.8380   26.4910  -25.4880 C   0  0  0  0  0  0  0  0  0  0  0  0
   -1.9800   26.0180  -26.0950 C   0  0  0  0  0  0  0  0  0  0  0  0
   -1.6080   25.1410  -27.0450 N   0  0  0  0  0  0  0  0  0  0  0  0
   -2.4960   24.4190  -27.9170 C   0  0  0  0  0  0  0  0  0  0  0  0
   -3.4670   23.5510  -27.3940 C   0  0  0  0  0  0  0  0  0  0  0  0
   -4.3150   22.8420  -28.2490 C   0  0  0  0  0  0  0  0  0  0  0  0
   -4.1880   22.9680  -29.6420 C   0  0  0  0  0  0  0  0  0  0  0  0
   -5.0830   22.2290  -30.5590 C   0  0  0  0  0  0  0  0  0  0  0  0
   -6.4270   22.3890  -30.4120 N   0  0  0  0  0  0  0  0  0  0  0  0
   -7.3180   21.6960  -31.1640 C   0  0  0  0  0  0  0  0  0  0  0  0
   -8.6940   21.8750  -30.9880 C   0  0  0  0  0  0  0  0  0  0  0  0
   -9.5970   21.1390  -31.7640 C   0  0  0  0  0  0  0  0  0  0  0  0
   -9.1260   20.2260  -32.7140 C   0  0  0  0  0  0  0  0  0  0  0  0
   -7.7500   20.0440  -32.8940 C   0  0  0  0  0  0  0  0  0  0  0  0
   -6.8450   20.7780  -32.1200 C   0  0  0  0  0  0  0  0  0  0  0  0
   -5.5070   20.6260  -32.2870 N   0  0  0  0  0  0  0  0  0  0  0  0
   -4.6050   21.3310  -31.5500 C   0  0  0  0  0  0  0  0  0  0  0  0
   -3.1670   21.1570  -31.8560 C   0  0  0  0  0  0  0  0  0  0  0  0
   -2.2810   20.7560  -30.8440 C   0  0  0  0  0  0  0  0  0  0  0  0
   -0.9220   20.5780  -31.1250 C   0  0  0  0  0  0  0  0  0  0  0  0
   -0.4410   20.7850  -32.4200 C   0  0  0  0  0  0  0  0  0  0  0  0
   -1.3190   21.1630  -33.4390 C   0  0  0  0  0  0  0  0  0  0  0  0
   -2.6780   21.3400  -33.1640 C   0  0  0  0  0  0  0  0  0  0  0  0
   -3.2210   23.8420  -30.1650 C   0  0  0  0  0  0  0  0  0  0  0  0
   -2.3740   24.5510  -29.3100 C   0  0  0  0  0  0  0  0  0  0  0  0
   -0.2550   25.0980  -26.9850 C   0  0  0  0  0  0  0  0  0  0  0  0
    0.6160   24.2310  -27.8390 C   0  0  0  0  0  0  0  0  0  0  0  0
    0.2510   25.9300  -26.0490 N   0  0  0  0  0  0  0  0  0  0  0  0
   -0.8084   27.0664  -23.4394 H   0  0  0  0  0  0  0  0  0  0  0  0
    0.1451   28.1213  -24.5370 H   0  0  0  0  0  0  0  0  0  0  0  0
   -1.6488   28.2134  -24.5370 H   0  0  0  0  0  0  0  0  0  0  0  0
   -3.0124   26.3059  -25.8473 H   0  0  0  0  0  0  0  0  0  0  0  0
   -3.5610   23.4281  -26.3049 H   0  0  0  0  0  0  0  0  0  0  0  0
   -5.0870   22.1809  -27.8283 H   0  0  0  0  0  0  0  0  0  0  0  0
   -9.0656   22.5924  -30.2416 H   0  0  0  0  0  0  0  0  0  0  0  0
  -10.6794   21.2787  -31.6267 H   0  0  0  0  0  0  0  0  0  0  0  0
   -9.8394   19.6495  -33.3212 H   0  0  0  0  0  0  0  0  0  0  0  0
   -7.3814   19.3262  -33.6416 H   0  0  0  0  0  0  0  0  0  0  0  0
   -2.6568   20.5808  -29.8251 H   0  0  0  0  0  0  0  0  0  0  0  0
   -0.2311   20.2745  -30.3247 H   0  0  0  0  0  0  0  0  0  0  0  0
    0.6289   20.6504  -32.6375 H   0  0  0  0  0  0  0  0  0  0  0  0
   -0.9401   21.3216  -34.4594 H   0  0  0  0  0  0  0  0  0  0  0  0
   -3.3682   21.6233  -33.9723 H   0  0  0  0  0  0  0  0  0  0  0  0
   -3.1301   23.9689  -31.2539 H   0  0  0  0  0  0  0  0  0  0  0  0
   -1.6063   25.2172  -29.7305 H   0  0  0  0  0  0  0  0  0  0  0  0
    1.2488   23.6011  -27.1966 H   0  0  0  0  0  0  0  0  0  0  0  0
   -0.0139   23.5908  -28.4741 H   0  0  0  0  0  0  0  0  0  0  0  0
    1.2533   24.8639  -28.4741 H   0  0  0  0  0  0  0  0  0  0  0  0
  1  2  1  0
  2  3  2  0
  3  4  1  0
  4  5  1  0
  5  6  2  0
  6  7  1  0
  7  8  2  0
  8  9  1  0
  9 10  2  0
 10 11  1  0
 11 12  2  0
 12 13  1  0
 13 14  2  0
 14 15  1  0
 15 16  2  0
 16 17  1  0
 17 18  2  0
 18 19  1  0
 19 20  2  0
 20 21  1  0
 21 22  2  0
 22 23  1  0
 23 24  2  0
  8 25  1  0
 25 26  2  0
  4 27  1  0
 27 28  1  0
 27 29  2  0
 29  2  1  0
 26  5  1  0
 18  9  1  0
 24 19  1  0
 16 11  1  0
  1 30  1  0
  1 31  1  0
  1 32  1  0
  3 33  1  0
  6 34  1  0
  7 35  1  0
 12 36  1  0
 13 37  1  0
 14 38  1  0
 15 39  1  0
 20 40  1  0
 21 41  1  0
 22 42  1  0
 23 43  1  0
 24 44  1  0
 25 45  1  0
 26 46  1  0
 28 47  1  0
 28 48  1  0
 28 49  1  0
M  END
>  <UniqueID>  (33) 
29

>  <SMILES>  (33) 
Cc1cn(-c2ccc(-c3nc4ccccc4nc3-c3ccccc3)cc2)c(C)n1

>  <Energy>  (33) 
102.91330405832744

>  <Genealogy>  (33) 
Cc1cn(-c2ccc(-c3nc4ccccc4nc3-c3ccccc3)cc2)c(C)n1 (3D coordinates assigned)
Cc1cn(-c2ccc(-c3nc4ccccc4nc3-c3ccccc3)cc2)c(C)n1 (optimized conformer: 102.91330405832744 kcal/mol)

>  <smiles>  (33) 
Cc1cn(-c2ccc(-c3nc4ccccc4nc3-c3ccccc3)cc2)c(C)n1

>  <score_type>  (33) 
oracle

>  <origin>  (33) 
adg

>  <m_score__min__energy>  (33) 
-8.5700000000000003

>  <m_primary>  (33) 
energy

$$$$
33:0
     RDKit          3D

 31 33  0  0  0  0  0  0  0  0999 V2000
   -8.6567   22.6400  -29.5111 H   0  0  0  0  0  0  0  0  0  0  0  0
   -8.0970   22.4110  -30.4300 C   0  0  0  0  0  0  0  0  0  0  0  0
   -8.6950   21.6180  -31.3330 C   0  0  0  0  0  0  0  0  0  0  0  0
   -9.7296   21.8631  -31.6149 H   0  0  0  0  0  0  0  0  0  0  0  0
   -8.0750   20.4420  -31.9790 C   0  0  0  0  0  0  0  0  0  0  0  0
   -8.5370   19.1250  -31.7090 C   0  0  0  0  0  0  0  0  0  0  0  0
   -9.3872   18.9756  -31.0272 H   0  0  0  0  0  0  0  0  0  0  0  0
   -7.9190   18.0120  -32.3040 C   0  0  0  0  0  0  0  0  0  0  0  0
   -8.2784   16.9902  -32.1123 H   0  0  0  0  0  0  0  0  0  0  0  0
   -6.8340   18.2500  -33.1460 C   0  0  0  0  0  0  0  0  0  0  0  0
   -6.3650   19.5070  -33.3860 C   0  0  0  0  0  0  0  0  0  0  0  0
   -5.2960   19.4650  -34.2050 N   0  0  0  0  0  0  0  0  0  0  0  0
   -5.1470   18.1360  -34.4470 C   0  0  0  0  0  0  0  0  0  0  0  0
   -4.3541   17.7220  -35.0873 H   0  0  0  0  0  0  0  0  0  0  0  0
   -6.0750   17.3720  -33.8190 N   0  0  0  0  0  0  0  0  0  0  0  0
   -6.1710   15.9170  -33.8210 C   0  0  0  0  0  0  0  0  0  0  0  0
   -6.1952   15.5497  -32.7844 H   0  0  0  0  0  0  0  0  0  0  0  0
   -7.0913   15.6110  -34.3400 H   0  0  0  0  0  0  0  0  0  0  0  0
   -5.2989   15.4927  -34.3400 H   0  0  0  0  0  0  0  0  0  0  0  0
   -6.9520   20.6330  -32.8130 C   0  0  0  0  0  0  0  0  0  0  0  0
   -6.5528   21.6400  -33.0045 H   0  0  0  0  0  0  0  0  0  0  0  0
   -6.7520   23.0010  -30.5670 C   0  0  0  0  0  0  0  0  0  0  0  0
   -6.4670   24.6540  -30.7230 S   0  0  0  0  0  0  0  0  0  0  0  0
   -4.7930   24.5260  -30.7050 C   0  0  0  0  0  0  0  0  0  0  0  0
   -3.8890   25.6240  -30.8050 N   0  0  0  0  0  0  0  0  0  0  0  0
   -3.2020   25.6690  -31.5890 H   0  0  0  0  0  0  0  0  0  0  0  0
   -3.9040   26.3890  -30.0950 H   0  0  0  0  0  0  0  0  0  0  0  0
   -4.4250   23.1980  -30.5530 C   0  0  0  0  0  0  0  0  0  0  0  0
   -3.3805   22.8559  -30.5087 H   0  0  0  0  0  0  0  0  0  0  0  0
   -5.5270   22.3400  -30.4620 C   0  0  0  0  0  0  0  0  0  0  0  0
   -5.4368   21.2527  -30.3217 H   0  0  0  0  0  0  0  0  0  0  0  0
  1  2  1  0
  2  3  2  0
  3  4  1  0
  3  5  1  0
  5  6  2  0
  6  7  1  0
  6  8  1  0
  8  9  1  0
  8 10  2  0
 10 11  1  0
 11 12  1  0
 12 13  2  0
 13 14  1  0
 13 15  1  0
 15 16  1  0
 16 17  1  0
 16 18  1  0
 16 19  1  0
 11 20  2  0
 20 21  1  0
  2 22  1  0
 22 23  1  0
 23 24  1  0
 24 25  1  0
 25 26  1  0
 25 27  1  0
 24 28  2  0
 28 29  1  0
 28 30  1  0
 30 31  1  0
 20  5  1  0
 30 22  2  0
 15 10  1  0
M  END
>  <UniqueID>  (34) 
30

>  <SMILES>  (34) 
Cn1cnc2cc(/C=C\c3ccc(N)s3)ccc21

>  <Energy>  (34) 
103.44214667754017

>  <Genealogy>  (34) 
Cn1cnc2cc(/C=C\c3ccc(N)s3)ccc21 (cis-trans isomerization)
Cn1cnc2cc(/C=C\c3ccc(N)s3)ccc21 (3D coordinates assigned)
Cn1cnc2cc(/C=C\c3ccc(N)s3)ccc21 (optimized conformer: 103.44214667754017 kcal/mol)

>  <smiles>  (34) 
Cn1cnc2cc(C=Cc3ccc(N)s3)ccc21

>  <score_type>  (34) 
oracle

>  <origin>  (34) 
adg

>  <m_score__min__energy>  (34) 
-8.5299999999999994

>  <m_primary>  (34) 
energy

$$$$
34:0
     RDKit          3D

 55 59  0  0  0  0  0  0  0  0999 V2000
   -9.7990   21.2770  -31.6090 C   0  0  0  0  0  0  0  0  0  0  0  0
   -8.4340   20.7740  -31.9710 C   0  0  0  0  0  0  0  0  0  0  0  0
   -8.2910   19.5710  -32.6970 C   0  0  0  0  0  0  0  0  0  0  0  0
   -7.0090   19.1310  -33.0770 C   0  0  0  0  0  0  0  0  0  0  0  0
   -6.8230   17.8520  -33.8400 C   0  0  0  0  0  0  0  0  0  0  0  0
   -5.9380   19.8900  -32.7180 N   0  0  0  0  0  0  0  0  0  0  0  0
   -4.6700   19.6420  -33.0010 N   0  0  0  0  0  0  0  0  0  0  0  0
   -3.9380   20.6510  -32.4770 C   0  0  0  0  0  0  0  0  0  0  0  0
   -2.4660   20.6850  -32.5600 C   0  0  0  0  0  0  0  0  0  0  0  0
   -1.8010   20.8450  -33.7880 C   0  0  0  0  0  0  0  0  0  0  0  0
   -0.4060   20.8630  -33.8160 C   0  0  0  0  0  0  0  0  0  0  0  0
    0.3140   20.7470  -32.6260 C   0  0  0  0  0  0  0  0  0  0  0  0
   -0.3770   20.6220  -31.4190 C   0  0  0  0  0  0  0  0  0  0  0  0
   -1.7360   20.5980  -31.4130 N   0  0  0  0  0  0  0  0  0  0  0  0
   -4.7870   21.5780  -31.8530 C   0  0  0  0  0  0  0  0  0  0  0  0
   -4.4470   22.8790  -31.2410 C   0  0  0  0  0  0  0  0  0  0  0  0
   -3.2920   23.0280  -30.4650 C   0  0  0  0  0  0  0  0  0  0  0  0
   -3.0360   24.2650  -29.8520 C   0  0  0  0  0  0  0  0  0  0  0  0
   -1.8980   24.4490  -28.9760 N   0  0  0  0  0  0  0  0  0  0  0  0
   -0.6170   23.7820  -29.2510 C   0  0  0  0  0  0  0  0  0  0  0  0
    0.2950   23.7990  -28.0130 C   0  0  0  0  0  0  0  0  0  0  0  0
   -0.4640   23.5310  -26.7730 N   0  0  0  0  0  0  0  0  0  0  0  0
   -0.9430   22.1390  -26.7160 C   0  0  0  0  0  0  0  0  0  0  0  0
   -1.5610   24.5040  -26.5270 C   0  0  0  0  0  0  0  0  0  0  0  0
   -1.9920   25.2940  -27.7780 C   0  0  0  0  0  0  0  0  0  0  0  0
   -3.8990   25.2950  -30.0740 N   0  0  0  0  0  0  0  0  0  0  0  0
   -4.9940   25.1470  -30.8620 C   0  0  0  0  0  0  0  0  0  0  0  0
   -5.2660   23.9460  -31.4310 N   0  0  0  0  0  0  0  0  0  0  0  0
   -6.0470   21.0390  -32.0280 C   0  0  0  0  0  0  0  0  0  0  0  0
   -7.2940   21.5350  -31.6470 C   0  0  0  0  0  0  0  0  0  0  0  0
   -9.8979   21.3134  -30.5141 H   0  0  0  0  0  0  0  0  0  0  0  0
   -9.9398   22.2861  -32.0237 H   0  0  0  0  0  0  0  0  0  0  0  0
  -10.5609   20.6006  -32.0237 H   0  0  0  0  0  0  0  0  0  0  0  0
   -9.1790   18.9795  -32.9647 H   0  0  0  0  0  0  0  0  0  0  0  0
   -6.7017   17.0178  -33.1333 H   0  0  0  0  0  0  0  0  0  0  0  0
   -7.7043   17.6712  -34.4729 H   0  0  0  0  0  0  0  0  0  0  0  0
   -5.9267   17.9297  -34.4729 H   0  0  0  0  0  0  0  0  0  0  0  0
   -2.3757   20.9551  -34.7195 H   0  0  0  0  0  0  0  0  0  0  0  0
    0.1249   20.9684  -34.7736 H   0  0  0  0  0  0  0  0  0  0  0  0
    1.4139   20.7540  -32.6388 H   0  0  0  0  0  0  0  0  0  0  0  0
    0.1786   20.5429  -30.4729 H   0  0  0  0  0  0  0  0  0  0  0  0
   -2.5941   22.1874  -30.3370 H   0  0  0  0  0  0  0  0  0  0  0  0
   -0.8105   22.7384  -29.5400 H   0  0  0  0  0  0  0  0  0  0  0  0
   -0.1105   24.3218  -30.0646 H   0  0  0  0  0  0  0  0  0  0  0  0
    1.0704   23.0277  -28.1305 H   0  0  0  0  0  0  0  0  0  0  0  0
    0.7447   24.7996  -27.9312 H   0  0  0  0  0  0  0  0  0  0  0  0
   -1.0492   21.8305  -25.6655 H   0  0  0  0  0  0  0  0  0  0  0  0
   -1.9180   22.0658  -27.2200 H   0  0  0  0  0  0  0  0  0  0  0  0
   -0.2195   21.4813  -27.2200 H   0  0  0  0  0  0  0  0  0  0  0  0
   -2.4342   23.9521  -26.1489 H   0  0  0  0  0  0  0  0  0  0  0  0
   -1.1777   25.2388  -25.8037 H   0  0  0  0  0  0  0  0  0  0  0  0
   -3.0316   25.6312  -27.6532 H   0  0  0  0  0  0  0  0  0  0  0  0
   -1.3252   26.1603  -27.8997 H   0  0  0  0  0  0  0  0  0  0  0  0
   -5.6622   26.0025  -31.0396 H   0  0  0  0  0  0  0  0  0  0  0  0
   -7.3841   22.4909  -31.1101 H   0  0  0  0  0  0  0  0  0  0  0  0
  1  2  1  0
  2  3  1  0
  3  4  2  0
  4  5  1  0
  4  6  1  0
  6  7  1  0
  7  8  2  0
  8  9  1  0
  9 10  2  0
 10 11  1  0
 11 12  2  0
 12 13  1  0
 13 14  2  0
  8 15  1  0
 15 16  1  0
 16 17  2  0
 17 18  1  0
 18 19  1  0
 19 20  1  0
 20 21  1  0
 21 22  1  0
 22 23  1  0
 22 24  1  0
 24 25  1  0
 18 26  2  0
 26 27  1  0
 27 28  2  0
 15 29  2  0
 29 30  1  0
 30  2  2  0
 29  6  1  0
 14  9  1  0
 28 16  1  0
 25 19  1  0
  1 31  1  0
  1 32  1  0
  1 33  1  0
  3 34  1  0
  5 35  1  0
  5 36  1  0
  5 37  1  0
 10 38  1  0
 11 39  1  0
 12 40  1  0
 13 41  1  0
 17 42  1  0
 20 43  1  0
 20 44  1  0
 21 45  1  0
 21 46  1  0
 23 47  1  0
 23 48  1  0
 23 49  1  0
 24 50  1  0
 24 51  1  0
 25 52  1  0
 25 53  1  0
 27 54  1  0
 30 55  1  0
M  END
>  <UniqueID>  (35) 
31

>  <SMILES>  (35) 
Cc1cc(C)n2nc(-c3ccccn3)c(-c3cc(N4CCN(C)CC4)ncn3)c2c1

>  <Energy>  (35) 
112.09399553550466

>  <Genealogy>  (35) 
Cc1cc(C)n2nc(-c3ccccn3)c(-c3cc(N4CCN(C)CC4)ncn3)c2c1 (3D coordinates assigned)
Cc1cc(C)n2nc(-c3ccccn3)c(-c3cc(N4CCN(C)CC4)ncn3)c2c1 (nonaromatic ring conformer: 112.09399553550466 kcal/mol)

>  <smiles>  (35) 
Cc1cc(C)n2nc(-c3ccccn3)c(-c3cc(N4CCN(C)CC4)ncn3)c2c1

>  <score_type>  (35) 
oracle

>  <origin>  (35) 
adg

>  <m_score__min__energy>  (35) 
-9.4900000000000002

>  <m_primary>  (35) 
energy

$$$$
35:0
     RDKit          3D

 35 38  0  0  0  0  0  0  0  0999 V2000
   -6.3540   16.7310  -34.5400 N   0  0  0  0  0  0  0  0  0  0  0  0
   -6.5190   17.7090  -33.9360 C   0  0  0  0  0  0  0  0  0  0  0  0
   -6.7060   18.9270  -33.2000 C   0  0  0  0  0  0  0  0  0  0  0  0
   -5.6310   19.5160  -32.6230 N   0  0  0  0  0  0  0  0  0  0  0  0
   -5.7460   20.6590  -31.9210 C   0  0  0  0  0  0  0  0  0  0  0  0
   -4.6360   21.3050  -31.2990 N   0  0  0  0  0  0  0  0  0  0  0  0
   -4.4180   22.0930  -30.0920 C   0  0  0  0  0  0  0  0  0  0  0  0
   -3.0280   21.4390  -30.0910 C   0  0  0  0  0  0  0  0  0  0  0  0
   -2.0880   22.3630  -29.4610 C   0  0  0  0  0  0  0  0  0  0  0  0
   -0.9390   21.9710  -28.7930 C   0  0  0  0  0  0  0  0  0  0  0  0
   -0.0840   22.9100  -28.2130 C   0  0  0  0  0  0  0  0  0  0  0  0
   -0.3740   24.2490  -28.2980 C   0  0  0  0  0  0  0  0  0  0  0  0
   -1.5230   24.6440  -28.9650 C   0  0  0  0  0  0  0  0  0  0  0  0
   -2.3780   23.7310  -29.5430 C   0  0  0  0  0  0  0  0  0  0  0  0
   -1.5980   26.0390  -28.9160 O   0  0  0  0  0  0  0  0  0  0  0  0
   -0.6950   26.4890  -27.9230 C   0  0  0  0  0  0  0  0  0  0  0  0
    0.2230   25.4260  -27.8570 O   0  0  0  0  0  0  0  0  0  0  0  0
   -3.2180   21.4840  -31.5690 C   0  0  0  0  0  0  0  0  0  0  0  0
   -6.9940   21.2340  -31.7950 C   0  0  0  0  0  0  0  0  0  0  0  0
   -8.0850   20.6310  -32.3860 C   0  0  0  0  0  0  0  0  0  0  0  0
   -9.2700   21.1370  -32.2910 N   0  0  0  0  0  0  0  0  0  0  0  0
   -7.9530   19.4750  -33.0930 N   0  0  0  0  0  0  0  0  0  0  0  0
   -4.4239   23.1836  -30.2355 H   0  0  0  0  0  0  0  0  0  0  0  0
   -5.0960   22.0702  -29.2261 H   0  0  0  0  0  0  0  0  0  0  0  0
   -2.6950   20.5070  -29.6108 H   0  0  0  0  0  0  0  0  0  0  0  0
   -0.6962   20.9007  -28.7184 H   0  0  0  0  0  0  0  0  0  0  0  0
    0.8229   22.5765  -27.6874 H   0  0  0  0  0  0  0  0  0  0  0  0
   -3.2829   24.0744  -30.0657 H   0  0  0  0  0  0  0  0  0  0  0  0
   -0.2018   27.4244  -28.2260 H   0  0  0  0  0  0  0  0  0  0  0  0
   -1.1746   26.7204  -26.9605 H   0  0  0  0  0  0  0  0  0  0  0  0
   -2.9537   22.4418  -32.0409 H   0  0  0  0  0  0  0  0  0  0  0  0
   -2.6620   20.8270  -32.2539 H   0  0  0  0  0  0  0  0  0  0  0  0
   -7.1182   22.1676  -31.2267 H   0  0  0  0  0  0  0  0  0  0  0  0
  -10.0770   20.4730  -32.1350 H   0  0  0  0  0  0  0  0  0  0  0  0
   -8.7830   19.0150  -33.5410 H   0  0  0  0  0  0  0  0  0  0  0  0
  1  2  3  0
  2  3  1  0
  3  4  2  0
  4  5  1  0
  5  6  1  0
  6  7  1  0
  7  8  1  0
  8  9  1  0
  9 10  2  0
 10 11  1  0
 11 12  2  0
 12 13  1  0
 13 14  2  0
 13 15  1  0
 15 16  1  0
 16 17  1  0
  8 18  1  0
  5 19  2  0
 19 20  1  0
 20 21  2  3
 20 22  1  0
 22  3  1  0
 18  6  1  0
 14  9  1  0
 17 12  1  0
  7 23  1  0
  7 24  1  0
  8 25  1  0
 10 26  1  0
 11 27  1  0
 14 28  1  0
 16 29  1  0
 16 30  1  0
 18 31  1  0
 18 32  1  0
 19 33  1  0
 21 34  1  0
 22 35  1  0
M  END
>  <smiles>  (36) 
N#Cc1nc(N2CC(c3ccc4c(c3)OCO4)C2)cc(=N)[nH]1

>  <score_type>  (36) 
oracle

>  <origin>  (36) 
adg

>  <m_score__min__energy>  (36) 
-6.8300000000000001

>  <m_primary>  (36) 
energy

$$$$
36:0
     RDKit          3D

 36 38  0  0  0  0  0  0  0  0999 V2000
   -4.4350   23.7950  -31.4030 O   0  0  0  0  0  0  0  0  0  0  0  0
   -4.5850   24.7480  -30.5910 C   0  0  0  0  0  0  0  0  0  0  0  0
   -5.9500   25.3270  -30.3720 C   0  0  0  0  0  0  0  0  0  0  0  0
   -6.9040   24.2950  -29.7620 C   0  0  0  0  0  0  0  0  0  0  0  0
   -7.3240   23.2720  -30.7730 C   0  0  0  0  0  0  0  0  0  0  0  0
   -8.3560   23.4130  -31.6200 N   0  0  0  0  0  0  0  0  0  0  0  0
   -8.4460   22.3000  -32.3270 N   0  0  0  0  0  0  0  0  0  0  0  0
   -7.4500   21.5070  -31.8770 C   0  0  0  0  0  0  0  0  0  0  0  0
   -7.1690   20.1520  -32.3890 C   0  0  0  0  0  0  0  0  0  0  0  0
   -7.8460   19.0350  -31.8670 C   0  0  0  0  0  0  0  0  0  0  0  0
   -7.5800   17.7530  -32.3610 C   0  0  0  0  0  0  0  0  0  0  0  0
   -6.6370   17.5750  -33.3780 C   0  0  0  0  0  0  0  0  0  0  0  0
   -6.2750   15.8250  -34.0510 Br  0  0  0  0  0  0  0  0  0  0  0  0
   -5.9580   18.6800  -33.9010 C   0  0  0  0  0  0  0  0  0  0  0  0
   -6.2210   19.9630  -33.4100 C   0  0  0  0  0  0  0  0  0  0  0  0
   -6.7620   22.0960  -30.9220 O   0  0  0  0  0  0  0  0  0  0  0  0
   -3.4640   25.2930  -29.8850 N   0  0  0  0  0  0  0  0  0  0  0  0
   -2.3620   24.5510  -29.3440 C   0  0  0  0  0  0  0  0  0  0  0  0
   -2.4600   23.1590  -29.2510 C   0  0  0  0  0  0  0  0  0  0  0  0
   -1.3930   22.4120  -28.7490 C   0  0  0  0  0  0  0  0  0  0  0  0
   -0.2250   23.0680  -28.3580 C   0  0  0  0  0  0  0  0  0  0  0  0
   -0.1300   24.4190  -28.4800 N   0  0  0  0  0  0  0  0  0  0  0  0
   -1.1580   25.1690  -28.9600 C   0  0  0  0  0  0  0  0  0  0  0  0
   -5.8690   26.1864  -29.6902 H   0  0  0  0  0  0  0  0  0  0  0  0
   -6.3542   25.6384  -31.3465 H   0  0  0  0  0  0  0  0  0  0  0  0
   -6.3961   23.7870  -28.9289 H   0  0  0  0  0  0  0  0  0  0  0  0
   -7.8030   24.8216  -29.4092 H   0  0  0  0  0  0  0  0  0  0  0  0
   -8.9930   24.2360  -31.7150 H   0  0  0  0  0  0  0  0  0  0  0  0
   -8.5883   19.1699  -31.0665 H   0  0  0  0  0  0  0  0  0  0  0  0
   -8.1136   16.8840  -31.9486 H   0  0  0  0  0  0  0  0  0  0  0  0
   -5.2154   18.5399  -34.7003 H   0  0  0  0  0  0  0  0  0  0  0  0
   -5.6835   20.8285  -33.8247 H   0  0  0  0  0  0  0  0  0  0  0  0
   -3.3807   22.6513  -29.5744 H   0  0  0  0  0  0  0  0  0  0  0  0
   -1.4720   21.3182  -28.6626 H   0  0  0  0  0  0  0  0  0  0  0  0
    0.6191   22.4920  -27.9510 H   0  0  0  0  0  0  0  0  0  0  0  0
   -1.0479   26.2599  -29.0480 H   0  0  0  0  0  0  0  0  0  0  0  0
  1  2  2  0
  2  3  1  0
  3  4  1  0
  4  5  1  0
  5  6  2  0
  6  7  1  0
  7  8  2  0
  8  9  1  0
  9 10  2  0
 10 11  1  0
 11 12  2  0
 12 13  1  0
 12 14  1  0
 14 15  2  0
  8 16  1  0
  2 17  1  0
 17 18  1  0
 18 19  2  0
 19 20  1  0
 20 21  2  0
 21 22  1  0
 22 23  2  0
 16  5  1  0
 23 18  1  0
 15  9  1  0
  3 24  1  0
  3 25  1  0
  4 26  1  0
  4 27  1  0
  6 28  1  0
 10 29  1  0
 11 30  1  0
 14 31  1  0
 15 32  1  0
 19 33  1  0
 20 34  1  0
 21 35  1  0
 23 36  1  0
M  CHG  2   6   1  17  -1
M  END
>  <UniqueID>  (37) 
32

>  <SMILES>  (37) 
O=C(CCc1[nH+]nc(-c2ccc(Br)cc2)o1)[N-]c1cccnc1

>  <Energy>  (37) 
73.14961595152819

>  <Genealogy>  (37) 
O=C(CCc1[nH+]nc(-c2ccc(Br)cc2)o1)[N-]c1cccnc1 (protonated)
O=C(CCc1[nH+]nc(-c2ccc(Br)cc2)o1)[N-]c1cccnc1 (3D coordinates assigned)
O=C(CCc1[nH+]nc(-c2ccc(Br)cc2)o1)[N-]c1cccnc1 (optimized conformer: 73.14961595152819 kcal/mol)

>  <smiles>  (37) 
O=C(CCc1nnc(-c2ccc(Br)cc2)o1)Nc1cccnc1

>  <score_type>  (37) 
oracle

>  <origin>  (37) 
adg

>  <m_score__min__energy>  (37) 
-9.8000000000000007

>  <m_primary>  (37) 
energy

$$$$
37:0
     RDKit          3D

 37 39  0  0  0  0  0  0  0  0999 V2000
   -9.8285   20.4967  -31.6034 H   0  0  0  0  0  0  0  0  0  0  0  0
   -8.8260   20.9240  -31.7530 C   0  0  0  0  0  0  0  0  0  0  0  0
   -7.7560   20.0930  -32.0920 C   0  0  0  0  0  0  0  0  0  0  0  0
   -7.9188   19.0123  -32.2169 H   0  0  0  0  0  0  0  0  0  0  0  0
   -6.4790   20.6310  -32.2730 C   0  0  0  0  0  0  0  0  0  0  0  0
   -5.6441   19.9741  -32.5583 H   0  0  0  0  0  0  0  0  0  0  0  0
   -6.2550   22.0110  -32.0920 C   0  0  0  0  0  0  0  0  0  0  0  0
   -4.8970   22.6340  -32.3350 C   0  0  0  0  0  0  0  0  0  0  0  0
   -5.0449   23.6219  -32.7956 H   0  0  0  0  0  0  0  0  0  0  0  0
   -4.3391   21.9473  -32.9885 H   0  0  0  0  0  0  0  0  0  0  0  0
   -4.0750   22.8120  -31.0700 C   0  0  0  0  0  0  0  0  0  0  0  0
   -3.8190   24.0630  -30.4100 C   0  0  0  0  0  0  0  0  0  0  0  0
   -4.1980   25.2440  -30.8220 N   0  0  0  0  0  0  0  0  0  0  0  0
   -5.3810   26.0520  -30.5520 C   0  0  0  0  0  0  0  0  0  0  0  0
   -5.8737   26.3119  -31.5005 H   0  0  0  0  0  0  0  0  0  0  0  0
   -5.0878   26.9753  -30.0309 H   0  0  0  0  0  0  0  0  0  0  0  0
   -6.3410   25.2550  -29.6810 C   0  0  0  0  0  0  0  0  0  0  0  0
   -6.1156   25.4421  -28.6207 H   0  0  0  0  0  0  0  0  0  0  0  0
   -7.3744   25.5644  -29.8963 H   0  0  0  0  0  0  0  0  0  0  0  0
   -6.2270   24.1823  -29.8963 H   0  0  0  0  0  0  0  0  0  0  0  0
   -3.1130   24.0410  -29.2480 N   0  0  0  0  0  0  0  0  0  0  0  0
   -2.6430   22.9000  -28.6930 C   0  0  0  0  0  0  0  0  0  0  0  0
   -1.9220   22.9380  -27.4930 C   0  0  0  0  0  0  0  0  0  0  0  0
   -1.7328   23.9000  -26.9942 H   0  0  0  0  0  0  0  0  0  0  0  0
   -1.4430   21.7510  -26.9300 C   0  0  0  0  0  0  0  0  0  0  0  0
   -0.8752   21.7796  -25.9883 H   0  0  0  0  0  0  0  0  0  0  0  0
   -1.6850   20.5270  -27.5630 C   0  0  0  0  0  0  0  0  0  0  0  0
   -1.3077   19.5946  -27.1178 H   0  0  0  0  0  0  0  0  0  0  0  0
   -2.4060   20.4870  -28.7610 C   0  0  0  0  0  0  0  0  0  0  0  0
   -2.5964   19.5234  -29.2562 H   0  0  0  0  0  0  0  0  0  0  0  0
   -2.8870   21.6770  -29.3320 C   0  0  0  0  0  0  0  0  0  0  0  0
   -3.5940   21.6650  -30.4940 N   0  0  0  0  0  0  0  0  0  0  0  0
   -3.7820   20.7420  -30.9490 H   0  0  0  0  0  0  0  0  0  0  0  0
   -7.3480   22.8410  -31.7830 C   0  0  0  0  0  0  0  0  0  0  0  0
   -7.1981   23.9260  -31.6815 H   0  0  0  0  0  0  0  0  0  0  0  0
   -8.6230   22.2970  -31.6040 C   0  0  0  0  0  0  0  0  0  0  0  0
   -9.4680   22.9520  -31.3452 H   0  0  0  0  0  0  0  0  0  0  0  0
  1  2  1  0
  2  3  2  0
  3  4  1  0
  3  5  1  0
  5  6  1  0
  5  7  2  0
  7  8  1  0
  8  9  1  0
  8 10  1  0
  8 11  1  0
 11 12  1  0
 12 13  2  0
 13 14  1  0
 14 15  1  0
 14 16  1  0
 14 17  1  0
 17 18  1  0
 17 19  1  0
 17 20  1  0
 12 21  1  0
 21 22  1  0
 22 23  2  0
 23 24  1  0
 23 25  1  0
 25 26  1  0
 25 27  2  0
 27 28  1  0
 27 29  1  0
 29 30  1  0
 29 31  2  0
 31 32  1  0
 32 33  1  0
  7 34  1  0
 34 35  1  0
 34 36  2  0
 36 37  1  0
 36  2  1  0
 32 11  2  0
 31 22  1  0
M  CHG  2  21  -1  32   1
M  END
>  <UniqueID>  (38) 
33

>  <SMILES>  (38) 
CC/N=c1/[n-]c2ccccc2[nH+]c1Cc1ccccc1

>  <Energy>  (38) 
52.74772759912538

>  <Genealogy>  (38) 
CCN=c1[n-]c2ccccc2[nH+]c1Cc1ccccc1 (protonated)
CC/N=c1/[n-]c2ccccc2[nH+]c1Cc1ccccc1 (cis-trans isomerization)
CC/N=c1/[n-]c2ccccc2[nH+]c1Cc1ccccc1 (3D coordinates assigned)
CC/N=c1/[n-]c2ccccc2[nH+]c1Cc1ccccc1 (optimized conformer: 52.74772759912538 kcal/mol)

>  <smiles>  (38) 
CCN=c1[nH]c2ccccc2nc1Cc1ccccc1

>  <score_type>  (38) 
oracle

>  <origin>  (38) 
adg

>  <m_score__min__energy>  (38) 
-7.9199999999999999

>  <m_primary>  (38) 
energy

$$$$
38:0
     RDKit          3D

 61 64  0  0  0  0  0  0  0  0999 V2000
   -3.8490   16.4280  -35.0980 C   0  0  0  0  0  0  0  0  0  0  0  0
   -3.5430   16.3740  -33.6590 N   0  0  0  0  0  0  0  0  0  0  0  0
   -3.1300   17.7120  -33.1990 C   0  0  0  0  0  0  0  0  0  0  0  0
   -4.7230   15.8940  -32.9070 C   0  0  0  0  0  0  0  0  0  0  0  0
   -5.8250   15.4180  -33.8610 C   0  0  0  0  0  0  0  0  0  0  0  0
   -6.8530   16.4010  -33.9720 O   0  0  0  0  0  0  0  0  0  0  0  0
   -6.7900   17.7100  -33.4630 C   0  0  0  0  0  0  0  0  0  0  0  0
   -7.3990   17.9670  -32.2310 C   0  0  0  0  0  0  0  0  0  0  0  0
   -7.3670   19.2480  -31.6740 C   0  0  0  0  0  0  0  0  0  0  0  0
   -6.7210   20.3000  -32.3440 C   0  0  0  0  0  0  0  0  0  0  0  0
   -6.6870   21.6600  -31.7480 C   0  0  0  0  0  0  0  0  0  0  0  0
   -7.7350   22.5650  -31.9700 C   0  0  0  0  0  0  0  0  0  0  0  0
   -7.6870   23.8010  -31.4120 N   0  0  0  0  0  0  0  0  0  0  0  0
   -6.6390   24.1870  -30.6420 C   0  0  0  0  0  0  0  0  0  0  0  0
   -5.5810   23.2950  -30.4090 C   0  0  0  0  0  0  0  0  0  0  0  0
   -4.4270   23.6920  -29.5630 C   0  0  0  0  0  0  0  0  0  0  0  0
   -3.1260   23.6890  -30.0930 C   0  0  0  0  0  0  0  0  0  0  0  0
   -2.0370   24.0630  -29.3010 C   0  0  0  0  0  0  0  0  0  0  0  0
   -2.2290   24.4650  -27.9690 C   0  0  0  0  0  0  0  0  0  0  0  0
   -1.0440   24.8470  -27.1040 C   0  0  0  0  0  0  0  0  0  0  0  0
   -1.3440   25.8090  -26.0210 N   0  0  0  0  0  0  0  0  0  0  0  0
   -0.8750   25.4270  -24.6900 C   0  0  0  0  0  0  0  0  0  0  0  0
   -0.8910   26.7030  -23.8610 C   0  0  0  0  0  0  0  0  0  0  0  0
   -0.8830   27.8440  -24.8720 C   0  0  0  0  0  0  0  0  0  0  0  0
   -0.8700   27.1750  -26.2390 C   0  0  0  0  0  0  0  0  0  0  0  0
   -3.5250   24.4480  -27.4330 C   0  0  0  0  0  0  0  0  0  0  0  0
   -4.6150   24.0730  -28.2230 C   0  0  0  0  0  0  0  0  0  0  0  0
   -5.6340   22.0500  -30.9690 N   0  0  0  0  0  0  0  0  0  0  0  0
   -6.1050   20.0420  -33.5810 C   0  0  0  0  0  0  0  0  0  0  0  0
   -6.1350   18.7590  -34.1350 C   0  0  0  0  0  0  0  0  0  0  0  0
   -4.9235   16.6176  -35.2375 H   0  0  0  0  0  0  0  0  0  0  0  0
   -3.2700   17.2378  -35.5659 H   0  0  0  0  0  0  0  0  0  0  0  0
   -3.5821   15.4689  -35.5659 H   0  0  0  0  0  0  0  0  0  0  0  0
   -3.1227   17.7356  -32.0993 H   0  0  0  0  0  0  0  0  0  0  0  0
   -2.1213   17.9346  -33.5772 H   0  0  0  0  0  0  0  0  0  0  0  0
   -3.8377   18.4644  -33.5772 H   0  0  0  0  0  0  0  0  0  0  0  0
   -4.4213   15.0574  -32.2596 H   0  0  0  0  0  0  0  0  0  0  0  0
   -5.1164   16.7253  -32.3034 H   0  0  0  0  0  0  0  0  0  0  0  0
   -5.3894   15.2369  -34.8547 H   0  0  0  0  0  0  0  0  0  0  0  0
   -6.2627   14.4909  -33.4623 H   0  0  0  0  0  0  0  0  0  0  0  0
   -7.9084   17.1527  -31.6949 H   0  0  0  0  0  0  0  0  0  0  0  0
   -7.8511   19.4340  -30.7039 H   0  0  0  0  0  0  0  0  0  0  0  0
   -8.5928   22.2740  -32.5941 H   0  0  0  0  0  0  0  0  0  0  0  0
   -6.6186   25.1950  -30.2021 H   0  0  0  0  0  0  0  0  0  0  0  0
   -2.9633   23.3901  -31.1390 H   0  0  0  0  0  0  0  0  0  0  0  0
   -1.0218   24.0424  -29.7240 H   0  0  0  0  0  0  0  0  0  0  0  0
   -0.6469   23.9296  -26.6450 H   0  0  0  0  0  0  0  0  0  0  0  0
   -0.3265   25.3484  -27.7701 H   0  0  0  0  0  0  0  0  0  0  0  0
   -1.5462   24.6754  -24.2488 H   0  0  0  0  0  0  0  0  0  0  0  0
    0.1303   24.9822  -24.7279 H   0  0  0  0  0  0  0  0  0  0  0  0
   -1.7973   26.7464  -23.2392 H   0  0  0  0  0  0  0  0  0  0  0  0
   -0.0311   26.7569  -23.1772 H   0  0  0  0  0  0  0  0  0  0  0  0
   -1.7828   28.4661  -24.7569 H   0  0  0  0  0  0  0  0  0  0  0  0
   -0.0159   28.5065  -24.7333 H   0  0  0  0  0  0  0  0  0  0  0  0
   -1.5394   27.7064  -26.9315 H   0  0  0  0  0  0  0  0  0  0  0  0
    0.1354   27.1873  -26.6852 H   0  0  0  0  0  0  0  0  0  0  0  0
   -3.6847   24.7321  -26.3824 H   0  0  0  0  0  0  0  0  0  0  0  0
   -5.6275   24.0760  -27.7931 H   0  0  0  0  0  0  0  0  0  0  0  0
   -4.8290   21.3970  -30.8370 H   0  0  0  0  0  0  0  0  0  0  0  0
   -5.5954   20.8561  -34.1172 H   0  0  0  0  0  0  0  0  0  0  0  0
   -5.6443   18.5683  -35.1008 H   0  0  0  0  0  0  0  0  0  0  0  0
  1  2  1  0
  2  3  1  0
  2  4  1  0
  4  5  1  0
  5  6  1  0
  6  7  1  0
  7  8  2  0
  8  9  1  0
  9 10  2  0
 10 11  1  0
 11 12  2  0
 12 13  1  0
 13 14  2  0
 14 15  1  0
 15 16  1  0
 16 17  2  0
 17 18  1  0
 18 19  2  0
 19 20  1  0
 20 21  1  0
 21 22  1  0
 22 23  1  0
 23 24  1  0
 24 25  1  0
 19 26  1  0
 26 27  2  0
 15 28  2  0
 10 29  1  0
 29 30  2  0
 30  7  1  0
 28 11  1  0
 27 16  1  0
 25 21  1  0
  1 31  1  0
  1 32  1  0
  1 33  1  0
  3 34  1  0
  3 35  1  0
  3 36  1  0
  4 37  1  0
  4 38  1  0
  5 39  1  0
  5 40  1  0
  8 41  1  0
  9 42  1  0
 12 43  1  0
 14 44  1  0
 17 45  1  0
 18 46  1  0
 20 47  1  0
 20 48  1  0
 22 49  1  0
 22 50  1  0
 23 51  1  0
 23 52  1  0
 24 53  1  0
 24 54  1  0
 25 55  1  0
 25 56  1  0
 26 57  1  0
 27 58  1  0
 28 59  1  0
 29 60  1  0
 30 61  1  0
M  CHG  1  28   1
M  END
>  <UniqueID>  (39) 
34

>  <SMILES>  (39) 
CN(C)CCOc1ccc(-c2cncc(-c3ccc(CN4CCCC4)cc3)[nH+]2)cc1

>  <Energy>  (39) 
80.85779398670032

>  <Genealogy>  (39) 
CN(C)CCOc1ccc(-c2cncc(-c3ccc(CN4CCCC4)cc3)[nH+]2)cc1 (protonated)
CN(C)CCOc1ccc(-c2cncc(-c3ccc(CN4CCCC4)cc3)[nH+]2)cc1 (3D coordinates assigned)
CN(C)CCOc1ccc(-c2cncc(-c3ccc(CN4CCCC4)cc3)[nH+]2)cc1 (nonaromatic ring conformer: 80.85779398670032 kcal/mol)

>  <smiles>  (39) 
CN(C)CCOc1ccc(-c2cncc(-c3ccc(CN4CCCC4)cc3)n2)cc1

>  <score_type>  (39) 
oracle

>  <origin>  (39) 
adg

>  <m_score__min__energy>  (39) 
-8.5700000000000003

>  <m_primary>  (39) 
energy

$$$$
39:0
     RDKit          3D

 29 30  0  0  0  0  0  0  0  0999 V2000
    0.0370   27.1500  -23.3770 C   0  0  0  0  0  0  0  0  0  0  0  0
   -0.2460   26.1760  -24.4730 C   0  0  0  0  0  0  0  0  0  0  0  0
   -0.2190   24.8370  -24.3270 N   0  0  0  0  0  0  0  0  0  0  0  0
   -0.4170   24.2770  -25.5090 N   0  0  0  0  0  0  0  0  0  0  0  0
   -0.4900   22.8320  -25.7120 C   0  0  0  0  0  0  0  0  0  0  0  0
   -0.5580   25.2520  -26.4350 C   0  0  0  0  0  0  0  0  0  0  0  0
   -0.7290   25.0460  -27.8830 C   0  0  0  0  0  0  0  0  0  0  0  0
    0.2520   24.6470  -28.5640 O   0  0  0  0  0  0  0  0  0  0  0  0
   -1.9930   25.2440  -28.5290 N   0  0  0  0  0  0  0  0  0  0  0  0
   -3.2300   24.5480  -28.1880 C   0  0  0  0  0  0  0  0  0  0  0  0
   -4.0110   24.2200  -29.4230 C   0  0  0  0  0  0  0  0  0  0  0  0
   -3.8350   23.1000  -30.2260 C   0  0  0  0  0  0  0  0  0  0  0  0
   -4.6810   23.0820  -31.3390 C   0  0  0  0  0  0  0  0  0  0  0  0
   -5.5280   24.1820  -31.4130 C   0  0  0  0  0  0  0  0  0  0  0  0
   -5.2170   25.1790  -30.0950 S   0  0  0  0  0  0  0  0  0  0  0  0
   -0.4590   26.4800  -25.8060 C   0  0  0  0  0  0  0  0  0  0  0  0
   -0.4920   28.2110  -26.6170 Br  0  0  0  0  0  0  0  0  0  0  0  0
   -0.1059   26.6582  -22.4035 H   0  0  0  0  0  0  0  0  0  0  0  0
    1.0752   27.5040  -23.4601 H   0  0  0  0  0  0  0  0  0  0  0  0
   -0.6498   28.0052  -23.4601 H   0  0  0  0  0  0  0  0  0  0  0  0
   -0.0590   24.3140  -23.4370 H   0  0  0  0  0  0  0  0  0  0  0  0
   -0.5156   22.3254  -24.7359 H   0  0  0  0  0  0  0  0  0  0  0  0
   -1.4017   22.5866  -26.2765 H   0  0  0  0  0  0  0  0  0  0  0  0
    0.3923   22.4960  -26.2765 H   0  0  0  0  0  0  0  0  0  0  0  0
   -2.9854   23.6160  -27.6574 H   0  0  0  0  0  0  0  0  0  0  0  0
   -3.8393   25.2031  -27.5480 H   0  0  0  0  0  0  0  0  0  0  0  0
   -3.1039   22.3075  -30.0081 H   0  0  0  0  0  0  0  0  0  0  0  0
   -4.6768   22.2740  -32.0854 H   0  0  0  0  0  0  0  0  0  0  0  0
   -6.2742   24.3683  -32.1994 H   0  0  0  0  0  0  0  0  0  0  0  0
  1  2  1  0
  2  3  2  0
  3  4  1  0
  4  5  1  0
  4  6  1  0
  6  7  1  0
  7  8  2  0
  7  9  1  0
  9 10  1  0
 10 11  1  0
 11 12  2  0
 12 13  1  0
 13 14  2  0
 14 15  1  0
  6 16  2  0
 16 17  1  0
 16  2  1  0
 15 11  1  0
  1 18  1  0
  1 19  1  0
  1 20  1  0
  3 21  1  0
  5 22  1  0
  5 23  1  0
  5 24  1  0
 10 25  1  0
 10 26  1  0
 12 27  1  0
 13 28  1  0
 14 29  1  0
M  CHG  2   3   1   9  -1
M  END
>  <UniqueID>  (40) 
35

>  <SMILES>  (40) 
Cc1[nH+]n(C)c(C(=O)[N-]Cc2cccs2)c1Br

>  <Energy>  (40) 
85.60887596667084

>  <Genealogy>  (40) 
Cc1[nH+]n(C)c(C(=O)[N-]Cc2cccs2)c1Br (protonated)
Cc1[nH+]n(C)c(C(=O)[N-]Cc2cccs2)c1Br (3D coordinates assigned)
Cc1[nH+]n(C)c(C(=O)[N-]Cc2cccs2)c1Br (optimized conformer: 85.60887596667084 kcal/mol)

>  <smiles>  (40) 
Cc1nn(C)c(C(=O)NCc2cccs2)c1Br

>  <score_type>  (40) 
oracle

>  <origin>  (40) 
adg

>  <m_score__min__energy>  (40) 
-8.0099999999999998

>  <m_primary>  (40) 
energy

$$$$
40:0
     RDKit          3D

 44 46  0  0  0  0  0  0  0  0999 V2000
   -6.8810   15.7000  -34.1990 C   0  0  0  0  0  0  0  0  0  0  0  0
   -6.7910   17.0900  -33.6520 C   0  0  0  0  0  0  0  0  0  0  0  0
   -7.3770   17.4130  -32.4260 C   0  0  0  0  0  0  0  0  0  0  0  0
   -7.2920   18.7200  -31.9540 C   0  0  0  0  0  0  0  0  0  0  0  0
   -6.6320   19.6900  -32.7240 C   0  0  0  0  0  0  0  0  0  0  0  0
   -6.5130   21.0580  -32.2790 N   0  0  0  0  0  0  0  0  0  0  0  0
   -5.3590   21.8590  -32.7050 C   0  0  0  0  0  0  0  0  0  0  0  0
   -5.1190   23.0080  -31.7220 C   0  0  0  0  0  0  0  0  0  0  0  0
   -6.3140   23.8740  -31.5970 N   0  0  0  0  0  0  0  0  0  0  0  0
   -6.2130   24.8270  -30.4720 C   0  0  0  0  0  0  0  0  0  0  0  0
   -4.8480   24.8390  -29.8300 C   0  0  0  0  0  0  0  0  0  0  0  0
   -3.8610   25.2840  -30.4770 O   0  0  0  0  0  0  0  0  0  0  0  0
   -4.6730   24.3190  -28.5020 N   0  0  0  0  0  0  0  0  0  0  0  0
   -3.4910   24.5220  -27.7070 C   0  0  0  0  0  0  0  0  0  0  0  0
   -2.2570   24.0490  -28.1780 C   0  0  0  0  0  0  0  0  0  0  0  0
   -1.0960   24.2180  -27.4160 C   0  0  0  0  0  0  0  0  0  0  0  0
   -1.1620   24.8480  -26.1700 C   0  0  0  0  0  0  0  0  0  0  0  0
   -0.0370   25.0120  -25.4330 F   0  0  0  0  0  0  0  0  0  0  0  0
   -2.3910   25.3000  -25.6810 C   0  0  0  0  0  0  0  0  0  0  0  0
   -3.5530   25.1320  -26.4400 C   0  0  0  0  0  0  0  0  0  0  0  0
   -7.6230   23.1790  -31.6800 C   0  0  0  0  0  0  0  0  0  0  0  0
   -7.5290   21.6710  -31.4100 C   0  0  0  0  0  0  0  0  0  0  0  0
   -6.0800   19.3150  -33.9120 N   0  0  0  0  0  0  0  0  0  0  0  0
   -6.1600   18.0620  -34.3620 N   0  0  0  0  0  0  0  0  0  0  0  0
   -6.9275   14.9811  -33.3677 H   0  0  0  0  0  0  0  0  0  0  0  0
   -7.7871   15.6066  -34.8157 H   0  0  0  0  0  0  0  0  0  0  0  0
   -5.9945   15.4905  -34.8157 H   0  0  0  0  0  0  0  0  0  0  0  0
   -7.9000   16.6431  -31.8397 H   0  0  0  0  0  0  0  0  0  0  0  0
   -7.7384   18.9901  -30.9856 H   0  0  0  0  0  0  0  0  0  0  0  0
   -4.4654   21.2184  -32.7399 H   0  0  0  0  0  0  0  0  0  0  0  0
   -5.5616   22.2770  -33.7021 H   0  0  0  0  0  0  0  0  0  0  0  0
   -4.8766   22.5887  -30.7344 H   0  0  0  0  0  0  0  0  0  0  0  0
   -4.2877   23.6198  -32.1025 H   0  0  0  0  0  0  0  0  0  0  0  0
   -6.4325   25.8373  -30.8477 H   0  0  0  0  0  0  0  0  0  0  0  0
   -6.9343   24.5082  -29.7052 H   0  0  0  0  0  0  0  0  0  0  0  0
   -5.4240   23.7040  -28.1130 H   0  0  0  0  0  0  0  0  0  0  0  0
   -2.2020   23.5420  -29.1527 H   0  0  0  0  0  0  0  0  0  0  0  0
   -0.1304   23.8548  -27.7977 H   0  0  0  0  0  0  0  0  0  0  0  0
   -2.4440   25.7889  -24.6970 H   0  0  0  0  0  0  0  0  0  0  0  0
   -4.5197   25.4780  -26.0454 H   0  0  0  0  0  0  0  0  0  0  0  0
   -8.3023   23.6246  -30.9384 H   0  0  0  0  0  0  0  0  0  0  0  0
   -7.9926   23.3030  -32.7086 H   0  0  0  0  0  0  0  0  0  0  0  0
   -7.2527   21.5075  -30.3579 H   0  0  0  0  0  0  0  0  0  0  0  0
   -8.5048   21.2089  -31.6202 H   0  0  0  0  0  0  0  0  0  0  0  0
  1  2  1  0
  2  3  2  0
  3  4  1  0
  4  5  2  0
  5  6  1  0
  6  7  1  0
  7  8  1  0
  8  9  1  0
  9 10  1  0
 10 11  1  0
 11 12  2  0
 11 13  1  0
 13 14  1  0
 14 15  2  0
 15 16  1  0
 16 17  2  0
 17 18  1  0
 17 19  1  0
 19 20  2  0
  9 21  1  0
 21 22  1  0
  5 23  1  0
 23 24  2  0
 24  2  1  0
 22  6  1  0
 20 14  1  0
  1 25  1  0
  1 26  1  0
  1 27  1  0
  3 28  1  0
  4 29  1  0
  7 30  1  0
  7 31  1  0
  8 32  1  0
  8 33  1  0
 10 34  1  0
 10 35  1  0
 13 36  1  0
 15 37  1  0
 16 38  1  0
 19 39  1  0
 20 40  1  0
 21 41  1  0
 21 42  1  0
 22 43  1  0
 22 44  1  0
M  END
>  <UniqueID>  (41) 
36

>  <SMILES>  (41) 
Cc1ccc(N2CCN(CC(=O)Nc3ccc(F)cc3)CC2)nn1

>  <Energy>  (41) 
58.034181444948025

>  <Genealogy>  (41) 
Cc1ccc(N2CCN(CC(=O)Nc3ccc(F)cc3)CC2)nn1 (3D coordinates assigned)
Cc1ccc(N2CCN(CC(=O)Nc3ccc(F)cc3)CC2)nn1 (nonaromatic ring conformer: 58.034181444948025 kcal/mol)

>  <smiles>  (41) 
Cc1ccc(N2CCN(CC(=O)Nc3ccc(F)cc3)CC2)nn1

>  <score_type>  (41) 
oracle

>  <origin>  (41) 
adg

>  <m_score__min__energy>  (41) 
-8.7699999999999996

>  <m_primary>  (41) 
energy

$$$$
41:0
     RDKit          3D

 56 59  0  0  0  0  0  0  0  0999 V2000
   -5.3740   23.9300  -29.9670 C   0  0  0  0  0  0  0  0  0  0  0  0
   -4.2380   24.0840  -30.8110 O   0  0  0  0  0  0  0  0  0  0  0  0
   -3.4910   23.0200  -31.3350 C   0  0  0  0  0  0  0  0  0  0  0  0
   -3.9010   22.2960  -32.4720 C   0  0  0  0  0  0  0  0  0  0  0  0
   -3.1240   21.2400  -32.9530 C   0  0  0  0  0  0  0  0  0  0  0  0
   -1.9290   20.8830  -32.3080 C   0  0  0  0  0  0  0  0  0  0  0  0
   -1.1240   19.8000  -32.8100 N   0  0  0  0  0  0  0  0  0  0  0  0
   -0.8640   19.6740  -34.2470 C   0  0  0  0  0  0  0  0  0  0  0  0
   -0.4620   18.2310  -34.6000 C   0  0  0  0  0  0  0  0  0  0  0  0
   -1.2330   17.2380  -33.8140 N   0  0  0  0  0  0  0  0  0  0  0  0
   -2.6830   17.2930  -34.1490 C   0  0  0  0  0  0  0  0  0  0  0  0
   -3.5380   16.4380  -33.2010 C   0  0  0  0  0  0  0  0  0  0  0  0
   -4.9230   16.4160  -33.6590 N   0  0  0  0  0  0  0  0  0  0  0  0
   -5.6010   17.5280  -34.2580 C   0  0  0  0  0  0  0  0  0  0  0  0
   -5.3850   17.7880  -35.4710 O   0  0  0  0  0  0  0  0  0  0  0  0
   -6.5200   18.3920  -33.4920 C   0  0  0  0  0  0  0  0  0  0  0  0
   -7.5630   17.8160  -32.7500 C   0  0  0  0  0  0  0  0  0  0  0  0
   -8.4310   18.6190  -32.0060 C   0  0  0  0  0  0  0  0  0  0  0  0
   -8.2600   20.0100  -31.9840 C   0  0  0  0  0  0  0  0  0  0  0  0
   -9.1260   20.8270  -31.2400 C   0  0  0  0  0  0  0  0  0  0  0  0
   -8.9400   22.2130  -31.2180 C   0  0  0  0  0  0  0  0  0  0  0  0
   -7.8890   22.7910  -31.9360 C   0  0  0  0  0  0  0  0  0  0  0  0
   -7.0190   21.9900  -32.6800 C   0  0  0  0  0  0  0  0  0  0  0  0
   -7.1970   20.5970  -32.7130 C   0  0  0  0  0  0  0  0  0  0  0  0
   -6.3300   19.7820  -33.4540 C   0  0  0  0  0  0  0  0  0  0  0  0
   -0.9920   17.3760  -32.3460 C   0  0  0  0  0  0  0  0  0  0  0  0
   -0.5580   18.7910  -31.9090 C   0  0  0  0  0  0  0  0  0  0  0  0
   -1.5160   21.6140  -31.1840 C   0  0  0  0  0  0  0  0  0  0  0  0
   -2.2940   22.6690  -30.7000 C   0  0  0  0  0  0  0  0  0  0  0  0
   -5.0573   23.9729  -28.9145 H   0  0  0  0  0  0  0  0  0  0  0  0
   -6.0919   24.7390  -30.1672 H   0  0  0  0  0  0  0  0  0  0  0  0
   -5.8506   22.9590  -30.1672 H   0  0  0  0  0  0  0  0  0  0  0  0
   -4.8375   22.5638  -32.9832 H   0  0  0  0  0  0  0  0  0  0  0  0
   -3.4506   20.6837  -33.8440 H   0  0  0  0  0  0  0  0  0  0  0  0
   -1.7738   19.9424  -34.8039 H   0  0  0  0  0  0  0  0  0  0  0  0
   -0.0388   20.3487  -34.5187 H   0  0  0  0  0  0  0  0  0  0  0  0
   -0.6490   18.0608  -35.6705 H   0  0  0  0  0  0  0  0  0  0  0  0
    0.6041   18.1042  -34.3605 H   0  0  0  0  0  0  0  0  0  0  0  0
   -0.8660   16.3010  -34.1060 H   0  0  0  0  0  0  0  0  0  0  0  0
   -3.0209   18.3377  -34.0835 H   0  0  0  0  0  0  0  0  0  0  0  0
   -2.8070   16.8912  -35.1654 H   0  0  0  0  0  0  0  0  0  0  0  0
   -3.1444   15.4110  -33.1823 H   0  0  0  0  0  0  0  0  0  0  0  0
   -3.4992   16.8716  -32.1908 H   0  0  0  0  0  0  0  0  0  0  0  0
   -7.6979   16.7243  -32.7543 H   0  0  0  0  0  0  0  0  0  0  0  0
   -9.2511   18.1582  -31.4358 H   0  0  0  0  0  0  0  0  0  0  0  0
   -9.9533   20.3757  -30.6727 H   0  0  0  0  0  0  0  0  0  0  0  0
   -9.6218   22.8493  -30.6348 H   0  0  0  0  0  0  0  0  0  0  0  0
   -7.7463   23.8815  -31.9151 H   0  0  0  0  0  0  0  0  0  0  0  0
   -6.1929   22.4512  -33.2411 H   0  0  0  0  0  0  0  0  0  0  0  0
   -5.4954   20.2348  -34.0093 H   0  0  0  0  0  0  0  0  0  0  0  0
   -1.9227   17.1216  -31.8177 H   0  0  0  0  0  0  0  0  0  0  0  0
   -0.1625   16.6983  -32.0957 H   0  0  0  0  0  0  0  0  0  0  0  0
   -0.9133   18.9791  -30.8851 H   0  0  0  0  0  0  0  0  0  0  0  0
    0.5395   18.8550  -31.9458 H   0  0  0  0  0  0  0  0  0  0  0  0
   -0.5731   21.3548  -30.6802 H   0  0  0  0  0  0  0  0  0  0  0  0
   -1.9630   23.2283  -29.8125 H   0  0  0  0  0  0  0  0  0  0  0  0
  1  2  1  0
  2  3  1  0
  3  4  2  0
  4  5  1  0
  5  6  2  0
  6  7  1  0
  7  8  1  0
  8  9  1  0
  9 10  1  0
 10 11  1  0
 11 12  1  0
 12 13  1  0
 13 14  1  0
 14 15  2  0
 14 16  1  0
 16 17  2  0
 17 18  1  0
 18 19  2  0
 19 20  1  0
 20 21  2  0
 21 22  1  0
 22 23  2  0
 23 24  1  0
 24 25  2  0
 10 26  1  0
 26 27  1  0
  6 28  1  0
 28 29  2  0
 29  3  1  0
 27  7  1  0
 25 16  1  0
 24 19  1  0
  1 30  1  0
  1 31  1  0
  1 32  1  0
  4 33  1  0
  5 34  1  0
  8 35  1  0
  8 36  1  0
  9 37  1  0
  9 38  1  0
 10 39  1  0
 11 40  1  0
 11 41  1  0
 12 42  1  0
 12 43  1  0
 17 44  1  0
 18 45  1  0
 20 46  1  0
 21 47  1  0
 22 48  1  0
 23 49  1  0
 25 50  1  0
 26 51  1  0
 26 52  1  0
 27 53  1  0
 27 54  1  0
 28 55  1  0
 29 56  1  0
M  CHG  2  10   1  13  -1
M  END
>  <UniqueID>  (42) 
37

>  <SMILES>  (42) 
COc1ccc(N2CC[NH+](CC[N-]C(=O)c3ccc4ccccc4c3)CC2)cc1

>  <Energy>  (42) 
77.51077250879828

>  <Genealogy>  (42) 
COc1ccc(N2CC[NH+](CC[N-]C(=O)c3ccc4ccccc4c3)CC2)cc1 (protonated)
COc1ccc(N2CC[NH+](CC[N-]C(=O)c3ccc4ccccc4c3)CC2)cc1 (3D coordinates assigned)
COc1ccc(N2CC[NH+](CC[N-]C(=O)c3ccc4ccccc4c3)CC2)cc1 (nonaromatic ring conformer: 77.51077250879828 kcal/mol)

>  <smiles>  (42) 
COc1ccc(N2CCN(CCNC(=O)c3ccc4ccccc4c3)CC2)cc1

>  <score_type>  (42) 
oracle

>  <origin>  (42) 
adg

>  <m_score__min__energy>  (42) 
-9.9499999999999993

>  <m_primary>  (42) 
energy

$$$$
42:0
     RDKit          3D

 36 38  0  0  0  0  0  0  0  0999 V2000
   -4.8190   18.2400  -34.4700 C   0  0  0  0  0  0  0  0  0  0  0  0
   -4.4930   19.0700  -33.3610 O   0  0  0  0  0  0  0  0  0  0  0  0
   -5.0850   20.3190  -33.1520 C   0  0  0  0  0  0  0  0  0  0  0  0
   -4.4600   21.3720  -33.4590 O   0  0  0  0  0  0  0  0  0  0  0  0
   -6.4650   20.4180  -32.6090 C   0  0  0  0  0  0  0  0  0  0  0  0
   -6.7980   21.2630  -31.5870 C   0  0  0  0  0  0  0  0  0  0  0  0
   -5.8730   22.3040  -31.0870 C   0  0  0  0  0  0  0  0  0  0  0  0
   -6.1800   23.6620  -31.2600 C   0  0  0  0  0  0  0  0  0  0  0  0
   -5.3010   24.6470  -30.7950 C   0  0  0  0  0  0  0  0  0  0  0  0
   -4.1100   24.2810  -30.1620 C   0  0  0  0  0  0  0  0  0  0  0  0
   -3.2610   25.2370  -29.7110 F   0  0  0  0  0  0  0  0  0  0  0  0
   -3.7920   22.9300  -29.9970 C   0  0  0  0  0  0  0  0  0  0  0  0
   -4.6660   21.9430  -30.4610 C   0  0  0  0  0  0  0  0  0  0  0  0
   -8.2120   21.2710  -31.0090 C   0  0  0  0  0  0  0  0  0  0  0  0
   -9.1100   20.1420  -31.5740 C   0  0  2  0  0  0  0  0  0  0  0  0
   -8.6490   18.7670  -31.0660 C   0  0  0  0  0  0  0  0  0  0  0  0
   -7.6270   18.2740  -32.0980 C   0  0  0  0  0  0  0  0  0  0  0  0
   -7.5050   19.4180  -33.1100 C   0  0  1  0  0  0  0  0  0  0  0  0
   -8.8820   20.0620  -33.0730 C   0  0  0  0  0  0  0  0  0  0  0  0
   -5.1985   17.2739  -34.1059 H   0  0  0  0  0  0  0  0  0  0  0  0
   -5.5912   18.7306  -35.0807 H   0  0  0  0  0  0  0  0  0  0  0  0
   -3.9193   18.0739  -35.0807 H   0  0  0  0  0  0  0  0  0  0  0  0
   -7.1141   23.9534  -31.7625 H   0  0  0  0  0  0  0  0  0  0  0  0
   -5.5480   25.7106  -30.9280 H   0  0  0  0  0  0  0  0  0  0  0  0
   -2.8528   22.6432  -29.5014 H   0  0  0  0  0  0  0  0  0  0  0  0
   -4.4093   20.8807  -30.3363 H   0  0  0  0  0  0  0  0  0  0  0  0
   -8.1441   21.1503  -29.9178 H   0  0  0  0  0  0  0  0  0  0  0  0
   -8.6746   22.2282  -31.2915 H   0  0  0  0  0  0  0  0  0  0  0  0
  -10.1468   20.3623  -31.2800 H   0  0  0  0  0  0  0  0  0  0  0  0
   -8.1811   18.8598  -30.0748 H   0  0  0  0  0  0  0  0  0  0  0  0
   -9.4909   18.0675  -30.9572 H   0  0  0  0  0  0  0  0  0  0  0  0
   -6.6570   18.0766  -31.6183 H   0  0  0  0  0  0  0  0  0  0  0  0
   -7.9397   17.3325  -32.5732 H   0  0  0  0  0  0  0  0  0  0  0  0
   -7.2030   19.0888  -34.1152 H   0  0  0  0  0  0  0  0  0  0  0  0
   -8.8764   21.0595  -33.5367 H   0  0  0  0  0  0  0  0  0  0  0  0
   -9.6592   19.5143  -33.6262 H   0  0  0  0  0  0  0  0  0  0  0  0
  1  2  1  0
  2  3  1  0
  3  4  2  0
  3  5  1  0
  5  6  2  0
  6  7  1  0
  7  8  2  0
  8  9  1  0
  9 10  2  0
 10 11  1  0
 10 12  1  0
 12 13  2  0
  6 14  1  0
 14 15  1  0
 15 16  1  0
 16 17  1  0
 17 18  1  0
 18 19  1  0
 18  5  1  0
 13  7  1  0
 19 15  1  0
  1 20  1  0
  1 21  1  0
  1 22  1  0
  8 23  1  0
  9 24  1  0
 12 25  1  0
 13 26  1  0
 14 27  1  0
 14 28  1  0
 15 29  1  6
 16 30  1  0
 16 31  1  0
 17 32  1  0
 17 33  1  0
 18 34  1  6
 19 35  1  0
 19 36  1  0
M  END
>  <UniqueID>  (43) 
38

>  <SMILES>  (43) 
COC(=O)C1=C(c2ccc(F)cc2)C[C@@H]2CC[C@H]1C2

>  <Energy>  (43) 
54.79612781148412

>  <Genealogy>  (43) 
COC(=O)C1=C(c2ccc(F)cc2)C[C@@H]2CC[C@H]1C2 (chirality)
COC(=O)C1=C(c2ccc(F)cc2)C[C@@H]2CC[C@H]1C2 (3D coordinates assigned)
COC(=O)C1=C(c2ccc(F)cc2)C[C@@H]2CC[C@H]1C2 (nonaromatic ring conformer: 54.79612781148412 kcal/mol)

>  <smiles>  (43) 
COC(=O)C1=C(c2ccc(F)cc2)CC2CCC1C2

>  <score_type>  (43) 
oracle

>  <origin>  (43) 
adg

>  <m_score__min__energy>  (43) 
-7.5899999999999999

>  <m_primary>  (43) 
energy

$$$$
43:0
     RDKit          3D

 33 35  0  0  1  0  0  0  0  0999 V2000
   -5.3550   25.6960  -30.4700 C   0  0  0  0  0  0  0  0  0  0  0  0
   -4.0260   25.2560  -30.4780 O   0  0  0  0  0  0  0  0  0  0  0  0
   -3.5750   24.0420  -29.9770 C   0  0  0  0  0  0  0  0  0  0  0  0
   -2.8740   23.9260  -28.7960 C   0  0  0  0  0  0  0  0  0  0  0  0
   -2.4580   22.7010  -28.3550 C   0  0  0  0  0  0  0  0  0  0  0  0
   -2.7430   21.5930  -29.0980 C   0  0  0  0  0  0  0  0  0  0  0  0
   -3.4410   21.6720  -30.2800 C   0  0  0  0  0  0  0  0  0  0  0  0
   -3.8760   22.9170  -30.7490 C   0  0  0  0  0  0  0  0  0  0  0  0
   -4.6000   23.0160  -31.9710 N   0  0  0  0  0  0  0  0  0  0  0  0
   -5.4090   22.0970  -32.3070 C   0  0  0  0  0  0  0  0  0  0  0  0
   -4.8850   21.0270  -33.0410 C   0  0  0  0  0  0  0  0  0  0  0  0
   -5.7100   19.9880  -33.4420 C   0  0  0  0  0  0  0  0  0  0  0  0
   -5.2070   18.8290  -34.2220 C   0  0  0  0  0  0  0  0  0  0  0  0
   -7.0080   20.0450  -33.1060 N   0  0  0  0  0  0  0  0  0  0  0  0
   -7.5120   21.0810  -32.3960 C   0  0  0  0  0  0  0  0  0  0  0  0
   -8.8080   21.3390  -31.9470 C   0  0  0  0  0  0  0  0  0  0  0  0
   -8.7020   22.5470  -31.2810 C   0  0  0  0  0  0  0  0  0  0  0  0
   -7.4260   22.9840  -31.3290 N   0  0  0  0  0  0  0  0  0  0  0  0
   -6.7220   22.1060  -31.9950 N   0  0  0  0  0  0  0  0  0  0  0  0
   -5.6974   25.8094  -29.4308 H   0  0  0  0  0  0  0  0  0  0  0  0
   -5.4236   26.6648  -30.9864 H   0  0  0  0  0  0  0  0  0  0  0  0
   -5.9882   24.9595  -30.9864 H   0  0  0  0  0  0  0  0  0  0  0  0
   -2.6478   24.8253  -28.2044 H   0  0  0  0  0  0  0  0  0  0  0  0
   -1.8997   22.6096  -27.4116 H   0  0  0  0  0  0  0  0  0  0  0  0
   -2.4049   20.6088  -28.7415 H   0  0  0  0  0  0  0  0  0  0  0  0
   -3.6569   20.7596  -30.8553 H   0  0  0  0  0  0  0  0  0  0  0  0
   -3.8161   21.0105  -33.3003 H   0  0  0  0  0  0  0  0  0  0  0  0
   -4.8659   18.0430  -33.5321 H   0  0  0  0  0  0  0  0  0  0  0  0
   -6.0151   18.4351  -34.8559 H   0  0  0  0  0  0  0  0  0  0  0  0
   -4.3673   19.1502  -34.8559 H   0  0  0  0  0  0  0  0  0  0  0  0
   -7.7010   19.2900  -33.3760 H   0  0  0  0  0  0  0  0  0  0  0  0
   -9.7079   20.7228  -32.0899 H   0  0  0  0  0  0  0  0  0  0  0  0
   -9.5326   23.0722  -30.7868 H   0  0  0  0  0  0  0  0  0  0  0  0
  1  2  1  0
  2  3  1  0
  3  4  2  0
  4  5  1  0
  5  6  2  0
  6  7  1  0
  7  8  2  0
  8  9  1  0
  9 10  2  0
 10 11  1  0
 11 12  2  0
 12 13  1  0
 12 14  1  0
 14 15  1  0
 15 16  2  0
 16 17  1  0
 17 18  2  0
 18 19  1  0
  8  3  1  0
 19 10  1  0
 19 15  1  0
  1 20  1  0
  1 21  1  0
  1 22  1  0
  4 23  1  0
  5 24  1  0
  6 25  1  0
  7 26  1  0
 11 27  1  0
 13 28  1  0
 13 29  1  0
 13 30  1  0
 14 31  1  0
 16 32  1  0
 17 33  1  0
M  END
>  <smiles>  (44) 
COc1ccccc1N=c1cc(C)[nH]c2ccnn12

>  <score_type>  (44) 
oracle

>  <origin>  (44) 
adg

>  <m_score__min__energy>  (44) 
-7.2699999999999996

>  <m_primary>  (44) 
energy

$$$$
44:0
     RDKit          3D

 32 33  0  0  0  0  0  0  0  0999 V2000
   -1.9600   21.2380  -32.0150 C   0  0  0  0  0  0  0  0  0  0  0  0
   -2.7440   22.3650  -31.6450 O   0  0  0  0  0  0  0  0  0  0  0  0
   -4.0810   22.5120  -32.0260 C   0  0  0  0  0  0  0  0  0  0  0  0
   -4.5280   21.8910  -33.0290 O   0  0  0  0  0  0  0  0  0  0  0  0
   -4.9520   23.4180  -31.2580 C   0  0  0  0  0  0  0  0  0  0  0  0
   -4.3830   24.5580  -30.1590 S   0  0  0  0  0  0  0  0  0  0  0  0
   -5.8760   25.2080  -29.7490 C   0  0  0  0  0  0  0  0  0  0  0  0
   -6.8540   24.5370  -30.4690 C   0  0  0  0  0  0  0  0  0  0  0  0
   -6.3450   23.5390  -31.3210 C   0  0  0  0  0  0  0  0  0  0  0  0
   -7.1840   22.6720  -32.0990 N   0  0  0  0  0  0  0  0  0  0  0  0
   -8.2900   21.9410  -31.5470 C   0  0  0  0  0  0  0  0  0  0  0  0
   -8.7210   22.2050  -30.3920 O   0  0  0  0  0  0  0  0  0  0  0  0
   -8.9340   20.8450  -32.3410 C   0  0  0  0  0  0  0  0  0  0  0  0
   -7.9320   19.7590  -32.6220 C   0  0  0  0  0  0  0  0  0  0  0  0
   -6.8670   19.9910  -33.5090 C   0  0  0  0  0  0  0  0  0  0  0  0
   -5.9570   18.9710  -33.7990 C   0  0  0  0  0  0  0  0  0  0  0  0
   -6.1070   17.7110  -33.2130 C   0  0  0  0  0  0  0  0  0  0  0  0
   -7.1720   17.4690  -32.3390 C   0  0  0  0  0  0  0  0  0  0  0  0
   -8.0850   18.4860  -32.0470 C   0  0  0  0  0  0  0  0  0  0  0  0
   -1.6037   20.7258  -31.1091 H   0  0  0  0  0  0  0  0  0  0  0  0
   -2.5722   20.5452  -32.6111 H   0  0  0  0  0  0  0  0  0  0  0  0
   -1.0976   21.5710  -32.6111 H   0  0  0  0  0  0  0  0  0  0  0  0
   -6.0489   26.0250  -29.0330 H   0  0  0  0  0  0  0  0  0  0  0  0
   -7.9268   24.7638  -30.3821 H   0  0  0  0  0  0  0  0  0  0  0  0
   -6.9700   22.5460  -33.1130 H   0  0  0  0  0  0  0  0  0  0  0  0
   -9.7750   20.4261  -31.7689 H   0  0  0  0  0  0  0  0  0  0  0  0
   -9.2998   21.2553  -33.2938 H   0  0  0  0  0  0  0  0  0  0  0  0
   -6.7492   20.9795  -33.9769 H   0  0  0  0  0  0  0  0  0  0  0  0
   -5.1216   19.1599  -34.4893 H   0  0  0  0  0  0  0  0  0  0  0  0
   -5.3878   16.9099  -33.4390 H   0  0  0  0  0  0  0  0  0  0  0  0
   -7.2911   16.4762  -31.8806 H   0  0  0  0  0  0  0  0  0  0  0  0
   -8.9256   18.2894  -31.3653 H   0  0  0  0  0  0  0  0  0  0  0  0
  1  2  1  0
  2  3  1  0
  3  4  2  0
  3  5  1  0
  5  6  1  0
  6  7  1  0
  7  8  2  0
  8  9  1  0
  9 10  1  0
 10 11  1  0
 11 12  2  0
 11 13  1  0
 13 14  1  0
 14 15  2  0
 15 16  1  0
 16 17  2  0
 17 18  1  0
 18 19  2  0
  9  5  2  0
 19 14  1  0
  1 20  1  0
  1 21  1  0
  1 22  1  0
  7 23  1  0
  8 24  1  0
 10 25  1  0
 13 26  1  0
 13 27  1  0
 15 28  1  0
 16 29  1  0
 17 30  1  0
 18 31  1  0
 19 32  1  0
M  END
>  <UniqueID>  (45) 
39

>  <SMILES>  (45) 
COC(=O)c1sccc1NC(=O)Cc1ccccc1

>  <Energy>  (45) 
57.2277776920166

>  <Genealogy>  (45) 
COC(=O)c1sccc1NC(=O)Cc1ccccc1 (3D coordinates assigned)
COC(=O)c1sccc1NC(=O)Cc1ccccc1 (optimized conformer: 57.2277776920166 kcal/mol)

>  <smiles>  (45) 
COC(=O)c1sccc1NC(=O)Cc1ccccc1

>  <score_type>  (45) 
oracle

>  <origin>  (45) 
adg

>  <m_score__min__energy>  (45) 
-6.7999999999999998

>  <m_primary>  (45) 
energy

$$$$
45:0
     RDKit          3D

 56 58  0  0  0  0  0  0  0  0999 V2000
   -2.4630   21.4340  -27.5800 C   0  0  0  0  0  0  0  0  0  0  0  0
   -2.4250   22.9170  -27.9750 C   0  0  0  0  0  0  0  0  0  0  0  0
   -2.7420   23.2490  -29.4660 C   0  0  2  0  0  0  0  0  0  0  0  0
   -4.1160   22.6080  -29.7960 C   0  0  0  0  0  0  0  0  0  0  0  0
   -1.6570   22.6950  -30.4490 C   0  0  0  0  0  0  0  0  0  0  0  0
   -2.1340   21.6270  -31.4190 C   0  0  0  0  0  0  0  0  0  0  0  0
   -3.0250   21.9440  -32.4550 C   0  0  0  0  0  0  0  0  0  0  0  0
   -3.4520   20.9610  -33.3550 C   0  0  0  0  0  0  0  0  0  0  0  0
   -2.9660   19.6450  -33.2440 C   0  0  0  0  0  0  0  0  0  0  0  0
   -3.3630   18.6280  -34.1230 O   0  0  0  0  0  0  0  0  0  0  0  0
   -2.9360   17.2630  -34.0350 C   0  0  0  0  0  0  0  0  0  0  0  0
   -3.9940   16.3980  -33.3360 C   0  0  0  0  0  0  0  0  0  0  0  0
   -5.3130   17.1020  -33.2360 C   0  0  0  0  0  0  0  0  0  0  0  0
   -5.4820   18.3380  -32.7380 N   0  0  0  0  0  0  0  0  0  0  0  0
   -6.8100   18.5750  -32.8540 C   0  0  0  0  0  0  0  0  0  0  0  0
   -7.4880   19.8180  -32.4470 C   0  0  0  0  0  0  0  0  0  0  0  0
   -8.8860   19.8740  -32.2940 C   0  0  0  0  0  0  0  0  0  0  0  0
   -9.5130   21.0800  -31.9700 C   0  0  0  0  0  0  0  0  0  0  0  0
   -8.7510   22.2430  -31.8070 C   0  0  0  0  0  0  0  0  0  0  0  0
   -7.3600   22.2020  -31.9540 C   0  0  0  0  0  0  0  0  0  0  0  0
   -6.7350   20.9920  -32.2780 C   0  0  0  0  0  0  0  0  0  0  0  0
   -7.4400   17.5510  -33.3910 O   0  0  0  0  0  0  0  0  0  0  0  0
   -6.5530   16.6170  -33.6190 C   0  0  0  0  0  0  0  0  0  0  0  0
   -6.8680   15.2910  -34.2140 C   0  0  0  0  0  0  0  0  0  0  0  0
   -2.0370   19.3380  -32.2420 C   0  0  0  0  0  0  0  0  0  0  0  0
   -1.6360   20.3150  -31.3260 C   0  0  0  0  0  0  0  0  0  0  0  0
   -2.8300   24.7610  -29.6630 C   0  0  0  0  0  0  0  0  0  0  0  0
   -3.6580   25.2790  -30.4700 O   0  0  0  0  0  0  0  0  0  0  0  0
   -1.9500   25.6000  -28.9790 O   0  0  0  0  0  0  0  0  0  0  0  0
   -2.4652   21.3466  -26.4835 H   0  0  0  0  0  0  0  0  0  0  0  0
   -3.3733   20.9694  -27.9867 H   0  0  0  0  0  0  0  0  0  0  0  0
   -1.5776   20.9234  -27.9867 H   0  0  0  0  0  0  0  0  0  0  0  0
   -3.1591   23.4479  -27.3511 H   0  0  0  0  0  0  0  0  0  0  0  0
   -1.3823   23.2322  -27.8221 H   0  0  0  0  0  0  0  0  0  0  0  0
   -4.6406   22.3633  -28.8606 H   0  0  0  0  0  0  0  0  0  0  0  0
   -4.7205   23.3171  -30.3807 H   0  0  0  0  0  0  0  0  0  0  0  0
   -3.9610   21.6892  -30.3807 H   0  0  0  0  0  0  0  0  0  0  0  0
   -1.2715   23.5398  -31.0386 H   0  0  0  0  0  0  0  0  0  0  0  0
   -0.8979   22.2104  -29.8173 H   0  0  0  0  0  0  0  0  0  0  0  0
   -3.3918   22.9756  -32.5611 H   0  0  0  0  0  0  0  0  0  0  0  0
   -4.1680   21.2172  -34.1498 H   0  0  0  0  0  0  0  0  0  0  0  0
   -2.7663   16.8734  -35.0496 H   0  0  0  0  0  0  0  0  0  0  0  0
   -2.0077   17.2242  -33.4461 H   0  0  0  0  0  0  0  0  0  0  0  0
   -4.1292   15.4689  -33.9091 H   0  0  0  0  0  0  0  0  0  0  0  0
   -3.6419   16.1864  -32.3156 H   0  0  0  0  0  0  0  0  0  0  0  0
   -4.7360   18.9700  -32.3760 H   0  0  0  0  0  0  0  0  0  0  0  0
   -9.4882   18.9636  -32.4302 H   0  0  0  0  0  0  0  0  0  0  0  0
  -10.6051   21.1155  -31.8431 H   0  0  0  0  0  0  0  0  0  0  0  0
   -9.2479   23.1933  -31.5623 H   0  0  0  0  0  0  0  0  0  0  0  0
   -6.7616   23.1146  -31.8159 H   0  0  0  0  0  0  0  0  0  0  0  0
   -5.6424   20.9601  -32.4016 H   0  0  0  0  0  0  0  0  0  0  0  0
   -7.0416   14.5604  -33.4102 H   0  0  0  0  0  0  0  0  0  0  0  0
   -7.7715   15.3735  -34.8359 H   0  0  0  0  0  0  0  0  0  0  0  0
   -6.0239   14.9583  -34.8359 H   0  0  0  0  0  0  0  0  0  0  0  0
   -1.6204   18.3221  -32.1753 H   0  0  0  0  0  0  0  0  0  0  0  0
   -0.9260   20.0558  -30.5269 H   0  0  0  0  0  0  0  0  0  0  0  0
  1  2  1  0
  3  2  1  1
  3  4  1  0
  3  5  1  0
  5  6  1  0
  6  7  2  0
  7  8  1  0
  8  9  2  0
  9 10  1  0
 10 11  1  0
 11 12  1  0
 12 13  1  0
 13 14  1  0
 14 15  2  0
 15 16  1  0
 16 17  2  0
 17 18  1  0
 18 19  2  0
 19 20  1  0
 20 21  2  0
 15 22  1  0
 22 23  1  0
 23 24  1  0
  9 25  1  0
 25 26  2  0
  3 27  1  0
 27 28  2  0
 27 29  1  0
 26  6  1  0
 23 13  2  0
 21 16  1  0
  1 30  1  0
  1 31  1  0
  1 32  1  0
  2 33  1  0
  2 34  1  0
  4 35  1  0
  4 36  1  0
  4 37  1  0
  5 38  1  0
  5 39  1  0
  7 40  1  0
  8 41  1  0
 11 42  1  0
 11 43  1  0
 12 44  1  0
 12 45  1  0
 14 46  1  0
 17 47  1  0
 18 48  1  0
 19 49  1  0
 20 50  1  0
 21 51  1  0
 24 52  1  0
 24 53  1  0
 24 54  1  0
 25 55  1  0
 26 56  1  0
M  CHG  2  14   1  29  -1
M  END
>  <UniqueID>  (46) 
40

>  <SMILES>  (46) 
CC[C@](C)(Cc1ccc(OCCc2[nH+]c(-c3ccccc3)oc2C)cc1)C(=O)[O-]

>  <Energy>  (46) 
84.6501317142392

>  <Genealogy>  (46) 
CCC(C)(Cc1ccc(OCCc2[nH+]c(-c3ccccc3)oc2C)cc1)C(=O)[O-] (protonated)
CC[C@](C)(Cc1ccc(OCCc2[nH+]c(-c3ccccc3)oc2C)cc1)C(=O)[O-] (chirality)
CC[C@](C)(Cc1ccc(OCCc2[nH+]c(-c3ccccc3)oc2C)cc1)C(=O)[O-] (3D coordinates assigned)
CC[C@](C)(Cc1ccc(OCCc2[nH+]c(-c3ccccc3)oc2C)cc1)C(=O)[O-] (optimized conformer: 84.6501317142392 kcal/mol)

>  <smiles>  (46) 
CCC(C)(Cc1ccc(OCCc2nc(-c3ccccc3)oc2C)cc1)C(=O)O

>  <score_type>  (46) 
oracle

>  <origin>  (46) 
adg

>  <m_score__min__energy>  (46) 
-11.279999999999999

>  <m_primary>  (46) 
energy

$$$$
46:0
     RDKit          3D

 22 23  0  0  0  0  0  0  0  0999 V2000
   -9.1120   18.5520  -31.6220 C   0  0  0  0  0  0  0  0  0  0  0  0
   -7.9720   19.3720  -32.0360 N   0  0  0  0  0  0  0  0  0  0  0  0
   -6.7910   18.9610  -32.5790 C   0  0  0  0  0  0  0  0  0  0  0  0
   -6.3850   17.3830  -32.7910 S   0  0  0  0  0  0  0  0  0  0  0  0
   -5.9880   20.0040  -32.9310 N   0  0  0  0  0  0  0  0  0  0  0  0
   -4.6280   19.9700  -33.4710 C   0  0  0  0  0  0  0  0  0  0  0  0
   -6.7000   21.0930  -32.5850 C   0  0  0  0  0  0  0  0  0  0  0  0
   -6.3380   22.3970  -32.7140 N   0  0  0  0  0  0  0  0  0  0  0  0
   -7.2170   23.3680  -32.3180 C   0  0  0  0  0  0  0  0  0  0  0  0
   -8.4790   23.0200  -31.7820 C   0  0  0  0  0  0  0  0  0  0  0  0
   -8.8350   21.6670  -31.6490 C   0  0  0  0  0  0  0  0  0  0  0  0
   -7.9010   20.7170  -32.0610 C   0  0  0  0  0  0  0  0  0  0  0  0
   -9.1594   18.5179  -30.5236 H   0  0  0  0  0  0  0  0  0  0  0  0
  -10.0410   18.9901  -32.0157 H   0  0  0  0  0  0  0  0  0  0  0  0
   -8.9921   17.5319  -32.0157 H   0  0  0  0  0  0  0  0  0  0  0  0
   -3.9048   19.9519  -32.6423 H   0  0  0  0  0  0  0  0  0  0  0  0
   -4.5010   19.0684  -34.0882 H   0  0  0  0  0  0  0  0  0  0  0  0
   -4.4561   20.8641  -34.0882 H   0  0  0  0  0  0  0  0  0  0  0  0
   -5.4100   22.6650  -33.1090 H   0  0  0  0  0  0  0  0  0  0  0  0
   -6.9400   24.4279  -32.4173 H   0  0  0  0  0  0  0  0  0  0  0  0
   -9.1808   23.8074  -31.4697 H   0  0  0  0  0  0  0  0  0  0  0  0
   -9.8105   21.3695  -31.2368 H   0  0  0  0  0  0  0  0  0  0  0  0
  1  2  1  0
  2  3  1  0
  3  4  2  0
  3  5  1  0
  5  6  1  0
  5  7  1  0
  7  8  2  0
  8  9  1  0
  9 10  2  0
 10 11  1  0
 11 12  2  0
 12  2  1  0
 12  7  1  0
  1 13  1  0
  1 14  1  0
  1 15  1  0
  6 16  1  0
  6 17  1  0
  6 18  1  0
  8 19  1  0
  9 20  1  0
 10 21  1  0
 11 22  1  0
M  CHG  1   8   1
M  END
>  <UniqueID>  (47) 
41

>  <SMILES>  (47) 
Cn1c(=S)n(C)c2[nH+]cccc21

>  <Energy>  (47) 
65.37657334790195

>  <Genealogy>  (47) 
Cn1c(=S)n(C)c2[nH+]cccc21 (protonated)
Cn1c(=S)n(C)c2[nH+]cccc21 (3D coordinates assigned)
Cn1c(=S)n(C)c2[nH+]cccc21 (optimized conformer: 65.37657334790195 kcal/mol)

>  <smiles>  (47) 
Cn1c(=S)n(C)c2ncccc21

>  <score_type>  (47) 
oracle

>  <origin>  (47) 
adg

>  <m_score__min__energy>  (47) 
-4.8799999999999999

>  <m_primary>  (47) 
energy

$$$$
