0:0
     RDKit          3D

 41 43  0  0  0  0  0  0  0  0999 V2000
   -2.7000   20.1240  -31.4440 C   0  0  0  0  0  0  0  0  0  0  0  0
   -3.2670   21.5060  -31.3270 C   0  0  0  0  0  0  0  0  0  0  0  0
   -2.7580   22.5160  -30.5350 C   0  0  0  0  0  0  0  0  0  0  0  0
   -3.5950   23.5890  -30.7800 C   0  0  0  0  0  0  0  0  0  0  0  0
   -3.4810   24.9230  -30.1800 C   0  0  0  0  0  0  0  0  0  0  0  0
   -2.5660   25.1680  -29.3520 O   0  0  0  0  0  0  0  0  0  0  0  0
   -4.3840   25.9230  -30.5210 O   0  0  0  0  0  0  0  0  0  0  0  0
   -4.5480   23.2420  -31.6670 N   0  0  0  0  0  0  0  0  0  0  0  0
   -4.3480   21.9730  -31.9900 N   0  0  0  0  0  0  0  0  0  0  0  0
   -5.1820   21.2520  -32.9510 C   0  0  0  0  0  0  0  0  0  0  0  0
   -6.5920   21.1270  -32.4290 C   0  0  0  0  0  0  0  0  0  0  0  0
   -7.4460   22.2420  -32.4470 C   0  0  0  0  0  0  0  0  0  0  0  0
   -8.7530   22.1390  -31.9650 C   0  0  0  0  0  0  0  0  0  0  0  0
   -9.5710   23.2200  -31.9890 F   0  0  0  0  0  0  0  0  0  0  0  0
   -9.2160   20.9250  -31.4580 C   0  0  0  0  0  0  0  0  0  0  0  0
   -8.3750   19.8110  -31.4270 C   0  0  0  0  0  0  0  0  0  0  0  0
   -7.0540   19.9000  -31.9070 C   0  0  0  0  0  0  0  0  0  0  0  0
   -6.1740   18.8050  -31.8800 O   0  0  0  0  0  0  0  0  0  0  0  0
   -6.5550   17.4330  -31.9850 C   0  0  0  0  0  0  0  0  0  0  0  0
   -5.5290   16.6510  -32.7720 C   0  0  0  0  0  0  0  0  0  0  0  0
   -5.0040   15.4690  -32.2160 C   0  0  0  0  0  0  0  0  0  0  0  0
   -4.0650   14.7100  -32.9170 C   0  0  0  0  0  0  0  0  0  0  0  0
   -3.6490   15.1100  -34.1870 C   0  0  0  0  0  0  0  0  0  0  0  0
   -4.1770   16.2680  -34.7620 C   0  0  0  0  0  0  0  0  0  0  0  0
   -5.1200   17.0380  -34.0700 C   0  0  0  0  0  0  0  0  0  0  0  0
   -5.7610   18.4690  -34.8700 Cl  0  0  0  0  0  0  0  0  0  0  0  0
   -2.5305   19.7109  -30.4387 H   0  0  0  0  0  0  0  0  0  0  0  0
   -3.4075   19.4824  -31.9896 H   0  0  0  0  0  0  0  0  0  0  0  0
   -1.7457   20.1642  -31.9896 H   0  0  0  0  0  0  0  0  0  0  0  0
   -1.8874   22.4762  -29.8639 H   0  0  0  0  0  0  0  0  0  0  0  0
   -5.1951   21.8010  -33.9041 H   0  0  0  0  0  0  0  0  0  0  0  0
   -4.7655   20.2452  -33.1023 H   0  0  0  0  0  0  0  0  0  0  0  0
   -7.0834   23.2020  -32.8430 H   0  0  0  0  0  0  0  0  0  0  0  0
  -10.2465   20.8450  -31.0816 H   0  0  0  0  0  0  0  0  0  0  0  0
   -8.7468   18.8571  -31.0248 H   0  0  0  0  0  0  0  0  0  0  0  0
   -6.6395   17.0037  -30.9758 H   0  0  0  0  0  0  0  0  0  0  0  0
   -7.5210   17.3739  -32.5078 H   0  0  0  0  0  0  0  0  0  0  0  0
   -5.3366   15.1405  -31.2203 H   0  0  0  0  0  0  0  0  0  0  0  0
   -3.6525   13.7949  -32.4670 H   0  0  0  0  0  0  0  0  0  0  0  0
   -2.9052   14.5134  -34.7355 H   0  0  0  0  0  0  0  0  0  0  0  0
   -3.8498   16.5775  -35.7656 H   0  0  0  0  0  0  0  0  0  0  0  0
  1  2  1  0
  2  3  2  0
  3  4  1  0
  4  5  1  0
  5  6  2  0
  5  7  1  0
  4  8  2  0
  8  9  1  0
  9 10  1  0
 10 11  1  0
 11 12  2  0
 12 13  1  0
 13 14  1  0
 13 15  2  0
 15 16  1  0
 16 17  2  0
 17 18  1  0
 18 19  1  0
 19 20  1  0
 20 21  2  0
 21 22  1  0
 22 23  2  0
 23 24  1  0
 24 25  2  0
 25 26  1  0
  9  2  1  0
 17 11  1  0
 25 20  1  0
  1 27  1  0
  1 28  1  0
  1 29  1  0
  3 30  1  0
 10 31  1  0
 10 32  1  0
 12 33  1  0
 15 34  1  0
 16 35  1  0
 19 36  1  0
 19 37  1  0
 21 38  1  0
 22 39  1  0
 23 40  1  0
 24 41  1  0
M  CHG  1   7  -1
M  END
>  <UniqueID>  (1) 
1

>  <SMILES>  (1) 
Cc1cc(C(=O)[O-])nn1Cc1cc(F)ccc1OCc1ccccc1Cl

>  <Energy>  (1) 
71.68137367224983

>  <Genealogy>  (1) 
Cc1cc(C(=O)[O-])nn1Cc1cc(F)ccc1OCc1ccccc1Cl (protonated)
Cc1cc(C(=O)[O-])nn1Cc1cc(F)ccc1OCc1ccccc1Cl (3D coordinates assigned)
Cc1cc(C(=O)[O-])nn1Cc1cc(F)ccc1OCc1ccccc1Cl (optimized conformer: 71.68137367224983 kcal/mol)

>  <smiles>  (1) 
Cc1cc(C(=O)O)nn1Cc1cc(F)ccc1OCc1ccccc1Cl

>  <score_type>  (1) 
oracle

>  <origin>  (1) 
adg

>  <m_score__min__energy>  (1) 
-10.27

>  <m_primary>  (1) 
energy

$$$$
1:0
     RDKit          3D

 31 32  0  0  0  0  0  0  0  0999 V2000
   -8.6410   18.7510  -32.1000 C   0  0  0  0  0  0  0  0  0  0  0  0
   -8.4430   20.2250  -31.9900 C   0  0  0  0  0  0  0  0  0  0  0  0
   -9.4530   21.1790  -31.9640 C   0  0  0  0  0  0  0  0  0  0  0  0
   -8.9750   22.4850  -31.7970 C   0  0  0  0  0  0  0  0  0  0  0  0
   -7.5940   22.5510  -31.6420 C   0  0  0  0  0  0  0  0  0  0  0  0
   -6.8220   23.8050  -31.5920 C   0  0  0  0  0  0  0  0  0  0  0  0
   -6.2630   24.3360  -30.4930 C   0  0  0  0  0  0  0  0  0  0  0  0
   -5.2810   25.4470  -30.4730 C   0  0  0  0  0  0  0  0  0  0  0  0
   -5.6670   26.6400  -30.3640 O   0  0  0  0  0  0  0  0  0  0  0  0
   -3.8730   25.1930  -30.5710 N   0  0  0  0  0  0  0  0  0  0  0  0
   -3.2240   23.9270  -30.3830 C   0  0  0  0  0  0  0  0  0  0  0  0
   -3.6520   22.8050  -31.1170 C   0  0  0  0  0  0  0  0  0  0  0  0
   -3.0020   21.5790  -30.9850 C   0  0  0  0  0  0  0  0  0  0  0  0
   -1.9050   21.4590  -30.1350 C   0  0  0  0  0  0  0  0  0  0  0  0
   -1.4480   22.5670  -29.4210 C   0  0  0  0  0  0  0  0  0  0  0  0
   -2.0910   23.8160  -29.5370 C   0  0  0  0  0  0  0  0  0  0  0  0
   -1.5650   24.9670  -28.7550 C   0  0  0  0  0  0  0  0  0  0  0  0
   -1.2390   26.0450  -29.3180 O   0  0  0  0  0  0  0  0  0  0  0  0
   -1.4310   24.8720  -27.3750 O   0  0  0  0  0  0  0  0  0  0  0  0
   -6.9630   20.9930  -31.7810 S   0  0  0  0  0  0  0  0  0  0  0  0
   -8.6999   18.3128  -31.0928 H   0  0  0  0  0  0  0  0  0  0  0  0
   -9.5747   18.5461  -32.6442 H   0  0  0  0  0  0  0  0  0  0  0  0
   -7.7944   18.3069  -32.6442 H   0  0  0  0  0  0  0  0  0  0  0  0
  -10.5205   20.9333  -32.0645 H   0  0  0  0  0  0  0  0  0  0  0  0
   -9.6271   23.3709  -31.7892 H   0  0  0  0  0  0  0  0  0  0  0  0
   -6.6925   24.3534  -32.5367 H   0  0  0  0  0  0  0  0  0  0  0  0
   -6.5591   23.9100  -29.5231 H   0  0  0  0  0  0  0  0  0  0  0  0
   -4.5080   22.8965  -31.8017 H   0  0  0  0  0  0  0  0  0  0  0  0
   -3.3556   20.7056  -31.5525 H   0  0  0  0  0  0  0  0  0  0  0  0
   -1.3981   20.4888  -30.0265 H   0  0  0  0  0  0  0  0  0  0  0  0
   -0.5752   22.4647  -28.7594 H   0  0  0  0  0  0  0  0  0  0  0  0
  1  2  1  0
  2  3  2  0
  3  4  1  0
  4  5  2  0
  5  6  1  0
  6  7  2  3
  7  8  1  0
  8  9  2  0
  8 10  1  0
 10 11  1  0
 11 12  2  0
 12 13  1  0
 13 14  2  0
 14 15  1  0
 15 16  2  0
 16 17  1  0
 17 18  2  0
 17 19  1  0
  5 20  1  0
 20  2  1  0
 16 11  1  0
  1 21  1  0
  1 22  1  0
  1 23  1  0
  3 24  1  0
  4 25  1  0
  6 26  1  0
  7 27  1  0
 12 28  1  0
 13 29  1  0
 14 30  1  0
 15 31  1  0
M  CHG  2  10  -1  19  -1
M  END
>  <UniqueID>  (2) 
2

>  <SMILES>  (2) 
Cc1ccc(C=CC(=O)[N-]c2ccccc2C(=O)[O-])s1

>  <Energy>  (2) 
72.1718017940639

>  <Genealogy>  (2) 
Cc1ccc(C=CC(=O)[N-]c2ccccc2C(=O)[O-])s1 (protonated)
Cc1ccc(C=CC(=O)[N-]c2ccccc2C(=O)[O-])s1 (3D coordinates assigned)
Cc1ccc(C=CC(=O)[N-]c2ccccc2C(=O)[O-])s1 (optimized conformer: 72.1718017940639 kcal/mol)

>  <smiles>  (2) 
Cc1ccc(C=CC(=O)Nc2ccccc2C(=O)O)s1

>  <score_type>  (2) 
oracle

>  <origin>  (2) 
adg

>  <m_score__min__energy>  (2) 
-11.83

>  <m_primary>  (2) 
energy

$$$$
2:0
     RDKit          3D

 68 71  0  0  0  0  0  0  0  0999 V2000
   -7.6540   22.4960  -31.8450 C   0  0  0  0  0  0  0  0  0  0  0  0
   -6.8550   23.7980  -31.9670 C   0  0  0  0  0  0  0  0  0  0  0  0
   -5.7360   23.9560  -30.9050 C   0  0  0  0  0  0  0  0  0  0  0  0
   -6.0170   23.0580  -29.6830 C   0  0  0  0  0  0  0  0  0  0  0  0
   -5.6930   25.4330  -30.4650 C   0  0  0  0  0  0  0  0  0  0  0  0
   -4.4570   23.5880  -31.5250 N   0  0  0  0  0  0  0  0  0  0  0  0
   -4.1760   22.4110  -32.2950 C   0  0  0  0  0  0  0  0  0  0  0  0
   -3.9290   22.4990  -33.5270 O   0  0  0  0  0  0  0  0  0  0  0  0
   -4.0840   21.0760  -31.5930 C   0  0  1  0  0  0  0  0  0  0  0  0
   -4.9500   19.9700  -32.1860 C   0  0  0  0  0  0  0  0  0  0  0  0
   -5.5470   18.9570  -31.4040 C   0  0  0  0  0  0  0  0  0  0  0  0
   -6.3740   17.9990  -31.9970 C   0  0  0  0  0  0  0  0  0  0  0  0
   -6.6150   18.0340  -33.3710 C   0  0  0  0  0  0  0  0  0  0  0  0
   -6.0320   19.0300  -34.1570 C   0  0  0  0  0  0  0  0  0  0  0  0
   -5.2080   19.9930  -33.5690 C   0  0  0  0  0  0  0  0  0  0  0  0
   -2.6820   20.6270  -31.4300 N   0  0  0  0  0  0  0  0  0  0  0  0
   -1.9610   20.6920  -30.1710 C   0  0  0  0  0  0  0  0  0  0  0  0
   -1.3770   19.6640  -29.7290 O   0  0  0  0  0  0  0  0  0  0  0  0
   -1.8680   21.9260  -29.3760 C   0  0  0  0  0  0  0  0  0  0  0  0
   -2.8480   22.2280  -28.4250 C   0  0  0  0  0  0  0  0  0  0  0  0
   -2.7190   23.3810  -27.6480 C   0  0  0  0  0  0  0  0  0  0  0  0
   -1.6270   24.2470  -27.8370 C   0  0  0  0  0  0  0  0  0  0  0  0
   -1.4560   25.4250  -27.0150 N   0  0  0  0  0  0  0  0  0  0  0  0
   -0.8460   26.6610  -27.4850 C   0  0  0  0  0  0  0  0  0  0  0  0
   -0.6650   27.5310  -26.2480 C   0  0  0  0  0  0  0  0  0  0  0  0
   -1.5930   26.9430  -25.1920 C   0  0  0  0  0  0  0  0  0  0  0  0
   -1.8250   25.4970  -25.6090 C   0  0  0  0  0  0  0  0  0  0  0  0
   -0.6970   23.9270  -28.8430 C   0  0  0  0  0  0  0  0  0  0  0  0
   -0.8370   22.7870  -29.5710 N   0  0  0  0  0  0  0  0  0  0  0  0
   -1.9610   20.2620  -32.6210 C   0  0  0  0  0  0  0  0  0  0  0  0
   -1.9840   18.9360  -33.0880 C   0  0  0  0  0  0  0  0  0  0  0  0
   -1.2580   18.5780  -34.2280 C   0  0  0  0  0  0  0  0  0  0  0  0
   -0.4990   19.5370  -34.9040 C   0  0  0  0  0  0  0  0  0  0  0  0
   -0.4630   20.8540  -34.4400 C   0  0  0  0  0  0  0  0  0  0  0  0
   -1.1870   21.2160  -33.2990 C   0  0  0  0  0  0  0  0  0  0  0  0
   -7.8020   22.2549  -30.7820 H   0  0  0  0  0  0  0  0  0  0  0  0
   -8.6323   22.6191  -32.3327 H   0  0  0  0  0  0  0  0  0  0  0  0
   -7.1013   21.6795  -32.3327 H   0  0  0  0  0  0  0  0  0  0  0  0
   -6.3915   23.8267  -32.9641 H   0  0  0  0  0  0  0  0  0  0  0  0
   -7.5650   24.6223  -31.8047 H   0  0  0  0  0  0  0  0  0  0  0  0
   -5.8384   23.6287  -28.7598 H   0  0  0  0  0  0  0  0  0  0  0  0
   -7.0637   22.7206  -29.7088 H   0  0  0  0  0  0  0  0  0  0  0  0
   -5.3493   22.1842  -29.7088 H   0  0  0  0  0  0  0  0  0  0  0  0
   -5.6914   25.4884  -29.3664 H   0  0  0  0  0  0  0  0  0  0  0  0
   -4.7807   25.9061  -30.8573 H   0  0  0  0  0  0  0  0  0  0  0  0
   -6.5762   25.9583  -30.8573 H   0  0  0  0  0  0  0  0  0  0  0  0
   -4.5095   21.2703  -30.5974 H   0  0  0  0  0  0  0  0  0  0  0  0
   -5.3599   18.9217  -30.3206 H   0  0  0  0  0  0  0  0  0  0  0  0
   -6.8362   17.2152  -31.3789 H   0  0  0  0  0  0  0  0  0  0  0  0
   -7.2643   17.2769  -33.8349 H   0  0  0  0  0  0  0  0  0  0  0  0
   -6.2216   19.0565  -35.2402 H   0  0  0  0  0  0  0  0  0  0  0  0
   -4.7562   20.7775  -34.1939 H   0  0  0  0  0  0  0  0  0  0  0  0
   -3.7135   21.5626  -28.2902 H   0  0  0  0  0  0  0  0  0  0  0  0
   -3.4755   23.6133  -26.8840 H   0  0  0  0  0  0  0  0  0  0  0  0
    0.1275   26.4538  -27.9533 H   0  0  0  0  0  0  0  0  0  0  0  0
   -1.4703   27.1583  -28.2419 H   0  0  0  0  0  0  0  0  0  0  0  0
    0.3791   27.4959  -25.9037 H   0  0  0  0  0  0  0  0  0  0  0  0
   -0.9010   28.5853  -26.4547 H   0  0  0  0  0  0  0  0  0  0  0  0
   -1.1206   26.9852  -24.1995 H   0  0  0  0  0  0  0  0  0  0  0  0
   -2.5373   27.5029  -25.1232 H   0  0  0  0  0  0  0  0  0  0  0  0
   -1.1950   24.8207  -25.0126 H   0  0  0  0  0  0  0  0  0  0  0  0
   -2.8698   25.1924  -25.4488 H   0  0  0  0  0  0  0  0  0  0  0  0
    0.1480   24.6026  -29.0418 H   0  0  0  0  0  0  0  0  0  0  0  0
   -2.5754   18.1774  -32.5544 H   0  0  0  0  0  0  0  0  0  0  0  0
   -1.2843   17.5407  -34.5930 H   0  0  0  0  0  0  0  0  0  0  0  0
    0.0703   19.2547  -35.8019 H   0  0  0  0  0  0  0  0  0  0  0  0
    0.1356   21.6077  -34.9726 H   0  0  0  0  0  0  0  0  0  0  0  0
   -1.1494   22.2523  -32.9320 H   0  0  0  0  0  0  0  0  0  0  0  0
  1  2  1  0
  2  3  1  0
  3  4  1  0
  3  5  1  0
  3  6  1  0
  6  7  1  0
  7  8  2  0
  7  9  1  0
  9 10  1  0
 10 11  2  0
 11 12  1  0
 12 13  2  0
 13 14  1  0
 14 15  2  0
  9 16  1  0
 16 17  1  0
 17 18  2  0
 17 19  1  0
 19 20  2  0
 20 21  1  0
 21 22  2  0
 22 23  1  0
 23 24  1  0
 24 25  1  0
 25 26  1  0
 26 27  1  0
 22 28  1  0
 28 29  2  0
 16 30  1  0
 30 31  2  0
 31 32  1  0
 32 33  2  0
 33 34  1  0
 34 35  2  0
 15 10  1  0
 29 19  1  0
 35 30  1  0
 27 23  1  0
  1 36  1  0
  1 37  1  0
  1 38  1  0
  2 39  1  0
  2 40  1  0
  4 41  1  0
  4 42  1  0
  4 43  1  0
  5 44  1  0
  5 45  1  0
  5 46  1  0
  9 47  1  1
 11 48  1  0
 12 49  1  0
 13 50  1  0
 14 51  1  0
 15 52  1  0
 20 53  1  0
 21 54  1  0
 24 55  1  0
 24 56  1  0
 25 57  1  0
 25 58  1  0
 26 59  1  0
 26 60  1  0
 27 61  1  0
 27 62  1  0
 28 63  1  0
 31 64  1  0
 32 65  1  0
 33 66  1  0
 34 67  1  0
 35 68  1  0
M  CHG  1   6  -1
M  END
>  <UniqueID>  (3) 
3

>  <SMILES>  (3) 
CCC(C)(C)[N-]C(=O)[C@@H](c1ccccc1)N(C(=O)c1ccc(N2CCCC2)cn1)c1ccccc1

>  <Energy>  (3) 
80.36056493806092

>  <Genealogy>  (3) 
CCC(C)(C)[N-]C(=O)C(c1ccccc1)N(C(=O)c1ccc(N2CCCC2)cn1)c1ccccc1 (protonated)
CCC(C)(C)[N-]C(=O)[C@@H](c1ccccc1)N(C(=O)c1ccc(N2CCCC2)cn1)c1ccccc1 (chirality)
CCC(C)(C)[N-]C(=O)[C@@H](c1ccccc1)N(C(=O)c1ccc(N2CCCC2)cn1)c1ccccc1 (3D coordinates assigned)
CCC(C)(C)[N-]C(=O)[C@@H](c1ccccc1)N(C(=O)c1ccc(N2CCCC2)cn1)c1ccccc1 (nonaromatic ring conformer: 80.36056493806092 kcal/mol)

>  <smiles>  (3) 
CCC(C)(C)NC(=O)C(c1ccccc1)N(C(=O)c1ccc(N2CCCC2)cn1)c1ccccc1

>  <score_type>  (3) 
oracle

>  <origin>  (3) 
adg

>  <m_score__min__energy>  (3) 
-11.01

>  <m_primary>  (3) 
energy

$$$$
3:0
     RDKit          3D

 39 41  0  0  0  0  0  0  0  0999 V2000
   -3.7700   21.5220  -28.4090 O   0  0  0  0  0  0  0  0  0  0  0  0
   -3.7620   22.7140  -28.8190 C   0  0  0  0  0  0  0  0  0  0  0  0
   -3.2620   23.7520  -27.8980 C   0  0  0  0  0  0  0  0  0  0  0  0
   -3.9160   24.2700  -26.7840 C   0  0  0  0  0  0  0  0  0  0  0  0
   -3.2040   25.2950  -26.1520 C   0  0  0  0  0  0  0  0  0  0  0  0
   -1.9990   25.6030  -26.7700 C   0  0  0  0  0  0  0  0  0  0  0  0
   -1.8260   24.5990  -28.1070 S   0  0  0  0  0  0  0  0  0  0  0  0
   -4.2500   23.0130  -30.1470 N   0  0  0  0  0  0  0  0  0  0  0  0
   -4.5870   24.3900  -30.5440 C   0  0  0  0  0  0  0  0  0  0  0  0
   -5.7660   24.4830  -31.5400 C   0  0  0  0  0  0  0  0  0  0  0  0
   -6.1540   23.2010  -32.1650 N   0  0  0  0  0  0  0  0  0  0  0  0
   -7.4650   22.3980  -31.3120 S   0  0  0  0  0  0  0  0  0  0  0  0
   -8.7480   23.1340  -31.5820 O   0  0  0  0  0  0  0  0  0  0  0  0
   -7.1960   22.4780  -29.8360 O   0  0  0  0  0  0  0  0  0  0  0  0
   -7.6790   20.6920  -31.7300 C   0  0  0  0  0  0  0  0  0  0  0  0
   -6.5950   19.8010  -31.6570 C   0  0  0  0  0  0  0  0  0  0  0  0
   -6.7690   18.4500  -31.9710 C   0  0  0  0  0  0  0  0  0  0  0  0
   -8.0320   17.9720  -32.3300 C   0  0  0  0  0  0  0  0  0  0  0  0
   -9.1230   18.8430  -32.3700 C   0  0  0  0  0  0  0  0  0  0  0  0
   -8.9490   20.1960  -32.0680 C   0  0  0  0  0  0  0  0  0  0  0  0
   -4.9960   22.3280  -32.4210 C   0  0  0  0  0  0  0  0  0  0  0  0
   -4.2730   21.9260  -31.1350 C   0  0  0  0  0  0  0  0  0  0  0  0
   -4.8950   23.9094  -26.4353 H   0  0  0  0  0  0  0  0  0  0  0  0
   -3.5651   25.8094  -25.2492 H   0  0  0  0  0  0  0  0  0  0  0  0
   -1.2825   26.3704  -26.4417 H   0  0  0  0  0  0  0  0  0  0  0  0
   -4.8523   24.9565  -29.6391 H   0  0  0  0  0  0  0  0  0  0  0  0
   -3.7037   24.8007  -31.0549 H   0  0  0  0  0  0  0  0  0  0  0  0
   -6.6392   24.8783  -31.0003 H   0  0  0  0  0  0  0  0  0  0  0  0
   -5.4284   25.1360  -32.3583 H   0  0  0  0  0  0  0  0  0  0  0  0
   -6.5540   23.4340  -33.1060 H   0  0  0  0  0  0  0  0  0  0  0  0
   -5.6043   20.1685  -31.3512 H   0  0  0  0  0  0  0  0  0  0  0  0
   -5.9110   17.7626  -31.9354 H   0  0  0  0  0  0  0  0  0  0  0  0
   -8.1670   16.9096  -32.5811 H   0  0  0  0  0  0  0  0  0  0  0  0
  -10.1197   18.4636  -32.6394 H   0  0  0  0  0  0  0  0  0  0  0  0
   -9.8122   20.8773  -32.0951 H   0  0  0  0  0  0  0  0  0  0  0  0
   -5.3458   21.4172  -32.9290 H   0  0  0  0  0  0  0  0  0  0  0  0
   -4.2843   22.8893  -33.0442 H   0  0  0  0  0  0  0  0  0  0  0  0
   -4.7880   21.0590  -30.6956 H   0  0  0  0  0  0  0  0  0  0  0  0
   -3.2318   21.6845  -31.3949 H   0  0  0  0  0  0  0  0  0  0  0  0
  1  2  2  0
  2  3  1  0
  3  4  2  0
  4  5  1  0
  5  6  2  0
  6  7  1  0
  2  8  1  0
  8  9  1  0
  9 10  1  0
 10 11  1  0
 11 12  1  0
 12 13  2  0
 12 14  2  0
 12 15  1  0
 15 16  2  0
 16 17  1  0
 17 18  2  0
 18 19  1  0
 19 20  2  0
 11 21  1  0
 21 22  1  0
  7  3  1  0
 22  8  1  0
 20 15  1  0
  4 23  1  0
  5 24  1  0
  6 25  1  0
  9 26  1  0
  9 27  1  0
 10 28  1  0
 10 29  1  0
 11 30  1  0
 16 31  1  0
 17 32  1  0
 18 33  1  0
 19 34  1  0
 20 35  1  0
 21 36  1  0
 21 37  1  0
 22 38  1  0
 22 39  1  0
M  CHG  1  11   1
M  END
>  <UniqueID>  (4) 
4

>  <SMILES>  (4) 
O=C(c1cccs1)N1CC[NH+](S(=O)(=O)c2ccccc2)CC1

>  <Energy>  (4) 
76.35726007718127

>  <Genealogy>  (4) 
O=C(c1cccs1)N1CC[NH+](S(=O)(=O)c2ccccc2)CC1 (protonated)
O=C(c1cccs1)N1CC[NH+](S(=O)(=O)c2ccccc2)CC1 (3D coordinates assigned)
O=C(c1cccs1)N1CC[NH+](S(=O)(=O)c2ccccc2)CC1 (nonaromatic ring conformer: 76.35726007718127 kcal/mol)

>  <smiles>  (4) 
O=C(c1cccs1)N1CCN(S(=O)(=O)c2ccccc2)CC1

>  <score_type>  (4) 
oracle

>  <origin>  (4) 
adg

>  <m_score__min__energy>  (4) 
-7.2400000000000002

>  <m_primary>  (4) 
energy

$$$$
4:0
     RDKit          3D

 32 34  0  0  0  0  0  0  0  0999 V2000
   -9.1080   18.3080  -31.6620 Cl  0  0  0  0  0  0  0  0  0  0  0  0
   -8.0420   19.6880  -31.8600 C   0  0  0  0  0  0  0  0  0  0  0  0
   -8.4740   20.9640  -31.4890 C   0  0  0  0  0  0  0  0  0  0  0  0
   -7.6260   22.0650  -31.6450 C   0  0  0  0  0  0  0  0  0  0  0  0
   -6.3340   21.9020  -32.1760 C   0  0  0  0  0  0  0  0  0  0  0  0
   -5.4260   23.1040  -32.3420 C   0  0  1  0  0  0  0  0  0  0  0  0
   -5.8420   24.2800  -31.4460 C   0  0  0  0  0  0  0  0  0  0  0  0
   -4.9930   24.2580  -30.2710 N   0  0  0  0  0  0  0  0  0  0  0  0
   -3.9130   23.5630  -30.3850 C   0  0  0  0  0  0  0  0  0  0  0  0
   -3.0320   23.3470  -29.2740 N   0  0  0  0  0  0  0  0  0  0  0  0
   -3.0490   24.1190  -28.0620 C   0  0  0  0  0  0  0  0  0  0  0  0
   -4.2110   24.2400  -27.2830 C   0  0  0  0  0  0  0  0  0  0  0  0
   -4.1870   25.0200  -26.1230 C   0  0  0  0  0  0  0  0  0  0  0  0
   -3.0480   25.6680  -25.7570 N   0  0  0  0  0  0  0  0  0  0  0  0
   -1.9140   25.5850  -26.5060 C   0  0  0  0  0  0  0  0  0  0  0  0
   -1.8980   24.8160  -27.6720 C   0  0  0  0  0  0  0  0  0  0  0  0
   -3.7060   22.6690  -31.9130 S   0  0  0  0  0  0  0  0  0  0  0  0
   -5.9100   20.6100  -32.5470 C   0  0  0  0  0  0  0  0  0  0  0  0
   -6.7600   19.5120  -32.3870 C   0  0  0  0  0  0  0  0  0  0  0  0
   -9.4830   21.1027  -31.0735 H   0  0  0  0  0  0  0  0  0  0  0  0
   -7.9723   23.0665  -31.3500 H   0  0  0  0  0  0  0  0  0  0  0  0
   -5.5082   23.4060  -33.3965 H   0  0  0  0  0  0  0  0  0  0  0  0
   -5.7094   25.2287  -31.9868 H   0  0  0  0  0  0  0  0  0  0  0  0
   -6.9003   24.1916  -31.1594 H   0  0  0  0  0  0  0  0  0  0  0  0
   -2.3880   22.5260  -29.3270 H   0  0  0  0  0  0  0  0  0  0  0  0
   -5.1348   23.7241  -27.5837 H   0  0  0  0  0  0  0  0  0  0  0  0
   -5.0920   25.1101  -25.5042 H   0  0  0  0  0  0  0  0  0  0  0  0
   -3.0450   26.2470  -24.8890 H   0  0  0  0  0  0  0  0  0  0  0  0
   -1.0084   26.1248  -26.1922 H   0  0  0  0  0  0  0  0  0  0  0  0
   -0.9845   24.7579  -28.2821 H   0  0  0  0  0  0  0  0  0  0  0  0
   -4.9031   20.4648  -32.9654 H   0  0  0  0  0  0  0  0  0  0  0  0
   -6.4189   18.5071  -32.6766 H   0  0  0  0  0  0  0  0  0  0  0  0
  1  2  1  0
  2  3  2  0
  3  4  1  0
  4  5  2  0
  5  6  1  0
  6  7  1  0
  7  8  1  0
  8  9  2  0
  9 10  1  0
 10 11  1  0
 11 12  2  0
 12 13  1  0
 13 14  2  0
 14 15  1  0
 15 16  2  0
  9 17  1  0
  5 18  1  0
 18 19  2  0
 19  2  1  0
 17  6  1  0
 16 11  1  0
  3 20  1  0
  4 21  1  0
  6 22  1  6
  7 23  1  0
  7 24  1  0
 10 25  1  0
 12 26  1  0
 13 27  1  0
 14 28  1  0
 15 29  1  0
 16 30  1  0
 18 31  1  0
 19 32  1  0
M  CHG  1  14   1
M  END
>  <UniqueID>  (5) 
5

>  <SMILES>  (5) 
Clc1ccc([C@H]2CN=C(Nc3cc[nH+]cc3)S2)cc1

>  <Energy>  (5) 
44.53142380055507

>  <Genealogy>  (5) 
Clc1ccc(C2CN=C(Nc3cc[nH+]cc3)S2)cc1 (protonated)
Clc1ccc([C@H]2CN=C(Nc3cc[nH+]cc3)S2)cc1 (chirality)
Clc1ccc([C@H]2CN=C(Nc3cc[nH+]cc3)S2)cc1 (3D coordinates assigned)
Clc1ccc([C@H]2CN=C(Nc3cc[nH+]cc3)S2)cc1 (nonaromatic ring conformer: 44.53142380055507 kcal/mol)

>  <smiles>  (5) 
Clc1ccc(C2CN=C(Nc3ccncc3)S2)cc1

>  <score_type>  (5) 
oracle

>  <origin>  (5) 
adg

>  <m_score__min__energy>  (5) 
-6.6500000000000004

>  <m_primary>  (5) 
energy

$$$$
5:0
     RDKit          3D

 39 41  0  0  0  0  0  0  0  0999 V2000
   -9.8910   21.2250  -31.9670 C   0  0  0  0  0  0  0  0  0  0  0  0
   -8.4090   21.0830  -32.1150 C   0  0  0  0  0  0  0  0  0  0  0  0
   -7.5930   22.0890  -31.7070 N   0  0  0  0  0  0  0  0  0  0  0  0
   -6.2420   22.0080  -31.8310 C   0  0  0  0  0  0  0  0  0  0  0  0
   -5.4190   23.1070  -31.3800 N   0  0  0  0  0  0  0  0  0  0  0  0
   -5.9550   24.4730  -31.4220 C   0  0  0  0  0  0  0  0  0  0  0  0
   -5.2770   25.3430  -30.3610 C   0  0  0  0  0  0  0  0  0  0  0  0
   -3.8690   25.2540  -30.4650 O   0  0  0  0  0  0  0  0  0  0  0  0
   -3.4550   23.9400  -30.1480 C   0  0  0  0  0  0  0  0  0  0  0  0
   -3.9720   22.9390  -31.1870 C   0  0  0  0  0  0  0  0  0  0  0  0
   -5.6830   20.8590  -32.4100 C   0  0  0  0  0  0  0  0  0  0  0  0
   -6.5290   19.8220  -32.8360 C   0  0  0  0  0  0  0  0  0  0  0  0
   -5.9830   18.6260  -33.4390 N   0  0  0  0  0  0  0  0  0  0  0  0
   -4.7760   18.6000  -34.2550 C   0  0  0  0  0  0  0  0  0  0  0  0
   -4.4840   17.1300  -34.5230 C   0  0  0  0  0  0  0  0  0  0  0  0
   -5.7810   16.3890  -34.2170 C   0  0  0  0  0  0  0  0  0  0  0  0
   -6.5730   17.3040  -33.2940 C   0  0  0  0  0  0  0  0  0  0  0  0
   -7.8790   19.9620  -32.6760 N   0  0  0  0  0  0  0  0  0  0  0  0
  -10.1521   21.2500  -30.8987 H   0  0  0  0  0  0  0  0  0  0  0  0
  -10.2196   22.1587  -32.4467 H   0  0  0  0  0  0  0  0  0  0  0  0
  -10.3909   20.3706  -32.4467 H   0  0  0  0  0  0  0  0  0  0  0  0
   -5.7708   24.9046  -32.4169 H   0  0  0  0  0  0  0  0  0  0  0  0
   -7.0357   24.4395  -31.2197 H   0  0  0  0  0  0  0  0  0  0  0  0
   -5.5839   26.3898  -30.5027 H   0  0  0  0  0  0  0  0  0  0  0  0
   -5.5808   24.9870  -29.3655 H   0  0  0  0  0  0  0  0  0  0  0  0
   -2.3558   23.9035  -30.1283 H   0  0  0  0  0  0  0  0  0  0  0  0
   -3.8657   23.6695  -29.1641 H   0  0  0  0  0  0  0  0  0  0  0  0
   -3.4560   23.1094  -32.1434 H   0  0  0  0  0  0  0  0  0  0  0  0
   -3.7746   21.9176  -30.8295 H   0  0  0  0  0  0  0  0  0  0  0  0
   -4.5930   20.7711  -32.5292 H   0  0  0  0  0  0  0  0  0  0  0  0
   -4.9425   19.1356  -35.2013 H   0  0  0  0  0  0  0  0  0  0  0  0
   -3.9342   19.0923  -33.7461 H   0  0  0  0  0  0  0  0  0  0  0  0
   -4.1964   16.9816  -35.5743 H   0  0  0  0  0  0  0  0  0  0  0  0
   -3.6512   16.7625  -33.9055 H   0  0  0  0  0  0  0  0  0  0  0  0
   -6.3425   16.2007  -35.1439 H   0  0  0  0  0  0  0  0  0  0  0  0
   -5.5887   15.4115  -33.7507 H   0  0  0  0  0  0  0  0  0  0  0  0
   -7.6320   17.3231  -33.5910 H   0  0  0  0  0  0  0  0  0  0  0  0
   -6.5337   16.9569  -32.2509 H   0  0  0  0  0  0  0  0  0  0  0  0
   -8.5280   19.2050  -32.9830 H   0  0  0  0  0  0  0  0  0  0  0  0
  1  2  1  0
  2  3  2  0
  3  4  1  0
  4  5  1  0
  5  6  1  0
  6  7  1  0
  7  8  1  0
  8  9  1  0
  9 10  1  0
  4 11  2  0
 11 12  1  0
 12 13  1  0
 13 14  1  0
 14 15  1  0
 15 16  1  0
 16 17  1  0
 12 18  2  0
 18  2  1  0
 10  5  1  0
 17 13  1  0
  1 19  1  0
  1 20  1  0
  1 21  1  0
  6 22  1  0
  6 23  1  0
  7 24  1  0
  7 25  1  0
  9 26  1  0
  9 27  1  0
 10 28  1  0
 10 29  1  0
 11 30  1  0
 14 31  1  0
 14 32  1  0
 15 33  1  0
 15 34  1  0
 16 35  1  0
 16 36  1  0
 17 37  1  0
 17 38  1  0
 18 39  1  0
M  CHG  1  18   1
M  END
>  <UniqueID>  (6) 
6

>  <SMILES>  (6) 
Cc1nc(N2CCOCC2)cc(N2CCCC2)[nH+]1

>  <Energy>  (6) 
42.62369793688232

>  <Genealogy>  (6) 
Cc1nc(N2CCOCC2)cc(N2CCCC2)[nH+]1 (protonated)
Cc1nc(N2CCOCC2)cc(N2CCCC2)[nH+]1 (3D coordinates assigned)
Cc1nc(N2CCOCC2)cc(N2CCCC2)[nH+]1 (nonaromatic ring conformer: 42.62369793688232 kcal/mol)

>  <smiles>  (6) 
Cc1nc(N2CCCC2)cc(N2CCOCC2)n1

>  <score_type>  (6) 
oracle

>  <origin>  (6) 
adg

>  <m_score__min__energy>  (6) 
-7.0800000000000001

>  <m_primary>  (6) 
energy

$$$$
6:0
     RDKit          3D

 33 35  0  0  0  0  0  0  0  0999 V2000
   -2.6740   23.4440  -28.5670 C   0  0  0  0  0  0  0  0  0  0  0  0
   -2.6480   24.7370  -29.3230 C   0  0  0  0  0  0  0  0  0  0  0  0
   -1.8400   25.6350  -28.9680 O   0  0  0  0  0  0  0  0  0  0  0  0
   -3.4860   24.9700  -30.4640 N   0  0  0  0  0  0  0  0  0  0  0  0
   -4.7220   24.3090  -30.7680 C   0  0  0  0  0  0  0  0  0  0  0  0
   -5.9210   24.9100  -30.3810 C   0  0  0  0  0  0  0  0  0  0  0  0
   -7.1390   24.2840  -30.6430 C   0  0  0  0  0  0  0  0  0  0  0  0
   -7.1790   23.0370  -31.2780 C   0  0  0  0  0  0  0  0  0  0  0  0
   -8.7730   22.3570  -31.5990 Cl  0  0  0  0  0  0  0  0  0  0  0  0
   -5.9700   22.3920  -31.6420 C   0  0  0  0  0  0  0  0  0  0  0  0
   -5.9230   21.0570  -32.2930 C   0  0  0  0  0  0  0  0  0  0  0  0
   -6.8670   20.0890  -32.1320 N   0  0  0  0  0  0  0  0  0  0  0  0
   -6.3880   19.0910  -32.8920 C   0  0  0  0  0  0  0  0  0  0  0  0
   -6.9460   17.8330  -33.1060 C   0  0  0  0  0  0  0  0  0  0  0  0
   -6.2560   16.9430  -33.9610 C   0  0  0  0  0  0  0  0  0  0  0  0
   -6.7910   15.5620  -34.1940 C   0  0  0  0  0  0  0  0  0  0  0  0
   -5.0230   17.3380  -34.5430 C   0  0  0  0  0  0  0  0  0  0  0  0
   -4.4920   18.6180  -34.3000 C   0  0  0  0  0  0  0  0  0  0  0  0
   -5.2140   19.4640  -33.4660 C   0  0  0  0  0  0  0  0  0  0  0  0
   -4.9320   20.6810  -33.0890 O   0  0  0  0  0  0  0  0  0  0  0  0
   -4.7500   23.0430  -31.3740 C   0  0  0  0  0  0  0  0  0  0  0  0
   -2.6698   23.6508  -27.4866 H   0  0  0  0  0  0  0  0  0  0  0  0
   -3.5836   22.8839  -28.8296 H   0  0  0  0  0  0  0  0  0  0  0  0
   -1.7877   22.8478  -28.8296 H   0  0  0  0  0  0  0  0  0  0  0  0
   -5.9048   25.8823  -29.8668 H   0  0  0  0  0  0  0  0  0  0  0  0
   -8.0780   24.7749  -30.3477 H   0  0  0  0  0  0  0  0  0  0  0  0
   -7.8918   17.5416  -32.6259 H   0  0  0  0  0  0  0  0  0  0  0  0
   -6.9801   15.0740  -33.2265 H   0  0  0  0  0  0  0  0  0  0  0  0
   -7.7302   15.6238  -34.7632 H   0  0  0  0  0  0  0  0  0  0  0  0
   -6.0552   14.9749  -34.7632 H   0  0  0  0  0  0  0  0  0  0  0  0
   -4.4771   16.6361  -35.1906 H   0  0  0  0  0  0  0  0  0  0  0  0
   -3.5417   18.9372  -34.7527 H   0  0  0  0  0  0  0  0  0  0  0  0
   -3.8037   22.5514  -31.6440 H   0  0  0  0  0  0  0  0  0  0  0  0
  1  2  1  0
  2  3  2  0
  2  4  1  0
  4  5  1  0
  5  6  2  0
  6  7  1  0
  7  8  2  0
  8  9  1  0
  8 10  1  0
 10 11  1  0
 11 12  2  0
 12 13  1  0
 13 14  2  0
 14 15  1  0
 15 16  1  0
 15 17  2  0
 17 18  1  0
 18 19  2  0
 19 20  1  0
 10 21  2  0
 21  5  1  0
 20 11  1  0
 19 13  1  0
  1 22  1  0
  1 23  1  0
  1 24  1  0
  6 25  1  0
  7 26  1  0
 14 27  1  0
 16 28  1  0
 16 29  1  0
 16 30  1  0
 17 31  1  0
 18 32  1  0
 21 33  1  0
M  CHG  1   4  -1
M  END
>  <UniqueID>  (7) 
7

>  <SMILES>  (7) 
CC(=O)[N-]c1ccc(Cl)c(-c2nc3cc(C)ccc3o2)c1

>  <Energy>  (7) 
78.95620525321353

>  <Genealogy>  (7) 
CC(=O)[N-]c1ccc(Cl)c(-c2nc3cc(C)ccc3o2)c1 (protonated)
CC(=O)[N-]c1ccc(Cl)c(-c2nc3cc(C)ccc3o2)c1 (3D coordinates assigned)
CC(=O)[N-]c1ccc(Cl)c(-c2nc3cc(C)ccc3o2)c1 (optimized conformer: 78.95620525321353 kcal/mol)

>  <smiles>  (7) 
CC(=O)Nc1ccc(Cl)c(-c2nc3cc(C)ccc3o2)c1

>  <score_type>  (7) 
oracle

>  <origin>  (7) 
adg

>  <m_score__min__energy>  (7) 
-10.49

>  <m_primary>  (7) 
energy

$$$$
7:0
     RDKit          3D

 30 31  0  0  0  0  0  0  0  0999 V2000
   -4.3230   20.2370  -33.4740 C   0  0  0  0  0  0  0  0  0  0  0  0
   -5.3650   19.1830  -33.2090 C   0  0  0  0  0  0  0  0  0  0  0  0
   -5.2400   17.9340  -33.8430 C   0  0  0  0  0  0  0  0  0  0  0  0
   -6.1660   16.9180  -33.5980 C   0  0  0  0  0  0  0  0  0  0  0  0
   -6.0300   15.7150  -34.2080 F   0  0  0  0  0  0  0  0  0  0  0  0
   -7.2280   17.1370  -32.7190 C   0  0  0  0  0  0  0  0  0  0  0  0
   -7.3750   18.3780  -32.0970 C   0  0  0  0  0  0  0  0  0  0  0  0
   -6.4690   19.4160  -32.3550 C   0  0  0  0  0  0  0  0  0  0  0  0
   -6.6720   20.6820  -31.7050 N   0  0  0  0  0  0  0  0  0  0  0  0
   -7.8970   21.4370  -31.7940 C   0  0  0  0  0  0  0  0  0  0  0  0
   -9.2730   20.7200  -32.3340 S   0  0  0  0  0  0  0  0  0  0  0  0
   -8.0010   22.7260  -31.1670 N   0  0  0  0  0  0  0  0  0  0  0  0
   -6.8840   23.5810  -30.8730 C   0  0  0  0  0  0  0  0  0  0  0  0
   -7.0570   24.6770  -30.0170 C   0  0  0  0  0  0  0  0  0  0  0  0
   -5.9860   25.5310  -29.7440 C   0  0  0  0  0  0  0  0  0  0  0  0
   -4.7500   25.2900  -30.3460 C   0  0  0  0  0  0  0  0  0  0  0  0
   -4.6000   24.2380  -31.1930 N   0  0  0  0  0  0  0  0  0  0  0  0
   -5.6270   23.3910  -31.4720 C   0  0  0  0  0  0  0  0  0  0  0  0
   -3.9409   20.6235  -32.5176 H   0  0  0  0  0  0  0  0  0  0  0  0
   -3.4947   19.7973  -34.0490 H   0  0  0  0  0  0  0  0  0  0  0  0
   -4.7721   21.0602  -34.0490 H   0  0  0  0  0  0  0  0  0  0  0  0
   -4.4059   17.7559  -34.5376 H   0  0  0  0  0  0  0  0  0  0  0  0
   -7.9492   16.3315  -32.5164 H   0  0  0  0  0  0  0  0  0  0  0  0
   -8.2087   18.5427  -31.3986 H   0  0  0  0  0  0  0  0  0  0  0  0
   -5.9870   20.9530  -30.9640 H   0  0  0  0  0  0  0  0  0  0  0  0
   -8.9490   23.0450  -30.8620 H   0  0  0  0  0  0  0  0  0  0  0  0
   -8.0391   24.8653  -29.5588 H   0  0  0  0  0  0  0  0  0  0  0  0
   -6.1152   26.3843  -29.0619 H   0  0  0  0  0  0  0  0  0  0  0  0
   -3.8971   25.9518  -30.1348 H   0  0  0  0  0  0  0  0  0  0  0  0
   -5.4731   22.5541  -32.1691 H   0  0  0  0  0  0  0  0  0  0  0  0
  1  2  1  0
  2  3  2  0
  3  4  1  0
  4  5  1  0
  4  6  2  0
  6  7  1  0
  7  8  2  0
  8  9  1  0
  9 10  1  0
 10 11  2  0
 10 12  1  0
 12 13  1  0
 13 14  2  0
 14 15  1  0
 15 16  2  0
 16 17  1  0
 17 18  2  0
  8  2  1  0
 18 13  1  0
  1 19  1  0
  1 20  1  0
  1 21  1  0
  3 22  1  0
  6 23  1  0
  7 24  1  0
  9 25  1  0
 12 26  1  0
 14 27  1  0
 15 28  1  0
 16 29  1  0
 18 30  1  0
M  END
>  <UniqueID>  (8) 
8

>  <SMILES>  (8) 
Cc1cc(F)ccc1NC(=S)Nc1cccnc1

>  <Energy>  (8) 
41.602405058302935

>  <Genealogy>  (8) 
Cc1cc(F)ccc1NC(=S)Nc1cccnc1 (3D coordinates assigned)
Cc1cc(F)ccc1NC(=S)Nc1cccnc1 (optimized conformer: 41.602405058302935 kcal/mol)

>  <smiles>  (8) 
Cc1cc(F)ccc1NC(=S)Nc1cccnc1

>  <score_type>  (8) 
oracle

>  <origin>  (8) 
adg

>  <m_score__min__energy>  (8) 
-7.0099999999999998

>  <m_primary>  (8) 
energy

$$$$
8:0
     RDKit          3D

 39 39  0  0  0  0  0  0  0  0999 V2000
   -8.0630   19.9200  -32.6530 C   0  0  0  0  0  0  0  0  0  0  0  0
   -9.1650   20.7650  -32.0130 C   0  0  0  0  0  0  0  0  0  0  0  0
   -8.6150   21.9280  -31.1680 C   0  0  0  0  0  0  0  0  0  0  0  0
   -7.9880   23.0810  -31.9760 C   0  0  0  0  0  0  0  0  0  0  0  0
   -6.5430   23.4440  -31.5880 C   0  0  0  0  0  0  0  0  0  0  0  0
   -6.4080   23.8610  -30.1120 C   0  0  0  0  0  0  0  0  0  0  0  0
   -4.9660   23.7310  -29.6010 C   0  0  0  0  0  0  0  0  0  0  0  0
   -4.0970   24.8480  -30.0920 C   0  0  0  0  0  0  0  0  0  0  0  0
   -4.5480   25.6580  -30.9450 O   0  0  0  0  0  0  0  0  0  0  0  0
   -2.7350   24.9230  -29.6550 N   0  0  0  0  0  0  0  0  0  0  0  0
   -2.0050   23.9090  -28.9470 C   0  0  0  0  0  0  0  0  0  0  0  0
   -1.2080   22.9710  -29.6290 C   0  0  0  0  0  0  0  0  0  0  0  0
   -0.4910   22.0040  -28.9200 C   0  0  0  0  0  0  0  0  0  0  0  0
   -0.5510   21.9700  -27.5260 C   0  0  0  0  0  0  0  0  0  0  0  0
   -1.3200   22.9100  -26.8350 C   0  0  0  0  0  0  0  0  0  0  0  0
   -2.0430   23.8890  -27.5360 C   0  0  0  0  0  0  0  0  0  0  0  0
   -2.8720   24.8930  -26.7830 C   0  0  0  0  0  0  0  0  0  0  0  0
   -7.4543   19.4532  -31.8646 H   0  0  0  0  0  0  0  0  0  0  0  0
   -8.5175   19.1367  -33.2774 H   0  0  0  0  0  0  0  0  0  0  0  0
   -7.4245   20.5622  -33.2774 H   0  0  0  0  0  0  0  0  0  0  0  0
   -9.7973   21.1801  -32.8117 H   0  0  0  0  0  0  0  0  0  0  0  0
   -9.7345   20.1083  -31.3389 H   0  0  0  0  0  0  0  0  0  0  0  0
   -9.4439   22.3394  -30.5733 H   0  0  0  0  0  0  0  0  0  0  0  0
   -7.8048   21.5062  -30.5551 H   0  0  0  0  0  0  0  0  0  0  0  0
   -7.9933   22.7944  -33.0380 H   0  0  0  0  0  0  0  0  0  0  0  0
   -8.5953   23.9718  -31.7579 H   0  0  0  0  0  0  0  0  0  0  0  0
   -5.9009   22.5687  -31.7660 H   0  0  0  0  0  0  0  0  0  0  0  0
   -6.2409   24.3039  -32.2039 H   0  0  0  0  0  0  0  0  0  0  0  0
   -6.7268   24.9088  -30.0095 H   0  0  0  0  0  0  0  0  0  0  0  0
   -7.0400   23.1892  -29.5126 H   0  0  0  0  0  0  0  0  0  0  0  0
   -4.9758   23.7450  -28.5011 H   0  0  0  0  0  0  0  0  0  0  0  0
   -4.5532   22.7851  -29.9817 H   0  0  0  0  0  0  0  0  0  0  0  0
   -1.1492   22.9993  -30.7271 H   0  0  0  0  0  0  0  0  0  0  0  0
    0.1218   21.2682  -29.4613 H   0  0  0  0  0  0  0  0  0  0  0  0
    0.0078   21.2023  -26.9707 H   0  0  0  0  0  0  0  0  0  0  0  0
   -1.3593   22.8831  -25.7360 H   0  0  0  0  0  0  0  0  0  0  0  0
   -2.7435   24.7374  -25.7017 H   0  0  0  0  0  0  0  0  0  0  0  0
   -2.5468   25.9098  -27.0483 H   0  0  0  0  0  0  0  0  0  0  0  0
   -3.9320   24.7661  -27.0483 H   0  0  0  0  0  0  0  0  0  0  0  0
  1  2  1  0
  2  3  1  0
  3  4  1  0
  4  5  1  0
  5  6  1  0
  6  7  1  0
  7  8  1  0
  8  9  2  0
  8 10  1  0
 10 11  1  0
 11 12  2  0
 12 13  1  0
 13 14  2  0
 14 15  1  0
 15 16  2  0
 16 17  1  0
 16 11  1  0
  1 18  1  0
  1 19  1  0
  1 20  1  0
  2 21  1  0
  2 22  1  0
  3 23  1  0
  3 24  1  0
  4 25  1  0
  4 26  1  0
  5 27  1  0
  5 28  1  0
  6 29  1  0
  6 30  1  0
  7 31  1  0
  7 32  1  0
 12 33  1  0
 13 34  1  0
 14 35  1  0
 15 36  1  0
 17 37  1  0
 17 38  1  0
 17 39  1  0
M  CHG  1  10  -1
M  END
>  <UniqueID>  (9) 
9

>  <SMILES>  (9) 
CCCCCCCC(=O)[N-]c1ccccc1C

>  <Energy>  (9) 
28.771813766999482

>  <Genealogy>  (9) 
CCCCCCCC(=O)[N-]c1ccccc1C (protonated)
CCCCCCCC(=O)[N-]c1ccccc1C (3D coordinates assigned)
CCCCCCCC(=O)[N-]c1ccccc1C (optimized conformer: 28.771813766999482 kcal/mol)

>  <smiles>  (9) 
CCCCCCCC(=O)Nc1ccccc1C

>  <score_type>  (9) 
oracle

>  <origin>  (9) 
adg

>  <m_score__min__energy>  (9) 
-8.1899999999999995

>  <m_primary>  (9) 
energy

$$$$
9:0
     RDKit          3D

 56 59  0  0  0  0  0  0  0  0999 V2000
   -5.4640   18.1170  -34.5880 C   0  0  0  0  0  0  0  0  0  0  0  0
   -4.8010   19.2780  -34.1390 O   0  0  0  0  0  0  0  0  0  0  0  0
   -3.4790   18.9490  -33.7690 C   0  0  0  0  0  0  0  0  0  0  0  0
   -3.2610   19.3050  -32.2990 C   0  0  0  0  0  0  0  0  0  0  0  0
   -2.4200   20.5200  -32.1850 N   0  0  0  0  0  0  0  0  0  0  0  0
   -2.5510   21.4110  -33.3710 C   0  0  0  0  0  0  0  0  0  0  0  0
   -3.8820   22.2160  -33.3970 C   0  0  0  0  0  0  0  0  0  0  0  0
   -4.4690   22.3620  -31.9870 C   0  0  1  0  0  0  0  0  0  0  0  0
   -3.3470   22.5430  -30.9990 C   0  0  2  0  0  0  0  0  0  0  0  0
   -2.5460   21.2320  -30.8760 C   0  0  0  0  0  0  0  0  0  0  0  0
   -4.0850   23.0420  -29.7630 C   0  0  1  0  0  0  0  0  0  0  0  0
   -3.1970   23.8320  -28.8170 C   0  0  0  0  0  0  0  0  0  0  0  0
   -1.8800   24.1880  -29.1710 C   0  0  0  0  0  0  0  0  0  0  0  0
   -1.0750   24.9000  -28.2770 C   0  0  0  0  0  0  0  0  0  0  0  0
   -1.5710   25.2620  -27.0230 C   0  0  0  0  0  0  0  0  0  0  0  0
   -2.8720   24.9080  -26.6590 C   0  0  0  0  0  0  0  0  0  0  0  0
   -3.6820   24.1960  -27.5490 C   0  0  0  0  0  0  0  0  0  0  0  0
   -5.2540   23.8600  -30.3590 C   0  0  0  0  0  0  0  0  0  0  0  0
   -5.3170   23.5420  -31.8010 N   0  0  0  0  0  0  0  0  0  0  0  0
   -6.6850   23.4480  -32.3650 C   0  0  0  0  0  0  0  0  0  0  0  0
   -7.3990   22.1340  -32.1060 C   0  0  0  0  0  0  0  0  0  0  0  0
   -7.0560   20.9800  -32.8350 C   0  0  0  0  0  0  0  0  0  0  0  0
   -7.7210   19.7730  -32.6060 C   0  0  0  0  0  0  0  0  0  0  0  0
   -8.7490   19.7080  -31.6630 C   0  0  0  0  0  0  0  0  0  0  0  0
   -9.1210   20.8540  -30.9560 C   0  0  0  0  0  0  0  0  0  0  0  0
   -8.4570   22.0630  -31.1810 C   0  0  0  0  0  0  0  0  0  0  0  0
   -5.8001   17.5285  -33.7216 H   0  0  0  0  0  0  0  0  0  0  0  0
   -6.3344   18.4039  -35.1963 H   0  0  0  0  0  0  0  0  0  0  0  0
   -4.7746   17.5131  -35.1963 H   0  0  0  0  0  0  0  0  0  0  0  0
   -3.3146   17.8711  -33.9140 H   0  0  0  0  0  0  0  0  0  0  0  0
   -2.7709   19.5138  -34.3932 H   0  0  0  0  0  0  0  0  0  0  0  0
   -4.2346   19.4912  -31.8222 H   0  0  0  0  0  0  0  0  0  0  0  0
   -2.7514   18.4680  -31.7992 H   0  0  0  0  0  0  0  0  0  0  0  0
   -1.7130   22.1235  -33.3657 H   0  0  0  0  0  0  0  0  0  0  0  0
   -2.5445   20.7668  -34.2626 H   0  0  0  0  0  0  0  0  0  0  0  0
   -3.6882   23.2167  -33.8105 H   0  0  0  0  0  0  0  0  0  0  0  0
   -4.6061   21.6722  -34.0215 H   0  0  0  0  0  0  0  0  0  0  0  0
   -5.0699   21.4527  -31.8381 H   0  0  0  0  0  0  0  0  0  0  0  0
   -2.5554   23.2605  -31.2611 H   0  0  0  0  0  0  0  0  0  0  0  0
   -1.5384   21.4666  -30.5023 H   0  0  0  0  0  0  0  0  0  0  0  0
   -3.0869   20.5704  -30.1833 H   0  0  0  0  0  0  0  0  0  0  0  0
   -4.4385   22.2268  -29.1146 H   0  0  0  0  0  0  0  0  0  0  0  0
   -1.4832   23.9038  -30.1568 H   0  0  0  0  0  0  0  0  0  0  0  0
   -0.0489   25.1756  -28.5620 H   0  0  0  0  0  0  0  0  0  0  0  0
   -0.9375   25.8256  -26.3223 H   0  0  0  0  0  0  0  0  0  0  0  0
   -3.2606   25.1901  -25.6693 H   0  0  0  0  0  0  0  0  0  0  0  0
   -4.7051   23.9190  -27.2550 H   0  0  0  0  0  0  0  0  0  0  0  0
   -6.1984   23.5801  -29.8694 H   0  0  0  0  0  0  0  0  0  0  0  0
   -5.0974   24.9375  -30.2024 H   0  0  0  0  0  0  0  0  0  0  0  0
   -7.2899   24.2564  -31.9285 H   0  0  0  0  0  0  0  0  0  0  0  0
   -6.5725   23.5257  -33.4565 H   0  0  0  0  0  0  0  0  0  0  0  0
   -6.2583   21.0288  -33.5908 H   0  0  0  0  0  0  0  0  0  0  0  0
   -7.4345   18.8726  -33.1692 H   0  0  0  0  0  0  0  0  0  0  0  0
   -9.2656   18.7548  -31.4770 H   0  0  0  0  0  0  0  0  0  0  0  0
   -9.9379   20.8047  -30.2210 H   0  0  0  0  0  0  0  0  0  0  0  0
   -8.7635   22.9651  -30.6313 H   0  0  0  0  0  0  0  0  0  0  0  0
  1  2  1  0
  2  3  1  0
  3  4  1  0
  4  5  1  0
  5  6  1  0
  6  7  1  0
  7  8  1  0
  8  9  1  0
  9 10  1  0
  9 11  1  0
 11 12  1  0
 12 13  2  0
 13 14  1  0
 14 15  2  0
 15 16  1  0
 16 17  2  0
 11 18  1  0
 18 19  1  0
 19 20  1  0
 20 21  1  0
 21 22  2  0
 22 23  1  0
 23 24  2  0
 24 25  1  0
 25 26  2  0
 10  5  1  0
 17 12  1  0
 26 21  1  0
 19  8  1  0
  1 27  1  0
  1 28  1  0
  1 29  1  0
  3 30  1  0
  3 31  1  0
  4 32  1  0
  4 33  1  0
  6 34  1  0
  6 35  1  0
  7 36  1  0
  7 37  1  0
  8 38  1  1
  9 39  1  6
 10 40  1  0
 10 41  1  0
 11 42  1  1
 13 43  1  0
 14 44  1  0
 15 45  1  0
 16 46  1  0
 17 47  1  0
 18 48  1  0
 18 49  1  0
 20 50  1  0
 20 51  1  0
 22 52  1  0
 23 53  1  0
 24 54  1  0
 25 55  1  0
 26 56  1  0
M  END
>  <UniqueID>  (10) 
10

>  <SMILES>  (10) 
COCCN1CC[C@H]2[C@H](C1)C(c1ccccc1)CN2Cc1ccccc1

>  <Energy>  (10) 
83.40261750568114

>  <Genealogy>  (10) 
COCCN1CC[C@H]2[C@H](C1)C(c1ccccc1)CN2Cc1ccccc1 (chirality)
COCCN1CC[C@H]2[C@H](C1)C(c1ccccc1)CN2Cc1ccccc1 (3D coordinates assigned)
COCCN1CC[C@H]2[C@H](C1)C(c1ccccc1)CN2Cc1ccccc1 (nonaromatic ring conformer: 83.40261750568114 kcal/mol)

>  <smiles>  (10) 
COCCN1CCC2C(C1)C(c1ccccc1)CN2Cc1ccccc1

>  <score_type>  (10) 
oracle

>  <origin>  (10) 
adg

>  <m_score__min__energy>  (10) 
-8.6899999999999995

>  <m_primary>  (10) 
energy

$$$$
10:0
     RDKit          3D

 38 41  0  0  0  0  0  0  0  0999 V2000
    0.9680   24.1090  -27.7790 C   0  0  0  0  0  0  0  0  0  0  0  0
   -0.0640   24.5830  -28.5830 O   0  0  0  0  0  0  0  0  0  0  0  0
   -1.4190   24.5260  -28.3110 C   0  0  0  0  0  0  0  0  0  0  0  0
   -1.7850   24.8100  -26.9890 C   0  0  0  0  0  0  0  0  0  0  0  0
   -3.1060   24.7860  -26.5880 C   0  0  0  0  0  0  0  0  0  0  0  0
   -4.0560   24.4730  -27.5400 C   0  0  0  0  0  0  0  0  0  0  0  0
   -3.7060   24.1880  -28.8560 C   0  0  0  0  0  0  0  0  0  0  0  0
   -4.7950   23.8680  -29.7690 C   0  0  0  0  0  0  0  0  0  0  0  0
   -5.7970   24.8270  -29.9420 C   0  0  0  0  0  0  0  0  0  0  0  0
   -6.8430   24.5500  -30.8020 C   0  0  0  0  0  0  0  0  0  0  0  0
   -6.9200   23.3980  -31.4650 N   0  0  0  0  0  0  0  0  0  0  0  0
   -5.9600   22.4480  -31.3150 C   0  0  0  0  0  0  0  0  0  0  0  0
   -6.0530   21.1970  -32.0340 C   0  0  0  0  0  0  0  0  0  0  0  0
   -6.6630   20.0800  -31.5850 N   0  0  0  0  0  0  0  0  0  0  0  0
   -6.5760   19.0810  -32.4810 C   0  0  0  0  0  0  0  0  0  0  0  0
   -7.0600   17.7900  -32.4110 C   0  0  0  0  0  0  0  0  0  0  0  0
   -6.8350   16.9390  -33.4780 C   0  0  0  0  0  0  0  0  0  0  0  0
   -6.1260   17.4230  -34.5830 C   0  0  0  0  0  0  0  0  0  0  0  0
   -5.6540   18.7320  -34.6120 C   0  0  0  0  0  0  0  0  0  0  0  0
   -5.8800   19.5830  -33.5420 C   0  0  0  0  0  0  0  0  0  0  0  0
   -5.5750   20.8590  -33.2510 N   0  0  0  0  0  0  0  0  0  0  0  0
   -4.8820   22.6760  -30.4600 C   0  0  0  0  0  0  0  0  0  0  0  0
   -2.3860   24.2190  -29.2280 C   0  0  0  0  0  0  0  0  0  0  0  0
    0.6954   24.2342  -26.7207 H   0  0  0  0  0  0  0  0  0  0  0  0
    1.1374   23.0429  -27.9904 H   0  0  0  0  0  0  0  0  0  0  0  0
    1.8871   24.6752  -27.9904 H   0  0  0  0  0  0  0  0  0  0  0  0
   -1.0038   25.0573  -26.2551 H   0  0  0  0  0  0  0  0  0  0  0  0
   -3.3910   25.0079  -25.5490 H   0  0  0  0  0  0  0  0  0  0  0  0
   -5.1169   24.4484  -27.2504 H   0  0  0  0  0  0  0  0  0  0  0  0
   -5.7539   25.7851  -29.4033 H   0  0  0  0  0  0  0  0  0  0  0  0
   -7.6335   25.3019  -30.9425 H   0  0  0  0  0  0  0  0  0  0  0  0
   -7.6132   17.4452  -31.5249 H   0  0  0  0  0  0  0  0  0  0  0  0
   -7.2056   15.9035  -33.4583 H   0  0  0  0  0  0  0  0  0  0  0  0
   -5.9391   16.7598  -35.4405 H   0  0  0  0  0  0  0  0  0  0  0  0
   -5.0981   19.0933  -35.4898 H   0  0  0  0  0  0  0  0  0  0  0  0
   -5.0380   21.5040  -33.8890 H   0  0  0  0  0  0  0  0  0  0  0  0
   -4.1036   21.9086  -30.3366 H   0  0  0  0  0  0  0  0  0  0  0  0
   -2.1043   23.9961  -30.2677 H   0  0  0  0  0  0  0  0  0  0  0  0
  1  2  1  0
  2  3  1  0
  3  4  2  0
  4  5  1  0
  5  6  2  0
  6  7  1  0
  7  8  1  0
  8  9  2  0
  9 10  1  0
 10 11  2  0
 11 12  1  0
 12 13  1  0
 13 14  2  0
 14 15  1  0
 15 16  2  0
 16 17  1  0
 17 18  2  0
 18 19  1  0
 19 20  2  0
 20 21  1  0
 12 22  2  0
  7 23  2  0
 23  3  1  0
 22  8  1  0
 21 13  1  0
 20 15  1  0
  1 24  1  0
  1 25  1  0
  1 26  1  0
  4 27  1  0
  5 28  1  0
  6 29  1  0
  9 30  1  0
 10 31  1  0
 16 32  1  0
 17 33  1  0
 18 34  1  0
 19 35  1  0
 21 36  1  0
 22 37  1  0
 23 38  1  0
M  END
>  <smiles>  (11) 
COc1cccc(-c2ccnc(-c3nc4ccccc4[nH]3)c2)c1

>  <score_type>  (11) 
oracle

>  <origin>  (11) 
adg

>  <m_score__min__energy>  (11) 
-8.4199999999999999

>  <m_primary>  (11) 
energy

$$$$
11:0
     RDKit          3D

 56 58  0  0  0  0  0  0  0  0999 V2000
   -3.5660   21.1290  -33.4220 C   0  0  0  0  0  0  0  0  0  0  0  0
   -2.0990   21.1010  -33.3930 N   0  0  0  0  0  0  0  0  0  0  0  0
   -1.5910   20.1170  -34.3580 C   0  0  0  0  0  0  0  0  0  0  0  0
   -1.5440   20.6940  -31.7870 S   0  0  0  0  0  0  0  0  0  0  0  0
   -2.0950   19.3530  -31.3930 O   0  0  0  0  0  0  0  0  0  0  0  0
   -0.0440   20.5980  -31.7870 O   0  0  0  0  0  0  0  0  0  0  0  0
   -2.0470   21.9030  -30.6030 C   0  0  0  0  0  0  0  0  0  0  0  0
   -1.7860   21.7070  -29.2400 C   0  0  0  0  0  0  0  0  0  0  0  0
   -2.1800   22.6680  -28.3050 C   0  0  0  0  0  0  0  0  0  0  0  0
   -2.8470   23.8220  -28.7250 C   0  0  0  0  0  0  0  0  0  0  0  0
   -3.1400   24.0190  -30.0790 C   0  0  0  0  0  0  0  0  0  0  0  0
   -3.8160   25.2220  -30.4710 N   0  0  0  0  0  0  0  0  0  0  0  0
   -5.2020   25.3430  -30.8170 C   0  0  0  0  0  0  0  0  0  0  0  0
   -5.8650   26.3590  -30.4740 O   0  0  0  0  0  0  0  0  0  0  0  0
   -5.8460   24.2850  -31.6590 C   0  0  0  0  0  0  0  0  0  0  0  0
   -6.6450   23.3590  -30.8290 N   0  0  0  0  0  0  0  0  0  0  0  0
   -5.8490   22.1730  -30.4190 C   0  0  0  0  0  0  0  0  0  0  0  0
   -6.2100   20.9200  -31.2260 C   0  0  0  0  0  0  0  0  0  0  0  0
   -7.6300   20.5560  -31.0350 N   0  0  0  0  0  0  0  0  0  0  0  0
   -8.1540   19.5070  -32.3300 S   0  0  0  0  0  0  0  0  0  0  0  0
   -8.7680   20.3220  -33.4340 O   0  0  0  0  0  0  0  0  0  0  0  0
   -9.1830   18.5400  -31.8140 O   0  0  0  0  0  0  0  0  0  0  0  0
   -6.7810   18.5920  -32.9480 C   0  0  0  0  0  0  0  0  0  0  0  0
   -6.3690   17.4060  -32.3200 C   0  0  0  0  0  0  0  0  0  0  0  0
   -5.2950   16.6740  -32.8360 C   0  0  0  0  0  0  0  0  0  0  0  0
   -4.6300   17.1200  -33.9840 C   0  0  0  0  0  0  0  0  0  0  0  0
   -3.2830   16.2010  -34.6310 Cl  0  0  0  0  0  0  0  0  0  0  0  0
   -5.0420   18.2980  -34.6160 C   0  0  0  0  0  0  0  0  0  0  0  0
   -6.1150   19.0310  -34.1010 C   0  0  0  0  0  0  0  0  0  0  0  0
   -8.5320   21.7250  -30.9000 C   0  0  0  0  0  0  0  0  0  0  0  0
   -7.9260   23.0060  -31.4930 C   0  0  0  0  0  0  0  0  0  0  0  0
   -2.7160   23.0630  -31.0220 C   0  0  0  0  0  0  0  0  0  0  0  0
   -3.9530   21.1364  -32.3924 H   0  0  0  0  0  0  0  0  0  0  0  0
   -3.9051   22.0338  -33.9477 H   0  0  0  0  0  0  0  0  0  0  0  0
   -3.9394   20.2378  -33.9477 H   0  0  0  0  0  0  0  0  0  0  0  0
   -1.1516   19.2659  -33.8170 H   0  0  0  0  0  0  0  0  0  0  0  0
   -2.4185   19.7621  -34.9898 H   0  0  0  0  0  0  0  0  0  0  0  0
   -0.8224   20.5861  -34.9898 H   0  0  0  0  0  0  0  0  0  0  0  0
   -1.2700   20.7949  -28.9055 H   0  0  0  0  0  0  0  0  0  0  0  0
   -1.9648   22.5159  -27.2370 H   0  0  0  0  0  0  0  0  0  0  0  0
   -3.1438   24.5808  -27.9860 H   0  0  0  0  0  0  0  0  0  0  0  0
   -6.5047   24.7650  -32.3977 H   0  0  0  0  0  0  0  0  0  0  0  0
   -5.0554   23.7096  -32.1629 H   0  0  0  0  0  0  0  0  0  0  0  0
   -4.7820   22.3946  -30.5688 H   0  0  0  0  0  0  0  0  0  0  0  0
   -6.0731   21.9675  -29.3619 H   0  0  0  0  0  0  0  0  0  0  0  0
   -6.0295   21.1155  -32.2933 H   0  0  0  0  0  0  0  0  0  0  0  0
   -5.5848   20.0858  -30.8751 H   0  0  0  0  0  0  0  0  0  0  0  0
   -6.8923   17.0516  -31.4197 H   0  0  0  0  0  0  0  0  0  0  0  0
   -4.9726   15.7470  -32.3393 H   0  0  0  0  0  0  0  0  0  0  0  0
   -4.5209   18.6479  -35.5194 H   0  0  0  0  0  0  0  0  0  0  0  0
   -6.4380   19.9555  -34.6021 H   0  0  0  0  0  0  0  0  0  0  0  0
   -9.4746   21.5057  -31.4228 H   0  0  0  0  0  0  0  0  0  0  0  0
   -8.6965   21.8985  -29.8263 H   0  0  0  0  0  0  0  0  0  0  0  0
   -7.7416   22.8508  -32.5663 H   0  0  0  0  0  0  0  0  0  0  0  0
   -8.6366   23.8304  -31.3335 H   0  0  0  0  0  0  0  0  0  0  0  0
   -2.9102   23.2264  -32.0923 H   0  0  0  0  0  0  0  0  0  0  0  0
  1  2  1  0
  2  3  1  0
  2  4  1  0
  4  5  2  0
  4  6  2  0
  4  7  1  0
  7  8  2  0
  8  9  1  0
  9 10  2  0
 10 11  1  0
 11 12  1  0
 12 13  1  0
 13 14  2  0
 13 15  1  0
 15 16  1  0
 16 17  1  0
 17 18  1  0
 18 19  1  0
 19 20  1  0
 20 21  2  0
 20 22  2  0
 20 23  1  0
 23 24  2  0
 24 25  1  0
 25 26  2  0
 26 27  1  0
 26 28  1  0
 28 29  2  0
 19 30  1  0
 30 31  1  0
 11 32  2  0
 32  7  1  0
 31 16  1  0
 29 23  1  0
  1 33  1  0
  1 34  1  0
  1 35  1  0
  3 36  1  0
  3 37  1  0
  3 38  1  0
  8 39  1  0
  9 40  1  0
 10 41  1  0
 15 42  1  0
 15 43  1  0
 17 44  1  0
 17 45  1  0
 18 46  1  0
 18 47  1  0
 24 48  1  0
 25 49  1  0
 28 50  1  0
 29 51  1  0
 30 52  1  0
 30 53  1  0
 31 54  1  0
 31 55  1  0
 32 56  1  0
M  CHG  1  12  -1
M  END
>  <UniqueID>  (12) 
11

>  <SMILES>  (12) 
CN(C)S(=O)(=O)c1cccc([N-]C(=O)CN2CCN(S(=O)(=O)c3ccc(Cl)cc3)CC2)c1

>  <Energy>  (12) 
67.85761430286276

>  <Genealogy>  (12) 
CN(C)S(=O)(=O)c1cccc([N-]C(=O)CN2CCN(S(=O)(=O)c3ccc(Cl)cc3)CC2)c1 (protonated)
CN(C)S(=O)(=O)c1cccc([N-]C(=O)CN2CCN(S(=O)(=O)c3ccc(Cl)cc3)CC2)c1 (3D coordinates assigned)
CN(C)S(=O)(=O)c1cccc([N-]C(=O)CN2CCN(S(=O)(=O)c3ccc(Cl)cc3)CC2)c1 (nonaromatic ring conformer: 67.85761430286276 kcal/mol)

>  <smiles>  (12) 
CN(C)S(=O)(=O)c1cccc(NC(=O)CN2CCN(S(=O)(=O)c3ccc(Cl)cc3)CC2)c1

>  <score_type>  (12) 
oracle

>  <origin>  (12) 
adg

>  <m_score__min__energy>  (12) 
-12.08

>  <m_primary>  (12) 
energy

$$$$
12:0
     RDKit          3D

 63 66  0  0  0  0  0  0  0  0999 V2000
   -1.1550   26.1440  -28.4391 H   0  0  0  0  0  0  0  0  0  0  0  0
   -1.6010   25.2530  -28.9050 C   0  0  0  0  0  0  0  0  0  0  0  0
   -2.8820   25.2960  -29.3430 N   0  0  0  0  0  0  0  0  0  0  0  0
   -3.4840   24.2240  -29.9120 C   0  0  0  0  0  0  0  0  0  0  0  0
   -4.8140   24.3270  -30.3310 C   0  0  0  0  0  0  0  0  0  0  0  0
   -5.3517   25.2779  -30.2020 H   0  0  0  0  0  0  0  0  0  0  0  0
   -5.4730   23.2310  -30.9150 C   0  0  0  0  0  0  0  0  0  0  0  0
   -6.8540   23.3250  -31.3200 N   0  0  0  0  0  0  0  0  0  0  0  0
   -7.6060   23.2740  -30.5980 H   0  0  0  0  0  0  0  0  0  0  0  0
   -7.2760   23.4480  -32.7090 C   0  0  0  0  0  0  0  0  0  0  0  0
   -8.3315   23.7556  -32.7457 H   0  0  0  0  0  0  0  0  0  0  0  0
   -6.6563   24.2029  -33.2150 H   0  0  0  0  0  0  0  0  0  0  0  0
   -7.1589   22.4784  -33.2150 H   0  0  0  0  0  0  0  0  0  0  0  0
   -4.7680   22.0200  -31.0800 C   0  0  0  0  0  0  0  0  0  0  0  0
   -5.3880   20.8950  -31.7170 N   0  0  0  0  0  0  0  0  0  0  0  0
   -6.7030   20.4420  -31.2440 C   0  0  0  0  0  0  0  0  0  0  0  0
   -6.6094   20.0930  -30.2050 H   0  0  0  0  0  0  0  0  0  0  0  0
   -7.4052   21.2862  -31.3091 H   0  0  0  0  0  0  0  0  0  0  0  0
   -7.2410   19.2980  -32.1080 C   0  0  0  0  0  0  0  0  0  0  0  0
   -6.7403   18.3602  -31.8254 H   0  0  0  0  0  0  0  0  0  0  0  0
   -8.3252   19.2016  -31.9491 H   0  0  0  0  0  0  0  0  0  0  0  0
   -6.9710   19.5930  -33.5850 C   0  0  0  0  0  0  0  0  0  0  0  0
   -7.4115   18.7888  -34.1926 H   0  0  0  0  0  0  0  0  0  0  0  0
   -7.4219   20.5681  -33.8211 H   0  0  0  0  0  0  0  0  0  0  0  0
   -5.4510   19.6830  -33.9010 C   0  0  2  0  0  0  0  0  0  0  0  0
   -5.3168   20.4899  -34.6364 H   0  0  0  0  0  0  0  0  0  0  0  0
   -4.9430   18.3580  -34.5320 C   0  0  0  0  0  0  0  0  0  0  0  0
   -5.7708   17.9050  -35.0973 H   0  0  0  0  0  0  0  0  0  0  0  0
   -4.0855   18.6188  -35.1697 H   0  0  0  0  0  0  0  0  0  0  0  0
   -4.4320   17.3180  -33.4980 C   0  0  0  0  0  0  0  0  0  0  0  0
   -3.7044   16.6648  -34.0020 H   0  0  0  0  0  0  0  0  0  0  0  0
   -3.9986   17.8963  -32.6687 H   0  0  0  0  0  0  0  0  0  0  0  0
   -5.4800   16.4630  -32.9020 N   0  0  0  0  0  0  0  0  0  0  0  0
   -4.9430   15.2540  -32.2610 C   0  0  0  0  0  0  0  0  0  0  0  0
   -4.9926   15.3657  -31.1678 H   0  0  0  0  0  0  0  0  0  0  0  0
   -5.5381   14.3812  -32.5678 H   0  0  0  0  0  0  0  0  0  0  0  0
   -3.8964   15.1104  -32.5678 H   0  0  0  0  0  0  0  0  0  0  0  0
   -6.5720   16.1400  -33.8320 C   0  0  0  0  0  0  0  0  0  0  0  0
   -7.4734   15.8734  -33.2607 H   0  0  0  0  0  0  0  0  0  0  0  0
   -6.7846   17.0137  -34.4656 H   0  0  0  0  0  0  0  0  0  0  0  0
   -6.2751   15.2912  -34.4656 H   0  0  0  0  0  0  0  0  0  0  0  0
   -4.6090   20.0790  -32.6540 C   0  0  0  0  0  0  0  0  0  0  0  0
   -4.2776   19.1640  -32.1412 H   0  0  0  0  0  0  0  0  0  0  0  0
   -3.7467   20.6716  -32.9936 H   0  0  0  0  0  0  0  0  0  0  0  0
   -3.4320   21.9210  -30.6680 C   0  0  0  0  0  0  0  0  0  0  0  0
   -2.8909   20.9735  -30.8077 H   0  0  0  0  0  0  0  0  0  0  0  0
   -2.7720   23.0160  -30.0780 C   0  0  0  0  0  0  0  0  0  0  0  0
   -1.4150   22.9450  -29.6720 C   0  0  0  0  0  0  0  0  0  0  0  0
   -0.7640   21.8290  -29.8880 N   0  0  0  0  0  0  0  0  0  0  0  0
   -0.7270   20.6270  -29.1080 C   0  0  0  0  0  0  0  0  0  0  0  0
    0.3580   19.7510  -29.2390 C   0  0  0  0  0  0  0  0  0  0  0  0
    1.1488   19.9628  -29.9737 H   0  0  0  0  0  0  0  0  0  0  0  0
    0.4380   18.6080  -28.4380 C   0  0  0  0  0  0  0  0  0  0  0  0
    1.2825   17.9132  -28.5562 H   0  0  0  0  0  0  0  0  0  0  0  0
   -0.5530   18.3460  -27.4870 C   0  0  0  0  0  0  0  0  0  0  0  0
   -0.4650   17.2330  -26.7170 F   0  0  0  0  0  0  0  0  0  0  0  0
   -1.6220   19.2370  -27.3270 C   0  0  0  0  0  0  0  0  0  0  0  0
   -2.8630   18.9290  -26.1240 Cl  0  0  0  0  0  0  0  0  0  0  0  0
   -1.7000   20.3830  -28.1260 C   0  0  0  0  0  0  0  0  0  0  0  0
   -2.5264   21.0950  -27.9842 H   0  0  0  0  0  0  0  0  0  0  0  0
   -0.8390   24.0870  -29.0390 C   0  0  0  0  0  0  0  0  0  0  0  0
    0.4590   24.0870  -28.4060 C   0  0  0  0  0  0  0  0  0  0  0  0
    1.4980   24.0980  -27.8940 N   0  0  0  0  0  0  0  0  0  0  0  0
  1  2  1  0
  2  3  1  0
  3  4  1  0
  4  5  2  0
  5  6  1  0
  5  7  1  0
  7  8  1  0
  8  9  1  0
  8 10  1  0
 10 11  1  0
 10 12  1  0
 10 13  1  0
  7 14  2  0
 14 15  1  0
 15 16  1  0
 16 17  1  0
 16 18  1  0
 16 19  1  0
 19 20  1  0
 19 21  1  0
 19 22  1  0
 22 23  1  0
 22 24  1  0
 22 25  1  0
 25 26  1  6
 25 27  1  0
 27 28  1  0
 27 29  1  0
 27 30  1  0
 30 31  1  0
 30 32  1  0
 30 33  1  0
 33 34  1  0
 34 35  1  0
 34 36  1  0
 34 37  1  0
 33 38  1  0
 38 39  1  0
 38 40  1  0
 38 41  1  0
 25 42  1  0
 42 43  1  0
 42 44  1  0
 14 45  1  0
 45 46  1  0
 45 47  2  0
 47 48  1  0
 48 49  2  0
 49 50  1  0
 50 51  2  0
 51 52  1  0
 51 53  1  0
 53 54  1  0
 53 55  2  0
 55 56  1  0
 55 57  1  0
 57 58  1  0
 57 59  2  0
 59 60  1  0
 48 61  1  0
 61 62  1  0
 62 63  3  0
 61  2  2  0
 47  4  1  0
 59 50  1  0
 42 15  1  0
M  CHG  1   3  -1
M  END
>  <UniqueID>  (13) 
12

>  <SMILES>  (13) 
CNc1cc2[n-]cc(C#N)/c(=N\c3ccc(F)c(Cl)c3)c2cc1N1CCC[C@H](CCN(C)C)C1

>  <Energy>  (13) 
97.08133899126872

>  <Genealogy>  (13) 
CNc1cc2[n-]cc(C#N)c(=Nc3ccc(F)c(Cl)c3)c2cc1N1CCCC(CCN(C)C)C1 (protonated)
CNc1cc2[n-]cc(C#N)c(=Nc3ccc(F)c(Cl)c3)c2cc1N1CCC[C@H](CCN(C)C)C1 (chirality)
CNc1cc2[n-]cc(C#N)/c(=N\c3ccc(F)c(Cl)c3)c2cc1N1CCC[C@H](CCN(C)C)C1 (cis-trans isomerization)
CNc1cc2[n-]cc(C#N)/c(=N\c3ccc(F)c(Cl)c3)c2cc1N1CCC[C@H](CCN(C)C)C1 (3D coordinates assigned)
CNc1cc2[n-]cc(C#N)/c(=N\c3ccc(F)c(Cl)c3)c2cc1N1CCC[C@H](CCN(C)C)C1 (nonaromatic ring conformer: 97.08133899126872 kcal/mol)

>  <smiles>  (13) 
CNc1cc2[nH]cc(C#N)c(=Nc3ccc(F)c(Cl)c3)c2cc1N1CCCC(CCN(C)C)C1

>  <score_type>  (13) 
oracle

>  <origin>  (13) 
adg

>  <m_score__min__energy>  (13) 
-11.52

>  <m_primary>  (13) 
energy

$$$$
13:0
     RDKit          3D

 36 39  0  0  0  0  0  0  0  0999 V2000
   -9.7670   19.3210  -32.8280 C   0  0  0  0  0  0  0  0  0  0  0  0
   -8.6320   20.1440  -32.2970 C   0  0  0  0  0  0  0  0  0  0  0  0
   -8.8810   21.2170  -31.4300 C   0  0  0  0  0  0  0  0  0  0  0  0
   -7.8220   21.9610  -30.9040 C   0  0  0  0  0  0  0  0  0  0  0  0
   -6.4910   21.6440  -31.2330 C   0  0  0  0  0  0  0  0  0  0  0  0
   -5.3850   22.4470  -30.6510 C   0  0  0  0  0  0  0  0  0  0  0  0
   -5.1450   23.7740  -31.0430 C   0  0  0  0  0  0  0  0  0  0  0  0
   -4.0920   24.4800  -30.4620 C   0  0  0  0  0  0  0  0  0  0  0  0
   -3.8760   25.6710  -30.8110 O   0  0  0  0  0  0  0  0  0  0  0  0
   -3.2920   23.8520  -29.4940 C   0  0  0  0  0  0  0  0  0  0  0  0
   -2.2170   24.5130  -28.8770 C   0  0  0  0  0  0  0  0  0  0  0  0
   -1.4460   23.8600  -27.9140 C   0  0  0  0  0  0  0  0  0  0  0  0
   -1.7350   22.5370  -27.5500 C   0  0  0  0  0  0  0  0  0  0  0  0
   -0.9580   21.8830  -26.5810 C   0  0  0  0  0  0  0  0  0  0  0  0
   -1.2480   20.5650  -26.2200 C   0  0  0  0  0  0  0  0  0  0  0  0
   -2.3120   19.8900  -26.8220 C   0  0  0  0  0  0  0  0  0  0  0  0
   -3.0940   20.5290  -27.7890 C   0  0  0  0  0  0  0  0  0  0  0  0
   -2.8160   21.8560  -28.1640 C   0  0  0  0  0  0  0  0  0  0  0  0
   -3.5930   22.5170  -29.1380 C   0  0  0  0  0  0  0  0  0  0  0  0
   -4.6100   21.8880  -29.7230 O   0  0  0  0  0  0  0  0  0  0  0  0
   -6.2450   20.5460  -32.0790 C   0  0  0  0  0  0  0  0  0  0  0  0
   -7.3070   19.8020  -32.6030 C   0  0  0  0  0  0  0  0  0  0  0  0
  -10.3420   18.9041  -31.9880 H   0  0  0  0  0  0  0  0  0  0  0  0
  -10.4231   19.9546  -33.4428 H   0  0  0  0  0  0  0  0  0  0  0  0
   -9.3687   18.5004  -33.4428 H   0  0  0  0  0  0  0  0  0  0  0  0
   -9.9163   21.4747  -31.1622 H   0  0  0  0  0  0  0  0  0  0  0  0
   -8.0305   22.8022  -30.2266 H   0  0  0  0  0  0  0  0  0  0  0  0
   -5.7820   24.2523  -31.8016 H   0  0  0  0  0  0  0  0  0  0  0  0
   -1.9815   25.5511  -29.1543 H   0  0  0  0  0  0  0  0  0  0  0  0
   -0.6061   24.3867  -27.4374 H   0  0  0  0  0  0  0  0  0  0  0  0
   -0.1182   22.4099  -26.1045 H   0  0  0  0  0  0  0  0  0  0  0  0
   -0.6365   20.0575  -25.4594 H   0  0  0  0  0  0  0  0  0  0  0  0
   -2.5356   18.8521  -26.5345 H   0  0  0  0  0  0  0  0  0  0  0  0
   -3.9308   19.9914  -28.2589 H   0  0  0  0  0  0  0  0  0  0  0  0
   -5.2098   20.2712  -32.3298 H   0  0  0  0  0  0  0  0  0  0  0  0
   -7.1016   18.9433  -33.2592 H   0  0  0  0  0  0  0  0  0  0  0  0
  1  2  1  0
  2  3  2  0
  3  4  1  0
  4  5  2  0
  5  6  1  0
  6  7  2  0
  7  8  1  0
  8  9  2  0
  8 10  1  0
 10 11  2  0
 11 12  1  0
 12 13  2  0
 13 14  1  0
 14 15  2  0
 15 16  1  0
 16 17  2  0
 17 18  1  0
 18 19  2  0
 19 20  1  0
  5 21  1  0
 21 22  2  0
 22  2  1  0
 20  6  1  0
 19 10  1  0
 18 13  1  0
  1 23  1  0
  1 24  1  0
  1 25  1  0
  3 26  1  0
  4 27  1  0
  7 28  1  0
 11 29  1  0
 12 30  1  0
 14 31  1  0
 15 32  1  0
 16 33  1  0
 17 34  1  0
 21 35  1  0
 22 36  1  0
M  END
>  <UniqueID>  (14) 
13

>  <SMILES>  (14) 
Cc1ccc(-c2cc(=O)c3ccc4ccccc4c3o2)cc1

>  <Energy>  (14) 
52.40531774431886

>  <Genealogy>  (14) 
Cc1ccc(-c2cc(=O)c3ccc4ccccc4c3o2)cc1 (3D coordinates assigned)
Cc1ccc(-c2cc(=O)c3ccc4ccccc4c3o2)cc1 (optimized conformer: 52.40531774431886 kcal/mol)

>  <smiles>  (14) 
Cc1ccc(-c2cc(=O)c3ccc4ccccc4c3o2)cc1

>  <score_type>  (14) 
oracle

>  <origin>  (14) 
adg

>  <m_score__min__energy>  (14) 
-8.3900000000000006

>  <m_primary>  (14) 
energy

$$$$
14:0
     RDKit          3D

 43 46  0  0  0  0  0  0  0  0999 V2000
   -8.6430   23.0880  -31.9570 C   0  0  0  0  0  0  0  0  0  0  0  0
   -7.2070   22.7230  -31.7540 C   0  0  0  0  0  0  0  0  0  0  0  0
   -6.3350   23.6130  -31.0830 C   0  0  0  0  0  0  0  0  0  0  0  0
   -4.9900   23.2530  -30.8550 C   0  0  0  0  0  0  0  0  0  0  0  0
   -4.1170   24.1530  -30.0820 C   0  0  0  0  0  0  0  0  0  0  0  0
   -3.8540   25.2990  -30.5390 O   0  0  0  0  0  0  0  0  0  0  0  0
   -3.6660   23.7730  -28.7730 N   0  0  0  0  0  0  0  0  0  0  0  0
   -2.6230   24.4590  -28.0560 C   0  0  0  0  0  0  0  0  0  0  0  0
   -1.3260   24.5550  -28.5870 C   0  0  0  0  0  0  0  0  0  0  0  0
   -0.3180   25.1940  -27.8660 C   0  0  0  0  0  0  0  0  0  0  0  0
   -0.6080   25.7250  -26.6100 C   0  0  0  0  0  0  0  0  0  0  0  0
   -1.8620   25.6150  -26.0990 N   0  0  0  0  0  0  0  0  0  0  0  0
   -2.8650   24.9970  -26.7770 C   0  0  0  0  0  0  0  0  0  0  0  0
   -4.4560   24.9220  -26.0340 Cl  0  0  0  0  0  0  0  0  0  0  0  0
   -4.5710   22.0080  -31.3520 C   0  0  0  0  0  0  0  0  0  0  0  0
   -3.3650   21.3150  -31.3890 C   0  0  0  0  0  0  0  0  0  0  0  0
   -2.0300   21.7520  -30.8780 C   0  0  0  0  0  0  0  0  0  0  0  0
   -3.5610   20.1240  -32.0050 N   0  0  0  0  0  0  0  0  0  0  0  0
   -4.8320   20.0490  -32.3850 N   0  0  0  0  0  0  0  0  0  0  0  0
   -5.3930   18.9140  -33.0710 C   0  0  0  0  0  0  0  0  0  0  0  0
   -4.8970   18.4990  -34.3220 C   0  0  0  0  0  0  0  0  0  0  0  0
   -5.4500   17.3870  -34.9670 C   0  0  0  0  0  0  0  0  0  0  0  0
   -6.4920   16.6760  -34.3690 C   0  0  0  0  0  0  0  0  0  0  0  0
   -6.9800   17.0700  -33.1200 C   0  0  0  0  0  0  0  0  0  0  0  0
   -6.4300   18.1800  -32.4720 C   0  0  0  0  0  0  0  0  0  0  0  0
   -5.4480   21.1850  -32.0020 C   0  0  0  0  0  0  0  0  0  0  0  0
   -6.7490   21.5130  -32.1930 N   0  0  0  0  0  0  0  0  0  0  0  0
   -9.1315   23.2122  -30.9793 H   0  0  0  0  0  0  0  0  0  0  0  0
   -8.7056   24.0306  -32.5205 H   0  0  0  0  0  0  0  0  0  0  0  0
   -9.1481   22.2897  -32.5205 H   0  0  0  0  0  0  0  0  0  0  0  0
   -6.7072   24.5889  -30.7380 H   0  0  0  0  0  0  0  0  0  0  0  0
   -4.1660   22.9850  -28.3030 H   0  0  0  0  0  0  0  0  0  0  0  0
   -1.1049   24.1246  -29.5749 H   0  0  0  0  0  0  0  0  0  0  0  0
    0.6960   25.2783  -28.2841 H   0  0  0  0  0  0  0  0  0  0  0  0
    0.1785   26.2330  -26.0327 H   0  0  0  0  0  0  0  0  0  0  0  0
   -2.0395   21.7489  -29.7780 H   0  0  0  0  0  0  0  0  0  0  0  0
   -1.2546   21.0608  -31.2400 H   0  0  0  0  0  0  0  0  0  0  0  0
   -1.8135   22.7679  -31.2400 H   0  0  0  0  0  0  0  0  0  0  0  0
   -4.0712   19.0514  -34.7942 H   0  0  0  0  0  0  0  0  0  0  0  0
   -5.0628   17.0725  -35.9474 H   0  0  0  0  0  0  0  0  0  0  0  0
   -6.9289   15.8058  -34.8807 H   0  0  0  0  0  0  0  0  0  0  0  0
   -7.7974   16.5063  -32.6465 H   0  0  0  0  0  0  0  0  0  0  0  0
   -6.8123   18.4809  -31.4854 H   0  0  0  0  0  0  0  0  0  0  0  0
  1  2  1  0
  2  3  2  0
  3  4  1  0
  4  5  1  0
  5  6  2  0
  5  7  1  0
  7  8  1  0
  8  9  2  0
  9 10  1  0
 10 11  2  0
 11 12  1  0
 12 13  2  0
 13 14  1  0
  4 15  2  0
 15 16  1  0
 16 17  1  0
 16 18  2  0
 18 19  1  0
 19 20  1  0
 20 21  2  0
 21 22  1  0
 22 23  2  0
 23 24  1  0
 24 25  2  0
 19 26  1  0
 26 27  2  0
 27  2  1  0
 13  8  1  0
 26 15  1  0
 25 20  1  0
  1 28  1  0
  1 29  1  0
  1 30  1  0
  3 31  1  0
  7 32  1  0
  9 33  1  0
 10 34  1  0
 11 35  1  0
 17 36  1  0
 17 37  1  0
 17 38  1  0
 21 39  1  0
 22 40  1  0
 23 41  1  0
 24 42  1  0
 25 43  1  0
M  END
>  <UniqueID>  (15) 
14

>  <SMILES>  (15) 
Cc1cc(C(=O)Nc2cccnc2Cl)c2c(C)nn(-c3ccccc3)c2n1

>  <Energy>  (15) 
100.79741187738013

>  <Genealogy>  (15) 
Cc1cc(C(=O)Nc2cccnc2Cl)c2c(C)nn(-c3ccccc3)c2n1 (3D coordinates assigned)
Cc1cc(C(=O)Nc2cccnc2Cl)c2c(C)nn(-c3ccccc3)c2n1 (optimized conformer: 100.79741187738013 kcal/mol)

>  <smiles>  (15) 
Cc1cc(C(=O)Nc2cccnc2Cl)c2c(C)nn(-c3ccccc3)c2n1

>  <score_type>  (15) 
oracle

>  <origin>  (15) 
adg

>  <m_score__min__energy>  (15) 
-9.2100000000000009

>  <m_primary>  (15) 
energy

$$$$
15:0
     RDKit          3D

 47 48  0  0  0  0  0  0  0  0999 V2000
   -9.7040   20.4280  -32.3410 C   0  0  0  0  0  0  0  0  0  0  0  0
   -9.5450   21.8260  -32.1250 O   0  0  0  0  0  0  0  0  0  0  0  0
   -8.3940   22.4180  -31.5820 C   0  0  0  0  0  0  0  0  0  0  0  0
   -7.9220   22.1080  -30.2930 C   0  0  0  0  0  0  0  0  0  0  0  0
   -6.7700   22.7240  -29.7970 C   0  0  0  0  0  0  0  0  0  0  0  0
   -6.0620   23.6600  -30.5740 C   0  0  0  0  0  0  0  0  0  0  0  0
   -4.8330   24.3000  -30.0300 C   0  0  0  0  0  0  0  0  0  0  0  0
   -3.9270   24.6810  -30.8210 O   0  0  0  0  0  0  0  0  0  0  0  0
   -4.6310   24.5240  -28.5560 C   0  0  0  0  0  0  0  0  0  0  0  0
   -3.4180   23.9220  -28.1100 O   0  0  0  0  0  0  0  0  0  0  0  0
   -2.1470   24.4070  -28.4380 C   0  0  0  0  0  0  0  0  0  0  0  0
   -2.0010   25.3010  -29.3160 O   0  0  0  0  0  0  0  0  0  0  0  0
   -0.9450   23.8350  -27.7540 C   0  0  0  0  0  0  0  0  0  0  0  0
   -0.3970   22.5990  -28.4830 C   0  0  0  0  0  0  0  0  0  0  0  0
   -1.4910   21.5950  -28.8850 C   0  0  0  0  0  0  0  0  0  0  0  0
   -2.2710   22.0840  -30.0220 N   0  0  0  0  0  0  0  0  0  0  0  0
   -2.5780   21.2570  -31.1550 C   0  0  0  0  0  0  0  0  0  0  0  0
   -2.2470   20.0400  -31.1610 O   0  0  0  0  0  0  0  0  0  0  0  0
   -3.3140   21.8250  -32.3310 C   0  0  0  0  0  0  0  0  0  0  0  0
   -4.2710   20.8170  -32.8890 C   0  0  0  0  0  0  0  0  0  0  0  0
   -5.6550   20.8700  -32.8030 C   0  0  0  0  0  0  0  0  0  0  0  0
   -6.2900   19.8180  -33.4750 C   0  0  0  0  0  0  0  0  0  0  0  0
   -5.4100   18.9420  -34.0980 C   0  0  0  0  0  0  0  0  0  0  0  0
   -3.8410   19.4790  -33.8140 S   0  0  0  0  0  0  0  0  0  0  0  0
   -6.5440   23.9670  -31.8610 C   0  0  0  0  0  0  0  0  0  0  0  0
   -7.6970   23.3510  -32.3550 C   0  0  0  0  0  0  0  0  0  0  0  0
   -9.7627   19.9115  -31.3716 H   0  0  0  0  0  0  0  0  0  0  0  0
  -10.6285   20.2476  -32.9092 H   0  0  0  0  0  0  0  0  0  0  0  0
   -8.8437   20.0446  -32.9092 H   0  0  0  0  0  0  0  0  0  0  0  0
   -8.4624   21.3775  -29.6731 H   0  0  0  0  0  0  0  0  0  0  0  0
   -6.4122   22.4744  -28.7872 H   0  0  0  0  0  0  0  0  0  0  0  0
   -4.5899   25.6054  -28.3586 H   0  0  0  0  0  0  0  0  0  0  0  0
   -5.4706   24.0653  -28.0132 H   0  0  0  0  0  0  0  0  0  0  0  0
   -0.1585   24.6032  -27.7184 H   0  0  0  0  0  0  0  0  0  0  0  0
   -1.2471   23.5248  -26.7428 H   0  0  0  0  0  0  0  0  0  0  0  0
    0.1225   22.9324  -29.3934 H   0  0  0  0  0  0  0  0  0  0  0  0
    0.2790   22.0825  -27.7857 H   0  0  0  0  0  0  0  0  0  0  0  0
   -1.0179   20.6406  -29.1593 H   0  0  0  0  0  0  0  0  0  0  0  0
   -2.1703   21.4618  -28.0302 H   0  0  0  0  0  0  0  0  0  0  0  0
   -2.6690   23.0480  -29.9740 H   0  0  0  0  0  0  0  0  0  0  0  0
   -3.8733   22.7167  -32.0115 H   0  0  0  0  0  0  0  0  0  0  0  0
   -2.5855   22.0928  -33.1105 H   0  0  0  0  0  0  0  0  0  0  0  0
   -6.1984   21.6585  -32.2618 H   0  0  0  0  0  0  0  0  0  0  0  0
   -7.3828   19.6968  -33.5065 H   0  0  0  0  0  0  0  0  0  0  0  0
   -5.6908   18.0502  -34.6776 H   0  0  0  0  0  0  0  0  0  0  0  0
   -6.0079   24.6986  -32.4834 H   0  0  0  0  0  0  0  0  0  0  0  0
   -8.0598   23.6029  -33.3624 H   0  0  0  0  0  0  0  0  0  0  0  0
  1  2  1  0
  2  3  1  0
  3  4  2  0
  4  5  1  0
  5  6  2  0
  6  7  1  0
  7  8  2  0
  7  9  1  0
  9 10  1  0
 10 11  1  0
 11 12  2  0
 11 13  1  0
 13 14  1  0
 14 15  1  0
 15 16  1  0
 16 17  1  0
 17 18  2  0
 17 19  1  0
 19 20  1  0
 20 21  2  0
 21 22  1  0
 22 23  2  0
 23 24  1  0
  6 25  1  0
 25 26  2  0
 26  3  1  0
 24 20  1  0
  1 27  1  0
  1 28  1  0
  1 29  1  0
  4 30  1  0
  5 31  1  0
  9 32  1  0
  9 33  1  0
 13 34  1  0
 13 35  1  0
 14 36  1  0
 14 37  1  0
 15 38  1  0
 15 39  1  0
 16 40  1  0
 19 41  1  0
 19 42  1  0
 21 43  1  0
 22 44  1  0
 23 45  1  0
 25 46  1  0
 26 47  1  0
M  END
>  <UniqueID>  (16) 
15

>  <SMILES>  (16) 
COc1ccc(C(=O)COC(=O)CCCNC(=O)Cc2cccs2)cc1

>  <Energy>  (16) 
60.786494687831386

>  <Genealogy>  (16) 
COc1ccc(C(=O)COC(=O)CCCNC(=O)Cc2cccs2)cc1 (3D coordinates assigned)
COc1ccc(C(=O)COC(=O)CCCNC(=O)Cc2cccs2)cc1 (optimized conformer: 60.786494687831386 kcal/mol)

>  <smiles>  (16) 
COc1ccc(C(=O)COC(=O)CCCNC(=O)Cc2cccs2)cc1

>  <score_type>  (16) 
oracle

>  <origin>  (16) 
adg

>  <m_score__min__energy>  (16) 
-7.8499999999999996

>  <m_primary>  (16) 
energy

$$$$
16:0
     RDKit          3D

 32 34  0  0  0  0  0  0  0  0999 V2000
   -6.1420   12.4290  -34.6160 C   0  0  0  0  0  0  0  0  0  0  0  0
   -5.1680   13.3370  -34.1150 O   0  0  0  0  0  0  0  0  0  0  0  0
   -5.4500   14.6410  -33.6810 C   0  0  0  0  0  0  0  0  0  0  0  0
   -6.5640   15.2940  -34.2170 C   0  0  0  0  0  0  0  0  0  0  0  0
   -6.8890   16.5940  -33.8170 C   0  0  0  0  0  0  0  0  0  0  0  0
   -6.1000   17.2670  -32.8670 C   0  0  0  0  0  0  0  0  0  0  0  0
   -6.4260   18.6470  -32.4280 C   0  0  0  0  0  0  0  0  0  0  0  0
   -7.6790   19.1730  -32.1830 C   0  0  0  0  0  0  0  0  0  0  0  0
   -7.5490   20.4560  -31.8040 N   0  0  0  0  0  0  0  0  0  0  0  0
   -6.2160   20.6780  -31.8290 C   0  0  0  0  0  0  0  0  0  0  0  0
   -5.6030   21.9770  -31.4790 C   0  0  0  0  0  0  0  0  0  0  0  0
   -4.2480   22.0510  -31.1080 C   0  0  0  0  0  0  0  0  0  0  0  0
   -3.6710   23.2820  -30.7780 C   0  0  0  0  0  0  0  0  0  0  0  0
   -4.4390   24.4490  -30.8140 C   0  0  0  0  0  0  0  0  0  0  0  0
   -3.8640   25.6710  -30.4850 O   0  0  0  0  0  0  0  0  0  0  0  0
   -5.7860   24.3870  -31.1810 C   0  0  0  0  0  0  0  0  0  0  0  0
   -6.3670   23.1590  -31.5120 C   0  0  0  0  0  0  0  0  0  0  0  0
   -5.5000   19.5970  -32.2050 N   0  0  0  0  0  0  0  0  0  0  0  0
   -4.9800   16.6080  -32.3280 C   0  0  0  0  0  0  0  0  0  0  0  0
   -4.6570   15.3080  -32.7300 C   0  0  0  0  0  0  0  0  0  0  0  0
   -6.6601   11.9460  -33.7745 H   0  0  0  0  0  0  0  0  0  0  0  0
   -6.8719   12.9765  -35.2305 H   0  0  0  0  0  0  0  0  0  0  0  0
   -5.6470   11.6625  -35.2305 H   0  0  0  0  0  0  0  0  0  0  0  0
   -7.1909   14.7802  -34.9606 H   0  0  0  0  0  0  0  0  0  0  0  0
   -7.7685   17.0940  -34.2487 H   0  0  0  0  0  0  0  0  0  0  0  0
   -8.6303   18.6296  -32.2820 H   0  0  0  0  0  0  0  0  0  0  0  0
   -3.6387   21.1357  -31.0772 H   0  0  0  0  0  0  0  0  0  0  0  0
   -2.6106   23.3314  -30.4896 H   0  0  0  0  0  0  0  0  0  0  0  0
   -6.3902   25.3058  -31.2095 H   0  0  0  0  0  0  0  0  0  0  0  0
   -7.4278   23.1162  -31.8000 H   0  0  0  0  0  0  0  0  0  0  0  0
   -4.3526   17.1199  -31.5835 H   0  0  0  0  0  0  0  0  0  0  0  0
   -3.7784   14.8047  -32.3003 H   0  0  0  0  0  0  0  0  0  0  0  0
  1  2  1  0
  2  3  1  0
  3  4  2  0
  4  5  1  0
  5  6  2  0
  6  7  1  0
  7  8  2  0
  8  9  1  0
  9 10  1  0
 10 11  1  0
 11 12  2  0
 12 13  1  0
 13 14  2  0
 14 15  1  0
 14 16  1  0
 16 17  2  0
 10 18  2  0
  6 19  1  0
 19 20  2  0
 20  3  1  0
 18  7  1  0
 17 11  1  0
  1 21  1  0
  1 22  1  0
  1 23  1  0
  4 24  1  0
  5 25  1  0
  8 26  1  0
 12 27  1  0
 13 28  1  0
 16 29  1  0
 17 30  1  0
 19 31  1  0
 20 32  1  0
M  CHG  2   9  -1  15  -1
M  END
>  <UniqueID>  (17) 
16

>  <SMILES>  (17) 
COc1ccc(-c2c[n-]c(-c3ccc([O-])cc3)n2)cc1

>  <Energy>  (17) 
63.795117457154205

>  <Genealogy>  (17) 
COc1ccc(-c2c[n-]c(-c3ccc([O-])cc3)n2)cc1 (protonated)
COc1ccc(-c2c[n-]c(-c3ccc([O-])cc3)n2)cc1 (3D coordinates assigned)
COc1ccc(-c2c[n-]c(-c3ccc([O-])cc3)n2)cc1 (optimized conformer: 63.795117457154205 kcal/mol)

>  <smiles>  (17) 
COc1ccc(-c2c[nH]c(-c3ccc(O)cc3)n2)cc1

>  <score_type>  (17) 
oracle

>  <origin>  (17) 
adg

>  <m_score__min__energy>  (17) 
-9.3000000000000007

>  <m_primary>  (17) 
energy

$$$$
17:0
     RDKit          3D

 42 44  0  0  0  0  0  0  0  0999 V2000
    0.6380   23.7320  -27.8250 C   0  0  0  0  0  0  0  0  0  0  0  0
   -0.8280   23.9140  -28.0830 C   0  0  0  0  0  0  0  0  0  0  0  0
   -1.3870   23.5260  -29.3060 C   0  0  0  0  0  0  0  0  0  0  0  0
   -2.7560   23.6690  -29.5320 C   0  0  0  0  0  0  0  0  0  0  0  0
   -3.6020   24.1830  -28.5320 C   0  0  0  0  0  0  0  0  0  0  0  0
   -5.0130   24.3290  -28.7790 N   0  0  0  0  0  0  0  0  0  0  0  0
   -5.6750   24.5140  -30.3710 S   0  0  0  0  0  0  0  0  0  0  0  0
   -6.9760   25.2630  -30.2860 O   0  0  0  0  0  0  0  0  0  0  0  0
   -4.7130   25.2990  -31.2170 O   0  0  0  0  0  0  0  0  0  0  0  0
   -5.9820   22.9300  -31.0750 C   0  0  0  0  0  0  0  0  0  0  0  0
   -4.9080   22.1560  -31.5290 C   0  0  0  0  0  0  0  0  0  0  0  0
   -5.1360   20.9060  -32.1100 C   0  0  0  0  0  0  0  0  0  0  0  0
   -6.4430   20.4120  -32.2380 C   0  0  0  0  0  0  0  0  0  0  0  0
   -7.5300   21.2000  -31.8050 C   0  0  0  0  0  0  0  0  0  0  0  0
   -7.2900   22.4470  -31.2060 C   0  0  0  0  0  0  0  0  0  0  0  0
   -8.9440   20.6740  -31.8880 C   0  0  0  0  0  0  0  0  0  0  0  0
   -9.0860   19.6120  -32.8940 N   0  0  0  0  0  0  0  0  0  0  0  0
   -8.0880   18.5580  -32.6810 C   0  0  0  0  0  0  0  0  0  0  0  0
   -6.6690   19.0890  -32.9220 C   0  0  0  0  0  0  0  0  0  0  0  0
   -3.0430   24.5580  -27.2860 C   0  0  0  0  0  0  0  0  0  0  0  0
   -3.9060   25.0940  -26.1750 C   0  0  0  0  0  0  0  0  0  0  0  0
   -1.6600   24.4190  -27.0750 C   0  0  0  0  0  0  0  0  0  0  0  0
    0.8194   23.7095  -26.7403 H   0  0  0  0  0  0  0  0  0  0  0  0
    0.9743   22.7852  -28.2727 H   0  0  0  0  0  0  0  0  0  0  0  0
    1.1956   24.5678  -28.2727 H   0  0  0  0  0  0  0  0  0  0  0  0
   -0.7434   23.1061  -30.0931 H   0  0  0  0  0  0  0  0  0  0  0  0
   -3.1795   23.3763  -30.5041 H   0  0  0  0  0  0  0  0  0  0  0  0
   -5.6970   24.2090  -27.9990 H   0  0  0  0  0  0  0  0  0  0  0  0
   -3.8797   22.5335  -31.4280 H   0  0  0  0  0  0  0  0  0  0  0  0
   -4.2866   20.3062  -32.4689 H   0  0  0  0  0  0  0  0  0  0  0  0
   -8.1343   23.0481  -30.8374 H   0  0  0  0  0  0  0  0  0  0  0  0
   -9.2297   20.2708  -30.9052 H   0  0  0  0  0  0  0  0  0  0  0  0
   -9.5965   21.5083  -32.1851 H   0  0  0  0  0  0  0  0  0  0  0  0
   -8.9510   20.0260  -33.8470 H   0  0  0  0  0  0  0  0  0  0  0  0
   -8.1649   18.1934  -31.6460 H   0  0  0  0  0  0  0  0  0  0  0  0
   -8.2826   17.7416  -33.3921 H   0  0  0  0  0  0  0  0  0  0  0  0
   -5.9446   18.3585  -32.5326 H   0  0  0  0  0  0  0  0  0  0  0  0
   -6.5385   19.2369  -34.0042 H   0  0  0  0  0  0  0  0  0  0  0  0
   -3.4660   24.8207  -25.2046 H   0  0  0  0  0  0  0  0  0  0  0  0
   -3.9674   26.1894  -26.2543 H   0  0  0  0  0  0  0  0  0  0  0  0
   -4.9151   24.6635  -26.2543 H   0  0  0  0  0  0  0  0  0  0  0  0
   -1.2259   24.7101  -26.1071 H   0  0  0  0  0  0  0  0  0  0  0  0
  1  2  1  0
  2  3  2  0
  3  4  1  0
  4  5  2  0
  5  6  1  0
  6  7  1  0
  7  8  2  0
  7  9  2  0
  7 10  1  0
 10 11  2  0
 11 12  1  0
 12 13  2  0
 13 14  1  0
 14 15  2  0
 14 16  1  0
 16 17  1  0
 17 18  1  0
 18 19  1  0
  5 20  1  0
 20 21  1  0
 20 22  2  0
 22  2  1  0
 15 10  1  0
 19 13  1  0
  1 23  1  0
  1 24  1  0
  1 25  1  0
  3 26  1  0
  4 27  1  0
  6 28  1  0
 11 29  1  0
 12 30  1  0
 15 31  1  0
 16 32  1  0
 16 33  1  0
 17 34  1  0
 18 35  1  0
 18 36  1  0
 19 37  1  0
 19 38  1  0
 21 39  1  0
 21 40  1  0
 21 41  1  0
 22 42  1  0
M  END
>  <UniqueID>  (18) 
17

>  <SMILES>  (18) 
Cc1ccc(NS(=O)(=O)c2ccc3c(c2)CNCC3)c(C)c1

>  <Energy>  (18) 
47.96049966418837

>  <Genealogy>  (18) 
Cc1ccc(NS(=O)(=O)c2ccc3c(c2)CNCC3)c(C)c1 (3D coordinates assigned)
Cc1ccc(NS(=O)(=O)c2ccc3c(c2)CNCC3)c(C)c1 (nonaromatic ring conformer: 47.96049966418837 kcal/mol)

>  <smiles>  (18) 
Cc1ccc(NS(=O)(=O)c2ccc3c(c2)CNCC3)c(C)c1

>  <score_type>  (18) 
oracle

>  <origin>  (18) 
adg

>  <m_score__min__energy>  (18) 
-9.75

>  <m_primary>  (18) 
energy

$$$$
18:0
     RDKit          3D

 46 48  0  0  0  0  0  0  0  0999 V2000
    0.4890   24.9190  -28.2060 O   0  0  0  0  0  0  0  0  0  0  0  0
   -0.9310   24.5550  -27.8750 S   0  0  0  0  0  0  0  0  0  0  0  0
   -1.2030   24.9850  -26.4600 O   0  0  0  0  0  0  0  0  0  0  0  0
   -1.9940   25.4160  -28.9560 N   0  0  0  0  0  0  0  0  0  0  0  0
   -2.8540   24.5190  -29.7360 C   0  0  0  0  0  0  0  0  0  0  0  0
   -4.3140   24.5150  -29.2210 C   0  0  0  0  0  0  0  0  0  0  0  0
   -5.2700   25.3060  -30.1530 C   0  0  0  0  0  0  0  0  0  0  0  0
   -6.0040   24.4090  -31.1660 C   0  0  0  0  0  0  0  0  0  0  0  0
   -5.1700   23.2420  -31.5110 N   0  0  0  0  0  0  0  0  0  0  0  0
   -5.7040   22.5250  -32.6840 C   0  0  0  0  0  0  0  0  0  0  0  0
   -6.8900   21.6860  -32.2870 C   0  0  0  0  0  0  0  0  0  0  0  0
   -6.8070   20.2870  -32.3150 C   0  0  0  0  0  0  0  0  0  0  0  0
   -7.9130   19.5140  -31.9590 C   0  0  0  0  0  0  0  0  0  0  0  0
   -9.0970   20.1490  -31.5790 C   0  0  0  0  0  0  0  0  0  0  0  0
   -9.1640   21.5070  -31.5580 N   0  0  0  0  0  0  0  0  0  0  0  0
   -8.1000   22.2820  -31.9000 C   0  0  0  0  0  0  0  0  0  0  0  0
   -5.0430   22.3260  -30.3540 C   0  0  0  0  0  0  0  0  0  0  0  0
   -4.8240   23.0760  -29.0200 C   0  0  0  0  0  0  0  0  0  0  0  0
   -1.1070   22.8050  -28.0160 C   0  0  0  0  0  0  0  0  0  0  0  0
   -0.8660   22.1760  -29.2450 C   0  0  0  0  0  0  0  0  0  0  0  0
   -1.0300   20.7930  -29.3720 C   0  0  0  0  0  0  0  0  0  0  0  0
   -1.4400   20.0330  -28.2720 C   0  0  0  0  0  0  0  0  0  0  0  0
   -1.6850   20.6570  -27.0450 C   0  0  0  0  0  0  0  0  0  0  0  0
   -2.0870   19.9200  -25.9800 F   0  0  0  0  0  0  0  0  0  0  0  0
   -1.5210   22.0390  -26.9160 C   0  0  0  0  0  0  0  0  0  0  0  0
   -2.8495   24.8479  -30.7857 H   0  0  0  0  0  0  0  0  0  0  0  0
   -2.4573   23.4980  -29.6348 H   0  0  0  0  0  0  0  0  0  0  0  0
   -4.3089   25.0271  -28.2475 H   0  0  0  0  0  0  0  0  0  0  0  0
   -6.0193   25.8189  -29.5321 H   0  0  0  0  0  0  0  0  0  0  0  0
   -4.6560   26.0154  -30.7273 H   0  0  0  0  0  0  0  0  0  0  0  0
   -6.9502   24.0619  -30.7252 H   0  0  0  0  0  0  0  0  0  0  0  0
   -6.2054   24.9887  -32.0789 H   0  0  0  0  0  0  0  0  0  0  0  0
   -6.0146   23.2554  -33.4456 H   0  0  0  0  0  0  0  0  0  0  0  0
   -4.9204   21.8684  -33.0899 H   0  0  0  0  0  0  0  0  0  0  0  0
   -5.8693   19.7981  -32.6178 H   0  0  0  0  0  0  0  0  0  0  0  0
   -7.8526   18.4158  -31.9776 H   0  0  0  0  0  0  0  0  0  0  0  0
   -9.9757   19.5506  -31.2966 H   0  0  0  0  0  0  0  0  0  0  0  0
   -8.1881   23.3781  -31.8732 H   0  0  0  0  0  0  0  0  0  0  0  0
   -5.9636   21.7292  -30.2751 H   0  0  0  0  0  0  0  0  0  0  0  0
   -4.1608   21.6923  -30.5274 H   0  0  0  0  0  0  0  0  0  0  0  0
   -5.7801   23.1146  -28.4775 H   0  0  0  0  0  0  0  0  0  0  0  0
   -4.0557   22.5284  -28.4545 H   0  0  0  0  0  0  0  0  0  0  0  0
   -0.5468   22.7721  -30.1126 H   0  0  0  0  0  0  0  0  0  0  0  0
   -0.8364   20.3028  -30.3375 H   0  0  0  0  0  0  0  0  0  0  0  0
   -1.5696   18.9453  -28.3720 H   0  0  0  0  0  0  0  0  0  0  0  0
   -1.7170   22.5271  -25.9499 H   0  0  0  0  0  0  0  0  0  0  0  0
  1  2  2  0
  2  3  2  0
  2  4  1  0
  4  5  1  0
  5  6  1  0
  6  7  1  0
  7  8  1  0
  8  9  1  0
  9 10  1  0
 10 11  1  0
 11 12  2  0
 12 13  1  0
 13 14  2  0
 14 15  1  0
 15 16  2  0
  9 17  1  0
 17 18  1  0
  2 19  1  0
 19 20  2  0
 20 21  1  0
 21 22  2  0
 22 23  1  0
 23 24  1  0
 23 25  2  0
 18  6  1  0
 25 19  1  0
 16 11  1  0
  5 26  1  0
  5 27  1  0
  6 28  1  0
  7 29  1  0
  7 30  1  0
  8 31  1  0
  8 32  1  0
 10 33  1  0
 10 34  1  0
 12 35  1  0
 13 36  1  0
 14 37  1  0
 16 38  1  0
 17 39  1  0
 17 40  1  0
 18 41  1  0
 18 42  1  0
 20 43  1  0
 21 44  1  0
 22 45  1  0
 25 46  1  0
M  CHG  1   4  -1
M  END
>  <UniqueID>  (19) 
18

>  <SMILES>  (19) 
O=S(=O)([N-]CC1CCN(Cc2cccnc2)CC1)c1cccc(F)c1

>  <Energy>  (19) 
53.591426164214774

>  <Genealogy>  (19) 
O=S(=O)([N-]CC1CCN(Cc2cccnc2)CC1)c1cccc(F)c1 (protonated)
O=S(=O)([N-]CC1CCN(Cc2cccnc2)CC1)c1cccc(F)c1 (3D coordinates assigned)
O=S(=O)([N-]CC1CCN(Cc2cccnc2)CC1)c1cccc(F)c1 (nonaromatic ring conformer: 53.591426164214774 kcal/mol)

>  <smiles>  (19) 
O=S(=O)(NCC1CCN(Cc2cccnc2)CC1)c1cccc(F)c1

>  <score_type>  (19) 
oracle

>  <origin>  (19) 
adg

>  <m_score__min__energy>  (19) 
-10.140000000000001

>  <m_primary>  (19) 
energy

$$$$
19:0
     RDKit          3D

 50 51  0  0  0  0  0  0  0  0999 V2000
   -2.0360   20.6570  -30.5360 C   0  0  0  0  0  0  0  0  0  0  0  0
   -2.5360   21.8610  -29.7880 C   0  0  0  0  0  0  0  0  0  0  0  0
   -2.9360   23.0100  -30.4950 C   0  0  0  0  0  0  0  0  0  0  0  0
   -3.4570   24.1270  -29.8130 C   0  0  0  0  0  0  0  0  0  0  0  0
   -3.9070   25.2850  -30.4690 O   0  0  0  0  0  0  0  0  0  0  0  0
   -5.2680   25.6690  -30.6830 C   0  0  0  0  0  0  0  0  0  0  0  0
   -6.2210   24.4820  -30.4720 C   0  0  0  0  0  0  0  0  0  0  0  0
   -6.5010   23.7170  -31.7730 C   0  0  0  0  0  0  0  0  0  0  0  0
   -7.9640   23.2600  -31.8970 C   0  0  0  0  0  0  0  0  0  0  0  0
   -8.2660   21.8670  -31.3050 C   0  0  0  0  0  0  0  0  0  0  0  0
   -8.9620   20.8600  -32.2550 C   0  0  0  0  0  0  0  0  0  0  0  0
   -8.0440   19.8820  -32.8940 N   0  0  0  0  0  0  0  0  0  0  0  0
   -7.9940   18.6090  -32.1380 C   0  0  0  0  0  0  0  0  0  0  0  0
   -7.1840   17.5360  -32.8970 C   0  0  0  0  0  0  0  0  0  0  0  0
   -6.1440   18.1400  -33.8550 C   0  0  0  0  0  0  0  0  0  0  0  0
   -5.5770   19.4430  -33.2950 C   0  0  0  0  0  0  0  0  0  0  0  0
   -6.6860   20.4780  -33.0020 C   0  0  0  0  0  0  0  0  0  0  0  0
   -3.5260   24.0990  -28.4170 C   0  0  0  0  0  0  0  0  0  0  0  0
   -3.1190   22.9690  -27.7060 C   0  0  0  0  0  0  0  0  0  0  0  0
   -2.6320   21.8470  -28.3820 C   0  0  0  0  0  0  0  0  0  0  0  0
   -2.1660   20.4340  -27.4420 Cl  0  0  0  0  0  0  0  0  0  0  0  0
   -1.7161   19.8866  -29.8189 H   0  0  0  0  0  0  0  0  0  0  0  0
   -2.8425   20.2571  -31.1682 H   0  0  0  0  0  0  0  0  0  0  0  0
   -1.1835   20.9461  -31.1682 H   0  0  0  0  0  0  0  0  0  0  0  0
   -2.8409   23.0362  -31.5906 H   0  0  0  0  0  0  0  0  0  0  0  0
   -5.5302   26.4696  -29.9757 H   0  0  0  0  0  0  0  0  0  0  0  0
   -5.3719   26.0184  -31.7208 H   0  0  0  0  0  0  0  0  0  0  0  0
   -5.7684   23.7904  -29.7461 H   0  0  0  0  0  0  0  0  0  0  0  0
   -7.1781   24.8817  -30.1057 H   0  0  0  0  0  0  0  0  0  0  0  0
   -6.2653   24.3735  -32.6236 H   0  0  0  0  0  0  0  0  0  0  0  0
   -5.8731   22.8138  -31.7658 H   0  0  0  0  0  0  0  0  0  0  0  0
   -8.5961   23.9955  -31.3779 H   0  0  0  0  0  0  0  0  0  0  0  0
   -8.1724   23.1872  -32.9746 H   0  0  0  0  0  0  0  0  0  0  0  0
   -7.3115   21.4233  -30.9855 H   0  0  0  0  0  0  0  0  0  0  0  0
   -8.9787   22.0419  -30.4856 H   0  0  0  0  0  0  0  0  0  0  0  0
   -9.7103   20.3006  -31.6745 H   0  0  0  0  0  0  0  0  0  0  0  0
   -9.4050   21.4522  -33.0693 H   0  0  0  0  0  0  0  0  0  0  0  0
   -8.3760   19.6810  -33.8640 H   0  0  0  0  0  0  0  0  0  0  0  0
   -7.5210   18.7907  -31.1616 H   0  0  0  0  0  0  0  0  0  0  0  0
   -9.0227   18.2410  -32.0103 H   0  0  0  0  0  0  0  0  0  0  0  0
   -6.6609   16.9060  -32.1626 H   0  0  0  0  0  0  0  0  0  0  0  0
   -7.8933   16.9536  -33.5034 H   0  0  0  0  0  0  0  0  0  0  0  0
   -5.3233   17.4211  -33.9949 H   0  0  0  0  0  0  0  0  0  0  0  0
   -6.6351   18.3552  -34.8155 H   0  0  0  0  0  0  0  0  0  0  0  0
   -5.0398   19.2239  -32.3604 H   0  0  0  0  0  0  0  0  0  0  0  0
   -4.9024   19.8724  -34.0504 H   0  0  0  0  0  0  0  0  0  0  0  0
   -6.4504   20.9805  -32.0523 H   0  0  0  0  0  0  0  0  0  0  0  0
   -6.7073   21.1766  -33.8514 H   0  0  0  0  0  0  0  0  0  0  0  0
   -3.9051   24.9768  -27.8732 H   0  0  0  0  0  0  0  0  0  0  0  0
   -3.1819   22.9615  -26.6078 H   0  0  0  0  0  0  0  0  0  0  0  0
  1  2  1  0
  2  3  2  0
  3  4  1  0
  4  5  1  0
  5  6  1  0
  6  7  1  0
  7  8  1  0
  8  9  1  0
  9 10  1  0
 10 11  1  0
 11 12  1  0
 12 13  1  0
 13 14  1  0
 14 15  1  0
 15 16  1  0
 16 17  1  0
  4 18  2  0
 18 19  1  0
 19 20  2  0
 20 21  1  0
 20  2  1  0
 17 12  1  0
  1 22  1  0
  1 23  1  0
  1 24  1  0
  3 25  1  0
  6 26  1  0
  6 27  1  0
  7 28  1  0
  7 29  1  0
  8 30  1  0
  8 31  1  0
  9 32  1  0
  9 33  1  0
 10 34  1  0
 10 35  1  0
 11 36  1  0
 11 37  1  0
 12 38  1  0
 13 39  1  0
 13 40  1  0
 14 41  1  0
 14 42  1  0
 15 43  1  0
 15 44  1  0
 16 45  1  0
 16 46  1  0
 17 47  1  0
 17 48  1  0
 18 49  1  0
 19 50  1  0
M  CHG  1  12   1
M  END
>  <UniqueID>  (20) 
19

>  <SMILES>  (20) 
Cc1cc(OCCCCCC[NH+]2CCCCC2)ccc1Cl

>  <Energy>  (20) 
48.76904758091393

>  <Genealogy>  (20) 
Cc1cc(OCCCCCC[NH+]2CCCCC2)ccc1Cl (protonated)
Cc1cc(OCCCCCC[NH+]2CCCCC2)ccc1Cl (3D coordinates assigned)
Cc1cc(OCCCCCC[NH+]2CCCCC2)ccc1Cl (nonaromatic ring conformer: 48.76904758091393 kcal/mol)

>  <smiles>  (20) 
Cc1cc(OCCCCCCN2CCCCC2)ccc1Cl

>  <score_type>  (20) 
oracle

>  <origin>  (20) 
adg

>  <m_score__min__energy>  (20) 
-8.3399999999999999

>  <m_primary>  (20) 
energy

$$$$
20:0
     RDKit          3D

 49 52  0  0  0  0  0  0  0  0999 V2000
   -6.2070   25.9250  -29.6680 C   0  0  0  0  0  0  0  0  0  0  0  0
   -5.3380   25.5320  -30.8580 C   0  0  0  0  0  0  0  0  0  0  0  0
   -5.4650   24.0810  -31.1250 N   0  0  0  0  0  0  0  0  0  0  0  0
   -6.1030   23.3440  -30.0220 C   0  0  2  0  0  0  0  0  0  0  0  0
   -5.0040   23.1440  -28.9670 C   0  0  0  0  0  0  0  0  0  0  0  0
   -3.7110   23.1810  -29.7660 C   0  0  0  0  0  0  0  0  0  0  0  0
   -4.1720   23.3820  -31.2260 C   0  0  1  0  0  0  0  0  0  0  0  0
   -4.4350   22.0490  -32.0210 C   0  0  1  0  0  0  0  0  0  0  0  0
   -3.4700   20.9230  -31.6810 C   0  0  0  0  0  0  0  0  0  0  0  0
   -3.4540   20.4510  -30.5110 O   0  0  0  0  0  0  0  0  0  0  0  0
   -2.4990   20.4040  -32.6690 C   0  0  0  0  0  0  0  0  0  0  0  0
   -2.5960   19.0710  -33.1030 C   0  0  0  0  0  0  0  0  0  0  0  0
   -1.6950   18.5670  -34.0460 C   0  0  0  0  0  0  0  0  0  0  0  0
   -0.6970   19.3900  -34.5710 C   0  0  0  0  0  0  0  0  0  0  0  0
   -0.6040   20.7230  -34.1610 C   0  0  0  0  0  0  0  0  0  0  0  0
   -1.5020   21.2320  -33.2180 C   0  0  0  0  0  0  0  0  0  0  0  0
   -5.9450   21.6230  -31.9410 C   0  0  1  0  0  0  0  0  0  0  0  0
   -6.2160   20.2180  -32.4730 C   0  0  0  0  0  0  0  0  0  0  0  0
   -5.7810   19.8950  -33.7730 C   0  0  0  0  0  0  0  0  0  0  0  0
   -5.9620   18.6090  -34.2880 C   0  0  0  0  0  0  0  0  0  0  0  0
   -6.5690   17.6210  -33.5100 C   0  0  0  0  0  0  0  0  0  0  0  0
   -6.8090   15.8620  -34.2120 Br  0  0  0  0  0  0  0  0  0  0  0  0
   -6.9870   17.9190  -32.2110 C   0  0  0  0  0  0  0  0  0  0  0  0
   -6.8090   19.2040  -31.6910 C   0  0  0  0  0  0  0  0  0  0  0  0
   -6.6030   21.9700  -30.5720 C   0  0  0  0  0  0  0  0  0  0  0  0
   -5.6786   25.6860  -28.7333 H   0  0  0  0  0  0  0  0  0  0  0  0
   -6.4145   27.0046  -29.7062 H   0  0  0  0  0  0  0  0  0  0  0  0
   -7.1547   25.3679  -29.7062 H   0  0  0  0  0  0  0  0  0  0  0  0
   -5.6614   26.0948  -31.7461 H   0  0  0  0  0  0  0  0  0  0  0  0
   -4.2877   25.7648  -30.6287 H   0  0  0  0  0  0  0  0  0  0  0  0
   -6.9651   23.8736  -29.5905 H   0  0  0  0  0  0  0  0  0  0  0  0
   -5.0259   23.9532  -28.2222 H   0  0  0  0  0  0  0  0  0  0  0  0
   -5.1253   22.2070  -28.4038 H   0  0  0  0  0  0  0  0  0  0  0  0
   -3.0747   24.0167  -29.4395 H   0  0  0  0  0  0  0  0  0  0  0  0
   -3.1099   22.2689  -29.6363 H   0  0  0  0  0  0  0  0  0  0  0  0
   -3.3779   23.9168  -31.7677 H   0  0  0  0  0  0  0  0  0  0  0  0
   -4.2186   22.2717  -33.0763 H   0  0  0  0  0  0  0  0  0  0  0  0
   -3.3853   18.4203  -32.6985 H   0  0  0  0  0  0  0  0  0  0  0  0
   -1.7727   17.5202  -34.3748 H   0  0  0  0  0  0  0  0  0  0  0  0
    0.0158   18.9896  -35.3069 H   0  0  0  0  0  0  0  0  0  0  0  0
    0.1775   21.3731  -34.5812 H   0  0  0  0  0  0  0  0  0  0  0  0
   -1.4290   22.2837  -32.9039 H   0  0  0  0  0  0  0  0  0  0  0  0
   -6.4848   22.2601  -32.6570 H   0  0  0  0  0  0  0  0  0  0  0  0
   -5.2932   20.6641  -34.3899 H   0  0  0  0  0  0  0  0  0  0  0  0
   -5.6256   18.3742  -35.3086 H   0  0  0  0  0  0  0  0  0  0  0  0
   -7.4582   17.1391  -31.5947 H   0  0  0  0  0  0  0  0  0  0  0  0
   -7.1338   19.4267  -30.6639 H   0  0  0  0  0  0  0  0  0  0  0  0
   -7.6944   22.0140  -30.7021 H   0  0  0  0  0  0  0  0  0  0  0  0
   -6.3231   21.1892  -29.8495 H   0  0  0  0  0  0  0  0  0  0  0  0
  1  2  1  0
  2  3  1  0
  3  4  1  0
  4  5  1  0
  5  6  1  0
  6  7  1  0
  7  8  1  0
  8  9  1  0
  9 10  2  0
  9 11  1  0
 11 12  2  0
 12 13  1  0
 13 14  2  0
 14 15  1  0
 15 16  2  0
  8 17  1  0
 17 18  1  0
 18 19  2  0
 19 20  1  0
 20 21  2  0
 21 22  1  0
 21 23  1  0
 23 24  2  0
 17 25  1  0
  7  3  1  0
 16 11  1  0
 24 18  1  0
 25  4  1  0
  1 26  1  0
  1 27  1  0
  1 28  1  0
  2 29  1  0
  2 30  1  0
  4 31  1  1
  5 32  1  0
  5 33  1  0
  6 34  1  0
  6 35  1  0
  7 36  1  6
  8 37  1  6
 12 38  1  0
 13 39  1  0
 14 40  1  0
 15 41  1  0
 16 42  1  0
 17 43  1  6
 19 44  1  0
 20 45  1  0
 23 46  1  0
 24 47  1  0
 25 48  1  0
 25 49  1  0
M  END
>  <UniqueID>  (21) 
20

>  <SMILES>  (21) 
CCN1[C@@H]2CC[C@H]1C(C(=O)c1ccccc1)C(c1ccc(Br)cc1)C2

>  <Energy>  (21) 
81.7962639182712

>  <Genealogy>  (21) 
CCN1[C@@H]2CC[C@H]1C(C(=O)c1ccccc1)C(c1ccc(Br)cc1)C2 (chirality)
CCN1[C@@H]2CC[C@H]1C(C(=O)c1ccccc1)C(c1ccc(Br)cc1)C2 (3D coordinates assigned)
CCN1[C@@H]2CC[C@H]1C(C(=O)c1ccccc1)C(c1ccc(Br)cc1)C2 (nonaromatic ring conformer: 81.7962639182712 kcal/mol)

>  <smiles>  (21) 
CCN1C2CCC1C(C(=O)c1ccccc1)C(c1ccc(Br)cc1)C2

>  <score_type>  (21) 
oracle

>  <origin>  (21) 
adg

>  <m_score__min__energy>  (21) 
-8.5700000000000003

>  <m_primary>  (21) 
energy

$$$$
21:0
     RDKit          3D

 44 46  0  0  0  0  0  0  0  0999 V2000
   -5.4250   21.5870  -33.3980 H   0  0  0  0  0  0  0  0  0  0  0  0
   -4.8540   20.7540  -33.3640 O   0  0  0  0  0  0  0  0  0  0  0  0
   -5.3680   19.4670  -33.5300 C   0  0  0  0  0  0  0  0  0  0  0  0
   -4.8670   18.6860  -34.5770 C   0  0  0  0  0  0  0  0  0  0  0  0
   -4.0880   19.0951  -35.2372 H   0  0  0  0  0  0  0  0  0  0  0  0
   -5.3460   17.3930  -34.7920 C   0  0  0  0  0  0  0  0  0  0  0  0
   -4.9344   16.7856  -35.6115 H   0  0  0  0  0  0  0  0  0  0  0  0
   -6.3480   16.8660  -33.9690 C   0  0  0  0  0  0  0  0  0  0  0  0
   -6.8390   15.4630  -34.1780 C   0  0  0  0  0  0  0  0  0  0  0  0
   -7.0066   14.9840  -33.2021 H   0  0  0  0  0  0  0  0  0  0  0  0
   -7.7828   15.4851  -34.7425 H   0  0  0  0  0  0  0  0  0  0  0  0
   -6.0874   14.8918  -34.7425 H   0  0  0  0  0  0  0  0  0  0  0  0
   -6.8430   17.6350  -32.9060 C   0  0  0  0  0  0  0  0  0  0  0  0
   -7.6126   17.2136  -32.2426 H   0  0  0  0  0  0  0  0  0  0  0  0
   -6.3670   18.9390  -32.6780 C   0  0  0  0  0  0  0  0  0  0  0  0
   -6.9510   19.7490  -31.5440 C   0  0  0  0  0  0  0  0  0  0  0  0
   -7.9942   19.4415  -31.3791 H   0  0  0  0  0  0  0  0  0  0  0  0
   -6.3555   19.5715  -30.6363 H   0  0  0  0  0  0  0  0  0  0  0  0
   -6.9140   21.1920  -31.8660 N   0  0  0  0  0  0  0  0  0  0  0  0
   -8.2570   21.7980  -31.7380 C   0  0  0  0  0  0  0  0  0  0  0  0
   -8.9767   21.2011  -32.3175 H   0  0  0  0  0  0  0  0  0  0  0  0
   -8.5329   21.8118  -30.6733 H   0  0  0  0  0  0  0  0  0  0  0  0
   -8.2670   23.2480  -32.2640 C   0  0  0  0  0  0  0  0  0  0  0  0
   -8.7408   23.2590  -33.2567 H   0  0  0  0  0  0  0  0  0  0  0  0
   -8.8249   23.8601  -31.5401 H   0  0  0  0  0  0  0  0  0  0  0  0
   -6.8570   23.8440  -32.3860 C   0  0  0  0  0  0  0  0  0  0  0  0
   -6.3911   23.4826  -33.3146 H   0  0  0  0  0  0  0  0  0  0  0  0
   -6.9363   24.9410  -32.4013 H   0  0  0  0  0  0  0  0  0  0  0  0
   -5.9860   23.4270  -31.1880 C   0  0  2  0  0  0  0  0  0  0  0  0
   -6.4632   23.8454  -30.2895 H   0  0  0  0  0  0  0  0  0  0  0  0
   -4.6390   24.0080  -31.2660 N   0  0  0  0  0  0  0  0  0  0  0  0
   -3.6490   23.8680  -30.4310 C   0  0  0  0  0  0  0  0  0  0  0  0
   -3.1020   24.9240  -29.7910 N   0  0  0  0  0  0  0  0  0  0  0  0
   -2.0940   24.5470  -28.9600 C   0  0  0  0  0  0  0  0  0  0  0  0
   -1.5328   25.2655  -28.3445 H   0  0  0  0  0  0  0  0  0  0  0  0
   -1.8280   23.1820  -28.9490 C   0  0  0  0  0  0  0  0  0  0  0  0
   -0.8370   22.4920  -28.0740 C   0  0  0  0  0  0  0  0  0  0  0  0
   -1.0927   22.6701  -27.0191 H   0  0  0  0  0  0  0  0  0  0  0  0
   -0.8568   21.4114  -28.2788 H   0  0  0  0  0  0  0  0  0  0  0  0
    0.1696   22.8856  -28.2788 H   0  0  0  0  0  0  0  0  0  0  0  0
   -2.9070   22.4160  -29.9860 S   0  0  0  0  0  0  0  0  0  0  0  0
   -5.9570   21.8880  -30.9770 C   0  0  0  0  0  0  0  0  0  0  0  0
   -4.9424   21.5190  -31.1879 H   0  0  0  0  0  0  0  0  0  0  0  0
   -6.2454   21.6807  -29.9359 H   0  0  0  0  0  0  0  0  0  0  0  0
  1  2  1  0
  2  3  1  0
  3  4  2  0
  4  5  1  0
  4  6  1  0
  6  7  1  0
  6  8  2  0
  8  9  1  0
  9 10  1  0
  9 11  1  0
  9 12  1  0
  8 13  1  0
 13 14  1  0
 13 15  2  0
 15 16  1  0
 16 17  1  0
 16 18  1  0
 16 19  1  0
 19 20  1  0
 20 21  1  0
 20 22  1  0
 20 23  1  0
 23 24  1  0
 23 25  1  0
 23 26  1  0
 26 27  1  0
 26 28  1  0
 26 29  1  0
 29 30  1  1
 29 31  1  0
 31 32  2  0
 32 33  1  0
 33 34  1  0
 34 35  1  0
 34 36  2  0
 36 37  1  0
 37 38  1  0
 37 39  1  0
 37 40  1  0
 36 41  1  0
 29 42  1  0
 42 43  1  0
 42 44  1  0
 15  3  1  0
 42 19  1  0
 41 32  1  0
M  CHG  1  33  -1
M  END
>  <UniqueID>  (22) 
21

>  <SMILES>  (22) 
Cc1ccc(O)c(CN2CCC[C@H](/N=c3/[n-]cc(C)s3)C2)c1

>  <Energy>  (22) 
81.95105478763975

>  <Genealogy>  (22) 
Cc1ccc(O)c(CN2CCCC(N=c3[n-]cc(C)s3)C2)c1 (protonated)
Cc1ccc(O)c(CN2CCC[C@H](N=c3[n-]cc(C)s3)C2)c1 (chirality)
Cc1ccc(O)c(CN2CCC[C@H](/N=c3/[n-]cc(C)s3)C2)c1 (cis-trans isomerization)
Cc1ccc(O)c(CN2CCC[C@H](/N=c3/[n-]cc(C)s3)C2)c1 (3D coordinates assigned)
Cc1ccc(O)c(CN2CCC[C@H](/N=c3/[n-]cc(C)s3)C2)c1 (nonaromatic ring conformer: 81.95105478763975 kcal/mol)

>  <smiles>  (22) 
Cc1ccc(O)c(CN2CCCC(N=c3[nH]cc(C)s3)C2)c1

>  <score_type>  (22) 
oracle

>  <origin>  (22) 
adg

>  <m_score__min__energy>  (22) 
-9.4100000000000001

>  <m_primary>  (22) 
energy

$$$$
22:0
     RDKit          3D

 47 50  0  0  0  0  0  0  0  0999 V2000
   -2.4000   22.2660  -30.9800 O   0  0  0  0  0  0  0  0  0  0  0  0
   -3.4650   22.3190  -31.6540 C   0  0  0  0  0  0  0  0  0  0  0  0
   -3.5020   21.7930  -32.9900 N   0  0  0  0  0  0  0  0  0  0  0  0
   -2.4920   20.9350  -33.5470 C   0  0  0  0  0  0  0  0  0  0  0  0
   -2.7760   19.5730  -33.7420 C   0  0  0  0  0  0  0  0  0  0  0  0
   -1.8040   18.7150  -34.2610 C   0  0  0  0  0  0  0  0  0  0  0  0
   -0.5330   19.2040  -34.5770 C   0  0  0  0  0  0  0  0  0  0  0  0
    0.4090   18.3670  -35.0780 F   0  0  0  0  0  0  0  0  0  0  0  0
   -0.2320   20.5530  -34.3650 C   0  0  0  0  0  0  0  0  0  0  0  0
    1.0060   21.0250  -34.6520 F   0  0  0  0  0  0  0  0  0  0  0  0
   -1.2040   21.4150  -33.8460 C   0  0  0  0  0  0  0  0  0  0  0  0
   -4.6440   22.9220  -31.0840 N   0  0  0  0  0  0  0  0  0  0  0  0
   -4.4830   24.0170  -30.1210 C   0  0  0  0  0  0  0  0  0  0  0  0
   -5.4370   25.1570  -30.4730 C   0  0  0  0  0  0  0  0  0  0  0  0
   -6.8870   24.6680  -30.4520 C   0  0  0  0  0  0  0  0  0  0  0  0
   -7.0720   23.3830  -31.2230 C   0  0  0  0  0  0  0  0  0  0  0  0
   -8.3660   23.0020  -31.6080 C   0  0  0  0  0  0  0  0  0  0  0  0
   -8.5860   21.7780  -32.2370 C   0  0  0  0  0  0  0  0  0  0  0  0
   -7.5200   20.8920  -32.4560 C   0  0  0  0  0  0  0  0  0  0  0  0
   -7.7250   19.6240  -33.1050 N   0  0  0  0  0  0  0  0  0  0  0  0
   -6.8060   18.5190  -33.0360 C   0  0  0  0  0  0  0  0  0  0  0  0
   -6.6560   17.7730  -31.8520 C   0  0  0  0  0  0  0  0  0  0  0  0
   -5.7380   16.7200  -31.7940 C   0  0  0  0  0  0  0  0  0  0  0  0
   -4.9530   16.4120  -32.9070 C   0  0  0  0  0  0  0  0  0  0  0  0
   -5.0800   17.1610  -34.0800 C   0  0  0  0  0  0  0  0  0  0  0  0
   -5.9960   18.2160  -34.1440 C   0  0  0  0  0  0  0  0  0  0  0  0
   -6.1080   18.9330  -35.2920 F   0  0  0  0  0  0  0  0  0  0  0  0
   -6.2230   21.2720  -32.0830 C   0  0  0  0  0  0  0  0  0  0  0  0
   -5.9800   22.5210  -31.4760 C   0  0  0  0  0  0  0  0  0  0  0  0
   -4.2640   22.1320  -33.6210 H   0  0  0  0  0  0  0  0  0  0  0  0
   -3.7705   19.1798  -33.4842 H   0  0  0  0  0  0  0  0  0  0  0  0
   -2.0389   17.6524  -34.4215 H   0  0  0  0  0  0  0  0  0  0  0  0
   -0.9599   22.4732  -33.6709 H   0  0  0  0  0  0  0  0  0  0  0  0
   -4.7094   23.6501  -29.1090 H   0  0  0  0  0  0  0  0  0  0  0  0
   -3.4469   24.3847  -30.1576 H   0  0  0  0  0  0  0  0  0  0  0  0
   -5.3179   25.9682  -29.7397 H   0  0  0  0  0  0  0  0  0  0  0  0
   -5.1989   25.5212  -31.4833 H   0  0  0  0  0  0  0  0  0  0  0  0
   -7.1880   24.4998  -29.4075 H   0  0  0  0  0  0  0  0  0  0  0  0
   -7.5081   25.4391  -30.9311 H   0  0  0  0  0  0  0  0  0  0  0  0
   -9.2139   23.6748  -31.4118 H   0  0  0  0  0  0  0  0  0  0  0  0
   -9.6004   21.5050  -32.5635 H   0  0  0  0  0  0  0  0  0  0  0  0
   -8.5950   19.5020  -33.6710 H   0  0  0  0  0  0  0  0  0  0  0  0
   -7.2635   18.0194  -30.9687 H   0  0  0  0  0  0  0  0  0  0  0  0
   -5.6339   16.1329  -30.8696 H   0  0  0  0  0  0  0  0  0  0  0  0
   -4.2349   15.5801  -32.8605 H   0  0  0  0  0  0  0  0  0  0  0  0
   -4.4582   16.9203  -34.9549 H   0  0  0  0  0  0  0  0  0  0  0  0
   -5.3831   20.5858  -32.2666 H   0  0  0  0  0  0  0  0  0  0  0  0
  1  2  2  0
  2  3  1  0
  3  4  1  0
  4  5  2  0
  5  6  1  0
  6  7  2  0
  7  8  1  0
  7  9  1  0
  9 10  1  0
  9 11  2  0
  2 12  1  0
 12 13  1  0
 13 14  1  0
 14 15  1  0
 15 16  1  0
 16 17  2  0
 17 18  1  0
 18 19  2  0
 19 20  1  0
 20 21  1  0
 21 22  2  0
 22 23  1  0
 23 24  2  0
 24 25  1  0
 25 26  2  0
 26 27  1  0
 19 28  1  0
 28 29  2  0
 11  4  1  0
 29 12  1  0
 29 16  1  0
 26 21  1  0
  3 30  1  0
  5 31  1  0
  6 32  1  0
 11 33  1  0
 13 34  1  0
 13 35  1  0
 14 36  1  0
 14 37  1  0
 15 38  1  0
 15 39  1  0
 17 40  1  0
 18 41  1  0
 20 42  1  0
 22 43  1  0
 23 44  1  0
 24 45  1  0
 25 46  1  0
 28 47  1  0
M  END
>  <UniqueID>  (23) 
22

>  <SMILES>  (23) 
O=C(Nc1ccc(F)c(F)c1)N1CCCc2ccc(Nc3ccccc3F)cc21

>  <Energy>  (23) 
65.69133131751623

>  <Genealogy>  (23) 
O=C(Nc1ccc(F)c(F)c1)N1CCCc2ccc(Nc3ccccc3F)cc21 (3D coordinates assigned)
O=C(Nc1ccc(F)c(F)c1)N1CCCc2ccc(Nc3ccccc3F)cc21 (nonaromatic ring conformer: 65.69133131751623 kcal/mol)

>  <smiles>  (23) 
O=C(Nc1ccc(F)c(F)c1)N1CCCc2ccc(Nc3ccccc3F)cc21

>  <score_type>  (23) 
oracle

>  <origin>  (23) 
adg

>  <m_score__min__energy>  (23) 
-9.2100000000000009

>  <m_primary>  (23) 
energy

$$$$
23:0
     RDKit          3D

 22 22  0  0  0  0  0  0  0  0999 V2000
   -7.9367   23.8522  -30.8034 H   0  0  0  0  0  0  0  0  0  0  0  0
   -7.1730   23.3140  -31.3840 C   0  0  0  0  0  0  0  0  0  0  0  0
   -6.0100   23.9310  -31.6150 C   0  0  0  0  0  0  0  0  0  0  0  0
   -5.5629   23.8940  -32.6194 H   0  0  0  0  0  0  0  0  0  0  0  0
   -5.1910   24.7990  -30.3300 S   0  0  0  0  0  0  0  0  0  0  0  0
   -3.8720   25.3070  -30.8430 O   0  0  0  0  0  0  0  0  0  0  0  0
   -6.0290   25.9670  -29.8930 O   0  0  0  0  0  0  0  0  0  0  0  0
   -4.8990   23.7110  -28.9530 C   0  0  0  0  0  0  0  0  0  0  0  0
   -5.0469   24.2620  -28.0125 H   0  0  0  0  0  0  0  0  0  0  0  0
   -5.6022   22.8663  -28.9975 H   0  0  0  0  0  0  0  0  0  0  0  0
   -3.8673   23.3319  -28.9975 H   0  0  0  0  0  0  0  0  0  0  0  0
   -7.4970   21.9470  -31.8630 C   0  0  0  0  0  0  0  0  0  0  0  0
   -8.7650   21.4170  -31.5710 C   0  0  0  0  0  0  0  0  0  0  0  0
   -9.4903   22.0194  -31.0045 H   0  0  0  0  0  0  0  0  0  0  0  0
   -9.1130   20.1310  -31.9940 C   0  0  0  0  0  0  0  0  0  0  0  0
  -10.1113   19.7294  -31.7655 H   0  0  0  0  0  0  0  0  0  0  0  0
   -8.1960   19.3550  -32.7060 C   0  0  0  0  0  0  0  0  0  0  0  0
   -8.4731   18.3451  -33.0426 H   0  0  0  0  0  0  0  0  0  0  0  0
   -6.9270   19.8630  -32.9900 C   0  0  0  0  0  0  0  0  0  0  0  0
   -6.2025   19.2495  -33.5457 H   0  0  0  0  0  0  0  0  0  0  0  0
   -6.5740   21.1500  -32.5700 C   0  0  0  0  0  0  0  0  0  0  0  0
   -5.5707   21.5421  -32.7927 H   0  0  0  0  0  0  0  0  0  0  0  0
  1  2  1  0
  2  3  2  0
  3  4  1  0
  3  5  1  0
  5  6  2  0
  5  7  2  0
  5  8  1  0
  8  9  1  0
  8 10  1  0
  8 11  1  0
  2 12  1  0
 12 13  2  0
 13 14  1  0
 13 15  1  0
 15 16  1  0
 15 17  2  0
 17 18  1  0
 17 19  1  0
 19 20  1  0
 19 21  2  0
 21 22  1  0
 21 12  1  0
M  END
>  <UniqueID>  (24) 
23

>  <SMILES>  (24) 
CS(=O)(=O)/C=C/c1ccccc1

>  <Energy>  (24) 
18.793583853893956

>  <Genealogy>  (24) 
CS(=O)(=O)/C=C/c1ccccc1 (cis-trans isomerization)
CS(=O)(=O)/C=C/c1ccccc1 (3D coordinates assigned)
CS(=O)(=O)/C=C/c1ccccc1 (optimized conformer: 18.793583853893956 kcal/mol)

>  <smiles>  (24) 
CS(=O)(=O)C=Cc1ccccc1

>  <score_type>  (24) 
oracle

>  <origin>  (24) 
adg

>  <m_score__min__energy>  (24) 
-6.6900000000000004

>  <m_primary>  (24) 
energy

$$$$
24:0
     RDKit          3D

 79 82  0  0  0  0  0  0  0  0999 V2000
   -7.5100   23.4330  -32.5450 C   0  0  0  0  0  0  0  0  0  0  0  0
   -7.2710   23.0760  -31.1050 C   0  0  0  0  0  0  0  0  0  0  0  0
   -8.0760   21.9610  -30.4860 C   0  0  0  0  0  0  0  0  0  0  0  0
   -6.3140   23.7440  -30.4330 C   0  0  0  0  0  0  0  0  0  0  0  0
   -4.9810   24.0920  -30.9670 C   0  0  0  0  0  0  0  0  0  0  0  0
   -4.5790   25.2790  -30.8380 O   0  0  0  0  0  0  0  0  0  0  0  0
   -4.0220   23.0520  -31.4910 C   0  0  0  0  0  0  0  0  0  0  0  0
   -4.4030   21.6290  -31.0060 C   0  0  1  0  0  0  0  0  0  0  0  0
   -4.6500   20.6720  -32.1920 C   0  0  0  0  0  0  0  0  0  0  0  0
   -3.4490   21.0940  -29.8760 C   0  0  1  0  0  0  0  0  0  0  0  0
   -2.1330   20.5040  -30.4620 C   0  0  0  0  0  0  0  0  0  0  0  0
   -0.9650   21.3560  -29.9350 C   0  0  0  0  0  0  0  0  0  0  0  0
   -1.6340   22.5470  -29.2660 C   0  0  2  0  0  0  0  0  0  0  0  0
   -0.8020   23.4870  -28.3570 C   0  0  2  0  0  0  0  0  0  0  0  0
    0.0930   22.8500  -27.2820 C   0  0  0  0  0  0  0  0  0  0  0  0
    1.0780   23.8870  -26.6970 C   0  0  0  0  0  0  0  0  0  0  0  0
    0.6170   25.3780  -26.8410 C   0  0  1  0  0  0  0  0  0  0  0  0
   -0.9320   25.4860  -26.6760 C   0  0  2  0  0  0  0  0  0  0  0  0
   -1.3350   25.2000  -25.2070 C   0  0  0  0  0  0  0  0  0  0  0  0
   -0.5120   26.0110  -24.2430 C   0  0  0  0  0  0  0  0  0  0  0  0
   -1.0460   26.5320  -23.2770 O   0  0  0  0  0  0  0  0  0  0  0  0
    0.9820   26.1030  -24.4090 C   0  0  0  0  0  0  0  0  0  0  0  0
    1.3860   26.3750  -25.8870 C   0  0  2  0  0  0  0  0  0  0  0  0
    1.0080   27.8490  -26.2220 C   0  0  0  0  0  0  0  0  0  0  0  0
    2.9440   26.2190  -25.9920 C   0  0  0  0  0  0  0  0  0  0  0  0
    3.4910   25.4030  -27.1900 C   0  0  0  0  0  0  0  0  0  0  0  0
    4.2370   24.1750  -26.7750 C   0  0  0  0  0  0  0  0  0  0  0  0
    4.1740   23.1250  -27.4650 O   0  0  0  0  0  0  0  0  0  0  0  0
    5.0300   24.1970  -25.6330 O   0  0  0  0  0  0  0  0  0  0  0  0
   -1.6900   24.6300  -27.7640 C   0  0  2  0  0  0  0  0  0  0  0  0
   -3.1190   24.1770  -27.3240 C   0  0  0  0  0  0  0  0  0  0  0  0
   -3.8330   23.2610  -28.3420 C   0  0  0  0  0  0  0  0  0  0  0  0
   -2.9660   22.0310  -28.7130 C   0  0  1  0  0  0  0  0  0  0  0  0
   -2.8060   21.1200  -27.4550 C   0  0  0  0  0  0  0  0  0  0  0  0
   -8.1212   24.3459  -32.5999 H   0  0  0  0  0  0  0  0  0  0  0  0
   -6.5455   23.6068  -33.0446 H   0  0  0  0  0  0  0  0  0  0  0  0
   -8.0382   22.6075  -33.0446 H   0  0  0  0  0  0  0  0  0  0  0  0
   -8.0225   22.0350  -29.3898 H   0  0  0  0  0  0  0  0  0  0  0  0
   -9.1245   22.0431  -30.8084 H   0  0  0  0  0  0  0  0  0  0  0  0
   -7.6681   20.9916  -30.8084 H   0  0  0  0  0  0  0  0  0  0  0  0
   -6.5432   24.0557  -29.4033 H   0  0  0  0  0  0  0  0  0  0  0  0
   -4.0403   23.0713  -32.5907 H   0  0  0  0  0  0  0  0  0  0  0  0
   -3.0170   23.2877  -31.1109 H   0  0  0  0  0  0  0  0  0  0  0  0
   -5.3761   21.6888  -30.4966 H   0  0  0  0  0  0  0  0  0  0  0  0
   -4.9078   19.6733  -31.8097 H   0  0  0  0  0  0  0  0  0  0  0  0
   -5.4788   21.0549  -32.8057 H   0  0  0  0  0  0  0  0  0  0  0  0
   -3.7395   20.6060  -32.8057 H   0  0  0  0  0  0  0  0  0  0  0  0
   -4.1499   20.3781  -29.4219 H   0  0  0  0  0  0  0  0  0  0  0  0
   -2.0125   19.4602  -30.1364 H   0  0  0  0  0  0  0  0  0  0  0  0
   -2.1582   20.5216  -31.5616 H   0  0  0  0  0  0  0  0  0  0  0  0
   -0.3661   20.7876  -29.2082 H   0  0  0  0  0  0  0  0  0  0  0  0
   -0.2741   21.6594  -30.7354 H   0  0  0  0  0  0  0  0  0  0  0  0
   -1.7953   23.3207  -30.0311 H   0  0  0  0  0  0  0  0  0  0  0  0
   -0.0598   23.8994  -29.0563 H   0  0  0  0  0  0  0  0  0  0  0  0
   -0.5403   22.4585  -26.4723 H   0  0  0  0  0  0  0  0  0  0  0  0
    0.6727   22.0375  -27.7445 H   0  0  0  0  0  0  0  0  0  0  0  0
    1.2089   23.6702  -25.6266 H   0  0  0  0  0  0  0  0  0  0  0  0
    2.0100   23.7917  -27.2735 H   0  0  0  0  0  0  0  0  0  0  0  0
    0.8851   25.6969  -27.8591 H   0  0  0  0  0  0  0  0  0  0  0  0
   -1.2582   26.5177  -26.8740 H   0  0  0  0  0  0  0  0  0  0  0  0
   -2.3969   25.4530  -25.0717 H   0  0  0  0  0  0  0  0  0  0  0  0
   -1.1579   24.1340  -25.0011 H   0  0  0  0  0  0  0  0  0  0  0  0
    1.3598   26.9228  -23.7804 H   0  0  0  0  0  0  0  0  0  0  0  0
    1.4184   25.1391  -24.1082 H   0  0  0  0  0  0  0  0  0  0  0  0
    0.8637   28.4119  -25.2880 H   0  0  0  0  0  0  0  0  0  0  0  0
    1.8167   28.3110  -26.8073 H   0  0  0  0  0  0  0  0  0  0  0  0
    0.0767   27.8648  -26.8073 H   0  0  0  0  0  0  0  0  0  0  0  0
    3.3750   27.2291  -26.0544 H   0  0  0  0  0  0  0  0  0  0  0  0
    3.2339   25.6448  -25.0997 H   0  0  0  0  0  0  0  0  0  0  0  0
    2.6437   25.1002  -27.8227 H   0  0  0  0  0  0  0  0  0  0  0  0
    4.1993   26.0491  -27.7293 H   0  0  0  0  0  0  0  0  0  0  0  0
   -1.8798   25.3111  -28.6067 H   0  0  0  0  0  0  0  0  0  0  0  0
   -3.0307   23.6325  -26.3723 H   0  0  0  0  0  0  0  0  0  0  0  0
   -3.7277   25.0892  -27.2376 H   0  0  0  0  0  0  0  0  0  0  0  0
   -4.7794   22.9110  -27.9041 H   0  0  0  0  0  0  0  0  0  0  0  0
   -4.0137   23.8421  -29.2583 H   0  0  0  0  0  0  0  0  0  0  0  0
   -2.9130   21.7290  -26.5453 H   0  0  0  0  0  0  0  0  0  0  0  0
   -3.5808   20.3392  -27.4668 H   0  0  0  0  0  0  0  0  0  0  0  0
   -1.8116   20.6500  -27.4668 H   0  0  0  0  0  0  0  0  0  0  0  0
  1  2  1  0
  2  3  1  0
  2  4  2  3
  4  5  1  0
  5  6  2  0
  5  7  1  0
  7  8  1  0
  8  9  1  0
  8 10  1  0
 10 11  1  0
 11 12  1  0
 12 13  1  0
 13 14  1  0
 14 15  1  0
 15 16  1  0
 16 17  1  0
 17 18  1  0
 18 19  1  0
 19 20  1  0
 20 21  2  0
 20 22  1  0
 22 23  1  0
 23 24  1  6
 23 25  1  0
 25 26  1  0
 26 27  1  0
 27 28  2  0
 27 29  1  0
 18 30  1  0
 30 31  1  0
 31 32  1  0
 32 33  1  0
 33 34  1  1
 33 10  1  0
 33 13  1  0
 30 14  1  0
 23 17  1  0
  1 35  1  0
  1 36  1  0
  1 37  1  0
  3 38  1  0
  3 39  1  0
  3 40  1  0
  4 41  1  0
  7 42  1  0
  7 43  1  0
  8 44  1  1
  9 45  1  0
  9 46  1  0
  9 47  1  0
 10 48  1  1
 11 49  1  0
 11 50  1  0
 12 51  1  0
 12 52  1  0
 13 53  1  6
 14 54  1  6
 15 55  1  0
 15 56  1  0
 16 57  1  0
 16 58  1  0
 17 59  1  6
 18 60  1  6
 19 61  1  0
 19 62  1  0
 22 63  1  0
 22 64  1  0
 24 65  1  0
 24 66  1  0
 24 67  1  0
 25 68  1  0
 25 69  1  0
 26 70  1  0
 26 71  1  0
 30 72  1  6
 31 73  1  0
 31 74  1  0
 32 75  1  0
 32 76  1  0
 34 77  1  0
 34 78  1  0
 34 79  1  0
M  CHG  1  29  -1
M  END
>  <UniqueID>  (25) 
24

>  <SMILES>  (25) 
CC(C)=CC(=O)C[C@@H](C)[C@H]1CCC2C3CCC4C(CC(=O)CC4(C)CCC(=O)[O-])C3CCC21C

>  <Energy>  (25) 
124.81115293173235

>  <Genealogy>  (25) 
CC(C)=CC(=O)CC(C)C1CCC2C3CCC4C(CC(=O)CC4(C)CCC(=O)[O-])C3CCC12C (protonated)
CC(C)=CC(=O)C[C@@H](C)[C@H]1CCC2C3CCC4C(CC(=O)CC4(C)CCC(=O)[O-])C3CCC21C (chirality)
CC(C)=CC(=O)C[C@@H](C)[C@H]1CCC2C3CCC4C(CC(=O)CC4(C)CCC(=O)[O-])C3CCC21C (3D coordinates assigned)
CC(C)=CC(=O)C[C@@H](C)[C@H]1CCC2C3CCC4C(CC(=O)CC4(C)CCC(=O)[O-])C3CCC21C (nonaromatic ring conformer: 124.81115293173235 kcal/mol)

>  <smiles>  (25) 
CC(C)=CC(=O)CC(C)C1CCC2C3CCC4C(CC(=O)CC4(C)CCC(=O)O)C3CCC12C

>  <score_type>  (25) 
oracle

>  <origin>  (25) 
adg

>  <m_score__min__energy>  (25) 
-12.130000000000001

>  <m_primary>  (25) 
energy

$$$$
25:0
     RDKit          3D

 43 45  0  0  0  0  0  0  0  0999 V2000
   -0.8980   20.4590  -35.2500 O   0  0  0  0  0  0  0  0  0  0  0  0
   -0.4670   21.4100  -34.5440 C   0  0  0  0  0  0  0  0  0  0  0  0
   -0.9610   21.6040  -33.2100 N   0  0  0  0  0  0  0  0  0  0  0  0
   -2.1980   21.0530  -32.7360 C   0  0  0  0  0  0  0  0  0  0  0  0
   -2.2770   20.5420  -31.1770 S   0  0  0  0  0  0  0  0  0  0  0  0
   -3.3360   20.9420  -33.6160 N   0  0  0  0  0  0  0  0  0  0  0  0
   -4.6690   20.6160  -33.1900 C   0  0  0  0  0  0  0  0  0  0  0  0
   -5.1820   19.3190  -33.3490 C   0  0  0  0  0  0  0  0  0  0  0  0
   -6.4680   19.0130  -32.9000 C   0  0  0  0  0  0  0  0  0  0  0  0
   -7.2490   19.9870  -32.2700 C   0  0  0  0  0  0  0  0  0  0  0  0
   -8.8680   19.5430  -31.7380 Cl  0  0  0  0  0  0  0  0  0  0  0  0
   -6.7320   21.2840  -32.0750 C   0  0  0  0  0  0  0  0  0  0  0  0
   -7.6920   22.5430  -31.2860 S   0  0  0  0  0  0  0  0  0  0  0  0
   -8.6560   21.9260  -30.3100 O   0  0  0  0  0  0  0  0  0  0  0  0
   -8.4760   23.2820  -32.3350 O   0  0  0  0  0  0  0  0  0  0  0  0
   -6.6380   23.6530  -30.4440 N   0  0  0  0  0  0  0  0  0  0  0  0
   -6.1060   24.6560  -31.3880 C   0  0  0  0  0  0  0  0  0  0  0  0
   -4.8230   25.2950  -30.8340 C   0  0  0  0  0  0  0  0  0  0  0  0
   -3.7690   24.3720  -30.5900 O   0  0  0  0  0  0  0  0  0  0  0  0
   -4.2100   23.0320  -30.4180 C   0  0  0  0  0  0  0  0  0  0  0  0
   -5.5740   22.9280  -29.7130 C   0  0  0  0  0  0  0  0  0  0  0  0
   -5.4380   21.5840  -32.5320 C   0  0  0  0  0  0  0  0  0  0  0  0
    0.5840   22.2820  -35.0940 C   0  0  0  0  0  0  0  0  0  0  0  0
    0.4320   23.2270  -36.0920 C   0  0  0  0  0  0  0  0  0  0  0  0
    1.6820   23.7810  -36.2720 C   0  0  0  0  0  0  0  0  0  0  0  0
    2.5160   23.1420  -35.3790 C   0  0  0  0  0  0  0  0  0  0  0  0
    1.8340   22.2540  -34.6930 O   0  0  0  0  0  0  0  0  0  0  0  0
   -0.3420   22.0760  -32.5160 H   0  0  0  0  0  0  0  0  0  0  0  0
   -3.1980   21.0890  -34.6400 H   0  0  0  0  0  0  0  0  0  0  0  0
   -4.5691   18.5417  -33.8287 H   0  0  0  0  0  0  0  0  0  0  0  0
   -6.8696   17.9989  -33.0427 H   0  0  0  0  0  0  0  0  0  0  0  0
   -5.8807   24.1660  -32.3467 H   0  0  0  0  0  0  0  0  0  0  0  0
   -6.8607   25.4434  -31.5305 H   0  0  0  0  0  0  0  0  0  0  0  0
   -4.4674   26.0401  -31.5609 H   0  0  0  0  0  0  0  0  0  0  0  0
   -5.0855   25.7382  -29.8621 H   0  0  0  0  0  0  0  0  0  0  0  0
   -4.2918   22.5611  -31.4087 H   0  0  0  0  0  0  0  0  0  0  0  0
   -3.4723   22.5248  -29.7788 H   0  0  0  0  0  0  0  0  0  0  0  0
   -5.8547   21.8670  -29.6392 H   0  0  0  0  0  0  0  0  0  0  0  0
   -5.4756   23.3861  -28.7178 H   0  0  0  0  0  0  0  0  0  0  0  0
   -5.0241   22.5904  -32.3713 H   0  0  0  0  0  0  0  0  0  0  0  0
   -0.4927   23.4833  -36.6299 H   0  0  0  0  0  0  0  0  0  0  0  0
    1.9580   24.5727  -36.9841 H   0  0  0  0  0  0  0  0  0  0  0  0
    3.5904   23.3454  -35.2594 H   0  0  0  0  0  0  0  0  0  0  0  0
  1  2  2  0
  2  3  1  0
  3  4  1  0
  4  5  2  0
  4  6  1  0
  6  7  1  0
  7  8  2  0
  8  9  1  0
  9 10  2  0
 10 11  1  0
 10 12  1  0
 12 13  1  0
 13 14  2  0
 13 15  2  0
 13 16  1  0
 16 17  1  0
 17 18  1  0
 18 19  1  0
 19 20  1  0
 20 21  1  0
 12 22  2  0
  2 23  1  0
 23 24  2  0
 24 25  1  0
 25 26  2  0
 26 27  1  0
 22  7  1  0
 27 23  1  0
 21 16  1  0
  3 28  1  0
  6 29  1  0
  8 30  1  0
  9 31  1  0
 17 32  1  0
 17 33  1  0
 18 34  1  0
 18 35  1  0
 20 36  1  0
 20 37  1  0
 21 38  1  0
 21 39  1  0
 22 40  1  0
 24 41  1  0
 25 42  1  0
 26 43  1  0
M  END
>  <UniqueID>  (26) 
25

>  <SMILES>  (26) 
O=C(NC(=S)Nc1ccc(Cl)c(S(=O)(=O)N2CCOCC2)c1)c1ccco1

>  <Energy>  (26) 
91.59792814995508

>  <Genealogy>  (26) 
O=C(NC(=S)Nc1ccc(Cl)c(S(=O)(=O)N2CCOCC2)c1)c1ccco1 (3D coordinates assigned)
O=C(NC(=S)Nc1ccc(Cl)c(S(=O)(=O)N2CCOCC2)c1)c1ccco1 (nonaromatic ring conformer: 91.59792814995508 kcal/mol)

>  <smiles>  (26) 
O=C(NC(=S)Nc1ccc(Cl)c(S(=O)(=O)N2CCOCC2)c1)c1ccco1

>  <score_type>  (26) 
oracle

>  <origin>  (26) 
adg

>  <m_score__min__energy>  (26) 
-10.17

>  <m_primary>  (26) 
energy

$$$$
26:0
     RDKit          3D

 30 31  0  0  0  0  0  0  0  0999 V2000
   -9.3540   19.9080  -32.7380 C   0  0  0  0  0  0  0  0  0  0  0  0
   -9.0220   20.5810  -31.4120 C   0  0  0  0  0  0  0  0  0  0  0  0
   -7.9270   21.5360  -31.5860 N   0  0  0  0  0  0  0  0  0  0  0  0
   -7.9060   22.8090  -31.1240 C   0  0  0  0  0  0  0  0  0  0  0  0
   -6.6800   23.4030  -31.4040 C   0  0  0  0  0  0  0  0  0  0  0  0
   -6.2440   24.7770  -30.9840 C   0  0  0  0  0  0  0  0  0  0  0  0
   -5.0540   24.7150  -30.0220 C   0  0  0  0  0  0  0  0  0  0  0  0
   -3.8540   25.2710  -30.6420 N   0  0  0  0  0  0  0  0  0  0  0  0
   -5.9260   22.4320  -32.0370 C   0  0  0  0  0  0  0  0  0  0  0  0
   -4.6120   22.4510  -32.5050 C   0  0  0  0  0  0  0  0  0  0  0  0
   -4.1040   21.2770  -33.0890 C   0  0  0  0  0  0  0  0  0  0  0  0
   -4.9090   20.1200  -33.1870 C   0  0  0  0  0  0  0  0  0  0  0  0
   -4.1970   18.5340  -33.9760 Br  0  0  0  0  0  0  0  0  0  0  0  0
   -6.2290   20.1280  -32.7010 C   0  0  0  0  0  0  0  0  0  0  0  0
   -6.7120   21.3100  -32.1310 C   0  0  0  0  0  0  0  0  0  0  0  0
   -9.8332   18.9366  -32.5463 H   0  0  0  0  0  0  0  0  0  0  0  0
  -10.0397   20.5481  -33.3125 H   0  0  0  0  0  0  0  0  0  0  0  0
   -8.4288   19.7534  -33.3125 H   0  0  0  0  0  0  0  0  0  0  0  0
   -9.9114   21.1124  -31.0423 H   0  0  0  0  0  0  0  0  0  0  0  0
   -8.7138   19.8120  -30.6883 H   0  0  0  0  0  0  0  0  0  0  0  0
   -8.7392   23.3024  -30.6021 H   0  0  0  0  0  0  0  0  0  0  0  0
   -5.9528   25.3489  -31.8774 H   0  0  0  0  0  0  0  0  0  0  0  0
   -7.0835   25.2637  -30.4659 H   0  0  0  0  0  0  0  0  0  0  0  0
   -5.2922   25.2924  -29.1165 H   0  0  0  0  0  0  0  0  0  0  0  0
   -4.8625   23.6623  -29.7667 H   0  0  0  0  0  0  0  0  0  0  0  0
   -3.5130   26.0490  -30.0320 H   0  0  0  0  0  0  0  0  0  0  0  0
   -4.1280   25.7050  -31.5530 H   0  0  0  0  0  0  0  0  0  0  0  0
   -3.9926   23.3560  -32.4199 H   0  0  0  0  0  0  0  0  0  0  0  0
   -3.0730   21.2593  -33.4721 H   0  0  0  0  0  0  0  0  0  0  0  0
   -6.8624   19.2311  -32.7674 H   0  0  0  0  0  0  0  0  0  0  0  0
  1  2  1  0
  2  3  1  0
  3  4  1  0
  4  5  2  0
  5  6  1  0
  6  7  1  0
  7  8  1  0
  5  9  1  0
  9 10  2  0
 10 11  1  0
 11 12  2  0
 12 13  1  0
 12 14  1  0
 14 15  2  0
 15  3  1  0
 15  9  1  0
  1 16  1  0
  1 17  1  0
  1 18  1  0
  2 19  1  0
  2 20  1  0
  4 21  1  0
  6 22  1  0
  6 23  1  0
  7 24  1  0
  7 25  1  0
  8 26  1  0
  8 27  1  0
 10 28  1  0
 11 29  1  0
 14 30  1  0
M  END
>  <UniqueID>  (27) 
26

>  <SMILES>  (27) 
CCn1cc(CCN)c2ccc(Br)cc21

>  <Energy>  (27) 
55.216395408683404

>  <Genealogy>  (27) 
CCn1cc(CCN)c2ccc(Br)cc21 (3D coordinates assigned)
CCn1cc(CCN)c2ccc(Br)cc21 (optimized conformer: 55.216395408683404 kcal/mol)

>  <smiles>  (27) 
CCn1cc(CCN)c2ccc(Br)cc21

>  <score_type>  (27) 
oracle

>  <origin>  (27) 
adg

>  <m_score__min__energy>  (27) 
-7.8499999999999996

>  <m_primary>  (27) 
energy

$$$$
27:0
     RDKit          3D

 42 44  0  0  0  0  0  0  0  0999 V2000
    0.1810   23.2450  -26.3090 C   0  0  0  0  0  0  0  0  0  0  0  0
    0.1030   23.7750  -27.7060 C   0  0  0  0  0  0  0  0  0  0  0  0
    1.1540   24.2100  -28.2480 O   0  0  0  0  0  0  0  0  0  0  0  0
   -1.1690   23.7640  -28.4660 C   0  0  0  0  0  0  0  0  0  0  0  0
   -1.7450   24.8220  -29.1470 C   0  0  0  0  0  0  0  0  0  0  0  0
   -1.2380   26.1100  -29.2710 O   0  0  0  0  0  0  0  0  0  0  0  0
   -2.9220   24.3740  -29.6920 C   0  0  0  0  0  0  0  0  0  0  0  0
   -3.7640   25.1540  -30.4840 O   0  0  0  0  0  0  0  0  0  0  0  0
   -3.1250   23.0740  -29.3710 N   0  0  0  0  0  0  0  0  0  0  0  0
   -4.2020   22.2010  -29.8620 C   0  0  0  0  0  0  0  0  0  0  0  0
   -4.3080   22.2510  -31.3920 C   0  0  0  0  0  0  0  0  0  0  0  0
   -5.5980   21.6450  -31.8810 C   0  0  0  0  0  0  0  0  0  0  0  0
   -6.8290   22.0900  -31.3700 C   0  0  0  0  0  0  0  0  0  0  0  0
   -8.0220   21.4920  -31.7870 C   0  0  0  0  0  0  0  0  0  0  0  0
   -7.9940   20.4470  -32.7150 C   0  0  0  0  0  0  0  0  0  0  0  0
   -6.7730   19.9970  -33.2250 C   0  0  0  0  0  0  0  0  0  0  0  0
   -5.5770   20.5910  -32.8080 C   0  0  0  0  0  0  0  0  0  0  0  0
   -2.0520   22.6940  -28.6280 C   0  0  0  0  0  0  0  0  0  0  0  0
   -1.8250   21.3180  -28.1490 C   0  0  0  0  0  0  0  0  0  0  0  0
   -0.6610   20.6270  -28.5210 C   0  0  0  0  0  0  0  0  0  0  0  0
   -0.4480   19.3190  -28.0750 C   0  0  0  0  0  0  0  0  0  0  0  0
   -1.3930   18.6960  -27.2560 C   0  0  0  0  0  0  0  0  0  0  0  0
   -2.5530   19.3800  -26.8800 C   0  0  0  0  0  0  0  0  0  0  0  0
   -3.4690   18.7760  -26.0830 F   0  0  0  0  0  0  0  0  0  0  0  0
   -2.7690   20.6890  -27.3240 C   0  0  0  0  0  0  0  0  0  0  0  0
    0.0591   24.0731  -25.5953 H   0  0  0  0  0  0  0  0  0  0  0  0
   -0.6180   22.5053  -26.1523 H   0  0  0  0  0  0  0  0  0  0  0  0
    1.1592   22.7669  -26.1523 H   0  0  0  0  0  0  0  0  0  0  0  0
   -3.5000   26.0680  -30.8270 H   0  0  0  0  0  0  0  0  0  0  0  0
   -3.9943   21.1665  -29.5510 H   0  0  0  0  0  0  0  0  0  0  0  0
   -5.1538   22.5521  -29.4369 H   0  0  0  0  0  0  0  0  0  0  0  0
   -4.2607   23.3003  -31.7186 H   0  0  0  0  0  0  0  0  0  0  0  0
   -3.4745   21.6694  -31.8128 H   0  0  0  0  0  0  0  0  0  0  0  0
   -6.8541   22.9118  -30.6393 H   0  0  0  0  0  0  0  0  0  0  0  0
   -8.9833   21.8441  -31.3846 H   0  0  0  0  0  0  0  0  0  0  0  0
   -8.9333   19.9786  -33.0440 H   0  0  0  0  0  0  0  0  0  0  0  0
   -6.7524   19.1746  -33.9553 H   0  0  0  0  0  0  0  0  0  0  0  0
   -4.6174   20.2311  -33.2076 H   0  0  0  0  0  0  0  0  0  0  0  0
    0.0852   21.1156  -29.1648 H   0  0  0  0  0  0  0  0  0  0  0  0
    0.4646   18.7799  -28.3693 H   0  0  0  0  0  0  0  0  0  0  0  0
   -1.2243   17.6666  -26.9068 H   0  0  0  0  0  0  0  0  0  0  0  0
   -3.6813   21.2262  -27.0254 H   0  0  0  0  0  0  0  0  0  0  0  0
  1  2  1  0
  2  3  2  0
  2  4  1  0
  4  5  1  0
  5  6  1  0
  5  7  2  0
  7  8  1  0
  7  9  1  0
  9 10  1  0
 10 11  1  0
 11 12  1  0
 12 13  2  0
 13 14  1  0
 14 15  2  0
 15 16  1  0
 16 17  2  0
  9 18  1  0
 18 19  1  0
 19 20  2  0
 20 21  1  0
 21 22  2  0
 22 23  1  0
 23 24  1  0
 23 25  2  0
 18  4  2  0
 25 19  1  0
 17 12  1  0
  1 26  1  0
  1 27  1  0
  1 28  1  0
  8 29  1  0
 10 30  1  0
 10 31  1  0
 11 32  1  0
 11 33  1  0
 13 34  1  0
 14 35  1  0
 15 36  1  0
 16 37  1  0
 17 38  1  0
 20 39  1  0
 21 40  1  0
 22 41  1  0
 25 42  1  0
M  CHG  1   6  -1
M  END
>  <UniqueID>  (28) 
27

>  <SMILES>  (28) 
CC(=O)c1c([O-])c(O)n(CCc2ccccc2)c1-c1cccc(F)c1

>  <Energy>  (28) 
75.08459389589723

>  <Genealogy>  (28) 
CC(=O)c1c([O-])c(O)n(CCc2ccccc2)c1-c1cccc(F)c1 (protonated)
CC(=O)c1c([O-])c(O)n(CCc2ccccc2)c1-c1cccc(F)c1 (3D coordinates assigned)
CC(=O)c1c([O-])c(O)n(CCc2ccccc2)c1-c1cccc(F)c1 (optimized conformer: 75.08459389589723 kcal/mol)

>  <smiles>  (28) 
CC(=O)c1c(O)c(O)n(CCc2ccccc2)c1-c1cccc(F)c1

>  <score_type>  (28) 
oracle

>  <origin>  (28) 
adg

>  <m_score__min__energy>  (28) 
-12.43

>  <m_primary>  (28) 
energy

$$$$
28:0
     RDKit          3D

 47 50  0  0  0  0  0  0  0  0999 V2000
   -2.2200   16.6590  -34.2610 C   0  0  0  0  0  0  0  0  0  0  0  0
   -3.4330   17.4130  -33.8000 C   0  0  0  0  0  0  0  0  0  0  0  0
   -4.7000   16.7900  -33.8250 C   0  0  0  0  0  0  0  0  0  0  0  0
   -5.8560   17.4940  -33.4350 C   0  0  0  0  0  0  0  0  0  0  0  0
   -7.2090   16.8430  -33.4710 C   0  0  0  0  0  0  0  0  0  0  0  0
   -5.7020   18.8270  -33.0410 C   0  0  0  0  0  0  0  0  0  0  0  0
   -6.6570   19.7430  -32.6450 C   0  0  0  0  0  0  0  0  0  0  0  0
   -5.9460   20.9080  -32.4030 C   0  0  0  0  0  0  0  0  0  0  0  0
   -6.4580   22.1400  -32.0180 C   0  0  0  0  0  0  0  0  0  0  0  0
   -7.6950   22.2760  -31.8040 O   0  0  0  0  0  0  0  0  0  0  0  0
   -5.5890   23.1940  -31.9000 N   0  0  0  0  0  0  0  0  0  0  0  0
   -6.0800   24.5560  -31.6120 C   0  0  0  0  0  0  0  0  0  0  0  0
   -5.2740   25.2160  -30.5180 C   0  0  0  0  0  0  0  0  0  0  0  0
   -5.8820   25.8170  -29.5950 O   0  0  0  0  0  0  0  0  0  0  0  0
   -3.8410   25.1520  -30.4730 N   0  0  0  0  0  0  0  0  0  0  0  0
   -3.0760   24.4030  -29.5230 C   0  0  0  0  0  0  0  0  0  0  0  0
   -3.5310   23.1440  -29.1140 C   0  0  0  0  0  0  0  0  0  0  0  0
   -2.7730   22.3770  -28.2230 C   0  0  0  0  0  0  0  0  0  0  0  0
   -1.5680   22.8780  -27.7190 C   0  0  0  0  0  0  0  0  0  0  0  0
   -1.1270   24.1480  -28.0980 C   0  0  0  0  0  0  0  0  0  0  0  0
   -1.8800   24.9140  -28.9940 C   0  0  0  0  0  0  0  0  0  0  0  0
   -4.2690   23.0000  -32.0600 N   0  0  0  0  0  0  0  0  0  0  0  0
   -3.7540   21.7870  -32.4310 C   0  0  0  0  0  0  0  0  0  0  0  0
   -2.2700   21.6520  -32.6190 C   0  0  0  0  0  0  0  0  0  0  0  0
   -4.6240   20.7480  -32.6230 N   0  0  0  0  0  0  0  0  0  0  0  0
   -4.4720   19.4560  -33.0220 C   0  0  0  0  0  0  0  0  0  0  0  0
   -3.3150   18.7640  -33.4130 C   0  0  0  0  0  0  0  0  0  0  0  0
   -1.6531   16.3066  -33.3867 H   0  0  0  0  0  0  0  0  0  0  0  0
   -2.5331   15.7961  -34.8671 H   0  0  0  0  0  0  0  0  0  0  0  0
   -1.5848   17.3217  -34.8671 H   0  0  0  0  0  0  0  0  0  0  0  0
   -4.7851   15.7434  -34.1527 H   0  0  0  0  0  0  0  0  0  0  0  0
   -7.5617   16.6733  -32.4430 H   0  0  0  0  0  0  0  0  0  0  0  0
   -7.9175   17.4988  -33.9982 H   0  0  0  0  0  0  0  0  0  0  0  0
   -7.1387   15.8801  -33.9982 H   0  0  0  0  0  0  0  0  0  0  0  0
   -7.7407   19.5834  -32.5441 H   0  0  0  0  0  0  0  0  0  0  0  0
   -6.0060   25.1632  -32.5262 H   0  0  0  0  0  0  0  0  0  0  0  0
   -7.1242   24.4819  -31.2741 H   0  0  0  0  0  0  0  0  0  0  0  0
   -4.4876   22.7566  -29.4944 H   0  0  0  0  0  0  0  0  0  0  0  0
   -3.1244   21.3800  -27.9187 H   0  0  0  0  0  0  0  0  0  0  0  0
   -0.9679   22.2719  -27.0244 H   0  0  0  0  0  0  0  0  0  0  0  0
   -0.1859   24.5465  -27.6911 H   0  0  0  0  0  0  0  0  0  0  0  0
   -1.5350   25.9173  -29.2843 H   0  0  0  0  0  0  0  0  0  0  0  0
   -3.6150   23.8050  -31.9220 H   0  0  0  0  0  0  0  0  0  0  0  0
   -1.7784   21.6073  -31.6360 H   0  0  0  0  0  0  0  0  0  0  0  0
   -2.0537   20.7305  -33.1794 H   0  0  0  0  0  0  0  0  0  0  0  0
   -1.8910   22.5194  -33.1794 H   0  0  0  0  0  0  0  0  0  0  0  0
   -2.3359   19.2654  -33.4175 H   0  0  0  0  0  0  0  0  0  0  0  0
  1  2  1  0
  2  3  2  0
  3  4  1  0
  4  5  1  0
  4  6  2  0
  6  7  1  0
  7  8  2  0
  8  9  1  0
  9 10  2  0
  9 11  1  0
 11 12  1  0
 12 13  1  0
 13 14  2  0
 13 15  1  0
 15 16  1  0
 16 17  2  0
 17 18  1  0
 18 19  2  0
 19 20  1  0
 20 21  2  0
 11 22  1  0
 22 23  2  0
 23 24  1  0
 23 25  1  0
 25 26  1  0
 26 27  2  0
 27  2  1  0
 26  6  1  0
 25  8  1  0
 21 16  1  0
  1 28  1  0
  1 29  1  0
  1 30  1  0
  3 31  1  0
  5 32  1  0
  5 33  1  0
  5 34  1  0
  7 35  1  0
 12 36  1  0
 12 37  1  0
 17 38  1  0
 18 39  1  0
 19 40  1  0
 20 41  1  0
 21 42  1  0
 22 43  1  0
 24 44  1  0
 24 45  1  0
 24 46  1  0
 27 47  1  0
M  CHG  2  15  -1  22   1
M  END
>  <UniqueID>  (29) 
28

>  <SMILES>  (29) 
Cc1cc(C)c2cc3c(=O)n(CC(=O)[N-]c4ccccc4)[nH+]c(C)n3c2c1

>  <Energy>  (29) 
98.16571206371707

>  <Genealogy>  (29) 
Cc1cc(C)c2cc3c(=O)n(CC(=O)[N-]c4ccccc4)[nH+]c(C)n3c2c1 (protonated)
Cc1cc(C)c2cc3c(=O)n(CC(=O)[N-]c4ccccc4)[nH+]c(C)n3c2c1 (3D coordinates assigned)
Cc1cc(C)c2cc3c(=O)n(CC(=O)[N-]c4ccccc4)[nH+]c(C)n3c2c1 (optimized conformer: 98.16571206371707 kcal/mol)

>  <smiles>  (29) 
Cc1cc(C)c2cc3c(=O)n(CC(=O)Nc4ccccc4)nc(C)n3c2c1

>  <score_type>  (29) 
oracle

>  <origin>  (29) 
adg

>  <m_score__min__energy>  (29) 
-9.4800000000000004

>  <m_primary>  (29) 
energy

$$$$
29:0
     RDKit          3D

 29 30  0  0  0  0  0  0  0  0999 V2000
    0.0153   25.7618  -28.0950 H   0  0  0  0  0  0  0  0  0  0  0  0
   -0.8600   25.1060  -28.2120 C   0  0  0  0  0  0  0  0  0  0  0  0
   -1.7130   25.2910  -29.2550 N   0  0  0  0  0  0  0  0  0  0  0  0
   -2.8100   24.5080  -29.4460 C   0  0  0  0  0  0  0  0  0  0  0  0
   -3.5780   24.7570  -30.4680 N   0  0  0  0  0  0  0  0  0  0  0  0
   -5.3130   24.8540  -30.4600 S   0  0  0  0  0  0  0  0  0  0  0  0
   -5.7410   26.0830  -31.2120 O   0  0  0  0  0  0  0  0  0  0  0  0
   -5.7900   24.9600  -29.0410 O   0  0  0  0  0  0  0  0  0  0  0  0
   -6.0070   23.4060  -31.1840 C   0  0  0  0  0  0  0  0  0  0  0  0
   -5.2550   22.6450  -32.0880 C   0  0  0  0  0  0  0  0  0  0  0  0
   -4.2285   22.9500  -32.3396 H   0  0  0  0  0  0  0  0  0  0  0  0
   -5.8040   21.4990  -32.6720 C   0  0  0  0  0  0  0  0  0  0  0  0
   -5.2087   20.9073  -33.3830 H   0  0  0  0  0  0  0  0  0  0  0  0
   -7.1160   21.1000  -32.3530 C   0  0  0  0  0  0  0  0  0  0  0  0
   -7.7130   19.9590  -32.9120 O   0  0  0  0  0  0  0  0  0  0  0  0
   -8.5210   19.0390  -32.1870 C   0  0  0  0  0  0  0  0  0  0  0  0
   -8.3805   19.1990  -31.1078 H   0  0  0  0  0  0  0  0  0  0  0  0
   -9.5784   19.1961  -32.4464 H   0  0  0  0  0  0  0  0  0  0  0  0
   -8.2287   18.0108  -32.4464 H   0  0  0  0  0  0  0  0  0  0  0  0
   -7.8590   21.8620  -31.4430 C   0  0  0  0  0  0  0  0  0  0  0  0
   -8.8837   21.5565  -31.1849 H   0  0  0  0  0  0  0  0  0  0  0  0
   -7.3100   23.0070  -30.8600 C   0  0  0  0  0  0  0  0  0  0  0  0
   -7.9025   23.5965  -30.1449 H   0  0  0  0  0  0  0  0  0  0  0  0
   -3.0740   23.4660  -28.5320 C   0  0  0  0  0  0  0  0  0  0  0  0
   -3.9534   22.8190  -28.6664 H   0  0  0  0  0  0  0  0  0  0  0  0
   -2.2080   23.2640  -27.4550 C   0  0  0  0  0  0  0  0  0  0  0  0
   -2.4051   22.4556  -26.7355 H   0  0  0  0  0  0  0  0  0  0  0  0
   -1.0940   24.0860  -27.2910 C   0  0  0  0  0  0  0  0  0  0  0  0
   -0.4080   23.9316  -26.4451 H   0  0  0  0  0  0  0  0  0  0  0  0
  1  2  1  0
  2  3  1  0
  3  4  1  0
  4  5  2  0
  5  6  1  0
  6  7  2  0
  6  8  2  0
  6  9  1  0
  9 10  2  0
 10 11  1  0
 10 12  1  0
 12 13  1  0
 12 14  2  0
 14 15  1  0
 15 16  1  0
 16 17  1  0
 16 18  1  0
 16 19  1  0
 14 20  1  0
 20 21  1  0
 20 22  2  0
 22 23  1  0
  4 24  1  0
 24 25  1  0
 24 26  2  0
 26 27  1  0
 26 28  1  0
 28 29  1  0
 28  2  2  0
 22  9  1  0
M  CHG  1   3  -1
M  END
>  <UniqueID>  (30) 
29

>  <SMILES>  (30) 
COc1ccc(S(=O)(=O)/N=c2\cccc[n-]2)cc1

>  <Energy>  (30) 
34.96253225799216

>  <Genealogy>  (30) 
COc1ccc(S(=O)(=O)N=c2cccc[n-]2)cc1 (protonated)
COc1ccc(S(=O)(=O)/N=c2\cccc[n-]2)cc1 (cis-trans isomerization)
COc1ccc(S(=O)(=O)/N=c2\cccc[n-]2)cc1 (3D coordinates assigned)
COc1ccc(S(=O)(=O)/N=c2\cccc[n-]2)cc1 (optimized conformer: 34.96253225799216 kcal/mol)

>  <smiles>  (30) 
COc1ccc(S(=O)(=O)N=c2cccc[nH]2)cc1

>  <score_type>  (30) 
oracle

>  <origin>  (30) 
adg

>  <m_score__min__energy>  (30) 
-8.3499999999999996

>  <m_primary>  (30) 
energy

$$$$
30:0
     RDKit          3D

 34 35  0  0  0  0  0  0  0  0999 V2000
   -2.8790   18.9680  -26.5400 C   0  0  0  0  0  0  0  0  0  0  0  0
   -2.6430   19.5990  -27.7940 O   0  0  0  0  0  0  0  0  0  0  0  0
   -1.8690   20.7570  -27.9650 C   0  0  0  0  0  0  0  0  0  0  0  0
   -0.4800   20.6270  -28.0020 C   0  0  0  0  0  0  0  0  0  0  0  0
    0.3360   21.7480  -28.1730 C   0  0  0  0  0  0  0  0  0  0  0  0
   -0.2330   23.0280  -28.3180 C   0  0  0  0  0  0  0  0  0  0  0  0
    0.5620   24.1750  -28.4830 O   0  0  0  0  0  0  0  0  0  0  0  0
    1.4070   24.7240  -27.4770 C   0  0  0  0  0  0  0  0  0  0  0  0
   -1.6330   23.1640  -28.2940 C   0  0  0  0  0  0  0  0  0  0  0  0
   -2.3840   24.7520  -28.4900 S   0  0  0  0  0  0  0  0  0  0  0  0
   -3.4360   24.9240  -27.4310 O   0  0  0  0  0  0  0  0  0  0  0  0
   -1.3580   25.8410  -28.3450 O   0  0  0  0  0  0  0  0  0  0  0  0
   -3.1320   24.8950  -30.0480 N   0  0  0  0  0  0  0  0  0  0  0  0
   -4.3610   24.2660  -30.4380 C   0  0  0  0  0  0  0  0  0  0  0  0
   -5.5700   24.8800  -30.0840 C   0  0  0  0  0  0  0  0  0  0  0  0
   -6.7890   24.2920  -30.4290 C   0  0  0  0  0  0  0  0  0  0  0  0
   -6.8120   23.0830  -31.1310 C   0  0  0  0  0  0  0  0  0  0  0  0
   -8.4790   22.2780  -31.6000 Br  0  0  0  0  0  0  0  0  0  0  0  0
   -5.6110   22.4640  -31.4910 C   0  0  0  0  0  0  0  0  0  0  0  0
   -4.3890   23.0500  -31.1470 C   0  0  0  0  0  0  0  0  0  0  0  0
   -2.4430   22.0350  -28.1030 C   0  0  0  0  0  0  0  0  0  0  0  0
   -2.6197   19.6612  -25.7262 H   0  0  0  0  0  0  0  0  0  0  0  0
   -3.9410   18.6922  -26.4624 H   0  0  0  0  0  0  0  0  0  0  0  0
   -2.2586   18.0630  -26.4624 H   0  0  0  0  0  0  0  0  0  0  0  0
   -0.0232   19.6320  -27.8955 H   0  0  0  0  0  0  0  0  0  0  0  0
    1.4295   21.6301  -28.1945 H   0  0  0  0  0  0  0  0  0  0  0  0
    1.0102   24.4662  -26.4840 H   0  0  0  0  0  0  0  0  0  0  0  0
    2.4211   24.3118  -27.5849 H   0  0  0  0  0  0  0  0  0  0  0  0
    1.4425   25.8181  -27.5849 H   0  0  0  0  0  0  0  0  0  0  0  0
   -5.5588   25.8308  -29.5310 H   0  0  0  0  0  0  0  0  0  0  0  0
   -7.7332   24.7812  -30.1478 H   0  0  0  0  0  0  0  0  0  0  0  0
   -5.6276   21.5143  -32.0458 H   0  0  0  0  0  0  0  0  0  0  0  0
   -3.4464   22.5593  -31.4313 H   0  0  0  0  0  0  0  0  0  0  0  0
   -3.5362   22.1492  -28.0607 H   0  0  0  0  0  0  0  0  0  0  0  0
  1  2  1  0
  2  3  1  0
  3  4  2  0
  4  5  1  0
  5  6  2  0
  6  7  1  0
  7  8  1  0
  6  9  1  0
  9 10  1  0
 10 11  2  0
 10 12  2  0
 10 13  1  0
 13 14  1  0
 14 15  2  0
 15 16  1  0
 16 17  2  0
 17 18  1  0
 17 19  1  0
 19 20  2  0
  9 21  2  0
 21  3  1  0
 20 14  1  0
  1 22  1  0
  1 23  1  0
  1 24  1  0
  4 25  1  0
  5 26  1  0
  8 27  1  0
  8 28  1  0
  8 29  1  0
 15 30  1  0
 16 31  1  0
 19 32  1  0
 20 33  1  0
 21 34  1  0
M  CHG  1  13  -1
M  END
>  <UniqueID>  (31) 
30

>  <SMILES>  (31) 
COc1ccc(OC)c(S(=O)(=O)[N-]c2ccc(Br)cc2)c1

>  <Energy>  (31) 
36.490440466639996

>  <Genealogy>  (31) 
COc1ccc(OC)c(S(=O)(=O)[N-]c2ccc(Br)cc2)c1 (protonated)
COc1ccc(OC)c(S(=O)(=O)[N-]c2ccc(Br)cc2)c1 (3D coordinates assigned)
COc1ccc(OC)c(S(=O)(=O)[N-]c2ccc(Br)cc2)c1 (optimized conformer: 36.490440466639996 kcal/mol)

>  <smiles>  (31) 
COc1ccc(OC)c(S(=O)(=O)Nc2ccc(Br)cc2)c1

>  <score_type>  (31) 
oracle

>  <origin>  (31) 
adg

>  <m_score__min__energy>  (31) 
-8.8200000000000003

>  <m_primary>  (31) 
energy

$$$$
31:0
     RDKit          3D

 34 35  0  0  0  0  0  0  0  0999 V2000
   -2.3120   24.6840  -28.1910 C   0  0  0  0  0  0  0  0  0  0  0  0
   -2.8830   25.2690  -29.3560 O   0  0  0  0  0  0  0  0  0  0  0  0
   -3.8490   24.6490  -30.1620 C   0  0  0  0  0  0  0  0  0  0  0  0
   -3.5350   23.4180  -30.7500 C   0  0  0  0  0  0  0  0  0  0  0  0
   -4.4640   22.7590  -31.5610 C   0  0  0  0  0  0  0  0  0  0  0  0
   -5.7330   23.3220  -31.7900 C   0  0  0  0  0  0  0  0  0  0  0  0
   -6.7070   22.6690  -32.6240 N   0  0  0  0  0  0  0  0  0  0  0  0
   -7.2920   21.3950  -32.3160 C   0  0  0  0  0  0  0  0  0  0  0  0
   -8.4690   21.3670  -31.5590 C   0  0  0  0  0  0  0  0  0  0  0  0
   -9.0920   20.1580  -31.2620 C   0  0  0  0  0  0  0  0  0  0  0  0
   -8.5480   18.9600  -31.7210 C   0  0  0  0  0  0  0  0  0  0  0  0
   -7.3610   18.9540  -32.4730 C   0  0  0  0  0  0  0  0  0  0  0  0
   -6.8060   17.6330  -32.9380 C   0  0  0  0  0  0  0  0  0  0  0  0
   -6.6930   20.1780  -32.7360 C   0  0  0  0  0  0  0  0  0  0  0  0
   -5.3730   20.1880  -33.4730 C   0  0  0  0  0  0  0  0  0  0  0  0
   -6.0430   24.5610  -31.2110 C   0  0  0  0  0  0  0  0  0  0  0  0
   -5.1140   25.2190  -30.4000 C   0  0  0  0  0  0  0  0  0  0  0  0
   -2.7579   25.1408  -27.2952 H   0  0  0  0  0  0  0  0  0  0  0  0
   -2.5111   23.6022  -28.1887 H   0  0  0  0  0  0  0  0  0  0  0  0
   -1.2257   24.8569  -28.1887 H   0  0  0  0  0  0  0  0  0  0  0  0
   -2.5484   22.9650  -30.5724 H   0  0  0  0  0  0  0  0  0  0  0  0
   -4.2014   21.7955  -32.0223 H   0  0  0  0  0  0  0  0  0  0  0  0
   -6.9140   23.0800  -33.5630 H   0  0  0  0  0  0  0  0  0  0  0  0
   -8.9057   22.3089  -31.1955 H   0  0  0  0  0  0  0  0  0  0  0  0
  -10.0152   20.1484  -30.6640 H   0  0  0  0  0  0  0  0  0  0  0  0
   -9.0527   18.0097  -31.4924 H   0  0  0  0  0  0  0  0  0  0  0  0
   -6.5469   17.0163  -32.0647 H   0  0  0  0  0  0  0  0  0  0  0  0
   -7.5609   17.1111  -33.5444 H   0  0  0  0  0  0  0  0  0  0  0  0
   -5.9049   17.8069  -33.5444 H   0  0  0  0  0  0  0  0  0  0  0  0
   -4.5473   20.1943  -32.7462 H   0  0  0  0  0  0  0  0  0  0  0  0
   -5.2988   19.2904  -34.1045 H   0  0  0  0  0  0  0  0  0  0  0  0
   -5.3124   21.0866  -34.1045 H   0  0  0  0  0  0  0  0  0  0  0  0
   -7.0257   25.0190  -31.3967 H   0  0  0  0  0  0  0  0  0  0  0  0
   -5.3726   26.1868  -29.9456 H   0  0  0  0  0  0  0  0  0  0  0  0
  1  2  1  0
  2  3  1  0
  3  4  2  0
  4  5  1  0
  5  6  2  0
  6  7  1  0
  7  8  1  0
  8  9  2  0
  9 10  1  0
 10 11  2  0
 11 12  1  0
 12 13  1  0
 12 14  2  0
 14 15  1  0
  6 16  1  0
 16 17  2  0
 17  3  1  0
 14  8  1  0
  1 18  1  0
  1 19  1  0
  1 20  1  0
  4 21  1  0
  5 22  1  0
  7 23  1  0
  9 24  1  0
 10 25  1  0
 11 26  1  0
 13 27  1  0
 13 28  1  0
 13 29  1  0
 15 30  1  0
 15 31  1  0
 15 32  1  0
 16 33  1  0
 17 34  1  0
M  END
>  <UniqueID>  (32) 
31

>  <SMILES>  (32) 
COc1ccc(Nc2cccc(C)c2C)cc1

>  <Energy>  (32) 
41.92930191208539

>  <Genealogy>  (32) 
COc1ccc(Nc2cccc(C)c2C)cc1 (3D coordinates assigned)
COc1ccc(Nc2cccc(C)c2C)cc1 (optimized conformer: 41.92930191208539 kcal/mol)

>  <smiles>  (32) 
COc1ccc(Nc2cccc(C)c2C)cc1

>  <score_type>  (32) 
oracle

>  <origin>  (32) 
adg

>  <m_score__min__energy>  (32) 
-7.8600000000000003

>  <m_primary>  (32) 
energy

$$$$
32:0
     RDKit          3D

 21 20  0  0  0  0  0  0  0  0999 V2000
   -7.6190   23.1550  -31.8890 C   0  0  0  0  0  0  0  0  0  0  0  0
   -6.5610   23.9360  -31.1110 C   0  0  0  0  0  0  0  0  0  0  0  0
   -5.1220   23.4820  -31.4170 C   0  0  0  0  0  0  0  0  0  0  0  0
   -4.0690   24.0870  -30.4560 C   0  0  1  0  0  0  0  0  0  0  0  0
   -3.9720   25.4770  -30.6370 O   0  0  0  0  0  0  0  0  0  0  0  0
   -4.3870   23.7820  -28.9740 C   0  0  0  0  0  0  0  0  0  0  0  0
   -5.0230   24.9130  -28.2940 N   0  0  0  0  0  0  0  0  0  0  0  0
   -8.2977   22.6540  -31.1831 H   0  0  0  0  0  0  0  0  0  0  0  0
   -8.1939   23.8470  -32.5220 H   0  0  0  0  0  0  0  0  0  0  0  0
   -7.1271   22.4018  -32.5220 H   0  0  0  0  0  0  0  0  0  0  0  0
   -6.6534   25.0013  -31.3689 H   0  0  0  0  0  0  0  0  0  0  0  0
   -6.7405   23.7516  -30.0415 H   0  0  0  0  0  0  0  0  0  0  0  0
   -5.0778   22.3858  -31.3373 H   0  0  0  0  0  0  0  0  0  0  0  0
   -4.8784   23.8353  -32.4298 H   0  0  0  0  0  0  0  0  0  0  0  0
   -3.1069   23.6141  -30.7025 H   0  0  0  0  0  0  0  0  0  0  0  0
   -4.1560   25.6690  -31.5950 H   0  0  0  0  0  0  0  0  0  0  0  0
   -5.0647   22.9167  -28.9292 H   0  0  0  0  0  0  0  0  0  0  0  0
   -3.4351   23.5761  -28.4627 H   0  0  0  0  0  0  0  0  0  0  0  0
   -5.1340   25.7200  -28.9480 H   0  0  0  0  0  0  0  0  0  0  0  0
   -5.9540   24.6340  -27.9100 H   0  0  0  0  0  0  0  0  0  0  0  0
   -4.4120   25.2190  -27.5030 H   0  0  0  0  0  0  0  0  0  0  0  0
  1  2  1  0
  2  3  1  0
  3  4  1  0
  4  5  1  0
  4  6  1  0
  6  7  1  0
  1  8  1  0
  1  9  1  0
  1 10  1  0
  2 11  1  0
  2 12  1  0
  3 13  1  0
  3 14  1  0
  4 15  1  6
  5 16  1  0
  6 17  1  0
  6 18  1  0
  7 19  1  0
  7 20  1  0
  7 21  1  0
M  CHG  1   7   1
M  END
>  <UniqueID>  (33) 
32

>  <SMILES>  (33) 
CCC[C@@H](O)C[NH3+]

>  <Energy>  (33) 
11.222588446938156

>  <Genealogy>  (33) 
CCCC(O)C[NH3+] (protonated)
CCC[C@@H](O)C[NH3+] (chirality)
CCC[C@@H](O)C[NH3+] (3D coordinates assigned)
CCC[C@@H](O)C[NH3+] (optimized conformer: 11.222588446938156 kcal/mol)

>  <smiles>  (33) 
CCCC(O)CN

>  <score_type>  (33) 
oracle

>  <origin>  (33) 
adg

>  <m_score__min__energy>  (33) 
-4.0599999999999996

>  <m_primary>  (33) 
energy

$$$$
33:0
     RDKit          3D

 43 45  0  0  0  0  0  0  0  0999 V2000
   -6.7690   15.5320  -34.0990 C   0  0  0  0  0  0  0  0  0  0  0  0
   -6.6290   16.9720  -33.7240 C   0  0  0  0  0  0  0  0  0  0  0  0
   -7.1310   17.4430  -32.5090 C   0  0  0  0  0  0  0  0  0  0  0  0
   -6.9880   18.7910  -32.1910 C   0  0  0  0  0  0  0  0  0  0  0  0
   -6.3520   19.6540  -33.1000 C   0  0  0  0  0  0  0  0  0  0  0  0
   -6.1780   21.0610  -32.8140 N   0  0  0  0  0  0  0  0  0  0  0  0
   -7.3130   21.8940  -32.3880 C   0  0  0  0  0  0  0  0  0  0  0  0
   -6.9900   23.3860  -32.5500 C   0  0  0  0  0  0  0  0  0  0  0  0
   -5.7350   23.7790  -31.8640 N   0  0  0  0  0  0  0  0  0  0  0  0
   -5.9940   24.2350  -30.4810 C   0  0  0  0  0  0  0  0  0  0  0  0
   -4.7180   24.6590  -29.8140 C   0  0  0  0  0  0  0  0  0  0  0  0
   -3.8590   25.3050  -30.4720 O   0  0  0  0  0  0  0  0  0  0  0  0
   -4.5240   24.3980  -28.4140 N   0  0  0  0  0  0  0  0  0  0  0  0
   -3.2630   24.5360  -27.7350 C   0  0  0  0  0  0  0  0  0  0  0  0
   -2.0750   24.2350  -28.4130 C   0  0  0  0  0  0  0  0  0  0  0  0
   -0.8440   24.3810  -27.7720 C   0  0  0  0  0  0  0  0  0  0  0  0
   -0.8110   24.8470  -26.4580 C   0  0  0  0  0  0  0  0  0  0  0  0
   -1.9680   25.1610  -25.8180 N   0  0  0  0  0  0  0  0  0  0  0  0
   -3.1790   25.0220  -26.4190 C   0  0  0  0  0  0  0  0  0  0  0  0
   -4.6570   22.7540  -31.9150 C   0  0  0  0  0  0  0  0  0  0  0  0
   -4.8720   21.7010  -33.0090 C   0  0  0  0  0  0  0  0  0  0  0  0
   -5.8830   19.1330  -34.2680 N   0  0  0  0  0  0  0  0  0  0  0  0
   -6.0160   17.8410  -34.5710 N   0  0  0  0  0  0  0  0  0  0  0  0
   -6.8285   14.9197  -33.1871 H   0  0  0  0  0  0  0  0  0  0  0  0
   -7.6847   15.3951  -34.6930 H   0  0  0  0  0  0  0  0  0  0  0  0
   -5.8968   15.2213  -34.6930 H   0  0  0  0  0  0  0  0  0  0  0  0
   -7.6336   16.7570  -31.8113 H   0  0  0  0  0  0  0  0  0  0  0  0
   -7.3702   19.1779  -31.2349 H   0  0  0  0  0  0  0  0  0  0  0  0
   -8.1913   21.6471  -33.0024 H   0  0  0  0  0  0  0  0  0  0  0  0
   -7.5174   21.6924  -31.3261 H   0  0  0  0  0  0  0  0  0  0  0  0
   -6.8895   23.6097  -33.6223 H   0  0  0  0  0  0  0  0  0  0  0  0
   -7.8115   23.9551  -32.0903 H   0  0  0  0  0  0  0  0  0  0  0  0
   -6.6888   25.0874  -30.5061 H   0  0  0  0  0  0  0  0  0  0  0  0
   -6.4314   23.4025  -29.9104 H   0  0  0  0  0  0  0  0  0  0  0  0
   -5.3650   24.1490  -27.8460 H   0  0  0  0  0  0  0  0  0  0  0  0
   -2.1124   23.8823  -29.4543 H   0  0  0  0  0  0  0  0  0  0  0  0
    0.0897   24.1313  -28.2972 H   0  0  0  0  0  0  0  0  0  0  0  0
    0.1523   24.9605  -25.9392 H   0  0  0  0  0  0  0  0  0  0  0  0
   -4.0959   25.2906  -25.8739 H   0  0  0  0  0  0  0  0  0  0  0  0
   -3.7001   23.2628  -32.1035 H   0  0  0  0  0  0  0  0  0  0  0  0
   -4.6631   22.2266  -30.9497 H   0  0  0  0  0  0  0  0  0  0  0  0
   -4.8436   22.1853  -33.9962 H   0  0  0  0  0  0  0  0  0  0  0  0
   -4.0772   20.9426  -32.9527 H   0  0  0  0  0  0  0  0  0  0  0  0
  1  2  1  0
  2  3  2  0
  3  4  1  0
  4  5  2  0
  5  6  1  0
  6  7  1  0
  7  8  1  0
  8  9  1  0
  9 10  1  0
 10 11  1  0
 11 12  2  0
 11 13  1  0
 13 14  1  0
 14 15  2  0
 15 16  1  0
 16 17  2  0
 17 18  1  0
 18 19  2  0
  9 20  1  0
 20 21  1  0
  5 22  1  0
 22 23  2  0
 23  2  1  0
 21  6  1  0
 19 14  1  0
  1 24  1  0
  1 25  1  0
  1 26  1  0
  3 27  1  0
  4 28  1  0
  7 29  1  0
  7 30  1  0
  8 31  1  0
  8 32  1  0
 10 33  1  0
 10 34  1  0
 13 35  1  0
 15 36  1  0
 16 37  1  0
 17 38  1  0
 19 39  1  0
 20 40  1  0
 20 41  1  0
 21 42  1  0
 21 43  1  0
M  END
>  <UniqueID>  (34) 
33

>  <SMILES>  (34) 
Cc1ccc(N2CCN(CC(=O)Nc3cccnc3)CC2)nn1

>  <Energy>  (34) 
57.20652540575838

>  <Genealogy>  (34) 
Cc1ccc(N2CCN(CC(=O)Nc3cccnc3)CC2)nn1 (3D coordinates assigned)
Cc1ccc(N2CCN(CC(=O)Nc3cccnc3)CC2)nn1 (nonaromatic ring conformer: 57.20652540575838 kcal/mol)

>  <smiles>  (34) 
Cc1ccc(N2CCN(CC(=O)Nc3cccnc3)CC2)nn1

>  <score_type>  (34) 
oracle

>  <origin>  (34) 
adg

>  <m_score__min__energy>  (34) 
-8.7899999999999991

>  <m_primary>  (34) 
energy

$$$$
34:0
     RDKit          3D

 50 53  0  0  0  0  0  0  0  0999 V2000
   -4.0220   20.9960  -32.3960 C   0  0  0  0  0  0  0  0  0  0  0  0
   -4.5840   22.1960  -31.6920 C   0  0  0  0  0  0  0  0  0  0  0  0
   -5.9670   22.4250  -31.6820 C   0  0  0  0  0  0  0  0  0  0  0  0
   -6.4880   23.5480  -31.0390 C   0  0  0  0  0  0  0  0  0  0  0  0
   -5.6340   24.4690  -30.4090 C   0  0  0  0  0  0  0  0  0  0  0  0
   -6.2120   25.6720  -29.7160 C   0  0  0  0  0  0  0  0  0  0  0  0
   -4.2390   24.2770  -30.4640 C   0  0  0  0  0  0  0  0  0  0  0  0
   -3.3710   25.2310  -29.8290 N   0  0  0  0  0  0  0  0  0  0  0  0
   -2.2940   24.9340  -28.9320 C   0  0  0  0  0  0  0  0  0  0  0  0
   -1.1000   24.9510  -29.3390 O   0  0  0  0  0  0  0  0  0  0  0  0
   -2.6020   24.5960  -27.4950 C   0  0  0  0  0  0  0  0  0  0  0  0
   -1.3100   24.3010  -26.6800 C   0  0  0  0  0  0  0  0  0  0  0  0
   -1.2430   22.8720  -26.1200 C   0  0  0  0  0  0  0  0  0  0  0  0
   -1.7070   21.8980  -27.1180 N   0  0  0  0  0  0  0  0  0  0  0  0
   -0.9670   20.6870  -27.3640 C   0  0  0  0  0  0  0  0  0  0  0  0
    0.3620   20.6640  -27.6430 N   0  0  0  0  0  0  0  0  0  0  0  0
    0.8170   19.4270  -27.8320 N   0  0  0  0  0  0  0  0  0  0  0  0
    2.1060   19.1130  -28.1270 C   0  0  0  0  0  0  0  0  0  0  0  0
    2.9780   20.0150  -28.2510 O   0  0  0  0  0  0  0  0  0  0  0  0
    2.4500   17.7660  -28.2960 C   0  0  0  0  0  0  0  0  0  0  0  0
    1.4490   16.7860  -28.1470 C   0  0  0  0  0  0  0  0  0  0  0  0
    1.7780   15.3390  -28.3330 C   0  0  0  0  0  0  0  0  0  0  0  0
    0.1670   17.1560  -27.8600 N   0  0  0  0  0  0  0  0  0  0  0  0
   -0.1260   18.4710  -27.7060 C   0  0  0  0  0  0  0  0  0  0  0  0
   -1.6320   19.1180  -27.3460 S   0  0  0  0  0  0  0  0  0  0  0  0
   -3.0050   22.0980  -27.7820 C   0  0  0  0  0  0  0  0  0  0  0  0
   -3.6320   23.4510  -27.4180 C   0  0  0  0  0  0  0  0  0  0  0  0
   -3.7250   23.1270  -31.0910 C   0  0  0  0  0  0  0  0  0  0  0  0
   -3.6783   20.2621  -31.6522 H   0  0  0  0  0  0  0  0  0  0  0  0
   -4.8012   20.5422  -33.0260 H   0  0  0  0  0  0  0  0  0  0  0  0
   -3.1745   21.3040  -33.0260 H   0  0  0  0  0  0  0  0  0  0  0  0
   -6.6436   21.7169  -32.1828 H   0  0  0  0  0  0  0  0  0  0  0  0
   -7.5754   23.7138  -31.0251 H   0  0  0  0  0  0  0  0  0  0  0  0
   -6.1460   25.5345  -28.6266 H   0  0  0  0  0  0  0  0  0  0  0  0
   -5.6469   26.5697  -30.0072 H   0  0  0  0  0  0  0  0  0  0  0  0
   -7.2660   25.7917  -30.0072 H   0  0  0  0  0  0  0  0  0  0  0  0
   -3.0589   25.4781  -27.0226 H   0  0  0  0  0  0  0  0  0  0  0  0
   -0.4420   24.4569  -27.3375 H   0  0  0  0  0  0  0  0  0  0  0  0
   -1.3126   24.9834  -25.8173 H   0  0  0  0  0  0  0  0  0  0  0  0
   -0.2031   22.6403  -25.8463 H   0  0  0  0  0  0  0  0  0  0  0  0
   -1.8947   22.8088  -25.2361 H   0  0  0  0  0  0  0  0  0  0  0  0
    3.4832   17.4784  -28.5407 H   0  0  0  0  0  0  0  0  0  0  0  0
    1.8873   14.8585  -27.3496 H   0  0  0  0  0  0  0  0  0  0  0  0
    0.9686   14.8480  -28.8931 H   0  0  0  0  0  0  0  0  0  0  0  0
    2.7202   15.2462  -28.8931 H   0  0  0  0  0  0  0  0  0  0  0  0
   -2.8574   22.0560  -28.8712 H   0  0  0  0  0  0  0  0  0  0  0  0
   -3.6870   21.3042  -27.4432 H   0  0  0  0  0  0  0  0  0  0  0  0
   -4.4537   23.6630  -28.1179 H   0  0  0  0  0  0  0  0  0  0  0  0
   -4.0011   23.3907  -26.3835 H   0  0  0  0  0  0  0  0  0  0  0  0
   -2.6384   22.9567  -31.1098 H   0  0  0  0  0  0  0  0  0  0  0  0
  1  2  1  0
  2  3  2  0
  3  4  1  0
  4  5  2  0
  5  6  1  0
  5  7  1  0
  7  8  1  0
  8  9  1  0
  9 10  2  0
  9 11  1  0
 11 12  1  0
 12 13  1  0
 13 14  1  0
 14 15  1  0
 15 16  2  0
 16 17  1  0
 17 18  1  0
 18 19  2  0
 18 20  1  0
 20 21  2  0
 21 22  1  0
 21 23  1  0
 23 24  2  0
 24 25  1  0
 14 26  1  0
 26 27  1  0
  7 28  2  0
 28  2  1  0
 27 11  1  0
 25 15  1  0
 24 17  1  0
  1 29  1  0
  1 30  1  0
  1 31  1  0
  3 32  1  0
  4 33  1  0
  6 34  1  0
  6 35  1  0
  6 36  1  0
 11 37  1  0
 12 38  1  0
 12 39  1  0
 13 40  1  0
 13 41  1  0
 20 42  1  0
 22 43  1  0
 22 44  1  0
 22 45  1  0
 26 46  1  0
 26 47  1  0
 27 48  1  0
 27 49  1  0
 28 50  1  0
M  CHG  1   8  -1
M  END
>  <UniqueID>  (35) 
34

>  <SMILES>  (35) 
Cc1ccc(C)c([N-]C(=O)C2CCN(c3nn4c(=O)cc(C)nc4s3)CC2)c1

>  <Energy>  (35) 
95.80325352949917

>  <Genealogy>  (35) 
Cc1ccc(C)c([N-]C(=O)C2CCN(c3nn4c(=O)cc(C)nc4s3)CC2)c1 (protonated)
Cc1ccc(C)c([N-]C(=O)C2CCN(c3nn4c(=O)cc(C)nc4s3)CC2)c1 (3D coordinates assigned)
Cc1ccc(C)c([N-]C(=O)C2CCN(c3nn4c(=O)cc(C)nc4s3)CC2)c1 (nonaromatic ring conformer: 95.80325352949917 kcal/mol)

>  <smiles>  (35) 
Cc1ccc(C)c(NC(=O)C2CCN(c3nn4c(=O)cc(C)nc4s3)CC2)c1

>  <score_type>  (35) 
oracle

>  <origin>  (35) 
adg

>  <m_score__min__energy>  (35) 
-10.56

>  <m_primary>  (35) 
energy

$$$$
35:0
     RDKit          3D

 48 52  0  0  0  0  0  0  0  0999 V2000
    0.7990   21.6020  -34.8180 C   0  0  0  0  0  0  0  0  0  0  0  0
    0.4240   21.0150  -33.4610 C   0  0  0  0  0  0  0  0  0  0  0  0
   -0.8710   20.3000  -33.5390 N   0  0  0  0  0  0  0  0  0  0  0  0
   -1.9910   20.9150  -33.0210 C   0  0  0  0  0  0  0  0  0  0  0  0
   -1.9170   22.0590  -32.4950 O   0  0  0  0  0  0  0  0  0  0  0  0
   -3.2190   20.2520  -33.0730 C   0  0  0  0  0  0  0  0  0  0  0  0
   -4.4710   20.6360  -32.6010 C   0  0  0  0  0  0  0  0  0  0  0  0
   -4.8380   21.8780  -31.8950 C   0  0  0  0  0  0  0  0  0  0  0  0
   -5.7450   22.7820  -32.4710 C   0  0  0  0  0  0  0  0  0  0  0  0
   -6.1140   23.9430  -31.7850 C   0  0  0  0  0  0  0  0  0  0  0  0
   -5.5860   24.2060  -30.5170 C   0  0  0  0  0  0  0  0  0  0  0  0
   -6.0540   25.6610  -29.6560 Cl  0  0  0  0  0  0  0  0  0  0  0  0
   -4.6900   23.3050  -29.9330 C   0  0  0  0  0  0  0  0  0  0  0  0
   -4.3190   22.1430  -30.6180 C   0  0  0  0  0  0  0  0  0  0  0  0
   -5.2890   19.5360  -32.8650 C   0  0  0  0  0  0  0  0  0  0  0  0
   -6.7350   19.3990  -32.5790 C   0  0  0  0  0  0  0  0  0  0  0  0
   -7.6310   20.3950  -33.0000 C   0  0  0  0  0  0  0  0  0  0  0  0
   -8.9980   20.2760  -32.7320 C   0  0  0  0  0  0  0  0  0  0  0  0
   -9.4810   19.1650  -32.0370 C   0  0  0  0  0  0  0  0  0  0  0  0
   -8.5970   18.1750  -31.6020 C   0  0  0  0  0  0  0  0  0  0  0  0
   -7.2290   18.2910  -31.8670 C   0  0  0  0  0  0  0  0  0  0  0  0
   -4.5510   18.5760  -33.4650 N   0  0  0  0  0  0  0  0  0  0  0  0
   -3.3070   19.0180  -33.5900 N   0  0  0  0  0  0  0  0  0  0  0  0
   -2.2390   18.3780  -34.1420 C   0  0  0  0  0  0  0  0  0  0  0  0
   -2.3560   17.0960  -34.7180 C   0  0  0  0  0  0  0  0  0  0  0  0
   -1.2480   16.4840  -35.2990 C   0  0  0  0  0  0  0  0  0  0  0  0
   -0.0190   17.1360  -35.3230 C   0  0  0  0  0  0  0  0  0  0  0  0
    0.1200   18.4020  -34.7530 C   0  0  0  0  0  0  0  0  0  0  0  0
   -0.9800   19.0480  -34.1360 C   0  0  0  0  0  0  0  0  0  0  0  0
    1.3859   22.5206  -34.6706 H   0  0  0  0  0  0  0  0  0  0  0  0
    1.3977   20.8708  -35.3810 H   0  0  0  0  0  0  0  0  0  0  0  0
   -0.1161   21.8379  -35.3810 H   0  0  0  0  0  0  0  0  0  0  0  0
    1.2068   20.3104  -33.1437 H   0  0  0  0  0  0  0  0  0  0  0  0
    0.3314   21.8356  -32.7344 H   0  0  0  0  0  0  0  0  0  0  0  0
   -6.1668   22.5759  -33.4658 H   0  0  0  0  0  0  0  0  0  0  0  0
   -6.8206   24.6506  -32.2433 H   0  0  0  0  0  0  0  0  0  0  0  0
   -4.2767   23.5101  -28.9344 H   0  0  0  0  0  0  0  0  0  0  0  0
   -3.6176   21.4340  -30.1539 H   0  0  0  0  0  0  0  0  0  0  0  0
   -7.2550   21.2741  -33.5439 H   0  0  0  0  0  0  0  0  0  0  0  0
   -9.6940   21.0584  -33.0689 H   0  0  0  0  0  0  0  0  0  0  0  0
  -10.5576   19.0697  -31.8322 H   0  0  0  0  0  0  0  0  0  0  0  0
   -8.9775   17.3028  -31.0502 H   0  0  0  0  0  0  0  0  0  0  0  0
   -6.5357   17.5120  -31.5170 H   0  0  0  0  0  0  0  0  0  0  0  0
   -4.9110   17.6510  -33.7880 H   0  0  0  0  0  0  0  0  0  0  0  0
   -3.3261   16.5775  -34.7083 H   0  0  0  0  0  0  0  0  0  0  0  0
   -1.3449   15.4812  -35.7407 H   0  0  0  0  0  0  0  0  0  0  0  0
    0.8483   16.6504  -35.7942 H   0  0  0  0  0  0  0  0  0  0  0  0
    1.0974   18.9058  -34.7830 H   0  0  0  0  0  0  0  0  0  0  0  0
  1  2  1  0
  2  3  1  0
  3  4  1  0
  4  5  2  0
  4  6  1  0
  6  7  2  0
  7  8  1  0
  8  9  2  0
  9 10  1  0
 10 11  2  0
 11 12  1  0
 11 13  1  0
 13 14  2  0
  7 15  1  0
 15 16  1  0
 16 17  2  0
 17 18  1  0
 18 19  2  0
 19 20  1  0
 20 21  2  0
 15 22  2  0
 22 23  1  0
 23 24  1  0
 24 25  2  0
 25 26  1  0
 26 27  2  0
 27 28  1  0
 28 29  2  0
 29  3  1  0
 23  6  1  0
 29 24  1  0
 14  8  1  0
 21 16  1  0
  1 30  1  0
  1 31  1  0
  1 32  1  0
  2 33  1  0
  2 34  1  0
  9 35  1  0
 10 36  1  0
 13 37  1  0
 14 38  1  0
 17 39  1  0
 18 40  1  0
 19 41  1  0
 20 42  1  0
 21 43  1  0
 22 44  1  0
 25 45  1  0
 26 46  1  0
 27 47  1  0
 28 48  1  0
M  CHG  1  22   1
M  END
>  <UniqueID>  (36) 
35

>  <SMILES>  (36) 
CCn1c(=O)c2c(-c3ccc(Cl)cc3)c(-c3ccccc3)[nH+]n2c2ccccc21

>  <Energy>  (36) 
111.17886532642487

>  <Genealogy>  (36) 
CCn1c(=O)c2c(-c3ccc(Cl)cc3)c(-c3ccccc3)[nH+]n2c2ccccc21 (protonated)
CCn1c(=O)c2c(-c3ccc(Cl)cc3)c(-c3ccccc3)[nH+]n2c2ccccc21 (3D coordinates assigned)
CCn1c(=O)c2c(-c3ccc(Cl)cc3)c(-c3ccccc3)[nH+]n2c2ccccc21 (optimized conformer: 111.17886532642487 kcal/mol)

>  <smiles>  (36) 
CCn1c(=O)c2c(-c3ccc(Cl)cc3)c(-c3ccccc3)nn2c2ccccc21

>  <score_type>  (36) 
oracle

>  <origin>  (36) 
adg

>  <m_score__min__energy>  (36) 
-8.6600000000000001

>  <m_primary>  (36) 
energy

$$$$
36:0
     RDKit          3D

 58 62  0  0  0  0  0  0  0  0999 V2000
   -0.6470   18.5360  -32.2630 C   0  0  0  0  0  0  0  0  0  0  0  0
   -0.5520   19.6010  -31.2110 C   0  0  0  0  0  0  0  0  0  0  0  0
   -0.2810   19.2530  -29.8790 C   0  0  0  0  0  0  0  0  0  0  0  0
   -0.1510   20.2460  -28.9030 C   0  0  0  0  0  0  0  0  0  0  0  0
   -0.2820   21.5980  -29.2510 C   0  0  0  0  0  0  0  0  0  0  0  0
   -0.0790   22.8640  -28.0410 S   0  0  0  0  0  0  0  0  0  0  0  0
    0.9530   22.4080  -27.0490 O   0  0  0  0  0  0  0  0  0  0  0  0
    0.4210   24.1220  -28.6970 O   0  0  0  0  0  0  0  0  0  0  0  0
   -1.5820   23.1800  -27.1980 N   0  0  0  0  0  0  0  0  0  0  0  0
   -2.5730   22.1040  -27.3890 C   0  0  0  0  0  0  0  0  0  0  0  0
   -3.1140   22.0750  -28.8240 C   0  0  0  0  0  0  0  0  0  0  0  0
   -3.4140   23.4300  -29.3060 N   0  0  0  0  0  0  0  0  0  0  0  0
   -3.9550   23.6320  -30.6320 C   0  0  0  0  0  0  0  0  0  0  0  0
   -4.6020   24.6830  -30.8910 O   0  0  0  0  0  0  0  0  0  0  0  0
   -3.7800   22.6170  -31.7290 C   0  0  0  0  0  0  0  0  0  0  0  0
   -4.6220   21.0510  -31.2980 S   0  0  0  0  0  0  0  0  0  0  0  0
   -6.2820   21.7300  -31.3190 C   0  0  0  0  0  0  0  0  0  0  0  0
   -6.6740   22.8210  -30.6190 N   0  0  0  0  0  0  0  0  0  0  0  0
   -7.9950   22.9560  -30.7340 N   0  0  0  0  0  0  0  0  0  0  0  0
   -8.3580   21.9360  -31.5300 C   0  0  0  0  0  0  0  0  0  0  0  0
   -9.8510   21.3080  -31.9550 S   0  0  0  0  0  0  0  0  0  0  0  0
   -9.1120   19.9420  -32.6850 C   0  0  0  0  0  0  0  0  0  0  0  0
   -7.7170   20.0360  -32.5480 C   0  0  0  0  0  0  0  0  0  0  0  0
   -6.7740   18.9960  -32.9860 C   0  0  0  0  0  0  0  0  0  0  0  0
   -6.0070   19.1780  -34.1480 C   0  0  0  0  0  0  0  0  0  0  0  0
   -5.1390   18.1710  -34.5800 C   0  0  0  0  0  0  0  0  0  0  0  0
   -5.0210   16.9850  -33.8480 C   0  0  0  0  0  0  0  0  0  0  0  0
   -5.7600   16.8120  -32.6760 C   0  0  0  0  0  0  0  0  0  0  0  0
   -6.6310   17.8160  -32.2420 C   0  0  0  0  0  0  0  0  0  0  0  0
   -7.3530   21.1700  -31.9020 N   0  0  0  0  0  0  0  0  0  0  0  0
   -3.3970   24.5410  -28.3450 C   0  0  0  0  0  0  0  0  0  0  0  0
   -2.1020   24.5340  -27.5100 C   0  0  0  0  0  0  0  0  0  0  0  0
   -0.5360   21.9480  -30.5840 C   0  0  0  0  0  0  0  0  0  0  0  0
   -0.6640   20.9560  -31.5610 C   0  0  0  0  0  0  0  0  0  0  0  0
   -0.7348   17.5512  -31.7809 H   0  0  0  0  0  0  0  0  0  0  0  0
   -1.5325   18.7177  -32.8898 H   0  0  0  0  0  0  0  0  0  0  0  0
    0.2567   18.5581  -32.8898 H   0  0  0  0  0  0  0  0  0  0  0  0
   -0.1703   18.1944  -29.6013 H   0  0  0  0  0  0  0  0  0  0  0  0
    0.0546   19.9657  -27.8594 H   0  0  0  0  0  0  0  0  0  0  0  0
   -2.0959   21.1376  -27.1689 H   0  0  0  0  0  0  0  0  0  0  0  0
   -3.4172   22.2925  -26.7094 H   0  0  0  0  0  0  0  0  0  0  0  0
   -2.3603   21.6186  -29.4825 H   0  0  0  0  0  0  0  0  0  0  0  0
   -4.0441   21.4878  -28.8339 H   0  0  0  0  0  0  0  0  0  0  0  0
   -4.2096   23.0139  -32.6606 H   0  0  0  0  0  0  0  0  0  0  0  0
   -2.7061   22.4178  -31.8597 H   0  0  0  0  0  0  0  0  0  0  0  0
   -6.0640   23.4390  -30.0370 H   0  0  0  0  0  0  0  0  0  0  0  0
   -9.6475   19.1203  -33.1830 H   0  0  0  0  0  0  0  0  0  0  0  0
   -6.0893   20.1144  -34.7192 H   0  0  0  0  0  0  0  0  0  0  0  0
   -4.5479   18.3115  -35.4970 H   0  0  0  0  0  0  0  0  0  0  0  0
   -4.3462   16.1888  -34.1955 H   0  0  0  0  0  0  0  0  0  0  0  0
   -5.6568   15.8847  -32.0934 H   0  0  0  0  0  0  0  0  0  0  0  0
   -7.2058   17.6798  -31.3141 H   0  0  0  0  0  0  0  0  0  0  0  0
   -3.4650   25.4917  -28.8941 H   0  0  0  0  0  0  0  0  0  0  0  0
   -4.2524   24.4256  -27.6631 H   0  0  0  0  0  0  0  0  0  0  0  0
   -1.3282   25.0791  -28.0704 H   0  0  0  0  0  0  0  0  0  0  0  0
   -2.3464   25.0063  -26.5471 H   0  0  0  0  0  0  0  0  0  0  0  0
   -0.6351   23.0075  -30.8628 H   0  0  0  0  0  0  0  0  0  0  0  0
   -0.8531   21.2381  -32.6073 H   0  0  0  0  0  0  0  0  0  0  0  0
  1  2  1  0
  2  3  2  0
  3  4  1  0
  4  5  2  0
  5  6  1  0
  6  7  2  0
  6  8  2  0
  6  9  1  0
  9 10  1  0
 10 11  1  0
 11 12  1  0
 12 13  1  0
 13 14  2  0
 13 15  1  0
 15 16  1  0
 16 17  1  0
 17 18  2  0
 18 19  1  0
 19 20  2  0
 20 21  1  0
 21 22  1  0
 22 23  2  0
 23 24  1  0
 24 25  2  0
 25 26  1  0
 26 27  2  0
 27 28  1  0
 28 29  2  0
 23 30  1  0
 12 31  1  0
 31 32  1  0
  5 33  1  0
 33 34  2  0
 34  2  1  0
 32  9  1  0
 30 17  1  0
 30 20  1  0
 29 24  1  0
  1 35  1  0
  1 36  1  0
  1 37  1  0
  3 38  1  0
  4 39  1  0
 10 40  1  0
 10 41  1  0
 11 42  1  0
 11 43  1  0
 15 44  1  0
 15 45  1  0
 18 46  1  0
 22 47  1  0
 25 48  1  0
 26 49  1  0
 27 50  1  0
 28 51  1  0
 29 52  1  0
 31 53  1  0
 31 54  1  0
 32 55  1  0
 32 56  1  0
 33 57  1  0
 34 58  1  0
M  CHG  1  18   1
M  END
>  <UniqueID>  (37) 
36

>  <SMILES>  (37) 
Cc1ccc(S(=O)(=O)N2CCN(C(=O)CSc3[nH+]nc4scc(-c5ccccc5)n34)CC2)cc1

>  <Energy>  (37) 
156.4078072276864

>  <Genealogy>  (37) 
Cc1ccc(S(=O)(=O)N2CCN(C(=O)CSc3[nH+]nc4scc(-c5ccccc5)n34)CC2)cc1 (protonated)
Cc1ccc(S(=O)(=O)N2CCN(C(=O)CSc3[nH+]nc4scc(-c5ccccc5)n34)CC2)cc1 (3D coordinates assigned)
Cc1ccc(S(=O)(=O)N2CCN(C(=O)CSc3[nH+]nc4scc(-c5ccccc5)n34)CC2)cc1 (nonaromatic ring conformer: 156.4078072276864 kcal/mol)

>  <smiles>  (37) 
Cc1ccc(S(=O)(=O)N2CCN(C(=O)CSc3nnc4scc(-c5ccccc5)n34)CC2)cc1

>  <score_type>  (37) 
oracle

>  <origin>  (37) 
adg

>  <m_score__min__energy>  (37) 
-10.289999999999999

>  <m_primary>  (37) 
energy

$$$$
37:0
     RDKit          3D

 24 26  0  0  0  0  0  0  0  0999 V2000
   -6.8520   17.3950  -33.2360 C   0  0  0  0  0  0  0  0  0  0  0  0
   -7.4360   18.6470  -32.6730 C   0  0  0  0  0  0  0  0  0  0  0  0
   -6.8970   19.7390  -32.3250 N   0  0  0  0  0  0  0  0  0  0  0  0
   -7.5380   20.7590  -31.8470 C   0  0  0  0  0  0  0  0  0  0  0  0
   -6.8810   22.0270  -31.4470 C   0  0  0  0  0  0  0  0  0  0  0  0
   -7.6100   23.1540  -31.1470 C   0  0  0  0  0  0  0  0  0  0  0  0
   -6.9710   24.3190  -30.7780 C   0  0  0  0  0  0  0  0  0  0  0  0
   -5.5970   24.4050  -30.6960 C   0  0  0  0  0  0  0  0  0  0  0  0
   -4.7310   25.3680  -30.3760 N   0  0  0  0  0  0  0  0  0  0  0  0
   -3.4940   24.8970  -30.4630 N   0  0  0  0  0  0  0  0  0  0  0  0
   -3.5210   23.6000  -30.8440 C   0  0  0  0  0  0  0  0  0  0  0  0
   -4.8510   23.2830  -30.9930 C   0  0  0  0  0  0  0  0  0  0  0  0
   -5.5070   22.1290  -31.3600 C   0  0  0  0  0  0  0  0  0  0  0  0
   -8.9030   20.6050  -31.7230 C   0  0  0  0  0  0  0  0  0  0  0  0
   -9.2020   18.8860  -32.3440 S   0  0  0  0  0  0  0  0  0  0  0  0
   -6.5430   16.7326  -32.4140 H   0  0  0  0  0  0  0  0  0  0  0  0
   -7.6051   16.8850  -33.8546 H   0  0  0  0  0  0  0  0  0  0  0  0
   -5.9772   17.6443  -33.8546 H   0  0  0  0  0  0  0  0  0  0  0  0
   -8.7083   23.1260  -31.2017 H   0  0  0  0  0  0  0  0  0  0  0  0
   -7.5758   25.2070  -30.5418 H   0  0  0  0  0  0  0  0  0  0  0  0
   -4.9980   26.3270  -30.1060 H   0  0  0  0  0  0  0  0  0  0  0  0
   -2.6583   22.9361  -31.0020 H   0  0  0  0  0  0  0  0  0  0  0  0
   -4.9034   21.2404  -31.5966 H   0  0  0  0  0  0  0  0  0  0  0  0
   -9.6387   21.3303  -31.3453 H   0  0  0  0  0  0  0  0  0  0  0  0
  1  2  1  0
  2  3  2  0
  3  4  1  0
  4  5  1  0
  5  6  2  0
  6  7  1  0
  7  8  2  0
  8  9  1  0
  9 10  1  0
 10 11  2  0
 11 12  1  0
 12 13  2  0
  4 14  2  0
 14 15  1  0
 15  2  1  0
 13  5  1  0
 12  8  1  0
  1 16  1  0
  1 17  1  0
  1 18  1  0
  6 19  1  0
  7 20  1  0
  9 21  1  0
 11 22  1  0
 13 23  1  0
 14 24  1  0
M  END
>  <smiles>  (38) 
Cc1nc(-c2ccc3[nH]ncc3c2)cs1

>  <score_type>  (38) 
oracle

>  <origin>  (38) 
adg

>  <m_score__min__energy>  (38) 
-7.4299999999999997

>  <m_primary>  (38) 
energy

$$$$
38:0
     RDKit          3D

 40 42  0  0  0  0  0  0  0  0999 V2000
    0.6010   22.3730  -35.0730 N   0  0  0  0  0  0  0  0  0  0  0  0
   -0.1040   21.5380  -34.6930 C   0  0  0  0  0  0  0  0  0  0  0  0
   -0.9820   20.5000  -34.2200 C   0  0  0  0  0  0  0  0  0  0  0  0
   -2.1330   20.8300  -33.4940 C   0  0  0  0  0  0  0  0  0  0  0  0
   -2.9850   19.8220  -33.0330 C   0  0  0  0  0  0  0  0  0  0  0  0
   -2.6950   18.4740  -33.2960 C   0  0  0  0  0  0  0  0  0  0  0  0
   -3.6130   17.3940  -32.7860 C   0  0  0  0  0  0  0  0  0  0  0  0
   -4.3710   16.7950  -33.9070 N   0  0  0  0  0  0  0  0  0  0  0  0
   -5.5780   16.0800  -33.4360 C   0  0  0  0  0  0  0  0  0  0  0  0
   -6.6030   17.0490  -32.8220 C   0  0  0  0  0  0  0  0  0  0  0  0
   -6.6230   18.3150  -33.5620 N   0  0  0  0  0  0  0  0  0  0  0  0
   -7.1040   19.5170  -32.9300 C   0  0  0  0  0  0  0  0  0  0  0  0
   -8.3970   19.5650  -32.3770 C   0  0  0  0  0  0  0  0  0  0  0  0
   -8.8660   20.7390  -31.7800 C   0  0  0  0  0  0  0  0  0  0  0  0
   -8.0560   21.8760  -31.7350 C   0  0  0  0  0  0  0  0  0  0  0  0
   -6.7740   21.8410  -32.2900 C   0  0  0  0  0  0  0  0  0  0  0  0
   -6.3000   20.6700  -32.8900 C   0  0  0  0  0  0  0  0  0  0  0  0
   -6.1130   18.3290  -34.9360 C   0  0  0  0  0  0  0  0  0  0  0  0
   -4.6730   17.7800  -34.9800 C   0  0  0  0  0  0  0  0  0  0  0  0
   -1.5390   18.1480  -34.0240 C   0  0  0  0  0  0  0  0  0  0  0  0
   -0.6870   19.1570  -34.4840 C   0  0  0  0  0  0  0  0  0  0  0  0
   -2.3673   21.8844  -33.2860 H   0  0  0  0  0  0  0  0  0  0  0  0
   -3.8869   20.0865  -32.4615 H   0  0  0  0  0  0  0  0  0  0  0  0
   -3.0159   16.6128  -32.2928 H   0  0  0  0  0  0  0  0  0  0  0  0
   -4.3214   17.8346  -32.0690 H   0  0  0  0  0  0  0  0  0  0  0  0
   -6.0419   15.5617  -34.2882 H   0  0  0  0  0  0  0  0  0  0  0  0
   -5.2734   15.3622  -32.6601 H   0  0  0  0  0  0  0  0  0  0  0  0
   -7.6024   16.5911  -32.8616 H   0  0  0  0  0  0  0  0  0  0  0  0
   -6.3190   17.2520  -31.7789 H   0  0  0  0  0  0  0  0  0  0  0  0
   -9.0418   18.6746  -32.4146 H   0  0  0  0  0  0  0  0  0  0  0  0
   -9.8757   20.7673  -31.3445 H   0  0  0  0  0  0  0  0  0  0  0  0
   -8.4268   22.7979  -31.2632 H   0  0  0  0  0  0  0  0  0  0  0  0
   -6.1362   22.7365  -32.2549 H   0  0  0  0  0  0  0  0  0  0  0  0
   -5.2933   20.6508  -33.3328 H   0  0  0  0  0  0  0  0  0  0  0  0
   -6.7591   17.7030  -35.5689 H   0  0  0  0  0  0  0  0  0  0  0  0
   -6.1115   19.3650  -35.3057 H   0  0  0  0  0  0  0  0  0  0  0  0
   -4.5183   17.2907  -35.9530 H   0  0  0  0  0  0  0  0  0  0  0  0
   -3.9998   18.6362  -34.8264 H   0  0  0  0  0  0  0  0  0  0  0  0
   -1.3027   17.0943  -34.2333 H   0  0  0  0  0  0  0  0  0  0  0  0
    0.2165   18.8951  -35.0542 H   0  0  0  0  0  0  0  0  0  0  0  0
  1  2  3  0
  2  3  1  0
  3  4  2  0
  4  5  1  0
  5  6  2  0
  6  7  1  0
  7  8  1  0
  8  9  1  0
  9 10  1  0
 10 11  1  0
 11 12  1  0
 12 13  2  0
 13 14  1  0
 14 15  2  0
 15 16  1  0
 16 17  2  0
 11 18  1  0
 18 19  1  0
  6 20  1  0
 20 21  2  0
 21  3  1  0
 19  8  1  0
 17 12  1  0
  4 22  1  0
  5 23  1  0
  7 24  1  0
  7 25  1  0
  9 26  1  0
  9 27  1  0
 10 28  1  0
 10 29  1  0
 13 30  1  0
 14 31  1  0
 15 32  1  0
 16 33  1  0
 17 34  1  0
 18 35  1  0
 18 36  1  0
 19 37  1  0
 19 38  1  0
 20 39  1  0
 21 40  1  0
M  END
>  <UniqueID>  (39) 
37

>  <SMILES>  (39) 
N#Cc1ccc(CN2CCN(c3ccccc3)CC2)cc1

>  <Energy>  (39) 
52.24297961384628

>  <Genealogy>  (39) 
N#Cc1ccc(CN2CCN(c3ccccc3)CC2)cc1 (3D coordinates assigned)
N#Cc1ccc(CN2CCN(c3ccccc3)CC2)cc1 (nonaromatic ring conformer: 52.24297961384628 kcal/mol)

>  <smiles>  (39) 
N#Cc1ccc(CN2CCN(c3ccccc3)CC2)cc1

>  <score_type>  (39) 
oracle

>  <origin>  (39) 
adg

>  <m_score__min__energy>  (39) 
-7.3600000000000003

>  <m_primary>  (39) 
energy

$$$$
39:0
     RDKit          3D

 43 45  0  0  0  0  0  0  0  0999 V2000
   -1.9430   17.9620  -33.8170 C   0  0  0  0  0  0  0  0  0  0  0  0
   -3.1960   18.7460  -34.0570 C   0  0  0  0  0  0  0  0  0  0  0  0
   -3.1140   19.9950  -34.2040 O   0  0  0  0  0  0  0  0  0  0  0  0
   -4.4870   18.1030  -34.0560 N   0  0  0  0  0  0  0  0  0  0  0  0
   -4.6050   16.7290  -34.5610 C   0  0  0  0  0  0  0  0  0  0  0  0
   -5.4720   15.9000  -33.6160 C   0  0  0  0  0  0  0  0  0  0  0  0
   -6.8650   16.5180  -33.4890 C   0  0  0  0  0  0  0  0  0  0  0  0
   -6.8110   17.9990  -33.2040 C   0  0  0  0  0  0  0  0  0  0  0  0
   -7.9530   18.6350  -32.6980 C   0  0  0  0  0  0  0  0  0  0  0  0
   -7.9730   20.0170  -32.5140 C   0  0  0  0  0  0  0  0  0  0  0  0
   -6.8590   20.7960  -32.8620 C   0  0  0  0  0  0  0  0  0  0  0  0
   -6.8610   22.2290  -32.7210 N   0  0  0  0  0  0  0  0  0  0  0  0
   -6.8910   23.0470  -31.1920 S   0  0  0  0  0  0  0  0  0  0  0  0
   -7.1610   22.0520  -30.0990 O   0  0  0  0  0  0  0  0  0  0  0  0
   -7.9950   24.0660  -31.2040 O   0  0  0  0  0  0  0  0  0  0  0  0
   -5.3290   23.8090  -30.8890 C   0  0  0  0  0  0  0  0  0  0  0  0
   -4.0670   23.2900  -31.1030 C   0  0  0  0  0  0  0  0  0  0  0  0
   -3.7280   21.9420  -31.6470 C   0  0  0  0  0  0  0  0  0  0  0  0
   -3.1440   24.1830  -30.6940 N   0  0  0  0  0  0  0  0  0  0  0  0
   -3.7710   25.2580  -30.2360 N   0  0  0  0  0  0  0  0  0  0  0  0
   -5.0980   25.0610  -30.3550 C   0  0  0  0  0  0  0  0  0  0  0  0
   -6.1250   26.0380  -29.8810 C   0  0  0  0  0  0  0  0  0  0  0  0
   -5.7150   20.1630  -33.3710 C   0  0  0  0  0  0  0  0  0  0  0  0
   -5.6680   18.7630  -33.5340 C   0  0  0  0  0  0  0  0  0  0  0  0
   -1.7771   17.8582  -32.7346 H   0  0  0  0  0  0  0  0  0  0  0  0
   -2.0421   16.9646  -34.2701 H   0  0  0  0  0  0  0  0  0  0  0  0
   -1.0893   18.4873  -34.2701 H   0  0  0  0  0  0  0  0  0  0  0  0
   -5.0668   16.7458  -35.5592 H   0  0  0  0  0  0  0  0  0  0  0  0
   -3.6033   16.2786  -34.6220 H   0  0  0  0  0  0  0  0  0  0  0  0
   -5.5639   14.8777  -34.0117 H   0  0  0  0  0  0  0  0  0  0  0  0
   -4.9989   15.8804  -32.6231 H   0  0  0  0  0  0  0  0  0  0  0  0
   -7.4098   16.3588  -34.4312 H   0  0  0  0  0  0  0  0  0  0  0  0
   -7.3733   16.0311  -32.6437 H   0  0  0  0  0  0  0  0  0  0  0  0
   -8.8415   18.0384  -32.4438 H   0  0  0  0  0  0  0  0  0  0  0  0
   -8.8676   20.4996  -32.0934 H   0  0  0  0  0  0  0  0  0  0  0  0
   -6.9500   22.8230  -33.5760 H   0  0  0  0  0  0  0  0  0  0  0  0
   -3.5525   21.2443  -30.8149 H   0  0  0  0  0  0  0  0  0  0  0  0
   -4.5618   21.5751  -32.2635 H   0  0  0  0  0  0  0  0  0  0  0  0
   -2.8198   22.0132  -32.2635 H   0  0  0  0  0  0  0  0  0  0  0  0
   -6.1386   26.0510  -28.7812 H   0  0  0  0  0  0  0  0  0  0  0  0
   -5.8770   27.0418  -30.2565 H   0  0  0  0  0  0  0  0  0  0  0  0
   -7.1151   25.7403  -30.2565 H   0  0  0  0  0  0  0  0  0  0  0  0
   -4.8397   20.7691  -33.6477 H   0  0  0  0  0  0  0  0  0  0  0  0
  1  2  1  0
  2  3  2  0
  2  4  1  0
  4  5  1  0
  5  6  1  0
  6  7  1  0
  7  8  1  0
  8  9  2  0
  9 10  1  0
 10 11  2  0
 11 12  1  0
 12 13  1  0
 13 14  2  0
 13 15  2  0
 13 16  1  0
 16 17  1  0
 17 18  1  0
 17 19  2  0
 19 20  1  0
 20 21  1  0
 21 22  1  0
 11 23  1  0
 23 24  2  0
 24  4  1  0
 24  8  1  0
 21 16  2  0
  1 25  1  0
  1 26  1  0
  1 27  1  0
  5 28  1  0
  5 29  1  0
  6 30  1  0
  6 31  1  0
  7 32  1  0
  7 33  1  0
  9 34  1  0
 10 35  1  0
 12 36  1  0
 18 37  1  0
 18 38  1  0
 18 39  1  0
 22 40  1  0
 22 41  1  0
 22 42  1  0
 23 43  1  0
M  CHG  1  20  -1
M  END
>  <UniqueID>  (40) 
38

>  <SMILES>  (40) 
CC(=O)N1CCCc2ccc(NS(=O)(=O)c3c(C)n[n-]c3C)cc21

>  <Energy>  (40) 
78.32950939407337

>  <Genealogy>  (40) 
CC(=O)N1CCCc2ccc(NS(=O)(=O)c3c(C)n[n-]c3C)cc21 (protonated)
CC(=O)N1CCCc2ccc(NS(=O)(=O)c3c(C)n[n-]c3C)cc21 (3D coordinates assigned)
CC(=O)N1CCCc2ccc(NS(=O)(=O)c3c(C)n[n-]c3C)cc21 (nonaromatic ring conformer: 78.32950939407337 kcal/mol)

>  <smiles>  (40) 
CC(=O)N1CCCc2ccc(NS(=O)(=O)c3c(C)n[nH]c3C)cc21

>  <score_type>  (40) 
oracle

>  <origin>  (40) 
adg

>  <m_score__min__energy>  (40) 
-10.51

>  <m_primary>  (40) 
energy

$$$$
40:0
     RDKit          3D

 46 50  0  0  1  0  0  0  0  0999 V2000
   -8.6020   18.9810  -32.3180 C   0  0  0  0  0  0  0  0  0  0  0  0
   -8.5610   20.3540  -32.1870 C   0  0  0  0  0  0  0  0  0  0  0  0
   -7.3560   20.9840  -32.5200 C   0  0  0  0  0  0  0  0  0  0  0  0
   -6.2790   20.2250  -32.9580 C   0  0  0  0  0  0  0  0  0  0  0  0
   -5.0630   20.8860  -33.2880 N   0  0  0  0  0  0  0  0  0  0  0  0
   -3.9890   21.0640  -32.3900 C   0  0  0  0  0  0  0  0  0  0  0  0
   -4.2990   21.2060  -31.0510 C   0  0  0  0  0  0  0  0  0  0  0  0
   -3.2620   21.3840  -30.1280 C   0  0  0  0  0  0  0  0  0  0  0  0
   -3.5860   21.5100  -28.9070 N   0  0  0  0  0  0  0  0  0  0  0  0
   -4.5380   22.5180  -28.4590 C   0  0  0  0  0  0  0  0  0  0  0  0
   -4.5220   23.6200  -29.4600 C   0  0  0  0  0  0  0  0  0  0  0  0
   -5.4780   23.9230  -30.3510 N   0  0  0  0  0  0  0  0  0  0  0  0
   -5.0900   24.9680  -31.0590 N   0  0  0  0  0  0  0  0  0  0  0  0
   -3.9060   25.2980  -30.6030 N   0  0  0  0  0  0  0  0  0  0  0  0
   -3.5120   24.5040  -29.6230 N   0  0  0  0  0  0  0  0  0  0  0  0
   -2.3100   24.5170  -28.8640 C   0  0  0  0  0  0  0  0  0  0  0  0
   -2.4280   24.9580  -27.5440 C   0  0  0  0  0  0  0  0  0  0  0  0
   -1.3430   25.0200  -26.6940 C   0  0  0  0  0  0  0  0  0  0  0  0
   -0.1090   24.6290  -27.1810 C   0  0  0  0  0  0  0  0  0  0  0  0
    0.0090   24.1900  -28.4950 C   0  0  0  0  0  0  0  0  0  0  0  0
   -1.0900   24.1310  -29.3390 C   0  0  0  0  0  0  0  0  0  0  0  0
   -1.9710   21.4210  -30.5080 N   0  0  0  0  0  0  0  0  0  0  0  0
   -1.6990   21.2780  -31.8320 C   0  0  0  0  0  0  0  0  0  0  0  0
   -0.4880   21.2700  -32.5360 C   0  0  0  0  0  0  0  0  0  0  0  0
   -0.8280   21.0880  -33.8610 C   0  0  0  0  0  0  0  0  0  0  0  0
   -2.1730   20.9910  -33.9570 N   0  0  0  0  0  0  0  0  0  0  0  0
   -2.6980   21.1050  -32.7400 N   0  0  0  0  0  0  0  0  0  0  0  0
   -6.3450   18.8570  -33.0800 C   0  0  0  0  0  0  0  0  0  0  0  0
   -7.5300   18.2290  -32.7530 C   0  0  0  0  0  0  0  0  0  0  0  0
   -9.5364   18.4597  -32.0628 H   0  0  0  0  0  0  0  0  0  0  0  0
   -9.4332   20.9260  -31.8377 H   0  0  0  0  0  0  0  0  0  0  0  0
   -7.2627   22.0767  -32.4349 H   0  0  0  0  0  0  0  0  0  0  0  0
   -4.9220   21.2840  -34.2620 H   0  0  0  0  0  0  0  0  0  0  0  0
   -5.3461   21.1795  -30.7151 H   0  0  0  0  0  0  0  0  0  0  0  0
   -5.5458   22.0818  -28.3958 H   0  0  0  0  0  0  0  0  0  0  0  0
   -4.2655   22.8943  -27.4620 H   0  0  0  0  0  0  0  0  0  0  0  0
   -3.4161   25.2652  -27.1707 H   0  0  0  0  0  0  0  0  0  0  0  0
   -1.4563   25.3707  -25.6576 H   0  0  0  0  0  0  0  0  0  0  0  0
    0.7771   24.6652  -26.5302 H   0  0  0  0  0  0  0  0  0  0  0  0
    0.9952   23.8829  -28.8733 H   0  0  0  0  0  0  0  0  0  0  0  0
   -0.9801   23.7786  -30.3752 H   0  0  0  0  0  0  0  0  0  0  0  0
    0.5235   21.3849  -32.1193 H   0  0  0  0  0  0  0  0  0  0  0  0
   -0.1205   21.0312  -34.7014 H   0  0  0  0  0  0  0  0  0  0  0  0
   -2.7020   20.8490  -34.8530 H   0  0  0  0  0  0  0  0  0  0  0  0
   -5.4768   18.2786  -33.4288 H   0  0  0  0  0  0  0  0  0  0  0  0
   -7.6191   17.1360  -32.8387 H   0  0  0  0  0  0  0  0  0  0  0  0
  1  2  2  0
  2  3  1  0
  3  4  2  0
  4  5  1  0
  5  6  1  0
  6  7  2  0
  7  8  1  0
  8  9  2  0
  9 10  1  0
 10 11  1  0
 11 12  2  0
 12 13  1  0
 13 14  2  0
 14 15  1  0
 15 16  1  0
 16 17  2  0
 17 18  1  0
 18 19  2  0
 19 20  1  0
 20 21  2  0
  8 22  1  0
 22 23  2  0
 23 24  1  0
 24 25  2  0
 25 26  1  0
 26 27  1  0
  4 28  1  0
 28 29  2  0
 29  1  1  0
 27  6  1  0
 15 11  1  0
 21 16  1  0
 27 23  1  0
  1 30  1  0
  2 31  1  0
  3 32  1  0
  5 33  1  0
  7 34  1  0
 10 35  1  0
 10 36  1  0
 17 37  1  0
 18 38  1  0
 19 39  1  0
 20 40  1  0
 21 41  1  0
 24 42  1  0
 25 43  1  0
 26 44  1  0
 28 45  1  0
 29 46  1  0
M  END
>  <smiles>  (41) 
c1ccc(Nc2cc(=NCc3nnnn3-c3ccccc3)nc3cc[nH]n23)cc1

>  <score_type>  (41) 
oracle

>  <origin>  (41) 
adg

>  <m_score__min__energy>  (41) 
-10.09

>  <m_primary>  (41) 
energy

$$$$
41:0
     RDKit          3D

 54 57  0  0  0  0  0  0  0  0999 V2000
    3.1420   14.4630  -29.2200 C   0  0  0  0  0  0  0  0  0  0  0  0
    2.6240   15.6100  -29.8840 O   0  0  0  0  0  0  0  0  0  0  0  0
    1.6810   16.4900  -29.3290 C   0  0  0  0  0  0  0  0  0  0  0  0
    1.2150   16.3650  -28.0060 C   0  0  0  0  0  0  0  0  0  0  0  0
    0.3010   17.2880  -27.4880 C   0  0  0  0  0  0  0  0  0  0  0  0
   -0.1560   18.3640  -28.2790 C   0  0  0  0  0  0  0  0  0  0  0  0
   -1.0970   19.3740  -27.7390 C   0  0  0  0  0  0  0  0  0  0  0  0
   -0.7880   20.6830  -27.6080 N   0  0  0  0  0  0  0  0  0  0  0  0
   -1.9210   21.1780  -27.0600 C   0  0  0  0  0  0  0  0  0  0  0  0
   -2.0870   22.5470  -26.6630 N   0  0  0  0  0  0  0  0  0  0  0  0
   -0.9450   23.1880  -25.9750 C   0  0  0  0  0  0  0  0  0  0  0  0
   -1.1420   24.6820  -25.6860 C   0  0  0  0  0  0  0  0  0  0  0  0
   -1.9570   25.3750  -26.7850 C   0  0  0  0  0  0  0  0  0  0  0  0
   -1.2580   25.3060  -28.1330 C   0  0  0  0  0  0  0  0  0  0  0  0
   -0.0020   25.1970  -28.2050 O   0  0  0  0  0  0  0  0  0  0  0  0
   -2.0440   25.2710  -29.3280 N   0  0  0  0  0  0  0  0  0  0  0  0
   -2.5800   24.1110  -29.9940 C   0  0  0  0  0  0  0  0  0  0  0  0
   -1.8830   22.9060  -29.8320 C   0  0  0  0  0  0  0  0  0  0  0  0
   -2.4260   21.7030  -30.2880 C   0  0  0  0  0  0  0  0  0  0  0  0
   -3.6860   21.6840  -30.8860 C   0  0  0  0  0  0  0  0  0  0  0  0
   -4.4010   22.8740  -31.0660 C   0  0  0  0  0  0  0  0  0  0  0  0
   -6.1950   22.7460  -31.7370 Br  0  0  0  0  0  0  0  0  0  0  0  0
   -3.8440   24.1040  -30.6440 C   0  0  0  0  0  0  0  0  0  0  0  0
   -4.5500   25.2990  -30.8200 O   0  0  0  0  0  0  0  0  0  0  0  0
   -5.7220   25.6080  -30.0670 C   0  0  0  0  0  0  0  0  0  0  0  0
   -3.3530   24.7390  -26.7770 C   0  0  0  0  0  0  0  0  0  0  0  0
   -3.3100   23.2450  -27.1170 C   0  0  0  0  0  0  0  0  0  0  0  0
   -2.8240   20.2440  -26.8860 O   0  0  0  0  0  0  0  0  0  0  0  0
   -2.3480   19.1170  -27.3030 N   0  0  0  0  0  0  0  0  0  0  0  0
    0.2980   18.4720  -29.6040 C   0  0  0  0  0  0  0  0  0  0  0  0
    1.2010   17.5390  -30.1230 C   0  0  0  0  0  0  0  0  0  0  0  0
    3.0763   14.6085  -28.1316 H   0  0  0  0  0  0  0  0  0  0  0  0
    2.5565   13.5773  -29.5075 H   0  0  0  0  0  0  0  0  0  0  0  0
    4.1936   14.3166  -29.5075 H   0  0  0  0  0  0  0  0  0  0  0  0
    1.5720   15.5366  -27.3764 H   0  0  0  0  0  0  0  0  0  0  0  0
   -0.0644   17.1747  -26.4567 H   0  0  0  0  0  0  0  0  0  0  0  0
   -0.7841   22.6700  -25.0181 H   0  0  0  0  0  0  0  0  0  0  0  0
   -0.0827   23.1086  -26.6534 H   0  0  0  0  0  0  0  0  0  0  0  0
   -1.6712   24.7920  -24.7280 H   0  0  0  0  0  0  0  0  0  0  0  0
   -0.1498   25.1554  -25.6479 H   0  0  0  0  0  0  0  0  0  0  0  0
   -2.0531   26.4533  -26.5898 H   0  0  0  0  0  0  0  0  0  0  0  0
   -0.8987   22.9079  -29.3409 H   0  0  0  0  0  0  0  0  0  0  0  0
   -1.8584   20.7675  -30.1753 H   0  0  0  0  0  0  0  0  0  0  0  0
   -4.1200   20.7292  -31.2178 H   0  0  0  0  0  0  0  0  0  0  0  0
   -5.4940   25.5479  -28.9926 H   0  0  0  0  0  0  0  0  0  0  0  0
   -6.0588   26.6256  -30.3140 H   0  0  0  0  0  0  0  0  0  0  0  0
   -6.5167   24.8887  -30.3140 H   0  0  0  0  0  0  0  0  0  0  0  0
   -3.7928   24.8621  -25.7763 H   0  0  0  0  0  0  0  0  0  0  0  0
   -3.9584   25.2430  -27.5448 H   0  0  0  0  0  0  0  0  0  0  0  0
   -4.1774   22.7602  -26.6451 H   0  0  0  0  0  0  0  0  0  0  0  0
   -3.3215   23.1737  -28.2146 H   0  0  0  0  0  0  0  0  0  0  0  0
   -2.8680   18.2100  -27.2940 H   0  0  0  0  0  0  0  0  0  0  0  0
   -0.0595   19.2967  -30.2380 H   0  0  0  0  0  0  0  0  0  0  0  0
    1.5380   17.6300  -31.1662 H   0  0  0  0  0  0  0  0  0  0  0  0
  1  2  1  0
  2  3  1  0
  3  4  2  0
  4  5  1  0
  5  6  2  0
  6  7  1  0
  7  8  1  0
  8  9  2  0
  9 10  1  0
 10 11  1  0
 11 12  1  0
 12 13  1  0
 13 14  1  0
 14 15  2  0
 14 16  1  0
 16 17  1  0
 17 18  2  0
 18 19  1  0
 19 20  2  0
 20 21  1  0
 21 22  1  0
 21 23  2  0
 23 24  1  0
 24 25  1  0
 13 26  1  0
 26 27  1  0
  9 28  1  0
 28 29  1  0
  6 30  1  0
 30 31  2  0
 31  3  1  0
 29  7  2  0
 27 10  1  0
 23 17  1  0
  1 32  1  0
  1 33  1  0
  1 34  1  0
  4 35  1  0
  5 36  1  0
 11 37  1  0
 11 38  1  0
 12 39  1  0
 12 40  1  0
 13 41  1  0
 18 42  1  0
 19 43  1  0
 20 44  1  0
 25 45  1  0
 25 46  1  0
 25 47  1  0
 26 48  1  0
 26 49  1  0
 27 50  1  0
 27 51  1  0
 29 52  1  0
 30 53  1  0
 31 54  1  0
M  CHG  2  16  -1  29   1
M  END
>  <UniqueID>  (42) 
39

>  <SMILES>  (42) 
COc1ccc(-c2nc(N3CCC(C(=O)[N-]c4cccc(Br)c4OC)CC3)o[nH+]2)cc1

>  <Energy>  (42) 
106.95850045562709

>  <Genealogy>  (42) 
COc1ccc(-c2nc(N3CCC(C(=O)[N-]c4cccc(Br)c4OC)CC3)o[nH+]2)cc1 (protonated)
COc1ccc(-c2nc(N3CCC(C(=O)[N-]c4cccc(Br)c4OC)CC3)o[nH+]2)cc1 (3D coordinates assigned)
COc1ccc(-c2nc(N3CCC(C(=O)[N-]c4cccc(Br)c4OC)CC3)o[nH+]2)cc1 (nonaromatic ring conformer: 106.95850045562709 kcal/mol)

>  <smiles>  (42) 
COc1ccc(-c2noc(N3CCC(C(=O)Nc4cccc(Br)c4OC)CC3)n2)cc1

>  <score_type>  (42) 
oracle

>  <origin>  (42) 
adg

>  <m_score__min__energy>  (42) 
-9.8100000000000005

>  <m_primary>  (42) 
energy

$$$$
42:0
     RDKit          3D

 31 33  0  0  0  0  0  0  0  0999 V2000
   -9.9690   21.9210  -30.7890 N   0  0  0  0  0  0  0  0  0  0  0  0
   -9.0820   21.3880  -31.3060 C   0  0  0  0  0  0  0  0  0  0  0  0
   -7.9730   20.7270  -31.9520 C   0  0  0  0  0  0  0  0  0  0  0  0
   -8.0350   19.3760  -32.0670 N   0  0  0  0  0  0  0  0  0  0  0  0
   -7.0430   18.6640  -32.6490 C   0  0  0  0  0  0  0  0  0  0  0  0
   -7.1460   17.2720  -32.7500 C   0  0  0  0  0  0  0  0  0  0  0  0
   -6.1210   16.5360  -33.3520 C   0  0  0  0  0  0  0  0  0  0  0  0
   -4.9910   17.1880  -33.8540 C   0  0  0  0  0  0  0  0  0  0  0  0
   -4.8820   18.5790  -33.7560 C   0  0  0  0  0  0  0  0  0  0  0  0
   -5.9100   19.3270  -33.1520 C   0  0  0  0  0  0  0  0  0  0  0  0
   -5.8510   20.7270  -33.0280 C   0  0  0  0  0  0  0  0  0  0  0  0
   -4.8420   21.3460  -33.4700 O   0  0  0  0  0  0  0  0  0  0  0  0
   -6.8810   21.4180  -32.4310 N   0  0  0  0  0  0  0  0  0  0  0  0
   -6.8060   22.8940  -32.3460 C   0  0  0  0  0  0  0  0  0  0  0  0
   -6.0460   23.3180  -31.1140 C   0  0  0  0  0  0  0  0  0  0  0  0
   -5.0210   22.5070  -30.5940 C   0  0  0  0  0  0  0  0  0  0  0  0
   -4.3020   22.9140  -29.4660 C   0  0  0  0  0  0  0  0  0  0  0  0
   -4.5970   24.1320  -28.8500 C   0  0  0  0  0  0  0  0  0  0  0  0
   -5.6130   24.9460  -29.3600 C   0  0  0  0  0  0  0  0  0  0  0  0
   -6.3340   24.5420  -30.4880 C   0  0  0  0  0  0  0  0  0  0  0  0
   -8.0341   16.7565  -32.3555 H   0  0  0  0  0  0  0  0  0  0  0  0
   -6.2039   15.4420  -33.4307 H   0  0  0  0  0  0  0  0  0  0  0  0
   -4.1861   16.6061  -34.3269 H   0  0  0  0  0  0  0  0  0  0  0  0
   -3.9914   19.0892  -34.1516 H   0  0  0  0  0  0  0  0  0  0  0  0
   -6.2928   23.2817  -33.2384 H   0  0  0  0  0  0  0  0  0  0  0  0
   -7.8276   23.2978  -32.2884 H   0  0  0  0  0  0  0  0  0  0  0  0
   -4.7839   21.5477  -31.0773 H   0  0  0  0  0  0  0  0  0  0  0  0
   -3.5031   22.2740  -29.0634 H   0  0  0  0  0  0  0  0  0  0  0  0
   -4.0298   24.4512  -27.9632 H   0  0  0  0  0  0  0  0  0  0  0  0
   -5.8453   25.9049  -28.8736 H   0  0  0  0  0  0  0  0  0  0  0  0
   -7.1311   25.1863  -30.8873 H   0  0  0  0  0  0  0  0  0  0  0  0
  1  2  3  0
  2  3  1  0
  3  4  2  0
  4  5  1  0
  5  6  2  0
  6  7  1  0
  7  8  2  0
  8  9  1  0
  9 10  2  0
 10 11  1  0
 11 12  2  0
 11 13  1  0
 13 14  1  0
 14 15  1  0
 15 16  2  0
 16 17  1  0
 17 18  2  0
 18 19  1  0
 19 20  2  0
 13  3  1  0
 20 15  1  0
 10  5  1  0
  6 21  1  0
  7 22  1  0
  8 23  1  0
  9 24  1  0
 14 25  1  0
 14 26  1  0
 16 27  1  0
 17 28  1  0
 18 29  1  0
 19 30  1  0
 20 31  1  0
M  END
>  <UniqueID>  (43) 
40

>  <SMILES>  (43) 
N#Cc1nc2ccccc2c(=O)n1Cc1ccccc1

>  <Energy>  (43) 
41.7383008581828

>  <Genealogy>  (43) 
N#Cc1nc2ccccc2c(=O)n1Cc1ccccc1 (3D coordinates assigned)
N#Cc1nc2ccccc2c(=O)n1Cc1ccccc1 (optimized conformer: 41.7383008581828 kcal/mol)

>  <smiles>  (43) 
N#Cc1nc2ccccc2c(=O)n1Cc1ccccc1

>  <score_type>  (43) 
oracle

>  <origin>  (43) 
adg

>  <m_score__min__energy>  (43) 
-7.1799999999999997

>  <m_primary>  (43) 
energy

$$$$
43:0
     RDKit          3D

 29 31  0  0  0  0  0  0  0  0999 V2000
   -5.9660   15.4050  -33.9190 Br  0  0  0  0  0  0  0  0  0  0  0  0
   -6.4380   17.1940  -33.4480 C   0  0  0  0  0  0  0  0  0  0  0  0
   -7.2570   17.4340  -32.3400 C   0  0  0  0  0  0  0  0  0  0  0  0
   -7.6040   18.7430  -31.9940 C   0  0  0  0  0  0  0  0  0  0  0  0
   -7.1250   19.8280  -32.7480 C   0  0  0  0  0  0  0  0  0  0  0  0
   -7.4860   21.2100  -32.3640 C   0  0  0  0  0  0  0  0  0  0  0  0
   -8.6970   21.5780  -31.9030 N   0  0  0  0  0  0  0  0  0  0  0  0
   -8.6530   22.8430  -31.6030 O   0  0  0  0  0  0  0  0  0  0  0  0
   -7.4580   23.3370  -31.8320 C   0  0  0  0  0  0  0  0  0  0  0  0
   -6.6640   22.3240  -32.3280 C   0  0  0  0  0  0  0  0  0  0  0  0
   -4.9100   22.4380  -32.6880 S   0  0  0  0  0  0  0  0  0  0  0  0
   -4.5320   23.0610  -31.0530 C   0  0  0  0  0  0  0  0  0  0  0  0
   -4.2860   22.1760  -29.9980 C   0  0  0  0  0  0  0  0  0  0  0  0
   -3.9810   22.6890  -28.7360 C   0  0  0  0  0  0  0  0  0  0  0  0
   -3.9260   24.0710  -28.5420 C   0  0  0  0  0  0  0  0  0  0  0  0
   -4.1820   24.9230  -29.6210 C   0  0  0  0  0  0  0  0  0  0  0  0
   -4.4760   24.4040  -30.8420 N   0  0  0  0  0  0  0  0  0  0  0  0
   -6.3130   19.5770  -33.8680 C   0  0  0  0  0  0  0  0  0  0  0  0
   -5.9700   18.2670  -34.2130 C   0  0  0  0  0  0  0  0  0  0  0  0
   -7.6289   16.5907  -31.7395 H   0  0  0  0  0  0  0  0  0  0  0  0
   -8.2557   18.9250  -31.1267 H   0  0  0  0  0  0  0  0  0  0  0  0
   -9.5420   20.9730  -31.8000 H   0  0  0  0  0  0  0  0  0  0  0  0
   -7.1449   24.3771  -31.6585 H   0  0  0  0  0  0  0  0  0  0  0  0
   -4.3323   21.0891  -30.1608 H   0  0  0  0  0  0  0  0  0  0  0  0
   -3.7844   22.0062  -27.8962 H   0  0  0  0  0  0  0  0  0  0  0  0
   -3.6841   24.4846  -27.5518 H   0  0  0  0  0  0  0  0  0  0  0  0
   -4.1454   26.0135  -29.4813 H   0  0  0  0  0  0  0  0  0  0  0  0
   -5.9456   20.4167  -34.4762 H   0  0  0  0  0  0  0  0  0  0  0  0
   -5.3305   18.0794  -35.0882 H   0  0  0  0  0  0  0  0  0  0  0  0
  1  2  1  0
  2  3  2  0
  3  4  1  0
  4  5  2  0
  5  6  1  0
  6  7  2  0
  7  8  1  0
  8  9  1  0
  9 10  2  0
 10 11  1  0
 11 12  1  0
 12 13  2  0
 13 14  1  0
 14 15  2  0
 15 16  1  0
 16 17  2  0
  5 18  1  0
 18 19  2  0
 19  2  1  0
 10  6  1  0
 17 12  1  0
  3 20  1  0
  4 21  1  0
  7 22  1  0
  9 23  1  0
 13 24  1  0
 14 25  1  0
 15 26  1  0
 16 27  1  0
 18 28  1  0
 19 29  1  0
M  CHG  1   7   1
M  END
>  <UniqueID>  (44) 
41

>  <SMILES>  (44) 
Brc1ccc(-c2[nH+]occ2Sc2ccccn2)cc1

>  <Energy>  (44) 
63.15165339496148

>  <Genealogy>  (44) 
Brc1ccc(-c2[nH+]occ2Sc2ccccn2)cc1 (protonated)
Brc1ccc(-c2[nH+]occ2Sc2ccccn2)cc1 (3D coordinates assigned)
Brc1ccc(-c2[nH+]occ2Sc2ccccn2)cc1 (optimized conformer: 63.15165339496148 kcal/mol)

>  <smiles>  (44) 
Brc1ccc(-c2nocc2Sc2ccccn2)cc1

>  <score_type>  (44) 
oracle

>  <origin>  (44) 
adg

>  <m_score__min__energy>  (44) 
-7.1699999999999999

>  <m_primary>  (44) 
energy

$$$$
