0:0
     RDKit          3D

 40 41  0  0  0  0  0  0  0  0999 V2000
   -5.3233   24.3305  -32.2676 H   0  0  0  0  0  0  0  0  0  0  0  0
   -5.3760   24.5400  -31.1890 C   0  0  0  0  0  0  0  0  0  0  0  0
   -4.2960   24.9400  -30.5990 N   0  0  0  0  0  0  0  0  0  0  0  0
   -3.4500   24.1510  -29.7170 C   0  0  0  0  0  0  0  0  0  0  0  0
   -2.5709   24.7247  -29.3882 H   0  0  0  0  0  0  0  0  0  0  0  0
   -4.2520   23.7850  -28.4480 C   0  0  0  0  0  0  0  0  0  0  0  0
   -4.1327   22.7072  -28.2633 H   0  0  0  0  0  0  0  0  0  0  0  0
   -5.2965   24.0712  -28.6406 H   0  0  0  0  0  0  0  0  0  0  0  0
   -3.8140   24.5390  -27.1900 C   0  0  0  0  0  0  0  0  0  0  0  0
   -4.1372   23.9826  -26.2978 H   0  0  0  0  0  0  0  0  0  0  0  0
   -2.7184   24.6370  -27.1841 H   0  0  0  0  0  0  0  0  0  0  0  0
   -4.2716   25.5393  -27.1841 H   0  0  0  0  0  0  0  0  0  0  0  0
   -2.9070   22.9220  -30.4830 C   0  0  0  0  0  0  0  0  0  0  0  0
   -3.6248   22.0956  -30.3742 H   0  0  0  0  0  0  0  0  0  0  0  0
   -2.7798   23.2188  -31.5346 H   0  0  0  0  0  0  0  0  0  0  0  0
   -1.5450   22.4550  -29.9710 C   0  0  0  0  0  0  0  0  0  0  0  0
   -1.5469   22.4556  -28.8710 H   0  0  0  0  0  0  0  0  0  0  0  0
   -1.3452   21.4370  -30.3367 H   0  0  0  0  0  0  0  0  0  0  0  0
   -0.7626   23.1362  -30.3367 H   0  0  0  0  0  0  0  0  0  0  0  0
   -6.7050   24.3410  -30.4970 C   0  0  0  0  0  0  0  0  0  0  0  0
   -6.6276   24.7100  -29.4636 H   0  0  0  0  0  0  0  0  0  0  0  0
   -7.4703   24.8973  -31.0580 H   0  0  0  0  0  0  0  0  0  0  0  0
   -7.0950   22.9310  -30.4690 N   0  0  0  0  0  0  0  0  0  0  0  0
   -7.4920   22.0700  -31.3740 C   0  0  0  0  0  0  0  0  0  0  0  0
   -8.8810   21.9710  -31.5270 C   0  0  0  0  0  0  0  0  0  0  0  0
   -9.5352   22.7029  -31.0307 H   0  0  0  0  0  0  0  0  0  0  0  0
   -9.4430   20.9610  -32.2970 C   0  0  0  0  0  0  0  0  0  0  0  0
  -10.5362   20.8955  -32.3999 H   0  0  0  0  0  0  0  0  0  0  0  0
   -8.6520   20.0560  -32.9220 N   0  0  0  0  0  0  0  0  0  0  0  0
   -9.1150   19.2970  -33.4740 H   0  0  0  0  0  0  0  0  0  0  0  0
   -7.2930   20.1400  -32.8740 C   0  0  0  0  0  0  0  0  0  0  0  0
   -6.5250   19.2040  -33.5860 C   0  0  0  0  0  0  0  0  0  0  0  0
   -7.0237   18.3802  -34.1176 H   0  0  0  0  0  0  0  0  0  0  0  0
   -5.1370   19.3110  -33.6240 C   0  0  0  0  0  0  0  0  0  0  0  0
   -4.1890   18.1440  -34.5270 Cl  0  0  0  0  0  0  0  0  0  0  0  0
   -4.5070   20.3720  -32.9800 C   0  0  0  0  0  0  0  0  0  0  0  0
   -3.4133   20.4746  -33.0372 H   0  0  0  0  0  0  0  0  0  0  0  0
   -5.2560   21.3080  -32.2610 C   0  0  0  0  0  0  0  0  0  0  0  0
   -4.7448   22.1584  -31.7860 H   0  0  0  0  0  0  0  0  0  0  0  0
   -6.6580   21.1820  -32.1330 C   0  0  0  0  0  0  0  0  0  0  0  0
  1  2  1  0
  2  3  2  0
  3  4  1  0
  4  5  1  0
  4  6  1  0
  6  7  1  0
  6  8  1  0
  6  9  1  0
  9 10  1  0
  9 11  1  0
  9 12  1  0
  4 13  1  0
 13 14  1  0
 13 15  1  0
 13 16  1  0
 16 17  1  0
 16 18  1  0
 16 19  1  0
  2 20  1  0
 20 21  1  0
 20 22  1  0
 20 23  1  0
 23 24  2  0
 24 25  1  0
 25 26  1  0
 25 27  2  0
 27 28  1  0
 27 29  1  0
 29 30  1  0
 29 31  1  0
 31 32  2  0
 32 33  1  0
 32 34  1  0
 34 35  1  0
 34 36  2  0
 36 37  1  0
 36 38  1  0
 38 39  1  0
 38 40  2  0
 40 24  1  0
 40 31  1  0
M  END
>  <UniqueID>  (1) 
1

>  <SMILES>  (1) 
CCC(CC)/N=C\C/N=c1/cc[nH]c2cc(Cl)ccc12

>  <Energy>  (1) 
54.97667371975886

>  <Genealogy>  (1) 
CCC(CC)/N=C\C/N=c1/cc[nH]c2cc(Cl)ccc12 (cis-trans isomerization)
CCC(CC)/N=C\C/N=c1/cc[nH]c2cc(Cl)ccc12 (3D coordinates assigned)
CCC(CC)/N=C\C/N=c1/cc[nH]c2cc(Cl)ccc12 (optimized conformer: 54.97667371975886 kcal/mol)

>  <smiles>  (1) 
CCC(CC)N=CCN=c1cc[nH]c2cc(Cl)ccc12

>  <score_type>  (1) 
oracle

>  <origin>  (1) 
adg

>  <m_score__min__energy>  (1) 
-7.5999999999999996

>  <m_primary>  (1) 
energy

$$$$
1:0
     RDKit          3D

 89 92  0  0  0  0  0  0  0  0999 V2000
   -3.1340   21.3400  -27.8710 C   0  0  0  0  0  0  0  0  0  0  0  0
   -2.2790   20.1460  -28.3170 C   0  0  0  0  0  0  0  0  0  0  0  0
   -1.3930   20.4170  -29.4760 N   0  0  0  0  0  0  0  0  0  0  0  0
   -0.7640   21.7540  -29.5250 C   0  0  0  0  0  0  0  0  0  0  0  0
    0.0300   22.0290  -28.2500 C   0  0  0  0  0  0  0  0  0  0  0  0
   -0.5300   19.2940  -29.9110 C   0  0  0  0  0  0  0  0  0  0  0  0
   -0.1640   19.3100  -31.4170 C   0  0  0  0  0  0  0  0  0  0  0  0
   -1.2050   18.8330  -32.2580 O   0  0  0  0  0  0  0  0  0  0  0  0
   -1.4740   19.6730  -33.3710 C   0  0  0  0  0  0  0  0  0  0  0  0
   -2.5170   20.7780  -33.0850 C   0  0  0  0  0  0  0  0  0  0  0  0
   -3.0790   20.7390  -31.7140 N   0  0  0  0  0  0  0  0  0  0  0  0
   -4.4310   21.2840  -31.6140 C   0  0  0  0  0  0  0  0  0  0  0  0
   -5.5490   20.5190  -32.0540 C   0  0  0  0  0  0  0  0  0  0  0  0
   -5.3980   19.2280  -32.6230 C   0  0  0  0  0  0  0  0  0  0  0  0
   -6.5080   18.4470  -32.9320 C   0  0  0  0  0  0  0  0  0  0  0  0
   -7.7870   18.9230  -32.6900 C   0  0  0  0  0  0  0  0  0  0  0  0
   -7.9670   20.2080  -32.1960 C   0  0  0  0  0  0  0  0  0  0  0  0
   -6.8600   21.0530  -31.9230 C   0  0  0  0  0  0  0  0  0  0  0  0
   -7.0420   22.3630  -31.5320 N   0  0  0  0  0  0  0  0  0  0  0  0
   -8.3560   23.0150  -31.7410 C   0  0  0  0  0  0  0  0  0  0  0  0
   -5.9980   23.0730  -30.9750 C   0  0  0  0  0  0  0  0  0  0  0  0
   -6.2200   24.3230  -30.3400 C   0  0  0  0  0  0  0  0  0  0  0  0
   -5.1750   25.0710  -29.8100 C   0  0  0  0  0  0  0  0  0  0  0  0
   -3.8700   24.5780  -29.8550 C   0  0  0  0  0  0  0  0  0  0  0  0
   -2.7710   25.2870  -29.3400 O   0  0  0  0  0  0  0  0  0  0  0  0
   -1.8610   24.8010  -28.3540 C   0  0  0  0  0  0  0  0  0  0  0  0
   -2.3080   25.2440  -26.9420 C   0  0  0  0  0  0  0  0  0  0  0  0
   -1.2100   25.6000  -25.9810 N   0  0  0  0  0  0  0  0  0  0  0  0
   -0.6960   24.3110  -25.4410 C   0  0  0  0  0  0  0  0  0  0  0  0
   -0.0690   26.3010  -26.6650 C   0  0  0  0  0  0  0  0  0  0  0  0
   -0.1220   27.8340  -26.5080 C   0  0  0  0  0  0  0  0  0  0  0  0
   -0.0770   28.2720  -25.0760 N   0  0  0  0  0  0  0  0  0  0  0  0
   -0.8170   29.5520  -24.9440 C   0  0  0  0  0  0  0  0  0  0  0  0
    1.3310   28.5180  -24.6790 C   0  0  0  0  0  0  0  0  0  0  0  0
   -0.6700   27.2540  -24.1510 C   0  0  0  0  0  0  0  0  0  0  0  0
   -1.7550   26.3990  -24.8360 C   0  0  0  0  0  0  0  0  0  0  0  0
   -3.6300   23.3330  -30.4340 C   0  0  0  0  0  0  0  0  0  0  0  0
   -4.6720   22.5560  -31.0100 C   0  0  0  0  0  0  0  0  0  0  0  0
   -3.1628   21.3802  -26.7721 H   0  0  0  0  0  0  0  0  0  0  0  0
   -2.6958   22.2707  -28.2606 H   0  0  0  0  0  0  0  0  0  0  0  0
   -4.1562   21.2249  -28.2606 H   0  0  0  0  0  0  0  0  0  0  0  0
   -1.6495   19.8394  -27.4687 H   0  0  0  0  0  0  0  0  0  0  0  0
   -2.9818   19.3635  -28.6392 H   0  0  0  0  0  0  0  0  0  0  0  0
   -0.0853   21.8014  -30.3893 H   0  0  0  0  0  0  0  0  0  0  0  0
   -1.5558   22.5121  -29.6166 H   0  0  0  0  0  0  0  0  0  0  0  0
   -0.5976   21.8116  -27.3732 H   0  0  0  0  0  0  0  0  0  0  0  0
    0.9237   21.3881  -28.2292 H   0  0  0  0  0  0  0  0  0  0  0  0
    0.3359   23.0854  -28.2292 H   0  0  0  0  0  0  0  0  0  0  0  0
    0.4034   19.3332  -29.3303 H   0  0  0  0  0  0  0  0  0  0  0  0
   -1.1056   18.3726  -29.7389 H   0  0  0  0  0  0  0  0  0  0  0  0
    0.0716   20.3446  -31.7071 H   0  0  0  0  0  0  0  0  0  0  0  0
    0.6939   18.6342  -31.5488 H   0  0  0  0  0  0  0  0  0  0  0  0
   -0.5336   20.1552  -33.6762 H   0  0  0  0  0  0  0  0  0  0  0  0
   -1.8958   19.0325  -34.1596 H   0  0  0  0  0  0  0  0  0  0  0  0
   -2.0343   21.7553  -33.2329 H   0  0  0  0  0  0  0  0  0  0  0  0
   -3.3556   20.6095  -33.7766 H   0  0  0  0  0  0  0  0  0  0  0  0
   -2.4480   21.2730  -31.0740 H   0  0  0  0  0  0  0  0  0  0  0  0
   -2.9990   19.7760  -31.3310 H   0  0  0  0  0  0  0  0  0  0  0  0
   -4.3888   18.8386  -32.8229 H   0  0  0  0  0  0  0  0  0  0  0  0
   -6.3695   17.4476  -33.3702 H   0  0  0  0  0  0  0  0  0  0  0  0
   -8.6591   18.2829  -32.8892 H   0  0  0  0  0  0  0  0  0  0  0  0
   -8.9866   20.5780  -32.0128 H   0  0  0  0  0  0  0  0  0  0  0  0
   -8.8122   23.2414  -30.7660 H   0  0  0  0  0  0  0  0  0  0  0  0
   -8.2164   23.9484  -32.3061 H   0  0  0  0  0  0  0  0  0  0  0  0
   -9.0149   22.3393  -32.3061 H   0  0  0  0  0  0  0  0  0  0  0  0
   -7.2469   24.7103  -30.2653 H   0  0  0  0  0  0  0  0  0  0  0  0
   -5.3767   26.0519  -29.3549 H   0  0  0  0  0  0  0  0  0  0  0  0
   -1.8330   23.7022  -28.3971 H   0  0  0  0  0  0  0  0  0  0  0  0
   -0.8616   25.2132  -28.5572 H   0  0  0  0  0  0  0  0  0  0  0  0
   -2.9539   26.1271  -27.0559 H   0  0  0  0  0  0  0  0  0  0  0  0
   -2.8109   24.3692  -26.5040 H   0  0  0  0  0  0  0  0  0  0  0  0
   -0.7087   24.3429  -24.3415 H   0  0  0  0  0  0  0  0  0  0  0  0
   -1.3340   23.4863  -25.7913 H   0  0  0  0  0  0  0  0  0  0  0  0
    0.3345   24.1516  -25.7913 H   0  0  0  0  0  0  0  0  0  0  0  0
    0.8751   25.9370  -26.2335 H   0  0  0  0  0  0  0  0  0  0  0  0
   -0.1427   26.0778  -27.7396 H   0  0  0  0  0  0  0  0  0  0  0  0
    0.7377   28.2715  -27.0367 H   0  0  0  0  0  0  0  0  0  0  0  0
   -1.0780   28.1777  -26.9299 H   0  0  0  0  0  0  0  0  0  0  0  0
   -0.9536   29.7883  -23.8784 H   0  0  0  0  0  0  0  0  0  0  0  0
   -0.2453   30.3576  -25.4279 H   0  0  0  0  0  0  0  0  0  0  0  0
   -1.8004   29.4586  -25.4279 H   0  0  0  0  0  0  0  0  0  0  0  0
    1.4056   28.5310  -23.5816 H   0  0  0  0  0  0  0  0  0  0  0  0
    1.9703   27.7179  -25.0805 H   0  0  0  0  0  0  0  0  0  0  0  0
    1.6611   29.4874  -25.0805 H   0  0  0  0  0  0  0  0  0  0  0  0
    0.1317   26.5896  -23.7962 H   0  0  0  0  0  0  0  0  0  0  0  0
   -1.1444   27.7936  -23.3180 H   0  0  0  0  0  0  0  0  0  0  0  0
   -2.1820   25.7082  -24.0940 H   0  0  0  0  0  0  0  0  0  0  0  0
   -2.5194   27.0817  -25.2354 H   0  0  0  0  0  0  0  0  0  0  0  0
   -2.6028   22.9396  -30.4456 H   0  0  0  0  0  0  0  0  0  0  0  0
  1  2  1  0
  2  3  1  0
  3  4  1  0
  4  5  1  0
  3  6  1  0
  6  7  1  0
  7  8  1  0
  8  9  1  0
  9 10  1  0
 10 11  1  0
 11 12  1  0
 12 13  2  0
 13 14  1  0
 14 15  2  0
 15 16  1  0
 16 17  2  0
 17 18  1  0
 18 19  2  0
 19 20  1  0
 19 21  1  0
 21 22  2  0
 22 23  1  0
 23 24  2  0
 24 25  1  0
 25 26  1  0
 26 27  1  0
 27 28  1  0
 28 29  1  0
 28 30  1  0
 30 31  1  0
 31 32  1  0
 32 33  1  0
 32 34  1  0
 32 35  1  0
 35 36  1  0
 24 37  1  0
 37 38  2  0
 38 12  1  0
 18 13  1  0
 38 21  1  0
 36 28  1  0
  1 39  1  0
  1 40  1  0
  1 41  1  0
  2 42  1  0
  2 43  1  0
  4 44  1  0
  4 45  1  0
  5 46  1  0
  5 47  1  0
  5 48  1  0
  6 49  1  0
  6 50  1  0
  7 51  1  0
  7 52  1  0
  9 53  1  0
  9 54  1  0
 10 55  1  0
 10 56  1  0
 11 57  1  0
 11 58  1  0
 14 59  1  0
 15 60  1  0
 16 61  1  0
 17 62  1  0
 20 63  1  0
 20 64  1  0
 20 65  1  0
 22 66  1  0
 23 67  1  0
 26 68  1  0
 26 69  1  0
 27 70  1  0
 27 71  1  0
 29 72  1  0
 29 73  1  0
 29 74  1  0
 30 75  1  0
 30 76  1  0
 31 77  1  0
 31 78  1  0
 33 79  1  0
 33 80  1  0
 33 81  1  0
 34 82  1  0
 34 83  1  0
 34 84  1  0
 35 85  1  0
 35 86  1  0
 36 87  1  0
 36 88  1  0
 37 89  1  0
M  CHG  4  11   1  19   1  28   1  32   1
M  END
>  <UniqueID>  (2) 
2

>  <SMILES>  (2) 
CCN(CC)CCOCC[NH2+]c1c2ccccc2[n+](C)c2ccc(OCC[N+]3(C)CC[N+](C)(C)CC3)cc12

>  <Energy>  (2) 
161.10668821669026

>  <Genealogy>  (2) 
CCN(CC)CCOCC[NH2+]c1c2ccccc2[n+](C)c2ccc(OCC[N+]3(C)CC[N+](C)(C)CC3)cc12 (protonated)
CCN(CC)CCOCC[NH2+]c1c2ccccc2[n+](C)c2ccc(OCC[N+]3(C)CC[N+](C)(C)CC3)cc12 (3D coordinates assigned)
CCN(CC)CCOCC[NH2+]c1c2ccccc2[n+](C)c2ccc(OCC[N+]3(C)CC[N+](C)(C)CC3)cc12 (nonaromatic ring conformer: 161.10668821669026 kcal/mol)

>  <smiles>  (2) 
CCN(CC)CCOCCNc1c2ccccc2[n+](C)c2ccc(OCC[N+]3(C)CC[N+](C)(C)CC3)cc12

>  <score_type>  (2) 
oracle

>  <origin>  (2) 
adg

>  <m_score__min__energy>  (2) 
-8.1500000000000004

>  <m_primary>  (2) 
energy

$$$$
2:0
     RDKit          3D

 50 51  0  0  0  0  0  0  0  0999 V2000
   -1.2670   26.5220  -26.2620 C   0  0  0  0  0  0  0  0  0  0  0  0
   -2.4720   25.6150  -25.9640 C   0  0  0  0  0  0  0  0  0  0  0  0
   -3.0280   24.9070  -27.1460 N   0  0  2  0  0  0  0  0  0  0  0  0
   -4.2640   24.1760  -26.8070 C   0  0  0  0  0  0  0  0  0  0  0  0
   -2.0700   24.0000  -27.8280 C   0  0  0  0  0  0  0  0  0  0  0  0
   -1.9820   24.2360  -29.3500 C   0  0  0  0  0  0  0  0  0  0  0  0
   -3.1350   24.9150  -29.8490 O   0  0  0  0  0  0  0  0  0  0  0  0
   -4.2940   24.2990  -30.3490 C   0  0  0  0  0  0  0  0  0  0  0  0
   -5.5710   24.8850  -30.2550 C   0  0  0  0  0  0  0  0  0  0  0  0
   -6.6920   24.2170  -30.7550 C   0  0  0  0  0  0  0  0  0  0  0  0
   -6.5560   22.9590  -31.3610 C   0  0  0  0  0  0  0  0  0  0  0  0
   -7.7740   22.2330  -31.8690 C   0  0  0  0  0  0  0  0  0  0  0  0
   -7.4950   20.7880  -31.9930 N   0  0  0  0  0  0  0  0  0  0  0  0
   -7.0620   20.4400  -33.3620 C   0  0  0  0  0  0  0  0  0  0  0  0
   -6.5250   18.9960  -33.4060 C   0  0  0  0  0  0  0  0  0  0  0  0
   -7.1060   18.1080  -32.2880 C   0  0  0  0  0  0  0  0  0  0  0  0
   -6.3230   18.2390  -31.1290 O   0  0  0  0  0  0  0  0  0  0  0  0
   -8.5600   18.5050  -31.9910 C   0  0  0  0  0  0  0  0  0  0  0  0
   -8.6870   19.9980  -31.6090 C   0  0  0  0  0  0  0  0  0  0  0  0
   -5.2830   22.3780  -31.4620 C   0  0  0  0  0  0  0  0  0  0  0  0
   -4.1630   23.0470  -30.9610 C   0  0  0  0  0  0  0  0  0  0  0  0
   -0.8190   26.8592  -25.3157 H   0  0  0  0  0  0  0  0  0  0  0  0
   -0.5198   25.9603  -26.8418 H   0  0  0  0  0  0  0  0  0  0  0  0
   -1.6000   27.3955  -26.8418 H   0  0  0  0  0  0  0  0  0  0  0  0
   -2.1576   24.8591  -25.2293 H   0  0  0  0  0  0  0  0  0  0  0  0
   -3.2712   26.2744  -25.5945 H   0  0  0  0  0  0  0  0  0  0  0  0
   -3.3090   25.6450  -27.8350 H   0  0  0  0  0  0  0  0  0  0  0  0
   -4.3661   24.1156  -25.7134 H   0  0  0  0  0  0  0  0  0  0  0  0
   -5.1309   24.7068  -27.2274 H   0  0  0  0  0  0  0  0  0  0  0  0
   -4.2165   23.1606  -27.2274 H   0  0  0  0  0  0  0  0  0  0  0  0
   -1.0719   24.1555  -27.3925 H   0  0  0  0  0  0  0  0  0  0  0  0
   -2.4326   22.9723  -27.6787 H   0  0  0  0  0  0  0  0  0  0  0  0
   -1.0903   24.8431  -29.5652 H   0  0  0  0  0  0  0  0  0  0  0  0
   -1.9217   23.2556  -29.8451 H   0  0  0  0  0  0  0  0  0  0  0  0
   -5.6867   25.8732  -29.7858 H   0  0  0  0  0  0  0  0  0  0  0  0
   -7.6864   24.6800  -30.6730 H   0  0  0  0  0  0  0  0  0  0  0  0
   -8.6057   22.3828  -31.1649 H   0  0  0  0  0  0  0  0  0  0  0  0
   -8.0415   22.6319  -32.8586 H   0  0  0  0  0  0  0  0  0  0  0  0
   -7.9185   20.5290  -34.0465 H   0  0  0  0  0  0  0  0  0  0  0  0
   -6.2600   21.1280  -33.6678 H   0  0  0  0  0  0  0  0  0  0  0  0
   -6.7869   18.5532  -34.3783 H   0  0  0  0  0  0  0  0  0  0  0  0
   -5.4359   19.0432  -33.2590 H   0  0  0  0  0  0  0  0  0  0  0  0
   -7.0922   17.0592  -32.6193 H   0  0  0  0  0  0  0  0  0  0  0  0
   -6.3250   19.2030  -30.8900 H   0  0  0  0  0  0  0  0  0  0  0  0
   -9.1700   18.3145  -32.8863 H   0  0  0  0  0  0  0  0  0  0  0  0
   -8.9080   17.9053  -31.1371 H   0  0  0  0  0  0  0  0  0  0  0  0
   -9.5669   20.4182  -32.1181 H   0  0  0  0  0  0  0  0  0  0  0  0
   -8.7855   20.0545  -30.5149 H   0  0  0  0  0  0  0  0  0  0  0  0
   -5.1661   21.3928  -31.9370 H   0  0  0  0  0  0  0  0  0  0  0  0
   -3.1685   22.5851  -31.0485 H   0  0  0  0  0  0  0  0  0  0  0  0
  1  2  1  0
  2  3  1  0
  3  4  1  0
  3  5  1  0
  5  6  1  0
  6  7  1  0
  7  8  1  0
  8  9  2  0
  9 10  1  0
 10 11  2  0
 11 12  1  0
 12 13  1  0
 13 14  1  0
 14 15  1  0
 15 16  1  0
 16 17  1  0
 16 18  1  0
 18 19  1  0
 11 20  1  0
 20 21  2  0
 21  8  1  0
 19 13  1  0
  1 22  1  0
  1 23  1  0
  1 24  1  0
  2 25  1  0
  2 26  1  0
  3 27  1  6
  4 28  1  0
  4 29  1  0
  4 30  1  0
  5 31  1  0
  5 32  1  0
  6 33  1  0
  6 34  1  0
  9 35  1  0
 10 36  1  0
 12 37  1  0
 12 38  1  0
 14 39  1  0
 14 40  1  0
 15 41  1  0
 15 42  1  0
 16 43  1  0
 17 44  1  0
 18 45  1  0
 18 46  1  0
 19 47  1  0
 19 48  1  0
 20 49  1  0
 21 50  1  0
M  CHG  1   3   1
M  END
>  <UniqueID>  (3) 
3

>  <SMILES>  (3) 
CC[N@H+](C)CCOc1ccc(CN2CCC(O)CC2)cc1

>  <Energy>  (3) 
55.706628877845944

>  <Genealogy>  (3) 
CC[NH+](C)CCOc1ccc(CN2CCC(O)CC2)cc1 (protonated)
CC[N@H+](C)CCOc1ccc(CN2CCC(O)CC2)cc1 (chirality)
CC[N@H+](C)CCOc1ccc(CN2CCC(O)CC2)cc1 (3D coordinates assigned)
CC[N@H+](C)CCOc1ccc(CN2CCC(O)CC2)cc1 (nonaromatic ring conformer: 55.706628877845944 kcal/mol)

>  <smiles>  (3) 
CCN(C)CCOc1ccc(CN2CCC(O)CC2)cc1

>  <score_type>  (3) 
oracle

>  <origin>  (3) 
adg

>  <m_score__min__energy>  (3) 
-7.04

>  <m_primary>  (3) 
energy

$$$$
3:0
     RDKit          3D

 41 41  0  0  0  0  0  0  0  0999 V2000
   -9.8630   21.2100  -32.0040 C   0  0  0  0  0  0  0  0  0  0  0  0
   -9.0590   22.5020  -31.8770 C   0  0  0  0  0  0  0  0  0  0  0  0
   -7.8440   22.3120  -30.9530 C   0  0  0  0  0  0  0  0  0  0  0  0
   -6.5020   22.4850  -31.7110 C   0  0  1  0  0  0  0  0  0  0  0  0
   -5.4020   23.1990  -30.8670 C   0  0  0  0  0  0  0  0  0  0  0  0
   -5.3570   24.7550  -30.8970 C   0  0  1  0  0  0  0  0  0  0  0  0
   -6.4880   25.2990  -30.0020 C   0  0  0  0  0  0  0  0  0  0  0  0
   -4.0390   25.2410  -30.4320 N   0  0  0  0  0  0  0  0  0  0  0  0
   -3.1470   24.2030  -29.8800 C   0  0  0  0  0  0  0  0  0  0  0  0
   -3.1910   24.1200  -28.3520 C   0  0  0  0  0  0  0  0  0  0  0  0
   -5.9870   21.2310  -32.4100 C   0  0  0  0  0  0  0  0  0  0  0  0
   -6.9090   20.2400  -32.7930 C   0  0  0  0  0  0  0  0  0  0  0  0
   -6.4850   19.1040  -33.4890 C   0  0  0  0  0  0  0  0  0  0  0  0
   -5.1380   18.9460  -33.8210 C   0  0  0  0  0  0  0  0  0  0  0  0
   -4.5620   17.3960  -34.7760 Br  0  0  0  0  0  0  0  0  0  0  0  0
   -4.2120   19.9280  -33.4580 C   0  0  0  0  0  0  0  0  0  0  0  0
   -4.6310   21.0650  -32.7620 C   0  0  0  0  0  0  0  0  0  0  0  0
  -10.1016   20.8265  -31.0010 H   0  0  0  0  0  0  0  0  0  0  0  0
  -10.7958   21.4109  -32.5512 H   0  0  0  0  0  0  0  0  0  0  0  0
   -9.2707   20.4619  -32.5512 H   0  0  0  0  0  0  0  0  0  0  0  0
   -8.7075   22.8055  -32.8742 H   0  0  0  0  0  0  0  0  0  0  0  0
   -9.7092   23.2759  -31.4430 H   0  0  0  0  0  0  0  0  0  0  0  0
   -7.8933   23.0564  -30.1446 H   0  0  0  0  0  0  0  0  0  0  0  0
   -7.8784   21.2873  -30.5545 H   0  0  0  0  0  0  0  0  0  0  0  0
   -6.7576   23.1695  -32.5332 H   0  0  0  0  0  0  0  0  0  0  0  0
   -5.5442   22.8954  -29.8193 H   0  0  0  0  0  0  0  0  0  0  0  0
   -4.4536   22.8864  -31.3284 H   0  0  0  0  0  0  0  0  0  0  0  0
   -5.5013   25.1133  -31.9269 H   0  0  0  0  0  0  0  0  0  0  0  0
   -6.2144   25.1674  -28.9447 H   0  0  0  0  0  0  0  0  0  0  0  0
   -6.6390   26.3683  -30.2113 H   0  0  0  0  0  0  0  0  0  0  0  0
   -7.4177   24.7495  -30.2113 H   0  0  0  0  0  0  0  0  0  0  0  0
   -4.1850   25.9360  -29.6720 H   0  0  0  0  0  0  0  0  0  0  0  0
   -3.4480   23.2284  -30.2918 H   0  0  0  0  0  0  0  0  0  0  0  0
   -2.1186   24.4716  -30.1632 H   0  0  0  0  0  0  0  0  0  0  0  0
   -2.7167   25.0147  -27.9224 H   0  0  0  0  0  0  0  0  0  0  0  0
   -4.2375   24.0635  -28.0178 H   0  0  0  0  0  0  0  0  0  0  0  0
   -2.6504   23.2222  -28.0178 H   0  0  0  0  0  0  0  0  0  0  0  0
   -7.9734   20.3600  -32.5426 H   0  0  0  0  0  0  0  0  0  0  0  0
   -7.2147   18.3325  -33.7759 H   0  0  0  0  0  0  0  0  0  0  0  0
   -3.1509   19.8055  -33.7208 H   0  0  0  0  0  0  0  0  0  0  0  0
   -3.8975   21.8370  -32.4863 H   0  0  0  0  0  0  0  0  0  0  0  0
  1  2  1  0
  2  3  1  0
  3  4  1  0
  4  5  1  0
  5  6  1  0
  6  7  1  0
  6  8  1  0
  8  9  1  0
  9 10  1  0
  4 11  1  0
 11 12  2  0
 12 13  1  0
 13 14  2  0
 14 15  1  0
 14 16  1  0
 16 17  2  0
 17 11  1  0
  1 18  1  0
  1 19  1  0
  1 20  1  0
  2 21  1  0
  2 22  1  0
  3 23  1  0
  3 24  1  0
  4 25  1  6
  5 26  1  0
  5 27  1  0
  6 28  1  6
  7 29  1  0
  7 30  1  0
  7 31  1  0
  8 32  1  0
  9 33  1  0
  9 34  1  0
 10 35  1  0
 10 36  1  0
 10 37  1  0
 12 38  1  0
 13 39  1  0
 16 40  1  0
 17 41  1  0
M  END
>  <UniqueID>  (4) 
4

>  <SMILES>  (4) 
CCC[C@@H](C[C@@H](C)NCC)c1ccc(Br)cc1

>  <Energy>  (4) 
36.75366261448783

>  <Genealogy>  (4) 
CCC[C@@H](C[C@@H](C)NCC)c1ccc(Br)cc1 (chirality)
CCC[C@@H](C[C@@H](C)NCC)c1ccc(Br)cc1 (3D coordinates assigned)
CCC[C@@H](C[C@@H](C)NCC)c1ccc(Br)cc1 (optimized conformer: 36.75366261448783 kcal/mol)

>  <smiles>  (4) 
CCCC(CC(C)NCC)c1ccc(Br)cc1

>  <score_type>  (4) 
oracle

>  <origin>  (4) 
adg

>  <m_score__min__energy>  (4) 
-7.7599999999999998

>  <m_primary>  (4) 
energy

$$$$
4:0
     RDKit          3D

 54 57  0  0  0  0  0  0  0  0999 V2000
   -6.1080   25.0540  -29.8070 C   0  0  0  0  0  0  0  0  0  0  0  0
   -4.9820   25.2270  -30.8300 C   0  0  0  0  0  0  0  0  0  0  0  0
   -3.8750   24.2590  -30.6680 N   0  0  0  0  0  0  0  0  0  0  0  0
   -3.0290   24.4850  -29.4670 C   0  0  0  0  0  0  0  0  0  0  0  0
   -3.5020   23.7730  -28.1890 C   0  0  0  0  0  0  0  0  0  0  0  0
   -4.2580   22.8600  -30.9620 C   0  0  0  0  0  0  0  0  0  0  0  0
   -3.4480   22.3080  -32.1470 C   0  0  0  0  0  0  0  0  0  0  0  0
   -4.2800   22.0880  -33.3440 N   0  0  0  0  0  0  0  0  0  0  0  0
   -5.3640   21.1560  -33.0830 C   0  0  0  0  0  0  0  0  0  0  0  0
   -5.1660   19.7850  -33.2900 C   0  0  0  0  0  0  0  0  0  0  0  0
   -6.1750   18.8640  -33.0260 C   0  0  0  0  0  0  0  0  0  0  0  0
   -7.4020   19.2220  -32.5510 N   0  0  0  0  0  0  0  0  0  0  0  0
   -8.4190   18.1940  -32.2650 C   0  0  0  0  0  0  0  0  0  0  0  0
   -7.6620   20.5680  -32.3470 C   0  0  0  0  0  0  0  0  0  0  0  0
   -8.9320   21.0000  -31.8900 C   0  0  0  0  0  0  0  0  0  0  0  0
   -9.1960   22.3470  -31.6600 C   0  0  0  0  0  0  0  0  0  0  0  0
   -8.2120   23.3000  -31.8780 C   0  0  0  0  0  0  0  0  0  0  0  0
   -6.9540   22.9190  -32.3390 C   0  0  0  0  0  0  0  0  0  0  0  0
   -6.6470   21.5610  -32.5950 C   0  0  0  0  0  0  0  0  0  0  0  0
   -5.6320   17.5430  -33.3620 C   0  0  0  0  0  0  0  0  0  0  0  0
   -6.0550   16.3050  -33.3990 O   0  0  0  0  0  0  0  0  0  0  0  0
   -5.0430   15.5780  -33.8590 C   0  0  0  0  0  0  0  0  0  0  0  0
   -3.9350   16.3950  -34.1130 C   0  0  0  0  0  0  0  0  0  0  0  0
   -2.6380   16.0090  -34.7410 C   0  0  0  0  0  0  0  0  0  0  0  0
   -4.3700   17.6510  -33.7850 C   0  0  0  0  0  0  0  0  0  0  0  0
   -3.9780   19.0450  -33.7870 C   0  0  0  0  0  0  0  0  0  0  0  0
   -2.8640   19.5070  -34.1470 O   0  0  0  0  0  0  0  0  0  0  0  0
   -5.6928   25.1178  -28.7904 H   0  0  0  0  0  0  0  0  0  0  0  0
   -6.8565   25.8477  -29.9478 H   0  0  0  0  0  0  0  0  0  0  0  0
   -6.5837   24.0722  -29.9478 H   0  0  0  0  0  0  0  0  0  0  0  0
   -5.4064   25.1033  -31.8373 H   0  0  0  0  0  0  0  0  0  0  0  0
   -4.5571   26.2293  -30.6727 H   0  0  0  0  0  0  0  0  0  0  0  0
   -2.0123   24.1332  -29.6960 H   0  0  0  0  0  0  0  0  0  0  0  0
   -3.0837   25.5627  -29.2538 H   0  0  0  0  0  0  0  0  0  0  0  0
   -3.1378   24.3212  -27.3076 H   0  0  0  0  0  0  0  0  0  0  0  0
   -4.6014   23.7412  -28.1725 H   0  0  0  0  0  0  0  0  0  0  0  0
   -3.1052   22.7472  -28.1725 H   0  0  0  0  0  0  0  0  0  0  0  0
   -4.0660   22.2396  -30.0741 H   0  0  0  0  0  0  0  0  0  0  0  0
   -5.3261   22.8351  -31.2237 H   0  0  0  0  0  0  0  0  0  0  0  0
   -2.6533   23.0264  -32.3966 H   0  0  0  0  0  0  0  0  0  0  0  0
   -3.0325   21.3354  -31.8446 H   0  0  0  0  0  0  0  0  0  0  0  0
   -3.6720   21.6910  -34.0970 H   0  0  0  0  0  0  0  0  0  0  0  0
   -4.6030   22.9950  -33.7410 H   0  0  0  0  0  0  0  0  0  0  0  0
   -8.5305   18.0813  -31.1765 H   0  0  0  0  0  0  0  0  0  0  0  0
   -9.3812   18.4984  -32.7026 H   0  0  0  0  0  0  0  0  0  0  0  0
   -8.1042   17.2351  -32.7026 H   0  0  0  0  0  0  0  0  0  0  0  0
   -9.7237   20.2570  -31.7138 H   0  0  0  0  0  0  0  0  0  0  0  0
  -10.1894   22.6572  -31.3038 H   0  0  0  0  0  0  0  0  0  0  0  0
   -8.4261   24.3617  -31.6859 H   0  0  0  0  0  0  0  0  0  0  0  0
   -6.1851   23.6874  -32.5072 H   0  0  0  0  0  0  0  0  0  0  0  0
   -5.0715   14.4899  -34.0176 H   0  0  0  0  0  0  0  0  0  0  0  0
   -1.9008   15.7896  -33.9546 H   0  0  0  0  0  0  0  0  0  0  0  0
   -2.7846   15.1156  -35.3657 H   0  0  0  0  0  0  0  0  0  0  0  0
   -2.2722   16.8372  -35.3657 H   0  0  0  0  0  0  0  0  0  0  0  0
  1  2  1  0
  2  3  1  0
  3  4  1  0
  4  5  1  0
  3  6  1  0
  6  7  1  0
  7  8  1  0
  8  9  1  0
  9 10  2  0
 10 11  1  0
 11 12  2  0
 12 13  1  0
 12 14  1  0
 14 15  2  0
 15 16  1  0
 16 17  2  0
 17 18  1  0
 18 19  2  0
 11 20  1  0
 20 21  1  0
 21 22  1  0
 22 23  2  0
 23 24  1  0
 23 25  1  0
 25 26  1  0
 26 27  2  0
 19  9  1  0
 25 20  2  0
 26 10  1  0
 19 14  1  0
  1 28  1  0
  1 29  1  0
  1 30  1  0
  2 31  1  0
  2 32  1  0
  4 33  1  0
  4 34  1  0
  5 35  1  0
  5 36  1  0
  5 37  1  0
  6 38  1  0
  6 39  1  0
  7 40  1  0
  7 41  1  0
  8 42  1  0
  8 43  1  0
 13 44  1  0
 13 45  1  0
 13 46  1  0
 15 47  1  0
 16 48  1  0
 17 49  1  0
 18 50  1  0
 22 51  1  0
 24 52  1  0
 24 53  1  0
 24 54  1  0
M  CHG  2   8   1  12   1
M  END
>  <UniqueID>  (5) 
5

>  <SMILES>  (5) 
CCN(CC)CC[NH2+]c1c2c([n+](C)c3ccccc13)-c1occ(C)c1C2=O

>  <Energy>  (5) 
156.5303655994961

>  <Genealogy>  (5) 
CCN(CC)CC[NH2+]c1c2c([n+](C)c3ccccc13)-c1occ(C)c1C2=O (protonated)
CCN(CC)CC[NH2+]c1c2c([n+](C)c3ccccc13)-c1occ(C)c1C2=O (3D coordinates assigned)
CCN(CC)CC[NH2+]c1c2c([n+](C)c3ccccc13)-c1occ(C)c1C2=O (nonaromatic ring conformer: 156.5303655994961 kcal/mol)

>  <smiles>  (5) 
CCN(CC)CCNc1c2c([n+](C)c3ccccc13)-c1occ(C)c1C2=O

>  <score_type>  (5) 
oracle

>  <origin>  (5) 
adg

>  <m_score__min__energy>  (5) 
-8.4299999999999997

>  <m_primary>  (5) 
energy

$$$$
5:0
     RDKit          3D

 47 49  0  0  0  0  0  0  0  0999 V2000
   -2.7220   23.7990  -29.2490 C   0  0  0  0  0  0  0  0  0  0  0  0
   -3.7910   23.7550  -28.1530 C   0  0  0  0  0  0  0  0  0  0  0  0
   -4.9520   24.6060  -28.4730 N   0  0  0  0  0  0  0  0  0  0  0  0
   -5.3890   24.4430  -29.8720 C   0  0  0  0  0  0  0  0  0  0  0  0
   -5.9180   23.0220  -30.1400 C   0  0  0  0  0  0  0  0  0  0  0  0
   -6.0820   22.7620  -31.5800 N   0  0  0  0  0  0  0  0  0  0  0  0
   -6.7300   23.7530  -32.4430 C   0  0  0  0  0  0  0  0  0  0  0  0
   -5.8360   21.4440  -32.1100 C   0  0  0  0  0  0  0  0  0  0  0  0
   -6.8710   20.4920  -32.1580 C   0  0  0  0  0  0  0  0  0  0  0  0
   -8.1450   20.7780  -31.6230 C   0  0  0  0  0  0  0  0  0  0  0  0
   -9.1580   19.8230  -31.6460 C   0  0  0  0  0  0  0  0  0  0  0  0
   -8.9180   18.5660  -32.1870 C   0  0  0  0  0  0  0  0  0  0  0  0
   -7.6710   18.2640  -32.7320 C   0  0  0  0  0  0  0  0  0  0  0  0
   -6.6310   19.2280  -32.7630 C   0  0  0  0  0  0  0  0  0  0  0  0
   -5.4090   18.9600  -33.3510 N   0  0  0  0  0  0  0  0  0  0  0  0
   -5.2530   17.7800  -34.2300 C   0  0  0  0  0  0  0  0  0  0  0  0
   -4.3380   19.8060  -33.1340 C   0  0  0  0  0  0  0  0  0  0  0  0
   -3.0130   19.4350  -33.4770 C   0  0  0  0  0  0  0  0  0  0  0  0
   -1.9460   20.3120  -33.2880 C   0  0  0  0  0  0  0  0  0  0  0  0
   -2.1650   21.5700  -32.7390 C   0  0  0  0  0  0  0  0  0  0  0  0
   -3.4490   21.9510  -32.3570 C   0  0  0  0  0  0  0  0  0  0  0  0
   -4.5450   21.0790  -32.5370 C   0  0  0  0  0  0  0  0  0  0  0  0
   -1.7246   23.8401  -28.7869 H   0  0  0  0  0  0  0  0  0  0  0  0
   -2.7999   22.8969  -29.8736 H   0  0  0  0  0  0  0  0  0  0  0  0
   -2.8738   24.6917  -29.8736 H   0  0  0  0  0  0  0  0  0  0  0  0
   -4.1346   22.7168  -28.0348 H   0  0  0  0  0  0  0  0  0  0  0  0
   -3.3391   24.1352  -27.2250 H   0  0  0  0  0  0  0  0  0  0  0  0
   -4.6670   25.6050  -28.3320 H   0  0  0  0  0  0  0  0  0  0  0  0
   -5.7340   24.4020  -27.8110 H   0  0  0  0  0  0  0  0  0  0  0  0
   -6.1897   25.1673  -30.0823 H   0  0  0  0  0  0  0  0  0  0  0  0
   -4.5210   24.6153  -30.5253 H   0  0  0  0  0  0  0  0  0  0  0  0
   -5.2062   22.2930  -29.7254 H   0  0  0  0  0  0  0  0  0  0  0  0
   -6.9039   22.9283  -29.6612 H   0  0  0  0  0  0  0  0  0  0  0  0
   -7.2265   24.5123  -31.8209 H   0  0  0  0  0  0  0  0  0  0  0  0
   -5.9733   24.2369  -33.0780 H   0  0  0  0  0  0  0  0  0  0  0  0
   -7.4767   23.2538  -33.0780 H   0  0  0  0  0  0  0  0  0  0  0  0
   -8.3401   21.7669  -31.1826 H   0  0  0  0  0  0  0  0  0  0  0  0
  -10.1496   20.0641  -31.2353 H   0  0  0  0  0  0  0  0  0  0  0  0
   -9.7142   17.8070  -32.1853 H   0  0  0  0  0  0  0  0  0  0  0  0
   -7.4904   17.2607  -33.1452 H   0  0  0  0  0  0  0  0  0  0  0  0
   -5.1336   16.8768  -33.6136 H   0  0  0  0  0  0  0  0  0  0  0  0
   -6.1451   17.6753  -34.8650 H   0  0  0  0  0  0  0  0  0  0  0  0
   -4.3643   17.9107  -34.8650 H   0  0  0  0  0  0  0  0  0  0  0  0
   -2.8237   18.4373  -33.8998 H   0  0  0  0  0  0  0  0  0  0  0  0
   -0.9284   20.0077  -33.5740 H   0  0  0  0  0  0  0  0  0  0  0  0
   -1.3232   22.2655  -32.6061 H   0  0  0  0  0  0  0  0  0  0  0  0
   -3.6112   22.9428  -31.9098 H   0  0  0  0  0  0  0  0  0  0  0  0
  1  2  1  0
  2  3  1  0
  3  4  1  0
  4  5  1  0
  5  6  1  0
  6  7  1  0
  6  8  1  0
  8  9  2  0
  9 10  1  0
 10 11  2  0
 11 12  1  0
 12 13  2  0
 13 14  1  0
 14 15  2  0
 15 16  1  0
 15 17  1  0
 17 18  2  0
 18 19  1  0
 19 20  2  0
 20 21  1  0
 21 22  2  0
 22  8  1  0
 14  9  1  0
 22 17  1  0
  1 23  1  0
  1 24  1  0
  1 25  1  0
  2 26  1  0
  2 27  1  0
  3 28  1  0
  3 29  1  0
  4 30  1  0
  4 31  1  0
  5 32  1  0
  5 33  1  0
  7 34  1  0
  7 35  1  0
  7 36  1  0
 10 37  1  0
 11 38  1  0
 12 39  1  0
 13 40  1  0
 16 41  1  0
 16 42  1  0
 16 43  1  0
 18 44  1  0
 19 45  1  0
 20 46  1  0
 21 47  1  0
M  CHG  2   3   1  15   1
M  END
>  <UniqueID>  (6) 
6

>  <SMILES>  (6) 
CC[NH2+]CCN(C)c1c2ccccc2[n+](C)c2ccccc12

>  <Energy>  (6) 
69.47973653883992

>  <Genealogy>  (6) 
CC[NH2+]CCN(C)c1c2ccccc2[n+](C)c2ccccc12 (protonated)
CC[NH2+]CCN(C)c1c2ccccc2[n+](C)c2ccccc12 (3D coordinates assigned)
CC[NH2+]CCN(C)c1c2ccccc2[n+](C)c2ccccc12 (optimized conformer: 69.47973653883992 kcal/mol)

>  <smiles>  (6) 
CCNCCN(C)c1c2ccccc2[n+](C)c2ccccc12

>  <score_type>  (6) 
oracle

>  <origin>  (6) 
adg

>  <m_score__min__energy>  (6) 
-7.2800000000000002

>  <m_primary>  (6) 
energy

$$$$
6:0
     RDKit          3D

 92 95  0  0  0  0  0  0  0  0999 V2000
   -8.7380   18.4770  -31.7830 C   0  0  0  0  0  0  0  0  0  0  0  0
   -8.4940   19.7480  -32.5950 C   0  0  0  0  0  0  0  0  0  0  0  0
   -7.6190   20.6900  -31.8580 N   0  0  0  0  0  0  0  0  0  0  0  0
   -6.4910   21.1200  -32.7070 C   0  0  0  0  0  0  0  0  0  0  0  0
   -8.3940   21.8680  -31.4010 C   0  0  0  0  0  0  0  0  0  0  0  0
   -7.6010   22.7240  -30.3930 C   0  0  0  0  0  0  0  0  0  0  0  0
   -6.8900   23.8080  -30.9750 O   0  0  0  0  0  0  0  0  0  0  0  0
   -6.7930   24.9400  -30.1230 C   0  0  0  0  0  0  0  0  0  0  0  0
   -5.4630   25.7110  -30.2610 C   0  0  0  0  0  0  0  0  0  0  0  0
   -4.4600   24.8960  -30.8420 O   0  0  0  0  0  0  0  0  0  0  0  0
   -4.0900   23.8280  -29.9890 C   0  0  0  0  0  0  0  0  0  0  0  0
   -4.1040   22.4980  -30.7430 C   0  0  0  0  0  0  0  0  0  0  0  0
   -2.8850   22.3440  -31.5390 N   0  0  0  0  0  0  0  0  0  0  0  0
   -1.9050   21.3360  -31.2290 C   0  0  0  0  0  0  0  0  0  0  0  0
   -1.1360   21.4360  -30.0580 C   0  0  0  0  0  0  0  0  0  0  0  0
   -1.2620   22.5520  -29.2050 C   0  0  0  0  0  0  0  0  0  0  0  0
   -0.5750   22.6060  -27.9960 C   0  0  0  0  0  0  0  0  0  0  0  0
    0.2360   21.5490  -27.6100 C   0  0  0  0  0  0  0  0  0  0  0  0
    0.3980   20.4470  -28.4510 C   0  0  0  0  0  0  0  0  0  0  0  0
   -0.2390   20.3890  -29.7170 C   0  0  0  0  0  0  0  0  0  0  0  0
   -0.0250   19.3440  -30.5970 N   0  0  0  0  0  0  0  0  0  0  0  0
    1.0990   18.4070  -30.3790 C   0  0  0  0  0  0  0  0  0  0  0  0
   -0.8410   19.1910  -31.7050 C   0  0  0  0  0  0  0  0  0  0  0  0
   -0.7990   18.0230  -32.5110 C   0  0  0  0  0  0  0  0  0  0  0  0
   -1.5790   17.9090  -33.6750 C   0  0  0  0  0  0  0  0  0  0  0  0
   -1.5500   16.7780  -34.5050 O   0  0  0  0  0  0  0  0  0  0  0  0
   -1.3890   15.4260  -34.0750 C   0  0  0  0  0  0  0  0  0  0  0  0
   -2.3100   15.0730  -32.8790 C   0  0  0  0  0  0  0  0  0  0  0  0
   -3.6280   14.4200  -33.2040 N   0  0  0  0  0  0  0  0  0  0  0  0
   -3.4990   12.9450  -33.0930 C   0  0  0  0  0  0  0  0  0  0  0  0
   -4.6490   14.8520  -32.2070 C   0  0  0  0  0  0  0  0  0  0  0  0
   -5.0680   16.3340  -32.3470 C   0  0  0  0  0  0  0  0  0  0  0  0
   -5.5040   16.6950  -33.7240 N   0  0  0  0  0  0  0  0  0  0  0  0
   -6.8490   16.1340  -34.0150 C   0  0  0  0  0  0  0  0  0  0  0  0
   -5.6090   18.1740  -33.8120 C   0  0  0  0  0  0  0  0  0  0  0  0
   -4.5100   16.2350  -34.7340 C   0  0  0  0  0  0  0  0  0  0  0  0
   -4.1300   14.7470  -34.5700 C   0  0  0  0  0  0  0  0  0  0  0  0
   -2.4240   18.9530  -34.0330 C   0  0  0  0  0  0  0  0  0  0  0  0
   -2.5150   20.0900  -33.2410 C   0  0  0  0  0  0  0  0  0  0  0  0
   -1.7610   20.2110  -32.0580 C   0  0  0  0  0  0  0  0  0  0  0  0
   -8.6926   18.7133  -30.7096 H   0  0  0  0  0  0  0  0  0  0  0  0
   -9.7306   18.0707  -32.0274 H   0  0  0  0  0  0  0  0  0  0  0  0
   -7.9665   17.7320  -32.0274 H   0  0  0  0  0  0  0  0  0  0  0  0
   -8.0124   19.4797  -33.5469 H   0  0  0  0  0  0  0  0  0  0  0  0
   -9.4617   20.2384  -32.7771 H   0  0  0  0  0  0  0  0  0  0  0  0
   -5.6533   21.4393  -32.0696 H   0  0  0  0  0  0  0  0  0  0  0  0
   -6.1696   20.2813  -33.3421 H   0  0  0  0  0  0  0  0  0  0  0  0
   -6.8094   21.9598  -33.3421 H   0  0  0  0  0  0  0  0  0  0  0  0
   -8.6452   22.4885  -32.2739 H   0  0  0  0  0  0  0  0  0  0  0  0
   -9.3019   21.5037  -30.8980 H   0  0  0  0  0  0  0  0  0  0  0  0
   -8.3089   23.1326  -29.6568 H   0  0  0  0  0  0  0  0  0  0  0  0
   -6.8482   22.0609  -29.9419 H   0  0  0  0  0  0  0  0  0  0  0  0
   -7.6184   25.6264  -30.3629 H   0  0  0  0  0  0  0  0  0  0  0  0
   -6.8420   24.5680  -29.0890 H   0  0  0  0  0  0  0  0  0  0  0  0
   -5.6233   26.5931  -30.8984 H   0  0  0  0  0  0  0  0  0  0  0  0
   -5.1292   26.0150  -29.2579 H   0  0  0  0  0  0  0  0  0  0  0  0
   -3.0772   24.0113  -29.6008 H   0  0  0  0  0  0  0  0  0  0  0  0
   -4.8137   23.7712  -29.1625 H   0  0  0  0  0  0  0  0  0  0  0  0
   -4.1696   21.6726  -30.0188 H   0  0  0  0  0  0  0  0  0  0  0  0
   -4.9725   22.4821  -31.4178 H   0  0  0  0  0  0  0  0  0  0  0  0
   -2.6920   23.0140  -32.3170 H   0  0  0  0  0  0  0  0  0  0  0  0
   -1.9112   23.3899  -29.4989 H   0  0  0  0  0  0  0  0  0  0  0  0
   -0.6752   23.4877  -27.3459 H   0  0  0  0  0  0  0  0  0  0  0  0
    0.7524   21.5794  -26.6392 H   0  0  0  0  0  0  0  0  0  0  0  0
    1.0312   19.6082  -28.1261 H   0  0  0  0  0  0  0  0  0  0  0  0
    1.2602   18.2726  -29.2992 H   0  0  0  0  0  0  0  0  0  0  0  0
    0.8612   17.4360  -30.8379 H   0  0  0  0  0  0  0  0  0  0  0  0
    2.0114   18.8157  -30.8379 H   0  0  0  0  0  0  0  0  0  0  0  0
   -0.1426   17.1901  -32.2187 H   0  0  0  0  0  0  0  0  0  0  0  0
   -1.6286   14.7572  -34.9148 H   0  0  0  0  0  0  0  0  0  0  0  0
   -0.3473   15.3007  -33.7447 H   0  0  0  0  0  0  0  0  0  0  0  0
   -1.7534   14.3891  -32.2214 H   0  0  0  0  0  0  0  0  0  0  0  0
   -2.5730   16.0395  -32.4242 H   0  0  0  0  0  0  0  0  0  0  0  0
   -3.4739   12.6580  -32.0314 H   0  0  0  0  0  0  0  0  0  0  0  0
   -4.3585   12.4639  -33.5827 H   0  0  0  0  0  0  0  0  0  0  0  0
   -2.5690   12.6204  -33.5827 H   0  0  0  0  0  0  0  0  0  0  0  0
   -5.5440   14.2249  -32.3327 H   0  0  0  0  0  0  0  0  0  0  0  0
   -4.1936   14.7398  -31.2120 H   0  0  0  0  0  0  0  0  0  0  0  0
   -5.9006   16.5283  -31.6549 H   0  0  0  0  0  0  0  0  0  0  0  0
   -4.1841   16.9459  -32.1141 H   0  0  0  0  0  0  0  0  0  0  0  0
   -7.3683   15.9174  -33.0698 H   0  0  0  0  0  0  0  0  0  0  0  0
   -7.4329   16.8636  -34.5953 H   0  0  0  0  0  0  0  0  0  0  0  0
   -6.7414   15.2057  -34.5953 H   0  0  0  0  0  0  0  0  0  0  0  0
   -5.6393   18.6004  -32.7985 H   0  0  0  0  0  0  0  0  0  0  0  0
   -4.7369   18.5721  -34.3514 H   0  0  0  0  0  0  0  0  0  0  0  0
   -6.5286   18.4449  -34.3514 H   0  0  0  0  0  0  0  0  0  0  0  0
   -4.9368   16.3796  -35.7375 H   0  0  0  0  0  0  0  0  0  0  0  0
   -3.5944   16.8271  -34.5890 H   0  0  0  0  0  0  0  0  0  0  0  0
   -5.0205   14.1336  -34.7722 H   0  0  0  0  0  0  0  0  0  0  0  0
   -3.3157   14.5357  -35.2787 H   0  0  0  0  0  0  0  0  0  0  0  0
   -3.0254   18.8779  -34.9510 H   0  0  0  0  0  0  0  0  0  0  0  0
   -3.1859   20.9080  -33.5422 H   0  0  0  0  0  0  0  0  0  0  0  0
  1  2  1  0
  2  3  1  0
  3  4  1  0
  3  5  1  0
  5  6  1  0
  6  7  1  0
  7  8  1  0
  8  9  1  0
  9 10  1  0
 10 11  1  0
 11 12  1  0
 12 13  1  0
 13 14  1  0
 14 15  2  0
 15 16  1  0
 16 17  2  0
 17 18  1  0
 18 19  2  0
 19 20  1  0
 20 21  2  0
 21 22  1  0
 21 23  1  0
 23 24  2  0
 24 25  1  0
 25 26  1  0
 26 27  1  0
 27 28  1  0
 28 29  1  0
 29 30  1  0
 29 31  1  0
 31 32  1  0
 32 33  1  0
 33 34  1  0
 33 35  1  0
 33 36  1  0
 36 37  1  0
 25 38  2  0
 38 39  1  0
 39 40  2  0
 40 14  1  0
 20 15  1  0
 40 23  1  0
 37 29  1  0
  1 41  1  0
  1 42  1  0
  1 43  1  0
  2 44  1  0
  2 45  1  0
  4 46  1  0
  4 47  1  0
  4 48  1  0
  5 49  1  0
  5 50  1  0
  6 51  1  0
  6 52  1  0
  8 53  1  0
  8 54  1  0
  9 55  1  0
  9 56  1  0
 11 57  1  0
 11 58  1  0
 12 59  1  0
 12 60  1  0
 13 61  1  0
 16 62  1  0
 17 63  1  0
 18 64  1  0
 19 65  1  0
 22 66  1  0
 22 67  1  0
 22 68  1  0
 24 69  1  0
 27 70  1  0
 27 71  1  0
 28 72  1  0
 28 73  1  0
 30 74  1  0
 30 75  1  0
 30 76  1  0
 31 77  1  0
 31 78  1  0
 32 79  1  0
 32 80  1  0
 34 81  1  0
 34 82  1  0
 34 83  1  0
 35 84  1  0
 35 85  1  0
 35 86  1  0
 36 87  1  0
 36 88  1  0
 37 89  1  0
 37 90  1  0
 38 91  1  0
 39 92  1  0
M  CHG  3  21   1  29   1  33   1
M  END
>  <UniqueID>  (7) 
7

>  <SMILES>  (7) 
CCN(C)CCOCCOCCNc1c2ccccc2[n+](C)c2cc(OCC[N+]3(C)CC[N+](C)(C)CC3)ccc12

>  <Energy>  (7) 
146.46733913762688

>  <Genealogy>  (7) 
CCN(C)CCOCCOCCNc1c2ccccc2[n+](C)c2cc(OCC[N+]3(C)CC[N+](C)(C)CC3)ccc12 (3D coordinates assigned)
CCN(C)CCOCCOCCNc1c2ccccc2[n+](C)c2cc(OCC[N+]3(C)CC[N+](C)(C)CC3)ccc12 (nonaromatic ring conformer: 146.46733913762688 kcal/mol)

>  <smiles>  (7) 
CCN(C)CCOCCOCCNc1c2ccccc2[n+](C)c2cc(OCC[N+]3(C)CC[N+](C)(C)CC3)ccc12

>  <score_type>  (7) 
oracle

>  <origin>  (7) 
adg

>  <m_score__min__energy>  (7) 
-8.7599999999999998

>  <m_primary>  (7) 
energy

$$$$
7:0
     RDKit          3D

 56 59  0  0  0  0  0  0  0  0999 V2000
   -5.5000   25.6690  -30.4790 C   0  0  0  0  0  0  0  0  0  0  0  0
   -5.8100   24.3790  -29.7270 C   0  0  0  0  0  0  0  0  0  0  0  0
   -4.5750   23.6250  -29.4420 N   0  0  0  0  0  0  0  0  0  0  0  0
   -4.2900   22.3970  -30.2080 C   0  0  0  0  0  0  0  0  0  0  0  0
   -3.3790   22.6540  -31.4220 C   0  0  0  0  0  0  0  0  0  0  0  0
   -3.3670   21.4840  -32.4100 C   0  0  0  0  0  0  0  0  0  0  0  0
   -4.5240   21.5440  -33.3020 N   0  0  0  0  0  0  0  0  0  0  0  0
   -5.6940   20.7650  -33.0160 C   0  0  0  0  0  0  0  0  0  0  0  0
   -6.8630   21.3850  -32.5520 C   0  0  0  0  0  0  0  0  0  0  0  0
   -6.8990   22.7780  -32.3280 C   0  0  0  0  0  0  0  0  0  0  0  0
   -8.0780   23.4030  -31.9270 C   0  0  0  0  0  0  0  0  0  0  0  0
   -9.2360   22.6560  -31.7520 C   0  0  0  0  0  0  0  0  0  0  0  0
   -9.2180   21.2740  -31.9430 C   0  0  0  0  0  0  0  0  0  0  0  0
   -8.0230   20.6020  -32.3090 C   0  0  0  0  0  0  0  0  0  0  0  0
   -7.9720   19.2260  -32.4450 N   0  0  0  0  0  0  0  0  0  0  0  0
   -9.0800   18.3900  -31.9300 C   0  0  0  0  0  0  0  0  0  0  0  0
   -6.8730   18.6280  -33.0350 C   0  0  0  0  0  0  0  0  0  0  0  0
   -6.8830   17.2650  -33.4280 C   0  0  0  0  0  0  0  0  0  0  0  0
   -5.7500   16.6660  -33.9800 C   0  0  0  0  0  0  0  0  0  0  0  0
   -4.5850   17.4040  -34.1630 C   0  0  0  0  0  0  0  0  0  0  0  0
   -3.0370   16.5770  -34.9180 Br  0  0  0  0  0  0  0  0  0  0  0  0
   -4.5570   18.7540  -33.8210 C   0  0  0  0  0  0  0  0  0  0  0  0
   -5.6990   19.3860  -33.2850 C   0  0  0  0  0  0  0  0  0  0  0  0
   -3.5680   24.1730  -28.5540 C   0  0  0  0  0  0  0  0  0  0  0  0
   -3.8570   24.4220  -27.1970 C   0  0  0  0  0  0  0  0  0  0  0  0
   -2.8790   24.9410  -26.3440 C   0  0  0  0  0  0  0  0  0  0  0  0
   -1.6010   25.2220  -26.8320 C   0  0  0  0  0  0  0  0  0  0  0  0
   -1.3030   24.9880  -28.1750 C   0  0  0  0  0  0  0  0  0  0  0  0
   -2.2780   24.4700  -29.0310 C   0  0  0  0  0  0  0  0  0  0  0  0
   -5.3060   26.4764  -29.7576 H   0  0  0  0  0  0  0  0  0  0  0  0
   -4.6119   25.5207  -31.1109 H   0  0  0  0  0  0  0  0  0  0  0  0
   -6.3585   25.9404  -31.1109 H   0  0  0  0  0  0  0  0  0  0  0  0
   -6.3078   24.6264  -28.7778 H   0  0  0  0  0  0  0  0  0  0  0  0
   -6.4648   23.7560  -30.3539 H   0  0  0  0  0  0  0  0  0  0  0  0
   -3.7950   21.6740  -29.5430 H   0  0  0  0  0  0  0  0  0  0  0  0
   -5.2479   22.0108  -30.5864 H   0  0  0  0  0  0  0  0  0  0  0  0
   -3.7358   23.5532  -31.9456 H   0  0  0  0  0  0  0  0  0  0  0  0
   -2.3531   22.7822  -31.0464 H   0  0  0  0  0  0  0  0  0  0  0  0
   -2.4464   21.5287  -33.0104 H   0  0  0  0  0  0  0  0  0  0  0  0
   -3.4090   20.5431  -31.8418 H   0  0  0  0  0  0  0  0  0  0  0  0
   -4.5890   22.2800  -34.0420 H   0  0  0  0  0  0  0  0  0  0  0  0
   -5.9871   23.3763  -32.4714 H   0  0  0  0  0  0  0  0  0  0  0  0
   -8.0918   24.4884  -31.7489 H   0  0  0  0  0  0  0  0  0  0  0  0
  -10.1715   23.1564  -31.4615 H   0  0  0  0  0  0  0  0  0  0  0  0
  -10.1444   20.6965  -31.8078 H   0  0  0  0  0  0  0  0  0  0  0  0
   -9.0664   18.4002  -30.8301 H   0  0  0  0  0  0  0  0  0  0  0  0
  -10.0394   18.7913  -32.2886 H   0  0  0  0  0  0  0  0  0  0  0  0
   -8.9575   17.3573  -32.2886 H   0  0  0  0  0  0  0  0  0  0  0  0
   -7.7990   16.6705  -33.2954 H   0  0  0  0  0  0  0  0  0  0  0  0
   -5.7781   15.6058  -34.2717 H   0  0  0  0  0  0  0  0  0  0  0  0
   -3.6343   19.3339  -33.9705 H   0  0  0  0  0  0  0  0  0  0  0  0
   -4.8620   24.2057  -26.8056 H   0  0  0  0  0  0  0  0  0  0  0  0
   -3.1163   25.1285  -25.2864 H   0  0  0  0  0  0  0  0  0  0  0  0
   -0.8308   25.6270  -26.1591 H   0  0  0  0  0  0  0  0  0  0  0  0
   -0.2975   25.2120  -28.5608 H   0  0  0  0  0  0  0  0  0  0  0  0
   -2.0347   24.2925  -30.0890 H   0  0  0  0  0  0  0  0  0  0  0  0
  1  2  1  0
  2  3  1  0
  3  4  1  0
  4  5  1  0
  5  6  1  0
  6  7  1  0
  7  8  1  0
  8  9  1  0
  9 10  2  0
 10 11  1  0
 11 12  2  0
 12 13  1  0
 13 14  2  0
 14 15  1  0
 15 16  1  0
 15 17  2  0
 17 18  1  0
 18 19  2  0
 19 20  1  0
 20 21  1  0
 20 22  2  0
 22 23  1  0
  3 24  1  0
 24 25  2  0
 25 26  1  0
 26 27  2  0
 27 28  1  0
 28 29  2  0
 23  8  2  0
 29 24  1  0
 14  9  1  0
 23 17  1  0
  1 30  1  0
  1 31  1  0
  1 32  1  0
  2 33  1  0
  2 34  1  0
  4 35  1  0
  4 36  1  0
  5 37  1  0
  5 38  1  0
  6 39  1  0
  6 40  1  0
  7 41  1  0
 10 42  1  0
 11 43  1  0
 12 44  1  0
 13 45  1  0
 16 46  1  0
 16 47  1  0
 16 48  1  0
 18 49  1  0
 19 50  1  0
 22 51  1  0
 25 52  1  0
 26 53  1  0
 27 54  1  0
 28 55  1  0
 29 56  1  0
M  CHG  1  15   1
M  END
>  <UniqueID>  (8) 
8

>  <SMILES>  (8) 
CCN(CCCNc1c2ccccc2[n+](C)c2ccc(Br)cc12)c1ccccc1

>  <Energy>  (8) 
81.85652258226307

>  <Genealogy>  (8) 
CCN(CCCNc1c2ccccc2[n+](C)c2ccc(Br)cc12)c1ccccc1 (3D coordinates assigned)
CCN(CCCNc1c2ccccc2[n+](C)c2ccc(Br)cc12)c1ccccc1 (optimized conformer: 81.85652258226307 kcal/mol)

>  <smiles>  (8) 
CCN(CCCNc1c2ccccc2[n+](C)c2ccc(Br)cc12)c1ccccc1

>  <score_type>  (8) 
oracle

>  <origin>  (8) 
adg

>  <m_score__min__energy>  (8) 
-9.9299999999999997

>  <m_primary>  (8) 
energy

$$$$
8:0
     RDKit          3D

 50 52  0  0  0  0  0  0  0  0999 V2000
   -6.3100   25.2840  -29.4590 C   0  0  0  0  0  0  0  0  0  0  0  0
   -5.3050   25.7160  -30.5200 C   0  0  0  0  0  0  0  0  0  0  0  0
   -4.5020   24.5690  -30.9710 N   0  0  0  0  0  0  0  0  0  0  0  0
   -4.3410   23.5740  -29.9000 C   0  0  0  0  0  0  0  0  0  0  0  0
   -3.8750   22.2270  -30.4710 C   0  0  0  0  0  0  0  0  0  0  0  0
   -3.1080   22.3520  -31.8010 C   0  0  0  0  0  0  0  0  0  0  0  0
   -3.1500   21.0450  -32.6310 C   0  0  0  0  0  0  0  0  0  0  0  0
   -4.3030   20.9070  -33.5640 N   0  0  0  0  0  0  0  0  0  0  0  0
   -5.4760   20.2190  -33.0390 C   0  0  0  0  0  0  0  0  0  0  0  0
   -6.5510   20.9890  -32.5130 C   0  0  0  0  0  0  0  0  0  0  0  0
   -6.4260   22.3860  -32.2990 C   0  0  0  0  0  0  0  0  0  0  0  0
   -7.4980   23.1450  -31.8400 C   0  0  0  0  0  0  0  0  0  0  0  0
   -8.7210   22.5430  -31.5930 C   0  0  0  0  0  0  0  0  0  0  0  0
   -8.8690   21.1700  -31.7690 C   0  0  0  0  0  0  0  0  0  0  0  0
   -7.7820   20.3580  -32.1890 C   0  0  0  0  0  0  0  0  0  0  0  0
   -7.9170   18.9950  -32.3170 N   0  0  0  0  0  0  0  0  0  0  0  0
   -9.0920   18.3130  -31.7240 C   0  0  0  0  0  0  0  0  0  0  0  0
   -6.9410   18.2530  -32.9490 C   0  0  0  0  0  0  0  0  0  0  0  0
   -7.2110   16.9300  -33.3810 C   0  0  0  0  0  0  0  0  0  0  0  0
   -6.2130   16.1260  -33.9070 C   0  0  0  0  0  0  0  0  0  0  0  0
   -4.9150   16.5970  -33.9830 C   0  0  0  0  0  0  0  0  0  0  0  0
   -4.6080   17.9090  -33.6170 C   0  0  0  0  0  0  0  0  0  0  0  0
   -2.8750   18.2330  -33.5490 Cl  0  0  0  0  0  0  0  0  0  0  0  0
   -5.6480   18.8070  -33.1970 C   0  0  0  0  0  0  0  0  0  0  0  0
   -5.8884   25.4652  -28.4593 H   0  0  0  0  0  0  0  0  0  0  0  0
   -7.2382   25.8626  -29.5759 H   0  0  0  0  0  0  0  0  0  0  0  0
   -6.5288   24.2123  -29.5759 H   0  0  0  0  0  0  0  0  0  0  0  0
   -5.8460   26.1386  -31.3795 H   0  0  0  0  0  0  0  0  0  0  0  0
   -4.6326   26.4701  -30.0850 H   0  0  0  0  0  0  0  0  0  0  0  0
   -3.5490   24.9290  -31.2130 H   0  0  0  0  0  0  0  0  0  0  0  0
   -3.5938   23.9379  -29.1794 H   0  0  0  0  0  0  0  0  0  0  0  0
   -5.3126   23.4293  -29.4049 H   0  0  0  0  0  0  0  0  0  0  0  0
   -3.2156   21.7463  -29.7334 H   0  0  0  0  0  0  0  0  0  0  0  0
   -4.7785   21.6336  -30.6748 H   0  0  0  0  0  0  0  0  0  0  0  0
   -3.5583   23.1618  -32.3939 H   0  0  0  0  0  0  0  0  0  0  0  0
   -2.0554   22.5647  -31.5628 H   0  0  0  0  0  0  0  0  0  0  0  0
   -2.2262   20.9930  -33.2259 H   0  0  0  0  0  0  0  0  0  0  0  0
   -3.2576   20.2300  -31.9001 H   0  0  0  0  0  0  0  0  0  0  0  0
   -4.0010   20.4870  -34.4680 H   0  0  0  0  0  0  0  0  0  0  0  0
   -4.5850   21.8590  -33.8930 H   0  0  0  0  0  0  0  0  0  0  0  0
   -5.4631   22.8785  -32.4998 H   0  0  0  0  0  0  0  0  0  0  0  0
   -7.3742   24.2252  -31.6729 H   0  0  0  0  0  0  0  0  0  0  0  0
   -9.5751   23.1498  -31.2578 H   0  0  0  0  0  0  0  0  0  0  0  0
   -9.8474   20.7046  -31.5790 H   0  0  0  0  0  0  0  0  0  0  0  0
   -9.0238   18.3526  -30.6268 H   0  0  0  0  0  0  0  0  0  0  0  0
  -10.0129   18.8170  -32.0526 H   0  0  0  0  0  0  0  0  0  0  0  0
   -9.1112   17.2634  -32.0526 H   0  0  0  0  0  0  0  0  0  0  0  0
   -8.2337   16.5338  -33.2968 H   0  0  0  0  0  0  0  0  0  0  0  0
   -6.4529   15.1136  -34.2640 H   0  0  0  0  0  0  0  0  0  0  0  0
   -4.1147   15.9300  -34.3361 H   0  0  0  0  0  0  0  0  0  0  0  0
  1  2  1  0
  2  3  1  0
  3  4  1  0
  4  5  1  0
  5  6  1  0
  6  7  1  0
  7  8  1  0
  8  9  1  0
  9 10  2  0
 10 11  1  0
 11 12  2  0
 12 13  1  0
 13 14  2  0
 14 15  1  0
 15 16  2  0
 16 17  1  0
 16 18  1  0
 18 19  2  0
 19 20  1  0
 20 21  2  0
 21 22  1  0
 22 23  1  0
 22 24  2  0
 24  9  1  0
 15 10  1  0
 24 18  1  0
  1 25  1  0
  1 26  1  0
  1 27  1  0
  2 28  1  0
  2 29  1  0
  3 30  1  0
  4 31  1  0
  4 32  1  0
  5 33  1  0
  5 34  1  0
  6 35  1  0
  6 36  1  0
  7 37  1  0
  7 38  1  0
  8 39  1  0
  8 40  1  0
 11 41  1  0
 12 42  1  0
 13 43  1  0
 14 44  1  0
 17 45  1  0
 17 46  1  0
 17 47  1  0
 19 48  1  0
 20 49  1  0
 21 50  1  0
M  CHG  2   8   1  16   1
M  END
>  <UniqueID>  (9) 
9

>  <SMILES>  (9) 
CCNCCCC[NH2+]c1c2ccccc2[n+](C)c2cccc(Cl)c12

>  <Energy>  (9) 
89.33317053884821

>  <Genealogy>  (9) 
CCNCCCC[NH2+]c1c2ccccc2[n+](C)c2cccc(Cl)c12 (protonated)
CCNCCCC[NH2+]c1c2ccccc2[n+](C)c2cccc(Cl)c12 (3D coordinates assigned)
CCNCCCC[NH2+]c1c2ccccc2[n+](C)c2cccc(Cl)c12 (optimized conformer: 89.33317053884821 kcal/mol)

>  <smiles>  (9) 
CCNCCCCNc1c2ccccc2[n+](C)c2cccc(Cl)c12

>  <score_type>  (9) 
oracle

>  <origin>  (9) 
adg

>  <m_score__min__energy>  (9) 
-9.0199999999999996

>  <m_primary>  (9) 
energy

$$$$
9:0
     RDKit          3D

 63 65  0  0  0  0  0  0  0  0999 V2000
   -1.3520   25.7140  -27.6650 C   0  0  0  0  0  0  0  0  0  0  0  0
   -1.5240   24.9160  -28.9520 C   0  0  0  0  0  0  0  0  0  0  0  0
   -2.9430   24.8630  -29.3340 N   0  0  0  0  0  0  0  0  0  0  0  0
   -3.6350   23.6720  -28.7990 C   0  0  0  0  0  0  0  0  0  0  0  0
   -2.6900   22.7070  -28.0620 C   0  0  0  0  0  0  0  0  0  0  0  0
   -1.9360   21.7720  -29.0230 C   0  0  0  0  0  0  0  0  0  0  0  0
   -2.8940   21.0080  -29.9620 C   0  0  0  0  0  0  0  0  0  0  0  0
   -2.1770   20.2600  -31.0980 C   0  0  0  0  0  0  0  0  0  0  0  0
   -1.8350   21.1650  -32.2870 C   0  0  0  0  0  0  0  0  0  0  0  0
   -2.8860   21.1040  -33.3020 N   0  0  0  0  0  0  0  0  0  0  0  0
   -4.2310   20.7170  -32.9810 C   0  0  0  0  0  0  0  0  0  0  0  0
   -4.7120   19.4590  -33.3800 C   0  0  0  0  0  0  0  0  0  0  0  0
   -6.0000   19.0510  -32.9810 C   0  0  0  0  0  0  0  0  0  0  0  0
   -6.7460   19.8350  -32.1240 N   0  0  0  0  0  0  0  0  0  0  0  0
   -7.9510   19.2740  -31.4780 C   0  0  0  0  0  0  0  0  0  0  0  0
   -6.3630   21.1400  -31.8770 C   0  0  0  0  0  0  0  0  0  0  0  0
   -7.2220   22.0570  -31.2230 C   0  0  0  0  0  0  0  0  0  0  0  0
   -6.8180   23.3670  -30.9690 C   0  0  0  0  0  0  0  0  0  0  0  0
   -5.5550   23.8130  -31.3780 C   0  0  0  0  0  0  0  0  0  0  0  0
   -5.1110   25.1240  -31.1510 O   0  0  0  0  0  0  0  0  0  0  0  0
   -5.7350   26.0430  -30.2610 C   0  0  0  0  0  0  0  0  0  0  0  0
   -4.7040   22.9320  -32.0450 C   0  0  0  0  0  0  0  0  0  0  0  0
   -5.0880   21.5970  -32.2980 C   0  0  0  0  0  0  0  0  0  0  0  0
   -6.5030   17.7210  -33.5130 C   0  0  0  0  0  0  0  0  0  0  0  0
   -6.0860   17.5500  -34.9760 C   0  0  0  0  0  0  0  0  0  0  0  0
   -4.5620   17.6380  -35.1740 C   0  0  0  0  0  0  0  0  0  0  0  0
   -3.8220   18.4640  -34.1030 C   0  0  0  0  0  0  0  0  0  0  0  0
   -1.4951   25.0499  -26.7999 H   0  0  0  0  0  0  0  0  0  0  0  0
   -0.3404   26.1448  -27.6331 H   0  0  0  0  0  0  0  0  0  0  0  0
   -2.0963   26.5233  -27.6331 H   0  0  0  0  0  0  0  0  0  0  0  0
   -0.9493   25.3974  -29.7570 H   0  0  0  0  0  0  0  0  0  0  0  0
   -1.1589   23.8912  -28.7891 H   0  0  0  0  0  0  0  0  0  0  0  0
   -3.0170   24.9030  -30.3780 H   0  0  0  0  0  0  0  0  0  0  0  0
   -4.4132   24.0050  -28.0965 H   0  0  0  0  0  0  0  0  0  0  0  0
   -4.0597   23.1266  -29.6547 H   0  0  0  0  0  0  0  0  0  0  0  0
   -1.9551   23.2973  -27.4951 H   0  0  0  0  0  0  0  0  0  0  0  0
   -3.3037   22.0800  -27.3985 H   0  0  0  0  0  0  0  0  0  0  0  0
   -1.2455   22.3727  -29.6333 H   0  0  0  0  0  0  0  0  0  0  0  0
   -1.3930   21.0311  -28.4178 H   0  0  0  0  0  0  0  0  0  0  0  0
   -3.4562   20.2756  -29.3641 H   0  0  0  0  0  0  0  0  0  0  0  0
   -3.5493   21.7561  -30.4320 H   0  0  0  0  0  0  0  0  0  0  0  0
   -1.2437   19.8329  -30.7024 H   0  0  0  0  0  0  0  0  0  0  0  0
   -2.8620   19.4807  -31.4633 H   0  0  0  0  0  0  0  0  0  0  0  0
   -1.7335   22.2019  -31.9341 H   0  0  0  0  0  0  0  0  0  0  0  0
   -0.8910   20.8200  -32.7341 H   0  0  0  0  0  0  0  0  0  0  0  0
   -2.6450   21.3110  -34.2980 H   0  0  0  0  0  0  0  0  0  0  0  0
   -7.8390   19.3261  -30.3850 H   0  0  0  0  0  0  0  0  0  0  0  0
   -8.8345   19.8534  -31.7841 H   0  0  0  0  0  0  0  0  0  0  0  0
   -8.0764   18.2249  -31.7841 H   0  0  0  0  0  0  0  0  0  0  0  0
   -8.2247   21.7301  -30.9103 H   0  0  0  0  0  0  0  0  0  0  0  0
   -7.4963   24.0553  -30.4435 H   0  0  0  0  0  0  0  0  0  0  0  0
   -5.5315   25.7433  -29.2224 H   0  0  0  0  0  0  0  0  0  0  0  0
   -5.3348   27.0525  -30.4364 H   0  0  0  0  0  0  0  0  0  0  0  0
   -6.8209   26.0434  -30.4364 H   0  0  0  0  0  0  0  0  0  0  0  0
   -3.7168   23.2832  -32.3797 H   0  0  0  0  0  0  0  0  0  0  0  0
   -6.0744   16.9038  -32.9143 H   0  0  0  0  0  0  0  0  0  0  0  0
   -7.6007   17.6974  -33.4456 H   0  0  0  0  0  0  0  0  0  0  0  0
   -6.4302   16.5660  -35.3272 H   0  0  0  0  0  0  0  0  0  0  0  0
   -6.5432   18.3697  -35.5496 H   0  0  0  0  0  0  0  0  0  0  0  0
   -4.1548   16.6162  -35.1611 H   0  0  0  0  0  0  0  0  0  0  0  0
   -4.4015   18.1545  -36.1318 H   0  0  0  0  0  0  0  0  0  0  0  0
   -3.3997   17.7714  -33.3601 H   0  0  0  0  0  0  0  0  0  0  0  0
   -3.0456   19.0444  -34.6230 H   0  0  0  0  0  0  0  0  0  0  0  0
  1  2  1  0
  2  3  1  0
  3  4  1  0
  4  5  1  0
  5  6  1  0
  6  7  1  0
  7  8  1  0
  8  9  1  0
  9 10  1  0
 10 11  1  0
 11 12  2  0
 12 13  1  0
 13 14  2  0
 14 15  1  0
 14 16  1  0
 16 17  2  0
 17 18  1  0
 18 19  2  0
 19 20  1  0
 20 21  1  0
 19 22  1  0
 22 23  2  0
 13 24  1  0
 24 25  1  0
 25 26  1  0
 26 27  1  0
 23 11  1  0
 27 12  1  0
 23 16  1  0
  1 28  1  0
  1 29  1  0
  1 30  1  0
  2 31  1  0
  2 32  1  0
  3 33  1  0
  4 34  1  0
  4 35  1  0
  5 36  1  0
  5 37  1  0
  6 38  1  0
  6 39  1  0
  7 40  1  0
  7 41  1  0
  8 42  1  0
  8 43  1  0
  9 44  1  0
  9 45  1  0
 10 46  1  0
 15 47  1  0
 15 48  1  0
 15 49  1  0
 17 50  1  0
 18 51  1  0
 21 52  1  0
 21 53  1  0
 21 54  1  0
 22 55  1  0
 24 56  1  0
 24 57  1  0
 25 58  1  0
 25 59  1  0
 26 60  1  0
 26 61  1  0
 27 62  1  0
 27 63  1  0
M  CHG  1  14   1
M  END
>  <UniqueID>  (10) 
10

>  <SMILES>  (10) 
CCNCCCCCCNc1c2c([n+](C)c3ccc(OC)cc13)CCCC2

>  <Energy>  (10) 
80.63039170823093

>  <Genealogy>  (10) 
CCNCCCCCCNc1c2c([n+](C)c3ccc(OC)cc13)CCCC2 (3D coordinates assigned)
CCNCCCCCCNc1c2c([n+](C)c3ccc(OC)cc13)CCCC2 (nonaromatic ring conformer: 80.63039170823093 kcal/mol)

>  <smiles>  (10) 
CCNCCCCCCNc1c2c([n+](C)c3ccc(OC)cc13)CCCC2

>  <score_type>  (10) 
oracle

>  <origin>  (10) 
adg

>  <m_score__min__energy>  (10) 
-9.0099999999999998

>  <m_primary>  (10) 
energy

$$$$
10:0
     RDKit          3D

 42 44  0  0  0  0  0  0  0  0999 V2000
   -8.7190   18.6230  -31.5970 C   0  0  0  0  0  0  0  0  0  0  0  0
   -7.2520   18.9520  -31.8570 C   0  0  0  0  0  0  0  0  0  0  0  0
   -7.0610   20.2900  -32.5830 C   0  0  0  0  0  0  0  0  0  0  0  0
   -5.7350   20.8630  -32.3240 N   0  0  0  0  0  0  0  0  0  0  0  0
   -5.4340   21.9810  -31.6070 C   0  0  0  0  0  0  0  0  0  0  0  0
   -6.6430   23.0120  -30.7640 S   0  0  0  0  0  0  0  0  0  0  0  0
   -6.1270   24.5910  -31.5380 C   0  0  0  0  0  0  0  0  0  0  0  0
   -5.2550   25.4020  -30.6210 C   0  0  0  0  0  0  0  0  0  0  0  0
   -5.7280   26.4380  -30.0860 O   0  0  0  0  0  0  0  0  0  0  0  0
   -3.8530   25.1320  -30.4750 N   0  0  0  0  0  0  0  0  0  0  0  0
   -3.2110   24.5290  -29.3450 C   0  0  0  0  0  0  0  0  0  0  0  0
   -3.8500   23.4760  -28.6770 C   0  0  0  0  0  0  0  0  0  0  0  0
   -3.2300   22.8480  -27.5910 C   0  0  0  0  0  0  0  0  0  0  0  0
   -1.9560   23.2570  -27.1810 C   0  0  0  0  0  0  0  0  0  0  0  0
   -1.2990   24.2840  -27.8620 C   0  0  0  0  0  0  0  0  0  0  0  0
   -1.9200   24.9110  -28.9470 C   0  0  0  0  0  0  0  0  0  0  0  0
   -4.1110   22.2760  -31.6270 N   0  0  0  0  0  0  0  0  0  0  0  0
   -3.5660   21.2970  -32.3660 C   0  0  0  0  0  0  0  0  0  0  0  0
   -2.2250   21.1170  -32.6950 C   0  0  0  0  0  0  0  0  0  0  0  0
   -1.8950   20.0130  -33.5030 C   0  0  0  0  0  0  0  0  0  0  0  0
   -2.9020   19.1340  -33.9610 C   0  0  0  0  0  0  0  0  0  0  0  0
   -4.2480   19.3470  -33.6120 C   0  0  0  0  0  0  0  0  0  0  0  0
   -4.5420   20.4440  -32.7960 C   0  0  0  0  0  0  0  0  0  0  0  0
   -8.8991   18.5826  -30.5126 H   0  0  0  0  0  0  0  0  0  0  0  0
   -9.3543   19.4010  -32.0455 H   0  0  0  0  0  0  0  0  0  0  0  0
   -8.9612   17.6482  -32.0455 H   0  0  0  0  0  0  0  0  0  0  0  0
   -6.7260   18.9978  -30.8920 H   0  0  0  0  0  0  0  0  0  0  0  0
   -6.8462   18.1625  -32.5067 H   0  0  0  0  0  0  0  0  0  0  0  0
   -7.1743   20.1279  -33.6651 H   0  0  0  0  0  0  0  0  0  0  0  0
   -7.8183   20.9946  -32.2088 H   0  0  0  0  0  0  0  0  0  0  0  0
   -5.5673   24.3702  -32.4589 H   0  0  0  0  0  0  0  0  0  0  0  0
   -7.0319   25.1769  -31.7569 H   0  0  0  0  0  0  0  0  0  0  0  0
   -4.8442   23.1413  -29.0080 H   0  0  0  0  0  0  0  0  0  0  0  0
   -3.7438   22.0332  -27.0598 H   0  0  0  0  0  0  0  0  0  0  0  0
   -1.4719   22.7693  -26.3220 H   0  0  0  0  0  0  0  0  0  0  0  0
   -0.2939   24.5995  -27.5453 H   0  0  0  0  0  0  0  0  0  0  0  0
   -1.3936   25.7085  -29.4920 H   0  0  0  0  0  0  0  0  0  0  0  0
   -3.6270   23.0790  -31.1690 H   0  0  0  0  0  0  0  0  0  0  0  0
   -1.4518   21.8124  -32.3364 H   0  0  0  0  0  0  0  0  0  0  0  0
   -0.8457   19.8331  -33.7799 H   0  0  0  0  0  0  0  0  0  0  0  0
   -2.6315   18.2768  -34.5951 H   0  0  0  0  0  0  0  0  0  0  0  0
   -5.0417   18.6740  -33.9686 H   0  0  0  0  0  0  0  0  0  0  0  0
  1  2  1  0
  2  3  1  0
  3  4  1  0
  4  5  1  0
  5  6  1  0
  6  7  1  0
  7  8  1  0
  8  9  2  0
  8 10  1  0
 10 11  1  0
 11 12  2  0
 12 13  1  0
 13 14  2  0
 14 15  1  0
 15 16  2  0
  5 17  2  0
 17 18  1  0
 18 19  2  0
 19 20  1  0
 20 21  2  0
 21 22  1  0
 22 23  2  0
 23  4  1  0
 16 11  1  0
 23 18  1  0
  1 24  1  0
  1 25  1  0
  1 26  1  0
  2 27  1  0
  2 28  1  0
  3 29  1  0
  3 30  1  0
  7 31  1  0
  7 32  1  0
 12 33  1  0
 13 34  1  0
 14 35  1  0
 15 36  1  0
 16 37  1  0
 17 38  1  0
 19 39  1  0
 20 40  1  0
 21 41  1  0
 22 42  1  0
M  CHG  2  10  -1  17   1
M  END
>  <UniqueID>  (11) 
11

>  <SMILES>  (11) 
CCCn1c(SCC(=O)[N-]c2ccccc2)[nH+]c2ccccc21

>  <Energy>  (11) 
78.17535507455185

>  <Genealogy>  (11) 
CCCn1c(SCC(=O)[N-]c2ccccc2)[nH+]c2ccccc21 (protonated)
CCCn1c(SCC(=O)[N-]c2ccccc2)[nH+]c2ccccc21 (3D coordinates assigned)
CCCn1c(SCC(=O)[N-]c2ccccc2)[nH+]c2ccccc21 (optimized conformer: 78.17535507455185 kcal/mol)

>  <smiles>  (11) 
CCCn1c(SCC(=O)Nc2ccccc2)nc2ccccc21

>  <score_type>  (11) 
oracle

>  <origin>  (11) 
adg

>  <m_score__min__energy>  (11) 
-9.2400000000000002

>  <m_primary>  (11) 
energy

$$$$
11:0
     RDKit          3D

 72 77  0  0  0  0  0  0  0  0999 V2000
   -3.5268   22.1286  -27.8237 H   0  0  0  0  0  0  0  0  0  0  0  0
   -3.3630   22.6560  -28.7750 C   0  0  0  0  0  0  0  0  0  0  0  0
   -2.2070   22.4580  -29.4220 C   0  0  0  0  0  0  0  0  0  0  0  0
   -2.1743   22.6181  -30.5098 H   0  0  0  0  0  0  0  0  0  0  0  0
   -0.9730   22.0320  -28.7270 C   0  0  0  0  0  0  0  0  0  0  0  0
   -0.4520   20.7840  -28.8300 N   0  0  0  0  0  0  0  0  0  0  0  0
   -0.8840   19.6880  -29.7030 C   0  0  0  0  0  0  0  0  0  0  0  0
   -0.5861   18.7273  -29.2578 H   0  0  0  0  0  0  0  0  0  0  0  0
   -1.9779   19.7214  -29.8140 H   0  0  0  0  0  0  0  0  0  0  0  0
   -0.2420   19.8320  -31.0570 C   0  0  0  0  0  0  0  0  0  0  0  0
   -0.2220   21.0710  -31.7010 C   0  0  0  0  0  0  0  0  0  0  0  0
   -0.5996   21.9658  -31.1846 H   0  0  0  0  0  0  0  0  0  0  0  0
    0.2770   21.1730  -32.9990 C   0  0  0  0  0  0  0  0  0  0  0  0
    0.3192   22.1502  -33.5023 H   0  0  0  0  0  0  0  0  0  0  0  0
    0.7220   20.0250  -33.6530 C   0  0  0  0  0  0  0  0  0  0  0  0
    1.1136   20.0988  -34.6783 H   0  0  0  0  0  0  0  0  0  0  0  0
    0.6760   18.8100  -33.0320 N   0  0  0  0  0  0  0  0  0  0  0  0
    1.0160   17.5950  -33.7890 C   0  0  0  0  0  0  0  0  0  0  0  0
    2.0850   17.6185  -34.0473 H   0  0  0  0  0  0  0  0  0  0  0  0
    0.7916   16.7170  -33.1654 H   0  0  0  0  0  0  0  0  0  0  0  0
    0.1860   17.5060  -35.0830 C   0  0  0  0  0  0  0  0  0  0  0  0
   -0.1709   18.5126  -35.3464 H   0  0  0  0  0  0  0  0  0  0  0  0
    0.8305   17.0941  -35.8735 H   0  0  0  0  0  0  0  0  0  0  0  0
   -1.0250   16.5760  -34.9240 C   0  0  0  0  0  0  0  0  0  0  0  0
   -1.2443   16.1045  -35.8933 H   0  0  0  0  0  0  0  0  0  0  0  0
   -0.7815   15.8157  -34.1673 H   0  0  0  0  0  0  0  0  0  0  0  0
   -2.2390   17.3330  -34.4620 C   0  0  0  0  0  0  0  0  0  0  0  0
   -2.1680   18.7100  -34.2220 C   0  0  0  0  0  0  0  0  0  0  0  0
   -1.2218   19.2460  -34.3876 H   0  0  0  0  0  0  0  0  0  0  0  0
   -3.2930   19.4080  -33.7730 C   0  0  0  0  0  0  0  0  0  0  0  0
   -3.2279   20.4922  -33.5990 H   0  0  0  0  0  0  0  0  0  0  0  0
   -4.5110   18.7350  -33.5410 C   0  0  0  0  0  0  0  0  0  0  0  0
   -5.6980   19.4840  -33.0450 C   0  0  0  0  0  0  0  0  0  0  0  0
   -7.0750   18.7620  -32.3620 S   0  0  0  0  0  0  0  0  0  0  0  0
   -7.8510   20.2300  -32.1330 C   0  0  0  0  0  0  0  0  0  0  0  0
   -9.1050   20.4780  -31.5810 C   0  0  0  0  0  0  0  0  0  0  0  0
   -9.7411   19.6534  -31.2268 H   0  0  0  0  0  0  0  0  0  0  0  0
   -9.5330   21.8110  -31.4900 C   0  0  0  0  0  0  0  0  0  0  0  0
  -10.5190   22.0401  -31.0595 H   0  0  0  0  0  0  0  0  0  0  0  0
   -8.7090   22.8570  -31.9460 C   0  0  0  0  0  0  0  0  0  0  0  0
   -9.0530   23.8987  -31.8656 H   0  0  0  0  0  0  0  0  0  0  0  0
   -7.4480   22.5780  -32.5040 C   0  0  0  0  0  0  0  0  0  0  0  0
   -6.8030   23.3917  -32.8671 H   0  0  0  0  0  0  0  0  0  0  0  0
   -7.0310   21.2470  -32.5880 C   0  0  0  0  0  0  0  0  0  0  0  0
   -5.8390   20.8370  -33.0950 N   0  0  0  0  0  0  0  0  0  0  0  0
   -5.1320   21.5010  -33.4760 H   0  0  0  0  0  0  0  0  0  0  0  0
   -4.5730   17.3470  -33.7820 C   0  0  0  0  0  0  0  0  0  0  0  0
   -5.5156   16.8049  -33.6158 H   0  0  0  0  0  0  0  0  0  0  0  0
   -3.4460   16.6570  -34.2300 C   0  0  0  0  0  0  0  0  0  0  0  0
   -3.5046   15.5723  -34.4029 H   0  0  0  0  0  0  0  0  0  0  0  0
    0.2260   18.7050  -31.7430 C   0  0  0  0  0  0  0  0  0  0  0  0
    0.2323   17.7258  -31.2418 H   0  0  0  0  0  0  0  0  0  0  0  0
    0.6690   20.7910  -28.0820 C   0  0  0  0  0  0  0  0  0  0  0  0
    1.3585   19.9440  -27.9507 H   0  0  0  0  0  0  0  0  0  0  0  0
    0.8070   22.0370  -27.5090 C   0  0  0  0  0  0  0  0  0  0  0  0
    1.6240   22.3509  -26.8427 H   0  0  0  0  0  0  0  0  0  0  0  0
   -0.2290   22.8070  -27.9030 N   0  0  0  0  0  0  0  0  0  0  0  0
   -0.4580   24.1960  -27.5010 C   0  0  0  0  0  0  0  0  0  0  0  0
   -0.4690   24.2629  -26.4031 H   0  0  0  0  0  0  0  0  0  0  0  0
    0.3477   24.8305  -27.8989 H   0  0  0  0  0  0  0  0  0  0  0  0
   -1.4247   24.5383  -27.8989 H   0  0  0  0  0  0  0  0  0  0  0  0
   -4.4350   23.5530  -29.2790 C   0  0  0  0  0  0  0  0  0  0  0  0
   -5.7800   23.1290  -29.3550 C   0  0  0  0  0  0  0  0  0  0  0  0
   -6.0501   22.1131  -29.0310 H   0  0  0  0  0  0  0  0  0  0  0  0
   -6.7710   23.9880  -29.8380 C   0  0  0  0  0  0  0  0  0  0  0  0
   -7.8160   23.6479  -29.8854 H   0  0  0  0  0  0  0  0  0  0  0  0
   -6.4390   25.2750  -30.2600 C   0  0  0  0  0  0  0  0  0  0  0  0
   -7.2231   25.9545  -30.6253 H   0  0  0  0  0  0  0  0  0  0  0  0
   -5.1080   25.7000  -30.2180 C   0  0  0  0  0  0  0  0  0  0  0  0
   -4.8458   26.7110  -30.5631 H   0  0  0  0  0  0  0  0  0  0  0  0
   -4.1060   24.8460  -29.7390 C   0  0  0  0  0  0  0  0  0  0  0  0
   -2.7900   25.2970  -29.7180 O   0  0  0  0  0  0  0  0  0  0  0  0
  1  2  1  0
  2  3  2  0
  3  4  1  0
  3  5  1  0
  5  6  1  0
  6  7  1  0
  7  8  1  0
  7  9  1  0
  7 10  1  0
 10 11  2  0
 11 12  1  0
 11 13  1  0
 13 14  1  0
 13 15  2  0
 15 16  1  0
 15 17  1  0
 17 18  1  0
 18 19  1  0
 18 20  1  0
 18 21  1  0
 21 22  1  0
 21 23  1  0
 21 24  1  0
 24 25  1  0
 24 26  1  0
 24 27  1  0
 27 28  2  0
 28 29  1  0
 28 30  1  0
 30 31  1  0
 30 32  2  0
 32 33  1  0
 33 34  1  0
 34 35  1  0
 35 36  2  0
 36 37  1  0
 36 38  1  0
 38 39  1  0
 38 40  2  0
 40 41  1  0
 40 42  1  0
 42 43  1  0
 42 44  2  0
 44 45  1  0
 45 46  1  0
 32 47  1  0
 47 48  1  0
 47 49  2  0
 49 50  1  0
 17 51  2  0
 51 52  1  0
  6 53  1  0
 53 54  1  0
 53 55  2  0
 55 56  1  0
 55 57  1  0
 57 58  1  0
 58 59  1  0
 58 60  1  0
 58 61  1  0
  2 62  1  0
 62 63  2  0
 63 64  1  0
 63 65  1  0
 65 66  1  0
 65 67  2  0
 67 68  1  0
 67 69  1  0
 69 70  1  0
 69 71  2  0
 71 72  1  0
 57  5  2  0
 71 62  1  0
 51 10  1  0
 49 27  1  0
 45 33  2  0
 44 35  1  0
M  CHG  4  17   1  45   1  57   1  72  -1
M  END
>  <UniqueID>  (12) 
12

>  <SMILES>  (12) 
C[n+]1ccn(Cc2ccc[n+](CCCc3ccc(-c4[nH+]c5ccccc5s4)cc3)c2)c1/C=C/c1ccccc1[O-]

>  <Energy>  (12) 
144.46512289228482

>  <Genealogy>  (12) 
C[n+]1ccn(Cc2ccc[n+](CCCc3ccc(-c4[nH+]c5ccccc5s4)cc3)c2)c1C=Cc1ccccc1[O-] (protonated)
C[n+]1ccn(Cc2ccc[n+](CCCc3ccc(-c4[nH+]c5ccccc5s4)cc3)c2)c1/C=C/c1ccccc1[O-] (cis-trans isomerization)
C[n+]1ccn(Cc2ccc[n+](CCCc3ccc(-c4[nH+]c5ccccc5s4)cc3)c2)c1/C=C/c1ccccc1[O-] (3D coordinates assigned)
C[n+]1ccn(Cc2ccc[n+](CCCc3ccc(-c4[nH+]c5ccccc5s4)cc3)c2)c1/C=C/c1ccccc1[O-] (optimized conformer: 144.46512289228482 kcal/mol)

>  <smiles>  (12) 
C[n+]1ccn(Cc2ccc[n+](CCCc3ccc(-c4nc5ccccc5s4)cc3)c2)c1C=Cc1ccccc1O

>  <score_type>  (12) 
oracle

>  <origin>  (12) 
adg

>  <m_score__min__energy>  (12) 
-12.56

>  <m_primary>  (12) 
energy

$$$$
12:0
     RDKit          3D

 65 68  0  0  0  0  0  0  0  0999 V2000
   -3.8900   24.1340  -28.4510 C   0  0  0  0  0  0  0  0  0  0  0  0
   -3.0570   24.3590  -29.7060 C   0  0  0  0  0  0  0  0  0  0  0  0
   -3.9350   24.5920  -30.8560 N   0  0  0  0  0  0  0  0  0  0  0  0
   -5.1370   25.3280  -30.4430 C   0  0  0  0  0  0  0  0  0  0  0  0
   -6.3990   24.6070  -30.9320 C   0  0  0  0  0  0  0  0  0  0  0  0
   -6.2110   23.0760  -30.9370 C   0  0  0  0  0  0  0  0  0  0  0  0
   -5.5370   22.6090  -32.1660 N   0  0  0  0  0  0  0  0  0  0  0  0
   -5.6580   21.1660  -32.3440 C   0  0  0  0  0  0  0  0  0  0  0  0
   -6.9530   20.5510  -32.3670 C   0  0  0  0  0  0  0  0  0  0  0  0
   -8.1550   21.2810  -32.1570 C   0  0  0  0  0  0  0  0  0  0  0  0
   -9.4000   20.6580  -32.1930 C   0  0  0  0  0  0  0  0  0  0  0  0
   -9.4950   19.3010  -32.4410 C   0  0  0  0  0  0  0  0  0  0  0  0
   -8.3450   18.5560  -32.6660 C   0  0  0  0  0  0  0  0  0  0  0  0
   -7.0590   19.1540  -32.6250 C   0  0  0  0  0  0  0  0  0  0  0  0
   -5.9340   18.4110  -32.9020 N   0  0  0  0  0  0  0  0  0  0  0  0
   -6.0000   16.9310  -32.8960 C   0  0  0  0  0  0  0  0  0  0  0  0
   -4.7370   19.0370  -33.1480 C   0  0  0  0  0  0  0  0  0  0  0  0
   -3.7130   18.3710  -33.8620 C   0  0  0  0  0  0  0  0  0  0  0  0
   -2.4640   18.9470  -34.0280 C   0  0  0  0  0  0  0  0  0  0  0  0
   -2.1810   20.1570  -33.4180 C   0  0  0  0  0  0  0  0  0  0  0  0
   -3.1640   20.8560  -32.7070 C   0  0  0  0  0  0  0  0  0  0  0  0
   -2.7160   21.8820  -31.8110 N   0  0  0  0  0  0  0  0  0  0  0  0
   -1.3660   21.9140  -31.2460 C   0  0  0  0  0  0  0  0  0  0  0  0
   -0.9510   20.5270  -30.7420 C   0  0  0  0  0  0  0  0  0  0  0  0
   -1.4980   20.2540  -29.3670 C   0  0  0  0  0  0  0  0  0  0  0  0
   -0.8350   19.3720  -28.4990 C   0  0  0  0  0  0  0  0  0  0  0  0
   -1.3110   19.1710  -27.1990 C   0  0  0  0  0  0  0  0  0  0  0  0
   -2.4410   19.8580  -26.7520 C   0  0  0  0  0  0  0  0  0  0  0  0
   -3.0990   20.7460  -27.6060 C   0  0  0  0  0  0  0  0  0  0  0  0
   -2.6330   20.9400  -28.9120 C   0  0  0  0  0  0  0  0  0  0  0  0
   -4.5150   20.3700  -32.6990 C   0  0  0  0  0  0  0  0  0  0  0  0
   -3.2655   24.3027  -27.5613 H   0  0  0  0  0  0  0  0  0  0  0  0
   -4.7373   24.8355  -28.4426 H   0  0  0  0  0  0  0  0  0  0  0  0
   -4.2689   23.1013  -28.4426 H   0  0  0  0  0  0  0  0  0  0  0  0
   -2.4079   25.2350  -29.5600 H   0  0  0  0  0  0  0  0  0  0  0  0
   -2.4426   23.4666  -29.8961 H   0  0  0  0  0  0  0  0  0  0  0  0
   -3.4170   25.1870  -31.5480 H   0  0  0  0  0  0  0  0  0  0  0  0
   -5.1609   25.3965  -29.3454 H   0  0  0  0  0  0  0  0  0  0  0  0
   -5.1079   26.3354  -30.8838 H   0  0  0  0  0  0  0  0  0  0  0  0
   -7.2366   24.8618  -30.2661 H   0  0  0  0  0  0  0  0  0  0  0  0
   -6.6042   24.9323  -31.9626 H   0  0  0  0  0  0  0  0  0  0  0  0
   -5.6026   22.7893  -30.0666 H   0  0  0  0  0  0  0  0  0  0  0  0
   -7.2063   22.6096  -30.8951 H   0  0  0  0  0  0  0  0  0  0  0  0
   -4.5570   22.9510  -32.1890 H   0  0  0  0  0  0  0  0  0  0  0  0
   -5.9100   23.1210  -32.9820 H   0  0  0  0  0  0  0  0  0  0  0  0
   -8.1003   22.3621  -31.9617 H   0  0  0  0  0  0  0  0  0  0  0  0
  -10.3125   21.2484  -32.0233 H   0  0  0  0  0  0  0  0  0  0  0  0
  -10.4803   18.8123  -32.4600 H   0  0  0  0  0  0  0  0  0  0  0  0
   -8.4328   17.4807  -32.8803 H   0  0  0  0  0  0  0  0  0  0  0  0
   -6.0161   16.5689  -31.8574 H   0  0  0  0  0  0  0  0  0  0  0  0
   -6.9137   16.6026  -33.4131 H   0  0  0  0  0  0  0  0  0  0  0  0
   -5.1192   16.5226  -33.4131 H   0  0  0  0  0  0  0  0  0  0  0  0
   -3.9121   17.3786  -34.2928 H   0  0  0  0  0  0  0  0  0  0  0  0
   -1.7010   18.4454  -34.6414 H   0  0  0  0  0  0  0  0  0  0  0  0
   -1.1669   20.5764  -33.4931 H   0  0  0  0  0  0  0  0  0  0  0  0
   -3.3750   22.6600  -31.5820 H   0  0  0  0  0  0  0  0  0  0  0  0
   -0.6585   22.2418  -32.0219 H   0  0  0  0  0  0  0  0  0  0  0  0
   -1.3567   22.6137  -30.3973 H   0  0  0  0  0  0  0  0  0  0  0  0
   -1.3336   19.7649  -31.4368 H   0  0  0  0  0  0  0  0  0  0  0  0
    0.1472   20.4929  -30.6898 H   0  0  0  0  0  0  0  0  0  0  0  0
    0.0625   18.8368  -28.8425 H   0  0  0  0  0  0  0  0  0  0  0  0
   -0.7937   18.4700  -26.5275 H   0  0  0  0  0  0  0  0  0  0  0  0
   -2.8126   19.7002  -25.7288 H   0  0  0  0  0  0  0  0  0  0  0  0
   -3.9847   21.2938  -27.2520 H   0  0  0  0  0  0  0  0  0  0  0  0
   -3.1596   21.6336  -29.5840 H   0  0  0  0  0  0  0  0  0  0  0  0
  1  2  1  0
  2  3  1  0
  3  4  1  0
  4  5  1  0
  5  6  1  0
  6  7  1  0
  7  8  1  0
  8  9  2  0
  9 10  1  0
 10 11  2  0
 11 12  1  0
 12 13  2  0
 13 14  1  0
 14 15  2  0
 15 16  1  0
 15 17  1  0
 17 18  2  0
 18 19  1  0
 19 20  2  0
 20 21  1  0
 21 22  1  0
 22 23  1  0
 23 24  1  0
 24 25  1  0
 25 26  2  0
 26 27  1  0
 27 28  2  0
 28 29  1  0
 29 30  2  0
 21 31  2  0
 31  8  1  0
 14  9  1  0
 31 17  1  0
 30 25  1  0
  1 32  1  0
  1 33  1  0
  1 34  1  0
  2 35  1  0
  2 36  1  0
  3 37  1  0
  4 38  1  0
  4 39  1  0
  5 40  1  0
  5 41  1  0
  6 42  1  0
  6 43  1  0
  7 44  1  0
  7 45  1  0
 10 46  1  0
 11 47  1  0
 12 48  1  0
 13 49  1  0
 16 50  1  0
 16 51  1  0
 16 52  1  0
 18 53  1  0
 19 54  1  0
 20 55  1  0
 22 56  1  0
 23 57  1  0
 23 58  1  0
 24 59  1  0
 24 60  1  0
 26 61  1  0
 27 62  1  0
 28 63  1  0
 29 64  1  0
 30 65  1  0
M  CHG  2   7   1  15   1
M  END
>  <UniqueID>  (13) 
13

>  <SMILES>  (13) 
CCNCCC[NH2+]c1c2ccccc2[n+](C)c2cccc(NCCc3ccccc3)c12

>  <Energy>  (13) 
103.66941789198145

>  <Genealogy>  (13) 
CCNCCC[NH2+]c1c2ccccc2[n+](C)c2cccc(NCCc3ccccc3)c12 (protonated)
CCNCCC[NH2+]c1c2ccccc2[n+](C)c2cccc(NCCc3ccccc3)c12 (3D coordinates assigned)
CCNCCC[NH2+]c1c2ccccc2[n+](C)c2cccc(NCCc3ccccc3)c12 (optimized conformer: 103.66941789198145 kcal/mol)

>  <smiles>  (13) 
CCNCCCNc1c2ccccc2[n+](C)c2cccc(NCCc3ccccc3)c12

>  <score_type>  (13) 
oracle

>  <origin>  (13) 
adg

>  <m_score__min__energy>  (13) 
-9.6699999999999999

>  <m_primary>  (13) 
energy

$$$$
13:0
     RDKit          3D

 76 80  0  0  0  0  0  0  0  0999 V2000
   -6.2890   25.2240  -29.7670 C   0  0  0  0  0  0  0  0  0  0  0  0
   -5.1840   25.3330  -30.8160 C   0  0  0  0  0  0  0  0  0  0  0  0
   -4.1030   24.3620  -30.5390 N   0  0  0  0  0  0  0  0  0  0  0  0
   -3.3310   24.5500  -29.2850 C   0  0  0  0  0  0  0  0  0  0  0  0
   -3.8430   23.7450  -28.0780 C   0  0  0  0  0  0  0  0  0  0  0  0
   -4.4480   22.9570  -30.8570 C   0  0  0  0  0  0  0  0  0  0  0  0
   -3.6880   22.3910  -32.0660 C   0  0  0  0  0  0  0  0  0  0  0  0
   -4.6220   21.9250  -33.0920 N   0  0  0  0  0  0  0  0  0  0  0  0
   -5.6560   20.9910  -32.7480 C   0  0  0  0  0  0  0  0  0  0  0  0
   -6.9250   21.4830  -32.3960 C   0  0  0  0  0  0  0  0  0  0  0  0
   -7.1420   22.8710  -32.2420 C   0  0  0  0  0  0  0  0  0  0  0  0
   -8.4070   23.3670  -31.9370 C   0  0  0  0  0  0  0  0  0  0  0  0
   -9.4790   22.4950  -31.7990 C   0  0  0  0  0  0  0  0  0  0  0  0
   -9.2900   21.1210  -31.9450 C   0  0  0  0  0  0  0  0  0  0  0  0
   -8.0050   20.5820  -32.2160 C   0  0  0  0  0  0  0  0  0  0  0  0
   -7.8010   19.2220  -32.3450 N   0  0  0  0  0  0  0  0  0  0  0  0
   -8.8570   18.2750  -31.9190 C   0  0  0  0  0  0  0  0  0  0  0  0
   -6.6000   18.7440  -32.8350 C   0  0  0  0  0  0  0  0  0  0  0  0
   -6.4690   17.4030  -33.2710 C   0  0  0  0  0  0  0  0  0  0  0  0
   -5.2430   16.8960  -33.6800 C   0  0  0  0  0  0  0  0  0  0  0  0
   -4.1090   17.6930  -33.6360 C   0  0  0  0  0  0  0  0  0  0  0  0
   -4.1900   19.0390  -33.2450 C   0  0  0  0  0  0  0  0  0  0  0  0
   -2.9710   19.7770  -33.0340 N   0  0  0  0  0  0  0  0  0  0  0  0
   -1.7610   19.5530  -33.8220 C   0  0  0  0  0  0  0  0  0  0  0  0
   -0.8560   20.7880  -33.7880 C   0  0  0  0  0  0  0  0  0  0  0  0
    0.2950   20.6390  -32.7820 C   0  0  0  0  0  0  0  0  0  0  0  0
   -0.1920   20.7090  -31.3970 N   0  0  0  0  0  0  0  0  0  0  0  0
   -0.7810   21.8590  -30.9430 C   0  0  0  0  0  0  0  0  0  0  0  0
   -1.3030   21.9320  -29.6520 C   0  0  0  0  0  0  0  0  0  0  0  0
   -1.2160   20.8200  -28.8100 C   0  0  0  0  0  0  0  0  0  0  0  0
   -1.7350   20.8620  -27.5080 C   0  0  0  0  0  0  0  0  0  0  0  0
   -1.6340   19.7410  -26.6770 C   0  0  0  0  0  0  0  0  0  0  0  0
   -1.0130   18.5770  -27.1390 C   0  0  0  0  0  0  0  0  0  0  0  0
   -0.4920   18.5250  -28.4350 C   0  0  0  0  0  0  0  0  0  0  0  0
   -0.5940   19.6430  -29.2790 C   0  0  0  0  0  0  0  0  0  0  0  0
   -0.0880   19.6120  -30.5870 C   0  0  0  0  0  0  0  0  0  0  0  0
   -5.4660   19.6010  -32.9340 C   0  0  0  0  0  0  0  0  0  0  0  0
   -5.8455   25.2678  -28.7613 H   0  0  0  0  0  0  0  0  0  0  0  0
   -6.9968   26.0567  -29.8921 H   0  0  0  0  0  0  0  0  0  0  0  0
   -6.8205   24.2691  -29.8921 H   0  0  0  0  0  0  0  0  0  0  0  0
   -5.6081   25.1275  -31.8100 H   0  0  0  0  0  0  0  0  0  0  0  0
   -4.7639   26.3491  -30.7831 H   0  0  0  0  0  0  0  0  0  0  0  0
   -2.2900   24.2512  -29.4774 H   0  0  0  0  0  0  0  0  0  0  0  0
   -3.4387   25.6107  -29.0144 H   0  0  0  0  0  0  0  0  0  0  0  0
   -3.5284   24.2397  -27.1472 H   0  0  0  0  0  0  0  0  0  0  0  0
   -4.9412   23.6919  -28.1119 H   0  0  0  0  0  0  0  0  0  0  0  0
   -3.4255   22.7279  -28.1119 H   0  0  0  0  0  0  0  0  0  0  0  0
   -4.2159   22.3357  -29.9795 H   0  0  0  0  0  0  0  0  0  0  0  0
   -5.5175   22.9397  -31.1138 H   0  0  0  0  0  0  0  0  0  0  0  0
   -3.0480   23.1782  -32.4910 H   0  0  0  0  0  0  0  0  0  0  0  0
   -3.0758   21.5402  -31.7323 H   0  0  0  0  0  0  0  0  0  0  0  0
   -4.3930   22.0510  -34.1050 H   0  0  0  0  0  0  0  0  0  0  0  0
   -6.3005   23.5688  -32.3647 H   0  0  0  0  0  0  0  0  0  0  0  0
   -8.5570   24.4488  -31.8055 H   0  0  0  0  0  0  0  0  0  0  0  0
  -10.4808   22.8895  -31.5737 H   0  0  0  0  0  0  0  0  0  0  0  0
  -10.1512   20.4435  -31.8485 H   0  0  0  0  0  0  0  0  0  0  0  0
   -8.8964   18.2397  -30.8203 H   0  0  0  0  0  0  0  0  0  0  0  0
   -9.8291   18.6096  -32.3102 H   0  0  0  0  0  0  0  0  0  0  0  0
   -8.6298   17.2723  -32.3102 H   0  0  0  0  0  0  0  0  0  0  0  0
   -7.3549   16.7511  -33.2859 H   0  0  0  0  0  0  0  0  0  0  0  0
   -5.1709   15.8591  -34.0400 H   0  0  0  0  0  0  0  0  0  0  0  0
   -3.1336   17.2652  -33.9109 H   0  0  0  0  0  0  0  0  0  0  0  0
   -2.8610   20.2680  -32.1180 H   0  0  0  0  0  0  0  0  0  0  0  0
   -1.2142   18.6932  -33.4075 H   0  0  0  0  0  0  0  0  0  0  0  0
   -2.0499   19.3551  -34.8648 H   0  0  0  0  0  0  0  0  0  0  0  0
   -0.4316   20.9434  -34.7908 H   0  0  0  0  0  0  0  0  0  0  0  0
   -1.4687   21.6459  -33.4741 H   0  0  0  0  0  0  0  0  0  0  0  0
    0.7855   19.6672  -32.9404 H   0  0  0  0  0  0  0  0  0  0  0  0
    1.0043   21.4644  -32.9421 H   0  0  0  0  0  0  0  0  0  0  0  0
   -0.8431   22.7356  -31.6046 H   0  0  0  0  0  0  0  0  0  0  0  0
   -1.7798   22.8582  -29.2989 H   0  0  0  0  0  0  0  0  0  0  0  0
   -2.2219   21.7770  -27.1397 H   0  0  0  0  0  0  0  0  0  0  0  0
   -2.0445   19.7757  -25.6571 H   0  0  0  0  0  0  0  0  0  0  0  0
   -0.9341   17.6993  -26.4807 H   0  0  0  0  0  0  0  0  0  0  0  0
   -0.0019   17.6080  -28.7941 H   0  0  0  0  0  0  0  0  0  0  0  0
    0.3959   18.6988  -30.9638 H   0  0  0  0  0  0  0  0  0  0  0  0
  1  2  1  0
  2  3  1  0
  3  4  1  0
  4  5  1  0
  3  6  1  0
  6  7  1  0
  7  8  1  0
  8  9  1  0
  9 10  2  0
 10 11  1  0
 11 12  2  0
 12 13  1  0
 13 14  2  0
 14 15  1  0
 15 16  2  0
 16 17  1  0
 16 18  1  0
 18 19  2  0
 19 20  1  0
 20 21  2  0
 21 22  1  0
 22 23  1  0
 23 24  1  0
 24 25  1  0
 25 26  1  0
 26 27  1  0
 27 28  2  0
 28 29  1  0
 29 30  2  0
 30 31  1  0
 31 32  2  0
 32 33  1  0
 33 34  2  0
 34 35  1  0
 35 36  2  0
 22 37  2  0
 37  9  1  0
 15 10  1  0
 37 18  1  0
 36 27  1  0
 35 30  1  0
  1 38  1  0
  1 39  1  0
  1 40  1  0
  2 41  1  0
  2 42  1  0
  4 43  1  0
  4 44  1  0
  5 45  1  0
  5 46  1  0
  5 47  1  0
  6 48  1  0
  6 49  1  0
  7 50  1  0
  7 51  1  0
  8 52  1  0
 11 53  1  0
 12 54  1  0
 13 55  1  0
 14 56  1  0
 17 57  1  0
 17 58  1  0
 17 59  1  0
 19 60  1  0
 20 61  1  0
 21 62  1  0
 23 63  1  0
 24 64  1  0
 24 65  1  0
 25 66  1  0
 25 67  1  0
 26 68  1  0
 26 69  1  0
 28 70  1  0
 29 71  1  0
 31 72  1  0
 32 73  1  0
 33 74  1  0
 34 75  1  0
 36 76  1  0
M  CHG  2  16   1  27   1
M  END
>  <UniqueID>  (14) 
14

>  <SMILES>  (14) 
CCN(CC)CCNc1c2ccccc2[n+](C)c2cccc(NCCC[n+]3ccc4ccccc4c3)c12

>  <Energy>  (14) 
116.63918349543707

>  <Genealogy>  (14) 
CCN(CC)CCNc1c2ccccc2[n+](C)c2cccc(NCCC[n+]3ccc4ccccc4c3)c12 (3D coordinates assigned)
CCN(CC)CCNc1c2ccccc2[n+](C)c2cccc(NCCC[n+]3ccc4ccccc4c3)c12 (optimized conformer: 116.63918349543707 kcal/mol)

>  <smiles>  (14) 
CCN(CC)CCNc1c2ccccc2[n+](C)c2cccc(NCCC[n+]3ccc4ccccc4c3)c12

>  <score_type>  (14) 
oracle

>  <origin>  (14) 
adg

>  <m_score__min__energy>  (14) 
-10.109999999999999

>  <m_primary>  (14) 
energy

$$$$
14:0
     RDKit          3D

 65 67  0  0  0  0  0  0  0  0999 V2000
   -3.4510   24.5560  -26.7750 C   0  0  0  0  0  0  0  0  0  0  0  0
   -3.1720   24.3230  -28.2700 C   0  0  0  0  0  0  0  0  0  0  0  0
   -3.8410   23.1040  -28.8550 N   0  0  0  0  0  0  0  0  0  0  0  0
   -3.8560   21.9950  -27.8390 C   0  0  0  0  0  0  0  0  0  0  0  0
   -2.6410   21.0580  -27.8260 C   0  0  0  0  0  0  0  0  0  0  0  0
   -5.2470   23.3940  -29.3390 C   0  0  0  0  0  0  0  0  0  0  0  0
   -5.5920   24.8520  -29.7050 C   0  0  0  0  0  0  0  0  0  0  0  0
   -3.0870   22.5890  -30.0590 C   0  0  0  0  0  0  0  0  0  0  0  0
   -3.8550   21.6230  -31.0090 C   0  0  0  0  0  0  0  0  0  0  0  0
   -3.4370   21.7880  -32.4880 C   0  0  0  0  0  0  0  0  0  0  0  0
   -4.5850   21.8620  -33.4160 N   0  0  0  0  0  0  0  0  0  0  0  0
   -5.6950   20.9930  -33.0450 C   0  0  0  0  0  0  0  0  0  0  0  0
   -5.6590   19.5780  -33.2300 C   0  0  0  0  0  0  0  0  0  0  0  0
   -6.8180   18.8010  -32.8950 C   0  0  0  0  0  0  0  0  0  0  0  0
   -7.9220   19.4090  -32.3190 N   0  0  0  0  0  0  0  0  0  0  0  0
   -9.1100   18.6160  -31.9480 C   0  0  0  0  0  0  0  0  0  0  0  0
   -7.9260   20.7650  -32.1430 C   0  0  0  0  0  0  0  0  0  0  0  0
   -6.8550   21.5480  -32.4820 C   0  0  0  0  0  0  0  0  0  0  0  0
   -7.0940   22.9790  -32.1390 C   0  0  0  0  0  0  0  0  0  0  0  0
   -8.5310   23.0200  -31.6100 C   0  0  0  0  0  0  0  0  0  0  0  0
   -9.0380   21.5730  -31.5620 C   0  0  0  0  0  0  0  0  0  0  0  0
   -6.8050   17.2850  -33.0730 C   0  0  0  0  0  0  0  0  0  0  0  0
   -5.6990   16.7730  -33.9900 C   0  0  0  0  0  0  0  0  0  0  0  0
   -4.3760   17.4050  -33.5900 C   0  0  0  0  0  0  0  0  0  0  0  0
   -4.4380   18.9080  -33.8500 C   0  0  0  0  0  0  0  0  0  0  0  0
   -2.7440   23.9656  -26.1737 H   0  0  0  0  0  0  0  0  0  0  0  0
   -3.3285   25.6239  -26.5412 H   0  0  0  0  0  0  0  0  0  0  0  0
   -4.4799   24.2451  -26.5412 H   0  0  0  0  0  0  0  0  0  0  0  0
   -3.5225   25.2055  -28.8253 H   0  0  0  0  0  0  0  0  0  0  0  0
   -2.0886   24.1557  -28.3608 H   0  0  0  0  0  0  0  0  0  0  0  0
   -3.9325   22.4559  -26.8431 H   0  0  0  0  0  0  0  0  0  0  0  0
   -4.7095   21.3590  -28.1168 H   0  0  0  0  0  0  0  0  0  0  0  0
   -2.3576   20.8395  -26.7858 H   0  0  0  0  0  0  0  0  0  0  0  0
   -2.8957   20.1202  -28.3414 H   0  0  0  0  0  0  0  0  0  0  0  0
   -1.7987   21.5426  -28.3414 H   0  0  0  0  0  0  0  0  0  0  0  0
   -5.4190   22.7805  -30.2357 H   0  0  0  0  0  0  0  0  0  0  0  0
   -5.8910   23.1634  -28.4776 H   0  0  0  0  0  0  0  0  0  0  0  0
   -5.7307   25.4381  -28.7845 H   0  0  0  0  0  0  0  0  0  0  0  0
   -4.7717   25.2857  -30.2957 H   0  0  0  0  0  0  0  0  0  0  0  0
   -6.5197   24.8721  -30.2957 H   0  0  0  0  0  0  0  0  0  0  0  0
   -2.7737   23.4603  -30.6529 H   0  0  0  0  0  0  0  0  0  0  0  0
   -2.2613   21.9905  -29.6467 H   0  0  0  0  0  0  0  0  0  0  0  0
   -3.6513   20.5876  -30.6986 H   0  0  0  0  0  0  0  0  0  0  0  0
   -4.9256   21.8648  -30.9361 H   0  0  0  0  0  0  0  0  0  0  0  0
   -2.8506   22.7137  -32.5837 H   0  0  0  0  0  0  0  0  0  0  0  0
   -2.8534   20.8969  -32.7626 H   0  0  0  0  0  0  0  0  0  0  0  0
   -4.9130   22.8510  -33.4740 H   0  0  0  0  0  0  0  0  0  0  0  0
   -4.2380   21.6400  -34.3760 H   0  0  0  0  0  0  0  0  0  0  0  0
   -9.1883   18.5637  -30.8520 H   0  0  0  0  0  0  0  0  0  0  0  0
  -10.0122   19.0936  -32.3577 H   0  0  0  0  0  0  0  0  0  0  0  0
   -9.0150   17.5996  -32.3577 H   0  0  0  0  0  0  0  0  0  0  0  0
   -6.3870   23.3156  -31.3665 H   0  0  0  0  0  0  0  0  0  0  0  0
   -6.9511   23.6428  -33.0044 H   0  0  0  0  0  0  0  0  0  0  0  0
   -8.5491   23.4593  -30.6017 H   0  0  0  0  0  0  0  0  0  0  0  0
   -9.1692   23.6361  -32.2605 H   0  0  0  0  0  0  0  0  0  0  0  0
   -9.2400   21.2665  -30.5251 H   0  0  0  0  0  0  0  0  0  0  0  0
   -9.9807   21.4428  -32.1137 H   0  0  0  0  0  0  0  0  0  0  0  0
   -6.6745   16.8225  -32.0835 H   0  0  0  0  0  0  0  0  0  0  0  0
   -7.7598   17.0141  -33.5473 H   0  0  0  0  0  0  0  0  0  0  0  0
   -5.6249   15.6792  -33.8998 H   0  0  0  0  0  0  0  0  0  0  0  0
   -5.9330   17.0401  -35.0311 H   0  0  0  0  0  0  0  0  0  0  0  0
   -4.1903   17.2240  -32.5210 H   0  0  0  0  0  0  0  0  0  0  0  0
   -3.5612   16.9613  -34.1809 H   0  0  0  0  0  0  0  0  0  0  0  0
   -3.5339   19.3725  -33.4296 H   0  0  0  0  0  0  0  0  0  0  0  0
   -4.5080   19.0474  -34.9389 H   0  0  0  0  0  0  0  0  0  0  0  0
  1  2  1  0
  2  3  1  0
  3  4  1  0
  4  5  1  0
  3  6  1  0
  6  7  1  0
  3  8  1  0
  8  9  1  0
  9 10  1  0
 10 11  1  0
 11 12  1  0
 12 13  2  0
 13 14  1  0
 14 15  2  0
 15 16  1  0
 15 17  1  0
 17 18  2  0
 18 19  1  0
 19 20  1  0
 20 21  1  0
 14 22  1  0
 22 23  1  0
 23 24  1  0
 24 25  1  0
 18 12  1  0
 25 13  1  0
 21 17  1  0
  1 26  1  0
  1 27  1  0
  1 28  1  0
  2 29  1  0
  2 30  1  0
  4 31  1  0
  4 32  1  0
  5 33  1  0
  5 34  1  0
  5 35  1  0
  6 36  1  0
  6 37  1  0
  7 38  1  0
  7 39  1  0
  7 40  1  0
  8 41  1  0
  8 42  1  0
  9 43  1  0
  9 44  1  0
 10 45  1  0
 10 46  1  0
 11 47  1  0
 11 48  1  0
 16 49  1  0
 16 50  1  0
 16 51  1  0
 19 52  1  0
 19 53  1  0
 20 54  1  0
 20 55  1  0
 21 56  1  0
 21 57  1  0
 22 58  1  0
 22 59  1  0
 23 60  1  0
 23 61  1  0
 24 62  1  0
 24 63  1  0
 25 64  1  0
 25 65  1  0
M  CHG  3   3   1  11   1  15   1
M  END
>  <UniqueID>  (15) 
15

>  <SMILES>  (15) 
CC[N+](CC)(CC)CCC[NH2+]c1c2c([n+](C)c3c1CCC3)CCCC2

>  <Energy>  (15) 
102.94149083501935

>  <Genealogy>  (15) 
CC[N+](CC)(CC)CCC[NH2+]c1c2c([n+](C)c3c1CCC3)CCCC2 (protonated)
CC[N+](CC)(CC)CCC[NH2+]c1c2c([n+](C)c3c1CCC3)CCCC2 (3D coordinates assigned)
CC[N+](CC)(CC)CCC[NH2+]c1c2c([n+](C)c3c1CCC3)CCCC2 (nonaromatic ring conformer: 102.94149083501935 kcal/mol)

>  <smiles>  (15) 
CC[N+](CC)(CC)CCCNc1c2c([n+](C)c3c1CCC3)CCCC2

>  <score_type>  (15) 
oracle

>  <origin>  (15) 
adg

>  <m_score__min__energy>  (15) 
-6.6900000000000004

>  <m_primary>  (15) 
energy

$$$$
15:0
     RDKit          3D

 51 54  0  0  0  0  0  0  0  0999 V2000
   -6.1110   25.2470  -29.4490 C   0  0  0  0  0  0  0  0  0  0  0  0
   -5.5080   25.4270  -30.8460 C   0  0  0  0  0  0  0  0  0  0  0  0
   -4.4540   24.4380  -31.1320 N   0  0  0  0  0  0  0  0  0  0  0  0
   -4.3630   23.3910  -30.1020 C   0  0  0  0  0  0  0  0  0  0  0  0
   -3.7380   22.1230  -30.6970 C   0  0  0  0  0  0  0  0  0  0  0  0
   -3.3720   22.2820  -32.1880 C   0  0  0  0  0  0  0  0  0  0  0  0
   -4.5470   22.3460  -33.0820 N   0  0  0  0  0  0  0  0  0  0  0  0
   -5.4900   21.2700  -32.8370 C   0  0  0  0  0  0  0  0  0  0  0  0
   -6.8160   21.5030  -32.3450 C   0  0  0  0  0  0  0  0  0  0  0  0
   -7.3070   22.8070  -32.0860 C   0  0  0  0  0  0  0  0  0  0  0  0
   -8.5830   23.0090  -31.5670 C   0  0  0  0  0  0  0  0  0  0  0  0
   -9.4030   21.9300  -31.2810 C   0  0  0  0  0  0  0  0  0  0  0  0
   -8.9690   20.6340  -31.5400 C   0  0  0  0  0  0  0  0  0  0  0  0
   -7.6920   20.3850  -32.1060 C   0  0  0  0  0  0  0  0  0  0  0  0
   -7.2920   19.0960  -32.4120 N   0  0  0  0  0  0  0  0  0  0  0  0
   -8.2250   17.9560  -32.3170 C   0  0  0  0  0  0  0  0  0  0  0  0
   -5.9980   18.8890  -32.8060 C   0  0  0  0  0  0  0  0  0  0  0  0
   -5.4180   17.6810  -33.0080 N   0  0  0  0  0  0  0  0  0  0  0  0
   -4.1590   17.9490  -33.3890 C   0  0  0  0  0  0  0  0  0  0  0  0
   -3.1800   17.0090  -33.7060 C   0  0  0  0  0  0  0  0  0  0  0  0
   -1.9140   17.4740  -34.0870 C   0  0  0  0  0  0  0  0  0  0  0  0
   -1.6500   18.8570  -34.1430 C   0  0  0  0  0  0  0  0  0  0  0  0
   -0.0620   19.4190  -34.6300 Cl  0  0  0  0  0  0  0  0  0  0  0  0
   -2.6520   19.7890  -33.8140 C   0  0  0  0  0  0  0  0  0  0  0  0
   -3.9160   19.3080  -33.4310 C   0  0  0  0  0  0  0  0  0  0  0  0
   -5.1110   19.9260  -33.0370 C   0  0  0  0  0  0  0  0  0  0  0  0
   -5.3492   25.4744  -28.6887 H   0  0  0  0  0  0  0  0  0  0  0  0
   -6.9652   25.9293  -29.3277 H   0  0  0  0  0  0  0  0  0  0  0  0
   -6.4514   24.2081  -29.3277 H   0  0  0  0  0  0  0  0  0  0  0  0
   -6.3078   25.3177  -31.5932 H   0  0  0  0  0  0  0  0  0  0  0  0
   -5.0517   26.4270  -30.8892 H   0  0  0  0  0  0  0  0  0  0  0  0
   -3.5300   24.9230  -31.2160 H   0  0  0  0  0  0  0  0  0  0  0  0
   -3.7375   23.7503  -29.2716 H   0  0  0  0  0  0  0  0  0  0  0  0
   -5.3730   23.1574  -29.7342 H   0  0  0  0  0  0  0  0  0  0  0  0
   -2.8238   21.8838  -30.1339 H   0  0  0  0  0  0  0  0  0  0  0  0
   -4.4843   21.3184  -30.6223 H   0  0  0  0  0  0  0  0  0  0  0  0
   -2.7935   23.2100  -32.3070 H   0  0  0  0  0  0  0  0  0  0  0  0
   -2.7960   21.3901  -32.4757 H   0  0  0  0  0  0  0  0  0  0  0  0
   -4.2440   22.4210  -34.0740 H   0  0  0  0  0  0  0  0  0  0  0  0
   -5.0460   23.2510  -32.9420 H   0  0  0  0  0  0  0  0  0  0  0  0
   -6.6676   23.6763  -32.2991 H   0  0  0  0  0  0  0  0  0  0  0  0
   -8.9423   24.0322  -31.3829 H   0  0  0  0  0  0  0  0  0  0  0  0
  -10.4000   22.0984  -30.8479 H   0  0  0  0  0  0  0  0  0  0  0  0
   -9.6282   19.7863  -31.3015 H   0  0  0  0  0  0  0  0  0  0  0  0
   -8.4145   17.7245  -31.2585 H   0  0  0  0  0  0  0  0  0  0  0  0
   -9.1729   18.2158  -32.8109 H   0  0  0  0  0  0  0  0  0  0  0  0
   -7.7828   17.0782  -32.8109 H   0  0  0  0  0  0  0  0  0  0  0  0
   -5.8160   16.7270  -32.8690 H   0  0  0  0  0  0  0  0  0  0  0  0
   -3.3952   15.9313  -33.6584 H   0  0  0  0  0  0  0  0  0  0  0  0
   -1.1219   16.7552  -34.3438 H   0  0  0  0  0  0  0  0  0  0  0  0
   -2.4505   20.8696  -33.8557 H   0  0  0  0  0  0  0  0  0  0  0  0
  1  2  1  0
  2  3  1  0
  3  4  1  0
  4  5  1  0
  5  6  1  0
  6  7  1  0
  7  8  1  0
  8  9  2  0
  9 10  1  0
 10 11  2  0
 11 12  1  0
 12 13  2  0
 13 14  1  0
 14 15  2  0
 15 16  1  0
 15 17  1  0
 17 18  1  0
 18 19  1  0
 19 20  2  0
 20 21  1  0
 21 22  2  0
 22 23  1  0
 22 24  1  0
 24 25  2  0
 25 26  1  0
 26  8  1  0
 14  9  1  0
 26 17  2  0
 25 19  1  0
  1 27  1  0
  1 28  1  0
  1 29  1  0
  2 30  1  0
  2 31  1  0
  3 32  1  0
  4 33  1  0
  4 34  1  0
  5 35  1  0
  5 36  1  0
  6 37  1  0
  6 38  1  0
  7 39  1  0
  7 40  1  0
 10 41  1  0
 11 42  1  0
 12 43  1  0
 13 44  1  0
 16 45  1  0
 16 46  1  0
 16 47  1  0
 18 48  1  0
 20 49  1  0
 21 50  1  0
 24 51  1  0
M  CHG  2   7   1  15   1
M  END
>  <UniqueID>  (16) 
16

>  <SMILES>  (16) 
CCNCCC[NH2+]c1c2ccccc2[n+](C)c2[nH]c3ccc(Cl)cc3c12

>  <Energy>  (16) 
112.71837271652375

>  <Genealogy>  (16) 
CCNCCC[NH2+]c1c2ccccc2[n+](C)c2[nH]c3ccc(Cl)cc3c12 (protonated)
CCNCCC[NH2+]c1c2ccccc2[n+](C)c2[nH]c3ccc(Cl)cc3c12 (3D coordinates assigned)
CCNCCC[NH2+]c1c2ccccc2[n+](C)c2[nH]c3ccc(Cl)cc3c12 (optimized conformer: 112.71837271652375 kcal/mol)

>  <smiles>  (16) 
CCNCCCNc1c2ccccc2[n+](C)c2[nH]c3ccc(Cl)cc3c12

>  <score_type>  (16) 
oracle

>  <origin>  (16) 
adg

>  <m_score__min__energy>  (16) 
-9.2100000000000009

>  <m_primary>  (16) 
energy

$$$$
