0:0
     RDKit          3D

 71 74  0  0  0  0  0  0  0  0999 V2000
    0.7870   23.6680  -27.3450 C   0  0  0  0  0  0  0  0  0  0  0  0
    0.3290   24.2110  -28.5790 O   0  0  0  0  0  0  0  0  0  0  0  0
   -0.9470   23.9890  -29.1190 C   0  0  0  0  0  0  0  0  0  0  0  0
   -2.0670   24.7610  -28.7580 C   0  0  0  0  0  0  0  0  0  0  0  0
   -3.3160   24.5020  -29.3310 C   0  0  0  0  0  0  0  0  0  0  0  0
   -3.4720   23.4670  -30.2740 C   0  0  0  0  0  0  0  0  0  0  0  0
   -4.8040   23.2080  -30.8810 C   0  0  0  0  0  0  0  0  0  0  0  0
   -5.3790   24.1360  -31.5180 O   0  0  0  0  0  0  0  0  0  0  0  0
   -5.4080   21.9020  -30.8170 N   0  0  0  0  0  0  0  0  0  0  0  0
   -6.7390   21.6260  -31.2940 C   0  0  0  0  0  0  0  0  0  0  0  0
   -7.7980   22.5130  -31.0270 C   0  0  0  0  0  0  0  0  0  0  0  0
   -9.0770   22.2620  -31.5300 C   0  0  0  0  0  0  0  0  0  0  0  0
   -9.3160   21.1170  -32.2930 C   0  0  0  0  0  0  0  0  0  0  0  0
   -8.2790   20.2140  -32.5430 C   0  0  0  0  0  0  0  0  0  0  0  0
   -6.9850   20.4570  -32.0430 C   0  0  0  0  0  0  0  0  0  0  0  0
   -5.9200   19.5700  -32.2810 O   0  0  0  0  0  0  0  0  0  0  0  0
   -4.9220   19.7400  -33.2890 C   0  0  0  0  0  0  0  0  0  0  0  0
   -3.5180   19.5400  -32.7060 C   0  0  0  0  0  0  0  0  0  0  0  0
   -2.4230   19.9850  -33.6950 C   0  0  0  0  0  0  0  0  0  0  0  0
   -1.1030   19.4680  -33.2720 N   0  0  0  0  0  0  0  0  0  0  0  0
   -0.5000   20.3000  -32.1950 C   0  0  0  0  0  0  0  0  0  0  0  0
   -0.6800   19.6780  -30.7980 C   0  0  0  0  0  0  0  0  0  0  0  0
   -0.1020   18.3120  -30.7010 N   0  0  0  0  0  0  0  0  0  0  0  0
    1.2220   18.3090  -30.0410 C   0  0  0  0  0  0  0  0  0  0  0  0
    1.4530   19.6040  -29.2620 C   0  0  0  0  0  0  0  0  0  0  0  0
    0.9640   19.4630  -27.9290 O   0  0  0  0  0  0  0  0  0  0  0  0
   -0.3900   19.5450  -27.5720 C   0  0  0  0  0  0  0  0  0  0  0  0
   -1.0450   20.7770  -27.7180 C   0  0  0  0  0  0  0  0  0  0  0  0
   -2.4000   20.9010  -27.3970 C   0  0  0  0  0  0  0  0  0  0  0  0
   -3.1140   19.7930  -26.9240 C   0  0  0  0  0  0  0  0  0  0  0  0
   -2.4700   18.5630  -26.7630 C   0  0  0  0  0  0  0  0  0  0  0  0
   -1.1140   18.4360  -27.0810 C   0  0  0  0  0  0  0  0  0  0  0  0
   -0.0350   17.6140  -32.0050 C   0  0  0  0  0  0  0  0  0  0  0  0
   -1.1920   18.0320  -32.9170 C   0  0  0  0  0  0  0  0  0  0  0  0
   -2.3530   22.6860  -30.6170 C   0  0  0  0  0  0  0  0  0  0  0  0
   -1.1030   22.9540  -30.0500 C   0  0  0  0  0  0  0  0  0  0  0  0
    0.3254   24.2152  -26.5098 H   0  0  0  0  0  0  0  0  0  0  0  0
    0.5081   22.6056  -27.2859 H   0  0  0  0  0  0  0  0  0  0  0  0
    1.8812   23.7637  -27.2859 H   0  0  0  0  0  0  0  0  0  0  0  0
   -1.9594   25.5715  -28.0221 H   0  0  0  0  0  0  0  0  0  0  0  0
   -4.1848   25.1120  -29.0428 H   0  0  0  0  0  0  0  0  0  0  0  0
   -4.7820   21.0890  -30.6290 H   0  0  0  0  0  0  0  0  0  0  0  0
   -7.6176   23.4108  -30.4176 H   0  0  0  0  0  0  0  0  0  0  0  0
   -9.8963   22.9667  -31.3249 H   0  0  0  0  0  0  0  0  0  0  0  0
  -10.3209   20.9258  -32.6974 H   0  0  0  0  0  0  0  0  0  0  0  0
   -8.4748   19.3073  -33.1343 H   0  0  0  0  0  0  0  0  0  0  0  0
   -5.0884   19.0034  -34.0888 H   0  0  0  0  0  0  0  0  0  0  0  0
   -4.9952   20.7625  -33.6880 H   0  0  0  0  0  0  0  0  0  0  0  0
   -3.4272   20.1319  -31.7833 H   0  0  0  0  0  0  0  0  0  0  0  0
   -3.3807   18.4680  -32.5010 H   0  0  0  0  0  0  0  0  0  0  0  0
   -2.6600   19.5967  -34.6965 H   0  0  0  0  0  0  0  0  0  0  0  0
   -2.3856   21.0842  -33.7140 H   0  0  0  0  0  0  0  0  0  0  0  0
    0.5758   20.4110  -32.3957 H   0  0  0  0  0  0  0  0  0  0  0  0
   -1.0144   21.2723  -32.1965 H   0  0  0  0  0  0  0  0  0  0  0  0
   -0.1839   20.3237  -30.0584 H   0  0  0  0  0  0  0  0  0  0  0  0
   -1.7601   19.5968  -30.6064 H   0  0  0  0  0  0  0  0  0  0  0  0
    1.2749   17.4578  -29.3463 H   0  0  0  0  0  0  0  0  0  0  0  0
    1.9980   18.2250  -30.8161 H   0  0  0  0  0  0  0  0  0  0  0  0
    2.5301   19.8254  -29.2338 H   0  0  0  0  0  0  0  0  0  0  0  0
    0.9171   20.4260  -29.7591 H   0  0  0  0  0  0  0  0  0  0  0  0
   -0.4888   21.6511  -28.0875 H   0  0  0  0  0  0  0  0  0  0  0  0
   -2.9061   21.8704  -27.5161 H   0  0  0  0  0  0  0  0  0  0  0  0
   -4.1819   19.8907  -26.6791 H   0  0  0  0  0  0  0  0  0  0  0  0
   -3.0299   17.6945  -26.3860 H   0  0  0  0  0  0  0  0  0  0  0  0
   -0.6089   17.4679  -26.9481 H   0  0  0  0  0  0  0  0  0  0  0  0
    0.9172   17.8626  -32.4965 H   0  0  0  0  0  0  0  0  0  0  0  0
   -0.1073   16.5313  -31.8246 H   0  0  0  0  0  0  0  0  0  0  0  0
   -1.1575   17.4319  -33.8382 H   0  0  0  0  0  0  0  0  0  0  0  0
   -2.1371   17.8641  -32.3797 H   0  0  0  0  0  0  0  0  0  0  0  0
   -2.4620   21.8600  -31.3352 H   0  0  0  0  0  0  0  0  0  0  0  0
   -0.2331   22.3456  -30.3382 H   0  0  0  0  0  0  0  0  0  0  0  0
  1  2  1  0
  2  3  1  0
  3  4  2  0
  4  5  1  0
  5  6  2  0
  6  7  1  0
  7  8  2  0
  7  9  1  0
  9 10  1  0
 10 11  2  0
 11 12  1  0
 12 13  2  0
 13 14  1  0
 14 15  2  0
 15 16  1  0
 16 17  1  0
 17 18  1  0
 18 19  1  0
 19 20  1  0
 20 21  1  0
 21 22  1  0
 22 23  1  0
 23 24  1  0
 24 25  1  0
 25 26  1  0
 26 27  1  0
 27 28  2  0
 28 29  1  0
 29 30  2  0
 30 31  1  0
 31 32  2  0
 23 33  1  0
 33 34  1  0
  6 35  1  0
 35 36  2  0
 36  3  1  0
 15 10  1  0
 34 20  1  0
 32 27  1  0
  1 37  1  0
  1 38  1  0
  1 39  1  0
  4 40  1  0
  5 41  1  0
  9 42  1  0
 11 43  1  0
 12 44  1  0
 13 45  1  0
 14 46  1  0
 17 47  1  0
 17 48  1  0
 18 49  1  0
 18 50  1  0
 19 51  1  0
 19 52  1  0
 21 53  1  0
 21 54  1  0
 22 55  1  0
 22 56  1  0
 24 57  1  0
 24 58  1  0
 25 59  1  0
 25 60  1  0
 28 61  1  0
 29 62  1  0
 30 63  1  0
 31 64  1  0
 32 65  1  0
 33 66  1  0
 33 67  1  0
 34 68  1  0
 34 69  1  0
 35 70  1  0
 36 71  1  0
M  END
>  <UniqueID>  (1) 
1

>  <SMILES>  (1) 
COc1ccc(C(=O)Nc2ccccc2OCCCN2CCN(CCOc3ccccc3)CC2)cc1

>  <Energy>  (1) 
86.34499679596749

>  <Genealogy>  (1) 
COc1ccc(C(=O)Nc2ccccc2OCCCN2CCN(CCOc3ccccc3)CC2)cc1 (3D coordinates assigned)
COc1ccc(C(=O)Nc2ccccc2OCCCN2CCN(CCOc3ccccc3)CC2)cc1 (nonaromatic ring conformer: 86.34499679596749 kcal/mol)

>  <smiles>  (1) 
COc1ccc(C(=O)Nc2ccccc2OCCCN2CCN(CCOc3ccccc3)CC2)cc1

>  <score_type>  (1) 
oracle

>  <origin>  (1) 
adg

>  <m_score__min__energy>  (1) 
-9.0800000000000001

>  <m_primary>  (1) 
energy

$$$$
1:0
     RDKit          3D

 35 36  0  0  1  0  0  0  0  0999 V2000
   -5.7570   18.5280  -34.6330 C   0  0  0  0  0  0  0  0  0  0  0  0
   -4.7060   17.7180  -33.9040 C   0  0  0  0  0  0  0  0  0  0  0  0
   -3.1370   18.6330  -33.8510 S   0  0  0  0  0  0  0  0  0  0  0  0
   -3.5200   20.2520  -33.2020 C   0  0  0  0  0  0  0  0  0  0  0  0
   -4.1270   21.2070  -33.4730 N   0  0  0  0  0  0  0  0  0  0  0  0
   -4.2690   22.3180  -32.8190 N   0  0  0  0  0  0  0  0  0  0  0  0
   -3.6440   22.4020  -31.6780 C   0  0  0  0  0  0  0  0  0  0  0  0
   -3.5670   23.3330  -30.7930 N   0  0  0  0  0  0  0  0  0  0  0  0
   -4.6300   24.2790  -30.7840 C   0  0  0  0  0  0  0  0  0  0  0  0
   -4.4600   25.5090  -30.8790 O   0  0  0  0  0  0  0  0  0  0  0  0
   -6.0470   23.7650  -30.6540 C   0  0  1  0  0  0  0  0  0  0  0  0
   -6.8570   24.9100  -30.0660 C   0  0  0  0  0  0  0  0  0  0  0  0
   -6.5460   23.3120  -31.8570 O   0  0  0  0  0  0  0  0  0  0  0  0
   -7.3100   22.1880  -31.9690 C   0  0  0  0  0  0  0  0  0  0  0  0
   -8.6980   22.3560  -31.8770 C   0  0  0  0  0  0  0  0  0  0  0  0
   -9.5690   21.2960  -31.9760 C   0  0  0  0  0  0  0  0  0  0  0  0
   -9.1120   20.0170  -32.1690 C   0  0  0  0  0  0  0  0  0  0  0  0
   -7.7500   19.8240  -32.2630 C   0  0  0  0  0  0  0  0  0  0  0  0
   -6.8730   20.9070  -32.1620 C   0  0  0  0  0  0  0  0  0  0  0  0
   -2.7980   20.7910  -31.5270 S   0  0  0  0  0  0  0  0  0  0  0  0
   -6.4071   19.0290  -33.9006 H   0  0  0  0  0  0  0  0  0  0  0  0
   -5.2655   19.2831  -35.2640 H   0  0  0  0  0  0  0  0  0  0  0  0
   -6.3620   17.8604  -35.2640 H   0  0  0  0  0  0  0  0  0  0  0  0
   -5.0467   17.5205  -32.8769 H   0  0  0  0  0  0  0  0  0  0  0  0
   -4.5507   16.7680  -34.4364 H   0  0  0  0  0  0  0  0  0  0  0  0
   -4.8710   23.1160  -33.2080 H   0  0  0  0  0  0  0  0  0  0  0  0
   -6.0955   22.8851  -29.9956 H   0  0  0  0  0  0  0  0  0  0  0  0
   -6.8207   24.8587  -28.9678 H   0  0  0  0  0  0  0  0  0  0  0  0
   -6.4349   25.8684  -30.4025 H   0  0  0  0  0  0  0  0  0  0  0  0
   -7.9013   24.8310  -30.4025 H   0  0  0  0  0  0  0  0  0  0  0  0
   -9.1036   23.3665  -31.7208 H   0  0  0  0  0  0  0  0  0  0  0  0
  -10.6513   21.4771  -31.8990 H   0  0  0  0  0  0  0  0  0  0  0  0
   -9.8109   19.1711  -32.2464 H   0  0  0  0  0  0  0  0  0  0  0  0
   -7.3512   18.8107  -32.4185 H   0  0  0  0  0  0  0  0  0  0  0  0
   -5.7915   20.7222  -32.2406 H   0  0  0  0  0  0  0  0  0  0  0  0
  1  2  1  0
  2  3  1  0
  3  4  1  0
  4  5  2  0
  5  6  1  0
  6  7  1  0
  7  8  2  0
  8  9  1  0
  9 10  2  0
  9 11  1  0
 11 12  1  0
 11 13  1  0
 13 14  1  0
 14 15  2  0
 15 16  1  0
 16 17  2  0
 17 18  1  0
 18 19  2  0
  7 20  1  0
 20  4  1  0
 19 14  1  0
  1 21  1  0
  1 22  1  0
  1 23  1  0
  2 24  1  0
  2 25  1  0
  6 26  1  0
 11 27  1  1
 12 28  1  0
 12 29  1  0
 12 30  1  0
 15 31  1  0
 16 32  1  0
 17 33  1  0
 18 34  1  0
 19 35  1  0
M  END
>  <smiles>  (2) 
CCSc1n[nH]c(=NC(=O)C(C)Oc2ccccc2)s1

>  <score_type>  (2) 
oracle

>  <origin>  (2) 
adg

>  <m_score__min__energy>  (2) 
-8.1500000000000004

>  <m_primary>  (2) 
energy

$$$$
2:0
     RDKit          3D

 35 37  0  0  0  0  0  0  0  0999 V2000
   -7.8988   23.0152  -33.0459 H   0  0  0  0  0  0  0  0  0  0  0  0
   -7.2490   22.4960  -32.3260 C   0  0  0  0  0  0  0  0  0  0  0  0
   -7.1400   21.1540  -32.4320 C   0  0  0  0  0  0  0  0  0  0  0  0
   -5.9390   20.5510  -33.0650 C   0  0  0  0  0  0  0  0  0  0  0  0
   -4.9890   21.2810  -33.4630 O   0  0  0  0  0  0  0  0  0  0  0  0
   -5.8610   19.0820  -33.2270 C   0  0  0  0  0  0  0  0  0  0  0  0
   -4.6630   18.4620  -33.6260 C   0  0  0  0  0  0  0  0  0  0  0  0
   -3.7708   19.0736  -33.8257 H   0  0  0  0  0  0  0  0  0  0  0  0
   -4.6000   17.0740  -33.7700 C   0  0  0  0  0  0  0  0  0  0  0  0
   -3.6582   16.5960  -34.0776 H   0  0  0  0  0  0  0  0  0  0  0  0
   -5.7310   16.2920  -33.5240 C   0  0  0  0  0  0  0  0  0  0  0  0
   -5.6785   15.1992  -33.6385 H   0  0  0  0  0  0  0  0  0  0  0  0
   -6.9280   16.8950  -33.1330 C   0  0  0  0  0  0  0  0  0  0  0  0
   -7.8197   16.2763  -32.9540 H   0  0  0  0  0  0  0  0  0  0  0  0
   -6.9990   18.2890  -32.9670 C   0  0  0  0  0  0  0  0  0  0  0  0
   -8.3160   18.9370  -32.6210 C   0  0  0  0  0  0  0  0  0  0  0  0
   -8.9279   18.2202  -32.0537 H   0  0  0  0  0  0  0  0  0  0  0  0
   -8.8137   19.2244  -33.5589 H   0  0  0  0  0  0  0  0  0  0  0  0
   -8.1210   20.2020  -31.7760 C   0  0  0  0  0  0  0  0  0  0  0  0
   -7.7362   19.9163  -30.7859 H   0  0  0  0  0  0  0  0  0  0  0  0
   -9.0914   20.7115  -31.6828 H   0  0  0  0  0  0  0  0  0  0  0  0
   -6.5580   23.3130  -31.3130 C   0  0  0  0  0  0  0  0  0  0  0  0
   -7.2290   24.3500  -30.6480 C   0  0  0  0  0  0  0  0  0  0  0  0
   -8.2899   24.5439  -30.8647 H   0  0  0  0  0  0  0  0  0  0  0  0
   -6.5550   25.1370  -29.7120 C   0  0  0  0  0  0  0  0  0  0  0  0
   -7.0914   25.9345  -29.1769 H   0  0  0  0  0  0  0  0  0  0  0  0
   -5.2000   24.9130  -29.4540 C   0  0  0  0  0  0  0  0  0  0  0  0
   -4.6794   25.5220  -28.7003 H   0  0  0  0  0  0  0  0  0  0  0  0
   -4.4980   23.9150  -30.1510 C   0  0  0  0  0  0  0  0  0  0  0  0
   -3.0460   23.6480  -29.8490 C   0  0  0  0  0  0  0  0  0  0  0  0
   -2.3880   24.8510  -29.6770 F   0  0  0  0  0  0  0  0  0  0  0  0
   -2.4480   22.9510  -30.8860 F   0  0  0  0  0  0  0  0  0  0  0  0
   -2.9180   22.8960  -28.6940 F   0  0  0  0  0  0  0  0  0  0  0  0
   -5.1910   23.1090  -31.0730 C   0  0  0  0  0  0  0  0  0  0  0  0
   -4.6561   22.3120  -31.6103 H   0  0  0  0  0  0  0  0  0  0  0  0
  1  2  1  0
  2  3  2  0
  3  4  1  0
  4  5  2  0
  4  6  1  0
  6  7  2  0
  7  8  1  0
  7  9  1  0
  9 10  1  0
  9 11  2  0
 11 12  1  0
 11 13  1  0
 13 14  1  0
 13 15  2  0
 15 16  1  0
 16 17  1  0
 16 18  1  0
 16 19  1  0
 19 20  1  0
 19 21  1  0
  2 22  1  0
 22 23  2  0
 23 24  1  0
 23 25  1  0
 25 26  1  0
 25 27  2  0
 27 28  1  0
 27 29  1  0
 29 30  1  0
 30 31  1  0
 30 32  1  0
 30 33  1  0
 29 34  2  0
 34 35  1  0
 19  3  1  0
 34 22  1  0
 15  6  1  0
M  END
>  <UniqueID>  (3) 
2

>  <SMILES>  (3) 
O=C1/C(=C/c2cccc(C(F)(F)F)c2)CCc2ccccc21

>  <Energy>  (3) 
48.410181292857196

>  <Genealogy>  (3) 
O=C1/C(=C/c2cccc(C(F)(F)F)c2)CCc2ccccc21 (cis-trans isomerization)
O=C1/C(=C/c2cccc(C(F)(F)F)c2)CCc2ccccc21 (3D coordinates assigned)
O=C1/C(=C/c2cccc(C(F)(F)F)c2)CCc2ccccc21 (nonaromatic ring conformer: 48.410181292857196 kcal/mol)

>  <smiles>  (3) 
O=C1C(=Cc2cccc(C(F)(F)F)c2)CCc2ccccc21

>  <score_type>  (3) 
oracle

>  <origin>  (3) 
adg

>  <m_score__min__energy>  (3) 
-8.2799999999999994

>  <m_primary>  (3) 
energy

$$$$
3:0
     RDKit          3D

 42 44  0  0  0  0  0  0  0  0999 V2000
   -6.8750   25.0480  -29.9960 C   0  0  0  0  0  0  0  0  0  0  0  0
   -5.9510   24.0420  -30.5480 N   0  0  0  0  0  0  0  0  0  0  0  0
   -4.6340   24.3550  -30.7620 C   0  0  0  0  0  0  0  0  0  0  0  0
   -4.1940   25.5100  -30.5080 O   0  0  0  0  0  0  0  0  0  0  0  0
   -3.7970   23.4480  -31.2470 O   0  0  0  0  0  0  0  0  0  0  0  0
   -4.1730   22.2080  -31.5130 C   0  0  0  0  0  0  0  0  0  0  0  0
   -5.4840   21.7930  -31.2590 C   0  0  0  0  0  0  0  0  0  0  0  0
   -5.9120   20.3610  -31.5330 C   0  0  0  0  0  0  0  0  0  0  0  0
   -7.1420   20.1830  -32.3740 N   0  0  0  0  0  0  0  0  0  0  0  0
   -6.8650   20.1060  -33.8160 C   0  0  0  0  0  0  0  0  0  0  0  0
   -6.1360   18.8210  -34.1990 C   0  0  0  0  0  0  0  0  0  0  0  0
   -6.6160   17.6190  -33.4870 N   0  0  0  0  0  0  0  0  0  0  0  0
   -6.0400   16.3190  -33.8290 C   0  0  0  0  0  0  0  0  0  0  0  0
   -6.8600   15.2320  -34.2220 C   0  0  0  0  0  0  0  0  0  0  0  0
   -6.3060   13.9880  -34.5370 C   0  0  0  0  0  0  0  0  0  0  0  0
   -4.9270   13.7960  -34.4710 C   0  0  0  0  0  0  0  0  0  0  0  0
   -4.2370   12.2330  -34.8680 Cl  0  0  0  0  0  0  0  0  0  0  0  0
   -4.0970   14.8500  -34.0910 C   0  0  0  0  0  0  0  0  0  0  0  0
   -4.6420   16.0970  -33.7730 C   0  0  0  0  0  0  0  0  0  0  0  0
   -7.6120   17.6890  -32.3930 C   0  0  0  0  0  0  0  0  0  0  0  0
   -8.0800   19.1060  -32.0030 C   0  0  0  0  0  0  0  0  0  0  0  0
   -6.3820   22.7630  -30.7840 C   0  0  0  0  0  0  0  0  0  0  0  0
   -7.5880   22.4490  -30.5770 O   0  0  0  0  0  0  0  0  0  0  0  0
   -6.8421   25.0122  -28.8971 H   0  0  0  0  0  0  0  0  0  0  0  0
   -6.5749   26.0490  -30.3394 H   0  0  0  0  0  0  0  0  0  0  0  0
   -7.8979   24.8339  -30.3394 H   0  0  0  0  0  0  0  0  0  0  0  0
   -3.4485   21.4975  -31.9375 H   0  0  0  0  0  0  0  0  0  0  0  0
   -5.0802   19.8549  -32.0448 H   0  0  0  0  0  0  0  0  0  0  0  0
   -6.1658   19.9380  -30.5498 H   0  0  0  0  0  0  0  0  0  0  0  0
   -7.6900   21.0710  -32.2560 H   0  0  0  0  0  0  0  0  0  0  0  0
   -7.8190   20.1474  -34.3620 H   0  0  0  0  0  0  0  0  0  0  0  0
   -6.2140   20.9528  -34.0789 H   0  0  0  0  0  0  0  0  0  0  0  0
   -6.2676   18.6582  -35.2789 H   0  0  0  0  0  0  0  0  0  0  0  0
   -5.0822   18.9579  -33.9147 H   0  0  0  0  0  0  0  0  0  0  0  0
   -7.9498   15.3695  -34.2801 H   0  0  0  0  0  0  0  0  0  0  0  0
   -6.9609   13.1571  -34.8382 H   0  0  0  0  0  0  0  0  0  0  0  0
   -3.0085   14.6993  -34.0413 H   0  0  0  0  0  0  0  0  0  0  0  0
   -3.9749   16.9191  -33.4745 H   0  0  0  0  0  0  0  0  0  0  0  0
   -8.4970   17.1148  -32.7046 H   0  0  0  0  0  0  0  0  0  0  0  0
   -7.1080   17.2845  -31.5029 H   0  0  0  0  0  0  0  0  0  0  0  0
   -9.0410   19.3001  -32.5019 H   0  0  0  0  0  0  0  0  0  0  0  0
   -8.1550   19.1202  -30.9057 H   0  0  0  0  0  0  0  0  0  0  0  0
  1  2  1  0
  2  3  1  0
  3  4  2  0
  3  5  1  0
  5  6  1  0
  6  7  2  0
  7  8  1  0
  8  9  1  0
  9 10  1  0
 10 11  1  0
 11 12  1  0
 12 13  1  0
 13 14  2  0
 14 15  1  0
 15 16  2  0
 16 17  1  0
 16 18  1  0
 18 19  2  0
 12 20  1  0
 20 21  1  0
  7 22  1  0
 22 23  2  0
 22  2  1  0
 21  9  1  0
 19 13  1  0
  1 24  1  0
  1 25  1  0
  1 26  1  0
  6 27  1  0
  8 28  1  0
  8 29  1  0
  9 30  1  0
 10 31  1  0
 10 32  1  0
 11 33  1  0
 11 34  1  0
 14 35  1  0
 15 36  1  0
 18 37  1  0
 19 38  1  0
 20 39  1  0
 20 40  1  0
 21 41  1  0
 21 42  1  0
M  CHG  1   9   1
M  END
>  <UniqueID>  (4) 
3

>  <SMILES>  (4) 
Cn1c(=O)occ(C[NH+]2CCN(c3ccc(Cl)cc3)CC2)c1=O

>  <Energy>  (4) 
68.64342791579601

>  <Genealogy>  (4) 
Cn1c(=O)occ(C[NH+]2CCN(c3ccc(Cl)cc3)CC2)c1=O (protonated)
Cn1c(=O)occ(C[NH+]2CCN(c3ccc(Cl)cc3)CC2)c1=O (3D coordinates assigned)
Cn1c(=O)occ(C[NH+]2CCN(c3ccc(Cl)cc3)CC2)c1=O (nonaromatic ring conformer: 68.64342791579601 kcal/mol)

>  <smiles>  (4) 
Cn1c(=O)occ(CN2CCN(c3ccc(Cl)cc3)CC2)c1=O

>  <score_type>  (4) 
oracle

>  <origin>  (4) 
adg

>  <m_score__min__energy>  (4) 
-6.8099999999999996

>  <m_primary>  (4) 
energy

$$$$
4:0
     RDKit          3D

 50 53  0  0  0  0  0  0  0  0999 V2000
   -3.2390   19.2250  -34.4820 O   0  0  0  0  0  0  0  0  0  0  0  0
   -4.0550   19.3630  -33.5280 C   0  0  0  0  0  0  0  0  0  0  0  0
   -5.5200   19.0380  -33.7630 C   0  0  1  0  0  0  0  0  0  0  0  0
   -5.6920   18.1540  -34.9670 C   0  0  0  0  0  0  0  0  0  0  0  0
   -5.7130   16.7550  -34.3810 C   0  0  0  0  0  0  0  0  0  0  0  0
   -5.9850   16.8220  -32.9970 O   0  0  0  0  0  0  0  0  0  0  0  0
   -6.1130   18.1810  -32.6510 C   0  0  0  0  0  0  0  0  0  0  0  0
   -3.5940   19.9040  -32.2690 N   0  0  0  0  0  0  0  0  0  0  0  0
   -2.1570   19.9310  -31.9510 C   0  0  0  0  0  0  0  0  0  0  0  0
   -1.7010   21.3500  -31.5700 C   0  0  0  0  0  0  0  0  0  0  0  0
   -2.7970   22.1700  -30.8420 C   0  0  0  0  0  0  0  0  0  0  0  0
   -2.1890   23.1350  -29.8360 C   0  0  0  0  0  0  0  0  0  0  0  0
   -1.1170   22.7320  -29.0180 C   0  0  0  0  0  0  0  0  0  0  0  0
   -0.5470   23.6230  -28.1100 C   0  0  0  0  0  0  0  0  0  0  0  0
   -1.0380   24.9240  -28.0300 C   0  0  0  0  0  0  0  0  0  0  0  0
   -2.0590   25.3130  -28.8360 N   0  0  0  0  0  0  0  0  0  0  0  0
   -2.6490   24.4660  -29.7260 C   0  0  0  0  0  0  0  0  0  0  0  0
   -3.6770   24.9230  -30.5640 O   0  0  0  0  0  0  0  0  0  0  0  0
   -4.9600   24.3660  -30.6590 C   0  0  0  0  0  0  0  0  0  0  0  0
   -5.3660   23.8160  -31.8780 C   0  0  0  0  0  0  0  0  0  0  0  0
   -6.6350   23.2500  -32.0050 C   0  0  0  0  0  0  0  0  0  0  0  0
   -7.4870   23.2290  -30.9000 C   0  0  0  0  0  0  0  0  0  0  0  0
   -7.0750   23.7440  -29.7100 N   0  0  0  0  0  0  0  0  0  0  0  0
   -5.8400   24.3000  -29.5640 C   0  0  0  0  0  0  0  0  0  0  0  0
   -3.8560   21.2570  -30.1920 C   0  0  0  0  0  0  0  0  0  0  0  0
   -4.5530   20.4160  -31.2710 C   0  0  0  0  0  0  0  0  0  0  0  0
   -6.0044   20.0217  -33.8508 H   0  0  0  0  0  0  0  0  0  0  0  0
   -6.6358   18.3767  -35.4863 H   0  0  0  0  0  0  0  0  0  0  0  0
   -4.8984   18.2922  -35.7161 H   0  0  0  0  0  0  0  0  0  0  0  0
   -6.4943   16.1619  -34.8788 H   0  0  0  0  0  0  0  0  0  0  0  0
   -4.7329   16.2804  -34.5368 H   0  0  0  0  0  0  0  0  0  0  0  0
   -7.1768   18.4295  -32.5223 H   0  0  0  0  0  0  0  0  0  0  0  0
   -5.5786   18.3750  -31.7093 H   0  0  0  0  0  0  0  0  0  0  0  0
   -1.9629   19.2525  -31.1072 H   0  0  0  0  0  0  0  0  0  0  0  0
   -1.5959   19.6108  -32.8413 H   0  0  0  0  0  0  0  0  0  0  0  0
   -0.8266   21.2699  -30.9075 H   0  0  0  0  0  0  0  0  0  0  0  0
   -1.4646   21.8790  -32.5050 H   0  0  0  0  0  0  0  0  0  0  0  0
   -3.3169   22.7723  -31.6015 H   0  0  0  0  0  0  0  0  0  0  0  0
   -0.7262   21.7067  -29.0957 H   0  0  0  0  0  0  0  0  0  0  0  0
    0.2825   23.3017  -27.4629 H   0  0  0  0  0  0  0  0  0  0  0  0
   -0.5992   25.6353  -27.3148 H   0  0  0  0  0  0  0  0  0  0  0  0
   -4.6829   23.8294  -32.7401 H   0  0  0  0  0  0  0  0  0  0  0  0
   -6.9604   22.8249  -32.9659 H   0  0  0  0  0  0  0  0  0  0  0  0
   -8.4937   22.7952  -30.9913 H   0  0  0  0  0  0  0  0  0  0  0  0
   -7.7200   23.7070  -28.8890 H   0  0  0  0  0  0  0  0  0  0  0  0
   -5.5301   24.6985  -28.5867 H   0  0  0  0  0  0  0  0  0  0  0  0
   -3.3668   20.5888  -29.4680 H   0  0  0  0  0  0  0  0  0  0  0  0
   -4.6038   21.8784  -29.6776 H   0  0  0  0  0  0  0  0  0  0  0  0
   -5.0552   19.5640  -30.7896 H   0  0  0  0  0  0  0  0  0  0  0  0
   -5.2783   21.0590  -31.7912 H   0  0  0  0  0  0  0  0  0  0  0  0
  1  2  2  0
  2  3  1  0
  3  4  1  0
  4  5  1  0
  5  6  1  0
  6  7  1  0
  2  8  1  0
  8  9  1  0
  9 10  1  0
 10 11  1  0
 11 12  1  0
 12 13  2  0
 13 14  1  0
 14 15  2  0
 15 16  1  0
 16 17  2  0
 17 18  1  0
 18 19  1  0
 19 20  2  0
 20 21  1  0
 21 22  2  0
 22 23  1  0
 23 24  2  0
 11 25  1  0
 25 26  1  0
  7  3  1  0
 26  8  1  0
 17 12  1  0
 24 19  1  0
  3 27  1  6
  4 28  1  0
  4 29  1  0
  5 30  1  0
  5 31  1  0
  7 32  1  0
  7 33  1  0
  9 34  1  0
  9 35  1  0
 10 36  1  0
 10 37  1  0
 11 38  1  0
 13 39  1  0
 14 40  1  0
 15 41  1  0
 20 42  1  0
 21 43  1  0
 22 44  1  0
 23 45  1  0
 24 46  1  0
 25 47  1  0
 25 48  1  0
 26 49  1  0
 26 50  1  0
M  CHG  1  23   1
M  END
>  <UniqueID>  (5) 
4

>  <SMILES>  (5) 
O=C([C@H]1CCOC1)N1CCC(c2cccnc2Oc2ccc[nH+]c2)CC1

>  <Energy>  (5) 
64.09037324081481

>  <Genealogy>  (5) 
O=C(C1CCOC1)N1CCC(c2cccnc2Oc2ccc[nH+]c2)CC1 (protonated)
O=C([C@H]1CCOC1)N1CCC(c2cccnc2Oc2ccc[nH+]c2)CC1 (chirality)
O=C([C@H]1CCOC1)N1CCC(c2cccnc2Oc2ccc[nH+]c2)CC1 (3D coordinates assigned)
O=C([C@H]1CCOC1)N1CCC(c2cccnc2Oc2ccc[nH+]c2)CC1 (nonaromatic ring conformer: 64.09037324081481 kcal/mol)

>  <smiles>  (5) 
O=C(C1CCOC1)N1CCC(c2cccnc2Oc2cccnc2)CC1

>  <score_type>  (5) 
oracle

>  <origin>  (5) 
adg

>  <m_score__min__energy>  (5) 
-7.8200000000000003

>  <m_primary>  (5) 
energy

$$$$
5:0
     RDKit          3D

 46 49  0  0  0  0  0  0  0  0999 V2000
   -1.9510   25.2730  -28.0300 C   0  0  0  0  0  0  0  0  0  0  0  0
   -2.4820   25.2930  -29.3510 O   0  0  0  0  0  0  0  0  0  0  0  0
   -3.3880   24.3480  -29.8590 C   0  0  0  0  0  0  0  0  0  0  0  0
   -4.6050   24.7260  -30.4530 C   0  0  0  0  0  0  0  0  0  0  0  0
   -5.4880   23.7560  -30.9450 C   0  0  0  0  0  0  0  0  0  0  0  0
   -5.1440   22.3930  -30.8950 C   0  0  0  0  0  0  0  0  0  0  0  0
   -3.9390   22.0170  -30.2710 C   0  0  0  0  0  0  0  0  0  0  0  0
   -3.0580   22.9890  -29.7590 C   0  0  0  0  0  0  0  0  0  0  0  0
   -1.8440   22.6450  -29.1420 O   0  0  0  0  0  0  0  0  0  0  0  0
   -1.6920   21.6110  -28.1760 C   0  0  0  0  0  0  0  0  0  0  0  0
   -6.1050   21.3990  -31.4650 C   0  0  0  0  0  0  0  0  0  0  0  0
   -5.6820   20.1100  -31.8390 C   0  0  0  0  0  0  0  0  0  0  0  0
   -6.6140   19.2090  -32.3670 C   0  0  0  0  0  0  0  0  0  0  0  0
   -6.2500   17.8290  -32.7670 C   0  0  0  0  0  0  0  0  0  0  0  0
   -6.8250   17.1890  -33.8820 C   0  0  0  0  0  0  0  0  0  0  0  0
   -6.4450   15.8830  -34.1980 C   0  0  0  0  0  0  0  0  0  0  0  0
   -5.5040   15.2200  -33.4090 C   0  0  0  0  0  0  0  0  0  0  0  0
   -5.0120   13.5400  -33.8010 S   0  0  0  0  0  0  0  0  0  0  0  0
   -4.5690   13.1400  -32.0820 C   0  0  0  0  0  0  0  0  0  0  0  0
   -4.9660   15.8740  -32.2980 C   0  0  0  0  0  0  0  0  0  0  0  0
   -5.3480   17.1460  -32.0060 N   0  0  0  0  0  0  0  0  0  0  0  0
   -7.9060   19.6000  -32.4890 N   0  0  0  0  0  0  0  0  0  0  0  0
   -8.3140   20.8500  -32.1540 C   0  0  0  0  0  0  0  0  0  0  0  0
   -9.5330   21.1470  -32.2870 O   0  0  0  0  0  0  0  0  0  0  0  0
   -7.4130   21.7690  -31.6790 N   0  0  0  0  0  0  0  0  0  0  0  0
   -7.8660   23.1240  -31.3020 C   0  0  0  0  0  0  0  0  0  0  0  0
   -6.7830   24.1680  -31.5860 C   0  0  0  0  0  0  0  0  0  0  0  0
   -2.7757   25.3041  -27.3028 H   0  0  0  0  0  0  0  0  0  0  0  0
   -1.3673   24.3522  -27.8833 H   0  0  0  0  0  0  0  0  0  0  0  0
   -1.2997   26.1473  -27.8833 H   0  0  0  0  0  0  0  0  0  0  0  0
   -4.8659   25.7917  -30.5320 H   0  0  0  0  0  0  0  0  0  0  0  0
   -3.6827   20.9510  -30.1824 H   0  0  0  0  0  0  0  0  0  0  0  0
   -1.7552   22.0411  -27.1655 H   0  0  0  0  0  0  0  0  0  0  0  0
   -2.4902   20.8657  -28.3079 H   0  0  0  0  0  0  0  0  0  0  0  0
   -0.7131   21.1270  -28.3079 H   0  0  0  0  0  0  0  0  0  0  0  0
   -4.6297   19.8135  -31.7176 H   0  0  0  0  0  0  0  0  0  0  0  0
   -7.5683   17.7143  -34.4997 H   0  0  0  0  0  0  0  0  0  0  0  0
   -6.8873   15.3769  -35.0687 H   0  0  0  0  0  0  0  0  0  0  0  0
   -5.2069   13.7160  -31.3954 H   0  0  0  0  0  0  0  0  0  0  0  0
   -4.7181   12.0645  -31.9057 H   0  0  0  0  0  0  0  0  0  0  0  0
   -3.5142   13.3977  -31.9057 H   0  0  0  0  0  0  0  0  0  0  0  0
   -4.2330   15.3598  -31.6590 H   0  0  0  0  0  0  0  0  0  0  0  0
   -8.7672   23.3751  -31.8806 H   0  0  0  0  0  0  0  0  0  0  0  0
   -8.0833   23.1315  -30.2237 H   0  0  0  0  0  0  0  0  0  0  0  0
   -6.6390   24.2564  -32.6729 H   0  0  0  0  0  0  0  0  0  0  0  0
   -7.0985   25.1363  -31.1703 H   0  0  0  0  0  0  0  0  0  0  0  0
  1  2  1  0
  2  3  1  0
  3  4  2  0
  4  5  1  0
  5  6  2  0
  6  7  1  0
  7  8  2  0
  8  9  1  0
  9 10  1  0
  6 11  1  0
 11 12  2  0
 12 13  1  0
 13 14  1  0
 14 15  2  0
 15 16  1  0
 16 17  2  0
 17 18  1  0
 18 19  1  0
 17 20  1  0
 20 21  2  0
 13 22  2  0
 22 23  1  0
 23 24  2  0
 23 25  1  0
 25 26  1  0
 26 27  1  0
  8  3  1  0
 25 11  1  0
 27  5  1  0
 21 14  1  0
  1 28  1  0
  1 29  1  0
  1 30  1  0
  4 31  1  0
  7 32  1  0
 10 33  1  0
 10 34  1  0
 10 35  1  0
 12 36  1  0
 15 37  1  0
 16 38  1  0
 19 39  1  0
 19 40  1  0
 19 41  1  0
 20 42  1  0
 26 43  1  0
 26 44  1  0
 27 45  1  0
 27 46  1  0
M  END
>  <UniqueID>  (6) 
5

>  <SMILES>  (6) 
COc1cc2c(cc1OC)-c1cc(-c3ccc(SC)cn3)nc(=O)n1CC2

>  <Energy>  (6) 
57.385911974061194

>  <Genealogy>  (6) 
COc1cc2c(cc1OC)-c1cc(-c3ccc(SC)cn3)nc(=O)n1CC2 (3D coordinates assigned)
COc1cc2c(cc1OC)-c1cc(-c3ccc(SC)cn3)nc(=O)n1CC2 (nonaromatic ring conformer: 57.385911974061194 kcal/mol)

>  <smiles>  (6) 
COc1cc2c(cc1OC)-c1cc(-c3ccc(SC)cn3)nc(=O)n1CC2

>  <score_type>  (6) 
oracle

>  <origin>  (6) 
adg

>  <m_score__min__energy>  (6) 
-8.5500000000000007

>  <m_primary>  (6) 
energy

$$$$
6:0
     RDKit          3D

 49 53  0  0  0  0  0  0  0  0999 V2000
   -2.3040   22.1570  -29.0020 F   0  0  0  0  0  0  0  0  0  0  0  0
   -2.0240   23.0000  -30.0610 C   0  0  0  0  0  0  0  0  0  0  0  0
   -1.2490   22.3170  -30.9790 F   0  0  0  0  0  0  0  0  0  0  0  0
   -1.3230   24.0900  -29.5800 F   0  0  0  0  0  0  0  0  0  0  0  0
   -3.3050   23.4410  -30.7080 C   0  0  0  0  0  0  0  0  0  0  0  0
   -3.9200   24.6020  -30.4170 N   0  0  0  0  0  0  0  0  0  0  0  0
   -4.9790   24.6480  -31.2150 N   0  0  0  0  0  0  0  0  0  0  0  0
   -5.0250   23.5590  -31.9680 N   0  0  0  0  0  0  0  0  0  0  0  0
   -4.0000   22.7830  -31.6620 N   0  0  0  0  0  0  0  0  0  0  0  0
   -3.7300   21.5240  -32.2990 C   0  0  0  0  0  0  0  0  0  0  0  0
   -4.2190   20.3380  -31.7310 C   0  0  0  0  0  0  0  0  0  0  0  0
   -3.9610   19.1050  -32.3360 C   0  0  0  0  0  0  0  0  0  0  0  0
   -3.2040   19.0390  -33.5170 C   0  0  0  0  0  0  0  0  0  0  0  0
   -2.9370   17.7140  -34.1810 C   0  0  0  0  0  0  0  0  0  0  0  0
   -3.9280   16.7160  -33.7620 N   0  0  0  0  0  0  0  0  0  0  0  0
   -5.2800   16.7440  -33.9390 C   0  0  0  0  0  0  0  0  0  0  0  0
   -6.0390   17.8650  -34.5930 C   0  0  0  0  0  0  0  0  0  0  0  0
   -6.8640   18.6050  -33.5740 C   0  0  0  0  0  0  0  0  0  0  0  0
   -7.5910   17.9000  -32.6000 C   0  0  0  0  0  0  0  0  0  0  0  0
   -8.3350   18.5900  -31.6390 C   0  0  0  0  0  0  0  0  0  0  0  0
   -8.3490   19.9880  -31.6340 C   0  0  0  0  0  0  0  0  0  0  0  0
   -7.6150   20.6970  -32.5880 C   0  0  0  0  0  0  0  0  0  0  0  0
   -6.8730   20.0110  -33.5530 C   0  0  0  0  0  0  0  0  0  0  0  0
   -5.9110   15.6470  -33.4410 N   0  0  0  0  0  0  0  0  0  0  0  0
   -4.8990   14.9070  -32.9550 C   0  0  0  0  0  0  0  0  0  0  0  0
   -4.9850   13.6600  -32.3410 C   0  0  0  0  0  0  0  0  0  0  0  0
   -3.7870   13.0550  -31.9170 C   0  0  0  0  0  0  0  0  0  0  0  0
   -2.5490   13.7040  -32.1180 C   0  0  0  0  0  0  0  0  0  0  0  0
   -2.4960   14.9640  -32.7420 C   0  0  0  0  0  0  0  0  0  0  0  0
   -3.7050   15.5390  -33.1470 C   0  0  0  0  0  0  0  0  0  0  0  0
   -2.6770   20.2210  -34.0600 C   0  0  0  0  0  0  0  0  0  0  0  0
   -2.9350   21.4530  -33.4530 C   0  0  0  0  0  0  0  0  0  0  0  0
   -4.8092   20.3789  -30.8036 H   0  0  0  0  0  0  0  0  0  0  0  0
   -4.3529   18.1815  -31.8849 H   0  0  0  0  0  0  0  0  0  0  0  0
   -2.9900   17.8397  -35.2725 H   0  0  0  0  0  0  0  0  0  0  0  0
   -1.9364   17.3652  -33.8857 H   0  0  0  0  0  0  0  0  0  0  0  0
   -5.3265   18.5623  -35.0579 H   0  0  0  0  0  0  0  0  0  0  0  0
   -6.7092   17.4440  -35.3569 H   0  0  0  0  0  0  0  0  0  0  0  0
   -7.5745   16.8001  -32.5938 H   0  0  0  0  0  0  0  0  0  0  0  0
   -8.9104   18.0323  -30.8854 H   0  0  0  0  0  0  0  0  0  0  0  0
   -8.9379   20.5296  -30.8790 H   0  0  0  0  0  0  0  0  0  0  0  0
   -7.6212   21.7970  -32.5795 H   0  0  0  0  0  0  0  0  0  0  0  0
   -6.2932   20.5734  -34.2997 H   0  0  0  0  0  0  0  0  0  0  0  0
   -5.9559   13.1648  -32.1925 H   0  0  0  0  0  0  0  0  0  0  0  0
   -3.8152   12.0710  -31.4262 H   0  0  0  0  0  0  0  0  0  0  0  0
   -1.6189   13.2208  -31.7842 H   0  0  0  0  0  0  0  0  0  0  0  0
   -1.5377   15.4786  -32.9055 H   0  0  0  0  0  0  0  0  0  0  0  0
   -2.0577   20.1774  -34.9681 H   0  0  0  0  0  0  0  0  0  0  0  0
   -2.5121   22.3731  -33.8827 H   0  0  0  0  0  0  0  0  0  0  0  0
  1  2  1  0
  2  3  1  0
  2  4  1  0
  2  5  1  0
  5  6  2  0
  6  7  1  0
  7  8  2  0
  8  9  1  0
  9 10  1  0
 10 11  2  0
 11 12  1  0
 12 13  2  0
 13 14  1  0
 14 15  1  0
 15 16  1  0
 16 17  1  0
 17 18  1  0
 18 19  2  0
 19 20  1  0
 20 21  2  0
 21 22  1  0
 22 23  2  0
 16 24  2  0
 24 25  1  0
 25 26  2  0
 26 27  1  0
 27 28  2  0
 28 29  1  0
 29 30  2  0
 13 31  1  0
 31 32  2  0
  9  5  1  0
 32 10  1  0
 30 15  1  0
 23 18  1  0
 30 25  1  0
 11 33  1  0
 12 34  1  0
 14 35  1  0
 14 36  1  0
 17 37  1  0
 17 38  1  0
 19 39  1  0
 20 40  1  0
 21 41  1  0
 22 42  1  0
 23 43  1  0
 26 44  1  0
 27 45  1  0
 28 46  1  0
 29 47  1  0
 31 48  1  0
 32 49  1  0
M  END
>  <UniqueID>  (7) 
6

>  <SMILES>  (7) 
FC(F)(F)c1nnnn1-c1ccc(Cn2c(Cc3ccccc3)nc3ccccc32)cc1

>  <Energy>  (7) 
134.2331072900572

>  <Genealogy>  (7) 
FC(F)(F)c1nnnn1-c1ccc(Cn2c(Cc3ccccc3)nc3ccccc32)cc1 (3D coordinates assigned)
FC(F)(F)c1nnnn1-c1ccc(Cn2c(Cc3ccccc3)nc3ccccc32)cc1 (optimized conformer: 134.2331072900572 kcal/mol)

>  <smiles>  (7) 
FC(F)(F)c1nnnn1-c1ccc(Cn2c(Cc3ccccc3)nc3ccccc32)cc1

>  <score_type>  (7) 
oracle

>  <origin>  (7) 
adg

>  <m_score__min__energy>  (7) 
-9.4399999999999995

>  <m_primary>  (7) 
energy

$$$$
7:0
     RDKit          3D

 29 31  0  0  0  0  0  0  0  0999 V2000
   -8.9013   21.8692  -31.6597 H   0  0  0  0  0  0  0  0  0  0  0  0
   -7.9920   22.4250  -31.3870 C   0  0  0  0  0  0  0  0  0  0  0  0
   -7.5630   22.4350  -30.0980 N   0  0  0  0  0  0  0  0  0  0  0  0
   -6.4440   23.1100  -29.7210 C   0  0  0  0  0  0  0  0  0  0  0  0
   -6.1262   23.0965  -28.6680 H   0  0  0  0  0  0  0  0  0  0  0  0
   -5.6910   23.8250  -30.6690 C   0  0  0  0  0  0  0  0  0  0  0  0
   -4.4700   24.5630  -30.2690 C   0  0  0  0  0  0  0  0  0  0  0  0
   -4.1820   25.6510  -30.8410 O   0  0  0  0  0  0  0  0  0  0  0  0
   -3.6220   24.0370  -29.2340 N   0  0  0  0  0  0  0  0  0  0  0  0
   -2.6320   24.6590  -28.6640 C   0  0  0  0  0  0  0  0  0  0  0  0
   -1.5300   25.1010  -29.2990 N   0  0  0  0  0  0  0  0  0  0  0  0
   -0.7800   25.6710  -28.3680 N   0  0  0  0  0  0  0  0  0  0  0  0
   -1.4560   25.5510  -27.2060 C   0  0  0  0  0  0  0  0  0  0  0  0
   -0.9740   26.0560  -25.9060 C   0  0  0  0  0  0  0  0  0  0  0  0
   -0.9580   27.4310  -25.6260 C   0  0  0  0  0  0  0  0  0  0  0  0
   -1.3083   28.1498  -26.3814 H   0  0  0  0  0  0  0  0  0  0  0  0
   -0.4980   27.8870  -24.3900 C   0  0  0  0  0  0  0  0  0  0  0  0
   -0.4832   28.9638  -24.1659 H   0  0  0  0  0  0  0  0  0  0  0  0
   -0.0570   26.9640  -23.4410 C   0  0  0  0  0  0  0  0  0  0  0  0
    0.3071   27.3137  -22.4637 H   0  0  0  0  0  0  0  0  0  0  0  0
   -0.0760   25.6330  -23.7210 N   0  0  0  0  0  0  0  0  0  0  0  0
    0.2570   24.9550  -23.0000 H   0  0  0  0  0  0  0  0  0  0  0  0
   -0.5200   25.1650  -24.9200 C   0  0  0  0  0  0  0  0  0  0  0  0
   -0.5231   24.0829  -25.1175 H   0  0  0  0  0  0  0  0  0  0  0  0
   -2.5980   24.9290  -27.3830 O   0  0  0  0  0  0  0  0  0  0  0  0
   -6.1280   23.8200  -32.0050 C   0  0  0  0  0  0  0  0  0  0  0  0
   -5.5602   24.3703  -32.7698 H   0  0  0  0  0  0  0  0  0  0  0  0
   -7.2800   23.1190  -32.3640 C   0  0  0  0  0  0  0  0  0  0  0  0
   -7.6233   23.1141  -33.4090 H   0  0  0  0  0  0  0  0  0  0  0  0
  1  2  1  0
  2  3  2  0
  3  4  1  0
  4  5  1  0
  4  6  2  0
  6  7  1  0
  7  8  2  0
  7  9  1  0
  9 10  2  0
 10 11  1  0
 11 12  1  0
 12 13  2  0
 13 14  1  0
 14 15  2  0
 15 16  1  0
 15 17  1  0
 17 18  1  0
 17 19  2  0
 19 20  1  0
 19 21  1  0
 21 22  1  0
 21 23  2  0
 23 24  1  0
 13 25  1  0
  6 26  1  0
 26 27  1  0
 26 28  2  0
 28 29  1  0
 28  2  1  0
 25 10  1  0
 23 14  1  0
M  CHG  2  11  -1  21   1
M  END
>  <UniqueID>  (8) 
7

>  <SMILES>  (8) 
O=C(/N=c1\[n-]nc(-c2ccc[nH+]c2)o1)c1cccnc1

>  <Energy>  (8) 
70.9295393386546

>  <Genealogy>  (8) 
O=C(N=c1[n-]nc(-c2ccc[nH+]c2)o1)c1cccnc1 (protonated)
O=C(/N=c1\[n-]nc(-c2ccc[nH+]c2)o1)c1cccnc1 (cis-trans isomerization)
O=C(/N=c1\[n-]nc(-c2ccc[nH+]c2)o1)c1cccnc1 (3D coordinates assigned)
O=C(/N=c1\[n-]nc(-c2ccc[nH+]c2)o1)c1cccnc1 (optimized conformer: 70.9295393386546 kcal/mol)

>  <smiles>  (8) 
O=C(N=c1[nH]nc(-c2cccnc2)o1)c1cccnc1

>  <score_type>  (8) 
oracle

>  <origin>  (8) 
adg

>  <m_score__min__energy>  (8) 
-9.1300000000000008

>  <m_primary>  (8) 
energy

$$$$
8:0
     RDKit          3D

 31 34  0  0  0  0  0  0  0  0999 V2000
   -9.2260   22.8410  -32.1930 C   0  0  0  0  0  0  0  0  0  0  0  0
   -8.7170   21.4910  -31.9810 N   0  0  0  0  0  0  0  0  0  0  0  0
   -9.4950   20.4200  -31.9860 N   0  0  0  0  0  0  0  0  0  0  0  0
   -8.7110   19.3400  -31.7990 C   0  0  0  0  0  0  0  0  0  0  0  0
   -7.3940   19.7380  -31.6720 C   0  0  0  0  0  0  0  0  0  0  0  0
   -7.4370   21.1130  -31.7770 C   0  0  0  0  0  0  0  0  0  0  0  0
   -6.2650   22.0060  -31.7070 C   0  0  0  0  0  0  0  0  0  0  0  0
   -5.0220   21.8630  -32.3320 C   0  0  0  0  0  0  0  0  0  0  0  0
   -4.6190   20.7280  -33.2340 C   0  0  0  0  0  0  0  0  0  0  0  0
   -3.8810   19.6040  -32.5230 C   0  0  0  0  0  0  0  0  0  0  0  0
   -3.1260   20.5300  -33.4620 C   0  0  0  0  0  0  0  0  0  0  0  0
   -4.2480   22.9470  -32.0770 N   0  0  0  0  0  0  0  0  0  0  0  0
   -4.9720   23.7520  -31.3210 N   0  0  0  0  0  0  0  0  0  0  0  0
   -4.5750   24.9340  -30.8540 N   0  0  0  0  0  0  0  0  0  0  0  0
   -5.4320   25.6720  -30.0910 C   0  0  0  0  0  0  0  0  0  0  0  0
   -6.7180   25.1760  -29.8070 C   0  0  0  0  0  0  0  0  0  0  0  0
   -7.1110   23.9280  -30.3130 C   0  0  0  0  0  0  0  0  0  0  0  0
   -6.1840   23.2350  -31.0860 C   0  0  0  0  0  0  0  0  0  0  0  0
   -9.4072   23.3215  -31.2202 H   0  0  0  0  0  0  0  0  0  0  0  0
   -8.4870   23.4268  -32.7593 H   0  0  0  0  0  0  0  0  0  0  0  0
  -10.1678   22.7930  -32.7593 H   0  0  0  0  0  0  0  0  0  0  0  0
   -9.0657   18.2997  -31.7543 H   0  0  0  0  0  0  0  0  0  0  0  0
   -6.5097   19.1015  -31.5211 H   0  0  0  0  0  0  0  0  0  0  0  0
   -5.4898   20.8114  -33.9009 H   0  0  0  0  0  0  0  0  0  0  0  0
   -3.7073   19.6604  -31.4383 H   0  0  0  0  0  0  0  0  0  0  0  0
   -4.0129   18.5147  -32.4458 H   0  0  0  0  0  0  0  0  0  0  0  0
   -2.4066   21.2568  -33.0569 H   0  0  0  0  0  0  0  0  0  0  0  0
   -2.4859   20.3889  -34.3454 H   0  0  0  0  0  0  0  0  0  0  0  0
   -5.1190   26.6511  -29.6993 H   0  0  0  0  0  0  0  0  0  0  0  0
   -7.4128   25.7650  -29.1902 H   0  0  0  0  0  0  0  0  0  0  0  0
   -8.1095   23.5147  -30.1075 H   0  0  0  0  0  0  0  0  0  0  0  0
  1  2  1  0
  2  3  1  0
  3  4  2  0
  4  5  1  0
  5  6  2  0
  6  7  1  0
  7  8  1  0
  8  9  1  0
  9 10  1  0
 10 11  1  0
  8 12  2  0
 12 13  1  0
 13 14  1  0
 14 15  2  0
 15 16  1  0
 16 17  2  0
 17 18  1  0
  6  2  1  0
 18  7  2  0
 11  9  1  0
 18 13  1  0
  1 19  1  0
  1 20  1  0
  1 21  1  0
  4 22  1  0
  5 23  1  0
  9 24  1  0
 10 25  1  0
 10 26  1  0
 11 27  1  0
 11 28  1  0
 15 29  1  0
 16 30  1  0
 17 31  1  0
M  END
>  <UniqueID>  (9) 
8

>  <SMILES>  (9) 
Cn1nccc1-c1c(C2CC2)nn2ncccc12

>  <Energy>  (9) 
369.7812344664317

>  <Genealogy>  (9) 
Cn1nccc1-c1c(C2CC2)nn2ncccc12 (3D coordinates assigned)
Cn1nccc1-c1c(C2CC2)nn2ncccc12 (nonaromatic ring conformer: 369.7812344664317 kcal/mol)

>  <smiles>  (9) 
Cn1nccc1-c1c(C2CC2)nn2ncccc12

>  <score_type>  (9) 
oracle

>  <origin>  (9) 
adg

>  <m_score__min__energy>  (9) 
-7.7199999999999998

>  <m_primary>  (9) 
energy

$$$$
9:0
     RDKit          3D

 63 67  0  0  0  0  0  0  0  0999 V2000
   -5.5034   15.5560  -32.1916 H   0  0  0  0  0  0  0  0  0  0  0  0
   -5.4370   16.4990  -32.7540 C   0  0  0  0  0  0  0  0  0  0  0  0
   -5.6850   17.7150  -32.1110 C   0  0  0  0  0  0  0  0  0  0  0  0
   -5.9474   17.7276  -31.0428 H   0  0  0  0  0  0  0  0  0  0  0  0
   -5.6000   18.9190  -32.8250 C   0  0  0  0  0  0  0  0  0  0  0  0
   -5.8710   20.1730  -32.1660 N   0  0  0  0  0  0  0  0  0  0  0  0
   -4.8310   20.9320  -31.6820 C   0  0  0  0  0  0  0  0  0  0  0  0
   -4.0820   23.0020  -30.5400 C   0  0  0  0  0  0  0  0  0  0  0  0
   -4.3112   23.9602  -30.0509 H   0  0  0  0  0  0  0  0  0  0  0  0
   -2.7450   22.5990  -30.6660 C   0  0  0  0  0  0  0  0  0  0  0  0
   -1.8460   23.4240  -30.1900 N   0  0  0  0  0  0  0  0  0  0  0  0
   -0.3010   20.6520  -30.1470 C   0  0  0  0  0  0  0  0  0  0  0  0
   -0.1650   21.5830  -29.5772 H   0  0  0  0  0  0  0  0  0  0  0  0
    0.6575   20.2940  -30.5508 H   0  0  0  0  0  0  0  0  0  0  0  0
   -0.8600   19.5710  -29.2090 C   0  0  0  0  0  0  0  0  0  0  0  0
   -0.0243   19.1319  -28.6444 H   0  0  0  0  0  0  0  0  0  0  0  0
   -1.3713   18.8263  -29.8367 H   0  0  0  0  0  0  0  0  0  0  0  0
   -1.8970   20.1140  -28.2060 C   0  0  0  0  0  0  0  0  0  0  0  0
   -2.8971   19.7730  -28.5117 H   0  0  0  0  0  0  0  0  0  0  0  0
   -1.8279   21.2118  -28.2115 H   0  0  0  0  0  0  0  0  0  0  0  0
   -1.6380   19.6510  -26.8250 N   0  0  0  0  0  0  0  0  0  0  0  0
   -2.8100   18.9510  -26.2700 C   0  0  0  0  0  0  0  0  0  0  0  0
   -2.7663   18.9771  -25.1712 H   0  0  0  0  0  0  0  0  0  0  0  0
   -3.7298   19.4478  -26.6123 H   0  0  0  0  0  0  0  0  0  0  0  0
   -2.8087   17.9056  -26.6123 H   0  0  0  0  0  0  0  0  0  0  0  0
   -1.3060   20.7990  -25.9680 C   0  0  0  0  0  0  0  0  0  0  0  0
   -1.3911   20.5046  -24.9115 H   0  0  0  0  0  0  0  0  0  0  0  0
   -0.2765   21.1260  -26.1757 H   0  0  0  0  0  0  0  0  0  0  0  0
   -2.0021   21.6251  -26.1757 H   0  0  0  0  0  0  0  0  0  0  0  0
   -2.4390   21.3330  -31.2540 C   0  0  0  0  0  0  0  0  0  0  0  0
   -1.2030   20.9110  -31.2720 N   0  0  0  0  0  0  0  0  0  0  0  0
   -1.6020   23.8160  -28.8310 C   0  0  0  0  0  0  0  0  0  0  0  0
   -0.3340   23.6150  -28.2720 C   0  0  0  0  0  0  0  0  0  0  0  0
    0.4713   23.1785  -28.8811 H   0  0  0  0  0  0  0  0  0  0  0  0
   -0.0890   23.9680  -26.9410 C   0  0  0  0  0  0  0  0  0  0  0  0
    0.9136   23.8264  -26.5112 H   0  0  0  0  0  0  0  0  0  0  0  0
   -1.1170   24.5010  -26.1550 C   0  0  0  0  0  0  0  0  0  0  0  0
   -0.8060   24.9500  -24.4890 Cl  0  0  0  0  0  0  0  0  0  0  0  0
   -2.3960   24.6640  -26.6990 C   0  0  0  0  0  0  0  0  0  0  0  0
   -3.2085   25.0706  -26.0790 H   0  0  0  0  0  0  0  0  0  0  0  0
   -2.6430   24.3110  -28.0290 C   0  0  0  0  0  0  0  0  0  0  0  0
   -3.6542   24.4212  -28.4478 H   0  0  0  0  0  0  0  0  0  0  0  0
   -3.4830   20.5350  -31.7760 C   0  0  0  0  0  0  0  0  0  0  0  0
   -3.2366   19.5820  -32.2669 H   0  0  0  0  0  0  0  0  0  0  0  0
   -5.1270   22.2150  -31.0210 C   0  0  0  0  0  0  0  0  0  0  0  0
   -6.4160   22.6150  -30.8970 N   0  0  0  0  0  0  0  0  0  0  0  0
   -6.6280   23.5250  -30.4270 H   0  0  0  0  0  0  0  0  0  0  0  0
   -7.4380   21.8510  -31.3720 C   0  0  0  0  0  0  0  0  0  0  0  0
   -8.7620   22.2940  -31.2220 C   0  0  0  0  0  0  0  0  0  0  0  0
   -8.9624   23.2540  -30.7237 H   0  0  0  0  0  0  0  0  0  0  0  0
   -9.8250   21.5280  -31.6990 C   0  0  0  0  0  0  0  0  0  0  0  0
  -10.8585   21.8832  -31.5734 H   0  0  0  0  0  0  0  0  0  0  0  0
   -9.5790   20.3140  -32.3340 C   0  0  0  0  0  0  0  0  0  0  0  0
  -10.4201   19.7131  -32.7102 H   0  0  0  0  0  0  0  0  0  0  0  0
   -8.2710   19.8550  -32.4960 C   0  0  0  0  0  0  0  0  0  0  0  0
   -8.0909   18.8940  -33.0000 H   0  0  0  0  0  0  0  0  0  0  0  0
   -7.1720   20.6120  -32.0190 C   0  0  0  0  0  0  0  0  0  0  0  0
   -5.2680   18.8970  -34.1880 C   0  0  0  0  0  0  0  0  0  0  0  0
   -5.2026   19.8388  -34.7526 H   0  0  0  0  0  0  0  0  0  0  0  0
   -5.0200   17.6790  -34.8300 C   0  0  0  0  0  0  0  0  0  0  0  0
   -4.7588   17.6638  -35.8984 H   0  0  0  0  0  0  0  0  0  0  0  0
   -5.1040   16.4810  -34.1140 C   0  0  0  0  0  0  0  0  0  0  0  0
   -4.8650   15.3020  -34.7390 F   0  0  0  0  0  0  0  0  0  0  0  0
  1  2  1  0
  2  3  2  0
  3  4  1  0
  3  5  1  0
  5  6  1  0
  6  7  1  0
  7  8  2  0
  8  9  1  0
  8 10  1  0
 10 11  2  0
 11 12  1  0
 12 13  1  0
 12 14  1  0
 12 15  1  0
 15 16  1  0
 15 17  1  0
 15 18  1  0
 18 19  1  0
 18 20  1  0
 18 21  1  0
 21 22  1  0
 22 23  1  0
 22 24  1  0
 22 25  1  0
 21 26  1  0
 26 27  1  0
 26 28  1  0
 26 29  1  0
 10 30  1  0
 30 31  2  0
 31 32  1  0
 32 33  2  0
 33 34  1  0
 33 35  1  0
 35 36  1  0
 35 37  2  0
 37 38  1  0
 37 39  1  0
 39 40  1  0
 39 41  2  0
 41 42  1  0
 30 43  1  0
 43 44  1  0
 43 45  2  0
 45 46  1  0
 46 47  1  0
 46 48  1  0
 48 49  2  0
 49 50  1  0
 49 51  1  0
 51 52  1  0
 51 53  2  0
 53 54  1  0
 53 55  1  0
 55 56  1  0
 55 57  2  0
  5 58  2  0
 58 59  1  0
 58 60  1  0
 60 61  1  0
 60 62  2  0
 62 63  1  0
 62  2  1  0
 57  6  1  0
 45  7  1  0
 57 48  1  0
 41 32  1  0
M  END
>  <UniqueID>  (10) 
9

>  <SMILES>  (10) 
CN(C)CCC/N=c1\cc2n(-c3ccc(F)cc3)c3ccccc3[nH]c-2c\c1=N\c1ccc(Cl)cc1

>  <Energy>  (10) 
99.39502842183461

>  <Genealogy>  (10) 
CN(C)CCC/N=c1\cc2n(-c3ccc(F)cc3)c3ccccc3[nH]c-2c\c1=N\c1ccc(Cl)cc1 (cis-trans isomerization)
CN(C)CCC/N=c1\cc2n(-c3ccc(F)cc3)c3ccccc3[nH]c-2c\c1=N\c1ccc(Cl)cc1 (3D coordinates assigned)
CN(C)CCC/N=c1\cc2n(-c3ccc(F)cc3)c3ccccc3[nH]c-2c\c1=N\c1ccc(Cl)cc1 (optimized conformer: 99.39502842183461 kcal/mol)

>  <smiles>  (10) 
CN(C)CCCN=c1cc2n(-c3ccc(F)cc3)c3ccccc3[nH]c-2cc1=Nc1ccc(Cl)cc1

>  <score_type>  (10) 
oracle

>  <origin>  (10) 
adg

>  <m_score__min__energy>  (10) 
-10.039999999999999

>  <m_primary>  (10) 
energy

$$$$
10:0
     RDKit          3D

 32 34  0  0  0  0  0  0  0  0999 V2000
   -0.8570   27.6230  -24.3120 C   0  0  0  0  0  0  0  0  0  0  0  0
   -0.1260   26.7170  -23.3160 C   0  0  0  0  0  0  0  0  0  0  0  0
    0.0370   25.3450  -23.8270 N   0  0  0  0  0  0  0  0  0  0  0  0
   -0.4060   25.2350  -25.1920 C   0  0  0  0  0  0  0  0  0  0  0  0
    0.4910   25.4300  -26.2710 C   0  0  0  0  0  0  0  0  0  0  0  0
    0.0550   25.3010  -27.5580 N   0  0  0  0  0  0  0  0  0  0  0  0
   -1.2440   24.9840  -27.7650 C   0  0  0  0  0  0  0  0  0  0  0  0
   -1.8310   24.8170  -28.9650 N   0  0  0  0  0  0  0  0  0  0  0  0
   -3.1170   24.5090  -28.6380 C   0  0  0  0  0  0  0  0  0  0  0  0
   -4.1690   24.2330  -29.6470 C   0  0  0  0  0  0  0  0  0  0  0  0
   -3.9690   23.2900  -30.6760 C   0  0  0  0  0  0  0  0  0  0  0  0
   -4.9730   23.0460  -31.6170 C   0  0  0  0  0  0  0  0  0  0  0  0
   -6.1860   23.7350  -31.5460 C   0  0  0  0  0  0  0  0  0  0  0  0
   -6.3970   24.6710  -30.5320 C   0  0  0  0  0  0  0  0  0  0  0  0
   -5.3960   24.9210  -29.5880 C   0  0  0  0  0  0  0  0  0  0  0  0
   -3.2720   24.4990  -27.2500 C   0  0  0  0  0  0  0  0  0  0  0  0
   -2.0750   24.8020  -26.7390 N   0  0  0  0  0  0  0  0  0  0  0  0
   -1.7050   24.9140  -25.4670 N   0  0  0  0  0  0  0  0  0  0  0  0
   -1.4553   28.3645  -23.7623 H   0  0  0  0  0  0  0  0  0  0  0  0
   -0.1213   28.1415  -24.9444 H   0  0  0  0  0  0  0  0  0  0  0  0
   -1.5193   27.0135  -24.9444 H   0  0  0  0  0  0  0  0  0  0  0  0
    0.8691   27.1410  -23.1159 H   0  0  0  0  0  0  0  0  0  0  0  0
   -0.7314   26.6659  -22.3990 H   0  0  0  0  0  0  0  0  0  0  0  0
    1.0390   25.0520  -23.7530 H   0  0  0  0  0  0  0  0  0  0  0  0
   -0.5270   24.6950  -23.2330 H   0  0  0  0  0  0  0  0  0  0  0  0
    1.5419   25.6861  -26.0711 H   0  0  0  0  0  0  0  0  0  0  0  0
   -3.0167   22.7429  -30.7385 H   0  0  0  0  0  0  0  0  0  0  0  0
   -4.8074   22.3088  -32.4164 H   0  0  0  0  0  0  0  0  0  0  0  0
   -6.9741   23.5403  -32.2883 H   0  0  0  0  0  0  0  0  0  0  0  0
   -7.3525   25.2130  -30.4754 H   0  0  0  0  0  0  0  0  0  0  0  0
   -5.5687   25.6612  -28.7929 H   0  0  0  0  0  0  0  0  0  0  0  0
   -4.1942   24.2847  -26.6899 H   0  0  0  0  0  0  0  0  0  0  0  0
  1  2  1  0
  2  3  1  0
  3  4  1  0
  4  5  1  0
  5  6  2  0
  6  7  1  0
  7  8  2  0
  8  9  1  0
  9 10  1  0
 10 11  2  0
 11 12  1  0
 12 13  2  0
 13 14  1  0
 14 15  2  0
  9 16  2  0
 16 17  1  0
 17 18  1  0
 18  4  2  0
 17  7  1  0
 15 10  1  0
  1 19  1  0
  1 20  1  0
  1 21  1  0
  2 22  1  0
  2 23  1  0
  3 24  1  0
  3 25  1  0
  5 26  1  0
 11 27  1  0
 12 28  1  0
 13 29  1  0
 14 30  1  0
 15 31  1  0
 16 32  1  0
M  CHG  1   3   1
M  END
>  <UniqueID>  (11) 
10

>  <SMILES>  (11) 
CC[NH2+]c1cnc2nc(-c3ccccc3)cn2n1

>  <Energy>  (11) 
72.57681046800968

>  <Genealogy>  (11) 
CC[NH2+]c1cnc2nc(-c3ccccc3)cn2n1 (protonated)
CC[NH2+]c1cnc2nc(-c3ccccc3)cn2n1 (3D coordinates assigned)
CC[NH2+]c1cnc2nc(-c3ccccc3)cn2n1 (optimized conformer: 72.57681046800968 kcal/mol)

>  <smiles>  (11) 
CCNc1cnc2nc(-c3ccccc3)cn2n1

>  <score_type>  (11) 
oracle

>  <origin>  (11) 
adg

>  <m_score__min__energy>  (11) 
-6.8600000000000003

>  <m_primary>  (11) 
energy

$$$$
11:0
     RDKit          3D

 67 70  0  0  0  0  0  0  0  0999 V2000
   -9.0750   18.5940  -31.5950 C   0  0  0  0  0  0  0  0  0  0  0  0
   -8.2160   19.4730  -32.3130 O   0  0  0  0  0  0  0  0  0  0  0  0
   -7.0030   19.0910  -32.9090 C   0  0  0  0  0  0  0  0  0  0  0  0
   -6.8670   17.8740  -33.6060 C   0  0  0  0  0  0  0  0  0  0  0  0
   -5.6360   17.5110  -34.1610 C   0  0  0  0  0  0  0  0  0  0  0  0
   -4.5320   18.3540  -34.0290 C   0  0  0  0  0  0  0  0  0  0  0  0
   -4.6570   19.5660  -33.3470 C   0  0  0  0  0  0  0  0  0  0  0  0
   -5.8900   19.9470  -32.7890 C   0  0  0  0  0  0  0  0  0  0  0  0
   -6.0090   21.2000  -32.0930 N   0  0  0  0  0  0  0  0  0  0  0  0
   -5.0560   22.2760  -32.3580 C   0  0  0  0  0  0  0  0  0  0  0  0
   -5.7730   23.6290  -32.3220 C   0  0  0  0  0  0  0  0  0  0  0  0
   -6.6390   23.7860  -31.1370 N   0  0  0  0  0  0  0  0  0  0  0  0
   -6.1040   24.5790  -30.0110 C   0  0  0  0  0  0  0  0  0  0  0  0
   -4.6570   25.0480  -30.2190 C   0  0  0  0  0  0  0  0  0  0  0  0
   -3.7410   24.3690  -29.2350 C   0  0  0  0  0  0  0  0  0  0  0  0
   -2.4790   24.9150  -28.9510 C   0  0  0  0  0  0  0  0  0  0  0  0
   -1.6420   24.3090  -28.0100 C   0  0  0  0  0  0  0  0  0  0  0  0
   -2.0590   23.1470  -27.3310 C   0  0  0  0  0  0  0  0  0  0  0  0
   -1.2620   22.4980  -26.3710 O   0  0  0  0  0  0  0  0  0  0  0  0
   -0.1420   23.0720  -25.6990 C   0  0  0  0  0  0  0  0  0  0  0  0
   -0.5940   23.8410  -24.4440 C   0  0  0  0  0  0  0  0  0  0  0  0
    0.2990   24.9910  -24.1410 N   0  0  0  0  0  0  0  0  0  0  0  0
   -0.4690   26.1550  -23.6460 C   0  0  0  0  0  0  0  0  0  0  0  0
   -1.3220   26.8010  -24.7640 C   0  0  0  0  0  0  0  0  0  0  0  0
   -0.9090   26.4340  -26.0690 O   0  0  0  0  0  0  0  0  0  0  0  0
    0.4980   26.4890  -26.1630 C   0  0  0  0  0  0  0  0  0  0  0  0
    1.1420   25.3780  -25.3060 C   0  0  0  0  0  0  0  0  0  0  0  0
   -3.3230   22.6160  -27.6070 C   0  0  0  0  0  0  0  0  0  0  0  0
   -4.1630   23.2220  -28.5460 C   0  0  0  0  0  0  0  0  0  0  0  0
   -7.5160   22.6440  -30.8000 C   0  0  0  0  0  0  0  0  0  0  0  0
   -6.7960   21.2920  -30.8650 C   0  0  0  0  0  0  0  0  0  0  0  0
   -8.9306   18.7417  -30.5146 H   0  0  0  0  0  0  0  0  0  0  0  0
  -10.1214   18.8082  -31.8578 H   0  0  0  0  0  0  0  0  0  0  0  0
   -8.8367   17.5528  -31.8578 H   0  0  0  0  0  0  0  0  0  0  0  0
   -7.7341   17.2058  -33.7141 H   0  0  0  0  0  0  0  0  0  0  0  0
   -5.5377   16.5588  -34.7029 H   0  0  0  0  0  0  0  0  0  0  0  0
   -3.5634   18.0638  -34.4621 H   0  0  0  0  0  0  0  0  0  0  0  0
   -3.7842   20.2277  -33.2455 H   0  0  0  0  0  0  0  0  0  0  0  0
   -4.2669   22.2610  -31.5918 H   0  0  0  0  0  0  0  0  0  0  0  0
   -4.6113   22.1285  -33.3532 H   0  0  0  0  0  0  0  0  0  0  0  0
   -5.0165   24.4275  -32.3128 H   0  0  0  0  0  0  0  0  0  0  0  0
   -6.4163   23.6867  -33.2124 H   0  0  0  0  0  0  0  0  0  0  0  0
   -6.7407   25.4660  -29.8775 H   0  0  0  0  0  0  0  0  0  0  0  0
   -6.1058   23.9241  -29.1272 H   0  0  0  0  0  0  0  0  0  0  0  0
   -4.3386   24.7997  -31.2422 H   0  0  0  0  0  0  0  0  0  0  0  0
   -4.6073   26.1357  -30.0624 H   0  0  0  0  0  0  0  0  0  0  0  0
   -2.1471   25.8251  -29.4722 H   0  0  0  0  0  0  0  0  0  0  0  0
   -0.6529   24.7413  -27.7985 H   0  0  0  0  0  0  0  0  0  0  0  0
    0.5499   22.2703  -25.4013 H   0  0  0  0  0  0  0  0  0  0  0  0
    0.3578   23.7742  -26.3824 H   0  0  0  0  0  0  0  0  0  0  0  0
   -1.6145   24.2177  -24.6072 H   0  0  0  0  0  0  0  0  0  0  0  0
   -0.5561   23.1484  -23.5902 H   0  0  0  0  0  0  0  0  0  0  0  0
    0.9420   24.7120  -23.3610 H   0  0  0  0  0  0  0  0  0  0  0  0
   -1.1359   25.8230  -22.8367 H   0  0  0  0  0  0  0  0  0  0  0  0
    0.2474   26.9079  -23.2856 H   0  0  0  0  0  0  0  0  0  0  0  0
   -2.3682   26.4894  -24.6287 H   0  0  0  0  0  0  0  0  0  0  0  0
   -1.1988   27.8907  -24.6784 H   0  0  0  0  0  0  0  0  0  0  0  0
    0.7960   26.3544  -27.2133 H   0  0  0  0  0  0  0  0  0  0  0  0
    0.8409   27.4667  -25.7934 H   0  0  0  0  0  0  0  0  0  0  0  0
    1.2976   24.4913  -25.9381 H   0  0  0  0  0  0  0  0  0  0  0  0
    2.0924   25.7690  -24.9138 H   0  0  0  0  0  0  0  0  0  0  0  0
   -3.6600   21.7115  -27.0794 H   0  0  0  0  0  0  0  0  0  0  0  0
   -5.1583   22.7980  -28.7453 H   0  0  0  0  0  0  0  0  0  0  0  0
   -7.9002   22.7871  -29.7793 H   0  0  0  0  0  0  0  0  0  0  0  0
   -8.3246   22.6207  -31.5454 H   0  0  0  0  0  0  0  0  0  0  0  0
   -6.1280   21.1936  -29.9966 H   0  0  0  0  0  0  0  0  0  0  0  0
   -7.5438   20.4853  -30.8557 H   0  0  0  0  0  0  0  0  0  0  0  0
  1  2  1  0
  2  3  1  0
  3  4  2  0
  4  5  1  0
  5  6  2  0
  6  7  1  0
  7  8  2  0
  8  9  1  0
  9 10  1  0
 10 11  1  0
 11 12  1  0
 12 13  1  0
 13 14  1  0
 14 15  1  0
 15 16  2  0
 16 17  1  0
 17 18  2  0
 18 19  1  0
 19 20  1  0
 20 21  1  0
 21 22  1  0
 22 23  1  0
 23 24  1  0
 24 25  1  0
 25 26  1  0
 26 27  1  0
 18 28  1  0
 28 29  2  0
 12 30  1  0
 30 31  1  0
  8  3  1  0
 31  9  1  0
 29 15  1  0
 27 22  1  0
  1 32  1  0
  1 33  1  0
  1 34  1  0
  4 35  1  0
  5 36  1  0
  6 37  1  0
  7 38  1  0
 10 39  1  0
 10 40  1  0
 11 41  1  0
 11 42  1  0
 13 43  1  0
 13 44  1  0
 14 45  1  0
 14 46  1  0
 16 47  1  0
 17 48  1  0
 20 49  1  0
 20 50  1  0
 21 51  1  0
 21 52  1  0
 22 53  1  0
 23 54  1  0
 23 55  1  0
 24 56  1  0
 24 57  1  0
 26 58  1  0
 26 59  1  0
 27 60  1  0
 27 61  1  0
 28 62  1  0
 29 63  1  0
 30 64  1  0
 30 65  1  0
 31 66  1  0
 31 67  1  0
M  CHG  1  22   1
M  END
>  <UniqueID>  (12) 
11

>  <SMILES>  (12) 
COc1ccccc1N1CCN(CCc2ccc(OCC[NH+]3CCOCC3)cc2)CC1

>  <Energy>  (12) 
93.13616453741827

>  <Genealogy>  (12) 
COc1ccccc1N1CCN(CCc2ccc(OCC[NH+]3CCOCC3)cc2)CC1 (protonated)
COc1ccccc1N1CCN(CCc2ccc(OCC[NH+]3CCOCC3)cc2)CC1 (3D coordinates assigned)
COc1ccccc1N1CCN(CCc2ccc(OCC[NH+]3CCOCC3)cc2)CC1 (nonaromatic ring conformer: 93.13616453741827 kcal/mol)

>  <smiles>  (12) 
COc1ccccc1N1CCN(CCc2ccc(OCCN3CCOCC3)cc2)CC1

>  <score_type>  (12) 
oracle

>  <origin>  (12) 
adg

>  <m_score__min__energy>  (12) 
-8.75

>  <m_primary>  (12) 
energy

$$$$
12:0
     RDKit          3D

 40 43  0  0  0  0  0  0  0  0999 V2000
   -0.9820   26.1430  -27.0640 C   0  0  0  0  0  0  0  0  0  0  0  0
   -0.5050   25.4860  -28.2350 O   0  0  0  0  0  0  0  0  0  0  0  0
   -0.7880   24.1520  -28.5710 C   0  0  0  0  0  0  0  0  0  0  0  0
    0.0280   23.0870  -28.1480 C   0  0  0  0  0  0  0  0  0  0  0  0
   -0.2920   21.7750  -28.4920 C   0  0  0  0  0  0  0  0  0  0  0  0
   -1.4190   21.5010  -29.2670 C   0  0  0  0  0  0  0  0  0  0  0  0
   -2.2500   22.5480  -29.7190 C   0  0  0  0  0  0  0  0  0  0  0  0
   -3.4050   22.3160  -30.5180 C   0  0  0  0  0  0  0  0  0  0  0  0
   -3.7920   20.9060  -30.9460 C   0  0  0  0  0  0  0  0  0  0  0  0
   -5.2160   20.7750  -31.2600 N   0  0  0  0  0  0  0  0  0  0  0  0
   -6.1380   21.6170  -30.8010 N   0  0  0  0  0  0  0  0  0  0  0  0
   -7.3110   21.2270  -31.3330 C   0  0  0  0  0  0  0  0  0  0  0  0
   -8.5620   21.8150  -31.1540 C   0  0  0  0  0  0  0  0  0  0  0  0
   -9.6550   21.2480  -31.8340 C   0  0  0  0  0  0  0  0  0  0  0  0
   -9.4740   20.1240  -32.6730 C   0  0  0  0  0  0  0  0  0  0  0  0
   -8.1970   19.5540  -32.8380 C   0  0  0  0  0  0  0  0  0  0  0  0
   -7.1350   20.1350  -32.1440 C   0  0  0  0  0  0  0  0  0  0  0  0
   -5.7870   19.8530  -32.0810 C   0  0  0  0  0  0  0  0  0  0  0  0
   -5.0470   18.7980  -32.8480 C   0  0  0  0  0  0  0  0  0  0  0  0
   -4.2150   23.4180  -30.8570 C   0  0  0  0  0  0  0  0  0  0  0  0
   -3.8520   24.7060  -30.4660 C   0  0  0  0  0  0  0  0  0  0  0  0
   -4.5700   25.6890  -30.7870 O   0  0  0  0  0  0  0  0  0  0  0  0
   -2.7290   24.9060  -29.7350 N   0  0  0  0  0  0  0  0  0  0  0  0
   -1.9260   23.8790  -29.3500 C   0  0  0  0  0  0  0  0  0  0  0  0
   -0.6040   25.6224  -26.1718 H   0  0  0  0  0  0  0  0  0  0  0  0
   -0.6283   27.1846  -27.0581 H   0  0  0  0  0  0  0  0  0  0  0  0
   -2.0819   26.1292  -27.0581 H   0  0  0  0  0  0  0  0  0  0  0  0
    0.9234   23.2909  -27.5425 H   0  0  0  0  0  0  0  0  0  0  0  0
    0.3490   20.9492  -28.1498 H   0  0  0  0  0  0  0  0  0  0  0  0
   -1.6619   20.4603  -29.5279 H   0  0  0  0  0  0  0  0  0  0  0  0
   -3.2097   20.6386  -31.8401 H   0  0  0  0  0  0  0  0  0  0  0  0
   -3.5778   20.2348  -30.1012 H   0  0  0  0  0  0  0  0  0  0  0  0
   -8.6901   22.6925  -30.5032 H   0  0  0  0  0  0  0  0  0  0  0  0
  -10.6583   21.6822  -31.7123 H   0  0  0  0  0  0  0  0  0  0  0  0
  -10.3371   19.6919  -33.2006 H   0  0  0  0  0  0  0  0  0  0  0  0
   -8.0422   18.6821  -33.4905 H   0  0  0  0  0  0  0  0  0  0  0  0
   -4.5615   18.1058  -32.1443 H   0  0  0  0  0  0  0  0  0  0  0  0
   -5.7537   18.2414  -33.4811 H   0  0  0  0  0  0  0  0  0  0  0  0
   -4.2831   19.2729  -33.4811 H   0  0  0  0  0  0  0  0  0  0  0  0
   -5.1388   23.2612  -31.4333 H   0  0  0  0  0  0  0  0  0  0  0  0
  1  2  1  0
  2  3  1  0
  3  4  2  0
  4  5  1  0
  5  6  2  0
  6  7  1  0
  7  8  1  0
  8  9  1  0
  9 10  1  0
 10 11  1  0
 11 12  2  0
 12 13  1  0
 13 14  2  0
 14 15  1  0
 15 16  2  0
 16 17  1  0
 17 18  2  0
 18 19  1  0
  8 20  2  0
 20 21  1  0
 21 22  2  0
 21 23  1  0
 23 24  1  0
 24  3  1  0
 24  7  2  0
 18 10  1  0
 17 12  1  0
  1 25  1  0
  1 26  1  0
  1 27  1  0
  4 28  1  0
  5 29  1  0
  6 30  1  0
  9 31  1  0
  9 32  1  0
 13 33  1  0
 14 34  1  0
 15 35  1  0
 16 36  1  0
 19 37  1  0
 19 38  1  0
 19 39  1  0
 20 40  1  0
M  CHG  1  23  -1
M  END
>  <UniqueID>  (13) 
12

>  <SMILES>  (13) 
COc1cccc2c(Cn3nc4ccccc4c3C)cc(=O)[n-]c12

>  <Energy>  (13) 
88.78354391138814

>  <Genealogy>  (13) 
COc1cccc2c(Cn3nc4ccccc4c3C)cc(=O)[n-]c12 (protonated)
COc1cccc2c(Cn3nc4ccccc4c3C)cc(=O)[n-]c12 (3D coordinates assigned)
COc1cccc2c(Cn3nc4ccccc4c3C)cc(=O)[n-]c12 (optimized conformer: 88.78354391138814 kcal/mol)

>  <smiles>  (13) 
COc1cccc2c(Cn3nc4ccccc4c3C)cc(=O)[nH]c12

>  <score_type>  (13) 
oracle

>  <origin>  (13) 
adg

>  <m_score__min__energy>  (13) 
-10.640000000000001

>  <m_primary>  (13) 
energy

$$$$
13:0
     RDKit          3D

 47 50  0  0  0  0  0  0  0  0999 V2000
   -4.3967   17.9360  -35.8392 H   0  0  0  0  0  0  0  0  0  0  0  0
   -4.7940   17.9030  -34.8140 C   0  0  0  0  0  0  0  0  0  0  0  0
   -3.9170   17.5410  -33.4280 S   0  0  0  0  0  0  0  0  0  0  0  0
   -5.1890   17.6930  -32.3400 C   0  0  0  0  0  0  0  0  0  0  0  0
   -5.1304   17.5477  -31.2512 H   0  0  0  0  0  0  0  0  0  0  0  0
   -6.3290   18.0350  -33.0600 C   0  0  0  0  0  0  0  0  0  0  0  0
   -7.6640   18.2890  -32.4200 C   0  0  0  0  0  0  0  0  0  0  0  0
   -7.7877   17.6136  -31.5606 H   0  0  0  0  0  0  0  0  0  0  0  0
   -8.4547   18.1069  -33.1627 H   0  0  0  0  0  0  0  0  0  0  0  0
   -7.7580   19.6880  -31.9560 N   0  0  0  0  0  0  0  0  0  0  0  0
   -9.0540   20.3060  -32.3490 C   0  0  0  0  0  0  0  0  0  0  0  0
   -9.8755   19.6577  -32.0102 H   0  0  0  0  0  0  0  0  0  0  0  0
   -9.0644   20.4152  -33.4435 H   0  0  0  0  0  0  0  0  0  0  0  0
   -9.2320   21.7160  -31.7190 C   0  0  0  0  0  0  0  0  0  0  0  0
   -9.8488   21.6338  -30.8119 H   0  0  0  0  0  0  0  0  0  0  0  0
   -9.7243   22.3763  -32.4482 H   0  0  0  0  0  0  0  0  0  0  0  0
   -7.8650   22.3060  -31.3510 C   0  0  1  0  0  0  0  0  0  0  0  0
   -7.7085   21.8633  -30.3563 H   0  0  0  0  0  0  0  0  0  0  0  0
   -6.8730   21.9850  -32.4340 C   0  0  1  0  0  0  0  0  0  0  0  0
   -7.2460   22.2035  -33.4455 H   0  0  0  0  0  0  0  0  0  0  0  0
   -5.7510   22.7910  -32.1940 O   0  0  0  0  0  0  0  0  0  0  0  0
   -6.2860   24.0270  -31.7480 C   0  0  2  0  0  0  0  0  0  0  0  0
   -6.3228   24.7396  -32.5852 H   0  0  0  0  0  0  0  0  0  0  0  0
   -5.3990   24.6570  -30.6990 C   0  0  0  0  0  0  0  0  0  0  0  0
   -5.9330   25.2950  -29.7530 O   0  0  0  0  0  0  0  0  0  0  0  0
   -3.9720   24.6780  -30.8300 N   0  0  0  0  0  0  0  0  0  0  0  0
   -3.1270   24.3490  -29.8990 C   0  0  0  0  0  0  0  0  0  0  0  0
   -2.3110   25.2810  -29.3290 N   0  0  0  0  0  0  0  0  0  0  0  0
   -1.4040   24.9580  -28.3660 C   0  0  0  0  0  0  0  0  0  0  0  0
   -0.5600   26.0330  -27.7590 C   0  0  0  0  0  0  0  0  0  0  0  0
   -0.6130   25.9655  -26.6624 H   0  0  0  0  0  0  0  0  0  0  0  0
    0.4833   25.9075  -28.0841 H   0  0  0  0  0  0  0  0  0  0  0  0
   -0.9295   27.0168  -28.0841 H   0  0  0  0  0  0  0  0  0  0  0  0
   -1.3100   23.6340  -27.9200 C   0  0  0  0  0  0  0  0  0  0  0  0
   -0.6006   23.3656  -27.1233 H   0  0  0  0  0  0  0  0  0  0  0  0
   -2.1250   22.6580  -28.4960 C   0  0  0  0  0  0  0  0  0  0  0  0
   -2.0525   21.6123  -28.1624 H   0  0  0  0  0  0  0  0  0  0  0  0
   -3.0330   23.0120  -29.4970 C   0  0  0  0  0  0  0  0  0  0  0  0
   -3.6687   22.2461  -29.9652 H   0  0  0  0  0  0  0  0  0  0  0  0
   -7.7270   23.7980  -31.2410 C   0  0  0  0  0  0  0  0  0  0  0  0
   -7.8423   24.1341  -30.2000 H   0  0  0  0  0  0  0  0  0  0  0  0
   -8.4889   24.3561  -31.8050 H   0  0  0  0  0  0  0  0  0  0  0  0
   -6.5810   20.4750  -32.4280 C   0  0  0  0  0  0  0  0  0  0  0  0
   -5.7296   20.2790  -31.7596 H   0  0  0  0  0  0  0  0  0  0  0  0
   -6.3519   20.1655  -33.4584 H   0  0  0  0  0  0  0  0  0  0  0  0
   -6.1060   18.1530  -34.4410 C   0  0  0  0  0  0  0  0  0  0  0  0
   -6.8964   18.4184  -35.1586 H   0  0  0  0  0  0  0  0  0  0  0  0
  1  2  1  0
  2  3  1  0
  3  4  1  0
  4  5  1  0
  4  6  2  0
  6  7  1  0
  7  8  1  0
  7  9  1  0
  7 10  1  0
 10 11  1  0
 11 12  1  0
 11 13  1  0
 11 14  1  0
 14 15  1  0
 14 16  1  0
 14 17  1  0
 17 18  1  1
 17 19  1  0
 19 20  1  6
 19 21  1  0
 21 22  1  0
 22 23  1  6
 22 24  1  0
 24 25  2  0
 24 26  1  0
 26 27  2  0
 27 28  1  0
 28 29  1  0
 29 30  1  0
 30 31  1  0
 30 32  1  0
 30 33  1  0
 29 34  2  0
 34 35  1  0
 34 36  1  0
 36 37  1  0
 36 38  2  0
 38 39  1  0
 22 40  1  0
 40 41  1  0
 40 42  1  0
 19 43  1  0
 43 44  1  0
 43 45  1  0
  6 46  1  0
 46 47  1  0
 46  2  2  0
 43 10  1  0
 40 17  1  0
 38 27  1  0
M  CHG  1  28  -1
M  END
>  <UniqueID>  (14) 
13

>  <SMILES>  (14) 
Cc1ccc/c(=N/C(=O)[C@@H]2C[C@H]3CCN(Cc4ccsc4)CC3O2)[n-]1

>  <Energy>  (14) 
92.6109285101323

>  <Genealogy>  (14) 
Cc1cccc(=NC(=O)C2CC3CCN(Cc4ccsc4)CC3O2)[n-]1 (protonated)
Cc1cccc(=NC(=O)[C@@H]2C[C@H]3CCN(Cc4ccsc4)CC3O2)[n-]1 (chirality)
Cc1ccc/c(=N/C(=O)[C@@H]2C[C@H]3CCN(Cc4ccsc4)CC3O2)[n-]1 (cis-trans isomerization)
Cc1ccc/c(=N/C(=O)[C@@H]2C[C@H]3CCN(Cc4ccsc4)CC3O2)[n-]1 (3D coordinates assigned)
Cc1ccc/c(=N/C(=O)[C@@H]2C[C@H]3CCN(Cc4ccsc4)CC3O2)[n-]1 (nonaromatic ring conformer: 92.6109285101323 kcal/mol)

>  <smiles>  (14) 
Cc1cccc(=NC(=O)C2CC3CCN(Cc4ccsc4)CC3O2)[nH]1

>  <score_type>  (14) 
oracle

>  <origin>  (14) 
adg

>  <m_score__min__energy>  (14) 
-11.32

>  <m_primary>  (14) 
energy

$$$$
14:0
     RDKit          3D

 34 35  0  0  0  0  0  0  0  0999 V2000
   -2.3190   22.2960  -30.8740 C   0  0  0  0  0  0  0  0  0  0  0  0
   -2.0880   20.9930  -31.6330 C   0  0  0  0  0  0  0  0  0  0  0  0
   -1.3130   21.2370  -32.9340 C   0  0  0  0  0  0  0  0  0  0  0  0
   -2.1540   20.9380  -34.1060 N   0  0  0  0  0  0  0  0  0  0  0  0
   -2.5320   19.5160  -34.1620 C   0  0  0  0  0  0  0  0  0  0  0  0
   -3.9850   19.3170  -33.8440 C   0  0  0  0  0  0  0  0  0  0  0  0
   -4.6890   18.1390  -33.9800 C   0  0  0  0  0  0  0  0  0  0  0  0
   -5.9700   18.4210  -33.5560 C   0  0  0  0  0  0  0  0  0  0  0  0
   -5.9680   19.7580  -33.1880 C   0  0  0  0  0  0  0  0  0  0  0  0
   -7.1220   20.5260  -32.6540 C   0  0  0  0  0  0  0  0  0  0  0  0
   -8.3860   19.9090  -32.5650 C   0  0  0  0  0  0  0  0  0  0  0  0
   -9.4850   20.6040  -32.0530 C   0  0  0  0  0  0  0  0  0  0  0  0
   -9.3420   21.9210  -31.6220 C   0  0  0  0  0  0  0  0  0  0  0  0
   -8.0990   22.5510  -31.7040 C   0  0  0  0  0  0  0  0  0  0  0  0
   -6.9880   21.8670  -32.2140 C   0  0  0  0  0  0  0  0  0  0  0  0
   -5.4710   22.7550  -32.3230 Cl  0  0  0  0  0  0  0  0  0  0  0  0
   -4.7670   20.2590  -33.3710 O   0  0  0  0  0  0  0  0  0  0  0  0
   -2.2845   22.1011  -29.7920 H   0  0  0  0  0  0  0  0  0  0  0  0
   -1.5352   23.0200  -31.1414 H   0  0  0  0  0  0  0  0  0  0  0  0
   -3.3039   22.7064  -31.1414 H   0  0  0  0  0  0  0  0  0  0  0  0
   -1.5126   20.3046  -30.9966 H   0  0  0  0  0  0  0  0  0  0  0  0
   -3.0669   20.5606  -31.8874 H   0  0  0  0  0  0  0  0  0  0  0  0
   -0.9986   22.2903  -32.9747 H   0  0  0  0  0  0  0  0  0  0  0  0
   -0.4346   20.5751  -32.9514 H   0  0  0  0  0  0  0  0  0  0  0  0
   -3.0160   21.5330  -34.0900 H   0  0  0  0  0  0  0  0  0  0  0  0
   -1.6150   21.1640  -34.9760 H   0  0  0  0  0  0  0  0  0  0  0  0
   -2.3325   19.1333  -35.1738 H   0  0  0  0  0  0  0  0  0  0  0  0
   -1.9384   18.9727  -33.4120 H   0  0  0  0  0  0  0  0  0  0  0  0
   -4.3079   17.1756  -34.3496 H   0  0  0  0  0  0  0  0  0  0  0  0
   -6.8217   17.7259  -33.5174 H   0  0  0  0  0  0  0  0  0  0  0  0
   -8.5088   18.8692  -32.9022 H   0  0  0  0  0  0  0  0  0  0  0  0
  -10.4657   20.1098  -31.9901 H   0  0  0  0  0  0  0  0  0  0  0  0
  -10.2085   22.4644  -31.2171 H   0  0  0  0  0  0  0  0  0  0  0  0
   -7.9912   23.5921  -31.3657 H   0  0  0  0  0  0  0  0  0  0  0  0
  1  2  1  0
  2  3  1  0
  3  4  1  0
  4  5  1  0
  5  6  1  0
  6  7  2  0
  7  8  1  0
  8  9  2  0
  9 10  1  0
 10 11  2  0
 11 12  1  0
 12 13  2  0
 13 14  1  0
 14 15  2  0
 15 16  1  0
  9 17  1  0
 17  6  1  0
 15 10  1  0
  1 18  1  0
  1 19  1  0
  1 20  1  0
  2 21  1  0
  2 22  1  0
  3 23  1  0
  3 24  1  0
  4 25  1  0
  4 26  1  0
  5 27  1  0
  5 28  1  0
  7 29  1  0
  8 30  1  0
 11 31  1  0
 12 32  1  0
 13 33  1  0
 14 34  1  0
M  CHG  1   4   1
M  END
>  <UniqueID>  (15) 
14

>  <SMILES>  (15) 
CCC[NH2+]Cc1ccc(-c2ccccc2Cl)o1

>  <Energy>  (15) 
57.88193141322114

>  <Genealogy>  (15) 
CCC[NH2+]Cc1ccc(-c2ccccc2Cl)o1 (protonated)
CCC[NH2+]Cc1ccc(-c2ccccc2Cl)o1 (3D coordinates assigned)
CCC[NH2+]Cc1ccc(-c2ccccc2Cl)o1 (optimized conformer: 57.88193141322114 kcal/mol)

>  <smiles>  (15) 
CCCNCc1ccc(-c2ccccc2Cl)o1

>  <score_type>  (15) 
oracle

>  <origin>  (15) 
adg

>  <m_score__min__energy>  (15) 
-5.8399999999999999

>  <m_primary>  (15) 
energy

$$$$
15:0
     RDKit          3D

 55 58  0  0  0  0  0  0  0  0999 V2000
   -3.7930   16.8730  -35.2890 C   0  0  0  0  0  0  0  0  0  0  0  0
   -4.9800   16.2370  -34.5670 C   0  0  0  0  0  0  0  0  0  0  0  0
   -5.0910   16.6880  -33.0980 C   0  0  0  0  0  0  0  0  0  0  0  0
   -6.1660   17.7470  -32.8800 C   0  0  0  0  0  0  0  0  0  0  0  0
   -7.3770   17.3250  -32.3260 C   0  0  0  0  0  0  0  0  0  0  0  0
   -8.4110   18.2330  -32.1590 C   0  0  0  0  0  0  0  0  0  0  0  0
   -9.5070   17.8260  -31.6840 O   0  0  0  0  0  0  0  0  0  0  0  0
   -8.2430   19.5440  -32.5110 N   0  0  0  0  0  0  0  0  0  0  0  0
   -9.3660   20.4940  -32.3790 C   0  0  0  0  0  0  0  0  0  0  0  0
   -9.0800   21.5040  -31.2720 C   0  0  0  0  0  0  0  0  0  0  0  0
   -7.0440   19.9630  -33.0340 C   0  0  0  0  0  0  0  0  0  0  0  0
   -6.9090   21.1710  -33.3810 O   0  0  0  0  0  0  0  0  0  0  0  0
   -5.9910   19.0830  -33.1900 N   0  0  0  0  0  0  0  0  0  0  0  0
   -4.6840   19.6040  -33.6570 C   0  0  0  0  0  0  0  0  0  0  0  0
   -4.0640   20.5620  -32.6680 C   0  0  0  0  0  0  0  0  0  0  0  0
   -4.7070   20.8660  -31.4560 C   0  0  0  0  0  0  0  0  0  0  0  0
   -4.0860   21.6920  -30.5130 C   0  0  0  0  0  0  0  0  0  0  0  0
   -2.8070   22.2150  -30.7570 C   0  0  0  0  0  0  0  0  0  0  0  0
   -2.1180   23.0230  -29.7200 C   0  0  0  0  0  0  0  0  0  0  0  0
   -0.8850   22.5530  -29.2300 C   0  0  0  0  0  0  0  0  0  0  0  0
   -0.1470   23.3070  -28.3180 C   0  0  0  0  0  0  0  0  0  0  0  0
   -0.6240   24.5400  -27.8830 C   0  0  0  0  0  0  0  0  0  0  0  0
   -1.8500   25.0180  -28.3460 C   0  0  0  0  0  0  0  0  0  0  0  0
   -2.6180   24.2690  -29.2570 C   0  0  0  0  0  0  0  0  0  0  0  0
   -3.9550   24.7830  -29.6460 C   0  0  0  0  0  0  0  0  0  0  0  0
   -4.2500   25.3220  -30.8430 N   0  0  0  0  0  0  0  0  0  0  0  0
   -5.5470   25.5960  -30.7890 N   0  0  0  0  0  0  0  0  0  0  0  0
   -6.0370   25.2350  -29.6110 N   0  0  0  0  0  0  0  0  0  0  0  0
   -5.0620   24.7210  -28.8830 N   0  0  0  0  0  0  0  0  0  0  0  0
   -2.1550   21.8930  -31.9580 C   0  0  0  0  0  0  0  0  0  0  0  0
   -2.7780   21.0750  -32.9050 C   0  0  0  0  0  0  0  0  0  0  0  0
   -3.0762   17.2571  -34.5482 H   0  0  0  0  0  0  0  0  0  0  0  0
   -3.3000   16.1182  -35.9193 H   0  0  0  0  0  0  0  0  0  0  0  0
   -4.1483   17.7016  -35.9193 H   0  0  0  0  0  0  0  0  0  0  0  0
   -5.9042   16.5187  -35.0928 H   0  0  0  0  0  0  0  0  0  0  0  0
   -4.8272   15.1477  -34.5704 H   0  0  0  0  0  0  0  0  0  0  0  0
   -5.3321   15.8111  -32.4793 H   0  0  0  0  0  0  0  0  0  0  0  0
   -4.1262   17.1356  -32.8172 H   0  0  0  0  0  0  0  0  0  0  0  0
   -7.5096   16.2758  -32.0233 H   0  0  0  0  0  0  0  0  0  0  0  0
   -9.5027   21.0283  -33.3308 H   0  0  0  0  0  0  0  0  0  0  0  0
  -10.2787   19.9349  -32.1252 H   0  0  0  0  0  0  0  0  0  0  0  0
   -9.2163   21.0227  -30.2923 H   0  0  0  0  0  0  0  0  0  0  0  0
   -8.0446   21.8641  -31.3627 H   0  0  0  0  0  0  0  0  0  0  0  0
   -9.7729   22.3535  -31.3627 H   0  0  0  0  0  0  0  0  0  0  0  0
   -3.9984   18.7570  -33.8068 H   0  0  0  0  0  0  0  0  0  0  0  0
   -4.8553   20.1521  -34.5952 H   0  0  0  0  0  0  0  0  0  0  0  0
   -5.7046   20.4520  -31.2475 H   0  0  0  0  0  0  0  0  0  0  0  0
   -4.6043   21.9333  -29.5732 H   0  0  0  0  0  0  0  0  0  0  0  0
   -0.4994   21.5805  -29.5701 H   0  0  0  0  0  0  0  0  0  0  0  0
    0.8140   22.9264  -27.9417 H   0  0  0  0  0  0  0  0  0  0  0  0
   -0.0336   25.1382  -27.1734 H   0  0  0  0  0  0  0  0  0  0  0  0
   -2.2210   25.9922  -27.9948 H   0  0  0  0  0  0  0  0  0  0  0  0
   -5.1650   24.3620  -27.9080 H   0  0  0  0  0  0  0  0  0  0  0  0
   -1.1471   22.2871  -32.1551 H   0  0  0  0  0  0  0  0  0  0  0  0
   -2.2573   20.8312  -33.8428 H   0  0  0  0  0  0  0  0  0  0  0  0
  1  2  1  0
  2  3  1  0
  3  4  1  0
  4  5  2  0
  5  6  1  0
  6  7  2  0
  6  8  1  0
  8  9  1  0
  9 10  1  0
  8 11  1  0
 11 12  2  0
 11 13  1  0
 13 14  1  0
 14 15  1  0
 15 16  2  0
 16 17  1  0
 17 18  2  0
 18 19  1  0
 19 20  2  0
 20 21  1  0
 21 22  2  0
 22 23  1  0
 23 24  2  0
 24 25  1  0
 25 26  2  0
 26 27  1  0
 27 28  1  0
 28 29  2  0
 18 30  1  0
 30 31  2  0
 13  4  1  0
 31 15  1  0
 24 19  1  0
 29 25  1  0
  1 32  1  0
  1 33  1  0
  1 34  1  0
  2 35  1  0
  2 36  1  0
  3 37  1  0
  3 38  1  0
  5 39  1  0
  9 40  1  0
  9 41  1  0
 10 42  1  0
 10 43  1  0
 10 44  1  0
 14 45  1  0
 14 46  1  0
 16 47  1  0
 17 48  1  0
 20 49  1  0
 21 50  1  0
 22 51  1  0
 23 52  1  0
 29 53  1  0
 30 54  1  0
 31 55  1  0
M  CHG  2  27  -1  29   1
M  END
>  <UniqueID>  (16) 
15

>  <SMILES>  (16) 
CCCc1cc(=O)n(CC)c(=O)n1Cc1ccc(-c2ccccc2-c2n[n-]n[nH+]2)cc1

>  <Energy>  (16) 
111.66653793584534

>  <Genealogy>  (16) 
CCCc1cc(=O)n(CC)c(=O)n1Cc1ccc(-c2ccccc2-c2n[n-]n[nH+]2)cc1 (protonated)
CCCc1cc(=O)n(CC)c(=O)n1Cc1ccc(-c2ccccc2-c2n[n-]n[nH+]2)cc1 (3D coordinates assigned)
CCCc1cc(=O)n(CC)c(=O)n1Cc1ccc(-c2ccccc2-c2n[n-]n[nH+]2)cc1 (optimized conformer: 111.66653793584534 kcal/mol)

>  <smiles>  (16) 
CCCc1cc(=O)n(CC)c(=O)n1Cc1ccc(-c2ccccc2-c2nn[nH]n2)cc1

>  <score_type>  (16) 
oracle

>  <origin>  (16) 
adg

>  <m_score__min__energy>  (16) 
-10.199999999999999

>  <m_primary>  (16) 
energy

$$$$
16:0
     RDKit          3D

 42 44  0  0  0  0  0  0  0  0999 V2000
   -8.7780   12.2750  -36.0010 C   0  0  0  0  0  0  0  0  0  0  0  0
   -7.6070   12.8440  -35.2650 C   0  0  0  0  0  0  0  0  0  0  0  0
   -7.5990   14.1910  -34.8800 C   0  0  0  0  0  0  0  0  0  0  0  0
   -6.4920   14.7020  -34.1950 C   0  0  0  0  0  0  0  0  0  0  0  0
   -6.4660   16.0820  -33.7890 C   0  0  0  0  0  0  0  0  0  0  0  0
   -6.4450   17.2390  -33.4500 C   0  0  0  0  0  0  0  0  0  0  0  0
   -6.4180   18.6200  -33.0440 C   0  0  0  0  0  0  0  0  0  0  0  0
   -7.6180   19.3150  -32.8510 C   0  0  0  0  0  0  0  0  0  0  0  0
   -7.5980   20.6570  -32.4580 C   0  0  0  0  0  0  0  0  0  0  0  0
   -6.3750   21.3150  -32.2540 C   0  0  0  0  0  0  0  0  0  0  0  0
   -6.3440   22.6600  -31.8600 C   0  0  0  0  0  0  0  0  0  0  0  0
   -5.1260   23.3170  -31.6530 C   0  0  0  0  0  0  0  0  0  0  0  0
   -5.1610   24.6640  -31.2590 O   0  0  0  0  0  0  0  0  0  0  0  0
   -5.2940   25.1360  -29.9160 C   0  0  0  0  0  0  0  0  0  0  0  0
   -4.7590   24.1100  -28.9100 C   0  0  0  0  0  0  0  0  0  0  0  0
   -3.3560   24.4690  -28.4250 C   0  0  0  0  0  0  0  0  0  0  0  0
   -2.7420   25.2920  -29.3510 F   0  0  0  0  0  0  0  0  0  0  0  0
   -3.9210   22.6140  -31.8550 C   0  0  0  0  0  0  0  0  0  0  0  0
   -3.9420   21.2740  -32.2480 C   0  0  0  0  0  0  0  0  0  0  0  0
   -5.1630   20.6140  -32.4500 C   0  0  0  0  0  0  0  0  0  0  0  0
   -5.1930   19.2670  -32.8450 C   0  0  0  0  0  0  0  0  0  0  0  0
   -5.4100   13.8650  -33.9060 C   0  0  0  0  0  0  0  0  0  0  0  0
   -5.4540   12.5280  -34.3080 C   0  0  0  0  0  0  0  0  0  0  0  0
   -6.5390   12.0510  -34.9720 N   0  0  0  0  0  0  0  0  0  0  0  0
   -9.5241   11.9124  -35.2786 H   0  0  0  0  0  0  0  0  0  0  0  0
   -9.2281   13.0549  -36.6329 H   0  0  0  0  0  0  0  0  0  0  0  0
   -8.4430   11.4392  -36.6329 H   0  0  0  0  0  0  0  0  0  0  0  0
   -8.4553   14.8405  -35.1143 H   0  0  0  0  0  0  0  0  0  0  0  0
   -8.5792   18.8040  -33.0089 H   0  0  0  0  0  0  0  0  0  0  0  0
   -8.5436   21.1986  -32.3083 H   0  0  0  0  0  0  0  0  0  0  0  0
   -7.2879   23.2051  -31.7119 H   0  0  0  0  0  0  0  0  0  0  0  0
   -4.7280   26.0730  -29.8077 H   0  0  0  0  0  0  0  0  0  0  0  0
   -6.3619   25.3007  -29.7097 H   0  0  0  0  0  0  0  0  0  0  0  0
   -5.4365   24.0737  -28.0442 H   0  0  0  0  0  0  0  0  0  0  0  0
   -4.7072   23.1331  -29.4130 H   0  0  0  0  0  0  0  0  0  0  0  0
   -3.4249   24.9916  -27.4595 H   0  0  0  0  0  0  0  0  0  0  0  0
   -2.7645   23.5494  -28.3044 H   0  0  0  0  0  0  0  0  0  0  0  0
   -2.9584   23.1239  -31.7022 H   0  0  0  0  0  0  0  0  0  0  0  0
   -2.9961   20.7334  -32.3999 H   0  0  0  0  0  0  0  0  0  0  0  0
   -4.2516   18.7190  -32.9984 H   0  0  0  0  0  0  0  0  0  0  0  0
   -4.5335   14.2552  -33.3679 H   0  0  0  0  0  0  0  0  0  0  0  0
   -4.6085   11.8601  -34.0865 H   0  0  0  0  0  0  0  0  0  0  0  0
  1  2  1  0
  2  3  2  0
  3  4  1  0
  4  5  1  0
  5  6  3  0
  6  7  1  0
  7  8  2  0
  8  9  1  0
  9 10  2  0
 10 11  1  0
 11 12  2  0
 12 13  1  0
 13 14  1  0
 14 15  1  0
 15 16  1  0
 16 17  1  0
 12 18  1  0
 18 19  2  0
 19 20  1  0
 20 21  2  0
  4 22  2  0
 22 23  1  0
 23 24  2  0
 24  2  1  0
 21  7  1  0
 20 10  1  0
  1 25  1  0
  1 26  1  0
  1 27  1  0
  3 28  1  0
  8 29  1  0
  9 30  1  0
 11 31  1  0
 14 32  1  0
 14 33  1  0
 15 34  1  0
 15 35  1  0
 16 36  1  0
 16 37  1  0
 18 38  1  0
 19 39  1  0
 21 40  1  0
 22 41  1  0
 23 42  1  0
M  END
>  <UniqueID>  (17) 
16

>  <SMILES>  (17) 
Cc1cc(C#Cc2ccc3cc(OCCCF)ccc3c2)ccn1

>  <Energy>  (17) 
38.84049759258455

>  <Genealogy>  (17) 
Cc1cc(C#Cc2ccc3cc(OCCCF)ccc3c2)ccn1 (3D coordinates assigned)
Cc1cc(C#Cc2ccc3cc(OCCCF)ccc3c2)ccn1 (optimized conformer: 38.84049759258455 kcal/mol)

>  <smiles>  (17) 
Cc1cc(C#Cc2ccc3cc(OCCCF)ccc3c2)ccn1

>  <score_type>  (17) 
oracle

>  <origin>  (17) 
adg

>  <m_score__min__energy>  (17) 
-7.3600000000000003

>  <m_primary>  (17) 
energy

$$$$
17:0
     RDKit          3D

 51 54  0  0  0  0  0  0  0  0999 V2000
   -8.5920   21.7480  -31.8650 C   0  0  0  0  0  0  0  0  0  0  0  0
   -8.1370   20.6040  -32.5190 C   0  0  0  0  0  0  0  0  0  0  0  0
   -6.8090   20.3190  -32.5460 N   0  0  0  0  0  0  0  0  0  0  0  0
   -5.8900   21.1240  -31.9480 C   0  0  0  0  0  0  0  0  0  0  0  0
   -6.2990   22.2910  -31.2770 C   0  0  0  0  0  0  0  0  0  0  0  0
   -5.3230   23.1860  -30.6150 C   0  0  0  0  0  0  0  0  0  0  0  0
   -4.8090   23.0820  -29.3370 C   0  0  0  0  0  0  0  0  0  0  0  0
   -3.9700   24.1260  -29.1700 N   0  0  0  0  0  0  0  0  0  0  0  0
   -3.0710   24.4100  -28.0330 C   0  0  0  0  0  0  0  0  0  0  0  0
   -2.7530   23.1160  -27.2330 C   0  0  0  0  0  0  0  0  0  0  0  0
   -1.2810   22.6800  -27.3510 C   0  0  0  0  0  0  0  0  0  0  0  0
   -0.7730   22.7630  -28.7450 N   0  0  0  0  0  0  0  0  0  0  0  0
   -1.3220   21.7330  -29.6900 C   0  0  0  0  0  0  0  0  0  0  0  0
   -0.6400   20.3380  -29.5840 C   0  0  0  0  0  0  0  0  0  0  0  0
   -0.5320   19.5870  -30.9280 C   0  0  0  0  0  0  0  0  0  0  0  0
   -1.8830   19.3200  -31.6120 C   0  0  0  0  0  0  0  0  0  0  0  0
   -2.3640   20.3970  -32.6030 C   0  0  0  0  0  0  0  0  0  0  0  0
   -2.4990   21.8130  -32.0160 C   0  0  0  0  0  0  0  0  0  0  0  0
   -1.2760   22.2110  -31.1700 C   0  0  0  0  0  0  0  0  0  0  0  0
   -0.8640   24.1590  -29.2770 C   0  0  0  0  0  0  0  0  0  0  0  0
   -1.7630   25.1070  -28.4570 C   0  0  0  0  0  0  0  0  0  0  0  0
   -3.9420   24.8020  -30.3100 N   0  0  0  0  0  0  0  0  0  0  0  0
   -4.7620   24.2640  -31.1990 N   0  0  0  0  0  0  0  0  0  0  0  0
   -7.6710   22.5920  -31.2420 C   0  0  0  0  0  0  0  0  0  0  0  0
   -9.6662   21.9833  -31.8401 H   0  0  0  0  0  0  0  0  0  0  0  0
   -8.8537   19.9317  -33.0134 H   0  0  0  0  0  0  0  0  0  0  0  0
   -4.8226   20.8615  -31.9892 H   0  0  0  0  0  0  0  0  0  0  0  0
   -5.0389   22.2999  -28.5985 H   0  0  0  0  0  0  0  0  0  0  0  0
   -3.6154   25.1115  -27.3837 H   0  0  0  0  0  0  0  0  0  0  0  0
   -2.9811   23.2953  -26.1720 H   0  0  0  0  0  0  0  0  0  0  0  0
   -3.3693   22.3089  -27.6558 H   0  0  0  0  0  0  0  0  0  0  0  0
   -0.6675   23.3326  -26.7125 H   0  0  0  0  0  0  0  0  0  0  0  0
   -1.2174   21.6286  -27.0341 H   0  0  0  0  0  0  0  0  0  0  0  0
   -2.3678   21.6116  -29.3714 H   0  0  0  0  0  0  0  0  0  0  0  0
    0.3751   20.4790  -29.1842 H   0  0  0  0  0  0  0  0  0  0  0  0
   -1.2732   19.7239  -28.9268 H   0  0  0  0  0  0  0  0  0  0  0  0
    0.0870   20.1882  -31.6102 H   0  0  0  0  0  0  0  0  0  0  0  0
   -0.0908   18.6041  -30.7060 H   0  0  0  0  0  0  0  0  0  0  0  0
   -1.8001   18.3705  -32.1612 H   0  0  0  0  0  0  0  0  0  0  0  0
   -2.6276   19.3089  -30.8024 H   0  0  0  0  0  0  0  0  0  0  0  0
   -1.6449   20.4402  -33.4343 H   0  0  0  0  0  0  0  0  0  0  0  0
   -3.3759   20.0970  -32.9130 H   0  0  0  0  0  0  0  0  0  0  0  0
   -2.6064   22.5305  -32.8429 H   0  0  0  0  0  0  0  0  0  0  0  0
   -3.3816   21.8236  -31.3595 H   0  0  0  0  0  0  0  0  0  0  0  0
   -0.3798   21.7807  -31.6407 H   0  0  0  0  0  0  0  0  0  0  0  0
   -1.2654   23.3105  -31.1398 H   0  0  0  0  0  0  0  0  0  0  0  0
    0.1505   24.5835  -29.2990 H   0  0  0  0  0  0  0  0  0  0  0  0
   -1.3239   24.0811  -30.2732 H   0  0  0  0  0  0  0  0  0  0  0  0
   -1.2189   25.4269  -27.5561 H   0  0  0  0  0  0  0  0  0  0  0  0
   -2.0186   25.9732  -29.0849 H   0  0  0  0  0  0  0  0  0  0  0  0
   -8.0206   23.4960  -30.7218 H   0  0  0  0  0  0  0  0  0  0  0  0
  1  2  2  0
  2  3  1  0
  3  4  2  0
  4  5  1  0
  5  6  1  0
  6  7  2  0
  7  8  1  0
  8  9  1  0
  9 10  1  0
 10 11  1  0
 11 12  1  0
 12 13  1  0
 13 14  1  0
 14 15  1  0
 15 16  1  0
 16 17  1  0
 17 18  1  0
 18 19  1  0
 12 20  1  0
 20 21  1  0
  8 22  1  0
 22 23  2  0
  5 24  2  0
 24  1  1  0
 23  6  1  0
 21  9  1  0
 19 13  1  0
  1 25  1  0
  2 26  1  0
  4 27  1  0
  7 28  1  0
  9 29  1  0
 10 30  1  0
 10 31  1  0
 11 32  1  0
 11 33  1  0
 13 34  1  0
 14 35  1  0
 14 36  1  0
 15 37  1  0
 15 38  1  0
 16 39  1  0
 16 40  1  0
 17 41  1  0
 17 42  1  0
 18 43  1  0
 18 44  1  0
 19 45  1  0
 19 46  1  0
 20 47  1  0
 20 48  1  0
 21 49  1  0
 21 50  1  0
 24 51  1  0
M  END
>  <UniqueID>  (18) 
17

>  <SMILES>  (18) 
c1cncc(-c2cn(C3CCN(C4CCCCCC4)CC3)nn2)c1

>  <Energy>  (18) 
113.6229729592312

>  <Genealogy>  (18) 
c1cncc(-c2cn(C3CCN(C4CCCCCC4)CC3)nn2)c1 (3D coordinates assigned)
c1cncc(-c2cn(C3CCN(C4CCCCCC4)CC3)nn2)c1 (nonaromatic ring conformer: 113.6229729592312 kcal/mol)

>  <smiles>  (18) 
c1cncc(-c2cn(C3CCN(C4CCCCCC4)CC3)nn2)c1

>  <score_type>  (18) 
oracle

>  <origin>  (18) 
adg

>  <m_score__min__energy>  (18) 
-6.9199999999999999

>  <m_primary>  (18) 
energy

$$$$
18:0
     RDKit          3D

 47 48  0  0  0  0  0  0  0  0999 V2000
   -2.4040   18.1930  -33.1890 C   0  0  0  0  0  0  0  0  0  0  0  0
   -2.7970   19.3010  -34.1740 C   0  0  0  0  0  0  0  0  0  0  0  0
   -2.1630   20.6090  -33.8600 N   0  0  0  0  0  0  0  0  0  0  0  0
   -0.8690   20.8220  -34.5640 C   0  0  0  0  0  0  0  0  0  0  0  0
    0.3130   21.1460  -33.6390 C   0  0  0  0  0  0  0  0  0  0  0  0
   -2.0070   20.7860  -32.3880 C   0  0  0  0  0  0  0  0  0  0  0  0
   -3.2490   21.4020  -31.7260 C   0  0  0  0  0  0  0  0  0  0  0  0
   -4.3230   21.4390  -32.6610 O   0  0  0  0  0  0  0  0  0  0  0  0
   -5.6420   21.8120  -32.3610 C   0  0  0  0  0  0  0  0  0  0  0  0
   -5.9720   23.1220  -31.9730 C   0  0  0  0  0  0  0  0  0  0  0  0
   -7.2960   23.4660  -31.7050 C   0  0  0  0  0  0  0  0  0  0  0  0
   -8.3050   22.5080  -31.8080 C   0  0  0  0  0  0  0  0  0  0  0  0
   -8.0010   21.1870  -32.1700 C   0  0  0  0  0  0  0  0  0  0  0  0
   -9.1160   20.1770  -32.2520 C   0  0  0  0  0  0  0  0  0  0  0  0
   -6.6590   20.8390  -32.4670 C   0  0  0  0  0  0  0  0  0  0  0  0
   -6.2930   19.4620  -32.8730 C   0  0  0  0  0  0  0  0  0  0  0  0
   -6.0930   19.1560  -34.2290 C   0  0  0  0  0  0  0  0  0  0  0  0
   -5.7840   17.8490  -34.6180 C   0  0  0  0  0  0  0  0  0  0  0  0
   -5.6710   16.8420  -33.6570 C   0  0  0  0  0  0  0  0  0  0  0  0
   -5.8700   17.1380  -32.3050 C   0  0  0  0  0  0  0  0  0  0  0  0
   -6.1850   18.4430  -31.9130 C   0  0  0  0  0  0  0  0  0  0  0  0
   -2.5327   18.5558  -32.1586 H   0  0  0  0  0  0  0  0  0  0  0  0
   -3.0452   17.3140  -33.3510 H   0  0  0  0  0  0  0  0  0  0  0  0
   -1.3522   17.9145  -33.3510 H   0  0  0  0  0  0  0  0  0  0  0  0
   -2.4897   18.9963  -35.1853 H   0  0  0  0  0  0  0  0  0  0  0  0
   -3.8860   19.4367  -34.0993 H   0  0  0  0  0  0  0  0  0  0  0  0
   -2.8030   21.3580  -34.2150 H   0  0  0  0  0  0  0  0  0  0  0  0
   -0.6270   19.9059  -35.1228 H   0  0  0  0  0  0  0  0  0  0  0  0
   -1.0070   21.6985  -35.2142 H   0  0  0  0  0  0  0  0  0  0  0  0
   -0.0073   21.0582  -32.5903 H   0  0  0  0  0  0  0  0  0  0  0  0
    1.1340   20.4398  -33.8320 H   0  0  0  0  0  0  0  0  0  0  0  0
    0.6591   22.1721  -33.8320 H   0  0  0  0  0  0  0  0  0  0  0  0
   -1.8187   19.8019  -31.9340 H   0  0  0  0  0  0  0  0  0  0  0  0
   -1.1680   21.4786  -32.2254 H   0  0  0  0  0  0  0  0  0  0  0  0
   -3.5408   20.7927  -30.8579 H   0  0  0  0  0  0  0  0  0  0  0  0
   -3.0167   22.4258  -31.3974 H   0  0  0  0  0  0  0  0  0  0  0  0
   -5.1806   23.8804  -31.8803 H   0  0  0  0  0  0  0  0  0  0  0  0
   -7.5461   24.4962  -31.4113 H   0  0  0  0  0  0  0  0  0  0  0  0
   -9.3482   22.7909  -31.6036 H   0  0  0  0  0  0  0  0  0  0  0  0
   -9.4292   19.8933  -31.2364 H   0  0  0  0  0  0  0  0  0  0  0  0
   -9.9694   20.6158  -32.7897 H   0  0  0  0  0  0  0  0  0  0  0  0
   -8.7635   19.2845  -32.7897 H   0  0  0  0  0  0  0  0  0  0  0  0
   -6.1798   19.9475  -34.9879 H   0  0  0  0  0  0  0  0  0  0  0  0
   -5.6298   17.6138  -35.6815 H   0  0  0  0  0  0  0  0  0  0  0  0
   -5.4251   15.8147  -33.9640 H   0  0  0  0  0  0  0  0  0  0  0  0
   -5.7787   16.3440  -31.5493 H   0  0  0  0  0  0  0  0  0  0  0  0
   -6.3486   18.6718  -30.8496 H   0  0  0  0  0  0  0  0  0  0  0  0
  1  2  1  0
  2  3  1  0
  3  4  1  0
  4  5  1  0
  3  6  1  0
  6  7  1  0
  7  8  1  0
  8  9  1  0
  9 10  2  0
 10 11  1  0
 11 12  2  0
 12 13  1  0
 13 14  1  0
 13 15  2  0
 15 16  1  0
 16 17  2  0
 17 18  1  0
 18 19  2  0
 19 20  1  0
 20 21  2  0
 15  9  1  0
 21 16  1  0
  1 22  1  0
  1 23  1  0
  1 24  1  0
  2 25  1  0
  2 26  1  0
  3 27  1  0
  4 28  1  0
  4 29  1  0
  5 30  1  0
  5 31  1  0
  5 32  1  0
  6 33  1  0
  6 34  1  0
  7 35  1  0
  7 36  1  0
 10 37  1  0
 11 38  1  0
 12 39  1  0
 14 40  1  0
 14 41  1  0
 14 42  1  0
 17 43  1  0
 18 44  1  0
 19 45  1  0
 20 46  1  0
 21 47  1  0
M  CHG  1   3   1
M  END
>  <UniqueID>  (19) 
18

>  <SMILES>  (19) 
CC[NH+](CC)CCOc1cccc(C)c1-c1ccccc1

>  <Energy>  (19) 
54.43030128832266

>  <Genealogy>  (19) 
CC[NH+](CC)CCOc1cccc(C)c1-c1ccccc1 (protonated)
CC[NH+](CC)CCOc1cccc(C)c1-c1ccccc1 (3D coordinates assigned)
CC[NH+](CC)CCOc1cccc(C)c1-c1ccccc1 (optimized conformer: 54.43030128832266 kcal/mol)

>  <smiles>  (19) 
CCN(CC)CCOc1cccc(C)c1-c1ccccc1

>  <score_type>  (19) 
oracle

>  <origin>  (19) 
adg

>  <m_score__min__energy>  (19) 
-6.0999999999999996

>  <m_primary>  (19) 
energy

$$$$
19:0
     RDKit          3D

 45 46  0  0  0  0  0  0  0  0999 V2000
  -10.3595   20.0044  -32.1851 H   0  0  0  0  0  0  0  0  0  0  0  0
   -9.3350   20.4050  -32.1860 C   0  0  0  0  0  0  0  0  0  0  0  0
   -9.0790   21.6640  -31.6460 C   0  0  0  0  0  0  0  0  0  0  0  0
   -9.9017   22.2566  -31.2194 H   0  0  0  0  0  0  0  0  0  0  0  0
   -7.7790   22.1740  -31.6460 C   0  0  0  0  0  0  0  0  0  0  0  0
   -7.5853   23.1678  -31.2162 H   0  0  0  0  0  0  0  0  0  0  0  0
   -6.7180   21.4350  -32.1870 C   0  0  0  0  0  0  0  0  0  0  0  0
   -5.4130   22.0370  -32.1480 N   0  0  0  0  0  0  0  0  0  0  0  0
   -4.6520   22.0060  -31.1310 N   0  0  0  0  0  0  0  0  0  0  0  0
   -3.9690   23.1750  -30.6750 C   0  0  0  0  0  0  0  0  0  0  0  0
   -4.4370   24.4760  -30.7200 C   0  0  0  0  0  0  0  0  0  0  0  0
   -5.7760   24.9270  -31.2210 C   0  0  0  0  0  0  0  0  0  0  0  0
   -5.6775   25.9381  -31.6428 H   0  0  0  0  0  0  0  0  0  0  0  0
   -6.1154   24.2139  -31.9867 H   0  0  0  0  0  0  0  0  0  0  0  0
   -6.8180   24.9560  -30.0960 C   0  0  0  0  0  0  0  0  0  0  0  0
   -7.8002   25.1926  -30.5312 H   0  0  0  0  0  0  0  0  0  0  0  0
   -6.8162   23.9673  -29.6139 H   0  0  0  0  0  0  0  0  0  0  0  0
   -6.4940   25.9960  -29.0230 C   0  0  0  0  0  0  0  0  0  0  0  0
   -6.6328   25.5505  -28.0269 H   0  0  0  0  0  0  0  0  0  0  0  0
   -5.4506   26.3257  -29.1351 H   0  0  0  0  0  0  0  0  0  0  0  0
   -7.1656   26.8600  -29.1351 H   0  0  0  0  0  0  0  0  0  0  0  0
   -3.5430   25.2950  -30.1210 N   0  0  0  0  0  0  0  0  0  0  0  0
   -2.5220   24.5510  -29.7120 N   0  0  0  0  0  0  0  0  0  0  0  0
   -1.3840   25.0790  -28.9640 C   0  0  0  0  0  0  0  0  0  0  0  0
   -1.4603   26.1756  -28.9233 H   0  0  0  0  0  0  0  0  0  0  0  0
   -0.4604   24.7705  -29.4757 H   0  0  0  0  0  0  0  0  0  0  0  0
   -1.3500   24.5270  -27.5310 C   0  0  0  0  0  0  0  0  0  0  0  0
   -0.4505   24.9136  -27.0296 H   0  0  0  0  0  0  0  0  0  0  0  0
   -1.3448   23.4295  -27.6055 H   0  0  0  0  0  0  0  0  0  0  0  0
   -2.5840   24.9210  -26.6940 C   0  0  0  0  0  0  0  0  0  0  0  0
   -2.9369   24.0351  -26.1457 H   0  0  0  0  0  0  0  0  0  0  0  0
   -3.3522   25.2987  -27.3848 H   0  0  0  0  0  0  0  0  0  0  0  0
   -2.2720   26.0360  -25.6830 C   0  0  0  0  0  0  0  0  0  0  0  0
   -3.1327   26.1603  -25.0093 H   0  0  0  0  0  0  0  0  0  0  0  0
   -2.0765   26.9648  -26.2390 H   0  0  0  0  0  0  0  0  0  0  0  0
   -1.0360   25.7010  -24.8540 C   0  0  0  0  0  0  0  0  0  0  0  0
   -1.2829   25.7679  -23.7842 H   0  0  0  0  0  0  0  0  0  0  0  0
   -0.7019   24.6799  -25.0900 H   0  0  0  0  0  0  0  0  0  0  0  0
   -0.2320   26.4136  -25.0900 H   0  0  0  0  0  0  0  0  0  0  0  0
   -2.7570   23.2630  -30.0290 C   0  0  0  0  0  0  0  0  0  0  0  0
   -1.9910   22.3030  -29.7470 O   0  0  0  0  0  0  0  0  0  0  0  0
   -6.9820   20.1520  -32.7360 C   0  0  0  0  0  0  0  0  0  0  0  0
   -5.7400   19.1160  -33.4360 Cl  0  0  0  0  0  0  0  0  0  0  0  0
   -8.2920   19.6520  -32.7280 C   0  0  0  0  0  0  0  0  0  0  0  0
   -8.4994   18.6585  -33.1522 H   0  0  0  0  0  0  0  0  0  0  0  0
  1  2  1  0
  2  3  2  0
  3  4  1  0
  3  5  1  0
  5  6  1  0
  5  7  2  0
  7  8  1  0
  8  9  2  0
  9 10  1  0
 10 11  2  0
 11 12  1  0
 12 13  1  0
 12 14  1  0
 12 15  1  0
 15 16  1  0
 15 17  1  0
 15 18  1  0
 18 19  1  0
 18 20  1  0
 18 21  1  0
 11 22  1  0
 22 23  1  0
 23 24  1  0
 24 25  1  0
 24 26  1  0
 24 27  1  0
 27 28  1  0
 27 29  1  0
 27 30  1  0
 30 31  1  0
 30 32  1  0
 30 33  1  0
 33 34  1  0
 33 35  1  0
 33 36  1  0
 36 37  1  0
 36 38  1  0
 36 39  1  0
 23 40  1  0
 40 41  2  0
  7 42  1  0
 42 43  1  0
 42 44  2  0
 44 45  1  0
 44  2  1  0
 40 10  1  0
M  CHG  1  22  -1
M  END
>  <UniqueID>  (20) 
19

>  <SMILES>  (20) 
CCCCCn1[n-]c(CCC)c(/N=N/c2ccccc2Cl)c1=O

>  <Energy>  (20) 
66.66242246983516

>  <Genealogy>  (20) 
CCCCCn1[n-]c(CCC)c(N=Nc2ccccc2Cl)c1=O (protonated)
CCCCCn1[n-]c(CCC)c(/N=N/c2ccccc2Cl)c1=O (cis-trans isomerization)
CCCCCn1[n-]c(CCC)c(/N=N/c2ccccc2Cl)c1=O (3D coordinates assigned)
CCCCCn1[n-]c(CCC)c(/N=N/c2ccccc2Cl)c1=O (optimized conformer: 66.66242246983516 kcal/mol)

>  <smiles>  (20) 
CCCCCn1[nH]c(CCC)c(N=Nc2ccccc2Cl)c1=O

>  <score_type>  (20) 
oracle

>  <origin>  (20) 
adg

>  <m_score__min__energy>  (20) 
-9.3000000000000007

>  <m_primary>  (20) 
energy

$$$$
20:0
     RDKit          3D

 43 45  0  0  0  0  0  0  0  0999 V2000
   -4.2410   25.3080  -31.1780 O   0  0  0  0  0  0  0  0  0  0  0  0
   -3.9710   24.6060  -30.1680 C   0  0  0  0  0  0  0  0  0  0  0  0
   -2.7980   24.9240  -29.4070 N   0  0  0  0  0  0  0  0  0  0  0  0
   -1.6290   24.0650  -29.2610 C   0  0  0  0  0  0  0  0  0  0  0  0
   -2.0370   22.5900  -29.3490 C   0  0  0  0  0  0  0  0  0  0  0  0
   -1.7350   22.0390  -30.7160 C   0  0  0  0  0  0  0  0  0  0  0  0
   -0.4560   21.5360  -31.0090 C   0  0  0  0  0  0  0  0  0  0  0  0
   -0.1840   20.9940  -32.2690 C   0  0  0  0  0  0  0  0  0  0  0  0
   -1.1880   20.9420  -33.2400 C   0  0  0  0  0  0  0  0  0  0  0  0
   -2.4670   21.4290  -32.9520 C   0  0  0  0  0  0  0  0  0  0  0  0
   -2.7430   21.9710  -31.6930 C   0  0  0  0  0  0  0  0  0  0  0  0
   -4.8400   23.5240  -29.7850 N   0  0  0  0  0  0  0  0  0  0  0  0
   -5.8840   23.0040  -30.6250 C   0  0  0  0  0  0  0  0  0  0  0  0
   -7.0580   23.7510  -30.8030 C   0  0  0  0  0  0  0  0  0  0  0  0
   -8.0960   23.2580  -31.5960 C   0  0  0  0  0  0  0  0  0  0  0  0
   -7.9810   22.0080  -32.2070 C   0  0  0  0  0  0  0  0  0  0  0  0
   -6.8240   21.2300  -32.0240 C   0  0  0  0  0  0  0  0  0  0  0  0
   -6.7060   19.8920  -32.6590 C   0  0  0  0  0  0  0  0  0  0  0  0
   -7.3700   18.7770  -32.1110 C   0  0  0  0  0  0  0  0  0  0  0  0
   -7.2550   17.5200  -32.7120 C   0  0  0  0  0  0  0  0  0  0  0  0
   -6.4810   17.3600  -33.8630 C   0  0  0  0  0  0  0  0  0  0  0  0
   -5.8180   18.4580  -34.4160 C   0  0  0  0  0  0  0  0  0  0  0  0
   -5.9270   19.7180  -33.8190 C   0  0  0  0  0  0  0  0  0  0  0  0
   -5.7820   21.7340  -31.2230 C   0  0  0  0  0  0  0  0  0  0  0  0
   -0.9105   24.2910  -30.0626 H   0  0  0  0  0  0  0  0  0  0  0  0
   -1.1695   24.2507  -28.2790 H   0  0  0  0  0  0  0  0  0  0  0  0
   -1.4788   22.0147  -28.5957 H   0  0  0  0  0  0  0  0  0  0  0  0
   -3.1184   22.5090  -29.1644 H   0  0  0  0  0  0  0  0  0  0  0  0
    0.3341   21.5687  -30.2444 H   0  0  0  0  0  0  0  0  0  0  0  0
    0.8208   20.6083  -32.4961 H   0  0  0  0  0  0  0  0  0  0  0  0
   -0.9720   20.5177  -34.2316 H   0  0  0  0  0  0  0  0  0  0  0  0
   -3.2566   21.3856  -33.7167 H   0  0  0  0  0  0  0  0  0  0  0  0
   -3.7522   22.3454  -31.4665 H   0  0  0  0  0  0  0  0  0  0  0  0
   -4.7790   23.1480  -28.8140 H   0  0  0  0  0  0  0  0  0  0  0  0
   -7.1614   24.7313  -30.3148 H   0  0  0  0  0  0  0  0  0  0  0  0
   -9.0076   23.8566  -31.7399 H   0  0  0  0  0  0  0  0  0  0  0  0
   -8.8005   21.6293  -32.8355 H   0  0  0  0  0  0  0  0  0  0  0  0
   -7.9825   18.8961  -31.2051 H   0  0  0  0  0  0  0  0  0  0  0  0
   -7.7759   16.6544  -32.2768 H   0  0  0  0  0  0  0  0  0  0  0  0
   -6.3934   16.3698  -34.3340 H   0  0  0  0  0  0  0  0  0  0  0  0
   -5.2088   18.3314  -35.3231 H   0  0  0  0  0  0  0  0  0  0  0  0
   -5.4010   20.5784  -34.2583 H   0  0  0  0  0  0  0  0  0  0  0  0
   -4.8778   21.1284  -31.0626 H   0  0  0  0  0  0  0  0  0  0  0  0
  1  2  2  0
  2  3  1  0
  3  4  1  0
  4  5  1  0
  5  6  1  0
  6  7  2  0
  7  8  1  0
  8  9  2  0
  9 10  1  0
 10 11  2  0
  2 12  1  0
 12 13  1  0
 13 14  2  0
 14 15  1  0
 15 16  2  0
 16 17  1  0
 17 18  1  0
 18 19  2  0
 19 20  1  0
 20 21  2  0
 21 22  1  0
 22 23  2  0
 17 24  2  0
 11  6  1  0
 24 13  1  0
 23 18  1  0
  4 25  1  0
  4 26  1  0
  5 27  1  0
  5 28  1  0
  7 29  1  0
  8 30  1  0
  9 31  1  0
 10 32  1  0
 11 33  1  0
 12 34  1  0
 14 35  1  0
 15 36  1  0
 16 37  1  0
 19 38  1  0
 20 39  1  0
 21 40  1  0
 22 41  1  0
 23 42  1  0
 24 43  1  0
M  CHG  1   3  -1
M  END
>  <UniqueID>  (21) 
20

>  <SMILES>  (21) 
O=C([N-]CCc1ccccc1)Nc1cccc(-c2ccccc2)c1

>  <Energy>  (21) 
50.23038350218673

>  <Genealogy>  (21) 
O=C([N-]CCc1ccccc1)Nc1cccc(-c2ccccc2)c1 (protonated)
O=C([N-]CCc1ccccc1)Nc1cccc(-c2ccccc2)c1 (3D coordinates assigned)
O=C([N-]CCc1ccccc1)Nc1cccc(-c2ccccc2)c1 (optimized conformer: 50.23038350218673 kcal/mol)

>  <smiles>  (21) 
O=C(NCCc1ccccc1)Nc1cccc(-c2ccccc2)c1

>  <score_type>  (21) 
oracle

>  <origin>  (21) 
adg

>  <m_score__min__energy>  (21) 
-10.220000000000001

>  <m_primary>  (21) 
energy

$$$$
21:0
     RDKit          3D

 39 39  0  0  0  0  0  0  0  0999 V2000
   -6.2000   24.8360  -29.8260 C   0  0  0  0  0  0  0  0  0  0  0  0
   -5.2500   25.8330  -30.4820 C   0  0  0  0  0  0  0  0  0  0  0  0
   -3.9030   25.2780  -30.5630 N   0  0  0  0  0  0  0  0  0  0  0  0
   -3.5390   23.9060  -30.3550 C   0  0  0  0  0  0  0  0  0  0  0  0
   -3.6990   23.0930  -31.3050 O   0  0  0  0  0  0  0  0  0  0  0  0
   -3.0480   23.3930  -29.0170 C   0  0  1  0  0  0  0  0  0  0  0  0
   -1.7460   22.5690  -29.1640 C   0  0  0  0  0  0  0  0  0  0  0  0
   -1.7430   21.2730  -28.3830 C   0  0  0  0  0  0  0  0  0  0  0  0
   -0.5490   20.5500  -28.2160 C   0  0  0  0  0  0  0  0  0  0  0  0
   -0.5430   19.3540  -27.4900 C   0  0  0  0  0  0  0  0  0  0  0  0
   -1.7290   18.8660  -26.9350 C   0  0  0  0  0  0  0  0  0  0  0  0
   -2.9220   19.5710  -27.1080 C   0  0  0  0  0  0  0  0  0  0  0  0
   -2.9320   20.7670  -27.8310 C   0  0  0  0  0  0  0  0  0  0  0  0
   -2.8770   24.5040  -28.0740 N   0  0  0  0  0  0  0  0  0  0  0  0
   -2.3160   24.3160  -26.7660 C   0  0  0  0  0  0  0  0  0  0  0  0
   -1.9720   23.1660  -26.3790 O   0  0  0  0  0  0  0  0  0  0  0  0
   -2.0860   25.4950  -25.8670 C   0  0  0  0  0  0  0  0  0  0  0  0
   -1.1520   26.5230  -26.5140 C   0  0  0  0  0  0  0  0  0  0  0  0
   -0.6070   26.0320  -27.8200 C   0  0  0  0  0  0  0  0  0  0  0  0
    0.4470   25.3420  -27.8480 O   0  0  0  0  0  0  0  0  0  0  0  0
   -1.2380   26.3720  -29.0100 O   0  0  0  0  0  0  0  0  0  0  0  0
   -6.1207   24.9192  -28.7320 H   0  0  0  0  0  0  0  0  0  0  0  0
   -7.2324   25.0545  -30.1365 H   0  0  0  0  0  0  0  0  0  0  0  0
   -5.9320   23.8153  -30.1365 H   0  0  0  0  0  0  0  0  0  0  0  0
   -5.6090   26.0615  -31.4964 H   0  0  0  0  0  0  0  0  0  0  0  0
   -5.2212   26.7496  -29.8745 H   0  0  0  0  0  0  0  0  0  0  0  0
   -3.8123   22.7133  -28.6122 H   0  0  0  0  0  0  0  0  0  0  0  0
   -1.6064   22.3309  -30.2288 H   0  0  0  0  0  0  0  0  0  0  0  0
   -0.9322   23.1867  -28.7563 H   0  0  0  0  0  0  0  0  0  0  0  0
    0.3852   20.9264  -28.6583 H   0  0  0  0  0  0  0  0  0  0  0  0
    0.3962   18.7973  -27.3560 H   0  0  0  0  0  0  0  0  0  0  0  0
   -1.7229   17.9270  -26.3621 H   0  0  0  0  0  0  0  0  0  0  0  0
   -3.8559   19.1841  -26.6743 H   0  0  0  0  0  0  0  0  0  0  0  0
   -3.8757   21.3152  -27.9687 H   0  0  0  0  0  0  0  0  0  0  0  0
   -3.1210   25.4770  -28.3610 H   0  0  0  0  0  0  0  0  0  0  0  0
   -3.0524   25.9751  -25.6534 H   0  0  0  0  0  0  0  0  0  0  0  0
   -1.6135   25.1351  -24.9412 H   0  0  0  0  0  0  0  0  0  0  0  0
   -1.7123   27.4533  -26.6888 H   0  0  0  0  0  0  0  0  0  0  0  0
   -0.3060   26.6944  -25.8322 H   0  0  0  0  0  0  0  0  0  0  0  0
  1  2  1  0
  2  3  1  0
  3  4  1  0
  4  5  2  0
  4  6  1  0
  6  7  1  0
  7  8  1  0
  8  9  2  0
  9 10  1  0
 10 11  2  0
 11 12  1  0
 12 13  2  0
  6 14  1  0
 14 15  1  0
 15 16  2  0
 15 17  1  0
 17 18  1  0
 18 19  1  0
 19 20  2  0
 19 21  1  0
 13  8  1  0
  1 22  1  0
  1 23  1  0
  1 24  1  0
  2 25  1  0
  2 26  1  0
  6 27  1  1
  7 28  1  0
  7 29  1  0
  9 30  1  0
 10 31  1  0
 11 32  1  0
 12 33  1  0
 13 34  1  0
 14 35  1  0
 17 36  1  0
 17 37  1  0
 18 38  1  0
 18 39  1  0
M  CHG  2   3  -1  21  -1
M  END
>  <UniqueID>  (22) 
21

>  <SMILES>  (22) 
CC[N-]C(=O)[C@@H](Cc1ccccc1)NC(=O)CCC(=O)[O-]

>  <Energy>  (22) 
26.185200257351116

>  <Genealogy>  (22) 
CC[N-]C(=O)C(Cc1ccccc1)NC(=O)CCC(=O)[O-] (protonated)
CC[N-]C(=O)[C@@H](Cc1ccccc1)NC(=O)CCC(=O)[O-] (chirality)
CC[N-]C(=O)[C@@H](Cc1ccccc1)NC(=O)CCC(=O)[O-] (3D coordinates assigned)
CC[N-]C(=O)[C@@H](Cc1ccccc1)NC(=O)CCC(=O)[O-] (optimized conformer: 26.185200257351116 kcal/mol)

>  <smiles>  (22) 
CCNC(=O)C(Cc1ccccc1)NC(=O)CCC(=O)O

>  <score_type>  (22) 
oracle

>  <origin>  (22) 
adg

>  <m_score__min__energy>  (22) 
-9.9600000000000009

>  <m_primary>  (22) 
energy

$$$$
22:0
     RDKit          3D

 47 50  0  0  0  0  0  0  0  0999 V2000
   -5.3342   17.6096  -34.7139 H   0  0  0  0  0  0  0  0  0  0  0  0
   -5.6930   18.4400  -34.0880 C   0  0  0  0  0  0  0  0  0  0  0  0
   -6.9370   18.3920  -33.5480 N   0  0  0  0  0  0  0  0  0  0  0  0
   -7.4130   19.4000  -32.7690 C   0  0  0  0  0  0  0  0  0  0  0  0
   -8.7290   19.2840  -32.2060 N   0  0  0  0  0  0  0  0  0  0  0  0
   -9.0550   18.1740  -31.3120 C   0  0  0  0  0  0  0  0  0  0  0  0
   -8.9581   18.5041  -30.2672 H   0  0  0  0  0  0  0  0  0  0  0  0
  -10.0879   17.8445  -31.4981 H   0  0  0  0  0  0  0  0  0  0  0  0
   -8.3644   17.3383  -31.4981 H   0  0  0  0  0  0  0  0  0  0  0  0
   -9.7970   20.1440  -32.7160 C   0  0  0  0  0  0  0  0  0  0  0  0
  -10.3463   20.5863  -31.8718 H   0  0  0  0  0  0  0  0  0  0  0  0
   -9.3606   20.9457  -33.3298 H   0  0  0  0  0  0  0  0  0  0  0  0
  -10.4872   19.5466  -33.3298 H   0  0  0  0  0  0  0  0  0  0  0  0
   -6.6060   20.5330  -32.5330 C   0  0  0  0  0  0  0  0  0  0  0  0
   -7.0490   21.6370  -31.7860 C   0  0  0  0  0  0  0  0  0  0  0  0
   -8.0588   21.6404  -31.3499 H   0  0  0  0  0  0  0  0  0  0  0  0
   -6.1950   22.7370  -31.5990 C   0  0  0  0  0  0  0  0  0  0  0  0
   -6.5910   23.8940  -30.8410 N   0  0  0  0  0  0  0  0  0  0  0  0
   -7.5550   24.2590  -31.0130 H   0  0  0  0  0  0  0  0  0  0  0  0
   -5.7290   24.5820  -29.8690 C   0  0  2  0  0  0  0  0  0  0  0  0
   -6.4263   25.2205  -29.3068 H   0  0  0  0  0  0  0  0  0  0  0  0
   -4.6090   25.3570  -30.5480 C   0  0  0  0  0  0  0  0  0  0  0  0
   -4.9104   26.4079  -30.6698 H   0  0  0  0  0  0  0  0  0  0  0  0
   -4.4046   24.9201  -31.5366 H   0  0  0  0  0  0  0  0  0  0  0  0
   -3.4470   25.2890  -29.7510 O   0  0  0  0  0  0  0  0  0  0  0  0
   -3.6980   24.3830  -28.7010 C   0  0  0  0  0  0  0  0  0  0  0  0
   -3.8106   24.9358  -27.7567 H   0  0  0  0  0  0  0  0  0  0  0  0
   -2.8578   23.6787  -28.6109 H   0  0  0  0  0  0  0  0  0  0  0  0
   -4.9720   23.6210  -28.9970 C   0  0  0  0  0  0  0  0  0  0  0  0
   -5.5271   23.4001  -28.0734 H   0  0  0  0  0  0  0  0  0  0  0  0
   -4.7988   22.6427  -29.4692 H   0  0  0  0  0  0  0  0  0  0  0  0
   -4.9470   22.7100  -32.1420 N   0  0  0  0  0  0  0  0  0  0  0  0
   -4.4800   21.6610  -32.8730 C   0  0  0  0  0  0  0  0  0  0  0  0
   -3.2900   21.6900  -33.4030 N   0  0  0  0  0  0  0  0  0  0  0  0
   -2.0560   21.2930  -32.7800 C   0  0  0  0  0  0  0  0  0  0  0  0
   -1.8750   21.3410  -31.3830 C   0  0  0  0  0  0  0  0  0  0  0  0
   -2.6829   21.7172  -30.7382 H   0  0  0  0  0  0  0  0  0  0  0  0
   -0.6720   20.9120  -30.8140 C   0  0  0  0  0  0  0  0  0  0  0  0
   -0.5294   20.9667  -29.7247 H   0  0  0  0  0  0  0  0  0  0  0  0
    0.3490   20.4140  -31.6270 C   0  0  0  0  0  0  0  0  0  0  0  0
    1.2982   20.0850  -31.1789 H   0  0  0  0  0  0  0  0  0  0  0  0
    0.1640   20.3340  -33.0100 C   0  0  0  0  0  0  0  0  0  0  0  0
    0.9648   19.9336  -33.6491 H   0  0  0  0  0  0  0  0  0  0  0  0
   -1.0370   20.7620  -33.5820 C   0  0  0  0  0  0  0  0  0  0  0  0
   -1.1835   20.6815  -34.6692 H   0  0  0  0  0  0  0  0  0  0  0  0
   -5.3150   20.5550  -33.0980 C   0  0  0  0  0  0  0  0  0  0  0  0
   -4.8910   19.5090  -33.8580 N   0  0  0  0  0  0  0  0  0  0  0  0
  1  2  1  0
  2  3  2  0
  3  4  1  0
  4  5  1  0
  5  6  1  0
  6  7  1  0
  6  8  1  0
  6  9  1  0
  5 10  1  0
 10 11  1  0
 10 12  1  0
 10 13  1  0
  4 14  2  0
 14 15  1  0
 15 16  1  0
 15 17  2  0
 17 18  1  0
 18 19  1  0
 18 20  1  0
 20 21  1  1
 20 22  1  0
 22 23  1  0
 22 24  1  0
 22 25  1  0
 25 26  1  0
 26 27  1  0
 26 28  1  0
 26 29  1  0
 29 30  1  0
 29 31  1  0
 17 32  1  0
 32 33  1  0
 33 34  2  0
 34 35  1  0
 35 36  2  0
 36 37  1  0
 36 38  1  0
 38 39  1  0
 38 40  2  0
 40 41  1  0
 40 42  1  0
 42 43  1  0
 42 44  2  0
 44 45  1  0
 33 46  1  0
 46 47  2  0
 47  2  1  0
 46 14  1  0
 29 20  1  0
 44 35  1  0
M  CHG  1  32  -1
M  END
>  <UniqueID>  (23) 
22

>  <SMILES>  (23) 
CN(C)c1ncnc2/c(=N/c3ccccc3)[n-]c(N[C@H]3CCOC3)cc12

>  <Energy>  (23) 
65.78948661120309

>  <Genealogy>  (23) 
CN(C)c1ncnc2c(=Nc3ccccc3)[n-]c(NC3CCOC3)cc12 (protonated)
CN(C)c1ncnc2c(=Nc3ccccc3)[n-]c(N[C@H]3CCOC3)cc12 (chirality)
CN(C)c1ncnc2/c(=N/c3ccccc3)[n-]c(N[C@H]3CCOC3)cc12 (cis-trans isomerization)
CN(C)c1ncnc2/c(=N/c3ccccc3)[n-]c(N[C@H]3CCOC3)cc12 (3D coordinates assigned)
CN(C)c1ncnc2/c(=N/c3ccccc3)[n-]c(N[C@H]3CCOC3)cc12 (nonaromatic ring conformer: 65.78948661120309 kcal/mol)

>  <smiles>  (23) 
CN(C)c1ncnc2c(=Nc3ccccc3)[nH]c(NC3CCOC3)cc12

>  <score_type>  (23) 
oracle

>  <origin>  (23) 
adg

>  <m_score__min__energy>  (23) 
-9.0899999999999999

>  <m_primary>  (23) 
energy

$$$$
23:0
     RDKit          3D

 49 52  0  0  0  0  0  0  0  0999 V2000
   -6.1450   25.2420  -30.1930 C   0  0  0  0  0  0  0  0  0  0  0  0
   -5.9810   23.7090  -30.0910 C   0  0  1  0  0  0  0  0  0  0  0  0
   -6.9030   23.0280  -31.1380 C   0  0  0  0  0  0  0  0  0  0  0  0
   -6.2830   21.8130  -31.6780 N   0  0  0  0  0  0  0  0  0  0  0  0
   -7.0280   20.5860  -31.7690 C   0  0  0  0  0  0  0  0  0  0  0  0
   -8.4210   20.6160  -31.9530 C   0  0  0  0  0  0  0  0  0  0  0  0
   -9.1470   19.4260  -32.0460 C   0  0  0  0  0  0  0  0  0  0  0  0
   -8.4910   18.1950  -31.9540 C   0  0  0  0  0  0  0  0  0  0  0  0
   -7.1080   18.1560  -31.7600 C   0  0  0  0  0  0  0  0  0  0  0  0
   -6.3800   19.3450  -31.6630 C   0  0  0  0  0  0  0  0  0  0  0  0
   -4.9340   21.9040  -32.2500 C   0  0  0  0  0  0  0  0  0  0  0  0
   -4.1500   23.0590  -31.6100 C   0  0  0  0  0  0  0  0  0  0  0  0
   -4.5660   23.2400  -30.2020 N   0  0  1  0  0  0  0  0  0  0  0  0
   -3.6310   24.0780  -29.4740 C   0  0  0  0  0  0  0  0  0  0  0  0
   -3.5720   25.2770  -29.7000 O   0  0  0  0  0  0  0  0  0  0  0  0
   -2.7310   23.4940  -28.4140 C   0  0  0  0  0  0  0  0  0  0  0  0
   -2.1720   24.5600  -27.5900 N   0  0  0  0  0  0  0  0  0  0  0  0
   -2.2890   24.6620  -26.2450 C   0  0  0  0  0  0  0  0  0  0  0  0
   -1.6960   25.8410  -25.8380 C   0  0  0  0  0  0  0  0  0  0  0  0
   -1.5640   26.3990  -24.5700 C   0  0  0  0  0  0  0  0  0  0  0  0
   -0.9090   27.6400  -24.4650 C   0  0  0  0  0  0  0  0  0  0  0  0
   -0.4100   28.2880  -25.6170 C   0  0  0  0  0  0  0  0  0  0  0  0
   -0.5630   27.7020  -26.8880 C   0  0  0  0  0  0  0  0  0  0  0  0
   -1.2130   26.4720  -26.9570 C   0  0  0  0  0  0  0  0  0  0  0  0
   -1.5250   25.6650  -28.0250 C   0  0  0  0  0  0  0  0  0  0  0  0
   -1.2370   25.9350  -29.3580 O   0  0  0  0  0  0  0  0  0  0  0  0
   -6.1912   25.6739  -29.1824 H   0  0  0  0  0  0  0  0  0  0  0  0
   -5.2872   25.6673  -30.7346 H   0  0  0  0  0  0  0  0  0  0  0  0
   -7.0733   25.4762  -30.7346 H   0  0  0  0  0  0  0  0  0  0  0  0
   -6.2877   23.4108  -29.0776 H   0  0  0  0  0  0  0  0  0  0  0  0
   -7.8562   22.7618  -30.6579 H   0  0  0  0  0  0  0  0  0  0  0  0
   -7.0702   23.7322  -31.9663 H   0  0  0  0  0  0  0  0  0  0  0  0
   -8.9426   21.5819  -32.0242 H   0  0  0  0  0  0  0  0  0  0  0  0
  -10.2368   19.4578  -32.1919 H   0  0  0  0  0  0  0  0  0  0  0  0
   -9.0627   17.2587  -32.0342 H   0  0  0  0  0  0  0  0  0  0  0  0
   -6.5913   17.1879  -31.6835 H   0  0  0  0  0  0  0  0  0  0  0  0
   -5.2924   19.3083  -31.5026 H   0  0  0  0  0  0  0  0  0  0  0  0
   -4.3998   20.9600  -32.0672 H   0  0  0  0  0  0  0  0  0  0  0  0
   -5.0199   22.0908  -33.3306 H   0  0  0  0  0  0  0  0  0  0  0  0
   -3.0744   22.8313  -31.6447 H   0  0  0  0  0  0  0  0  0  0  0  0
   -4.3559   23.9849  -32.1671 H   0  0  0  0  0  0  0  0  0  0  0  0
   -4.5240   22.2930  -29.7560 H   0  0  0  0  0  0  0  0  0  0  0  0
   -3.3129   22.8099  -27.7788 H   0  0  0  0  0  0  0  0  0  0  0  0
   -1.9104   22.9457  -28.8997 H   0  0  0  0  0  0  0  0  0  0  0  0
   -2.7755   23.9278  -25.5860 H   0  0  0  0  0  0  0  0  0  0  0  0
   -1.9584   25.8872  -23.6798 H   0  0  0  0  0  0  0  0  0  0  0  0
   -0.7845   28.1094  -23.4780 H   0  0  0  0  0  0  0  0  0  0  0  0
    0.1016   29.2570  -25.5203 H   0  0  0  0  0  0  0  0  0  0  0  0
   -0.1830   28.1975  -27.7936 H   0  0  0  0  0  0  0  0  0  0  0  0
  1  2  1  0
  2  3  1  0
  3  4  1  0
  4  5  1  0
  5  6  2  0
  6  7  1  0
  7  8  2  0
  8  9  1  0
  9 10  2  0
  4 11  1  0
 11 12  1  0
 12 13  1  0
 13 14  1  0
 14 15  2  0
 14 16  1  0
 16 17  1  0
 17 18  1  0
 18 19  2  0
 19 20  1  0
 20 21  2  0
 21 22  1  0
 22 23  2  0
 23 24  1  0
 24 25  2  0
 25 26  1  0
 13  2  1  0
 25 17  1  0
 10  5  1  0
 24 19  1  0
  1 27  1  0
  1 28  1  0
  1 29  1  0
  2 30  1  1
  3 31  1  0
  3 32  1  0
  6 33  1  0
  7 34  1  0
  8 35  1  0
  9 36  1  0
 10 37  1  0
 11 38  1  0
 11 39  1  0
 12 40  1  0
 12 41  1  0
 13 42  1  1
 16 43  1  0
 16 44  1  0
 18 45  1  0
 20 46  1  0
 21 47  1  0
 22 48  1  0
 23 49  1  0
M  CHG  2  13   1  26  -1
M  END
>  <UniqueID>  (24) 
23

>  <SMILES>  (24) 
C[C@H]1CN(c2ccccc2)CC[N@H+]1C(=O)Cn1cc2ccccc2c1[O-]

>  <Energy>  (24) 
100.05470645854305

>  <Genealogy>  (24) 
CC1CN(c2ccccc2)CC[NH+]1C(=O)Cn1cc2ccccc2c1[O-] (protonated)
C[C@H]1CN(c2ccccc2)CC[N@H+]1C(=O)Cn1cc2ccccc2c1[O-] (chirality)
C[C@H]1CN(c2ccccc2)CC[N@H+]1C(=O)Cn1cc2ccccc2c1[O-] (3D coordinates assigned)
C[C@H]1CN(c2ccccc2)CC[N@H+]1C(=O)Cn1cc2ccccc2c1[O-] (nonaromatic ring conformer: 100.05470645854305 kcal/mol)

>  <smiles>  (24) 
CC1CN(c2ccccc2)CCN1C(=O)Cn1cc2ccccc2c1O

>  <score_type>  (24) 
oracle

>  <origin>  (24) 
adg

>  <m_score__min__energy>  (24) 
-11.51

>  <m_primary>  (24) 
energy

$$$$
24:0
     RDKit          3D

 32 34  0  0  0  0  0  0  0  0999 V2000
   -2.6620   24.3170  -29.2960 C   0  0  0  0  0  0  0  0  0  0  0  0
   -3.5370   24.8660  -30.2750 O   0  0  0  0  0  0  0  0  0  0  0  0
   -4.6280   24.1790  -30.8250 C   0  0  0  0  0  0  0  0  0  0  0  0
   -5.9750   24.5720  -30.6270 C   0  0  0  0  0  0  0  0  0  0  0  0
   -7.0300   23.8350  -31.2100 C   0  0  0  0  0  0  0  0  0  0  0  0
   -6.7620   22.7010  -31.9980 C   0  0  0  0  0  0  0  0  0  0  0  0
   -5.4250   22.3390  -32.1780 C   0  0  0  0  0  0  0  0  0  0  0  0
   -4.4050   23.0530  -31.6120 C   0  0  0  0  0  0  0  0  0  0  0  0
   -3.2610   22.5020  -31.9410 O   0  0  0  0  0  0  0  0  0  0  0  0
   -3.5610   21.4630  -32.7010 C   0  0  0  0  0  0  0  0  0  0  0  0
   -2.4210   20.4790  -33.3460 S   0  0  0  0  0  0  0  0  0  0  0  0
   -4.9020   21.3120  -32.8770 N   0  0  0  0  0  0  0  0  0  0  0  0
   -5.6030   20.3220  -33.7020 C   0  0  0  0  0  0  0  0  0  0  0  0
   -6.7100   19.6750  -32.9130 C   0  0  0  0  0  0  0  0  0  0  0  0
   -6.4180   18.6620  -31.9840 C   0  0  0  0  0  0  0  0  0  0  0  0
   -7.4420   18.0790  -31.2310 C   0  0  0  0  0  0  0  0  0  0  0  0
   -8.7620   18.5050  -31.3960 C   0  0  0  0  0  0  0  0  0  0  0  0
   -9.0610   19.5140  -32.3150 C   0  0  0  0  0  0  0  0  0  0  0  0
   -8.0410   20.0990  -33.0700 C   0  0  0  0  0  0  0  0  0  0  0  0
   -3.0409   24.5547  -28.2910 H   0  0  0  0  0  0  0  0  0  0  0  0
   -2.6118   23.2252  -29.4201 H   0  0  0  0  0  0  0  0  0  0  0  0
   -1.6571   24.7468  -29.4201 H   0  0  0  0  0  0  0  0  0  0  0  0
   -6.2009   25.4575  -30.0148 H   0  0  0  0  0  0  0  0  0  0  0  0
   -8.0708   24.1510  -31.0462 H   0  0  0  0  0  0  0  0  0  0  0  0
   -7.5761   22.1201  -32.4560 H   0  0  0  0  0  0  0  0  0  0  0  0
   -6.0300   20.8216  -34.5841 H   0  0  0  0  0  0  0  0  0  0  0  0
   -4.8880   19.5477  -34.0171 H   0  0  0  0  0  0  0  0  0  0  0  0
   -5.3793   18.3261  -31.8485 H   0  0  0  0  0  0  0  0  0  0  0  0
   -7.2077   17.2839  -30.5078 H   0  0  0  0  0  0  0  0  0  0  0  0
   -9.5662   18.0460  -30.8023 H   0  0  0  0  0  0  0  0  0  0  0  0
  -10.1009   19.8484  -32.4444 H   0  0  0  0  0  0  0  0  0  0  0  0
   -8.2807   20.8949  -33.7905 H   0  0  0  0  0  0  0  0  0  0  0  0
  1  2  1  0
  2  3  1  0
  3  4  2  0
  4  5  1  0
  5  6  2  0
  6  7  1  0
  7  8  2  0
  8  9  1  0
  9 10  1  0
 10 11  2  0
 10 12  1  0
 12 13  1  0
 13 14  1  0
 14 15  2  0
 15 16  1  0
 16 17  2  0
 17 18  1  0
 18 19  2  0
  8  3  1  0
 19 14  1  0
 12  7  1  0
  1 20  1  0
  1 21  1  0
  1 22  1  0
  4 23  1  0
  5 24  1  0
  6 25  1  0
 13 26  1  0
 13 27  1  0
 15 28  1  0
 16 29  1  0
 17 30  1  0
 18 31  1  0
 19 32  1  0
M  END
>  <UniqueID>  (25) 
24

>  <SMILES>  (25) 
COc1cccc2c1oc(=S)n2Cc1ccccc1

>  <Energy>  (25) 
73.47176861457247

>  <Genealogy>  (25) 
COc1cccc2c1oc(=S)n2Cc1ccccc1 (3D coordinates assigned)
COc1cccc2c1oc(=S)n2Cc1ccccc1 (optimized conformer: 73.47176861457247 kcal/mol)

>  <smiles>  (25) 
COc1cccc2c1oc(=S)n2Cc1ccccc1

>  <score_type>  (25) 
oracle

>  <origin>  (25) 
adg

>  <m_score__min__energy>  (25) 
-7.71

>  <m_primary>  (25) 
energy

$$$$
25:0
     RDKit          3D

 48 51  0  0  0  0  0  0  0  0999 V2000
   -2.6330   13.8810  -32.3940 C   0  0  0  0  0  0  0  0  0  0  0  0
   -2.0650   15.0570  -32.9640 O   0  0  0  0  0  0  0  0  0  0  0  0
   -2.7420   16.2780  -33.0960 C   0  0  0  0  0  0  0  0  0  0  0  0
   -2.0790   17.5150  -33.0790 C   0  0  0  0  0  0  0  0  0  0  0  0
   -2.8000   18.7070  -33.1870 C   0  0  0  0  0  0  0  0  0  0  0  0
   -4.2120   18.6990  -33.2810 C   0  0  0  0  0  0  0  0  0  0  0  0
   -4.8450   17.4470  -33.4180 C   0  0  0  0  0  0  0  0  0  0  0  0
   -4.1250   16.2560  -33.2800 C   0  0  0  0  0  0  0  0  0  0  0  0
   -6.5090   17.3580  -34.0400 S   0  0  0  0  0  0  0  0  0  0  0  0
   -7.1090   18.6070  -32.9260 C   0  0  0  0  0  0  0  0  0  0  0  0
   -8.3640   18.4230  -32.3390 C   0  0  0  0  0  0  0  0  0  0  0  0
   -9.0040   19.4850  -31.7040 C   0  0  0  0  0  0  0  0  0  0  0  0
   -8.4190   20.7590  -31.7040 C   0  0  0  0  0  0  0  0  0  0  0  0
   -9.1100   21.9230  -31.0360 C   0  0  0  0  0  0  0  0  0  0  0  0
   -8.1580   22.7600  -30.4850 F   0  0  0  0  0  0  0  0  0  0  0  0
   -9.9630   21.4880  -30.0360 F   0  0  0  0  0  0  0  0  0  0  0  0
   -9.8550   22.6350  -31.9600 F   0  0  0  0  0  0  0  0  0  0  0  0
   -7.1330   20.9230  -32.2490 C   0  0  0  0  0  0  0  0  0  0  0  0
   -6.4230   19.8330  -32.8050 C   0  0  0  0  0  0  0  0  0  0  0  0
   -5.0080   19.9250  -33.1740 N   0  0  0  0  0  0  0  0  0  0  0  0
   -4.3530   21.2420  -33.3570 C   0  0  0  0  0  0  0  0  0  0  0  0
   -4.4890   22.1780  -32.1130 C   0  0  0  0  0  0  0  0  0  0  0  0
   -3.0890   22.6190  -31.6400 C   0  0  0  0  0  0  0  0  0  0  0  0
   -3.1850   23.5790  -30.4470 C   0  0  0  0  0  0  0  0  0  0  0  0
   -4.0030   24.7550  -30.7710 N   0  0  0  0  0  0  0  0  0  0  0  0
   -5.3640   24.3550  -31.1510 C   0  0  0  0  0  0  0  0  0  0  0  0
   -5.3590   23.4220  -32.3710 C   0  0  0  0  0  0  0  0  0  0  0  0
   -2.5987   13.9520  -31.2968 H   0  0  0  0  0  0  0  0  0  0  0  0
   -3.6781   13.7822  -32.7226 H   0  0  0  0  0  0  0  0  0  0  0  0
   -2.0606   13.0010  -32.7226 H   0  0  0  0  0  0  0  0  0  0  0  0
   -0.9839   17.5463  -32.9799 H   0  0  0  0  0  0  0  0  0  0  0  0
   -2.2618   19.6663  -33.1991 H   0  0  0  0  0  0  0  0  0  0  0  0
   -4.6542   15.2924  -33.3169 H   0  0  0  0  0  0  0  0  0  0  0  0
   -8.8481   17.4361  -32.3786 H   0  0  0  0  0  0  0  0  0  0  0  0
   -9.9694   19.3238  -31.2020 H   0  0  0  0  0  0  0  0  0  0  0  0
   -6.6691   21.9204  -32.2428 H   0  0  0  0  0  0  0  0  0  0  0  0
   -3.2836   21.0758  -33.5536 H   0  0  0  0  0  0  0  0  0  0  0  0
   -4.8561   21.7422  -34.1977 H   0  0  0  0  0  0  0  0  0  0  0  0
   -4.9985   21.5914  -31.3344 H   0  0  0  0  0  0  0  0  0  0  0  0
   -2.5147   21.7300  -31.3402 H   0  0  0  0  0  0  0  0  0  0  0  0
   -2.5891   23.1414  -32.4690 H   0  0  0  0  0  0  0  0  0  0  0  0
   -3.6401   23.0495  -29.5970 H   0  0  0  0  0  0  0  0  0  0  0  0
   -2.1704   23.9213  -30.1951 H   0  0  0  0  0  0  0  0  0  0  0  0
   -3.5620   25.2670  -31.5720 H   0  0  0  0  0  0  0  0  0  0  0  0
   -5.8322   23.8324  -30.3038 H   0  0  0  0  0  0  0  0  0  0  0  0
   -5.9286   25.2618  -31.4136 H   0  0  0  0  0  0  0  0  0  0  0  0
   -6.3899   23.1020  -32.5829 H   0  0  0  0  0  0  0  0  0  0  0  0
   -4.9406   23.9696  -33.2283 H   0  0  0  0  0  0  0  0  0  0  0  0
  1  2  1  0
  2  3  1  0
  3  4  2  0
  4  5  1  0
  5  6  2  0
  6  7  1  0
  7  8  2  0
  7  9  1  0
  9 10  1  0
 10 11  2  0
 11 12  1  0
 12 13  2  0
 13 14  1  0
 14 15  1  0
 14 16  1  0
 14 17  1  0
 13 18  1  0
 18 19  2  0
 19 20  1  0
 20 21  1  0
 21 22  1  0
 22 23  1  0
 23 24  1  0
 24 25  1  0
 25 26  1  0
 26 27  1  0
  8  3  1  0
 19 10  1  0
 27 22  1  0
 20  6  1  0
  1 28  1  0
  1 29  1  0
  1 30  1  0
  4 31  1  0
  5 32  1  0
  8 33  1  0
 11 34  1  0
 12 35  1  0
 18 36  1  0
 21 37  1  0
 21 38  1  0
 22 39  1  0
 23 40  1  0
 23 41  1  0
 24 42  1  0
 24 43  1  0
 25 44  1  0
 26 45  1  0
 26 46  1  0
 27 47  1  0
 27 48  1  0
M  END
>  <UniqueID>  (26) 
25

>  <SMILES>  (26) 
COc1ccc2c(c1)Sc1ccc(C(F)(F)F)cc1N2CC1CCNCC1

>  <Energy>  (26) 
72.51821854245739

>  <Genealogy>  (26) 
COc1ccc2c(c1)Sc1ccc(C(F)(F)F)cc1N2CC1CCNCC1 (3D coordinates assigned)
COc1ccc2c(c1)Sc1ccc(C(F)(F)F)cc1N2CC1CCNCC1 (nonaromatic ring conformer: 72.51821854245739 kcal/mol)

>  <smiles>  (26) 
COc1ccc2c(c1)Sc1ccc(C(F)(F)F)cc1N2CC1CCNCC1

>  <score_type>  (26) 
oracle

>  <origin>  (26) 
adg

>  <m_score__min__energy>  (26) 
-8.7699999999999996

>  <m_primary>  (26) 
energy

$$$$
26:0
     RDKit          3D

 48 50  0  0  0  0  0  0  0  0999 V2000
   -0.9010   26.5610  -28.2030 C   0  0  0  0  0  0  0  0  0  0  0  0
   -1.7060   25.6670  -28.9630 O   0  0  0  0  0  0  0  0  0  0  0  0
   -1.9970   24.3430  -28.5930 C   0  0  0  0  0  0  0  0  0  0  0  0
   -1.2460   23.6700  -27.6060 C   0  0  0  0  0  0  0  0  0  0  0  0
   -1.5430   22.3480  -27.2690 C   0  0  0  0  0  0  0  0  0  0  0  0
   -2.5920   21.6810  -27.9020 C   0  0  0  0  0  0  0  0  0  0  0  0
   -2.9650   20.0230  -27.4690 Cl  0  0  0  0  0  0  0  0  0  0  0  0
   -3.3480   22.3370  -28.8750 C   0  0  0  0  0  0  0  0  0  0  0  0
   -3.0570   23.6650  -29.2350 C   0  0  0  0  0  0  0  0  0  0  0  0
   -3.8880   24.3380  -30.2630 C   0  0  0  0  0  0  0  0  0  0  0  0
   -3.9150   25.5990  -30.3110 O   0  0  0  0  0  0  0  0  0  0  0  0
   -4.7030   23.5800  -31.1760 N   0  0  0  0  0  0  0  0  0  0  0  0
   -4.1590   22.4010  -31.8640 C   0  0  0  0  0  0  0  0  0  0  0  0
   -5.2070   21.2720  -31.9520 C   0  0  0  0  0  0  0  0  0  0  0  0
   -6.5870   21.7620  -31.7350 N   0  0  0  0  0  0  0  0  0  0  0  0
   -7.6240   20.7590  -32.0660 C   0  0  0  0  0  0  0  0  0  0  0  0
   -7.0700   19.4080  -32.4690 C   0  0  0  0  0  0  0  0  0  0  0  0
   -7.1610   18.3110  -31.5960 C   0  0  0  0  0  0  0  0  0  0  0  0
   -6.6560   17.0640  -31.9740 C   0  0  0  0  0  0  0  0  0  0  0  0
   -6.0460   16.9020  -33.2200 C   0  0  0  0  0  0  0  0  0  0  0  0
   -5.9160   17.9940  -34.0900 C   0  0  0  0  0  0  0  0  0  0  0  0
   -5.2890   17.8140  -35.4400 C   0  0  0  0  0  0  0  0  0  0  0  0
   -6.4380   19.2420  -33.7150 C   0  0  0  0  0  0  0  0  0  0  0  0
   -6.8150   23.0770  -32.3590 C   0  0  0  0  0  0  0  0  0  0  0  0
   -5.9960   24.1290  -31.6050 C   0  0  0  0  0  0  0  0  0  0  0  0
   -1.0642   26.3797  -27.1304 H   0  0  0  0  0  0  0  0  0  0  0  0
    0.1592   26.3962  -28.4456 H   0  0  0  0  0  0  0  0  0  0  0  0
   -1.1757   27.5982  -28.4456 H   0  0  0  0  0  0  0  0  0  0  0  0
   -0.4206   24.1906  -27.0984 H   0  0  0  0  0  0  0  0  0  0  0  0
   -0.9479   21.8308  -26.5019 H   0  0  0  0  0  0  0  0  0  0  0  0
   -4.1798   21.8099  -29.3651 H   0  0  0  0  0  0  0  0  0  0  0  0
   -3.8549   22.6881  -32.8814 H   0  0  0  0  0  0  0  0  0  0  0  0
   -3.2963   22.0309  -31.2906 H   0  0  0  0  0  0  0  0  0  0  0  0
   -5.1483   20.8131  -32.9500 H   0  0  0  0  0  0  0  0  0  0  0  0
   -4.9819   20.5441  -31.1586 H   0  0  0  0  0  0  0  0  0  0  0  0
   -8.2650   20.6203  -31.1829 H   0  0  0  0  0  0  0  0  0  0  0  0
   -8.1762   21.1477  -32.9343 H   0  0  0  0  0  0  0  0  0  0  0  0
   -7.6322   18.4343  -30.6097 H   0  0  0  0  0  0  0  0  0  0  0  0
   -6.7391   16.2078  -31.2885 H   0  0  0  0  0  0  0  0  0  0  0  0
   -5.6662   15.9142  -33.5199 H   0  0  0  0  0  0  0  0  0  0  0  0
   -4.2381   17.5123  -35.3189 H   0  0  0  0  0  0  0  0  0  0  0  0
   -5.8323   17.0355  -35.9958 H   0  0  0  0  0  0  0  0  0  0  0  0
   -5.3366   18.7621  -35.9958 H   0  0  0  0  0  0  0  0  0  0  0  0
   -6.3522   20.0974  -34.4012 H   0  0  0  0  0  0  0  0  0  0  0  0
   -6.4982   23.0466  -33.4120 H   0  0  0  0  0  0  0  0  0  0  0  0
   -7.8840   23.3322  -32.3137 H   0  0  0  0  0  0  0  0  0  0  0  0
   -5.8197   24.9899  -32.2666 H   0  0  0  0  0  0  0  0  0  0  0  0
   -6.5593   24.4385  -30.7123 H   0  0  0  0  0  0  0  0  0  0  0  0
  1  2  1  0
  2  3  1  0
  3  4  2  0
  4  5  1  0
  5  6  2  0
  6  7  1  0
  6  8  1  0
  8  9  2  0
  9 10  1  0
 10 11  2  0
 10 12  1  0
 12 13  1  0
 13 14  1  0
 14 15  1  0
 15 16  1  0
 16 17  1  0
 17 18  2  0
 18 19  1  0
 19 20  2  0
 20 21  1  0
 21 22  1  0
 21 23  2  0
 15 24  1  0
 24 25  1  0
  9  3  1  0
 25 12  1  0
 23 17  1  0
  1 26  1  0
  1 27  1  0
  1 28  1  0
  4 29  1  0
  5 30  1  0
  8 31  1  0
 13 32  1  0
 13 33  1  0
 14 34  1  0
 14 35  1  0
 16 36  1  0
 16 37  1  0
 18 38  1  0
 19 39  1  0
 20 40  1  0
 22 41  1  0
 22 42  1  0
 22 43  1  0
 23 44  1  0
 24 45  1  0
 24 46  1  0
 25 47  1  0
 25 48  1  0
M  END
>  <UniqueID>  (27) 
26

>  <SMILES>  (27) 
COc1ccc(Cl)cc1C(=O)N1CCN(Cc2cccc(C)c2)CC1

>  <Energy>  (27) 
61.35644128449316

>  <Genealogy>  (27) 
COc1ccc(Cl)cc1C(=O)N1CCN(Cc2cccc(C)c2)CC1 (3D coordinates assigned)
COc1ccc(Cl)cc1C(=O)N1CCN(Cc2cccc(C)c2)CC1 (nonaromatic ring conformer: 61.35644128449316 kcal/mol)

>  <smiles>  (27) 
COc1ccc(Cl)cc1C(=O)N1CCN(Cc2cccc(C)c2)CC1

>  <score_type>  (27) 
oracle

>  <origin>  (27) 
adg

>  <m_score__min__energy>  (27) 
-9.6099999999999994

>  <m_primary>  (27) 
energy

$$$$
27:0
     RDKit          3D

 45 47  0  0  0  0  0  0  0  0999 V2000
   -9.2460   21.8680  -30.9850 C   0  0  0  0  0  0  0  0  0  0  0  0
   -8.0890   22.0550  -31.8620 N   0  0  0  0  0  0  0  0  0  0  0  0
   -7.6520   23.4150  -32.1940 C   0  0  0  0  0  0  0  0  0  0  0  0
   -6.8510   24.0230  -31.0330 C   0  0  0  0  0  0  0  0  0  0  0  0
   -6.6690   23.0570  -29.8420 C   0  0  0  0  0  0  0  0  0  0  0  0
   -5.2660   22.8320  -29.4250 N   0  0  0  0  0  0  0  0  0  0  0  0
   -4.6200   23.9290  -28.6740 C   0  0  0  0  0  0  0  0  0  0  0  0
   -3.4240   24.5280  -29.4280 C   0  0  0  0  0  0  0  0  0  0  0  0
   -3.6210   24.4240  -30.8200 O   0  0  0  0  0  0  0  0  0  0  0  0
   -3.5020   23.0720  -31.2130 C   0  0  0  0  0  0  0  0  0  0  0  0
   -4.4060   22.1210  -30.3930 C   0  0  0  0  0  0  0  0  0  0  0  0
   -7.3600   20.9270  -32.3820 C   0  0  0  0  0  0  0  0  0  0  0  0
   -6.0540   21.0160  -32.7470 N   0  0  0  0  0  0  0  0  0  0  0  0
   -5.7720   19.7730  -33.1720 C   0  0  0  0  0  0  0  0  0  0  0  0
   -4.5560   19.3020  -33.6600 C   0  0  0  0  0  0  0  0  0  0  0  0
   -4.4860   17.9520  -34.0510 C   0  0  0  0  0  0  0  0  0  0  0  0
   -5.6220   17.1160  -33.9450 C   0  0  0  0  0  0  0  0  0  0  0  0
   -6.8370   17.6230  -33.4490 C   0  0  0  0  0  0  0  0  0  0  0  0
   -6.8720   18.9690  -33.0720 C   0  0  0  0  0  0  0  0  0  0  0  0
   -7.8970   19.6910  -32.5860 N   0  0  0  0  0  0  0  0  0  0  0  0
   -9.2750   19.2510  -32.3720 C   0  0  0  0  0  0  0  0  0  0  0  0
   -8.9224   21.9203  -29.9350 H   0  0  0  0  0  0  0  0  0  0  0  0
   -9.9858   22.6582  -31.1805 H   0  0  0  0  0  0  0  0  0  0  0  0
   -9.6992   20.8850  -31.1805 H   0  0  0  0  0  0  0  0  0  0  0  0
   -7.0182   23.3820  -33.0925 H   0  0  0  0  0  0  0  0  0  0  0  0
   -8.5396   24.0382  -32.3777 H   0  0  0  0  0  0  0  0  0  0  0  0
   -5.8562   24.3072  -31.4067 H   0  0  0  0  0  0  0  0  0  0  0  0
   -7.4196   24.8896  -30.6646 H   0  0  0  0  0  0  0  0  0  0  0  0
   -7.2183   23.4685  -28.9824 H   0  0  0  0  0  0  0  0  0  0  0  0
   -7.0492   22.0810  -30.1780 H   0  0  0  0  0  0  0  0  0  0  0  0
   -5.3615   24.7226  -28.4998 H   0  0  0  0  0  0  0  0  0  0  0  0
   -4.2458   23.5129  -27.7270 H   0  0  0  0  0  0  0  0  0  0  0  0
   -3.3170   25.5882  -29.1549 H   0  0  0  0  0  0  0  0  0  0  0  0
   -2.5142   23.9742  -29.1531 H   0  0  0  0  0  0  0  0  0  0  0  0
   -3.7790   22.9900  -32.2744 H   0  0  0  0  0  0  0  0  0  0  0  0
   -2.4596   22.7688  -31.0354 H   0  0  0  0  0  0  0  0  0  0  0  0
   -5.0493   21.5626  -31.0889 H   0  0  0  0  0  0  0  0  0  0  0  0
   -3.7459   21.4546  -29.8183 H   0  0  0  0  0  0  0  0  0  0  0  0
   -3.6799   19.9627  -33.7373 H   0  0  0  0  0  0  0  0  0  0  0  0
   -3.5419   17.5443  -34.4415 H   0  0  0  0  0  0  0  0  0  0  0  0
   -5.5550   16.0620  -34.2525 H   0  0  0  0  0  0  0  0  0  0  0  0
   -7.7276   16.9834  -33.3609 H   0  0  0  0  0  0  0  0  0  0  0  0
   -9.4759   19.1868  -31.2924 H   0  0  0  0  0  0  0  0  0  0  0  0
   -9.9660   19.9732  -32.8313 H   0  0  0  0  0  0  0  0  0  0  0  0
   -9.4196   18.2620  -32.8313 H   0  0  0  0  0  0  0  0  0  0  0  0
  1  2  1  0
  2  3  1  0
  3  4  1  0
  4  5  1  0
  5  6  1  0
  6  7  1  0
  7  8  1  0
  8  9  1  0
  9 10  1  0
 10 11  1  0
  2 12  1  0
 12 13  2  0
 13 14  1  0
 14 15  2  0
 15 16  1  0
 16 17  2  0
 17 18  1  0
 18 19  2  0
 19 20  1  0
 20 21  1  0
 11  6  1  0
 20 12  1  0
 19 14  1  0
  1 22  1  0
  1 23  1  0
  1 24  1  0
  3 25  1  0
  3 26  1  0
  4 27  1  0
  4 28  1  0
  5 29  1  0
  5 30  1  0
  7 31  1  0
  7 32  1  0
  8 33  1  0
  8 34  1  0
 10 35  1  0
 10 36  1  0
 11 37  1  0
 11 38  1  0
 15 39  1  0
 16 40  1  0
 17 41  1  0
 18 42  1  0
 21 43  1  0
 21 44  1  0
 21 45  1  0
M  END
>  <UniqueID>  (28) 
27

>  <SMILES>  (28) 
CN(CCCN1CCOCC1)c1nc2ccccc2n1C

>  <Energy>  (28) 
100.06323980443915

>  <Genealogy>  (28) 
CN(CCCN1CCOCC1)c1nc2ccccc2n1C (3D coordinates assigned)
CN(CCCN1CCOCC1)c1nc2ccccc2n1C (nonaromatic ring conformer: 100.06323980443915 kcal/mol)

>  <smiles>  (28) 
CN(CCCN1CCOCC1)c1nc2ccccc2n1C

>  <score_type>  (28) 
oracle

>  <origin>  (28) 
adg

>  <m_score__min__energy>  (28) 
-7.6100000000000003

>  <m_primary>  (28) 
energy

$$$$
28:0
     RDKit          3D

 36 38  0  0  0  0  0  0  0  0999 V2000
   -0.7590   26.1980  -25.3670 Br  0  0  0  0  0  0  0  0  0  0  0  0
   -1.9150   25.4520  -26.6920 C   0  0  0  0  0  0  0  0  0  0  0  0
   -3.1550   24.9230  -26.3300 C   0  0  0  0  0  0  0  0  0  0  0  0
   -3.9930   24.3820  -27.3060 C   0  0  0  0  0  0  0  0  0  0  0  0
   -3.5760   24.3720  -28.6490 C   0  0  0  0  0  0  0  0  0  0  0  0
   -4.4130   23.8250  -29.6890 N   0  0  0  0  0  0  0  0  0  0  0  0
   -5.7700   24.3560  -29.8720 C   0  0  0  0  0  0  0  0  0  0  0  0
   -6.1040   24.4860  -31.3590 C   0  0  0  0  0  0  0  0  0  0  0  0
   -5.7900   23.2170  -32.1770 C   0  0  0  0  0  0  0  0  0  0  0  0
   -6.9140   22.1840  -32.1510 C   0  0  0  0  0  0  0  0  0  0  0  0
   -6.6960   20.9150  -32.7180 C   0  0  0  0  0  0  0  0  0  0  0  0
   -7.7150   19.9600  -32.7080 C   0  0  0  0  0  0  0  0  0  0  0  0
   -8.9210   20.2520  -32.1560 N   0  0  0  0  0  0  0  0  0  0  0  0
   -9.1680   21.4700  -31.6040 C   0  0  0  0  0  0  0  0  0  0  0  0
   -8.1770   22.4530  -31.5920 C   0  0  0  0  0  0  0  0  0  0  0  0
   -4.3940   22.6340  -31.8630 C   0  0  0  0  0  0  0  0  0  0  0  0
   -4.0490   22.5760  -30.3690 C   0  0  0  0  0  0  0  0  0  0  0  0
   -2.3630   24.9030  -28.9710 N   0  0  0  0  0  0  0  0  0  0  0  0
   -1.5340   25.4340  -28.0350 C   0  0  0  0  0  0  0  0  0  0  0  0
   -3.4713   24.9326  -25.2765 H   0  0  0  0  0  0  0  0  0  0  0  0
   -4.9725   23.9665  -27.0269 H   0  0  0  0  0  0  0  0  0  0  0  0
   -6.4915   23.6741  -29.3982 H   0  0  0  0  0  0  0  0  0  0  0  0
   -5.8253   25.3522  -29.4088 H   0  0  0  0  0  0  0  0  0  0  0  0
   -7.1775   24.7052  -31.4561 H   0  0  0  0  0  0  0  0  0  0  0  0
   -5.4734   25.2926  -31.7613 H   0  0  0  0  0  0  0  0  0  0  0  0
   -5.7392   23.5402  -33.2272 H   0  0  0  0  0  0  0  0  0  0  0  0
   -5.7221   20.6748  -33.1696 H   0  0  0  0  0  0  0  0  0  0  0  0
   -7.5401   18.9675  -33.1489 H   0  0  0  0  0  0  0  0  0  0  0  0
   -9.6740   19.5280  -32.1570 H   0  0  0  0  0  0  0  0  0  0  0  0
  -10.1540   21.6817  -31.1646 H   0  0  0  0  0  0  0  0  0  0  0  0
   -8.3832   23.4371  -31.1459 H   0  0  0  0  0  0  0  0  0  0  0  0
   -4.3506   21.6112  -32.2654 H   0  0  0  0  0  0  0  0  0  0  0  0
   -3.6613   23.3107  -32.3268 H   0  0  0  0  0  0  0  0  0  0  0  0
   -4.5984   21.7428  -29.9064 H   0  0  0  0  0  0  0  0  0  0  0  0
   -2.9634   22.4295  -30.2686 H   0  0  0  0  0  0  0  0  0  0  0  0
   -0.5612   25.8504  -28.3356 H   0  0  0  0  0  0  0  0  0  0  0  0
  1  2  1  0
  2  3  2  0
  3  4  1  0
  4  5  2  0
  5  6  1  0
  6  7  1  0
  7  8  1  0
  8  9  1  0
  9 10  1  0
 10 11  2  0
 11 12  1  0
 12 13  2  0
 13 14  1  0
 14 15  2  0
  9 16  1  0
 16 17  1  0
  5 18  1  0
 18 19  2  0
 19  2  1  0
 17  6  1  0
 15 10  1  0
  3 20  1  0
  4 21  1  0
  7 22  1  0
  7 23  1  0
  8 24  1  0
  8 25  1  0
  9 26  1  0
 11 27  1  0
 12 28  1  0
 13 29  1  0
 14 30  1  0
 15 31  1  0
 16 32  1  0
 16 33  1  0
 17 34  1  0
 17 35  1  0
 19 36  1  0
M  CHG  1  13   1
M  END
>  <UniqueID>  (29) 
28

>  <SMILES>  (29) 
Brc1ccc(N2CCC(c3cc[nH+]cc3)CC2)nc1

>  <Energy>  (29) 
44.64525781407245

>  <Genealogy>  (29) 
Brc1ccc(N2CCC(c3cc[nH+]cc3)CC2)nc1 (protonated)
Brc1ccc(N2CCC(c3cc[nH+]cc3)CC2)nc1 (3D coordinates assigned)
Brc1ccc(N2CCC(c3cc[nH+]cc3)CC2)nc1 (nonaromatic ring conformer: 44.64525781407245 kcal/mol)

>  <smiles>  (29) 
Brc1ccc(N2CCC(c3ccncc3)CC2)nc1

>  <score_type>  (29) 
oracle

>  <origin>  (29) 
adg

>  <m_score__min__energy>  (29) 
-7.0300000000000002

>  <m_primary>  (29) 
energy

$$$$
29:0
     RDKit          3D

 39 40  0  0  0  0  0  0  0  0999 V2000
   -6.8680   17.6910  -31.3090 C   0  0  0  0  0  0  0  0  0  0  0  0
   -7.2570   18.9080  -32.0400 N   0  0  0  0  0  0  0  0  0  0  0  0
   -8.7090   19.1700  -31.8950 C   0  0  0  0  0  0  0  0  0  0  0  0
   -8.9740   20.6760  -31.8940 C   0  0  0  0  0  0  0  0  0  0  0  0
   -7.7380   21.4060  -31.6070 N   0  0  0  0  0  0  0  0  0  0  0  0
   -7.6660   22.8420  -31.6310 C   0  0  0  0  0  0  0  0  0  0  0  0
   -8.6830   23.5100  -31.9630 O   0  0  0  0  0  0  0  0  0  0  0  0
   -6.4270   23.5590  -31.2380 C   0  0  0  0  0  0  0  0  0  0  0  0
   -5.1740   22.9210  -31.2430 C   0  0  0  0  0  0  0  0  0  0  0  0
   -4.0360   23.6270  -30.8450 C   0  0  0  0  0  0  0  0  0  0  0  0
   -4.1360   24.9280  -30.4650 N   0  0  0  0  0  0  0  0  0  0  0  0
   -5.3290   25.5770  -30.4630 C   0  0  0  0  0  0  0  0  0  0  0  0
   -6.4930   24.9090  -30.8510 C   0  0  0  0  0  0  0  0  0  0  0  0
   -6.8540   18.8120  -33.4590 C   0  0  0  0  0  0  0  0  0  0  0  0
   -5.3940   19.1560  -33.5990 C   0  0  0  0  0  0  0  0  0  0  0  0
   -4.4950   18.2020  -34.1010 C   0  0  0  0  0  0  0  0  0  0  0  0
   -3.1320   18.5020  -34.2020 C   0  0  0  0  0  0  0  0  0  0  0  0
   -2.6560   19.7470  -33.7880 C   0  0  0  0  0  0  0  0  0  0  0  0
   -3.5440   20.7020  -33.2840 C   0  0  0  0  0  0  0  0  0  0  0  0
   -4.9090   20.4110  -33.1910 C   0  0  0  0  0  0  0  0  0  0  0  0
   -6.9279   17.8784  -30.2267 H   0  0  0  0  0  0  0  0  0  0  0  0
   -7.5482   16.8691  -31.5770 H   0  0  0  0  0  0  0  0  0  0  0  0
   -5.8372   17.4160  -31.5770 H   0  0  0  0  0  0  0  0  0  0  0  0
   -9.2479   18.7064  -32.7344 H   0  0  0  0  0  0  0  0  0  0  0  0
   -9.0586   18.7424  -30.9437 H   0  0  0  0  0  0  0  0  0  0  0  0
   -9.3542   20.9788  -32.8808 H   0  0  0  0  0  0  0  0  0  0  0  0
   -9.7175   20.9094  -31.1176 H   0  0  0  0  0  0  0  0  0  0  0  0
   -6.9600   20.8570  -31.1810 H   0  0  0  0  0  0  0  0  0  0  0  0
   -5.0901   21.8707  -31.5589 H   0  0  0  0  0  0  0  0  0  0  0  0
   -3.0557   23.1281  -30.8392 H   0  0  0  0  0  0  0  0  0  0  0  0
   -5.3789   26.6318  -30.1549 H   0  0  0  0  0  0  0  0  0  0  0  0
   -7.4578   25.4374  -30.8537 H   0  0  0  0  0  0  0  0  0  0  0  0
   -7.0236   17.7862  -33.8182 H   0  0  0  0  0  0  0  0  0  0  0  0
   -7.4521   19.5170  -34.0550 H   0  0  0  0  0  0  0  0  0  0  0  0
   -4.8634   17.2146  -34.4163 H   0  0  0  0  0  0  0  0  0  0  0  0
   -2.4342   17.7551  -34.6085 H   0  0  0  0  0  0  0  0  0  0  0  0
   -1.5826   19.9767  -33.8582 H   0  0  0  0  0  0  0  0  0  0  0  0
   -3.1686   21.6839  -32.9600 H   0  0  0  0  0  0  0  0  0  0  0  0
   -5.6051   21.1664  -32.7975 H   0  0  0  0  0  0  0  0  0  0  0  0
  1  2  1  0
  2  3  1  0
  3  4  1  0
  4  5  1  0
  5  6  1  0
  6  7  2  0
  6  8  1  0
  8  9  2  0
  9 10  1  0
 10 11  2  0
 11 12  1  0
 12 13  2  0
  2 14  1  0
 14 15  1  0
 15 16  2  0
 16 17  1  0
 17 18  2  0
 18 19  1  0
 19 20  2  0
 13  8  1  0
 20 15  1  0
  1 21  1  0
  1 22  1  0
  1 23  1  0
  3 24  1  0
  3 25  1  0
  4 26  1  0
  4 27  1  0
  5 28  1  0
  9 29  1  0
 10 30  1  0
 12 31  1  0
 13 32  1  0
 14 33  1  0
 14 34  1  0
 16 35  1  0
 17 36  1  0
 18 37  1  0
 19 38  1  0
 20 39  1  0
M  END
>  <UniqueID>  (30) 
29

>  <SMILES>  (30) 
CN(CCNC(=O)c1ccncc1)Cc1ccccc1

>  <Energy>  (30) 
36.67079687095833

>  <Genealogy>  (30) 
CN(CCNC(=O)c1ccncc1)Cc1ccccc1 (3D coordinates assigned)
CN(CCNC(=O)c1ccncc1)Cc1ccccc1 (optimized conformer: 36.67079687095833 kcal/mol)

>  <smiles>  (30) 
CN(CCNC(=O)c1ccncc1)Cc1ccccc1

>  <score_type>  (30) 
oracle

>  <origin>  (30) 
adg

>  <m_score__min__energy>  (30) 
-6.9199999999999999

>  <m_primary>  (30) 
energy

$$$$
30:0
     RDKit          3D

 46 48  0  0  0  0  0  0  0  0999 V2000
   -3.1050   21.6370  -27.9370 C   0  0  0  0  0  0  0  0  0  0  0  0
   -4.2450   22.6640  -27.9740 C   0  0  0  0  0  0  0  0  0  0  0  0
   -3.8690   23.9880  -28.5200 N   0  0  0  0  0  0  0  0  0  0  0  0
   -2.4250   24.2740  -28.6200 C   0  0  0  0  0  0  0  0  0  0  0  0
   -1.9160   25.2350  -27.5720 C   0  0  0  0  0  0  0  0  0  0  0  0
   -0.8620   26.1180  -27.8690 C   0  0  0  0  0  0  0  0  0  0  0  0
   -0.3900   27.0040  -26.8970 C   0  0  0  0  0  0  0  0  0  0  0  0
   -0.9540   27.0080  -25.6190 C   0  0  0  0  0  0  0  0  0  0  0  0
   -1.9880   26.1210  -25.3090 C   0  0  0  0  0  0  0  0  0  0  0  0
   -2.4630   25.2330  -26.2780 C   0  0  0  0  0  0  0  0  0  0  0  0
   -4.8300   24.5670  -29.8630 S   0  0  0  0  0  0  0  0  0  0  0  0
   -3.9610   25.2830  -30.8590 O   0  0  0  0  0  0  0  0  0  0  0  0
   -5.8790   25.5210  -29.3650 O   0  0  0  0  0  0  0  0  0  0  0  0
   -5.6380   23.2070  -30.6360 C   0  0  0  0  0  0  0  0  0  0  0  0
   -7.0080   22.9440  -30.3890 C   0  0  0  0  0  0  0  0  0  0  0  0
   -7.6560   21.8640  -31.0180 C   0  0  0  0  0  0  0  0  0  0  0  0
   -6.8990   21.0670  -31.8780 C   0  0  0  0  0  0  0  0  0  0  0  0
   -5.5800   21.3210  -32.1190 C   0  0  0  0  0  0  0  0  0  0  0  0
   -4.9080   22.3810  -31.5170 C   0  0  0  0  0  0  0  0  0  0  0  0
   -5.1010   20.4340  -33.0060 N   0  0  0  0  0  0  0  0  0  0  0  0
   -6.1650   19.6430  -33.2960 C   0  0  0  0  0  0  0  0  0  0  0  0
   -6.1040   18.5140  -34.2760 C   0  0  0  0  0  0  0  0  0  0  0  0
   -7.2820   19.9970  -32.6020 N   0  0  0  0  0  0  0  0  0  0  0  0
   -8.6270   19.4340  -32.7160 C   0  0  0  0  0  0  0  0  0  0  0  0
   -2.8512   21.4084  -26.8914 H   0  0  0  0  0  0  0  0  0  0  0  0
   -3.4245   20.7160  -28.4466 H   0  0  0  0  0  0  0  0  0  0  0  0
   -2.2222   22.0506  -28.4466 H   0  0  0  0  0  0  0  0  0  0  0  0
   -5.0547   22.2545  -28.5959 H   0  0  0  0  0  0  0  0  0  0  0  0
   -4.5442   22.8330  -26.9291 H   0  0  0  0  0  0  0  0  0  0  0  0
   -1.8765   23.3262  -28.5160 H   0  0  0  0  0  0  0  0  0  0  0  0
   -2.2618   24.7523  -29.5970 H   0  0  0  0  0  0  0  0  0  0  0  0
   -0.4074   26.1110  -28.8707 H   0  0  0  0  0  0  0  0  0  0  0  0
    0.4272   27.6996  -27.1386 H   0  0  0  0  0  0  0  0  0  0  0  0
   -0.5840   27.7095  -24.8567 H   0  0  0  0  0  0  0  0  0  0  0  0
   -2.4287   26.1216  -24.3011 H   0  0  0  0  0  0  0  0  0  0  0  0
   -3.2695   24.5287  -26.0261 H   0  0  0  0  0  0  0  0  0  0  0  0
   -7.5709   23.5899  -29.6991 H   0  0  0  0  0  0  0  0  0  0  0  0
   -8.7210   21.6557  -30.8381 H   0  0  0  0  0  0  0  0  0  0  0  0
   -3.8435   22.5685  -31.7212 H   0  0  0  0  0  0  0  0  0  0  0  0
   -4.1350   20.3790  -33.3980 H   0  0  0  0  0  0  0  0  0  0  0  0
   -6.0524   17.5591  -33.7325 H   0  0  0  0  0  0  0  0  0  0  0  0
   -7.0042   18.5280  -34.9080 H   0  0  0  0  0  0  0  0  0  0  0  0
   -5.2105   18.6249  -34.9080 H   0  0  0  0  0  0  0  0  0  0  0  0
   -9.0388   19.2616  -31.7106 H   0  0  0  0  0  0  0  0  0  0  0  0
   -9.2737   20.1369  -33.2615 H   0  0  0  0  0  0  0  0  0  0  0  0
   -8.5801   18.4800  -33.2615 H   0  0  0  0  0  0  0  0  0  0  0  0
  1  2  1  0
  2  3  1  0
  3  4  1  0
  4  5  1  0
  5  6  2  0
  6  7  1  0
  7  8  2  0
  8  9  1  0
  9 10  2  0
  3 11  1  0
 11 12  2  0
 11 13  2  0
 11 14  1  0
 14 15  2  0
 15 16  1  0
 16 17  2  0
 17 18  1  0
 18 19  2  0
 18 20  1  0
 20 21  2  0
 21 22  1  0
 21 23  1  0
 23 24  1  0
 10  5  1  0
 19 14  1  0
 23 17  1  0
  1 25  1  0
  1 26  1  0
  1 27  1  0
  2 28  1  0
  2 29  1  0
  4 30  1  0
  4 31  1  0
  6 32  1  0
  7 33  1  0
  8 34  1  0
  9 35  1  0
 10 36  1  0
 15 37  1  0
 16 38  1  0
 19 39  1  0
 20 40  1  0
 22 41  1  0
 22 42  1  0
 22 43  1  0
 24 44  1  0
 24 45  1  0
 24 46  1  0
M  CHG  1  20   1
M  END
>  <UniqueID>  (31) 
30

>  <SMILES>  (31) 
CCN(Cc1ccccc1)S(=O)(=O)c1ccc2c(c1)[nH+]c(C)n2C

>  <Energy>  (31) 
91.30072644945106

>  <Genealogy>  (31) 
CCN(Cc1ccccc1)S(=O)(=O)c1ccc2c(c1)[nH+]c(C)n2C (protonated)
CCN(Cc1ccccc1)S(=O)(=O)c1ccc2c(c1)[nH+]c(C)n2C (3D coordinates assigned)
CCN(Cc1ccccc1)S(=O)(=O)c1ccc2c(c1)[nH+]c(C)n2C (optimized conformer: 91.30072644945106 kcal/mol)

>  <smiles>  (31) 
CCN(Cc1ccccc1)S(=O)(=O)c1ccc2c(c1)nc(C)n2C

>  <score_type>  (31) 
oracle

>  <origin>  (31) 
adg

>  <m_score__min__energy>  (31) 
-8.2799999999999994

>  <m_primary>  (31) 
energy

$$$$
31:0
     RDKit          3D

 39 41  0  0  0  0  0  0  0  0999 V2000
   -5.6250   25.2640  -30.8960 C   0  0  0  0  0  0  0  0  0  0  0  0
   -4.3730   24.5910  -30.8160 O   0  0  0  0  0  0  0  0  0  0  0  0
   -3.9310   23.8610  -29.7010 C   0  0  0  0  0  0  0  0  0  0  0  0
   -4.3260   24.1920  -28.3890 C   0  0  0  0  0  0  0  0  0  0  0  0
   -3.8680   23.4410  -27.3040 C   0  0  0  0  0  0  0  0  0  0  0  0
   -3.0070   22.3650  -27.5150 C   0  0  0  0  0  0  0  0  0  0  0  0
   -2.6040   22.0320  -28.8080 C   0  0  0  0  0  0  0  0  0  0  0  0
   -3.0760   22.7680  -29.9140 C   0  0  0  0  0  0  0  0  0  0  0  0
   -2.7120   22.4610  -31.2370 O   0  0  0  0  0  0  0  0  0  0  0  0
   -1.6780   21.5580  -31.6370 C   0  0  0  0  0  0  0  0  0  0  0  0
   -2.1500   20.6580  -32.7840 C   0  0  0  0  0  0  0  0  0  0  0  0
   -3.2550   21.2660  -33.5220 N   0  0  0  0  0  0  0  0  0  0  0  0
   -4.6200   21.2000  -33.0900 C   0  0  0  0  0  0  0  0  0  0  0  0
   -5.5390   20.1970  -33.3990 C   0  0  0  0  0  0  0  0  0  0  0  0
   -6.6690   20.5780  -32.7020 C   0  0  0  0  0  0  0  0  0  0  0  0
   -7.9090   19.9500  -32.6210 C   0  0  0  0  0  0  0  0  0  0  0  0
   -8.8910   20.5540  -31.8180 C   0  0  0  0  0  0  0  0  0  0  0  0
   -8.6100   21.7520  -31.1290 C   0  0  0  0  0  0  0  0  0  0  0  0
   -7.3410   22.3370  -31.2500 C   0  0  0  0  0  0  0  0  0  0  0  0
   -6.4220   21.7200  -32.0370 N   0  0  0  0  0  0  0  0  0  0  0  0
   -5.1820   22.1090  -32.2650 N   0  0  0  0  0  0  0  0  0  0  0  0
   -5.9988   25.4649  -29.8812 H   0  0  0  0  0  0  0  0  0  0  0  0
   -5.4965   26.2146  -31.4343 H   0  0  0  0  0  0  0  0  0  0  0  0
   -6.3470   24.6324  -31.4343 H   0  0  0  0  0  0  0  0  0  0  0  0
   -4.9982   25.0459  -28.2188 H   0  0  0  0  0  0  0  0  0  0  0  0
   -4.1866   23.6985  -26.2831 H   0  0  0  0  0  0  0  0  0  0  0  0
   -2.6444   21.7769  -26.6591 H   0  0  0  0  0  0  0  0  0  0  0  0
   -1.9138   21.1901  -28.9658 H   0  0  0  0  0  0  0  0  0  0  0  0
   -0.8037   22.1366  -31.9699 H   0  0  0  0  0  0  0  0  0  0  0  0
   -1.4149   20.9231  -30.7781 H   0  0  0  0  0  0  0  0  0  0  0  0
   -1.3102   20.4881  -33.4738 H   0  0  0  0  0  0  0  0  0  0  0  0
   -2.5027   19.7085  -32.3549 H   0  0  0  0  0  0  0  0  0  0  0  0
   -3.0430   21.7560  -34.4200 H   0  0  0  0  0  0  0  0  0  0  0  0
   -5.3979   19.3158  -34.0421 H   0  0  0  0  0  0  0  0  0  0  0  0
   -8.1122   19.0160  -33.1653 H   0  0  0  0  0  0  0  0  0  0  0  0
   -9.8842   20.0901  -31.7262 H   0  0  0  0  0  0  0  0  0  0  0  0
   -9.3803   22.2241  -30.5014 H   0  0  0  0  0  0  0  0  0  0  0  0
   -7.0967   23.2704  -30.7217 H   0  0  0  0  0  0  0  0  0  0  0  0
   -4.7270   22.9570  -31.8570 H   0  0  0  0  0  0  0  0  0  0  0  0
  1  2  1  0
  2  3  1  0
  3  4  2  0
  4  5  1  0
  5  6  2  0
  6  7  1  0
  7  8  2  0
  8  9  1  0
  9 10  1  0
 10 11  1  0
 11 12  1  0
 12 13  1  0
 13 14  1  0
 14 15  2  0
 15 16  1  0
 16 17  2  0
 17 18  1  0
 18 19  2  0
 19 20  1  0
 20 21  1  0
  8  3  1  0
 21 13  2  0
 20 15  1  0
  1 22  1  0
  1 23  1  0
  1 24  1  0
  4 25  1  0
  5 26  1  0
  6 27  1  0
  7 28  1  0
 10 29  1  0
 10 30  1  0
 11 31  1  0
 11 32  1  0
 12 33  1  0
 14 34  1  0
 16 35  1  0
 17 36  1  0
 18 37  1  0
 19 38  1  0
 21 39  1  0
M  CHG  1  21   1
M  END
>  <UniqueID>  (32) 
31

>  <SMILES>  (32) 
COc1ccccc1OCCNc1cc2ccccn2[nH+]1

>  <Energy>  (32) 
73.7399346340026

>  <Genealogy>  (32) 
COc1ccccc1OCCNc1cc2ccccn2[nH+]1 (protonated)
COc1ccccc1OCCNc1cc2ccccn2[nH+]1 (3D coordinates assigned)
COc1ccccc1OCCNc1cc2ccccn2[nH+]1 (optimized conformer: 73.7399346340026 kcal/mol)

>  <smiles>  (32) 
COc1ccccc1OCCNc1cc2ccccn2n1

>  <score_type>  (32) 
oracle

>  <origin>  (32) 
adg

>  <m_score__min__energy>  (32) 
-7.3600000000000003

>  <m_primary>  (32) 
energy

$$$$
32:0
     RDKit          3D

 39 41  0  0  0  0  0  0  0  0999 V2000
   -5.4320   16.8040  -34.3920 C   0  0  0  0  0  0  0  0  0  0  0  0
   -5.7470   18.1970  -34.9340 C   0  0  0  0  0  0  0  0  0  0  0  0
   -5.6690   19.2190  -33.8750 N   0  0  0  0  0  0  0  0  0  0  0  0
   -4.3840   19.7430  -33.4910 C   0  0  0  0  0  0  0  0  0  0  0  0
   -3.3370   19.1440  -33.8580 O   0  0  0  0  0  0  0  0  0  0  0  0
   -4.2610   20.9550  -32.6600 C   0  0  0  0  0  0  0  0  0  0  0  0
   -4.0680   20.9850  -31.2930 C   0  0  0  0  0  0  0  0  0  0  0  0
   -4.0760   22.3360  -30.9830 C   0  0  0  0  0  0  0  0  0  0  0  0
   -3.9420   22.9580  -29.6490 C   0  0  0  0  0  0  0  0  0  0  0  0
   -2.9130   22.5020  -28.8050 C   0  0  0  0  0  0  0  0  0  0  0  0
   -2.7270   23.0670  -27.5410 C   0  0  0  0  0  0  0  0  0  0  0  0
   -3.5710   24.0850  -27.0980 C   0  0  0  0  0  0  0  0  0  0  0  0
   -4.6110   24.5330  -27.9140 C   0  0  0  0  0  0  0  0  0  0  0  0
   -4.8100   23.9750  -29.1840 C   0  0  0  0  0  0  0  0  0  0  0  0
   -6.2110   24.5200  -30.1020 Cl  0  0  0  0  0  0  0  0  0  0  0  0
   -4.2820   23.0180  -32.0890 O   0  0  0  0  0  0  0  0  0  0  0  0
   -4.3920   22.2180  -33.1070 N   0  0  0  0  0  0  0  0  0  0  0  0
   -6.8070   19.5110  -33.0340 C   0  0  0  0  0  0  0  0  0  0  0  0
   -7.4910   18.4610  -32.3960 C   0  0  0  0  0  0  0  0  0  0  0  0
   -8.5950   18.7260  -31.5800 C   0  0  0  0  0  0  0  0  0  0  0  0
   -9.0290   20.0410  -31.3950 C   0  0  0  0  0  0  0  0  0  0  0  0
   -8.3610   21.0930  -32.0280 C   0  0  0  0  0  0  0  0  0  0  0  0
   -7.2570   20.8320  -32.8460 C   0  0  0  0  0  0  0  0  0  0  0  0
   -5.4376   16.8285  -33.2923 H   0  0  0  0  0  0  0  0  0  0  0  0
   -6.1918   16.0921  -34.7467 H   0  0  0  0  0  0  0  0  0  0  0  0
   -4.4398   16.4883  -34.7467 H   0  0  0  0  0  0  0  0  0  0  0  0
   -5.0232   18.4452  -35.7242 H   0  0  0  0  0  0  0  0  0  0  0  0
   -6.7728   18.1890  -35.3310 H   0  0  0  0  0  0  0  0  0  0  0  0
   -3.9380   20.1338  -30.6085 H   0  0  0  0  0  0  0  0  0  0  0  0
   -2.2488   21.6931  -29.1435 H   0  0  0  0  0  0  0  0  0  0  0  0
   -1.9131   22.7082  -26.8938 H   0  0  0  0  0  0  0  0  0  0  0  0
   -3.4172   24.5347  -26.1060 H   0  0  0  0  0  0  0  0  0  0  0  0
   -5.2797   25.3303  -27.5574 H   0  0  0  0  0  0  0  0  0  0  0  0
   -4.5870   22.5270  -34.0840 H   0  0  0  0  0  0  0  0  0  0  0  0
   -7.1550   17.4235  -32.5400 H   0  0  0  0  0  0  0  0  0  0  0  0
   -9.1224   17.8983  -31.0832 H   0  0  0  0  0  0  0  0  0  0  0  0
   -9.8964   20.2485  -30.7512 H   0  0  0  0  0  0  0  0  0  0  0  0
   -8.7042   22.1279  -31.8826 H   0  0  0  0  0  0  0  0  0  0  0  0
   -6.7374   21.6632  -33.3452 H   0  0  0  0  0  0  0  0  0  0  0  0
  1  2  1  0
  2  3  1  0
  3  4  1  0
  4  5  2  0
  4  6  1  0
  6  7  1  0
  7  8  2  0
  8  9  1  0
  9 10  2  0
 10 11  1  0
 11 12  2  0
 12 13  1  0
 13 14  2  0
 14 15  1  0
  8 16  1  0
 16 17  1  0
  3 18  1  0
 18 19  2  0
 19 20  1  0
 20 21  2  0
 21 22  1  0
 22 23  2  0
 17  6  2  0
 23 18  1  0
 14  9  1  0
  1 24  1  0
  1 25  1  0
  1 26  1  0
  2 27  1  0
  2 28  1  0
  7 29  1  0
 10 30  1  0
 11 31  1  0
 12 32  1  0
 13 33  1  0
 17 34  1  0
 19 35  1  0
 20 36  1  0
 21 37  1  0
 22 38  1  0
 23 39  1  0
M  CHG  1  17   1
M  END
>  <UniqueID>  (33) 
32

>  <SMILES>  (33) 
CCN(C(=O)c1cc(-c2ccccc2Cl)o[nH+]1)c1ccccc1

>  <Energy>  (33) 
84.39423726882832

>  <Genealogy>  (33) 
CCN(C(=O)c1cc(-c2ccccc2Cl)o[nH+]1)c1ccccc1 (protonated)
CCN(C(=O)c1cc(-c2ccccc2Cl)o[nH+]1)c1ccccc1 (3D coordinates assigned)
CCN(C(=O)c1cc(-c2ccccc2Cl)o[nH+]1)c1ccccc1 (optimized conformer: 84.39423726882832 kcal/mol)

>  <smiles>  (33) 
CCN(C(=O)c1cc(-c2ccccc2Cl)on1)c1ccccc1

>  <score_type>  (33) 
oracle

>  <origin>  (33) 
adg

>  <m_score__min__energy>  (33) 
-8.3900000000000006

>  <m_primary>  (33) 
energy

$$$$
33:0
     RDKit          3D

 37 39  0  0  1  0  0  0  0  0999 V2000
   -6.1190   17.6580  -34.4940 C   0  0  0  0  0  0  0  0  0  0  0  0
   -6.4030   18.7210  -33.4770 C   0  0  0  0  0  0  0  0  0  0  0  0
   -5.3750   19.3190  -32.7650 C   0  0  0  0  0  0  0  0  0  0  0  0
   -5.6750   20.2880  -31.8410 C   0  0  0  0  0  0  0  0  0  0  0  0
   -4.7240   20.8280  -31.1950 N   0  0  0  0  0  0  0  0  0  0  0  0
   -4.3070   22.2180  -31.3140 C   0  0  0  0  0  0  0  0  0  0  0  0
   -5.1090   23.0080  -32.2990 C   0  0  0  0  0  0  0  0  0  0  0  0
   -5.8510   24.1430  -31.5960 C   0  0  0  0  0  0  0  0  0  0  0  0
   -4.9320   24.9840  -30.8540 N   0  0  0  0  0  0  0  0  0  0  0  0
   -5.7230   25.9830  -30.1690 C   0  0  0  0  0  0  0  0  0  0  0  0
   -4.1750   24.2570  -29.8780 C   0  0  0  0  0  0  0  0  0  0  0  0
   -4.5550   22.8090  -29.9280 C   0  0  0  0  0  0  0  0  0  0  0  0
   -6.9440   20.6700  -31.6120 N   0  0  0  0  0  0  0  0  0  0  0  0
   -7.4670   21.5680  -30.7850 N   0  0  0  0  0  0  0  0  0  0  0  0
   -8.8090   21.5610  -30.9500 C   0  0  0  0  0  0  0  0  0  0  0  0
   -9.1230   20.6250  -31.9140 C   0  0  0  0  0  0  0  0  0  0  0  0
   -7.9180   20.0680  -32.3230 C   0  0  0  0  0  0  0  0  0  0  0  0
   -7.6660   19.1120  -33.2390 N   0  0  0  0  0  0  0  0  0  0  0  0
   -5.8678   16.7178  -33.9813 H   0  0  0  0  0  0  0  0  0  0  0  0
   -7.0081   17.5061  -35.1237 H   0  0  0  0  0  0  0  0  0  0  0  0
   -5.2726   17.9697  -35.1237 H   0  0  0  0  0  0  0  0  0  0  0  0
   -4.3307   19.0202  -32.9387 H   0  0  0  0  0  0  0  0  0  0  0  0
   -3.2650   22.2597  -31.6640 H   0  0  0  0  0  0  0  0  0  0  0  0
   -4.4349   23.4316  -33.0581 H   0  0  0  0  0  0  0  0  0  0  0  0
   -5.8446   22.3425  -32.7745 H   0  0  0  0  0  0  0  0  0  0  0  0
   -6.3698   24.7543  -32.3491 H   0  0  0  0  0  0  0  0  0  0  0  0
   -6.5729   23.7056  -30.8906 H   0  0  0  0  0  0  0  0  0  0  0  0
   -5.6186   25.8512  -29.0819 H   0  0  0  0  0  0  0  0  0  0  0  0
   -5.3718   26.9862  -30.4521 H   0  0  0  0  0  0  0  0  0  0  0  0
   -6.7800   25.8712  -30.4521 H   0  0  0  0  0  0  0  0  0  0  0  0
   -3.1016   24.3620  -30.0941 H   0  0  0  0  0  0  0  0  0  0  0  0
   -4.3884   24.6575  -28.8760 H   0  0  0  0  0  0  0  0  0  0  0  0
   -3.9558   22.2556  -29.1900 H   0  0  0  0  0  0  0  0  0  0  0  0
   -5.6279   22.7235  -29.7009 H   0  0  0  0  0  0  0  0  0  0  0  0
   -9.5277   22.1935  -30.4083 H   0  0  0  0  0  0  0  0  0  0  0  0
  -10.1270   20.3707  -32.2846 H   0  0  0  0  0  0  0  0  0  0  0  0
   -8.4620   18.6840  -33.7560 H   0  0  0  0  0  0  0  0  0  0  0  0
  1  2  1  0
  2  3  2  0
  3  4  1  0
  4  5  2  0
  5  6  1  0
  6  7  1  0
  7  8  1  0
  8  9  1  0
  9 10  1  0
  9 11  1  0
 11 12  1  0
  4 13  1  0
 13 14  1  0
 14 15  2  0
 15 16  1  0
 16 17  2  0
 17 18  1  0
 18  2  1  0
 12  6  1  0
 17 13  1  0
  1 19  1  0
  1 20  1  0
  1 21  1  0
  3 22  1  0
  6 23  1  0
  7 24  1  0
  7 25  1  0
  8 26  1  0
  8 27  1  0
 10 28  1  0
 10 29  1  0
 10 30  1  0
 11 31  1  0
 11 32  1  0
 12 33  1  0
 12 34  1  0
 15 35  1  0
 16 36  1  0
 18 37  1  0
M  END
>  <smiles>  (34) 
Cc1cc(=NC2CCN(C)CC2)n2nccc2[nH]1

>  <score_type>  (34) 
oracle

>  <origin>  (34) 
adg

>  <m_score__min__energy>  (34) 
-7.2000000000000002

>  <m_primary>  (34) 
energy

$$$$
34:0
     RDKit          3D

 59 61  0  0  0  0  0  0  0  0999 V2000
   -4.2360   14.1530  -32.2090 C   0  0  0  0  0  0  0  0  0  0  0  0
   -4.9930   15.4230  -31.8270 C   0  0  0  0  0  0  0  0  0  0  0  0
   -5.2840   16.2260  -33.0370 N   0  0  0  0  0  0  0  0  0  0  0  0
   -5.5690   15.3660  -34.2070 C   0  0  0  0  0  0  0  0  0  0  0  0
   -7.0390   14.9550  -34.2110 C   0  0  0  0  0  0  0  0  0  0  0  0
   -4.1970   17.1930  -33.3180 C   0  0  0  0  0  0  0  0  0  0  0  0
   -4.6830   18.2190  -34.3420 C   0  0  0  0  0  0  0  0  0  0  0  0
   -5.3930   19.3280  -33.6730 N   0  0  0  0  0  0  0  0  0  0  0  0
   -4.7530   20.5200  -33.4030 C   0  0  0  0  0  0  0  0  0  0  0  0
   -2.9980   20.7860  -33.7350 S   0  0  0  0  0  0  0  0  0  0  0  0
   -2.3800   19.7500  -32.3600 C   0  0  0  0  0  0  0  0  0  0  0  0
   -2.1830   20.5990  -31.1410 C   0  0  0  0  0  0  0  0  0  0  0  0
   -1.1560   20.4140  -30.4280 O   0  0  0  0  0  0  0  0  0  0  0  0
   -3.1080   21.6580  -30.8390 N   0  0  0  0  0  0  0  0  0  0  0  0
   -3.0450   22.4640  -29.6510 C   0  0  0  0  0  0  0  0  0  0  0  0
   -2.4840   21.9530  -28.4670 C   0  0  0  0  0  0  0  0  0  0  0  0
   -2.4370   22.7380  -27.3120 C   0  0  0  0  0  0  0  0  0  0  0  0
   -2.9590   24.0320  -27.3240 C   0  0  0  0  0  0  0  0  0  0  0  0
   -3.5310   24.5490  -28.4910 C   0  0  0  0  0  0  0  0  0  0  0  0
   -3.5840   23.7690  -29.6630 C   0  0  0  0  0  0  0  0  0  0  0  0
   -4.1540   24.2550  -30.8530 O   0  0  0  0  0  0  0  0  0  0  0  0
   -5.3840   24.9700  -30.9270 C   0  0  0  0  0  0  0  0  0  0  0  0
   -5.4190   21.5250  -32.7780 N   0  0  0  0  0  0  0  0  0  0  0  0
   -6.7060   21.3870  -32.3730 C   0  0  0  0  0  0  0  0  0  0  0  0
   -7.3580   22.4470  -31.7320 C   0  0  0  0  0  0  0  0  0  0  0  0
   -8.6820   22.3010  -31.3080 C   0  0  0  0  0  0  0  0  0  0  0  0
   -9.3550   21.0900  -31.5050 C   0  0  0  0  0  0  0  0  0  0  0  0
   -8.7110   20.0270  -32.1460 C   0  0  0  0  0  0  0  0  0  0  0  0
   -7.3800   20.1710  -32.5900 C   0  0  0  0  0  0  0  0  0  0  0  0
   -6.6920   19.1410  -33.2560 C   0  0  0  0  0  0  0  0  0  0  0  0
   -7.2740   18.0370  -33.4610 O   0  0  0  0  0  0  0  0  0  0  0  0
   -3.9214   13.6252  -31.2966 H   0  0  0  0  0  0  0  0  0  0  0  0
   -4.8921   13.4996  -32.8028 H   0  0  0  0  0  0  0  0  0  0  0  0
   -3.3492   14.4193  -32.8028 H   0  0  0  0  0  0  0  0  0  0  0  0
   -5.9385   15.1491  -31.3361 H   0  0  0  0  0  0  0  0  0  0  0  0
   -4.3734   16.0185  -31.1404 H   0  0  0  0  0  0  0  0  0  0  0  0
   -5.3440   15.9209  -35.1297 H   0  0  0  0  0  0  0  0  0  0  0  0
   -4.9432   14.4631  -34.1508 H   0  0  0  0  0  0  0  0  0  0  0  0
   -7.3947   14.8555  -33.1749 H   0  0  0  0  0  0  0  0  0  0  0  0
   -7.6327   15.7216  -34.7305 H   0  0  0  0  0  0  0  0  0  0  0  0
   -7.1490   13.9917  -34.7305 H   0  0  0  0  0  0  0  0  0  0  0  0
   -3.9143   17.7080  -32.3880 H   0  0  0  0  0  0  0  0  0  0  0  0
   -3.3237   16.6581  -33.7195 H   0  0  0  0  0  0  0  0  0  0  0  0
   -3.8174   18.6218  -34.8884 H   0  0  0  0  0  0  0  0  0  0  0  0
   -5.3764   17.7235  -35.0375 H   0  0  0  0  0  0  0  0  0  0  0  0
   -3.1115   18.9583  -32.1406 H   0  0  0  0  0  0  0  0  0  0  0  0
   -1.4207   19.2951  -32.6476 H   0  0  0  0  0  0  0  0  0  0  0  0
   -3.8020   21.9200  -31.5750 H   0  0  0  0  0  0  0  0  0  0  0  0
   -2.0801   20.9300  -28.4500 H   0  0  0  0  0  0  0  0  0  0  0  0
   -1.9879   22.3354  -26.3921 H   0  0  0  0  0  0  0  0  0  0  0  0
   -2.9205   24.6473  -26.4130 H   0  0  0  0  0  0  0  0  0  0  0  0
   -3.9415   25.5695  -28.4937 H   0  0  0  0  0  0  0  0  0  0  0  0
   -5.7471   25.1811  -29.9104 H   0  0  0  0  0  0  0  0  0  0  0  0
   -5.2259   25.9170  -31.4639 H   0  0  0  0  0  0  0  0  0  0  0  0
   -6.1287   24.3640  -31.4639 H   0  0  0  0  0  0  0  0  0  0  0  0
   -6.8280   23.3957  -31.5618 H   0  0  0  0  0  0  0  0  0  0  0  0
   -9.1965   23.1407  -30.8179 H   0  0  0  0  0  0  0  0  0  0  0  0
  -10.3915   20.9741  -31.1553 H   0  0  0  0  0  0  0  0  0  0  0  0
   -9.2431   19.0773  -32.3041 H   0  0  0  0  0  0  0  0  0  0  0  0
  1  2  1  0
  2  3  1  0
  3  4  1  0
  4  5  1  0
  3  6  1  0
  6  7  1  0
  7  8  1  0
  8  9  1  0
  9 10  1  0
 10 11  1  0
 11 12  1  0
 12 13  2  0
 12 14  1  0
 14 15  1  0
 15 16  2  0
 16 17  1  0
 17 18  2  0
 18 19  1  0
 19 20  2  0
 20 21  1  0
 21 22  1  0
  9 23  2  0
 23 24  1  0
 24 25  2  0
 25 26  1  0
 26 27  2  0
 27 28  1  0
 28 29  2  0
 29 30  1  0
 30 31  2  0
 30  8  1  0
 20 15  1  0
 29 24  1  0
  1 32  1  0
  1 33  1  0
  1 34  1  0
  2 35  1  0
  2 36  1  0
  4 37  1  0
  4 38  1  0
  5 39  1  0
  5 40  1  0
  5 41  1  0
  6 42  1  0
  6 43  1  0
  7 44  1  0
  7 45  1  0
 11 46  1  0
 11 47  1  0
 14 48  1  0
 16 49  1  0
 17 50  1  0
 18 51  1  0
 19 52  1  0
 22 53  1  0
 22 54  1  0
 22 55  1  0
 25 56  1  0
 26 57  1  0
 27 58  1  0
 28 59  1  0
M  END
>  <UniqueID>  (35) 
33

>  <SMILES>  (35) 
CCN(CC)CCn1c(SCC(=O)Nc2ccccc2OC)nc2ccccc2c1=O

>  <Energy>  (35) 
63.60234969194569

>  <Genealogy>  (35) 
CCN(CC)CCn1c(SCC(=O)Nc2ccccc2OC)nc2ccccc2c1=O (3D coordinates assigned)
CCN(CC)CCn1c(SCC(=O)Nc2ccccc2OC)nc2ccccc2c1=O (optimized conformer: 63.60234969194569 kcal/mol)

>  <smiles>  (35) 
CCN(CC)CCn1c(SCC(=O)Nc2ccccc2OC)nc2ccccc2c1=O

>  <score_type>  (35) 
oracle

>  <origin>  (35) 
adg

>  <m_score__min__energy>  (35) 
-9.4000000000000004

>  <m_primary>  (35) 
energy

$$$$
35:0
     RDKit          3D

 50 52  0  0  0  0  0  0  0  0999 V2000
   -3.8530   22.5930  -27.9880 C   0  0  0  0  0  0  0  0  0  0  0  0
   -3.1420   22.2220  -29.2910 C   0  0  0  0  0  0  0  0  0  0  0  0
   -3.6290   23.0630  -30.4930 C   0  0  2  0  0  0  0  0  0  0  0  0
   -4.3840   24.3280  -30.0380 C   0  0  0  0  0  0  0  0  0  0  0  0
   -5.6890   24.3500  -30.8350 C   0  0  2  0  0  0  0  0  0  0  0  0
   -6.8640   24.9350  -30.0500 C   0  0  0  0  0  0  0  0  0  0  0  0
   -5.9150   22.9100  -31.2750 C   0  0  0  0  0  0  0  0  0  0  0  0
   -4.5800   22.3070  -31.3150 N   0  0  0  0  0  0  0  0  0  0  0  0
   -4.1820   21.4340  -32.3990 C   0  0  0  0  0  0  0  0  0  0  0  0
   -3.7400   21.9410  -33.4820 O   0  0  0  0  0  0  0  0  0  0  0  0
   -4.3520   19.9270  -32.2990 C   0  0  1  0  0  0  0  0  0  0  0  0
   -5.7110   19.5810  -31.7010 C   0  0  0  0  0  0  0  0  0  0  0  0
   -6.6590   19.3560  -32.9070 C   0  0  0  0  0  0  0  0  0  0  0  0
   -7.5230   18.0730  -32.7260 C   0  0  0  0  0  0  0  0  0  0  0  0
   -8.5050   18.1890  -31.5300 C   0  0  0  0  0  0  0  0  0  0  0  0
   -8.6950   19.5780  -31.0780 N   0  0  0  0  0  0  0  0  0  0  0  0
   -8.8910   20.4960  -32.2070 C   0  0  0  0  0  0  0  0  0  0  0  0
   -7.6230   20.5780  -33.0930 C   0  0  0  0  0  0  0  0  0  0  0  0
   -5.6940   19.2080  -34.1150 C   0  0  0  0  0  0  0  0  0  0  0  0
   -4.3130   19.2670  -33.6160 N   0  0  0  0  0  0  0  0  0  0  0  0
   -3.2404   22.2733  -27.1321 H   0  0  0  0  0  0  0  0  0  0  0  0
   -3.9994   23.6825  -27.9475 H   0  0  0  0  0  0  0  0  0  0  0  0
   -4.8304   22.0899  -27.9475 H   0  0  0  0  0  0  0  0  0  0  0  0
   -2.0618   22.3845  -29.1617 H   0  0  0  0  0  0  0  0  0  0  0  0
   -3.3702   21.1679  -29.5071 H   0  0  0  0  0  0  0  0  0  0  0  0
   -2.7223   23.3263  -31.0575 H   0  0  0  0  0  0  0  0  0  0  0  0
   -4.5956   24.2796  -28.9596 H   0  0  0  0  0  0  0  0  0  0  0  0
   -3.7896   25.2368  -30.2134 H   0  0  0  0  0  0  0  0  0  0  0  0
   -5.6153   25.0223  -31.7025 H   0  0  0  0  0  0  0  0  0  0  0  0
   -6.6692   24.8380  -28.9717 H   0  0  0  0  0  0  0  0  0  0  0  0
   -6.9837   25.9979  -30.3068 H   0  0  0  0  0  0  0  0  0  0  0  0
   -7.7843   24.3899  -30.3068 H   0  0  0  0  0  0  0  0  0  0  0  0
   -6.5554   22.3820  -30.5531 H   0  0  0  0  0  0  0  0  0  0  0  0
   -6.4217   22.8524  -32.2496 H   0  0  0  0  0  0  0  0  0  0  0  0
   -3.5191   19.5767  -31.6716 H   0  0  0  0  0  0  0  0  0  0  0  0
   -5.6405   18.6666  -31.0936 H   0  0  0  0  0  0  0  0  0  0  0  0
   -6.0783   20.3810  -31.0414 H   0  0  0  0  0  0  0  0  0  0  0  0
   -8.1032   17.9045  -33.6452 H   0  0  0  0  0  0  0  0  0  0  0  0
   -6.8415   17.2340  -32.5221 H   0  0  0  0  0  0  0  0  0  0  0  0
   -9.4804   17.7827  -31.8359 H   0  0  0  0  0  0  0  0  0  0  0  0
   -8.0719   17.6247  -30.6909 H   0  0  0  0  0  0  0  0  0  0  0  0
   -9.5510   19.6140  -30.4740 H   0  0  0  0  0  0  0  0  0  0  0  0
   -9.7325   20.1377  -32.8181 H   0  0  0  0  0  0  0  0  0  0  0  0
   -9.0999   21.4990  -31.8065 H   0  0  0  0  0  0  0  0  0  0  0  0
   -7.9352   20.6197  -34.1470 H   0  0  0  0  0  0  0  0  0  0  0  0
   -7.0702   21.4793  -32.7896 H   0  0  0  0  0  0  0  0  0  0  0  0
   -5.8680   18.2429  -34.6133 H   0  0  0  0  0  0  0  0  0  0  0  0
   -5.8688   20.0171  -34.8395 H   0  0  0  0  0  0  0  0  0  0  0  0
   -3.6780   19.7590  -34.2910 H   0  0  0  0  0  0  0  0  0  0  0  0
   -3.9540   18.2860  -33.4970 H   0  0  0  0  0  0  0  0  0  0  0  0
  1  2  1  0
  2  3  1  0
  3  4  1  0
  4  5  1  0
  5  6  1  0
  5  7  1  0
  7  8  1  0
  8  9  1  0
  9 10  2  0
  9 11  1  0
 11 12  1  0
 12 13  1  0
 13 14  1  0
 14 15  1  0
 15 16  1  0
 16 17  1  0
 17 18  1  0
 13 19  1  0
 19 20  1  0
  8  3  1  0
 20 11  1  0
 18 13  1  0
  1 21  1  0
  1 22  1  0
  1 23  1  0
  2 24  1  0
  2 25  1  0
  3 26  1  6
  4 27  1  0
  4 28  1  0
  5 29  1  6
  6 30  1  0
  6 31  1  0
  6 32  1  0
  7 33  1  0
  7 34  1  0
 11 35  1  1
 12 36  1  0
 12 37  1  0
 14 38  1  0
 14 39  1  0
 15 40  1  0
 15 41  1  0
 16 42  1  0
 17 43  1  0
 17 44  1  0
 18 45  1  0
 18 46  1  0
 19 47  1  0
 19 48  1  0
 20 49  1  0
 20 50  1  0
M  CHG  1  20   1
M  END
>  <UniqueID>  (36) 
34

>  <SMILES>  (36) 
CC[C@@H]1C[C@H](C)CN1C(=O)C1CC2(CCNCC2)C[NH2+]1

>  <Energy>  (36) 
60.70769601902924

>  <Genealogy>  (36) 
CCC1CC(C)CN1C(=O)C1CC2(CCNCC2)C[NH2+]1 (protonated)
CC[C@@H]1C[C@H](C)CN1C(=O)C1CC2(CCNCC2)C[NH2+]1 (chirality)
CC[C@@H]1C[C@H](C)CN1C(=O)C1CC2(CCNCC2)C[NH2+]1 (3D coordinates assigned)
CC[C@@H]1C[C@H](C)CN1C(=O)C1CC2(CCNCC2)C[NH2+]1 (nonaromatic ring conformer: 60.70769601902924 kcal/mol)

>  <smiles>  (36) 
CCC1CC(C)CN1C(=O)C1CC2(CCNCC2)CN1

>  <score_type>  (36) 
oracle

>  <origin>  (36) 
adg

>  <m_score__min__energy>  (36) 
-7.0599999999999996

>  <m_primary>  (36) 
energy

$$$$
36:0
     RDKit          3D

 54 55  0  0  0  0  0  0  0  0999 V2000
    0.1230   20.4590  -29.4900 C   0  0  0  0  0  0  0  0  0  0  0  0
   -0.6400   21.7680  -29.2390 C   0  0  0  0  0  0  0  0  0  0  0  0
   -1.9800   21.8280  -29.8790 N   0  0  0  0  0  0  0  0  0  0  0  0
   -3.0980   21.4880  -28.9580 C   0  0  0  0  0  0  0  0  0  0  0  0
   -2.6210   20.9450  -27.6050 C   0  0  0  0  0  0  0  0  0  0  0  0
   -2.0420   20.9840  -31.1080 C   0  0  0  0  0  0  0  0  0  0  0  0
   -3.1210   21.4580  -32.1060 C   0  0  0  0  0  0  0  0  0  0  0  0
   -3.3910   22.8510  -31.9230 O   0  0  0  0  0  0  0  0  0  0  0  0
   -4.5500   23.3760  -31.3340 C   0  0  0  0  0  0  0  0  0  0  0  0
   -5.8300   22.9010  -31.6660 C   0  0  0  0  0  0  0  0  0  0  0  0
   -6.9700   23.4230  -31.0450 C   0  0  0  0  0  0  0  0  0  0  0  0
   -8.2200   22.8880  -31.3900 O   0  0  0  0  0  0  0  0  0  0  0  0
   -8.4760   21.5030  -31.5950 C   0  0  0  0  0  0  0  0  0  0  0  0
   -6.8280   24.4580  -30.1040 C   0  0  0  0  0  0  0  0  0  0  0  0
   -5.5600   24.9540  -29.7940 C   0  0  0  0  0  0  0  0  0  0  0  0
   -4.4150   24.4090  -30.3970 C   0  0  0  0  0  0  0  0  0  0  0  0
   -3.1060   24.9190  -30.1070 N   0  0  0  0  0  0  0  0  0  0  0  0
   -2.3250   24.6510  -28.9330 C   0  0  0  0  0  0  0  0  0  0  0  0
   -1.0780   24.5130  -29.0540 O   0  0  0  0  0  0  0  0  0  0  0  0
   -2.9570   24.5050  -27.5730 C   0  0  0  0  0  0  0  0  0  0  0  0
   -1.9690   24.8160  -26.4780 C   0  0  0  0  0  0  0  0  0  0  0  0
   -1.9960   26.0560  -25.8230 C   0  0  0  0  0  0  0  0  0  0  0  0
   -1.0860   26.3320  -24.7960 C   0  0  0  0  0  0  0  0  0  0  0  0
   -0.1410   25.3700  -24.4200 C   0  0  0  0  0  0  0  0  0  0  0  0
   -0.0960   24.1390  -25.0800 C   0  0  0  0  0  0  0  0  0  0  0  0
   -1.0070   23.8600  -26.1030 C   0  0  0  0  0  0  0  0  0  0  0  0
    0.3905   20.0000  -28.5268 H   0  0  0  0  0  0  0  0  0  0  0  0
   -0.5135   19.7674  -30.0615 H   0  0  0  0  0  0  0  0  0  0  0  0
    1.0384   20.6720  -30.0615 H   0  0  0  0  0  0  0  0  0  0  0  0
   -0.7712   21.8874  -28.1534 H   0  0  0  0  0  0  0  0  0  0  0  0
   -0.0402   22.5730  -29.6886 H   0  0  0  0  0  0  0  0  0  0  0  0
   -2.1150   22.8300  -30.1460 H   0  0  0  0  0  0  0  0  0  0  0  0
   -3.6933   22.3958  -28.7804 H   0  0  0  0  0  0  0  0  0  0  0  0
   -3.6888   20.6947  -29.4392 H   0  0  0  0  0  0  0  0  0  0  0  0
   -3.1107   21.5025  -26.7929 H   0  0  0  0  0  0  0  0  0  0  0  0
   -2.8799   19.8788  -27.5259 H   0  0  0  0  0  0  0  0  0  0  0  0
   -1.5304   21.0643  -27.5259 H   0  0  0  0  0  0  0  0  0  0  0  0
   -1.0624   21.0178  -31.6073 H   0  0  0  0  0  0  0  0  0  0  0  0
   -2.3058   19.9629  -30.7954 H   0  0  0  0  0  0  0  0  0  0  0  0
   -2.7642   21.2896  -33.1328 H   0  0  0  0  0  0  0  0  0  0  0  0
   -4.0456   20.8888  -31.9295 H   0  0  0  0  0  0  0  0  0  0  0  0
   -5.9371   22.1098  -32.4227 H   0  0  0  0  0  0  0  0  0  0  0  0
   -8.5691   20.9993  -30.6215 H   0  0  0  0  0  0  0  0  0  0  0  0
   -9.4116   21.3829  -32.1609 H   0  0  0  0  0  0  0  0  0  0  0  0
   -7.6452   21.0564  -32.1609 H   0  0  0  0  0  0  0  0  0  0  0  0
   -7.7173   24.8778  -29.6111 H   0  0  0  0  0  0  0  0  0  0  0  0
   -5.4574   25.7777  -29.0722 H   0  0  0  0  0  0  0  0  0  0  0  0
   -3.8079   25.1979  -27.4963 H   0  0  0  0  0  0  0  0  0  0  0  0
   -3.2931   23.4643  -27.4544 H   0  0  0  0  0  0  0  0  0  0  0  0
   -2.7357   26.8149  -26.1178 H   0  0  0  0  0  0  0  0  0  0  0  0
   -1.1134   27.3052  -24.2841 H   0  0  0  0  0  0  0  0  0  0  0  0
    0.5662   25.5831  -23.6049 H   0  0  0  0  0  0  0  0  0  0  0  0
    0.6566   23.3893  -24.7944 H   0  0  0  0  0  0  0  0  0  0  0  0
   -0.9716   22.8883  -26.6174 H   0  0  0  0  0  0  0  0  0  0  0  0
  1  2  1  0
  2  3  1  0
  3  4  1  0
  4  5  1  0
  3  6  1  0
  6  7  1  0
  7  8  1  0
  8  9  1  0
  9 10  2  0
 10 11  1  0
 11 12  1  0
 12 13  1  0
 11 14  2  0
 14 15  1  0
 15 16  2  0
 16 17  1  0
 17 18  1  0
 18 19  2  0
 18 20  1  0
 20 21  1  0
 21 22  2  0
 22 23  1  0
 23 24  2  0
 24 25  1  0
 25 26  2  0
 16  9  1  0
 26 21  1  0
  1 27  1  0
  1 28  1  0
  1 29  1  0
  2 30  1  0
  2 31  1  0
  3 32  1  0
  4 33  1  0
  4 34  1  0
  5 35  1  0
  5 36  1  0
  5 37  1  0
  6 38  1  0
  6 39  1  0
  7 40  1  0
  7 41  1  0
 10 42  1  0
 13 43  1  0
 13 44  1  0
 13 45  1  0
 14 46  1  0
 15 47  1  0
 20 48  1  0
 20 49  1  0
 22 50  1  0
 23 51  1  0
 24 52  1  0
 25 53  1  0
 26 54  1  0
M  CHG  2   3   1  17  -1
M  END
>  <UniqueID>  (37) 
35

>  <SMILES>  (37) 
CC[NH+](CC)CCOc1cc(OC)ccc1[N-]C(=O)Cc1ccccc1

>  <Energy>  (37) 
61.504975197495995

>  <Genealogy>  (37) 
CC[NH+](CC)CCOc1cc(OC)ccc1[N-]C(=O)Cc1ccccc1 (protonated)
CC[NH+](CC)CCOc1cc(OC)ccc1[N-]C(=O)Cc1ccccc1 (3D coordinates assigned)
CC[NH+](CC)CCOc1cc(OC)ccc1[N-]C(=O)Cc1ccccc1 (optimized conformer: 61.504975197495995 kcal/mol)

>  <smiles>  (37) 
CCN(CC)CCOc1cc(OC)ccc1NC(=O)Cc1ccccc1

>  <score_type>  (37) 
oracle

>  <origin>  (37) 
adg

>  <m_score__min__energy>  (37) 
-7.6799999999999997

>  <m_primary>  (37) 
energy

$$$$
37:0
     RDKit          3D

 35 37  0  0  1  0  0  0  0  0999 V2000
   -4.2020   24.8950  -30.9290 N   0  0  0  0  0  0  0  0  0  0  0  0
   -5.2380   24.9130  -29.9350 C   0  0  0  0  0  0  0  0  0  0  0  0
   -6.5590   24.4150  -30.4850 C   0  0  0  0  0  0  0  0  0  0  0  0
   -6.4610   23.9570  -31.8580 N   0  0  0  0  0  0  0  0  0  0  0  0
   -6.2940   22.7180  -32.1710 C   0  0  0  0  0  0  0  0  0  0  0  0
   -5.0390   22.3300  -32.4660 N   0  0  0  0  0  0  0  0  0  0  0  0
   -4.7330   21.0540  -32.8110 C   0  0  0  0  0  0  0  0  0  0  0  0
   -3.3560   20.7340  -33.1100 C   0  0  0  0  0  0  0  0  0  0  0  0
   -2.3030   21.5140  -32.7040 C   0  0  0  0  0  0  0  0  0  0  0  0
   -0.9740   21.1990  -32.9970 C   0  0  0  0  0  0  0  0  0  0  0  0
   -0.6740   20.0630  -33.7210 C   0  0  0  0  0  0  0  0  0  0  0  0
   -1.7560   19.2900  -34.1210 C   0  0  0  0  0  0  0  0  0  0  0  0
   -3.0260   19.6170  -33.8250 N   0  0  0  0  0  0  0  0  0  0  0  0
   -5.7420   20.1840  -32.8490 N   0  0  0  0  0  0  0  0  0  0  0  0
   -7.0250   20.5100  -32.5640 C   0  0  0  0  0  0  0  0  0  0  0  0
   -8.0220   19.5750  -32.6180 C   0  0  0  0  0  0  0  0  0  0  0  0
   -9.3360   19.9470  -32.3160 C   0  0  0  0  0  0  0  0  0  0  0  0
   -9.6130   21.2570  -31.9680 C   0  0  0  0  0  0  0  0  0  0  0  0
   -8.6190   22.2140  -31.9090 C   0  0  0  0  0  0  0  0  0  0  0  0
   -7.3340   21.8090  -32.2120 C   0  0  0  0  0  0  0  0  0  0  0  0
   -4.2380   25.6880  -31.5980 H   0  0  0  0  0  0  0  0  0  0  0  0
   -4.3030   24.0320  -31.5020 H   0  0  0  0  0  0  0  0  0  0  0  0
   -4.9368   24.2686  -29.0960 H   0  0  0  0  0  0  0  0  0  0  0  0
   -5.3766   25.9536  -29.6066 H   0  0  0  0  0  0  0  0  0  0  0  0
   -6.9070   23.5793  -29.8600 H   0  0  0  0  0  0  0  0  0  0  0  0
   -7.2637   25.2595  -30.4677 H   0  0  0  0  0  0  0  0  0  0  0  0
   -2.5138   22.4246  -32.1241 H   0  0  0  0  0  0  0  0  0  0  0  0
   -0.1646   21.8580  -32.6498 H   0  0  0  0  0  0  0  0  0  0  0  0
    0.3618   19.7861  -33.9669 H   0  0  0  0  0  0  0  0  0  0  0  0
   -1.5668   18.3754  -34.7021 H   0  0  0  0  0  0  0  0  0  0  0  0
   -5.5510   19.1930  -33.1090 H   0  0  0  0  0  0  0  0  0  0  0  0
   -7.7916   18.5363  -32.8974 H   0  0  0  0  0  0  0  0  0  0  0  0
  -10.1446   19.2022  -32.3550 H   0  0  0  0  0  0  0  0  0  0  0  0
  -10.6488   21.5430  -31.7329 H   0  0  0  0  0  0  0  0  0  0  0  0
   -8.8415   23.2551  -31.6323 H   0  0  0  0  0  0  0  0  0  0  0  0
  1  2  1  0
  2  3  1  0
  3  4  1  0
  4  5  2  0
  5  6  1  0
  6  7  2  0
  7  8  1  0
  8  9  2  0
  9 10  1  0
 10 11  2  0
 11 12  1  0
 12 13  2  0
  7 14  1  0
 14 15  1  0
 15 16  2  0
 16 17  1  0
 17 18  2  0
 18 19  1  0
 19 20  2  0
 20  5  1  0
 13  8  1  0
 20 15  1  0
  1 21  1  0
  1 22  1  0
  2 23  1  0
  2 24  1  0
  3 25  1  0
  3 26  1  0
  9 27  1  0
 10 28  1  0
 11 29  1  0
 12 30  1  0
 14 31  1  0
 16 32  1  0
 17 33  1  0
 18 34  1  0
 19 35  1  0
M  END
>  <smiles>  (38) 
NCCN=c1nc(-c2ccccn2)[nH]c2ccccc12

>  <score_type>  (38) 
oracle

>  <origin>  (38) 
adg

>  <m_score__min__energy>  (38) 
-7.8499999999999996

>  <m_primary>  (38) 
energy

$$$$
38:0
     RDKit          3D

 53 55  0  0  0  0  0  0  0  0999 V2000
   -1.0210   26.3890  -25.1020 C   0  0  0  0  0  0  0  0  0  0  0  0
   -1.0650   27.4470  -26.2010 C   0  0  0  0  0  0  0  0  0  0  0  0
   -0.4210   26.9300  -27.4900 C   0  0  0  0  0  0  0  0  0  0  0  0
   -1.1160   25.6920  -27.9580 C   0  0  0  0  0  0  0  0  0  0  0  0
   -0.8900   24.4690  -27.4340 N   0  0  0  0  0  0  0  0  0  0  0  0
   -1.6840   23.6610  -28.1660 C   0  0  0  0  0  0  0  0  0  0  0  0
   -1.7930   22.2060  -27.9230 C   0  0  0  0  0  0  0  0  0  0  0  0
   -0.6360   21.4110  -27.9490 C   0  0  0  0  0  0  0  0  0  0  0  0
   -0.7180   20.0340  -27.7230 C   0  0  0  0  0  0  0  0  0  0  0  0
   -1.9570   19.4370  -27.4800 C   0  0  0  0  0  0  0  0  0  0  0  0
   -3.1170   20.2150  -27.4740 C   0  0  0  0  0  0  0  0  0  0  0  0
   -3.0390   21.5920  -27.7020 C   0  0  0  0  0  0  0  0  0  0  0  0
   -2.3740   24.4330  -29.0910 C   0  0  0  0  0  0  0  0  0  0  0  0
   -3.4040   24.0030  -30.0910 C   0  0  0  0  0  0  0  0  0  0  0  0
   -4.0110   25.1830  -30.7210 N   0  0  0  0  0  0  0  0  0  0  0  0
   -5.4280   24.9740  -31.0540 C   0  0  0  0  0  0  0  0  0  0  0  0
   -6.1130   23.9650  -30.0990 C   0  0  0  0  0  0  0  0  0  0  0  0
   -6.8510   22.8830  -30.7870 N   0  0  0  0  0  0  0  0  0  0  0  0
   -5.9640   21.9530  -31.5240 C   0  0  0  0  0  0  0  0  0  0  0  0
   -6.7500   20.9880  -32.4370 C   0  0  0  0  0  0  0  0  0  0  0  0
   -8.1990   20.8330  -31.9680 C   0  0  0  0  0  0  0  0  0  0  0  0
   -8.9250   22.1900  -31.9410 C   0  0  0  0  0  0  0  0  0  0  0  0
   -7.9790   23.3590  -31.6080 C   0  0  0  0  0  0  0  0  0  0  0  0
   -1.9880   25.6750  -28.9410 O   0  0  0  0  0  0  0  0  0  0  0  0
   -1.0415   26.8810  -24.1184 H   0  0  0  0  0  0  0  0  0  0  0  0
   -1.8923   25.7244  -25.1977 H   0  0  0  0  0  0  0  0  0  0  0  0
   -0.0975   25.7990  -25.1977 H   0  0  0  0  0  0  0  0  0  0  0  0
   -2.1134   27.7108  -26.4040 H   0  0  0  0  0  0  0  0  0  0  0  0
   -0.5035   28.3291  -25.8594 H   0  0  0  0  0  0  0  0  0  0  0  0
   -0.4953   27.7038  -28.2682 H   0  0  0  0  0  0  0  0  0  0  0  0
    0.6350   26.6939  -27.2922 H   0  0  0  0  0  0  0  0  0  0  0  0
    0.3413   21.8748  -28.1485 H   0  0  0  0  0  0  0  0  0  0  0  0
    0.1945   19.4198  -27.7366 H   0  0  0  0  0  0  0  0  0  0  0  0
   -2.0193   18.3547  -27.2934 H   0  0  0  0  0  0  0  0  0  0  0  0
   -4.0935   19.7434  -27.2896 H   0  0  0  0  0  0  0  0  0  0  0  0
   -3.9567   22.1984  -27.7086 H   0  0  0  0  0  0  0  0  0  0  0  0
   -2.9261   23.3823  -30.8632 H   0  0  0  0  0  0  0  0  0  0  0  0
   -4.1859   23.4226  -29.5794 H   0  0  0  0  0  0  0  0  0  0  0  0
   -3.4790   25.4220  -31.5910 H   0  0  0  0  0  0  0  0  0  0  0  0
   -5.9534   25.9381  -30.9862 H   0  0  0  0  0  0  0  0  0  0  0  0
   -5.4773   24.5607  -32.0722 H   0  0  0  0  0  0  0  0  0  0  0  0
   -5.3375   23.5063  -29.4680 H   0  0  0  0  0  0  0  0  0  0  0  0
   -6.8545   24.5332  -29.5182 H   0  0  0  0  0  0  0  0  0  0  0  0
   -5.2726   22.5418  -32.1447 H   0  0  0  0  0  0  0  0  0  0  0  0
   -5.4237   21.3467  -30.7820 H   0  0  0  0  0  0  0  0  0  0  0  0
   -6.7462   21.3833  -33.4635 H   0  0  0  0  0  0  0  0  0  0  0  0
   -6.2654   20.0013  -32.3975 H   0  0  0  0  0  0  0  0  0  0  0  0
   -8.7281   20.1569  -32.6557 H   0  0  0  0  0  0  0  0  0  0  0  0
   -8.1922   20.4220  -30.9477 H   0  0  0  0  0  0  0  0  0  0  0  0
   -9.3735   22.3698  -32.9292 H   0  0  0  0  0  0  0  0  0  0  0  0
   -9.6899   22.1440  -31.1518 H   0  0  0  0  0  0  0  0  0  0  0  0
   -7.5915   23.7904  -32.5427 H   0  0  0  0  0  0  0  0  0  0  0  0
   -8.5360   24.1222  -31.0447 H   0  0  0  0  0  0  0  0  0  0  0  0
  1  2  1  0
  2  3  1  0
  3  4  1  0
  4  5  2  0
  5  6  1  0
  6  7  1  0
  7  8  2  0
  8  9  1  0
  9 10  2  0
 10 11  1  0
 11 12  2  0
  6 13  2  0
 13 14  1  0
 14 15  1  0
 15 16  1  0
 16 17  1  0
 17 18  1  0
 18 19  1  0
 19 20  1  0
 20 21  1  0
 21 22  1  0
 22 23  1  0
 13 24  1  0
 24  4  1  0
 12  7  1  0
 23 18  1  0
  1 25  1  0
  1 26  1  0
  1 27  1  0
  2 28  1  0
  2 29  1  0
  3 30  1  0
  3 31  1  0
  8 32  1  0
  9 33  1  0
 10 34  1  0
 11 35  1  0
 12 36  1  0
 14 37  1  0
 14 38  1  0
 15 39  1  0
 16 40  1  0
 16 41  1  0
 17 42  1  0
 17 43  1  0
 19 44  1  0
 19 45  1  0
 20 46  1  0
 20 47  1  0
 21 48  1  0
 21 49  1  0
 22 50  1  0
 22 51  1  0
 23 52  1  0
 23 53  1  0
M  END
>  <UniqueID>  (39) 
36

>  <SMILES>  (39) 
CCCc1nc(-c2ccccc2)c(CNCCN2CCCCC2)o1

>  <Energy>  (39) 
86.93348961727456

>  <Genealogy>  (39) 
CCCc1nc(-c2ccccc2)c(CNCCN2CCCCC2)o1 (3D coordinates assigned)
CCCc1nc(-c2ccccc2)c(CNCCN2CCCCC2)o1 (nonaromatic ring conformer: 86.93348961727456 kcal/mol)

>  <smiles>  (39) 
CCCc1nc(-c2ccccc2)c(CNCCN2CCCCC2)o1

>  <score_type>  (39) 
oracle

>  <origin>  (39) 
adg

>  <m_score__min__energy>  (39) 
-8.9600000000000009

>  <m_primary>  (39) 
energy

$$$$
39:0
     RDKit          3D

 46 48  0  0  0  0  0  0  0  0999 V2000
   -4.3480   13.2430  -31.2090 C   0  0  0  0  0  0  0  0  0  0  0  0
   -3.5270   13.2750  -32.4940 C   0  0  0  0  0  0  0  0  0  0  0  0
   -2.9950   14.6180  -32.7270 N   0  0  0  0  0  0  0  0  0  0  0  0
   -1.6920   14.9490  -32.7610 C   0  0  0  0  0  0  0  0  0  0  0  0
   -1.5970   16.2950  -33.0290 C   0  0  0  0  0  0  0  0  0  0  0  0
   -2.8330   16.8150  -33.1740 N   0  0  0  0  0  0  0  0  0  0  0  0
   -3.6640   15.7640  -33.0000 C   0  0  0  0  0  0  0  0  0  0  0  0
   -5.1670   15.9000  -33.0590 C   0  0  0  0  0  0  0  0  0  0  0  0
   -5.6060   17.3090  -32.9150 N   0  0  0  0  0  0  0  0  0  0  0  0
   -6.5050   17.4380  -31.7380 C   0  0  0  0  0  0  0  0  0  0  0  0
   -7.3660   18.7220  -31.7500 C   0  0  0  0  0  0  0  0  0  0  0  0
   -6.8570   19.7070  -32.7080 N   0  0  0  0  0  0  0  0  0  0  0  0
   -6.7660   21.0880  -32.3300 C   0  0  0  0  0  0  0  0  0  0  0  0
   -5.5090   21.7070  -32.3200 C   0  0  0  0  0  0  0  0  0  0  0  0
   -5.3860   23.0520  -31.9700 C   0  0  0  0  0  0  0  0  0  0  0  0
   -6.5190   23.7920  -31.6290 C   0  0  0  0  0  0  0  0  0  0  0  0
   -7.7780   23.1840  -31.6280 C   0  0  0  0  0  0  0  0  0  0  0  0
   -7.9140   21.8260  -31.9600 C   0  0  0  0  0  0  0  0  0  0  0  0
   -9.2820   21.2030  -31.9670 C   0  0  0  0  0  0  0  0  0  0  0  0
   -6.4840   19.3040  -34.0670 C   0  0  0  0  0  0  0  0  0  0  0  0
   -6.2770   17.7880  -34.1430 C   0  0  0  0  0  0  0  0  0  0  0  0
   -3.6723   13.2693  -30.3414 H   0  0  0  0  0  0  0  0  0  0  0  0
   -5.0169   14.1158  -31.1794 H   0  0  0  0  0  0  0  0  0  0  0  0
   -4.9469   12.3208  -31.1794 H   0  0  0  0  0  0  0  0  0  0  0  0
   -2.6918   12.5643  -32.4081 H   0  0  0  0  0  0  0  0  0  0  0  0
   -4.1751   12.9969  -33.3381 H   0  0  0  0  0  0  0  0  0  0  0  0
   -0.8478   14.2620  -32.6020 H   0  0  0  0  0  0  0  0  0  0  0  0
   -0.6571   16.8604  -33.1123 H   0  0  0  0  0  0  0  0  0  0  0  0
   -5.5201   15.5157  -34.0273 H   0  0  0  0  0  0  0  0  0  0  0  0
   -5.5920   15.3258  -32.2226 H   0  0  0  0  0  0  0  0  0  0  0  0
   -4.7610   17.9030  -32.7330 H   0  0  0  0  0  0  0  0  0  0  0  0
   -7.1786   16.5686  -31.7188 H   0  0  0  0  0  0  0  0  0  0  0  0
   -5.8619   17.4911  -30.8472 H   0  0  0  0  0  0  0  0  0  0  0  0
   -8.3975   18.4570  -32.0253 H   0  0  0  0  0  0  0  0  0  0  0  0
   -7.3286   19.1693  -30.7458 H   0  0  0  0  0  0  0  0  0  0  0  0
   -4.6131   21.1286  -32.5899 H   0  0  0  0  0  0  0  0  0  0  0  0
   -4.3951   23.5295  -31.9628 H   0  0  0  0  0  0  0  0  0  0  0  0
   -6.4214   24.8543  -31.3608 H   0  0  0  0  0  0  0  0  0  0  0  0
   -8.6687   23.7736  -31.3652 H   0  0  0  0  0  0  0  0  0  0  0  0
   -9.6201   21.0490  -30.9316 H   0  0  0  0  0  0  0  0  0  0  0  0
   -9.9857   21.8694  -32.4872 H   0  0  0  0  0  0  0  0  0  0  0  0
   -9.2413   20.2347  -32.4872 H   0  0  0  0  0  0  0  0  0  0  0  0
   -7.2849   19.5947  -34.7628 H   0  0  0  0  0  0  0  0  0  0  0  0
   -5.5429   19.8042  -34.3391 H   0  0  0  0  0  0  0  0  0  0  0  0
   -7.2533   17.2912  -34.2425 H   0  0  0  0  0  0  0  0  0  0  0  0
   -5.6488   17.5517  -35.0145 H   0  0  0  0  0  0  0  0  0  0  0  0
  1  2  1  0
  2  3  1  0
  3  4  1  0
  4  5  2  0
  5  6  1  0
  6  7  2  0
  7  8  1  0
  8  9  1  0
  9 10  1  0
 10 11  1  0
 11 12  1  0
 12 13  1  0
 13 14  2  0
 14 15  1  0
 15 16  2  0
 16 17  1  0
 17 18  2  0
 18 19  1  0
 12 20  1  0
 20 21  1  0
  7  3  1  0
 21  9  1  0
 18 13  1  0
  1 22  1  0
  1 23  1  0
  1 24  1  0
  2 25  1  0
  2 26  1  0
  4 27  1  0
  5 28  1  0
  8 29  1  0
  8 30  1  0
  9 31  1  0
 10 32  1  0
 10 33  1  0
 11 34  1  0
 11 35  1  0
 14 36  1  0
 15 37  1  0
 16 38  1  0
 17 39  1  0
 19 40  1  0
 19 41  1  0
 19 42  1  0
 20 43  1  0
 20 44  1  0
 21 45  1  0
 21 46  1  0
M  CHG  1   9   1
M  END
>  <UniqueID>  (40) 
37

>  <SMILES>  (40) 
CCn1ccnc1C[NH+]1CCN(c2ccccc2C)CC1

>  <Energy>  (40) 
84.79951395179225

>  <Genealogy>  (40) 
CCn1ccnc1C[NH+]1CCN(c2ccccc2C)CC1 (protonated)
CCn1ccnc1C[NH+]1CCN(c2ccccc2C)CC1 (3D coordinates assigned)
CCn1ccnc1C[NH+]1CCN(c2ccccc2C)CC1 (nonaromatic ring conformer: 84.79951395179225 kcal/mol)

>  <smiles>  (40) 
CCn1ccnc1CN1CCN(c2ccccc2C)CC1

>  <score_type>  (40) 
oracle

>  <origin>  (40) 
adg

>  <m_score__min__energy>  (40) 
-6.1900000000000004

>  <m_primary>  (40) 
energy

$$$$
40:0
     RDKit          3D

 58 60  0  0  0  0  0  0  0  0999 V2000
   -1.9540   19.5280  -27.4300 C   0  0  0  0  0  0  0  0  0  0  0  0
   -3.1090   20.5180  -27.4830 C   0  0  0  0  0  0  0  0  0  0  0  0
   -3.1670   21.2300  -28.8390 C   0  0  0  0  0  0  0  0  0  0  0  0
   -2.2500   22.3820  -28.8550 N   0  0  0  0  0  0  0  0  0  0  0  0
   -2.7100   23.6640  -28.3000 C   0  0  0  0  0  0  0  0  0  0  0  0
   -2.5700   24.7470  -29.3340 C   0  0  0  0  0  0  0  0  0  0  0  0
   -1.5660   25.5060  -29.2920 O   0  0  0  0  0  0  0  0  0  0  0  0
   -3.5020   24.8960  -30.4060 N   0  0  0  0  0  0  0  0  0  0  0  0
   -4.4970   23.9460  -30.8050 C   0  0  0  0  0  0  0  0  0  0  0  0
   -4.1520   22.7910  -31.5280 C   0  0  0  0  0  0  0  0  0  0  0  0
   -5.1300   21.8580  -31.8750 C   0  0  0  0  0  0  0  0  0  0  0  0
   -6.4560   22.0590  -31.4890 C   0  0  0  0  0  0  0  0  0  0  0  0
   -6.8050   23.1920  -30.7500 C   0  0  0  0  0  0  0  0  0  0  0  0
   -5.8300   24.1320  -30.4000 C   0  0  0  0  0  0  0  0  0  0  0  0
   -6.3460   25.6730  -29.3870 Br  0  0  0  0  0  0  0  0  0  0  0  0
   -0.8960   22.2890  -29.3680 C   0  0  0  0  0  0  0  0  0  0  0  0
   -0.1590   23.3120  -29.3610 O   0  0  0  0  0  0  0  0  0  0  0  0
   -0.2980   21.0020  -29.8800 C   0  0  0  0  0  0  0  0  0  0  0  0
   -0.1280   21.0550  -31.3480 N   0  0  0  0  0  0  0  0  0  0  0  0
    0.3070   19.7540  -31.9160 C   0  0  0  0  0  0  0  0  0  0  0  0
   -0.8680   18.8080  -32.1980 C   0  0  0  0  0  0  0  0  0  0  0  0
   -1.9260   19.4900  -32.9440 N   0  0  0  0  0  0  0  0  0  0  0  0
   -3.1390   18.7900  -33.2740 C   0  0  0  0  0  0  0  0  0  0  0  0
   -3.2210   17.3960  -33.1180 C   0  0  0  0  0  0  0  0  0  0  0  0
   -4.4030   16.7180  -33.4270 C   0  0  0  0  0  0  0  0  0  0  0  0
   -5.5140   17.4270  -33.8920 C   0  0  0  0  0  0  0  0  0  0  0  0
   -6.6590   16.7690  -34.1920 F   0  0  0  0  0  0  0  0  0  0  0  0
   -5.4430   18.8140  -34.0480 C   0  0  0  0  0  0  0  0  0  0  0  0
   -4.2610   19.4940  -33.7420 C   0  0  0  0  0  0  0  0  0  0  0  0
   -1.7620   20.9070  -33.2720 C   0  0  0  0  0  0  0  0  0  0  0  0
   -1.3140   21.6580  -32.0130 C   0  0  0  0  0  0  0  0  0  0  0  0
   -1.7032   19.3130  -26.3808 H   0  0  0  0  0  0  0  0  0  0  0  0
   -2.2466   18.5958  -27.9355 H   0  0  0  0  0  0  0  0  0  0  0  0
   -1.0776   19.9597  -27.9355 H   0  0  0  0  0  0  0  0  0  0  0  0
   -4.0530   19.9770  -27.3212 H   0  0  0  0  0  0  0  0  0  0  0  0
   -2.9559   21.2741  -26.6989 H   0  0  0  0  0  0  0  0  0  0  0  0
   -2.8761   20.5245  -29.6313 H   0  0  0  0  0  0  0  0  0  0  0  0
   -4.1928   21.5888  -29.0094 H   0  0  0  0  0  0  0  0  0  0  0  0
   -3.7658   23.5759  -28.0042 H   0  0  0  0  0  0  0  0  0  0  0  0
   -2.0988   23.9195  -27.4218 H   0  0  0  0  0  0  0  0  0  0  0  0
   -3.1056   22.6217  -31.8218 H   0  0  0  0  0  0  0  0  0  0  0  0
   -4.8555   20.9634  -32.4532 H   0  0  0  0  0  0  0  0  0  0  0  0
   -7.2267   21.3249  -31.7668 H   0  0  0  0  0  0  0  0  0  0  0  0
   -7.8499   23.3454  -30.4423 H   0  0  0  0  0  0  0  0  0  0  0  0
    0.6832   20.8463  -29.4078 H   0  0  0  0  0  0  0  0  0  0  0  0
   -0.9759   20.1722  -29.6312 H   0  0  0  0  0  0  0  0  0  0  0  0
    0.8409   19.9427  -32.8590 H   0  0  0  0  0  0  0  0  0  0  0  0
    0.9545   19.2667  -31.1722 H   0  0  0  0  0  0  0  0  0  0  0  0
   -0.5069   17.9524  -32.7876 H   0  0  0  0  0  0  0  0  0  0  0  0
   -1.2814   18.4683  -31.2369 H   0  0  0  0  0  0  0  0  0  0  0  0
   -2.3492   16.8349  -32.7503 H   0  0  0  0  0  0  0  0  0  0  0  0
   -4.4591   15.6263  -33.3043 H   0  0  0  0  0  0  0  0  0  0  0  0
   -6.3187   19.3713  -34.4122 H   0  0  0  0  0  0  0  0  0  0  0  0
   -4.2090   20.5855  -33.8682 H   0  0  0  0  0  0  0  0  0  0  0  0
   -1.0016   21.0185  -34.0590 H   0  0  0  0  0  0  0  0  0  0  0  0
   -2.7157   21.3194  -33.6331 H   0  0  0  0  0  0  0  0  0  0  0  0
   -1.0659   22.6919  -32.2950 H   0  0  0  0  0  0  0  0  0  0  0  0
   -2.1458   21.6073  -31.2950 H   0  0  0  0  0  0  0  0  0  0  0  0
  1  2  1  0
  2  3  1  0
  3  4  1  0
  4  5  1  0
  5  6  1  0
  6  7  2  0
  6  8  1  0
  8  9  1  0
  9 10  2  0
 10 11  1  0
 11 12  2  0
 12 13  1  0
 13 14  2  0
 14 15  1  0
  4 16  1  0
 16 17  2  0
 16 18  1  0
 18 19  1  0
 19 20  1  0
 20 21  1  0
 21 22  1  0
 22 23  1  0
 23 24  2  0
 24 25  1  0
 25 26  2  0
 26 27  1  0
 26 28  1  0
 28 29  2  0
 22 30  1  0
 30 31  1  0
 14  9  1  0
 31 19  1  0
 29 23  1  0
  1 32  1  0
  1 33  1  0
  1 34  1  0
  2 35  1  0
  2 36  1  0
  3 37  1  0
  3 38  1  0
  5 39  1  0
  5 40  1  0
 10 41  1  0
 11 42  1  0
 12 43  1  0
 13 44  1  0
 18 45  1  0
 18 46  1  0
 20 47  1  0
 20 48  1  0
 21 49  1  0
 21 50  1  0
 24 51  1  0
 25 52  1  0
 28 53  1  0
 29 54  1  0
 30 55  1  0
 30 56  1  0
 31 57  1  0
 31 58  1  0
M  CHG  1   8  -1
M  END
>  <UniqueID>  (41) 
38

>  <SMILES>  (41) 
CCCN(CC(=O)[N-]c1ccccc1Br)C(=O)CN1CCN(c2ccc(F)cc2)CC1

>  <Energy>  (41) 
70.5543678366061

>  <Genealogy>  (41) 
CCCN(CC(=O)[N-]c1ccccc1Br)C(=O)CN1CCN(c2ccc(F)cc2)CC1 (protonated)
CCCN(CC(=O)[N-]c1ccccc1Br)C(=O)CN1CCN(c2ccc(F)cc2)CC1 (3D coordinates assigned)
CCCN(CC(=O)[N-]c1ccccc1Br)C(=O)CN1CCN(c2ccc(F)cc2)CC1 (nonaromatic ring conformer: 70.5543678366061 kcal/mol)

>  <smiles>  (41) 
CCCN(CC(=O)Nc1ccccc1Br)C(=O)CN1CCN(c2ccc(F)cc2)CC1

>  <score_type>  (41) 
oracle

>  <origin>  (41) 
adg

>  <m_score__min__energy>  (41) 
-11.51

>  <m_primary>  (41) 
energy

$$$$
41:0
     RDKit          3D

 22 24  0  0  0  0  0  0  0  0999 V2000
   -4.2650   25.3380  -30.7730 N   0  0  0  0  0  0  0  0  0  0  0  0
   -5.2890   24.5760  -30.9200 C   0  0  0  0  0  0  0  0  0  0  0  0
   -6.5830   24.7880  -30.6140 N   0  0  0  0  0  0  0  0  0  0  0  0
   -7.3190   23.7320  -30.9320 N   0  0  0  0  0  0  0  0  0  0  0  0
   -6.5110   22.8090  -31.4520 C   0  0  0  0  0  0  0  0  0  0  0  0
   -6.7760   21.5390  -31.9390 C   0  0  0  0  0  0  0  0  0  0  0  0
   -8.5520   20.8130  -31.9440 Br  0  0  0  0  0  0  0  0  0  0  0  0
   -5.6930   20.8280  -32.4160 C   0  0  0  0  0  0  0  0  0  0  0  0
   -5.9680   19.4830  -32.9320 C   0  0  0  0  0  0  0  0  0  0  0  0
   -5.8090   19.0380  -34.2490 C   0  0  0  0  0  0  0  0  0  0  0  0
   -6.1800   17.7090  -34.3020 C   0  0  0  0  0  0  0  0  0  0  0  0
   -6.5540   17.3930  -32.9970 C   0  0  0  0  0  0  0  0  0  0  0  0
   -6.4120   18.4580  -32.2440 O   0  0  0  0  0  0  0  0  0  0  0  0
   -4.4420   21.3000  -32.4300 N   0  0  0  0  0  0  0  0  0  0  0  0
   -4.2570   22.5170  -31.9520 N   0  0  0  0  0  0  0  0  0  0  0  0
   -5.2190   23.3080  -31.4610 C   0  0  0  0  0  0  0  0  0  0  0  0
   -3.7000   25.6780  -31.5930 H   0  0  0  0  0  0  0  0  0  0  0  0
   -6.9500   25.6840  -30.1790 H   0  0  0  0  0  0  0  0  0  0  0  0
   -8.3540   23.6320  -30.8010 H   0  0  0  0  0  0  0  0  0  0  0  0
   -5.4506   19.6422  -35.0955 H   0  0  0  0  0  0  0  0  0  0  0  0
   -6.1803   17.0463  -35.1799 H   0  0  0  0  0  0  0  0  0  0  0  0
   -6.9103   16.4104  -32.6541 H   0  0  0  0  0  0  0  0  0  0  0  0
  1  2  2  3
  2  3  1  0
  3  4  1  0
  4  5  1  0
  5  6  2  0
  6  7  1  0
  6  8  1  0
  8  9  1  0
  9 10  2  0
 10 11  1  0
 11 12  2  0
 12 13  1  0
  8 14  2  0
 14 15  1  0
 15 16  2  0
 16  2  1  0
 16  5  1  0
 13  9  1  0
  1 17  1  0
  3 18  1  0
  4 19  1  0
 10 20  1  0
 11 21  1  0
 12 22  1  0
M  END
>  <smiles>  (42) 
N=c1[nH][nH]c2c(Br)c(-c3ccco3)nnc12

>  <score_type>  (42) 
oracle

>  <origin>  (42) 
adg

>  <m_score__min__energy>  (42) 
-6.9100000000000001

>  <m_primary>  (42) 
energy

$$$$
42:0
     RDKit          3D

 49 51  0  0  0  0  0  0  0  0999 V2000
   -3.0860   21.5520  -32.6100 C   0  0  0  0  0  0  0  0  0  0  0  0
   -2.5980   21.3190  -31.1830 C   0  0  0  0  0  0  0  0  0  0  0  0
   -1.3730   22.1820  -30.8730 C   0  0  0  0  0  0  0  0  0  0  0  0
   -1.0640   22.1400  -29.4080 C   0  0  0  0  0  0  0  0  0  0  0  0
   -0.1200   21.4220  -28.9850 O   0  0  0  0  0  0  0  0  0  0  0  0
   -1.8650   22.8750  -28.4830 N   0  0  0  0  0  0  0  0  0  0  0  0
   -2.3500   22.7090  -27.0990 C   0  0  0  0  0  0  0  0  0  0  0  0
   -3.1060   23.9990  -27.0350 C   0  0  0  0  0  0  0  0  0  0  0  0
   -2.5990   24.1580  -28.4440 C   0  0  1  0  0  0  0  0  0  0  0  0
   -1.6250   25.3380  -28.6060 C   0  0  0  0  0  0  0  0  0  0  0  0
   -3.7210   24.2050  -29.4630 C   0  0  0  0  0  0  0  0  0  0  0  0
   -3.5700   24.8920  -30.5100 O   0  0  0  0  0  0  0  0  0  0  0  0
   -4.9800   23.5590  -29.2070 N   0  0  0  0  0  0  0  0  0  0  0  0
   -5.9300   23.2120  -30.2310 C   0  0  0  0  0  0  0  0  0  0  0  0
   -6.8410   24.1570  -30.7380 C   0  0  0  0  0  0  0  0  0  0  0  0
   -7.7390   23.7980  -31.7440 C   0  0  0  0  0  0  0  0  0  0  0  0
   -7.7310   22.5030  -32.2660 C   0  0  0  0  0  0  0  0  0  0  0  0
   -6.8110   21.5510  -31.7940 C   0  0  0  0  0  0  0  0  0  0  0  0
   -6.7840   20.1810  -32.3660 C   0  0  0  0  0  0  0  0  0  0  0  0
   -7.5910   19.1640  -31.8240 C   0  0  0  0  0  0  0  0  0  0  0  0
   -7.5720   17.8780  -32.3720 C   0  0  0  0  0  0  0  0  0  0  0  0
   -6.7520   17.5950  -33.4650 C   0  0  0  0  0  0  0  0  0  0  0  0
   -5.9450   18.5950  -34.0100 C   0  0  0  0  0  0  0  0  0  0  0  0
   -5.9580   19.8810  -33.4640 C   0  0  0  0  0  0  0  0  0  0  0  0
   -5.9110   21.9200  -30.7780 C   0  0  0  0  0  0  0  0  0  0  0  0
   -4.0784   22.0258  -32.5854 H   0  0  0  0  0  0  0  0  0  0  0  0
   -2.3787   22.2096  -33.1366 H   0  0  0  0  0  0  0  0  0  0  0  0
   -3.1527   20.5886  -33.1366 H   0  0  0  0  0  0  0  0  0  0  0  0
   -3.4051   21.5750  -30.4808 H   0  0  0  0  0  0  0  0  0  0  0  0
   -2.3161   20.2609  -31.0781 H   0  0  0  0  0  0  0  0  0  0  0  0
   -0.5088   21.8012  -31.4371 H   0  0  0  0  0  0  0  0  0  0  0  0
   -1.5850   23.2214  -31.1640 H   0  0  0  0  0  0  0  0  0  0  0  0
   -3.0007   21.8301  -26.9805 H   0  0  0  0  0  0  0  0  0  0  0  0
   -1.5914   22.5358  -26.3215 H   0  0  0  0  0  0  0  0  0  0  0  0
   -4.1970   23.9056  -26.9304 H   0  0  0  0  0  0  0  0  0  0  0  0
   -2.9718   24.7520  -26.2444 H   0  0  0  0  0  0  0  0  0  0  0  0
   -1.3234   25.7034  -27.6133 H   0  0  0  0  0  0  0  0  0  0  0  0
   -0.7350   25.0054  -29.1603 H   0  0  0  0  0  0  0  0  0  0  0  0
   -2.1203   26.1488  -29.1603 H   0  0  0  0  0  0  0  0  0  0  0  0
   -5.2540   23.3910  -28.2130 H   0  0  0  0  0  0  0  0  0  0  0  0
   -6.8453   25.1824  -30.3399 H   0  0  0  0  0  0  0  0  0  0  0  0
   -8.4564   24.5385  -32.1275 H   0  0  0  0  0  0  0  0  0  0  0  0
   -8.4493   22.2261  -33.0517 H   0  0  0  0  0  0  0  0  0  0  0  0
   -8.2409   19.3820  -30.9637 H   0  0  0  0  0  0  0  0  0  0  0  0
   -8.2045   17.0880  -31.9409 H   0  0  0  0  0  0  0  0  0  0  0  0
   -6.7416   16.5835  -33.8972 H   0  0  0  0  0  0  0  0  0  0  0  0
   -5.2978   18.3703  -34.8706 H   0  0  0  0  0  0  0  0  0  0  0  0
   -5.3177   20.6643  -33.8959 H   0  0  0  0  0  0  0  0  0  0  0  0
   -5.1816   21.1850  -30.4068 H   0  0  0  0  0  0  0  0  0  0  0  0
  1  2  1  0
  2  3  1  0
  3  4  1  0
  4  5  2  0
  4  6  1  0
  6  7  1  0
  7  8  1  0
  8  9  1  0
  9 10  1  1
  9 11  1  0
 11 12  2  0
 11 13  1  0
 13 14  1  0
 14 15  2  0
 15 16  1  0
 16 17  2  0
 17 18  1  0
 18 19  1  0
 19 20  2  0
 20 21  1  0
 21 22  2  0
 22 23  1  0
 23 24  2  0
 18 25  2  0
  9  6  1  0
 25 14  1  0
 24 19  1  0
  1 26  1  0
  1 27  1  0
  1 28  1  0
  2 29  1  0
  2 30  1  0
  3 31  1  0
  3 32  1  0
  7 33  1  0
  7 34  1  0
  8 35  1  0
  8 36  1  0
 10 37  1  0
 10 38  1  0
 10 39  1  0
 13 40  1  0
 15 41  1  0
 16 42  1  0
 17 43  1  0
 20 44  1  0
 21 45  1  0
 22 46  1  0
 23 47  1  0
 24 48  1  0
 25 49  1  0
M  END
>  <UniqueID>  (43) 
39

>  <SMILES>  (43) 
CCCC(=O)N1CC[C@]1(C)C(=O)Nc1cccc(-c2ccccc2)c1

>  <Energy>  (43) 
94.64835209414393

>  <Genealogy>  (43) 
CCCC(=O)N1CC[C@]1(C)C(=O)Nc1cccc(-c2ccccc2)c1 (chirality)
CCCC(=O)N1CC[C@]1(C)C(=O)Nc1cccc(-c2ccccc2)c1 (3D coordinates assigned)
CCCC(=O)N1CC[C@]1(C)C(=O)Nc1cccc(-c2ccccc2)c1 (nonaromatic ring conformer: 94.64835209414393 kcal/mol)

>  <smiles>  (43) 
CCCC(=O)N1CCC1(C)C(=O)Nc1cccc(-c2ccccc2)c1

>  <score_type>  (43) 
oracle

>  <origin>  (43) 
adg

>  <m_score__min__energy>  (43) 
-8.6899999999999995

>  <m_primary>  (43) 
energy

$$$$
43:0
     RDKit          3D

 44 46  0  0  0  0  0  0  0  0999 V2000
   -1.7380   25.1230  -28.0190 C   0  0  0  0  0  0  0  0  0  0  0  0
   -2.3960   25.2640  -29.2740 O   0  0  0  0  0  0  0  0  0  0  0  0
   -3.0360   24.2170  -29.9540 C   0  0  0  0  0  0  0  0  0  0  0  0
   -2.3760   22.9860  -30.0500 C   0  0  0  0  0  0  0  0  0  0  0  0
   -2.9710   21.9110  -30.7170 C   0  0  0  0  0  0  0  0  0  0  0  0
   -4.2400   22.0540  -31.2970 C   0  0  0  0  0  0  0  0  0  0  0  0
   -4.8540   20.9470  -31.9830 N   0  0  0  0  0  0  0  0  0  0  0  0
   -4.5440   19.5720  -31.5700 C   0  0  0  0  0  0  0  0  0  0  0  0
   -5.1020   18.5990  -32.5710 C   0  0  0  0  0  0  0  0  0  0  0  0
   -4.5810   18.5540  -33.8740 C   0  0  0  0  0  0  0  0  0  0  0  0
   -5.0640   17.6150  -34.7920 C   0  0  0  0  0  0  0  0  0  0  0  0
   -6.0590   16.7110  -34.4120 C   0  0  0  0  0  0  0  0  0  0  0  0
   -6.5710   16.7400  -33.1110 C   0  0  0  0  0  0  0  0  0  0  0  0
   -6.0910   17.6780  -32.1910 C   0  0  0  0  0  0  0  0  0  0  0  0
   -5.7840   21.2010  -33.0910 C   0  0  0  0  0  0  0  0  0  0  0  0
   -7.2010   21.1720  -32.5850 C   0  0  0  0  0  0  0  0  0  0  0  0
   -8.0050   20.0390  -32.7890 C   0  0  0  0  0  0  0  0  0  0  0  0
   -9.3370   20.0360  -32.3630 C   0  0  0  0  0  0  0  0  0  0  0  0
   -9.8760   21.1660  -31.7400 C   0  0  0  0  0  0  0  0  0  0  0  0
   -9.0840   22.3020  -31.5470 C   0  0  0  0  0  0  0  0  0  0  0  0
   -7.7530   22.3090  -31.9730 C   0  0  0  0  0  0  0  0  0  0  0  0
   -4.9040   23.2850  -31.2030 C   0  0  0  0  0  0  0  0  0  0  0  0
   -4.3100   24.3600  -30.5370 C   0  0  0  0  0  0  0  0  0  0  0  0
   -2.4623   25.2782  -27.2058 H   0  0  0  0  0  0  0  0  0  0  0  0
   -1.3099   24.1127  -27.9409 H   0  0  0  0  0  0  0  0  0  0  0  0
   -0.9335   25.8691  -27.9409 H   0  0  0  0  0  0  0  0  0  0  0  0
   -1.3811   22.8636  -29.5969 H   0  0  0  0  0  0  0  0  0  0  0  0
   -2.4418   20.9492  -30.7872 H   0  0  0  0  0  0  0  0  0  0  0  0
   -3.4529   19.4468  -31.5087 H   0  0  0  0  0  0  0  0  0  0  0  0
   -4.9963   19.3787  -30.5861 H   0  0  0  0  0  0  0  0  0  0  0  0
   -3.7913   19.2586  -34.1738 H   0  0  0  0  0  0  0  0  0  0  0  0
   -4.6596   17.5885  -35.8146 H   0  0  0  0  0  0  0  0  0  0  0  0
   -6.4399   15.9761  -35.1365 H   0  0  0  0  0  0  0  0  0  0  0  0
   -7.3513   16.0251  -32.8111 H   0  0  0  0  0  0  0  0  0  0  0  0
   -6.4899   17.6940  -31.1660 H   0  0  0  0  0  0  0  0  0  0  0  0
   -5.5720   22.1887  -33.5264 H   0  0  0  0  0  0  0  0  0  0  0  0
   -5.6564   20.4225  -33.8576 H   0  0  0  0  0  0  0  0  0  0  0  0
   -7.5859   19.1513  -33.2853 H   0  0  0  0  0  0  0  0  0  0  0  0
   -9.9614   19.1438  -32.5181 H   0  0  0  0  0  0  0  0  0  0  0  0
  -10.9227   21.1612  -31.4019 H   0  0  0  0  0  0  0  0  0  0  0  0
   -9.5092   23.1915  -31.0591 H   0  0  0  0  0  0  0  0  0  0  0  0
   -7.1358   23.2080  -31.8285 H   0  0  0  0  0  0  0  0  0  0  0  0
   -5.8989   23.4053  -31.6564 H   0  0  0  0  0  0  0  0  0  0  0  0
   -4.8394   25.3217  -30.4677 H   0  0  0  0  0  0  0  0  0  0  0  0
  1  2  1  0
  2  3  1  0
  3  4  2  0
  4  5  1  0
  5  6  2  0
  6  7  1  0
  7  8  1  0
  8  9  1  0
  9 10  2  0
 10 11  1  0
 11 12  2  0
 12 13  1  0
 13 14  2  0
  7 15  1  0
 15 16  1  0
 16 17  2  0
 17 18  1  0
 18 19  2  0
 19 20  1  0
 20 21  2  0
  6 22  1  0
 22 23  2  0
 23  3  1  0
 14  9  1  0
 21 16  1  0
  1 24  1  0
  1 25  1  0
  1 26  1  0
  4 27  1  0
  5 28  1  0
  8 29  1  0
  8 30  1  0
 10 31  1  0
 11 32  1  0
 12 33  1  0
 13 34  1  0
 14 35  1  0
 15 36  1  0
 15 37  1  0
 17 38  1  0
 18 39  1  0
 19 40  1  0
 20 41  1  0
 21 42  1  0
 22 43  1  0
 23 44  1  0
M  END
>  <UniqueID>  (44) 
40

>  <SMILES>  (44) 
COc1ccc(N(Cc2ccccc2)Cc2ccccc2)cc1

>  <Energy>  (44) 
46.058527484661816

>  <Genealogy>  (44) 
COc1ccc(N(Cc2ccccc2)Cc2ccccc2)cc1 (3D coordinates assigned)
COc1ccc(N(Cc2ccccc2)Cc2ccccc2)cc1 (optimized conformer: 46.058527484661816 kcal/mol)

>  <smiles>  (44) 
COc1ccc(N(Cc2ccccc2)Cc2ccccc2)cc1

>  <score_type>  (44) 
oracle

>  <origin>  (44) 
adg

>  <m_score__min__energy>  (44) 
-7.9699999999999998

>  <m_primary>  (44) 
energy

$$$$
44:0
     RDKit          3D

 71 73  0  0  0  0  0  0  0  0999 V2000
   -4.9940   16.0200  -31.9900 C   0  0  0  0  0  0  0  0  0  0  0  0
   -6.2340   16.6770  -31.8500 O   0  0  0  0  0  0  0  0  0  0  0  0
   -6.1570   18.0180  -32.3160 C   0  0  2  0  0  0  0  0  0  0  0  0
   -7.4760   18.7520  -32.0170 C   0  0  2  0  0  0  0  0  0  0  0  0
   -8.5530   18.1380  -32.6800 O   0  0  0  0  0  0  0  0  0  0  0  0
   -7.3570   20.2250  -32.4590 C   0  0  2  0  0  0  0  0  0  0  0  0
   -8.6240   20.7780  -32.7060 O   0  0  0  0  0  0  0  0  0  0  0  0
   -6.4620   20.3890  -33.7170 C   0  0  1  0  0  0  0  0  0  0  0  0
   -5.1400   20.8060  -33.3640 O   0  0  0  0  0  0  0  0  0  0  0  0
   -4.7850   21.5400  -32.2210 C   0  0  0  0  0  0  0  0  0  0  0  0
   -3.9560   20.9230  -31.2790 C   0  0  0  0  0  0  0  0  0  0  0  0
   -3.5240   21.6190  -30.1480 C   0  0  0  0  0  0  0  0  0  0  0  0
   -3.9180   22.9520  -29.9390 C   0  0  0  0  0  0  0  0  0  0  0  0
   -3.3840   23.7190  -28.7870 C   0  0  0  0  0  0  0  0  0  0  0  0
   -4.2400   24.1570  -27.7610 C   0  0  0  0  0  0  0  0  0  0  0  0
   -3.7260   24.8030  -26.6330 C   0  0  0  0  0  0  0  0  0  0  0  0
   -2.3390   25.0060  -26.5020 C   0  0  0  0  0  0  0  0  0  0  0  0
   -1.7630   25.5680  -25.3540 O   0  0  0  0  0  0  0  0  0  0  0  0
   -0.6910   24.9840  -24.6160 C   0  0  0  0  0  0  0  0  0  0  0  0
    0.4210   26.0180  -24.4190 C   0  0  0  0  0  0  0  0  0  0  0  0
   -0.1020   27.2860  -23.7030 C   0  0  0  0  0  0  0  0  0  0  0  0
    0.9900   28.3600  -23.4420 C   0  0  0  0  0  0  0  0  0  0  0  0
    2.0610   27.9820  -22.4810 N   0  0  0  0  0  0  0  0  0  0  0  0
    3.2410   27.3910  -23.1340 C   0  0  0  0  0  0  0  0  0  0  0  0
    2.4590   29.0820  -21.5810 C   0  0  0  0  0  0  0  0  0  0  0  0
   -1.4910   24.6130  -27.5440 C   0  0  0  0  0  0  0  0  0  0  0  0
   -2.0050   23.9740  -28.6760 C   0  0  0  0  0  0  0  0  0  0  0  0
   -4.7770   23.5610  -30.8700 C   0  0  0  0  0  0  0  0  0  0  0  0
   -5.2120   22.8620  -31.9990 C   0  0  0  0  0  0  0  0  0  0  0  0
   -6.4100   19.2080  -34.5070 O   0  0  0  0  0  0  0  0  0  0  0  0
   -5.8470   18.0630  -33.8580 C   0  0  0  0  0  0  0  0  0  0  0  0
   -4.3190   18.0250  -34.0940 C   0  0  0  0  0  0  0  0  0  0  0  0
   -6.4400   16.8340  -34.5830 C   0  0  0  0  0  0  0  0  0  0  0  0
   -4.5806   15.8010  -30.9944 H   0  0  0  0  0  0  0  0  0  0  0  0
   -5.1376   15.0797  -32.5424 H   0  0  0  0  0  0  0  0  0  0  0  0
   -4.2966   16.6669  -32.5424 H   0  0  0  0  0  0  0  0  0  0  0  0
   -5.3340   18.5222  -31.7884 H   0  0  0  0  0  0  0  0  0  0  0  0
   -7.6672   18.7052  -30.9347 H   0  0  0  0  0  0  0  0  0  0  0  0
   -8.7460   18.6850  -33.4860 H   0  0  0  0  0  0  0  0  0  0  0  0
   -6.8789   20.7656  -31.6288 H   0  0  0  0  0  0  0  0  0  0  0  0
   -9.0960   20.1510  -33.3180 H   0  0  0  0  0  0  0  0  0  0  0  0
   -6.9303   21.1747  -34.3280 H   0  0  0  0  0  0  0  0  0  0  0  0
   -3.6413   19.8799  -31.4302 H   0  0  0  0  0  0  0  0  0  0  0  0
   -2.8712   21.1209  -29.4160 H   0  0  0  0  0  0  0  0  0  0  0  0
   -5.3238   23.9898  -27.8468 H   0  0  0  0  0  0  0  0  0  0  0  0
   -4.4079   25.1542  -25.8445 H   0  0  0  0  0  0  0  0  0  0  0  0
   -1.0604   24.6524  -23.6344 H   0  0  0  0  0  0  0  0  0  0  0  0
   -0.2933   24.1214  -25.1707 H   0  0  0  0  0  0  0  0  0  0  0  0
    1.2219   25.5700  -23.8125 H   0  0  0  0  0  0  0  0  0  0  0  0
    0.7972   26.3123  -25.4099 H   0  0  0  0  0  0  0  0  0  0  0  0
   -0.8879   27.7363  -24.3271 H   0  0  0  0  0  0  0  0  0  0  0  0
   -0.4745   26.9651  -22.7190 H   0  0  0  0  0  0  0  0  0  0  0  0
    1.4687   28.5938  -24.4044 H   0  0  0  0  0  0  0  0  0  0  0  0
    0.4653   29.2101  -22.9815 H   0  0  0  0  0  0  0  0  0  0  0  0
    1.6520   27.2310  -21.8740 H   0  0  0  0  0  0  0  0  0  0  0  0
    3.9461   27.0379  -22.3671 H   0  0  0  0  0  0  0  0  0  0  0  0
    2.9270   26.5438  -23.7614 H   0  0  0  0  0  0  0  0  0  0  0  0
    3.7314   28.1499  -23.7614 H   0  0  0  0  0  0  0  0  0  0  0  0
    2.3427   28.7606  -20.5354 H   0  0  0  0  0  0  0  0  0  0  0  0
    3.5100   29.3470  -21.7684 H   0  0  0  0  0  0  0  0  0  0  0  0
    1.8209   29.9582  -21.7684 H   0  0  0  0  0  0  0  0  0  0  0  0
   -0.4110   24.8087  -27.4714 H   0  0  0  0  0  0  0  0  0  0  0  0
   -1.3263   23.6683  -29.4859 H   0  0  0  0  0  0  0  0  0  0  0  0
   -5.1097   24.5969  -30.7084 H   0  0  0  0  0  0  0  0  0  0  0  0
   -5.8904   23.3469  -32.7164 H   0  0  0  0  0  0  0  0  0  0  0  0
   -3.7985   18.0121  -33.1250 H   0  0  0  0  0  0  0  0  0  0  0  0
   -4.0582   17.1201  -34.6624 H   0  0  0  0  0  0  0  0  0  0  0  0
   -4.0135   18.9158  -34.6624 H   0  0  0  0  0  0  0  0  0  0  0  0
   -6.7922   16.1041  -33.8392 H   0  0  0  0  0  0  0  0  0  0  0  0
   -7.2839   17.1518  -35.2130 H   0  0  0  0  0  0  0  0  0  0  0  0
   -5.6661   16.3712  -35.2130 H   0  0  0  0  0  0  0  0  0  0  0  0
  1  2  1  0
  2  3  1  0
  3  4  1  0
  4  5  1  0
  4  6  1  0
  6  7  1  0
  6  8  1  0
  8  9  1  0
  9 10  1  0
 10 11  2  0
 11 12  1  0
 12 13  2  0
 13 14  1  0
 14 15  2  0
 15 16  1  0
 16 17  2  0
 17 18  1  0
 18 19  1  0
 19 20  1  0
 20 21  1  0
 21 22  1  0
 22 23  1  0
 23 24  1  0
 23 25  1  0
 17 26  1  0
 26 27  2  0
 13 28  1  0
 28 29  2  0
  8 30  1  0
 30 31  1  0
 31 32  1  0
 31 33  1  0
 31  3  1  0
 29 10  1  0
 27 14  1  0
  1 34  1  0
  1 35  1  0
  1 36  1  0
  3 37  1  1
  4 38  1  1
  5 39  1  0
  6 40  1  1
  7 41  1  0
  8 42  1  6
 11 43  1  0
 12 44  1  0
 15 45  1  0
 16 46  1  0
 19 47  1  0
 19 48  1  0
 20 49  1  0
 20 50  1  0
 21 51  1  0
 21 52  1  0
 22 53  1  0
 22 54  1  0
 23 55  1  0
 24 56  1  0
 24 57  1  0
 24 58  1  0
 25 59  1  0
 25 60  1  0
 25 61  1  0
 26 62  1  0
 27 63  1  0
 28 64  1  0
 29 65  1  0
 32 66  1  0
 32 67  1  0
 32 68  1  0
 33 69  1  0
 33 70  1  0
 33 71  1  0
M  CHG  1  23   1
M  END
>  <UniqueID>  (45) 
41

>  <SMILES>  (45) 
CO[C@@H]1[C@H](O)C(O)C(Oc2ccc(-c3ccc(OCCCC[NH+](C)C)cc3)cc2)OC1(C)C

>  <Energy>  (45) 
98.00825014825188

>  <Genealogy>  (45) 
COC1C(O)C(O)C(Oc2ccc(-c3ccc(OCCCC[NH+](C)C)cc3)cc2)OC1(C)C (protonated)
CO[C@@H]1[C@H](O)C(O)C(Oc2ccc(-c3ccc(OCCCC[NH+](C)C)cc3)cc2)OC1(C)C (chirality)
CO[C@@H]1[C@H](O)C(O)C(Oc2ccc(-c3ccc(OCCCC[NH+](C)C)cc3)cc2)OC1(C)C (3D coordinates assigned)
CO[C@@H]1[C@H](O)C(O)C(Oc2ccc(-c3ccc(OCCCC[NH+](C)C)cc3)cc2)OC1(C)C (nonaromatic ring conformer: 98.00825014825188 kcal/mol)

>  <smiles>  (45) 
COC1C(O)C(O)C(Oc2ccc(-c3ccc(OCCCCN(C)C)cc3)cc2)OC1(C)C

>  <score_type>  (45) 
oracle

>  <origin>  (45) 
adg

>  <m_score__min__energy>  (45) 
-8.1099999999999994

>  <m_primary>  (45) 
energy

$$$$
45:0
     RDKit          3D

 56 59  0  0  0  0  0  0  0  0999 V2000
   -2.2780   19.5410  -27.0710 C   0  0  0  0  0  0  0  0  0  0  0  0
   -2.0580   20.4670  -28.2310 C   0  0  0  0  0  0  0  0  0  0  0  0
   -0.7800   20.5990  -28.7940 C   0  0  0  0  0  0  0  0  0  0  0  0
   -0.5670   21.4880  -29.8490 C   0  0  0  0  0  0  0  0  0  0  0  0
   -1.6210   22.2600  -30.3410 C   0  0  0  0  0  0  0  0  0  0  0  0
   -2.9050   22.1570  -29.7790 C   0  0  0  0  0  0  0  0  0  0  0  0
   -4.0120   22.9900  -30.3080 C   0  0  0  0  0  0  0  0  0  0  0  0
   -5.3580   22.6750  -30.3630 C   0  0  0  0  0  0  0  0  0  0  0  0
   -5.9660   23.7330  -30.9260 N   0  0  0  0  0  0  0  0  0  0  0  0
   -7.3860   23.8600  -31.2390 C   0  0  0  0  0  0  0  0  0  0  0  0
   -7.9070   22.6090  -31.9560 C   0  0  0  0  0  0  0  0  0  0  0  0
   -8.8000   21.7540  -31.0460 C   0  0  0  0  0  0  0  0  0  0  0  0
   -8.6680   20.2650  -31.3910 C   0  0  0  0  0  0  0  0  0  0  0  0
   -8.2560   20.0760  -32.8570 C   0  0  0  0  0  0  0  0  0  0  0  0
   -7.3640   18.8420  -33.0400 C   0  0  0  0  0  0  0  0  0  0  0  0
   -6.1930   18.9210  -32.2260 O   0  0  0  0  0  0  0  0  0  0  0  0
   -4.9820   19.5320  -32.5900 C   0  0  0  0  0  0  0  0  0  0  0  0
   -5.0240   20.8610  -33.0290 C   0  0  0  0  0  0  0  0  0  0  0  0
   -3.8560   21.5280  -33.4040 C   0  0  0  0  0  0  0  0  0  0  0  0
   -2.6200   20.8690  -33.3490 C   0  0  0  0  0  0  0  0  0  0  0  0
   -1.4390   21.5290  -33.7220 C   0  0  0  0  0  0  0  0  0  0  0  0
   -0.2130   20.8610  -33.6640 C   0  0  0  0  0  0  0  0  0  0  0  0
   -0.1560   19.5330  -33.2330 C   0  0  0  0  0  0  0  0  0  0  0  0
   -1.3240   18.8640  -32.8580 C   0  0  0  0  0  0  0  0  0  0  0  0
   -2.5630   19.5240  -32.9120 C   0  0  0  0  0  0  0  0  0  0  0  0
   -3.7430   18.8620  -32.5370 C   0  0  0  0  0  0  0  0  0  0  0  0
   -5.0500   24.6450  -31.2090 N   0  0  0  0  0  0  0  0  0  0  0  0
   -3.8510   24.2200  -30.8410 N   0  0  0  0  0  0  0  0  0  0  0  0
   -3.1120   21.2590  -28.7150 C   0  0  0  0  0  0  0  0  0  0  0  0
   -2.1464   20.0948  -26.1297 H   0  0  0  0  0  0  0  0  0  0  0  0
   -3.2982   19.1323  -27.1165 H   0  0  0  0  0  0  0  0  0  0  0  0
   -1.5506   18.7171  -27.1165 H   0  0  0  0  0  0  0  0  0  0  0  0
    0.0562   20.0006  -28.4033 H   0  0  0  0  0  0  0  0  0  0  0  0
    0.4346   21.5805  -30.2941 H   0  0  0  0  0  0  0  0  0  0  0  0
   -1.4450   22.9547  -31.1755 H   0  0  0  0  0  0  0  0  0  0  0  0
   -5.8343   21.7462  -30.0160 H   0  0  0  0  0  0  0  0  0  0  0  0
   -7.9489   23.9990  -30.3042 H   0  0  0  0  0  0  0  0  0  0  0  0
   -7.5212   24.7257  -31.9040 H   0  0  0  0  0  0  0  0  0  0  0  0
   -8.4906   22.9206  -32.8348 H   0  0  0  0  0  0  0  0  0  0  0  0
   -7.0394   21.9999  -32.2497 H   0  0  0  0  0  0  0  0  0  0  0  0
   -8.5003   21.9089  -29.9990 H   0  0  0  0  0  0  0  0  0  0  0  0
   -9.8467   22.0577  -31.1953 H   0  0  0  0  0  0  0  0  0  0  0  0
   -7.9051   19.8112  -30.7413 H   0  0  0  0  0  0  0  0  0  0  0  0
   -9.6433   19.7808  -31.2353 H   0  0  0  0  0  0  0  0  0  0  0  0
   -9.1618   19.9553  -33.4693 H   0  0  0  0  0  0  0  0  0  0  0  0
   -7.6844   20.9622  -33.1699 H   0  0  0  0  0  0  0  0  0  0  0  0
   -7.9341   17.9436  -32.7610 H   0  0  0  0  0  0  0  0  0  0  0  0
   -7.0511   18.7937  -34.0935 H   0  0  0  0  0  0  0  0  0  0  0  0
   -5.9892   21.3862  -33.0791 H   0  0  0  0  0  0  0  0  0  0  0  0
   -3.9059   22.5731  -33.7434 H   0  0  0  0  0  0  0  0  0  0  0  0
   -1.4785   22.5748  -34.0609 H   0  0  0  0  0  0  0  0  0  0  0  0
    0.7099   21.3821  -33.9585 H   0  0  0  0  0  0  0  0  0  0  0  0
    0.8120   19.0123  -33.1888 H   0  0  0  0  0  0  0  0  0  0  0  0
   -1.2733   17.8185  -32.5198 H   0  0  0  0  0  0  0  0  0  0  0  0
   -3.7004   17.8157  -32.2003 H   0  0  0  0  0  0  0  0  0  0  0  0
   -4.1092   21.1767  -28.2581 H   0  0  0  0  0  0  0  0  0  0  0  0
  1  2  1  0
  2  3  2  0
  3  4  1  0
  4  5  2  0
  5  6  1  0
  6  7  1  0
  7  8  2  0
  8  9  1  0
  9 10  1  0
 10 11  1  0
 11 12  1  0
 12 13  1  0
 13 14  1  0
 14 15  1  0
 15 16  1  0
 16 17  1  0
 17 18  2  0
 18 19  1  0
 19 20  2  0
 20 21  1  0
 21 22  2  0
 22 23  1  0
 23 24  2  0
 24 25  1  0
 25 26  2  0
  9 27  1  0
 27 28  2  0
  6 29  2  0
 29  2  1  0
 28  7  1  0
 26 17  1  0
 25 20  1  0
  1 30  1  0
  1 31  1  0
  1 32  1  0
  3 33  1  0
  4 34  1  0
  5 35  1  0
  8 36  1  0
 10 37  1  0
 10 38  1  0
 11 39  1  0
 11 40  1  0
 12 41  1  0
 12 42  1  0
 13 43  1  0
 13 44  1  0
 14 45  1  0
 14 46  1  0
 15 47  1  0
 15 48  1  0
 18 49  1  0
 19 50  1  0
 21 51  1  0
 22 52  1  0
 23 53  1  0
 24 54  1  0
 26 55  1  0
 29 56  1  0
M  END
>  <UniqueID>  (46) 
42

>  <SMILES>  (46) 
Cc1cccc(-c2cn(CCCCCCOc3ccc4ccccc4c3)nn2)c1

>  <Energy>  (46) 
87.60824457617643

>  <Genealogy>  (46) 
Cc1cccc(-c2cn(CCCCCCOc3ccc4ccccc4c3)nn2)c1 (3D coordinates assigned)
Cc1cccc(-c2cn(CCCCCCOc3ccc4ccccc4c3)nn2)c1 (optimized conformer: 87.60824457617643 kcal/mol)

>  <smiles>  (46) 
Cc1cccc(-c2cn(CCCCCCOc3ccc4ccccc4c3)nn2)c1

>  <score_type>  (46) 
oracle

>  <origin>  (46) 
adg

>  <m_score__min__energy>  (46) 
-10.32

>  <m_primary>  (46) 
energy

$$$$
46:0
     RDKit          3D

 31 34  0  0  0  0  0  0  0  0999 V2000
   -2.7980   20.7030  -30.8890 C   0  0  0  0  0  0  0  0  0  0  0  0
   -2.3100   21.7540  -31.5460 C   0  0  0  0  0  0  0  0  0  0  0  0
   -2.7780   21.7510  -32.9830 C   0  0  0  0  0  0  0  0  0  0  0  0
   -4.2570   21.6000  -33.0820 N   0  0  0  0  0  0  0  0  0  0  0  0
   -4.9760   21.6560  -31.7780 C   0  0  1  0  0  0  0  0  0  0  0  0
   -6.4480   21.2520  -31.9420 C   0  0  0  0  0  0  0  0  0  0  0  0
   -6.8820   20.4050  -32.9850 C   0  0  0  0  0  0  0  0  0  0  0  0
   -8.2250   20.0310  -33.0870 C   0  0  0  0  0  0  0  0  0  0  0  0
   -9.1530   20.4790  -32.1460 C   0  0  0  0  0  0  0  0  0  0  0  0
   -8.7370   21.2990  -31.0950 C   0  0  0  0  0  0  0  0  0  0  0  0
   -7.3970   21.6770  -30.9870 C   0  0  0  0  0  0  0  0  0  0  0  0
   -4.3040   20.6540  -30.7760 C   0  0  0  0  0  0  0  0  0  0  0  0
   -4.8690   23.0310  -31.2370 N   0  0  0  0  0  0  0  0  0  0  0  0
   -5.8420   23.9220  -31.1630 N   0  0  0  0  0  0  0  0  0  0  0  0
   -5.2750   25.0490  -30.6820 C   0  0  0  0  0  0  0  0  0  0  0  0
   -3.9460   24.9170  -30.4670 N   0  0  0  0  0  0  0  0  0  0  0  0
   -3.7380   23.6410  -30.8350 C   0  0  0  0  0  0  0  0  0  0  0  0
   -2.4480   23.0220  -30.8950 N   0  0  0  0  0  0  0  0  0  0  0  0
   -2.1500   19.9252  -30.4588 H   0  0  0  0  0  0  0  0  0  0  0  0
   -2.4844   22.7001  -33.4552 H   0  0  0  0  0  0  0  0  0  0  0  0
   -2.3116   20.8953  -33.4931 H   0  0  0  0  0  0  0  0  0  0  0  0
   -4.6250   22.3610  -33.7010 H   0  0  0  0  0  0  0  0  0  0  0  0
   -6.1562   20.0358  -33.7245 H   0  0  0  0  0  0  0  0  0  0  0  0
   -8.5516   19.3811  -33.9122 H   0  0  0  0  0  0  0  0  0  0  0  0
  -10.2100   20.1868  -32.2320 H   0  0  0  0  0  0  0  0  0  0  0  0
   -9.4670   21.6482  -30.3499 H   0  0  0  0  0  0  0  0  0  0  0  0
   -7.0773   22.3130  -30.1484 H   0  0  0  0  0  0  0  0  0  0  0  0
   -4.5966   20.9211  -29.7498 H   0  0  0  0  0  0  0  0  0  0  0  0
   -4.6407   19.6357  -31.0202 H   0  0  0  0  0  0  0  0  0  0  0  0
   -5.8342   25.9757  -30.4859 H   0  0  0  0  0  0  0  0  0  0  0  0
   -1.6020   23.5250  -30.5460 H   0  0  0  0  0  0  0  0  0  0  0  0
  1  2  2  0
  2  3  1  0
  3  4  1  0
  4  5  1  0
  5  6  1  6
  6  7  2  0
  7  8  1  0
  8  9  2  0
  9 10  1  0
 10 11  2  0
  5 12  1  0
  5 13  1  0
 13 14  1  0
 14 15  2  0
 15 16  1  0
 16 17  2  0
 17 18  1  0
 12  1  1  0
 17 13  1  0
 18  2  1  0
 11  6  1  0
  1 19  1  0
  3 20  1  0
  3 21  1  0
  4 22  1  0
  7 23  1  0
  8 24  1  0
  9 25  1  0
 10 26  1  0
 11 27  1  0
 12 28  1  0
 12 29  1  0
 15 30  1  0
 18 31  1  0
M  END
>  <UniqueID>  (47) 
43

>  <SMILES>  (47) 
C1=C2CN[C@@](c3ccccc3)(C1)n1ncnc1N2

>  <Energy>  (47) 
129.41066743967193

>  <Genealogy>  (47) 
C1=C2CN[C@@](c3ccccc3)(C1)n1ncnc1N2 (chirality)
C1=C2CN[C@@](c3ccccc3)(C1)n1ncnc1N2 (3D coordinates assigned)
C1=C2CN[C@@](c3ccccc3)(C1)n1ncnc1N2 (nonaromatic ring conformer: 129.41066743967193 kcal/mol)

>  <smiles>  (47) 
C1=C2CNC(c3ccccc3)(C1)n1ncnc1N2

>  <score_type>  (47) 
oracle

>  <origin>  (47) 
adg

>  <m_score__min__energy>  (47) 
-7.1799999999999997

>  <m_primary>  (47) 
energy

$$$$
47:0
     RDKit          3D

 44 47  0  0  0  0  0  0  0  0999 V2000
   -8.3640   19.9000  -31.2890 C   0  0  0  0  0  0  0  0  0  0  0  0
   -7.1470   19.9080  -32.0980 N   0  0  0  0  0  0  0  0  0  0  0  0
   -6.2060   20.8890  -32.2010 C   0  0  0  0  0  0  0  0  0  0  0  0
   -6.2850   22.1730  -31.5520 N   0  0  0  0  0  0  0  0  0  0  0  0
   -7.4440   22.6240  -30.7950 C   0  0  0  0  0  0  0  0  0  0  0  0
   -7.2410   24.1150  -30.5530 C   0  0  0  0  0  0  0  0  0  0  0  0
   -6.0770   24.5440  -31.4410 C   0  0  0  0  0  0  0  0  0  0  0  0
   -5.3700   23.2590  -31.8800 C   0  0  1  0  0  0  0  0  0  0  0  0
   -4.0050   23.0350  -31.2000 C   0  0  0  0  0  0  0  0  0  0  0  0
   -3.4920   24.2440  -30.6310 O   0  0  0  0  0  0  0  0  0  0  0  0
   -3.2380   24.4750  -29.2720 C   0  0  0  0  0  0  0  0  0  0  0  0
   -4.2700   24.2290  -28.3580 C   0  0  0  0  0  0  0  0  0  0  0  0
   -4.0770   24.4550  -26.9920 C   0  0  0  0  0  0  0  0  0  0  0  0
   -2.8440   24.9180  -26.5270 C   0  0  0  0  0  0  0  0  0  0  0  0
   -1.8010   25.1490  -27.4270 C   0  0  0  0  0  0  0  0  0  0  0  0
   -1.9900   24.9250  -28.7940 C   0  0  0  0  0  0  0  0  0  0  0  0
   -5.1470   20.5420  -32.9800 N   0  0  0  0  0  0  0  0  0  0  0  0
   -5.4630   19.3020  -33.3890 C   0  0  0  0  0  0  0  0  0  0  0  0
   -4.7180   18.4720  -34.2240 C   0  0  0  0  0  0  0  0  0  0  0  0
   -5.2430   17.2030  -34.5250 C   0  0  0  0  0  0  0  0  0  0  0  0
   -6.4860   16.7990  -33.9910 C   0  0  0  0  0  0  0  0  0  0  0  0
   -7.2160   17.6600  -33.1500 C   0  0  0  0  0  0  0  0  0  0  0  0
   -6.6660   18.9150  -32.8690 C   0  0  0  0  0  0  0  0  0  0  0  0
   -8.0952   19.9018  -30.2223 H   0  0  0  0  0  0  0  0  0  0  0  0
   -8.9623   20.7942  -31.5179 H   0  0  0  0  0  0  0  0  0  0  0  0
   -8.9505   18.9980  -31.5179 H   0  0  0  0  0  0  0  0  0  0  0  0
   -8.3655   22.4533  -31.3710 H   0  0  0  0  0  0  0  0  0  0  0  0
   -7.5421   22.0742  -29.8473 H   0  0  0  0  0  0  0  0  0  0  0  0
   -8.1506   24.6712  -30.8239 H   0  0  0  0  0  0  0  0  0  0  0  0
   -7.0294   24.3206  -29.4933 H   0  0  0  0  0  0  0  0  0  0  0  0
   -6.4503   25.0915  -32.3190 H   0  0  0  0  0  0  0  0  0  0  0  0
   -5.3897   25.2122  -30.9014 H   0  0  0  0  0  0  0  0  0  0  0  0
   -5.1400   23.3166  -32.9541 H   0  0  0  0  0  0  0  0  0  0  0  0
   -4.1229   22.2874  -30.4018 H   0  0  0  0  0  0  0  0  0  0  0  0
   -3.2943   22.6873  -31.9642 H   0  0  0  0  0  0  0  0  0  0  0  0
   -5.2400   23.8551  -28.7176 H   0  0  0  0  0  0  0  0  0  0  0  0
   -4.8968   24.2681  -26.2828 H   0  0  0  0  0  0  0  0  0  0  0  0
   -2.6944   25.1006  -25.4526 H   0  0  0  0  0  0  0  0  0  0  0  0
   -0.8285   25.5081  -27.0592 H   0  0  0  0  0  0  0  0  0  0  0  0
   -1.1634   25.1002  -29.4982 H   0  0  0  0  0  0  0  0  0  0  0  0
   -3.7510   18.7988  -34.6342 H   0  0  0  0  0  0  0  0  0  0  0  0
   -4.6819   16.5207  -35.1805 H   0  0  0  0  0  0  0  0  0  0  0  0
   -6.8870   15.8039  -34.2340 H   0  0  0  0  0  0  0  0  0  0  0  0
   -8.1855   17.3563  -32.7283 H   0  0  0  0  0  0  0  0  0  0  0  0
  1  2  1  0
  2  3  1  0
  3  4  1  0
  4  5  1  0
  5  6  1  0
  6  7  1  0
  7  8  1  0
  8  9  1  0
  9 10  1  0
 10 11  1  0
 11 12  2  0
 12 13  1  0
 13 14  2  0
 14 15  1  0
 15 16  2  0
  3 17  2  0
 17 18  1  0
 18 19  2  0
 19 20  1  0
 20 21  2  0
 21 22  1  0
 22 23  2  0
 23  2  1  0
  8  4  1  0
 16 11  1  0
 23 18  1  0
  1 24  1  0
  1 25  1  0
  1 26  1  0
  5 27  1  0
  5 28  1  0
  6 29  1  0
  6 30  1  0
  7 31  1  0
  7 32  1  0
  8 33  1  6
  9 34  1  0
  9 35  1  0
 12 36  1  0
 13 37  1  0
 14 38  1  0
 15 39  1  0
 16 40  1  0
 19 41  1  0
 20 42  1  0
 21 43  1  0
 22 44  1  0
M  END
>  <UniqueID>  (48) 
44

>  <SMILES>  (48) 
Cn1c(N2CCC[C@H]2COc2ccccc2)nc2ccccc21

>  <Energy>  (48) 
88.80495758058885

>  <Genealogy>  (48) 
Cn1c(N2CCC[C@H]2COc2ccccc2)nc2ccccc21 (chirality)
Cn1c(N2CCC[C@H]2COc2ccccc2)nc2ccccc21 (3D coordinates assigned)
Cn1c(N2CCC[C@H]2COc2ccccc2)nc2ccccc21 (nonaromatic ring conformer: 88.80495758058885 kcal/mol)

>  <smiles>  (48) 
Cn1c(N2CCCC2COc2ccccc2)nc2ccccc21

>  <score_type>  (48) 
oracle

>  <origin>  (48) 
adg

>  <m_score__min__energy>  (48) 
-8.1899999999999995

>  <m_primary>  (48) 
energy

$$$$
48:0
     RDKit          3D

 38 39  0  0  0  0  0  0  0  0999 V2000
   -3.5760   23.2540  -28.7750 C   0  0  0  0  0  0  0  0  0  0  0  0
   -3.4780   24.5040  -29.6500 C   0  0  0  0  0  0  0  0  0  0  0  0
   -4.3390   24.3880  -30.8510 N   0  0  0  0  0  0  0  0  0  0  0  0
   -5.4160   25.4050  -30.8360 C   0  0  0  0  0  0  0  0  0  0  0  0
   -6.1810   25.3510  -29.5150 C   0  0  0  0  0  0  0  0  0  0  0  0
   -4.8940   23.0150  -30.9800 C   0  0  0  0  0  0  0  0  0  0  0  0
   -5.5980   22.8270  -32.3320 C   0  0  0  0  0  0  0  0  0  0  0  0
   -6.8100   21.9820  -32.2120 N   0  0  0  0  0  0  0  0  0  0  0  0
   -7.9690   22.5770  -31.7570 C   0  0  0  0  0  0  0  0  0  0  0  0
   -7.9850   23.7990  -31.4370 O   0  0  0  0  0  0  0  0  0  0  0  0
   -9.1510   21.8490  -31.6360 C   0  0  0  0  0  0  0  0  0  0  0  0
   -9.1730   20.5040  -31.9660 C   0  0  0  0  0  0  0  0  0  0  0  0
   -8.0060   19.8770  -32.4040 C   0  0  0  0  0  0  0  0  0  0  0  0
   -8.0280   18.5090  -32.7140 C   0  0  0  0  0  0  0  0  0  0  0  0
   -6.8650   17.8640  -33.1290 C   0  0  0  0  0  0  0  0  0  0  0  0
   -5.6740   18.5760  -33.2340 C   0  0  0  0  0  0  0  0  0  0  0  0
   -5.6350   19.9390  -32.9320 C   0  0  0  0  0  0  0  0  0  0  0  0
   -6.8050   20.6290  -32.5200 C   0  0  0  0  0  0  0  0  0  0  0  0
   -3.5531   23.5459  -27.7147 H   0  0  0  0  0  0  0  0  0  0  0  0
   -4.5181   22.7286  -28.9904 H   0  0  0  0  0  0  0  0  0  0  0  0
   -2.7273   22.5882  -28.9904 H   0  0  0  0  0  0  0  0  0  0  0  0
   -3.7968   25.3782  -29.0634 H   0  0  0  0  0  0  0  0  0  0  0  0
   -2.4346   24.6168  -29.9797 H   0  0  0  0  0  0  0  0  0  0  0  0
   -4.9726   26.4043  -30.9575 H   0  0  0  0  0  0  0  0  0  0  0  0
   -6.1136   25.1982  -31.6610 H   0  0  0  0  0  0  0  0  0  0  0  0
   -5.4700   25.4012  -28.6772 H   0  0  0  0  0  0  0  0  0  0  0  0
   -6.8752   26.2024  -29.4582 H   0  0  0  0  0  0  0  0  0  0  0  0
   -6.7487   24.4105  -29.4582 H   0  0  0  0  0  0  0  0  0  0  0  0
   -4.0736   22.2869  -30.8980 H   0  0  0  0  0  0  0  0  0  0  0  0
   -5.6309   22.8597  -30.1782 H   0  0  0  0  0  0  0  0  0  0  0  0
   -5.8896   23.8137  -32.7212 H   0  0  0  0  0  0  0  0  0  0  0  0
   -4.8973   22.3227  -33.0137 H   0  0  0  0  0  0  0  0  0  0  0  0
  -10.0667   22.3426  -31.2784 H   0  0  0  0  0  0  0  0  0  0  0  0
  -10.1085   19.9313  -31.8830 H   0  0  0  0  0  0  0  0  0  0  0  0
   -8.9675   17.9432  -32.6290 H   0  0  0  0  0  0  0  0  0  0  0  0
   -6.8882   16.7918  -33.3737 H   0  0  0  0  0  0  0  0  0  0  0  0
   -4.7569   18.0617  -33.5571 H   0  0  0  0  0  0  0  0  0  0  0  0
   -4.6840   20.4856  -33.0146 H   0  0  0  0  0  0  0  0  0  0  0  0
  1  2  1  0
  2  3  1  0
  3  4  1  0
  4  5  1  0
  3  6  1  0
  6  7  1  0
  7  8  1  0
  8  9  1  0
  9 10  2  0
  9 11  1  0
 11 12  2  0
 12 13  1  0
 13 14  2  0
 14 15  1  0
 15 16  2  0
 16 17  1  0
 17 18  2  0
 18  8  1  0
 18 13  1  0
  1 19  1  0
  1 20  1  0
  1 21  1  0
  2 22  1  0
  2 23  1  0
  4 24  1  0
  4 25  1  0
  5 26  1  0
  5 27  1  0
  5 28  1  0
  6 29  1  0
  6 30  1  0
  7 31  1  0
  7 32  1  0
 11 33  1  0
 12 34  1  0
 14 35  1  0
 15 36  1  0
 16 37  1  0
 17 38  1  0
M  END
>  <UniqueID>  (49) 
45

>  <SMILES>  (49) 
CCN(CC)CCn1c(=O)ccc2ccccc21

>  <Energy>  (49) 
45.2152390056651

>  <Genealogy>  (49) 
CCN(CC)CCn1c(=O)ccc2ccccc21 (3D coordinates assigned)
CCN(CC)CCn1c(=O)ccc2ccccc21 (optimized conformer: 45.2152390056651 kcal/mol)

>  <smiles>  (49) 
CCN(CC)CCn1c(=O)ccc2ccccc21

>  <score_type>  (49) 
oracle

>  <origin>  (49) 
adg

>  <m_score__min__energy>  (49) 
-7.3600000000000003

>  <m_primary>  (49) 
energy

$$$$
