0:0
     RDKit          3D

 29 30  0  0  0  0  0  0  0  0999 V2000
   -1.2410   21.9560  -30.7800 C   0  0  0  0  0  0  0  0  0  0  0  0
   -2.0280   22.0350  -29.5110 C   0  0  0  0  0  0  0  0  0  0  0  0
   -2.2620   20.9890  -28.7510 O   0  0  0  0  0  0  0  0  0  0  0  0
   -3.0000   21.3620  -27.7300 C   0  0  0  0  0  0  0  0  0  0  0  0
   -3.2670   22.7130  -27.8140 C   0  0  0  0  0  0  0  0  0  0  0  0
   -2.6240   23.1560  -28.9510 C   0  0  0  0  0  0  0  0  0  0  0  0
   -2.6410   24.5460  -29.4540 C   0  0  0  0  0  0  0  0  0  0  0  0
   -1.8300   25.3780  -28.9710 O   0  0  0  0  0  0  0  0  0  0  0  0
   -3.5670   24.9850  -30.4550 N   0  0  0  0  0  0  0  0  0  0  0  0
   -4.7790   24.3180  -30.8360 C   0  0  0  0  0  0  0  0  0  0  0  0
   -4.6960   23.1640  -31.6210 C   0  0  0  0  0  0  0  0  0  0  0  0
   -5.8560   22.4870  -32.0090 C   0  0  0  0  0  0  0  0  0  0  0  0
   -7.1150   22.9440  -31.6040 C   0  0  0  0  0  0  0  0  0  0  0  0
   -8.2480   22.2310  -32.0240 O   0  0  0  0  0  0  0  0  0  0  0  0
   -8.9670   21.3010  -31.2180 C   0  0  0  0  0  0  0  0  0  0  0  0
   -9.2490   20.1760  -31.9680 F   0  0  0  0  0  0  0  0  0  0  0  0
  -10.1540   21.8660  -30.7910 F   0  0  0  0  0  0  0  0  0  0  0  0
   -7.1990   24.0920  -30.7920 C   0  0  0  0  0  0  0  0  0  0  0  0
   -6.0380   24.7670  -30.4050 C   0  0  0  0  0  0  0  0  0  0  0  0
   -0.1723   21.8487  -30.5426 H   0  0  0  0  0  0  0  0  0  0  0  0
   -1.5756   21.0869  -31.3655 H   0  0  0  0  0  0  0  0  0  0  0  0
   -1.3962   22.8742  -31.3655 H   0  0  0  0  0  0  0  0  0  0  0  0
   -3.3523   20.6966  -26.9281 H   0  0  0  0  0  0  0  0  0  0  0  0
   -3.8694   23.3139  -27.1168 H   0  0  0  0  0  0  0  0  0  0  0  0
   -3.7118   22.7864  -31.9353 H   0  0  0  0  0  0  0  0  0  0  0  0
   -5.7784   21.5878  -32.6378 H   0  0  0  0  0  0  0  0  0  0  0  0
   -8.3564   21.0312  -30.3437 H   0  0  0  0  0  0  0  0  0  0  0  0
   -8.1820   24.4585  -30.4613 H   0  0  0  0  0  0  0  0  0  0  0  0
   -6.1107   25.6547  -29.7594 H   0  0  0  0  0  0  0  0  0  0  0  0
  1  2  1  0
  2  3  1  0
  3  4  1  0
  4  5  2  0
  5  6  1  0
  6  7  1  0
  7  8  2  0
  7  9  1  0
  9 10  1  0
 10 11  2  0
 11 12  1  0
 12 13  2  0
 13 14  1  0
 14 15  1  0
 15 16  1  0
 15 17  1  0
 13 18  1  0
 18 19  2  0
  6  2  2  0
 19 10  1  0
  1 20  1  0
  1 21  1  0
  1 22  1  0
  4 23  1  0
  5 24  1  0
 11 25  1  0
 12 26  1  0
 15 27  1  0
 18 28  1  0
 19 29  1  0
M  CHG  1   9  -1
M  END
>  <UniqueID>  (1) 
1

>  <SMILES>  (1) 
Cc1occc1C(=O)[N-]c1ccc(OC(F)F)cc1

>  <Energy>  (1) 
60.82149608440696

>  <Genealogy>  (1) 
Cc1occc1C(=O)[N-]c1ccc(OC(F)F)cc1 (protonated)
Cc1occc1C(=O)[N-]c1ccc(OC(F)F)cc1 (3D coordinates assigned)
Cc1occc1C(=O)[N-]c1ccc(OC(F)F)cc1 (optimized conformer: 60.82149608440696 kcal/mol)

>  <smiles>  (1) 
Cc1occc1C(=O)Nc1ccc(OC(F)F)cc1

>  <score_type>  (1) 
oracle

>  <origin>  (1) 
adg

>  <m_score__min__energy>  (1) 
-7.0300000000000002

>  <m_primary>  (1) 
energy

$$$$
1:0
     RDKit          3D

 29 32  0  0  0  0  0  0  0  0999 V2000
   -5.7160   26.0270  -30.3930 S   0  0  0  0  0  0  0  0  0  0  0  0
   -5.1620   24.5550  -30.8410 C   0  0  0  0  0  0  0  0  0  0  0  0
   -3.8670   24.2040  -30.5960 N   0  0  0  0  0  0  0  0  0  0  0  0
   -3.3560   22.9870  -30.9650 C   0  0  0  0  0  0  0  0  0  0  0  0
   -2.0100   22.6980  -30.7140 C   0  0  0  0  0  0  0  0  0  0  0  0
   -1.4630   21.4860  -31.1360 C   0  0  0  0  0  0  0  0  0  0  0  0
   -2.2500   20.5610  -31.8260 C   0  0  0  0  0  0  0  0  0  0  0  0
   -3.5980   20.8290  -32.0820 C   0  0  0  0  0  0  0  0  0  0  0  0
   -4.1780   22.0260  -31.6250 C   0  0  0  0  0  0  0  0  0  0  0  0
   -5.5260   22.3880  -31.8210 C   0  0  0  0  0  0  0  0  0  0  0  0
   -5.9840   23.6230  -31.4680 C   0  0  0  0  0  0  0  0  0  0  0  0
   -7.2820   23.7330  -31.8020 N   0  0  0  0  0  0  0  0  0  0  0  0
   -7.6140   22.5630  -32.3390 N   0  0  0  0  0  0  0  0  0  0  0  0
   -6.5770   21.7310  -32.3600 N   0  0  0  0  0  0  0  0  0  0  0  0
   -6.7050   20.3520  -32.7190 C   0  0  0  0  0  0  0  0  0  0  0  0
   -7.4520   19.4840  -31.9100 C   0  0  0  0  0  0  0  0  0  0  0  0
   -7.5450   18.1270  -32.2350 C   0  0  0  0  0  0  0  0  0  0  0  0
   -6.8800   17.6280  -33.3590 C   0  0  0  0  0  0  0  0  0  0  0  0
   -6.1140   18.4850  -34.1560 C   0  0  0  0  0  0  0  0  0  0  0  0
   -6.0180   19.8420  -33.8320 C   0  0  0  0  0  0  0  0  0  0  0  0
   -1.3818   23.4282  -30.1827 H   0  0  0  0  0  0  0  0  0  0  0  0
   -0.4079   21.2579  -30.9246 H   0  0  0  0  0  0  0  0  0  0  0  0
   -1.8061   19.6153  -32.1703 H   0  0  0  0  0  0  0  0  0  0  0  0
   -4.2058   20.1027  -32.6416 H   0  0  0  0  0  0  0  0  0  0  0  0
   -7.9659   19.8712  -31.0178 H   0  0  0  0  0  0  0  0  0  0  0  0
   -8.1423   17.4512  -31.6053 H   0  0  0  0  0  0  0  0  0  0  0  0
   -6.9592   16.5615  -33.6166 H   0  0  0  0  0  0  0  0  0  0  0  0
   -5.5870   18.0915  -35.0377 H   0  0  0  0  0  0  0  0  0  0  0  0
   -5.4026   20.5115  -34.4509 H   0  0  0  0  0  0  0  0  0  0  0  0
  1  2  2  0
  2  3  1  0
  3  4  1  0
  4  5  2  0
  5  6  1  0
  6  7  2  0
  7  8  1  0
  8  9  2  0
  9 10  1  0
 10 11  2  0
 11 12  1  0
 12 13  2  0
 13 14  1  0
 14 15  1  0
 15 16  2  0
 16 17  1  0
 17 18  2  0
 18 19  1  0
 19 20  2  0
 11  2  1  0
 20 15  1  0
  9  4  1  0
 14 10  1  0
  5 21  1  0
  6 22  1  0
  7 23  1  0
  8 24  1  0
 16 25  1  0
 17 26  1  0
 18 27  1  0
 19 28  1  0
 20 29  1  0
M  CHG  1   3  -1
M  END
>  <UniqueID>  (2) 
2

>  <SMILES>  (2) 
S=c1[n-]c2ccccc2c2c1nnn2-c1ccccc1

>  <Energy>  (2) 
92.75817580265631

>  <Genealogy>  (2) 
S=c1[n-]c2ccccc2c2c1nnn2-c1ccccc1 (protonated)
S=c1[n-]c2ccccc2c2c1nnn2-c1ccccc1 (3D coordinates assigned)
S=c1[n-]c2ccccc2c2c1nnn2-c1ccccc1 (optimized conformer: 92.75817580265631 kcal/mol)

>  <smiles>  (2) 
S=c1[nH]c2ccccc2c2c1nnn2-c1ccccc1

>  <score_type>  (2) 
oracle

>  <origin>  (2) 
adg

>  <m_score__min__energy>  (2) 
-9.0199999999999996

>  <m_primary>  (2) 
energy

$$$$
2:0
     RDKit          3D

 39 41  0  0  0  0  0  0  0  0999 V2000
   -5.5880   24.5800  -29.2040 O   0  0  0  0  0  0  0  0  0  0  0  0
   -4.3360   24.1800  -29.9310 S   0  0  0  0  0  0  0  0  0  0  0  0
   -3.8630   25.3080  -30.8230 O   0  0  0  0  0  0  0  0  0  0  0  0
   -3.1200   23.7120  -28.7910 C   0  0  0  0  0  0  0  0  0  0  0  0
   -2.0940   24.6270  -28.5400 C   0  0  0  0  0  0  0  0  0  0  0  0
   -1.0840   24.3400  -27.6490 C   0  0  0  0  0  0  0  0  0  0  0  0
   -1.0870   23.1090  -26.9830 C   0  0  0  0  0  0  0  0  0  0  0  0
   -2.1070   22.2070  -27.2380 C   0  0  0  0  0  0  0  0  0  0  0  0
   -3.1250   22.4880  -28.1320 C   0  0  0  0  0  0  0  0  0  0  0  0
   -4.7540   22.8070  -30.9230 C   0  0  0  0  0  0  0  0  0  0  0  0
   -5.7550   22.1000  -31.0530 N   0  0  0  0  0  0  0  0  0  0  0  0
   -5.9290   21.1120  -31.8290 N   0  0  0  0  0  0  0  0  0  0  0  0
   -7.1380   20.3280  -31.9260 C   0  0  0  0  0  0  0  0  0  0  0  0
   -8.3380   20.8930  -32.3020 C   0  0  0  0  0  0  0  0  0  0  0  0
   -9.5080   20.1700  -32.4030 C   0  0  0  0  0  0  0  0  0  0  0  0
   -9.4320   18.8150  -32.1050 C   0  0  0  0  0  0  0  0  0  0  0  0
   -8.2410   18.2260  -31.7250 C   0  0  0  0  0  0  0  0  0  0  0  0
   -7.0720   18.9620  -31.6270 C   0  0  0  0  0  0  0  0  0  0  0  0
   -4.8620   20.7940  -32.6220 C   0  0  0  0  0  0  0  0  0  0  0  0
   -4.6870   19.8010  -33.5710 N   0  0  0  0  0  0  0  0  0  0  0  0
   -4.4670   18.3850  -33.2540 C   0  0  0  0  0  0  0  0  0  0  0  0
   -5.3140   17.4960  -34.1250 C   0  0  0  0  0  0  0  0  0  0  0  0
   -6.1080   18.2470  -34.9640 F   0  0  0  0  0  0  0  0  0  0  0  0
   -4.4420   16.7840  -34.9260 F   0  0  0  0  0  0  0  0  0  0  0  0
   -6.0280   16.5710  -33.4070 F   0  0  0  0  0  0  0  0  0  0  0  0
   -3.6130   22.0440  -32.1390 S   0  0  0  0  0  0  0  0  0  0  0  0
   -2.0932   25.5943  -29.0638 H   0  0  0  0  0  0  0  0  0  0  0  0
   -0.2831   25.0707  -27.4626 H   0  0  0  0  0  0  0  0  0  0  0  0
   -0.2900   22.8610  -26.2666 H   0  0  0  0  0  0  0  0  0  0  0  0
   -2.1077   21.2395  -26.7147 H   0  0  0  0  0  0  0  0  0  0  0  0
   -3.9244   21.7556  -28.3180 H   0  0  0  0  0  0  0  0  0  0  0  0
   -8.3634   21.9685  -32.5317 H   0  0  0  0  0  0  0  0  0  0  0  0
  -10.4544   20.6426  -32.7045 H   0  0  0  0  0  0  0  0  0  0  0  0
  -10.3398   18.1975  -32.1730 H   0  0  0  0  0  0  0  0  0  0  0  0
   -8.2211   17.1504  -31.4956 H   0  0  0  0  0  0  0  0  0  0  0  0
   -6.1254   18.4901  -31.3250 H   0  0  0  0  0  0  0  0  0  0  0  0
   -4.7120   20.0630  -34.5890 H   0  0  0  0  0  0  0  0  0  0  0  0
   -3.4066   18.1413  -33.4157 H   0  0  0  0  0  0  0  0  0  0  0  0
   -4.7474   18.2147  -32.2041 H   0  0  0  0  0  0  0  0  0  0  0  0
  1  2  2  0
  2  3  2  0
  2  4  1  0
  4  5  2  0
  5  6  1  0
  6  7  2  0
  7  8  1  0
  8  9  2  0
  2 10  1  0
 10 11  2  0
 11 12  1  0
 12 13  1  0
 13 14  2  0
 14 15  1  0
 15 16  2  0
 16 17  1  0
 17 18  2  0
 12 19  2  0
 19 20  1  0
 20 21  1  0
 21 22  1  0
 22 23  1  0
 22 24  1  0
 22 25  1  0
 19 26  1  0
  9  4  1  0
 26 10  1  0
 18 13  1  0
  5 27  1  0
  6 28  1  0
  7 29  1  0
  8 30  1  0
  9 31  1  0
 14 32  1  0
 15 33  1  0
 16 34  1  0
 17 35  1  0
 18 36  1  0
 20 37  1  0
 21 38  1  0
 21 39  1  0
M  CHG  1  12   1
M  END
>  <smiles>  (3) 
O=S(=O)(c1ccccc1)c1n[n+](-c2ccccc2)c(NCC(F)(F)F)s1

>  <score_type>  (3) 
oracle

>  <origin>  (3) 
adg

>  <m_score__min__energy>  (3) 
-8.0099999999999998

>  <m_primary>  (3) 
energy

$$$$
3:0
     RDKit          3D

 47 49  0  0  0  0  0  0  0  0999 V2000
   -2.0780   18.4720  -34.0870 C   0  0  0  0  0  0  0  0  0  0  0  0
   -3.3860   18.3080  -33.4660 N   0  0  0  0  0  0  0  0  0  0  0  0
   -4.3450   19.3730  -33.4380 C   0  0  0  0  0  0  0  0  0  0  0  0
   -4.0230   20.5270  -33.8340 O   0  0  0  0  0  0  0  0  0  0  0  0
   -5.7100   19.1380  -32.9100 C   0  0  0  0  0  0  0  0  0  0  0  0
   -6.2930   17.8850  -33.1290 C   0  0  0  0  0  0  0  0  0  0  0  0
   -5.5620   16.8960  -33.8130 O   0  0  0  0  0  0  0  0  0  0  0  0
   -5.9100   15.5160  -33.8610 C   0  0  0  0  0  0  0  0  0  0  0  0
   -7.5870   17.6510  -32.6690 C   0  0  0  0  0  0  0  0  0  0  0  0
   -8.3030   18.6660  -32.0450 C   0  0  0  0  0  0  0  0  0  0  0  0
   -9.4710   18.3970  -31.6440 O   0  0  0  0  0  0  0  0  0  0  0  0
   -7.7620   19.9200  -31.8630 N   0  0  0  0  0  0  0  0  0  0  0  0
   -6.4310   20.1470  -32.2050 C   0  0  0  0  0  0  0  0  0  0  0  0
   -5.6850   21.4490  -31.8890 C   0  0  0  0  0  0  0  0  0  0  0  0
   -6.3000   22.7240  -32.4640 C   0  0  0  0  0  0  0  0  0  0  0  0
   -7.4870   23.1220  -31.6900 N   0  0  0  0  0  0  0  0  0  0  0  0
   -7.2020   23.4010  -30.2640 C   0  0  0  0  0  0  0  0  0  0  0  0
   -5.7730   23.8140  -29.9960 C   0  0  0  0  0  0  0  0  0  0  0  0
   -4.9900   23.1230  -29.0600 C   0  0  0  0  0  0  0  0  0  0  0  0
   -3.6760   23.5230  -28.8140 C   0  0  0  0  0  0  0  0  0  0  0  0
   -3.1480   24.6070  -29.5170 C   0  0  0  0  0  0  0  0  0  0  0  0
   -3.9110   25.2610  -30.4330 N   0  0  0  0  0  0  0  0  0  0  0  0
   -5.1940   24.8920  -30.6870 C   0  0  0  0  0  0  0  0  0  0  0  0
   -8.6830   22.2880  -31.9330 C   0  0  0  0  0  0  0  0  0  0  0  0
   -8.6350   20.9310  -31.2100 C   0  0  0  0  0  0  0  0  0  0  0  0
   -1.3103   18.5683  -33.3051 H   0  0  0  0  0  0  0  0  0  0  0  0
   -1.8564   17.5946  -34.7124 H   0  0  0  0  0  0  0  0  0  0  0  0
   -2.0799   19.3769  -34.7124 H   0  0  0  0  0  0  0  0  0  0  0  0
   -3.6200   17.3940  -33.0190 H   0  0  0  0  0  0  0  0  0  0  0  0
   -6.0082   15.1268  -32.8369 H   0  0  0  0  0  0  0  0  0  0  0  0
   -6.8662   15.3972  -34.3916 H   0  0  0  0  0  0  0  0  0  0  0  0
   -5.1245   14.9580  -34.3916 H   0  0  0  0  0  0  0  0  0  0  0  0
   -8.0440   16.6590  -32.8001 H   0  0  0  0  0  0  0  0  0  0  0  0
   -5.6441   21.5576  -30.7951 H   0  0  0  0  0  0  0  0  0  0  0  0
   -4.6987   21.3516  -32.3661 H   0  0  0  0  0  0  0  0  0  0  0  0
   -5.5558   23.5332  -32.4261 H   0  0  0  0  0  0  0  0  0  0  0  0
   -6.6027   22.5335  -33.5042 H   0  0  0  0  0  0  0  0  0  0  0  0
   -7.8657   24.2122  -29.9301 H   0  0  0  0  0  0  0  0  0  0  0  0
   -7.3726   22.4636  -29.7143 H   0  0  0  0  0  0  0  0  0  0  0  0
   -5.4126   22.2638  -28.5186 H   0  0  0  0  0  0  0  0  0  0  0  0
   -3.0624   22.9893  -28.0733 H   0  0  0  0  0  0  0  0  0  0  0  0
   -2.1140   24.9324  -29.3299 H   0  0  0  0  0  0  0  0  0  0  0  0
   -5.7825   25.4401  -31.4375 H   0  0  0  0  0  0  0  0  0  0  0  0
   -9.5693   22.8384  -31.5843 H   0  0  0  0  0  0  0  0  0  0  0  0
   -8.7223   22.0810  -33.0126 H   0  0  0  0  0  0  0  0  0  0  0  0
   -8.2637   21.0981  -30.1881 H   0  0  0  0  0  0  0  0  0  0  0  0
   -9.6574   20.5258  -31.2327 H   0  0  0  0  0  0  0  0  0  0  0  0
  1  2  1  0
  2  3  1  0
  3  4  2  0
  3  5  1  0
  5  6  1  0
  6  7  1  0
  7  8  1  0
  6  9  2  0
  9 10  1  0
 10 11  2  0
 10 12  1  0
 12 13  1  0
 13 14  1  0
 14 15  1  0
 15 16  1  0
 16 17  1  0
 17 18  1  0
 18 19  2  0
 19 20  1  0
 20 21  2  0
 21 22  1  0
 22 23  2  0
 16 24  1  0
 24 25  1  0
 13  5  2  0
 23 18  1  0
 25 12  1  0
  1 26  1  0
  1 27  1  0
  1 28  1  0
  2 29  1  0
  8 30  1  0
  8 31  1  0
  8 32  1  0
  9 33  1  0
 14 34  1  0
 14 35  1  0
 15 36  1  0
 15 37  1  0
 17 38  1  0
 17 39  1  0
 19 40  1  0
 20 41  1  0
 21 42  1  0
 23 43  1  0
 24 44  1  0
 24 45  1  0
 25 46  1  0
 25 47  1  0
M  END
>  <UniqueID>  (4) 
3

>  <SMILES>  (4) 
CNC(=O)c1c(OC)cc(=O)n2c1CCN(Cc1cccnc1)CC2

>  <Energy>  (4) 
76.65692886819568

>  <Genealogy>  (4) 
CNC(=O)c1c(OC)cc(=O)n2c1CCN(Cc1cccnc1)CC2 (3D coordinates assigned)
CNC(=O)c1c(OC)cc(=O)n2c1CCN(Cc1cccnc1)CC2 (nonaromatic ring conformer: 76.65692886819568 kcal/mol)

>  <smiles>  (4) 
CNC(=O)c1c(OC)cc(=O)n2c1CCN(Cc1cccnc1)CC2

>  <score_type>  (4) 
oracle

>  <origin>  (4) 
adg

>  <m_score__min__energy>  (4) 
-6.6500000000000004

>  <m_primary>  (4) 
energy

$$$$
4:0
     RDKit          3D

 57 61  0  0  1  0  0  0  0  0999 V2000
   -8.8510   23.1090  -31.9850 C   0  0  0  0  0  0  0  0  0  0  0  0
   -9.4210   21.7050  -31.9710 C   0  0  0  0  0  0  0  0  0  0  0  0
   -8.3400   20.6750  -31.9800 C   0  0  0  0  0  0  0  0  0  0  0  0
   -8.6580   19.3750  -31.6070 C   0  0  0  0  0  0  0  0  0  0  0  0
   -7.6560   18.4430  -31.6220 C   0  0  0  0  0  0  0  0  0  0  0  0
   -6.3860   18.8320  -32.0020 C   0  0  0  0  0  0  0  0  0  0  0  0
   -6.0680   20.1220  -32.3730 C   0  0  0  0  0  0  0  0  0  0  0  0
   -4.7300   20.5340  -32.7710 C   0  0  0  0  0  0  0  0  0  0  0  0
   -3.9340   19.7720  -33.5440 N   0  0  0  0  0  0  0  0  0  0  0  0
   -2.7560   20.3840  -33.7480 C   0  0  0  0  0  0  0  0  0  0  0  0
   -1.6630   19.8000  -34.5620 C   0  0  0  0  0  0  0  0  0  0  0  0
   -0.3340   19.5190  -33.9230 C   0  0  0  0  0  0  0  0  0  0  0  0
   -0.5120   20.6290  -34.9470 C   0  0  0  0  0  0  0  0  0  0  0  0
   -2.8160   21.5530  -33.0900 N   0  0  0  0  0  0  0  0  0  0  0  0
   -4.0260   21.6790  -32.4730 C   0  0  0  0  0  0  0  0  0  0  0  0
   -4.4630   22.8130  -31.6810 C   0  0  0  0  0  0  0  0  0  0  0  0
   -5.7100   23.3650  -31.7030 C   0  0  0  0  0  0  0  0  0  0  0  0
   -6.0840   24.4490  -30.9300 C   0  0  0  0  0  0  0  0  0  0  0  0
   -5.1270   24.9570  -30.1220 N   0  0  0  0  0  0  0  0  0  0  0  0
   -3.9070   24.4130  -30.1030 C   0  0  0  0  0  0  0  0  0  0  0  0
   -3.0370   24.9320  -29.3120 N   0  0  0  0  0  0  0  0  0  0  0  0
   -2.3200   24.2210  -28.2800 C   0  0  0  0  0  0  0  0  0  0  0  0
   -3.0930   23.1330  -27.6160 C   0  0  0  0  0  0  0  0  0  0  0  0
   -2.2560   21.8690  -27.4850 C   0  0  0  0  0  0  0  0  0  0  0  0
   -0.8970   22.2730  -26.9230 C   0  0  0  0  0  0  0  0  0  0  0  0
   -0.1140   23.0280  -27.9830 C   0  0  0  0  0  0  0  0  0  0  0  0
   -1.0380   23.7070  -28.9480 C   0  0  0  0  0  0  0  0  0  0  0  0
   -3.5300   23.3620  -30.8470 N   0  0  0  0  0  0  0  0  0  0  0  0
   -7.1080   21.0080  -32.3390 N   0  0  0  0  0  0  0  0  0  0  0  0
   -8.7095   23.4576  -30.9513 H   0  0  0  0  0  0  0  0  0  0  0  0
   -7.8827   23.1064  -32.5069 H   0  0  0  0  0  0  0  0  0  0  0  0
   -9.5471   23.7821  -32.5069 H   0  0  0  0  0  0  0  0  0  0  0  0
  -10.0303   21.5757  -31.0643 H   0  0  0  0  0  0  0  0  0  0  0  0
  -10.0320   21.5717  -32.8759 H   0  0  0  0  0  0  0  0  0  0  0  0
   -9.6816   19.1037  -31.3094 H   0  0  0  0  0  0  0  0  0  0  0  0
   -7.8587   17.4004  -31.3359 H   0  0  0  0  0  0  0  0  0  0  0  0
   -5.5881   18.0748  -32.0091 H   0  0  0  0  0  0  0  0  0  0  0  0
   -2.3930   19.1958  -35.1207 H   0  0  0  0  0  0  0  0  0  0  0  0
   -0.1649   19.7630  -32.8638 H   0  0  0  0  0  0  0  0  0  0  0  0
    0.3202   18.6409  -33.8180 H   0  0  0  0  0  0  0  0  0  0  0  0
   -0.4626   21.6814  -34.6306 H   0  0  0  0  0  0  0  0  0  0  0  0
   -0.0283   20.8917  -35.8994 H   0  0  0  0  0  0  0  0  0  0  0  0
   -2.0230   22.2460  -33.0770 H   0  0  0  0  0  0  0  0  0  0  0  0
   -6.4611   22.9227  -32.3739 H   0  0  0  0  0  0  0  0  0  0  0  0
   -7.0986   24.8720  -30.9703 H   0  0  0  0  0  0  0  0  0  0  0  0
   -5.3340   25.7810  -29.5050 H   0  0  0  0  0  0  0  0  0  0  0  0
   -2.1066   24.9014  -27.4424 H   0  0  0  0  0  0  0  0  0  0  0  0
   -3.3969   23.4683  -26.6134 H   0  0  0  0  0  0  0  0  0  0  0  0
   -3.9760   22.9056  -28.2313 H   0  0  0  0  0  0  0  0  0  0  0  0
   -2.7491   21.1615  -26.8022 H   0  0  0  0  0  0  0  0  0  0  0  0
   -2.1398   21.3791  -28.4630 H   0  0  0  0  0  0  0  0  0  0  0  0
   -1.0411   22.9188  -26.0443 H   0  0  0  0  0  0  0  0  0  0  0  0
   -0.3397   21.3715  -26.6286 H   0  0  0  0  0  0  0  0  0  0  0  0
    0.5162   23.7855  -27.4940 H   0  0  0  0  0  0  0  0  0  0  0  0
    0.5084   22.3106  -28.5379 H   0  0  0  0  0  0  0  0  0  0  0  0
   -0.5102   24.5601  -29.3993 H   0  0  0  0  0  0  0  0  0  0  0  0
   -1.3326   22.9641  -29.7039 H   0  0  0  0  0  0  0  0  0  0  0  0
  1  2  1  0
  2  3  1  0
  3  4  2  0
  4  5  1  0
  5  6  2  0
  6  7  1  0
  7  8  1  0
  8  9  1  0
  9 10  2  0
 10 11  1  0
 11 12  1  0
 12 13  1  0
 10 14  1  0
 14 15  1  0
 15 16  1  0
 16 17  1  0
 17 18  2  0
 18 19  1  0
 19 20  1  0
 20 21  2  0
 21 22  1  0
 22 23  1  0
 23 24  1  0
 24 25  1  0
 25 26  1  0
 26 27  1  0
 20 28  1  0
  7 29  2  0
 29  3  1  0
 15  8  2  0
 28 16  2  0
 13 11  1  0
 27 22  1  0
  1 30  1  0
  1 31  1  0
  1 32  1  0
  2 33  1  0
  2 34  1  0
  4 35  1  0
  5 36  1  0
  6 37  1  0
 11 38  1  0
 12 39  1  0
 12 40  1  0
 13 41  1  0
 13 42  1  0
 14 43  1  0
 17 44  1  0
 18 45  1  0
 19 46  1  0
 22 47  1  0
 23 48  1  0
 23 49  1  0
 24 50  1  0
 24 51  1  0
 25 52  1  0
 25 53  1  0
 26 54  1  0
 26 55  1  0
 27 56  1  0
 27 57  1  0
M  END
>  <smiles>  (5) 
CCc1cccc(-c2nc(C3CC3)[nH]c2-c2cc[nH]c(=NC3CCCCC3)n2)n1

>  <score_type>  (5) 
oracle

>  <origin>  (5) 
adg

>  <m_score__min__energy>  (5) 
-9.7100000000000009

>  <m_primary>  (5) 
energy

$$$$
5:0
     RDKit          3D

 45 47  0  0  0  0  0  0  0  0999 V2000
   -5.2360   25.7050  -30.4440 C   0  0  0  0  0  0  0  0  0  0  0  0
   -3.8800   25.2720  -30.4740 O   0  0  0  0  0  0  0  0  0  0  0  0
   -3.4770   23.9290  -30.5030 C   0  0  0  0  0  0  0  0  0  0  0  0
   -2.4590   23.4280  -29.6710 C   0  0  0  0  0  0  0  0  0  0  0  0
   -2.0970   22.0800  -29.7360 C   0  0  0  0  0  0  0  0  0  0  0  0
   -2.7410   21.2220  -30.6300 C   0  0  0  0  0  0  0  0  0  0  0  0
   -3.7490   21.7090  -31.4740 C   0  0  0  0  0  0  0  0  0  0  0  0
   -4.4540   20.7900  -32.4360 C   0  0  0  0  0  0  0  0  0  0  0  0
   -5.6830   20.3250  -31.8810 O   0  0  0  0  0  0  0  0  0  0  0  0
   -6.9180   20.9940  -31.9490 C   0  0  0  0  0  0  0  0  0  0  0  0
   -7.0110   22.3990  -31.8770 C   0  0  0  0  0  0  0  0  0  0  0  0
   -8.2590   23.0270  -31.8960 C   0  0  0  0  0  0  0  0  0  0  0  0
   -9.4240   22.2680  -31.9870 C   0  0  0  0  0  0  0  0  0  0  0  0
   -9.3480   20.8760  -32.0710 C   0  0  0  0  0  0  0  0  0  0  0  0
   -8.1000   20.2320  -32.0730 C   0  0  0  0  0  0  0  0  0  0  0  0
   -8.0470   18.7560  -32.1640 C   0  0  0  0  0  0  0  0  0  0  0  0
   -8.9920   18.0810  -31.6710 O   0  0  0  0  0  0  0  0  0  0  0  0
   -6.9480   18.0800  -32.8040 N   0  0  0  0  0  0  0  0  0  0  0  0
   -6.3380   16.9020  -32.1620 C   0  0  0  0  0  0  0  0  0  0  0  0
   -4.8380   16.8580  -32.4350 C   0  0  0  0  0  0  0  0  0  0  0  0
   -4.6080   16.8850  -33.8720 N   0  0  0  0  0  0  0  0  0  0  0  0
   -5.3910   17.7440  -34.7010 C   0  0  0  0  0  0  0  0  0  0  0  0
   -5.1590   17.8050  -35.9380 O   0  0  0  0  0  0  0  0  0  0  0  0
   -6.4710   18.6000  -34.1000 C   0  0  0  0  0  0  0  0  0  0  0  0
   -4.1180   23.0620  -31.3970 C   0  0  0  0  0  0  0  0  0  0  0  0
   -5.5644   25.8099  -29.3994 H   0  0  0  0  0  0  0  0  0  0  0  0
   -5.3224   26.6754  -30.9547 H   0  0  0  0  0  0  0  0  0  0  0  0
   -5.8688   24.9643  -30.9547 H   0  0  0  0  0  0  0  0  0  0  0  0
   -1.9463   24.0999  -28.9669 H   0  0  0  0  0  0  0  0  0  0  0  0
   -1.3023   21.6935  -29.0810 H   0  0  0  0  0  0  0  0  0  0  0  0
   -2.4564   20.1603  -30.6721 H   0  0  0  0  0  0  0  0  0  0  0  0
   -4.6623   21.3347  -33.3687 H   0  0  0  0  0  0  0  0  0  0  0  0
   -3.8064   19.9237  -32.6362 H   0  0  0  0  0  0  0  0  0  0  0  0
   -6.0954   23.0045  -31.8054 H   0  0  0  0  0  0  0  0  0  0  0  0
   -8.3220   24.1237  -31.8390 H   0  0  0  0  0  0  0  0  0  0  0  0
  -10.4049   22.7659  -31.9927 H   0  0  0  0  0  0  0  0  0  0  0  0
  -10.2708   20.2808  -32.1359 H   0  0  0  0  0  0  0  0  0  0  0  0
   -6.5064   16.9543  -31.0762 H   0  0  0  0  0  0  0  0  0  0  0  0
   -6.8004   15.9936  -32.5756 H   0  0  0  0  0  0  0  0  0  0  0  0
   -4.3543   17.7293  -31.9693 H   0  0  0  0  0  0  0  0  0  0  0  0
   -4.4141   15.9353  -32.0119 H   0  0  0  0  0  0  0  0  0  0  0  0
   -3.9150   16.2310  -34.3020 H   0  0  0  0  0  0  0  0  0  0  0  0
   -6.0738   19.6145  -33.9485 H   0  0  0  0  0  0  0  0  0  0  0  0
   -7.3237   18.5994  -34.7949 H   0  0  0  0  0  0  0  0  0  0  0  0
   -4.9193   23.4450  -32.0460 H   0  0  0  0  0  0  0  0  0  0  0  0
  1  2  1  0
  2  3  1  0
  3  4  2  0
  4  5  1  0
  5  6  2  0
  6  7  1  0
  7  8  1  0
  8  9  1  0
  9 10  1  0
 10 11  2  0
 11 12  1  0
 12 13  2  0
 13 14  1  0
 14 15  2  0
 15 16  1  0
 16 17  2  0
 16 18  1  0
 18 19  1  0
 19 20  1  0
 20 21  1  0
 21 22  1  0
 22 23  2  0
 22 24  1  0
  7 25  2  0
 25  3  1  0
 15 10  1  0
 24 18  1  0
  1 26  1  0
  1 27  1  0
  1 28  1  0
  4 29  1  0
  5 30  1  0
  6 31  1  0
  8 32  1  0
  8 33  1  0
 11 34  1  0
 12 35  1  0
 13 36  1  0
 14 37  1  0
 19 38  1  0
 19 39  1  0
 20 40  1  0
 20 41  1  0
 21 42  1  0
 24 43  1  0
 24 44  1  0
 25 45  1  0
M  END
>  <UniqueID>  (6) 
4

>  <SMILES>  (6) 
COc1cccc(COc2ccccc2C(=O)N2CCNC(=O)C2)c1

>  <Energy>  (6) 
49.93412314600987

>  <Genealogy>  (6) 
COc1cccc(COc2ccccc2C(=O)N2CCNC(=O)C2)c1 (3D coordinates assigned)
COc1cccc(COc2ccccc2C(=O)N2CCNC(=O)C2)c1 (nonaromatic ring conformer: 49.93412314600987 kcal/mol)

>  <smiles>  (6) 
COc1cccc(COc2ccccc2C(=O)N2CCNC(=O)C2)c1

>  <score_type>  (6) 
oracle

>  <origin>  (6) 
adg

>  <m_score__min__energy>  (6) 
-8.3100000000000005

>  <m_primary>  (6) 
energy

$$$$
6:0
     RDKit          3D

 58 61  0  0  0  0  0  0  0  0999 V2000
   -5.5380   26.3950  -30.4560 O   0  0  0  0  0  0  0  0  0  0  0  0
   -4.9230   25.3090  -30.6210 C   0  0  0  0  0  0  0  0  0  0  0  0
   -3.4990   25.2930  -30.4590 N   0  0  0  0  0  0  0  0  0  0  0  0
   -2.8000   24.9010  -29.2400 C   0  0  0  0  0  0  0  0  0  0  0  0
   -2.6390   23.4080  -29.2210 C   0  0  0  0  0  0  0  0  0  0  0  0
   -3.2600   22.6430  -28.2200 C   0  0  0  0  0  0  0  0  0  0  0  0
   -3.0820   21.2570  -28.1800 C   0  0  0  0  0  0  0  0  0  0  0  0
   -2.2750   20.6270  -29.1330 C   0  0  0  0  0  0  0  0  0  0  0  0
   -1.6430   21.3830  -30.1240 C   0  0  0  0  0  0  0  0  0  0  0  0
   -1.8190   22.7700  -30.1660 C   0  0  0  0  0  0  0  0  0  0  0  0
   -5.6850   24.1070  -31.0160 C   0  0  0  0  0  0  0  0  0  0  0  0
   -7.0820   24.0640  -30.8810 C   0  0  0  0  0  0  0  0  0  0  0  0
   -7.7920   22.9260  -31.2750 C   0  0  0  0  0  0  0  0  0  0  0  0
   -7.1170   21.8290  -31.8160 C   0  0  0  0  0  0  0  0  0  0  0  0
   -5.7240   21.8690  -31.9730 C   0  0  0  0  0  0  0  0  0  0  0  0
   -4.8560   20.5090  -32.6810 S   0  0  0  0  0  0  0  0  0  0  0  0
   -3.9830   21.0230  -33.7900 O   0  0  0  0  0  0  0  0  0  0  0  0
   -3.9870   19.8500  -31.6450 O   0  0  0  0  0  0  0  0  0  0  0  0
   -6.0060   19.3540  -33.3120 N   0  0  0  0  0  0  0  0  0  0  0  0
   -6.6290   18.5690  -32.2190 C   0  0  0  0  0  0  0  0  0  0  0  0
   -6.0520   17.1510  -32.1130 C   0  0  0  0  0  0  0  0  0  0  0  0
   -6.2540   16.3910  -33.3680 N   0  0  0  0  0  0  0  0  0  0  0  0
   -5.3490   15.2240  -33.4160 C   0  0  0  0  0  0  0  0  0  0  0  0
   -3.9860   15.6360  -33.9050 C   0  0  0  0  0  0  0  0  0  0  0  0
   -3.5590   15.2600  -35.1890 C   0  0  0  0  0  0  0  0  0  0  0  0
   -2.2960   15.6430  -35.6520 C   0  0  0  0  0  0  0  0  0  0  0  0
   -1.4530   16.4040  -34.8380 C   0  0  0  0  0  0  0  0  0  0  0  0
   -1.8720   16.7850  -33.5600 C   0  0  0  0  0  0  0  0  0  0  0  0
   -3.1340   16.4030  -33.0930 C   0  0  0  0  0  0  0  0  0  0  0  0
   -6.1510   17.2300  -34.5910 C   0  0  0  0  0  0  0  0  0  0  0  0
   -5.3600   18.5220  -34.3480 C   0  0  0  0  0  0  0  0  0  0  0  0
   -5.0150   23.0120  -31.5810 C   0  0  0  0  0  0  0  0  0  0  0  0
   -1.8092   25.3782  -29.2145 H   0  0  0  0  0  0  0  0  0  0  0  0
   -3.3804   25.2211  -28.3621 H   0  0  0  0  0  0  0  0  0  0  0  0
   -3.8890   23.1365  -27.4645 H   0  0  0  0  0  0  0  0  0  0  0  0
   -3.5769   20.6615  -27.3986 H   0  0  0  0  0  0  0  0  0  0  0  0
   -2.1377   19.5360  -29.1024 H   0  0  0  0  0  0  0  0  0  0  0  0
   -1.0066   20.8869  -30.8716 H   0  0  0  0  0  0  0  0  0  0  0  0
   -1.3133   23.3633  -30.9421 H   0  0  0  0  0  0  0  0  0  0  0  0
   -7.6194   24.9284  -30.4639 H   0  0  0  0  0  0  0  0  0  0  0  0
   -8.8854   22.8942  -31.1587 H   0  0  0  0  0  0  0  0  0  0  0  0
   -7.6787   20.9331  -32.1191 H   0  0  0  0  0  0  0  0  0  0  0  0
   -6.4574   19.0920  -31.2666 H   0  0  0  0  0  0  0  0  0  0  0  0
   -7.7023   18.4779  -32.4420 H   0  0  0  0  0  0  0  0  0  0  0  0
   -4.9740   17.2178  -31.9044 H   0  0  0  0  0  0  0  0  0  0  0  0
   -6.5744   16.6241  -31.3009 H   0  0  0  0  0  0  0  0  0  0  0  0
   -5.2576   14.7946  -32.4074 H   0  0  0  0  0  0  0  0  0  0  0  0
   -5.7658   14.4778  -34.1084 H   0  0  0  0  0  0  0  0  0  0  0  0
   -4.2204   14.6619  -35.8331 H   0  0  0  0  0  0  0  0  0  0  0  0
   -1.9660   15.3448  -36.6581 H   0  0  0  0  0  0  0  0  0  0  0  0
   -0.4594   16.7033  -35.2029 H   0  0  0  0  0  0  0  0  0  0  0  0
   -1.2085   17.3860  -32.9208 H   0  0  0  0  0  0  0  0  0  0  0  0
   -3.4604   16.7042  -32.0866 H   0  0  0  0  0  0  0  0  0  0  0  0
   -5.6460   16.6489  -35.3767 H   0  0  0  0  0  0  0  0  0  0  0  0
   -7.1709   17.5122  -34.8915 H   0  0  0  0  0  0  0  0  0  0  0  0
   -4.3427   18.2639  -34.0188 H   0  0  0  0  0  0  0  0  0  0  0  0
   -5.3289   19.0945  -35.2868 H   0  0  0  0  0  0  0  0  0  0  0  0
   -3.9242   23.0509  -31.7174 H   0  0  0  0  0  0  0  0  0  0  0  0
  1  2  2  0
  2  3  1  0
  3  4  1  0
  4  5  1  0
  5  6  2  0
  6  7  1  0
  7  8  2  0
  8  9  1  0
  9 10  2  0
  2 11  1  0
 11 12  2  0
 12 13  1  0
 13 14  2  0
 14 15  1  0
 15 16  1  0
 16 17  2  0
 16 18  2  0
 16 19  1  0
 19 20  1  0
 20 21  1  0
 21 22  1  0
 22 23  1  0
 23 24  1  0
 24 25  2  0
 25 26  1  0
 26 27  2  0
 27 28  1  0
 28 29  2  0
 22 30  1  0
 30 31  1  0
 15 32  2  0
 10  5  1  0
 32 11  1  0
 31 19  1  0
 29 24  1  0
  4 33  1  0
  4 34  1  0
  6 35  1  0
  7 36  1  0
  8 37  1  0
  9 38  1  0
 10 39  1  0
 12 40  1  0
 13 41  1  0
 14 42  1  0
 20 43  1  0
 20 44  1  0
 21 45  1  0
 21 46  1  0
 23 47  1  0
 23 48  1  0
 25 49  1  0
 26 50  1  0
 27 51  1  0
 28 52  1  0
 29 53  1  0
 30 54  1  0
 30 55  1  0
 31 56  1  0
 31 57  1  0
 32 58  1  0
M  CHG  1   3  -1
M  END
>  <UniqueID>  (7) 
5

>  <SMILES>  (7) 
O=C([N-]Cc1ccccc1)c1cccc(S(=O)(=O)N2CCN(Cc3ccccc3)CC2)c1

>  <Energy>  (7) 
75.60236193060256

>  <Genealogy>  (7) 
O=C([N-]Cc1ccccc1)c1cccc(S(=O)(=O)N2CCN(Cc3ccccc3)CC2)c1 (protonated)
O=C([N-]Cc1ccccc1)c1cccc(S(=O)(=O)N2CCN(Cc3ccccc3)CC2)c1 (3D coordinates assigned)
O=C([N-]Cc1ccccc1)c1cccc(S(=O)(=O)N2CCN(Cc3ccccc3)CC2)c1 (nonaromatic ring conformer: 75.60236193060256 kcal/mol)

>  <smiles>  (7) 
O=C(NCc1ccccc1)c1cccc(S(=O)(=O)N2CCN(Cc3ccccc3)CC2)c1

>  <score_type>  (7) 
oracle

>  <origin>  (7) 
adg

>  <m_score__min__energy>  (7) 
-11.800000000000001

>  <m_primary>  (7) 
energy

$$$$
7:0
     RDKit          3D

 23 24  0  0  0  0  0  0  0  0999 V2000
   -7.7440   22.6340  -29.3750 N   0  0  0  0  0  0  0  0  0  0  0  0
   -6.7050   23.1290  -29.9600 C   0  0  0  0  0  0  0  0  0  0  0  0
   -6.0700   24.2350  -29.4720 N   0  0  0  0  0  0  0  0  0  0  0  0
   -4.9860   24.7370  -30.0980 C   0  0  0  0  0  0  0  0  0  0  0  0
   -4.4960   24.1690  -31.2150 N   0  0  0  0  0  0  0  0  0  0  0  0
   -5.0810   23.0620  -31.7560 C   0  0  0  0  0  0  0  0  0  0  0  0
   -4.5890   22.4450  -32.9270 N   0  0  0  0  0  0  0  0  0  0  0  0
   -6.1990   22.5500  -31.1060 C   0  0  0  0  0  0  0  0  0  0  0  0
   -6.8210   21.3650  -31.6900 C   0  0  0  0  0  0  0  0  0  0  0  0
   -8.1350   21.4260  -32.1140 C   0  0  0  0  0  0  0  0  0  0  0  0
   -8.6990   20.2810  -32.6640 C   0  0  0  0  0  0  0  0  0  0  0  0
   -7.9850   19.1530  -32.7790 N   0  0  0  0  0  0  0  0  0  0  0  0
   -6.7250   19.1040  -32.3680 C   0  0  0  0  0  0  0  0  0  0  0  0
   -6.0680   20.1920  -31.8040 C   0  0  0  0  0  0  0  0  0  0  0  0
   -8.1510   23.1450  -28.5430 H   0  0  0  0  0  0  0  0  0  0  0  0
   -6.4280   24.7110  -28.5920 H   0  0  0  0  0  0  0  0  0  0  0  0
   -4.4920   25.6297  -29.6867 H   0  0  0  0  0  0  0  0  0  0  0  0
   -4.1410   21.4890  -32.9440 H   0  0  0  0  0  0  0  0  0  0  0  0
   -4.6710   22.9690  -33.8450 H   0  0  0  0  0  0  0  0  0  0  0  0
   -8.7177   22.3541  -32.0189 H   0  0  0  0  0  0  0  0  0  0  0  0
   -9.7434   20.3010  -33.0088 H   0  0  0  0  0  0  0  0  0  0  0  0
   -6.1739   18.1584  -32.4784 H   0  0  0  0  0  0  0  0  0  0  0  0
   -5.0220   20.1338  -31.4686 H   0  0  0  0  0  0  0  0  0  0  0  0
  1  2  2  3
  2  3  1  0
  3  4  1  0
  4  5  2  0
  5  6  1  0
  6  7  1  0
  6  8  2  0
  8  9  1  0
  9 10  2  0
 10 11  1  0
 11 12  2  0
 12 13  1  0
 13 14  2  0
  8  2  1  0
 14  9  1  0
  1 15  1  0
  3 16  1  0
  4 17  1  0
  7 18  1  0
  7 19  1  0
 10 20  1  0
 11 21  1  0
 13 22  1  0
 14 23  1  0
M  END
>  <smiles>  (8) 
N=c1[nH]cnc(N)c1-c1ccncc1

>  <score_type>  (8) 
oracle

>  <origin>  (8) 
adg

>  <m_score__min__energy>  (8) 
-5.2000000000000002

>  <m_primary>  (8) 
energy

$$$$
8:0
     RDKit          3D

 34 36  0  0  0  0  0  0  0  0999 V2000
   -7.0770   23.3530  -31.0150 C   0  0  0  0  0  0  0  0  0  0  0  0
   -5.8820   22.7660  -31.4410 C   0  0  0  0  0  0  0  0  0  0  0  0
   -4.6590   23.3750  -31.1460 C   0  0  0  0  0  0  0  0  0  0  0  0
   -4.6240   24.5860  -30.4300 C   0  0  0  0  0  0  0  0  0  0  0  0
   -3.4170   25.2200  -30.1000 O   0  0  0  0  0  0  0  0  0  0  0  0
   -2.6060   24.9030  -29.0000 C   0  0  0  0  0  0  0  0  0  0  0  0
   -3.0410   24.0390  -27.9800 C   0  0  0  0  0  0  0  0  0  0  0  0
   -2.1990   23.7340  -26.9070 C   0  0  0  0  0  0  0  0  0  0  0  0
   -0.9020   24.2700  -26.8510 C   0  0  0  0  0  0  0  0  0  0  0  0
   -0.0110   23.9800  -25.6750 C   0  0  0  0  0  0  0  0  0  0  0  0
    0.0770   25.1580  -24.8180 N   0  0  0  0  0  0  0  0  0  0  0  0
   -0.9200   26.0070  -24.5060 C   0  0  0  0  0  0  0  0  0  0  0  0
   -0.4320   26.9270  -23.6030 C   0  0  0  0  0  0  0  0  0  0  0  0
    0.8580   26.6390  -23.3500 N   0  0  0  0  0  0  0  0  0  0  0  0
    1.1420   25.5550  -24.0960 C   0  0  0  0  0  0  0  0  0  0  0  0
   -0.4670   25.1270  -27.8730 C   0  0  0  0  0  0  0  0  0  0  0  0
   -1.3110   25.4310  -28.9460 C   0  0  0  0  0  0  0  0  0  0  0  0
   -5.8260   25.1570  -29.9910 C   0  0  0  0  0  0  0  0  0  0  0  0
   -7.0490   24.5460  -30.2870 C   0  0  0  0  0  0  0  0  0  0  0  0
   -8.0394   22.8761  -31.2526 H   0  0  0  0  0  0  0  0  0  0  0  0
   -5.9042   21.8241  -32.0088 H   0  0  0  0  0  0  0  0  0  0  0  0
   -3.7200   22.9058  -31.4748 H   0  0  0  0  0  0  0  0  0  0  0  0
   -4.0489   23.6009  -28.0266 H   0  0  0  0  0  0  0  0  0  0  0  0
   -2.5534   23.0717  -26.1034 H   0  0  0  0  0  0  0  0  0  0  0  0
   -0.4278   23.1403  -25.0996 H   0  0  0  0  0  0  0  0  0  0  0  0
    0.9943   23.7189  -26.0372 H   0  0  0  0  0  0  0  0  0  0  0  0
   -1.9454   25.9726  -24.9026 H   0  0  0  0  0  0  0  0  0  0  0  0
   -1.0021   27.7582  -23.1625 H   0  0  0  0  0  0  0  0  0  0  0  0
    1.5010   27.1430  -22.7000 H   0  0  0  0  0  0  0  0  0  0  0  0
    2.1220   25.0557  -24.1136 H   0  0  0  0  0  0  0  0  0  0  0  0
    0.5425   25.5619  -27.8302 H   0  0  0  0  0  0  0  0  0  0  0  0
   -0.9548   26.0890  -29.7523 H   0  0  0  0  0  0  0  0  0  0  0  0
   -5.8077   26.0910  -29.4103 H   0  0  0  0  0  0  0  0  0  0  0  0
   -7.9892   25.0045  -29.9467 H   0  0  0  0  0  0  0  0  0  0  0  0
  1  2  2  0
  2  3  1  0
  3  4  2  0
  4  5  1  0
  5  6  1  0
  6  7  2  0
  7  8  1  0
  8  9  2  0
  9 10  1  0
 10 11  1  0
 11 12  1  0
 12 13  2  0
 13 14  1  0
 14 15  2  0
  9 16  1  0
 16 17  2  0
  4 18  1  0
 18 19  2  0
 19  1  1  0
 17  6  1  0
 15 11  1  0
  1 20  1  0
  2 21  1  0
  3 22  1  0
  7 23  1  0
  8 24  1  0
 10 25  1  0
 10 26  1  0
 12 27  1  0
 13 28  1  0
 14 29  1  0
 15 30  1  0
 16 31  1  0
 17 32  1  0
 18 33  1  0
 19 34  1  0
M  CHG  1  14   1
M  END
>  <UniqueID>  (9) 
6

>  <SMILES>  (9) 
c1ccc(Oc2ccc(Cn3cc[nH+]c3)cc2)cc1

>  <Energy>  (9) 
71.23097828115628

>  <Genealogy>  (9) 
c1ccc(Oc2ccc(Cn3cc[nH+]c3)cc2)cc1 (protonated)
c1ccc(Oc2ccc(Cn3cc[nH+]c3)cc2)cc1 (3D coordinates assigned)
c1ccc(Oc2ccc(Cn3cc[nH+]c3)cc2)cc1 (optimized conformer: 71.23097828115628 kcal/mol)

>  <smiles>  (9) 
c1ccc(Oc2ccc(Cn3ccnc3)cc2)cc1

>  <score_type>  (9) 
oracle

>  <origin>  (9) 
adg

>  <m_score__min__energy>  (9) 
-6.9100000000000001

>  <m_primary>  (9) 
energy

$$$$
9:0
     RDKit          3D

 42 42  0  0  0  0  0  0  0  0999 V2000
   -3.8630   25.3130  -30.7760 N   0  0  0  0  0  0  0  0  0  0  0  0
   -5.1840   24.7360  -30.5140 C   0  0  2  0  0  0  0  0  0  0  0  0
   -5.3090   24.3130  -29.0380 C   0  0  0  0  0  0  0  0  0  0  0  0
   -4.1040   24.5390  -28.3580 O   0  0  0  0  0  0  0  0  0  0  0  0
   -5.4860   23.5690  -31.4880 C   0  0  0  0  0  0  0  0  0  0  0  0
   -4.2960   22.6560  -31.8520 C   0  0  0  0  0  0  0  0  0  0  0  0
   -4.0790   21.5100  -30.8550 C   0  0  0  0  0  0  0  0  0  0  0  0
   -2.7700   21.6770  -30.1450 C   0  0  0  0  0  0  0  0  0  0  0  0
   -1.9450   20.7230  -30.1330 O   0  0  0  0  0  0  0  0  0  0  0  0
   -2.4420   22.9280  -29.5240 N   0  0  0  0  0  0  0  0  0  0  0  0
   -1.1900   23.1320  -28.7870 C   0  0  2  0  0  0  0  0  0  0  0  0
   -1.3210   22.5560  -27.3640 C   0  0  0  0  0  0  0  0  0  0  0  0
   -1.1760   21.0560  -27.3550 C   0  0  0  0  0  0  0  0  0  0  0  0
   -0.0170   20.4550  -27.8760 C   0  0  0  0  0  0  0  0  0  0  0  0
    0.1310   19.0650  -27.8420 C   0  0  0  0  0  0  0  0  0  0  0  0
   -0.8720   18.2660  -27.2850 C   0  0  0  0  0  0  0  0  0  0  0  0
   -2.0230   18.8560  -26.7570 C   0  0  0  0  0  0  0  0  0  0  0  0
   -2.1760   20.2460  -26.7890 C   0  0  0  0  0  0  0  0  0  0  0  0
   -0.8440   24.5970  -28.7550 C   0  0  0  0  0  0  0  0  0  0  0  0
    0.2260   24.9910  -28.2200 O   0  0  0  0  0  0  0  0  0  0  0  0
   -1.7050   25.5260  -29.3260 O   0  0  0  0  0  0  0  0  0  0  0  0
   -3.1440   24.5600  -30.6790 H   0  0  0  0  0  0  0  0  0  0  0  0
   -3.6470   26.0060  -30.0230 H   0  0  0  0  0  0  0  0  0  0  0  0
   -5.9459   25.5079  -30.6977 H   0  0  0  0  0  0  0  0  0  0  0  0
   -6.1091   24.8977  -28.5605 H   0  0  0  0  0  0  0  0  0  0  0  0
   -5.5457   23.2396  -28.9947 H   0  0  0  0  0  0  0  0  0  0  0  0
   -3.7780   25.4340  -28.6340 H   0  0  0  0  0  0  0  0  0  0  0  0
   -6.2620   22.9402  -31.0271 H   0  0  0  0  0  0  0  0  0  0  0  0
   -5.7888   24.0459  -32.4318 H   0  0  0  0  0  0  0  0  0  0  0  0
   -4.4804   22.2228  -32.8462 H   0  0  0  0  0  0  0  0  0  0  0  0
   -3.3903   23.2799  -31.8313 H   0  0  0  0  0  0  0  0  0  0  0  0
   -4.8946   21.5122  -30.1170 H   0  0  0  0  0  0  0  0  0  0  0  0
   -4.0686   20.5566  -31.4036 H   0  0  0  0  0  0  0  0  0  0  0  0
   -3.1550   23.6920  -29.5470 H   0  0  0  0  0  0  0  0  0  0  0  0
   -0.3727   22.6013  -29.2973 H   0  0  0  0  0  0  0  0  0  0  0  0
   -0.5371   22.9939  -26.7285 H   0  0  0  0  0  0  0  0  0  0  0  0
   -2.3222   22.8063  -26.9833 H   0  0  0  0  0  0  0  0  0  0  0  0
    0.7761   21.0802  -28.3119 H   0  0  0  0  0  0  0  0  0  0  0  0
    1.0383   18.5993  -28.2543 H   0  0  0  0  0  0  0  0  0  0  0  0
   -0.7548   17.1725  -27.2625 H   0  0  0  0  0  0  0  0  0  0  0  0
   -2.8099   18.2267  -26.3156 H   0  0  0  0  0  0  0  0  0  0  0  0
   -3.0823   20.7072  -26.3696 H   0  0  0  0  0  0  0  0  0  0  0  0
  1  2  1  0
  2  3  1  0
  3  4  1  0
  2  5  1  0
  5  6  1  0
  6  7  1  0
  7  8  1  0
  8  9  2  0
  8 10  1  0
 10 11  1  0
 11 12  1  0
 12 13  1  0
 13 14  2  0
 14 15  1  0
 15 16  2  0
 16 17  1  0
 17 18  2  0
 11 19  1  0
 19 20  2  0
 19 21  1  0
 18 13  1  0
  1 22  1  0
  1 23  1  0
  2 24  1  6
  3 25  1  0
  3 26  1  0
  4 27  1  0
  5 28  1  0
  5 29  1  0
  6 30  1  0
  6 31  1  0
  7 32  1  0
  7 33  1  0
 10 34  1  0
 11 35  1  6
 12 36  1  0
 12 37  1  0
 14 38  1  0
 15 39  1  0
 16 40  1  0
 17 41  1  0
 18 42  1  0
M  CHG  1  21  -1
M  END
>  <UniqueID>  (10) 
7

>  <SMILES>  (10) 
N[C@H](CO)CCCC(=O)N[C@H](Cc1ccccc1)C(=O)[O-]

>  <Energy>  (10) 
30.290130396243104

>  <Genealogy>  (10) 
NC(CO)CCCC(=O)NC(Cc1ccccc1)C(=O)[O-] (protonated)
N[C@H](CO)CCCC(=O)N[C@H](Cc1ccccc1)C(=O)[O-] (chirality)
N[C@H](CO)CCCC(=O)N[C@H](Cc1ccccc1)C(=O)[O-] (3D coordinates assigned)
N[C@H](CO)CCCC(=O)N[C@H](Cc1ccccc1)C(=O)[O-] (optimized conformer: 30.290130396243104 kcal/mol)

>  <smiles>  (10) 
NC(CO)CCCC(=O)NC(Cc1ccccc1)C(=O)O

>  <score_type>  (10) 
oracle

>  <origin>  (10) 
adg

>  <m_score__min__energy>  (10) 
-8.8100000000000005

>  <m_primary>  (10) 
energy

$$$$
10:0
     RDKit          3D

 30 31  0  0  0  0  0  0  0  0999 V2000
   -6.9930   13.7900  -34.2170 C   0  0  0  0  0  0  0  0  0  0  0  0
   -6.1550   15.0340  -34.2530 C   0  0  0  0  0  0  0  0  0  0  0  0
   -4.7720   14.9480  -34.4730 C   0  0  0  0  0  0  0  0  0  0  0  0
   -3.9830   16.0990  -34.4490 C   0  0  0  0  0  0  0  0  0  0  0  0
   -4.5670   17.3450  -34.2040 C   0  0  0  0  0  0  0  0  0  0  0  0
   -5.9490   17.4520  -33.9910 C   0  0  0  0  0  0  0  0  0  0  0  0
   -6.5200   18.7400  -33.7070 N   0  0  0  0  0  0  0  0  0  0  0  0
   -6.6720   19.2730  -32.3770 C   0  0  0  0  0  0  0  0  0  0  0  0
   -6.3840   18.5620  -31.3780 O   0  0  0  0  0  0  0  0  0  0  0  0
   -7.1720   20.6530  -32.1550 C   0  0  0  0  0  0  0  0  0  0  0  0
   -8.5470   20.9480  -32.1800 C   0  0  0  0  0  0  0  0  0  0  0  0
   -8.9940   22.2540  -31.9610 C   0  0  0  0  0  0  0  0  0  0  0  0
   -8.0790   23.2790  -31.7080 C   0  0  0  0  0  0  0  0  0  0  0  0
   -6.7100   22.9980  -31.6670 C   0  0  0  0  0  0  0  0  0  0  0  0
   -5.7660   24.0510  -31.4020 C   0  0  0  0  0  0  0  0  0  0  0  0
   -5.0070   24.8980  -31.1870 N   0  0  0  0  0  0  0  0  0  0  0  0
   -6.2580   21.6890  -31.8850 C   0  0  0  0  0  0  0  0  0  0  0  0
   -6.7360   16.2850  -33.9890 C   0  0  0  0  0  0  0  0  0  0  0  0
   -7.1839   13.5066  -33.1714 H   0  0  0  0  0  0  0  0  0  0  0  0
   -7.9496   13.9775  -34.7266 H   0  0  0  0  0  0  0  0  0  0  0  0
   -6.4598   12.9739  -34.7266 H   0  0  0  0  0  0  0  0  0  0  0  0
   -4.3077   13.9695  -34.6652 H   0  0  0  0  0  0  0  0  0  0  0  0
   -2.8994   16.0254  -34.6233 H   0  0  0  0  0  0  0  0  0  0  0  0
   -3.9386   18.2475  -34.1781 H   0  0  0  0  0  0  0  0  0  0  0  0
   -6.8860   19.2840  -34.5200 H   0  0  0  0  0  0  0  0  0  0  0  0
   -9.2748   20.1461  -32.3730 H   0  0  0  0  0  0  0  0  0  0  0  0
  -10.0711   22.4758  -31.9880 H   0  0  0  0  0  0  0  0  0  0  0  0
   -8.4353   24.3062  -31.5412 H   0  0  0  0  0  0  0  0  0  0  0  0
   -5.1808   21.4698  -31.8448 H   0  0  0  0  0  0  0  0  0  0  0  0
   -7.8136   16.3534  -33.7792 H   0  0  0  0  0  0  0  0  0  0  0  0
  1  2  1  0
  2  3  2  0
  3  4  1  0
  4  5  2  0
  5  6  1  0
  6  7  1  0
  7  8  1  0
  8  9  2  0
  8 10  1  0
 10 11  2  0
 11 12  1  0
 12 13  2  0
 13 14  1  0
 14 15  1  0
 15 16  3  0
 14 17  2  0
  6 18  2  0
 18  2  1  0
 17 10  1  0
  1 19  1  0
  1 20  1  0
  1 21  1  0
  3 22  1  0
  4 23  1  0
  5 24  1  0
  7 25  1  0
 11 26  1  0
 12 27  1  0
 13 28  1  0
 17 29  1  0
 18 30  1  0
M  END
>  <UniqueID>  (11) 
8

>  <SMILES>  (11) 
Cc1cccc(NC(=O)c2cccc(C#N)c2)c1

>  <Energy>  (11) 
36.00011617677635

>  <Genealogy>  (11) 
Cc1cccc(NC(=O)c2cccc(C#N)c2)c1 (3D coordinates assigned)
Cc1cccc(NC(=O)c2cccc(C#N)c2)c1 (optimized conformer: 36.00011617677635 kcal/mol)

>  <smiles>  (11) 
Cc1cccc(NC(=O)c2cccc(C#N)c2)c1

>  <score_type>  (11) 
oracle

>  <origin>  (11) 
adg

>  <m_score__min__energy>  (11) 
-7.1600000000000001

>  <m_primary>  (11) 
energy

$$$$
11:0
     RDKit          3D

 28 30  0  0  0  0  0  0  0  0999 V2000
    0.2822   23.9698  -27.4777 H   0  0  0  0  0  0  0  0  0  0  0  0
   -0.5800   24.0040  -28.1600 C   0  0  0  0  0  0  0  0  0  0  0  0
   -1.2400   22.6950  -28.9890 S   0  0  0  0  0  0  0  0  0  0  0  0
   -2.4270   23.6260  -29.7440 C   0  0  0  0  0  0  0  0  0  0  0  0
   -3.3330   23.2070  -30.5800 N   0  0  0  0  0  0  0  0  0  0  0  0
   -4.5660   23.8550  -30.9340 C   0  0  0  0  0  0  0  0  0  0  0  0
   -4.6600   25.1110  -30.9640 O   0  0  0  0  0  0  0  0  0  0  0  0
   -5.7380   23.0340  -31.2700 C   0  0  0  0  0  0  0  0  0  0  0  0
   -7.3480   23.5160  -31.0680 S   0  0  0  0  0  0  0  0  0  0  0  0
   -8.0020   22.0870  -31.6560 C   0  0  0  0  0  0  0  0  0  0  0  0
   -9.3450   21.7430  -31.7950 C   0  0  0  0  0  0  0  0  0  0  0  0
  -10.1408   22.4445  -31.5043 H   0  0  0  0  0  0  0  0  0  0  0  0
   -9.6550   20.4770  -32.3160 C   0  0  0  0  0  0  0  0  0  0  0  0
  -10.7066   20.1777  -32.4367 H   0  0  0  0  0  0  0  0  0  0  0  0
   -8.6270   19.5880  -32.6850 C   0  0  0  0  0  0  0  0  0  0  0  0
   -8.8806   18.5985  -33.0932 H   0  0  0  0  0  0  0  0  0  0  0  0
   -7.2790   19.9570  -32.5350 C   0  0  0  0  0  0  0  0  0  0  0  0
   -6.4738   19.2643  -32.8209 H   0  0  0  0  0  0  0  0  0  0  0  0
   -6.9800   21.2200  -32.0160 C   0  0  0  0  0  0  0  0  0  0  0  0
   -5.7010   21.7430  -31.8030 C   0  0  0  0  0  0  0  0  0  0  0  0
   -4.7715   21.2000  -32.0293 H   0  0  0  0  0  0  0  0  0  0  0  0
   -2.3320   24.9220  -29.3760 N   0  0  0  0  0  0  0  0  0  0  0  0
   -2.9610   25.6750  -29.7350 H   0  0  0  0  0  0  0  0  0  0  0  0
   -1.3190   25.1380  -28.4910 C   0  0  0  0  0  0  0  0  0  0  0  0
   -0.9850   26.5030  -27.9810 C   0  0  0  0  0  0  0  0  0  0  0  0
   -0.9872   26.4941  -26.8810 H   0  0  0  0  0  0  0  0  0  0  0  0
    0.0114   26.7962  -28.3434 H   0  0  0  0  0  0  0  0  0  0  0  0
   -1.7334   27.2231  -28.3434 H   0  0  0  0  0  0  0  0  0  0  0  0
  1  2  1  0
  2  3  1  0
  3  4  1  0
  4  5  2  0
  5  6  1  0
  6  7  2  0
  6  8  1  0
  8  9  1  0
  9 10  1  0
 10 11  2  0
 11 12  1  0
 11 13  1  0
 13 14  1  0
 13 15  2  0
 15 16  1  0
 15 17  1  0
 17 18  1  0
 17 19  2  0
 19 20  1  0
 20 21  1  0
  4 22  1  0
 22 23  1  0
 22 24  1  0
 24 25  1  0
 25 26  1  0
 25 27  1  0
 25 28  1  0
 24  2  2  0
 20  8  2  0
 19 10  1  0
M  END
>  <UniqueID>  (12) 
9

>  <SMILES>  (12) 
Cc1cs/c(=N\C(=O)c2cc3ccccc3s2)[nH]1

>  <Energy>  (12) 
92.18637599575948

>  <Genealogy>  (12) 
Cc1cs/c(=N\C(=O)c2cc3ccccc3s2)[nH]1 (cis-trans isomerization)
Cc1cs/c(=N\C(=O)c2cc3ccccc3s2)[nH]1 (3D coordinates assigned)
Cc1cs/c(=N\C(=O)c2cc3ccccc3s2)[nH]1 (optimized conformer: 92.18637599575948 kcal/mol)

>  <smiles>  (12) 
Cc1csc(=NC(=O)c2cc3ccccc3s2)[nH]1

>  <score_type>  (12) 
oracle

>  <origin>  (12) 
adg

>  <m_score__min__energy>  (12) 
-8.6400000000000006

>  <m_primary>  (12) 
energy

$$$$
12:0
     RDKit          3D

 37 38  0  0  0  0  0  0  0  0999 V2000
   -6.8980   17.8500  -31.2930 C   0  0  0  0  0  0  0  0  0  0  0  0
   -8.2450   18.1710  -31.9480 C   0  0  0  0  0  0  0  0  0  0  0  0
   -8.7820   19.4330  -31.2570 C   0  0  0  0  0  0  0  0  0  0  0  0
   -8.7180   20.5510  -32.2560 C   0  0  0  0  0  0  0  0  0  0  0  0
   -7.6460   20.3690  -33.2440 N   0  0  0  0  0  0  0  0  0  0  0  0
   -6.3820   20.9030  -32.9720 C   0  0  0  0  0  0  0  0  0  0  0  0
   -6.2410   22.1410  -32.3370 C   0  0  0  0  0  0  0  0  0  0  0  0
   -4.9840   22.6880  -32.0980 C   0  0  0  0  0  0  0  0  0  0  0  0
   -4.8850   23.8080  -31.5210 O   0  0  0  0  0  0  0  0  0  0  0  0
   -3.8580   22.0810  -32.4520 N   0  0  0  0  0  0  0  0  0  0  0  0
   -3.9530   20.8880  -33.0660 C   0  0  0  0  0  0  0  0  0  0  0  0
   -2.7790   20.3050  -33.4090 N   0  0  0  0  0  0  0  0  0  0  0  0
   -2.8140   19.1150  -34.0230 C   0  0  0  0  0  0  0  0  0  0  0  0
   -3.9940   18.5470  -34.2740 N   0  0  0  0  0  0  0  0  0  0  0  0
   -3.9600   17.2450  -34.9490 C   0  0  0  0  0  0  0  0  0  0  0  0
   -4.2180   16.1430  -33.9700 C   0  0  0  0  0  0  0  0  0  0  0  0
   -5.1700   19.0870  -33.9540 C   0  0  0  0  0  0  0  0  0  0  0  0
   -6.2040   18.4480  -34.2480 O   0  0  0  0  0  0  0  0  0  0  0  0
   -5.1770   20.3060  -33.3250 C   0  0  0  0  0  0  0  0  0  0  0  0
   -7.0070   17.8760  -30.1987 H   0  0  0  0  0  0  0  0  0  0  0  0
   -6.5681   16.8481  -31.6050 H   0  0  0  0  0  0  0  0  0  0  0  0
   -6.1517   18.5954  -31.6050 H   0  0  0  0  0  0  0  0  0  0  0  0
   -8.1089   18.3565  -33.0237 H   0  0  0  0  0  0  0  0  0  0  0  0
   -8.9475   17.3315  -31.8401 H   0  0  0  0  0  0  0  0  0  0  0  0
   -9.8223   19.2732  -30.9372 H   0  0  0  0  0  0  0  0  0  0  0  0
   -8.1839   19.6730  -30.3655 H   0  0  0  0  0  0  0  0  0  0  0  0
   -9.6801   20.6041  -32.7866 H   0  0  0  0  0  0  0  0  0  0  0  0
   -8.5060   21.4782  -31.7033 H   0  0  0  0  0  0  0  0  0  0  0  0
   -7.9510   19.8430  -34.0800 H   0  0  0  0  0  0  0  0  0  0  0  0
   -7.1392   22.6918  -32.0210 H   0  0  0  0  0  0  0  0  0  0  0  0
   -2.9440   22.5200  -32.2570 H   0  0  0  0  0  0  0  0  0  0  0  0
   -1.8806   18.6124  -34.3166 H   0  0  0  0  0  0  0  0  0  0  0  0
   -4.7323   17.2224  -35.7320 H   0  0  0  0  0  0  0  0  0  0  0  0
   -2.9650   17.1002  -35.3952 H   0  0  0  0  0  0  0  0  0  0  0  0
   -4.1266   16.5336  -32.9458 H   0  0  0  0  0  0  0  0  0  0  0  0
   -5.2330   15.7474  -34.1223 H   0  0  0  0  0  0  0  0  0  0  0  0
   -3.4840   15.3379  -34.1223 H   0  0  0  0  0  0  0  0  0  0  0  0
  1  2  1  0
  2  3  1  0
  3  4  1  0
  4  5  1  0
  5  6  1  0
  6  7  2  0
  7  8  1  0
  8  9  2  0
  8 10  1  0
 10 11  1  0
 11 12  1  0
 12 13  2  0
 13 14  1  0
 14 15  1  0
 15 16  1  0
 14 17  1  0
 17 18  2  0
 17 19  1  0
 19  6  1  0
 19 11  2  0
  1 20  1  0
  1 21  1  0
  1 22  1  0
  2 23  1  0
  2 24  1  0
  3 25  1  0
  3 26  1  0
  4 27  1  0
  4 28  1  0
  5 29  1  0
  7 30  1  0
 10 31  1  0
 13 32  1  0
 15 33  1  0
 15 34  1  0
 16 35  1  0
 16 36  1  0
 16 37  1  0
M  END
>  <smiles>  (13) 
CCCCNc1cc(=O)[nH]c2ncn(CC)c(=O)c12

>  <score_type>  (13) 
oracle

>  <origin>  (13) 
adg

>  <m_score__min__energy>  (13) 
-6.3600000000000003

>  <m_primary>  (13) 
energy

$$$$
13:0
     RDKit          3D

 45 47  0  0  0  0  0  0  0  0999 V2000
   -4.0760   19.6800  -33.4800 C   0  0  0  0  0  0  0  0  0  0  0  0
   -4.9280   18.8450  -32.5320 C   0  0  0  0  0  0  0  0  0  0  0  0
   -6.1680   18.4220  -33.1980 N   0  0  0  0  0  0  0  0  0  0  0  0
   -6.1060   17.4710  -34.3140 C   0  0  0  0  0  0  0  0  0  0  0  0
   -6.1440   16.0390  -33.7940 C   0  0  0  0  0  0  0  0  0  0  0  0
   -7.4430   18.7470  -32.6130 C   0  0  0  0  0  0  0  0  0  0  0  0
   -8.2700   17.8210  -32.3840 O   0  0  0  0  0  0  0  0  0  0  0  0
   -7.8100   20.1460  -32.3000 C   0  0  0  0  0  0  0  0  0  0  0  0
   -9.0960   20.4520  -31.8270 C   0  0  0  0  0  0  0  0  0  0  0  0
   -9.4470   21.7730  -31.5400 C   0  0  0  0  0  0  0  0  0  0  0  0
   -8.5220   22.8030  -31.7260 C   0  0  0  0  0  0  0  0  0  0  0  0
   -7.2300   22.5200  -32.2080 C   0  0  0  0  0  0  0  0  0  0  0  0
   -6.2500   23.5570  -32.4150 N   0  0  0  0  0  0  0  0  0  0  0  0
   -6.0580   24.7020  -31.5240 C   0  0  0  0  0  0  0  0  0  0  0  0
   -4.9900   24.4070  -30.5210 C   0  0  0  0  0  0  0  0  0  0  0  0
   -5.0980   23.4240  -29.5860 N   0  0  0  0  0  0  0  0  0  0  0  0
   -3.9340   23.5400  -28.9270 C   0  0  0  0  0  0  0  0  0  0  0  0
   -3.4820   22.7860  -27.8460 C   0  0  0  0  0  0  0  0  0  0  0  0
   -2.2150   23.0980  -27.3170 C   0  0  0  0  0  0  0  0  0  0  0  0
   -1.4420   24.1430  -27.8770 C   0  0  0  0  0  0  0  0  0  0  0  0
   -1.9310   24.8840  -28.9700 C   0  0  0  0  0  0  0  0  0  0  0  0
   -3.1880   24.5460  -29.4630 C   0  0  0  0  0  0  0  0  0  0  0  0
   -3.8510   25.0770  -30.4540 O   0  0  0  0  0  0  0  0  0  0  0  0
   -6.8890   21.1900  -32.5010 C   0  0  0  0  0  0  0  0  0  0  0  0
   -3.4102   20.3325  -32.8962 H   0  0  0  0  0  0  0  0  0  0  0  0
   -3.4727   19.0137  -34.1141 H   0  0  0  0  0  0  0  0  0  0  0  0
   -4.7300   20.2966  -34.1141 H   0  0  0  0  0  0  0  0  0  0  0  0
   -4.3604   17.9549  -32.2229 H   0  0  0  0  0  0  0  0  0  0  0  0
   -5.1844   19.4532  -31.6520 H   0  0  0  0  0  0  0  0  0  0  0  0
   -6.9652   17.6376  -34.9804 H   0  0  0  0  0  0  0  0  0  0  0  0
   -5.1659   17.6264  -34.8636 H   0  0  0  0  0  0  0  0  0  0  0  0
   -6.1438   16.0482  -32.6940 H   0  0  0  0  0  0  0  0  0  0  0  0
   -7.0557   15.5414  -34.1563 H   0  0  0  0  0  0  0  0  0  0  0  0
   -5.2600   15.4938  -34.1563 H   0  0  0  0  0  0  0  0  0  0  0  0
   -9.8312   19.6468  -31.6816 H   0  0  0  0  0  0  0  0  0  0  0  0
  -10.4556   22.0031  -31.1661 H   0  0  0  0  0  0  0  0  0  0  0  0
   -8.8046   23.8406  -31.4946 H   0  0  0  0  0  0  0  0  0  0  0  0
   -5.6050   23.4770  -33.2320 H   0  0  0  0  0  0  0  0  0  0  0  0
   -5.7643   25.5793  -32.1190 H   0  0  0  0  0  0  0  0  0  0  0  0
   -7.0003   24.9039  -30.9936 H   0  0  0  0  0  0  0  0  0  0  0  0
   -4.0931   21.9760  -27.4211 H   0  0  0  0  0  0  0  0  0  0  0  0
   -1.8234   22.5259  -26.4630 H   0  0  0  0  0  0  0  0  0  0  0  0
   -0.4533   24.3777  -27.4559 H   0  0  0  0  0  0  0  0  0  0  0  0
   -1.3423   25.6986  -29.4170 H   0  0  0  0  0  0  0  0  0  0  0  0
   -5.8872   20.9611  -32.8934 H   0  0  0  0  0  0  0  0  0  0  0  0
  1  2  1  0
  2  3  1  0
  3  4  1  0
  4  5  1  0
  3  6  1  0
  6  7  2  0
  6  8  1  0
  8  9  2  0
  9 10  1  0
 10 11  2  0
 11 12  1  0
 12 13  1  0
 13 14  1  0
 14 15  1  0
 15 16  2  0
 16 17  1  0
 17 18  2  0
 18 19  1  0
 19 20  2  0
 20 21  1  0
 21 22  2  0
 22 23  1  0
 12 24  2  0
 24  8  1  0
 23 15  1  0
 22 17  1  0
  1 25  1  0
  1 26  1  0
  1 27  1  0
  2 28  1  0
  2 29  1  0
  4 30  1  0
  4 31  1  0
  5 32  1  0
  5 33  1  0
  5 34  1  0
  9 35  1  0
 10 36  1  0
 11 37  1  0
 13 38  1  0
 14 39  1  0
 14 40  1  0
 18 41  1  0
 19 42  1  0
 20 43  1  0
 21 44  1  0
 24 45  1  0
M  END
>  <UniqueID>  (14) 
10

>  <SMILES>  (14) 
CCN(CC)C(=O)c1cccc(NCc2nc3ccccc3o2)c1

>  <Energy>  (14) 
80.45154682823629

>  <Genealogy>  (14) 
CCN(CC)C(=O)c1cccc(NCc2nc3ccccc3o2)c1 (3D coordinates assigned)
CCN(CC)C(=O)c1cccc(NCc2nc3ccccc3o2)c1 (optimized conformer: 80.45154682823629 kcal/mol)

>  <smiles>  (14) 
CCN(CC)C(=O)c1cccc(NCc2nc3ccccc3o2)c1

>  <score_type>  (14) 
oracle

>  <origin>  (14) 
adg

>  <m_score__min__energy>  (14) 
-8.7899999999999991

>  <m_primary>  (14) 
energy

$$$$
14:0
     RDKit          3D

 27 29  0  0  0  0  0  0  0  0999 V2000
   -2.5350   24.5520  -29.3320 C   0  0  0  0  0  0  0  0  0  0  0  0
   -3.4860   25.0100  -30.2890 O   0  0  0  0  0  0  0  0  0  0  0  0
   -4.6990   24.3660  -30.5800 C   0  0  0  0  0  0  0  0  0  0  0  0
   -5.8830   24.9890  -30.1850 C   0  0  0  0  0  0  0  0  0  0  0  0
   -7.1170   24.3970  -30.4460 C   0  0  0  0  0  0  0  0  0  0  0  0
   -7.1900   23.1650  -31.1120 C   0  0  0  0  0  0  0  0  0  0  0  0
   -8.4090   22.6080  -31.3560 N   0  0  0  0  0  0  0  0  0  0  0  0
   -8.5390   21.4190  -31.9960 C   0  0  0  0  0  0  0  0  0  0  0  0
   -7.4100   20.7200  -32.4300 C   0  0  0  0  0  0  0  0  0  0  0  0
   -7.5600   19.4930  -33.0900 C   0  0  0  0  0  0  0  0  0  0  0  0
   -6.4300   18.8030  -33.5190 C   0  0  0  0  0  0  0  0  0  0  0  0
   -5.1950   19.3190  -33.2980 N   0  0  0  0  0  0  0  0  0  0  0  0
   -5.0100   20.5060  -32.6630 C   0  0  0  0  0  0  0  0  0  0  0  0
   -6.1180   21.2570  -32.2010 C   0  0  0  0  0  0  0  0  0  0  0  0
   -6.0000   22.5080  -31.5280 C   0  0  0  0  0  0  0  0  0  0  0  0
   -4.7580   23.1280  -31.2500 C   0  0  0  0  0  0  0  0  0  0  0  0
   -2.9179   24.7364  -28.3174 H   0  0  0  0  0  0  0  0  0  0  0  0
   -2.3662   23.4738  -29.4699 H   0  0  0  0  0  0  0  0  0  0  0  0
   -1.5868   25.0922  -29.4699 H   0  0  0  0  0  0  0  0  0  0  0  0
   -5.8420   25.9563  -29.6628 H   0  0  0  0  0  0  0  0  0  0  0  0
   -8.0417   24.9002  -30.1270 H   0  0  0  0  0  0  0  0  0  0  0  0
   -9.2800   23.0960  -31.0490 H   0  0  0  0  0  0  0  0  0  0  0  0
   -9.5411   21.0020  -32.1746 H   0  0  0  0  0  0  0  0  0  0  0  0
   -8.5632   19.0783  -33.2677 H   0  0  0  0  0  0  0  0  0  0  0  0
   -6.5383   17.8389  -34.0374 H   0  0  0  0  0  0  0  0  0  0  0  0
   -3.9901   20.8870  -32.5064 H   0  0  0  0  0  0  0  0  0  0  0  0
   -3.8250   22.6358  -31.5618 H   0  0  0  0  0  0  0  0  0  0  0  0
  1  2  1  0
  2  3  1  0
  3  4  2  0
  4  5  1  0
  5  6  2  0
  6  7  1  0
  7  8  2  0
  8  9  1  0
  9 10  2  0
 10 11  1  0
 11 12  2  0
 12 13  1  0
 13 14  2  0
 14 15  1  0
 15 16  2  0
 16  3  1  0
 15  6  1  0
 14  9  1  0
  1 17  1  0
  1 18  1  0
  1 19  1  0
  4 20  1  0
  5 21  1  0
  7 22  1  0
  8 23  1  0
 10 24  1  0
 11 25  1  0
 13 26  1  0
 16 27  1  0
M  CHG  1   7   1
M  END
>  <UniqueID>  (15) 
11

>  <SMILES>  (15) 
COc1ccc2[nH+]cc3ccncc3c2c1

>  <Energy>  (15) 
40.826475716069865

>  <Genealogy>  (15) 
COc1ccc2[nH+]cc3ccncc3c2c1 (protonated)
COc1ccc2[nH+]cc3ccncc3c2c1 (3D coordinates assigned)
COc1ccc2[nH+]cc3ccncc3c2c1 (optimized conformer: 40.826475716069865 kcal/mol)

>  <smiles>  (15) 
COc1ccc2ncc3ccncc3c2c1

>  <score_type>  (15) 
oracle

>  <origin>  (15) 
adg

>  <m_score__min__energy>  (15) 
-6.3300000000000001

>  <m_primary>  (15) 
energy

$$$$
15:0
     RDKit          3D

 39 40  0  0  0  0  0  0  0  0999 V2000
   -8.4790   19.2260  -32.0890 C   0  0  0  0  0  0  0  0  0  0  0  0
   -6.9580   19.3340  -32.0270 C   0  0  0  0  0  0  0  0  0  0  0  0
   -6.4370   19.9790  -33.2550 N   0  0  0  0  0  0  0  0  0  0  0  0
   -6.1110   18.9730  -34.2920 C   0  0  0  0  0  0  0  0  0  0  0  0
   -4.6660   18.5080  -34.1400 C   0  0  0  0  0  0  0  0  0  0  0  0
   -5.2600   20.8200  -32.9500 C   0  0  0  0  0  0  0  0  0  0  0  0
   -5.6990   22.1150  -32.3400 C   0  0  0  0  0  0  0  0  0  0  0  0
   -7.0020   22.5560  -32.2280 C   0  0  0  0  0  0  0  0  0  0  0  0
   -6.9270   23.7900  -31.6180 C   0  0  0  0  0  0  0  0  0  0  0  0
   -5.5800   24.0170  -31.3900 C   0  0  0  0  0  0  0  0  0  0  0  0
   -4.9820   25.2130  -30.7730 C   0  0  0  0  0  0  0  0  0  0  0  0
   -5.7280   26.1820  -30.4750 O   0  0  0  0  0  0  0  0  0  0  0  0
   -3.5880   25.2870  -30.4450 N   0  0  0  0  0  0  0  0  0  0  0  0
   -2.9300   24.5630  -29.3960 C   0  0  0  0  0  0  0  0  0  0  0  0
   -1.6350   24.9020  -28.9650 C   0  0  0  0  0  0  0  0  0  0  0  0
   -1.0300   24.1880  -27.9260 C   0  0  0  0  0  0  0  0  0  0  0  0
   -1.7180   23.1450  -27.2990 C   0  0  0  0  0  0  0  0  0  0  0  0
   -3.0150   22.8200  -27.7070 C   0  0  0  0  0  0  0  0  0  0  0  0
   -3.6210   23.5310  -28.7460 C   0  0  0  0  0  0  0  0  0  0  0  0
   -4.8740   23.0030  -31.8360 O   0  0  0  0  0  0  0  0  0  0  0  0
   -8.8865   19.1971  -31.0677 H   0  0  0  0  0  0  0  0  0  0  0  0
   -8.8870   20.0974  -32.6220 H   0  0  0  0  0  0  0  0  0  0  0  0
   -8.7598   18.3057  -32.6220 H   0  0  0  0  0  0  0  0  0  0  0  0
   -6.6725   19.9362  -31.1519 H   0  0  0  0  0  0  0  0  0  0  0  0
   -6.5309   18.3236  -31.9452 H   0  0  0  0  0  0  0  0  0  0  0  0
   -6.7837   18.1094  -34.1845 H   0  0  0  0  0  0  0  0  0  0  0  0
   -6.2389   19.4276  -35.2855 H   0  0  0  0  0  0  0  0  0  0  0  0
   -4.4171   18.4279  -33.0715 H   0  0  0  0  0  0  0  0  0  0  0  0
   -4.5446   17.5254  -34.6194 H   0  0  0  0  0  0  0  0  0  0  0  0
   -3.9944   19.2354  -34.6194 H   0  0  0  0  0  0  0  0  0  0  0  0
   -4.6057   20.2881  -32.2436 H   0  0  0  0  0  0  0  0  0  0  0  0
   -4.7135   21.0272  -33.8819 H   0  0  0  0  0  0  0  0  0  0  0  0
   -7.9114   22.0318  -32.5571 H   0  0  0  0  0  0  0  0  0  0  0  0
   -7.7644   24.4568  -31.3646 H   0  0  0  0  0  0  0  0  0  0  0  0
   -1.0963   25.7314  -29.4467 H   0  0  0  0  0  0  0  0  0  0  0  0
   -0.0114   24.4474  -27.6016 H   0  0  0  0  0  0  0  0  0  0  0  0
   -1.2392   22.5805  -26.4853 H   0  0  0  0  0  0  0  0  0  0  0  0
   -3.5591   22.0036  -27.2095 H   0  0  0  0  0  0  0  0  0  0  0  0
   -4.6461   23.2795  -29.0557 H   0  0  0  0  0  0  0  0  0  0  0  0
  1  2  1  0
  2  3  1  0
  3  4  1  0
  4  5  1  0
  3  6  1  0
  6  7  1  0
  7  8  2  0
  8  9  1  0
  9 10  2  0
 10 11  1  0
 11 12  2  0
 11 13  1  0
 13 14  1  0
 14 15  2  0
 15 16  1  0
 16 17  2  0
 17 18  1  0
 18 19  2  0
 10 20  1  0
 20  7  1  0
 19 14  1  0
  1 21  1  0
  1 22  1  0
  1 23  1  0
  2 24  1  0
  2 25  1  0
  4 26  1  0
  4 27  1  0
  5 28  1  0
  5 29  1  0
  5 30  1  0
  6 31  1  0
  6 32  1  0
  8 33  1  0
  9 34  1  0
 15 35  1  0
 16 36  1  0
 17 37  1  0
 18 38  1  0
 19 39  1  0
M  CHG  1  13  -1
M  END
>  <UniqueID>  (16) 
12

>  <SMILES>  (16) 
CCN(CC)Cc1ccc(C(=O)[N-]c2ccccc2)o1

>  <Energy>  (16) 
67.21272510185955

>  <Genealogy>  (16) 
CCN(CC)Cc1ccc(C(=O)[N-]c2ccccc2)o1 (protonated)
CCN(CC)Cc1ccc(C(=O)[N-]c2ccccc2)o1 (3D coordinates assigned)
CCN(CC)Cc1ccc(C(=O)[N-]c2ccccc2)o1 (optimized conformer: 67.21272510185955 kcal/mol)

>  <smiles>  (16) 
CCN(CC)Cc1ccc(C(=O)Nc2ccccc2)o1

>  <score_type>  (16) 
oracle

>  <origin>  (16) 
adg

>  <m_score__min__energy>  (16) 
-8.6999999999999993

>  <m_primary>  (16) 
energy

$$$$
16:0
     RDKit          3D

 34 36  0  0  0  0  0  0  0  0999 V2000
   -3.0210   24.9020  -26.8090 C   0  0  0  0  0  0  0  0  0  0  0  0
   -1.7670   25.3010  -27.5710 C   0  0  0  0  0  0  0  0  0  0  0  0
   -2.0650   25.3740  -28.9640 O   0  0  0  0  0  0  0  0  0  0  0  0
   -2.6360   24.3580  -29.7240 N   0  0  0  0  0  0  0  0  0  0  0  0
   -1.9740   23.1660  -29.7150 C   0  0  0  0  0  0  0  0  0  0  0  0
   -2.4480   22.0710  -30.4370 C   0  0  0  0  0  0  0  0  0  0  0  0
   -3.6280   22.1810  -31.1820 C   0  0  0  0  0  0  0  0  0  0  0  0
   -4.1300   21.0160  -31.9550 C   0  0  0  0  0  0  0  0  0  0  0  0
   -3.4030   20.4620  -33.0250 C   0  0  0  0  0  0  0  0  0  0  0  0
   -3.9040   19.3970  -33.7080 N   0  0  0  0  0  0  0  0  0  0  0  0
   -5.1090   18.8540  -33.3790 C   0  0  0  0  0  0  0  0  0  0  0  0
   -5.6280   17.7580  -34.0820 C   0  0  0  0  0  0  0  0  0  0  0  0
   -6.8720   17.2230  -33.7260 C   0  0  0  0  0  0  0  0  0  0  0  0
   -7.6010   17.7800  -32.6710 C   0  0  0  0  0  0  0  0  0  0  0  0
   -7.0900   18.8750  -31.9650 C   0  0  0  0  0  0  0  0  0  0  0  0
   -5.8480   19.4130  -32.3160 C   0  0  0  0  0  0  0  0  0  0  0  0
   -5.3400   20.4740  -31.6380 N   0  0  0  0  0  0  0  0  0  0  0  0
   -4.2940   23.4160  -31.1950 C   0  0  0  0  0  0  0  0  0  0  0  0
   -3.7900   24.4970  -30.4620 C   0  0  0  0  0  0  0  0  0  0  0  0
   -4.4160   25.5880  -30.5030 O   0  0  0  0  0  0  0  0  0  0  0  0
   -2.8281   24.9634  -25.7278 H   0  0  0  0  0  0  0  0  0  0  0  0
   -3.8433   25.5829  -27.0740 H   0  0  0  0  0  0  0  0  0  0  0  0
   -3.2987   23.8711  -27.0740 H   0  0  0  0  0  0  0  0  0  0  0  0
   -1.4192   26.2829  -27.2177 H   0  0  0  0  0  0  0  0  0  0  0  0
   -0.9790   24.5524  -27.4015 H   0  0  0  0  0  0  0  0  0  0  0  0
   -1.0493   23.0662  -29.1276 H   0  0  0  0  0  0  0  0  0  0  0  0
   -1.8944   21.1206  -30.4210 H   0  0  0  0  0  0  0  0  0  0  0  0
   -2.4302   20.8897  -33.3091 H   0  0  0  0  0  0  0  0  0  0  0  0
   -3.3470   19.0020  -34.5000 H   0  0  0  0  0  0  0  0  0  0  0  0
   -5.0579   17.3181  -34.9135 H   0  0  0  0  0  0  0  0  0  0  0  0
   -7.2769   16.3620  -34.2780 H   0  0  0  0  0  0  0  0  0  0  0  0
   -8.5782   17.3567  -32.3953 H   0  0  0  0  0  0  0  0  0  0  0  0
   -7.6647   19.3119  -31.1350 H   0  0  0  0  0  0  0  0  0  0  0  0
   -5.2157   23.5352  -31.7834 H   0  0  0  0  0  0  0  0  0  0  0  0
  1  2  1  0
  2  3  1  0
  3  4  1  0
  4  5  1  0
  5  6  2  0
  6  7  1  0
  7  8  1  0
  8  9  2  0
  9 10  1  0
 10 11  2  0
 11 12  1  0
 12 13  2  0
 13 14  1  0
 14 15  2  0
 15 16  1  0
 16 17  2  0
  7 18  2  0
 18 19  1  0
 19 20  2  0
 19  4  1  0
 17  8  1  0
 16 11  1  0
  1 21  1  0
  1 22  1  0
  1 23  1  0
  2 24  1  0
  2 25  1  0
  5 26  1  0
  6 27  1  0
  9 28  1  0
 10 29  1  0
 12 30  1  0
 13 31  1  0
 14 32  1  0
 15 33  1  0
 18 34  1  0
M  CHG  1  10   1
M  END
>  <UniqueID>  (17) 
13

>  <SMILES>  (17) 
CCOn1ccc(-c2c[nH+]c3ccccc3n2)cc1=O

>  <Energy>  (17) 
45.56858601601616

>  <Genealogy>  (17) 
CCOn1ccc(-c2c[nH+]c3ccccc3n2)cc1=O (protonated)
CCOn1ccc(-c2c[nH+]c3ccccc3n2)cc1=O (3D coordinates assigned)
CCOn1ccc(-c2c[nH+]c3ccccc3n2)cc1=O (optimized conformer: 45.56858601601616 kcal/mol)

>  <smiles>  (17) 
CCOn1ccc(-c2cnc3ccccc3n2)cc1=O

>  <score_type>  (17) 
oracle

>  <origin>  (17) 
adg

>  <m_score__min__energy>  (17) 
-6.7999999999999998

>  <m_primary>  (17) 
energy

$$$$
17:0
     RDKit          3D

 39 40  0  0  0  0  0  0  0  0999 V2000
   -6.8350   23.5570  -30.1200 C   0  0  0  0  0  0  0  0  0  0  0  0
   -6.0940   24.4270  -31.1300 C   0  0  0  0  0  0  0  0  0  0  0  0
   -5.2770   25.5140  -30.4260 C   0  0  0  0  0  0  0  0  0  0  0  0
   -3.8460   25.2900  -30.6160 N   0  0  0  0  0  0  0  0  0  0  0  0
   -2.9640   24.6840  -29.6600 C   0  0  0  0  0  0  0  0  0  0  0  0
   -1.9150   25.2960  -29.3290 O   0  0  0  0  0  0  0  0  0  0  0  0
   -3.2580   23.3810  -29.0360 C   0  0  0  0  0  0  0  0  0  0  0  0
   -3.0690   22.1050  -29.5460 C   0  0  0  0  0  0  0  0  0  0  0  0
   -2.4210   21.7320  -30.8260 C   0  0  0  0  0  0  0  0  0  0  0  0
   -1.0250   21.5780  -30.8650 C   0  0  0  0  0  0  0  0  0  0  0  0
   -0.3810   21.2130  -32.0480 C   0  0  0  0  0  0  0  0  0  0  0  0
   -1.1190   21.0020  -33.2180 C   0  0  0  0  0  0  0  0  0  0  0  0
   -0.4300   20.5650  -34.4760 C   0  0  0  0  0  0  0  0  0  0  0  0
   -2.5140   21.1350  -33.1870 C   0  0  0  0  0  0  0  0  0  0  0  0
   -3.1750   21.5170  -32.0060 C   0  0  0  0  0  0  0  0  0  0  0  0
   -4.6710   21.6880  -32.0320 C   0  0  0  0  0  0  0  0  0  0  0  0
   -3.4820   21.2040  -28.6310 N   0  0  0  0  0  0  0  0  0  0  0  0
   -3.9100   21.8700  -27.5960 O   0  0  0  0  0  0  0  0  0  0  0  0
   -3.7950   23.1630  -27.7830 C   0  0  0  0  0  0  0  0  0  0  0  0
   -4.1930   24.1980  -26.7840 C   0  0  0  0  0  0  0  0  0  0  0  0
   -6.5678   23.8707  -29.1001 H   0  0  0  0  0  0  0  0  0  0  0  0
   -7.9196   23.6688  -30.2657 H   0  0  0  0  0  0  0  0  0  0  0  0
   -6.5521   22.5040  -30.2657 H   0  0  0  0  0  0  0  0  0  0  0  0
   -5.4158   23.7936  -31.7207 H   0  0  0  0  0  0  0  0  0  0  0  0
   -6.8344   24.9134  -31.7821 H   0  0  0  0  0  0  0  0  0  0  0  0
   -5.5472   26.4955  -30.8428 H   0  0  0  0  0  0  0  0  0  0  0  0
   -5.4997   25.4817  -29.3493 H   0  0  0  0  0  0  0  0  0  0  0  0
   -0.4333   21.7470  -29.9532 H   0  0  0  0  0  0  0  0  0  0  0  0
    0.7121   21.0906  -32.0608 H   0  0  0  0  0  0  0  0  0  0  0  0
    0.4733   19.9921  -34.2193 H   0  0  0  0  0  0  0  0  0  0  0  0
   -1.1100   19.9327  -35.0658 H   0  0  0  0  0  0  0  0  0  0  0  0
   -0.1479   21.4496  -35.0658 H   0  0  0  0  0  0  0  0  0  0  0  0
   -3.0989   20.9382  -34.0976 H   0  0  0  0  0  0  0  0  0  0  0  0
   -5.0530   21.7317  -31.0014 H   0  0  0  0  0  0  0  0  0  0  0  0
   -4.9243   22.6210  -32.5568 H   0  0  0  0  0  0  0  0  0  0  0  0
   -5.1283   20.8363  -32.5568 H   0  0  0  0  0  0  0  0  0  0  0  0
   -4.0416   23.8044  -25.7681 H   0  0  0  0  0  0  0  0  0  0  0  0
   -3.5770   25.0986  -26.9238 H   0  0  0  0  0  0  0  0  0  0  0  0
   -5.2537   24.4539  -26.9238 H   0  0  0  0  0  0  0  0  0  0  0  0
  1  2  1  0
  2  3  1  0
  3  4  1  0
  4  5  1  0
  5  6  2  0
  5  7  1  0
  7  8  1  0
  8  9  1  0
  9 10  2  0
 10 11  1  0
 11 12  2  0
 12 13  1  0
 12 14  1  0
 14 15  2  0
 15 16  1  0
  8 17  2  0
 17 18  1  0
 18 19  1  0
 19 20  1  0
 19  7  2  0
 15  9  1  0
  1 21  1  0
  1 22  1  0
  1 23  1  0
  2 24  1  0
  2 25  1  0
  3 26  1  0
  3 27  1  0
 10 28  1  0
 11 29  1  0
 13 30  1  0
 13 31  1  0
 13 32  1  0
 14 33  1  0
 16 34  1  0
 16 35  1  0
 16 36  1  0
 20 37  1  0
 20 38  1  0
 20 39  1  0
M  CHG  1   4  -1
M  END
>  <UniqueID>  (18) 
14

>  <SMILES>  (18) 
CCC[N-]C(=O)c1c(-c2ccc(C)cc2C)noc1C

>  <Energy>  (18) 
70.85346342380433

>  <Genealogy>  (18) 
CCC[N-]C(=O)c1c(-c2ccc(C)cc2C)noc1C (protonated)
CCC[N-]C(=O)c1c(-c2ccc(C)cc2C)noc1C (3D coordinates assigned)
CCC[N-]C(=O)c1c(-c2ccc(C)cc2C)noc1C (optimized conformer: 70.85346342380433 kcal/mol)

>  <smiles>  (18) 
CCCNC(=O)c1c(-c2ccc(C)cc2C)noc1C

>  <score_type>  (18) 
oracle

>  <origin>  (18) 
adg

>  <m_score__min__energy>  (18) 
-8.4000000000000004

>  <m_primary>  (18) 
energy

$$$$
18:0
     RDKit          3D

 20 20  0  0  0  0  0  0  0  0999 V2000
   -0.9621   25.3994  -27.3722 H   0  0  0  0  0  0  0  0  0  0  0  0
   -1.5300   24.7440  -28.0490 C   0  0  0  0  0  0  0  0  0  0  0  0
   -2.3730   25.2840  -28.9680 N   0  0  0  0  0  0  0  0  0  0  0  0
   -3.0930   24.5200  -29.8340 C   0  0  0  0  0  0  0  0  0  0  0  0
   -3.8810   25.1190  -30.6810 N   0  0  0  0  0  0  0  0  0  0  0  0
   -5.2970   24.9360  -30.8290 C   0  0  0  0  0  0  0  0  0  0  0  0
   -5.7500   24.5450  -31.9360 O   0  0  0  0  0  0  0  0  0  0  0  0
   -6.2450   25.1260  -29.6700 C   0  0  0  0  0  0  0  0  0  0  0  0
   -6.8940   24.2414  -29.5915 H   0  0  0  0  0  0  0  0  0  0  0  0
   -6.8373   26.0340  -29.8566 H   0  0  0  0  0  0  0  0  0  0  0  0
   -5.5270   25.3010  -28.4070 N   0  0  0  0  0  0  0  0  0  0  0  0
   -5.8560   26.1660  -27.9200 H   0  0  0  0  0  0  0  0  0  0  0  0
   -4.4970   25.3600  -28.5820 H   0  0  0  0  0  0  0  0  0  0  0  0
   -5.7180   24.4780  -27.7900 H   0  0  0  0  0  0  0  0  0  0  0  0
   -2.9830   23.1150  -29.7600 C   0  0  0  0  0  0  0  0  0  0  0  0
   -3.5719   22.4761  -30.4345 H   0  0  0  0  0  0  0  0  0  0  0  0
   -2.1200   22.5430  -28.8230 C   0  0  0  0  0  0  0  0  0  0  0  0
   -2.0206   21.4491  -28.7631 H   0  0  0  0  0  0  0  0  0  0  0  0
   -1.3840   23.3580  -27.9630 C   0  0  0  0  0  0  0  0  0  0  0  0
   -0.2990   22.6510  -26.7800 Cl  0  0  0  0  0  0  0  0  0  0  0  0
  1  2  1  0
  2  3  1  0
  3  4  1  0
  4  5  2  0
  5  6  1  0
  6  7  2  0
  6  8  1  0
  8  9  1  0
  8 10  1  0
  8 11  1  0
 11 12  1  0
 11 13  1  0
 11 14  1  0
  4 15  1  0
 15 16  1  0
 15 17  2  0
 17 18  1  0
 17 19  1  0
 19 20  1  0
 19  2  2  0
M  CHG  2   3  -1  11   1
M  END
>  <UniqueID>  (19) 
15

>  <SMILES>  (19) 
[NH3+]CC(=O)/N=c1\ccc(Cl)c[n-]1

>  <Energy>  (19) 
27.728933861614788

>  <Genealogy>  (19) 
[NH3+]CC(=O)N=c1ccc(Cl)c[n-]1 (protonated)
[NH3+]CC(=O)/N=c1\ccc(Cl)c[n-]1 (cis-trans isomerization)
[NH3+]CC(=O)/N=c1\ccc(Cl)c[n-]1 (3D coordinates assigned)
[NH3+]CC(=O)/N=c1\ccc(Cl)c[n-]1 (optimized conformer: 27.728933861614788 kcal/mol)

>  <smiles>  (19) 
NCC(=O)N=c1ccc(Cl)c[nH]1

>  <score_type>  (19) 
oracle

>  <origin>  (19) 
adg

>  <m_score__min__energy>  (19) 
-6.2999999999999998

>  <m_primary>  (19) 
energy

$$$$
19:0
     RDKit          3D

 40 39  0  0  0  0  0  0  0  0999 V2000
   -6.7639   24.8757  -31.9969 H   0  0  0  0  0  0  0  0  0  0  0  0
   -5.9060   24.3920  -31.5070 C   0  0  0  0  0  0  0  0  0  0  0  0
   -5.1570   25.1890  -30.5130 C   0  0  0  0  0  0  0  0  0  0  0  0
   -5.6900   25.4390  -29.4010 O   0  0  0  0  0  0  0  0  0  0  0  0
   -3.8680   25.6480  -30.7590 O   0  0  0  0  0  0  0  0  0  0  0  0
   -3.6500   21.6640  -31.4630 C   0  0  0  0  0  0  0  0  0  0  0  0
   -3.8890   21.5430  -30.0110 C   0  0  0  0  0  0  0  0  0  0  0  0
   -2.2990   22.5045  -29.0498 H   0  0  0  0  0  0  0  0  0  0  0  0
   -3.3910   22.3780  -29.0880 C   0  0  0  0  0  0  0  0  0  0  0  0
   -4.2420   22.6710  -32.1260 C   0  0  0  0  0  0  0  0  0  0  0  0
   -3.6656   23.1885  -32.9070 H   0  0  0  0  0  0  0  0  0  0  0  0
   -5.6270   23.1230  -31.8640 C   0  0  0  0  0  0  0  0  0  0  0  0
   -4.5186   20.7109  -29.6629 H   0  0  0  0  0  0  0  0  0  0  0  0
   -4.2230   23.1580  -28.0960 C   0  0  0  0  0  0  0  0  0  0  0  0
   -5.2732   23.1434  -28.4229 H   0  0  0  0  0  0  0  0  0  0  0  0
   -4.1094   22.6861  -27.1089 H   0  0  0  0  0  0  0  0  0  0  0  0
   -3.7760   24.5600  -27.9880 N   0  0  0  0  0  0  0  0  0  0  0  0
   -3.6490   24.9420  -28.9530 H   0  0  0  0  0  0  0  0  0  0  0  0
   -4.5380   25.1220  -27.5410 H   0  0  0  0  0  0  0  0  0  0  0  0
   -2.5200   24.7170  -27.2120 C   0  0  0  0  0  0  0  0  0  0  0  0
   -2.2170   23.7162  -26.8706 H   0  0  0  0  0  0  0  0  0  0  0  0
   -2.7260   25.6110  -25.9760 C   0  0  0  0  0  0  0  0  0  0  0  0
   -2.5881   25.0125  -25.0635 H   0  0  0  0  0  0  0  0  0  0  0  0
   -1.9934   26.4314  -25.9906 H   0  0  0  0  0  0  0  0  0  0  0  0
   -3.7438   26.0280  -25.9906 H   0  0  0  0  0  0  0  0  0  0  0  0
   -1.4180   25.3190  -28.0970 C   0  0  0  0  0  0  0  0  0  0  0  0
   -0.6307   25.7491  -27.4605 H   0  0  0  0  0  0  0  0  0  0  0  0
   -0.9866   24.5313  -28.7321 H   0  0  0  0  0  0  0  0  0  0  0  0
   -1.8477   26.1077  -28.7321 H   0  0  0  0  0  0  0  0  0  0  0  0
   -2.8280   20.6120  -32.1660 C   0  0  0  0  0  0  0  0  0  0  0  0
   -2.3307   19.9756  -31.4192 H   0  0  0  0  0  0  0  0  0  0  0  0
   -3.4847   19.9937  -32.7957 H   0  0  0  0  0  0  0  0  0  0  0  0
   -2.0693   21.0997  -32.7957 H   0  0  0  0  0  0  0  0  0  0  0  0
   -6.7620   22.1780  -32.1770 C   0  0  0  0  0  0  0  0  0  0  0  0
   -6.5371   21.1904  -31.7481 H   0  0  0  0  0  0  0  0  0  0  0  0
   -6.8692   22.1069  -33.2694 H   0  0  0  0  0  0  0  0  0  0  0  0
   -8.0730   22.6900  -31.5910 C   0  0  0  0  0  0  0  0  0  0  0  0
   -8.0170   22.6681  -30.4926 H   0  0  0  0  0  0  0  0  0  0  0  0
   -8.2472   23.7223  -31.9288 H   0  0  0  0  0  0  0  0  0  0  0  0
   -8.9007   22.0490  -31.9288 H   0  0  0  0  0  0  0  0  0  0  0  0
  1  2  1  0
  2  3  1  0
  3  4  2  0
  3  5  1  0
  2  6  2  0
  6  7  1  0
  7  8  1  0
  7  9  2  0
  9 10  1  0
 10 11  1  0
 10 12  2  0
 12 13  1  0
 12 14  1  0
 14 15  1  0
 14 16  1  0
 14 17  1  0
 17 18  1  0
 17 19  1  0
 17 20  1  0
 20 21  1  0
 20 22  1  0
 22 23  1  0
 22 24  1  0
 22 25  1  0
 20 26  1  0
 26 27  1  0
 26 28  1  0
 26 29  1  0
  9 30  1  0
 30 31  1  0
 30 32  1  0
 30 33  1  0
  6 34  1  0
 34 35  1  0
 34 36  1  0
 34 37  1  0
 37 38  1  0
 37 39  1  0
 37 40  1  0
M  CHG  2   5  -1  17   1
M  END
>  <UniqueID>  (20) 
16

>  <SMILES>  (20) 
CCC(=C/C(=O)[O-])/C=C(C)/C=C\C[NH2+]C(C)C

>  <Energy>  (20) 
43.42125145463079

>  <Genealogy>  (20) 
CCC(C=C(C)C=CC[NH2+]C(C)C)=CC(=O)[O-] (protonated)
CCC(=C/C(=O)[O-])/C=C(C)/C=C\C[NH2+]C(C)C (cis-trans isomerization)
CCC(=C/C(=O)[O-])/C=C(C)/C=C\C[NH2+]C(C)C (3D coordinates assigned)
CCC(=C/C(=O)[O-])/C=C(C)/C=C\C[NH2+]C(C)C (optimized conformer: 43.42125145463079 kcal/mol)

>  <smiles>  (20) 
CCC(C=C(C)C=CCNC(C)C)=CC(=O)O

>  <score_type>  (20) 
oracle

>  <origin>  (20) 
adg

>  <m_score__min__energy>  (20) 
-8.7699999999999996

>  <m_primary>  (20) 
energy

$$$$
20:0
     RDKit          3D

 37 39  0  0  0  0  0  0  0  0999 V2000
   -5.3660   26.5810  -30.4670 O   0  0  0  0  0  0  0  0  0  0  0  0
   -4.8920   25.4240  -30.6270 C   0  0  0  0  0  0  0  0  0  0  0  0
   -3.5120   25.2520  -30.6020 O   0  0  0  0  0  0  0  0  0  0  0  0
   -5.7880   24.2660  -30.8380 C   0  0  0  0  0  0  0  0  0  0  0  0
   -5.9380   23.7100  -32.1200 C   0  0  0  0  0  0  0  0  0  0  0  0
   -6.7830   22.6150  -32.3240 C   0  0  0  0  0  0  0  0  0  0  0  0
   -7.4920   22.0580  -31.2500 C   0  0  0  0  0  0  0  0  0  0  0  0
   -8.3810   20.8650  -31.4690 C   0  0  0  0  0  0  0  0  0  0  0  0
   -7.9690   20.0240  -33.0380 S   0  0  0  0  0  0  0  0  0  0  0  0
   -7.0040   18.7180  -32.2730 C   0  0  0  0  0  0  0  0  0  0  0  0
   -7.4400   17.9620  -31.2470 N   0  0  0  0  0  0  0  0  0  0  0  0
   -6.4290   17.1420  -30.9950 N   0  0  0  0  0  0  0  0  0  0  0  0
   -5.4120   17.3740  -31.8090 N   0  0  0  0  0  0  0  0  0  0  0  0
   -5.7510   18.3650  -32.6150 N   0  0  0  0  0  0  0  0  0  0  0  0
   -4.8900   18.9280  -33.6520 C   0  0  0  0  0  0  0  0  0  0  0  0
   -3.9350   19.9270  -33.0580 C   0  0  0  0  0  0  0  0  0  0  0  0
   -4.2320   20.5670  -31.8440 C   0  0  0  0  0  0  0  0  0  0  0  0
   -3.3500   21.5130  -31.3110 C   0  0  0  0  0  0  0  0  0  0  0  0
   -2.1650   21.8220  -31.9840 C   0  0  0  0  0  0  0  0  0  0  0  0
   -1.8580   21.1840  -33.1890 C   0  0  0  0  0  0  0  0  0  0  0  0
   -2.7370   20.2380  -33.7250 C   0  0  0  0  0  0  0  0  0  0  0  0
   -7.3430   22.6090  -29.9670 C   0  0  0  0  0  0  0  0  0  0  0  0
   -6.4980   23.7030  -29.7630 C   0  0  0  0  0  0  0  0  0  0  0  0
   -5.3864   24.1396  -32.9693 H   0  0  0  0  0  0  0  0  0  0  0  0
   -6.8922   22.1883  -33.3320 H   0  0  0  0  0  0  0  0  0  0  0  0
   -8.2478   20.1589  -30.6361 H   0  0  0  0  0  0  0  0  0  0  0  0
   -9.4247   21.2088  -31.5181 H   0  0  0  0  0  0  0  0  0  0  0  0
   -6.4340   16.4100  -30.2510 H   0  0  0  0  0  0  0  0  0  0  0  0
   -4.3174   18.1175  -34.1266 H   0  0  0  0  0  0  0  0  0  0  0  0
   -5.5178   19.4361  -34.3988 H   0  0  0  0  0  0  0  0  0  0  0  0
   -5.1622   20.3235  -31.3098 H   0  0  0  0  0  0  0  0  0  0  0  0
   -3.5895   22.0140  -30.3614 H   0  0  0  0  0  0  0  0  0  0  0  0
   -1.4734   22.5678  -31.5651 H   0  0  0  0  0  0  0  0  0  0  0  0
   -0.9236   21.4264  -33.7164 H   0  0  0  0  0  0  0  0  0  0  0  0
   -2.4904   19.7353  -34.6718 H   0  0  0  0  0  0  0  0  0  0  0  0
   -7.8941   22.1773  -29.1185 H   0  0  0  0  0  0  0  0  0  0  0  0
   -6.3875   24.1268  -28.7540 H   0  0  0  0  0  0  0  0  0  0  0  0
  1  2  2  0
  2  3  1  0
  2  4  1  0
  4  5  2  0
  5  6  1  0
  6  7  2  0
  7  8  1  0
  8  9  1  0
  9 10  1  0
 10 11  2  0
 11 12  1  0
 12 13  2  0
 13 14  1  0
 14 15  1  0
 15 16  1  0
 16 17  2  0
 17 18  1  0
 18 19  2  0
 19 20  1  0
 20 21  2  0
  7 22  1  0
 22 23  2  0
 23  4  1  0
 14 10  1  0
 21 16  1  0
  5 24  1  0
  6 25  1  0
  8 26  1  0
  8 27  1  0
 12 28  1  0
 15 29  1  0
 15 30  1  0
 17 31  1  0
 18 32  1  0
 19 33  1  0
 20 34  1  0
 21 35  1  0
 22 36  1  0
 23 37  1  0
M  CHG  2   3  -1  12   1
M  END
>  <UniqueID>  (21) 
17

>  <SMILES>  (21) 
O=C([O-])c1ccc(CSc2n[nH+]nn2Cc2ccccc2)cc1

>  <Energy>  (21) 
73.30938296562734

>  <Genealogy>  (21) 
O=C([O-])c1ccc(CSc2n[nH+]nn2Cc2ccccc2)cc1 (protonated)
O=C([O-])c1ccc(CSc2n[nH+]nn2Cc2ccccc2)cc1 (3D coordinates assigned)
O=C([O-])c1ccc(CSc2n[nH+]nn2Cc2ccccc2)cc1 (optimized conformer: 73.30938296562734 kcal/mol)

>  <smiles>  (21) 
O=C(O)c1ccc(CSc2nnnn2Cc2ccccc2)cc1

>  <score_type>  (21) 
oracle

>  <origin>  (21) 
adg

>  <m_score__min__energy>  (21) 
-10.65

>  <m_primary>  (21) 
energy

$$$$
21:0
     RDKit          3D

 27 29  0  0  0  0  0  0  0  0999 V2000
   -4.3210   20.9650  -32.0590 O   0  0  0  0  0  0  0  0  0  0  0  0
   -5.4430   21.5010  -31.8320 C   0  0  0  0  0  0  0  0  0  0  0  0
   -5.5020   22.7700  -31.2280 C   0  0  0  0  0  0  0  0  0  0  0  0
   -4.3470   23.4740  -30.8380 C   0  0  0  0  0  0  0  0  0  0  0  0
   -4.4630   24.7340  -30.2430 C   0  0  0  0  0  0  0  0  0  0  0  0
   -5.7250   25.3000  -30.0340 C   0  0  0  0  0  0  0  0  0  0  0  0
   -6.8770   24.6100  -30.4200 C   0  0  0  0  0  0  0  0  0  0  0  0
   -6.7690   23.3470  -31.0170 C   0  0  0  0  0  0  0  0  0  0  0  0
   -7.8860   22.6780  -31.3920 N   0  0  0  0  0  0  0  0  0  0  0  0
   -7.8120   21.4530  -31.9710 C   0  0  0  0  0  0  0  0  0  0  0  0
   -6.6000   20.8570  -32.1890 N   0  0  0  0  0  0  0  0  0  0  0  0
   -6.5670   19.5490  -32.7960 C   0  0  0  0  0  0  0  0  0  0  0  0
   -7.1990   18.4600  -32.1720 C   0  0  0  0  0  0  0  0  0  0  0  0
   -7.1600   17.1910  -32.7570 C   0  0  0  0  0  0  0  0  0  0  0  0
   -6.4880   16.9980  -33.9670 C   0  0  0  0  0  0  0  0  0  0  0  0
   -5.8530   18.0740  -34.5930 C   0  0  0  0  0  0  0  0  0  0  0  0
   -5.8890   19.3450  -34.0100 C   0  0  0  0  0  0  0  0  0  0  0  0
   -3.3528   23.0326  -31.0014 H   0  0  0  0  0  0  0  0  0  0  0  0
   -3.5591   25.2818  -29.9383 H   0  0  0  0  0  0  0  0  0  0  0  0
   -5.8107   26.2911  -29.5645 H   0  0  0  0  0  0  0  0  0  0  0  0
   -7.8680   25.0580  -30.2553 H   0  0  0  0  0  0  0  0  0  0  0  0
   -8.7354   20.9342  -32.2679 H   0  0  0  0  0  0  0  0  0  0  0  0
   -7.7271   18.6069  -31.2183 H   0  0  0  0  0  0  0  0  0  0  0  0
   -7.6588   16.3434  -32.2643 H   0  0  0  0  0  0  0  0  0  0  0  0
   -6.4589   15.9991  -34.4267 H   0  0  0  0  0  0  0  0  0  0  0  0
   -5.3242   17.9213  -35.5454 H   0  0  0  0  0  0  0  0  0  0  0  0
   -5.3844   20.1885  -34.5039 H   0  0  0  0  0  0  0  0  0  0  0  0
  1  2  2  0
  2  3  1  0
  3  4  2  0
  4  5  1  0
  5  6  2  0
  6  7  1  0
  7  8  2  0
  8  9  1  0
  9 10  2  0
 10 11  1  0
 11 12  1  0
 12 13  2  0
 13 14  1  0
 14 15  2  0
 15 16  1  0
 16 17  2  0
 11  2  1  0
 17 12  1  0
  8  3  1  0
  4 18  1  0
  5 19  1  0
  6 20  1  0
  7 21  1  0
 10 22  1  0
 13 23  1  0
 14 24  1  0
 15 25  1  0
 16 26  1  0
 17 27  1  0
M  END
>  <UniqueID>  (22) 
18

>  <SMILES>  (22) 
O=c1c2ccccc2ncn1-c1ccccc1

>  <Energy>  (22) 
42.92718968528756

>  <Genealogy>  (22) 
O=c1c2ccccc2ncn1-c1ccccc1 (3D coordinates assigned)
O=c1c2ccccc2ncn1-c1ccccc1 (optimized conformer: 42.92718968528756 kcal/mol)

>  <smiles>  (22) 
O=c1c2ccccc2ncn1-c1ccccc1

>  <score_type>  (22) 
oracle

>  <origin>  (22) 
adg

>  <m_score__min__energy>  (22) 
-6.7599999999999998

>  <m_primary>  (22) 
energy

$$$$
22:0
     RDKit          3D

 57 60  0  0  0  0  0  0  0  0999 V2000
   -9.0790   19.3350  -32.2760 C   0  0  0  0  0  0  0  0  0  0  0  0
   -7.6800   19.1060  -31.7160 C   0  0  0  0  0  0  0  0  0  0  0  0
   -6.8850   18.2100  -32.6210 C   0  0  0  0  0  0  0  0  0  0  0  0
   -7.2310   16.9160  -32.8430 N   0  0  0  0  0  0  0  0  0  0  0  0
   -6.2540   16.3350  -33.5290 N   0  0  0  0  0  0  0  0  0  0  0  0
   -6.2230   14.9190  -33.8680 C   0  0  0  0  0  0  0  0  0  0  0  0
   -5.2710   17.2300  -33.7080 C   0  0  0  0  0  0  0  0  0  0  0  0
   -4.0520   16.9980  -34.2510 N   0  0  0  0  0  0  0  0  0  0  0  0
   -3.1520   18.0240  -34.2730 C   0  0  0  0  0  0  0  0  0  0  0  0
   -3.4820   19.2490  -33.7590 N   0  0  0  0  0  0  0  0  0  0  0  0
   -4.7070   19.4920  -33.2040 C   0  0  0  0  0  0  0  0  0  0  0  0
   -5.0240   20.8510  -32.7390 C   0  0  0  0  0  0  0  0  0  0  0  0
   -4.0040   21.6990  -32.2850 C   0  0  0  0  0  0  0  0  0  0  0  0
   -4.3050   23.0000  -31.8620 C   0  0  0  0  0  0  0  0  0  0  0  0
   -5.6270   23.4580  -31.8940 C   0  0  0  0  0  0  0  0  0  0  0  0
   -5.9450   24.7700  -31.4240 N   0  0  0  0  0  0  0  0  0  0  0  0
   -5.2820   25.3430  -30.2940 C   0  0  0  0  0  0  0  0  0  0  0  0
   -5.9290   26.0630  -29.4900 O   0  0  0  0  0  0  0  0  0  0  0  0
   -3.8710   25.1790  -30.1280 N   0  0  0  0  0  0  0  0  0  0  0  0
   -3.2860   24.1610  -29.3000 C   0  0  0  0  0  0  0  0  0  0  0  0
   -1.8900   24.0250  -29.2630 C   0  0  0  0  0  0  0  0  0  0  0  0
   -1.2950   22.9880  -28.5410 C   0  0  0  0  0  0  0  0  0  0  0  0
   -2.0900   22.0590  -27.8520 C   0  0  0  0  0  0  0  0  0  0  0  0
   -1.4580   20.9330  -27.1330 C   0  0  0  0  0  0  0  0  0  0  0  0
   -1.2320   21.0440  -25.8980 O   0  0  0  0  0  0  0  0  0  0  0  0
   -1.0980   19.7130  -27.8110 N   0  0  0  0  0  0  0  0  0  0  0  0
   -1.1960   18.4420  -27.0950 C   0  0  0  0  0  0  0  0  0  0  0  0
   -0.6390   19.7220  -29.2020 C   0  0  0  0  0  0  0  0  0  0  0  0
   -3.4840   22.2240  -27.8430 C   0  0  0  0  0  0  0  0  0  0  0  0
   -4.0770   23.2720  -28.5520 C   0  0  0  0  0  0  0  0  0  0  0  0
   -6.6360   22.6300  -32.4060 C   0  0  0  0  0  0  0  0  0  0  0  0
   -6.3360   21.3360  -32.8330 C   0  0  0  0  0  0  0  0  0  0  0  0
   -5.6230   18.4330  -33.1700 C   0  0  0  0  0  0  0  0  0  0  0  0
   -9.7916   19.4516  -31.4462 H   0  0  0  0  0  0  0  0  0  0  0  0
   -9.0824   20.2457  -32.8930 H   0  0  0  0  0  0  0  0  0  0  0  0
   -9.3726   18.4730  -32.8930 H   0  0  0  0  0  0  0  0  0  0  0  0
   -7.1654   20.0738  -31.6235 H   0  0  0  0  0  0  0  0  0  0  0  0
   -7.7684   18.6244  -30.7310 H   0  0  0  0  0  0  0  0  0  0  0  0
   -6.2099   14.3211  -32.9447 H   0  0  0  0  0  0  0  0  0  0  0  0
   -7.1158   14.6635  -34.4577 H   0  0  0  0  0  0  0  0  0  0  0  0
   -5.3199   14.7028  -34.4577 H   0  0  0  0  0  0  0  0  0  0  0  0
   -2.1538   17.8652  -34.7071 H   0  0  0  0  0  0  0  0  0  0  0  0
   -2.9640   21.3415  -32.2609 H   0  0  0  0  0  0  0  0  0  0  0  0
   -3.5022   23.6617  -31.5047 H   0  0  0  0  0  0  0  0  0  0  0  0
   -3.2630   25.6620  -30.8280 H   0  0  0  0  0  0  0  0  0  0  0  0
   -1.2582   24.7419  -29.8078 H   0  0  0  0  0  0  0  0  0  0  0  0
   -0.1990   22.8990  -28.5123 H   0  0  0  0  0  0  0  0  0  0  0  0
   -1.1815   18.6296  -26.0112 H   0  0  0  0  0  0  0  0  0  0  0  0
   -2.1356   17.9391  -27.3675 H   0  0  0  0  0  0  0  0  0  0  0  0
   -0.3446   17.8010  -27.3675 H   0  0  0  0  0  0  0  0  0  0  0  0
    0.4605   19.7436  -29.2252 H   0  0  0  0  0  0  0  0  0  0  0  0
   -0.9988   18.8166  -29.7127 H   0  0  0  0  0  0  0  0  0  0  0  0
   -1.0340   20.6126  -29.7127 H   0  0  0  0  0  0  0  0  0  0  0  0
   -4.1135   21.5239  -27.2742 H   0  0  0  0  0  0  0  0  0  0  0  0
   -5.1690   23.4020  -28.5246 H   0  0  0  0  0  0  0  0  0  0  0  0
   -7.6690   23.0023  -32.4714 H   0  0  0  0  0  0  0  0  0  0  0  0
   -7.1302   20.6954  -33.2440 H   0  0  0  0  0  0  0  0  0  0  0  0
  1  2  1  0
  2  3  1  0
  3  4  2  0
  4  5  1  0
  5  6  1  0
  5  7  1  0
  7  8  2  0
  8  9  1  0
  9 10  2  0
 10 11  1  0
 11 12  1  0
 12 13  2  0
 13 14  1  0
 14 15  2  0
 15 16  1  0
 16 17  1  0
 17 18  2  0
 17 19  1  0
 19 20  1  0
 20 21  2  0
 21 22  1  0
 22 23  2  0
 23 24  1  0
 24 25  2  0
 24 26  1  0
 26 27  1  0
 26 28  1  0
 23 29  1  0
 29 30  2  0
 15 31  1  0
 31 32  2  0
 11 33  2  0
 33  3  1  0
 33  7  1  0
 32 12  1  0
 30 20  1  0
  1 34  1  0
  1 35  1  0
  1 36  1  0
  2 37  1  0
  2 38  1  0
  6 39  1  0
  6 40  1  0
  6 41  1  0
  9 42  1  0
 13 43  1  0
 14 44  1  0
 19 45  1  0
 21 46  1  0
 22 47  1  0
 27 48  1  0
 27 49  1  0
 27 50  1  0
 28 51  1  0
 28 52  1  0
 28 53  1  0
 29 54  1  0
 30 55  1  0
 31 56  1  0
 32 57  1  0
M  CHG  1  16  -1
M  END
>  <UniqueID>  (23) 
19

>  <SMILES>  (23) 
CCc1nn(C)c2ncnc(-c3ccc([N-]C(=O)Nc4ccc(C(=O)N(C)C)cc4)cc3)c12

>  <Energy>  (23) 
120.13327698762653

>  <Genealogy>  (23) 
CCc1nn(C)c2ncnc(-c3ccc([N-]C(=O)Nc4ccc(C(=O)N(C)C)cc4)cc3)c12 (protonated)
CCc1nn(C)c2ncnc(-c3ccc([N-]C(=O)Nc4ccc(C(=O)N(C)C)cc4)cc3)c12 (3D coordinates assigned)
CCc1nn(C)c2ncnc(-c3ccc([N-]C(=O)Nc4ccc(C(=O)N(C)C)cc4)cc3)c12 (optimized conformer: 120.13327698762653 kcal/mol)

>  <smiles>  (23) 
CCc1nn(C)c2ncnc(-c3ccc(NC(=O)Nc4ccc(C(=O)N(C)C)cc4)cc3)c12

>  <score_type>  (23) 
oracle

>  <origin>  (23) 
adg

>  <m_score__min__energy>  (23) 
-11.25

>  <m_primary>  (23) 
energy

$$$$
23:0
     RDKit          3D

 26 27  0  0  1  0  0  0  0  0999 V2000
   -1.2770   26.4400  -24.5520 C   0  0  0  0  0  0  0  0  0  0  0  0
   -0.4130   26.3580  -25.7650 C   0  0  0  0  0  0  0  0  0  0  0  0
   -1.1410   25.8550  -26.9610 C   0  0  0  0  0  0  0  0  0  0  0  0
   -1.2450   26.0210  -28.1160 N   0  0  0  0  0  0  0  0  0  0  0  0
   -1.9910   25.4180  -28.9740 N   0  0  0  0  0  0  0  0  0  0  0  0
   -2.7670   24.4650  -28.5090 C   0  0  0  0  0  0  0  0  0  0  0  0
   -3.6160   23.6830  -29.0810 N   0  0  0  0  0  0  0  0  0  0  0  0
   -4.2860   24.1780  -30.2390 C   0  0  0  0  0  0  0  0  0  0  0  0
   -3.9080   25.2840  -30.7590 O   0  0  0  0  0  0  0  0  0  0  0  0
   -5.3860   23.5050  -30.8800 C   0  0  0  0  0  0  0  0  0  0  0  0
   -5.1050   22.4290  -31.7040 C   0  0  0  0  0  0  0  0  0  0  0  0
   -6.1040   21.7520  -32.3420 C   0  0  0  0  0  0  0  0  0  0  0  0
   -7.3950   22.0930  -32.2010 N   0  0  0  0  0  0  0  0  0  0  0  0
   -7.6900   23.1410  -31.4000 C   0  0  0  0  0  0  0  0  0  0  0  0
   -6.7120   23.8490  -30.7400 C   0  0  0  0  0  0  0  0  0  0  0  0
   -2.3930   24.4410  -26.7330 S   0  0  0  0  0  0  0  0  0  0  0  0
   -0.6497   26.3805  -23.6503 H   0  0  0  0  0  0  0  0  0  0  0  0
   -1.8244   27.3941  -24.5555 H   0  0  0  0  0  0  0  0  0  0  0  0
   -1.9941   25.6059  -24.5555 H   0  0  0  0  0  0  0  0  0  0  0  0
   -0.0241   27.3626  -25.9875 H   0  0  0  0  0  0  0  0  0  0  0  0
    0.3959   25.6452  -25.5467 H   0  0  0  0  0  0  0  0  0  0  0  0
   -1.9830   25.6780  -30.0150 H   0  0  0  0  0  0  0  0  0  0  0  0
   -4.0606   22.1146  -31.8469 H   0  0  0  0  0  0  0  0  0  0  0  0
   -5.8438   20.9024  -32.9905 H   0  0  0  0  0  0  0  0  0  0  0  0
   -8.7419   23.4363  -31.2721 H   0  0  0  0  0  0  0  0  0  0  0  0
   -6.9914   24.6958  -30.0959 H   0  0  0  0  0  0  0  0  0  0  0  0
  1  2  1  0
  2  3  1  0
  3  4  2  0
  4  5  1  0
  5  6  1  0
  6  7  2  0
  7  8  1  0
  8  9  2  0
  8 10  1  0
 10 11  2  0
 11 12  1  0
 12 13  2  0
 13 14  1  0
 14 15  2  0
  6 16  1  0
 16  3  1  0
 15 10  1  0
  1 17  1  0
  1 18  1  0
  1 19  1  0
  2 20  1  0
  2 21  1  0
  5 22  1  0
 11 23  1  0
 12 24  1  0
 14 25  1  0
 15 26  1  0
M  END
>  <smiles>  (24) 
CCc1n[nH]c(=NC(=O)c2ccncc2)s1

>  <score_type>  (24) 
oracle

>  <origin>  (24) 
adg

>  <m_score__min__energy>  (24) 
-6.79

>  <m_primary>  (24) 
energy

$$$$
24:0
     RDKit          3D

 21 22  0  0  0  0  0  0  0  0999 V2000
   -6.1450   17.0510  -32.5630 C   0  0  0  0  0  0  0  0  0  0  0  0
   -6.9580   18.2960  -32.3570 C   0  0  0  0  0  0  0  0  0  0  0  0
   -8.3440   18.2060  -32.1580 C   0  0  0  0  0  0  0  0  0  0  0  0
   -9.1130   19.3630  -32.0020 C   0  0  0  0  0  0  0  0  0  0  0  0
   -8.5070   20.6250  -32.0570 C   0  0  0  0  0  0  0  0  0  0  0  0
   -9.2700   21.7940  -31.9020 C   0  0  0  0  0  0  0  0  0  0  0  0
   -8.6540   23.0470  -31.9650 C   0  0  0  0  0  0  0  0  0  0  0  0
   -7.2780   23.1450  -32.1820 C   0  0  0  0  0  0  0  0  0  0  0  0
   -6.5060   21.9900  -32.3380 C   0  0  0  0  0  0  0  0  0  0  0  0
   -7.1110   20.7240  -32.2760 C   0  0  0  0  0  0  0  0  0  0  0  0
   -6.3480   19.5570  -32.4310 C   0  0  0  0  0  0  0  0  0  0  0  0
   -5.8686   16.6277  -31.5860 H   0  0  0  0  0  0  0  0  0  0  0  0
   -6.7373   16.3154  -33.1270 H   0  0  0  0  0  0  0  0  0  0  0  0
   -5.2333   17.2975  -33.1270 H   0  0  0  0  0  0  0  0  0  0  0  0
   -8.8285   17.2190  -32.1245 H   0  0  0  0  0  0  0  0  0  0  0  0
  -10.1973   19.2823  -31.8355 H   0  0  0  0  0  0  0  0  0  0  0  0
  -10.3543   21.7232  -31.7307 H   0  0  0  0  0  0  0  0  0  0  0  0
   -9.2556   23.9598  -31.8431 H   0  0  0  0  0  0  0  0  0  0  0  0
   -6.7999   24.1345  -32.2304 H   0  0  0  0  0  0  0  0  0  0  0  0
   -5.4226   22.0729  -32.5096 H   0  0  0  0  0  0  0  0  0  0  0  0
   -5.2655   19.6312  -32.6116 H   0  0  0  0  0  0  0  0  0  0  0  0
  1  2  1  0
  2  3  2  0
  3  4  1  0
  4  5  2  0
  5  6  1  0
  6  7  2  0
  7  8  1  0
  8  9  2  0
  9 10  1  0
 10 11  2  0
 11  2  1  0
 10  5  1  0
  1 12  1  0
  1 13  1  0
  1 14  1  0
  3 15  1  0
  4 16  1  0
  6 17  1  0
  7 18  1  0
  8 19  1  0
  9 20  1  0
 11 21  1  0
M  END
>  <UniqueID>  (25) 
20

>  <SMILES>  (25) 
Cc1ccc2ccccc2c1

>  <Energy>  (25) 
23.71966451310114

>  <Genealogy>  (25) 
Cc1ccc2ccccc2c1 (3D coordinates assigned)
Cc1ccc2ccccc2c1 (optimized conformer: 23.71966451310114 kcal/mol)

>  <smiles>  (25) 
Cc1ccc2ccccc2c1

>  <score_type>  (25) 
oracle

>  <origin>  (25) 
adg

>  <m_score__min__energy>  (25) 
-5.8799999999999999

>  <m_primary>  (25) 
energy

$$$$
25:0
     RDKit          3D

 31 32  0  0  0  0  0  0  0  0999 V2000
   -6.1090   17.1630  -31.5670 C   0  0  0  0  0  0  0  0  0  0  0  0
   -7.1250   17.3440  -32.6230 N   0  0  0  0  0  0  0  0  0  0  0  0
   -6.5200   17.8570  -33.8740 C   0  0  0  0  0  0  0  0  0  0  0  0
   -5.9810   19.2870  -33.7040 C   0  0  0  0  0  0  0  0  0  0  0  0
   -6.8890   20.1020  -32.8870 N   0  0  0  0  0  0  0  0  0  0  0  0
   -6.4620   21.3730  -32.3380 C   0  0  0  0  0  0  0  0  0  0  0  0
   -7.3910   22.3550  -31.9510 C   0  0  0  0  0  0  0  0  0  0  0  0
   -6.9390   23.5700  -31.4340 C   0  0  0  0  0  0  0  0  0  0  0  0
   -5.5640   23.8150  -31.2990 C   0  0  0  0  0  0  0  0  0  0  0  0
   -5.0820   25.0620  -30.7680 N   0  0  0  0  0  0  0  0  0  0  0  0
   -3.8720   25.3600  -30.8410 O   0  0  0  0  0  0  0  0  0  0  0  0
   -5.9480   25.9490  -30.1700 O   0  0  0  0  0  0  0  0  0  0  0  0
   -4.6690   22.8100  -31.6940 C   0  0  0  0  0  0  0  0  0  0  0  0
   -5.1330   21.6350  -32.1950 N   0  0  0  0  0  0  0  0  0  0  0  0
   -8.2630   19.6190  -32.6900 C   0  0  0  0  0  0  0  0  0  0  0  0
   -8.2640   18.1780  -32.1450 C   0  0  0  0  0  0  0  0  0  0  0  0
   -6.5869   17.2481  -30.5799 H   0  0  0  0  0  0  0  0  0  0  0  0
   -5.6491   16.1688  -31.6672 H   0  0  0  0  0  0  0  0  0  0  0  0
   -5.3341   17.9372  -31.6672 H   0  0  0  0  0  0  0  0  0  0  0  0
   -7.4990   16.3890  -32.8390 H   0  0  0  0  0  0  0  0  0  0  0  0
   -5.6902   17.1962  -34.1651 H   0  0  0  0  0  0  0  0  0  0  0  0
   -7.3011   17.8762  -34.6483 H   0  0  0  0  0  0  0  0  0  0  0  0
   -4.9975   19.2440  -33.2132 H   0  0  0  0  0  0  0  0  0  0  0  0
   -5.8976   19.7489  -34.6989 H   0  0  0  0  0  0  0  0  0  0  0  0
   -8.4697   22.1664  -32.0553 H   0  0  0  0  0  0  0  0  0  0  0  0
   -7.6643   24.3394  -31.1308 H   0  0  0  0  0  0  0  0  0  0  0  0
   -3.5855   22.9737  -31.5978 H   0  0  0  0  0  0  0  0  0  0  0  0
   -8.7768   20.2761  -31.9729 H   0  0  0  0  0  0  0  0  0  0  0  0
   -8.7826   19.6294  -33.6595 H   0  0  0  0  0  0  0  0  0  0  0  0
   -8.2208   18.2243  -31.0468 H   0  0  0  0  0  0  0  0  0  0  0  0
   -9.1831   17.7003  -32.5152 H   0  0  0  0  0  0  0  0  0  0  0  0
  1  2  1  0
  2  3  1  0
  3  4  1  0
  4  5  1  0
  5  6  1  0
  6  7  2  0
  7  8  1  0
  8  9  2  0
  9 10  1  0
 10 11  2  0
 10 12  1  0
  9 13  1  0
 13 14  2  0
  5 15  1  0
 15 16  1  0
 16  2  1  0
 14  6  1  0
  1 17  1  0
  1 18  1  0
  1 19  1  0
  2 20  1  0
  3 21  1  0
  3 22  1  0
  4 23  1  0
  4 24  1  0
  7 25  1  0
  8 26  1  0
 13 27  1  0
 15 28  1  0
 15 29  1  0
 16 30  1  0
 16 31  1  0
M  CHG  3   2   1  10   1  12  -1
M  END
>  <UniqueID>  (26) 
21

>  <SMILES>  (26) 
C[NH+]1CCN(c2ccc([N+](=O)[O-])cn2)CC1

>  <Energy>  (26) 
42.148051970364826

>  <Genealogy>  (26) 
C[NH+]1CCN(c2ccc([N+](=O)[O-])cn2)CC1 (protonated)
C[NH+]1CCN(c2ccc([N+](=O)[O-])cn2)CC1 (3D coordinates assigned)
C[NH+]1CCN(c2ccc([N+](=O)[O-])cn2)CC1 (nonaromatic ring conformer: 42.148051970364826 kcal/mol)

>  <smiles>  (26) 
CN1CCN(c2ccc([N+](=O)[O-])cn2)CC1

>  <score_type>  (26) 
oracle

>  <origin>  (26) 
adg

>  <m_score__min__energy>  (26) 
-6.4100000000000001

>  <m_primary>  (26) 
energy

$$$$
26:0
     RDKit          3D

 19 20  0  0  0  0  0  0  0  0999 V2000
   -6.8640   23.8720  -30.6040 C   0  0  0  0  0  0  0  0  0  0  0  0
   -6.5890   22.6980  -31.5010 C   0  0  0  0  0  0  0  0  0  0  0  0
   -5.2790   22.3960  -31.9450 C   0  0  0  0  0  0  0  0  0  0  0  0
   -4.2320   23.1810  -31.5900 F   0  0  0  0  0  0  0  0  0  0  0  0
   -5.0420   21.2690  -32.7640 C   0  0  0  0  0  0  0  0  0  0  0  0
   -6.1000   20.4240  -33.1400 C   0  0  0  0  0  0  0  0  0  0  0  0
   -5.8780   19.3390  -33.9220 F   0  0  0  0  0  0  0  0  0  0  0  0
   -7.3770   20.7320  -32.6780 C   0  0  0  0  0  0  0  0  0  0  0  0
   -8.5120   20.0490  -32.9080 N   0  0  0  0  0  0  0  0  0  0  0  0
   -9.4860   20.7170  -32.2490 C   0  0  0  0  0  0  0  0  0  0  0  0
   -8.9660   21.8300  -31.5980 C   0  0  0  0  0  0  0  0  0  0  0  0
   -7.6140   21.8250  -31.8850 C   0  0  0  0  0  0  0  0  0  0  0  0
   -6.7899   23.5557  -29.5531 H   0  0  0  0  0  0  0  0  0  0  0  0
   -6.1272   24.6646  -30.8012 H   0  0  0  0  0  0  0  0  0  0  0  0
   -7.8762   24.2549  -30.8012 H   0  0  0  0  0  0  0  0  0  0  0  0
   -4.0208   21.0514  -33.1101 H   0  0  0  0  0  0  0  0  0  0  0  0
   -8.6240   19.1790  -33.4750 H   0  0  0  0  0  0  0  0  0  0  0  0
  -10.5450   20.4202  -32.2306 H   0  0  0  0  0  0  0  0  0  0  0  0
   -9.5144   22.5599  -30.9845 H   0  0  0  0  0  0  0  0  0  0  0  0
  1  2  1  0
  2  3  2  0
  3  4  1  0
  3  5  1  0
  5  6  2  0
  6  7  1  0
  6  8  1  0
  8  9  1  0
  9 10  1  0
 10 11  2  0
 11 12  1  0
 12  2  1  0
 12  8  2  0
  1 13  1  0
  1 14  1  0
  1 15  1  0
  5 16  1  0
  9 17  1  0
 10 18  1  0
 11 19  1  0
M  END
>  <UniqueID>  (27) 
22

>  <SMILES>  (27) 
Cc1c(F)cc(F)c2[nH]ccc12

>  <Energy>  (27) 
51.940430387057845

>  <Genealogy>  (27) 
Cc1c(F)cc(F)c2[nH]ccc12 (3D coordinates assigned)
Cc1c(F)cc(F)c2[nH]ccc12 (optimized conformer: 51.940430387057845 kcal/mol)

>  <smiles>  (27) 
Cc1c(F)cc(F)c2[nH]ccc12

>  <score_type>  (27) 
oracle

>  <origin>  (27) 
adg

>  <m_score__min__energy>  (27) 
-5.1200000000000001

>  <m_primary>  (27) 
energy

$$$$
27:0
     RDKit          3D

 25 26  0  0  0  0  0  0  0  0999 V2000
   -5.7330   25.3120  -28.7960 N   0  0  0  0  0  0  0  0  0  0  0  0
   -6.6110   24.8990  -29.8930 C   0  0  0  0  0  0  0  0  0  0  0  0
   -5.8280   24.6530  -31.1910 C   0  0  0  0  0  0  0  0  0  0  0  0
   -5.8970   23.2160  -31.6190 C   0  0  0  0  0  0  0  0  0  0  0  0
   -4.8260   22.4210  -32.0160 C   0  0  0  0  0  0  0  0  0  0  0  0
   -5.2600   21.1960  -32.3930 N   0  0  0  0  0  0  0  0  0  0  0  0
   -6.5960   21.2140  -32.2470 C   0  0  0  0  0  0  0  0  0  0  0  0
   -7.4910   20.1830  -32.5270 C   0  0  0  0  0  0  0  0  0  0  0  0
   -8.8600   20.4230  -32.3180 C   0  0  0  0  0  0  0  0  0  0  0  0
   -9.3010   21.6780  -31.8400 C   0  0  0  0  0  0  0  0  0  0  0  0
   -8.3760   22.7020  -31.5670 C   0  0  0  0  0  0  0  0  0  0  0  0
   -7.0240   22.4320  -31.7800 C   0  0  0  0  0  0  0  0  0  0  0  0
   -5.8230   24.6250  -28.0120 H   0  0  0  0  0  0  0  0  0  0  0  0
   -6.0090   26.2580  -28.4470 H   0  0  0  0  0  0  0  0  0  0  0  0
   -4.7370   25.3240  -29.1130 H   0  0  0  0  0  0  0  0  0  0  0  0
   -7.1254   23.9699  -29.6064 H   0  0  0  0  0  0  0  0  0  0  0  0
   -7.3310   25.7099  -30.0774 H   0  0  0  0  0  0  0  0  0  0  0  0
   -6.2517   25.2826  -31.9873 H   0  0  0  0  0  0  0  0  0  0  0  0
   -4.7731   24.9051  -31.0073 H   0  0  0  0  0  0  0  0  0  0  0  0
   -3.7743   22.7432  -32.0224 H   0  0  0  0  0  0  0  0  0  0  0  0
   -4.6730   20.4050  -32.7380 H   0  0  0  0  0  0  0  0  0  0  0  0
   -7.1367   19.2108  -32.9003 H   0  0  0  0  0  0  0  0  0  0  0  0
   -9.5925   19.6296  -32.5276 H   0  0  0  0  0  0  0  0  0  0  0  0
  -10.3749   21.8551  -31.6804 H   0  0  0  0  0  0  0  0  0  0  0  0
   -8.7079   23.6836  -31.1976 H   0  0  0  0  0  0  0  0  0  0  0  0
  1  2  1  0
  2  3  1  0
  3  4  1  0
  4  5  2  0
  5  6  1  0
  6  7  1  0
  7  8  2  0
  8  9  1  0
  9 10  2  0
 10 11  1  0
 11 12  2  0
 12  4  1  0
 12  7  1  0
  1 13  1  0
  1 14  1  0
  1 15  1  0
  2 16  1  0
  2 17  1  0
  3 18  1  0
  3 19  1  0
  5 20  1  0
  6 21  1  0
  8 22  1  0
  9 23  1  0
 10 24  1  0
 11 25  1  0
M  CHG  1   1   1
M  END
>  <UniqueID>  (28) 
23

>  <SMILES>  (28) 
[NH3+]CCc1c[nH]c2ccccc12

>  <Energy>  (28) 
53.889067681986624

>  <Genealogy>  (28) 
[NH3+]CCc1c[nH]c2ccccc12 (protonated)
[NH3+]CCc1c[nH]c2ccccc12 (3D coordinates assigned)
[NH3+]CCc1c[nH]c2ccccc12 (optimized conformer: 53.889067681986624 kcal/mol)

>  <smiles>  (28) 
NCCc1c[nH]c2ccccc12

>  <score_type>  (28) 
oracle

>  <origin>  (28) 
adg

>  <m_score__min__energy>  (28) 
-5.4800000000000004

>  <m_primary>  (28) 
energy

$$$$
28:0
     RDKit          3D

 40 41  0  0  0  0  0  0  0  0999 V2000
   -5.9500   18.9160  -34.2960 C   0  0  0  0  0  0  0  0  0  0  0  0
   -4.4810   18.7650  -33.9030 C   0  0  0  0  0  0  0  0  0  0  0  0
   -3.9080   20.0290  -33.2470 C   0  0  0  0  0  0  0  0  0  0  0  0
   -4.9020   21.1110  -33.2420 N   0  0  0  0  0  0  0  0  0  0  0  0
   -4.4360   22.2480  -32.4310 C   0  0  0  0  0  0  0  0  0  0  0  0
   -5.5380   22.7570  -31.4390 C   0  0  0  0  0  0  0  0  0  0  0  0
   -6.8050   21.8660  -31.4880 C   0  0  0  0  0  0  0  0  0  0  0  0
   -8.1180   22.3930  -31.5430 C   0  0  0  0  0  0  0  0  0  0  0  0
   -9.2130   21.5310  -31.6050 C   0  0  0  0  0  0  0  0  0  0  0  0
   -9.0160   20.1550  -31.6230 C   0  0  0  0  0  0  0  0  0  0  0  0
   -7.7180   19.6540  -31.5820 C   0  0  0  0  0  0  0  0  0  0  0  0
   -6.6550   20.5020  -31.5220 N   0  0  0  0  0  0  0  0  0  0  0  0
   -5.9440   24.2210  -31.8470 C   0  0  0  0  0  0  0  0  0  0  0  0
   -5.4750   25.2680  -30.8350 C   0  0  0  0  0  0  0  0  0  0  0  0
   -4.1480   24.9930  -30.4530 O   0  0  0  0  0  0  0  0  0  0  0  0
   -4.1190   23.9090  -29.5460 C   0  0  0  0  0  0  0  0  0  0  0  0
   -4.9860   22.6960  -29.9740 C   0  0  0  0  0  0  0  0  0  0  0  0
   -6.5678   18.9795  -33.3881 H   0  0  0  0  0  0  0  0  0  0  0  0
   -6.0780   19.8320  -34.8914 H   0  0  0  0  0  0  0  0  0  0  0  0
   -6.2617   18.0452  -34.8914 H   0  0  0  0  0  0  0  0  0  0  0  0
   -4.3911   17.9292  -33.1936 H   0  0  0  0  0  0  0  0  0  0  0  0
   -3.9088   18.5814  -34.8243 H   0  0  0  0  0  0  0  0  0  0  0  0
   -3.6205   19.7987  -32.2105 H   0  0  0  0  0  0  0  0  0  0  0  0
   -3.0311   20.3587  -33.8235 H   0  0  0  0  0  0  0  0  0  0  0  0
   -4.9890   21.4520  -34.2250 H   0  0  0  0  0  0  0  0  0  0  0  0
   -3.5556   21.9330  -31.8516 H   0  0  0  0  0  0  0  0  0  0  0  0
   -4.1896   23.0732  -33.1153 H   0  0  0  0  0  0  0  0  0  0  0  0
   -8.2746   23.4818  -31.5368 H   0  0  0  0  0  0  0  0  0  0  0  0
  -10.2334   21.9405  -31.6397 H   0  0  0  0  0  0  0  0  0  0  0  0
   -9.8757   19.4703  -31.6691 H   0  0  0  0  0  0  0  0  0  0  0  0
   -7.5504   18.5670  -31.5982 H   0  0  0  0  0  0  0  0  0  0  0  0
   -5.7020   20.0750  -31.5030 H   0  0  0  0  0  0  0  0  0  0  0  0
   -5.4954   24.4510  -32.8247 H   0  0  0  0  0  0  0  0  0  0  0  0
   -7.0426   24.2630  -31.8833 H   0  0  0  0  0  0  0  0  0  0  0  0
   -5.5250   26.2673  -31.2920 H   0  0  0  0  0  0  0  0  0  0  0  0
   -6.1250   25.2363  -29.9481 H   0  0  0  0  0  0  0  0  0  0  0  0
   -3.0772   23.5702  -29.4471 H   0  0  0  0  0  0  0  0  0  0  0  0
   -4.5396   24.2788  -28.5992 H   0  0  0  0  0  0  0  0  0  0  0  0
   -4.3723   21.7881  -29.8787 H   0  0  0  0  0  0  0  0  0  0  0  0
   -5.8665   22.7012  -29.3146 H   0  0  0  0  0  0  0  0  0  0  0  0
  1  2  1  0
  2  3  1  0
  3  4  1  0
  4  5  1  0
  5  6  1  0
  6  7  1  0
  7  8  2  0
  8  9  1  0
  9 10  2  0
 10 11  1  0
 11 12  2  0
  6 13  1  0
 13 14  1  0
 14 15  1  0
 15 16  1  0
 16 17  1  0
 17  6  1  0
 12  7  1  0
  1 18  1  0
  1 19  1  0
  1 20  1  0
  2 21  1  0
  2 22  1  0
  3 23  1  0
  3 24  1  0
  4 25  1  0
  5 26  1  0
  5 27  1  0
  8 28  1  0
  9 29  1  0
 10 30  1  0
 11 31  1  0
 12 32  1  0
 13 33  1  0
 13 34  1  0
 14 35  1  0
 14 36  1  0
 16 37  1  0
 16 38  1  0
 17 39  1  0
 17 40  1  0
M  CHG  1  12   1
M  END
>  <UniqueID>  (29) 
24

>  <SMILES>  (29) 
CCCNCC1(c2cccc[nH+]2)CCOCC1

>  <Energy>  (29) 
52.7663884355456

>  <Genealogy>  (29) 
CCCNCC1(c2cccc[nH+]2)CCOCC1 (protonated)
CCCNCC1(c2cccc[nH+]2)CCOCC1 (3D coordinates assigned)
CCCNCC1(c2cccc[nH+]2)CCOCC1 (nonaromatic ring conformer: 52.7663884355456 kcal/mol)

>  <smiles>  (29) 
CCCNCC1(c2ccccn2)CCOCC1

>  <score_type>  (29) 
oracle

>  <origin>  (29) 
adg

>  <m_score__min__energy>  (29) 
-6.46

>  <m_primary>  (29) 
energy

$$$$
29:0
     RDKit          3D

 52 54  0  0  0  0  0  0  0  0999 V2000
   -5.6480   18.4360  -34.6060 C   0  0  0  0  0  0  0  0  0  0  0  0
   -5.6270   18.8950  -33.1540 C   0  0  0  0  0  0  0  0  0  0  0  0
   -6.9850   19.4050  -32.7260 C   0  0  0  0  0  0  0  0  0  0  0  0
   -8.0690   18.5130  -32.7140 C   0  0  0  0  0  0  0  0  0  0  0  0
   -9.3450   18.9530  -32.3630 C   0  0  0  0  0  0  0  0  0  0  0  0
   -9.5550   20.2850  -32.0120 C   0  0  0  0  0  0  0  0  0  0  0  0
   -8.4910   21.1990  -32.0130 C   0  0  0  0  0  0  0  0  0  0  0  0
   -8.7600   22.6250  -31.6100 C   0  0  0  0  0  0  0  0  0  0  0  0
   -7.2020   20.7680  -32.4150 C   0  0  0  0  0  0  0  0  0  0  0  0
   -6.1140   21.7030  -32.4910 N   0  0  0  0  0  0  0  0  0  0  0  0
   -4.9590   21.6050  -31.6480 C   0  0  0  0  0  0  0  0  0  0  0  0
   -4.8380   20.6410  -30.8440 O   0  0  0  0  0  0  0  0  0  0  0  0
   -3.9180   22.6860  -31.6730 C   0  0  0  0  0  0  0  0  0  0  0  0
   -3.5520   23.1390  -30.2380 C   0  0  2  0  0  0  0  0  0  0  0  0
   -3.3890   24.6330  -30.1100 C   0  0  0  0  0  0  0  0  0  0  0  0
   -4.0390   25.4210  -30.8470 O   0  0  0  0  0  0  0  0  0  0  0  0
   -2.5840   25.1610  -29.0490 N   0  0  0  0  0  0  0  0  0  0  0  0
   -1.6320   24.3490  -28.2870 C   0  0  0  0  0  0  0  0  0  0  0  0
   -2.0100   22.8630  -28.3210 C   0  0  0  0  0  0  0  0  0  0  0  0
   -2.3420   22.4870  -29.6980 N   0  0  0  0  0  0  0  0  0  0  0  0
   -1.2420   22.1220  -30.5540 C   0  0  0  0  0  0  0  0  0  0  0  0
   -0.1030   22.6170  -30.3370 O   0  0  0  0  0  0  0  0  0  0  0  0
   -1.4250   21.1480  -31.6610 C   0  0  0  0  0  0  0  0  0  0  0  0
   -2.0470   19.9050  -31.4370 C   0  0  0  0  0  0  0  0  0  0  0  0
   -2.2330   19.0040  -32.4900 C   0  0  0  0  0  0  0  0  0  0  0  0
   -1.8060   19.3330  -33.7770 C   0  0  0  0  0  0  0  0  0  0  0  0
   -1.1930   20.5660  -34.0150 C   0  0  0  0  0  0  0  0  0  0  0  0
   -0.7790   20.8860  -35.2660 F   0  0  0  0  0  0  0  0  0  0  0  0
   -1.0030   21.4690  -32.9660 C   0  0  0  0  0  0  0  0  0  0  0  0
   -5.6982   17.3378  -34.6427 H   0  0  0  0  0  0  0  0  0  0  0  0
   -6.5277   18.8604  -35.1120 H   0  0  0  0  0  0  0  0  0  0  0  0
   -4.7333   18.7783  -35.1120 H   0  0  0  0  0  0  0  0  0  0  0  0
   -5.3429   18.0474  -32.5131 H   0  0  0  0  0  0  0  0  0  0  0  0
   -4.8989   19.7137  -33.0562 H   0  0  0  0  0  0  0  0  0  0  0  0
   -7.9106   17.4584  -32.9837 H   0  0  0  0  0  0  0  0  0  0  0  0
  -10.1881   18.2465  -32.3632 H   0  0  0  0  0  0  0  0  0  0  0  0
  -10.5637   20.6226  -31.7318 H   0  0  0  0  0  0  0  0  0  0  0  0
   -8.7740   22.6995  -30.5126 H   0  0  0  0  0  0  0  0  0  0  0  0
   -7.9686   23.2750  -32.0115 H   0  0  0  0  0  0  0  0  0  0  0  0
   -9.7338   22.9420  -32.0115 H   0  0  0  0  0  0  0  0  0  0  0  0
   -6.2240   22.5490  -33.0950 H   0  0  0  0  0  0  0  0  0  0  0  0
   -3.0146   22.3037  -32.1707 H   0  0  0  0  0  0  0  0  0  0  0  0
   -4.3237   23.5499  -32.2199 H   0  0  0  0  0  0  0  0  0  0  0  0
   -4.4183   22.8175  -29.6412 H   0  0  0  0  0  0  0  0  0  0  0  0
   -0.6287   24.4729  -28.7206 H   0  0  0  0  0  0  0  0  0  0  0  0
   -1.6497   24.6865  -27.2402 H   0  0  0  0  0  0  0  0  0  0  0  0
   -1.1616   22.2584  -27.9679 H   0  0  0  0  0  0  0  0  0  0  0  0
   -2.8768   22.6848  -27.6676 H   0  0  0  0  0  0  0  0  0  0  0  0
   -2.3894   19.6405  -30.4256 H   0  0  0  0  0  0  0  0  0  0  0  0
   -2.7169   18.0339  -32.3034 H   0  0  0  0  0  0  0  0  0  0  0  0
   -1.9518   18.6222  -34.6037 H   0  0  0  0  0  0  0  0  0  0  0  0
   -0.5202   22.4380  -33.1607 H   0  0  0  0  0  0  0  0  0  0  0  0
  1  2  1  0
  2  3  1  0
  3  4  2  0
  4  5  1  0
  5  6  2  0
  6  7  1  0
  7  8  1  0
  7  9  2  0
  9 10  1  0
 10 11  1  0
 11 12  2  0
 11 13  1  0
 13 14  1  0
 14 15  1  0
 15 16  2  0
 15 17  1  0
 17 18  1  0
 18 19  1  0
 19 20  1  0
 20 21  1  0
 21 22  2  0
 21 23  1  0
 23 24  2  0
 24 25  1  0
 25 26  2  0
 26 27  1  0
 27 28  1  0
 27 29  2  0
  9  3  1  0
 20 14  1  0
 29 23  1  0
  1 30  1  0
  1 31  1  0
  1 32  1  0
  2 33  1  0
  2 34  1  0
  4 35  1  0
  5 36  1  0
  6 37  1  0
  8 38  1  0
  8 39  1  0
  8 40  1  0
 10 41  1  0
 13 42  1  0
 13 43  1  0
 14 44  1  1
 18 45  1  0
 18 46  1  0
 19 47  1  0
 19 48  1  0
 24 49  1  0
 25 50  1  0
 26 51  1  0
 29 52  1  0
M  CHG  1  17  -1
M  END
>  <UniqueID>  (30) 
25

>  <SMILES>  (30) 
CCc1cccc(C)c1NC(=O)C[C@@H]1C(=O)[N-]CCN1C(=O)c1cccc(F)c1

>  <Energy>  (30) 
62.88468735182323

>  <Genealogy>  (30) 
CCc1cccc(C)c1NC(=O)CC1C(=O)[N-]CCN1C(=O)c1cccc(F)c1 (protonated)
CCc1cccc(C)c1NC(=O)C[C@@H]1C(=O)[N-]CCN1C(=O)c1cccc(F)c1 (chirality)
CCc1cccc(C)c1NC(=O)C[C@@H]1C(=O)[N-]CCN1C(=O)c1cccc(F)c1 (3D coordinates assigned)
CCc1cccc(C)c1NC(=O)C[C@@H]1C(=O)[N-]CCN1C(=O)c1cccc(F)c1 (nonaromatic ring conformer: 62.88468735182323 kcal/mol)

>  <smiles>  (30) 
CCc1cccc(C)c1NC(=O)CC1C(=O)NCCN1C(=O)c1cccc(F)c1

>  <score_type>  (30) 
oracle

>  <origin>  (30) 
adg

>  <m_score__min__energy>  (30) 
-10.74

>  <m_primary>  (30) 
energy

$$$$
30:0
     RDKit          3D

 64 67  0  0  0  0  0  0  0  0999 V2000
   -0.9140   26.4330  -27.4320 C   0  0  0  0  0  0  0  0  0  0  0  0
   -1.6270   26.0660  -28.6100 O   0  0  0  0  0  0  0  0  0  0  0  0
   -1.7480   24.7510  -29.0820 C   0  0  0  0  0  0  0  0  0  0  0  0
   -2.9480   24.2380  -29.5990 C   0  0  0  0  0  0  0  0  0  0  0  0
   -3.0030   22.9260  -30.0810 C   0  0  0  0  0  0  0  0  0  0  0  0
   -1.8680   22.1070  -30.0520 C   0  0  0  0  0  0  0  0  0  0  0  0
   -1.9340   20.6910  -30.5680 C   0  0  0  0  0  0  0  0  0  0  0  0
   -2.0850   20.6550  -32.0430 N   0  0  0  0  0  0  0  0  0  0  0  0
   -3.4460   20.1850  -32.3980 C   0  0  0  0  0  0  0  0  0  0  0  0
   -4.2450   21.3010  -33.1070 C   0  0  0  0  0  0  0  0  0  0  0  0
   -5.6770   21.3980  -32.5960 C   0  0  0  0  0  0  0  0  0  0  0  0
   -6.5720   20.2990  -32.5850 C   0  0  0  0  0  0  0  0  0  0  0  0
   -6.1440   19.0000  -33.1520 C   0  0  0  0  0  0  0  0  0  0  0  0
   -6.0630   18.8120  -34.5350 C   0  0  0  0  0  0  0  0  0  0  0  0
   -5.7610   17.5870  -35.0360 N   0  0  0  0  0  0  0  0  0  0  0  0
   -5.5560   16.5240  -34.2100 C   0  0  0  0  0  0  0  0  0  0  0  0
   -5.6430   16.6820  -32.8630 N   0  0  0  0  0  0  0  0  0  0  0  0
   -5.9190   17.9010  -32.3220 C   0  0  0  0  0  0  0  0  0  0  0  0
   -7.8440   20.4450  -32.0680 N   0  0  0  0  0  0  0  0  0  0  0  0
   -8.7630   19.2870  -32.0080 C   0  0  0  0  0  0  0  0  0  0  0  0
   -8.2740   21.6900  -31.6630 C   0  0  0  0  0  0  0  0  0  0  0  0
   -9.6780   21.9430  -31.1870 C   0  0  0  0  0  0  0  0  0  0  0  0
   -7.4150   22.7360  -31.6550 N   0  0  0  0  0  0  0  0  0  0  0  0
   -6.1430   22.6220  -32.0950 C   0  0  0  0  0  0  0  0  0  0  0  0
   -5.3870   23.6290  -32.0540 O   0  0  0  0  0  0  0  0  0  0  0  0
   -0.8760   19.6070  -32.7680 S   0  0  0  0  0  0  0  0  0  0  0  0
   -0.0950   18.8990  -31.6950 O   0  0  0  0  0  0  0  0  0  0  0  0
   -1.5620   18.5690  -33.6170 O   0  0  0  0  0  0  0  0  0  0  0  0
    0.2200   20.5090  -33.8160 C   0  0  0  0  0  0  0  0  0  0  0  0
    1.5880   20.2240  -33.8230 C   0  0  0  0  0  0  0  0  0  0  0  0
    2.4580   20.9960  -34.6060 C   0  0  0  0  0  0  0  0  0  0  0  0
    1.9560   22.0490  -35.3860 C   0  0  0  0  0  0  0  0  0  0  0  0
    3.0550   23.0470  -36.3240 Cl  0  0  0  0  0  0  0  0  0  0  0  0
    0.5810   22.2950  -35.4210 C   0  0  0  0  0  0  0  0  0  0  0  0
   -0.2860   21.5280  -34.6340 C   0  0  0  0  0  0  0  0  0  0  0  0
   -0.6740   22.6150  -29.5130 C   0  0  0  0  0  0  0  0  0  0  0  0
   -0.6200   23.9280  -29.0430 C   0  0  0  0  0  0  0  0  0  0  0  0
   -1.4928   26.1351  -26.5453 H   0  0  0  0  0  0  0  0  0  0  0  0
    0.0616   25.9250  -27.4207 H   0  0  0  0  0  0  0  0  0  0  0  0
   -0.7605   27.5222  -27.4207 H   0  0  0  0  0  0  0  0  0  0  0  0
   -3.8481   24.8698  -29.6252 H   0  0  0  0  0  0  0  0  0  0  0  0
   -3.9473   22.5340  -30.4868 H   0  0  0  0  0  0  0  0  0  0  0  0
   -1.0078   20.1663  -30.2909 H   0  0  0  0  0  0  0  0  0  0  0  0
   -2.8113   20.2015  -30.1198 H   0  0  0  0  0  0  0  0  0  0  0  0
   -3.3641   19.3178  -33.0698 H   0  0  0  0  0  0  0  0  0  0  0  0
   -3.9743   19.9058  -31.4745 H   0  0  0  0  0  0  0  0  0  0  0  0
   -3.7408   22.2630  -32.9326 H   0  0  0  0  0  0  0  0  0  0  0  0
   -4.2851   21.0582  -34.1791 H   0  0  0  0  0  0  0  0  0  0  0  0
   -6.2439   19.6561  -35.2167 H   0  0  0  0  0  0  0  0  0  0  0  0
   -5.3198   15.5366  -34.6334 H   0  0  0  0  0  0  0  0  0  0  0  0
   -5.4890   15.8600  -32.2390 H   0  0  0  0  0  0  0  0  0  0  0  0
   -5.9646   18.0194  -31.2293 H   0  0  0  0  0  0  0  0  0  0  0  0
   -8.9646   19.0330  -30.9569 H   0  0  0  0  0  0  0  0  0  0  0  0
   -9.7073   19.5419  -32.5112 H   0  0  0  0  0  0  0  0  0  0  0  0
   -8.3003   18.4252  -32.5112 H   0  0  0  0  0  0  0  0  0  0  0  0
   -9.6973   21.9465  -30.0872 H   0  0  0  0  0  0  0  0  0  0  0  0
  -10.0225   22.9177  -31.5628 H   0  0  0  0  0  0  0  0  0  0  0  0
  -10.3411   21.1499  -31.5628 H   0  0  0  0  0  0  0  0  0  0  0  0
    1.9815   19.3957  -33.2155 H   0  0  0  0  0  0  0  0  0  0  0  0
    3.5357   20.7759  -34.6089 H   0  0  0  0  0  0  0  0  0  0  0  0
    0.1803   23.0906  -36.0663 H   0  0  0  0  0  0  0  0  0  0  0  0
   -1.3678   21.7258  -34.6577 H   0  0  0  0  0  0  0  0  0  0  0  0
    0.2202   21.9764  -29.4614 H   0  0  0  0  0  0  0  0  0  0  0  0
    0.3238   24.3202  -28.6363 H   0  0  0  0  0  0  0  0  0  0  0  0
  1  2  1  0
  2  3  1  0
  3  4  2  0
  4  5  1  0
  5  6  2  0
  6  7  1  0
  7  8  1  0
  8  9  1  0
  9 10  1  0
 10 11  1  0
 11 12  2  0
 12 13  1  0
 13 14  2  0
 14 15  1  0
 15 16  2  0
 16 17  1  0
 17 18  2  0
 12 19  1  0
 19 20  1  0
 19 21  1  0
 21 22  1  0
 21 23  2  0
 23 24  1  0
 24 25  2  0
  8 26  1  0
 26 27  2  0
 26 28  2  0
 26 29  1  0
 29 30  2  0
 30 31  1  0
 31 32  2  0
 32 33  1  0
 32 34  1  0
 34 35  2  0
  6 36  1  0
 36 37  2  0
 37  3  1  0
 24 11  1  0
 35 29  1  0
 18 13  1  0
  1 38  1  0
  1 39  1  0
  1 40  1  0
  4 41  1  0
  5 42  1  0
  7 43  1  0
  7 44  1  0
  9 45  1  0
  9 46  1  0
 10 47  1  0
 10 48  1  0
 14 49  1  0
 16 50  1  0
 17 51  1  0
 18 52  1  0
 20 53  1  0
 20 54  1  0
 20 55  1  0
 22 56  1  0
 22 57  1  0
 22 58  1  0
 30 59  1  0
 31 60  1  0
 34 61  1  0
 35 62  1  0
 36 63  1  0
 37 64  1  0
M  CHG  1  17   1
M  END
>  <UniqueID>  (31) 
26

>  <SMILES>  (31) 
COc1ccc(CN(CCc2c(-c3cnc[nH+]c3)n(C)c(C)nc2=O)S(=O)(=O)c2ccc(Cl)cc2)cc1

>  <Energy>  (31) 
79.6030246261424

>  <Genealogy>  (31) 
COc1ccc(CN(CCc2c(-c3cnc[nH+]c3)n(C)c(C)nc2=O)S(=O)(=O)c2ccc(Cl)cc2)cc1 (protonated)
COc1ccc(CN(CCc2c(-c3cnc[nH+]c3)n(C)c(C)nc2=O)S(=O)(=O)c2ccc(Cl)cc2)cc1 (3D coordinates assigned)
COc1ccc(CN(CCc2c(-c3cnc[nH+]c3)n(C)c(C)nc2=O)S(=O)(=O)c2ccc(Cl)cc2)cc1 (optimized conformer: 79.6030246261424 kcal/mol)

>  <smiles>  (31) 
COc1ccc(CN(CCc2c(-c3cncnc3)n(C)c(C)nc2=O)S(=O)(=O)c2ccc(Cl)cc2)cc1

>  <score_type>  (31) 
oracle

>  <origin>  (31) 
adg

>  <m_score__min__energy>  (31) 
-10.48

>  <m_primary>  (31) 
energy

$$$$
31:0
     RDKit          3D

 30 31  0  0  0  0  0  0  0  0999 V2000
   -1.2280   26.7410  -24.2260 C   0  0  0  0  0  0  0  0  0  0  0  0
   -0.8200   25.9530  -25.4360 C   0  0  0  0  0  0  0  0  0  0  0  0
    0.2790   25.0840  -25.3750 C   0  0  0  0  0  0  0  0  0  0  0  0
    0.6470   24.3370  -26.4960 C   0  0  0  0  0  0  0  0  0  0  0  0
   -0.0900   24.4370  -27.6790 C   0  0  0  0  0  0  0  0  0  0  0  0
   -1.2180   25.2690  -27.7450 C   0  0  0  0  0  0  0  0  0  0  0  0
   -1.9520   25.3620  -28.9780 N   0  0  0  0  0  0  0  0  0  0  0  0
   -3.0840   24.5460  -29.3060 C   0  0  0  0  0  0  0  0  0  0  0  0
   -3.3500   23.5190  -28.6240 O   0  0  0  0  0  0  0  0  0  0  0  0
   -3.8520   24.8580  -30.4760 N   0  0  0  0  0  0  0  0  0  0  0  0
   -4.9970   24.1400  -30.9610 C   0  0  0  0  0  0  0  0  0  0  0  0
   -6.2670   24.5120  -30.5020 C   0  0  0  0  0  0  0  0  0  0  0  0
   -7.4060   23.8250  -30.9350 C   0  0  0  0  0  0  0  0  0  0  0  0
   -7.2810   22.7500  -31.8190 C   0  0  0  0  0  0  0  0  0  0  0  0
   -8.3850   22.0830  -32.2360 F   0  0  0  0  0  0  0  0  0  0  0  0
   -6.0150   22.3560  -32.2630 C   0  0  0  0  0  0  0  0  0  0  0  0
   -4.8750   23.0410  -31.8320 C   0  0  0  0  0  0  0  0  0  0  0  0
   -1.5710   26.0380  -26.6200 C   0  0  0  0  0  0  0  0  0  0  0  0
   -0.9432   26.1909  -23.3170 H   0  0  0  0  0  0  0  0  0  0  0  0
   -0.7224   27.7178  -24.2370 H   0  0  0  0  0  0  0  0  0  0  0  0
   -2.3175   26.8919  -24.2370 H   0  0  0  0  0  0  0  0  0  0  0  0
    0.8529   24.9905  -24.4413 H   0  0  0  0  0  0  0  0  0  0  0  0
    1.5191   23.6683  -26.4477 H   0  0  0  0  0  0  0  0  0  0  0  0
    0.2160   23.8599  -28.5640 H   0  0  0  0  0  0  0  0  0  0  0  0
   -1.5960   26.0100  -29.7170 H   0  0  0  0  0  0  0  0  0  0  0  0
   -6.3693   25.3497  -29.7965 H   0  0  0  0  0  0  0  0  0  0  0  0
   -8.4009   24.1312  -30.5793 H   0  0  0  0  0  0  0  0  0  0  0  0
   -5.9158   21.5051  -32.9530 H   0  0  0  0  0  0  0  0  0  0  0  0
   -3.8801   22.7203  -32.1745 H   0  0  0  0  0  0  0  0  0  0  0  0
   -2.4406   26.7099  -26.6684 H   0  0  0  0  0  0  0  0  0  0  0  0
  1  2  1  0
  2  3  2  0
  3  4  1  0
  4  5  2  0
  5  6  1  0
  6  7  1  0
  7  8  1  0
  8  9  2  0
  8 10  1  0
 10 11  1  0
 11 12  2  0
 12 13  1  0
 13 14  2  0
 14 15  1  0
 14 16  1  0
 16 17  2  0
  6 18  2  0
 18  2  1  0
 17 11  1  0
  1 19  1  0
  1 20  1  0
  1 21  1  0
  3 22  1  0
  4 23  1  0
  5 24  1  0
  7 25  1  0
 12 26  1  0
 13 27  1  0
 16 28  1  0
 17 29  1  0
 18 30  1  0
M  CHG  1  10  -1
M  END
>  <UniqueID>  (32) 
27

>  <SMILES>  (32) 
Cc1cccc(NC(=O)[N-]c2ccc(F)cc2)c1

>  <Energy>  (32) 
36.33149973924127

>  <Genealogy>  (32) 
Cc1cccc(NC(=O)[N-]c2ccc(F)cc2)c1 (protonated)
Cc1cccc(NC(=O)[N-]c2ccc(F)cc2)c1 (3D coordinates assigned)
Cc1cccc(NC(=O)[N-]c2ccc(F)cc2)c1 (optimized conformer: 36.33149973924127 kcal/mol)

>  <smiles>  (32) 
Cc1cccc(NC(=O)Nc2ccc(F)cc2)c1

>  <score_type>  (32) 
oracle

>  <origin>  (32) 
adg

>  <m_score__min__energy>  (32) 
-8.2300000000000004

>  <m_primary>  (32) 
energy

$$$$
32:0
     RDKit          3D

 57 60  0  0  0  0  0  0  0  0999 V2000
   -2.4420   25.3260  -26.0560 C   0  0  0  0  0  0  0  0  0  0  0  0
   -2.6850   24.5760  -27.3320 C   0  0  0  0  0  0  0  0  0  0  0  0
   -3.9110   23.9290  -27.5500 C   0  0  0  0  0  0  0  0  0  0  0  0
   -4.1240   23.1990  -28.7240 C   0  0  0  0  0  0  0  0  0  0  0  0
   -3.1050   23.0750  -29.6740 C   0  0  0  0  0  0  0  0  0  0  0  0
   -3.3680   22.3660  -30.8940 N   0  0  0  0  0  0  0  0  0  0  0  0
   -4.5290   22.0410  -31.3920 C   0  0  0  0  0  0  0  0  0  0  0  0
   -5.6300   23.0170  -31.6040 C   0  0  0  0  0  0  0  0  0  0  0  0
   -5.3850   24.2500  -31.7070 O   0  0  0  0  0  0  0  0  0  0  0  0
   -7.0170   22.5190  -31.7510 C   0  0  0  0  0  0  0  0  0  0  0  0
   -8.0930   23.4160  -31.8710 C   0  0  0  0  0  0  0  0  0  0  0  0
   -9.4020   22.9380  -31.9700 C   0  0  0  0  0  0  0  0  0  0  0  0
   -9.6500   21.5640  -31.9460 C   0  0  0  0  0  0  0  0  0  0  0  0
   -8.5900   20.6620  -31.8300 C   0  0  0  0  0  0  0  0  0  0  0  0
   -7.2670   21.1290  -31.7390 C   0  0  0  0  0  0  0  0  0  0  0  0
   -6.1360   20.1770  -31.6370 C   0  0  0  0  0  0  0  0  0  0  0  0
   -6.3490   18.9690  -31.3470 O   0  0  0  0  0  0  0  0  0  0  0  0
   -4.7190   20.6370  -31.9150 C   0  0  1  0  0  0  0  0  0  0  0  0
   -4.4170   20.5960  -33.3650 N   0  0  0  0  0  0  0  0  0  0  0  0
   -4.7410   19.2980  -33.9930 C   0  0  0  0  0  0  0  0  0  0  0  0
   -3.7040   18.2130  -33.6400 C   0  0  0  0  0  0  0  0  0  0  0  0
   -2.2650   18.6070  -34.0120 C   0  0  0  0  0  0  0  0  0  0  0  0
   -1.9100   19.9410  -33.4760 N   0  0  0  0  0  0  0  0  0  0  0  0
   -0.8600   20.6280  -34.2520 C   0  0  0  0  0  0  0  0  0  0  0  0
    0.1760   21.1720  -33.2740 C   0  0  0  0  0  0  0  0  0  0  0  0
   -0.4430   20.9960  -31.9080 C   0  0  0  0  0  0  0  0  0  0  0  0
   -1.4120   19.8490  -32.0980 C   0  0  0  0  0  0  0  0  0  0  0  0
   -1.8820   23.7360  -29.4660 C   0  0  0  0  0  0  0  0  0  0  0  0
   -1.6680   24.4660  -28.2930 C   0  0  0  0  0  0  0  0  0  0  0  0
   -2.6545   24.6700  -25.1990 H   0  0  0  0  0  0  0  0  0  0  0  0
   -1.3922   25.6522  -26.0166 H   0  0  0  0  0  0  0  0  0  0  0  0
   -3.1010   26.2058  -26.0166 H   0  0  0  0  0  0  0  0  0  0  0  0
   -4.7078   23.9962  -26.7946 H   0  0  0  0  0  0  0  0  0  0  0  0
   -5.0982   22.7198  -28.9011 H   0  0  0  0  0  0  0  0  0  0  0  0
   -7.9032   24.4994  -31.8870 H   0  0  0  0  0  0  0  0  0  0  0  0
  -10.2389   23.6453  -32.0670 H   0  0  0  0  0  0  0  0  0  0  0  0
  -10.6824   21.1913  -32.0186 H   0  0  0  0  0  0  0  0  0  0  0  0
   -8.7913   19.5808  -31.8097 H   0  0  0  0  0  0  0  0  0  0  0  0
   -4.0270   19.9529  -31.4019 H   0  0  0  0  0  0  0  0  0  0  0  0
   -4.9630   21.3470  -33.8510 H   0  0  0  0  0  0  0  0  0  0  0  0
   -3.4040   20.8080  -33.5280 H   0  0  0  0  0  0  0  0  0  0  0  0
   -5.7311   18.9709  -33.6427 H   0  0  0  0  0  0  0  0  0  0  0  0
   -4.7317   19.4358  -35.0843 H   0  0  0  0  0  0  0  0  0  0  0  0
   -3.7468   18.0277  -32.5566 H   0  0  0  0  0  0  0  0  0  0  0  0
   -3.9584   17.3155  -34.2229 H   0  0  0  0  0  0  0  0  0  0  0  0
   -1.5718   17.8598  -33.5982 H   0  0  0  0  0  0  0  0  0  0  0  0
   -2.1912   18.6458  -35.1088 H   0  0  0  0  0  0  0  0  0  0  0  0
   -0.3828   19.9177  -34.9431 H   0  0  0  0  0  0  0  0  0  0  0  0
   -1.2970   21.4495  -34.8387 H   0  0  0  0  0  0  0  0  0  0  0  0
    1.1144   20.6029  -33.3491 H   0  0  0  0  0  0  0  0  0  0  0  0
    0.4266   22.2229  -33.4809 H   0  0  0  0  0  0  0  0  0  0  0  0
    0.3228   20.7427  -31.1601 H   0  0  0  0  0  0  0  0  0  0  0  0
   -0.9318   21.9104  -31.5406 H   0  0  0  0  0  0  0  0  0  0  0  0
   -0.8977   18.8889  -31.9441 H   0  0  0  0  0  0  0  0  0  0  0  0
   -2.2384   19.9053  -31.3742 H   0  0  0  0  0  0  0  0  0  0  0  0
   -1.0911   23.6787  -30.2283 H   0  0  0  0  0  0  0  0  0  0  0  0
   -0.6982   24.9563  -28.1225 H   0  0  0  0  0  0  0  0  0  0  0  0
  1  2  1  0
  2  3  2  0
  3  4  1  0
  4  5  2  0
  5  6  1  0
  6  7  2  3
  7  8  1  0
  8  9  2  0
  8 10  1  0
 10 11  2  0
 11 12  1  0
 12 13  2  0
 13 14  1  0
 14 15  2  0
 15 16  1  0
 16 17  2  0
 16 18  1  0
 18 19  1  0
 19 20  1  0
 20 21  1  0
 21 22  1  0
 22 23  1  0
 23 24  1  0
 24 25  1  0
 25 26  1  0
 26 27  1  0
  5 28  1  0
 28 29  2  0
 29  2  1  0
 18  7  1  0
 27 23  1  0
 15 10  1  0
  1 30  1  0
  1 31  1  0
  1 32  1  0
  3 33  1  0
  4 34  1  0
 11 35  1  0
 12 36  1  0
 13 37  1  0
 14 38  1  0
 18 39  1  1
 19 40  1  0
 19 41  1  0
 20 42  1  0
 20 43  1  0
 21 44  1  0
 21 45  1  0
 22 46  1  0
 22 47  1  0
 24 48  1  0
 24 49  1  0
 25 50  1  0
 25 51  1  0
 26 52  1  0
 26 53  1  0
 27 54  1  0
 27 55  1  0
 28 56  1  0
 29 57  1  0
M  CHG  1  19   1
M  END
>  <UniqueID>  (33) 
28

>  <SMILES>  (33) 
Cc1ccc(N=C2C(=O)c3ccccc3C(=O)[C@H]2[NH2+]CCCN2CCCC2)cc1

>  <Energy>  (33) 
75.86511919000495

>  <Genealogy>  (33) 
Cc1ccc(N=C2C(=O)c3ccccc3C(=O)C2[NH2+]CCCN2CCCC2)cc1 (protonated)
Cc1ccc(N=C2C(=O)c3ccccc3C(=O)[C@H]2[NH2+]CCCN2CCCC2)cc1 (chirality)
Cc1ccc(N=C2C(=O)c3ccccc3C(=O)[C@H]2[NH2+]CCCN2CCCC2)cc1 (3D coordinates assigned)
Cc1ccc(N=C2C(=O)c3ccccc3C(=O)[C@H]2[NH2+]CCCN2CCCC2)cc1 (nonaromatic ring conformer: 75.86511919000495 kcal/mol)

>  <smiles>  (33) 
Cc1ccc(N=C2C(=O)c3ccccc3C(=O)C2NCCCN2CCCC2)cc1

>  <score_type>  (33) 
oracle

>  <origin>  (33) 
adg

>  <m_score__min__energy>  (33) 
-9.1799999999999997

>  <m_primary>  (33) 
energy

$$$$
33:0
     RDKit          3D

 39 41  0  0  0  0  0  0  0  0999 V2000
   -5.3500   25.6800  -30.5540 C   0  0  0  0  0  0  0  0  0  0  0  0
   -4.1500   24.9690  -30.8410 O   0  0  0  0  0  0  0  0  0  0  0  0
   -3.9570   23.6040  -30.5820 C   0  0  0  0  0  0  0  0  0  0  0  0
   -3.5760   23.1230  -29.3150 C   0  0  0  0  0  0  0  0  0  0  0  0
   -3.4000   21.7530  -29.1090 C   0  0  0  0  0  0  0  0  0  0  0  0
   -3.5960   20.8520  -30.1570 C   0  0  0  0  0  0  0  0  0  0  0  0
   -3.9660   21.3170  -31.4300 C   0  0  0  0  0  0  0  0  0  0  0  0
   -4.1650   20.3730  -32.5560 C   0  0  0  0  0  0  0  0  0  0  0  0
   -3.0450   19.7560  -33.1380 C   0  0  0  0  0  0  0  0  0  0  0  0
   -3.2010   18.8440  -34.1340 N   0  0  0  0  0  0  0  0  0  0  0  0
   -4.4280   18.4860  -34.5900 C   0  0  0  0  0  0  0  0  0  0  0  0
   -5.5730   19.0590  -34.0380 C   0  0  0  0  0  0  0  0  0  0  0  0
   -5.4510   20.0320  -33.0370 C   0  0  0  0  0  0  0  0  0  0  0  0
   -6.6770   20.5610  -32.4050 C   0  0  0  0  0  0  0  0  0  0  0  0
   -6.8840   21.9490  -32.4930 C   0  0  0  0  0  0  0  0  0  0  0  0
   -8.0190   22.5390  -31.9390 C   0  0  0  0  0  0  0  0  0  0  0  0
   -8.9650   21.7520  -31.2890 C   0  0  0  0  0  0  0  0  0  0  0  0
   -8.7800   20.3720  -31.1940 C   0  0  0  0  0  0  0  0  0  0  0  0
   -7.6480   19.7510  -31.7440 C   0  0  0  0  0  0  0  0  0  0  0  0
   -7.5940   18.3490  -31.6070 O   0  0  0  0  0  0  0  0  0  0  0  0
   -6.4850   17.5490  -31.2180 C   0  0  0  0  0  0  0  0  0  0  0  0
   -4.1520   22.6950  -31.6290 C   0  0  0  0  0  0  0  0  0  0  0  0
   -5.4792   25.7565  -29.4643 H   0  0  0  0  0  0  0  0  0  0  0  0
   -5.2911   26.6890  -30.9880 H   0  0  0  0  0  0  0  0  0  0  0  0
   -6.2067   25.1436  -30.9880 H   0  0  0  0  0  0  0  0  0  0  0  0
   -3.4166   23.8277  -28.4856 H   0  0  0  0  0  0  0  0  0  0  0  0
   -3.1055   21.3821  -28.1162 H   0  0  0  0  0  0  0  0  0  0  0  0
   -3.4603   19.7740  -29.9855 H   0  0  0  0  0  0  0  0  0  0  0  0
   -2.0351   20.0126  -32.7854 H   0  0  0  0  0  0  0  0  0  0  0  0
   -4.5193   17.7430  -35.3960 H   0  0  0  0  0  0  0  0  0  0  0  0
   -6.5688   18.7483  -34.3871 H   0  0  0  0  0  0  0  0  0  0  0  0
   -6.1408   22.5774  -33.0056 H   0  0  0  0  0  0  0  0  0  0  0  0
   -8.1669   23.6263  -32.0156 H   0  0  0  0  0  0  0  0  0  0  0  0
   -9.8593   22.2181  -30.8497 H   0  0  0  0  0  0  0  0  0  0  0  0
   -9.5350   19.7600  -30.6788 H   0  0  0  0  0  0  0  0  0  0  0  0
   -6.4291   17.5087  -30.1202 H   0  0  0  0  0  0  0  0  0  0  0  0
   -6.6094   16.5313  -31.6164 H   0  0  0  0  0  0  0  0  0  0  0  0
   -5.5585   17.9881  -31.6164 H   0  0  0  0  0  0  0  0  0  0  0  0
   -4.4547   23.0646  -32.6198 H   0  0  0  0  0  0  0  0  0  0  0  0
  1  2  1  0
  2  3  1  0
  3  4  2  0
  4  5  1  0
  5  6  2  0
  6  7  1  0
  7  8  1  0
  8  9  2  0
  9 10  1  0
 10 11  2  0
 11 12  1  0
 12 13  2  0
 13 14  1  0
 14 15  2  0
 15 16  1  0
 16 17  2  0
 17 18  1  0
 18 19  2  0
 19 20  1  0
 20 21  1  0
  7 22  2  0
 22  3  1  0
 13  8  1  0
 19 14  1  0
  1 23  1  0
  1 24  1  0
  1 25  1  0
  4 26  1  0
  5 27  1  0
  6 28  1  0
  9 29  1  0
 11 30  1  0
 12 31  1  0
 15 32  1  0
 16 33  1  0
 17 34  1  0
 18 35  1  0
 21 36  1  0
 21 37  1  0
 21 38  1  0
 22 39  1  0
M  END
>  <UniqueID>  (34) 
29

>  <SMILES>  (34) 
COc1cccc(-c2cnccc2-c2ccccc2OC)c1

>  <Energy>  (34) 
60.55678563078705

>  <Genealogy>  (34) 
COc1cccc(-c2cnccc2-c2ccccc2OC)c1 (3D coordinates assigned)
COc1cccc(-c2cnccc2-c2ccccc2OC)c1 (optimized conformer: 60.55678563078705 kcal/mol)

>  <smiles>  (34) 
COc1cccc(-c2cnccc2-c2ccccc2OC)c1

>  <score_type>  (34) 
oracle

>  <origin>  (34) 
adg

>  <m_score__min__energy>  (34) 
-7.79

>  <m_primary>  (34) 
energy

$$$$
34:0
     RDKit          3D

 36 37  0  0  0  0  0  0  0  0999 V2000
   -1.1530   25.8700  -27.7740 C   0  0  0  0  0  0  0  0  0  0  0  0
   -1.9100   25.6760  -28.9640 O   0  0  0  0  0  0  0  0  0  0  0  0
   -2.7100   24.5500  -29.1720 C   0  0  0  0  0  0  0  0  0  0  0  0
   -2.7200   23.5270  -28.2230 C   0  0  0  0  0  0  0  0  0  0  0  0
   -3.5270   22.4120  -28.4490 C   0  0  0  0  0  0  0  0  0  0  0  0
   -3.5530   21.3790  -27.5070 O   0  0  0  0  0  0  0  0  0  0  0  0
   -2.6840   20.2550  -27.5730 C   0  0  0  0  0  0  0  0  0  0  0  0
   -4.2760   22.3410  -29.5840 N   0  0  0  0  0  0  0  0  0  0  0  0
   -4.2520   23.3390  -30.5070 C   0  0  0  0  0  0  0  0  0  0  0  0
   -5.0560   23.2340  -31.6480 O   0  0  0  0  0  0  0  0  0  0  0  0
   -5.4350   22.0310  -32.2620 C   0  0  0  0  0  0  0  0  0  0  0  0
   -4.4390   21.2240  -32.8230 C   0  0  0  0  0  0  0  0  0  0  0  0
   -4.7700   20.0200  -33.4530 C   0  0  0  0  0  0  0  0  0  0  0  0
   -6.1130   19.6180  -33.5540 C   0  0  0  0  0  0  0  0  0  0  0  0
   -6.4810   18.3740  -34.1750 N   0  0  0  0  0  0  0  0  0  0  0  0
   -6.2770   17.0840  -33.5790 C   0  0  0  0  0  0  0  0  0  0  0  0
   -6.8720   15.8690  -34.2130 C   0  0  0  0  0  0  0  0  0  0  0  0
   -5.5310   16.9520  -32.5710 O   0  0  0  0  0  0  0  0  0  0  0  0
   -7.1110   20.4260  -32.9920 C   0  0  0  0  0  0  0  0  0  0  0  0
   -6.7800   21.6310  -32.3640 C   0  0  0  0  0  0  0  0  0  0  0  0
   -3.4780   24.4370  -30.2890 N   0  0  0  0  0  0  0  0  0  0  0  0
   -1.7978   25.7048  -26.8982 H   0  0  0  0  0  0  0  0  0  0  0  0
   -0.3152   25.1575  -27.7521 H   0  0  0  0  0  0  0  0  0  0  0  0
   -0.7611   26.8976  -27.7521 H   0  0  0  0  0  0  0  0  0  0  0  0
   -2.1037   23.5985  -27.3147 H   0  0  0  0  0  0  0  0  0  0  0  0
   -2.4305   19.9272  -26.5540 H   0  0  0  0  0  0  0  0  0  0  0  0
   -3.1852   19.4349  -28.1080 H   0  0  0  0  0  0  0  0  0  0  0  0
   -1.7641   20.5336  -28.1080 H   0  0  0  0  0  0  0  0  0  0  0  0
   -3.3866   21.5393  -32.7680 H   0  0  0  0  0  0  0  0  0  0  0  0
   -3.9755   19.3847  -33.8714 H   0  0  0  0  0  0  0  0  0  0  0  0
   -6.8450   18.4020  -35.1550 H   0  0  0  0  0  0  0  0  0  0  0  0
   -7.2116   15.1756  -33.4295 H   0  0  0  0  0  0  0  0  0  0  0  0
   -7.7279   16.1634  -34.8381 H   0  0  0  0  0  0  0  0  0  0  0  0
   -6.1146   15.3734  -34.8381 H   0  0  0  0  0  0  0  0  0  0  0  0
   -8.1632   20.1097  -33.0453 H   0  0  0  0  0  0  0  0  0  0  0  0
   -7.5742   22.2684  -31.9482 H   0  0  0  0  0  0  0  0  0  0  0  0
  1  2  1  0
  2  3  1  0
  3  4  2  0
  4  5  1  0
  5  6  1  0
  6  7  1  0
  5  8  2  0
  8  9  1  0
  9 10  1  0
 10 11  1  0
 11 12  2  0
 12 13  1  0
 13 14  2  0
 14 15  1  0
 15 16  1  0
 16 17  1  0
 16 18  2  0
 14 19  1  0
 19 20  2  0
  9 21  2  0
 21  3  1  0
 20 11  1  0
  1 22  1  0
  1 23  1  0
  1 24  1  0
  4 25  1  0
  7 26  1  0
  7 27  1  0
  7 28  1  0
 12 29  1  0
 13 30  1  0
 15 31  1  0
 17 32  1  0
 17 33  1  0
 17 34  1  0
 19 35  1  0
 20 36  1  0
M  END
>  <UniqueID>  (35) 
30

>  <SMILES>  (35) 
COc1cc(OC)nc(Oc2ccc(NC(C)=O)cc2)n1

>  <Energy>  (35) 
38.75346979535207

>  <Genealogy>  (35) 
COc1cc(OC)nc(Oc2ccc(NC(C)=O)cc2)n1 (3D coordinates assigned)
COc1cc(OC)nc(Oc2ccc(NC(C)=O)cc2)n1 (optimized conformer: 38.75346979535207 kcal/mol)

>  <smiles>  (35) 
COc1cc(OC)nc(Oc2ccc(NC(C)=O)cc2)n1

>  <score_type>  (35) 
oracle

>  <origin>  (35) 
adg

>  <m_score__min__energy>  (35) 
-6.6399999999999997

>  <m_primary>  (35) 
energy

$$$$
35:0
     RDKit          3D

 61 64  0  0  0  0  0  0  0  0999 V2000
   -2.5090   24.6960  -28.1700 C   0  0  0  0  0  0  0  0  0  0  0  0
   -3.0070   24.9420  -29.4840 O   0  0  0  0  0  0  0  0  0  0  0  0
   -3.4320   23.9460  -30.3750 C   0  0  0  0  0  0  0  0  0  0  0  0
   -4.7630   23.9660  -30.8060 C   0  0  0  0  0  0  0  0  0  0  0  0
   -5.2380   23.0190  -31.7180 C   0  0  0  0  0  0  0  0  0  0  0  0
   -6.5770   23.1070  -32.1230 O   0  0  0  0  0  0  0  0  0  0  0  0
   -7.6710   23.4370  -31.2690 C   0  0  0  0  0  0  0  0  0  0  0  0
   -4.3600   22.0340  -32.2080 C   0  0  0  0  0  0  0  0  0  0  0  0
   -3.0190   21.9860  -31.7810 C   0  0  0  0  0  0  0  0  0  0  0  0
   -2.1200   20.9730  -32.2920 N   0  0  0  0  0  0  0  0  0  0  0  0
   -1.8900   19.7580  -31.4870 C   0  0  0  0  0  0  0  0  0  0  0  0
   -1.0800   18.6880  -32.2380 C   0  0  0  0  0  0  0  0  0  0  0  0
   -1.3050   18.7620  -33.7610 C   0  0  0  0  0  0  0  0  0  0  0  0
   -2.7500   18.4750  -34.1820 C   0  0  0  0  0  0  0  0  0  0  0  0
   -3.5480   19.4080  -34.2670 O   0  0  0  0  0  0  0  0  0  0  0  0
   -3.2330   17.1070  -34.3350 N   0  0  0  0  0  0  0  0  0  0  0  0
   -4.3020   17.0160  -35.3470 C   0  0  0  0  0  0  0  0  0  0  0  0
   -5.5460   17.8140  -34.9390 C   0  0  0  0  0  0  0  0  0  0  0  0
   -5.8280   17.7000  -33.5000 N   0  0  0  0  0  0  0  0  0  0  0  0
   -6.9360   18.4400  -32.9200 C   0  0  0  0  0  0  0  0  0  0  0  0
   -7.1000   19.8270  -33.1330 C   0  0  0  0  0  0  0  0  0  0  0  0
   -8.1870   20.4910  -32.5650 C   0  0  0  0  0  0  0  0  0  0  0  0
   -9.1080   19.7860  -31.7930 C   0  0  0  0  0  0  0  0  0  0  0  0
   -8.9300   18.4170  -31.6030 C   0  0  0  0  0  0  0  0  0  0  0  0
   -7.8640   17.7860  -32.1630 N   0  0  0  0  0  0  0  0  0  0  0  0
   -5.1510   16.6580  -32.7070 C   0  0  0  0  0  0  0  0  0  0  0  0
   -3.6470   16.5040  -33.0410 C   0  0  0  0  0  0  0  0  0  0  0  0
   -0.7730   20.1240  -34.2540 C   0  0  0  0  0  0  0  0  0  0  0  0
   -1.1970   21.3260  -33.3840 C   0  0  0  0  0  0  0  0  0  0  0  0
   -2.5660   22.9480  -30.8590 C   0  0  0  0  0  0  0  0  0  0  0  0
   -3.2375   25.0558  -27.4285 H   0  0  0  0  0  0  0  0  0  0  0  0
   -2.3505   23.6160  -28.0342 H   0  0  0  0  0  0  0  0  0  0  0  0
   -1.5550   25.2265  -28.0342 H   0  0  0  0  0  0  0  0  0  0  0  0
   -5.4456   24.7382  -30.4216 H   0  0  0  0  0  0  0  0  0  0  0  0
   -7.3578   23.3425  -30.2188 H   0  0  0  0  0  0  0  0  0  0  0  0
   -7.9900   24.4713  -31.4649 H   0  0  0  0  0  0  0  0  0  0  0  0
   -8.5088   22.7516  -31.4649 H   0  0  0  0  0  0  0  0  0  0  0  0
   -4.7259   21.2925  -32.9335 H   0  0  0  0  0  0  0  0  0  0  0  0
   -1.3410   20.0390  -30.5762 H   0  0  0  0  0  0  0  0  0  0  0  0
   -2.8739   19.3247  -31.2542 H   0  0  0  0  0  0  0  0  0  0  0  0
   -0.0107   18.8390  -32.0285 H   0  0  0  0  0  0  0  0  0  0  0  0
   -1.4158   17.6997  -31.8910 H   0  0  0  0  0  0  0  0  0  0  0  0
   -0.7412   17.9551  -34.2519 H   0  0  0  0  0  0  0  0  0  0  0  0
   -2.4350   16.5200  -34.6780 H   0  0  0  0  0  0  0  0  0  0  0  0
   -3.9230   17.4115  -36.3009 H   0  0  0  0  0  0  0  0  0  0  0  0
   -4.5915   15.9591  -35.4425 H   0  0  0  0  0  0  0  0  0  0  0  0
   -5.3847   18.8737  -35.1861 H   0  0  0  0  0  0  0  0  0  0  0  0
   -6.4070   17.4035  -35.4869 H   0  0  0  0  0  0  0  0  0  0  0  0
   -6.3729   20.3812  -33.7447 H   0  0  0  0  0  0  0  0  0  0  0  0
   -8.3172   21.5713  -32.7265 H   0  0  0  0  0  0  0  0  0  0  0  0
   -9.9656   20.3040  -31.3388 H   0  0  0  0  0  0  0  0  0  0  0  0
   -9.6520   17.8470  -30.9999 H   0  0  0  0  0  0  0  0  0  0  0  0
   -5.2461   16.9150  -31.6417 H   0  0  0  0  0  0  0  0  0  0  0  0
   -5.6353   15.7011  -32.9514 H   0  0  0  0  0  0  0  0  0  0  0  0
   -3.0670   16.9833  -32.2386 H   0  0  0  0  0  0  0  0  0  0  0  0
   -3.4569   15.4239  -33.1267 H   0  0  0  0  0  0  0  0  0  0  0  0
    0.3260   20.0797  -34.2677 H   0  0  0  0  0  0  0  0  0  0  0  0
   -1.2076   20.2889  -35.2510 H   0  0  0  0  0  0  0  0  0  0  0  0
   -0.2928   21.7714  -32.9435 H   0  0  0  0  0  0  0  0  0  0  0  0
   -1.7326   22.0253  -34.0428 H   0  0  0  0  0  0  0  0  0  0  0  0
   -1.5224   22.9194  -30.5125 H   0  0  0  0  0  0  0  0  0  0  0  0
  1  2  1  0
  2  3  1  0
  3  4  2  0
  4  5  1  0
  5  6  1  0
  6  7  1  0
  5  8  2  0
  8  9  1  0
  9 10  1  0
 10 11  1  0
 11 12  1  0
 12 13  1  0
 13 14  1  0
 14 15  2  0
 14 16  1  0
 16 17  1  0
 17 18  1  0
 18 19  1  0
 19 20  1  0
 20 21  2  0
 21 22  1  0
 22 23  2  0
 23 24  1  0
 24 25  2  0
 19 26  1  0
 26 27  1  0
 13 28  1  0
 28 29  1  0
  9 30  2  0
 30  3  1  0
 29 10  1  0
 27 16  1  0
 25 20  1  0
  1 31  1  0
  1 32  1  0
  1 33  1  0
  4 34  1  0
  7 35  1  0
  7 36  1  0
  7 37  1  0
  8 38  1  0
 11 39  1  0
 11 40  1  0
 12 41  1  0
 12 42  1  0
 13 43  1  0
 16 44  1  0
 17 45  1  0
 17 46  1  0
 18 47  1  0
 18 48  1  0
 21 49  1  0
 22 50  1  0
 23 51  1  0
 24 52  1  0
 26 53  1  0
 26 54  1  0
 27 55  1  0
 27 56  1  0
 28 57  1  0
 28 58  1  0
 29 59  1  0
 29 60  1  0
 30 61  1  0
M  CHG  1  16   1
M  END
>  <UniqueID>  (36) 
31

>  <SMILES>  (36) 
COc1cc(OC)cc(N2CCC(C(=O)[NH+]3CCN(c4ccccn4)CC3)CC2)c1

>  <Energy>  (36) 
83.96154883290619

>  <Genealogy>  (36) 
COc1cc(OC)cc(N2CCC(C(=O)[NH+]3CCN(c4ccccn4)CC3)CC2)c1 (protonated)
COc1cc(OC)cc(N2CCC(C(=O)[NH+]3CCN(c4ccccn4)CC3)CC2)c1 (3D coordinates assigned)
COc1cc(OC)cc(N2CCC(C(=O)[NH+]3CCN(c4ccccn4)CC3)CC2)c1 (nonaromatic ring conformer: 83.96154883290619 kcal/mol)

>  <smiles>  (36) 
COc1cc(OC)cc(N2CCC(C(=O)N3CCN(c4ccccn4)CC3)CC2)c1

>  <score_type>  (36) 
oracle

>  <origin>  (36) 
adg

>  <m_score__min__energy>  (36) 
-7.8700000000000001

>  <m_primary>  (36) 
energy

$$$$
36:0
     RDKit          3D

 53 55  0  0  0  0  0  0  0  0999 V2000
   -5.7760   18.5220  -34.8120 C   0  0  0  0  0  0  0  0  0  0  0  0
   -4.7000   18.0520  -33.8370 C   0  0  0  0  0  0  0  0  0  0  0  0
   -3.4440   18.9140  -33.9400 C   0  0  0  0  0  0  0  0  0  0  0  0
   -3.7930   20.2780  -33.7210 O   0  0  0  0  0  0  0  0  0  0  0  0
   -3.3310   21.0600  -32.6500 C   0  0  0  0  0  0  0  0  0  0  0  0
   -2.0570   20.8650  -32.0830 C   0  0  0  0  0  0  0  0  0  0  0  0
   -1.6230   21.6670  -31.0270 C   0  0  0  0  0  0  0  0  0  0  0  0
   -2.4460   22.6800  -30.5240 C   0  0  0  0  0  0  0  0  0  0  0  0
   -1.9160   23.6680  -29.1670 S   0  0  0  0  0  0  0  0  0  0  0  0
   -0.4750   24.0570  -29.3520 O   0  0  0  0  0  0  0  0  0  0  0  0
   -2.7460   24.9210  -29.1150 O   0  0  0  0  0  0  0  0  0  0  0  0
   -2.1210   22.7670  -27.6870 N   0  0  0  0  0  0  0  0  0  0  0  0
   -3.0590   21.6500  -27.8580 C   0  0  0  0  0  0  0  0  0  0  0  0
   -2.5200   20.4660  -27.0610 C   0  0  0  0  0  0  0  0  0  0  0  0
   -1.2280   20.9550  -26.4360 C   0  0  0  0  0  0  0  0  0  0  0  0
   -0.8590   22.1760  -27.2480 C   0  0  0  0  0  0  0  0  0  0  0  0
   -3.7150   22.8800  -31.0790 C   0  0  0  0  0  0  0  0  0  0  0  0
   -4.1720   22.0710  -32.1350 C   0  0  0  0  0  0  0  0  0  0  0  0
   -5.4740   22.3080  -32.7140 N   0  0  0  0  0  0  0  0  0  0  0  0
   -6.5120   22.2310  -31.6760 C   0  0  0  0  0  0  0  0  0  0  0  0
   -7.2910   20.9490  -31.8070 C   0  0  0  0  0  0  0  0  0  0  0  0
   -6.6610   19.7100  -31.6080 C   0  0  0  0  0  0  0  0  0  0  0  0
   -7.3810   18.5210  -31.7650 C   0  0  0  0  0  0  0  0  0  0  0  0
   -8.7300   18.5620  -32.1310 C   0  0  0  0  0  0  0  0  0  0  0  0
   -9.3590   19.7920  -32.3440 C   0  0  0  0  0  0  0  0  0  0  0  0
   -8.6430   20.9810  -32.1880 C   0  0  0  0  0  0  0  0  0  0  0  0
   -6.6416   18.9001  -34.2484 H   0  0  0  0  0  0  0  0  0  0  0  0
   -5.3714   19.3254  -35.4452 H   0  0  0  0  0  0  0  0  0  0  0  0
   -6.0904   17.6793  -35.4452 H   0  0  0  0  0  0  0  0  0  0  0  0
   -5.0938   18.1135  -32.8117 H   0  0  0  0  0  0  0  0  0  0  0  0
   -4.4316   17.0155  -34.0891 H   0  0  0  0  0  0  0  0  0  0  0  0
   -2.7150   18.5943  -33.1808 H   0  0  0  0  0  0  0  0  0  0  0  0
   -2.9997   18.8020  -34.9401 H   0  0  0  0  0  0  0  0  0  0  0  0
   -1.3995   20.0751  -32.4752 H   0  0  0  0  0  0  0  0  0  0  0  0
   -0.6282   21.5018  -30.5876 H   0  0  0  0  0  0  0  0  0  0  0  0
   -4.0527   21.9341  -27.4812 H   0  0  0  0  0  0  0  0  0  0  0  0
   -3.1551   21.3868  -28.9217 H   0  0  0  0  0  0  0  0  0  0  0  0
   -3.2365   20.1692  -26.2809 H   0  0  0  0  0  0  0  0  0  0  0  0
   -2.3577   19.5842  -27.6983 H   0  0  0  0  0  0  0  0  0  0  0  0
   -1.3824   21.2214  -25.3800 H   0  0  0  0  0  0  0  0  0  0  0  0
   -0.4391   20.1885  -26.4474 H   0  0  0  0  0  0  0  0  0  0  0  0
   -0.2976   22.8910  -26.6287 H   0  0  0  0  0  0  0  0  0  0  0  0
   -0.2199   21.9117  -28.1034 H   0  0  0  0  0  0  0  0  0  0  0  0
   -4.3617   23.6780  -30.6854 H   0  0  0  0  0  0  0  0  0  0  0  0
   -5.4900   23.2500  -33.1710 H   0  0  0  0  0  0  0  0  0  0  0  0
   -5.6720   21.5960  -33.4550 H   0  0  0  0  0  0  0  0  0  0  0  0
   -6.0366   22.2666  -30.6847 H   0  0  0  0  0  0  0  0  0  0  0  0
   -7.2003   23.0807  -31.7958 H   0  0  0  0  0  0  0  0  0  0  0  0
   -5.5979   19.6742  -31.3278 H   0  0  0  0  0  0  0  0  0  0  0  0
   -6.8855   17.5528  -31.6004 H   0  0  0  0  0  0  0  0  0  0  0  0
   -9.2961   17.6265  -32.2513 H   0  0  0  0  0  0  0  0  0  0  0  0
  -10.4194   19.8235  -32.6349 H   0  0  0  0  0  0  0  0  0  0  0  0
   -9.1397   21.9466  -32.3642 H   0  0  0  0  0  0  0  0  0  0  0  0
  1  2  1  0
  2  3  1  0
  3  4  1  0
  4  5  1  0
  5  6  2  0
  6  7  1  0
  7  8  2  0
  8  9  1  0
  9 10  2  0
  9 11  2  0
  9 12  1  0
 12 13  1  0
 13 14  1  0
 14 15  1  0
 15 16  1  0
  8 17  1  0
 17 18  2  0
 18 19  1  0
 19 20  1  0
 20 21  1  0
 21 22  2  0
 22 23  1  0
 23 24  2  0
 24 25  1  0
 25 26  2  0
 18  5  1  0
 26 21  1  0
 16 12  1  0
  1 27  1  0
  1 28  1  0
  1 29  1  0
  2 30  1  0
  2 31  1  0
  3 32  1  0
  3 33  1  0
  6 34  1  0
  7 35  1  0
 13 36  1  0
 13 37  1  0
 14 38  1  0
 14 39  1  0
 15 40  1  0
 15 41  1  0
 16 42  1  0
 16 43  1  0
 17 44  1  0
 19 45  1  0
 19 46  1  0
 20 47  1  0
 20 48  1  0
 22 49  1  0
 23 50  1  0
 24 51  1  0
 25 52  1  0
 26 53  1  0
M  CHG  1  19   1
M  END
>  <UniqueID>  (37) 
32

>  <SMILES>  (37) 
CCCOc1ccc(S(=O)(=O)N2CCCC2)cc1[NH2+]Cc1ccccc1

>  <Energy>  (37) 
48.579742045879414

>  <Genealogy>  (37) 
CCCOc1ccc(S(=O)(=O)N2CCCC2)cc1[NH2+]Cc1ccccc1 (protonated)
CCCOc1ccc(S(=O)(=O)N2CCCC2)cc1[NH2+]Cc1ccccc1 (3D coordinates assigned)
CCCOc1ccc(S(=O)(=O)N2CCCC2)cc1[NH2+]Cc1ccccc1 (nonaromatic ring conformer: 48.579742045879414 kcal/mol)

>  <smiles>  (37) 
CCCOc1ccc(S(=O)(=O)N2CCCC2)cc1NCc1ccccc1

>  <score_type>  (37) 
oracle

>  <origin>  (37) 
adg

>  <m_score__min__energy>  (37) 
-8.5700000000000003

>  <m_primary>  (37) 
energy

$$$$
37:0
     RDKit          3D

 47 50  0  0  0  0  0  0  0  0999 V2000
   -2.1070   20.4610  -31.2480 C   0  0  0  0  0  0  0  0  0  0  0  0
   -2.6830   21.2410  -32.4370 C   0  0  1  0  0  0  0  0  0  0  0  0
   -2.8240   20.3310  -33.6680 C   0  0  0  0  0  0  0  0  0  0  0  0
   -3.9230   19.4450  -33.4990 O   0  0  0  0  0  0  0  0  0  0  0  0
   -5.1280   19.8990  -32.9600 C   0  0  0  0  0  0  0  0  0  0  0  0
   -6.2970   19.1380  -33.1090 C   0  0  0  0  0  0  0  0  0  0  0  0
   -6.2520   17.8730  -33.7880 N   0  0  0  0  0  0  0  0  0  0  0  0
   -6.9530   16.7160  -33.2260 C   0  0  0  0  0  0  0  0  0  0  0  0
   -6.4670   15.4150  -33.8840 C   0  0  0  0  0  0  0  0  0  0  0  0
   -5.0040   15.4240  -34.0990 N   0  0  0  0  0  0  0  0  0  0  0  0
   -4.2620   15.3700  -32.8270 C   0  0  0  0  0  0  0  0  0  0  0  0
   -4.5380   16.5380  -34.9670 C   0  0  0  0  0  0  0  0  0  0  0  0
   -5.5140   17.7290  -35.0440 C   0  0  0  0  0  0  0  0  0  0  0  0
   -7.5100   19.6290  -32.6050 C   0  0  0  0  0  0  0  0  0  0  0  0
   -8.6580   18.9250  -32.7720 F   0  0  0  0  0  0  0  0  0  0  0  0
   -7.5570   20.8670  -31.9610 C   0  0  0  0  0  0  0  0  0  0  0  0
   -6.3850   21.6250  -31.7830 C   0  0  0  0  0  0  0  0  0  0  0  0
   -6.4070   22.8710  -31.1310 C   0  0  0  0  0  0  0  0  0  0  0  0
   -7.5030   23.3620  -30.7440 O   0  0  0  0  0  0  0  0  0  0  0  0
   -5.2050   23.5790  -30.9350 C   0  0  0  0  0  0  0  0  0  0  0  0
   -5.1680   24.8870  -30.2370 C   0  0  0  0  0  0  0  0  0  0  0  0
   -6.1810   25.2600  -29.3010 N   0  0  0  0  0  0  0  0  0  0  0  0
   -4.2090   25.6770  -30.4480 O   0  0  0  0  0  0  0  0  0  0  0  0
   -4.0090   23.0300  -31.4210 C   0  0  0  0  0  0  0  0  0  0  0  0
   -3.9900   21.8260  -32.0670 N   0  0  0  0  0  0  0  0  0  0  0  0
   -5.1540   21.1260  -32.2680 C   0  0  0  0  0  0  0  0  0  0  0  0
   -2.4468   20.9211  -30.3084 H   0  0  0  0  0  0  0  0  0  0  0  0
   -2.4531   19.4178  -31.2916 H   0  0  0  0  0  0  0  0  0  0  0  0
   -1.0081   20.4849  -31.2916 H   0  0  0  0  0  0  0  0  0  0  0  0
   -1.9900   22.0550  -32.6962 H   0  0  0  0  0  0  0  0  0  0  0  0
   -2.9908   20.9510  -34.5612 H   0  0  0  0  0  0  0  0  0  0  0  0
   -1.9026   19.7421  -33.7870 H   0  0  0  0  0  0  0  0  0  0  0  0
   -6.7603   16.6675  -32.1441 H   0  0  0  0  0  0  0  0  0  0  0  0
   -8.0305   16.8281  -33.4168 H   0  0  0  0  0  0  0  0  0  0  0  0
   -6.7263   14.5675  -33.2324 H   0  0  0  0  0  0  0  0  0  0  0  0
   -6.9570   15.3229  -34.8645 H   0  0  0  0  0  0  0  0  0  0  0  0
   -4.9702   15.4215  -31.9869 H   0  0  0  0  0  0  0  0  0  0  0  0
   -3.6961   14.4283  -32.7723 H   0  0  0  0  0  0  0  0  0  0  0  0
   -3.5658   16.2198  -32.7723 H   0  0  0  0  0  0  0  0  0  0  0  0
   -3.5779   16.9035  -34.5738 H   0  0  0  0  0  0  0  0  0  0  0  0
   -4.4539   16.1315  -35.9857 H   0  0  0  0  0  0  0  0  0  0  0  0
   -4.9451   18.6506  -35.2366 H   0  0  0  0  0  0  0  0  0  0  0  0
   -6.2314   17.5473  -35.8578 H   0  0  0  0  0  0  0  0  0  0  0  0
   -8.5179   21.2528  -31.5898 H   0  0  0  0  0  0  0  0  0  0  0  0
   -6.1640   26.2070  -28.8620 H   0  0  0  0  0  0  0  0  0  0  0  0
   -6.8920   24.5720  -28.9660 H   0  0  0  0  0  0  0  0  0  0  0  0
   -3.0670   23.5801  -31.2791 H   0  0  0  0  0  0  0  0  0  0  0  0
  1  2  1  0
  2  3  1  0
  3  4  1  0
  4  5  1  0
  5  6  1  0
  6  7  1  0
  7  8  1  0
  8  9  1  0
  9 10  1  0
 10 11  1  0
 10 12  1  0
 12 13  1  0
  6 14  2  0
 14 15  1  0
 14 16  1  0
 16 17  2  0
 17 18  1  0
 18 19  2  0
 18 20  1  0
 20 21  1  0
 21 22  1  0
 21 23  2  0
 20 24  2  0
 24 25  1  0
 25 26  1  0
 25  2  1  0
 26  5  2  0
 13  7  1  0
 26 17  1  0
  1 27  1  0
  1 28  1  0
  1 29  1  0
  2 30  1  6
  3 31  1  0
  3 32  1  0
  8 33  1  0
  8 34  1  0
  9 35  1  0
  9 36  1  0
 11 37  1  0
 11 38  1  0
 11 39  1  0
 12 40  1  0
 12 41  1  0
 13 42  1  0
 13 43  1  0
 16 44  1  0
 22 45  1  0
 22 46  1  0
 24 47  1  0
M  END
>  <UniqueID>  (38) 
33

>  <SMILES>  (38) 
C[C@H]1COc2c(N3CCN(C)CC3)c(F)cc3c(=O)c(C(N)=O)cn1c23

>  <Energy>  (38) 
70.58463491794093

>  <Genealogy>  (38) 
C[C@H]1COc2c(N3CCN(C)CC3)c(F)cc3c(=O)c(C(N)=O)cn1c23 (chirality)
C[C@H]1COc2c(N3CCN(C)CC3)c(F)cc3c(=O)c(C(N)=O)cn1c23 (3D coordinates assigned)
C[C@H]1COc2c(N3CCN(C)CC3)c(F)cc3c(=O)c(C(N)=O)cn1c23 (nonaromatic ring conformer: 70.58463491794093 kcal/mol)

>  <smiles>  (38) 
CC1COc2c(N3CCN(C)CC3)c(F)cc3c(=O)c(C(N)=O)cn1c23

>  <score_type>  (38) 
oracle

>  <origin>  (38) 
adg

>  <m_score__min__energy>  (38) 
-9.5399999999999991

>  <m_primary>  (38) 
energy

$$$$
38:0
     RDKit          3D

 35 37  0  0  0  0  0  0  0  0999 V2000
   -5.3180   16.4850  -34.1850 C   0  0  0  0  0  0  0  0  0  0  0  0
   -5.4700   16.5380  -32.8000 C   0  0  0  0  0  0  0  0  0  0  0  0
   -6.1120   17.6280  -32.2140 C   0  0  0  0  0  0  0  0  0  0  0  0
   -6.5980   18.6710  -33.0250 C   0  0  0  0  0  0  0  0  0  0  0  0
   -7.2600   19.8010  -32.4220 N   0  0  0  0  0  0  0  0  0  0  0  0
   -6.7460   20.6520  -31.5080 C   0  0  0  0  0  0  0  0  0  0  0  0
   -7.7170   21.5740  -31.1860 C   0  0  0  0  0  0  0  0  0  0  0  0
   -7.6090   22.7100  -30.2020 C   0  0  0  0  0  0  0  0  0  0  0  0
   -6.4060   23.5500  -30.3870 N   0  0  0  0  0  0  0  0  0  0  0  0
   -5.2240   23.0410  -29.6670 C   0  0  0  0  0  0  0  0  0  0  0  0
   -4.0390   24.0150  -29.8200 C   0  0  0  0  0  0  0  0  0  0  0  0
   -4.2880   24.9640  -30.8400 O   0  0  0  0  0  0  0  0  0  0  0  0
   -5.3800   25.7910  -30.4720 C   0  0  0  0  0  0  0  0  0  0  0  0
   -6.6320   24.9740  -30.0890 C   0  0  0  0  0  0  0  0  0  0  0  0
   -8.8140   21.2290  -31.9500 C   0  0  0  0  0  0  0  0  0  0  0  0
   -8.5120   20.1460  -32.6890 N   0  0  0  0  0  0  0  0  0  0  0  0
   -6.4400   18.5880  -34.3820 N   0  0  0  0  0  0  0  0  0  0  0  0
   -5.8150   17.5280  -34.9660 C   0  0  0  0  0  0  0  0  0  0  0  0
   -4.8116   15.6298  -34.6565 H   0  0  0  0  0  0  0  0  0  0  0  0
   -5.0844   15.7219  -32.1713 H   0  0  0  0  0  0  0  0  0  0  0  0
   -6.2383   17.6729  -31.1222 H   0  0  0  0  0  0  0  0  0  0  0  0
   -5.7281   20.6151  -31.0927 H   0  0  0  0  0  0  0  0  0  0  0  0
   -8.4978   23.3488  -30.3114 H   0  0  0  0  0  0  0  0  0  0  0  0
   -7.5335   22.2598  -29.2012 H   0  0  0  0  0  0  0  0  0  0  0  0
   -5.4686   22.9330  -28.6000 H   0  0  0  0  0  0  0  0  0  0  0  0
   -4.9410   22.0663  -30.0912 H   0  0  0  0  0  0  0  0  0  0  0  0
   -3.8830   24.5434  -28.8679 H   0  0  0  0  0  0  0  0  0  0  0  0
   -3.1440   23.4363  -30.0921 H   0  0  0  0  0  0  0  0  0  0  0  0
   -5.0825   26.4068  -29.6104 H   0  0  0  0  0  0  0  0  0  0  0  0
   -5.6380   26.4135  -31.3415 H   0  0  0  0  0  0  0  0  0  0  0  0
   -6.8330   25.0952  -29.0143 H   0  0  0  0  0  0  0  0  0  0  0  0
   -7.4940   25.3351  -30.6692 H   0  0  0  0  0  0  0  0  0  0  0  0
   -9.7800   21.7552  -31.9539 H   0  0  0  0  0  0  0  0  0  0  0  0
   -6.8120   19.3330  -35.0080 H   0  0  0  0  0  0  0  0  0  0  0  0
   -5.7017   17.4945  -36.0596 H   0  0  0  0  0  0  0  0  0  0  0  0
  1  2  2  0
  2  3  1  0
  3  4  2  0
  4  5  1  0
  5  6  1  0
  6  7  2  0
  7  8  1  0
  8  9  1  0
  9 10  1  0
 10 11  1  0
 11 12  1  0
 12 13  1  0
 13 14  1  0
  7 15  1  0
 15 16  2  0
  4 17  1  0
 17 18  2  0
 18  1  1  0
 16  5  1  0
 14  9  1  0
  1 19  1  0
  2 20  1  0
  3 21  1  0
  6 22  1  0
  8 23  1  0
  8 24  1  0
 10 25  1  0
 10 26  1  0
 11 27  1  0
 11 28  1  0
 13 29  1  0
 13 30  1  0
 14 31  1  0
 14 32  1  0
 15 33  1  0
 17 34  1  0
 18 35  1  0
M  CHG  1  17   1
M  END
>  <UniqueID>  (39) 
34

>  <SMILES>  (39) 
c1ccc(-n2cc(CN3CCOCC3)cn2)[nH+]c1

>  <Energy>  (39) 
79.56522921748514

>  <Genealogy>  (39) 
c1ccc(-n2cc(CN3CCOCC3)cn2)[nH+]c1 (protonated)
c1ccc(-n2cc(CN3CCOCC3)cn2)[nH+]c1 (3D coordinates assigned)
c1ccc(-n2cc(CN3CCOCC3)cn2)[nH+]c1 (nonaromatic ring conformer: 79.56522921748514 kcal/mol)

>  <smiles>  (39) 
c1ccc(-n2cc(CN3CCOCC3)cn2)nc1

>  <score_type>  (39) 
oracle

>  <origin>  (39) 
adg

>  <m_score__min__energy>  (39) 
-7.4500000000000002

>  <m_primary>  (39) 
energy

$$$$
39:0
     RDKit          3D

 30 31  0  0  0  0  0  0  0  0999 V2000
    1.2860   25.1410  -27.0260 C   0  0  0  0  0  0  0  0  0  0  0  0
    0.5290   24.9310  -28.2110 O   0  0  0  0  0  0  0  0  0  0  0  0
   -0.8350   25.2330  -28.2990 C   0  0  0  0  0  0  0  0  0  0  0  0
   -1.2080   26.2930  -28.8750 O   0  0  0  0  0  0  0  0  0  0  0  0
   -1.8550   24.3310  -27.6100 C   0  0  2  0  0  0  0  0  0  0  0  0
   -1.8140   24.7160  -26.1100 C   0  0  0  0  0  0  0  0  0  0  0  0
   -1.4450   22.8160  -27.7880 C   0  0  0  0  0  0  0  0  0  0  0  0
   -2.5890   22.0390  -28.4790 C   0  0  1  0  0  0  0  0  0  0  0  0
   -3.8550   22.1900  -27.6030 C   0  0  0  0  0  0  0  0  0  0  0  0
   -4.2450   23.6920  -27.5140 C   0  0  0  0  0  0  0  0  0  0  0  0
   -3.2300   24.5480  -28.1860 N   0  0  2  0  0  0  0  0  0  0  0  0
   -3.2150   24.1280  -29.5770 C   0  0  0  0  0  0  0  0  0  0  0  0
   -3.4900   24.9020  -30.4810 O   0  0  0  0  0  0  0  0  0  0  0  0
   -2.8570   22.6910  -29.8550 C   0  0  0  0  0  0  0  0  0  0  0  0
    0.6483   24.9641  -26.1473 H   0  0  0  0  0  0  0  0  0  0  0  0
    2.1378   24.4452  -27.0069 H   0  0  0  0  0  0  0  0  0  0  0  0
    1.6576   26.1762  -27.0069 H   0  0  0  0  0  0  0  0  0  0  0  0
   -1.9106   23.8086  -25.4958 H   0  0  0  0  0  0  0  0  0  0  0  0
   -0.8580   25.2113  -25.8846 H   0  0  0  0  0  0  0  0  0  0  0  0
   -2.6442   25.4015  -25.8846 H   0  0  0  0  0  0  0  0  0  0  0  0
   -0.5369   22.7540  -28.4057 H   0  0  0  0  0  0  0  0  0  0  0  0
   -1.2529   22.3742  -26.7991 H   0  0  0  0  0  0  0  0  0  0  0  0
   -2.3277   20.9782  -28.6070 H   0  0  0  0  0  0  0  0  0  0  0  0
   -4.6826   21.6220  -28.0530 H   0  0  0  0  0  0  0  0  0  0  0  0
   -3.6518   21.8027  -26.5937 H   0  0  0  0  0  0  0  0  0  0  0  0
   -5.2198   23.8399  -28.0017 H   0  0  0  0  0  0  0  0  0  0  0  0
   -4.2971   23.9779  -26.4531 H   0  0  0  0  0  0  0  0  0  0  0  0
   -3.5220   25.5520  -28.1060 H   0  0  0  0  0  0  0  0  0  0  0  0
   -3.6897   22.1819  -30.3624 H   0  0  0  0  0  0  0  0  0  0  0  0
   -1.9776   22.6169  -30.5116 H   0  0  0  0  0  0  0  0  0  0  0  0
  1  2  1  0
  2  3  1  0
  3  4  2  0
  3  5  1  0
  5  6  1  1
  5  7  1  0
  7  8  1  0
  8  9  1  0
  9 10  1  0
 10 11  1  0
 11 12  1  0
 12 13  2  0
 12 14  1  0
 11  5  1  0
 14  8  1  0
  1 15  1  0
  1 16  1  0
  1 17  1  0
  6 18  1  0
  6 19  1  0
  6 20  1  0
  7 21  1  0
  7 22  1  0
  8 23  1  6
  9 24  1  0
  9 25  1  0
 10 26  1  0
 10 27  1  0
 11 28  1  6
 14 29  1  0
 14 30  1  0
M  CHG  1  11   1
M  END
>  <UniqueID>  (40) 
35

>  <SMILES>  (40) 
COC(=O)[C@]1(C)C[C@H]2CC[NH+]1C(=O)C2

>  <Energy>  (40) 
45.948623108288146

>  <Genealogy>  (40) 
COC(=O)C1(C)CC2CC[NH+]1C(=O)C2 (protonated)
COC(=O)[C@]1(C)C[C@H]2CC[NH+]1C(=O)C2 (chirality)
COC(=O)[C@]1(C)C[C@H]2CC[NH+]1C(=O)C2 (3D coordinates assigned)
COC(=O)[C@]1(C)C[C@H]2CC[NH+]1C(=O)C2 (nonaromatic ring conformer: 45.948623108288146 kcal/mol)

>  <smiles>  (40) 
COC(=O)C1(C)CC2CCN1C(=O)C2

>  <score_type>  (40) 
oracle

>  <origin>  (40) 
adg

>  <m_score__min__energy>  (40) 
-5.2000000000000002

>  <m_primary>  (40) 
energy

$$$$
40:0
     RDKit          3D

 30 31  0  0  0  0  0  0  0  0999 V2000
   -8.5020   22.3260  -31.6130 C   0  0  0  0  0  0  0  0  0  0  0  0
   -7.2110   23.0380  -31.3350 C   0  0  0  0  0  0  0  0  0  0  0  0
   -7.1940   24.1750  -30.5110 C   0  0  0  0  0  0  0  0  0  0  0  0
   -5.9870   24.8170  -30.2220 C   0  0  0  0  0  0  0  0  0  0  0  0
   -4.7830   24.3350  -30.7610 C   0  0  0  0  0  0  0  0  0  0  0  0
   -3.5310   24.9660  -30.4660 N   0  0  0  0  0  0  0  0  0  0  0  0
   -2.7480   24.7620  -29.2820 C   0  0  0  0  0  0  0  0  0  0  0  0
   -1.9420   25.6620  -28.9250 O   0  0  0  0  0  0  0  0  0  0  0  0
   -2.9230   23.5520  -28.4090 C   0  0  0  0  0  0  0  0  0  0  0  0
   -1.6430   22.3130  -28.7990 S   0  0  0  0  0  0  0  0  0  0  0  0
   -0.3200   23.2810  -28.0740 C   0  0  0  0  0  0  0  0  0  0  0  0
    0.4310   24.1670  -28.7530 N   0  0  0  0  0  0  0  0  0  0  0  0
    1.2630   24.6710  -27.8510 N   0  0  0  0  0  0  0  0  0  0  0  0
    1.0380   24.1220  -26.6640 N   0  0  0  0  0  0  0  0  0  0  0  0
    0.0610   23.2430  -26.7880 N   0  0  0  0  0  0  0  0  0  0  0  0
   -0.5240   22.4800  -25.6930 C   0  0  0  0  0  0  0  0  0  0  0  0
   -4.7950   23.1710  -31.5390 C   0  0  0  0  0  0  0  0  0  0  0  0
   -6.0010   22.5280  -31.8290 C   0  0  0  0  0  0  0  0  0  0  0  0
   -8.9858   22.0592  -30.6618 H   0  0  0  0  0  0  0  0  0  0  0  0
   -9.1671   22.9849  -32.1905 H   0  0  0  0  0  0  0  0  0  0  0  0
   -8.2996   21.4119  -32.1905 H   0  0  0  0  0  0  0  0  0  0  0  0
   -8.1344   24.5617  -30.0915 H   0  0  0  0  0  0  0  0  0  0  0  0
   -5.9798   25.7030  -29.5701 H   0  0  0  0  0  0  0  0  0  0  0  0
   -2.8340   23.8482  -27.3534 H   0  0  0  0  0  0  0  0  0  0  0  0
   -3.9162   23.1155  -28.5909 H   0  0  0  0  0  0  0  0  0  0  0  0
   -0.1970   22.9065  -24.7332 H   0  0  0  0  0  0  0  0  0  0  0  0
   -1.6210   22.5253  -25.7596 H   0  0  0  0  0  0  0  0  0  0  0  0
   -0.1955   21.4323  -25.7596 H   0  0  0  0  0  0  0  0  0  0  0  0
   -3.8498   22.7606  -31.9240 H   0  0  0  0  0  0  0  0  0  0  0  0
   -6.0018   21.6181  -32.4472 H   0  0  0  0  0  0  0  0  0  0  0  0
  1  2  1  0
  2  3  2  0
  3  4  1  0
  4  5  2  0
  5  6  1  0
  6  7  1  0
  7  8  2  0
  7  9  1  0
  9 10  1  0
 10 11  1  0
 11 12  2  0
 12 13  1  0
 13 14  2  0
 14 15  1  0
 15 16  1  0
  5 17  1  0
 17 18  2  0
 18  2  1  0
 15 11  1  0
  1 19  1  0
  1 20  1  0
  1 21  1  0
  3 22  1  0
  4 23  1  0
  9 24  1  0
  9 25  1  0
 16 26  1  0
 16 27  1  0
 16 28  1  0
 17 29  1  0
 18 30  1  0
M  CHG  1   6  -1
M  END
>  <UniqueID>  (41) 
36

>  <SMILES>  (41) 
Cc1ccc([N-]C(=O)CSc2nnnn2C)cc1

>  <Energy>  (41) 
69.09193595476772

>  <Genealogy>  (41) 
Cc1ccc([N-]C(=O)CSc2nnnn2C)cc1 (protonated)
Cc1ccc([N-]C(=O)CSc2nnnn2C)cc1 (3D coordinates assigned)
Cc1ccc([N-]C(=O)CSc2nnnn2C)cc1 (optimized conformer: 69.09193595476772 kcal/mol)

>  <smiles>  (41) 
Cc1ccc(NC(=O)CSc2nnnn2C)cc1

>  <score_type>  (41) 
oracle

>  <origin>  (41) 
adg

>  <m_score__min__energy>  (41) 
-8.8800000000000008

>  <m_primary>  (41) 
energy

$$$$
41:0
     RDKit          3D

 45 47  0  0  0  0  0  0  0  0999 V2000
   -3.1500   25.6510  -31.5970 H   0  0  0  0  0  0  0  0  0  0  0  0
   -3.5720   25.2600  -30.7640 O   0  0  0  0  0  0  0  0  0  0  0  0
   -4.9390   25.2640  -30.6170 N   0  0  0  0  0  0  0  0  0  0  0  0
   -5.6010   24.2550  -30.1380 C   0  0  0  0  0  0  0  0  0  0  0  0
   -5.6851   24.1573  -29.0456 H   0  0  0  0  0  0  0  0  0  0  0  0
   -6.2480   23.2300  -30.9860 C   0  0  0  0  0  0  0  0  0  0  0  0
   -7.6060   22.9960  -31.1430 C   0  0  0  0  0  0  0  0  0  0  0  0
   -8.4174   23.6187  -30.7383 H   0  0  0  0  0  0  0  0  0  0  0  0
   -7.7620   21.8770  -31.8750 N   0  0  0  0  0  0  0  0  0  0  0  0
   -9.0310   21.2310  -32.1970 C   0  0  0  0  0  0  0  0  0  0  0  0
   -9.0920   21.0689  -33.2833 H   0  0  0  0  0  0  0  0  0  0  0  0
   -9.8587   21.8773  -31.8694 H   0  0  0  0  0  0  0  0  0  0  0  0
   -9.1300   19.8820  -31.4760 C   0  0  0  0  0  0  0  0  0  0  0  0
  -10.1909   19.6495  -31.3017 H   0  0  0  0  0  0  0  0  0  0  0  0
   -8.5792   19.9626  -30.5273 H   0  0  0  0  0  0  0  0  0  0  0  0
   -8.5030   18.7480  -32.2920 C   0  0  0  0  0  0  0  0  0  0  0  0
   -9.2871   18.2527  -32.8835 H   0  0  0  0  0  0  0  0  0  0  0  0
   -8.0361   18.0313  -31.6004 H   0  0  0  0  0  0  0  0  0  0  0  0
   -7.5170   19.2460  -33.1590 O   0  0  0  0  0  0  0  0  0  0  0  0
   -7.9330   19.3150  -34.0570 H   0  0  0  0  0  0  0  0  0  0  0  0
   -6.5750   21.3720  -32.1680 N   0  0  0  0  0  0  0  0  0  0  0  0
   -6.4210   20.4930  -32.7110 H   0  0  0  0  0  0  0  0  0  0  0  0
   -5.6250   22.1730  -31.6460 C   0  0  0  0  0  0  0  0  0  0  0  0
   -4.1730   21.9160  -31.7710 C   0  0  0  0  0  0  0  0  0  0  0  0
   -3.2970   22.1980  -30.7090 C   0  0  0  0  0  0  0  0  0  0  0  0
   -3.6926   22.6049  -29.7667 H   0  0  0  0  0  0  0  0  0  0  0  0
   -1.9250   21.9640  -30.8440 C   0  0  0  0  0  0  0  0  0  0  0  0
   -1.2475   22.1915  -30.0078 H   0  0  0  0  0  0  0  0  0  0  0  0
   -1.4080   21.4430  -32.0340 C   0  0  0  0  0  0  0  0  0  0  0  0
   -0.0240   21.2350  -32.1330 O   0  0  0  0  0  0  0  0  0  0  0  0
    0.6590   20.8420  -33.2940 C   0  0  0  0  0  0  0  0  0  0  0  0
    0.5350   21.5470  -34.5050 C   0  0  0  0  0  0  0  0  0  0  0  0
   -0.1019   22.4425  -34.5557 H   0  0  0  0  0  0  0  0  0  0  0  0
    1.2200   21.1120  -35.6460 C   0  0  0  0  0  0  0  0  0  0  0  0
    1.1283   21.6709  -36.5890 H   0  0  0  0  0  0  0  0  0  0  0  0
    2.0200   19.9680  -35.5870 C   0  0  0  0  0  0  0  0  0  0  0  0
    2.5628   19.6301  -36.4821 H   0  0  0  0  0  0  0  0  0  0  0  0
    2.1310   19.2530  -34.3920 C   0  0  0  0  0  0  0  0  0  0  0  0
    2.7560   18.3489  -34.3485 H   0  0  0  0  0  0  0  0  0  0  0  0
    1.4480   19.6860  -33.2510 C   0  0  0  0  0  0  0  0  0  0  0  0
    1.5311   19.1152  -32.3144 H   0  0  0  0  0  0  0  0  0  0  0  0
   -2.2760   21.1910  -33.1090 C   0  0  0  0  0  0  0  0  0  0  0  0
   -1.8746   20.8079  -34.0588 H   0  0  0  0  0  0  0  0  0  0  0  0
   -3.6480   21.4250  -32.9770 C   0  0  0  0  0  0  0  0  0  0  0  0
   -4.3206   21.2231  -33.8236 H   0  0  0  0  0  0  0  0  0  0  0  0
  1  2  1  0
  2  3  1  0
  3  4  2  0
  4  5  1  0
  4  6  1  0
  6  7  2  0
  7  8  1  0
  7  9  1  0
  9 10  1  0
 10 11  1  0
 10 12  1  0
 10 13  1  0
 13 14  1  0
 13 15  1  0
 13 16  1  0
 16 17  1  0
 16 18  1  0
 16 19  1  0
 19 20  1  0
  9 21  1  0
 21 22  1  0
 21 23  2  0
 23 24  1  0
 24 25  2  0
 25 26  1  0
 25 27  1  0
 27 28  1  0
 27 29  2  0
 29 30  1  0
 30 31  1  0
 31 32  2  0
 32 33  1  0
 32 34  1  0
 34 35  1  0
 34 36  2  0
 36 37  1  0
 36 38  1  0
 38 39  1  0
 38 40  2  0
 40 41  1  0
 29 42  1  0
 42 43  1  0
 42 44  2  0
 44 45  1  0
 23  6  1  0
 44 24  1  0
 40 31  1  0
M  CHG  1  21   1
M  END
>  <UniqueID>  (42) 
37

>  <SMILES>  (42) 
OCCCn1cc(/C=N\O)c(-c2ccc(Oc3ccccc3)cc2)[nH+]1

>  <Energy>  (42) 
85.16819883771117

>  <Genealogy>  (42) 
OCCCn1cc(C=NO)c(-c2ccc(Oc3ccccc3)cc2)[nH+]1 (protonated)
OCCCn1cc(/C=N\O)c(-c2ccc(Oc3ccccc3)cc2)[nH+]1 (cis-trans isomerization)
OCCCn1cc(/C=N\O)c(-c2ccc(Oc3ccccc3)cc2)[nH+]1 (3D coordinates assigned)
OCCCn1cc(/C=N\O)c(-c2ccc(Oc3ccccc3)cc2)[nH+]1 (optimized conformer: 85.16819883771117 kcal/mol)

>  <smiles>  (42) 
OCCCn1cc(C=NO)c(-c2ccc(Oc3ccccc3)cc2)n1

>  <score_type>  (42) 
oracle

>  <origin>  (42) 
adg

>  <m_score__min__energy>  (42) 
-7.8399999999999999

>  <m_primary>  (42) 
energy

$$$$
42:0
     RDKit          3D

 29 31  0  0  0  0  0  0  0  0999 V2000
   -3.9250   24.8100  -30.6950 O   0  0  0  0  0  0  0  0  0  0  0  0
   -4.1570   23.6180  -30.3580 C   0  0  0  0  0  0  0  0  0  0  0  0
   -3.8820   23.1720  -29.0190 N   0  0  0  0  0  0  0  0  0  0  0  0
   -3.2700   23.9970  -28.0140 C   0  0  0  0  0  0  0  0  0  0  0  0
   -4.0320   24.5210  -26.9540 C   0  0  0  0  0  0  0  0  0  0  0  0
   -3.4260   25.2970  -25.9630 C   0  0  0  0  0  0  0  0  0  0  0  0
   -2.0540   25.5490  -26.0120 C   0  0  0  0  0  0  0  0  0  0  0  0
   -1.2830   25.0180  -27.0480 C   0  0  0  0  0  0  0  0  0  0  0  0
   -1.8820   24.2370  -28.0450 C   0  0  0  0  0  0  0  0  0  0  0  0
   -0.8740   23.6010  -29.3390 Cl  0  0  0  0  0  0  0  0  0  0  0  0
   -4.7310   22.7220  -31.3180 N   0  0  0  0  0  0  0  0  0  0  0  0
   -4.0290   22.1630  -32.3000 N   0  0  0  0  0  0  0  0  0  0  0  0
   -4.8580   21.3790  -33.0290 C   0  0  0  0  0  0  0  0  0  0  0  0
   -6.1150   21.4430  -32.4690 C   0  0  0  0  0  0  0  0  0  0  0  0
   -7.3080   20.8010  -32.7920 C   0  0  0  0  0  0  0  0  0  0  0  0
   -8.4200   21.0370  -31.9620 C   0  0  0  0  0  0  0  0  0  0  0  0
   -8.3040   21.8820  -30.8340 C   0  0  0  0  0  0  0  0  0  0  0  0
   -7.0810   22.5100  -30.5330 C   0  0  0  0  0  0  0  0  0  0  0  0
   -6.0040   22.2840  -31.3970 C   0  0  0  0  0  0  0  0  0  0  0  0
   -4.1180   22.1870  -28.7670 H   0  0  0  0  0  0  0  0  0  0  0  0
   -5.1121   24.3184  -26.9051 H   0  0  0  0  0  0  0  0  0  0  0  0
   -4.0311   25.7102  -25.1426 H   0  0  0  0  0  0  0  0  0  0  0  0
   -1.5801   26.1660  -25.2344 H   0  0  0  0  0  0  0  0  0  0  0  0
   -0.2011   25.2137  -27.0815 H   0  0  0  0  0  0  0  0  0  0  0  0
   -4.5763   20.7921  -33.9157 H   0  0  0  0  0  0  0  0  0  0  0  0
   -7.3786   20.1340  -33.6638 H   0  0  0  0  0  0  0  0  0  0  0  0
   -9.3848   20.5614  -32.1921 H   0  0  0  0  0  0  0  0  0  0  0  0
   -9.1771   22.0499  -30.1863 H   0  0  0  0  0  0  0  0  0  0  0  0
   -6.9755   23.1562  -29.6491 H   0  0  0  0  0  0  0  0  0  0  0  0
  1  2  2  0
  2  3  1  0
  3  4  1  0
  4  5  2  0
  5  6  1  0
  6  7  2  0
  7  8  1  0
  8  9  2  0
  9 10  1  0
  2 11  1  0
 11 12  1  0
 12 13  2  0
 13 14  1  0
 14 15  2  0
 15 16  1  0
 16 17  2  0
 17 18  1  0
 18 19  2  0
  9  4  1  0
 19 11  1  0
 19 14  1  0
  3 20  1  0
  5 21  1  0
  6 22  1  0
  7 23  1  0
  8 24  1  0
 13 25  1  0
 15 26  1  0
 16 27  1  0
 17 28  1  0
 18 29  1  0
M  END
>  <UniqueID>  (43) 
38

>  <SMILES>  (43) 
O=C(Nc1ccccc1Cl)n1ncc2ccccc21

>  <Energy>  (43) 
79.56869875825643

>  <Genealogy>  (43) 
O=C(Nc1ccccc1Cl)n1ncc2ccccc21 (3D coordinates assigned)
O=C(Nc1ccccc1Cl)n1ncc2ccccc21 (optimized conformer: 79.56869875825643 kcal/mol)

>  <smiles>  (43) 
O=C(Nc1ccccc1Cl)n1ncc2ccccc21

>  <score_type>  (43) 
oracle

>  <origin>  (43) 
adg

>  <m_score__min__energy>  (43) 
-7.3799999999999999

>  <m_primary>  (43) 
energy

$$$$
43:0
     RDKit          3D

 29 29  0  0  0  0  0  0  0  0999 V2000
   -1.9780   25.9370  -25.2900 C   0  0  0  0  0  0  0  0  0  0  0  0
   -2.2870   25.2730  -26.6280 C   0  0  0  0  0  0  0  0  0  0  0  0
   -1.1540   25.5000  -27.6330 C   0  0  0  0  0  0  0  0  0  0  0  0
   -1.6660   25.4430  -28.9980 N   0  0  0  0  0  0  0  0  0  0  0  0
   -2.7000   24.5480  -29.4190 C   0  0  0  0  0  0  0  0  0  0  0  0
   -2.6980   23.3480  -29.0280 O   0  0  0  0  0  0  0  0  0  0  0  0
   -3.7180   25.0180  -30.3080 N   0  0  0  0  0  0  0  0  0  0  0  0
   -4.8340   24.2070  -30.7040 C   0  0  0  0  0  0  0  0  0  0  0  0
   -4.6090   23.1310  -31.5740 C   0  0  0  0  0  0  0  0  0  0  0  0
   -5.6660   22.3080  -31.9710 C   0  0  0  0  0  0  0  0  0  0  0  0
   -6.9580   22.5590  -31.5090 C   0  0  0  0  0  0  0  0  0  0  0  0
   -7.2020   23.6450  -30.6640 C   0  0  0  0  0  0  0  0  0  0  0  0
   -6.1530   24.4940  -30.2730 C   0  0  0  0  0  0  0  0  0  0  0  0
   -6.4640   25.6790  -29.3990 C   0  0  0  0  0  0  0  0  0  0  0  0
   -2.2875   25.2718  -24.4704 H   0  0  0  0  0  0  0  0  0  0  0  0
   -0.8975   26.1301  -25.2173 H   0  0  0  0  0  0  0  0  0  0  0  0
   -2.5261   26.8880  -25.2173 H   0  0  0  0  0  0  0  0  0  0  0  0
   -2.4161   24.1920  -26.4709 H   0  0  0  0  0  0  0  0  0  0  0  0
   -3.2073   25.7183  -27.0338 H   0  0  0  0  0  0  0  0  0  0  0  0
   -0.7046   26.4882  -27.4554 H   0  0  0  0  0  0  0  0  0  0  0  0
   -0.3978   24.7119  -27.5023 H   0  0  0  0  0  0  0  0  0  0  0  0
   -3.5500   25.9140  -30.8180 H   0  0  0  0  0  0  0  0  0  0  0  0
   -3.5931   22.9333  -31.9467 H   0  0  0  0  0  0  0  0  0  0  0  0
   -5.4792   21.4616  -32.6483 H   0  0  0  0  0  0  0  0  0  0  0  0
   -7.7863   21.9009  -31.8103 H   0  0  0  0  0  0  0  0  0  0  0  0
   -8.2230   23.8366  -30.3023 H   0  0  0  0  0  0  0  0  0  0  0  0
   -6.3869   25.3851  -28.3418 H   0  0  0  0  0  0  0  0  0  0  0  0
   -5.7475   26.4870  -29.6082 H   0  0  0  0  0  0  0  0  0  0  0  0
   -7.4849   26.0310  -29.6082 H   0  0  0  0  0  0  0  0  0  0  0  0
  1  2  1  0
  2  3  1  0
  3  4  1  0
  4  5  1  0
  5  6  2  0
  5  7  1  0
  7  8  1  0
  8  9  2  0
  9 10  1  0
 10 11  2  0
 11 12  1  0
 12 13  2  0
 13 14  1  0
 13  8  1  0
  1 15  1  0
  1 16  1  0
  1 17  1  0
  2 18  1  0
  2 19  1  0
  3 20  1  0
  3 21  1  0
  7 22  1  0
  9 23  1  0
 10 24  1  0
 11 25  1  0
 12 26  1  0
 14 27  1  0
 14 28  1  0
 14 29  1  0
M  CHG  1   4  -1
M  END
>  <UniqueID>  (44) 
39

>  <SMILES>  (44) 
CCC[N-]C(=O)Nc1ccccc1C

>  <Energy>  (44) 
25.397687020576658

>  <Genealogy>  (44) 
CCC[N-]C(=O)Nc1ccccc1C (protonated)
CCC[N-]C(=O)Nc1ccccc1C (3D coordinates assigned)
CCC[N-]C(=O)Nc1ccccc1C (optimized conformer: 25.397687020576658 kcal/mol)

>  <smiles>  (44) 
CCCNC(=O)Nc1ccccc1C

>  <score_type>  (44) 
oracle

>  <origin>  (44) 
adg

>  <m_score__min__energy>  (44) 
-7.1900000000000004

>  <m_primary>  (44) 
energy

$$$$
44:0
     RDKit          3D

 43 45  0  0  0  0  0  0  0  0999 V2000
   -3.9730   25.6860  -31.5990 H   0  0  0  0  0  0  0  0  0  0  0  0
   -3.3600   21.1400  -33.4170 N   0  0  0  0  0  0  0  0  0  0  0  0
   -3.4040   19.8560  -33.6250 C   0  0  0  0  0  0  0  0  0  0  0  0
   -6.1610   23.8980  -32.0390 S   0  0  0  0  0  0  0  0  0  0  0  0
   -7.4230   23.2590  -31.1140 C   0  0  0  0  0  0  0  0  0  0  0  0
   -8.5770   22.4750  -31.6530 C   0  0  0  0  0  0  0  0  0  0  0  0
   -9.4159   22.5305  -30.9436 H   0  0  0  0  0  0  0  0  0  0  0  0
   -8.8743   22.8989  -32.6236 H   0  0  0  0  0  0  0  0  0  0  0  0
   -8.1870   21.0350  -31.8480 C   0  0  0  0  0  0  0  0  0  0  0  0
   -9.1310   20.1040  -32.3080 C   0  0  0  0  0  0  0  0  0  0  0  0
  -10.1575   20.4311  -32.5299 H   0  0  0  0  0  0  0  0  0  0  0  0
   -8.7760   18.7650  -32.4860 C   0  0  0  0  0  0  0  0  0  0  0  0
   -9.5270   18.0416  -32.8363 H   0  0  0  0  0  0  0  0  0  0  0  0
   -7.4600   18.3360  -32.2190 C   0  0  0  0  0  0  0  0  0  0  0  0
   -7.0410   17.0020  -32.3750 O   0  0  0  0  0  0  0  0  0  0  0  0
   -6.6230   16.3860  -33.5970 C   0  0  0  0  0  0  0  0  0  0  0  0
   -5.8313   15.6548  -33.3767 H   0  0  0  0  0  0  0  0  0  0  0  0
   -7.4945   15.8924  -34.0518 H   0  0  0  0  0  0  0  0  0  0  0  0
   -6.0830   17.4220  -34.5890 C   0  0  0  0  0  0  0  0  0  0  0  0
   -5.9869   16.9493  -35.5776 H   0  0  0  0  0  0  0  0  0  0  0  0
   -6.7895   18.2647  -34.6150 H   0  0  0  0  0  0  0  0  0  0  0  0
   -4.7430   17.9570  -34.1770 C   0  0  0  0  0  0  0  0  0  0  0  0
   -4.6000   19.2920  -33.9470 N   0  0  0  0  0  0  0  0  0  0  0  0
   -5.3860   24.5270  -30.6880 C   0  0  0  0  0  0  0  0  0  0  0  0
   -4.2710   25.1840  -30.7310 N   0  0  0  0  0  0  0  0  0  0  0  0
   -3.4400   21.8030  -32.1200 C   0  0  0  0  0  0  0  0  0  0  0  0
   -3.3497   21.0542  -31.3193 H   0  0  0  0  0  0  0  0  0  0  0  0
   -2.6237   22.5349  -32.0314 H   0  0  0  0  0  0  0  0  0  0  0  0
   -4.4070   22.3198  -32.0314 H   0  0  0  0  0  0  0  0  0  0  0  0
   -2.2600   19.0350  -33.5330 C   0  0  0  0  0  0  0  0  0  0  0  0
   -1.2818   19.4708  -33.2814 H   0  0  0  0  0  0  0  0  0  0  0  0
   -2.3830   17.6620  -33.7650 C   0  0  0  0  0  0  0  0  0  0  0  0
   -1.4989   17.0113  -33.6946 H   0  0  0  0  0  0  0  0  0  0  0  0
   -3.6270   17.1160  -34.0860 C   0  0  0  0  0  0  0  0  0  0  0  0
   -3.7296   16.0356  -34.2657 H   0  0  0  0  0  0  0  0  0  0  0  0
   -6.5180   19.2720  -31.7710 C   0  0  0  0  0  0  0  0  0  0  0  0
   -5.4887   18.9486  -31.5565 H   0  0  0  0  0  0  0  0  0  0  0  0
   -6.8730   20.6120  -31.5940 C   0  0  0  0  0  0  0  0  0  0  0  0
   -6.1197   21.3381  -31.2543 H   0  0  0  0  0  0  0  0  0  0  0  0
   -7.1880   23.5410  -29.7690 C   0  0  0  0  0  0  0  0  0  0  0  0
   -7.8608   23.2127  -28.9630 H   0  0  0  0  0  0  0  0  0  0  0  0
   -6.0550   24.2570  -29.5400 N   0  0  0  0  0  0  0  0  0  0  0  0
   -5.7410   24.5490  -28.5860 H   0  0  0  0  0  0  0  0  0  0  0  0
  1  2  1  0
  2  3  2  0
  3  4  1  0
  4  5  1  0
  5  6  1  0
  6  7  1  0
  6  8  1  0
  6  9  1  0
  9 10  2  0
 10 11  1  0
 10 12  1  0
 12 13  1  0
 12 14  2  0
 14 15  1  0
 15 16  1  0
 16 17  1  0
 16 18  1  0
 16 19  1  0
 19 20  1  0
 19 21  1  0
 19 22  1  0
 22 23  1  0
 23 24  1  0
 24 25  2  0
 25 26  1  0
 26 27  1  0
 26 28  1  0
 26 29  1  0
 24 30  1  0
 30 31  1  0
 30 32  2  0
 32 33  1  0
 32 34  1  0
 34 35  1  0
 14 36  1  0
 36 37  1  0
 36 38  2  0
 38 39  1  0
  5 40  2  0
 40 41  1  0
 40 42  1  0
 42 43  1  0
 42  3  1  0
 38  9  1  0
 34 22  2  0
M  CHG  1  23  -1
M  END
>  <UniqueID>  (45) 
40

>  <SMILES>  (45) 
[H]/N=c1\[nH]cc(Cc2ccc(OCCc3ccc/c(=N\C)[n-]3)cc2)s1

>  <Energy>  (45) 
69.3142458161095

>  <Genealogy>  (45) 
CN=c1cccc(CCOc2ccc(Cc3c[nH]c(=N)s3)cc2)[n-]1 (protonated)
[H]/N=c1\[nH]cc(Cc2ccc(OCCc3ccc/c(=N\C)[n-]3)cc2)s1 (cis-trans isomerization)
[H]/N=c1\[nH]cc(Cc2ccc(OCCc3ccc/c(=N\C)[n-]3)cc2)s1 (3D coordinates assigned)
[H]/N=c1\[nH]cc(Cc2ccc(OCCc3ccc/c(=N\C)[n-]3)cc2)s1 (optimized conformer: 69.3142458161095 kcal/mol)

>  <smiles>  (45) 
CN=c1cccc(CCOc2ccc(Cc3c[nH]c(=N)s3)cc2)[nH]1

>  <score_type>  (45) 
oracle

>  <origin>  (45) 
adg

>  <m_score__min__energy>  (45) 
-9.6500000000000004

>  <m_primary>  (45) 
energy

$$$$
45:0
     RDKit          3D

 31 32  0  0  0  0  0  0  0  0999 V2000
   -5.3780   26.0510  -30.4520 C   0  0  0  0  0  0  0  0  0  0  0  0
   -4.3020   25.1740  -30.7730 O   0  0  0  0  0  0  0  0  0  0  0  0
   -4.4530   23.8100  -31.0650 C   0  0  0  0  0  0  0  0  0  0  0  0
   -3.4070   22.8830  -30.9020 C   0  0  0  0  0  0  0  0  0  0  0  0
   -3.6090   21.5350  -31.2010 C   0  0  0  0  0  0  0  0  0  0  0  0
   -4.8500   21.0970  -31.6680 C   0  0  0  0  0  0  0  0  0  0  0  0
   -5.9060   22.0110  -31.8510 C   0  0  0  0  0  0  0  0  0  0  0  0
   -7.2830   21.5610  -32.3320 C   0  0  1  0  0  0  0  0  0  0  0  0
   -7.3370   20.0940  -32.6330 C   0  0  0  0  0  0  0  0  0  0  0  0
   -6.4900   19.3990  -33.5690 C   0  0  0  0  0  0  0  0  0  0  0  0
   -5.8090   18.8400  -34.3200 N   0  0  0  0  0  0  0  0  0  0  0  0
   -8.3280   19.5610  -31.9540 C   0  0  0  0  0  0  0  0  0  0  0  0
   -8.7460   18.1260  -31.9720 C   0  0  0  0  0  0  0  0  0  0  0  0
   -8.9560   20.5350  -31.2070 O   0  0  0  0  0  0  0  0  0  0  0  0
   -8.4110   21.7940  -31.3800 N   0  0  0  0  0  0  0  0  0  0  0  0
   -8.0500   22.3090  -30.0540 C   0  0  0  0  0  0  0  0  0  0  0  0
   -5.6950   23.3650  -31.5340 C   0  0  0  0  0  0  0  0  0  0  0  0
   -5.4738   26.1291  -29.3590 H   0  0  0  0  0  0  0  0  0  0  0  0
   -5.1780   27.0467  -30.8746 H   0  0  0  0  0  0  0  0  0  0  0  0
   -6.3129   25.6543  -30.8746 H   0  0  0  0  0  0  0  0  0  0  0  0
   -2.4262   23.2223  -30.5374 H   0  0  0  0  0  0  0  0  0  0  0  0
   -2.7880   20.8151  -31.0684 H   0  0  0  0  0  0  0  0  0  0  0  0
   -5.0038   20.0316  -31.8944 H   0  0  0  0  0  0  0  0  0  0  0  0
   -7.4152   22.1891  -33.2253 H   0  0  0  0  0  0  0  0  0  0  0  0
   -8.8520   17.7620  -30.9394 H   0  0  0  0  0  0  0  0  0  0  0  0
   -9.7091   18.0312  -32.4949 H   0  0  0  0  0  0  0  0  0  0  0  0
   -7.9845   17.5288  -32.4949 H   0  0  0  0  0  0  0  0  0  0  0  0
   -8.4977   21.6704  -29.2783 H   0  0  0  0  0  0  0  0  0  0  0  0
   -6.9554   22.3058  -29.9449 H   0  0  0  0  0  0  0  0  0  0  0  0
   -8.4263   23.3369  -29.9449 H   0  0  0  0  0  0  0  0  0  0  0  0
   -6.5177   24.0848  -31.6563 H   0  0  0  0  0  0  0  0  0  0  0  0
  1  2  1  0
  2  3  1  0
  3  4  2  0
  4  5  1  0
  5  6  2  0
  6  7  1  0
  7  8  1  0
  8  9  1  0
  9 10  1  0
 10 11  3  0
  9 12  2  0
 12 13  1  0
 12 14  1  0
 14 15  1  0
 15 16  1  0
  7 17  2  0
 17  3  1  0
 15  8  1  0
  1 18  1  0
  1 19  1  0
  1 20  1  0
  4 21  1  0
  5 22  1  0
  6 23  1  0
  8 24  1  6
 13 25  1  0
 13 26  1  0
 13 27  1  0
 16 28  1  0
 16 29  1  0
 16 30  1  0
 17 31  1  0
M  END
>  <UniqueID>  (46) 
41

>  <SMILES>  (46) 
COc1cccc([C@H]2C(C#N)=C(C)ON2C)c1

>  <Energy>  (46) 
48.788786075568204

>  <Genealogy>  (46) 
COc1cccc([C@H]2C(C#N)=C(C)ON2C)c1 (chirality)
COc1cccc([C@H]2C(C#N)=C(C)ON2C)c1 (3D coordinates assigned)
COc1cccc([C@H]2C(C#N)=C(C)ON2C)c1 (nonaromatic ring conformer: 48.788786075568204 kcal/mol)

>  <smiles>  (46) 
COc1cccc(C2C(C#N)=C(C)ON2C)c1

>  <score_type>  (46) 
oracle

>  <origin>  (46) 
adg

>  <m_score__min__energy>  (46) 
-6.7699999999999996

>  <m_primary>  (46) 
energy

$$$$
46:0
     RDKit          3D

 29 31  0  0  0  0  0  0  0  0999 V2000
   -5.6800   25.6480  -30.4550 C   0  0  0  0  0  0  0  0  0  0  0  0
   -6.7910   24.6020  -30.4500 C   0  0  0  0  0  0  0  0  0  0  0  0
   -6.3840   23.3870  -31.2380 C   0  0  0  0  0  0  0  0  0  0  0  0
   -5.0790   23.2620  -31.6280 N   0  0  0  0  0  0  0  0  0  0  0  0
   -4.6610   22.1610  -32.3090 C   0  0  0  0  0  0  0  0  0  0  0  0
   -5.5160   21.1350  -32.6060 C   0  0  0  0  0  0  0  0  0  0  0  0
   -6.8470   21.2140  -32.2040 C   0  0  0  0  0  0  0  0  0  0  0  0
   -7.2930   22.3420  -31.5400 C   0  0  0  0  0  0  0  0  0  0  0  0
   -8.7420   22.3000  -31.1930 C   0  0  0  0  0  0  0  0  0  0  0  0
   -9.3630   21.1740  -32.0310 C   0  0  0  0  0  0  0  0  0  0  0  0
   -8.0720   19.9540  -32.4730 S   0  0  0  0  0  0  0  0  0  0  0  0
   -4.8340   20.0330  -33.3210 C   0  0  0  0  0  0  0  0  0  0  0  0
   -3.3800   20.5310  -33.4670 C   0  0  0  0  0  0  0  0  0  0  0  0
   -3.2830   21.9080  -32.7770 C   0  0  0  0  0  0  0  0  0  0  0  0
   -5.4106   25.9017  -29.4191 H   0  0  0  0  0  0  0  0  0  0  0  0
   -4.7986   25.2443  -30.9747 H   0  0  0  0  0  0  0  0  0  0  0  0
   -6.0299   26.5521  -30.9747 H   0  0  0  0  0  0  0  0  0  0  0  0
   -7.0019   24.3048  -29.4121 H   0  0  0  0  0  0  0  0  0  0  0  0
   -7.6883   25.0384  -30.9130 H   0  0  0  0  0  0  0  0  0  0  0  0
   -8.8693   22.0892  -30.1209 H   0  0  0  0  0  0  0  0  0  0  0  0
   -9.2277   23.2643  -31.4035 H   0  0  0  0  0  0  0  0  0  0  0  0
  -10.1525   20.6768  -31.4483 H   0  0  0  0  0  0  0  0  0  0  0  0
   -9.7949   21.5979  -32.9496 H   0  0  0  0  0  0  0  0  0  0  0  0
   -4.8724   19.1029  -32.7349 H   0  0  0  0  0  0  0  0  0  0  0  0
   -5.3025   19.8003  -34.2886 H   0  0  0  0  0  0  0  0  0  0  0  0
   -2.6910   19.8215  -32.9854 H   0  0  0  0  0  0  0  0  0  0  0  0
   -3.1060   20.6127  -34.5292 H   0  0  0  0  0  0  0  0  0  0  0  0
   -2.5810   21.8745  -31.9308 H   0  0  0  0  0  0  0  0  0  0  0  0
   -2.9082   22.6958  -33.4469 H   0  0  0  0  0  0  0  0  0  0  0  0
  1  2  1  0
  2  3  1  0
  3  4  2  0
  4  5  1  0
  5  6  2  0
  6  7  1  0
  7  8  2  0
  8  9  1  0
  9 10  1  0
 10 11  1  0
  6 12  1  0
 12 13  1  0
 13 14  1  0
  8  3  1  0
 14  5  1  0
 11  7  1  0
  1 15  1  0
  1 16  1  0
  1 17  1  0
  2 18  1  0
  2 19  1  0
  9 20  1  0
  9 21  1  0
 10 22  1  0
 10 23  1  0
 12 24  1  0
 12 25  1  0
 13 26  1  0
 13 27  1  0
 14 28  1  0
 14 29  1  0
M  END
>  <UniqueID>  (47) 
42

>  <SMILES>  (47) 
CCc1nc2c(c3c1CCS3)CCC2

>  <Energy>  (47) 
43.15373151177498

>  <Genealogy>  (47) 
CCc1nc2c(c3c1CCS3)CCC2 (3D coordinates assigned)
CCc1nc2c(c3c1CCS3)CCC2 (nonaromatic ring conformer: 43.15373151177498 kcal/mol)

>  <smiles>  (47) 
CCc1nc2c(c3c1CCS3)CCC2

>  <score_type>  (47) 
oracle

>  <origin>  (47) 
adg

>  <m_score__min__energy>  (47) 
-6.7699999999999996

>  <m_primary>  (47) 
energy

$$$$
47:0
     RDKit          3D

 17 17  0  0  0  0  0  0  0  0999 V2000
   -6.4680   24.3270  -30.2410 C   0  0  0  0  0  0  0  0  0  0  0  0
   -5.7500   25.6710  -30.3310 C   0  0  0  0  0  0  0  0  0  0  0  0
   -4.3900   25.5010  -30.8420 N   0  0  0  0  0  0  0  0  0  0  0  0
   -3.5350   24.6230  -30.4080 C   0  0  0  0  0  0  0  0  0  0  0  0
   -2.6740   24.9220  -29.3940 N   0  0  0  0  0  0  0  0  0  0  0  0
   -1.7780   24.0070  -28.9420 C   0  0  0  0  0  0  0  0  0  0  0  0
   -1.7300   22.7390  -29.5180 C   0  0  0  0  0  0  0  0  0  0  0  0
   -2.6140   22.4480  -30.5550 C   0  0  0  0  0  0  0  0  0  0  0  0
   -3.4960   23.3910  -30.9800 N   0  0  0  0  0  0  0  0  0  0  0  0
   -6.6117   24.0581  -29.1841 H   0  0  0  0  0  0  0  0  0  0  0  0
   -7.4471   24.4004  -30.7370 H   0  0  0  0  0  0  0  0  0  0  0  0
   -5.8627   23.5540  -30.7370 H   0  0  0  0  0  0  0  0  0  0  0  0
   -6.3092   26.3338  -31.0078 H   0  0  0  0  0  0  0  0  0  0  0  0
   -5.6956   26.1094  -29.3236 H   0  0  0  0  0  0  0  0  0  0  0  0
   -1.0914   24.2663  -28.1227 H   0  0  0  0  0  0  0  0  0  0  0  0
   -1.0114   21.9858  -29.1625 H   0  0  0  0  0  0  0  0  0  0  0  0
   -2.5982   21.4557  -31.0295 H   0  0  0  0  0  0  0  0  0  0  0  0
  1  2  1  0
  2  3  1  0
  3  4  2  3
  4  5  1  0
  5  6  2  0
  6  7  1  0
  7  8  2  0
  8  9  1  0
  9  4  1  0
  1 10  1  0
  1 11  1  0
  1 12  1  0
  2 13  1  0
  2 14  1  0
  6 15  1  0
  7 16  1  0
  8 17  1  0
M  CHG  1   9  -1
M  END
>  <UniqueID>  (48) 
43

>  <SMILES>  (48) 
CCN=c1nccc[n-]1

>  <Energy>  (48) 
13.496953631544162

>  <Genealogy>  (48) 
CCN=c1nccc[n-]1 (protonated)
CCN=c1nccc[n-]1 (3D coordinates assigned)
CCN=c1nccc[n-]1 (optimized conformer: 13.496953631544162 kcal/mol)

>  <smiles>  (48) 
CCN=c1nccc[nH]1

>  <score_type>  (48) 
oracle

>  <origin>  (48) 
adg

>  <m_score__min__energy>  (48) 
-5.3399999999999999

>  <m_primary>  (48) 
energy

$$$$
