0:0
     RDKit          3D

 36 38  0  0  0  0  0  0  0  0999 V2000
   -0.8880   26.8950  -26.3580 C   0  0  0  0  0  0  0  0  0  0  0  0
   -1.3590   25.3020  -25.6160 S   0  0  0  0  0  0  0  0  0  0  0  0
   -2.4220   24.8410  -26.9850 C   0  0  0  0  0  0  0  0  0  0  0  0
   -1.9070   24.7830  -28.2840 C   0  0  0  0  0  0  0  0  0  0  0  0
   -2.7340   24.4280  -29.3530 C   0  0  0  0  0  0  0  0  0  0  0  0
   -4.0920   24.1270  -29.1350 C   0  0  0  0  0  0  0  0  0  0  0  0
   -4.9850   23.7470  -30.2550 C   0  0  0  0  0  0  0  0  0  0  0  0
   -6.2790   23.2550  -30.1780 C   0  0  0  0  0  0  0  0  0  0  0  0
   -6.6850   23.0630  -31.4450 N   0  0  0  0  0  0  0  0  0  0  0  0
   -8.0100   22.6360  -31.8820 C   0  0  0  0  0  0  0  0  0  0  0  0
   -8.0080   21.1560  -32.1420 C   0  0  0  0  0  0  0  0  0  0  0  0
   -6.8780   20.5380  -32.7050 C   0  0  0  0  0  0  0  0  0  0  0  0
   -6.8610   19.1550  -32.9080 C   0  0  0  0  0  0  0  0  0  0  0  0
   -7.9650   18.3780  -32.5390 C   0  0  0  0  0  0  0  0  0  0  0  0
   -9.0850   18.9850  -31.9650 C   0  0  0  0  0  0  0  0  0  0  0  0
   -9.1060   20.3680  -31.7590 C   0  0  0  0  0  0  0  0  0  0  0  0
   -5.7030   23.4340  -32.2500 N   0  0  0  0  0  0  0  0  0  0  0  0
   -4.6520   23.8510  -31.5620 N   0  0  0  0  0  0  0  0  0  0  0  0
   -4.6010   24.1930  -27.8240 C   0  0  0  0  0  0  0  0  0  0  0  0
   -3.7700   24.5490  -26.7580 C   0  0  0  0  0  0  0  0  0  0  0  0
   -0.6732   27.6217  -25.5606 H   0  0  0  0  0  0  0  0  0  0  0  0
    0.0082   26.7586  -26.9810 H   0  0  0  0  0  0  0  0  0  0  0  0
   -1.7143   27.2679  -26.9810 H   0  0  0  0  0  0  0  0  0  0  0  0
   -0.8476   25.0176  -28.4648 H   0  0  0  0  0  0  0  0  0  0  0  0
   -2.3212   24.3834  -30.3716 H   0  0  0  0  0  0  0  0  0  0  0  0
   -6.8577   23.0606  -29.2630 H   0  0  0  0  0  0  0  0  0  0  0  0
   -8.7455   22.8680  -31.0977 H   0  0  0  0  0  0  0  0  0  0  0  0
   -8.2756   23.1670  -32.8080 H   0  0  0  0  0  0  0  0  0  0  0  0
   -6.0045   21.1444  -32.9867 H   0  0  0  0  0  0  0  0  0  0  0  0
   -5.9787   18.6768  -33.3584 H   0  0  0  0  0  0  0  0  0  0  0  0
   -7.9510   17.2901  -32.7008 H   0  0  0  0  0  0  0  0  0  0  0  0
   -9.9521   18.3737  -31.6745 H   0  0  0  0  0  0  0  0  0  0  0  0
   -9.9849   20.8402  -31.2957 H   0  0  0  0  0  0  0  0  0  0  0  0
   -5.7500   23.4150  -33.2930 H   0  0  0  0  0  0  0  0  0  0  0  0
   -5.6603   23.9627  -27.6373 H   0  0  0  0  0  0  0  0  0  0  0  0
   -4.1779   24.5995  -25.7377 H   0  0  0  0  0  0  0  0  0  0  0  0
  1  2  1  0
  2  3  1  0
  3  4  2  0
  4  5  1  0
  5  6  2  0
  6  7  1  0
  7  8  2  0
  8  9  1  0
  9 10  1  0
 10 11  1  0
 11 12  2  0
 12 13  1  0
 13 14  2  0
 14 15  1  0
 15 16  2  0
  9 17  1  0
 17 18  2  0
  6 19  1  0
 19 20  2  0
 20  3  1  0
 18  7  1  0
 16 11  1  0
  1 21  1  0
  1 22  1  0
  1 23  1  0
  4 24  1  0
  5 25  1  0
  8 26  1  0
 10 27  1  0
 10 28  1  0
 12 29  1  0
 13 30  1  0
 14 31  1  0
 15 32  1  0
 16 33  1  0
 17 34  1  0
 19 35  1  0
 20 36  1  0
M  CHG  1  17   1
M  END
>  <UniqueID>  (1) 
1

>  <SMILES>  (1) 
CSc1ccc(-c2cn(Cc3ccccc3)[nH+]n2)cc1

>  <Energy>  (1) 
68.55463009103045

>  <Genealogy>  (1) 
CSc1ccc(-c2cn(Cc3ccccc3)[nH+]n2)cc1 (protonated)
CSc1ccc(-c2cn(Cc3ccccc3)[nH+]n2)cc1 (3D coordinates assigned)
CSc1ccc(-c2cn(Cc3ccccc3)[nH+]n2)cc1 (optimized conformer: 68.55463009103045 kcal/mol)

>  <smiles>  (1) 
CSc1ccc(-c2cn(Cc3ccccc3)nn2)cc1

>  <score_type>  (1) 
oracle

>  <origin>  (1) 
adg

>  <m_score__min__energy>  (1) 
-7.9699999999999998

>  <m_primary>  (1) 
energy

$$$$
1:0
     RDKit          3D

 51 54  0  0  0  0  0  0  0  0999 V2000
   -2.0270   21.8910  -31.9840 C   0  0  0  0  0  0  0  0  0  0  0  0
   -3.1890   21.1260  -31.8490 C   0  0  0  0  0  0  0  0  0  0  0  0
   -3.2520   19.8440  -32.4050 C   0  0  0  0  0  0  0  0  0  0  0  0
   -2.1500   19.3200  -33.1040 C   0  0  0  0  0  0  0  0  0  0  0  0
   -2.2240   17.9440  -33.7280 C   0  0  0  0  0  0  0  0  0  0  0  0
   -3.6020   17.3890  -33.7250 N   0  0  1  0  0  0  0  0  0  0  0  0
   -4.3080   17.8130  -34.9650 C   0  0  0  0  0  0  0  0  0  0  0  0
   -5.7830   18.2060  -34.7450 C   0  0  0  0  0  0  0  0  0  0  0  0
   -6.6260   17.0180  -34.2480 C   0  0  0  0  0  0  0  0  0  0  0  0
   -6.0590   16.3470  -33.0610 N   0  0  0  0  0  0  0  0  0  0  0  0
   -6.1160   17.0580  -31.7670 C   0  0  0  0  0  0  0  0  0  0  0  0
   -6.9430   18.3130  -31.8190 C   0  0  0  0  0  0  0  0  0  0  0  0
   -8.3450   18.2520  -31.7690 C   0  0  0  0  0  0  0  0  0  0  0  0
   -9.0890   19.4320  -31.8110 C   0  0  0  0  0  0  0  0  0  0  0  0
   -8.4330   20.6650  -31.9030 C   0  0  0  0  0  0  0  0  0  0  0  0
   -9.1500   21.8690  -31.9560 C   0  0  0  0  0  0  0  0  0  0  0  0
   -8.4640   23.0860  -32.0560 C   0  0  0  0  0  0  0  0  0  0  0  0
   -7.0660   23.1060  -32.1030 C   0  0  0  0  0  0  0  0  0  0  0  0
   -6.3450   21.9090  -32.0460 C   0  0  0  0  0  0  0  0  0  0  0  0
   -7.0210   20.6880  -31.9430 C   0  0  0  0  0  0  0  0  0  0  0  0
   -6.3230   19.5230  -31.8870 N   0  0  0  0  0  0  0  0  0  0  0  0
   -5.0180   15.3160  -33.2570 C   0  0  0  0  0  0  0  0  0  0  0  0
   -3.6130   15.9200  -33.4770 C   0  0  0  0  0  0  0  0  0  0  0  0
   -0.9840   20.0940  -33.2300 C   0  0  0  0  0  0  0  0  0  0  0  0
   -0.9260   21.3760  -32.6710 C   0  0  0  0  0  0  0  0  0  0  0  0
   -1.9799   22.9000  -31.5485 H   0  0  0  0  0  0  0  0  0  0  0  0
   -4.0545   21.5324  -31.3052 H   0  0  0  0  0  0  0  0  0  0  0  0
   -4.1670   19.2434  -32.2950 H   0  0  0  0  0  0  0  0  0  0  0  0
   -1.8728   18.0096  -34.7684 H   0  0  0  0  0  0  0  0  0  0  0  0
   -1.5927   17.2718  -33.1284 H   0  0  0  0  0  0  0  0  0  0  0  0
   -4.1190   17.8350  -32.9280 H   0  0  0  0  0  0  0  0  0  0  0  0
   -3.7780   18.6806  -35.3851 H   0  0  0  0  0  0  0  0  0  0  0  0
   -4.3076   16.9468  -35.6430 H   0  0  0  0  0  0  0  0  0  0  0  0
   -5.8286   19.0117  -33.9975 H   0  0  0  0  0  0  0  0  0  0  0  0
   -6.1952   18.5362  -35.7099 H   0  0  0  0  0  0  0  0  0  0  0  0
   -7.6303   17.3869  -33.9925 H   0  0  0  0  0  0  0  0  0  0  0  0
   -6.6472   16.2754  -35.0593 H   0  0  0  0  0  0  0  0  0  0  0  0
   -6.5513   16.3829  -31.0155 H   0  0  0  0  0  0  0  0  0  0  0  0
   -5.0881   17.3532  -31.5095 H   0  0  0  0  0  0  0  0  0  0  0  0
   -8.8540   17.2795  -31.6971 H   0  0  0  0  0  0  0  0  0  0  0  0
  -10.1876   19.3932  -31.7719 H   0  0  0  0  0  0  0  0  0  0  0  0
  -10.2493   21.8576  -31.9191 H   0  0  0  0  0  0  0  0  0  0  0  0
   -9.0269   24.0301  -32.0978 H   0  0  0  0  0  0  0  0  0  0  0  0
   -6.5330   24.0647  -32.1849 H   0  0  0  0  0  0  0  0  0  0  0  0
   -5.2457   21.9273  -32.0822 H   0  0  0  0  0  0  0  0  0  0  0  0
   -4.9884   14.6722  -32.3656 H   0  0  0  0  0  0  0  0  0  0  0  0
   -5.2801   14.7476  -34.1615 H   0  0  0  0  0  0  0  0  0  0  0  0
   -3.0086   15.7188  -32.5802 H   0  0  0  0  0  0  0  0  0  0  0  0
   -3.2087   15.4473  -34.3843 H   0  0  0  0  0  0  0  0  0  0  0  0
   -0.1141   19.6912  -33.7696 H   0  0  0  0  0  0  0  0  0  0  0  0
   -0.0115   21.9787  -32.7731 H   0  0  0  0  0  0  0  0  0  0  0  0
  1  2  2  0
  2  3  1  0
  3  4  2  0
  4  5  1  0
  5  6  1  0
  6  7  1  0
  7  8  1  0
  8  9  1  0
  9 10  1  0
 10 11  1  0
 11 12  1  0
 12 13  2  0
 13 14  1  0
 14 15  2  0
 15 16  1  0
 16 17  2  0
 17 18  1  0
 18 19  2  0
 19 20  1  0
 20 21  2  0
 10 22  1  0
 22 23  1  0
  4 24  1  0
 24 25  2  0
 25  1  1  0
 23  6  1  0
 21 12  1  0
 20 15  1  0
  1 26  1  0
  2 27  1  0
  3 28  1  0
  5 29  1  0
  5 30  1  0
  6 31  1  1
  7 32  1  0
  7 33  1  0
  8 34  1  0
  8 35  1  0
  9 36  1  0
  9 37  1  0
 11 38  1  0
 11 39  1  0
 13 40  1  0
 14 41  1  0
 16 42  1  0
 17 43  1  0
 18 44  1  0
 19 45  1  0
 22 46  1  0
 22 47  1  0
 23 48  1  0
 23 49  1  0
 24 50  1  0
 25 51  1  0
M  CHG  1   6   1
M  END
>  <UniqueID>  (2) 
2

>  <SMILES>  (2) 
c1ccc(C[N@H+]2CCCN(Cc3ccc4ccccc4n3)CC2)cc1

>  <Energy>  (2) 
80.68959496213888

>  <Genealogy>  (2) 
c1ccc(C[NH+]2CCCN(Cc3ccc4ccccc4n3)CC2)cc1 (protonated)
c1ccc(C[N@H+]2CCCN(Cc3ccc4ccccc4n3)CC2)cc1 (chirality)
c1ccc(C[N@H+]2CCCN(Cc3ccc4ccccc4n3)CC2)cc1 (3D coordinates assigned)
c1ccc(C[N@H+]2CCCN(Cc3ccc4ccccc4n3)CC2)cc1 (nonaromatic ring conformer: 80.68959496213888 kcal/mol)

>  <smiles>  (2) 
c1ccc(CN2CCCN(Cc3ccc4ccccc4n3)CC2)cc1

>  <score_type>  (2) 
oracle

>  <origin>  (2) 
adg

>  <m_score__min__energy>  (2) 
-6.3499999999999996

>  <m_primary>  (2) 
energy

$$$$
2:0
     RDKit          3D

 46 49  0  0  0  0  0  0  0  0999 V2000
   -0.8390   28.3220  -24.8280 C   0  0  0  0  0  0  0  0  0  0  0  0
   -0.9850   26.8370  -24.5160 C   0  0  0  0  0  0  0  0  0  0  0  0
   -0.6830   26.0040  -25.7330 C   0  0  0  0  0  0  0  0  0  0  0  0
    0.5480   25.3410  -25.8490 C   0  0  0  0  0  0  0  0  0  0  0  0
    0.8350   24.5860  -26.9880 C   0  0  0  0  0  0  0  0  0  0  0  0
   -0.0960   24.5000  -28.0270 C   0  0  0  0  0  0  0  0  0  0  0  0
   -1.3190   25.1860  -27.9420 C   0  0  0  0  0  0  0  0  0  0  0  0
   -2.3010   25.1020  -28.9900 N   0  0  0  0  0  0  0  0  0  0  0  0
   -3.4030   24.1800  -28.9830 C   0  0  0  0  0  0  0  0  0  0  0  0
   -3.3940   23.1890  -28.2030 O   0  0  0  0  0  0  0  0  0  0  0  0
   -4.5350   24.3580  -29.9100 C   0  0  0  0  0  0  0  0  0  0  0  0
   -5.0320   25.5430  -30.4560 C   0  0  0  0  0  0  0  0  0  0  0  0
   -6.0950   25.2750  -31.2560 N   0  0  0  0  0  0  0  0  0  0  0  0
   -6.2710   23.9660  -31.2210 N   0  0  0  0  0  0  0  0  0  0  0  0
   -7.2080   23.2330  -31.8620 C   0  0  0  0  0  0  0  0  0  0  0  0
   -8.0560   23.7900  -32.6120 O   0  0  0  0  0  0  0  0  0  0  0  0
   -7.2030   21.8740  -31.6710 N   0  0  0  0  0  0  0  0  0  0  0  0
   -8.1590   20.9970  -32.3520 C   0  0  0  0  0  0  0  0  0  0  0  0
   -7.4590   19.7660  -32.8610 C   0  0  0  0  0  0  0  0  0  0  0  0
   -6.4030   19.8740  -33.7810 C   0  0  0  0  0  0  0  0  0  0  0  0
   -5.7360   18.7280  -34.2260 C   0  0  0  0  0  0  0  0  0  0  0  0
   -6.1140   17.4690  -33.7510 C   0  0  0  0  0  0  0  0  0  0  0  0
   -7.1570   17.3540  -32.8280 C   0  0  0  0  0  0  0  0  0  0  0  0
   -7.8270   18.4970  -32.3820 C   0  0  0  0  0  0  0  0  0  0  0  0
   -6.2740   21.3200  -30.8760 N   0  0  0  0  0  0  0  0  0  0  0  0
   -5.3520   22.0570  -30.2470 N   0  0  0  0  0  0  0  0  0  0  0  0
   -5.3670   23.3940  -30.4330 C   0  0  0  0  0  0  0  0  0  0  0  0
   -1.6110   25.9250  -26.7850 C   0  0  0  0  0  0  0  0  0  0  0  0
   -0.7831   28.8904  -23.8879 H   0  0  0  0  0  0  0  0  0  0  0  0
    0.0796   28.4857  -25.4106 H   0  0  0  0  0  0  0  0  0  0  0  0
   -1.7081   28.6614  -25.4106 H   0  0  0  0  0  0  0  0  0  0  0  0
   -0.2855   26.5669  -23.7112 H   0  0  0  0  0  0  0  0  0  0  0  0
   -2.0214   26.6422  -24.2031 H   0  0  0  0  0  0  0  0  0  0  0  0
    1.2895   25.4162  -25.0400 H   0  0  0  0  0  0  0  0  0  0  0  0
    1.7964   24.0575  -27.0678 H   0  0  0  0  0  0  0  0  0  0  0  0
    0.1300   23.8922  -28.9155 H   0  0  0  0  0  0  0  0  0  0  0  0
   -2.1450   25.6770  -29.8480 H   0  0  0  0  0  0  0  0  0  0  0  0
   -4.6223   26.5460  -30.2658 H   0  0  0  0  0  0  0  0  0  0  0  0
   -8.9484   20.7008  -31.6455 H   0  0  0  0  0  0  0  0  0  0  0  0
   -8.6013   21.5373  -33.2020 H   0  0  0  0  0  0  0  0  0  0  0  0
   -6.0995   20.8637  -34.1529 H   0  0  0  0  0  0  0  0  0  0  0  0
   -4.9132   18.8176  -34.9505 H   0  0  0  0  0  0  0  0  0  0  0  0
   -5.5903   16.5683  -34.1038 H   0  0  0  0  0  0  0  0  0  0  0  0
   -7.4511   16.3630  -32.4520 H   0  0  0  0  0  0  0  0  0  0  0  0
   -8.6455   18.4028  -31.6532 H   0  0  0  0  0  0  0  0  0  0  0  0
   -2.5755   26.4472  -26.7011 H   0  0  0  0  0  0  0  0  0  0  0  0
  1  2  1  0
  2  3  1  0
  3  4  2  0
  4  5  1  0
  5  6  2  0
  6  7  1  0
  7  8  1  0
  8  9  1  0
  9 10  2  0
  9 11  1  0
 11 12  1  0
 12 13  2  0
 13 14  1  0
 14 15  1  0
 15 16  2  0
 15 17  1  0
 17 18  1  0
 18 19  1  0
 19 20  2  0
 20 21  1  0
 21 22  2  0
 22 23  1  0
 23 24  2  0
 17 25  1  0
 25 26  2  0
 26 27  1  0
  7 28  2  0
 28  3  1  0
 27 11  2  0
 27 14  1  0
 24 19  1  0
  1 29  1  0
  1 30  1  0
  1 31  1  0
  2 32  1  0
  2 33  1  0
  4 34  1  0
  5 35  1  0
  6 36  1  0
  8 37  1  0
 12 38  1  0
 18 39  1  0
 18 40  1  0
 20 41  1  0
 21 42  1  0
 22 43  1  0
 23 44  1  0
 24 45  1  0
 28 46  1  0
M  END
>  <UniqueID>  (3) 
3

>  <SMILES>  (3) 
CCc1cccc(NC(=O)c2cnn3c(=O)n(Cc4ccccc4)nnc23)c1

>  <Energy>  (3) 
90.04515887969693

>  <Genealogy>  (3) 
CCc1cccc(NC(=O)c2cnn3c(=O)n(Cc4ccccc4)nnc23)c1 (3D coordinates assigned)
CCc1cccc(NC(=O)c2cnn3c(=O)n(Cc4ccccc4)nnc23)c1 (optimized conformer: 90.04515887969693 kcal/mol)

>  <smiles>  (3) 
CCc1cccc(NC(=O)c2cnn3c(=O)n(Cc4ccccc4)nnc23)c1

>  <score_type>  (3) 
oracle

>  <origin>  (3) 
adg

>  <m_score__min__energy>  (3) 
-9.6999999999999993

>  <m_primary>  (3) 
energy

$$$$
3:0
     RDKit          3D

 46 49  0  0  1  0  0  0  0  0999 V2000
   -0.2280   20.7600  -29.4940 C   0  0  0  0  0  0  0  0  0  0  0  0
   -0.7860   22.1330  -29.2980 C   0  0  0  0  0  0  0  0  0  0  0  0
   -0.1230   23.0310  -28.4970 C   0  0  0  0  0  0  0  0  0  0  0  0
   -0.6020   24.3090  -28.2880 C   0  0  0  0  0  0  0  0  0  0  0  0
   -1.7840   24.6530  -28.9220 C   0  0  0  0  0  0  0  0  0  0  0  0
   -2.4410   23.7420  -29.7270 C   0  0  0  0  0  0  0  0  0  0  0  0
   -3.6960   24.1200  -30.3960 C   0  0  0  0  0  0  0  0  0  0  0  0
   -4.5280   23.2680  -31.0560 N   0  0  0  0  0  0  0  0  0  0  0  0
   -5.5710   23.9520  -31.5400 C   0  0  0  0  0  0  0  0  0  0  0  0
   -6.7040   23.4070  -32.3170 C   0  0  0  0  0  0  0  0  0  0  0  0
   -7.2840   22.2460  -31.6920 N   0  0  0  0  0  0  0  0  0  0  0  0
   -8.6970   22.1900  -31.7500 C   0  0  0  0  0  0  0  0  0  0  0  0
   -9.1220   20.8150  -31.2220 C   0  0  0  0  0  0  0  0  0  0  0  0
   -8.7870   19.8580  -32.3380 C   0  0  0  0  0  0  0  0  0  0  0  0
   -7.3250   19.9670  -32.6480 C   0  0  2  0  0  0  0  0  0  0  0  0
   -6.7340   18.6250  -32.3500 C   0  0  0  0  0  0  0  0  0  0  0  0
   -6.1310   17.7790  -33.2800 C   0  0  0  0  0  0  0  0  0  0  0  0
   -5.7220   16.6420  -32.5780 C   0  0  0  0  0  0  0  0  0  0  0  0
   -6.0670   16.8150  -31.2930 N   0  0  0  0  0  0  0  0  0  0  0  0
   -6.6680   17.9930  -31.1510 N   0  0  0  0  0  0  0  0  0  0  0  0
   -6.5870   21.0360  -31.9260 C   0  0  0  0  0  0  0  0  0  0  0  0
   -5.3630   25.2700  -31.1600 C   0  0  0  0  0  0  0  0  0  0  0  0
   -4.2420   25.3160  -30.4870 O   0  0  0  0  0  0  0  0  0  0  0  0
   -1.9670   22.4630  -29.9380 C   0  0  0  0  0  0  0  0  0  0  0  0
   -0.0399   20.2973  -28.5139 H   0  0  0  0  0  0  0  0  0  0  0  0
   -0.9488   20.1481  -30.0561 H   0  0  0  0  0  0  0  0  0  0  0  0
    0.7153   20.8244  -30.0561 H   0  0  0  0  0  0  0  0  0  0  0  0
    0.8140   22.7238  -28.0094 H   0  0  0  0  0  0  0  0  0  0  0  0
   -0.0673   25.0236  -27.6451 H   0  0  0  0  0  0  0  0  0  0  0  0
   -2.2037   25.6603  -28.7836 H   0  0  0  0  0  0  0  0  0  0  0  0
   -7.4774   24.1839  -32.4080 H   0  0  0  0  0  0  0  0  0  0  0  0
   -6.3225   23.1044  -33.3034 H   0  0  0  0  0  0  0  0  0  0  0  0
   -9.1310   22.9838  -31.1243 H   0  0  0  0  0  0  0  0  0  0  0  0
   -9.0500   22.3367  -32.7814 H   0  0  0  0  0  0  0  0  0  0  0  0
   -8.5623   20.5593  -30.3102 H   0  0  0  0  0  0  0  0  0  0  0  0
  -10.1878   20.7835  -30.9517 H   0  0  0  0  0  0  0  0  0  0  0  0
   -9.0227   18.8298  -32.0260 H   0  0  0  0  0  0  0  0  0  0  0  0
   -9.3773   20.1068  -33.2322 H   0  0  0  0  0  0  0  0  0  0  0  0
   -7.2255   20.2630  -33.7027 H   0  0  0  0  0  0  0  0  0  0  0  0
   -6.0024   17.9693  -34.3557 H   0  0  0  0  0  0  0  0  0  0  0  0
   -5.2105   15.7651  -33.0016 H   0  0  0  0  0  0  0  0  0  0  0  0
   -5.9230   16.1730  -30.4720 H   0  0  0  0  0  0  0  0  0  0  0  0
   -6.2860   20.6309  -30.9486 H   0  0  0  0  0  0  0  0  0  0  0  0
   -5.7523   21.3079  -32.5888 H   0  0  0  0  0  0  0  0  0  0  0  0
   -6.0215   26.1222  -31.3840 H   0  0  0  0  0  0  0  0  0  0  0  0
   -2.4992   21.7455  -30.5799 H   0  0  0  0  0  0  0  0  0  0  0  0
  1  2  1  0
  2  3  2  0
  3  4  1  0
  4  5  2  0
  5  6  1  0
  6  7  1  0
  7  8  2  0
  8  9  1  0
  9 10  1  0
 10 11  1  0
 11 12  1  0
 12 13  1  0
 13 14  1  0
 14 15  1  0
 15 16  1  0
 16 17  1  0
 17 18  2  0
 18 19  1  0
 19 20  1  0
 15 21  1  0
  9 22  2  0
 22 23  1  0
  6 24  2  0
 24  2  1  0
 23  7  1  0
 21 11  1  0
 20 16  2  0
  1 25  1  0
  1 26  1  0
  1 27  1  0
  3 28  1  0
  4 29  1  0
  5 30  1  0
 10 31  1  0
 10 32  1  0
 12 33  1  0
 12 34  1  0
 13 35  1  0
 13 36  1  0
 14 37  1  0
 14 38  1  0
 15 39  1  6
 17 40  1  0
 18 41  1  0
 19 42  1  0
 21 43  1  0
 21 44  1  0
 22 45  1  0
 24 46  1  0
M  END
>  <smiles>  (4) 
Cc1cccc(-c2nc(CN3CCCC(c4cc[nH]n4)C3)co2)c1

>  <score_type>  (4) 
oracle

>  <origin>  (4) 
adg

>  <m_score__min__energy>  (4) 
-9.3800000000000008

>  <m_primary>  (4) 
energy

$$$$
4:0
     RDKit          3D

 39 42  0  0  0  0  0  0  0  0999 V2000
   -9.2130   22.3550  -31.7560 C   0  0  0  0  0  0  0  0  0  0  0  0
   -7.9120   22.8320  -31.9320 C   0  0  0  0  0  0  0  0  0  0  0  0
   -6.8910   21.9590  -32.3170 C   0  0  0  0  0  0  0  0  0  0  0  0
   -7.1610   20.5940  -32.5320 C   0  0  0  0  0  0  0  0  0  0  0  0
   -6.0770   19.6650  -32.9410 C   0  0  0  0  0  0  0  0  0  0  0  0
   -6.3460   18.3080  -33.1570 C   0  0  0  0  0  0  0  0  0  0  0  0
   -5.3140   17.4390  -33.5440 C   0  0  0  0  0  0  0  0  0  0  0  0
   -5.5970   16.0000  -33.7760 C   0  0  0  0  0  0  0  0  0  0  0  0
   -6.8660   15.5780  -34.2170 C   0  0  0  0  0  0  0  0  0  0  0  0
   -7.1250   14.2210  -34.4310 C   0  0  0  0  0  0  0  0  0  0  0  0
   -6.1240   13.2720  -34.2090 C   0  0  0  0  0  0  0  0  0  0  0  0
   -4.8620   13.6790  -33.7710 C   0  0  0  0  0  0  0  0  0  0  0  0
   -4.5970   15.0350  -33.5550 C   0  0  0  0  0  0  0  0  0  0  0  0
   -4.0490   17.9280  -33.7120 N   0  0  0  0  0  0  0  0  0  0  0  0
   -3.7490   19.2480  -33.5170 C   0  0  0  0  0  0  0  0  0  0  0  0
   -2.3640   19.7460  -33.7070 C   0  0  0  0  0  0  0  0  0  0  0  0
   -1.9050   21.0420  -33.4720 C   0  0  0  0  0  0  0  0  0  0  0  0
   -0.5390   21.2100  -33.7380 C   0  0  0  0  0  0  0  0  0  0  0  0
    0.0910   20.0570  -34.1830 C   0  0  0  0  0  0  0  0  0  0  0  0
   -1.0520   18.8280  -34.2400 S   0  0  0  0  0  0  0  0  0  0  0  0
   -4.7670   20.1320  -33.1230 C   0  0  0  0  0  0  0  0  0  0  0  0
   -8.4760   20.1250  -32.3510 C   0  0  0  0  0  0  0  0  0  0  0  0
   -9.4940   21.0020  -31.9650 C   0  0  0  0  0  0  0  0  0  0  0  0
  -10.0156   23.0436  -31.4532 H   0  0  0  0  0  0  0  0  0  0  0  0
   -7.6907   23.8968  -31.7672 H   0  0  0  0  0  0  0  0  0  0  0  0
   -5.8685   22.3412  -32.4531 H   0  0  0  0  0  0  0  0  0  0  0  0
   -7.3675   17.9225  -33.0232 H   0  0  0  0  0  0  0  0  0  0  0  0
   -7.6581   16.3204  -34.3941 H   0  0  0  0  0  0  0  0  0  0  0  0
   -8.1192   13.8997  -34.7750 H   0  0  0  0  0  0  0  0  0  0  0  0
   -6.3298   12.2049  -34.3791 H   0  0  0  0  0  0  0  0  0  0  0  0
   -4.0746   12.9312  -33.5955 H   0  0  0  0  0  0  0  0  0  0  0  0
   -3.6008   15.3492  -33.2102 H   0  0  0  0  0  0  0  0  0  0  0  0
   -3.2860   17.2610  -33.9570 H   0  0  0  0  0  0  0  0  0  0  0  0
   -2.5531   21.8547  -33.1122 H   0  0  0  0  0  0  0  0  0  0  0  0
   -0.0148   22.1680  -33.6060 H   0  0  0  0  0  0  0  0  0  0  0  0
    1.1536   19.9640  -34.4516 H   0  0  0  0  0  0  0  0  0  0  0  0
   -4.5360   21.1945  -32.9566 H   0  0  0  0  0  0  0  0  0  0  0  0
   -8.7040   19.0614  -32.5144 H   0  0  0  0  0  0  0  0  0  0  0  0
  -10.5184   20.6263  -31.8255 H   0  0  0  0  0  0  0  0  0  0  0  0
  1  2  2  0
  2  3  1  0
  3  4  2  0
  4  5  1  0
  5  6  2  0
  6  7  1  0
  7  8  1  0
  8  9  2  0
  9 10  1  0
 10 11  2  0
 11 12  1  0
 12 13  2  0
  7 14  2  0
 14 15  1  0
 15 16  1  0
 16 17  2  0
 17 18  1  0
 18 19  2  0
 19 20  1  0
 15 21  2  0
  4 22  1  0
 22 23  2  0
 23  1  1  0
 21  5  1  0
 13  8  1  0
 20 16  1  0
  1 24  1  0
  2 25  1  0
  3 26  1  0
  6 27  1  0
  9 28  1  0
 10 29  1  0
 11 30  1  0
 12 31  1  0
 13 32  1  0
 14 33  1  0
 17 34  1  0
 18 35  1  0
 19 36  1  0
 21 37  1  0
 22 38  1  0
 23 39  1  0
M  CHG  1  14   1
M  END
>  <UniqueID>  (5) 
4

>  <SMILES>  (5) 
c1ccc(-c2cc(-c3ccccc3)[nH+]c(-c3cccs3)c2)cc1

>  <Energy>  (5) 
82.24052908167943

>  <Genealogy>  (5) 
c1ccc(-c2cc(-c3ccccc3)[nH+]c(-c3cccs3)c2)cc1 (protonated)
c1ccc(-c2cc(-c3ccccc3)[nH+]c(-c3cccs3)c2)cc1 (3D coordinates assigned)
c1ccc(-c2cc(-c3ccccc3)[nH+]c(-c3cccs3)c2)cc1 (optimized conformer: 82.24052908167943 kcal/mol)

>  <smiles>  (5) 
c1ccc(-c2cc(-c3ccccc3)nc(-c3cccs3)c2)cc1

>  <score_type>  (5) 
oracle

>  <origin>  (5) 
adg

>  <m_score__min__energy>  (5) 
-7.29

>  <m_primary>  (5) 
energy

$$$$
5:0
     RDKit          3D

 29 30  0  0  0  0  0  0  0  0999 V2000
   -7.1440   17.7860  -31.9520 C   0  0  0  0  0  0  0  0  0  0  0  0
   -7.9660   18.3780  -32.9510 O   0  0  0  0  0  0  0  0  0  0  0  0
   -8.6490   19.5820  -32.7500 C   0  0  0  0  0  0  0  0  0  0  0  0
   -9.8780   19.6690  -33.0230 O   0  0  0  0  0  0  0  0  0  0  0  0
   -7.9200   20.7450  -32.2160 C   0  0  0  0  0  0  0  0  0  0  0  0
   -8.5990   21.8810  -31.7460 C   0  0  0  0  0  0  0  0  0  0  0  0
   -7.8720   22.9640  -31.2480 C   0  0  0  0  0  0  0  0  0  0  0  0
   -6.4730   22.9120  -31.2180 C   0  0  0  0  0  0  0  0  0  0  0  0
   -5.7140   23.9840  -30.7240 C   0  0  0  0  0  0  0  0  0  0  0  0
   -4.3080   23.9070  -30.7080 C   0  0  0  0  0  0  0  0  0  0  0  0
   -3.4870   24.9740  -30.2150 N   0  0  0  0  0  0  0  0  0  0  0  0
   -2.3590   24.8680  -28.9020 S   0  0  0  0  0  0  0  0  0  0  0  0
   -3.1990   24.9010  -27.3910 N   0  0  0  0  0  0  0  0  0  0  0  0
   -1.4300   26.0470  -28.9670 O   0  0  0  0  0  0  0  0  0  0  0  0
   -1.5480   23.6090  -29.0170 O   0  0  0  0  0  0  0  0  0  0  0  0
   -3.6780   22.7500  -31.1870 C   0  0  0  0  0  0  0  0  0  0  0  0
   -4.4300   21.6800  -31.6800 C   0  0  0  0  0  0  0  0  0  0  0  0
   -5.8250   21.7540  -31.6990 C   0  0  0  0  0  0  0  0  0  0  0  0
   -6.5580   20.7150  -32.1800 N   0  0  0  0  0  0  0  0  0  0  0  0
   -7.5231   18.0590  -30.9561 H   0  0  0  0  0  0  0  0  0  0  0  0
   -7.1616   16.6918  -32.0637 H   0  0  0  0  0  0  0  0  0  0  0  0
   -6.1118   18.1494  -32.0637 H   0  0  0  0  0  0  0  0  0  0  0  0
   -9.6981   21.9173  -31.7701 H   0  0  0  0  0  0  0  0  0  0  0  0
   -8.3977   23.8572  -30.8796 H   0  0  0  0  0  0  0  0  0  0  0  0
   -6.2185   24.8865  -30.3484 H   0  0  0  0  0  0  0  0  0  0  0  0
   -2.6890   25.5710  -26.7740 H   0  0  0  0  0  0  0  0  0  0  0  0
   -4.1420   25.3120  -27.5630 H   0  0  0  0  0  0  0  0  0  0  0  0
   -2.5801   22.6835  -31.1747 H   0  0  0  0  0  0  0  0  0  0  0  0
   -3.9227   20.7783  -32.0536 H   0  0  0  0  0  0  0  0  0  0  0  0
  1  2  1  0
  2  3  1  0
  3  4  2  0
  3  5  1  0
  5  6  2  0
  6  7  1  0
  7  8  2  0
  8  9  1  0
  9 10  2  0
 10 11  1  0
 11 12  1  0
 12 13  1  0
 12 14  2  0
 12 15  2  0
 10 16  1  0
 16 17  2  0
 17 18  1  0
 18 19  2  0
 19  5  1  0
 18  8  1  0
  1 20  1  0
  1 21  1  0
  1 22  1  0
  6 23  1  0
  7 24  1  0
  9 25  1  0
 13 26  1  0
 13 27  1  0
 16 28  1  0
 17 29  1  0
M  CHG  1  11  -1
M  END
>  <UniqueID>  (6) 
5

>  <SMILES>  (6) 
COC(=O)c1ccc2cc([N-]S(N)(=O)=O)ccc2n1

>  <Energy>  (6) 
30.273642337482418

>  <Genealogy>  (6) 
COC(=O)c1ccc2cc([N-]S(N)(=O)=O)ccc2n1 (protonated)
COC(=O)c1ccc2cc([N-]S(N)(=O)=O)ccc2n1 (3D coordinates assigned)
COC(=O)c1ccc2cc([N-]S(N)(=O)=O)ccc2n1 (optimized conformer: 30.273642337482418 kcal/mol)

>  <smiles>  (6) 
COC(=O)c1ccc2cc(NS(N)(=O)=O)ccc2n1

>  <score_type>  (6) 
oracle

>  <origin>  (6) 
adg

>  <m_score__min__energy>  (6) 
-8.7899999999999991

>  <m_primary>  (6) 
energy

$$$$
6:0
     RDKit          3D

 34 36  0  0  0  0  0  0  0  0999 V2000
   -6.6360   23.7800  -31.1290 C   0  0  0  0  0  0  0  0  0  0  0  0
   -5.3110   24.0580  -31.5710 O   0  0  0  0  0  0  0  0  0  0  0  0
   -4.1510   23.7890  -30.8280 C   0  0  0  0  0  0  0  0  0  0  0  0
   -3.7960   24.5500  -29.6980 C   0  0  0  0  0  0  0  0  0  0  0  0
   -2.6340   24.2520  -28.9810 C   0  0  0  0  0  0  0  0  0  0  0  0
   -2.2990   24.9920  -27.8920 N   0  0  0  0  0  0  0  0  0  0  0  0
   -1.1750   24.7290  -27.1730 C   0  0  0  0  0  0  0  0  0  0  0  0
   -0.8330   25.5530  -25.9870 C   0  0  0  0  0  0  0  0  0  0  0  0
   -1.1460   26.9230  -25.9450 C   0  0  0  0  0  0  0  0  0  0  0  0
   -0.8180   27.6830  -24.8240 C   0  0  0  0  0  0  0  0  0  0  0  0
   -0.1790   27.0730  -23.7440 C   0  0  0  0  0  0  0  0  0  0  0  0
    0.1210   25.7480  -23.7890 N   0  0  0  0  0  0  0  0  0  0  0  0
   -0.1880   24.9840  -24.8730 C   0  0  0  0  0  0  0  0  0  0  0  0
   -0.3660   23.7020  -27.5520 N   0  0  0  0  0  0  0  0  0  0  0  0
   -0.6500   22.9300  -28.6310 C   0  0  0  0  0  0  0  0  0  0  0  0
    0.1310   21.9910  -28.9410 O   0  0  0  0  0  0  0  0  0  0  0  0
   -1.8070   23.1880  -29.3860 C   0  0  0  0  0  0  0  0  0  0  0  0
   -2.1580   22.4270  -30.5130 C   0  0  0  0  0  0  0  0  0  0  0  0
   -3.3300   22.7250  -31.2360 C   0  0  0  0  0  0  0  0  0  0  0  0
   -3.7150   21.9870  -32.3680 O   0  0  0  0  0  0  0  0  0  0  0  0
   -4.8090   21.0770  -32.4060 C   0  0  0  0  0  0  0  0  0  0  0  0
   -6.6621   23.7745  -30.0293 H   0  0  0  0  0  0  0  0  0  0  0  0
   -7.3191   24.5544  -31.5081 H   0  0  0  0  0  0  0  0  0  0  0  0
   -6.9502   22.7964  -31.5081 H   0  0  0  0  0  0  0  0  0  0  0  0
   -4.4372   25.3843  -29.3775 H   0  0  0  0  0  0  0  0  0  0  0  0
   -1.6514   27.3964  -26.7997 H   0  0  0  0  0  0  0  0  0  0  0  0
   -1.0609   28.7553  -24.7908 H   0  0  0  0  0  0  0  0  0  0  0  0
    0.0824   27.6653  -22.8547 H   0  0  0  0  0  0  0  0  0  0  0  0
    0.6000   25.3060  -22.9740 H   0  0  0  0  0  0  0  0  0  0  0  0
    0.0684   23.9143  -24.8780 H   0  0  0  0  0  0  0  0  0  0  0  0
   -1.5146   21.5941  -30.8329 H   0  0  0  0  0  0  0  0  0  0  0  0
   -5.1121   20.8249  -31.3791 H   0  0  0  0  0  0  0  0  0  0  0  0
   -5.6545   21.5419  -32.9341 H   0  0  0  0  0  0  0  0  0  0  0  0
   -4.5058   20.1610  -32.9341 H   0  0  0  0  0  0  0  0  0  0  0  0
  1  2  1  0
  2  3  1  0
  3  4  2  0
  4  5  1  0
  5  6  1  0
  6  7  2  0
  7  8  1  0
  8  9  2  0
  9 10  1  0
 10 11  2  0
 11 12  1  0
 12 13  2  0
  7 14  1  0
 14 15  1  0
 15 16  2  0
 15 17  1  0
 17 18  1  0
 18 19  2  0
 19 20  1  0
 20 21  1  0
 19  3  1  0
 17  5  2  0
 13  8  1  0
  1 22  1  0
  1 23  1  0
  1 24  1  0
  4 25  1  0
  9 26  1  0
 10 27  1  0
 11 28  1  0
 12 29  1  0
 13 30  1  0
 18 31  1  0
 21 32  1  0
 21 33  1  0
 21 34  1  0
M  CHG  2  12   1  14  -1
M  END
>  <UniqueID>  (7) 
6

>  <SMILES>  (7) 
COc1cc2nc(-c3ccc[nH+]c3)[n-]c(=O)c2cc1OC

>  <Energy>  (7) 
41.72119410757521

>  <Genealogy>  (7) 
COc1cc2nc(-c3ccc[nH+]c3)[n-]c(=O)c2cc1OC (protonated)
COc1cc2nc(-c3ccc[nH+]c3)[n-]c(=O)c2cc1OC (3D coordinates assigned)
COc1cc2nc(-c3ccc[nH+]c3)[n-]c(=O)c2cc1OC (optimized conformer: 41.72119410757521 kcal/mol)

>  <smiles>  (7) 
COc1cc2nc(-c3cccnc3)[nH]c(=O)c2cc1OC

>  <score_type>  (7) 
oracle

>  <origin>  (7) 
adg

>  <m_score__min__energy>  (7) 
-6.71

>  <m_primary>  (7) 
energy

$$$$
7:0
     RDKit          3D

 48 51  0  0  0  0  0  0  0  0999 V2000
  -10.0060   21.1770  -31.9670 C   0  0  0  0  0  0  0  0  0  0  0  0
   -8.7830   20.3020  -32.0650 C   0  0  0  0  0  0  0  0  0  0  0  0
   -8.9510   18.9240  -32.2790 C   0  0  0  0  0  0  0  0  0  0  0  0
   -7.8460   18.0800  -32.3770 C   0  0  0  0  0  0  0  0  0  0  0  0
   -6.5590   18.5990  -32.2700 C   0  0  0  0  0  0  0  0  0  0  0  0
   -6.3620   19.9690  -32.0540 C   0  0  0  0  0  0  0  0  0  0  0  0
   -5.0170   20.4670  -31.9860 N   0  0  0  0  0  0  0  0  0  0  0  0
   -4.5220   21.3920  -33.0050 C   0  0  0  0  0  0  0  0  0  0  0  0
   -3.9490   22.6650  -32.3500 C   0  0  0  0  0  0  0  0  0  0  0  0
   -3.3020   22.4400  -31.0200 N   0  0  0  0  0  0  0  0  0  0  0  0
   -4.1310   22.9610  -29.9020 C   0  0  0  0  0  0  0  0  0  0  0  0
   -3.3350   23.8500  -28.9880 C   0  0  0  0  0  0  0  0  0  0  0  0
   -3.6170   23.9820  -27.6650 N   0  0  0  0  0  0  0  0  0  0  0  0
   -2.6920   24.8650  -27.2600 C   0  0  0  0  0  0  0  0  0  0  0  0
   -2.5070   25.3780  -25.9790 C   0  0  0  0  0  0  0  0  0  0  0  0
   -1.4630   26.3050  -25.7910 C   0  0  0  0  0  0  0  0  0  0  0  0
   -0.6450   26.6900  -26.8800 C   0  0  0  0  0  0  0  0  0  0  0  0
   -0.8640   26.1500  -28.1610 C   0  0  0  0  0  0  0  0  0  0  0  0
   -1.9050   25.2360  -28.3070 C   0  0  0  0  0  0  0  0  0  0  0  0
   -2.2930   24.6040  -29.4250 N   0  0  0  0  0  0  0  0  0  0  0  0
   -2.9340   21.0220  -30.7910 C   0  0  0  0  0  0  0  0  0  0  0  0
   -4.1600   20.0980  -30.8580 C   0  0  0  0  0  0  0  0  0  0  0  0
   -7.4750   20.8320  -31.9100 C   0  0  0  0  0  0  0  0  0  0  0  0
   -7.2670   22.3040  -31.6390 C   0  0  0  0  0  0  0  0  0  0  0  0
  -10.2487   21.3507  -30.9083 H   0  0  0  0  0  0  0  0  0  0  0  0
   -9.8084   22.1400  -32.4606 H   0  0  0  0  0  0  0  0  0  0  0  0
  -10.8536   20.6791  -32.4606 H   0  0  0  0  0  0  0  0  0  0  0  0
   -9.9647   18.5067  -32.3702 H   0  0  0  0  0  0  0  0  0  0  0  0
   -7.9914   17.0018  -32.5392 H   0  0  0  0  0  0  0  0  0  0  0  0
   -5.6908   17.9290  -32.3556 H   0  0  0  0  0  0  0  0  0  0  0  0
   -3.7308   20.8979  -33.5880 H   0  0  0  0  0  0  0  0  0  0  0  0
   -5.3574   21.6763  -33.6617 H   0  0  0  0  0  0  0  0  0  0  0  0
   -3.1975   23.0929  -33.0298 H   0  0  0  0  0  0  0  0  0  0  0  0
   -4.8015   23.3375  -32.1738 H   0  0  0  0  0  0  0  0  0  0  0  0
   -2.3980   22.9720  -31.0140 H   0  0  0  0  0  0  0  0  0  0  0  0
   -4.9699   23.5377  -30.3187 H   0  0  0  0  0  0  0  0  0  0  0  0
   -4.4947   22.1040  -29.3161 H   0  0  0  0  0  0  0  0  0  0  0  0
   -3.1530   25.0705  -25.1435 H   0  0  0  0  0  0  0  0  0  0  0  0
   -1.2827   26.7316  -24.7932 H   0  0  0  0  0  0  0  0  0  0  0  0
    0.1668   27.4157  -26.7241 H   0  0  0  0  0  0  0  0  0  0  0  0
   -0.2357   26.4393  -29.0163 H   0  0  0  0  0  0  0  0  0  0  0  0
   -2.2119   20.7124  -31.5609 H   0  0  0  0  0  0  0  0  0  0  0  0
   -2.4974   20.9395  -29.7847 H   0  0  0  0  0  0  0  0  0  0  0  0
   -3.8236   19.0582  -30.9835 H   0  0  0  0  0  0  0  0  0  0  0  0
   -4.7345   20.1999  -29.9255 H   0  0  0  0  0  0  0  0  0  0  0  0
   -7.2426   22.4770  -30.5530 H   0  0  0  0  0  0  0  0  0  0  0  0
   -6.3142   22.6276  -32.0834 H   0  0  0  0  0  0  0  0  0  0  0  0
   -8.0928   22.8789  -32.0834 H   0  0  0  0  0  0  0  0  0  0  0  0
  1  2  1  0
  2  3  2  0
  3  4  1  0
  4  5  2  0
  5  6  1  0
  6  7  1  0
  7  8  1  0
  8  9  1  0
  9 10  1  0
 10 11  1  0
 11 12  1  0
 12 13  2  0
 13 14  1  0
 14 15  2  0
 15 16  1  0
 16 17  2  0
 17 18  1  0
 18 19  2  0
 19 20  1  0
 10 21  1  0
 21 22  1  0
  6 23  2  0
 23 24  1  0
 23  2  1  0
 22  7  1  0
 20 12  1  0
 19 14  1  0
  1 25  1  0
  1 26  1  0
  1 27  1  0
  3 28  1  0
  4 29  1  0
  5 30  1  0
  8 31  1  0
  8 32  1  0
  9 33  1  0
  9 34  1  0
 10 35  1  0
 11 36  1  0
 11 37  1  0
 15 38  1  0
 16 39  1  0
 17 40  1  0
 18 41  1  0
 21 42  1  0
 21 43  1  0
 22 44  1  0
 22 45  1  0
 24 46  1  0
 24 47  1  0
 24 48  1  0
M  CHG  2  10   1  20  -1
M  END
>  <UniqueID>  (8) 
7

>  <SMILES>  (8) 
Cc1cccc(N2CC[NH+](Cc3nc4ccccc4[n-]3)CC2)c1C

>  <Energy>  (8) 
100.87902378868986

>  <Genealogy>  (8) 
Cc1cccc(N2CC[NH+](Cc3nc4ccccc4[n-]3)CC2)c1C (protonated)
Cc1cccc(N2CC[NH+](Cc3nc4ccccc4[n-]3)CC2)c1C (3D coordinates assigned)
Cc1cccc(N2CC[NH+](Cc3nc4ccccc4[n-]3)CC2)c1C (nonaromatic ring conformer: 100.87902378868986 kcal/mol)

>  <smiles>  (8) 
Cc1cccc(N2CCN(Cc3nc4ccccc4[nH]3)CC2)c1C

>  <score_type>  (8) 
oracle

>  <origin>  (8) 
adg

>  <m_score__min__energy>  (8) 
-8.2899999999999991

>  <m_primary>  (8) 
energy

$$$$
8:0
     RDKit          3D

 53 56  0  0  0  0  0  0  0  0999 V2000
   -2.5660   20.4040  -32.7150 C   0  0  0  0  0  0  0  0  0  0  0  0
   -3.8610   20.7090  -33.4690 C   0  0  0  0  0  0  0  0  0  0  0  0
   -5.1230   20.3340  -32.6550 C   0  0  1  0  0  0  0  0  0  0  0  0
   -6.2250   21.4120  -32.7540 C   0  0  0  0  0  0  0  0  0  0  0  0
   -5.6990   22.7440  -32.3630 N   0  0  0  0  0  0  0  0  0  0  0  0
   -6.7740   23.7410  -32.0920 C   0  0  0  0  0  0  0  0  0  0  0  0
   -6.8380   24.1890  -30.6260 C   0  0  0  0  0  0  0  0  0  0  0  0
   -5.4910   24.8170  -30.2130 C   0  0  1  0  0  0  0  0  0  0  0  0
   -5.3610   24.9430  -28.7400 N   0  0  0  0  0  0  0  0  0  0  0  0
   -4.0690   24.4150  -28.4560 C   0  0  0  0  0  0  0  0  0  0  0  0
   -3.4630   24.4200  -27.1970 C   0  0  0  0  0  0  0  0  0  0  0  0
   -2.1800   23.8670  -27.0600 C   0  0  0  0  0  0  0  0  0  0  0  0
   -1.5220   23.3080  -28.1770 C   0  0  0  0  0  0  0  0  0  0  0  0
   -0.1340   22.7550  -28.0370 C   0  0  0  0  0  0  0  0  0  0  0  0
   -2.1500   23.3300  -29.4380 C   0  0  0  0  0  0  0  0  0  0  0  0
   -3.4290   23.8820  -29.5410 C   0  0  0  0  0  0  0  0  0  0  0  0
   -4.2750   24.0050  -30.7460 C   0  0  1  0  0  0  0  0  0  0  0  0
   -4.6880   22.6250  -31.2850 C   0  0  0  0  0  0  0  0  0  0  0  0
   -5.6780   18.9840  -33.0790 C   0  0  0  0  0  0  0  0  0  0  0  0
   -5.1810   18.3190  -34.2170 C   0  0  0  0  0  0  0  0  0  0  0  0
   -5.6980   17.0770  -34.5930 C   0  0  0  0  0  0  0  0  0  0  0  0
   -6.7150   16.4840  -33.8410 C   0  0  0  0  0  0  0  0  0  0  0  0
   -7.2160   17.1330  -32.7110 C   0  0  0  0  0  0  0  0  0  0  0  0
   -6.7030   18.3770  -32.3310 C   0  0  0  0  0  0  0  0  0  0  0  0
   -2.7532   20.4481  -31.6319 H   0  0  0  0  0  0  0  0  0  0  0  0
   -2.2125   19.3980  -32.9853 H   0  0  0  0  0  0  0  0  0  0  0  0
   -1.8007   21.1465  -32.9853 H   0  0  0  0  0  0  0  0  0  0  0  0
   -3.8932   21.7853  -33.6939 H   0  0  0  0  0  0  0  0  0  0  0  0
   -3.8635   20.1037  -34.3875 H   0  0  0  0  0  0  0  0  0  0  0  0
   -4.8046   20.2712  -31.6040 H   0  0  0  0  0  0  0  0  0  0  0  0
   -6.5907   21.4592  -33.7903 H   0  0  0  0  0  0  0  0  0  0  0  0
   -7.0432   21.1424  -32.0700 H   0  0  0  0  0  0  0  0  0  0  0  0
   -6.5936   24.6266  -32.7191 H   0  0  0  0  0  0  0  0  0  0  0  0
   -7.7327   23.2540  -32.3236 H   0  0  0  0  0  0  0  0  0  0  0  0
   -7.6398   24.9325  -30.5059 H   0  0  0  0  0  0  0  0  0  0  0  0
   -7.0432   23.3167  -29.9880 H   0  0  0  0  0  0  0  0  0  0  0  0
   -5.4859   25.8190  -30.6669 H   0  0  0  0  0  0  0  0  0  0  0  0
   -6.0760   24.3820  -28.2200 H   0  0  0  0  0  0  0  0  0  0  0  0
   -5.4030   25.9480  -28.4490 H   0  0  0  0  0  0  0  0  0  0  0  0
   -3.9825   24.8500  -26.3279 H   0  0  0  0  0  0  0  0  0  0  0  0
   -1.6850   23.8692  -26.0777 H   0  0  0  0  0  0  0  0  0  0  0  0
    0.1153   22.6557  -26.9702 H   0  0  0  0  0  0  0  0  0  0  0  0
   -0.0823   21.7676  -28.5191 H   0  0  0  0  0  0  0  0  0  0  0  0
    0.5825   23.4363  -28.5191 H   0  0  0  0  0  0  0  0  0  0  0  0
   -1.6430   22.9205  -30.3241 H   0  0  0  0  0  0  0  0  0  0  0  0
   -3.7723   24.4882  -31.5967 H   0  0  0  0  0  0  0  0  0  0  0  0
   -3.7982   22.1159  -31.6839 H   0  0  0  0  0  0  0  0  0  0  0  0
   -5.1303   22.0495  -30.4585 H   0  0  0  0  0  0  0  0  0  0  0  0
   -4.3805   18.7808  -34.8135 H   0  0  0  0  0  0  0  0  0  0  0  0
   -5.3035   16.5649  -35.4830 H   0  0  0  0  0  0  0  0  0  0  0  0
   -7.1209   15.5061  -34.1391 H   0  0  0  0  0  0  0  0  0  0  0  0
   -8.0158   16.6648  -32.1185 H   0  0  0  0  0  0  0  0  0  0  0  0
   -7.1037   18.8844  -31.4411 H   0  0  0  0  0  0  0  0  0  0  0  0
  1  2  1  0
  2  3  1  0
  3  4  1  0
  4  5  1  0
  5  6  1  0
  6  7  1  0
  7  8  1  0
  8  9  1  0
  9 10  1  0
 10 11  2  0
 11 12  1  0
 12 13  2  0
 13 14  1  0
 13 15  1  0
 15 16  2  0
 16 17  1  0
 17 18  1  0
  3 19  1  0
 19 20  2  0
 20 21  1  0
 21 22  2  0
 22 23  1  0
 23 24  2  0
 18  5  1  0
 24 19  1  0
 17  8  1  0
 16 10  1  0
  1 25  1  0
  1 26  1  0
  1 27  1  0
  2 28  1  0
  2 29  1  0
  3 30  1  1
  4 31  1  0
  4 32  1  0
  6 33  1  0
  6 34  1  0
  7 35  1  0
  7 36  1  0
  8 37  1  6
  9 38  1  0
  9 39  1  0
 11 40  1  0
 12 41  1  0
 14 42  1  0
 14 43  1  0
 14 44  1  0
 15 45  1  0
 17 46  1  6
 18 47  1  0
 18 48  1  0
 20 49  1  0
 21 50  1  0
 22 51  1  0
 23 52  1  0
 24 53  1  0
M  CHG  1   9   1
M  END
>  <UniqueID>  (9) 
8

>  <SMILES>  (9) 
CC[C@@H](CN1CC[C@H]2[NH2+]c3ccc(C)cc3C2C1)c1ccccc1

>  <Energy>  (9) 
72.00828411328087

>  <Genealogy>  (9) 
CCC(CN1CCC2[NH2+]c3ccc(C)cc3C2C1)c1ccccc1 (protonated)
CC[C@@H](CN1CC[C@H]2[NH2+]c3ccc(C)cc3C2C1)c1ccccc1 (chirality)
CC[C@@H](CN1CC[C@H]2[NH2+]c3ccc(C)cc3C2C1)c1ccccc1 (3D coordinates assigned)
CC[C@@H](CN1CC[C@H]2[NH2+]c3ccc(C)cc3C2C1)c1ccccc1 (nonaromatic ring conformer: 72.00828411328087 kcal/mol)

>  <smiles>  (9) 
CCC(CN1CCC2Nc3ccc(C)cc3C2C1)c1ccccc1

>  <score_type>  (9) 
oracle

>  <origin>  (9) 
adg

>  <m_score__min__energy>  (9) 
-8.8499999999999996

>  <m_primary>  (9) 
energy

$$$$
9:0
     RDKit          3D

 40 43  0  0  0  0  0  0  0  0999 V2000
   -2.1200   24.5480  -29.2710 C   0  0  0  0  0  0  0  0  0  0  0  0
   -3.1840   24.8970  -30.1510 O   0  0  0  0  0  0  0  0  0  0  0  0
   -4.3860   24.1830  -30.2680 C   0  0  0  0  0  0  0  0  0  0  0  0
   -5.5180   24.6860  -29.6200 C   0  0  0  0  0  0  0  0  0  0  0  0
   -6.7400   24.0200  -29.7110 C   0  0  0  0  0  0  0  0  0  0  0  0
   -6.8410   22.8270  -30.4330 C   0  0  0  0  0  0  0  0  0  0  0  0
   -5.7150   22.3030  -31.1020 C   0  0  0  0  0  0  0  0  0  0  0  0
   -4.4900   22.9950  -31.0180 C   0  0  0  0  0  0  0  0  0  0  0  0
   -5.8680   21.1120  -31.9900 C   0  0  0  0  0  0  0  0  0  0  0  0
   -4.8140   20.2800  -32.2440 N   0  0  0  0  0  0  0  0  0  0  0  0
   -4.9430   19.2110  -33.0830 C   0  0  0  0  0  0  0  0  0  0  0  0
   -3.8230   18.3490  -33.3530 N   0  0  0  0  0  0  0  0  0  0  0  0
   -4.0580   16.9090  -33.5080 C   0  0  0  0  0  0  0  0  0  0  0  0
   -2.7670   16.1980  -33.9130 C   0  0  0  0  0  0  0  0  0  0  0  0
   -2.0580   17.0030  -34.8300 O   0  0  0  0  0  0  0  0  0  0  0  0
   -1.4780   18.1100  -34.1620 C   0  0  0  0  0  0  0  0  0  0  0  0
   -2.4460   18.8400  -33.2000 C   0  0  0  0  0  0  0  0  0  0  0  0
   -6.1340   18.9750  -33.6930 N   0  0  0  0  0  0  0  0  0  0  0  0
   -7.2150   19.7580  -33.4600 C   0  0  0  0  0  0  0  0  0  0  0  0
   -7.1200   20.8390  -32.5800 C   0  0  0  0  0  0  0  0  0  0  0  0
   -8.3160   21.7060  -32.2940 C   0  0  0  0  0  0  0  0  0  0  0  0
   -8.4250   21.9780  -30.4980 S   0  0  0  0  0  0  0  0  0  0  0  0
   -2.4550   24.6579  -28.2290 H   0  0  0  0  0  0  0  0  0  0  0  0
   -1.8215   23.5049  -29.4521 H   0  0  0  0  0  0  0  0  0  0  0  0
   -1.2617   25.2117  -29.4521 H   0  0  0  0  0  0  0  0  0  0  0  0
   -5.4444   25.6140  -29.0340 H   0  0  0  0  0  0  0  0  0  0  0  0
   -7.6283   24.4352  -29.2125 H   0  0  0  0  0  0  0  0  0  0  0  0
   -3.6063   22.6036  -31.5433 H   0  0  0  0  0  0  0  0  0  0  0  0
   -3.8880   20.4630  -31.8000 H   0  0  0  0  0  0  0  0  0  0  0  0
   -4.4152   16.4954  -32.5534 H   0  0  0  0  0  0  0  0  0  0  0  0
   -4.8121   16.7535  -34.2936 H   0  0  0  0  0  0  0  0  0  0  0  0
   -2.1475   16.0250  -33.0206 H   0  0  0  0  0  0  0  0  0  0  0  0
   -3.0098   15.2328  -34.3816 H   0  0  0  0  0  0  0  0  0  0  0  0
   -0.6167   17.7506  -33.5797 H   0  0  0  0  0  0  0  0  0  0  0  0
   -1.1908   18.8357  -34.9371 H   0  0  0  0  0  0  0  0  0  0  0  0
   -2.1179   18.6694  -32.1640 H   0  0  0  0  0  0  0  0  0  0  0  0
   -2.4314   19.9131  -33.4414 H   0  0  0  0  0  0  0  0  0  0  0  0
   -8.1685   19.5423  -33.9643 H   0  0  0  0  0  0  0  0  0  0  0  0
   -8.2042   22.6719  -32.8083 H   0  0  0  0  0  0  0  0  0  0  0  0
   -9.2308   21.2125  -32.6541 H   0  0  0  0  0  0  0  0  0  0  0  0
  1  2  1  0
  2  3  1  0
  3  4  2  0
  4  5  1  0
  5  6  2  0
  6  7  1  0
  7  8  2  0
  7  9  1  0
  9 10  2  0
 10 11  1  0
 11 12  1  0
 12 13  1  0
 13 14  1  0
 14 15  1  0
 15 16  1  0
 16 17  1  0
 11 18  2  0
 18 19  1  0
 19 20  2  0
 20 21  1  0
 21 22  1  0
  8  3  1  0
 20  9  1  0
 22  6  1  0
 17 12  1  0
  1 23  1  0
  1 24  1  0
  1 25  1  0
  4 26  1  0
  5 27  1  0
  8 28  1  0
 10 29  1  0
 13 30  1  0
 13 31  1  0
 14 32  1  0
 14 33  1  0
 16 34  1  0
 16 35  1  0
 17 36  1  0
 17 37  1  0
 19 38  1  0
 21 39  1  0
 21 40  1  0
M  CHG  1  10   1
M  END
>  <UniqueID>  (10) 
9

>  <SMILES>  (10) 
COc1ccc2c(c1)-c1[nH+]c(N3CCOCC3)ncc1CS2

>  <Energy>  (10) 
61.16186289750439

>  <Genealogy>  (10) 
COc1ccc2c(c1)-c1[nH+]c(N3CCOCC3)ncc1CS2 (protonated)
COc1ccc2c(c1)-c1[nH+]c(N3CCOCC3)ncc1CS2 (3D coordinates assigned)
COc1ccc2c(c1)-c1[nH+]c(N3CCOCC3)ncc1CS2 (nonaromatic ring conformer: 61.16186289750439 kcal/mol)

>  <smiles>  (10) 
COc1ccc2c(c1)-c1nc(N3CCOCC3)ncc1CS2

>  <score_type>  (10) 
oracle

>  <origin>  (10) 
adg

>  <m_score__min__energy>  (10) 
-6.9699999999999998

>  <m_primary>  (10) 
energy

$$$$
10:0
     RDKit          3D

 55 57  0  0  0  0  0  0  0  0999 V2000
   -2.4680   21.5410  -32.5010 C   0  0  0  0  0  0  0  0  0  0  0  0
   -1.4390   20.7090  -31.7390 C   0  0  0  0  0  0  0  0  0  0  0  0
   -1.0660   21.2860  -30.3560 C   0  0  0  0  0  0  0  0  0  0  0  0
   -2.0510   22.2060  -29.7450 N   0  0  0  0  0  0  0  0  0  0  0  0
   -1.4930   23.4460  -29.1780 C   0  0  0  0  0  0  0  0  0  0  0  0
   -2.5970   24.5150  -29.0430 C   0  0  0  0  0  0  0  0  0  0  0  0
   -4.0190   23.9180  -29.1770 C   0  0  0  0  0  0  0  0  0  0  0  0
   -5.0500   24.9000  -28.7560 N   0  0  0  0  0  0  0  0  0  0  0  0
   -5.7760   25.5070  -29.8970 C   0  0  0  0  0  0  0  0  0  0  0  0
   -7.1630   24.8700  -30.1410 C   0  0  0  0  0  0  0  0  0  0  0  0
   -7.0700   23.6340  -30.9960 C   0  0  0  0  0  0  0  0  0  0  0  0
   -5.9070   23.3720  -31.7360 C   0  0  0  0  0  0  0  0  0  0  0  0
   -5.7290   22.1320  -32.3540 C   0  0  0  0  0  0  0  0  0  0  0  0
   -6.7160   21.1370  -32.2540 C   0  0  0  0  0  0  0  0  0  0  0  0
   -6.4840   19.7880  -32.8230 C   0  0  0  0  0  0  0  0  0  0  0  0
   -7.2490   18.6910  -32.3820 C   0  0  0  0  0  0  0  0  0  0  0  0
   -7.0480   17.4230  -32.9340 C   0  0  0  0  0  0  0  0  0  0  0  0
   -6.0840   17.2360  -33.9290 C   0  0  0  0  0  0  0  0  0  0  0  0
   -5.3210   18.3180  -34.3740 C   0  0  0  0  0  0  0  0  0  0  0  0
   -5.5210   19.5890  -33.8280 C   0  0  0  0  0  0  0  0  0  0  0  0
   -7.9050   21.4230  -31.5610 C   0  0  0  0  0  0  0  0  0  0  0  0
   -8.0790   22.6600  -30.9350 C   0  0  0  0  0  0  0  0  0  0  0  0
   -4.1030   22.6030  -28.3710 C   0  0  0  0  0  0  0  0  0  0  0  0
   -3.0500   21.5760  -28.8540 C   0  0  0  0  0  0  0  0  0  0  0  0
   -3.1175   22.0662  -31.7852 H   0  0  0  0  0  0  0  0  0  0  0  0
   -1.9492   22.2765  -33.1333 H   0  0  0  0  0  0  0  0  0  0  0  0
   -3.0786   20.8797  -33.1333 H   0  0  0  0  0  0  0  0  0  0  0  0
   -1.8499   19.6991  -31.5933 H   0  0  0  0  0  0  0  0  0  0  0  0
   -0.5194   20.7085  -32.3427 H   0  0  0  0  0  0  0  0  0  0  0  0
   -0.9238   20.4405  -29.6668 H   0  0  0  0  0  0  0  0  0  0  0  0
   -0.1624   21.8906  -30.5231 H   0  0  0  0  0  0  0  0  0  0  0  0
   -1.0701   23.2332  -28.1851 H   0  0  0  0  0  0  0  0  0  0  0  0
   -0.7071   23.8248  -29.8480 H   0  0  0  0  0  0  0  0  0  0  0  0
   -2.5065   24.9931  -28.0565 H   0  0  0  0  0  0  0  0  0  0  0  0
   -2.4609   25.2411  -29.8580 H   0  0  0  0  0  0  0  0  0  0  0  0
   -4.2201   23.6862  -30.2333 H   0  0  0  0  0  0  0  0  0  0  0  0
   -4.6150   25.6590  -28.1830 H   0  0  0  0  0  0  0  0  0  0  0  0
   -5.7430   24.4250  -28.1320 H   0  0  0  0  0  0  0  0  0  0  0  0
   -5.9141   26.5792  -29.6936 H   0  0  0  0  0  0  0  0  0  0  0  0
   -5.1720   25.3335  -30.7998 H   0  0  0  0  0  0  0  0  0  0  0  0
   -7.6057   24.5992  -29.1711 H   0  0  0  0  0  0  0  0  0  0  0  0
   -7.7875   25.6047  -30.6703 H   0  0  0  0  0  0  0  0  0  0  0  0
   -5.1318   24.1467  -31.8299 H   0  0  0  0  0  0  0  0  0  0  0  0
   -4.8091   21.9330  -32.9233 H   0  0  0  0  0  0  0  0  0  0  0  0
   -8.0086   18.8329  -31.5991 H   0  0  0  0  0  0  0  0  0  0  0  0
   -7.6493   16.5706  -32.5850 H   0  0  0  0  0  0  0  0  0  0  0  0
   -5.9264   16.2369  -34.3614 H   0  0  0  0  0  0  0  0  0  0  0  0
   -4.5613   18.1696  -35.1556 H   0  0  0  0  0  0  0  0  0  0  0  0
   -4.9215   20.4387  -34.1867 H   0  0  0  0  0  0  0  0  0  0  0  0
   -8.7036   20.6682  -31.5112 H   0  0  0  0  0  0  0  0  0  0  0  0
   -9.0116   22.8717  -30.3915 H   0  0  0  0  0  0  0  0  0  0  0  0
   -3.9268   22.8231  -27.3077 H   0  0  0  0  0  0  0  0  0  0  0  0
   -5.1029   22.1693  -28.5194 H   0  0  0  0  0  0  0  0  0  0  0  0
   -2.5337   21.1542  -27.9790 H   0  0  0  0  0  0  0  0  0  0  0  0
   -3.5690   20.7873  -29.4185 H   0  0  0  0  0  0  0  0  0  0  0  0
  1  2  1  0
  2  3  1  0
  3  4  1  0
  4  5  1  0
  5  6  1  0
  6  7  1  0
  7  8  1  0
  8  9  1  0
  9 10  1  0
 10 11  1  0
 11 12  2  0
 12 13  1  0
 13 14  2  0
 14 15  1  0
 15 16  2  0
 16 17  1  0
 17 18  2  0
 18 19  1  0
 19 20  2  0
 14 21  1  0
 21 22  2  0
  7 23  1  0
 23 24  1  0
 24  4  1  0
 22 11  1  0
 20 15  1  0
  1 25  1  0
  1 26  1  0
  1 27  1  0
  2 28  1  0
  2 29  1  0
  3 30  1  0
  3 31  1  0
  5 32  1  0
  5 33  1  0
  6 34  1  0
  6 35  1  0
  7 36  1  0
  8 37  1  0
  8 38  1  0
  9 39  1  0
  9 40  1  0
 10 41  1  0
 10 42  1  0
 12 43  1  0
 13 44  1  0
 16 45  1  0
 17 46  1  0
 18 47  1  0
 19 48  1  0
 20 49  1  0
 21 50  1  0
 22 51  1  0
 23 52  1  0
 23 53  1  0
 24 54  1  0
 24 55  1  0
M  CHG  1   8   1
M  END
>  <UniqueID>  (11) 
10

>  <SMILES>  (11) 
CCCN1CCC([NH2+]CCc2ccc(-c3ccccc3)cc2)CC1

>  <Energy>  (11) 
69.67517908773169

>  <Genealogy>  (11) 
CCCN1CCC([NH2+]CCc2ccc(-c3ccccc3)cc2)CC1 (protonated)
CCCN1CCC([NH2+]CCc2ccc(-c3ccccc3)cc2)CC1 (3D coordinates assigned)
CCCN1CCC([NH2+]CCc2ccc(-c3ccccc3)cc2)CC1 (nonaromatic ring conformer: 69.67517908773169 kcal/mol)

>  <smiles>  (11) 
CCCN1CCC(NCCc2ccc(-c3ccccc3)cc2)CC1

>  <score_type>  (11) 
oracle

>  <origin>  (11) 
adg

>  <m_score__min__energy>  (11) 
-8.8599999999999994

>  <m_primary>  (11) 
energy

$$$$
11:0
     RDKit          3D

104103  0  0  0  0  0  0  0  0999 V2000
    0.9815   15.5513  -33.5609 H   0  0  0  0  0  0  0  0  0  0  0  0
   -0.0460   15.9440  -33.5710 C   0  0  0  0  0  0  0  0  0  0  0  0
   -0.7140   15.9300  -34.7420 C   0  0  0  0  0  0  0  0  0  0  0  0
   -0.1259   16.0064  -35.6685 H   0  0  0  0  0  0  0  0  0  0  0  0
   -2.2090   15.8170  -34.8680 C   0  0  0  0  0  0  0  0  0  0  0  0
   -2.4506   15.0255  -35.5927 H   0  0  0  0  0  0  0  0  0  0  0  0
   -2.6278   15.5741  -33.8803 H   0  0  0  0  0  0  0  0  0  0  0  0
   -2.7930   17.0840  -35.3270 N   0  0  0  0  0  0  0  0  0  0  0  0
   -2.4390   17.8440  -34.6990 H   0  0  0  0  0  0  0  0  0  0  0  0
   -4.2560   17.0440  -35.1990 C   0  0  0  0  0  0  0  0  0  0  0  0
   -4.6736   18.0045  -35.5351 H   0  0  0  0  0  0  0  0  0  0  0  0
   -4.6413   16.2207  -35.8184 H   0  0  0  0  0  0  0  0  0  0  0  0
   -4.6700   16.7980  -33.7420 C   0  0  0  0  0  0  0  0  0  0  0  0
   -5.6303   16.2615  -33.7443 H   0  0  0  0  0  0  0  0  0  0  0  0
   -3.8547   16.2223  -33.2796 H   0  0  0  0  0  0  0  0  0  0  0  0
   -4.8350   18.0710  -32.9000 C   0  0  0  0  0  0  0  0  0  0  0  0
   -5.2881   17.7824  -31.9401 H   0  0  0  0  0  0  0  0  0  0  0  0
   -3.8258   18.4998  -32.8128 H   0  0  0  0  0  0  0  0  0  0  0  0
   -5.7090   19.1890  -33.5180 C   0  0  0  0  0  0  0  0  0  0  0  0
   -5.0517   20.0292  -33.7863 H   0  0  0  0  0  0  0  0  0  0  0  0
   -6.2166   18.7432  -34.3861 H   0  0  0  0  0  0  0  0  0  0  0  0
   -6.7710   19.7010  -32.6310 N   0  0  0  0  0  0  0  0  0  0  0  0
   -6.3760   20.3360  -31.9020 H   0  0  0  0  0  0  0  0  0  0  0  0
   -7.5870   18.6480  -32.0060 C   0  0  0  0  0  0  0  0  0  0  0  0
   -7.4703   17.7126  -32.5730 H   0  0  0  0  0  0  0  0  0  0  0  0
   -7.2521   18.5011  -30.9686 H   0  0  0  0  0  0  0  0  0  0  0  0
   -9.0670   19.0590  -32.0030 C   0  0  0  0  0  0  0  0  0  0  0  0
   -9.5953   18.4763  -32.7720 H   0  0  0  0  0  0  0  0  0  0  0  0
   -9.4642   18.8605  -30.9966 H   0  0  0  0  0  0  0  0  0  0  0  0
   -9.2700   20.5580  -32.2950 C   0  0  0  0  0  0  0  0  0  0  0  0
   -8.5886   20.8481  -33.1084 H   0  0  0  0  0  0  0  0  0  0  0  0
  -10.3283   20.6911  -32.5640 H   0  0  0  0  0  0  0  0  0  0  0  0
   -8.9970   21.4710  -31.0840 C   0  0  0  0  0  0  0  0  0  0  0  0
   -9.5167   22.4276  -31.2415 H   0  0  0  0  0  0  0  0  0  0  0  0
   -9.3632   20.9487  -30.1878 H   0  0  0  0  0  0  0  0  0  0  0  0
   -7.5620   21.7430  -30.8820 N   0  0  0  0  0  0  0  0  0  0  0  0
   -7.0480   20.8370  -30.7970 H   0  0  0  0  0  0  0  0  0  0  0  0
   -7.2520   22.6060  -29.7260 C   0  0  0  0  0  0  0  0  0  0  0  0
   -8.0961   22.5520  -29.0228 H   0  0  0  0  0  0  0  0  0  0  0  0
   -6.3092   22.2292  -29.3028 H   0  0  0  0  0  0  0  0  0  0  0  0
   -7.0090   24.0950  -30.0730 C   0  0  0  0  0  0  0  0  0  0  0  0
   -7.9239   24.4880  -30.5405 H   0  0  0  0  0  0  0  0  0  0  0  0
   -6.7495   24.5883  -29.1247 H   0  0  0  0  0  0  0  0  0  0  0  0
   -5.8330   24.3680  -31.0280 C   0  0  0  0  0  0  0  0  0  0  0  0
   -5.6988   25.4560  -31.1185 H   0  0  0  0  0  0  0  0  0  0  0  0
   -4.9421   23.8812  -30.6045 H   0  0  0  0  0  0  0  0  0  0  0  0
   -6.0580   23.7820  -32.4320 C   0  0  0  0  0  0  0  0  0  0  0  0
   -7.1356   23.6259  -32.5884 H   0  0  0  0  0  0  0  0  0  0  0  0
   -5.6596   24.4885  -33.1751 H   0  0  0  0  0  0  0  0  0  0  0  0
   -5.3590   22.4980  -32.5840 N   0  0  0  0  0  0  0  0  0  0  0  0
   -6.0350   21.7150  -32.4120 H   0  0  0  0  0  0  0  0  0  0  0  0
   -4.9760   22.4280  -33.5570 H   0  0  0  0  0  0  0  0  0  0  0  0
   -4.2520   22.3930  -31.6170 C   0  0  0  0  0  0  0  0  0  0  0  0
   -3.3039   22.6101  -32.1308 H   0  0  0  0  0  0  0  0  0  0  0  0
   -4.4258   23.1158  -30.8062 H   0  0  0  0  0  0  0  0  0  0  0  0
   -4.1830   20.9950  -31.0140 C   0  0  0  0  0  0  0  0  0  0  0  0
   -4.1866   21.0685  -29.9165 H   0  0  0  0  0  0  0  0  0  0  0  0
   -5.0533   20.4095  -31.3452 H   0  0  0  0  0  0  0  0  0  0  0  0
   -3.2592   20.4980  -31.3452 H   0  0  0  0  0  0  0  0  0  0  0  0
   -0.6150   16.4630  -32.2730 C   0  0  0  0  0  0  0  0  0  0  0  0
   -0.6434   15.6487  -31.5341 H   0  0  0  0  0  0  0  0  0  0  0  0
   -1.6342   16.8393  -32.4452 H   0  0  0  0  0  0  0  0  0  0  0  0
    0.2300   17.5550  -31.7660 N   0  0  0  0  0  0  0  0  0  0  0  0
    0.0670   18.4210  -32.3350 H   0  0  0  0  0  0  0  0  0  0  0  0
   -0.0430   17.8380  -30.3460 C   0  0  0  0  0  0  0  0  0  0  0  0
    0.2962   16.9834  -29.7421 H   0  0  0  0  0  0  0  0  0  0  0  0
   -1.1252   18.0001  -30.2341 H   0  0  0  0  0  0  0  0  0  0  0  0
    0.6800   19.1070  -29.8610 C   0  0  0  0  0  0  0  0  0  0  0  0
    1.6730   19.1560  -30.3317 H   0  0  0  0  0  0  0  0  0  0  0  0
    0.7712   19.0583  -28.7659 H   0  0  0  0  0  0  0  0  0  0  0  0
   -0.1110   20.3730  -30.2270 C   0  0  0  0  0  0  0  0  0  0  0  0
    0.5772   21.2306  -30.2564 H   0  0  0  0  0  0  0  0  0  0  0  0
   -0.8913   20.5290  -29.4675 H   0  0  0  0  0  0  0  0  0  0  0  0
   -0.7590   20.2320  -31.5400 N   0  0  0  0  0  0  0  0  0  0  0  0
   -0.1130   19.6680  -32.1440 H   0  0  0  0  0  0  0  0  0  0  0  0
   -0.9540   21.5330  -32.1940 C   0  0  0  0  0  0  0  0  0  0  0  0
    0.0267   21.9718  -32.4300 H   0  0  0  0  0  0  0  0  0  0  0  0
   -1.5085   22.1970  -31.5146 H   0  0  0  0  0  0  0  0  0  0  0  0
   -1.7560   21.3590  -33.4890 C   0  0  0  0  0  0  0  0  0  0  0  0
   -1.1905   21.8133  -34.3159 H   0  0  0  0  0  0  0  0  0  0  0  0
   -2.7303   21.8481  -33.3424 H   0  0  0  0  0  0  0  0  0  0  0  0
   -2.0270   19.8810  -33.8320 C   0  0  0  0  0  0  0  0  0  0  0  0
   -2.6846   19.8426  -34.7130 H   0  0  0  0  0  0  0  0  0  0  0  0
   -2.4906   19.4223  -32.9462 H   0  0  0  0  0  0  0  0  0  0  0  0
   -0.8020   19.1130  -34.1290 N   0  0  0  0  0  0  0  0  0  0  0  0
   -0.1470   19.1330  -33.3140 H   0  0  0  0  0  0  0  0  0  0  0  0
   -0.0890   19.6000  -35.3230 C   0  0  0  0  0  0  0  0  0  0  0  0
   -0.8289   19.9227  -36.0703 H   0  0  0  0  0  0  0  0  0  0  0  0
    0.5324   18.7764  -35.7044 H   0  0  0  0  0  0  0  0  0  0  0  0
    0.8400   20.7830  -35.0030 C   0  0  0  0  0  0  0  0  0  0  0  0
    0.2514   21.5489  -34.4767 H   0  0  0  0  0  0  0  0  0  0  0  0
    1.2416   21.1334  -35.9653 H   0  0  0  0  0  0  0  0  0  0  0  0
    2.0580   20.4240  -34.1250 C   0  0  0  0  0  0  0  0  0  0  0  0
    2.3241   21.3081  -33.5270 H   0  0  0  0  0  0  0  0  0  0  0  0
    2.8603   20.1144  -34.8109 H   0  0  0  0  0  0  0  0  0  0  0  0
    1.8310   19.2960  -33.2050 N   0  0  0  0  0  0  0  0  0  0  0  0
    0.9190   19.4200  -32.7110 H   0  0  0  0  0  0  0  0  0  0  0  0
    2.9110   19.1440  -32.2220 C   0  0  0  0  0  0  0  0  0  0  0  0
    2.5071   19.2956  -31.2101 H   0  0  0  0  0  0  0  0  0  0  0  0
    3.6935   19.8897  -32.4259 H   0  0  0  0  0  0  0  0  0  0  0  0
    3.5110   17.7480  -32.3220 C   0  0  0  0  0  0  0  0  0  0  0  0
    3.6824   17.3493  -31.3112 H   0  0  0  0  0  0  0  0  0  0  0  0
    2.8169   17.0885  -32.8635 H   0  0  0  0  0  0  0  0  0  0  0  0
    4.4672   17.7978  -32.8635 H   0  0  0  0  0  0  0  0  0  0  0  0
  1  2  1  0
  2  3  2  0
  3  4  1  0
  3  5  1  0
  5  6  1  0
  5  7  1  0
  5  8  1  0
  8  9  1  0
  8 10  1  0
 10 11  1  0
 10 12  1  0
 10 13  1  0
 13 14  1  0
 13 15  1  0
 13 16  1  0
 16 17  1  0
 16 18  1  0
 16 19  1  0
 19 20  1  0
 19 21  1  0
 19 22  1  0
 22 23  1  0
 22 24  1  0
 24 25  1  0
 24 26  1  0
 24 27  1  0
 27 28  1  0
 27 29  1  0
 27 30  1  0
 30 31  1  0
 30 32  1  0
 30 33  1  0
 33 34  1  0
 33 35  1  0
 33 36  1  0
 36 37  1  0
 36 38  1  0
 38 39  1  0
 38 40  1  0
 38 41  1  0
 41 42  1  0
 41 43  1  0
 41 44  1  0
 44 45  1  0
 44 46  1  0
 44 47  1  0
 47 48  1  0
 47 49  1  0
 47 50  1  0
 50 51  1  0
 50 52  1  0
 50 53  1  0
 53 54  1  0
 53 55  1  0
 53 56  1  0
 56 57  1  0
 56 58  1  0
 56 59  1  0
  2 60  1  0
 60 61  1  0
 60 62  1  0
 60 63  1  0
 63 64  1  0
 63 65  1  0
 65 66  1  0
 65 67  1  0
 65 68  1  0
 68 69  1  0
 68 70  1  0
 68 71  1  0
 71 72  1  0
 71 73  1  0
 71 74  1  0
 74 75  1  0
 74 76  1  0
 76 77  1  0
 76 78  1  0
 76 79  1  0
 79 80  1  0
 79 81  1  0
 79 82  1  0
 82 83  1  0
 82 84  1  0
 82 85  1  0
 85 86  1  0
 85 87  1  0
 87 88  1  0
 87 89  1  0
 87 90  1  0
 90 91  1  0
 90 92  1  0
 90 93  1  0
 93 94  1  0
 93 95  1  0
 93 96  1  0
 96 97  1  0
 96 98  1  0
 98 99  1  0
 98100  1  0
 98101  1  0
101102  1  0
101103  1  0
101104  1  0
M  CHG  1  50   1
M  END
>  <UniqueID>  (12) 
11

>  <SMILES>  (12) 
CCNCCCNCCCNCCCNC/C=C\CNCCCCNCCCCNCCCC[NH2+]CC

>  <Energy>  (12) 
73.50391523913969

>  <Genealogy>  (12) 
CCNCCCNCCCNCCCNCC=CCNCCCCNCCCCNCCCC[NH2+]CC (protonated)
CCNCCCNCCCNCCCNC/C=C\CNCCCCNCCCCNCCCC[NH2+]CC (cis-trans isomerization)
CCNCCCNCCCNCCCNC/C=C\CNCCCCNCCCCNCCCC[NH2+]CC (3D coordinates assigned)
CCNCCCNCCCNCCCNC/C=C\CNCCCCNCCCCNCCCC[NH2+]CC (optimized conformer: 73.50391523913969 kcal/mol)

>  <smiles>  (12) 
CCNCCCCNCCCCNCCCCNCC=CCNCCCNCCCNCCCNCC

>  <score_type>  (12) 
oracle

>  <origin>  (12) 
adg

>  <m_score__min__energy>  (12) 
-6.54

>  <m_primary>  (12) 
energy

$$$$
12:0
     RDKit          3D

 35 36  0  0  0  0  0  0  0  0999 V2000
   -2.8691   25.4893  -24.9404 H   0  0  0  0  0  0  0  0  0  0  0  0
   -2.7560   25.1390  -25.9770 C   0  0  0  0  0  0  0  0  0  0  0  0
   -3.8920   24.9130  -26.7590 C   0  0  0  0  0  0  0  0  0  0  0  0
   -4.8917   25.0969  -26.3384 H   0  0  0  0  0  0  0  0  0  0  0  0
   -3.7630   24.4520  -28.0800 C   0  0  0  0  0  0  0  0  0  0  0  0
   -4.9130   24.2330  -28.9150 N   0  0  0  0  0  0  0  0  0  0  0  0
   -5.7580   23.8050  -28.4740 H   0  0  0  0  0  0  0  0  0  0  0  0
   -5.0220   24.6880  -30.2750 C   0  0  0  0  0  0  0  0  0  0  0  0
   -4.0670   25.2930  -30.8290 O   0  0  0  0  0  0  0  0  0  0  0  0
   -6.1970   24.4050  -31.0380 N   0  0  0  0  0  0  0  0  0  0  0  0
   -6.6050   23.2270  -31.4160 C   0  0  0  0  0  0  0  0  0  0  0  0
   -5.9200   22.3760  -32.3330 N   0  0  0  0  0  0  0  0  0  0  0  0
   -4.4640   22.2060  -32.3390 C   0  0  0  0  0  0  0  0  0  0  0  0
   -4.0956   22.1630  -31.3034 H   0  0  0  0  0  0  0  0  0  0  0  0
   -4.2061   21.2716  -32.8590 H   0  0  0  0  0  0  0  0  0  0  0  0
   -3.9978   23.0558  -32.8590 H   0  0  0  0  0  0  0  0  0  0  0  0
   -6.8200   21.2830  -32.6800 C   0  0  0  0  0  0  0  0  0  0  0  0
   -6.2783   20.3257  -32.6691 H   0  0  0  0  0  0  0  0  0  0  0  0
   -7.2375   21.4143  -33.6892 H   0  0  0  0  0  0  0  0  0  0  0  0
   -7.9260   21.2800  -31.6150 C   0  0  0  0  0  0  0  0  0  0  0  0
   -7.7472   20.4772  -30.8845 H   0  0  0  0  0  0  0  0  0  0  0  0
   -8.9126   21.1041  -32.0685 H   0  0  0  0  0  0  0  0  0  0  0  0
   -7.8720   22.6440  -30.9240 C   0  0  0  0  0  0  0  0  0  0  0  0
   -7.8546   22.5307  -29.8300 H   0  0  0  0  0  0  0  0  0  0  0  0
   -8.7479   23.2720  -31.1440 H   0  0  0  0  0  0  0  0  0  0  0  0
   -2.4810   24.2590  -28.6130 C   0  0  0  0  0  0  0  0  0  0  0  0
   -2.3680   23.9285  -29.6561 H   0  0  0  0  0  0  0  0  0  0  0  0
   -1.3450   24.4830  -27.8300 C   0  0  0  0  0  0  0  0  0  0  0  0
   -0.3446   24.3139  -28.2551 H   0  0  0  0  0  0  0  0  0  0  0  0
   -1.4760   24.9240  -26.5000 C   0  0  0  0  0  0  0  0  0  0  0  0
   -0.3680   25.1630  -25.6730 O   0  0  0  0  0  0  0  0  0  0  0  0
   -0.4540   25.6200  -24.3280 C   0  0  0  0  0  0  0  0  0  0  0  0
   -0.2949   24.7745  -23.6426 H   0  0  0  0  0  0  0  0  0  0  0  0
    0.3159   26.3855  -24.1509 H   0  0  0  0  0  0  0  0  0  0  0  0
   -1.4494   26.0533  -24.1509 H   0  0  0  0  0  0  0  0  0  0  0  0
  1  2  1  0
  2  3  2  0
  3  4  1  0
  3  5  1  0
  5  6  1  0
  6  7  1  0
  6  8  1  0
  8  9  2  0
  8 10  1  0
 10 11  2  0
 11 12  1  0
 12 13  1  0
 13 14  1  0
 13 15  1  0
 13 16  1  0
 12 17  1  0
 17 18  1  0
 17 19  1  0
 17 20  1  0
 20 21  1  0
 20 22  1  0
 20 23  1  0
 23 24  1  0
 23 25  1  0
  5 26  2  0
 26 27  1  0
 26 28  1  0
 28 29  1  0
 28 30  2  0
 30 31  1  0
 31 32  1  0
 32 33  1  0
 32 34  1  0
 32 35  1  0
 30  2  1  0
 23 11  1  0
M  END
>  <UniqueID>  (13) 
12

>  <SMILES>  (13) 
COc1ccc(NC(=O)/N=C2/CCCN2C)cc1

>  <Energy>  (13) 
51.36341056246147

>  <Genealogy>  (13) 
COc1ccc(NC(=O)/N=C2/CCCN2C)cc1 (cis-trans isomerization)
COc1ccc(NC(=O)/N=C2/CCCN2C)cc1 (3D coordinates assigned)
COc1ccc(NC(=O)/N=C2/CCCN2C)cc1 (nonaromatic ring conformer: 51.36341056246147 kcal/mol)

>  <smiles>  (13) 
COc1ccc(NC(=O)N=C2CCCN2C)cc1

>  <score_type>  (13) 
oracle

>  <origin>  (13) 
adg

>  <m_score__min__energy>  (13) 
-6.4400000000000004

>  <m_primary>  (13) 
energy

$$$$
13:0
     RDKit          3D

 39 41  0  0  0  0  0  0  0  0999 V2000
   -0.9531   26.4764  -28.1493 H   0  0  0  0  0  0  0  0  0  0  0  0
   -1.2510   25.5140  -28.5910 C   0  0  0  0  0  0  0  0  0  0  0  0
   -2.3750   25.2950  -29.2930 N   0  0  0  0  0  0  0  0  0  0  0  0
   -2.3060   23.9870  -29.6250 C   0  0  0  0  0  0  0  0  0  0  0  0
   -3.3480   23.2940  -30.4140 C   0  0  0  0  0  0  0  0  0  0  0  0
   -4.7130   23.6410  -30.2590 C   0  0  0  0  0  0  0  0  0  0  0  0
   -4.9932   24.4340  -29.5500 H   0  0  0  0  0  0  0  0  0  0  0  0
   -5.7180   22.9850  -31.0000 C   0  0  0  0  0  0  0  0  0  0  0  0
   -7.1610   23.3720  -30.8520 C   0  0  0  0  0  0  0  0  0  0  0  0
   -7.4147   23.4400  -29.7838 H   0  0  0  0  0  0  0  0  0  0  0  0
   -7.3301   24.3472  -31.3319 H   0  0  0  0  0  0  0  0  0  0  0  0
   -7.7955   22.6123  -31.3319 H   0  0  0  0  0  0  0  0  0  0  0  0
   -5.3320   21.9910  -31.9090 C   0  0  0  0  0  0  0  0  0  0  0  0
   -6.1880   21.2910  -32.6970 N   0  0  0  0  0  0  0  0  0  0  0  0
   -5.5130   20.4040  -33.4700 C   0  0  0  0  0  0  0  0  0  0  0  0
   -6.0850   19.6050  -34.3180 N   0  0  0  0  0  0  0  0  0  0  0  0
   -5.8920   18.1560  -34.3440 C   0  0  0  0  0  0  0  0  0  0  0  0
   -6.0593   17.7875  -35.3668 H   0  0  0  0  0  0  0  0  0  0  0  0
   -4.8653   17.9294  -34.0207 H   0  0  0  0  0  0  0  0  0  0  0  0
   -6.8780   17.4600  -33.3880 C   0  0  0  0  0  0  0  0  0  0  0  0
   -7.8142   17.2611  -33.9302 H   0  0  0  0  0  0  0  0  0  0  0  0
   -6.4062   16.5290  -33.0408 H   0  0  0  0  0  0  0  0  0  0  0  0
   -7.1860   18.2820  -32.1930 N   0  0  0  0  0  0  0  0  0  0  0  0
   -6.9200   19.2790  -32.3780 H   0  0  0  0  0  0  0  0  0  0  0  0
   -8.6340   18.2500  -31.9220 C   0  0  0  0  0  0  0  0  0  0  0  0
   -8.8036   18.2463  -30.8352 H   0  0  0  0  0  0  0  0  0  0  0  0
   -9.1095   19.1379  -32.3643 H   0  0  0  0  0  0  0  0  0  0  0  0
   -9.0698   17.3420  -32.3643 H   0  0  0  0  0  0  0  0  0  0  0  0
   -6.4510   17.8120  -31.0030 C   0  0  0  0  0  0  0  0  0  0  0  0
   -6.9730   18.1458  -30.0941 H   0  0  0  0  0  0  0  0  0  0  0  0
   -6.3999   16.7132  -31.0139 H   0  0  0  0  0  0  0  0  0  0  0  0
   -5.4322   18.2266  -31.0139 H   0  0  0  0  0  0  0  0  0  0  0  0
   -3.8430   20.4440  -33.2110 S   0  0  0  0  0  0  0  0  0  0  0  0
   -3.9950   21.6580  -32.0570 C   0  0  0  0  0  0  0  0  0  0  0  0
   -2.9880   22.2830  -31.3300 C   0  0  0  0  0  0  0  0  0  0  0  0
   -1.9349   21.9959  -31.4658 H   0  0  0  0  0  0  0  0  0  0  0  0
   -1.1940   23.3750  -29.1640 N   0  0  0  0  0  0  0  0  0  0  0  0
   -0.5330   24.3470  -28.5120 C   0  0  0  0  0  0  0  0  0  0  0  0
    0.4312   24.2262  -27.9965 H   0  0  0  0  0  0  0  0  0  0  0  0
  1  2  1  0
  2  3  1  0
  3  4  2  0
  4  5  1  0
  5  6  2  0
  6  7  1  0
  6  8  1  0
  8  9  1  0
  9 10  1  0
  9 11  1  0
  9 12  1  0
  8 13  2  0
 13 14  1  0
 14 15  1  0
 15 16  2  0
 16 17  1  0
 17 18  1  0
 17 19  1  0
 17 20  1  0
 20 21  1  0
 20 22  1  0
 20 23  1  0
 23 24  1  0
 23 25  1  0
 25 26  1  0
 25 27  1  0
 25 28  1  0
 23 29  1  0
 29 30  1  0
 29 31  1  0
 29 32  1  0
 15 33  1  0
 33 34  1  0
 34 35  2  0
 35 36  1  0
  4 37  1  0
 37 38  1  0
 38 39  1  0
 38  2  2  0
 35  5  1  0
 34 13  1  0
M  CHG  3  14  -1  23   1  37  -1
M  END
>  <UniqueID>  (14) 
13

>  <SMILES>  (14) 
Cc1cc(-c2ncc[n-]2)cc2s/c(=N/CC[NH+](C)C)[n-]c12

>  <Energy>  (14) 
101.40055053651852

>  <Genealogy>  (14) 
Cc1cc(-c2ncc[n-]2)cc2sc(=NCC[NH+](C)C)[n-]c12 (protonated)
Cc1cc(-c2ncc[n-]2)cc2s/c(=N/CC[NH+](C)C)[n-]c12 (cis-trans isomerization)
Cc1cc(-c2ncc[n-]2)cc2s/c(=N/CC[NH+](C)C)[n-]c12 (3D coordinates assigned)
Cc1cc(-c2ncc[n-]2)cc2s/c(=N/CC[NH+](C)C)[n-]c12 (optimized conformer: 101.40055053651852 kcal/mol)

>  <smiles>  (14) 
Cc1cc(-c2ncc[nH]2)cc2sc(=NCCN(C)C)[nH]c12

>  <score_type>  (14) 
oracle

>  <origin>  (14) 
adg

>  <m_score__min__energy>  (14) 
-7.1500000000000004

>  <m_primary>  (14) 
energy

$$$$
14:0
     RDKit          3D

 30 31  0  0  0  0  0  0  0  0999 V2000
   -4.7320   17.3280  -34.9910 C   0  0  0  0  0  0  0  0  0  0  0  0
   -5.5370   17.7610  -33.8020 C   0  0  0  0  0  0  0  0  0  0  0  0
   -5.6720   16.9110  -32.6930 C   0  0  0  0  0  0  0  0  0  0  0  0
   -6.4480   17.3010  -31.5980 C   0  0  0  0  0  0  0  0  0  0  0  0
   -7.1040   18.5340  -31.6070 C   0  0  0  0  0  0  0  0  0  0  0  0
   -7.0020   19.3820  -32.7210 C   0  0  0  0  0  0  0  0  0  0  0  0
   -7.6920   20.7190  -32.7150 C   0  0  0  0  0  0  0  0  0  0  0  0
   -6.7930   21.7490  -32.1820 N   0  0  0  0  0  0  0  0  0  0  0  0
   -5.5260   21.7590  -32.6030 N   0  0  0  0  0  0  0  0  0  0  0  0
   -4.6430   22.6880  -32.1710 C   0  0  0  0  0  0  0  0  0  0  0  0
   -5.0700   23.6620  -31.2780 C   0  0  0  0  0  0  0  0  0  0  0  0
   -4.2420   24.5180  -30.8570 O   0  0  0  0  0  0  0  0  0  0  0  0
   -6.3760   23.6820  -30.8660 N   0  0  0  0  0  0  0  0  0  0  0  0
   -6.8360   24.6940  -29.9000 C   0  0  0  0  0  0  0  0  0  0  0  0
   -7.2350   22.7070  -31.3060 C   0  0  0  0  0  0  0  0  0  0  0  0
   -8.4330   22.6880  -30.9050 O   0  0  0  0  0  0  0  0  0  0  0  0
   -6.2140   18.9900  -33.8160 C   0  0  0  0  0  0  0  0  0  0  0  0
   -3.8111   16.8327  -34.6496 H   0  0  0  0  0  0  0  0  0  0  0  0
   -5.3227   16.6259  -35.5977 H   0  0  0  0  0  0  0  0  0  0  0  0
   -4.4718   18.2079  -35.5977 H   0  0  0  0  0  0  0  0  0  0  0  0
   -5.1653   15.9347  -32.6858 H   0  0  0  0  0  0  0  0  0  0  0  0
   -6.5423   16.6355  -30.7273 H   0  0  0  0  0  0  0  0  0  0  0  0
   -7.7032   18.8419  -30.7374 H   0  0  0  0  0  0  0  0  0  0  0  0
   -7.9800   20.9842  -33.7430 H   0  0  0  0  0  0  0  0  0  0  0  0
   -8.5873   20.6588  -32.0787 H   0  0  0  0  0  0  0  0  0  0  0  0
   -3.6007   22.6722  -32.5223 H   0  0  0  0  0  0  0  0  0  0  0  0
   -6.6690   24.3267  -28.8767 H   0  0  0  0  0  0  0  0  0  0  0  0
   -6.2736   25.6273  -30.0509 H   0  0  0  0  0  0  0  0  0  0  0  0
   -7.9089   24.8839  -30.0509 H   0  0  0  0  0  0  0  0  0  0  0  0
   -6.1271   19.6513  -34.6907 H   0  0  0  0  0  0  0  0  0  0  0  0
  1  2  1  0
  2  3  2  0
  3  4  1  0
  4  5  2  0
  5  6  1  0
  6  7  1  0
  7  8  1  0
  8  9  1  0
  9 10  2  0
 10 11  1  0
 11 12  2  0
 11 13  1  0
 13 14  1  0
 13 15  1  0
 15 16  2  0
  6 17  2  0
 17  2  1  0
 15  8  1  0
  1 18  1  0
  1 19  1  0
  1 20  1  0
  3 21  1  0
  4 22  1  0
  5 23  1  0
  7 24  1  0
  7 25  1  0
 10 26  1  0
 14 27  1  0
 14 28  1  0
 14 29  1  0
 17 30  1  0
M  END
>  <UniqueID>  (15) 
14

>  <SMILES>  (15) 
Cc1cccc(Cn2ncc(=O)n(C)c2=O)c1

>  <Energy>  (15) 
34.058168513316886

>  <Genealogy>  (15) 
Cc1cccc(Cn2ncc(=O)n(C)c2=O)c1 (3D coordinates assigned)
Cc1cccc(Cn2ncc(=O)n(C)c2=O)c1 (optimized conformer: 34.058168513316886 kcal/mol)

>  <smiles>  (15) 
Cc1cccc(Cn2ncc(=O)n(C)c2=O)c1

>  <score_type>  (15) 
oracle

>  <origin>  (15) 
adg

>  <m_score__min__energy>  (15) 
-6.6600000000000001

>  <m_primary>  (15) 
energy

$$$$
15:0
     RDKit          3D

 24 25  0  0  0  0  0  0  0  0999 V2000
   -5.7140   26.1120  -31.1690 O   0  0  0  0  0  0  0  0  0  0  0  0
   -5.2280   24.9030  -30.4220 S   0  0  0  0  0  0  0  0  0  0  0  0
   -5.7770   24.9330  -29.0240 O   0  0  0  0  0  0  0  0  0  0  0  0
   -3.4950   24.9310  -30.3590 N   0  0  0  0  0  0  0  0  0  0  0  0
   -2.6980   24.3830  -29.3000 C   0  0  0  0  0  0  0  0  0  0  0  0
   -3.1610   23.3420  -28.4750 C   0  0  0  0  0  0  0  0  0  0  0  0
   -2.3440   22.8350  -27.4590 C   0  0  0  0  0  0  0  0  0  0  0  0
   -1.0660   23.3610  -27.2560 C   0  0  0  0  0  0  0  0  0  0  0  0
   -0.5980   24.3990  -28.0690 C   0  0  0  0  0  0  0  0  0  0  0  0
    0.6780   24.9160  -27.8560 O   0  0  0  0  0  0  0  0  0  0  0  0
   -1.4160   24.9080  -29.0880 C   0  0  0  0  0  0  0  0  0  0  0  0
   -5.7720   23.4610  -31.2580 C   0  0  0  0  0  0  0  0  0  0  0  0
   -4.9530   22.4700  -31.7770 C   0  0  0  0  0  0  0  0  0  0  0  0
   -5.6720   21.4280  -32.3760 C   0  0  0  0  0  0  0  0  0  0  0  0
   -7.0490   21.6020  -32.3270 C   0  0  0  0  0  0  0  0  0  0  0  0
   -7.3760   23.0510  -31.5360 S   0  0  0  0  0  0  0  0  0  0  0  0
   -4.1675   22.9258  -28.6291 H   0  0  0  0  0  0  0  0  0  0  0  0
   -2.7092   22.0193  -26.8177 H   0  0  0  0  0  0  0  0  0  0  0  0
   -0.4269   22.9587  -26.4562 H   0  0  0  0  0  0  0  0  0  0  0  0
    1.3810   24.9070  -28.5860 H   0  0  0  0  0  0  0  0  0  0  0  0
   -1.0486   25.7255  -29.7257 H   0  0  0  0  0  0  0  0  0  0  0  0
   -3.8547   22.4991  -31.7239 H   0  0  0  0  0  0  0  0  0  0  0  0
   -5.1916   20.5546  -32.8412 H   0  0  0  0  0  0  0  0  0  0  0  0
   -7.7993   20.9095  -32.7362 H   0  0  0  0  0  0  0  0  0  0  0  0
  1  2  2  0
  2  3  2  0
  2  4  1  0
  4  5  1  0
  5  6  2  0
  6  7  1  0
  7  8  2  0
  8  9  1  0
  9 10  1  0
  9 11  2  0
  2 12  1  0
 12 13  2  0
 13 14  1  0
 14 15  2  0
 15 16  1  0
 11  5  1  0
 16 12  1  0
  6 17  1  0
  7 18  1  0
  8 19  1  0
 10 20  1  0
 11 21  1  0
 13 22  1  0
 14 23  1  0
 15 24  1  0
M  CHG  1   4  -1
M  END
>  <UniqueID>  (16) 
15

>  <SMILES>  (16) 
O=S(=O)([N-]c1cccc(O)c1)c1cccs1

>  <Energy>  (16) 
53.190232279870706

>  <Genealogy>  (16) 
O=S(=O)([N-]c1cccc(O)c1)c1cccs1 (protonated)
O=S(=O)([N-]c1cccc(O)c1)c1cccs1 (3D coordinates assigned)
O=S(=O)([N-]c1cccc(O)c1)c1cccs1 (optimized conformer: 53.190232279870706 kcal/mol)

>  <smiles>  (16) 
O=S(=O)(Nc1cccc(O)c1)c1cccs1

>  <score_type>  (16) 
oracle

>  <origin>  (16) 
adg

>  <m_score__min__energy>  (16) 
-7.5300000000000002

>  <m_primary>  (16) 
energy

$$$$
16:0
     RDKit          3D

 30 31  0  0  0  0  0  0  0  0999 V2000
   -8.9480   21.9230  -31.4840 C   0  0  0  0  0  0  0  0  0  0  0  0
   -9.0010   20.5450  -31.7000 C   0  0  0  0  0  0  0  0  0  0  0  0
   -7.9800   19.9150  -32.4120 C   0  0  0  0  0  0  0  0  0  0  0  0
   -6.9050   20.6760  -32.8970 C   0  0  0  0  0  0  0  0  0  0  0  0
   -5.8130   20.0220  -33.6990 C   0  0  0  0  0  0  0  0  0  0  0  0
   -4.4370   20.3400  -33.0910 C   0  0  0  0  0  0  0  0  0  0  0  0
   -4.1050   21.7740  -33.1800 N   0  0  0  0  0  0  0  0  0  0  0  0
   -3.3950   22.2640  -31.9900 C   0  0  0  0  0  0  0  0  0  0  0  0
   -4.2670   23.2030  -31.2160 C   0  0  0  0  0  0  0  0  0  0  0  0
   -4.2850   23.3400  -29.8420 C   0  0  0  0  0  0  0  0  0  0  0  0
   -5.2160   24.3230  -29.5820 C   0  0  0  0  0  0  0  0  0  0  0  0
   -5.7040   24.7240  -30.8110 C   0  0  0  0  0  0  0  0  0  0  0  0
   -5.1180   24.0380  -31.7650 O   0  0  0  0  0  0  0  0  0  0  0  0
   -6.8840   22.0250  -32.6850 N   0  0  0  0  0  0  0  0  0  0  0  0
   -7.8720   22.6530  -31.9910 C   0  0  0  0  0  0  0  0  0  0  0  0
   -9.7459   22.4283  -30.9201 H   0  0  0  0  0  0  0  0  0  0  0  0
   -9.8453   19.9576  -31.3100 H   0  0  0  0  0  0  0  0  0  0  0  0
   -8.0172   18.8304  -32.5919 H   0  0  0  0  0  0  0  0  0  0  0  0
   -5.9662   18.9327  -33.6990 H   0  0  0  0  0  0  0  0  0  0  0  0
   -5.8461   20.4086  -34.7283 H   0  0  0  0  0  0  0  0  0  0  0  0
   -4.4407   20.0426  -32.0320 H   0  0  0  0  0  0  0  0  0  0  0  0
   -3.6795   19.7826  -33.6615 H   0  0  0  0  0  0  0  0  0  0  0  0
   -3.5100   21.9470  -34.0240 H   0  0  0  0  0  0  0  0  0  0  0  0
   -3.1243   21.4102  -31.3515 H   0  0  0  0  0  0  0  0  0  0  0  0
   -2.4877   22.7981  -32.3087 H   0  0  0  0  0  0  0  0  0  0  0  0
   -3.6833   22.7823  -29.1093 H   0  0  0  0  0  0  0  0  0  0  0  0
   -5.5108   24.7100  -28.5954 H   0  0  0  0  0  0  0  0  0  0  0  0
   -6.4677   25.5003  -30.9666 H   0  0  0  0  0  0  0  0  0  0  0  0
   -6.0950   22.5990  -33.0610 H   0  0  0  0  0  0  0  0  0  0  0  0
   -7.8223   23.7399  -31.8291 H   0  0  0  0  0  0  0  0  0  0  0  0
  1  2  2  0
  2  3  1  0
  3  4  2  0
  4  5  1  0
  5  6  1  0
  6  7  1  0
  7  8  1  0
  8  9  1  0
  9 10  2  0
 10 11  1  0
 11 12  2  0
 12 13  1  0
  4 14  1  0
 14 15  2  0
 15  1  1  0
 13  9  1  0
  1 16  1  0
  2 17  1  0
  3 18  1  0
  5 19  1  0
  5 20  1  0
  6 21  1  0
  6 22  1  0
  7 23  1  0
  8 24  1  0
  8 25  1  0
 10 26  1  0
 11 27  1  0
 12 28  1  0
 14 29  1  0
 15 30  1  0
M  CHG  1  14   1
M  END
>  <UniqueID>  (17) 
16

>  <SMILES>  (17) 
c1ccc(CCNCc2ccco2)[nH+]c1

>  <Energy>  (17) 
53.49127496899867

>  <Genealogy>  (17) 
c1ccc(CCNCc2ccco2)[nH+]c1 (protonated)
c1ccc(CCNCc2ccco2)[nH+]c1 (3D coordinates assigned)
c1ccc(CCNCc2ccco2)[nH+]c1 (optimized conformer: 53.49127496899867 kcal/mol)

>  <smiles>  (17) 
c1ccc(CCNCc2ccco2)nc1

>  <score_type>  (17) 
oracle

>  <origin>  (17) 
adg

>  <m_score__min__energy>  (17) 
-6.3200000000000003

>  <m_primary>  (17) 
energy

$$$$
17:0
     RDKit          3D

 42 45  0  0  0  0  0  0  0  0999 V2000
   -2.0810   18.8230  -33.0200 C   0  0  0  0  0  0  0  0  0  0  0  0
   -2.8800   18.5570  -34.2920 C   0  0  0  0  0  0  0  0  0  0  0  0
   -4.2120   18.0370  -33.9610 N   0  0  0  0  0  0  0  0  0  0  0  0
   -4.7490   16.8030  -34.2040 C   0  0  0  0  0  0  0  0  0  0  0  0
   -4.0710   15.6920  -34.9160 C   0  0  0  0  0  0  0  0  0  0  0  0
   -4.2040   14.3720  -34.4630 C   0  0  0  0  0  0  0  0  0  0  0  0
   -3.5800   13.3430  -35.1640 C   0  0  0  0  0  0  0  0  0  0  0  0
   -2.8450   13.6480  -36.3070 C   0  0  0  0  0  0  0  0  0  0  0  0
   -2.7510   14.9390  -36.7180 N   0  0  0  0  0  0  0  0  0  0  0  0
   -3.3490   15.9240  -36.0450 N   0  0  0  0  0  0  0  0  0  0  0  0
   -6.0210   16.6790  -33.7390 N   0  0  0  0  0  0  0  0  0  0  0  0
   -6.2790   17.8850  -33.2050 C   0  0  0  0  0  0  0  0  0  0  0  0
   -7.4570   18.3050  -32.5950 C   0  0  0  0  0  0  0  0  0  0  0  0
   -7.5130   19.6260  -32.1160 C   0  0  0  0  0  0  0  0  0  0  0  0
   -6.4020   20.4960  -32.2610 C   0  0  0  0  0  0  0  0  0  0  0  0
   -6.4720   21.8490  -31.7640 N   0  0  0  0  0  0  0  0  0  0  0  0
   -5.3160   22.4670  -31.3700 C   0  0  0  0  0  0  0  0  0  0  0  0
   -5.3310   23.7850  -30.8880 C   0  0  0  0  0  0  0  0  0  0  0  0
   -4.0760   24.4480  -30.4680 C   0  0  0  0  0  0  0  0  0  0  0  0
   -3.8690   25.6600  -30.7420 O   0  0  0  0  0  0  0  0  0  0  0  0
   -3.1080   23.7410  -29.7630 O   0  0  0  0  0  0  0  0  0  0  0  0
   -6.5570   24.4580  -30.8170 C   0  0  0  0  0  0  0  0  0  0  0  0
   -7.7280   23.8200  -31.2160 C   0  0  0  0  0  0  0  0  0  0  0  0
   -7.6750   22.5060  -31.6860 C   0  0  0  0  0  0  0  0  0  0  0  0
   -8.7480   21.9330  -32.0220 O   0  0  0  0  0  0  0  0  0  0  0  0
   -5.2220   20.0270  -32.8820 C   0  0  0  0  0  0  0  0  0  0  0  0
   -5.2030   18.7070  -33.3420 C   0  0  0  0  0  0  0  0  0  0  0  0
   -2.7094   18.6138  -32.1418 H   0  0  0  0  0  0  0  0  0  0  0  0
   -1.1950   18.1714  -33.0005 H   0  0  0  0  0  0  0  0  0  0  0  0
   -1.7624   19.8757  -33.0005 H   0  0  0  0  0  0  0  0  0  0  0  0
   -2.9872   19.4956  -34.8555 H   0  0  0  0  0  0  0  0  0  0  0  0
   -2.3464   17.8104  -34.8986 H   0  0  0  0  0  0  0  0  0  0  0  0
   -4.7956   14.1511  -33.5624 H   0  0  0  0  0  0  0  0  0  0  0  0
   -3.6666   12.3021  -34.8191 H   0  0  0  0  0  0  0  0  0  0  0  0
   -2.3441   12.8488  -36.8730 H   0  0  0  0  0  0  0  0  0  0  0  0
   -2.2030   15.1660  -37.5770 H   0  0  0  0  0  0  0  0  0  0  0  0
   -8.3162   17.6261  -32.4909 H   0  0  0  0  0  0  0  0  0  0  0  0
   -8.4276   19.9883  -31.6239 H   0  0  0  0  0  0  0  0  0  0  0  0
   -4.3619   21.9230  -31.4320 H   0  0  0  0  0  0  0  0  0  0  0  0
   -6.5947   25.4926  -30.4453 H   0  0  0  0  0  0  0  0  0  0  0  0
   -8.6911   24.3486  -31.1613 H   0  0  0  0  0  0  0  0  0  0  0  0
   -4.3453   20.6808  -32.9997 H   0  0  0  0  0  0  0  0  0  0  0  0
  1  2  1  0
  2  3  1  0
  3  4  1  0
  4  5  1  0
  5  6  2  0
  6  7  1  0
  7  8  2  0
  8  9  1  0
  9 10  2  0
  4 11  2  0
 11 12  1  0
 12 13  2  0
 13 14  1  0
 14 15  2  0
 15 16  1  0
 16 17  1  0
 17 18  2  0
 18 19  1  0
 19 20  2  0
 19 21  1  0
 18 22  1  0
 22 23  2  0
 23 24  1  0
 24 25  2  0
 15 26  1  0
 26 27  2  0
 27  3  1  0
 10  5  1  0
 27 12  1  0
 24 16  1  0
  1 28  1  0
  1 29  1  0
  1 30  1  0
  2 31  1  0
  2 32  1  0
  6 33  1  0
  7 34  1  0
  8 35  1  0
  9 36  1  0
 13 37  1  0
 14 38  1  0
 17 39  1  0
 22 40  1  0
 23 41  1  0
 26 42  1  0
M  CHG  2   9   1  21  -1
M  END
>  <UniqueID>  (18) 
17

>  <SMILES>  (18) 
CCn1c(-c2ccc[nH+]n2)nc2ccc(-n3cc(C(=O)[O-])ccc3=O)cc21

>  <Energy>  (18) 
93.35914163602784

>  <Genealogy>  (18) 
CCn1c(-c2ccc[nH+]n2)nc2ccc(-n3cc(C(=O)[O-])ccc3=O)cc21 (protonated)
CCn1c(-c2ccc[nH+]n2)nc2ccc(-n3cc(C(=O)[O-])ccc3=O)cc21 (3D coordinates assigned)
CCn1c(-c2ccc[nH+]n2)nc2ccc(-n3cc(C(=O)[O-])ccc3=O)cc21 (optimized conformer: 93.35914163602784 kcal/mol)

>  <smiles>  (18) 
CCn1c(-c2cccnn2)nc2ccc(-n3cc(C(=O)O)ccc3=O)cc21

>  <score_type>  (18) 
oracle

>  <origin>  (18) 
adg

>  <m_score__min__energy>  (18) 
-9.6899999999999995

>  <m_primary>  (18) 
energy

$$$$
18:0
     RDKit          3D

 48 50  0  0  0  0  0  0  0  0999 V2000
   -5.6866   25.1168  -31.6216 H   0  0  0  0  0  0  0  0  0  0  0  0
   -5.0760   24.6720  -30.8220 C   0  0  0  0  0  0  0  0  0  0  0  0
   -3.8670   25.2120  -30.5120 N   0  0  0  0  0  0  0  0  0  0  0  0
   -3.0750   24.7090  -29.5270 C   0  0  0  0  0  0  0  0  0  0  0  0
   -1.9350   25.2930  -29.2870 N   0  0  0  0  0  0  0  0  0  0  0  0
   -1.2560   25.3580  -27.9960 C   0  0  0  0  0  0  0  0  0  0  0  0
   -1.9983   25.2869  -27.1873 H   0  0  0  0  0  0  0  0  0  0  0  0
   -0.5435   24.5240  -27.9140 H   0  0  0  0  0  0  0  0  0  0  0  0
   -0.7147   26.3121  -27.9140 H   0  0  0  0  0  0  0  0  0  0  0  0
   -3.5180   23.5860  -28.7990 C   0  0  0  0  0  0  0  0  0  0  0  0
   -2.8930   23.1622  -27.9992 H   0  0  0  0  0  0  0  0  0  0  0  0
   -4.7560   23.0160  -29.1010 C   0  0  0  0  0  0  0  0  0  0  0  0
   -5.1119   22.1443  -28.5323 H   0  0  0  0  0  0  0  0  0  0  0  0
   -5.5460   23.5510  -30.1260 C   0  0  0  0  0  0  0  0  0  0  0  0
   -6.8980   22.9660  -30.4300 C   0  0  0  0  0  0  0  0  0  0  0  0
   -7.4253   22.7580  -29.4873 H   0  0  0  0  0  0  0  0  0  0  0  0
   -7.4759   23.6845  -31.0298 H   0  0  0  0  0  0  0  0  0  0  0  0
   -6.7420   21.6860  -31.2070 C   0  0  0  0  0  0  0  0  0  0  0  0
   -5.7840   20.9640  -30.9600 O   0  0  0  0  0  0  0  0  0  0  0  0
   -7.6900   21.3270  -32.2510 N   0  0  1  0  0  0  0  0  0  0  0  0
   -8.1780   22.2010  -32.5590 H   0  0  0  0  0  0  0  0  0  0  0  0
   -7.0170   20.7900  -33.4540 C   0  0  0  0  0  0  0  0  0  0  0  0
   -6.1192   21.3944  -33.6506 H   0  0  0  0  0  0  0  0  0  0  0  0
   -7.7405   20.8402  -34.2811 H   0  0  0  0  0  0  0  0  0  0  0  0
   -6.6000   19.3440  -33.3120 C   0  0  0  0  0  0  0  0  0  0  0  0
   -5.6550   18.8170  -34.2030 C   0  0  0  0  0  0  0  0  0  0  0  0
   -5.2005   19.4701  -34.9625 H   0  0  0  0  0  0  0  0  0  0  0  0
   -5.2810   17.4620  -34.1370 C   0  0  0  0  0  0  0  0  0  0  0  0
   -4.3350   16.9080  -35.0170 O   0  0  0  0  0  0  0  0  0  0  0  0
   -2.9510   16.7510  -34.7180 C   0  0  0  0  0  0  0  0  0  0  0  0
   -2.8111   16.7351  -33.6271 H   0  0  0  0  0  0  0  0  0  0  0  0
   -2.5879   15.8059  -35.1480 H   0  0  0  0  0  0  0  0  0  0  0  0
   -2.3854   17.5907  -35.1480 H   0  0  0  0  0  0  0  0  0  0  0  0
   -5.8630   16.6290  -33.1720 C   0  0  0  0  0  0  0  0  0  0  0  0
   -5.4610   15.2850  -33.1230 O   0  0  0  0  0  0  0  0  0  0  0  0
   -4.5970   14.7350  -32.1320 C   0  0  0  0  0  0  0  0  0  0  0  0
   -4.9831   14.9808  -31.1317 H   0  0  0  0  0  0  0  0  0  0  0  0
   -4.5528   13.6422  -32.2497 H   0  0  0  0  0  0  0  0  0  0  0  0
   -3.5882   15.1575  -32.2497 H   0  0  0  0  0  0  0  0  0  0  0  0
   -6.8260   17.1530  -32.2900 C   0  0  0  0  0  0  0  0  0  0  0  0
   -7.2811   16.4997  -31.5310 H   0  0  0  0  0  0  0  0  0  0  0  0
   -7.2120   18.4990  -32.3680 C   0  0  0  0  0  0  0  0  0  0  0  0
   -8.2140   19.0290  -31.3770 C   0  0  0  0  0  0  0  0  0  0  0  0
   -7.7319   19.0960  -30.3906 H   0  0  0  0  0  0  0  0  0  0  0  0
   -9.0686   18.3365  -31.3656 H   0  0  0  0  0  0  0  0  0  0  0  0
   -8.7470   20.4180  -31.7590 C   0  0  0  0  0  0  0  0  0  0  0  0
   -9.2135   20.8707  -30.8716 H   0  0  0  0  0  0  0  0  0  0  0  0
   -9.4692   20.2798  -32.5771 H   0  0  0  0  0  0  0  0  0  0  0  0
  1  2  1  0
  2  3  1  0
  3  4  1  0
  4  5  2  0
  5  6  1  0
  6  7  1  0
  6  8  1  0
  6  9  1  0
  4 10  1  0
 10 11  1  0
 10 12  2  0
 12 13  1  0
 12 14  1  0
 14 15  1  0
 15 16  1  0
 15 17  1  0
 15 18  1  0
 18 19  2  0
 18 20  1  0
 20 21  1  6
 20 22  1  0
 22 23  1  0
 22 24  1  0
 22 25  1  0
 25 26  2  0
 26 27  1  0
 26 28  1  0
 28 29  1  0
 29 30  1  0
 30 31  1  0
 30 32  1  0
 30 33  1  0
 28 34  2  0
 34 35  1  0
 35 36  1  0
 36 37  1  0
 36 38  1  0
 36 39  1  0
 34 40  1  0
 40 41  1  0
 40 42  2  0
 42 43  1  0
 43 44  1  0
 43 45  1  0
 43 46  1  0
 46 47  1  0
 46 48  1  0
 14  2  2  0
 46 20  1  0
 42 25  1  0
M  CHG  2   3  -1  20   1
M  END
>  <UniqueID>  (19) 
18

>  <SMILES>  (19) 
C/N=c1\ccc(CC(=O)[N@@H+]2CCc3cc(OC)c(OC)cc3C2)c[n-]1

>  <Energy>  (19) 
54.398299664321385

>  <Genealogy>  (19) 
CN=c1ccc(CC(=O)[NH+]2CCc3cc(OC)c(OC)cc3C2)c[n-]1 (protonated)
CN=c1ccc(CC(=O)[N@@H+]2CCc3cc(OC)c(OC)cc3C2)c[n-]1 (chirality)
C/N=c1\ccc(CC(=O)[N@@H+]2CCc3cc(OC)c(OC)cc3C2)c[n-]1 (cis-trans isomerization)
C/N=c1\ccc(CC(=O)[N@@H+]2CCc3cc(OC)c(OC)cc3C2)c[n-]1 (3D coordinates assigned)
C/N=c1\ccc(CC(=O)[N@@H+]2CCc3cc(OC)c(OC)cc3C2)c[n-]1 (nonaromatic ring conformer: 54.398299664321385 kcal/mol)

>  <smiles>  (19) 
CN=c1ccc(CC(=O)N2CCc3cc(OC)c(OC)cc3C2)c[nH]1

>  <score_type>  (19) 
oracle

>  <origin>  (19) 
adg

>  <m_score__min__energy>  (19) 
-9.2200000000000006

>  <m_primary>  (19) 
energy

$$$$
19:0
     RDKit          3D

 43 45  0  0  0  0  0  0  0  0999 V2000
   -3.3370   24.5210  -29.6220 C   0  0  0  0  0  0  0  0  0  0  0  0
   -4.1390   24.1740  -30.8080 N   0  0  0  0  0  0  0  0  0  0  0  0
   -5.3840   24.9590  -30.8040 C   0  0  0  0  0  0  0  0  0  0  0  0
   -4.4460   22.7290  -30.8430 C   0  0  0  0  0  0  0  0  0  0  0  0
   -3.7300   22.0310  -32.0090 C   0  0  0  0  0  0  0  0  0  0  0  0
   -4.6550   21.7260  -33.1050 N   0  0  0  0  0  0  0  0  0  0  0  0
   -5.7840   20.8520  -32.9290 C   0  0  0  0  0  0  0  0  0  0  0  0
   -7.0160   21.3690  -32.4940 C   0  0  0  0  0  0  0  0  0  0  0  0
   -7.2150   22.7610  -32.3710 C   0  0  0  0  0  0  0  0  0  0  0  0
   -8.4430   23.2700  -31.9560 C   0  0  0  0  0  0  0  0  0  0  0  0
   -9.4960   22.4070  -31.6750 C   0  0  0  0  0  0  0  0  0  0  0  0
   -9.3220   21.0280  -31.7870 C   0  0  0  0  0  0  0  0  0  0  0  0
   -8.0730   20.4770  -32.1690 C   0  0  0  0  0  0  0  0  0  0  0  0
   -7.8710   19.1100  -32.2400 N   0  0  0  0  0  0  0  0  0  0  0  0
   -8.8470   18.1850  -31.6250 C   0  0  0  0  0  0  0  0  0  0  0  0
   -6.7510   18.6120  -32.8800 C   0  0  0  0  0  0  0  0  0  0  0  0
   -6.6450   17.2430  -33.2380 C   0  0  0  0  0  0  0  0  0  0  0  0
   -5.5040   16.7530  -33.8720 C   0  0  0  0  0  0  0  0  0  0  0  0
   -4.4550   17.6080  -34.1870 C   0  0  0  0  0  0  0  0  0  0  0  0
   -4.5440   18.9630  -33.8760 C   0  0  0  0  0  0  0  0  0  0  0  0
   -5.6790   19.4800  -33.2170 C   0  0  0  0  0  0  0  0  0  0  0  0
   -3.9037   24.2758  -28.7116 H   0  0  0  0  0  0  0  0  0  0  0  0
   -2.3976   23.9488  -29.6344 H   0  0  0  0  0  0  0  0  0  0  0  0
   -3.1109   25.5974  -29.6344 H   0  0  0  0  0  0  0  0  0  0  0  0
   -5.6918   25.1531  -29.7659 H   0  0  0  0  0  0  0  0  0  0  0  0
   -5.2163   25.9150  -31.3215 H   0  0  0  0  0  0  0  0  0  0  0  0
   -6.1744   24.3956  -31.3215 H   0  0  0  0  0  0  0  0  0  0  0  0
   -4.1200   22.2710  -29.8975 H   0  0  0  0  0  0  0  0  0  0  0  0
   -5.5306   22.6092  -30.9818 H   0  0  0  0  0  0  0  0  0  0  0  0
   -2.9348   22.6909  -32.3861 H   0  0  0  0  0  0  0  0  0  0  0  0
   -3.3113   21.0838  -31.6383 H   0  0  0  0  0  0  0  0  0  0  0  0
   -4.5350   22.2240  -34.0160 H   0  0  0  0  0  0  0  0  0  0  0  0
   -6.3912   23.4512  -32.6055 H   0  0  0  0  0  0  0  0  0  0  0  0
   -8.5800   24.3563  -31.8504 H   0  0  0  0  0  0  0  0  0  0  0  0
  -10.4696   22.8132  -31.3633 H   0  0  0  0  0  0  0  0  0  0  0  0
  -10.1675   20.3569  -31.5755 H   0  0  0  0  0  0  0  0  0  0  0  0
   -8.7759   18.2523  -30.5294 H   0  0  0  0  0  0  0  0  0  0  0  0
   -9.8634   18.4592  -31.9441 H   0  0  0  0  0  0  0  0  0  0  0  0
   -8.6277   17.1554  -31.9441 H   0  0  0  0  0  0  0  0  0  0  0  0
   -7.4755   16.5581  -33.0119 H   0  0  0  0  0  0  0  0  0  0  0  0
   -5.4339   15.6846  -34.1240 H   0  0  0  0  0  0  0  0  0  0  0  0
   -3.5546   17.2151  -34.6818 H   0  0  0  0  0  0  0  0  0  0  0  0
   -3.7191   19.6381  -34.1477 H   0  0  0  0  0  0  0  0  0  0  0  0
  1  2  1  0
  2  3  1  0
  2  4  1  0
  4  5  1  0
  5  6  1  0
  6  7  1  0
  7  8  2  0
  8  9  1  0
  9 10  2  0
 10 11  1  0
 11 12  2  0
 12 13  1  0
 13 14  2  0
 14 15  1  0
 14 16  1  0
 16 17  2  0
 17 18  1  0
 18 19  2  0
 19 20  1  0
 20 21  2  0
 21  7  1  0
 13  8  1  0
 21 16  1  0
  1 22  1  0
  1 23  1  0
  1 24  1  0
  3 25  1  0
  3 26  1  0
  3 27  1  0
  4 28  1  0
  4 29  1  0
  5 30  1  0
  5 31  1  0
  6 32  1  0
  9 33  1  0
 10 34  1  0
 11 35  1  0
 12 36  1  0
 15 37  1  0
 15 38  1  0
 15 39  1  0
 17 40  1  0
 18 41  1  0
 19 42  1  0
 20 43  1  0
M  CHG  1  14   1
M  END
>  <UniqueID>  (20) 
19

>  <SMILES>  (20) 
CN(C)CCNc1c2ccccc2[n+](C)c2ccccc12

>  <Energy>  (20) 
68.57886667170503

>  <Genealogy>  (20) 
CN(C)CCNc1c2ccccc2[n+](C)c2ccccc12 (3D coordinates assigned)
CN(C)CCNc1c2ccccc2[n+](C)c2ccccc12 (optimized conformer: 68.57886667170503 kcal/mol)

>  <smiles>  (20) 
CN(C)CCNc1c2ccccc2[n+](C)c2ccccc12

>  <score_type>  (20) 
oracle

>  <origin>  (20) 
adg

>  <m_score__min__energy>  (20) 
-8.1799999999999997

>  <m_primary>  (20) 
energy

$$$$
20:0
     RDKit          3D

 50 53  0  0  0  0  0  0  0  0999 V2000
   -7.1930   17.8990  -32.4330 C   0  0  0  0  0  0  0  0  0  0  0  0
   -6.9410   19.2620  -33.0660 C   0  0  0  0  0  0  0  0  0  0  0  0
   -7.7520   20.2890  -32.4100 N   0  0  0  0  0  0  0  0  0  0  0  0
   -9.0980   20.3160  -32.3620 C   0  0  0  0  0  0  0  0  0  0  0  0
   -9.4860   21.4410  -31.6650 C   0  0  0  0  0  0  0  0  0  0  0  0
   -8.3840   22.1150  -31.2860 N   0  0  0  0  0  0  0  0  0  0  0  0
   -7.3420   21.4080  -31.7690 C   0  0  0  0  0  0  0  0  0  0  0  0
   -5.9040   21.7900  -31.5230 C   0  0  0  0  0  0  0  0  0  0  0  0
   -5.8020   23.0100  -30.6930 N   0  0  0  0  0  0  0  0  0  0  0  0
   -5.9460   24.2470  -31.5130 C   0  0  0  0  0  0  0  0  0  0  0  0
   -5.2730   25.4860  -30.8470 C   0  0  0  0  0  0  0  0  0  0  0  0
   -3.9020   25.3160  -30.4760 O   0  0  0  0  0  0  0  0  0  0  0  0
   -3.5230   23.9530  -30.4500 C   0  0  1  0  0  0  0  0  0  0  0  0
   -2.3130   23.6730  -29.5690 C   0  0  0  0  0  0  0  0  0  0  0  0
   -2.5010   22.3220  -28.9900 N   0  0  0  0  0  0  0  0  0  0  0  0
   -1.3910   21.4140  -29.3390 C   0  0  0  0  0  0  0  0  0  0  0  0
   -1.3860   20.2110  -28.4330 C   0  0  0  0  0  0  0  0  0  0  0  0
   -0.3710   19.2500  -28.5470 C   0  0  0  0  0  0  0  0  0  0  0  0
   -0.3620   18.1530  -27.6810 C   0  0  0  0  0  0  0  0  0  0  0  0
   -1.3260   18.0270  -26.7300 N   0  0  0  0  0  0  0  0  0  0  0  0
   -2.3170   18.9480  -26.5930 C   0  0  0  0  0  0  0  0  0  0  0  0
   -2.3630   20.0580  -27.4390 C   0  0  0  0  0  0  0  0  0  0  0  0
   -3.8090   21.8300  -29.4760 C   0  0  0  0  0  0  0  0  0  0  0  0
   -4.5940   23.0890  -29.8260 C   0  0  2  0  0  0  0  0  0  0  0  0
   -7.1753   17.9947  -31.3373 H   0  0  0  0  0  0  0  0  0  0  0  0
   -8.1760   17.5225  -32.7524 H   0  0  0  0  0  0  0  0  0  0  0  0
   -6.4096   17.1959  -32.7524 H   0  0  0  0  0  0  0  0  0  0  0  0
   -5.8767   19.5190  -32.9606 H   0  0  0  0  0  0  0  0  0  0  0  0
   -7.2163   19.2168  -34.1300 H   0  0  0  0  0  0  0  0  0  0  0  0
   -9.7728   19.5680  -32.8036 H   0  0  0  0  0  0  0  0  0  0  0  0
  -10.5238   21.7383  -31.4538 H   0  0  0  0  0  0  0  0  0  0  0  0
   -8.3510   22.9990  -30.7320 H   0  0  0  0  0  0  0  0  0  0  0  0
   -5.3977   20.9620  -31.0053 H   0  0  0  0  0  0  0  0  0  0  0  0
   -5.4295   21.9926  -32.4945 H   0  0  0  0  0  0  0  0  0  0  0  0
   -5.4786   24.0764  -32.4941 H   0  0  0  0  0  0  0  0  0  0  0  0
   -7.0206   24.4614  -31.6090 H   0  0  0  0  0  0  0  0  0  0  0  0
   -5.3309   26.3252  -31.5558 H   0  0  0  0  0  0  0  0  0  0  0  0
   -5.8207   25.6598  -29.9090 H   0  0  0  0  0  0  0  0  0  0  0  0
   -3.3250   23.7273  -31.5082 H   0  0  0  0  0  0  0  0  0  0  0  0
   -1.3929   23.7011  -30.1711 H   0  0  0  0  0  0  0  0  0  0  0  0
   -2.2213   24.4302  -28.7763 H   0  0  0  0  0  0  0  0  0  0  0  0
   -1.5097   21.0816  -30.3808 H   0  0  0  0  0  0  0  0  0  0  0  0
   -0.4400   21.9533  -29.2179 H   0  0  0  0  0  0  0  0  0  0  0  0
    0.4119   19.3587  -29.3120 H   0  0  0  0  0  0  0  0  0  0  0  0
    0.4259   17.3905  -27.7688 H   0  0  0  0  0  0  0  0  0  0  0  0
   -3.0835   18.8185  -25.8147 H   0  0  0  0  0  0  0  0  0  0  0  0
   -3.1604   20.8073  -27.3264 H   0  0  0  0  0  0  0  0  0  0  0  0
   -3.6782   21.1954  -30.3649 H   0  0  0  0  0  0  0  0  0  0  0  0
   -4.3257   21.2143  -28.7251 H   0  0  0  0  0  0  0  0  0  0  0  0
   -5.0860   23.4553  -28.9129 H   0  0  0  0  0  0  0  0  0  0  0  0
  1  2  1  0
  2  3  1  0
  3  4  1  0
  4  5  2  0
  5  6  1  0
  6  7  2  0
  7  8  1  0
  8  9  1  0
  9 10  1  0
 10 11  1  0
 11 12  1  0
 12 13  1  0
 13 14  1  0
 14 15  1  0
 15 16  1  0
 16 17  1  0
 17 18  2  0
 18 19  1  0
 19 20  2  0
 20 21  1  0
 21 22  2  0
 15 23  1  0
 23 24  1  0
  7  3  1  0
 24  9  1  0
 24 13  1  0
 22 17  1  0
  1 25  1  0
  1 26  1  0
  1 27  1  0
  2 28  1  0
  2 29  1  0
  4 30  1  0
  5 31  1  0
  6 32  1  0
  8 33  1  0
  8 34  1  0
 10 35  1  0
 10 36  1  0
 11 37  1  0
 11 38  1  0
 13 39  1  6
 14 40  1  0
 14 41  1  0
 16 42  1  0
 16 43  1  0
 18 44  1  0
 19 45  1  0
 21 46  1  0
 22 47  1  0
 23 48  1  0
 23 49  1  0
 24 50  1  1
M  CHG  1   6   1
M  END
>  <UniqueID>  (21) 
20

>  <SMILES>  (21) 
CCn1cc[nH+]c1CN1CCO[C@H]2CN(Cc3ccncc3)C[C@@H]21

>  <Energy>  (21) 
109.80968769449464

>  <Genealogy>  (21) 
CCn1cc[nH+]c1CN1CCOC2CN(Cc3ccncc3)CC21 (protonated)
CCn1cc[nH+]c1CN1CCO[C@H]2CN(Cc3ccncc3)C[C@@H]21 (chirality)
CCn1cc[nH+]c1CN1CCO[C@H]2CN(Cc3ccncc3)C[C@@H]21 (3D coordinates assigned)
CCn1cc[nH+]c1CN1CCO[C@H]2CN(Cc3ccncc3)C[C@@H]21 (nonaromatic ring conformer: 109.80968769449464 kcal/mol)

>  <smiles>  (21) 
CCn1ccnc1CN1CCOC2CN(Cc3ccncc3)CC21

>  <score_type>  (21) 
oracle

>  <origin>  (21) 
adg

>  <m_score__min__energy>  (21) 
-7.8300000000000001

>  <m_primary>  (21) 
energy

$$$$
21:0
     RDKit          3D

 55 58  0  0  0  0  0  0  0  0999 V2000
   -1.2070   26.1720  -28.4490 C   0  0  0  0  0  0  0  0  0  0  0  0
   -2.0080   25.2860  -29.2240 O   0  0  0  0  0  0  0  0  0  0  0  0
   -2.1700   23.9170  -28.9550 C   0  0  0  0  0  0  0  0  0  0  0  0
   -1.2870   23.2180  -28.1090 C   0  0  0  0  0  0  0  0  0  0  0  0
   -1.4870   21.8610  -27.8430 C   0  0  0  0  0  0  0  0  0  0  0  0
   -2.5670   21.1890  -28.4130 C   0  0  0  0  0  0  0  0  0  0  0  0
   -3.4480   21.8690  -29.2560 C   0  0  0  0  0  0  0  0  0  0  0  0
   -3.2580   23.2320  -29.5350 C   0  0  0  0  0  0  0  0  0  0  0  0
   -4.1640   23.9080  -30.4280 N   0  0  0  0  0  0  0  0  0  0  0  0
   -4.6050   25.2780  -30.1520 C   0  0  0  0  0  0  0  0  0  0  0  0
   -6.1420   25.3390  -30.0020 C   0  0  0  0  0  0  0  0  0  0  0  0
   -6.8630   24.2480  -30.7090 N   0  0  0  0  0  0  0  0  0  0  0  0
   -7.2380   23.1500  -29.7830 C   0  0  0  0  0  0  0  0  0  0  0  0
   -7.7830   21.9090  -30.5070 C   0  0  0  0  0  0  0  0  0  0  0  0
   -8.8870   22.2630  -31.5190 C   0  0  0  0  0  0  0  0  0  0  0  0
   -9.4050   21.0250  -32.2620 C   0  0  0  0  0  0  0  0  0  0  0  0
   -8.2930   20.0660  -32.5570 C   0  0  0  0  0  0  0  0  0  0  0  0
   -8.4670   18.7260  -32.6790 N   0  0  0  0  0  0  0  0  0  0  0  0
   -7.2400   18.2820  -32.9870 C   0  0  0  0  0  0  0  0  0  0  0  0
   -6.8230   16.9780  -33.2400 C   0  0  0  0  0  0  0  0  0  0  0  0
   -5.4650   16.7770  -33.5530 C   0  0  0  0  0  0  0  0  0  0  0  0
   -4.5730   17.8740  -33.6080 C   0  0  0  0  0  0  0  0  0  0  0  0
   -5.0310   19.1810  -33.3490 C   0  0  0  0  0  0  0  0  0  0  0  0
   -3.9440   20.5550  -33.4190 Cl  0  0  0  0  0  0  0  0  0  0  0  0
   -6.3800   19.3410  -33.0420 C   0  0  0  0  0  0  0  0  0  0  0  0
   -7.0420   20.4400  -32.7740 O   0  0  0  0  0  0  0  0  0  0  0  0
   -6.1290   23.7980  -31.9150 C   0  0  0  0  0  0  0  0  0  0  0  0
   -4.7650   23.1890  -31.5580 C   0  0  0  0  0  0  0  0  0  0  0  0
   -1.3793   25.9814  -27.3794 H   0  0  0  0  0  0  0  0  0  0  0  0
   -0.1452   26.0072  -28.6844 H   0  0  0  0  0  0  0  0  0  0  0  0
   -1.4777   27.2119  -28.6844 H   0  0  0  0  0  0  0  0  0  0  0  0
   -0.4343   23.7439  -27.6547 H   0  0  0  0  0  0  0  0  0  0  0  0
   -0.7913   21.3223  -27.1829 H   0  0  0  0  0  0  0  0  0  0  0  0
   -2.7253   20.1218  -28.1984 H   0  0  0  0  0  0  0  0  0  0  0  0
   -4.2972   21.3331  -29.7049 H   0  0  0  0  0  0  0  0  0  0  0  0
   -4.1373   25.6266  -29.2194 H   0  0  0  0  0  0  0  0  0  0  0  0
   -4.3066   25.9211  -30.9931 H   0  0  0  0  0  0  0  0  0  0  0  0
   -6.3876   25.2787  -28.9315 H   0  0  0  0  0  0  0  0  0  0  0  0
   -6.4688   26.2845  -30.4593 H   0  0  0  0  0  0  0  0  0  0  0  0
   -6.3467   22.8568  -29.2088 H   0  0  0  0  0  0  0  0  0  0  0  0
   -8.0408   23.5291  -29.1335 H   0  0  0  0  0  0  0  0  0  0  0  0
   -6.9559   21.4196  -31.0421 H   0  0  0  0  0  0  0  0  0  0  0  0
   -8.2209   21.2420  -29.7498 H   0  0  0  0  0  0  0  0  0  0  0  0
   -9.7249   22.7307  -30.9812 H   0  0  0  0  0  0  0  0  0  0  0  0
   -8.4579   22.9504  -32.2628 H   0  0  0  0  0  0  0  0  0  0  0  0
  -10.1576   20.5208  -31.6380 H   0  0  0  0  0  0  0  0  0  0  0  0
   -9.8467   21.3503  -33.2155 H   0  0  0  0  0  0  0  0  0  0  0  0
   -9.3470   18.1740  -32.5750 H   0  0  0  0  0  0  0  0  0  0  0  0
   -7.5288   16.1354  -33.1969 H   0  0  0  0  0  0  0  0  0  0  0  0
   -5.0953   15.7611  -33.7560 H   0  0  0  0  0  0  0  0  0  0  0  0
   -3.5144   17.7052  -33.8547 H   0  0  0  0  0  0  0  0  0  0  0  0
   -6.7318   23.0401  -32.4366 H   0  0  0  0  0  0  0  0  0  0  0  0
   -5.9549   24.6745  -32.5564 H   0  0  0  0  0  0  0  0  0  0  0  0
   -4.9002   22.1321  -31.2846 H   0  0  0  0  0  0  0  0  0  0  0  0
   -4.0982   23.2715  -32.4290 H   0  0  0  0  0  0  0  0  0  0  0  0
  1  2  1  0
  2  3  1  0
  3  4  2  0
  4  5  1  0
  5  6  2  0
  6  7  1  0
  7  8  2  0
  8  9  1  0
  9 10  1  0
 10 11  1  0
 11 12  1  0
 12 13  1  0
 13 14  1  0
 14 15  1  0
 15 16  1  0
 16 17  1  0
 17 18  2  0
 18 19  1  0
 19 20  2  0
 20 21  1  0
 21 22  2  0
 22 23  1  0
 23 24  1  0
 23 25  2  0
 25 26  1  0
 12 27  1  0
 27 28  1  0
  8  3  1  0
 28  9  1  0
 26 17  1  0
 25 19  1  0
  1 29  1  0
  1 30  1  0
  1 31  1  0
  4 32  1  0
  5 33  1  0
  6 34  1  0
  7 35  1  0
 10 36  1  0
 10 37  1  0
 11 38  1  0
 11 39  1  0
 13 40  1  0
 13 41  1  0
 14 42  1  0
 14 43  1  0
 15 44  1  0
 15 45  1  0
 16 46  1  0
 16 47  1  0
 18 48  1  0
 20 49  1  0
 21 50  1  0
 22 51  1  0
 27 52  1  0
 27 53  1  0
 28 54  1  0
 28 55  1  0
M  CHG  1  18   1
M  END
>  <UniqueID>  (22) 
21

>  <SMILES>  (22) 
COc1ccccc1N1CCN(CCCCc2[nH+]c3cccc(Cl)c3o2)CC1

>  <Energy>  (22) 
103.69206576942167

>  <Genealogy>  (22) 
COc1ccccc1N1CCN(CCCCc2[nH+]c3cccc(Cl)c3o2)CC1 (protonated)
COc1ccccc1N1CCN(CCCCc2[nH+]c3cccc(Cl)c3o2)CC1 (3D coordinates assigned)
COc1ccccc1N1CCN(CCCCc2[nH+]c3cccc(Cl)c3o2)CC1 (nonaromatic ring conformer: 103.69206576942167 kcal/mol)

>  <smiles>  (22) 
COc1ccccc1N1CCN(CCCCc2nc3cccc(Cl)c3o2)CC1

>  <score_type>  (22) 
oracle

>  <origin>  (22) 
adg

>  <m_score__min__energy>  (22) 
-8.4100000000000001

>  <m_primary>  (22) 
energy

$$$$
22:0
     RDKit          3D

 48 50  0  0  0  0  0  0  0  0999 V2000
   -2.6910   21.5040  -32.3710 C   0  0  0  0  0  0  0  0  0  0  0  0
   -3.0150   22.1700  -31.0370 C   0  0  0  0  0  0  0  0  0  0  0  0
   -4.2490   21.5240  -30.3830 C   0  0  0  0  0  0  0  0  0  0  0  0
   -5.4270   22.4270  -30.3140 N   0  0  0  0  0  0  0  0  0  0  0  0
   -5.3050   23.4830  -29.2730 C   0  0  0  0  0  0  0  0  0  0  0  0
   -5.2760   24.9270  -29.8180 C   0  0  0  0  0  0  0  0  0  0  0  0
   -6.4950   25.7150  -29.3490 C   0  0  0  0  0  0  0  0  0  0  0  0
   -6.0680   22.8420  -31.6020 C   0  0  2  0  0  0  0  0  0  0  0  0
   -7.5630   23.1470  -31.3890 C   0  0  0  0  0  0  0  0  0  0  0  0
   -8.2920   21.9220  -30.8280 C   0  0  0  0  0  0  0  0  0  0  0  0
   -7.9260   20.6310  -31.5280 C   0  0  0  0  0  0  0  0  0  0  0  0
   -8.6820   19.4930  -31.2220 C   0  0  0  0  0  0  0  0  0  0  0  0
   -8.3860   18.2640  -31.8000 C   0  0  0  0  0  0  0  0  0  0  0  0
   -7.3400   18.1470  -32.7180 C   0  0  0  0  0  0  0  0  0  0  0  0
   -7.0790   16.9050  -33.3190 C   0  0  0  0  0  0  0  0  0  0  0  0
   -6.0610   16.7780  -34.2620 C   0  0  0  0  0  0  0  0  0  0  0  0
   -5.3020   17.8900  -34.6220 C   0  0  0  0  0  0  0  0  0  0  0  0
   -5.5450   19.1320  -34.0330 C   0  0  0  0  0  0  0  0  0  0  0  0
   -6.5540   19.2830  -33.0530 C   0  0  0  0  0  0  0  0  0  0  0  0
   -6.8150   20.5280  -32.4080 C   0  0  0  0  0  0  0  0  0  0  0  0
   -5.9920   21.7700  -32.7170 C   0  0  0  0  0  0  0  0  0  0  0  0
   -2.2165   20.5286  -32.1882 H   0  0  0  0  0  0  0  0  0  0  0  0
   -3.6191   21.3587  -32.9433 H   0  0  0  0  0  0  0  0  0  0  0  0
   -2.0038   22.1445  -32.9433 H   0  0  0  0  0  0  0  0  0  0  0  0
   -2.1527   22.0624  -30.3625 H   0  0  0  0  0  0  0  0  0  0  0  0
   -3.2314   23.2329  -31.2196 H   0  0  0  0  0  0  0  0  0  0  0  0
   -4.5266   20.6343  -30.9673 H   0  0  0  0  0  0  0  0  0  0  0  0
   -3.9723   21.2751  -29.3479 H   0  0  0  0  0  0  0  0  0  0  0  0
   -6.1628   23.3917  -28.5904 H   0  0  0  0  0  0  0  0  0  0  0  0
   -4.3371   23.3192  -28.7768 H   0  0  0  0  0  0  0  0  0  0  0  0
   -4.3646   25.4281  -29.4598 H   0  0  0  0  0  0  0  0  0  0  0  0
   -5.2878   24.8861  -30.9172 H   0  0  0  0  0  0  0  0  0  0  0  0
   -6.5202   25.7313  -28.2494 H   0  0  0  0  0  0  0  0  0  0  0  0
   -6.4343   26.7452  -29.7297 H   0  0  0  0  0  0  0  0  0  0  0  0
   -7.4095   25.2367  -29.7297 H   0  0  0  0  0  0  0  0  0  0  0  0
   -5.5011   23.7287  -31.9220 H   0  0  0  0  0  0  0  0  0  0  0  0
   -7.6635   23.9826  -30.6807 H   0  0  0  0  0  0  0  0  0  0  0  0
   -8.0111   23.4116  -32.3581 H   0  0  0  0  0  0  0  0  0  0  0  0
   -8.0395   21.8241  -29.7619 H   0  0  0  0  0  0  0  0  0  0  0  0
   -9.3683   22.0837  -30.9876 H   0  0  0  0  0  0  0  0  0  0  0  0
   -9.5210   19.5725  -30.5151 H   0  0  0  0  0  0  0  0  0  0  0  0
   -8.9797   17.3775  -31.5325 H   0  0  0  0  0  0  0  0  0  0  0  0
   -7.6818   16.0270  -33.0437 H   0  0  0  0  0  0  0  0  0  0  0  0
   -5.8565   15.8001  -34.7222 H   0  0  0  0  0  0  0  0  0  0  0  0
   -4.5065   17.7884  -35.3749 H   0  0  0  0  0  0  0  0  0  0  0  0
   -4.9450   20.0033  -34.3343 H   0  0  0  0  0  0  0  0  0  0  0  0
   -4.9411   21.4709  -32.8441 H   0  0  0  0  0  0  0  0  0  0  0  0
   -6.4061   22.2186  -33.6321 H   0  0  0  0  0  0  0  0  0  0  0  0
  1  2  1  0
  2  3  1  0
  3  4  1  0
  4  5  1  0
  5  6  1  0
  6  7  1  0
  4  8  1  0
  8  9  1  0
  9 10  1  0
 10 11  1  0
 11 12  2  0
 12 13  1  0
 13 14  2  0
 14 15  1  0
 15 16  2  0
 16 17  1  0
 17 18  2  0
 18 19  1  0
 19 20  2  0
 20 21  1  0
 21  8  1  0
 20 11  1  0
 19 14  1  0
  1 22  1  0
  1 23  1  0
  1 24  1  0
  2 25  1  0
  2 26  1  0
  3 27  1  0
  3 28  1  0
  5 29  1  0
  5 30  1  0
  6 31  1  0
  6 32  1  0
  7 33  1  0
  7 34  1  0
  7 35  1  0
  8 36  1  6
  9 37  1  0
  9 38  1  0
 10 39  1  0
 10 40  1  0
 12 41  1  0
 13 42  1  0
 15 43  1  0
 16 44  1  0
 17 45  1  0
 18 46  1  0
 21 47  1  0
 21 48  1  0
M  END
>  <UniqueID>  (23) 
22

>  <SMILES>  (23) 
CCCN(CCC)[C@@H]1CCc2ccc3ccccc3c2C1

>  <Energy>  (23) 
63.12261908301218

>  <Genealogy>  (23) 
CCCN(CCC)[C@@H]1CCc2ccc3ccccc3c2C1 (chirality)
CCCN(CCC)[C@@H]1CCc2ccc3ccccc3c2C1 (3D coordinates assigned)
CCCN(CCC)[C@@H]1CCc2ccc3ccccc3c2C1 (nonaromatic ring conformer: 63.12261908301218 kcal/mol)

>  <smiles>  (23) 
CCCN(CCC)C1CCc2ccc3ccccc3c2C1

>  <score_type>  (23) 
oracle

>  <origin>  (23) 
adg

>  <m_score__min__energy>  (23) 
-8.2100000000000009

>  <m_primary>  (23) 
energy

$$$$
23:0
     RDKit          3D

 47 49  0  0  0  0  0  0  0  0999 V2000
   -3.0180   22.4180  -30.4070 C   0  0  0  0  0  0  0  0  0  0  0  0
   -2.5120   23.2050  -29.2430 C   0  0  0  0  0  0  0  0  0  0  0  0
   -1.2640   23.0850  -28.7460 N   0  0  0  0  0  0  0  0  0  0  0  0
   -1.1790   23.8680  -27.6780 N   0  0  0  0  0  0  0  0  0  0  0  0
    0.0040   23.9440  -26.8290 C   0  0  0  0  0  0  0  0  0  0  0  0
   -2.3570   24.4970  -27.4720 C   0  0  0  0  0  0  0  0  0  0  0  0
   -2.6970   25.3100  -26.2610 C   0  0  0  0  0  0  0  0  0  0  0  0
   -3.2310   24.0830  -28.4550 C   0  0  0  0  0  0  0  0  0  0  0  0
   -4.6400   24.3250  -28.4950 N   0  0  0  0  0  0  0  0  0  0  0  0
   -5.3580   24.9200  -29.9530 S   0  0  0  0  0  0  0  0  0  0  0  0
   -6.1030   26.1940  -29.6610 O   0  0  0  0  0  0  0  0  0  0  0  0
   -4.2940   25.2110  -30.9730 O   0  0  0  0  0  0  0  0  0  0  0  0
   -6.4840   23.7110  -30.5610 C   0  0  0  0  0  0  0  0  0  0  0  0
   -6.4440   23.3290  -31.9080 C   0  0  0  0  0  0  0  0  0  0  0  0
   -7.2560   22.2900  -32.3700 C   0  0  0  0  0  0  0  0  0  0  0  0
   -8.1180   21.6150  -31.4840 C   0  0  0  0  0  0  0  0  0  0  0  0
   -8.9320   20.5450  -31.8890 O   0  0  0  0  0  0  0  0  0  0  0  0
   -8.7160   19.7380  -33.0460 C   0  0  0  0  0  0  0  0  0  0  0  0
   -7.4250   18.9720  -32.9250 C   0  0  0  0  0  0  0  0  0  0  0  0
   -6.3500   19.2710  -33.7780 C   0  0  0  0  0  0  0  0  0  0  0  0
   -5.1460   18.5670  -33.6680 C   0  0  0  0  0  0  0  0  0  0  0  0
   -5.0090   17.5600  -32.7100 C   0  0  0  0  0  0  0  0  0  0  0  0
   -6.0740   17.2570  -31.8580 C   0  0  0  0  0  0  0  0  0  0  0  0
   -7.2760   17.9630  -31.9590 C   0  0  0  0  0  0  0  0  0  0  0  0
   -8.1680   22.0160  -30.1440 C   0  0  0  0  0  0  0  0  0  0  0  0
   -7.3520   23.0520  -29.6810 C   0  0  0  0  0  0  0  0  0  0  0  0
   -3.5794   21.5449  -30.0430 H   0  0  0  0  0  0  0  0  0  0  0  0
   -3.6791   23.0505  -31.0177 H   0  0  0  0  0  0  0  0  0  0  0  0
   -2.1682   22.0790  -31.0177 H   0  0  0  0  0  0  0  0  0  0  0  0
   -0.3011   23.9244  -25.7724 H   0  0  0  0  0  0  0  0  0  0  0  0
    0.6604   23.0862  -27.0371 H   0  0  0  0  0  0  0  0  0  0  0  0
    0.5452   24.8788  -27.0371 H   0  0  0  0  0  0  0  0  0  0  0  0
   -2.4567   24.7354  -25.3543 H   0  0  0  0  0  0  0  0  0  0  0  0
   -2.1134   26.2424  -26.2696 H   0  0  0  0  0  0  0  0  0  0  0  0
   -3.7706   25.5493  -26.2696 H   0  0  0  0  0  0  0  0  0  0  0  0
   -5.2530   23.7840  -27.8470 H   0  0  0  0  0  0  0  0  0  0  0  0
   -5.7705   23.8491  -32.6050 H   0  0  0  0  0  0  0  0  0  0  0  0
   -7.2219   21.9980  -33.4300 H   0  0  0  0  0  0  0  0  0  0  0  0
   -9.5492   19.0277  -33.1519 H   0  0  0  0  0  0  0  0  0  0  0  0
   -8.6587   20.3920  -33.9286 H   0  0  0  0  0  0  0  0  0  0  0  0
   -6.4551   20.0617  -34.5354 H   0  0  0  0  0  0  0  0  0  0  0  0
   -4.3063   18.8069  -34.3368 H   0  0  0  0  0  0  0  0  0  0  0  0
   -4.0627   17.0055  -32.6263 H   0  0  0  0  0  0  0  0  0  0  0  0
   -5.9663   16.4612  -31.1062 H   0  0  0  0  0  0  0  0  0  0  0  0
   -8.1084   17.7277  -31.2795 H   0  0  0  0  0  0  0  0  0  0  0  0
   -8.8555   21.5114  -29.4492 H   0  0  0  0  0  0  0  0  0  0  0  0
   -7.3915   23.3506  -28.6230 H   0  0  0  0  0  0  0  0  0  0  0  0
  1  2  1  0
  2  3  2  0
  3  4  1  0
  4  5  1  0
  4  6  1  0
  6  7  1  0
  6  8  2  0
  8  9  1  0
  9 10  1  0
 10 11  2  0
 10 12  2  0
 10 13  1  0
 13 14  2  0
 14 15  1  0
 15 16  2  0
 16 17  1  0
 17 18  1  0
 18 19  1  0
 19 20  2  0
 20 21  1  0
 21 22  2  0
 22 23  1  0
 23 24  2  0
 16 25  1  0
 25 26  2  0
  8  2  1  0
 26 13  1  0
 24 19  1  0
  1 27  1  0
  1 28  1  0
  1 29  1  0
  5 30  1  0
  5 31  1  0
  5 32  1  0
  7 33  1  0
  7 34  1  0
  7 35  1  0
  9 36  1  0
 14 37  1  0
 15 38  1  0
 18 39  1  0
 18 40  1  0
 20 41  1  0
 21 42  1  0
 22 43  1  0
 23 44  1  0
 24 45  1  0
 25 46  1  0
 26 47  1  0
M  END
>  <UniqueID>  (24) 
23

>  <SMILES>  (24) 
Cc1nn(C)c(C)c1NS(=O)(=O)c1ccc(OCc2ccccc2)cc1

>  <Energy>  (24) 
80.75989342274706

>  <Genealogy>  (24) 
Cc1nn(C)c(C)c1NS(=O)(=O)c1ccc(OCc2ccccc2)cc1 (3D coordinates assigned)
Cc1nn(C)c(C)c1NS(=O)(=O)c1ccc(OCc2ccccc2)cc1 (optimized conformer: 80.75989342274706 kcal/mol)

>  <smiles>  (24) 
Cc1nn(C)c(C)c1NS(=O)(=O)c1ccc(OCc2ccccc2)cc1

>  <score_type>  (24) 
oracle

>  <origin>  (24) 
adg

>  <m_score__min__energy>  (24) 
-9.7699999999999996

>  <m_primary>  (24) 
energy

$$$$
24:0
     RDKit          3D

 49 52  0  0  0  0  0  0  0  0999 V2000
    0.2100   18.0050  -27.8490 C   0  0  0  0  0  0  0  0  0  0  0  0
   -0.5900   19.2670  -27.7150 C   0  0  0  0  0  0  0  0  0  0  0  0
   -1.9070   19.2220  -27.1860 C   0  0  0  0  0  0  0  0  0  0  0  0
   -2.6810   20.3940  -27.0900 C   0  0  0  0  0  0  0  0  0  0  0  0
   -2.1130   21.5820  -27.5380 C   0  0  0  0  0  0  0  0  0  0  0  0
   -2.6630   22.8080  -27.5470 N   0  0  0  0  0  0  0  0  0  0  0  0
   -1.6670   23.5570  -28.0890 C   0  0  0  0  0  0  0  0  0  0  0  0
   -1.7850   25.0290  -28.3220 C   0  0  0  0  0  0  0  0  0  0  0  0
   -2.7450   25.2990  -29.3440 O   0  0  0  0  0  0  0  0  0  0  0  0
   -3.7290   24.4010  -29.7890 C   0  0  0  0  0  0  0  0  0  0  0  0
   -5.0330   24.5570  -29.3090 C   0  0  0  0  0  0  0  0  0  0  0  0
   -6.0490   23.6870  -29.7120 C   0  0  0  0  0  0  0  0  0  0  0  0
   -5.7790   22.6430  -30.6130 C   0  0  0  0  0  0  0  0  0  0  0  0
   -6.8890   21.7010  -31.0440 C   0  0  0  0  0  0  0  0  0  0  0  0
   -6.3780   20.6350  -32.0430 C   0  0  0  0  0  0  0  0  0  0  0  0
   -7.4260   20.2650  -33.1120 C   0  0  0  0  0  0  0  0  0  0  0  0
   -8.8030   20.2310  -32.5760 N   0  0  0  0  0  0  0  0  0  0  0  0
   -9.0190   19.0740  -31.6910 C   0  0  0  0  0  0  0  0  0  0  0  0
   -9.2420   21.5100  -31.9550 C   0  0  0  0  0  0  0  0  0  0  0  0
   -8.0890   22.4730  -31.6120 C   0  0  0  0  0  0  0  0  0  0  0  0
   -4.4670   22.4880  -31.0980 C   0  0  0  0  0  0  0  0  0  0  0  0
   -3.4520   23.3590  -30.6930 C   0  0  0  0  0  0  0  0  0  0  0  0
   -0.5880   22.8560  -28.4030 O   0  0  0  0  0  0  0  0  0  0  0  0
   -0.8580   21.6270  -28.0610 C   0  0  0  0  0  0  0  0  0  0  0  0
   -0.0590   20.4940  -28.1750 C   0  0  0  0  0  0  0  0  0  0  0  0
    0.4551   17.6183  -26.8488 H   0  0  0  0  0  0  0  0  0  0  0  0
   -0.3778   17.2548  -28.3982 H   0  0  0  0  0  0  0  0  0  0  0  0
    1.1393   18.2165  -28.3982 H   0  0  0  0  0  0  0  0  0  0  0  0
   -2.3262   18.2628  -26.8482 H   0  0  0  0  0  0  0  0  0  0  0  0
   -3.6995   20.3710  -26.6751 H   0  0  0  0  0  0  0  0  0  0  0  0
   -2.1019   25.5187  -27.3894 H   0  0  0  0  0  0  0  0  0  0  0  0
   -0.8069   25.4178  -28.6415 H   0  0  0  0  0  0  0  0  0  0  0  0
   -5.2611   25.3728  -28.6072 H   0  0  0  0  0  0  0  0  0  0  0  0
   -7.0685   23.8203  -29.3209 H   0  0  0  0  0  0  0  0  0  0  0  0
   -7.2328   21.1675  -30.1456 H   0  0  0  0  0  0  0  0  0  0  0  0
   -5.4838   21.0279  -32.5490 H   0  0  0  0  0  0  0  0  0  0  0  0
   -6.1554   19.7235  -31.4688 H   0  0  0  0  0  0  0  0  0  0  0  0
   -7.3817   21.0098  -33.9203 H   0  0  0  0  0  0  0  0  0  0  0  0
   -7.1867   19.2545  -33.4749 H   0  0  0  0  0  0  0  0  0  0  0  0
   -8.9584   19.3986  -30.6417 H   0  0  0  0  0  0  0  0  0  0  0  0
  -10.0129   18.6444  -31.8851 H   0  0  0  0  0  0  0  0  0  0  0  0
   -8.2471   18.3147  -31.8851 H   0  0  0  0  0  0  0  0  0  0  0  0
   -9.9200   22.0191  -32.6558 H   0  0  0  0  0  0  0  0  0  0  0  0
   -9.7299   21.2491  -31.0043 H   0  0  0  0  0  0  0  0  0  0  0  0
   -7.7782   23.0038  -32.5240 H   0  0  0  0  0  0  0  0  0  0  0  0
   -8.4396   23.1896  -30.8546 H   0  0  0  0  0  0  0  0  0  0  0  0
   -4.2385   21.6742  -31.8020 H   0  0  0  0  0  0  0  0  0  0  0  0
   -2.4316   23.2293  -31.0828 H   0  0  0  0  0  0  0  0  0  0  0  0
    0.9506   20.5507  -28.6079 H   0  0  0  0  0  0  0  0  0  0  0  0
  1  2  1  0
  2  3  2  0
  3  4  1  0
  4  5  2  0
  5  6  1  0
  6  7  2  0
  7  8  1  0
  8  9  1  0
  9 10  1  0
 10 11  2  0
 11 12  1  0
 12 13  2  0
 13 14  1  0
 14 15  1  0
 15 16  1  0
 16 17  1  0
 17 18  1  0
 17 19  1  0
 19 20  1  0
 13 21  1  0
 21 22  2  0
  7 23  1  0
 23 24  1  0
 24 25  2  0
 25  2  1  0
 24  5  1  0
 22 10  1  0
 20 14  1  0
  1 26  1  0
  1 27  1  0
  1 28  1  0
  3 29  1  0
  4 30  1  0
  8 31  1  0
  8 32  1  0
 11 33  1  0
 12 34  1  0
 14 35  1  0
 15 36  1  0
 15 37  1  0
 16 38  1  0
 16 39  1  0
 18 40  1  0
 18 41  1  0
 18 42  1  0
 19 43  1  0
 19 44  1  0
 20 45  1  0
 20 46  1  0
 21 47  1  0
 22 48  1  0
 25 49  1  0
M  END
>  <UniqueID>  (25) 
24

>  <SMILES>  (25) 
Cc1ccc2nc(COc3ccc(C4CCN(C)CC4)cc3)oc2c1

>  <Energy>  (25) 
96.83532944088427

>  <Genealogy>  (25) 
Cc1ccc2nc(COc3ccc(C4CCN(C)CC4)cc3)oc2c1 (3D coordinates assigned)
Cc1ccc2nc(COc3ccc(C4CCN(C)CC4)cc3)oc2c1 (nonaromatic ring conformer: 96.83532944088427 kcal/mol)

>  <smiles>  (25) 
Cc1ccc2nc(COc3ccc(C4CCN(C)CC4)cc3)oc2c1

>  <score_type>  (25) 
oracle

>  <origin>  (25) 
adg

>  <m_score__min__energy>  (25) 
-8.9100000000000001

>  <m_primary>  (25) 
energy

$$$$
25:0
     RDKit          3D

 42 43  0  0  1  0  0  0  0  0999 V2000
   -6.8010   17.0580  -32.7720 C   0  0  0  0  0  0  0  0  0  0  0  0
   -6.8260   18.5450  -32.7420 C   0  0  0  0  0  0  0  0  0  0  0  0
   -7.9990   19.1880  -32.3600 C   0  0  0  0  0  0  0  0  0  0  0  0
   -7.9910   20.5540  -32.3420 C   0  0  0  0  0  0  0  0  0  0  0  0
   -6.9280   21.3460  -32.6690 C   0  0  0  0  0  0  0  0  0  0  0  0
   -7.0240   22.8350  -32.6170 C   0  0  0  0  0  0  0  0  0  0  0  0
   -6.4600   23.3980  -31.4950 N   0  0  0  0  0  0  0  0  0  0  0  0
   -7.2050   23.8410  -30.3900 C   0  0  0  0  0  0  0  0  0  0  0  0
   -6.7300   25.0250  -29.6390 C   0  0  0  0  0  0  0  0  0  0  0  0
   -5.7020   25.8720  -30.2400 C   0  0  0  0  0  0  0  0  0  0  0  0
   -4.5480   25.3880  -30.8440 N   0  0  0  0  0  0  0  0  0  0  0  0
   -3.8370   24.4380  -30.3580 C   0  0  0  0  0  0  0  0  0  0  0  0
   -3.4550   23.3860  -31.1000 N   0  0  0  0  0  0  0  0  0  0  0  0
   -2.7080   22.3880  -30.5920 C   0  0  0  0  0  0  0  0  0  0  0  0
   -2.3070   21.2330  -31.4630 C   0  0  0  0  0  0  0  0  0  0  0  0
   -2.3050   22.4170  -29.2690 C   0  0  0  0  0  0  0  0  0  0  0  0
   -2.7090   23.5110  -28.5200 C   0  0  0  0  0  0  0  0  0  0  0  0
   -3.4590   24.4960  -29.0630 N   0  0  0  0  0  0  0  0  0  0  0  0
   -5.7550   20.7030  -33.0510 C   0  0  0  0  0  0  0  0  0  0  0  0
   -5.7350   19.3220  -33.0780 C   0  0  0  0  0  0  0  0  0  0  0  0
   -6.7945   16.6706  -31.7425 H   0  0  0  0  0  0  0  0  0  0  0  0
   -7.6930   16.6868  -33.2978 H   0  0  0  0  0  0  0  0  0  0  0  0
   -5.8970   16.7170  -33.2978 H   0  0  0  0  0  0  0  0  0  0  0  0
   -8.8984   18.6184  -32.0831 H   0  0  0  0  0  0  0  0  0  0  0  0
   -8.9200   21.0587  -32.0382 H   0  0  0  0  0  0  0  0  0  0  0  0
   -6.5145   23.2446  -33.5017 H   0  0  0  0  0  0  0  0  0  0  0  0
   -8.0956   23.0818  -32.5898 H   0  0  0  0  0  0  0  0  0  0  0  0
   -5.4620   23.5110  -31.4240 H   0  0  0  0  0  0  0  0  0  0  0  0
   -8.2166   24.0734  -30.7541 H   0  0  0  0  0  0  0  0  0  0  0  0
   -7.1240   23.0165  -29.6664 H   0  0  0  0  0  0  0  0  0  0  0  0
   -7.6065   25.6629  -29.4524 H   0  0  0  0  0  0  0  0  0  0  0  0
   -6.2392   24.5988  -28.7516 H   0  0  0  0  0  0  0  0  0  0  0  0
   -6.2169   26.4622  -31.0123 H   0  0  0  0  0  0  0  0  0  0  0  0
   -5.2814   26.3546  -29.3454 H   0  0  0  0  0  0  0  0  0  0  0  0
   -2.0117   20.3824  -30.8311 H   0  0  0  0  0  0  0  0  0  0  0  0
   -3.1562   20.9405  -32.0981 H   0  0  0  0  0  0  0  0  0  0  0  0
   -1.4593   21.5297  -32.0981 H   0  0  0  0  0  0  0  0  0  0  0  0
   -1.6946   21.6123  -28.8333 H   0  0  0  0  0  0  0  0  0  0  0  0
   -2.4135   23.5791  -27.4626 H   0  0  0  0  0  0  0  0  0  0  0  0
   -3.7380   25.3080  -28.4350 H   0  0  0  0  0  0  0  0  0  0  0  0
   -4.8614   21.2826  -33.3260 H   0  0  0  0  0  0  0  0  0  0  0  0
   -4.8059   18.8173  -33.3815 H   0  0  0  0  0  0  0  0  0  0  0  0
  1  2  1  0
  2  3  2  0
  3  4  1  0
  4  5  2  0
  5  6  1  0
  6  7  1  0
  7  8  1  0
  8  9  1  0
  9 10  1  0
 10 11  1  0
 11 12  2  0
 12 13  1  0
 13 14  2  0
 14 15  1  0
 14 16  1  0
 16 17  2  0
 17 18  1  0
  5 19  1  0
 19 20  2  0
 20  2  1  0
 18 12  1  0
  1 21  1  0
  1 22  1  0
  1 23  1  0
  3 24  1  0
  4 25  1  0
  6 26  1  0
  6 27  1  0
  7 28  1  0
  8 29  1  0
  8 30  1  0
  9 31  1  0
  9 32  1  0
 10 33  1  0
 10 34  1  0
 15 35  1  0
 15 36  1  0
 15 37  1  0
 16 38  1  0
 17 39  1  0
 18 40  1  0
 19 41  1  0
 20 42  1  0
M  END
>  <smiles>  (26) 
Cc1ccc(CNCCCN=c2nc(C)cc[nH]2)cc1

>  <score_type>  (26) 
oracle

>  <origin>  (26) 
adg

>  <m_score__min__energy>  (26) 
-7.4100000000000001

>  <m_primary>  (26) 
energy

$$$$
26:0
     RDKit          3D

 41 43  0  0  0  0  0  0  0  0999 V2000
   -1.6590   22.7420  -30.0500 C   0  0  0  0  0  0  0  0  0  0  0  0
   -2.1740   24.0400  -29.7660 O   0  0  0  0  0  0  0  0  0  0  0  0
   -2.5020   24.5060  -28.4820 C   0  0  0  0  0  0  0  0  0  0  0  0
   -1.5120   24.9240  -27.5680 C   0  0  0  0  0  0  0  0  0  0  0  0
   -1.8650   25.3180  -26.2740 C   0  0  0  0  0  0  0  0  0  0  0  0
   -3.2010   25.3040  -25.8780 C   0  0  0  0  0  0  0  0  0  0  0  0
   -4.1930   24.9050  -26.7770 C   0  0  0  0  0  0  0  0  0  0  0  0
   -3.8560   24.5280  -28.0870 C   0  0  0  0  0  0  0  0  0  0  0  0
   -4.9020   24.1220  -28.9830 N   0  0  0  0  0  0  0  0  0  0  0  0
   -5.0390   24.6470  -30.3130 C   0  0  0  0  0  0  0  0  0  0  0  0
   -4.2730   25.5600  -30.7220 O   0  0  0  0  0  0  0  0  0  0  0  0
   -6.1440   24.1690  -31.2050 C   0  0  0  0  0  0  0  0  0  0  0  0
   -5.9850   22.7320  -31.4760 N   0  0  0  0  0  0  0  0  0  0  0  0
   -4.6380   22.1750  -31.6680 C   0  0  0  0  0  0  0  0  0  0  0  0
   -4.5480   21.4910  -33.0330 C   0  0  0  0  0  0  0  0  0  0  0  0
   -5.6330   20.5230  -33.1840 N   0  0  0  0  0  0  0  0  0  0  0  0
   -6.9310   20.7760  -32.6270 C   0  0  0  0  0  0  0  0  0  0  0  0
   -8.0040   19.9250  -32.9220 C   0  0  0  0  0  0  0  0  0  0  0  0
   -9.2650   20.1690  -32.3710 C   0  0  0  0  0  0  0  0  0  0  0  0
   -9.4550   21.2530  -31.5130 C   0  0  0  0  0  0  0  0  0  0  0  0
   -8.3890   22.1040  -31.2090 C   0  0  0  0  0  0  0  0  0  0  0  0
   -7.1170   21.8800  -31.7690 C   0  0  0  0  0  0  0  0  0  0  0  0
   -1.4503   22.2159  -29.1068 H   0  0  0  0  0  0  0  0  0  0  0  0
   -2.3994   22.1728  -30.6312 H   0  0  0  0  0  0  0  0  0  0  0  0
   -0.7298   22.8353  -30.6312 H   0  0  0  0  0  0  0  0  0  0  0  0
   -0.4559   24.9400  -27.8754 H   0  0  0  0  0  0  0  0  0  0  0  0
   -1.0864   25.6398  -25.5668 H   0  0  0  0  0  0  0  0  0  0  0  0
   -3.4747   25.6074  -24.8567 H   0  0  0  0  0  0  0  0  0  0  0  0
   -5.2451   24.8860  -26.4566 H   0  0  0  0  0  0  0  0  0  0  0  0
   -5.6780   23.5390  -28.5970 H   0  0  0  0  0  0  0  0  0  0  0  0
   -7.1116   24.3418  -30.7111 H   0  0  0  0  0  0  0  0  0  0  0  0
   -6.1064   24.7222  -32.1550 H   0  0  0  0  0  0  0  0  0  0  0  0
   -3.8970   22.9863  -31.6169 H   0  0  0  0  0  0  0  0  0  0  0  0
   -4.4353   21.4364  -30.8784 H   0  0  0  0  0  0  0  0  0  0  0  0
   -4.6249   22.2498  -33.8256 H   0  0  0  0  0  0  0  0  0  0  0  0
   -3.5845   20.9657  -33.1089 H   0  0  0  0  0  0  0  0  0  0  0  0
   -5.4680   19.6660  -33.7580 H   0  0  0  0  0  0  0  0  0  0  0  0
   -7.8537   19.0630  -33.5886 H   0  0  0  0  0  0  0  0  0  0  0  0
  -10.1085   19.5060  -32.6139 H   0  0  0  0  0  0  0  0  0  0  0  0
  -10.4468   21.4382  -31.0747 H   0  0  0  0  0  0  0  0  0  0  0  0
   -8.5448   22.9538  -30.5282 H   0  0  0  0  0  0  0  0  0  0  0  0
  1  2  1  0
  2  3  1  0
  3  4  2  0
  4  5  1  0
  5  6  2  0
  6  7  1  0
  7  8  2  0
  8  9  1  0
  9 10  1  0
 10 11  2  0
 10 12  1  0
 12 13  1  0
 13 14  1  0
 14 15  1  0
 15 16  1  0
 16 17  1  0
 17 18  2  0
 18 19  1  0
 19 20  2  0
 20 21  1  0
 21 22  2  0
  8  3  1  0
 22 13  1  0
 22 17  1  0
  1 23  1  0
  1 24  1  0
  1 25  1  0
  4 26  1  0
  5 27  1  0
  6 28  1  0
  7 29  1  0
  9 30  1  0
 12 31  1  0
 12 32  1  0
 14 33  1  0
 14 34  1  0
 15 35  1  0
 15 36  1  0
 16 37  1  0
 18 38  1  0
 19 39  1  0
 20 40  1  0
 21 41  1  0
M  END
>  <UniqueID>  (27) 
25

>  <SMILES>  (27) 
COc1ccccc1NC(=O)CN1CCNc2ccccc21

>  <Energy>  (27) 
46.14781315551115

>  <Genealogy>  (27) 
COc1ccccc1NC(=O)CN1CCNc2ccccc21 (3D coordinates assigned)
COc1ccccc1NC(=O)CN1CCNc2ccccc21 (nonaromatic ring conformer: 46.14781315551115 kcal/mol)

>  <smiles>  (27) 
COc1ccccc1NC(=O)CN1CCNc2ccccc21

>  <score_type>  (27) 
oracle

>  <origin>  (27) 
adg

>  <m_score__min__energy>  (27) 
-8.3800000000000008

>  <m_primary>  (27) 
energy

$$$$
27:0
     RDKit          3D

 40 41  0  0  0  0  0  0  0  0999 V2000
   -2.2450   24.7770  -28.6960 C   0  0  0  0  0  0  0  0  0  0  0  0
   -3.1000   25.2810  -29.7180 O   0  0  0  0  0  0  0  0  0  0  0  0
   -4.2360   24.6140  -30.1990 C   0  0  0  0  0  0  0  0  0  0  0  0
   -5.4760   25.2610  -30.3670 C   0  0  0  0  0  0  0  0  0  0  0  0
   -6.5790   24.5510  -30.8490 C   0  0  0  0  0  0  0  0  0  0  0  0
   -6.4580   23.1970  -31.1690 C   0  0  0  0  0  0  0  0  0  0  0  0
   -5.2280   22.5390  -31.0100 C   0  0  0  0  0  0  0  0  0  0  0  0
   -5.0970   21.0740  -31.3380 C   0  0  0  0  0  0  0  0  0  0  0  0
   -3.8320   20.7720  -32.1660 C   0  0  0  0  0  0  0  0  0  0  0  0
   -3.7930   19.3920  -32.6850 N   0  0  0  0  0  0  0  0  0  0  0  0
   -4.5780   19.2230  -33.9160 C   0  0  0  0  0  0  0  0  0  0  0  0
   -5.6430   18.1420  -33.7160 C   0  0  0  0  0  0  0  0  0  0  0  0
   -6.8650   18.7180  -33.0530 C   0  0  0  0  0  0  0  0  0  0  0  0
   -7.2670   20.0350  -33.3310 C   0  0  0  0  0  0  0  0  0  0  0  0
   -8.3830   20.5810  -32.6900 C   0  0  0  0  0  0  0  0  0  0  0  0
   -9.0990   19.8210  -31.7620 C   0  0  0  0  0  0  0  0  0  0  0  0
   -8.6980   18.5140  -31.4690 C   0  0  0  0  0  0  0  0  0  0  0  0
   -7.5820   17.9640  -32.1080 C   0  0  0  0  0  0  0  0  0  0  0  0
   -4.1230   23.2560  -30.5220 C   0  0  0  0  0  0  0  0  0  0  0  0
   -2.6659   25.0251  -27.7104 H   0  0  0  0  0  0  0  0  0  0  0  0
   -2.1606   23.6847  -28.7942 H   0  0  0  0  0  0  0  0  0  0  0  0
   -1.2484   25.2321  -28.7942 H   0  0  0  0  0  0  0  0  0  0  0  0
   -5.5763   26.3278  -30.1182 H   0  0  0  0  0  0  0  0  0  0  0  0
   -7.5456   25.0603  -30.9768 H   0  0  0  0  0  0  0  0  0  0  0  0
   -7.3302   22.6436  -31.5473 H   0  0  0  0  0  0  0  0  0  0  0  0
   -5.0496   20.5038  -30.3985 H   0  0  0  0  0  0  0  0  0  0  0  0
   -5.9709   20.7838  -31.9397 H   0  0  0  0  0  0  0  0  0  0  0  0
   -3.7976   21.4670  -33.0179 H   0  0  0  0  0  0  0  0  0  0  0  0
   -2.9669   20.8944  -31.4977 H   0  0  0  0  0  0  0  0  0  0  0  0
   -4.1350   18.7230  -31.9570 H   0  0  0  0  0  0  0  0  0  0  0  0
   -5.0684   20.1747  -34.1684 H   0  0  0  0  0  0  0  0  0  0  0  0
   -3.9063   18.9201  -34.7328 H   0  0  0  0  0  0  0  0  0  0  0  0
   -5.9247   17.7267  -34.6949 H   0  0  0  0  0  0  0  0  0  0  0  0
   -5.2295   17.3519  -33.0720 H   0  0  0  0  0  0  0  0  0  0  0  0
   -6.7015   20.6390  -34.0558 H   0  0  0  0  0  0  0  0  0  0  0  0
   -8.6977   21.6104  -32.9167 H   0  0  0  0  0  0  0  0  0  0  0  0
   -9.9790   20.2512  -31.2614 H   0  0  0  0  0  0  0  0  0  0  0  0
   -9.2606   17.9179  -30.7354 H   0  0  0  0  0  0  0  0  0  0  0  0
   -7.2644   16.9380  -31.8702 H   0  0  0  0  0  0  0  0  0  0  0  0
   -3.1577   22.7448  -30.3920 H   0  0  0  0  0  0  0  0  0  0  0  0
  1  2  1  0
  2  3  1  0
  3  4  2  0
  4  5  1  0
  5  6  2  0
  6  7  1  0
  7  8  1  0
  8  9  1  0
  9 10  1  0
 10 11  1  0
 11 12  1  0
 12 13  1  0
 13 14  2  0
 14 15  1  0
 15 16  2  0
 16 17  1  0
 17 18  2  0
  7 19  2  0
 19  3  1  0
 18 13  1  0
  1 20  1  0
  1 21  1  0
  1 22  1  0
  4 23  1  0
  5 24  1  0
  6 25  1  0
  8 26  1  0
  8 27  1  0
  9 28  1  0
  9 29  1  0
 10 30  1  0
 11 31  1  0
 11 32  1  0
 12 33  1  0
 12 34  1  0
 14 35  1  0
 15 36  1  0
 16 37  1  0
 17 38  1  0
 18 39  1  0
 19 40  1  0
M  END
>  <UniqueID>  (28) 
26

>  <SMILES>  (28) 
COc1cccc(CCNCCc2ccccc2)c1

>  <Energy>  (28) 
36.610860424408266

>  <Genealogy>  (28) 
COc1cccc(CCNCCc2ccccc2)c1 (3D coordinates assigned)
COc1cccc(CCNCCc2ccccc2)c1 (optimized conformer: 36.610860424408266 kcal/mol)

>  <smiles>  (28) 
COc1cccc(CCNCCc2ccccc2)c1

>  <score_type>  (28) 
oracle

>  <origin>  (28) 
adg

>  <m_score__min__energy>  (28) 
-7.7400000000000002

>  <m_primary>  (28) 
energy

$$$$
28:0
     RDKit          3D

 32 34  0  0  0  0  0  0  0  0999 V2000
   -1.3860   26.7370  -24.7610 C   0  0  0  0  0  0  0  0  0  0  0  0
   -1.2430   25.5020  -25.4550 O   0  0  0  0  0  0  0  0  0  0  0  0
   -2.0290   25.1140  -26.5500 C   0  0  0  0  0  0  0  0  0  0  0  0
   -1.4910   24.9110  -27.8340 C   0  0  0  0  0  0  0  0  0  0  0  0
   -2.3170   24.5240  -28.8940 C   0  0  0  0  0  0  0  0  0  0  0  0
   -3.6960   24.3330  -28.6940 C   0  0  0  0  0  0  0  0  0  0  0  0
   -4.5910   23.9220  -29.8040 C   0  0  0  0  0  0  0  0  0  0  0  0
   -4.5910   24.5130  -31.0180 N   0  0  0  0  0  0  0  0  0  0  0  0
   -5.4970   23.8850  -31.7090 O   0  0  0  0  0  0  0  0  0  0  0  0
   -6.0470   22.9430  -30.9780 C   0  0  0  0  0  0  0  0  0  0  0  0
   -7.1150   22.0400  -31.4630 C   0  0  0  0  0  0  0  0  0  0  0  0
   -6.7700   20.8820  -32.1850 C   0  0  0  0  0  0  0  0  0  0  0  0
   -7.7630   20.0160  -32.6520 C   0  0  0  0  0  0  0  0  0  0  0  0
   -9.1080   20.2940  -32.4070 C   0  0  0  0  0  0  0  0  0  0  0  0
   -9.4640   21.4400  -31.6920 C   0  0  0  0  0  0  0  0  0  0  0  0
   -8.4760   22.3100  -31.2220 C   0  0  0  0  0  0  0  0  0  0  0  0
   -5.5000   22.9250  -29.7480 N   0  0  0  0  0  0  0  0  0  0  0  0
   -4.2270   24.5380  -27.4080 C   0  0  0  0  0  0  0  0  0  0  0  0
   -3.4000   24.9240  -26.3500 C   0  0  0  0  0  0  0  0  0  0  0  0
   -1.3647   26.5529  -23.6767 H   0  0  0  0  0  0  0  0  0  0  0  0
   -0.5597   27.4094  -25.0351 H   0  0  0  0  0  0  0  0  0  0  0  0
   -2.3441   27.2028  -25.0351 H   0  0  0  0  0  0  0  0  0  0  0  0
   -0.4143   25.0575  -28.0051 H   0  0  0  0  0  0  0  0  0  0  0  0
   -1.8843   24.3676  -29.8932 H   0  0  0  0  0  0  0  0  0  0  0  0
   -5.7117   20.6569  -32.3831 H   0  0  0  0  0  0  0  0  0  0  0  0
   -7.4831   19.1129  -33.2142 H   0  0  0  0  0  0  0  0  0  0  0  0
   -9.8874   19.6114  -32.7765 H   0  0  0  0  0  0  0  0  0  0  0  0
  -10.5246   21.6584  -31.4983 H   0  0  0  0  0  0  0  0  0  0  0  0
   -8.7634   23.2111  -30.6604 H   0  0  0  0  0  0  0  0  0  0  0  0
   -5.7240   22.2960  -28.9470 H   0  0  0  0  0  0  0  0  0  0  0  0
   -5.3034   24.3931  -27.2334 H   0  0  0  0  0  0  0  0  0  0  0  0
   -3.8314   25.0799  -25.3502 H   0  0  0  0  0  0  0  0  0  0  0  0
  1  2  1  0
  2  3  1  0
  3  4  2  0
  4  5  1  0
  5  6  2  0
  6  7  1  0
  7  8  2  0
  8  9  1  0
  9 10  1  0
 10 11  1  0
 11 12  2  0
 12 13  1  0
 13 14  2  0
 14 15  1  0
 15 16  2  0
 10 17  2  0
  6 18  1  0
 18 19  2  0
 19  3  1  0
 17  7  1  0
 16 11  1  0
  1 20  1  0
  1 21  1  0
  1 22  1  0
  4 23  1  0
  5 24  1  0
 12 25  1  0
 13 26  1  0
 14 27  1  0
 15 28  1  0
 16 29  1  0
 17 30  1  0
 18 31  1  0
 19 32  1  0
M  CHG  1  17   1
M  END
>  <UniqueID>  (29) 
27

>  <SMILES>  (29) 
COc1ccc(-c2noc(-c3ccccc3)[nH+]2)cc1

>  <Energy>  (29) 
71.34070243848797

>  <Genealogy>  (29) 
COc1ccc(-c2noc(-c3ccccc3)[nH+]2)cc1 (protonated)
COc1ccc(-c2noc(-c3ccccc3)[nH+]2)cc1 (3D coordinates assigned)
COc1ccc(-c2noc(-c3ccccc3)[nH+]2)cc1 (optimized conformer: 71.34070243848797 kcal/mol)

>  <smiles>  (29) 
COc1ccc(-c2noc(-c3ccccc3)n2)cc1

>  <score_type>  (29) 
oracle

>  <origin>  (29) 
adg

>  <m_score__min__energy>  (29) 
-6.3300000000000001

>  <m_primary>  (29) 
energy

$$$$
29:0
     RDKit          3D

 64 69  0  0  0  0  0  0  0  0999 V2000
   -1.7909   18.0911  -27.3357 H   0  0  0  0  0  0  0  0  0  0  0  0
   -1.5560   19.1600  -27.4460 C   0  0  0  0  0  0  0  0  0  0  0  0
   -1.1890   19.6510  -28.6650 N   0  0  0  0  0  0  0  0  0  0  0  0
   -0.9050   20.9730  -28.7780 C   0  0  0  0  0  0  0  0  0  0  0  0
   -0.4890   21.6780  -29.8850 C   0  0  0  0  0  0  0  0  0  0  0  0
   -0.1860   21.1910  -31.2460 C   0  0  0  0  0  0  0  0  0  0  0  0
    0.9740   20.7780  -31.5080 O   0  0  0  0  0  0  0  0  0  0  0  0
   -1.1560   21.2510  -32.2980 N   0  0  0  0  0  0  0  0  0  0  0  0
   -2.2410   20.5370  -32.4270 C   0  0  0  0  0  0  0  0  0  0  0  0
   -2.2310   19.2270  -32.8560 C   0  0  0  0  0  0  0  0  0  0  0  0
   -1.3615   18.5696  -33.0036 H   0  0  0  0  0  0  0  0  0  0  0  0
   -3.5670   18.9300  -33.0580 C   0  0  0  0  0  0  0  0  0  0  0  0
   -4.0870   17.7000  -33.7610 C   0  0  0  0  0  0  0  0  0  0  0  0
   -3.2430   17.2248  -34.2823 H   0  0  0  0  0  0  0  0  0  0  0  0
   -4.6260   16.6340  -32.7690 C   0  0  0  0  0  0  0  0  0  0  0  0
   -3.9829   15.7432  -32.8232 H   0  0  0  0  0  0  0  0  0  0  0  0
   -4.6160   17.0762  -31.7619 H   0  0  0  0  0  0  0  0  0  0  0  0
   -6.0710   16.2200  -33.0860 C   0  0  0  0  0  0  0  0  0  0  0  0
   -6.0849   15.6906  -34.0501 H   0  0  0  0  0  0  0  0  0  0  0  0
   -6.4246   15.5726  -32.2700 H   0  0  0  0  0  0  0  0  0  0  0  0
   -6.9820   17.3900  -33.1690 N   0  0  0  0  0  0  0  0  0  0  0  0
   -7.3680   18.0030  -31.8570 C   0  0  0  0  0  0  0  0  0  0  0  0
   -6.9850   17.2985  -31.1040 H   0  0  0  0  0  0  0  0  0  0  0  0
   -8.8930   18.1520  -31.6470 C   0  0  0  0  0  0  0  0  0  0  0  0
   -9.3611   17.1596  -31.7243 H   0  0  0  0  0  0  0  0  0  0  0  0
   -9.0584   18.5926  -30.6527 H   0  0  0  0  0  0  0  0  0  0  0  0
   -9.5310   19.0880  -32.6970 C   0  0  0  0  0  0  0  0  0  0  0  0
   -9.8828   18.4773  -33.5416 H   0  0  0  0  0  0  0  0  0  0  0  0
  -10.3550   19.6217  -32.2007 H   0  0  0  0  0  0  0  0  0  0  0  0
   -8.5980   20.1060  -33.2120 N   0  0  0  0  0  0  0  0  0  0  0  0
   -8.0520   19.7050  -34.0110 H   0  0  0  0  0  0  0  0  0  0  0  0
   -7.6590   20.5630  -32.1800 C   0  0  0  0  0  0  0  0  0  0  0  0
   -7.0381   21.3702  -32.5958 H   0  0  0  0  0  0  0  0  0  0  0  0
   -8.2438   20.9179  -31.3186 H   0  0  0  0  0  0  0  0  0  0  0  0
   -6.7370   19.4210  -31.6970 C   0  0  0  0  0  0  0  0  0  0  0  0
   -5.8050   19.4554  -32.2803 H   0  0  0  0  0  0  0  0  0  0  0  0
   -6.5621   19.5784  -30.6225 H   0  0  0  0  0  0  0  0  0  0  0  0
   -6.4990   18.4190  -34.1440 C   0  0  0  0  0  0  0  0  0  0  0  0
   -7.2535   18.5177  -34.9383 H   0  0  0  0  0  0  0  0  0  0  0  0
   -6.3498   19.3439  -33.5676 H   0  0  0  0  0  0  0  0  0  0  0  0
   -5.1450   18.1000  -34.8070 C   0  0  0  0  0  0  0  0  0  0  0  0
   -5.2802   17.2691  -35.5150 H   0  0  0  0  0  0  0  0  0  0  0  0
   -4.7931   19.0030  -35.3273 H   0  0  0  0  0  0  0  0  0  0  0  0
   -4.3250   19.9980  -32.7400 N   0  0  0  0  0  0  0  0  0  0  0  0
   -3.5260   20.9690  -32.3330 N   0  0  0  0  0  0  0  0  0  0  0  0
   -4.0460   22.1920  -31.7940 C   0  0  0  0  0  0  0  0  0  0  0  0
   -5.2200   22.7450  -32.3300 C   0  0  0  0  0  0  0  0  0  0  0  0
   -5.7342   22.2394  -33.1606 H   0  0  0  0  0  0  0  0  0  0  0  0
   -5.7380   23.9360  -31.8120 C   0  0  0  0  0  0  0  0  0  0  0  0
   -6.6468   24.3757  -32.2488 H   0  0  0  0  0  0  0  0  0  0  0  0
   -5.1020   24.5690  -30.7390 C   0  0  0  0  0  0  0  0  0  0  0  0
   -5.7470   26.0660  -30.0950 Cl  0  0  0  0  0  0  0  0  0  0  0  0
   -3.9540   24.0010  -30.1750 C   0  0  0  0  0  0  0  0  0  0  0  0
   -3.4607   24.4914  -29.3229 H   0  0  0  0  0  0  0  0  0  0  0  0
   -3.4330   22.8110  -30.6930 C   0  0  0  0  0  0  0  0  0  0  0  0
   -2.5403   22.3587  -30.2365 H   0  0  0  0  0  0  0  0  0  0  0  0
   -0.3500   22.9810  -29.4070 C   0  0  0  0  0  0  0  0  0  0  0  0
   -0.0393   23.8452  -30.0125 H   0  0  0  0  0  0  0  0  0  0  0  0
   -0.6540   23.0260  -28.0870 N   0  0  0  0  0  0  0  0  0  0  0  0
   -0.9860   21.7980  -27.7310 N   0  0  0  0  0  0  0  0  0  0  0  0
   -1.3400   21.3730  -26.4930 C   0  0  0  0  0  0  0  0  0  0  0  0
   -1.3931   22.0727  -25.6459 H   0  0  0  0  0  0  0  0  0  0  0  0
   -1.6360   20.0130  -26.3280 C   0  0  0  0  0  0  0  0  0  0  0  0
   -1.9257   19.6188  -25.3428 H   0  0  0  0  0  0  0  0  0  0  0  0
  1  2  1  0
  2  3  2  0
  3  4  1  0
  4  5  2  0
  5  6  1  0
  6  7  2  0
  6  8  1  0
  8  9  2  0
  9 10  1  0
 10 11  1  0
 10 12  2  0
 12 13  1  0
 13 14  1  0
 13 15  1  0
 15 16  1  0
 15 17  1  0
 15 18  1  0
 18 19  1  0
 18 20  1  0
 18 21  1  0
 21 22  1  0
 22 23  1  0
 22 24  1  0
 24 25  1  0
 24 26  1  0
 24 27  1  0
 27 28  1  0
 27 29  1  0
 27 30  1  0
 30 31  1  0
 30 32  1  0
 32 33  1  0
 32 34  1  0
 32 35  1  0
 35 36  1  0
 35 37  1  0
 21 38  1  0
 38 39  1  0
 38 40  1  0
 38 41  1  0
 41 42  1  0
 41 43  1  0
 12 44  1  0
 44 45  1  0
 45 46  1  0
 46 47  2  0
 47 48  1  0
 47 49  1  0
 49 50  1  0
 49 51  2  0
 51 52  1  0
 51 53  1  0
 53 54  1  0
 53 55  2  0
 55 56  1  0
  5 57  1  0
 57 58  1  0
 57 59  2  0
 59 60  1  0
 60 61  1  0
 61 62  1  0
 61 63  2  0
 63 64  1  0
 63  2  1  0
 60  4  1  0
 45  9  1  0
 55 46  1  0
 41 13  1  0
 35 22  1  0
M  CHG  1  44  -1
M  END
>  <UniqueID>  (30) 
28

>  <SMILES>  (30) 
O=C(/N=c1/cc(C2CCN(C3CCNCC3)CC2)[n-]n1-c1ccc(Cl)cc1)c1cnn2cccnc12

>  <Energy>  (30) 
173.89754161115684

>  <Genealogy>  (30) 
O=C(N=c1cc(C2CCN(C3CCNCC3)CC2)[n-]n1-c1ccc(Cl)cc1)c1cnn2cccnc12 (protonated)
O=C(/N=c1/cc(C2CCN(C3CCNCC3)CC2)[n-]n1-c1ccc(Cl)cc1)c1cnn2cccnc12 (cis-trans isomerization)
O=C(/N=c1/cc(C2CCN(C3CCNCC3)CC2)[n-]n1-c1ccc(Cl)cc1)c1cnn2cccnc12 (3D coordinates assigned)
O=C(/N=c1/cc(C2CCN(C3CCNCC3)CC2)[n-]n1-c1ccc(Cl)cc1)c1cnn2cccnc12 (nonaromatic ring conformer: 173.89754161115684 kcal/mol)

>  <smiles>  (30) 
O=C(N=c1cc(C2CCN(C3CCNCC3)CC2)[nH]n1-c1ccc(Cl)cc1)c1cnn2cccnc12

>  <score_type>  (30) 
oracle

>  <origin>  (30) 
adg

>  <m_score__min__energy>  (30) 
-10.59

>  <m_primary>  (30) 
energy

$$$$
30:0
     RDKit          3D

 51 53  0  0  0  0  0  0  0  0999 V2000
   -3.3790   21.9240  -32.7300 C   0  0  0  0  0  0  0  0  0  0  0  0
   -4.2820   22.8990  -32.2170 O   0  0  0  0  0  0  0  0  0  0  0  0
   -5.5730   22.6180  -31.7410 C   0  0  0  0  0  0  0  0  0  0  0  0
   -6.4020   21.6640  -32.3640 C   0  0  0  0  0  0  0  0  0  0  0  0
   -7.6930   21.4120  -31.8770 C   0  0  0  0  0  0  0  0  0  0  0  0
   -8.5570   20.3620  -32.5260 C   0  0  0  0  0  0  0  0  0  0  0  0
   -8.7130   19.2020  -31.6340 N   0  0  0  0  0  0  0  0  0  0  0  0
   -8.1500   17.9730  -32.2200 C   0  0  0  0  0  0  0  0  0  0  0  0
   -6.7510   18.1890  -32.7450 C   0  0  0  0  0  0  0  0  0  0  0  0
   -5.7290   18.6130  -31.8790 C   0  0  0  0  0  0  0  0  0  0  0  0
   -4.4380   18.8370  -32.3680 C   0  0  0  0  0  0  0  0  0  0  0  0
   -4.1590   18.6420  -33.7240 C   0  0  0  0  0  0  0  0  0  0  0  0
   -2.9070   18.8600  -34.1970 F   0  0  0  0  0  0  0  0  0  0  0  0
   -5.1700   18.2240  -34.5930 C   0  0  0  0  0  0  0  0  0  0  0  0
   -6.4630   17.9990  -34.1080 C   0  0  0  0  0  0  0  0  0  0  0  0
   -8.1480   22.1000  -30.7450 C   0  0  0  0  0  0  0  0  0  0  0  0
   -7.3350   23.0460  -30.1210 C   0  0  0  0  0  0  0  0  0  0  0  0
   -6.0470   23.3110  -30.6100 C   0  0  0  0  0  0  0  0  0  0  0  0
   -5.0210   24.5100  -29.8150 S   0  0  0  0  0  0  0  0  0  0  0  0
   -5.8800   25.4220  -28.9830 O   0  0  0  0  0  0  0  0  0  0  0  0
   -4.3130   25.3320  -30.8570 O   0  0  0  0  0  0  0  0  0  0  0  0
   -3.8100   23.7510  -28.7820 C   0  0  0  0  0  0  0  0  0  0  0  0
   -3.7020   22.3540  -28.7390 C   0  0  0  0  0  0  0  0  0  0  0  0
   -2.7600   21.7470  -27.9030 C   0  0  0  0  0  0  0  0  0  0  0  0
   -1.9110   22.5310  -27.1070 C   0  0  0  0  0  0  0  0  0  0  0  0
   -0.9280   21.8800  -26.1800 C   0  0  0  0  0  0  0  0  0  0  0  0
   -2.0370   23.9280  -27.1340 C   0  0  0  0  0  0  0  0  0  0  0  0
   -2.9800   24.5350  -27.9700 C   0  0  0  0  0  0  0  0  0  0  0  0
   -2.8928   21.3990  -31.8945 H   0  0  0  0  0  0  0  0  0  0  0  0
   -3.9324   21.1998  -33.3458 H   0  0  0  0  0  0  0  0  0  0  0  0
   -2.6145   22.4203  -33.3458 H   0  0  0  0  0  0  0  0  0  0  0  0
   -6.0331   21.1115  -33.2408 H   0  0  0  0  0  0  0  0  0  0  0  0
   -9.5474   20.7898  -32.7407 H   0  0  0  0  0  0  0  0  0  0  0  0
   -8.0770   20.0322  -33.4592 H   0  0  0  0  0  0  0  0  0  0  0  0
   -9.7340   19.0410  -31.4660 H   0  0  0  0  0  0  0  0  0  0  0  0
   -8.2560   19.3970  -30.7120 H   0  0  0  0  0  0  0  0  0  0  0  0
   -8.1230   17.1906  -31.4472 H   0  0  0  0  0  0  0  0  0  0  0  0
   -8.7886   17.6745  -33.0645 H   0  0  0  0  0  0  0  0  0  0  0  0
   -5.9452   18.7694  -30.8119 H   0  0  0  0  0  0  0  0  0  0  0  0
   -3.6413   19.1669  -31.6850 H   0  0  0  0  0  0  0  0  0  0  0  0
   -4.9492   18.0716  -35.6598 H   0  0  0  0  0  0  0  0  0  0  0  0
   -7.2571   17.6723  -34.7955 H   0  0  0  0  0  0  0  0  0  0  0  0
   -9.1520   21.8931  -30.3460 H   0  0  0  0  0  0  0  0  0  0  0  0
   -7.7064   23.5883  -29.2390 H   0  0  0  0  0  0  0  0  0  0  0  0
   -4.3603   21.7336  -29.3648 H   0  0  0  0  0  0  0  0  0  0  0  0
   -2.6841   20.6501  -27.8691 H   0  0  0  0  0  0  0  0  0  0  0  0
   -1.2221   22.0748  -25.1381 H   0  0  0  0  0  0  0  0  0  0  0  0
   -0.9164   20.7951  -26.3610 H   0  0  0  0  0  0  0  0  0  0  0  0
    0.0755   22.2927  -26.3610 H   0  0  0  0  0  0  0  0  0  0  0  0
   -1.3915   24.5486  -26.4951 H   0  0  0  0  0  0  0  0  0  0  0  0
   -3.0702   25.6311  -27.9900 H   0  0  0  0  0  0  0  0  0  0  0  0
  1  2  1  0
  2  3  1  0
  3  4  2  0
  4  5  1  0
  5  6  1  0
  6  7  1  0
  7  8  1  0
  8  9  1  0
  9 10  2  0
 10 11  1  0
 11 12  2  0
 12 13  1  0
 12 14  1  0
 14 15  2  0
  5 16  2  0
 16 17  1  0
 17 18  2  0
 18 19  1  0
 19 20  2  0
 19 21  2  0
 19 22  1  0
 22 23  2  0
 23 24  1  0
 24 25  2  0
 25 26  1  0
 25 27  1  0
 27 28  2  0
 18  3  1  0
 28 22  1  0
 15  9  1  0
  1 29  1  0
  1 30  1  0
  1 31  1  0
  4 32  1  0
  6 33  1  0
  6 34  1  0
  7 35  1  0
  7 36  1  0
  8 37  1  0
  8 38  1  0
 10 39  1  0
 11 40  1  0
 14 41  1  0
 15 42  1  0
 16 43  1  0
 17 44  1  0
 23 45  1  0
 24 46  1  0
 26 47  1  0
 26 48  1  0
 26 49  1  0
 27 50  1  0
 28 51  1  0
M  CHG  1   7   1
M  END
>  <UniqueID>  (31) 
29

>  <SMILES>  (31) 
COc1cc(C[NH2+]Cc2ccc(F)cc2)ccc1S(=O)(=O)c1ccc(C)cc1

>  <Energy>  (31) 
53.733028297137665

>  <Genealogy>  (31) 
COc1cc(C[NH2+]Cc2ccc(F)cc2)ccc1S(=O)(=O)c1ccc(C)cc1 (protonated)
COc1cc(C[NH2+]Cc2ccc(F)cc2)ccc1S(=O)(=O)c1ccc(C)cc1 (3D coordinates assigned)
COc1cc(C[NH2+]Cc2ccc(F)cc2)ccc1S(=O)(=O)c1ccc(C)cc1 (optimized conformer: 53.733028297137665 kcal/mol)

>  <smiles>  (31) 
COc1cc(CNCc2ccc(F)cc2)ccc1S(=O)(=O)c1ccc(C)cc1

>  <score_type>  (31) 
oracle

>  <origin>  (31) 
adg

>  <m_score__min__energy>  (31) 
-9.2799999999999994

>  <m_primary>  (31) 
energy

$$$$
31:0
     RDKit          3D

 36 38  0  0  0  0  0  0  0  0999 V2000
   -1.6670   25.2590  -27.6160 C   0  0  0  0  0  0  0  0  0  0  0  0
   -2.0270   25.2820  -28.9940 O   0  0  0  0  0  0  0  0  0  0  0  0
   -2.5190   24.1760  -29.7050 C   0  0  0  0  0  0  0  0  0  0  0  0
   -1.8840   22.9210  -29.6700 C   0  0  0  0  0  0  0  0  0  0  0  0
   -2.4020   21.8450  -30.3900 C   0  0  0  0  0  0  0  0  0  0  0  0
   -3.5650   21.9950  -31.1600 C   0  0  0  0  0  0  0  0  0  0  0  0
   -4.1170   20.8470  -31.9250 C   0  0  0  0  0  0  0  0  0  0  0  0
   -5.5000   20.7430  -32.1530 C   0  0  0  0  0  0  0  0  0  0  0  0
   -6.0340   19.6640  -32.8710 C   0  0  0  0  0  0  0  0  0  0  0  0
   -7.4130   19.5920  -33.0740 O   0  0  0  0  0  0  0  0  0  0  0  0
   -5.1740   18.6630  -33.3790 C   0  0  0  0  0  0  0  0  0  0  0  0
   -5.6340   17.5490  -34.1120 C   0  0  0  0  0  0  0  0  0  0  0  0
   -6.8590   17.3830  -34.3580 O   0  0  0  0  0  0  0  0  0  0  0  0
   -4.7150   16.6090  -34.5780 C   0  0  0  0  0  0  0  0  0  0  0  0
   -3.3590   16.7900  -34.3090 C   0  0  0  0  0  0  0  0  0  0  0  0
   -2.9460   17.8460  -33.6160 O   0  0  0  0  0  0  0  0  0  0  0  0
   -3.7800   18.7710  -33.1490 C   0  0  0  0  0  0  0  0  0  0  0  0
   -3.2650   19.8520  -32.4290 C   0  0  0  0  0  0  0  0  0  0  0  0
   -4.2000   23.2490  -31.1970 C   0  0  0  0  0  0  0  0  0  0  0  0
   -3.6820   24.3410  -30.4740 C   0  0  0  0  0  0  0  0  0  0  0  0
   -4.2930   25.6050  -30.4920 O   0  0  0  0  0  0  0  0  0  0  0  0
   -5.6870   25.8320  -30.3020 C   0  0  0  0  0  0  0  0  0  0  0  0
   -2.5756   25.3170  -26.9986 H   0  0  0  0  0  0  0  0  0  0  0  0
   -1.1310   24.3248  -27.3926 H   0  0  0  0  0  0  0  0  0  0  0  0
   -1.0164   26.1174  -27.3926 H   0  0  0  0  0  0  0  0  0  0  0  0
   -0.9718   22.7875  -29.0700 H   0  0  0  0  0  0  0  0  0  0  0  0
   -1.8942   20.8699  -30.3539 H   0  0  0  0  0  0  0  0  0  0  0  0
   -6.1734   21.5200  -31.7621 H   0  0  0  0  0  0  0  0  0  0  0  0
   -7.8080   19.2760  -33.9530 H   0  0  0  0  0  0  0  0  0  0  0  0
   -5.0563   15.7345  -35.1514 H   0  0  0  0  0  0  0  0  0  0  0  0
   -2.6266   16.0542  -34.6726 H   0  0  0  0  0  0  0  0  0  0  0  0
   -2.1812   19.9240  -32.2555 H   0  0  0  0  0  0  0  0  0  0  0  0
   -5.1122   23.3787  -31.7978 H   0  0  0  0  0  0  0  0  0  0  0  0
   -5.9092   25.8682  -29.2253 H   0  0  0  0  0  0  0  0  0  0  0  0
   -5.9696   26.7880  -30.7670 H   0  0  0  0  0  0  0  0  0  0  0  0
   -6.2583   25.0151  -30.7670 H   0  0  0  0  0  0  0  0  0  0  0  0
  1  2  1  0
  2  3  1  0
  3  4  2  0
  4  5  1  0
  5  6  2  0
  6  7  1  0
  7  8  2  0
  8  9  1  0
  9 10  1  0
  9 11  2  0
 11 12  1  0
 12 13  2  0
 12 14  1  0
 14 15  2  0
 15 16  1  0
 16 17  1  0
 17 18  2  0
  6 19  1  0
 19 20  2  0
 20 21  1  0
 21 22  1  0
 20  3  1  0
 18  7  1  0
 17 11  1  0
  1 23  1  0
  1 24  1  0
  1 25  1  0
  4 26  1  0
  5 27  1  0
  8 28  1  0
 10 29  1  0
 14 30  1  0
 15 31  1  0
 18 32  1  0
 19 33  1  0
 22 34  1  0
 22 35  1  0
 22 36  1  0
M  END
>  <UniqueID>  (32) 
30

>  <SMILES>  (32) 
COc1ccc(-c2cc(O)c3c(=O)ccoc3c2)cc1OC

>  <Energy>  (32) 
49.53223564420642

>  <Genealogy>  (32) 
COc1ccc(-c2cc(O)c3c(=O)ccoc3c2)cc1OC (3D coordinates assigned)
COc1ccc(-c2cc(O)c3c(=O)ccoc3c2)cc1OC (optimized conformer: 49.53223564420642 kcal/mol)

>  <smiles>  (32) 
COc1ccc(-c2cc(O)c3c(=O)ccoc3c2)cc1OC

>  <score_type>  (32) 
oracle

>  <origin>  (32) 
adg

>  <m_score__min__energy>  (32) 
-7.3399999999999999

>  <m_primary>  (32) 
energy

$$$$
32:0
     RDKit          3D

 36 37  0  0  0  0  0  0  0  0999 V2000
   -5.6610   17.0230  -34.5760 C   0  0  0  0  0  0  0  0  0  0  0  0
   -6.8440   16.9550  -33.6060 C   0  0  0  0  0  0  0  0  0  0  0  0
   -7.2180   18.2790  -33.0770 N   0  0  0  0  0  0  0  0  0  0  0  0
   -8.4080   18.2180  -32.2120 C   0  0  0  0  0  0  0  0  0  0  0  0
   -9.1040   19.5840  -32.1490 C   0  0  0  0  0  0  0  0  0  0  0  0
   -8.3100   20.5830  -32.7910 O   0  0  0  0  0  0  0  0  0  0  0  0
   -7.6320   21.6360  -32.1500 C   0  0  0  0  0  0  0  0  0  0  0  0
   -8.3100   22.7630  -31.6500 C   0  0  0  0  0  0  0  0  0  0  0  0
   -7.6090   23.8030  -31.0430 C   0  0  0  0  0  0  0  0  0  0  0  0
   -6.2200   23.7330  -30.9020 C   0  0  0  0  0  0  0  0  0  0  0  0
   -5.5240   24.7780  -30.2740 C   0  0  0  0  0  0  0  0  0  0  0  0
   -4.1410   24.7010  -30.1050 C   0  0  0  0  0  0  0  0  0  0  0  0
   -3.4440   23.5800  -30.5520 C   0  0  0  0  0  0  0  0  0  0  0  0
   -4.1220   22.5320  -31.1810 C   0  0  0  0  0  0  0  0  0  0  0  0
   -5.5170   22.5990  -31.3820 C   0  0  0  0  0  0  0  0  0  0  0  0
   -6.2310   21.5520  -32.0200 C   0  0  0  0  0  0  0  0  0  0  0  0
   -5.5480   20.4110  -32.5610 N   0  0  0  0  0  0  0  0  0  0  0  0
   -5.5890   20.1810  -33.7880 O   0  0  0  0  0  0  0  0  0  0  0  0
   -5.0120   19.4640  -31.7200 O   0  0  0  0  0  0  0  0  0  0  0  0
   -4.7219   17.0770  -34.0058 H   0  0  0  0  0  0  0  0  0  0  0  0
   -5.6541   16.1238  -35.2095 H   0  0  0  0  0  0  0  0  0  0  0  0
   -5.7572   17.9171  -35.2095 H   0  0  0  0  0  0  0  0  0  0  0  0
   -7.7095   16.5292  -34.1347 H   0  0  0  0  0  0  0  0  0  0  0  0
   -6.5416   16.3283  -32.7541 H   0  0  0  0  0  0  0  0  0  0  0  0
   -6.4120   18.6370  -32.5140 H   0  0  0  0  0  0  0  0  0  0  0  0
   -7.3850   18.9450  -33.8680 H   0  0  0  0  0  0  0  0  0  0  0  0
   -9.1099   17.4735  -32.6157 H   0  0  0  0  0  0  0  0  0  0  0  0
   -8.0929   17.9348  -31.1969 H   0  0  0  0  0  0  0  0  0  0  0  0
  -10.0786   19.5168  -32.6546 H   0  0  0  0  0  0  0  0  0  0  0  0
   -9.2410   19.8638  -31.0940 H   0  0  0  0  0  0  0  0  0  0  0  0
   -9.4047   22.8236  -31.7392 H   0  0  0  0  0  0  0  0  0  0  0  0
   -8.1521   24.6848  -30.6723 H   0  0  0  0  0  0  0  0  0  0  0  0
   -6.0713   25.6615  -29.9135 H   0  0  0  0  0  0  0  0  0  0  0  0
   -3.6003   25.5261  -29.6184 H   0  0  0  0  0  0  0  0  0  0  0  0
   -2.3550   23.5197  -30.4091 H   0  0  0  0  0  0  0  0  0  0  0  0
   -3.5635   21.6478  -31.5221 H   0  0  0  0  0  0  0  0  0  0  0  0
  1  2  1  0
  2  3  1  0
  3  4  1  0
  4  5  1  0
  5  6  1  0
  6  7  1  0
  7  8  2  0
  8  9  1  0
  9 10  2  0
 10 11  1  0
 11 12  2  0
 12 13  1  0
 13 14  2  0
 14 15  1  0
 15 16  2  0
 16 17  1  0
 17 18  2  0
 17 19  1  0
 16  7  1  0
 15 10  1  0
  1 20  1  0
  1 21  1  0
  1 22  1  0
  2 23  1  0
  2 24  1  0
  3 25  1  0
  3 26  1  0
  4 27  1  0
  4 28  1  0
  5 29  1  0
  5 30  1  0
  8 31  1  0
  9 32  1  0
 11 33  1  0
 12 34  1  0
 13 35  1  0
 14 36  1  0
M  CHG  3   3   1  17   1  19  -1
M  END
>  <UniqueID>  (33) 
31

>  <SMILES>  (33) 
CC[NH2+]CCOc1ccc2ccccc2c1[N+](=O)[O-]

>  <Energy>  (33) 
43.666039867939205

>  <Genealogy>  (33) 
CC[NH2+]CCOc1ccc2ccccc2c1[N+](=O)[O-] (protonated)
CC[NH2+]CCOc1ccc2ccccc2c1[N+](=O)[O-] (3D coordinates assigned)
CC[NH2+]CCOc1ccc2ccccc2c1[N+](=O)[O-] (optimized conformer: 43.666039867939205 kcal/mol)

>  <smiles>  (33) 
CCNCCOc1ccc2ccccc2c1[N+](=O)[O-]

>  <score_type>  (33) 
oracle

>  <origin>  (33) 
adg

>  <m_score__min__energy>  (33) 
-6.0899999999999999

>  <m_primary>  (33) 
energy

$$$$
33:0
     RDKit          3D

 33 35  0  0  0  0  0  0  0  0999 V2000
   -2.2590   24.5660  -28.1860 C   0  0  0  0  0  0  0  0  0  0  0  0
   -2.8390   25.1440  -29.3520 O   0  0  0  0  0  0  0  0  0  0  0  0
   -3.8890   24.5680  -30.0810 C   0  0  0  0  0  0  0  0  0  0  0  0
   -3.7090   23.2810  -30.6020 C   0  0  0  0  0  0  0  0  0  0  0  0
   -4.7260   22.6630  -31.3360 C   0  0  0  0  0  0  0  0  0  0  0  0
   -5.9440   23.3240  -31.5560 C   0  0  0  0  0  0  0  0  0  0  0  0
   -7.0260   22.6790  -32.3840 C   0  0  0  0  0  0  0  0  0  0  0  0
   -7.1670   21.2660  -32.0300 N   0  0  0  0  0  0  0  0  0  0  0  0
   -8.3040   20.7110  -31.3590 C   0  0  0  0  0  0  0  0  0  0  0  0
   -9.1250   21.3840  -30.6800 O   0  0  0  0  0  0  0  0  0  0  0  0
   -8.3810   19.2790  -31.5930 C   0  0  0  0  0  0  0  0  0  0  0  0
   -9.2500   18.4820  -31.1520 O   0  0  0  0  0  0  0  0  0  0  0  0
   -7.2500   18.9650  -32.4450 C   0  0  0  0  0  0  0  0  0  0  0  0
   -6.8410   17.7410  -32.9720 C   0  0  0  0  0  0  0  0  0  0  0  0
   -5.6830   17.7170  -33.7630 C   0  0  0  0  0  0  0  0  0  0  0  0
   -4.9560   18.9010  -34.0000 C   0  0  0  0  0  0  0  0  0  0  0  0
   -5.3850   20.1250  -33.4580 C   0  0  0  0  0  0  0  0  0  0  0  0
   -4.6440   21.2410  -33.6550 F   0  0  0  0  0  0  0  0  0  0  0  0
   -6.5570   20.1410  -32.6880 C   0  0  0  0  0  0  0  0  0  0  0  0
   -6.1250   24.6150  -31.0380 C   0  0  0  0  0  0  0  0  0  0  0  0
   -5.1090   25.2330  -30.3040 C   0  0  0  0  0  0  0  0  0  0  0  0
   -2.7109   25.0164  -27.2899 H   0  0  0  0  0  0  0  0  0  0  0  0
   -2.4431   23.4815  -28.1839 H   0  0  0  0  0  0  0  0  0  0  0  0
   -1.1752   24.7539  -28.1839 H   0  0  0  0  0  0  0  0  0  0  0  0
   -2.7597   22.7517  -30.4325 H   0  0  0  0  0  0  0  0  0  0  0  0
   -4.5704   21.6531  -31.7432 H   0  0  0  0  0  0  0  0  0  0  0  0
   -7.9796   23.1955  -32.1997 H   0  0  0  0  0  0  0  0  0  0  0  0
   -6.7538   22.7545  -33.4471 H   0  0  0  0  0  0  0  0  0  0  0  0
   -7.4099   16.8207  -32.7733 H   0  0  0  0  0  0  0  0  0  0  0  0
   -5.3400   16.7681  -34.2012 H   0  0  0  0  0  0  0  0  0  0  0  0
   -4.0445   18.8669  -34.6148 H   0  0  0  0  0  0  0  0  0  0  0  0
   -7.0735   25.1447  -31.2108 H   0  0  0  0  0  0  0  0  0  0  0  0
   -5.2636   26.2439  -29.8987 H   0  0  0  0  0  0  0  0  0  0  0  0
  1  2  1  0
  2  3  1  0
  3  4  2  0
  4  5  1  0
  5  6  2  0
  6  7  1  0
  7  8  1  0
  8  9  1  0
  9 10  2  0
  9 11  1  0
 11 12  2  0
 11 13  1  0
 13 14  2  0
 14 15  1  0
 15 16  2  0
 16 17  1  0
 17 18  1  0
 17 19  2  0
  6 20  1  0
 20 21  2  0
 21  3  1  0
 19  8  1  0
 19 13  1  0
  1 22  1  0
  1 23  1  0
  1 24  1  0
  4 25  1  0
  5 26  1  0
  7 27  1  0
  7 28  1  0
 14 29  1  0
 15 30  1  0
 16 31  1  0
 20 32  1  0
 21 33  1  0
M  END
>  <UniqueID>  (34) 
32

>  <SMILES>  (34) 
COc1ccc(CN2C(=O)C(=O)c3cccc(F)c32)cc1

>  <Energy>  (34) 
66.37553396696218

>  <Genealogy>  (34) 
COc1ccc(CN2C(=O)C(=O)c3cccc(F)c32)cc1 (3D coordinates assigned)
COc1ccc(CN2C(=O)C(=O)c3cccc(F)c32)cc1 (nonaromatic ring conformer: 66.37553396696218 kcal/mol)

>  <smiles>  (34) 
COc1ccc(CN2C(=O)C(=O)c3cccc(F)c32)cc1

>  <score_type>  (34) 
oracle

>  <origin>  (34) 
adg

>  <m_score__min__energy>  (34) 
-8.2699999999999996

>  <m_primary>  (34) 
energy

$$$$
34:0
     RDKit          3D

 21 21  0  0  0  0  0  0  0  0999 V2000
   -0.4204   26.5392  -28.1541 H   0  0  0  0  0  0  0  0  0  0  0  0
   -1.2200   25.8110  -27.9530 C   0  0  0  0  0  0  0  0  0  0  0  0
   -1.4720   25.3020  -26.6860 C   0  0  0  0  0  0  0  0  0  0  0  0
   -0.5340   25.7570  -25.0900 Br  0  0  0  0  0  0  0  0  0  0  0  0
   -2.7670   24.2300  -26.7790 S   0  0  0  0  0  0  0  0  0  0  0  0
   -2.9410   24.4430  -28.4360 C   0  0  0  0  0  0  0  0  0  0  0  0
   -3.8680   23.8590  -29.1370 N   0  0  0  0  0  0  0  0  0  0  0  0
   -4.3110   24.2560  -30.4410 C   0  0  0  0  0  0  0  0  0  0  0  0
   -3.9510   25.3730  -30.8950 O   0  0  0  0  0  0  0  0  0  0  0  0
   -5.2860   23.4180  -31.2270 C   0  0  0  0  0  0  0  0  0  0  0  0
   -5.0889   22.3555  -31.0214 H   0  0  0  0  0  0  0  0  0  0  0  0
   -5.1499   23.6459  -32.2945 H   0  0  0  0  0  0  0  0  0  0  0  0
   -6.7410   23.7350  -30.8530 C   0  0  0  0  0  0  0  0  0  0  0  0
   -6.9036   24.8185  -30.9510 H   0  0  0  0  0  0  0  0  0  0  0  0
   -6.9045   23.3966  -29.8192 H   0  0  0  0  0  0  0  0  0  0  0  0
   -7.7410   23.0050  -31.7480 C   0  0  0  0  0  0  0  0  0  0  0  0
   -8.4717   22.4716  -31.1223 H   0  0  0  0  0  0  0  0  0  0  0  0
   -8.2652   23.7343  -32.3831 H   0  0  0  0  0  0  0  0  0  0  0  0
   -7.2061   22.2835  -32.3831 H   0  0  0  0  0  0  0  0  0  0  0  0
   -2.0430   25.3350  -28.9240 N   0  0  0  0  0  0  0  0  0  0  0  0
   -1.9950   25.6660  -29.9120 H   0  0  0  0  0  0  0  0  0  0  0  0
  1  2  1  0
  2  3  2  0
  3  4  1  0
  3  5  1  0
  5  6  1  0
  6  7  2  0
  7  8  1  0
  8  9  2  0
  8 10  1  0
 10 11  1  0
 10 12  1  0
 10 13  1  0
 13 14  1  0
 13 15  1  0
 13 16  1  0
 16 17  1  0
 16 18  1  0
 16 19  1  0
  6 20  1  0
 20 21  1  0
 20  2  1  0
M  END
>  <UniqueID>  (35) 
33

>  <SMILES>  (35) 
CCCC(=O)/N=c1\[nH]cc(Br)s1

>  <Energy>  (35) 
51.153882125964195

>  <Genealogy>  (35) 
CCCC(=O)/N=c1\[nH]cc(Br)s1 (cis-trans isomerization)
CCCC(=O)/N=c1\[nH]cc(Br)s1 (3D coordinates assigned)
CCCC(=O)/N=c1\[nH]cc(Br)s1 (optimized conformer: 51.153882125964195 kcal/mol)

>  <smiles>  (35) 
CCCC(=O)N=c1[nH]cc(Br)s1

>  <score_type>  (35) 
oracle

>  <origin>  (35) 
adg

>  <m_score__min__energy>  (35) 
-6.0499999999999998

>  <m_primary>  (35) 
energy

$$$$
35:0
     RDKit          3D

 40 41  0  0  0  0  0  0  0  0999 V2000
   -8.9560   18.5620  -31.5940 C   0  0  0  0  0  0  0  0  0  0  0  0
   -8.1330   19.3240  -32.4710 O   0  0  0  0  0  0  0  0  0  0  0  0
   -7.7540   20.6580  -32.2520 C   0  0  0  0  0  0  0  0  0  0  0  0
   -8.7020   21.6630  -31.9830 C   0  0  0  0  0  0  0  0  0  0  0  0
   -8.2860   22.9640  -31.7120 C   0  0  0  0  0  0  0  0  0  0  0  0
   -6.9310   23.2870  -31.7400 C   0  0  0  0  0  0  0  0  0  0  0  0
   -5.9700   22.3230  -32.0870 C   0  0  0  0  0  0  0  0  0  0  0  0
   -4.2170   22.7770  -32.1220 S   0  0  0  0  0  0  0  0  0  0  0  0
   -4.0430   23.1030  -30.3480 C   0  0  0  0  0  0  0  0  0  0  0  0
   -3.7240   22.0200  -29.5140 C   0  0  0  0  0  0  0  0  0  0  0  0
   -3.6300   22.1910  -28.1310 C   0  0  0  0  0  0  0  0  0  0  0  0
   -3.8420   23.4480  -27.5670 C   0  0  0  0  0  0  0  0  0  0  0  0
   -4.1280   24.5420  -28.3860 C   0  0  0  0  0  0  0  0  0  0  0  0
   -4.2100   24.3870  -29.7800 C   0  0  0  0  0  0  0  0  0  0  0  0
   -4.4260   25.5420  -30.5920 N   0  0  0  0  0  0  0  0  0  0  0  0
   -6.3850   20.9850  -32.2970 C   0  0  0  0  0  0  0  0  0  0  0  0
   -5.4350   19.9090  -32.3700 N   0  0  0  0  0  0  0  0  0  0  0  0
   -4.5380   19.6870  -33.5030 C   0  0  0  0  0  0  0  0  0  0  0  0
   -5.0640   18.5810  -34.4280 C   0  0  0  0  0  0  0  0  0  0  0  0
   -6.5080   18.4080  -34.2680 N   0  0  0  0  0  0  0  0  0  0  0  0
   -8.6992   18.7998  -30.5512 H   0  0  0  0  0  0  0  0  0  0  0  0
  -10.0125   18.8078  -31.7766 H   0  0  0  0  0  0  0  0  0  0  0  0
   -8.7921   17.4897  -31.7766 H   0  0  0  0  0  0  0  0  0  0  0  0
   -9.7748   21.4200  -31.9869 H   0  0  0  0  0  0  0  0  0  0  0  0
   -9.0296   23.7392  -31.4751 H   0  0  0  0  0  0  0  0  0  0  0  0
   -6.6101   24.3084  -31.4875 H   0  0  0  0  0  0  0  0  0  0  0  0
   -3.5464   21.0275  -29.9537 H   0  0  0  0  0  0  0  0  0  0  0  0
   -3.3885   21.3331  -27.4863 H   0  0  0  0  0  0  0  0  0  0  0  0
   -3.7839   23.5781  -26.4763 H   0  0  0  0  0  0  0  0  0  0  0  0
   -4.2903   25.5327  -27.9365 H   0  0  0  0  0  0  0  0  0  0  0  0
   -4.7750   26.4330  -30.1710 H   0  0  0  0  0  0  0  0  0  0  0  0
   -4.1090   25.5670  -31.5790 H   0  0  0  0  0  0  0  0  0  0  0  0
   -5.5660   19.1110  -31.7070 H   0  0  0  0  0  0  0  0  0  0  0  0
   -4.4493   20.6211  -34.0771 H   0  0  0  0  0  0  0  0  0  0  0  0
   -3.5588   19.3734  -33.1119 H   0  0  0  0  0  0  0  0  0  0  0  0
   -4.8474   18.8516  -35.4720 H   0  0  0  0  0  0  0  0  0  0  0  0
   -4.5660   17.6364  -34.1641 H   0  0  0  0  0  0  0  0  0  0  0  0
   -6.8650   17.7920  -35.0340 H   0  0  0  0  0  0  0  0  0  0  0  0
   -6.7180   17.9580  -33.3470 H   0  0  0  0  0  0  0  0  0  0  0  0
   -6.9900   19.3340  -34.3270 H   0  0  0  0  0  0  0  0  0  0  0  0
  1  2  1  0
  2  3  1  0
  3  4  2  0
  4  5  1  0
  5  6  2  0
  6  7  1  0
  7  8  1  0
  8  9  1  0
  9 10  2  0
 10 11  1  0
 11 12  2  0
 12 13  1  0
 13 14  2  0
 14 15  1  0
  7 16  2  0
 16 17  1  0
 17 18  1  0
 18 19  1  0
 19 20  1  0
 16  3  1  0
 14  9  1  0
  1 21  1  0
  1 22  1  0
  1 23  1  0
  4 24  1  0
  5 25  1  0
  6 26  1  0
 10 27  1  0
 11 28  1  0
 12 29  1  0
 13 30  1  0
 15 31  1  0
 15 32  1  0
 17 33  1  0
 18 34  1  0
 18 35  1  0
 19 36  1  0
 19 37  1  0
 20 38  1  0
 20 39  1  0
 20 40  1  0
M  CHG  1  20   1
M  END
>  <UniqueID>  (36) 
34

>  <SMILES>  (36) 
COc1cccc(Sc2ccccc2N)c1NCC[NH3+]

>  <Energy>  (36) 
45.62739841446525

>  <Genealogy>  (36) 
COc1cccc(Sc2ccccc2N)c1NCC[NH3+] (protonated)
COc1cccc(Sc2ccccc2N)c1NCC[NH3+] (3D coordinates assigned)
COc1cccc(Sc2ccccc2N)c1NCC[NH3+] (optimized conformer: 45.62739841446525 kcal/mol)

>  <smiles>  (36) 
COc1cccc(Sc2ccccc2N)c1NCCN

>  <score_type>  (36) 
oracle

>  <origin>  (36) 
adg

>  <m_score__min__energy>  (36) 
-7

>  <m_primary>  (36) 
energy

$$$$
36:0
     RDKit          3D

 47 50  0  0  0  0  0  0  0  0999 V2000
    0.3060   23.4490  -27.2230 C   0  0  0  0  0  0  0  0  0  0  0  0
    0.1110   24.6640  -28.0010 N   0  0  0  0  0  0  0  0  0  0  0  0
   -1.1700   25.2710  -28.1930 C   0  0  0  0  0  0  0  0  0  0  0  0
   -1.5340   25.6500  -29.3390 O   0  0  0  0  0  0  0  0  0  0  0  0
   -2.0720   25.4780  -27.0180 C   0  0  0  0  0  0  0  0  0  0  0  0
   -3.2190   24.0750  -26.7770 S   0  0  0  0  0  0  0  0  0  0  0  0
   -3.5300   23.8250  -28.5290 C   0  0  0  0  0  0  0  0  0  0  0  0
   -4.1460   24.7190  -29.3220 N   0  0  0  0  0  0  0  0  0  0  0  0
   -4.2570   24.1890  -30.5310 N   0  0  0  0  0  0  0  0  0  0  0  0
   -3.6890   22.9650  -30.4590 C   0  0  0  0  0  0  0  0  0  0  0  0
   -3.6380   22.0130  -31.6170 C   0  0  0  0  0  0  0  0  0  0  0  0
   -4.9410   21.2870  -31.7260 C   0  0  0  0  0  0  0  0  0  0  0  0
   -5.0190   19.9340  -31.8430 N   0  0  0  0  0  0  0  0  0  0  0  0
   -6.3370   19.7320  -31.9790 C   0  0  0  0  0  0  0  0  0  0  0  0
   -7.0000   18.5210  -32.1570 C   0  0  0  0  0  0  0  0  0  0  0  0
   -8.4000   18.5590  -32.3130 C   0  0  0  0  0  0  0  0  0  0  0  0
   -9.0880   19.7950  -32.2880 C   0  0  0  0  0  0  0  0  0  0  0  0
   -8.3840   21.0000  -32.1030 C   0  0  0  0  0  0  0  0  0  0  0  0
   -7.0020   20.9210  -31.9530 C   0  0  0  0  0  0  0  0  0  0  0  0
   -6.1350   21.9320  -31.7970 N   0  0  0  0  0  0  0  0  0  0  0  0
   -3.2240   22.7080  -29.2160 N   0  0  0  0  0  0  0  0  0  0  0  0
   -2.4820   21.5660  -28.7600 C   0  0  0  0  0  0  0  0  0  0  0  0
   -3.0280   20.7450  -27.7620 C   0  0  0  0  0  0  0  0  0  0  0  0
   -2.3330   19.6210  -27.3100 C   0  0  0  0  0  0  0  0  0  0  0  0
   -1.0870   19.3040  -27.8510 C   0  0  0  0  0  0  0  0  0  0  0  0
   -0.5340   20.1090  -28.8510 C   0  0  0  0  0  0  0  0  0  0  0  0
   -1.2300   21.2330  -29.3280 C   0  0  0  0  0  0  0  0  0  0  0  0
   -0.6090   22.0770  -30.4080 C   0  0  0  0  0  0  0  0  0  0  0  0
    0.2673   23.6902  -26.1505 H   0  0  0  0  0  0  0  0  0  0  0  0
   -0.4878   22.7271  -27.4653 H   0  0  0  0  0  0  0  0  0  0  0  0
    1.2858   23.0117  -27.4653 H   0  0  0  0  0  0  0  0  0  0  0  0
   -1.4562   25.5922  -26.1137 H   0  0  0  0  0  0  0  0  0  0  0  0
   -2.6737   26.3792  -27.2071 H   0  0  0  0  0  0  0  0  0  0  0  0
   -4.5000   25.6620  -29.0500 H   0  0  0  0  0  0  0  0  0  0  0  0
   -3.4527   22.5743  -32.5447 H   0  0  0  0  0  0  0  0  0  0  0  0
   -2.8270   21.2870  -31.4582 H   0  0  0  0  0  0  0  0  0  0  0  0
   -6.4506   17.5682  -32.1752 H   0  0  0  0  0  0  0  0  0  0  0  0
   -8.9606   17.6233  -32.4549 H   0  0  0  0  0  0  0  0  0  0  0  0
  -10.1806   19.8146  -32.4140 H   0  0  0  0  0  0  0  0  0  0  0  0
   -8.9062   21.9678  -32.0779 H   0  0  0  0  0  0  0  0  0  0  0  0
   -4.0109   20.9883  -27.3322 H   0  0  0  0  0  0  0  0  0  0  0  0
   -2.7690   18.9845  -26.5259 H   0  0  0  0  0  0  0  0  0  0  0  0
   -0.5396   18.4205  -27.4907 H   0  0  0  0  0  0  0  0  0  0  0  0
    0.4533   19.8609  -29.2677 H   0  0  0  0  0  0  0  0  0  0  0  0
   -0.0166   22.8822  -29.9490 H   0  0  0  0  0  0  0  0  0  0  0  0
    0.0452   21.4506  -31.0322 H   0  0  0  0  0  0  0  0  0  0  0  0
   -1.4017   22.5152  -31.0322 H   0  0  0  0  0  0  0  0  0  0  0  0
  1  2  1  0
  2  3  1  0
  3  4  2  0
  3  5  1  0
  5  6  1  0
  6  7  1  0
  7  8  2  0
  8  9  1  0
  9 10  2  0
 10 11  1  0
 11 12  1  0
 12 13  2  0
 13 14  1  0
 14 15  2  0
 15 16  1  0
 16 17  2  0
 17 18  1  0
 18 19  2  0
 19 20  1  0
 10 21  1  0
 21 22  1  0
 22 23  2  0
 23 24  1  0
 24 25  2  0
 25 26  1  0
 26 27  2  0
 27 28  1  0
 21  7  1  0
 27 22  1  0
 20 12  1  0
 19 14  1  0
  1 29  1  0
  1 30  1  0
  1 31  1  0
  5 32  1  0
  5 33  1  0
  8 34  1  0
 11 35  1  0
 11 36  1  0
 15 37  1  0
 16 38  1  0
 17 39  1  0
 18 40  1  0
 23 41  1  0
 24 42  1  0
 25 43  1  0
 26 44  1  0
 28 45  1  0
 28 46  1  0
 28 47  1  0
M  CHG  3   2  -1   8   1  20  -1
M  END
>  <UniqueID>  (37) 
35

>  <SMILES>  (37) 
C[N-]C(=O)CSc1[nH+]nc(Cc2nc3ccccc3[n-]2)n1-c1ccccc1C

>  <Energy>  (37) 
115.86097521207522

>  <Genealogy>  (37) 
C[N-]C(=O)CSc1[nH+]nc(Cc2nc3ccccc3[n-]2)n1-c1ccccc1C (protonated)
C[N-]C(=O)CSc1[nH+]nc(Cc2nc3ccccc3[n-]2)n1-c1ccccc1C (3D coordinates assigned)
C[N-]C(=O)CSc1[nH+]nc(Cc2nc3ccccc3[n-]2)n1-c1ccccc1C (optimized conformer: 115.86097521207522 kcal/mol)

>  <smiles>  (37) 
CNC(=O)CSc1nnc(Cc2nc3ccccc3[nH]2)n1-c1ccccc1C

>  <score_type>  (37) 
oracle

>  <origin>  (37) 
adg

>  <m_score__min__energy>  (37) 
-9.9900000000000002

>  <m_primary>  (37) 
energy

$$$$
37:0
     RDKit          3D

 42 44  0  0  0  0  0  0  0  0999 V2000
   -2.6980   18.6200  -26.1000 C   0  0  0  0  0  0  0  0  0  0  0  0
   -1.6730   19.4970  -26.7570 C   0  0  0  0  0  0  0  0  0  0  0  0
   -0.6230   18.9300  -27.4940 C   0  0  0  0  0  0  0  0  0  0  0  0
    0.3090   19.7500  -28.1350 C   0  0  0  0  0  0  0  0  0  0  0  0
    0.1980   21.1400  -28.0500 C   0  0  0  0  0  0  0  0  0  0  0  0
   -0.8470   21.7230  -27.3090 C   0  0  0  0  0  0  0  0  0  0  0  0
   -1.0150   23.1450  -27.2170 N   0  0  0  0  0  0  0  0  0  0  0  0
   -0.9080   24.0880  -28.2920 C   0  0  0  0  0  0  0  0  0  0  0  0
    0.1390   24.1520  -28.9910 O   0  0  0  0  0  0  0  0  0  0  0  0
   -2.0090   25.0760  -28.5190 C   0  0  0  0  0  0  0  0  0  0  0  0
   -2.9640   24.5580  -29.4960 N   0  0  0  0  0  0  0  0  0  0  0  0
   -3.4940   25.2800  -30.4720 N   0  0  0  0  0  0  0  0  0  0  0  0
   -4.3430   24.5500  -31.1860 N   0  0  0  0  0  0  0  0  0  0  0  0
   -4.3690   23.3140  -30.6430 C   0  0  0  0  0  0  0  0  0  0  0  0
   -5.1810   22.2020  -31.1700 C   0  0  0  0  0  0  0  0  0  0  0  0
   -4.8100   21.0180  -30.9430 O   0  0  0  0  0  0  0  0  0  0  0  0
   -6.3450   22.4490  -31.9750 N   0  0  0  0  0  0  0  0  0  0  0  0
   -7.3800   21.4750  -32.1930 C   0  0  0  0  0  0  0  0  0  0  0  0
   -8.7210   21.8280  -31.9650 C   0  0  0  0  0  0  0  0  0  0  0  0
   -9.7410   20.8870  -32.1400 C   0  0  0  0  0  0  0  0  0  0  0  0
   -9.4290   19.5810  -32.5320 C   0  0  0  0  0  0  0  0  0  0  0  0
   -8.0970   19.2150  -32.7430 C   0  0  0  0  0  0  0  0  0  0  0  0
   -7.0750   20.1550  -32.5730 C   0  0  0  0  0  0  0  0  0  0  0  0
   -3.4940   23.3230  -29.5780 C   0  0  0  0  0  0  0  0  0  0  0  0
   -3.1980   22.3250  -28.8060 N   0  0  0  0  0  0  0  0  0  0  0  0
   -1.7910   20.8940  -26.6880 C   0  0  0  0  0  0  0  0  0  0  0  0
   -2.6034   18.7009  -25.0071 H   0  0  0  0  0  0  0  0  0  0  0  0
   -3.7049   18.9405  -26.4056 H   0  0  0  0  0  0  0  0  0  0  0  0
   -2.5371   17.5756  -26.4056 H   0  0  0  0  0  0  0  0  0  0  0  0
   -0.5330   17.8362  -27.5676 H   0  0  0  0  0  0  0  0  0  0  0  0
    1.1327   19.2998  -28.7084 H   0  0  0  0  0  0  0  0  0  0  0  0
    0.9296   21.7809  -28.5638 H   0  0  0  0  0  0  0  0  0  0  0  0
   -2.5291   25.2641  -27.5681 H   0  0  0  0  0  0  0  0  0  0  0  0
   -1.5760   26.0110  -28.9040 H   0  0  0  0  0  0  0  0  0  0  0  0
   -6.3800   23.3320  -32.5340 H   0  0  0  0  0  0  0  0  0  0  0  0
   -8.9702   22.8511  -31.6468 H   0  0  0  0  0  0  0  0  0  0  0  0
  -10.7890   21.1742  -31.9693 H   0  0  0  0  0  0  0  0  0  0  0  0
  -10.2317   18.8425  -32.6741 H   0  0  0  0  0  0  0  0  0  0  0  0
   -7.8516   18.1857  -33.0434 H   0  0  0  0  0  0  0  0  0  0  0  0
   -6.0279   19.8608  -32.7372 H   0  0  0  0  0  0  0  0  0  0  0  0
   -2.9660   22.4500  -27.7970 H   0  0  0  0  0  0  0  0  0  0  0  0
   -2.6332   21.3427  -26.1408 H   0  0  0  0  0  0  0  0  0  0  0  0
  1  2  1  0
  2  3  2  0
  3  4  1  0
  4  5  2  0
  5  6  1  0
  6  7  1  0
  7  8  1  0
  8  9  2  0
  8 10  1  0
 10 11  1  0
 11 12  1  0
 12 13  1  0
 13 14  2  0
 14 15  1  0
 15 16  2  0
 15 17  1  0
 17 18  1  0
 18 19  2  0
 19 20  1  0
 20 21  2  0
 21 22  1  0
 22 23  2  0
 14 24  1  0
 24 25  2  3
  6 26  2  0
 26  2  1  0
 24 11  1  0
 23 18  1  0
  1 27  1  0
  1 28  1  0
  1 29  1  0
  3 30  1  0
  4 31  1  0
  5 32  1  0
 10 33  1  0
 10 34  1  0
 17 35  1  0
 19 36  1  0
 20 37  1  0
 21 38  1  0
 22 39  1  0
 23 40  1  0
 25 41  1  0
 26 42  1  0
M  CHG  2   7  -1  12  -1
M  END
>  <UniqueID>  (38) 
36

>  <SMILES>  (38) 
Cc1cccc([N-]C(=O)Cn2[n-]nc(C(=O)Nc3ccccc3)c2=N)c1

>  <Energy>  (38) 
87.63273800485503

>  <Genealogy>  (38) 
Cc1cccc([N-]C(=O)Cn2[n-]nc(C(=O)Nc3ccccc3)c2=N)c1 (protonated)
Cc1cccc([N-]C(=O)Cn2[n-]nc(C(=O)Nc3ccccc3)c2=N)c1 (3D coordinates assigned)
Cc1cccc([N-]C(=O)Cn2[n-]nc(C(=O)Nc3ccccc3)c2=N)c1 (optimized conformer: 87.63273800485503 kcal/mol)

>  <smiles>  (38) 
Cc1cccc(NC(=O)Cn2[nH]nc(C(=O)Nc3ccccc3)c2=N)c1

>  <score_type>  (38) 
oracle

>  <origin>  (38) 
adg

>  <m_score__min__energy>  (38) 
-11.06

>  <m_primary>  (38) 
energy

$$$$
38:0
     RDKit          3D

 27 29  0  0  1  0  0  0  0  0999 V2000
   -9.1150   18.5570  -31.1850 N   0  0  0  0  0  0  0  0  0  0  0  0
   -8.1350   18.6890  -31.8230 C   0  0  0  0  0  0  0  0  0  0  0  0
   -6.9440   18.8250  -32.6090 C   0  0  0  0  0  0  0  0  0  0  0  0
   -6.1840   17.7130  -32.8890 C   0  0  0  0  0  0  0  0  0  0  0  0
   -5.0390   17.8550  -33.6480 C   0  0  0  0  0  0  0  0  0  0  0  0
   -4.6910   19.1160  -34.1050 C   0  0  0  0  0  0  0  0  0  0  0  0
   -5.4240   20.2150  -33.8410 N   0  0  0  0  0  0  0  0  0  0  0  0
   -6.5270   20.0610  -33.1060 C   0  0  0  0  0  0  0  0  0  0  0  0
   -7.2730   21.0680  -32.8170 N   0  0  0  0  0  0  0  0  0  0  0  0
   -6.8370   22.0510  -31.8660 C   0  0  0  0  0  0  0  0  0  0  0  0
   -7.5160   22.3080  -30.7010 C   0  0  0  0  0  0  0  0  0  0  0  0
   -7.1110   23.2430  -29.7830 C   0  0  0  0  0  0  0  0  0  0  0  0
   -5.9590   23.9620  -30.0500 C   0  0  0  0  0  0  0  0  0  0  0  0
   -5.3110   24.9560  -29.3250 C   0  0  0  0  0  0  0  0  0  0  0  0
   -4.2310   25.3120  -30.0470 N   0  0  0  0  0  0  0  0  0  0  0  0
   -4.1730   24.5990  -31.1700 N   0  0  0  0  0  0  0  0  0  0  0  0
   -5.2240   23.7460  -31.2180 C   0  0  0  0  0  0  0  0  0  0  0  0
   -5.6760   22.7940  -32.1070 C   0  0  0  0  0  0  0  0  0  0  0  0
   -6.4844   16.7237  -32.5133 H   0  0  0  0  0  0  0  0  0  0  0  0
   -4.4138   16.9818  -33.8858 H   0  0  0  0  0  0  0  0  0  0  0  0
   -3.7779   19.2242  -34.7087 H   0  0  0  0  0  0  0  0  0  0  0  0
   -5.1240   21.1270  -34.2020 H   0  0  0  0  0  0  0  0  0  0  0  0
   -8.4316   21.7348  -30.4931 H   0  0  0  0  0  0  0  0  0  0  0  0
   -7.6853   23.4165  -28.8610 H   0  0  0  0  0  0  0  0  0  0  0  0
   -5.6195   25.3699  -28.3536 H   0  0  0  0  0  0  0  0  0  0  0  0
   -3.4960   26.0430  -29.8120 H   0  0  0  0  0  0  0  0  0  0  0  0
   -5.1081   22.6135  -33.0316 H   0  0  0  0  0  0  0  0  0  0  0  0
  1  2  3  0
  2  3  1  0
  3  4  2  0
  4  5  1  0
  5  6  2  0
  6  7  1  0
  7  8  1  0
  8  9  2  0
  9 10  1  0
 10 11  1  0
 11 12  2  0
 12 13  1  0
 13 14  2  0
 14 15  1  0
 15 16  1  0
 16 17  2  0
 17 18  1  0
  8  3  1  0
 18 10  2  0
 17 13  1  0
  4 19  1  0
  5 20  1  0
  6 21  1  0
  7 22  1  0
 11 23  1  0
 12 24  1  0
 14 25  1  0
 15 26  1  0
 18 27  1  0
M  END
>  <smiles>  (39) 
N#Cc1ccc[nH]c1=Nc1ccc2c[nH]nc2c1

>  <score_type>  (39) 
oracle

>  <origin>  (39) 
adg

>  <m_score__min__energy>  (39) 
-7.9299999999999997

>  <m_primary>  (39) 
energy

$$$$
39:0
     RDKit          3D

 44 46  0  0  0  0  0  0  0  0999 V2000
   -1.7820   24.8910  -28.5910 C   0  0  0  0  0  0  0  0  0  0  0  0
   -2.4720   24.5100  -27.2800 C   0  0  0  0  0  0  0  0  0  0  0  0
   -3.8640   23.8900  -27.5020 C   0  0  0  0  0  0  0  0  0  0  0  0
   -3.8230   22.4020  -27.9000 C   0  0  0  0  0  0  0  0  0  0  0  0
   -3.6400   22.2210  -29.3560 N   0  0  0  0  0  0  0  0  0  0  0  0
   -2.4640   21.6960  -29.8450 C   0  0  0  0  0  0  0  0  0  0  0  0
   -1.5300   21.3480  -29.0730 O   0  0  0  0  0  0  0  0  0  0  0  0
   -2.3230   21.5660  -31.2180 C   0  0  0  0  0  0  0  0  0  0  0  0
   -3.3290   21.9410  -32.0530 C   0  0  0  0  0  0  0  0  0  0  0  0
   -2.9570   21.7290  -33.3350 N   0  0  0  0  0  0  0  0  0  0  0  0
   -1.7090   21.2180  -33.2260 C   0  0  0  0  0  0  0  0  0  0  0  0
   -1.0160   20.8840  -34.2240 O   0  0  0  0  0  0  0  0  0  0  0  0
   -1.2850   21.1020  -31.9440 N   0  0  0  0  0  0  0  0  0  0  0  0
    0.0030   20.6000  -31.4690 C   0  0  0  0  0  0  0  0  0  0  0  0
   -4.5090   22.4500  -31.5920 N   0  0  0  0  0  0  0  0  0  0  0  0
   -5.6010   22.8520  -32.5010 C   0  0  0  0  0  0  0  0  0  0  0  0
   -6.8280   21.9840  -32.2970 C   0  0  0  0  0  0  0  0  0  0  0  0
   -7.9670   22.5360  -31.6740 C   0  0  0  0  0  0  0  0  0  0  0  0
   -7.9660   23.8200  -31.2380 F   0  0  0  0  0  0  0  0  0  0  0  0
   -9.1160   21.7650  -31.4850 C   0  0  0  0  0  0  0  0  0  0  0  0
   -9.1490   20.4360  -31.9080 C   0  0  0  0  0  0  0  0  0  0  0  0
   -8.0280   19.8710  -32.5160 C   0  0  0  0  0  0  0  0  0  0  0  0
   -6.8670   20.6300  -32.7130 C   0  0  0  0  0  0  0  0  0  0  0  0
   -5.4920   19.8280  -33.4700 Cl  0  0  0  0  0  0  0  0  0  0  0  0
   -4.6540   22.5900  -30.2250 C   0  0  0  0  0  0  0  0  0  0  0  0
   -5.7300   23.0640  -29.7610 O   0  0  0  0  0  0  0  0  0  0  0  0
   -0.8385   25.4120  -28.3709 H   0  0  0  0  0  0  0  0  0  0  0  0
   -1.5715   23.9813  -29.1724 H   0  0  0  0  0  0  0  0  0  0  0  0
   -2.4398   25.5538  -29.1724 H   0  0  0  0  0  0  0  0  0  0  0  0
   -1.8421   23.7809  -26.7493 H   0  0  0  0  0  0  0  0  0  0  0  0
   -2.6071   25.4314  -26.6945 H   0  0  0  0  0  0  0  0  0  0  0  0
   -4.4389   23.9842  -26.5690 H   0  0  0  0  0  0  0  0  0  0  0  0
   -4.3284   24.4337  -28.3379 H   0  0  0  0  0  0  0  0  0  0  0  0
   -2.9872   21.9171  -27.3744 H   0  0  0  0  0  0  0  0  0  0  0  0
   -4.7860   21.9498  -27.6206 H   0  0  0  0  0  0  0  0  0  0  0  0
   -3.4810   21.8990  -34.2210 H   0  0  0  0  0  0  0  0  0  0  0  0
    0.0121   20.5965  -30.3690 H   0  0  0  0  0  0  0  0  0  0  0  0
    0.1569   19.5760  -31.8402 H   0  0  0  0  0  0  0  0  0  0  0  0
    0.8093   21.2497  -31.8402 H   0  0  0  0  0  0  0  0  0  0  0  0
   -5.8659   23.9010  -32.3026 H   0  0  0  0  0  0  0  0  0  0  0  0
   -5.2552   22.7303  -33.5381 H   0  0  0  0  0  0  0  0  0  0  0  0
   -9.9988   22.2075  -31.0005 H   0  0  0  0  0  0  0  0  0  0  0  0
  -10.0582   19.8343  -31.7622 H   0  0  0  0  0  0  0  0  0  0  0  0
   -8.0557   18.8212  -32.8434 H   0  0  0  0  0  0  0  0  0  0  0  0
  1  2  1  0
  2  3  1  0
  3  4  1  0
  4  5  1  0
  5  6  1  0
  6  7  2  0
  6  8  1  0
  8  9  2  0
  9 10  1  0
 10 11  1  0
 11 12  2  0
 11 13  1  0
 13 14  1  0
  9 15  1  0
 15 16  1  0
 16 17  1  0
 17 18  2  0
 18 19  1  0
 18 20  1  0
 20 21  2  0
 21 22  1  0
 22 23  2  0
 23 24  1  0
 15 25  1  0
 25 26  2  0
 25  5  1  0
 13  8  1  0
 23 17  1  0
  1 27  1  0
  1 28  1  0
  1 29  1  0
  2 30  1  0
  2 31  1  0
  3 32  1  0
  3 33  1  0
  4 34  1  0
  4 35  1  0
 10 36  1  0
 14 37  1  0
 14 38  1  0
 14 39  1  0
 16 40  1  0
 16 41  1  0
 20 42  1  0
 21 43  1  0
 22 44  1  0
M  END
>  <UniqueID>  (40) 
37

>  <SMILES>  (40) 
CCCCn1c(=O)c2c([nH]c(=O)n2C)n(Cc2c(F)cccc2Cl)c1=O

>  <Energy>  (40) 
93.32627110786882

>  <Genealogy>  (40) 
CCCCn1c(=O)c2c([nH]c(=O)n2C)n(Cc2c(F)cccc2Cl)c1=O (3D coordinates assigned)
CCCCn1c(=O)c2c([nH]c(=O)n2C)n(Cc2c(F)cccc2Cl)c1=O (optimized conformer: 93.32627110786882 kcal/mol)

>  <smiles>  (40) 
CCCCn1c(=O)c2c([nH]c(=O)n2C)n(Cc2c(F)cccc2Cl)c1=O

>  <score_type>  (40) 
oracle

>  <origin>  (40) 
adg

>  <m_score__min__energy>  (40) 
-7.4500000000000002

>  <m_primary>  (40) 
energy

$$$$
40:0
     RDKit          3D

 55 57  0  0  0  0  0  0  0  0999 V2000
   -4.1587   21.3287  -27.0574 H   0  0  0  0  0  0  0  0  0  0  0  0
   -3.3400   21.3360  -27.7920 C   0  0  0  0  0  0  0  0  0  0  0  0
   -2.8580   20.1520  -28.1930 C   0  0  0  0  0  0  0  0  0  0  0  0
   -3.5304   19.5029  -28.7732 H   0  0  0  0  0  0  0  0  0  0  0  0
   -1.4710   19.6380  -27.9140 C   0  0  0  0  0  0  0  0  0  0  0  0
   -0.8093   20.4867  -27.6862 H   0  0  0  0  0  0  0  0  0  0  0  0
   -1.1054   19.1001  -28.8011 H   0  0  0  0  0  0  0  0  0  0  0  0
   -1.4860   18.6760  -26.7220 C   0  0  0  0  0  0  0  0  0  0  0  0
   -0.7961   19.0492  -25.9508 H   0  0  0  0  0  0  0  0  0  0  0  0
   -1.1735   17.6813  -27.0726 H   0  0  0  0  0  0  0  0  0  0  0  0
   -2.8850   18.5610  -26.1250 C   0  0  0  0  0  0  0  0  0  0  0  0
   -2.8168   18.5666  -25.0271 H   0  0  0  0  0  0  0  0  0  0  0  0
   -3.4971   19.4119  -26.4587 H   0  0  0  0  0  0  0  0  0  0  0  0
   -3.3500   17.6216  -26.4587 H   0  0  0  0  0  0  0  0  0  0  0  0
   -2.8570   22.6480  -28.2600 C   0  0  0  0  0  0  0  0  0  0  0  0
   -3.6070   23.3380  -29.1560 N   0  0  0  0  0  0  0  0  0  0  0  0
   -3.2310   24.5660  -29.6060 C   0  0  0  0  0  0  0  0  0  0  0  0
   -3.9490   25.2150  -30.4790 N   0  0  0  0  0  0  0  0  0  0  0  0
   -5.1770   24.7560  -31.1450 C   0  0  0  0  0  0  0  0  0  0  0  0
   -5.4477   25.5167  -31.8920 H   0  0  0  0  0  0  0  0  0  0  0  0
   -6.3550   24.6590  -30.1590 C   0  0  0  0  0  0  0  0  0  0  0  0
   -6.0864   23.9761  -29.3396 H   0  0  0  0  0  0  0  0  0  0  0  0
   -6.5701   25.6615  -29.7606 H   0  0  0  0  0  0  0  0  0  0  0  0
   -7.6070   24.1270  -30.8710 C   0  0  0  0  0  0  0  0  0  0  0  0
   -8.4106   24.0042  -30.1299 H   0  0  0  0  0  0  0  0  0  0  0  0
   -7.8868   24.8527  -31.6489 H   0  0  0  0  0  0  0  0  0  0  0  0
   -7.3650   22.8270  -31.5300 N   0  0  0  0  0  0  0  0  0  0  0  0
   -7.1900   21.7240  -30.5590 C   0  0  0  0  0  0  0  0  0  0  0  0
   -6.1791   21.7790  -30.1289 H   0  0  0  0  0  0  0  0  0  0  0  0
   -7.9481   21.8261  -29.7685 H   0  0  0  0  0  0  0  0  0  0  0  0
   -7.3690   20.3890  -31.2300 C   0  0  0  0  0  0  0  0  0  0  0  0
   -8.6600   19.8940  -31.4770 C   0  0  0  0  0  0  0  0  0  0  0  0
   -9.5395   20.4857  -31.1831 H   0  0  0  0  0  0  0  0  0  0  0  0
   -8.8310   18.6520  -32.0950 C   0  0  0  0  0  0  0  0  0  0  0  0
   -9.8441   18.2654  -32.2800 H   0  0  0  0  0  0  0  0  0  0  0  0
   -7.7170   17.9010  -32.4780 C   0  0  0  0  0  0  0  0  0  0  0  0
   -7.8538   16.9223  -32.9611 H   0  0  0  0  0  0  0  0  0  0  0  0
   -6.4290   18.3920  -32.2480 C   0  0  0  0  0  0  0  0  0  0  0  0
   -5.5532   17.8015  -32.5551 H   0  0  0  0  0  0  0  0  0  0  0  0
   -6.2520   19.6330  -31.6280 C   0  0  0  0  0  0  0  0  0  0  0  0
   -5.2370   20.0185  -31.4513 H   0  0  0  0  0  0  0  0  0  0  0  0
   -6.2690   22.9230  -32.5220 C   0  0  0  0  0  0  0  0  0  0  0  0
   -6.0904   21.9235  -32.9453 H   0  0  0  0  0  0  0  0  0  0  0  0
   -6.5829   23.6438  -33.2913 H   0  0  0  0  0  0  0  0  0  0  0  0
   -4.9530   23.4410  -31.9140 C   0  0  0  0  0  0  0  0  0  0  0  0
   -4.5543   22.6840  -31.2226 H   0  0  0  0  0  0  0  0  0  0  0  0
   -4.2418   23.6312  -32.7313 H   0  0  0  0  0  0  0  0  0  0  0  0
   -2.0850   25.1280  -29.1400 N   0  0  0  0  0  0  0  0  0  0  0  0
   -1.3040   24.4860  -28.2320 C   0  0  0  0  0  0  0  0  0  0  0  0
   -0.0660   25.1470  -27.7130 C   0  0  0  0  0  0  0  0  0  0  0  0
   -0.0800   25.1395  -26.6131 H   0  0  0  0  0  0  0  0  0  0  0  0
    0.8191   24.6014  -28.0722 H   0  0  0  0  0  0  0  0  0  0  0  0
   -0.0270   26.1860  -28.0722 H   0  0  0  0  0  0  0  0  0  0  0  0
   -1.6880   23.2300  -27.7530 C   0  0  0  0  0  0  0  0  0  0  0  0
   -1.0850   22.7098  -26.9942 H   0  0  0  0  0  0  0  0  0  0  0  0
  1  2  1  0
  2  3  2  0
  3  4  1  0
  3  5  1  0
  5  6  1  0
  5  7  1  0
  5  8  1  0
  8  9  1  0
  8 10  1  0
  8 11  1  0
 11 12  1  0
 11 13  1  0
 11 14  1  0
  2 15  1  0
 15 16  2  0
 16 17  1  0
 17 18  2  0
 18 19  1  0
 19 20  1  0
 19 21  1  0
 21 22  1  0
 21 23  1  0
 21 24  1  0
 24 25  1  0
 24 26  1  0
 24 27  1  0
 27 28  1  0
 28 29  1  0
 28 30  1  0
 28 31  1  0
 31 32  2  0
 32 33  1  0
 32 34  1  0
 34 35  1  0
 34 36  2  0
 36 37  1  0
 36 38  1  0
 38 39  1  0
 38 40  2  0
 40 41  1  0
 27 42  1  0
 42 43  1  0
 42 44  1  0
 42 45  1  0
 45 46  1  0
 45 47  1  0
 17 48  1  0
 48 49  1  0
 49 50  1  0
 50 51  1  0
 50 52  1  0
 50 53  1  0
 49 54  2  0
 54 55  1  0
 54 15  1  0
 45 19  1  0
 40 31  1  0
M  CHG  1  48  -1
M  END
>  <UniqueID>  (41) 
38

>  <SMILES>  (41) 
CCC/C=C\c1cc(C)[n-]/c(=N/C2CCN(Cc3ccccc3)CC2)n1

>  <Energy>  (41) 
57.50033613995952

>  <Genealogy>  (41) 
CCCC=Cc1cc(C)[n-]c(=NC2CCN(Cc3ccccc3)CC2)n1 (protonated)
CCC/C=C\c1cc(C)[n-]/c(=N/C2CCN(Cc3ccccc3)CC2)n1 (cis-trans isomerization)
CCC/C=C\c1cc(C)[n-]/c(=N/C2CCN(Cc3ccccc3)CC2)n1 (3D coordinates assigned)
CCC/C=C\c1cc(C)[n-]/c(=N/C2CCN(Cc3ccccc3)CC2)n1 (nonaromatic ring conformer: 57.50033613995952 kcal/mol)

>  <smiles>  (41) 
CCCC=Cc1cc(C)[nH]c(=NC2CCN(Cc3ccccc3)CC2)n1

>  <score_type>  (41) 
oracle

>  <origin>  (41) 
adg

>  <m_score__min__energy>  (41) 
-10.710000000000001

>  <m_primary>  (41) 
energy

$$$$
41:0
     RDKit          3D

 48 52  0  0  0  0  0  0  0  0999 V2000
   -1.5370   19.5650  -26.8340 F   0  0  0  0  0  0  0  0  0  0  0  0
   -1.5240   20.1020  -28.0790 C   0  0  0  0  0  0  0  0  0  0  0  0
   -2.7070   20.5810  -28.6460 C   0  0  0  0  0  0  0  0  0  0  0  0
   -2.6970   21.1340  -29.9300 C   0  0  0  0  0  0  0  0  0  0  0  0
   -1.4940   21.2100  -30.6610 C   0  0  0  0  0  0  0  0  0  0  0  0
   -1.4240   21.7510  -31.9560 O   0  0  0  0  0  0  0  0  0  0  0  0
   -1.7800   21.0650  -33.1550 C   0  0  0  0  0  0  0  0  0  0  0  0
   -3.2230   20.6640  -33.1190 C   0  0  0  0  0  0  0  0  0  0  0  0
   -3.6910   19.4580  -33.5210 N   0  0  0  0  0  0  0  0  0  0  0  0
   -5.0090   19.4790  -33.3370 N   0  0  0  0  0  0  0  0  0  0  0  0
   -5.3270   20.6860  -32.8310 C   0  0  0  0  0  0  0  0  0  0  0  0
   -6.5780   21.1860  -32.4630 C   0  0  0  0  0  0  0  0  0  0  0  0
   -7.7640   20.4460  -32.5860 C   0  0  0  0  0  0  0  0  0  0  0  0
   -8.9810   21.0120  -32.1960 C   0  0  0  0  0  0  0  0  0  0  0  0
   -9.0220   22.3120  -31.6830 C   0  0  0  0  0  0  0  0  0  0  0  0
   -7.8470   23.0590  -31.5560 C   0  0  0  0  0  0  0  0  0  0  0  0
   -6.6130   22.5100  -31.9420 C   0  0  0  0  0  0  0  0  0  0  0  0
   -5.4050   23.2470  -31.8210 C   0  0  0  0  0  0  0  0  0  0  0  0
   -5.4210   24.5470  -31.3050 O   0  0  0  0  0  0  0  0  0  0  0  0
   -5.6120   24.8260  -29.9220 C   0  0  0  0  0  0  0  0  0  0  0  0
   -4.3530   24.4980  -29.1750 C   0  0  0  0  0  0  0  0  0  0  0  0
   -4.4000   24.2110  -27.8000 C   0  0  0  0  0  0  0  0  0  0  0  0
   -3.2220   23.9450  -27.0960 C   0  0  0  0  0  0  0  0  0  0  0  0
   -1.9900   23.9770  -27.7560 C   0  0  0  0  0  0  0  0  0  0  0  0
   -1.9340   24.2790  -29.1190 C   0  0  0  0  0  0  0  0  0  0  0  0
   -3.1100   24.5450  -29.8270 C   0  0  0  0  0  0  0  0  0  0  0  0
   -4.2270   22.6750  -32.2110 N   0  0  0  0  0  0  0  0  0  0  0  0
   -4.2350   21.4360  -32.6910 N   0  0  0  0  0  0  0  0  0  0  0  0
   -0.3120   20.7300  -30.0800 C   0  0  0  0  0  0  0  0  0  0  0  0
   -0.3270   20.1780  -28.7950 C   0  0  0  0  0  0  0  0  0  0  0  0
   -3.6490   20.5230  -28.0809 H   0  0  0  0  0  0  0  0  0  0  0  0
   -3.6312   21.5112  -30.3715 H   0  0  0  0  0  0  0  0  0  0  0  0
   -1.6095   21.7280  -34.0160 H   0  0  0  0  0  0  0  0  0  0  0  0
   -1.1607   20.1605  -33.2456 H   0  0  0  0  0  0  0  0  0  0  0  0
   -5.6490   18.6830  -33.5550 H   0  0  0  0  0  0  0  0  0  0  0  0
   -7.7359   19.4227  -32.9885 H   0  0  0  0  0  0  0  0  0  0  0  0
   -9.9107   20.4321  -32.2931 H   0  0  0  0  0  0  0  0  0  0  0  0
   -9.9840   22.7495  -31.3776 H   0  0  0  0  0  0  0  0  0  0  0  0
   -7.8891   24.0813  -31.1520 H   0  0  0  0  0  0  0  0  0  0  0  0
   -5.8506   25.8918  -29.7911 H   0  0  0  0  0  0  0  0  0  0  0  0
   -6.4420   24.2178  -29.5331 H   0  0  0  0  0  0  0  0  0  0  0  0
   -5.3671   24.1956  -27.2760 H   0  0  0  0  0  0  0  0  0  0  0  0
   -3.2644   23.7104  -26.0222 H   0  0  0  0  0  0  0  0  0  0  0  0
   -1.0640   23.7642  -27.2018 H   0  0  0  0  0  0  0  0  0  0  0  0
   -0.9634   24.3075  -29.6358 H   0  0  0  0  0  0  0  0  0  0  0  0
   -3.0615   24.7918  -30.8979 H   0  0  0  0  0  0  0  0  0  0  0  0
    0.6338   20.7879  -30.6386 H   0  0  0  0  0  0  0  0  0  0  0  0
    0.6053   19.8031  -28.3475 H   0  0  0  0  0  0  0  0  0  0  0  0
  1  2  1  0
  2  3  2  0
  3  4  1  0
  4  5  2  0
  5  6  1  0
  6  7  1  0
  7  8  1  0
  8  9  2  0
  9 10  1  0
 10 11  2  0
 11 12  1  0
 12 13  2  0
 13 14  1  0
 14 15  2  0
 15 16  1  0
 16 17  2  0
 17 18  1  0
 18 19  1  0
 19 20  1  0
 20 21  1  0
 21 22  2  0
 22 23  1  0
 23 24  2  0
 24 25  1  0
 25 26  2  0
 18 27  2  0
 27 28  1  0
  5 29  1  0
 29 30  2  0
 30  2  1  0
 28  8  1  0
 28 11  1  0
 17 12  1  0
 26 21  1  0
  3 31  1  0
  4 32  1  0
  7 33  1  0
  7 34  1  0
 10 35  1  0
 13 36  1  0
 14 37  1  0
 15 38  1  0
 16 39  1  0
 20 40  1  0
 20 41  1  0
 22 42  1  0
 23 43  1  0
 24 44  1  0
 25 45  1  0
 26 46  1  0
 29 47  1  0
 30 48  1  0
M  CHG  1  10   1
M  END
>  <UniqueID>  (42) 
39

>  <SMILES>  (42) 
Fc1ccc(OCc2n[nH+]c3c4ccccc4c(OCc4ccccc4)nn23)cc1

>  <Energy>  (42) 
99.3373396946731

>  <Genealogy>  (42) 
Fc1ccc(OCc2n[nH+]c3c4ccccc4c(OCc4ccccc4)nn23)cc1 (protonated)
Fc1ccc(OCc2n[nH+]c3c4ccccc4c(OCc4ccccc4)nn23)cc1 (3D coordinates assigned)
Fc1ccc(OCc2n[nH+]c3c4ccccc4c(OCc4ccccc4)nn23)cc1 (optimized conformer: 99.3373396946731 kcal/mol)

>  <smiles>  (42) 
Fc1ccc(OCc2nnc3c4ccccc4c(OCc4ccccc4)nn23)cc1

>  <score_type>  (42) 
oracle

>  <origin>  (42) 
adg

>  <m_score__min__energy>  (42) 
-9.1300000000000008

>  <m_primary>  (42) 
energy

$$$$
42:0
     RDKit          3D

 34 36  0  0  0  0  0  0  0  0999 V2000
   -3.7430   24.1140  -28.1830 C   0  0  0  0  0  0  0  0  0  0  0  0
   -2.8480   24.5330  -29.3430 C   0  0  0  0  0  0  0  0  0  0  0  0
   -3.6310   24.9170  -30.4710 O   0  0  0  0  0  0  0  0  0  0  0  0
   -4.8320   24.2920  -30.8260 C   0  0  0  0  0  0  0  0  0  0  0  0
   -6.0480   24.8110  -30.4680 N   0  0  0  0  0  0  0  0  0  0  0  0
   -7.2200   24.1890  -30.8180 C   0  0  0  0  0  0  0  0  0  0  0  0
   -7.2010   23.0290  -31.5410 N   0  0  0  0  0  0  0  0  0  0  0  0
   -5.9950   22.5240  -31.8990 C   0  0  0  0  0  0  0  0  0  0  0  0
   -4.8280   23.1170  -31.5630 C   0  0  0  0  0  0  0  0  0  0  0  0
   -3.7840   22.4020  -32.0180 N   0  0  0  0  0  0  0  0  0  0  0  0
   -4.3890   21.3550  -32.6440 C   0  0  0  0  0  0  0  0  0  0  0  0
   -5.7490   21.4070  -32.5980 N   0  0  0  0  0  0  0  0  0  0  0  0
   -6.7250   20.4250  -33.0840 C   0  0  1  0  0  0  0  0  0  0  0  0
   -6.3510   18.9810  -32.6560 C   0  0  0  0  0  0  0  0  0  0  0  0
   -7.5960   18.0980  -32.6950 C   0  0  0  0  0  0  0  0  0  0  0  0
   -8.7070   18.6780  -31.8070 C   0  0  0  0  0  0  0  0  0  0  0  0
   -8.5300   20.1890  -31.5760 C   0  0  0  0  0  0  0  0  0  0  0  0
   -8.0470   20.8340  -32.7390 O   0  0  0  0  0  0  0  0  0  0  0  0
   -3.2434   24.3479  -27.2313 H   0  0  0  0  0  0  0  0  0  0  0  0
   -4.6966   24.6592  -28.2402 H   0  0  0  0  0  0  0  0  0  0  0  0
   -3.9350   23.0324  -28.2402 H   0  0  0  0  0  0  0  0  0  0  0  0
   -2.2252   25.3837  -29.0294 H   0  0  0  0  0  0  0  0  0  0  0  0
   -2.2143   23.6798  -29.6266 H   0  0  0  0  0  0  0  0  0  0  0  0
   -8.1822   24.6272  -30.5144 H   0  0  0  0  0  0  0  0  0  0  0  0
   -3.8328   20.5453  -33.1391 H   0  0  0  0  0  0  0  0  0  0  0  0
   -6.6981   20.3920  -34.1832 H   0  0  0  0  0  0  0  0  0  0  0  0
   -5.5948   18.5786  -33.3461 H   0  0  0  0  0  0  0  0  0  0  0  0
   -5.9449   18.9960  -31.6338 H   0  0  0  0  0  0  0  0  0  0  0  0
   -7.9597   18.0338  -33.7311 H   0  0  0  0  0  0  0  0  0  0  0  0
   -7.3305   17.0991  -32.3185 H   0  0  0  0  0  0  0  0  0  0  0  0
   -9.6779   18.5045  -32.2940 H   0  0  0  0  0  0  0  0  0  0  0  0
   -8.6572   18.1765  -30.8292 H   0  0  0  0  0  0  0  0  0  0  0  0
   -9.5016   20.6257  -31.3014 H   0  0  0  0  0  0  0  0  0  0  0  0
   -7.7964   20.3332  -30.7691 H   0  0  0  0  0  0  0  0  0  0  0  0
  1  2  1  0
  2  3  1  0
  3  4  1  0
  4  5  2  0
  5  6  1  0
  6  7  2  0
  7  8  1  0
  8  9  2  0
  9 10  1  0
 10 11  2  0
 11 12  1  0
 12 13  1  0
 13 14  1  0
 14 15  1  0
 15 16  1  0
 16 17  1  0
 17 18  1  0
  9  4  1  0
 18 13  1  0
 12  8  1  0
  1 19  1  0
  1 20  1  0
  1 21  1  0
  2 22  1  0
  2 23  1  0
  6 24  1  0
 11 25  1  0
 13 26  1  6
 14 27  1  0
 14 28  1  0
 15 29  1  0
 15 30  1  0
 16 31  1  0
 16 32  1  0
 17 33  1  0
 17 34  1  0
M  END
>  <UniqueID>  (43) 
40

>  <SMILES>  (43) 
CCOc1ncnc2c1ncn2[C@H]1CCCCO1

>  <Energy>  (43) 
80.04727966226137

>  <Genealogy>  (43) 
CCOc1ncnc2c1ncn2[C@H]1CCCCO1 (chirality)
CCOc1ncnc2c1ncn2[C@H]1CCCCO1 (3D coordinates assigned)
CCOc1ncnc2c1ncn2[C@H]1CCCCO1 (nonaromatic ring conformer: 80.04727966226137 kcal/mol)

>  <smiles>  (43) 
CCOc1ncnc2c1ncn2C1CCCCO1

>  <score_type>  (43) 
oracle

>  <origin>  (43) 
adg

>  <m_score__min__energy>  (43) 
-6.96

>  <m_primary>  (43) 
energy

$$$$
43:0
     RDKit          3D

 48 49  0  0  0  0  0  0  0  0999 V2000
   -4.8890   16.0420  -34.1500 C   0  0  0  0  0  0  0  0  0  0  0  0
   -5.1910   17.3550  -34.8640 C   0  0  0  0  0  0  0  0  0  0  0  0
   -5.2590   18.4580  -33.8770 N   0  0  0  0  0  0  0  0  0  0  0  0
   -3.9870   18.6410  -33.1420 C   0  0  0  0  0  0  0  0  0  0  0  0
   -3.4430   20.0510  -33.3610 C   0  0  0  0  0  0  0  0  0  0  0  0
   -6.5850   18.1910  -32.7590 S   0  0  0  0  0  0  0  0  0  0  0  0
   -6.0900   17.5300  -31.5030 O   0  0  0  0  0  0  0  0  0  0  0  0
   -7.6180   17.2960  -33.3890 O   0  0  0  0  0  0  0  0  0  0  0  0
   -7.3220   19.7280  -32.3180 C   0  0  0  0  0  0  0  0  0  0  0  0
   -8.6550   19.7830  -31.8910 C   0  0  0  0  0  0  0  0  0  0  0  0
   -9.2450   21.0120  -31.5890 C   0  0  0  0  0  0  0  0  0  0  0  0
   -8.5090   22.1930  -31.7100 C   0  0  0  0  0  0  0  0  0  0  0  0
   -7.1690   22.1550  -32.1350 C   0  0  0  0  0  0  0  0  0  0  0  0
   -6.4220   23.3790  -32.3090 N   0  0  0  0  0  0  0  0  0  0  0  0
   -5.2960   23.4640  -31.3640 C   0  0  0  0  0  0  0  0  0  0  0  0
   -5.1040   24.8620  -30.8530 C   0  0  0  0  0  0  0  0  0  0  0  0
   -6.0600   25.6830  -30.9010 O   0  0  0  0  0  0  0  0  0  0  0  0
   -3.8310   25.2480  -30.3230 N   0  0  0  0  0  0  0  0  0  0  0  0
   -3.1280   24.6030  -29.2530 C   0  0  0  0  0  0  0  0  0  0  0  0
   -3.7820   23.6000  -28.5260 C   0  0  0  0  0  0  0  0  0  0  0  0
   -3.1140   22.9180  -27.5040 C   0  0  0  0  0  0  0  0  0  0  0  0
   -1.7840   23.2270  -27.2090 C   0  0  0  0  0  0  0  0  0  0  0  0
   -1.1360   22.5630  -26.2210 F   0  0  0  0  0  0  0  0  0  0  0  0
   -1.1170   24.2130  -27.9420 C   0  0  0  0  0  0  0  0  0  0  0  0
   -1.7810   24.8970  -28.9650 C   0  0  0  0  0  0  0  0  0  0  0  0
   -6.5830   20.9130  -32.4420 C   0  0  0  0  0  0  0  0  0  0  0  0
   -4.9252   16.1995  -33.0619 H   0  0  0  0  0  0  0  0  0  0  0  0
   -5.6372   15.2883  -34.4365 H   0  0  0  0  0  0  0  0  0  0  0  0
   -3.8867   15.6909  -34.4365 H   0  0  0  0  0  0  0  0  0  0  0  0
   -4.3949   17.5658  -35.5932 H   0  0  0  0  0  0  0  0  0  0  0  0
   -6.1569   17.2723  -35.3839 H   0  0  0  0  0  0  0  0  0  0  0  0
   -4.1634   18.4835  -32.0677 H   0  0  0  0  0  0  0  0  0  0  0  0
   -3.2516   17.9131  -33.5153 H   0  0  0  0  0  0  0  0  0  0  0  0
   -3.2588   20.5283  -32.3872 H   0  0  0  0  0  0  0  0  0  0  0  0
   -2.5012   19.9969  -33.9268 H   0  0  0  0  0  0  0  0  0  0  0  0
   -4.1771   20.6435  -33.9268 H   0  0  0  0  0  0  0  0  0  0  0  0
   -9.2385   18.8556  -31.7934 H   0  0  0  0  0  0  0  0  0  0  0  0
  -10.2923   21.0502  -31.2549 H   0  0  0  0  0  0  0  0  0  0  0  0
   -8.9801   23.1580  -31.4716 H   0  0  0  0  0  0  0  0  0  0  0  0
   -7.0600   24.1930  -32.1430 H   0  0  0  0  0  0  0  0  0  0  0  0
   -6.0650   23.4590  -33.2890 H   0  0  0  0  0  0  0  0  0  0  0  0
   -5.4947   22.7972  -30.5120 H   0  0  0  0  0  0  0  0  0  0  0  0
   -4.3801   23.1641  -31.8943 H   0  0  0  0  0  0  0  0  0  0  0  0
   -4.8267   23.3474  -28.7602 H   0  0  0  0  0  0  0  0  0  0  0  0
   -3.6365   22.1373  -26.9317 H   0  0  0  0  0  0  0  0  0  0  0  0
   -0.0677   24.4512  -27.7135 H   0  0  0  0  0  0  0  0  0  0  0  0
   -1.2505   25.6659  -29.5458 H   0  0  0  0  0  0  0  0  0  0  0  0
   -5.5376   20.8716  -32.7817 H   0  0  0  0  0  0  0  0  0  0  0  0
  1  2  1  0
  2  3  1  0
  3  4  1  0
  4  5  1  0
  3  6  1  0
  6  7  2  0
  6  8  2  0
  6  9  1  0
  9 10  2  0
 10 11  1  0
 11 12  2  0
 12 13  1  0
 13 14  1  0
 14 15  1  0
 15 16  1  0
 16 17  2  0
 16 18  1  0
 18 19  1  0
 19 20  2  0
 20 21  1  0
 21 22  2  0
 22 23  1  0
 22 24  1  0
 24 25  2  0
 13 26  2  0
 26  9  1  0
 25 19  1  0
  1 27  1  0
  1 28  1  0
  1 29  1  0
  2 30  1  0
  2 31  1  0
  4 32  1  0
  4 33  1  0
  5 34  1  0
  5 35  1  0
  5 36  1  0
 10 37  1  0
 11 38  1  0
 12 39  1  0
 14 40  1  0
 14 41  1  0
 15 42  1  0
 15 43  1  0
 20 44  1  0
 21 45  1  0
 24 46  1  0
 25 47  1  0
 26 48  1  0
M  CHG  2  14   1  18  -1
M  END
>  <UniqueID>  (44) 
41

>  <SMILES>  (44) 
CCN(CC)S(=O)(=O)c1cccc([NH2+]CC(=O)[N-]c2ccc(F)cc2)c1

>  <Energy>  (44) 
47.05120743286594

>  <Genealogy>  (44) 
CCN(CC)S(=O)(=O)c1cccc([NH2+]CC(=O)[N-]c2ccc(F)cc2)c1 (protonated)
CCN(CC)S(=O)(=O)c1cccc([NH2+]CC(=O)[N-]c2ccc(F)cc2)c1 (3D coordinates assigned)
CCN(CC)S(=O)(=O)c1cccc([NH2+]CC(=O)[N-]c2ccc(F)cc2)c1 (optimized conformer: 47.05120743286594 kcal/mol)

>  <smiles>  (44) 
CCN(CC)S(=O)(=O)c1cccc(NCC(=O)Nc2ccc(F)cc2)c1

>  <score_type>  (44) 
oracle

>  <origin>  (44) 
adg

>  <m_score__min__energy>  (44) 
-9.5

>  <m_primary>  (44) 
energy

$$$$
44:0
     RDKit          3D

 34 36  0  0  0  0  0  0  0  0999 V2000
   -6.8670   24.8690  -30.0270 C   0  0  0  0  0  0  0  0  0  0  0  0
   -6.3970   23.5920  -30.5660 N   0  0  0  0  0  0  0  0  0  0  0  0
   -5.1200   23.1200  -30.6050 C   0  0  0  0  0  0  0  0  0  0  0  0
   -3.9350   23.7960  -30.0430 C   0  0  0  0  0  0  0  0  0  0  0  0
   -3.6260   24.9400  -30.4740 O   0  0  0  0  0  0  0  0  0  0  0  0
   -3.1320   23.1560  -29.0380 N   0  0  0  0  0  0  0  0  0  0  0  0
   -2.0170   23.7890  -28.3850 C   0  0  0  0  0  0  0  0  0  0  0  0
   -0.7060   23.5810  -28.8510 C   0  0  0  0  0  0  0  0  0  0  0  0
    0.3790   24.1740  -28.1980 C   0  0  0  0  0  0  0  0  0  0  0  0
    0.1690   24.9690  -27.0710 C   0  0  0  0  0  0  0  0  0  0  0  0
   -1.1260   25.1680  -26.5870 C   0  0  0  0  0  0  0  0  0  0  0  0
   -2.2200   24.5780  -27.2330 C   0  0  0  0  0  0  0  0  0  0  0  0
   -3.5470   24.8110  -26.7170 C   0  0  0  0  0  0  0  0  0  0  0  0
   -4.6110   24.9980  -26.3010 N   0  0  0  0  0  0  0  0  0  0  0  0
   -5.0660   21.8950  -31.2650 C   0  0  0  0  0  0  0  0  0  0  0  0
   -6.3700   21.6080  -31.6010 C   0  0  0  0  0  0  0  0  0  0  0  0
   -6.9070   20.5030  -32.2560 C   0  0  0  0  0  0  0  0  0  0  0  0
   -8.2980   20.4730  -32.4630 C   0  0  0  0  0  0  0  0  0  0  0  0
   -9.1100   21.5350  -32.0120 C   0  0  0  0  0  0  0  0  0  0  0  0
   -8.5400   22.6390  -31.3520 C   0  0  0  0  0  0  0  0  0  0  0  0
   -7.1540   22.6460  -31.1620 C   0  0  0  0  0  0  0  0  0  0  0  0
   -6.8528   24.8305  -28.9278 H   0  0  0  0  0  0  0  0  0  0  0  0
   -6.2078   25.6783  -30.3741 H   0  0  0  0  0  0  0  0  0  0  0  0
   -7.8936   25.0579  -30.3741 H   0  0  0  0  0  0  0  0  0  0  0  0
   -3.3950   22.1940  -28.7260 H   0  0  0  0  0  0  0  0  0  0  0  0
   -0.5335   22.9483  -29.7341 H   0  0  0  0  0  0  0  0  0  0  0  0
    1.4003   24.0133  -28.5737 H   0  0  0  0  0  0  0  0  0  0  0  0
    1.0239   25.4394  -26.5632 H   0  0  0  0  0  0  0  0  0  0  0  0
   -1.2875   25.7907  -25.6947 H   0  0  0  0  0  0  0  0  0  0  0  0
   -4.1732   21.2871  -31.4732 H   0  0  0  0  0  0  0  0  0  0  0  0
   -6.2640   19.6797  -32.6006 H   0  0  0  0  0  0  0  0  0  0  0  0
   -8.7555   19.6164  -32.9796 H   0  0  0  0  0  0  0  0  0  0  0  0
  -10.1969   21.4995  -32.1777 H   0  0  0  0  0  0  0  0  0  0  0  0
   -9.1651   23.4713  -30.9962 H   0  0  0  0  0  0  0  0  0  0  0  0
  1  2  1  0
  2  3  1  0
  3  4  1  0
  4  5  2  0
  4  6  1  0
  6  7  1  0
  7  8  2  0
  8  9  1  0
  9 10  2  0
 10 11  1  0
 11 12  2  0
 12 13  1  0
 13 14  3  0
  3 15  2  0
 15 16  1  0
 16 17  2  0
 17 18  1  0
 18 19  2  0
 19 20  1  0
 20 21  2  0
 21  2  1  0
 12  7  1  0
 21 16  1  0
  1 22  1  0
  1 23  1  0
  1 24  1  0
  6 25  1  0
  8 26  1  0
  9 27  1  0
 10 28  1  0
 11 29  1  0
 15 30  1  0
 17 31  1  0
 18 32  1  0
 19 33  1  0
 20 34  1  0
M  END
>  <UniqueID>  (45) 
42

>  <SMILES>  (45) 
Cn1c(C(=O)Nc2ccccc2C#N)cc2ccccc21

>  <Energy>  (45) 
78.07144318657996

>  <Genealogy>  (45) 
Cn1c(C(=O)Nc2ccccc2C#N)cc2ccccc21 (3D coordinates assigned)
Cn1c(C(=O)Nc2ccccc2C#N)cc2ccccc21 (optimized conformer: 78.07144318657996 kcal/mol)

>  <smiles>  (45) 
Cn1c(C(=O)Nc2ccccc2C#N)cc2ccccc21

>  <score_type>  (45) 
oracle

>  <origin>  (45) 
adg

>  <m_score__min__energy>  (45) 
-7.6200000000000001

>  <m_primary>  (45) 
energy

$$$$
45:0
     RDKit          3D

 51 54  0  0  0  0  0  0  0  0999 V2000
   -6.0950   25.6300  -29.8990 C   0  0  0  0  0  0  0  0  0  0  0  0
   -5.6750   24.4380  -30.6930 C   0  0  0  0  0  0  0  0  0  0  0  0
   -4.3920   24.0580  -30.8750 N   0  0  0  0  0  0  0  0  0  0  0  0
   -4.3990   22.9340  -31.5820 N   0  0  0  0  0  0  0  0  0  0  0  0
   -3.2020   22.2230  -31.9340 C   0  0  0  0  0  0  0  0  0  0  0  0
   -2.1250   22.1400  -31.0380 C   0  0  0  0  0  0  0  0  0  0  0  0
   -0.9600   21.4570  -31.3990 C   0  0  0  0  0  0  0  0  0  0  0  0
   -0.8660   20.8420  -32.6520 C   0  0  0  0  0  0  0  0  0  0  0  0
    0.5970   19.9870  -33.1040 Cl  0  0  0  0  0  0  0  0  0  0  0  0
   -1.9460   20.9010  -33.5400 C   0  0  0  0  0  0  0  0  0  0  0  0
   -3.1120   21.5840  -33.1800 C   0  0  0  0  0  0  0  0  0  0  0  0
   -5.6800   22.5780  -31.8350 C   0  0  0  0  0  0  0  0  0  0  0  0
   -6.5070   23.5010  -31.2700 C   0  0  0  0  0  0  0  0  0  0  0  0
   -7.9900   23.4100  -31.3400 C   0  0  0  0  0  0  0  0  0  0  0  0
   -8.3690   21.9500  -31.6490 C   0  0  0  0  0  0  0  0  0  0  0  0
   -7.6120   21.4170  -32.7360 O   0  0  0  0  0  0  0  0  0  0  0  0
   -6.2130   21.3080  -32.4550 C   0  0  2  0  0  0  0  0  0  0  0  0
   -5.8750   20.0590  -31.5950 C   0  0  0  0  0  0  0  0  0  0  0  0
   -5.7360   18.8220  -32.4060 N   0  0  0  0  0  0  0  0  0  0  0  0
   -7.0260   18.1050  -32.4550 C   0  0  0  0  0  0  0  0  0  0  0  0
   -6.8690   16.7380  -33.1510 C   0  0  0  0  0  0  0  0  0  0  0  0
   -5.9560   16.7690  -34.3210 N   0  0  0  0  0  0  0  0  0  0  0  0
   -4.6840   16.0740  -34.0640 C   0  0  0  0  0  0  0  0  0  0  0  0
   -5.7440   18.1280  -34.8510 C   0  0  0  0  0  0  0  0  0  0  0  0
   -5.2310   19.1140  -33.7760 C   0  0  0  0  0  0  0  0  0  0  0  0
   -6.0148   25.4025  -28.8258 H   0  0  0  0  0  0  0  0  0  0  0  0
   -5.4428   26.4815  -30.1430 H   0  0  0  0  0  0  0  0  0  0  0  0
   -7.1370   25.8845  -30.1430 H   0  0  0  0  0  0  0  0  0  0  0  0
   -2.1979   22.6141  -30.0481 H   0  0  0  0  0  0  0  0  0  0  0  0
   -0.1154   21.4030  -30.6964 H   0  0  0  0  0  0  0  0  0  0  0  0
   -1.8777   20.4098  -34.5219 H   0  0  0  0  0  0  0  0  0  0  0  0
   -3.9624   21.6205  -33.8767 H   0  0  0  0  0  0  0  0  0  0  0  0
   -8.4274   23.7123  -30.3770 H   0  0  0  0  0  0  0  0  0  0  0  0
   -8.3746   24.0766  -32.1259 H   0  0  0  0  0  0  0  0  0  0  0  0
   -8.1833   21.3383  -30.7538 H   0  0  0  0  0  0  0  0  0  0  0  0
   -9.4313   21.9288  -31.9336 H   0  0  0  0  0  0  0  0  0  0  0  0
   -5.7019   21.1661  -33.4187 H   0  0  0  0  0  0  0  0  0  0  0  0
   -4.9273   20.2416  -31.0673 H   0  0  0  0  0  0  0  0  0  0  0  0
   -6.7088   19.9038  -30.8945 H   0  0  0  0  0  0  0  0  0  0  0  0
   -5.0530   18.1960  -31.9170 H   0  0  0  0  0  0  0  0  0  0  0  0
   -7.3896   17.9472  -31.4289 H   0  0  0  0  0  0  0  0  0  0  0  0
   -7.7436   18.7109  -33.0277 H   0  0  0  0  0  0  0  0  0  0  0  0
   -6.4726   16.0186  -32.4194 H   0  0  0  0  0  0  0  0  0  0  0  0
   -7.8627   16.4498  -33.5244 H   0  0  0  0  0  0  0  0  0  0  0  0
   -4.5261   15.9877  -32.9788 H   0  0  0  0  0  0  0  0  0  0  0  0
   -4.7184   15.0693  -34.5106 H   0  0  0  0  0  0  0  0  0  0  0  0
   -3.8571   16.6457  -34.5106 H   0  0  0  0  0  0  0  0  0  0  0  0
   -5.0045   18.0774  -35.6638 H   0  0  0  0  0  0  0  0  0  0  0  0
   -6.7154   18.5010  -35.2077 H   0  0  0  0  0  0  0  0  0  0  0  0
   -4.1321   19.0675  -33.7583 H   0  0  0  0  0  0  0  0  0  0  0  0
   -5.6046   20.1116  -34.0504 H   0  0  0  0  0  0  0  0  0  0  0  0
  1  2  1  0
  2  3  2  0
  3  4  1  0
  4  5  1  0
  5  6  2  0
  6  7  1  0
  7  8  2  0
  8  9  1  0
  8 10  1  0
 10 11  2  0
  4 12  1  0
 12 13  2  0
 13 14  1  0
 14 15  1  0
 15 16  1  0
 16 17  1  0
 17 18  1  0
 18 19  1  0
 19 20  1  0
 20 21  1  0
 21 22  1  0
 22 23  1  0
 22 24  1  0
 24 25  1  0
 13  2  1  0
 25 19  1  0
 11  5  1  0
 17 12  1  0
  1 26  1  0
  1 27  1  0
  1 28  1  0
  6 29  1  0
  7 30  1  0
 10 31  1  0
 11 32  1  0
 14 33  1  0
 14 34  1  0
 15 35  1  0
 15 36  1  0
 17 37  1  6
 18 38  1  0
 18 39  1  0
 19 40  1  0
 20 41  1  0
 20 42  1  0
 21 43  1  0
 21 44  1  0
 23 45  1  0
 23 46  1  0
 23 47  1  0
 24 48  1  0
 24 49  1  0
 25 50  1  0
 25 51  1  0
M  CHG  1  19   1
M  END
>  <UniqueID>  (46) 
43

>  <SMILES>  (46) 
Cc1nn(-c2ccc(Cl)cc2)c2c1CCO[C@@H]2C[NH+]1CCN(C)CC1

>  <Energy>  (46) 
109.83337445261716

>  <Genealogy>  (46) 
Cc1nn(-c2ccc(Cl)cc2)c2c1CCOC2C[NH+]1CCN(C)CC1 (protonated)
Cc1nn(-c2ccc(Cl)cc2)c2c1CCO[C@@H]2C[NH+]1CCN(C)CC1 (chirality)
Cc1nn(-c2ccc(Cl)cc2)c2c1CCO[C@@H]2C[NH+]1CCN(C)CC1 (3D coordinates assigned)
Cc1nn(-c2ccc(Cl)cc2)c2c1CCO[C@@H]2C[NH+]1CCN(C)CC1 (nonaromatic ring conformer: 109.83337445261716 kcal/mol)

>  <smiles>  (46) 
Cc1nn(-c2ccc(Cl)cc2)c2c1CCOC2CN1CCN(C)CC1

>  <score_type>  (46) 
oracle

>  <origin>  (46) 
adg

>  <m_score__min__energy>  (46) 
-8.3800000000000008

>  <m_primary>  (46) 
energy

$$$$
46:0
     RDKit          3D

 58 60  0  0  0  0  0  0  0  0999 V2000
    1.6260   17.4670  -33.1620 C   0  0  0  0  0  0  0  0  0  0  0  0
    0.3850   16.7130  -33.6420 C   0  0  0  0  0  0  0  0  0  0  0  0
   -0.2700   17.4120  -34.7590 N   0  0  0  0  0  0  0  0  0  0  0  0
   -1.2580   16.6920  -35.5820 C   0  0  0  0  0  0  0  0  0  0  0  0
   -2.1920   15.8380  -34.7150 C   0  0  0  0  0  0  0  0  0  0  0  0
   -3.0810   16.6910  -33.9250 N   0  0  0  0  0  0  0  0  0  0  0  0
   -4.5040   16.5090  -33.8870 C   0  0  0  0  0  0  0  0  0  0  0  0
   -5.0010   15.4030  -34.2270 O   0  0  0  0  0  0  0  0  0  0  0  0
   -5.3850   17.6230  -33.4690 C   0  0  0  0  0  0  0  0  0  0  0  0
   -7.0220   17.4340  -33.0970 S   0  0  0  0  0  0  0  0  0  0  0  0
   -7.2820   19.0400  -32.7210 C   0  0  0  0  0  0  0  0  0  0  0  0
   -8.4520   19.5700  -32.3060 N   0  0  0  0  0  0  0  0  0  0  0  0
   -8.5320   20.8900  -31.9920 C   0  0  0  0  0  0  0  0  0  0  0  0
   -9.8540   21.4410  -31.5510 C   0  0  0  0  0  0  0  0  0  0  0  0
   -7.3800   21.7110  -32.0740 C   0  0  0  0  0  0  0  0  0  0  0  0
   -7.5210   23.4340  -31.6950 Cl  0  0  0  0  0  0  0  0  0  0  0  0
   -6.1340   21.1440  -32.4590 C   0  0  0  0  0  0  0  0  0  0  0  0
   -4.8730   21.9710  -32.4080 C   0  0  0  0  0  0  0  0  0  0  0  0
   -6.1170   19.7800  -32.8490 C   0  0  0  0  0  0  0  0  0  0  0  0
   -5.0380   18.9790  -33.3110 C   0  0  0  0  0  0  0  0  0  0  0  0
   -3.7410   19.4850  -33.6380 N   0  0  0  0  0  0  0  0  0  0  0  0
   -0.0750   18.8360  -34.9200 C   0  0  0  0  0  0  0  0  0  0  0  0
    0.7020   19.3230  -35.9830 C   0  0  0  0  0  0  0  0  0  0  0  0
    0.9060   20.6940  -36.1440 C   0  0  0  0  0  0  0  0  0  0  0  0
    0.3290   21.6070  -35.2460 C   0  0  0  0  0  0  0  0  0  0  0  0
    0.5180   22.9930  -35.3570 O   0  0  0  0  0  0  0  0  0  0  0  0
    1.7480   23.6120  -35.7170 C   0  0  0  0  0  0  0  0  0  0  0  0
   -0.4580   21.1280  -34.1960 C   0  0  0  0  0  0  0  0  0  0  0  0
   -0.6660   19.7460  -34.0190 C   0  0  0  0  0  0  0  0  0  0  0  0
   -1.4300   19.2480  -32.9530 O   0  0  0  0  0  0  0  0  0  0  0  0
   -1.1880   19.5310  -31.5790 C   0  0  0  0  0  0  0  0  0  0  0  0
    1.6454   17.4788  -32.0622 H   0  0  0  0  0  0  0  0  0  0  0  0
    2.5290   16.9647  -33.5393 H   0  0  0  0  0  0  0  0  0  0  0  0
    1.5963   18.4999  -33.5393 H   0  0  0  0  0  0  0  0  0  0  0  0
    0.6834   15.7079  -33.9747 H   0  0  0  0  0  0  0  0  0  0  0  0
   -0.3277   16.6523  -32.8063 H   0  0  0  0  0  0  0  0  0  0  0  0
   -1.8589   17.4238  -36.1419 H   0  0  0  0  0  0  0  0  0  0  0  0
   -0.7165   16.0248  -36.2687 H   0  0  0  0  0  0  0  0  0  0  0  0
   -2.7968   15.1890  -35.3654 H   0  0  0  0  0  0  0  0  0  0  0  0
   -1.5836   15.2283  -34.0308 H   0  0  0  0  0  0  0  0  0  0  0  0
   -2.6540   17.5210  -33.4560 H   0  0  0  0  0  0  0  0  0  0  0  0
   -9.8958   21.4584  -30.4519 H   0  0  0  0  0  0  0  0  0  0  0  0
   -9.9728   22.4635  -31.9387 H   0  0  0  0  0  0  0  0  0  0  0  0
  -10.6638   20.8055  -31.9387 H   0  0  0  0  0  0  0  0  0  0  0  0
   -4.5959   22.1527  -31.3591 H   0  0  0  0  0  0  0  0  0  0  0  0
   -4.0594   21.4305  -32.9139 H   0  0  0  0  0  0  0  0  0  0  0  0
   -5.0445   22.9326  -32.9139 H   0  0  0  0  0  0  0  0  0  0  0  0
   -3.1320   18.9950  -34.3280 H   0  0  0  0  0  0  0  0  0  0  0  0
   -3.3420   20.3100  -33.1380 H   0  0  0  0  0  0  0  0  0  0  0  0
    1.1541   18.6174  -36.6955 H   0  0  0  0  0  0  0  0  0  0  0  0
    1.5217   21.0615  -36.9782 H   0  0  0  0  0  0  0  0  0  0  0  0
    2.2992   23.8894  -34.8064 H   0  0  0  0  0  0  0  0  0  0  0  0
    2.3515   22.9102  -36.3114 H   0  0  0  0  0  0  0  0  0  0  0  0
    1.5440   24.5148  -36.3114 H   0  0  0  0  0  0  0  0  0  0  0  0
   -0.9219   21.8400  -33.4975 H   0  0  0  0  0  0  0  0  0  0  0  0
   -1.7762   18.8431  -30.9538 H   0  0  0  0  0  0  0  0  0  0  0  0
   -0.1178   19.4006  -31.3607 H   0  0  0  0  0  0  0  0  0  0  0  0
   -1.4830   20.5680  -31.3607 H   0  0  0  0  0  0  0  0  0  0  0  0
  1  2  1  0
  2  3  1  0
  3  4  1  0
  4  5  1  0
  5  6  1  0
  6  7  1  0
  7  8  2  0
  7  9  1  0
  9 10  1  0
 10 11  1  0
 11 12  2  0
 12 13  1  0
 13 14  1  0
 13 15  2  0
 15 16  1  0
 15 17  1  0
 17 18  1  0
 17 19  2  0
 19 20  1  0
 20 21  1  0
  3 22  1  0
 22 23  2  0
 23 24  1  0
 24 25  2  0
 25 26  1  0
 26 27  1  0
 25 28  1  0
 28 29  2  0
 29 30  1  0
 30 31  1  0
 20  9  2  0
 29 22  1  0
 19 11  1  0
  1 32  1  0
  1 33  1  0
  1 34  1  0
  2 35  1  0
  2 36  1  0
  4 37  1  0
  4 38  1  0
  5 39  1  0
  5 40  1  0
  6 41  1  0
 14 42  1  0
 14 43  1  0
 14 44  1  0
 18 45  1  0
 18 46  1  0
 18 47  1  0
 21 48  1  0
 21 49  1  0
 23 50  1  0
 24 51  1  0
 27 52  1  0
 27 53  1  0
 27 54  1  0
 28 55  1  0
 31 56  1  0
 31 57  1  0
 31 58  1  0
M  END
>  <UniqueID>  (47) 
44

>  <SMILES>  (47) 
CCN(CCNC(=O)c1sc2nc(C)c(Cl)c(C)c2c1N)c1ccc(OC)cc1OC

>  <Energy>  (47) 
91.87634005660641

>  <Genealogy>  (47) 
CCN(CCNC(=O)c1sc2nc(C)c(Cl)c(C)c2c1N)c1ccc(OC)cc1OC (3D coordinates assigned)
CCN(CCNC(=O)c1sc2nc(C)c(Cl)c(C)c2c1N)c1ccc(OC)cc1OC (optimized conformer: 91.87634005660641 kcal/mol)

>  <smiles>  (47) 
CCN(CCNC(=O)c1sc2nc(C)c(Cl)c(C)c2c1N)c1ccc(OC)cc1OC

>  <score_type>  (47) 
oracle

>  <origin>  (47) 
adg

>  <m_score__min__energy>  (47) 
-7.9800000000000004

>  <m_primary>  (47) 
energy

$$$$
47:0
     RDKit          2D

 44 47  0  0  0  0  0  0  0  0999 V2000
    6.7500   -3.8971    0.0000 C   0  0  0  0  0  0  0  0  0  0  0  0
    5.2500   -3.8971    0.0000 N   0  0  0  0  0  0  0  0  0  0  0  0
    4.5000   -2.5981    0.0000 C   0  0  0  0  0  0  0  0  0  0  0  0
    3.7500   -1.2990    0.0000 C   0  0  0  0  0  0  0  0  0  0  0  0
    3.0000    0.0000    0.0000 N   0  0  0  0  0  0  0  0  0  0  0  0
    3.7500    1.2990    0.0000 C   0  0  0  0  0  0  0  0  0  0  0  0
    1.5000    0.0000    0.0000 C   0  0  0  0  0  0  0  0  0  0  0  0
    0.7500   -1.2990    0.0000 C   0  0  0  0  0  0  0  0  0  0  0  0
   -0.7500   -1.2990    0.0000 C   0  0  0  0  0  0  0  0  0  0  0  0
   -1.5000    0.0000    0.0000 C   0  0  0  0  0  0  0  0  0  0  0  0
   -0.7500    1.2990    0.0000 C   0  0  0  0  0  0  0  0  0  0  0  0
   -1.5000    2.5981    0.0000 C   0  0  0  0  0  0  0  0  0  0  0  0
   -3.0000    2.5981    0.0000 C   0  0  0  0  0  0  0  0  0  0  0  0
   -3.7500    1.2990    0.0000 C   0  0  0  0  0  0  0  0  0  0  0  0
   -5.2500    1.2990    0.0000 C   0  0  0  0  0  0  0  0  0  0  0  0
   -6.0000    2.5981    0.0000 N   0  0  0  0  0  0  0  0  0  0  0  0
   -6.0000   -0.0000    0.0000 C   0  0  0  0  0  0  0  0  0  0  0  0
   -5.2500   -1.2990    0.0000 C   0  0  0  0  0  0  0  0  0  0  0  0
   -3.7500   -1.2990    0.0000 C   0  0  0  0  0  0  0  0  0  0  0  0
   -3.0000    0.0000    0.0000 C   0  0  0  0  0  0  0  0  0  0  0  0
   -2.4060   -1.1490    0.0000 C   0  0  0  0  0  0  0  0  0  0  0  0
   -0.8491   -0.4279    0.0000 C   0  0  0  0  0  0  0  0  0  0  0  0
    0.7500    1.2990    0.0000 C   0  0  0  0  0  0  0  0  0  0  0  0
    8.2500   -3.8971    0.0000 H   0  0  0  0  0  0  0  0  0  0  0  0
    6.7500   -5.3971    0.0000 H   0  0  0  0  0  0  0  0  0  0  0  0
    6.7500   -2.3971    0.0000 H   0  0  0  0  0  0  0  0  0  0  0  0
    4.5000   -5.1962    0.0000 H   0  0  0  0  0  0  0  0  0  0  0  0
    3.2010   -3.3481    0.0000 H   0  0  0  0  0  0  0  0  0  0  0  0
    5.7990   -1.8481    0.0000 H   0  0  0  0  0  0  0  0  0  0  0  0
    2.4510   -2.0490    0.0000 H   0  0  0  0  0  0  0  0  0  0  0  0
    5.0490   -0.5490    0.0000 H   0  0  0  0  0  0  0  0  0  0  0  0
    4.5000    2.5981    0.0000 H   0  0  0  0  0  0  0  0  0  0  0  0
    5.0490    0.5490    0.0000 H   0  0  0  0  0  0  0  0  0  0  0  0
    2.4510    2.0490    0.0000 H   0  0  0  0  0  0  0  0  0  0  0  0
    1.5000   -2.5981    0.0000 H   0  0  0  0  0  0  0  0  0  0  0  0
   -1.5000   -2.5981    0.0000 H   0  0  0  0  0  0  0  0  0  0  0  0
   -0.7500    3.8971    0.0000 H   0  0  0  0  0  0  0  0  0  0  0  0
   -3.7500    3.8971    0.0000 H   0  0  0  0  0  0  0  0  0  0  0  0
   -7.5000    2.5981    0.0000 H   0  0  0  0  0  0  0  0  0  0  0  0
   -5.2500    3.8971    0.0000 H   0  0  0  0  0  0  0  0  0  0  0  0
   -7.5000   -0.0000    0.0000 H   0  0  0  0  0  0  0  0  0  0  0  0
   -6.0000   -2.5981    0.0000 H   0  0  0  0  0  0  0  0  0  0  0  0
   -2.2416   -3.3429    0.0000 H   0  0  0  0  0  0  0  0  0  0  0  0
    0.1847   -1.9420    0.0000 H   0  0  0  0  0  0  0  0  0  0  0  0
  1  2  1  0
  2  3  1  0
  3  4  1  0
  4  5  1  0
  5  6  1  0
  5  7  1  0
  7  8  2  0
  8  9  1  0
  9 10  2  0
 10 11  1  0
 11 12  1  0
 12 13  2  0
 13 14  1  0
 14 15  2  0
 15 16  1  0
 15 17  1  0
 17 18  2  0
 18 19  1  0
 19 20  2  0
 19 21  1  0
 21 22  2  0
 22 23  1  0
 23  7  1  0
 20 10  1  0
 23 11  2  0
 20 14  1  0
  1 24  1  0
  1 25  1  0
  1 26  1  0
  2 27  1  0
  3 28  1  0
  3 29  1  0
  4 30  1  0
  4 31  1  0
  6 32  1  0
  6 33  1  0
  6 34  1  0
  8 35  1  0
  9 36  1  0
 12 37  1  0
 13 38  1  0
 16 39  1  0
 16 40  1  0
 17 41  1  0
 18 42  1  0
 21 43  1  0
 22 44  1  0
M  END
>  <smiles>  (48) 
CNCCN(C)c1ccc2c3ccc4c(N)ccc(c42)C=Cc13

>  <m_score__min__energy>  (48) 
nan

>  <m_primary>  (48) 
energy

$$$$
