0:0
     RDKit          3D

 18 18  0  0  0  0  0  0  0  0999 V2000
   -5.3380   22.8540  -32.6920 F   0  0  0  0  0  0  0  0  0  0  0  0
   -6.5730   22.6620  -32.0950 C   0  0  0  0  0  0  0  0  0  0  0  0
   -7.4960   23.4910  -32.7110 F   0  0  0  0  0  0  0  0  0  0  0  0
   -6.4600   23.0880  -30.6240 C   0  0  0  0  0  0  0  0  0  0  0  0
   -5.7470   24.8880  -30.4740 Br  0  0  0  0  0  0  0  0  0  0  0  0
   -6.9990   21.2120  -32.3180 C   0  0  0  0  0  0  0  0  0  0  0  0
   -6.1250   20.2450  -32.8670 C   0  0  0  0  0  0  0  0  0  0  0  0
   -6.5460   18.9260  -33.0580 C   0  0  0  0  0  0  0  0  0  0  0  0
   -7.8400   18.5450  -32.7080 C   0  0  0  0  0  0  0  0  0  0  0  0
   -8.7180   19.4800  -32.1660 C   0  0  0  0  0  0  0  0  0  0  0  0
   -8.3120   20.8060  -31.9680 C   0  0  0  0  0  0  0  0  0  0  0  0
   -9.4870   21.9240  -31.2760 Cl  0  0  0  0  0  0  0  0  0  0  0  0
   -7.4581   23.0568  -30.1627 H   0  0  0  0  0  0  0  0  0  0  0  0
   -5.7764   22.3962  -30.1102 H   0  0  0  0  0  0  0  0  0  0  0  0
   -5.1014   20.5345  -33.1471 H   0  0  0  0  0  0  0  0  0  0  0  0
   -5.8536   18.1861  -33.4860 H   0  0  0  0  0  0  0  0  0  0  0  0
   -8.1677   17.5060  -32.8599 H   0  0  0  0  0  0  0  0  0  0  0  0
   -9.7385   19.1750  -31.8911 H   0  0  0  0  0  0  0  0  0  0  0  0
  1  2  1  0
  2  3  1  0
  2  4  1  0
  4  5  1  0
  2  6  1  0
  6  7  2  0
  7  8  1  0
  8  9  2  0
  9 10  1  0
 10 11  2  0
 11 12  1  0
 11  6  1  0
  4 13  1  0
  4 14  1  0
  7 15  1  0
  8 16  1  0
  9 17  1  0
 10 18  1  0
M  END
>  <UniqueID>  (1) 
1

>  <SMILES>  (1) 
FC(F)(CBr)c1ccccc1Cl

>  <Energy>  (1) 
20.093357571718133

>  <Genealogy>  (1) 
FC(F)(CBr)c1ccccc1Cl (3D coordinates assigned)
FC(F)(CBr)c1ccccc1Cl (optimized conformer: 20.093357571718133 kcal/mol)

>  <smiles>  (1) 
FC(F)(CBr)c1ccccc1Cl

>  <score_type>  (1) 
oracle

>  <origin>  (1) 
adg

>  <m_score__min__energy>  (1) 
-5.5499999999999998

>  <m_primary>  (1) 
energy

$$$$
1:0
     RDKit          3D

 38 40  0  0  0  0  0  0  0  0999 V2000
   -1.4430   25.4880  -27.1690 C   0  0  0  0  0  0  0  0  0  0  0  0
   -2.1220   24.1640  -27.5480 C   0  0  0  0  0  0  0  0  0  0  0  0
   -3.6010   24.1830  -27.1540 C   0  0  0  0  0  0  0  0  0  0  0  0
   -1.9840   23.8750  -29.0270 C   0  0  0  0  0  0  0  0  0  0  0  0
   -0.8660   24.0470  -29.5860 O   0  0  0  0  0  0  0  0  0  0  0  0
   -3.1160   23.4640  -29.8180 N   0  0  0  0  0  0  0  0  0  0  0  0
   -3.5420   22.1930  -30.0350 C   0  0  0  0  0  0  0  0  0  0  0  0
   -4.6700   22.2250  -30.8310 C   0  0  0  0  0  0  0  0  0  0  0  0
   -5.4690   21.1920  -31.3150 C   0  0  0  0  0  0  0  0  0  0  0  0
   -6.5800   21.5340  -32.1230 C   0  0  0  0  0  0  0  0  0  0  0  0
   -7.4450   20.5580  -32.6400 O   0  0  0  0  0  0  0  0  0  0  0  0
   -7.0510   19.2910  -33.0950 C   0  0  0  0  0  0  0  0  0  0  0  0
   -6.0720   19.2110  -34.0930 C   0  0  0  0  0  0  0  0  0  0  0  0
   -5.6480   17.9670  -34.5700 C   0  0  0  0  0  0  0  0  0  0  0  0
   -6.1910   16.7930  -34.0410 C   0  0  0  0  0  0  0  0  0  0  0  0
   -5.7770   15.5870  -34.5020 F   0  0  0  0  0  0  0  0  0  0  0  0
   -7.1510   16.8620  -33.0270 C   0  0  0  0  0  0  0  0  0  0  0  0
   -7.5780   18.1050  -32.5470 C   0  0  0  0  0  0  0  0  0  0  0  0
   -8.4670   18.1470  -31.5240 F   0  0  0  0  0  0  0  0  0  0  0  0
   -6.8620   22.8950  -32.3890 C   0  0  0  0  0  0  0  0  0  0  0  0
   -6.0360   23.9160  -31.8830 C   0  0  0  0  0  0  0  0  0  0  0  0
   -4.9450   23.5380  -31.1070 C   0  0  0  0  0  0  0  0  0  0  0  0
   -3.9780   24.2820  -30.4730 C   0  0  0  0  0  0  0  0  0  0  0  0
   -3.8880   25.6710  -30.4950 O   0  0  0  0  0  0  0  0  0  0  0  0
   -1.3977   25.5764  -26.0735 H   0  0  0  0  0  0  0  0  0  0  0  0
   -0.4233   25.5082  -27.5810 H   0  0  0  0  0  0  0  0  0  0  0  0
   -2.0216   26.3279  -27.5810 H   0  0  0  0  0  0  0  0  0  0  0  0
   -1.6141   23.3617  -26.9928 H   0  0  0  0  0  0  0  0  0  0  0  0
   -3.6884   24.1841  -26.0575 H   0  0  0  0  0  0  0  0  0  0  0  0
   -4.0772   25.0873  -27.5607 H   0  0  0  0  0  0  0  0  0  0  0  0
   -4.1003   23.2912  -27.5607 H   0  0  0  0  0  0  0  0  0  0  0  0
   -3.0651   21.2838  -29.6401 H   0  0  0  0  0  0  0  0  0  0  0  0
   -5.2436   20.1421  -31.0766 H   0  0  0  0  0  0  0  0  0  0  0  0
   -5.6339   20.1324  -34.5042 H   0  0  0  0  0  0  0  0  0  0  0  0
   -4.8866   17.9123  -35.3621 H   0  0  0  0  0  0  0  0  0  0  0  0
   -7.5716   15.9370  -32.6056 H   0  0  0  0  0  0  0  0  0  0  0  0
   -7.7384   23.1584  -32.9993 H   0  0  0  0  0  0  0  0  0  0  0  0
   -6.2456   24.9751  -32.0936 H   0  0  0  0  0  0  0  0  0  0  0  0
  1  2  1  0
  2  3  1  0
  2  4  1  0
  4  5  2  0
  4  6  1  0
  6  7  1  0
  7  8  2  0
  8  9  1  0
  9 10  2  0
 10 11  1  0
 11 12  1  0
 12 13  2  0
 13 14  1  0
 14 15  2  0
 15 16  1  0
 15 17  1  0
 17 18  2  0
 18 19  1  0
 10 20  1  0
 20 21  2  0
 21 22  1  0
 22 23  2  0
 23 24  1  0
 23  6  1  0
 22  8  1  0
 18 12  1  0
  1 25  1  0
  1 26  1  0
  1 27  1  0
  2 28  1  0
  3 29  1  0
  3 30  1  0
  3 31  1  0
  7 32  1  0
  9 33  1  0
 13 34  1  0
 14 35  1  0
 17 36  1  0
 20 37  1  0
 21 38  1  0
M  CHG  1  24  -1
M  END
>  <UniqueID>  (2) 
2

>  <SMILES>  (2) 
CC(C)C(=O)n1cc2cc(Oc3ccc(F)cc3F)ccc2c1[O-]

>  <Energy>  (2) 
80.15001729447837

>  <Genealogy>  (2) 
CC(C)C(=O)n1cc2cc(Oc3ccc(F)cc3F)ccc2c1[O-] (protonated)
CC(C)C(=O)n1cc2cc(Oc3ccc(F)cc3F)ccc2c1[O-] (3D coordinates assigned)
CC(C)C(=O)n1cc2cc(Oc3ccc(F)cc3F)ccc2c1[O-] (optimized conformer: 80.15001729447837 kcal/mol)

>  <smiles>  (2) 
CC(C)C(=O)n1cc2cc(Oc3ccc(F)cc3F)ccc2c1O

>  <score_type>  (2) 
oracle

>  <origin>  (2) 
adg

>  <m_score__min__energy>  (2) 
-11.119999999999999

>  <m_primary>  (2) 
energy

$$$$
2:0
     RDKit          3D

 44 48  0  0  0  0  0  0  0  0999 V2000
    3.7640   23.7420  -36.3640 H   0  0  0  0  0  0  0  0  0  0  0  0
    3.0040   23.2070  -36.7670 O   0  0  0  0  0  0  0  0  0  0  0  0
    2.1390   22.4580  -35.9710 C   0  0  0  0  0  0  0  0  0  0  0  0
    0.7500   22.6010  -36.0970 C   0  0  0  0  0  0  0  0  0  0  0  0
    0.3350   23.3078  -36.8306 H   0  0  0  0  0  0  0  0  0  0  0  0
   -0.1090   21.8460  -35.2910 C   0  0  0  0  0  0  0  0  0  0  0  0
   -1.1983   21.9485  -35.4044 H   0  0  0  0  0  0  0  0  0  0  0  0
    0.4140   20.9590  -34.3390 C   0  0  0  0  0  0  0  0  0  0  0  0
   -0.5070   20.1350  -33.5330 C   0  0  0  0  0  0  0  0  0  0  0  0
   -0.1550   19.1437  -33.2116 H   0  0  0  0  0  0  0  0  0  0  0  0
   -1.7430   20.5060  -33.1630 C   0  0  0  0  0  0  0  0  0  0  0  0
   -2.0460   21.8270  -32.1610 S   0  0  0  0  0  0  0  0  0  0  0  0
   -3.7060   21.6030  -32.1890 C   0  0  0  0  0  0  0  0  0  0  0  0
   -4.0720   20.5130  -32.9130 N   0  0  0  0  0  0  0  0  0  0  0  0
   -2.9790   19.9160  -33.4850 C   0  0  0  0  0  0  0  0  0  0  0  0
   -3.0830   18.9070  -34.2340 O   0  0  0  0  0  0  0  0  0  0  0  0
   -5.4890   20.1510  -33.1620 C   0  0  1  0  0  0  0  0  0  0  0  0
   -5.7643   20.5541  -34.1478 H   0  0  0  0  0  0  0  0  0  0  0  0
   -5.6680   18.6500  -33.1800 C   0  0  0  0  0  0  0  0  0  0  0  0
   -5.8430   17.7090  -34.5630 S   0  0  0  0  0  0  0  0  0  0  0  0
   -5.9470   16.2310  -33.7690 C   0  0  0  0  0  0  0  0  0  0  0  0
   -6.0789   15.2500  -34.2489 H   0  0  0  0  0  0  0  0  0  0  0  0
   -5.8380   16.4600  -32.4040 C   0  0  0  0  0  0  0  0  0  0  0  0
   -5.8725   15.6557  -31.6544 H   0  0  0  0  0  0  0  0  0  0  0  0
   -5.6800   17.8110  -32.0710 C   0  0  0  0  0  0  0  0  0  0  0  0
   -5.5759   18.1720  -31.0371 H   0  0  0  0  0  0  0  0  0  0  0  0
   -6.4240   20.7780  -32.0850 C   0  0  2  0  0  0  0  0  0  0  0  0
   -6.3472   20.1343  -31.1963 H   0  0  0  0  0  0  0  0  0  0  0  0
   -7.8880   20.7730  -32.4640 C   0  0  0  0  0  0  0  0  0  0  0  0
   -8.3270   20.0360  -33.3340 O   0  0  0  0  0  0  0  0  0  0  0  0
   -8.8170   21.6410  -31.6730 C   0  0  0  0  0  0  0  0  0  0  0  0
   -9.8195   21.6116  -32.1248 H   0  0  0  0  0  0  0  0  0  0  0  0
   -8.8691   21.2726  -30.6378 H   0  0  0  0  0  0  0  0  0  0  0  0
   -8.2990   23.0820  -31.6750 C   0  0  0  0  0  0  0  0  0  0  0  0
   -8.5315   23.5363  -32.6494 H   0  0  0  0  0  0  0  0  0  0  0  0
   -8.7936   23.6097  -30.8462 H   0  0  0  0  0  0  0  0  0  0  0  0
   -6.8100   23.1760  -31.4440 C   0  0  0  0  0  0  0  0  0  0  0  0
   -6.4032   24.1014  -31.0103 H   0  0  0  0  0  0  0  0  0  0  0  0
   -5.9600   22.1810  -31.7440 C   0  0  0  0  0  0  0  0  0  0  0  0
   -4.5540   22.4220  -31.6520 N   0  0  0  0  0  0  0  0  0  0  0  0
    1.8050   20.7980  -34.2370 C   0  0  0  0  0  0  0  0  0  0  0  0
    2.2216   20.0751  -33.5202 H   0  0  0  0  0  0  0  0  0  0  0  0
    2.6630   21.5530  -35.0430 C   0  0  0  0  0  0  0  0  0  0  0  0
    3.7524   21.4346  -34.9466 H   0  0  0  0  0  0  0  0  0  0  0  0
  1  2  1  0
  2  3  1  0
  3  4  2  0
  4  5  1  0
  4  6  1  0
  6  7  1  0
  6  8  2  0
  8  9  1  0
  9 10  1  0
  9 11  2  0
 11 12  1  0
 12 13  1  0
 13 14  1  0
 14 15  1  0
 15 16  2  0
 14 17  1  0
 17 18  1  6
 17 19  1  0
 19 20  1  0
 20 21  1  0
 21 22  1  0
 21 23  2  0
 23 24  1  0
 23 25  1  0
 25 26  1  0
 17 27  1  0
 27 28  1  1
 27 29  1  0
 29 30  2  0
 29 31  1  0
 31 32  1  0
 31 33  1  0
 31 34  1  0
 34 35  1  0
 34 36  1  0
 34 37  1  0
 37 38  1  0
 37 39  2  0
 39 40  1  0
  8 41  1  0
 41 42  1  0
 41 43  2  0
 43 44  1  0
 43  3  1  0
 15 11  1  0
 25 19  2  0
 39 27  1  0
 40 13  2  0
M  END
>  <UniqueID>  (3) 
3

>  <SMILES>  (3) 
O=C1CCC=C2N=c3s/c(=C/c4ccc(O)cc4)c(=O)n3[C@@H](c3cccs3)[C@H]12

>  <Energy>  (3) 
122.99559414857863

>  <Genealogy>  (3) 
O=C1CCC=C2N=c3sc(=Cc4ccc(O)cc4)c(=O)n3[C@@H](c3cccs3)[C@H]12 (chirality)
O=C1CCC=C2N=c3s/c(=C/c4ccc(O)cc4)c(=O)n3[C@@H](c3cccs3)[C@H]12 (cis-trans isomerization)
O=C1CCC=C2N=c3s/c(=C/c4ccc(O)cc4)c(=O)n3[C@@H](c3cccs3)[C@H]12 (3D coordinates assigned)
O=C1CCC=C2N=c3s/c(=C/c4ccc(O)cc4)c(=O)n3[C@@H](c3cccs3)[C@H]12 (nonaromatic ring conformer: 122.99559414857863 kcal/mol)

>  <smiles>  (3) 
O=C1CCC=C2N=c3sc(=Cc4ccc(O)cc4)c(=O)n3C(c3cccs3)C12

>  <score_type>  (3) 
oracle

>  <origin>  (3) 
adg

>  <m_score__min__energy>  (3) 
-9.75

>  <m_primary>  (3) 
energy

$$$$
3:0
     RDKit          3D

 32 34  0  0  0  0  0  0  0  0999 V2000
   -2.1150   17.2640  -34.0360 C   0  0  0  0  0  0  0  0  0  0  0  0
   -3.0360   18.3490  -33.9760 O   0  0  0  0  0  0  0  0  0  0  0  0
   -4.3780   18.2340  -33.5790 C   0  0  0  0  0  0  0  0  0  0  0  0
   -5.0630   17.0050  -33.6250 C   0  0  0  0  0  0  0  0  0  0  0  0
   -6.3970   16.9210  -33.2240 C   0  0  0  0  0  0  0  0  0  0  0  0
   -7.0650   18.0590  -32.7730 C   0  0  0  0  0  0  0  0  0  0  0  0
   -8.3650   17.9750  -32.3870 N   0  0  0  0  0  0  0  0  0  0  0  0
   -9.0400   19.0660  -31.9460 C   0  0  0  0  0  0  0  0  0  0  0  0
   -8.3910   20.3010  -31.8860 C   0  0  0  0  0  0  0  0  0  0  0  0
   -9.2750   21.7550  -31.3190 S   0  0  0  0  0  0  0  0  0  0  0  0
   -7.7630   22.6910  -31.0930 C   0  0  0  0  0  0  0  0  0  0  0  0
   -7.0950   22.6620  -29.8640 C   0  0  0  0  0  0  0  0  0  0  0  0
   -5.9200   23.3980  -29.6870 C   0  0  0  0  0  0  0  0  0  0  0  0
   -5.4070   24.1630  -30.7400 C   0  0  0  0  0  0  0  0  0  0  0  0
   -4.2680   24.8780  -30.5690 F   0  0  0  0  0  0  0  0  0  0  0  0
   -6.0720   24.1910  -31.9710 C   0  0  0  0  0  0  0  0  0  0  0  0
   -7.2480   23.4550  -32.1490 C   0  0  0  0  0  0  0  0  0  0  0  0
   -7.0860   20.3970  -32.2670 N   0  0  0  0  0  0  0  0  0  0  0  0
   -6.3980   19.3040  -32.7160 C   0  0  0  0  0  0  0  0  0  0  0  0
   -5.0470   19.3860  -33.1240 C   0  0  0  0  0  0  0  0  0  0  0  0
   -4.0790   21.0490  -33.0790 Br  0  0  0  0  0  0  0  0  0  0  0  0
   -1.8497   16.9514  -33.0153 H   0  0  0  0  0  0  0  0  0  0  0  0
   -2.5768   16.4201  -34.5695 H   0  0  0  0  0  0  0  0  0  0  0  0
   -1.2073   17.5826  -34.5695 H   0  0  0  0  0  0  0  0  0  0  0  0
   -4.5424   16.1034  -33.9800 H   0  0  0  0  0  0  0  0  0  0  0  0
   -6.9225   15.9555  -33.2637 H   0  0  0  0  0  0  0  0  0  0  0  0
  -10.0922   18.9783  -31.6375 H   0  0  0  0  0  0  0  0  0  0  0  0
   -7.4952   22.0590  -29.0356 H   0  0  0  0  0  0  0  0  0  0  0  0
   -5.3982   23.3757  -28.7189 H   0  0  0  0  0  0  0  0  0  0  0  0
   -5.6695   24.7924  -32.7994 H   0  0  0  0  0  0  0  0  0  0  0  0
   -7.7686   23.4758  -33.1178 H   0  0  0  0  0  0  0  0  0  0  0  0
   -6.6300   21.3340  -32.2100 H   0  0  0  0  0  0  0  0  0  0  0  0
  1  2  1  0
  2  3  1  0
  3  4  2  0
  4  5  1  0
  5  6  2  0
  6  7  1  0
  7  8  2  0
  8  9  1  0
  9 10  1  0
 10 11  1  0
 11 12  2  0
 12 13  1  0
 13 14  2  0
 14 15  1  0
 14 16  1  0
 16 17  2  0
  9 18  2  0
 18 19  1  0
 19 20  2  0
 20 21  1  0
 20  3  1  0
 19  6  1  0
 17 11  1  0
  1 22  1  0
  1 23  1  0
  1 24  1  0
  4 25  1  0
  5 26  1  0
  8 27  1  0
 12 28  1  0
 13 29  1  0
 16 30  1  0
 17 31  1  0
 18 32  1  0
M  CHG  1  18   1
M  END
>  <UniqueID>  (4) 
4

>  <SMILES>  (4) 
COc1ccc2ncc(Sc3ccc(F)cc3)[nH+]c2c1Br

>  <Energy>  (4) 
35.42177284267074

>  <Genealogy>  (4) 
COc1ccc2ncc(Sc3ccc(F)cc3)[nH+]c2c1Br (protonated)
COc1ccc2ncc(Sc3ccc(F)cc3)[nH+]c2c1Br (3D coordinates assigned)
COc1ccc2ncc(Sc3ccc(F)cc3)[nH+]c2c1Br (optimized conformer: 35.42177284267074 kcal/mol)

>  <smiles>  (4) 
COc1ccc2ncc(Sc3ccc(F)cc3)nc2c1Br

>  <score_type>  (4) 
oracle

>  <origin>  (4) 
adg

>  <m_score__min__energy>  (4) 
-7.4100000000000001

>  <m_primary>  (4) 
energy

$$$$
4:0
     RDKit          3D

 43 46  0  0  0  0  0  0  0  0999 V2000
   -0.3690   27.6620  -24.1410 C   0  0  0  0  0  0  0  0  0  0  0  0
   -0.7180   26.4250  -24.9040 C   0  0  0  0  0  0  0  0  0  0  0  0
   -1.2650   26.5240  -26.1440 N   0  0  0  0  0  0  0  0  0  0  0  0
   -1.6020   25.4340  -26.8330 N   0  0  0  0  0  0  0  0  0  0  0  0
   -1.4110   24.1890  -26.3220 C   0  0  0  0  0  0  0  0  0  0  0  0
   -1.8140   22.9790  -27.1160 C   0  0  0  0  0  0  0  0  0  0  0  0
   -2.8320   23.3470  -28.1690 C   0  0  0  0  0  0  0  0  0  0  0  0
   -2.7590   22.7190  -29.4440 C   0  0  0  0  0  0  0  0  0  0  0  0
   -3.6710   22.9970  -30.4210 N   0  0  0  0  0  0  0  0  0  0  0  0
   -4.6570   23.8880  -30.1580 C   0  0  0  0  0  0  0  0  0  0  0  0
   -4.7850   24.5070  -28.9560 C   0  0  0  0  0  0  0  0  0  0  0  0
   -5.9180   25.2910  -29.0770 C   0  0  0  0  0  0  0  0  0  0  0  0
   -6.4300   25.1190  -30.3220 N   0  0  0  0  0  0  0  0  0  0  0  0
   -5.6470   24.2690  -30.9790 N   0  0  0  0  0  0  0  0  0  0  0  0
   -5.9200   23.7730  -32.3240 C   0  0  0  0  0  0  0  0  0  0  0  0
   -6.9110   22.6440  -32.2610 C   0  0  0  0  0  0  0  0  0  0  0  0
   -6.5330   21.3440  -32.6340 C   0  0  0  0  0  0  0  0  0  0  0  0
   -7.4460   20.2900  -32.5330 C   0  0  0  0  0  0  0  0  0  0  0  0
   -8.7370   20.5240  -32.0510 C   0  0  0  0  0  0  0  0  0  0  0  0
   -9.1160   21.8130  -31.6660 C   0  0  0  0  0  0  0  0  0  0  0  0
   -8.2060   22.8690  -31.7650 C   0  0  0  0  0  0  0  0  0  0  0  0
   -3.8910   24.2650  -27.9110 C   0  0  0  0  0  0  0  0  0  0  0  0
   -4.0610   24.9150  -26.6430 N   0  0  0  0  0  0  0  0  0  0  0  0
   -0.8690   24.0740  -25.0380 C   0  0  0  0  0  0  0  0  0  0  0  0
   -0.5310   25.1960  -24.3510 N   0  0  0  0  0  0  0  0  0  0  0  0
   -0.4271   27.4559  -23.0620 H   0  0  0  0  0  0  0  0  0  0  0  0
    0.6529   27.9763  -24.3997 H   0  0  0  0  0  0  0  0  0  0  0  0
   -1.0759   28.4641  -24.3997 H   0  0  0  0  0  0  0  0  0  0  0  0
   -0.9246   22.5557  -27.6057 H   0  0  0  0  0  0  0  0  0  0  0  0
   -2.2613   22.2410  -26.4339 H   0  0  0  0  0  0  0  0  0  0  0  0
   -1.9538   21.9972  -29.6457 H   0  0  0  0  0  0  0  0  0  0  0  0
   -6.3340   25.9440  -28.2957 H   0  0  0  0  0  0  0  0  0  0  0  0
   -6.3336   24.5878  -32.9364 H   0  0  0  0  0  0  0  0  0  0  0  0
   -4.9841   23.4091  -32.7730 H   0  0  0  0  0  0  0  0  0  0  0  0
   -5.5156   21.1544  -33.0067 H   0  0  0  0  0  0  0  0  0  0  0  0
   -7.1478   19.2747  -32.8334 H   0  0  0  0  0  0  0  0  0  0  0  0
   -9.4546   19.6938  -31.9747 H   0  0  0  0  0  0  0  0  0  0  0  0
  -10.1314   21.9965  -31.2848 H   0  0  0  0  0  0  0  0  0  0  0  0
   -8.5050   23.8806  -31.4532 H   0  0  0  0  0  0  0  0  0  0  0  0
   -4.7860   24.6130  -25.9560 H   0  0  0  0  0  0  0  0  0  0  0  0
   -3.4630   25.7260  -26.3730 H   0  0  0  0  0  0  0  0  0  0  0  0
   -0.7175   23.0820  -24.5876 H   0  0  0  0  0  0  0  0  0  0  0  0
   -0.1270   25.1050  -23.3920 H   0  0  0  0  0  0  0  0  0  0  0  0
  1  2  1  0
  2  3  2  0
  3  4  1  0
  4  5  2  0
  5  6  1  0
  6  7  1  0
  7  8  2  0
  8  9  1  0
  9 10  2  0
 10 11  1  0
 11 12  1  0
 12 13  2  0
 13 14  1  0
 14 15  1  0
 15 16  1  0
 16 17  2  0
 17 18  1  0
 18 19  2  0
 19 20  1  0
 20 21  2  0
 11 22  2  0
 22 23  1  0
  5 24  1  0
 24 25  2  0
 25  2  1  0
 22  7  1  0
 14 10  1  0
 21 16  1  0
  1 26  1  0
  1 27  1  0
  1 28  1  0
  6 29  1  0
  6 30  1  0
  8 31  1  0
 12 32  1  0
 15 33  1  0
 15 34  1  0
 17 35  1  0
 18 36  1  0
 19 37  1  0
 20 38  1  0
 21 39  1  0
 23 40  1  0
 23 41  1  0
 24 42  1  0
 25 43  1  0
M  CHG  1  25   1
M  END
>  <UniqueID>  (5) 
5

>  <SMILES>  (5) 
Cc1nnc(Cc2cnc3c(cnn3Cc3ccccc3)c2N)c[nH+]1

>  <Energy>  (5) 
86.64183057188525

>  <Genealogy>  (5) 
Cc1nnc(Cc2cnc3c(cnn3Cc3ccccc3)c2N)c[nH+]1 (protonated)
Cc1nnc(Cc2cnc3c(cnn3Cc3ccccc3)c2N)c[nH+]1 (3D coordinates assigned)
Cc1nnc(Cc2cnc3c(cnn3Cc3ccccc3)c2N)c[nH+]1 (optimized conformer: 86.64183057188525 kcal/mol)

>  <smiles>  (5) 
Cc1ncc(Cc2cnc3c(cnn3Cc3ccccc3)c2N)nn1

>  <score_type>  (5) 
oracle

>  <origin>  (5) 
adg

>  <m_score__min__energy>  (5) 
-8.8399999999999999

>  <m_primary>  (5) 
energy

$$$$
5:0
     RDKit          3D

 42 45  0  0  0  0  0  0  0  0999 V2000
   -8.4707   23.9069  -32.7991 H   0  0  0  0  0  0  0  0  0  0  0  0
   -8.0250   23.3110  -31.9890 C   0  0  0  0  0  0  0  0  0  0  0  0
   -8.6620   22.1970  -31.5950 C   0  0  0  0  0  0  0  0  0  0  0  0
   -9.5589   22.3043  -30.9672 H   0  0  0  0  0  0  0  0  0  0  0  0
   -8.2210   20.8300  -31.9610 C   0  0  0  0  0  0  0  0  0  0  0  0
   -9.1190   19.7650  -31.7940 C   0  0  0  0  0  0  0  0  0  0  0  0
  -10.1294   19.9590  -31.4048 H   0  0  0  0  0  0  0  0  0  0  0  0
   -8.7400   18.4610  -32.1180 C   0  0  0  0  0  0  0  0  0  0  0  0
   -9.4552   17.6351  -31.9903 H   0  0  0  0  0  0  0  0  0  0  0  0
   -7.4580   18.2010  -32.6030 C   0  0  0  0  0  0  0  0  0  0  0  0
   -7.1701   17.1719  -32.8639 H   0  0  0  0  0  0  0  0  0  0  0  0
   -6.5330   19.2460  -32.7600 C   0  0  0  0  0  0  0  0  0  0  0  0
   -5.1660   18.9680  -33.2590 C   0  0  0  0  0  0  0  0  0  0  0  0
   -4.1590   19.8810  -33.2060 N   0  0  0  0  0  0  0  0  0  0  0  0
   -3.1300   19.2180  -33.7520 C   0  0  0  0  0  0  0  0  0  0  0  0
   -1.8310   19.6770  -33.9560 C   0  0  0  0  0  0  0  0  0  0  0  0
   -1.5328   20.6936  -33.6599 H   0  0  0  0  0  0  0  0  0  0  0  0
   -0.9130   18.7930  -34.5550 C   0  0  0  0  0  0  0  0  0  0  0  0
    0.1231   19.1173  -34.7320 H   0  0  0  0  0  0  0  0  0  0  0  0
   -1.3160   17.4910  -34.9300 C   0  0  0  0  0  0  0  0  0  0  0  0
   -0.5914   16.8079  -35.3974 H   0  0  0  0  0  0  0  0  0  0  0  0
   -2.6390   17.0630  -34.7090 C   0  0  0  0  0  0  0  0  0  0  0  0
   -2.9668   16.0528  -34.9955 H   0  0  0  0  0  0  0  0  0  0  0  0
   -3.5180   17.9660  -34.1140 C   0  0  0  0  0  0  0  0  0  0  0  0
   -4.8110   17.7760  -33.8130 N   0  0  0  0  0  0  0  0  0  0  0  0
   -6.9200   20.5590  -32.4320 C   0  0  0  0  0  0  0  0  0  0  0  0
   -6.1996   21.3826  -32.5444 H   0  0  0  0  0  0  0  0  0  0  0  0
   -6.7520   23.7810  -31.3900 C   0  0  0  0  0  0  0  0  0  0  0  0
   -5.5600   23.1280  -31.7400 C   0  0  0  0  0  0  0  0  0  0  0  0
   -5.5866   22.2917  -32.4541 H   0  0  0  0  0  0  0  0  0  0  0  0
   -4.3390   23.5300  -31.1900 C   0  0  0  0  0  0  0  0  0  0  0  0
   -3.4116   23.0148  -31.4806 H   0  0  0  0  0  0  0  0  0  0  0  0
   -4.2910   24.5900  -30.2670 C   0  0  0  0  0  0  0  0  0  0  0  0
   -3.0920   25.0320  -29.6890 O   0  0  0  0  0  0  0  0  0  0  0  0
   -2.5710   24.5540  -28.4530 C   0  0  0  0  0  0  0  0  0  0  0  0
   -3.1002   25.0395  -27.6198 H   0  0  0  0  0  0  0  0  0  0  0  0
   -2.7124   23.4648  -28.3922 H   0  0  0  0  0  0  0  0  0  0  0  0
   -1.4980   24.7884  -28.3922 H   0  0  0  0  0  0  0  0  0  0  0  0
   -5.4800   25.2310  -29.9040 C   0  0  0  0  0  0  0  0  0  0  0  0
   -5.4534   26.0581  -29.1793 H   0  0  0  0  0  0  0  0  0  0  0  0
   -6.7020   24.8310  -30.4530 C   0  0  0  0  0  0  0  0  0  0  0  0
   -7.6296   25.3394  -30.1513 H   0  0  0  0  0  0  0  0  0  0  0  0
  1  2  1  0
  2  3  2  0
  3  4  1  0
  3  5  1  0
  5  6  2  0
  6  7  1  0
  6  8  1  0
  8  9  1  0
  8 10  2  0
 10 11  1  0
 10 12  1  0
 12 13  1  0
 13 14  2  0
 14 15  1  0
 15 16  2  0
 16 17  1  0
 16 18  1  0
 18 19  1  0
 18 20  2  0
 20 21  1  0
 20 22  1  0
 22 23  1  0
 22 24  2  0
 24 25  1  0
 12 26  2  0
 26 27  1  0
  2 28  1  0
 28 29  2  0
 29 30  1  0
 29 31  1  0
 31 32  1  0
 31 33  2  0
 33 34  1  0
 34 35  1  0
 35 36  1  0
 35 37  1  0
 35 38  1  0
 33 39  1  0
 39 40  1  0
 39 41  2  0
 41 42  1  0
 26  5  1  0
 41 28  1  0
 25 13  1  0
 24 15  1  0
M  CHG  1  25  -1
M  END
>  <UniqueID>  (6) 
6

>  <SMILES>  (6) 
COc1ccc(/C=C/c2cccc(-c3nc4ccccc4[n-]3)c2)cc1

>  <Energy>  (6) 
86.41945207368089

>  <Genealogy>  (6) 
COc1ccc(C=Cc2cccc(-c3nc4ccccc4[n-]3)c2)cc1 (protonated)
COc1ccc(/C=C/c2cccc(-c3nc4ccccc4[n-]3)c2)cc1 (cis-trans isomerization)
COc1ccc(/C=C/c2cccc(-c3nc4ccccc4[n-]3)c2)cc1 (3D coordinates assigned)
COc1ccc(/C=C/c2cccc(-c3nc4ccccc4[n-]3)c2)cc1 (optimized conformer: 86.41945207368089 kcal/mol)

>  <smiles>  (6) 
COc1ccc(C=Cc2cccc(-c3nc4ccccc4[nH]3)c2)cc1

>  <score_type>  (6) 
oracle

>  <origin>  (6) 
adg

>  <m_score__min__energy>  (6) 
-9.8200000000000003

>  <m_primary>  (6) 
energy

$$$$
6:0
     RDKit          3D

 42 45  0  0  0  0  0  0  0  0999 V2000
   -4.3940   24.9000  -30.8250 O   0  0  0  0  0  0  0  0  0  0  0  0
   -4.4810   23.6920  -30.4710 C   0  0  0  0  0  0  0  0  0  0  0  0
   -3.8370   23.2380  -29.2670 N   0  0  0  0  0  0  0  0  0  0  0  0
   -3.0390   24.0760  -28.4150 C   0  0  0  0  0  0  0  0  0  0  0  0
   -3.5470   24.4640  -27.1660 C   0  0  0  0  0  0  0  0  0  0  0  0
   -2.8010   25.2970  -26.3270 C   0  0  0  0  0  0  0  0  0  0  0  0
   -1.5480   25.7640  -26.7350 C   0  0  0  0  0  0  0  0  0  0  0  0
   -0.5330   26.9060  -25.5890 Br  0  0  0  0  0  0  0  0  0  0  0  0
   -1.0460   25.4050  -27.9890 C   0  0  0  0  0  0  0  0  0  0  0  0
   -1.7890   24.5700  -28.8310 C   0  0  0  0  0  0  0  0  0  0  0  0
   -5.2560   22.7550  -31.3120 C   0  0  0  0  0  0  0  0  0  0  0  0
   -6.6480   22.6760  -31.1360 C   0  0  0  0  0  0  0  0  0  0  0  0
   -7.4120   21.7970  -31.9090 C   0  0  0  0  0  0  0  0  0  0  0  0
   -9.1470   21.6990  -31.6670 Cl  0  0  0  0  0  0  0  0  0  0  0  0
   -6.7940   20.9970  -32.8680 C   0  0  0  0  0  0  0  0  0  0  0  0
   -5.4160   21.0790  -33.0690 C   0  0  0  0  0  0  0  0  0  0  0  0
   -4.6330   21.9690  -32.3060 C   0  0  0  0  0  0  0  0  0  0  0  0
   -3.2510   22.1150  -32.5260 O   0  0  0  0  0  0  0  0  0  0  0  0
   -2.2990   21.0510  -32.5590 C   0  0  0  0  0  0  0  0  0  0  0  0
   -1.7890   20.7550  -31.1780 C   0  0  0  0  0  0  0  0  0  0  0  0
   -0.4430   20.3930  -30.9730 C   0  0  0  0  0  0  0  0  0  0  0  0
   -0.0090   20.1110  -29.6710 C   0  0  0  0  0  0  0  0  0  0  0  0
    1.1920   19.7910  -29.4580 O   0  0  0  0  0  0  0  0  0  0  0  0
   -0.9040   20.1890  -28.6470 N   0  0  0  0  0  0  0  0  0  0  0  0
   -0.6600   19.9500  -27.3290 C   0  0  0  0  0  0  0  0  0  0  0  0
   -1.7770   20.1050  -26.5080 C   0  0  0  0  0  0  0  0  0  0  0  0
   -3.0990   20.5510  -27.4660 S   0  0  0  0  0  0  0  0  0  0  0  0
   -2.1920   20.5260  -28.8760 C   0  0  0  0  0  0  0  0  0  0  0  0
   -2.6470   20.8060  -30.1200 N   0  0  0  0  0  0  0  0  0  0  0  0
   -3.8910   22.2240  -29.0230 H   0  0  0  0  0  0  0  0  0  0  0  0
   -4.5380   24.1107  -26.8451 H   0  0  0  0  0  0  0  0  0  0  0  0
   -3.2007   25.5856  -25.3437 H   0  0  0  0  0  0  0  0  0  0  0  0
   -0.0645   25.7797  -28.3149 H   0  0  0  0  0  0  0  0  0  0  0  0
   -1.3945   24.2989  -29.8214 H   0  0  0  0  0  0  0  0  0  0  0  0
   -7.1401   23.3107  -30.3843 H   0  0  0  0  0  0  0  0  0  0  0  0
   -7.3949   20.2983  -33.4687 H   0  0  0  0  0  0  0  0  0  0  0  0
   -4.9366   20.4442  -33.8288 H   0  0  0  0  0  0  0  0  0  0  0  0
   -2.7784   20.1495  -32.9682 H   0  0  0  0  0  0  0  0  0  0  0  0
   -1.4520   21.3526  -33.1927 H   0  0  0  0  0  0  0  0  0  0  0  0
    0.2554   20.3328  -31.8207 H   0  0  0  0  0  0  0  0  0  0  0  0
    0.3296   19.6605  -26.9458 H   0  0  0  0  0  0  0  0  0  0  0  0
   -1.7956   19.9611  -25.4176 H   0  0  0  0  0  0  0  0  0  0  0  0
  1  2  2  0
  2  3  1  0
  3  4  1  0
  4  5  2  0
  5  6  1  0
  6  7  2  0
  7  8  1  0
  7  9  1  0
  9 10  2  0
  2 11  1  0
 11 12  2  0
 12 13  1  0
 13 14  1  0
 13 15  2  0
 15 16  1  0
 16 17  2  0
 17 18  1  0
 18 19  1  0
 19 20  1  0
 20 21  2  0
 21 22  1  0
 22 23  2  0
 22 24  1  0
 24 25  1  0
 25 26  2  0
 26 27  1  0
 27 28  1  0
 28 29  2  0
 10  4  1  0
 17 11  1  0
 29 20  1  0
 28 24  1  0
  3 30  1  0
  5 31  1  0
  6 32  1  0
  9 33  1  0
 10 34  1  0
 12 35  1  0
 15 36  1  0
 16 37  1  0
 19 38  1  0
 19 39  1  0
 21 40  1  0
 25 41  1  0
 26 42  1  0
M  END
>  <UniqueID>  (7) 
7

>  <SMILES>  (7) 
O=C(Nc1ccc(Br)cc1)c1cc(Cl)ccc1OCc1cc(=O)n2ccsc2n1

>  <Energy>  (7) 
89.71944849481562

>  <Genealogy>  (7) 
O=C(Nc1ccc(Br)cc1)c1cc(Cl)ccc1OCc1cc(=O)n2ccsc2n1 (3D coordinates assigned)
O=C(Nc1ccc(Br)cc1)c1cc(Cl)ccc1OCc1cc(=O)n2ccsc2n1 (optimized conformer: 89.71944849481562 kcal/mol)

>  <smiles>  (7) 
O=C(Nc1ccc(Br)cc1)c1cc(Cl)ccc1OCc1cc(=O)n2ccsc2n1

>  <score_type>  (7) 
oracle

>  <origin>  (7) 
adg

>  <m_score__min__energy>  (7) 
-8.9299999999999997

>  <m_primary>  (7) 
energy

$$$$
7:0
     RDKit          3D

 55 58  0  0  0  0  0  0  0  0999 V2000
    0.5530   19.2830  -30.8550 C   0  0  0  0  0  0  0  0  0  0  0  0
    1.1440   18.6290  -29.6740 N   0  0  0  0  0  0  0  0  0  0  0  0
    1.5830   19.6160  -28.6650 C   0  0  0  0  0  0  0  0  0  0  0  0
    0.4050   20.1340  -27.8200 C   0  0  0  0  0  0  0  0  0  0  0  0
   -0.4310   19.0530  -27.2340 N   0  0  0  0  0  0  0  0  0  0  0  0
   -1.8710   19.2860  -27.4770 C   0  0  0  0  0  0  0  0  0  0  0  0
   -2.1170   20.6890  -27.9680 C   0  0  0  0  0  0  0  0  0  0  0  0
   -2.1470   21.7660  -27.0690 C   0  0  0  0  0  0  0  0  0  0  0  0
   -2.3270   23.0710  -27.5380 C   0  0  0  0  0  0  0  0  0  0  0  0
   -2.4630   23.3180  -28.9120 C   0  0  0  0  0  0  0  0  0  0  0  0
   -2.6360   24.7020  -29.3960 C   0  0  0  0  0  0  0  0  0  0  0  0
   -1.9560   25.6230  -28.8720 O   0  0  0  0  0  0  0  0  0  0  0  0
   -3.5230   25.0280  -30.4730 N   0  0  0  0  0  0  0  0  0  0  0  0
   -4.9480   25.2990  -30.3260 C   0  0  0  0  0  0  0  0  0  0  0  0
   -5.7350   24.1640  -30.9160 C   0  0  0  0  0  0  0  0  0  0  0  0
   -7.1300   24.1300  -30.7830 C   0  0  0  0  0  0  0  0  0  0  0  0
   -7.8580   23.0620  -31.3090 C   0  0  0  0  0  0  0  0  0  0  0  0
   -7.2010   22.0150  -31.9600 C   0  0  0  0  0  0  0  0  0  0  0  0
   -5.8000   22.0180  -32.0850 C   0  0  0  0  0  0  0  0  0  0  0  0
   -5.0930   20.9070  -32.7690 C   0  0  0  0  0  0  0  0  0  0  0  0
   -5.6620   19.7540  -33.3110 C   0  0  0  0  0  0  0  0  0  0  0  0
   -4.7280   18.8800  -33.8830 C   0  0  0  0  0  0  0  0  0  0  0  0
   -3.4190   19.3280  -33.8040 C   0  0  0  0  0  0  0  0  0  0  0  0
   -3.4260   20.8110  -33.0180 S   0  0  0  0  0  0  0  0  0  0  0  0
   -5.0760   23.1020  -31.5540 C   0  0  0  0  0  0  0  0  0  0  0  0
   -2.4660   22.2370  -29.8070 C   0  0  0  0  0  0  0  0  0  0  0  0
   -2.2860   20.9330  -29.3390 C   0  0  0  0  0  0  0  0  0  0  0  0
    0.0020   17.6910  -27.6220 C   0  0  0  0  0  0  0  0  0  0  0  0
    0.2520   17.5690  -29.1350 C   0  0  0  0  0  0  0  0  0  0  0  0
   -0.1513   20.0624  -30.5285 H   0  0  0  0  0  0  0  0  0  0  0  0
    1.3509   19.7396  -31.4590 H   0  0  0  0  0  0  0  0  0  0  0  0
    0.0182   18.5352  -31.4590 H   0  0  0  0  0  0  0  0  0  0  0  0
    2.3173   19.1406  -27.9981 H   0  0  0  0  0  0  0  0  0  0  0  0
    2.0256   20.4723  -29.1950 H   0  0  0  0  0  0  0  0  0  0  0  0
    0.8086   20.7446  -26.9989 H   0  0  0  0  0  0  0  0  0  0  0  0
   -0.2439   20.7128  -28.4937 H   0  0  0  0  0  0  0  0  0  0  0  0
   -2.2278   18.5724  -28.2343 H   0  0  0  0  0  0  0  0  0  0  0  0
   -2.4127   19.1468  -26.5298 H   0  0  0  0  0  0  0  0  0  0  0  0
   -2.0284   21.5829  -25.9908 H   0  0  0  0  0  0  0  0  0  0  0  0
   -2.3621   23.9084  -26.8256 H   0  0  0  0  0  0  0  0  0  0  0  0
   -5.1941   25.4005  -29.2587 H   0  0  0  0  0  0  0  0  0  0  0  0
   -5.2005   26.2327  -30.8499 H   0  0  0  0  0  0  0  0  0  0  0  0
   -7.6519   24.9468  -30.2630 H   0  0  0  0  0  0  0  0  0  0  0  0
   -8.9535   23.0445  -31.2107 H   0  0  0  0  0  0  0  0  0  0  0  0
   -7.7842   21.1814  -32.3783 H   0  0  0  0  0  0  0  0  0  0  0  0
   -6.7428   19.5502  -33.2911 H   0  0  0  0  0  0  0  0  0  0  0  0
   -5.0083   17.9253  -34.3520 H   0  0  0  0  0  0  0  0  0  0  0  0
   -2.5316   18.8040  -34.1887 H   0  0  0  0  0  0  0  0  0  0  0  0
   -3.9795   23.1169  -31.6403 H   0  0  0  0  0  0  0  0  0  0  0  0
   -2.6108   22.4173  -30.8824 H   0  0  0  0  0  0  0  0  0  0  0  0
   -2.2768   20.0932  -30.0494 H   0  0  0  0  0  0  0  0  0  0  0  0
    0.9334   17.4501  -27.0886 H   0  0  0  0  0  0  0  0  0  0  0  0
   -0.8045   16.9919  -27.3558 H   0  0  0  0  0  0  0  0  0  0  0  0
    0.7135   16.5906  -29.3343 H   0  0  0  0  0  0  0  0  0  0  0  0
   -0.7217   17.6793  -29.6347 H   0  0  0  0  0  0  0  0  0  0  0  0
  1  2  1  0
  2  3  1  0
  3  4  1  0
  4  5  1  0
  5  6  1  0
  6  7  1  0
  7  8  2  0
  8  9  1  0
  9 10  2  0
 10 11  1  0
 11 12  2  0
 11 13  1  0
 13 14  1  0
 14 15  1  0
 15 16  2  0
 16 17  1  0
 17 18  2  0
 18 19  1  0
 19 20  1  0
 20 21  2  0
 21 22  1  0
 22 23  2  0
 23 24  1  0
 19 25  2  0
 10 26  1  0
 26 27  2  0
  5 28  1  0
 28 29  1  0
 29  2  1  0
 27  7  1  0
 25 15  1  0
 24 20  1  0
  1 30  1  0
  1 31  1  0
  1 32  1  0
  3 33  1  0
  3 34  1  0
  4 35  1  0
  4 36  1  0
  6 37  1  0
  6 38  1  0
  8 39  1  0
  9 40  1  0
 14 41  1  0
 14 42  1  0
 16 43  1  0
 17 44  1  0
 18 45  1  0
 21 46  1  0
 22 47  1  0
 23 48  1  0
 25 49  1  0
 26 50  1  0
 27 51  1  0
 28 52  1  0
 28 53  1  0
 29 54  1  0
 29 55  1  0
M  CHG  1  13  -1
M  END
>  <UniqueID>  (8) 
8

>  <SMILES>  (8) 
CN1CCN(Cc2ccc(C(=O)[N-]Cc3cccc(-c4cccs4)c3)cc2)CC1

>  <Energy>  (8) 
104.28535700714089

>  <Genealogy>  (8) 
CN1CCN(Cc2ccc(C(=O)[N-]Cc3cccc(-c4cccs4)c3)cc2)CC1 (protonated)
CN1CCN(Cc2ccc(C(=O)[N-]Cc3cccc(-c4cccs4)c3)cc2)CC1 (3D coordinates assigned)
CN1CCN(Cc2ccc(C(=O)[N-]Cc3cccc(-c4cccs4)c3)cc2)CC1 (nonaromatic ring conformer: 104.28535700714089 kcal/mol)

>  <smiles>  (8) 
CN1CCN(Cc2ccc(C(=O)NCc3cccc(-c4cccs4)c3)cc2)CC1

>  <score_type>  (8) 
oracle

>  <origin>  (8) 
adg

>  <m_score__min__energy>  (8) 
-10.82

>  <m_primary>  (8) 
energy

$$$$
8:0
     RDKit          3D

 25 27  0  0  0  0  0  0  0  0999 V2000
   -3.9280   25.5790  -30.8570 N   0  0  0  0  0  0  0  0  0  0  0  0
   -4.9880   24.6270  -30.7110 C   0  0  0  0  0  0  0  0  0  0  0  0
   -6.1380   24.9750  -29.9850 C   0  0  0  0  0  0  0  0  0  0  0  0
   -7.1830   24.0610  -29.8290 C   0  0  0  0  0  0  0  0  0  0  0  0
   -7.0960   22.7880  -30.3960 C   0  0  0  0  0  0  0  0  0  0  0  0
   -5.9560   22.4180  -31.1240 C   0  0  0  0  0  0  0  0  0  0  0  0
   -5.8560   21.1770  -31.6830 N   0  0  0  0  0  0  0  0  0  0  0  0
   -4.7490   20.8160  -32.3910 C   0  0  0  0  0  0  0  0  0  0  0  0
   -4.6440   19.5400  -32.9670 C   0  0  0  0  0  0  0  0  0  0  0  0
   -3.4980   19.1900  -33.6900 C   0  0  0  0  0  0  0  0  0  0  0  0
   -2.4550   20.1090  -33.8430 C   0  0  0  0  0  0  0  0  0  0  0  0
   -2.5510   21.3830  -33.2730 C   0  0  0  0  0  0  0  0  0  0  0  0
   -3.6930   21.7400  -32.5480 C   0  0  0  0  0  0  0  0  0  0  0  0
   -3.7960   22.9730  -31.9910 N   0  0  0  0  0  0  0  0  0  0  0  0
   -4.8960   23.3420  -31.2820 C   0  0  0  0  0  0  0  0  0  0  0  0
   -3.8620   26.4220  -30.2440 H   0  0  0  0  0  0  0  0  0  0  0  0
   -3.1930   25.4480  -31.5880 H   0  0  0  0  0  0  0  0  0  0  0  0
   -6.2170   25.9757  -29.5352 H   0  0  0  0  0  0  0  0  0  0  0  0
   -8.0784   24.3455  -29.2569 H   0  0  0  0  0  0  0  0  0  0  0  0
   -7.9234   22.0739  -30.2714 H   0  0  0  0  0  0  0  0  0  0  0  0
   -6.6400   20.4940  -31.5650 H   0  0  0  0  0  0  0  0  0  0  0  0
   -5.4629   18.8150  -32.8500 H   0  0  0  0  0  0  0  0  0  0  0  0
   -3.4174   18.1892  -34.1392 H   0  0  0  0  0  0  0  0  0  0  0  0
   -1.5567   19.8294  -34.4130 H   0  0  0  0  0  0  0  0  0  0  0  0
   -1.7289   22.1037  -33.3948 H   0  0  0  0  0  0  0  0  0  0  0  0
  1  2  1  0
  2  3  2  0
  3  4  1  0
  4  5  2  0
  5  6  1  0
  6  7  2  0
  7  8  1  0
  8  9  2  0
  9 10  1  0
 10 11  2  0
 11 12  1  0
 12 13  2  0
 13 14  1  0
 14 15  2  0
 15  2  1  0
 15  6  1  0
 13  8  1  0
  1 16  1  0
  1 17  1  0
  3 18  1  0
  4 19  1  0
  5 20  1  0
  7 21  1  0
  9 22  1  0
 10 23  1  0
 11 24  1  0
 12 25  1  0
M  CHG  1   7   1
M  END
>  <UniqueID>  (9) 
9

>  <SMILES>  (9) 
Nc1cccc2[nH+]c3ccccc3nc12

>  <Energy>  (9) 
33.77893397719768

>  <Genealogy>  (9) 
Nc1cccc2[nH+]c3ccccc3nc12 (protonated)
Nc1cccc2[nH+]c3ccccc3nc12 (3D coordinates assigned)
Nc1cccc2[nH+]c3ccccc3nc12 (optimized conformer: 33.77893397719768 kcal/mol)

>  <smiles>  (9) 
Nc1cccc2nc3ccccc3nc12

>  <score_type>  (9) 
oracle

>  <origin>  (9) 
adg

>  <m_score__min__energy>  (9) 
-5.8700000000000001

>  <m_primary>  (9) 
energy

$$$$
9:0
     RDKit          3D

 51 54  0  0  0  0  0  0  0  0999 V2000
   -5.8150   16.2310  -33.6570 C   0  0  0  0  0  0  0  0  0  0  0  0
   -5.6830   17.6960  -33.3670 C   0  0  0  0  0  0  0  0  0  0  0  0
   -4.3990   18.2840  -33.2580 C   0  0  0  0  0  0  0  0  0  0  0  0
   -4.2560   19.6470  -32.9460 C   0  0  0  0  0  0  0  0  0  0  0  0
   -5.4140   20.4070  -32.7460 C   0  0  0  0  0  0  0  0  0  0  0  0
   -6.6580   19.8230  -32.8210 C   0  0  0  0  0  0  0  0  0  0  0  0
   -6.8330   18.4750  -33.1240 C   0  0  0  0  0  0  0  0  0  0  0  0
   -7.5740   20.7980  -32.5030 C   0  0  0  0  0  0  0  0  0  0  0  0
   -6.8500   21.9500  -32.2790 C   0  0  0  0  0  0  0  0  0  0  0  0
   -5.5170   21.7230  -32.4300 N   0  0  0  0  0  0  0  0  0  0  0  0
   -4.4300   22.6740  -32.1540 C   0  0  0  0  0  0  0  0  0  0  0  0
   -4.2410   22.9240  -30.6600 C   0  0  0  0  0  0  0  0  0  0  0  0
   -3.5410   21.9830  -29.8500 C   0  0  0  0  0  0  0  0  0  0  0  0
   -2.9270   20.7290  -30.4160 C   0  0  0  0  0  0  0  0  0  0  0  0
   -3.4320   22.2000  -28.4670 C   0  0  0  0  0  0  0  0  0  0  0  0
   -3.9540   23.3490  -27.8840 C   0  0  0  0  0  0  0  0  0  0  0  0
   -4.5860   24.3060  -28.6690 C   0  0  0  0  0  0  0  0  0  0  0  0
   -4.7280   24.1200  -30.0540 C   0  0  0  0  0  0  0  0  0  0  0  0
   -5.4050   25.2080  -30.8500 C   0  0  0  0  0  0  0  0  0  0  0  0
   -7.4960   23.2070  -31.7730 C   0  0  0  0  0  0  0  0  0  0  0  0
   -9.0290   23.1460  -31.9630 C   0  0  0  0  0  0  0  0  0  0  0  0
   -9.6170   21.8300  -31.5980 N   0  0  2  0  0  0  0  0  0  0  0  0
   -9.4810   21.5480  -30.1550 C   0  0  0  0  0  0  0  0  0  0  0  0
   -9.0680   20.7230  -32.4210 C   0  0  0  0  0  0  0  0  0  0  0  0
   -5.8653   15.6729  -32.7104 H   0  0  0  0  0  0  0  0  0  0  0  0
   -6.7328   16.0532  -34.2367 H   0  0  0  0  0  0  0  0  0  0  0  0
   -4.9438   15.8920  -34.2367 H   0  0  0  0  0  0  0  0  0  0  0  0
   -3.5031   17.6666  -33.4195 H   0  0  0  0  0  0  0  0  0  0  0  0
   -3.2593   20.1047  -32.8612 H   0  0  0  0  0  0  0  0  0  0  0  0
   -7.8383   18.0312  -33.1723 H   0  0  0  0  0  0  0  0  0  0  0  0
   -3.4936   22.2694  -32.5657 H   0  0  0  0  0  0  0  0  0  0  0  0
   -4.6957   23.6326  -32.6235 H   0  0  0  0  0  0  0  0  0  0  0  0
   -2.6062   20.0739  -29.5926 H   0  0  0  0  0  0  0  0  0  0  0  0
   -3.6699   20.2038  -31.0343 H   0  0  0  0  0  0  0  0  0  0  0  0
   -2.0566   20.9937  -31.0343 H   0  0  0  0  0  0  0  0  0  0  0  0
   -2.9277   21.4521  -27.8375 H   0  0  0  0  0  0  0  0  0  0  0  0
   -3.8666   23.5012  -26.7981 H   0  0  0  0  0  0  0  0  0  0  0  0
   -4.9797   25.2199  -28.2002 H   0  0  0  0  0  0  0  0  0  0  0  0
   -5.8587   25.9371  -30.1625 H   0  0  0  0  0  0  0  0  0  0  0  0
   -4.6624   25.7146  -31.4840 H   0  0  0  0  0  0  0  0  0  0  0  0
   -6.1876   24.7656  -31.4840 H   0  0  0  0  0  0  0  0  0  0  0  0
   -7.2688   23.3247  -30.7032 H   0  0  0  0  0  0  0  0  0  0  0  0
   -7.1020   24.0619  -32.3422 H   0  0  0  0  0  0  0  0  0  0  0  0
   -9.4897   23.9207  -31.3325 H   0  0  0  0  0  0  0  0  0  0  0  0
   -9.2305   23.3065  -33.0324 H   0  0  0  0  0  0  0  0  0  0  0  0
  -10.6440   21.8860  -31.7980 H   0  0  0  0  0  0  0  0  0  0  0  0
   -9.8875   22.3909  -29.5768 H   0  0  0  0  0  0  0  0  0  0  0  0
  -10.0361   20.6314  -29.9066 H   0  0  0  0  0  0  0  0  0  0  0  0
   -8.4181   21.4117  -29.9066 H   0  0  0  0  0  0  0  0  0  0  0  0
   -9.3547   19.7626  -31.9676 H   0  0  0  0  0  0  0  0  0  0  0  0
   -9.4773   20.8093  -33.4383 H   0  0  0  0  0  0  0  0  0  0  0  0
  1  2  1  0
  2  3  2  0
  3  4  1  0
  4  5  2  0
  5  6  1  0
  6  7  2  0
  6  8  1  0
  8  9  2  0
  9 10  1  0
 10 11  1  0
 11 12  1  0
 12 13  2  0
 13 14  1  0
 13 15  1  0
 15 16  2  0
 16 17  1  0
 17 18  2  0
 18 19  1  0
  9 20  1  0
 20 21  1  0
 21 22  1  0
 22 23  1  0
 22 24  1  0
  7  2  1  0
 24  8  1  0
 10  5  1  0
 18 12  1  0
  1 25  1  0
  1 26  1  0
  1 27  1  0
  3 28  1  0
  4 29  1  0
  7 30  1  0
 11 31  1  0
 11 32  1  0
 14 33  1  0
 14 34  1  0
 14 35  1  0
 15 36  1  0
 16 37  1  0
 17 38  1  0
 19 39  1  0
 19 40  1  0
 19 41  1  0
 20 42  1  0
 20 43  1  0
 21 44  1  0
 21 45  1  0
 22 46  1  6
 23 47  1  0
 23 48  1  0
 23 49  1  0
 24 50  1  0
 24 51  1  0
M  CHG  1  22   1
M  END
>  <UniqueID>  (10) 
10

>  <SMILES>  (10) 
Cc1ccc2c(c1)c1c(n2Cc2c(C)cccc2C)CC[N@H+](C)C1

>  <Energy>  (10) 
96.49682933689944

>  <Genealogy>  (10) 
Cc1ccc2c(c1)c1c(n2Cc2c(C)cccc2C)CC[NH+](C)C1 (protonated)
Cc1ccc2c(c1)c1c(n2Cc2c(C)cccc2C)CC[N@H+](C)C1 (chirality)
Cc1ccc2c(c1)c1c(n2Cc2c(C)cccc2C)CC[N@H+](C)C1 (3D coordinates assigned)
Cc1ccc2c(c1)c1c(n2Cc2c(C)cccc2C)CC[N@H+](C)C1 (nonaromatic ring conformer: 96.49682933689944 kcal/mol)

>  <smiles>  (10) 
Cc1ccc2c(c1)c1c(n2Cc2c(C)cccc2C)CCN(C)C1

>  <score_type>  (10) 
oracle

>  <origin>  (10) 
adg

>  <m_score__min__energy>  (10) 
-7.8200000000000003

>  <m_primary>  (10) 
energy

$$$$
10:0
     RDKit          3D

 56 59  0  0  0  0  0  0  0  0999 V2000
   -1.3140   17.8290  -33.4610 C   0  0  0  0  0  0  0  0  0  0  0  0
   -2.3550   18.2940  -34.3140 O   0  0  0  0  0  0  0  0  0  0  0  0
   -3.5380   18.9060  -33.8730 C   0  0  0  0  0  0  0  0  0  0  0  0
   -4.8010   18.3230  -34.1160 C   0  0  0  0  0  0  0  0  0  0  0  0
   -5.9710   18.9760  -33.7250 C   0  0  0  0  0  0  0  0  0  0  0  0
   -5.9030   20.2160  -33.0940 C   0  0  0  0  0  0  0  0  0  0  0  0
   -4.6620   20.8010  -32.8380 C   0  0  0  0  0  0  0  0  0  0  0  0
   -3.4750   20.1490  -33.2010 C   0  0  0  0  0  0  0  0  0  0  0  0
   -2.2350   20.8070  -32.8960 N   0  0  0  0  0  0  0  0  0  0  0  0
   -1.3940   20.7560  -31.3790 S   0  0  0  0  0  0  0  0  0  0  0  0
    0.0680   21.0080  -31.6190 O   0  0  0  0  0  0  0  0  0  0  0  0
   -1.5890   19.4050  -30.7510 O   0  0  0  0  0  0  0  0  0  0  0  0
   -2.0380   21.9930  -30.2900 C   0  0  0  0  0  0  0  0  0  0  0  0
   -2.6690   23.1270  -30.8280 C   0  0  0  0  0  0  0  0  0  0  0  0
   -3.1840   24.1280  -29.9830 C   0  0  0  0  0  0  0  0  0  0  0  0
   -3.8510   25.2900  -30.5000 N   0  0  0  0  0  0  0  0  0  0  0  0
   -5.2660   25.5170  -30.5300 C   0  0  0  0  0  0  0  0  0  0  0  0
   -5.7350   26.6680  -30.3160 O   0  0  0  0  0  0  0  0  0  0  0  0
   -6.1680   24.3760  -30.7660 C   0  0  0  0  0  0  0  0  0  0  0  0
   -6.5130   23.5290  -29.7850 C   0  0  0  0  0  0  0  0  0  0  0  0
   -7.4200   22.4940  -30.0460 O   0  0  0  0  0  0  0  0  0  0  0  0
   -8.1900   22.4590  -31.2490 C   0  0  0  0  0  0  0  0  0  0  0  0
   -7.3400   22.9580  -32.4170 C   0  0  0  0  0  0  0  0  0  0  0  0
   -6.6890   24.1750  -32.0520 O   0  0  0  0  0  0  0  0  0  0  0  0
   -3.1030   23.9640  -28.5980 C   0  0  0  0  0  0  0  0  0  0  0  0
   -2.4810   22.8400  -28.0540 C   0  0  0  0  0  0  0  0  0  0  0  0
   -1.9410   21.8530  -28.8900 C   0  0  0  0  0  0  0  0  0  0  0  0
   -1.3210   20.7030  -28.3030 N   0  0  0  0  0  0  0  0  0  0  0  0
   -2.0010   20.0160  -27.2000 C   0  0  0  0  0  0  0  0  0  0  0  0
   -1.5130   18.5560  -27.0510 C   0  0  0  0  0  0  0  0  0  0  0  0
   -0.4740   18.2110  -27.9500 O   0  0  0  0  0  0  0  0  0  0  0  0
    0.5570   19.1720  -27.8790 C   0  0  0  0  0  0  0  0  0  0  0  0
    0.1010   20.4580  -28.5680 C   0  0  0  0  0  0  0  0  0  0  0  0
   -1.6132   17.9626  -32.4109 H   0  0  0  0  0  0  0  0  0  0  0  0
   -1.1286   16.7625  -33.6565 H   0  0  0  0  0  0  0  0  0  0  0  0
   -0.3960   18.4026  -33.6565 H   0  0  0  0  0  0  0  0  0  0  0  0
   -4.8633   17.3460  -34.6177 H   0  0  0  0  0  0  0  0  0  0  0  0
   -6.9492   18.5103  -33.9156 H   0  0  0  0  0  0  0  0  0  0  0  0
   -6.8271   20.7339  -32.7976 H   0  0  0  0  0  0  0  0  0  0  0  0
   -4.6147   21.7839  -32.3463 H   0  0  0  0  0  0  0  0  0  0  0  0
   -2.7614   23.2336  -31.9189 H   0  0  0  0  0  0  0  0  0  0  0  0
   -6.0850   23.6468  -28.7785 H   0  0  0  0  0  0  0  0  0  0  0  0
   -8.5134   21.4264  -31.4466 H   0  0  0  0  0  0  0  0  0  0  0  0
   -9.0723   23.1063  -31.1368 H   0  0  0  0  0  0  0  0  0  0  0  0
   -6.5838   22.2000  -32.6691 H   0  0  0  0  0  0  0  0  0  0  0  0
   -7.9871   23.1377  -33.2882 H   0  0  0  0  0  0  0  0  0  0  0  0
   -3.5327   24.7265  -27.9317 H   0  0  0  0  0  0  0  0  0  0  0  0
   -2.4139   22.7276  -26.9618 H   0  0  0  0  0  0  0  0  0  0  0  0
   -1.7990   20.5571  -26.2639 H   0  0  0  0  0  0  0  0  0  0  0  0
   -3.0789   19.9977  -27.4187 H   0  0  0  0  0  0  0  0  0  0  0  0
   -1.1452   18.4153  -26.0239 H   0  0  0  0  0  0  0  0  0  0  0  0
   -2.3688   17.9046  -27.2817 H   0  0  0  0  0  0  0  0  0  0  0  0
    0.7898   19.3832  -26.8249 H   0  0  0  0  0  0  0  0  0  0  0  0
    1.4555   18.7846  -28.3817 H   0  0  0  0  0  0  0  0  0  0  0  0
    0.6919   21.3033  -28.1856 H   0  0  0  0  0  0  0  0  0  0  0  0
    0.2492   20.3537  -29.6530 H   0  0  0  0  0  0  0  0  0  0  0  0
  1  2  1  0
  2  3  1  0
  3  4  2  0
  4  5  1  0
  5  6  2  0
  6  7  1  0
  7  8  2  0
  8  9  1  0
  9 10  1  0
 10 11  2  0
 10 12  2  0
 10 13  1  0
 13 14  2  0
 14 15  1  0
 15 16  1  0
 16 17  1  0
 17 18  2  0
 17 19  1  0
 19 20  2  0
 20 21  1  0
 21 22  1  0
 22 23  1  0
 23 24  1  0
 15 25  2  0
 25 26  1  0
 26 27  2  0
 27 28  1  0
 28 29  1  0
 29 30  1  0
 30 31  1  0
 31 32  1  0
 32 33  1  0
  8  3  1  0
 27 13  1  0
 33 28  1  0
 24 19  1  0
  1 34  1  0
  1 35  1  0
  1 36  1  0
  4 37  1  0
  5 38  1  0
  6 39  1  0
  7 40  1  0
 14 41  1  0
 20 42  1  0
 22 43  1  0
 22 44  1  0
 23 45  1  0
 23 46  1  0
 25 47  1  0
 26 48  1  0
 29 49  1  0
 29 50  1  0
 30 51  1  0
 30 52  1  0
 32 53  1  0
 32 54  1  0
 33 55  1  0
 33 56  1  0
M  CHG  2   9  -1  16  -1
M  END
>  <UniqueID>  (11) 
11

>  <SMILES>  (11) 
COc1ccccc1[N-]S(=O)(=O)c1cc([N-]C(=O)C2=COCCO2)ccc1N1CCOCC1

>  <Energy>  (11) 
80.24113879366806

>  <Genealogy>  (11) 
COc1ccccc1[N-]S(=O)(=O)c1cc([N-]C(=O)C2=COCCO2)ccc1N1CCOCC1 (protonated)
COc1ccccc1[N-]S(=O)(=O)c1cc([N-]C(=O)C2=COCCO2)ccc1N1CCOCC1 (3D coordinates assigned)
COc1ccccc1[N-]S(=O)(=O)c1cc([N-]C(=O)C2=COCCO2)ccc1N1CCOCC1 (nonaromatic ring conformer: 80.24113879366806 kcal/mol)

>  <smiles>  (11) 
COc1ccccc1NS(=O)(=O)c1cc(NC(=O)C2=COCCO2)ccc1N1CCOCC1

>  <score_type>  (11) 
oracle

>  <origin>  (11) 
adg

>  <m_score__min__energy>  (11) 
-10.44

>  <m_primary>  (11) 
energy

$$$$
11:0
     RDKit          3D

 43 45  0  0  0  0  0  0  0  0999 V2000
   -0.8270   25.3860  -27.8490 C   0  0  0  0  0  0  0  0  0  0  0  0
   -1.6380   25.7120  -28.9550 O   0  0  0  0  0  0  0  0  0  0  0  0
   -2.7880   24.8930  -28.9500 C   0  0  0  0  0  0  0  0  0  0  0  0
   -3.3310   24.8320  -30.2660 O   0  0  0  0  0  0  0  0  0  0  0  0
   -4.4550   24.0760  -30.6440 C   0  0  0  0  0  0  0  0  0  0  0  0
   -5.7190   24.6690  -30.8250 C   0  0  0  0  0  0  0  0  0  0  0  0
   -6.8250   23.8960  -31.1790 C   0  0  0  0  0  0  0  0  0  0  0  0
   -6.7000   22.5100  -31.3640 C   0  0  0  0  0  0  0  0  0  0  0  0
   -7.8330   21.6960  -31.7330 N   0  0  0  0  0  0  0  0  0  0  0  0
   -7.8100   20.4870  -32.3360 C   0  0  0  0  0  0  0  0  0  0  0  0
   -9.1080   20.0640  -32.5220 C   0  0  0  0  0  0  0  0  0  0  0  0
   -9.8870   21.0780  -32.0040 C   0  0  0  0  0  0  0  0  0  0  0  0
   -9.0920   22.0580  -31.5340 N   0  0  0  0  0  0  0  0  0  0  0  0
   -5.4380   21.9180  -31.1960 C   0  0  0  0  0  0  0  0  0  0  0  0
   -4.3160   22.6840  -30.8300 C   0  0  0  0  0  0  0  0  0  0  0  0
   -3.0010   22.0150  -30.6710 C   0  0  0  0  0  0  0  0  0  0  0  0
   -2.3830   22.1060  -29.5750 O   0  0  0  0  0  0  0  0  0  0  0  0
   -2.3980   21.2980  -31.7640 N   0  0  0  0  0  0  0  0  0  0  0  0
   -3.1690   20.2820  -32.4870 C   0  0  0  0  0  0  0  0  0  0  0  0
   -2.6980   20.2120  -33.9440 C   0  0  0  0  0  0  0  0  0  0  0  0
   -1.2420   20.0370  -34.0250 N   0  0  0  0  0  0  0  0  0  0  0  0
   -0.5430   21.1490  -33.3650 C   0  0  0  0  0  0  0  0  0  0  0  0
   -0.9380   21.2590  -31.8870 C   0  0  0  0  0  0  0  0  0  0  0  0
   -1.3710   25.6047  -26.9183 H   0  0  0  0  0  0  0  0  0  0  0  0
   -0.5736   24.3161  -27.8828 H   0  0  0  0  0  0  0  0  0  0  0  0
    0.0964   25.9828  -27.8828 H   0  0  0  0  0  0  0  0  0  0  0  0
   -2.5159   23.8802  -28.6179 H   0  0  0  0  0  0  0  0  0  0  0  0
   -3.5364   25.3145  -28.2628 H   0  0  0  0  0  0  0  0  0  0  0  0
   -5.8358   25.7539  -30.6857 H   0  0  0  0  0  0  0  0  0  0  0  0
   -7.8048   24.3773  -31.3145 H   0  0  0  0  0  0  0  0  0  0  0  0
   -6.9061   19.9331  -32.6294 H   0  0  0  0  0  0  0  0  0  0  0  0
   -9.4483   19.1246  -32.9822 H   0  0  0  0  0  0  0  0  0  0  0  0
  -10.9867   21.0849  -31.9788 H   0  0  0  0  0  0  0  0  0  0  0  0
   -5.3244   20.8353  -31.3534 H   0  0  0  0  0  0  0  0  0  0  0  0
   -3.0218   19.3027  -32.0082 H   0  0  0  0  0  0  0  0  0  0  0  0
   -4.2356   20.5500  -32.4626 H   0  0  0  0  0  0  0  0  0  0  0  0
   -3.1895   19.3616  -34.4392 H   0  0  0  0  0  0  0  0  0  0  0  0
   -2.9629   21.1570  -34.4409 H   0  0  0  0  0  0  0  0  0  0  0  0
   -0.9790   19.1400  -33.5500 H   0  0  0  0  0  0  0  0  0  0  0  0
    0.5419   20.9813  -33.4341 H   0  0  0  0  0  0  0  0  0  0  0  0
   -0.8260   22.0845  -33.8698 H   0  0  0  0  0  0  0  0  0  0  0  0
   -0.5487   20.3881  -31.3393 H   0  0  0  0  0  0  0  0  0  0  0  0
   -0.5136   22.1823  -31.4658 H   0  0  0  0  0  0  0  0  0  0  0  0
  1  2  1  0
  2  3  1  0
  3  4  1  0
  4  5  1  0
  5  6  2  0
  6  7  1  0
  7  8  2  0
  8  9  1  0
  9 10  1  0
 10 11  2  0
 11 12  1  0
 12 13  2  0
  8 14  1  0
 14 15  2  0
 15 16  1  0
 16 17  2  0
 16 18  1  0
 18 19  1  0
 19 20  1  0
 20 21  1  0
 21 22  1  0
 22 23  1  0
 15  5  1  0
 23 18  1  0
 13  9  1  0
  1 24  1  0
  1 25  1  0
  1 26  1  0
  3 27  1  0
  3 28  1  0
  6 29  1  0
  7 30  1  0
 10 31  1  0
 11 32  1  0
 12 33  1  0
 14 34  1  0
 19 35  1  0
 19 36  1  0
 20 37  1  0
 20 38  1  0
 21 39  1  0
 22 40  1  0
 22 41  1  0
 23 42  1  0
 23 43  1  0
M  END
>  <UniqueID>  (12) 
12

>  <SMILES>  (12) 
COCOc1ccc(-n2cccn2)cc1C(=O)N1CCNCC1

>  <Energy>  (12) 
80.8481303308465

>  <Genealogy>  (12) 
COCOc1ccc(-n2cccn2)cc1C(=O)N1CCNCC1 (3D coordinates assigned)
COCOc1ccc(-n2cccn2)cc1C(=O)N1CCNCC1 (nonaromatic ring conformer: 80.8481303308465 kcal/mol)

>  <smiles>  (12) 
COCOc1ccc(-n2cccn2)cc1C(=O)N1CCNCC1

>  <score_type>  (12) 
oracle

>  <origin>  (12) 
adg

>  <m_score__min__energy>  (12) 
-7.7199999999999998

>  <m_primary>  (12) 
energy

$$$$
12:0
     RDKit          3D

 32 32  0  0  0  0  0  0  0  0999 V2000
   -1.6230   26.1720  -25.6790 C   0  0  0  0  0  0  0  0  0  0  0  0
   -1.0480   26.5900  -26.9090 O   0  0  0  0  0  0  0  0  0  0  0  0
   -0.8760   25.7260  -27.9950 C   0  0  0  0  0  0  0  0  0  0  0  0
    0.2000   25.0860  -28.1370 O   0  0  0  0  0  0  0  0  0  0  0  0
   -1.9240   25.5490  -28.9550 N   0  0  0  0  0  0  0  0  0  0  0  0
   -2.6200   24.2930  -29.2500 C   0  0  1  0  0  0  0  0  0  0  0  0
   -3.2650   23.6700  -27.9830 C   0  0  0  0  0  0  0  0  0  0  0  0
   -2.6340   22.3800  -27.5100 C   0  0  0  0  0  0  0  0  0  0  0  0
   -1.4730   22.3950  -26.7190 C   0  0  0  0  0  0  0  0  0  0  0  0
   -0.8880   21.1950  -26.3010 C   0  0  0  0  0  0  0  0  0  0  0  0
   -1.4650   19.9730  -26.6570 C   0  0  0  0  0  0  0  0  0  0  0  0
   -2.6330   19.9480  -27.4220 C   0  0  0  0  0  0  0  0  0  0  0  0
   -3.2210   21.1450  -27.8410 C   0  0  0  0  0  0  0  0  0  0  0  0
   -3.5550   24.4410  -30.4350 C   0  0  0  0  0  0  0  0  0  0  0  0
   -3.7680   23.4670  -31.2030 O   0  0  0  0  0  0  0  0  0  0  0  0
   -4.2350   25.6750  -30.6990 N   0  0  0  0  0  0  0  0  0  0  0  0
   -5.6410   25.9260  -30.4090 C   0  0  0  0  0  0  0  0  0  0  0  0
   -6.3250   24.6500  -30.2020 C   0  0  0  0  0  0  0  0  0  0  0  0
   -6.8650   23.6400  -30.0390 N   0  0  0  0  0  0  0  0  0  0  0  0
   -1.0451   26.5921  -24.8426 H   0  0  0  0  0  0  0  0  0  0  0  0
   -2.6627   26.5266  -25.6210 H   0  0  0  0  0  0  0  0  0  0  0  0
   -1.6064   25.0737  -25.6210 H   0  0  0  0  0  0  0  0  0  0  0  0
   -1.8723   23.5510  -29.5669 H   0  0  0  0  0  0  0  0  0  0  0  0
   -3.1917   24.4043  -27.1672 H   0  0  0  0  0  0  0  0  0  0  0  0
   -4.3009   23.4216  -28.2573 H   0  0  0  0  0  0  0  0  0  0  0  0
   -1.0219   23.3548  -26.4270 H   0  0  0  0  0  0  0  0  0  0  0  0
    0.0274   21.2133  -25.6913 H   0  0  0  0  0  0  0  0  0  0  0  0
   -0.9989   19.0303  -26.3344 H   0  0  0  0  0  0  0  0  0  0  0  0
   -3.0907   18.9857  -27.6951 H   0  0  0  0  0  0  0  0  0  0  0  0
   -4.1479   21.1212  -28.4329 H   0  0  0  0  0  0  0  0  0  0  0  0
   -5.7252   26.5401  -29.5003 H   0  0  0  0  0  0  0  0  0  0  0  0
   -6.1026   26.4599  -31.2527 H   0  0  0  0  0  0  0  0  0  0  0  0
  1  2  1  0
  2  3  1  0
  3  4  2  0
  3  5  1  0
  5  6  1  0
  6  7  1  0
  7  8  1  0
  8  9  2  0
  9 10  1  0
 10 11  2  0
 11 12  1  0
 12 13  2  0
  6 14  1  0
 14 15  2  0
 14 16  1  0
 16 17  1  0
 17 18  1  0
 18 19  3  0
 13  8  1  0
  1 20  1  0
  1 21  1  0
  1 22  1  0
  6 23  1  6
  7 24  1  0
  7 25  1  0
  9 26  1  0
 10 27  1  0
 11 28  1  0
 12 29  1  0
 13 30  1  0
 17 31  1  0
 17 32  1  0
M  CHG  2   5  -1  16  -1
M  END
>  <UniqueID>  (13) 
13

>  <SMILES>  (13) 
COC(=O)[N-][C@@H](Cc1ccccc1)C(=O)[N-]CC#N

>  <Energy>  (13) 
24.045024372842065

>  <Genealogy>  (13) 
COC(=O)[N-]C(Cc1ccccc1)C(=O)[N-]CC#N (protonated)
COC(=O)[N-][C@@H](Cc1ccccc1)C(=O)[N-]CC#N (chirality)
COC(=O)[N-][C@@H](Cc1ccccc1)C(=O)[N-]CC#N (3D coordinates assigned)
COC(=O)[N-][C@@H](Cc1ccccc1)C(=O)[N-]CC#N (optimized conformer: 24.045024372842065 kcal/mol)

>  <smiles>  (13) 
COC(=O)NC(Cc1ccccc1)C(=O)NCC#N

>  <score_type>  (13) 
oracle

>  <origin>  (13) 
adg

>  <m_score__min__energy>  (13) 
-8.8300000000000001

>  <m_primary>  (13) 
energy

$$$$
13:0
     RDKit          3D

 39 41  0  0  0  0  0  0  0  0999 V2000
   -8.8370   20.2860  -31.6940 C   0  0  0  0  0  0  0  0  0  0  0  0
   -7.9910   19.5270  -32.7140 C   0  0  0  0  0  0  0  0  0  0  0  0
   -7.1520   18.4950  -32.0620 N   0  0  0  0  0  0  0  0  0  0  0  0
   -7.1530   17.1900  -32.7600 C   0  0  0  0  0  0  0  0  0  0  0  0
   -6.4760   17.2380  -34.1380 C   0  0  0  0  0  0  0  0  0  0  0  0
   -5.1930   18.0230  -34.0990 C   0  0  0  0  0  0  0  0  0  0  0  0
   -4.2620   17.7740  -34.9720 N   0  0  0  0  0  0  0  0  0  0  0  0
   -5.0600   19.0970  -33.1430 N   0  0  0  0  0  0  0  0  0  0  0  0
   -4.3610   20.3510  -33.4690 C   0  0  0  0  0  0  0  0  0  0  0  0
   -4.7100   21.4110  -32.4720 C   0  0  0  0  0  0  0  0  0  0  0  0
   -5.9480   22.0440  -32.3710 C   0  0  0  0  0  0  0  0  0  0  0  0
   -5.9500   23.0610  -31.4120 C   0  0  0  0  0  0  0  0  0  0  0  0
   -7.0300   23.8810  -31.0810 C   0  0  0  0  0  0  0  0  0  0  0  0
   -6.8550   24.8660  -30.0930 C   0  0  0  0  0  0  0  0  0  0  0  0
   -5.6100   25.0200  -29.4530 C   0  0  0  0  0  0  0  0  0  0  0  0
   -4.5290   24.1930  -29.7950 C   0  0  0  0  0  0  0  0  0  0  0  0
   -4.7280   23.2230  -30.7750 C   0  0  0  0  0  0  0  0  0  0  0  0
   -3.6210   22.1190  -31.3860 S   0  0  0  0  0  0  0  0  0  0  0  0
   -5.7670   18.9660  -31.8610 C   0  0  0  0  0  0  0  0  0  0  0  0
   -8.5245   20.0057  -30.6773 H   0  0  0  0  0  0  0  0  0  0  0  0
   -8.6981   21.3680  -31.8350 H   0  0  0  0  0  0  0  0  0  0  0  0
   -9.8977   20.0310  -31.8350 H   0  0  0  0  0  0  0  0  0  0  0  0
   -8.6583   19.0392  -33.4398 H   0  0  0  0  0  0  0  0  0  0  0  0
   -7.3266   20.2462  -33.2153 H   0  0  0  0  0  0  0  0  0  0  0  0
   -6.6200   16.4589  -32.1343 H   0  0  0  0  0  0  0  0  0  0  0  0
   -8.2038   16.9081  -32.9226 H   0  0  0  0  0  0  0  0  0  0  0  0
   -6.2558   16.2105  -34.4633 H   0  0  0  0  0  0  0  0  0  0  0  0
   -7.1615   17.7347  -34.8404 H   0  0  0  0  0  0  0  0  0  0  0  0
   -3.2840   17.5450  -34.6950 H   0  0  0  0  0  0  0  0  0  0  0  0
   -4.4760   17.7650  -35.9950 H   0  0  0  0  0  0  0  0  0  0  0  0
   -3.2750   20.1773  -33.4497 H   0  0  0  0  0  0  0  0  0  0  0  0
   -4.6700   20.6844  -34.4707 H   0  0  0  0  0  0  0  0  0  0  0  0
   -6.8247   21.7735  -32.9778 H   0  0  0  0  0  0  0  0  0  0  0  0
   -8.0006   23.7588  -31.5841 H   0  0  0  0  0  0  0  0  0  0  0  0
   -7.6956   25.5202  -29.8183 H   0  0  0  0  0  0  0  0  0  0  0  0
   -5.4841   25.7930  -28.6806 H   0  0  0  0  0  0  0  0  0  0  0  0
   -3.5518   24.3075  -29.3030 H   0  0  0  0  0  0  0  0  0  0  0  0
   -5.2307   18.2442  -31.2274 H   0  0  0  0  0  0  0  0  0  0  0  0
   -5.8011   19.9541  -31.3789 H   0  0  0  0  0  0  0  0  0  0  0  0
  1  2  1  0
  2  3  1  0
  3  4  1  0
  4  5  1  0
  5  6  1  0
  6  7  2  0
  6  8  1  0
  8  9  1  0
  9 10  1  0
 10 11  2  0
 11 12  1  0
 12 13  2  0
 13 14  1  0
 14 15  2  0
 15 16  1  0
 16 17  2  0
 17 18  1  0
  8 19  1  0
 19  3  1  0
 18 10  1  0
 17 12  1  0
  1 20  1  0
  1 21  1  0
  1 22  1  0
  2 23  1  0
  2 24  1  0
  4 25  1  0
  4 26  1  0
  5 27  1  0
  5 28  1  0
  7 29  1  0
  7 30  1  0
  9 31  1  0
  9 32  1  0
 11 33  1  0
 13 34  1  0
 14 35  1  0
 15 36  1  0
 16 37  1  0
 19 38  1  0
 19 39  1  0
M  CHG  1   7   1
M  END
>  <UniqueID>  (14) 
14

>  <SMILES>  (14) 
CCN1CCC(=[NH2+])N(Cc2cc3ccccc3s2)C1

>  <Energy>  (14) 
70.84009587584985

>  <Genealogy>  (14) 
CCN1CCC(=[NH2+])N(Cc2cc3ccccc3s2)C1 (protonated)
CCN1CCC(=[NH2+])N(Cc2cc3ccccc3s2)C1 (3D coordinates assigned)
CCN1CCC(=[NH2+])N(Cc2cc3ccccc3s2)C1 (nonaromatic ring conformer: 70.84009587584985 kcal/mol)

>  <smiles>  (14) 
CCN1CCC(=N)N(Cc2cc3ccccc3s2)C1

>  <score_type>  (14) 
oracle

>  <origin>  (14) 
adg

>  <m_score__min__energy>  (14) 
-6.2800000000000002

>  <m_primary>  (14) 
energy

$$$$
14:0
     RDKit          3D

 33 34  0  0  0  0  0  0  0  0999 V2000
   -7.2990   18.7750  -32.6490 C   0  0  0  0  0  0  0  0  0  0  0  0
   -7.2420   20.0860  -33.2020 O   0  0  0  0  0  0  0  0  0  0  0  0
   -6.7330   21.2090  -32.5310 C   0  0  0  0  0  0  0  0  0  0  0  0
   -5.3750   21.5770  -32.6100 C   0  0  0  0  0  0  0  0  0  0  0  0
   -4.9080   22.7020  -31.9260 C   0  0  0  0  0  0  0  0  0  0  0  0
   -5.7830   23.4720  -31.1520 C   0  0  0  0  0  0  0  0  0  0  0  0
   -5.1830   24.8860  -30.2900 S   0  0  0  0  0  0  0  0  0  0  0  0
   -3.8320   25.2530  -30.8350 O   0  0  0  0  0  0  0  0  0  0  0  0
   -6.1220   26.0450  -30.4800 O   0  0  0  0  0  0  0  0  0  0  0  0
   -5.0400   24.5300  -28.5940 N   0  0  0  0  0  0  0  0  0  0  0  0
   -4.1930   23.3520  -28.4020 C   0  0  0  0  0  0  0  0  0  0  0  0
   -2.7490   23.7610  -28.4440 C   0  0  0  0  0  0  0  0  0  0  0  0
   -1.8430   23.0730  -29.2650 C   0  0  0  0  0  0  0  0  0  0  0  0
   -0.5110   23.4890  -29.3200 C   0  0  0  0  0  0  0  0  0  0  0  0
   -0.1010   24.5610  -28.5920 N   0  0  0  0  0  0  0  0  0  0  0  0
   -0.9610   25.2550  -27.7990 C   0  0  0  0  0  0  0  0  0  0  0  0
   -2.3020   24.8730  -27.7150 C   0  0  0  0  0  0  0  0  0  0  0  0
   -7.1350   23.1150  -31.0750 C   0  0  0  0  0  0  0  0  0  0  0  0
   -7.6080   21.9890  -31.7590 C   0  0  0  0  0  0  0  0  0  0  0  0
   -9.4620   21.5310  -31.6260 Br  0  0  0  0  0  0  0  0  0  0  0  0
   -7.2962   18.8398  -31.5509 H   0  0  0  0  0  0  0  0  0  0  0  0
   -8.2197   18.2753  -32.9845 H   0  0  0  0  0  0  0  0  0  0  0  0
   -6.4251   18.1972  -32.9845 H   0  0  0  0  0  0  0  0  0  0  0  0
   -4.6792   20.9754  -33.2133 H   0  0  0  0  0  0  0  0  0  0  0  0
   -3.8471   22.9839  -31.9963 H   0  0  0  0  0  0  0  0  0  0  0  0
   -6.0010   24.3010  -28.2490 H   0  0  0  0  0  0  0  0  0  0  0  0
   -4.4163   22.8950  -27.4267 H   0  0  0  0  0  0  0  0  0  0  0  0
   -4.3911   22.6239  -29.2024 H   0  0  0  0  0  0  0  0  0  0  0  0
   -2.1794   22.2120  -29.8612 H   0  0  0  0  0  0  0  0  0  0  0  0
    0.2075   22.9482  -29.9535 H   0  0  0  0  0  0  0  0  0  0  0  0
   -0.5996   26.1192  -27.2224 H   0  0  0  0  0  0  0  0  0  0  0  0
   -3.0015   25.4393  -27.0826 H   0  0  0  0  0  0  0  0  0  0  0  0
   -7.8283   23.7221  -30.4744 H   0  0  0  0  0  0  0  0  0  0  0  0
  1  2  1  0
  2  3  1  0
  3  4  2  0
  4  5  1  0
  5  6  2  0
  6  7  1  0
  7  8  2  0
  7  9  2  0
  7 10  1  0
 10 11  1  0
 11 12  1  0
 12 13  2  0
 13 14  1  0
 14 15  2  0
 15 16  1  0
 16 17  2  0
  6 18  1  0
 18 19  2  0
 19 20  1  0
 19  3  1  0
 17 12  1  0
  1 21  1  0
  1 22  1  0
  1 23  1  0
  4 24  1  0
  5 25  1  0
 10 26  1  0
 11 27  1  0
 11 28  1  0
 13 29  1  0
 14 30  1  0
 16 31  1  0
 17 32  1  0
 18 33  1  0
M  END
>  <UniqueID>  (15) 
15

>  <SMILES>  (15) 
COc1ccc(S(=O)(=O)NCc2ccncc2)cc1Br

>  <Energy>  (15) 
30.73695798165599

>  <Genealogy>  (15) 
COc1ccc(S(=O)(=O)NCc2ccncc2)cc1Br (3D coordinates assigned)
COc1ccc(S(=O)(=O)NCc2ccncc2)cc1Br (optimized conformer: 30.73695798165599 kcal/mol)

>  <smiles>  (15) 
COc1ccc(S(=O)(=O)NCc2ccncc2)cc1Br

>  <score_type>  (15) 
oracle

>  <origin>  (15) 
adg

>  <m_score__min__energy>  (15) 
-8.5899999999999999

>  <m_primary>  (15) 
energy

$$$$
15:0
     RDKit          3D

 33 35  0  0  0  0  0  0  0  0999 V2000
   -5.1710   22.2860  -31.6960 C   0  0  0  0  0  0  0  0  0  0  0  0
   -6.2550   23.1780  -32.1320 N   0  0  0  0  0  0  0  0  0  0  0  0
   -6.0600   24.5240  -31.5640 C   0  0  0  0  0  0  0  0  0  0  0  0
   -5.0770   24.4760  -30.4370 C   0  0  0  0  0  0  0  0  0  0  0  0
   -5.3900   24.2280  -29.1030 C   0  0  0  0  0  0  0  0  0  0  0  0
   -4.1760   24.2800  -28.4570 C   0  0  0  0  0  0  0  0  0  0  0  0
   -3.8500   24.1160  -27.1140 C   0  0  0  0  0  0  0  0  0  0  0  0
   -2.4940   24.2280  -26.7520 C   0  0  0  0  0  0  0  0  0  0  0  0
   -1.5110   24.4990  -27.7310 C   0  0  0  0  0  0  0  0  0  0  0  0
   -1.8760   24.6590  -29.0810 C   0  0  0  0  0  0  0  0  0  0  0  0
   -3.2250   24.5420  -29.4080 C   0  0  0  0  0  0  0  0  0  0  0  0
   -3.7770   24.6560  -30.5910 O   0  0  0  0  0  0  0  0  0  0  0  0
   -7.7870   22.5110  -31.6060 S   0  0  0  0  0  0  0  0  0  0  0  0
   -8.9260   23.2000  -32.3040 O   0  0  0  0  0  0  0  0  0  0  0  0
   -7.9470   22.6890  -30.1210 O   0  0  0  0  0  0  0  0  0  0  0  0
   -7.8530   20.8020  -31.9970 C   0  0  0  0  0  0  0  0  0  0  0  0
   -8.7390   19.8880  -31.4510 C   0  0  0  0  0  0  0  0  0  0  0  0
   -8.5750   18.5970  -31.9670 C   0  0  0  0  0  0  0  0  0  0  0  0
   -7.5660   18.5000  -32.9180 C   0  0  0  0  0  0  0  0  0  0  0  0
   -6.8760   20.0230  -33.1180 S   0  0  0  0  0  0  0  0  0  0  0  0
   -5.1381   22.2590  -30.5968 H   0  0  0  0  0  0  0  0  0  0  0  0
   -5.3525   21.2722  -32.0825 H   0  0  0  0  0  0  0  0  0  0  0  0
   -4.2112   22.6593  -32.0825 H   0  0  0  0  0  0  0  0  0  0  0  0
   -5.6810   25.1968  -32.3474 H   0  0  0  0  0  0  0  0  0  0  0  0
   -7.0232   24.8938  -31.1825 H   0  0  0  0  0  0  0  0  0  0  0  0
   -6.3807   24.0348  -28.6657 H   0  0  0  0  0  0  0  0  0  0  0  0
   -4.6246   23.9062  -26.3617 H   0  0  0  0  0  0  0  0  0  0  0  0
   -2.1975   24.1038  -25.7000 H   0  0  0  0  0  0  0  0  0  0  0  0
   -0.4548   24.5853  -27.4362 H   0  0  0  0  0  0  0  0  0  0  0  0
   -1.1207   24.8695  -29.8525 H   0  0  0  0  0  0  0  0  0  0  0  0
   -9.4917   20.1489  -30.6924 H   0  0  0  0  0  0  0  0  0  0  0  0
   -9.1871   17.7399  -31.6496 H   0  0  0  0  0  0  0  0  0  0  0  0
   -7.2687   17.5840  -33.4496 H   0  0  0  0  0  0  0  0  0  0  0  0
  1  2  1  0
  2  3  1  0
  3  4  1  0
  4  5  2  0
  5  6  1  0
  6  7  2  0
  7  8  1  0
  8  9  2  0
  9 10  1  0
 10 11  2  0
 11 12  1  0
  2 13  1  0
 13 14  2  0
 13 15  2  0
 13 16  1  0
 16 17  2  0
 17 18  1  0
 18 19  2  0
 19 20  1  0
 12  4  1  0
 20 16  1  0
 11  6  1  0
  1 21  1  0
  1 22  1  0
  1 23  1  0
  3 24  1  0
  3 25  1  0
  5 26  1  0
  7 27  1  0
  8 28  1  0
  9 29  1  0
 10 30  1  0
 17 31  1  0
 18 32  1  0
 19 33  1  0
M  END
>  <UniqueID>  (16) 
16

>  <SMILES>  (16) 
CN(Cc1cc2ccccc2o1)S(=O)(=O)c1cccs1

>  <Energy>  (16) 
92.83592736005536

>  <Genealogy>  (16) 
CN(Cc1cc2ccccc2o1)S(=O)(=O)c1cccs1 (3D coordinates assigned)
CN(Cc1cc2ccccc2o1)S(=O)(=O)c1cccs1 (optimized conformer: 92.83592736005536 kcal/mol)

>  <smiles>  (16) 
CN(Cc1cc2ccccc2o1)S(=O)(=O)c1cccs1

>  <score_type>  (16) 
oracle

>  <origin>  (16) 
adg

>  <m_score__min__energy>  (16) 
-8.1099999999999994

>  <m_primary>  (16) 
energy

$$$$
16:0
     RDKit          3D

 41 43  0  0  0  0  0  0  0  0999 V2000
   -2.1870   24.0000  -29.6900 O   0  0  0  0  0  0  0  0  0  0  0  0
   -3.3970   24.1640  -29.9970 C   0  0  0  0  0  0  0  0  0  0  0  0
   -4.4700   23.2080  -29.6600 C   0  0  0  0  0  0  0  0  0  0  0  0
   -5.6640   23.7250  -30.5130 C   0  0  1  0  0  0  0  0  0  0  0  0
   -5.7380   22.9250  -31.8560 C   0  0  0  0  0  0  0  0  0  0  0  0
   -7.1660   22.9090  -32.4220 C   0  0  0  0  0  0  0  0  0  0  0  0
   -8.1400   22.2700  -31.4910 N   0  0  1  0  0  0  0  0  0  0  0  0
   -8.3990   20.9020  -31.8740 C   0  0  0  0  0  0  0  0  0  0  0  0
   -9.0630   20.6490  -32.9200 O   0  0  0  0  0  0  0  0  0  0  0  0
   -7.9070   19.8590  -31.0810 O   0  0  0  0  0  0  0  0  0  0  0  0
   -7.8310   18.5070  -31.5260 C   0  0  0  0  0  0  0  0  0  0  0  0
   -6.7710   18.3620  -32.5840 C   0  0  0  0  0  0  0  0  0  0  0  0
   -6.8560   17.3190  -33.5210 C   0  0  0  0  0  0  0  0  0  0  0  0
   -5.8880   17.1920  -34.5230 C   0  0  0  0  0  0  0  0  0  0  0  0
   -4.8340   18.1060  -34.5980 C   0  0  0  0  0  0  0  0  0  0  0  0
   -4.7460   19.1500  -33.6730 C   0  0  0  0  0  0  0  0  0  0  0  0
   -5.7110   19.2800  -32.6690 C   0  0  0  0  0  0  0  0  0  0  0  0
   -7.7490   22.3290  -30.0600 C   0  0  0  0  0  0  0  0  0  0  0  0
   -7.0140   23.6350  -29.7380 C   0  0  0  0  0  0  0  0  0  0  0  0
   -5.2990   25.2110  -30.8040 C   0  0  0  0  0  0  0  0  0  0  0  0
   -3.8550   25.3050  -30.6900 N   0  0  0  0  0  0  0  0  0  0  0  0
   -4.1925   22.1826  -29.9454 H   0  0  0  0  0  0  0  0  0  0  0  0
   -4.6900   23.1584  -28.5834 H   0  0  0  0  0  0  0  0  0  0  0  0
   -5.0675   23.3956  -32.5901 H   0  0  0  0  0  0  0  0  0  0  0  0
   -5.4331   21.8869  -31.6574 H   0  0  0  0  0  0  0  0  0  0  0  0
   -7.4836   23.9455  -32.6085 H   0  0  0  0  0  0  0  0  0  0  0  0
   -7.1522   22.3182  -33.3498 H   0  0  0  0  0  0  0  0  0  0  0  0
   -9.0440   22.7930  -31.5880 H   0  0  0  0  0  0  0  0  0  0  0  0
   -7.5830   17.8581  -30.6731 H   0  0  0  0  0  0  0  0  0  0  0  0
   -8.8026   18.2164  -31.9521 H   0  0  0  0  0  0  0  0  0  0  0  0
   -7.6864   16.5997  -33.4667 H   0  0  0  0  0  0  0  0  0  0  0  0
   -5.9568   16.3716  -35.2526 H   0  0  0  0  0  0  0  0  0  0  0  0
   -4.0729   18.0039  -35.3856 H   0  0  0  0  0  0  0  0  0  0  0  0
   -3.9169   19.8702  -33.7347 H   0  0  0  0  0  0  0  0  0  0  0  0
   -5.6397   20.1038  -31.9435 H   0  0  0  0  0  0  0  0  0  0  0  0
   -8.6540   22.2642  -29.4381 H   0  0  0  0  0  0  0  0  0  0  0  0
   -7.0719   21.4880  -29.8497 H   0  0  0  0  0  0  0  0  0  0  0  0
   -7.6502   24.4854  -30.0246 H   0  0  0  0  0  0  0  0  0  0  0  0
   -6.7999   23.6587  -28.6593 H   0  0  0  0  0  0  0  0  0  0  0  0
   -5.6201   25.4906  -31.8183 H   0  0  0  0  0  0  0  0  0  0  0  0
   -5.8010   25.8914  -30.1004 H   0  0  0  0  0  0  0  0  0  0  0  0
  1  2  2  0
  2  3  1  0
  4  3  1  1
  4  5  1  0
  5  6  1  0
  6  7  1  0
  7  8  1  0
  8  9  2  0
  8 10  1  0
 10 11  1  0
 11 12  1  0
 12 13  2  0
 13 14  1  0
 14 15  2  0
 15 16  1  0
 16 17  2  0
  7 18  1  0
 18 19  1  0
  4 20  1  0
 20 21  1  0
 21  2  1  0
 19  4  1  0
 17 12  1  0
  3 22  1  0
  3 23  1  0
  5 24  1  0
  5 25  1  0
  6 26  1  0
  6 27  1  0
  7 28  1  1
 11 29  1  0
 11 30  1  0
 13 31  1  0
 14 32  1  0
 15 33  1  0
 16 34  1  0
 17 35  1  0
 18 36  1  0
 18 37  1  0
 19 38  1  0
 19 39  1  0
 20 40  1  0
 20 41  1  0
M  CHG  2   7   1  21  -1
M  END
>  <UniqueID>  (17) 
17

>  <SMILES>  (17) 
O=C1CC2(CC[NH+](C(=O)OCc3ccccc3)CC2)C[N-]1

>  <Energy>  (17) 
61.02193296928103

>  <Genealogy>  (17) 
O=C1CC2(CC[NH+](C(=O)OCc3ccccc3)CC2)C[N-]1 (protonated)
O=C1CC2(CC[NH+](C(=O)OCc3ccccc3)CC2)C[N-]1 (3D coordinates assigned)
O=C1CC2(CC[NH+](C(=O)OCc3ccccc3)CC2)C[N-]1 (nonaromatic ring conformer: 61.02193296928103 kcal/mol)

>  <smiles>  (17) 
O=C1CC2(CCN(C(=O)OCc3ccccc3)CC2)CN1

>  <score_type>  (17) 
oracle

>  <origin>  (17) 
adg

>  <m_score__min__energy>  (17) 
-9.6899999999999995

>  <m_primary>  (17) 
energy

$$$$
17:0
     RDKit          3D

 48 51  0  0  0  0  0  0  0  0999 V2000
   -5.6990   12.9470  -34.8090 C   0  0  0  0  0  0  0  0  0  0  0  0
   -4.3050   12.7240  -34.2450 C   0  0  0  0  0  0  0  0  0  0  0  0
   -3.5930   13.9580  -34.2350 O   0  0  0  0  0  0  0  0  0  0  0  0
   -4.1710   15.2040  -33.9540 C   0  0  0  0  0  0  0  0  0  0  0  0
   -4.6940   15.4190  -32.6730 C   0  0  0  0  0  0  0  0  0  0  0  0
   -5.2810   16.6450  -32.3420 C   0  0  0  0  0  0  0  0  0  0  0  0
   -5.3530   17.6740  -33.2930 C   0  0  0  0  0  0  0  0  0  0  0  0
   -5.9580   18.9390  -32.9520 N   0  0  0  0  0  0  0  0  0  0  0  0
   -7.2930   18.9940  -32.6720 C   0  0  0  0  0  0  0  0  0  0  0  0
   -7.9910   17.9410  -32.7160 O   0  0  0  0  0  0  0  0  0  0  0  0
   -7.8930   20.2160  -32.3520 C   0  0  0  0  0  0  0  0  0  0  0  0
   -9.2710   20.2950  -32.0660 C   0  0  0  0  0  0  0  0  0  0  0  0
   -9.8600   21.5190  -31.7590 C   0  0  0  0  0  0  0  0  0  0  0  0
   -9.0880   22.6760  -31.7340 C   0  0  0  0  0  0  0  0  0  0  0  0
   -7.7220   22.6160  -32.0130 C   0  0  0  0  0  0  0  0  0  0  0  0
   -7.0930   21.3840  -32.3270 C   0  0  0  0  0  0  0  0  0  0  0  0
   -5.7430   21.2950  -32.6060 N   0  0  0  0  0  0  0  0  0  0  0  0
   -4.8740   22.4990  -32.6020 C   0  0  0  0  0  0  0  0  0  0  0  0
   -4.7640   23.0920  -31.2180 C   0  0  0  0  0  0  0  0  0  0  0  0
   -5.3150   24.3560  -30.9420 C   0  0  0  0  0  0  0  0  0  0  0  0
   -5.2320   24.8980  -29.6560 C   0  0  0  0  0  0  0  0  0  0  0  0
   -4.6140   24.1780  -28.6310 C   0  0  0  0  0  0  0  0  0  0  0  0
   -4.0810   22.9110  -28.8890 C   0  0  0  0  0  0  0  0  0  0  0  0
   -4.1600   22.3660  -30.1750 C   0  0  0  0  0  0  0  0  0  0  0  0
   -5.1900   20.0730  -32.9200 C   0  0  0  0  0  0  0  0  0  0  0  0
   -3.9550   19.9880  -33.1790 O   0  0  0  0  0  0  0  0  0  0  0  0
   -4.8310   17.4620  -34.5780 C   0  0  0  0  0  0  0  0  0  0  0  0
   -4.2440   16.2370  -34.9080 C   0  0  0  0  0  0  0  0  0  0  0  0
   -6.4151   13.0616  -33.9820 H   0  0  0  0  0  0  0  0  0  0  0  0
   -5.7034   13.8573  -35.4266 H   0  0  0  0  0  0  0  0  0  0  0  0
   -5.9871   12.0835  -35.4266 H   0  0  0  0  0  0  0  0  0  0  0  0
   -4.3826   12.3373  -33.2182 H   0  0  0  0  0  0  0  0  0  0  0  0
   -3.7683   11.9964  -34.8716 H   0  0  0  0  0  0  0  0  0  0  0  0
   -4.6429   14.6177  -31.9211 H   0  0  0  0  0  0  0  0  0  0  0  0
   -5.6877   16.8028  -31.3322 H   0  0  0  0  0  0  0  0  0  0  0  0
   -9.8857   19.3830  -32.0855 H   0  0  0  0  0  0  0  0  0  0  0  0
  -10.9359   21.5710  -31.5362 H   0  0  0  0  0  0  0  0  0  0  0  0
   -9.5561   23.6419  -31.4934 H   0  0  0  0  0  0  0  0  0  0  0  0
   -7.1236   23.5387  -31.9890 H   0  0  0  0  0  0  0  0  0  0  0  0
   -3.8699   22.2173  -32.9519 H   0  0  0  0  0  0  0  0  0  0  0  0
   -5.3212   23.2520  -33.2676 H   0  0  0  0  0  0  0  0  0  0  0  0
   -5.8142   24.9216  -31.7426 H   0  0  0  0  0  0  0  0  0  0  0  0
   -5.6540   25.8929  -29.4511 H   0  0  0  0  0  0  0  0  0  0  0  0
   -4.5465   24.6076  -27.6206 H   0  0  0  0  0  0  0  0  0  0  0  0
   -3.5992   22.3424  -28.0799 H   0  0  0  0  0  0  0  0  0  0  0  0
   -3.7480   21.3652  -30.3717 H   0  0  0  0  0  0  0  0  0  0  0  0
   -4.8839   18.2636  -35.3294 H   0  0  0  0  0  0  0  0  0  0  0  0
   -3.8372   16.0793  -35.9178 H   0  0  0  0  0  0  0  0  0  0  0  0
  1  2  1  0
  2  3  1  0
  3  4  1  0
  4  5  2  0
  5  6  1  0
  6  7  2  0
  7  8  1  0
  8  9  1  0
  9 10  2  0
  9 11  1  0
 11 12  2  0
 12 13  1  0
 13 14  2  0
 14 15  1  0
 15 16  2  0
 16 17  1  0
 17 18  1  0
 18 19  1  0
 19 20  2  0
 20 21  1  0
 21 22  2  0
 22 23  1  0
 23 24  2  0
 17 25  1  0
 25 26  2  0
  7 27  1  0
 27 28  2  0
 28  4  1  0
 25  8  1  0
 16 11  1  0
 24 19  1  0
  1 29  1  0
  1 30  1  0
  1 31  1  0
  2 32  1  0
  2 33  1  0
  5 34  1  0
  6 35  1  0
 12 36  1  0
 13 37  1  0
 14 38  1  0
 15 39  1  0
 18 40  1  0
 18 41  1  0
 20 42  1  0
 21 43  1  0
 22 44  1  0
 23 45  1  0
 24 46  1  0
 27 47  1  0
 28 48  1  0
M  END
>  <UniqueID>  (18) 
18

>  <SMILES>  (18) 
CCOc1ccc(-n2c(=O)c3ccccc3n(Cc3ccccc3)c2=O)cc1

>  <Energy>  (18) 
70.89891925109745

>  <Genealogy>  (18) 
CCOc1ccc(-n2c(=O)c3ccccc3n(Cc3ccccc3)c2=O)cc1 (3D coordinates assigned)
CCOc1ccc(-n2c(=O)c3ccccc3n(Cc3ccccc3)c2=O)cc1 (optimized conformer: 70.89891925109745 kcal/mol)

>  <smiles>  (18) 
CCOc1ccc(-n2c(=O)c3ccccc3n(Cc3ccccc3)c2=O)cc1

>  <score_type>  (18) 
oracle

>  <origin>  (18) 
adg

>  <m_score__min__energy>  (18) 
-8.5399999999999991

>  <m_primary>  (18) 
energy

$$$$
18:0
     RDKit          3D

 55 56  0  0  0  0  0  0  0  0999 V2000
   -6.1640   17.4400  -31.2570 C   0  0  0  0  0  0  0  0  0  0  0  0
   -6.6640   17.4220  -32.7010 C   0  0  0  0  0  0  0  0  0  0  0  0
   -6.8260   18.8440  -33.3000 C   0  0  0  0  0  0  0  0  0  0  0  0
   -7.1990   19.8890  -32.3150 N   0  0  0  0  0  0  0  0  0  0  0  0
   -8.6720   20.0260  -32.1880 C   0  0  0  0  0  0  0  0  0  0  0  0
   -9.0350   21.1620  -31.2280 C   0  0  0  0  0  0  0  0  0  0  0  0
   -9.4390   22.4310  -31.9740 C   0  0  0  0  0  0  0  0  0  0  0  0
   -6.5510   21.2030  -32.5450 C   0  0  0  0  0  0  0  0  0  0  0  0
   -5.1320   21.3050  -31.9270 C   0  0  1  0  0  0  0  0  0  0  0  0
   -4.0440   20.8440  -32.9100 C   0  0  0  0  0  0  0  0  0  0  0  0
   -2.7340   20.8890  -32.2520 N   0  0  0  0  0  0  0  0  0  0  0  0
   -2.4470   21.8710  -31.2420 C   0  0  0  0  0  0  0  0  0  0  0  0
   -1.1720   21.9840  -30.6810 C   0  0  0  0  0  0  0  0  0  0  0  0
   -0.9190   22.9680  -29.7230 C   0  0  0  0  0  0  0  0  0  0  0  0
   -1.9480   23.8340  -29.3370 C   0  0  0  0  0  0  0  0  0  0  0  0
   -1.6900   24.8260  -28.3850 O   0  0  0  0  0  0  0  0  0  0  0  0
   -2.3540   24.8740  -27.1280 C   0  0  0  0  0  0  0  0  0  0  0  0
   -3.1860   23.7060  -29.8910 N   0  0  0  0  0  0  0  0  0  0  0  0
   -3.4610   22.7460  -30.8160 C   0  0  0  0  0  0  0  0  0  0  0  0
   -4.7680   22.6390  -31.4060 N   0  0  0  0  0  0  0  0  0  0  0  0
   -5.3930   23.8590  -31.8360 C   0  0  0  0  0  0  0  0  0  0  0  0
   -6.3370   23.8150  -32.6710 O   0  0  0  0  0  0  0  0  0  0  0  0
   -5.0160   25.1040  -31.2440 N   0  0  0  0  0  0  0  0  0  0  0  0
   -5.6670   25.6440  -30.0590 C   0  0  0  0  0  0  0  0  0  0  0  0
   -6.9040   24.8210  -29.7340 C   0  0  0  0  0  0  0  0  0  0  0  0
   -7.0233   17.4091  -30.5710 H   0  0  0  0  0  0  0  0  0  0  0  0
   -5.5221   16.5644  -31.0803 H   0  0  0  0  0  0  0  0  0  0  0  0
   -5.5867   18.3595  -31.0803 H   0  0  0  0  0  0  0  0  0  0  0  0
   -5.9435   16.8621  -33.3153 H   0  0  0  0  0  0  0  0  0  0  0  0
   -7.6566   16.9479  -32.7014 H   0  0  0  0  0  0  0  0  0  0  0  0
   -5.8704   19.1329  -33.7618 H   0  0  0  0  0  0  0  0  0  0  0  0
   -7.6535   18.7862  -34.0224 H   0  0  0  0  0  0  0  0  0  0  0  0
   -9.1003   20.2407  -33.1782 H   0  0  0  0  0  0  0  0  0  0  0  0
   -9.0790   19.0853  -31.7887 H   0  0  0  0  0  0  0  0  0  0  0  0
   -9.8751   20.8385  -30.5958 H   0  0  0  0  0  0  0  0  0  0  0  0
   -8.1470   21.3918  -30.6208 H   0  0  0  0  0  0  0  0  0  0  0  0
   -9.6898   23.2188  -31.2484 H   0  0  0  0  0  0  0  0  0  0  0  0
   -8.6033   22.7668  -32.6056 H   0  0  0  0  0  0  0  0  0  0  0  0
  -10.3150   22.2219  -32.6056 H   0  0  0  0  0  0  0  0  0  0  0  0
   -6.4719   21.3680  -33.6297 H   0  0  0  0  0  0  0  0  0  0  0  0
   -7.1752   21.9640  -32.0539 H   0  0  0  0  0  0  0  0  0  0  0  0
   -5.1816   20.6272  -31.0621 H   0  0  0  0  0  0  0  0  0  0  0  0
   -4.2558   19.8142  -33.2336 H   0  0  0  0  0  0  0  0  0  0  0  0
   -4.0361   21.5110  -33.7846 H   0  0  0  0  0  0  0  0  0  0  0  0
   -1.9830   20.2380  -32.5760 H   0  0  0  0  0  0  0  0  0  0  0  0
   -0.3696   21.2994  -30.9933 H   0  0  0  0  0  0  0  0  0  0  0  0
    0.0814   23.0616  -29.2753 H   0  0  0  0  0  0  0  0  0  0  0  0
   -1.6111   24.8203  -26.3186 H   0  0  0  0  0  0  0  0  0  0  0  0
   -2.9175   25.8152  -27.0467 H   0  0  0  0  0  0  0  0  0  0  0  0
   -3.0470   24.0236  -27.0467 H   0  0  0  0  0  0  0  0  0  0  0  0
   -4.9693   25.6066  -29.2094 H   0  0  0  0  0  0  0  0  0  0  0  0
   -5.9624   26.6865  -30.2487 H   0  0  0  0  0  0  0  0  0  0  0  0
   -7.0177   24.7453  -28.6425 H   0  0  0  0  0  0  0  0  0  0  0  0
   -7.7920   25.3090  -30.1622 H   0  0  0  0  0  0  0  0  0  0  0  0
   -6.7970   23.8134  -30.1622 H   0  0  0  0  0  0  0  0  0  0  0  0
  1  2  1  0
  2  3  1  0
  3  4  1  0
  4  5  1  0
  5  6  1  0
  6  7  1  0
  4  8  1  0
  8  9  1  0
  9 10  1  0
 10 11  1  0
 11 12  1  0
 12 13  2  0
 13 14  1  0
 14 15  2  0
 15 16  1  0
 16 17  1  0
 15 18  1  0
 18 19  2  0
 19 20  1  0
 20 21  1  0
 21 22  2  0
 21 23  1  0
 23 24  1  0
 24 25  1  0
 20  9  1  0
 19 12  1  0
  1 26  1  0
  1 27  1  0
  1 28  1  0
  2 29  1  0
  2 30  1  0
  3 31  1  0
  3 32  1  0
  5 33  1  0
  5 34  1  0
  6 35  1  0
  6 36  1  0
  7 37  1  0
  7 38  1  0
  7 39  1  0
  8 40  1  0
  8 41  1  0
  9 42  1  1
 10 43  1  0
 10 44  1  0
 11 45  1  0
 13 46  1  0
 14 47  1  0
 17 48  1  0
 17 49  1  0
 17 50  1  0
 24 51  1  0
 24 52  1  0
 25 53  1  0
 25 54  1  0
 25 55  1  0
M  CHG  1  23  -1
M  END
>  <UniqueID>  (19) 
19

>  <SMILES>  (19) 
CCCN(CCC)C[C@H]1CNc2ccc(OC)nc2N1C(=O)[N-]CC

>  <Energy>  (19) 
56.06772572107001

>  <Genealogy>  (19) 
CCCN(CCC)CC1CNc2ccc(OC)nc2N1C(=O)[N-]CC (protonated)
CCCN(CCC)C[C@H]1CNc2ccc(OC)nc2N1C(=O)[N-]CC (chirality)
CCCN(CCC)C[C@H]1CNc2ccc(OC)nc2N1C(=O)[N-]CC (3D coordinates assigned)
CCCN(CCC)C[C@H]1CNc2ccc(OC)nc2N1C(=O)[N-]CC (nonaromatic ring conformer: 56.06772572107001 kcal/mol)

>  <smiles>  (19) 
CCCN(CCC)CC1CNc2ccc(OC)nc2N1C(=O)NCC

>  <score_type>  (19) 
oracle

>  <origin>  (19) 
adg

>  <m_score__min__energy>  (19) 
-7.9900000000000002

>  <m_primary>  (19) 
energy

$$$$
19:0
     RDKit          3D

 40 42  0  0  0  0  0  0  0  0999 V2000
   -1.6140   23.5020  -27.4460 O   0  0  0  0  0  0  0  0  0  0  0  0
   -1.1100   24.7850  -28.0470 S   0  0  0  0  0  0  0  0  0  0  0  0
    0.2620   24.5380  -28.6080 O   0  0  0  0  0  0  0  0  0  0  0  0
   -2.1690   25.2840  -29.3330 N   0  0  0  0  0  0  0  0  0  0  0  0
   -3.1790   24.2620  -29.6210 C   0  0  0  0  0  0  0  0  0  0  0  0
   -4.5300   24.9240  -29.8960 C   0  0  0  0  0  0  0  0  0  0  0  0
   -4.9700   24.6340  -31.2230 O   0  0  0  0  0  0  0  0  0  0  0  0
   -5.6180   23.4570  -31.6310 C   0  0  0  0  0  0  0  0  0  0  0  0
   -4.9440   22.3980  -32.2910 C   0  0  0  0  0  0  0  0  0  0  0  0
   -5.6420   21.2440  -32.6770 C   0  0  0  0  0  0  0  0  0  0  0  0
   -7.0080   21.1590  -32.4010 C   0  0  0  0  0  0  0  0  0  0  0  0
   -7.6660   22.1790  -31.7670 C   0  0  0  0  0  0  0  0  0  0  0  0
   -6.9940   23.3380  -31.3730 C   0  0  0  0  0  0  0  0  0  0  0  0
   -9.1040   21.8820  -31.5780 C   0  0  0  0  0  0  0  0  0  0  0  0
   -9.2820   20.4820  -32.1980 C   0  0  0  0  0  0  0  0  0  0  0  0
   -7.9080   20.0310  -32.7300 C   0  0  0  0  0  0  0  0  0  0  0  0
   -1.0090   26.0340  -26.8090 C   0  0  0  0  0  0  0  0  0  0  0  0
   -1.3720   25.7380  -25.4870 C   0  0  0  0  0  0  0  0  0  0  0  0
   -1.2670   26.7170  -24.4940 C   0  0  0  0  0  0  0  0  0  0  0  0
   -0.7980   27.9930  -24.8160 C   0  0  0  0  0  0  0  0  0  0  0  0
   -0.4310   28.2920  -26.1310 C   0  0  0  0  0  0  0  0  0  0  0  0
   -0.5350   27.3150  -27.1270 C   0  0  0  0  0  0  0  0  0  0  0  0
   -2.8703   23.6836  -30.5043 H   0  0  0  0  0  0  0  0  0  0  0  0
   -3.2746   23.5941  -28.7522 H   0  0  0  0  0  0  0  0  0  0  0  0
   -5.2717   24.5442  -29.1779 H   0  0  0  0  0  0  0  0  0  0  0  0
   -4.4200   26.0132  -29.7885 H   0  0  0  0  0  0  0  0  0  0  0  0
   -3.8676   22.4820  -32.5015 H   0  0  0  0  0  0  0  0  0  0  0  0
   -5.1221   20.4204  -33.1882 H   0  0  0  0  0  0  0  0  0  0  0  0
   -7.5364   24.1495  -30.8658 H   0  0  0  0  0  0  0  0  0  0  0  0
   -9.3637   21.8719  -30.5091 H   0  0  0  0  0  0  0  0  0  0  0  0
   -9.7560   22.6362  -32.0428 H   0  0  0  0  0  0  0  0  0  0  0  0
   -9.6388   19.7758  -31.4338 H   0  0  0  0  0  0  0  0  0  0  0  0
  -10.0214   20.5107  -33.0119 H   0  0  0  0  0  0  0  0  0  0  0  0
   -7.5783   19.1089  -32.2289 H   0  0  0  0  0  0  0  0  0  0  0  0
   -7.9249   19.8032  -33.8060 H   0  0  0  0  0  0  0  0  0  0  0  0
   -1.7401   24.7336  -25.2307 H   0  0  0  0  0  0  0  0  0  0  0  0
   -1.5540   26.4822  -23.4584 H   0  0  0  0  0  0  0  0  0  0  0  0
   -0.7175   28.7627  -24.0342 H   0  0  0  0  0  0  0  0  0  0  0  0
   -0.0600   29.2964  -26.3831 H   0  0  0  0  0  0  0  0  0  0  0  0
   -0.2445   27.5520  -28.1612 H   0  0  0  0  0  0  0  0  0  0  0  0
  1  2  2  0
  2  3  2  0
  2  4  1  0
  4  5  1  0
  5  6  1  0
  6  7  1  0
  7  8  1  0
  8  9  2  0
  9 10  1  0
 10 11  2  0
 11 12  1  0
 12 13  2  0
 12 14  1  0
 14 15  1  0
 15 16  1  0
  2 17  1  0
 17 18  2  0
 18 19  1  0
 19 20  2  0
 20 21  1  0
 21 22  2  0
 13  8  1  0
 22 17  1  0
 16 11  1  0
  5 23  1  0
  5 24  1  0
  6 25  1  0
  6 26  1  0
  9 27  1  0
 10 28  1  0
 13 29  1  0
 14 30  1  0
 14 31  1  0
 15 32  1  0
 15 33  1  0
 16 34  1  0
 16 35  1  0
 18 36  1  0
 19 37  1  0
 20 38  1  0
 21 39  1  0
 22 40  1  0
M  CHG  1   4  -1
M  END
>  <UniqueID>  (20) 
20

>  <SMILES>  (20) 
O=S(=O)([N-]CCOc1ccc2c(c1)CCC2)c1ccccc1

>  <Energy>  (20) 
46.836166809157696

>  <Genealogy>  (20) 
O=S(=O)([N-]CCOc1ccc2c(c1)CCC2)c1ccccc1 (protonated)
O=S(=O)([N-]CCOc1ccc2c(c1)CCC2)c1ccccc1 (3D coordinates assigned)
O=S(=O)([N-]CCOc1ccc2c(c1)CCC2)c1ccccc1 (nonaromatic ring conformer: 46.836166809157696 kcal/mol)

>  <smiles>  (20) 
O=S(=O)(NCCOc1ccc2c(c1)CCC2)c1ccccc1

>  <score_type>  (20) 
oracle

>  <origin>  (20) 
adg

>  <m_score__min__energy>  (20) 
-10.35

>  <m_primary>  (20) 
energy

$$$$
20:0
     RDKit          3D

 49 52  0  0  0  0  0  0  0  0999 V2000
   -5.0420   26.4640  -31.4530 H   0  0  0  0  0  0  0  0  0  0  0  0
   -5.4060   25.5190  -31.1970 N   0  0  0  0  0  0  0  0  0  0  0  0
   -4.6370   24.6270  -30.6600 C   0  0  0  0  0  0  0  0  0  0  0  0
   -3.5060   24.9260  -29.9930 N   0  0  0  0  0  0  0  0  0  0  0  0
   -3.0700   23.6940  -29.6490 C   0  0  0  0  0  0  0  0  0  0  0  0
   -1.9550   23.5020  -29.0090 N   0  0  0  0  0  0  0  0  0  0  0  0
   -1.3250   24.4210  -28.1020 C   0  0  0  0  0  0  0  0  0  0  0  0
   -2.1300   25.1610  -27.2290 C   0  0  0  0  0  0  0  0  0  0  0  0
   -3.2223   25.0330  -27.2532 H   0  0  0  0  0  0  0  0  0  0  0  0
   -1.5570   26.0620  -26.3260 C   0  0  0  0  0  0  0  0  0  0  0  0
   -2.2010   26.6405  -25.6474 H   0  0  0  0  0  0  0  0  0  0  0  0
   -0.1650   26.2320  -26.2810 C   0  0  0  0  0  0  0  0  0  0  0  0
    0.4370   27.1830  -25.3220 C   0  0  0  0  0  0  0  0  0  0  0  0
    0.7410   28.3400  -25.7210 O   0  0  0  0  0  0  0  0  0  0  0  0
    0.6840   26.8190  -23.9480 N   0  0  0  0  0  0  0  0  0  0  0  0
   -0.4600   26.4880  -23.0950 C   0  0  0  0  0  0  0  0  0  0  0  0
   -0.1662   26.5730  -22.0384 H   0  0  0  0  0  0  0  0  0  0  0  0
   -1.2860   27.1840  -23.3031 H   0  0  0  0  0  0  0  0  0  0  0  0
   -0.7868   25.4585  -23.3031 H   0  0  0  0  0  0  0  0  0  0  0  0
    2.0380   26.8950  -23.3760 C   0  0  0  0  0  0  0  0  0  0  0  0
    2.5481   27.7855  -23.7720 H   0  0  0  0  0  0  0  0  0  0  0  0
    1.9569   26.9579  -22.2808 H   0  0  0  0  0  0  0  0  0  0  0  0
    2.8470   25.6500  -23.7390 C   0  0  0  0  0  0  0  0  0  0  0  0
    3.5129   25.8792  -24.5840 H   0  0  0  0  0  0  0  0  0  0  0  0
    3.4479   25.3381  -22.8721 H   0  0  0  0  0  0  0  0  0  0  0  0
    1.9760   24.6150  -24.0990 O   0  0  0  0  0  0  0  0  0  0  0  0
    1.3130   24.5450  -23.3630 H   0  0  0  0  0  0  0  0  0  0  0  0
    0.6480   25.4480  -27.1140 C   0  0  0  0  0  0  0  0  0  0  0  0
    1.7424   25.5423  -27.0560 H   0  0  0  0  0  0  0  0  0  0  0  0
    0.0750   24.5480  -28.0170 C   0  0  0  0  0  0  0  0  0  0  0  0
    0.7205   23.9361  -28.6642 H   0  0  0  0  0  0  0  0  0  0  0  0
   -3.8740   22.7000  -30.0850 N   0  0  0  0  0  0  0  0  0  0  0  0
   -4.8600   23.3000  -30.7280 N   0  0  0  0  0  0  0  0  0  0  0  0
   -5.9850   22.6160  -31.3080 C   0  0  0  0  0  0  0  0  0  0  0  0
   -7.2840   23.0210  -30.9680 C   0  0  0  0  0  0  0  0  0  0  0  0
   -7.4346   23.8857  -30.3050 H   0  0  0  0  0  0  0  0  0  0  0  0
   -8.3840   22.3280  -31.4700 C   0  0  0  0  0  0  0  0  0  0  0  0
   -9.4017   22.6477  -31.2015 H   0  0  0  0  0  0  0  0  0  0  0  0
   -8.2050   21.2600  -32.2890 N   0  0  0  0  0  0  0  0  0  0  0  0
   -6.9660   20.8360  -32.6530 C   0  0  0  0  0  0  0  0  0  0  0  0
   -5.8170   21.5110  -32.1760 C   0  0  0  0  0  0  0  0  0  0  0  0
   -4.5550   21.0690  -32.6140 C   0  0  0  0  0  0  0  0  0  0  0  0
   -3.6448   21.5908  -32.2833 H   0  0  0  0  0  0  0  0  0  0  0  0
   -4.4570   19.9700  -33.4670 C   0  0  0  0  0  0  0  0  0  0  0  0
   -3.4710   19.6170  -33.8035 H   0  0  0  0  0  0  0  0  0  0  0  0
   -5.6170   19.3210  -33.8910 C   0  0  0  0  0  0  0  0  0  0  0  0
   -5.5443   18.4475  -34.5556 H   0  0  0  0  0  0  0  0  0  0  0  0
   -6.8370   19.7640  -33.4860 N   0  0  0  0  0  0  0  0  0  0  0  0
   -7.6920   19.2700  -33.8280 H   0  0  0  0  0  0  0  0  0  0  0  0
  1  2  1  0
  2  3  2  3
  3  4  1  0
  4  5  1  0
  5  6  2  0
  6  7  1  0
  7  8  2  0
  8  9  1  0
  8 10  1  0
 10 11  1  0
 10 12  2  0
 12 13  1  0
 13 14  2  0
 13 15  1  0
 15 16  1  0
 16 17  1  0
 16 18  1  0
 16 19  1  0
 15 20  1  0
 20 21  1  0
 20 22  1  0
 20 23  1  0
 23 24  1  0
 23 25  1  0
 23 26  1  0
 26 27  1  0
 12 28  1  0
 28 29  1  0
 28 30  2  0
 30 31  1  0
  5 32  1  0
 32 33  1  0
 33 34  1  0
 34 35  2  0
 35 36  1  0
 35 37  1  0
 37 38  1  0
 37 39  2  0
 39 40  1  0
 40 41  2  0
 41 42  1  0
 42 43  1  0
 42 44  2  0
 44 45  1  0
 44 46  1  0
 46 47  1  0
 46 48  2  0
 48 49  1  0
 33  3  1  0
 41 34  1  0
 30  7  1  0
 48 40  1  0
M  CHG  3   4  -1  32  -1  48   1
M  END
>  <UniqueID>  (21) 
21

>  <SMILES>  (21) 
CN(CCO)C(=O)c1ccc(/N=c2/[n-]c(=N)n(-c3ccnc4[nH+]cccc34)[n-]2)cc1

>  <Energy>  (21) 
104.65417368109186

>  <Genealogy>  (21) 
CN(CCO)C(=O)c1ccc(N=c2[n-]c(=N)n(-c3ccnc4[nH+]cccc34)[n-]2)cc1 (protonated)
CN(CCO)C(=O)c1ccc(/N=c2/[n-]c(=N)n(-c3ccnc4[nH+]cccc34)[n-]2)cc1 (cis-trans isomerization)
CN(CCO)C(=O)c1ccc(/N=c2/[n-]c(=N)n(-c3ccnc4[nH+]cccc34)[n-]2)cc1 (3D coordinates assigned)
CN(CCO)C(=O)c1ccc(/N=c2/[n-]c(=N)n(-c3ccnc4[nH+]cccc34)[n-]2)cc1 (optimized conformer: 104.65417368109186 kcal/mol)

>  <smiles>  (21) 
CN(CCO)C(=O)c1ccc(N=c2[nH]c(=N)n(-c3ccnc4ncccc34)[nH]2)cc1

>  <score_type>  (21) 
oracle

>  <origin>  (21) 
adg

>  <m_score__min__energy>  (21) 
-11.32

>  <m_primary>  (21) 
energy

$$$$
21:0
     RDKit          3D

 34 34  0  0  0  0  0  0  0  0999 V2000
   -8.0050   18.6440  -31.7260 C   0  0  0  0  0  0  0  0  0  0  0  0
   -7.4840   19.8850  -32.4670 C   0  0  0  0  0  0  0  0  0  0  0  0
   -7.3460   21.0890  -31.6140 N   0  0  0  0  0  0  0  0  0  0  0  0
   -8.5990   21.4530  -30.9170 C   0  0  0  0  0  0  0  0  0  0  0  0
   -9.7650   21.5150  -31.9010 C   0  0  0  0  0  0  0  0  0  0  0  0
   -6.7110   22.2290  -32.3170 C   0  0  0  0  0  0  0  0  0  0  0  0
   -7.0320   23.5410  -31.5960 C   0  0  0  0  0  0  0  0  0  0  0  0
   -5.8610   24.0300  -30.8730 N   0  0  0  0  0  0  0  0  0  0  0  0
   -4.9990   24.9250  -31.3340 N   0  0  0  0  0  0  0  0  0  0  0  0
   -3.9940   25.0440  -30.4730 N   0  0  0  0  0  0  0  0  0  0  0  0
   -4.2020   24.2270  -29.4500 N   0  0  0  0  0  0  0  0  0  0  0  0
   -3.2600   23.9870  -28.3620 C   0  0  0  0  0  0  0  0  0  0  0  0
   -3.8620   24.4340  -27.0360 C   0  0  0  0  0  0  0  0  0  0  0  0
   -5.3510   23.5860  -29.7140 C   0  0  0  0  0  0  0  0  0  0  0  0
   -5.8580   22.6820  -28.9990 O   0  0  0  0  0  0  0  0  0  0  0  0
   -7.9357   18.8090  -30.6407 H   0  0  0  0  0  0  0  0  0  0  0  0
   -9.0543   18.4649  -32.0034 H   0  0  0  0  0  0  0  0  0  0  0  0
   -7.3980   17.7696  -32.0034 H   0  0  0  0  0  0  0  0  0  0  0  0
   -6.4964   19.6458  -32.8883 H   0  0  0  0  0  0  0  0  0  0  0  0
   -8.2293   20.1283  -33.2386 H   0  0  0  0  0  0  0  0  0  0  0  0
   -8.8162   20.6983  -30.1467 H   0  0  0  0  0  0  0  0  0  0  0  0
   -8.4723   22.4435  -30.4556 H   0  0  0  0  0  0  0  0  0  0  0  0
  -10.7124   21.5654  -31.3442 H   0  0  0  0  0  0  0  0  0  0  0  0
   -9.6636   22.4090  -32.5338 H   0  0  0  0  0  0  0  0  0  0  0  0
   -9.7590   20.6153  -32.5338 H   0  0  0  0  0  0  0  0  0  0  0  0
   -5.6210   22.0823  -32.3361 H   0  0  0  0  0  0  0  0  0  0  0  0
   -7.1016   22.2794  -33.3441 H   0  0  0  0  0  0  0  0  0  0  0  0
   -7.3405   24.2941  -32.3361 H   0  0  0  0  0  0  0  0  0  0  0  0
   -7.8436   23.3605  -30.8758 H   0  0  0  0  0  0  0  0  0  0  0  0
   -3.0287   22.9128  -28.3121 H   0  0  0  0  0  0  0  0  0  0  0  0
   -2.3408   24.5611  -28.5503 H   0  0  0  0  0  0  0  0  0  0  0  0
   -3.2821   24.0034  -26.2064 H   0  0  0  0  0  0  0  0  0  0  0  0
   -3.8339   25.5318  -26.9721 H   0  0  0  0  0  0  0  0  0  0  0  0
   -4.9047   24.0896  -26.9721 H   0  0  0  0  0  0  0  0  0  0  0  0
  1  2  1  0
  2  3  1  0
  3  4  1  0
  4  5  1  0
  3  6  1  0
  6  7  1  0
  7  8  1  0
  8  9  1  0
  9 10  2  0
 10 11  1  0
 11 12  1  0
 12 13  1  0
 11 14  1  0
 14 15  2  0
 14  8  1  0
  1 16  1  0
  1 17  1  0
  1 18  1  0
  2 19  1  0
  2 20  1  0
  4 21  1  0
  4 22  1  0
  5 23  1  0
  5 24  1  0
  5 25  1  0
  6 26  1  0
  6 27  1  0
  7 28  1  0
  7 29  1  0
 12 30  1  0
 12 31  1  0
 13 32  1  0
 13 33  1  0
 13 34  1  0
M  END
>  <UniqueID>  (22) 
22

>  <SMILES>  (22) 
CCN(CC)CCn1nnn(CC)c1=O

>  <Energy>  (22) 
68.81214083125222

>  <Genealogy>  (22) 
CCN(CC)CCn1nnn(CC)c1=O (3D coordinates assigned)
CCN(CC)CCn1nnn(CC)c1=O (optimized conformer: 68.81214083125222 kcal/mol)

>  <smiles>  (22) 
CCN(CC)CCn1nnn(CC)c1=O

>  <score_type>  (22) 
oracle

>  <origin>  (22) 
adg

>  <m_score__min__energy>  (22) 
-5.79

>  <m_primary>  (22) 
energy

$$$$
22:0
     RDKit          3D

 53 56  0  0  0  0  0  0  0  0999 V2000
   -6.4170   18.0710  -34.1690 C   0  0  0  0  0  0  0  0  0  0  0  0
   -6.1850   19.1700  -33.1790 C   0  0  0  0  0  0  0  0  0  0  0  0
   -4.9600   19.4220  -32.6440 N   0  0  0  0  0  0  0  0  0  0  0  0
   -5.1950   20.4660  -31.8280 C   0  0  0  0  0  0  0  0  0  0  0  0
   -4.2750   21.1380  -31.0270 C   0  0  0  0  0  0  0  0  0  0  0  0
   -4.7350   22.2280  -30.2540 C   0  0  0  0  0  0  0  0  0  0  0  0
   -3.8270   22.9480  -29.3960 N   0  0  0  0  0  0  0  0  0  0  0  0
   -3.3730   22.3390  -28.2570 C   0  0  0  0  0  0  0  0  0  0  0  0
   -2.4740   22.9870  -27.4090 C   0  0  0  0  0  0  0  0  0  0  0  0
   -2.0190   24.2750  -27.7220 C   0  0  0  0  0  0  0  0  0  0  0  0
   -1.0390   24.9710  -26.8450 C   0  0  0  0  0  0  0  0  0  0  0  0
   -0.2950   24.2520  -25.8890 C   0  0  0  0  0  0  0  0  0  0  0  0
    0.6330   24.9040  -25.0730 C   0  0  0  0  0  0  0  0  0  0  0  0
    0.8440   26.2840  -25.2020 C   0  0  0  0  0  0  0  0  0  0  0  0
    1.8400   26.9860  -24.3070 C   0  0  0  0  0  0  0  0  0  0  0  0
    1.2740   27.2840  -22.9710 N   0  0  0  0  0  0  0  0  0  0  0  0
   -0.1930   27.1230  -22.9570 C   0  0  0  0  0  0  0  0  0  0  0  0
    1.6250   28.6580  -22.5740 C   0  0  0  0  0  0  0  0  0  0  0  0
    0.1040   27.0080  -26.1480 C   0  0  0  0  0  0  0  0  0  0  0  0
   -0.8310   26.3590  -26.9600 C   0  0  0  0  0  0  0  0  0  0  0  0
   -2.5030   24.8900  -28.8880 C   0  0  0  0  0  0  0  0  0  0  0  0
   -3.4120   24.2190  -29.7130 C   0  0  0  0  0  0  0  0  0  0  0  0
   -3.8490   24.8050  -30.7440 O   0  0  0  0  0  0  0  0  0  0  0  0
   -6.1070   22.5990  -30.3150 C   0  0  0  0  0  0  0  0  0  0  0  0
   -7.0100   21.8940  -31.1330 C   0  0  0  0  0  0  0  0  0  0  0  0
   -6.5100   20.8230  -31.8740 C   0  0  0  0  0  0  0  0  0  0  0  0
   -7.1580   20.0000  -32.7140 N   0  0  0  0  0  0  0  0  0  0  0  0
   -8.5700   20.0450  -33.0920 C   0  0  0  0  0  0  0  0  0  0  0  0
   -6.6155   17.1309  -33.6334 H   0  0  0  0  0  0  0  0  0  0  0  0
   -7.2818   18.3228  -34.8005 H   0  0  0  0  0  0  0  0  0  0  0  0
   -5.5242   17.9518  -34.8005 H   0  0  0  0  0  0  0  0  0  0  0  0
   -3.2197   20.8290  -30.9969 H   0  0  0  0  0  0  0  0  0  0  0  0
   -3.7213   21.3260  -28.0071 H   0  0  0  0  0  0  0  0  0  0  0  0
   -2.1224   22.4867  -26.4946 H   0  0  0  0  0  0  0  0  0  0  0  0
   -0.4460   23.1675  -25.7840 H   0  0  0  0  0  0  0  0  0  0  0  0
    1.2012   24.3314  -24.3252 H   0  0  0  0  0  0  0  0  0  0  0  0
    2.7220   26.3405  -24.1828 H   0  0  0  0  0  0  0  0  0  0  0  0
    2.1086   27.9410  -24.7822 H   0  0  0  0  0  0  0  0  0  0  0  0
    1.6860   26.6310  -22.2640 H   0  0  0  0  0  0  0  0  0  0  0  0
   -0.5477   27.0841  -21.9165 H   0  0  0  0  0  0  0  0  0  0  0  0
   -0.6603   27.9752  -23.4720 H   0  0  0  0  0  0  0  0  0  0  0  0
   -0.4644   26.1897  -23.4720 H   0  0  0  0  0  0  0  0  0  0  0  0
    1.6432   28.7292  -21.4765 H   0  0  0  0  0  0  0  0  0  0  0  0
    2.6172   28.9133  -22.9745 H   0  0  0  0  0  0  0  0  0  0  0  0
    0.8768   29.3578  -22.9745 H   0  0  0  0  0  0  0  0  0  0  0  0
    0.2600   28.0919  -26.2517 H   0  0  0  0  0  0  0  0  0  0  0  0
   -1.4093   26.9378  -27.6952 H   0  0  0  0  0  0  0  0  0  0  0  0
   -2.1662   25.9029  -29.1536 H   0  0  0  0  0  0  0  0  0  0  0  0
   -6.4670   23.4479  -29.7151 H   0  0  0  0  0  0  0  0  0  0  0  0
   -8.0716   22.1774  -31.1860 H   0  0  0  0  0  0  0  0  0  0  0  0
   -9.1919   20.0648  -32.1849 H   0  0  0  0  0  0  0  0  0  0  0  0
   -8.7615   20.9497  -33.6877 H   0  0  0  0  0  0  0  0  0  0  0  0
   -8.8187   19.1543  -33.6877 H   0  0  0  0  0  0  0  0  0  0  0  0
  1  2  1  0
  2  3  2  0
  3  4  1  0
  4  5  2  0
  5  6  1  0
  6  7  1  0
  7  8  1  0
  8  9  2  0
  9 10  1  0
 10 11  1  0
 11 12  2  0
 12 13  1  0
 13 14  2  0
 14 15  1  0
 15 16  1  0
 16 17  1  0
 16 18  1  0
 14 19  1  0
 19 20  2  0
 10 21  2  0
 21 22  1  0
 22 23  2  0
  6 24  2  0
 24 25  1  0
 25 26  2  0
 26 27  1  0
 27 28  1  0
 27  2  1  0
 26  4  1  0
 22  7  1  0
 20 11  1  0
  1 29  1  0
  1 30  1  0
  1 31  1  0
  5 32  1  0
  8 33  1  0
  9 34  1  0
 12 35  1  0
 13 36  1  0
 15 37  1  0
 15 38  1  0
 16 39  1  0
 17 40  1  0
 17 41  1  0
 17 42  1  0
 18 43  1  0
 18 44  1  0
 18 45  1  0
 19 46  1  0
 20 47  1  0
 21 48  1  0
 24 49  1  0
 25 50  1  0
 28 51  1  0
 28 52  1  0
 28 53  1  0
M  CHG  1  16   1
M  END
>  <UniqueID>  (23) 
23

>  <SMILES>  (23) 
Cc1nc2cc(-n3ccc(-c4ccc(C[NH+](C)C)cc4)cc3=O)ccc2n1C

>  <Energy>  (23) 
107.20993565208767

>  <Genealogy>  (23) 
Cc1nc2cc(-n3ccc(-c4ccc(C[NH+](C)C)cc4)cc3=O)ccc2n1C (protonated)
Cc1nc2cc(-n3ccc(-c4ccc(C[NH+](C)C)cc4)cc3=O)ccc2n1C (3D coordinates assigned)
Cc1nc2cc(-n3ccc(-c4ccc(C[NH+](C)C)cc4)cc3=O)ccc2n1C (optimized conformer: 107.20993565208767 kcal/mol)

>  <smiles>  (23) 
Cc1nc2cc(-n3ccc(-c4ccc(CN(C)C)cc4)cc3=O)ccc2n1C

>  <score_type>  (23) 
oracle

>  <origin>  (23) 
adg

>  <m_score__min__energy>  (23) 
-8.7899999999999991

>  <m_primary>  (23) 
energy

$$$$
23:0
     RDKit          3D

 52 55  0  0  0  0  0  0  0  0999 V2000
   -0.4560   22.6730  -24.0710 C   0  0  0  0  0  0  0  0  0  0  0  0
    0.7870   23.7490  -24.8500 S   0  0  0  0  0  0  0  0  0  0  0  0
   -0.2900   24.2090  -26.2090 C   0  0  0  0  0  0  0  0  0  0  0  0
   -1.6160   24.5750  -25.9600 C   0  0  0  0  0  0  0  0  0  0  0  0
   -2.4560   24.9310  -27.0190 C   0  0  0  0  0  0  0  0  0  0  0  0
   -1.9790   24.9300  -28.3360 C   0  0  0  0  0  0  0  0  0  0  0  0
   -2.8570   25.2970  -29.3680 O   0  0  0  0  0  0  0  0  0  0  0  0
   -3.8500   24.4650  -29.8970 C   0  0  0  0  0  0  0  0  0  0  0  0
   -5.1680   24.9280  -29.9000 C   0  0  0  0  0  0  0  0  0  0  0  0
   -6.2010   24.1300  -30.3870 C   0  0  0  0  0  0  0  0  0  0  0  0
   -5.9320   22.8450  -30.8860 C   0  0  0  0  0  0  0  0  0  0  0  0
   -7.0300   21.9950  -31.4120 C   0  0  0  0  0  0  0  0  0  0  0  0
   -8.3750   22.3190  -31.1460 C   0  0  0  0  0  0  0  0  0  0  0  0
   -9.4070   21.5170  -31.6410 C   0  0  0  0  0  0  0  0  0  0  0  0
   -9.1110   20.3860  -32.4060 C   0  0  0  0  0  0  0  0  0  0  0  0
   -7.7810   20.0540  -32.6750 C   0  0  0  0  0  0  0  0  0  0  0  0
   -6.7440   20.8520  -32.1820 C   0  0  0  0  0  0  0  0  0  0  0  0
   -4.6050   22.3840  -30.8960 C   0  0  0  0  0  0  0  0  0  0  0  0
   -3.5470   23.1920  -30.4330 C   0  0  0  0  0  0  0  0  0  0  0  0
   -2.1730   22.7570  -30.5420 N   0  0  0  0  0  0  0  0  0  0  0  0
   -1.7460   21.3580  -30.5990 C   0  0  0  0  0  0  0  0  0  0  0  0
   -1.6900   20.7570  -29.2180 C   0  0  0  0  0  0  0  0  0  0  0  0
   -0.4960   20.1870  -28.7480 C   0  0  0  0  0  0  0  0  0  0  0  0
   -0.4590   19.6280  -27.4690 C   0  0  0  0  0  0  0  0  0  0  0  0
   -1.6020   19.6480  -26.6710 C   0  0  0  0  0  0  0  0  0  0  0  0
   -2.7700   20.2340  -27.1620 C   0  0  0  0  0  0  0  0  0  0  0  0
   -2.7910   20.7780  -28.4110 N   0  0  0  0  0  0  0  0  0  0  0  0
   -0.6460   24.5470  -28.5830 C   0  0  0  0  0  0  0  0  0  0  0  0
    0.1930   24.1910  -27.5220 C   0  0  0  0  0  0  0  0  0  0  0  0
   -0.3708   22.7468  -22.9768 H   0  0  0  0  0  0  0  0  0  0  0  0
   -1.4622   22.9899  -24.3826 H   0  0  0  0  0  0  0  0  0  0  0  0
   -0.2866   21.6317  -24.3826 H   0  0  0  0  0  0  0  0  0  0  0  0
   -1.9990   24.5829  -24.9289 H   0  0  0  0  0  0  0  0  0  0  0  0
   -3.4995   25.2141  -26.8166 H   0  0  0  0  0  0  0  0  0  0  0  0
   -5.3926   25.9332  -29.5138 H   0  0  0  0  0  0  0  0  0  0  0  0
   -7.2337   24.5087  -30.3806 H   0  0  0  0  0  0  0  0  0  0  0  0
   -8.6144   23.2087  -30.5450 H   0  0  0  0  0  0  0  0  0  0  0  0
  -10.4544   21.7768  -31.4279 H   0  0  0  0  0  0  0  0  0  0  0  0
   -9.9248   19.7573  -32.7963 H   0  0  0  0  0  0  0  0  0  0  0  0
   -7.5489   19.1625  -33.2762 H   0  0  0  0  0  0  0  0  0  0  0  0
   -5.6988   20.5850  -32.3971 H   0  0  0  0  0  0  0  0  0  0  0  0
   -4.3876   21.3735  -31.2722 H   0  0  0  0  0  0  0  0  0  0  0  0
   -1.4190   23.4710  -30.6430 H   0  0  0  0  0  0  0  0  0  0  0  0
   -2.4602   20.7880  -31.2113 H   0  0  0  0  0  0  0  0  0  0  0  0
   -0.7403   21.3149  -31.0425 H   0  0  0  0  0  0  0  0  0  0  0  0
    0.4028   20.1809  -29.3821 H   0  0  0  0  0  0  0  0  0  0  0  0
    0.4691   19.1733  -27.0922 H   0  0  0  0  0  0  0  0  0  0  0  0
   -1.5836   19.2061  -25.6638 H   0  0  0  0  0  0  0  0  0  0  0  0
   -3.6761   20.2566  -26.5387 H   0  0  0  0  0  0  0  0  0  0  0  0
   -3.6800   21.2140  -28.7460 H   0  0  0  0  0  0  0  0  0  0  0  0
   -0.2635   24.5278  -29.6142 H   0  0  0  0  0  0  0  0  0  0  0  0
    1.2341   23.8964  -27.7202 H   0  0  0  0  0  0  0  0  0  0  0  0
  1  2  1  0
  2  3  1  0
  3  4  2  0
  4  5  1  0
  5  6  2  0
  6  7  1  0
  7  8  1  0
  8  9  2  0
  9 10  1  0
 10 11  2  0
 11 12  1  0
 12 13  2  0
 13 14  1  0
 14 15  2  0
 15 16  1  0
 16 17  2  0
 11 18  1  0
 18 19  2  0
 19 20  1  0
 20 21  1  0
 21 22  1  0
 22 23  2  0
 23 24  1  0
 24 25  2  0
 25 26  1  0
 26 27  2  0
  6 28  1  0
 28 29  2  0
 29  3  1  0
 19  8  1  0
 27 22  1  0
 17 12  1  0
  1 30  1  0
  1 31  1  0
  1 32  1  0
  4 33  1  0
  5 34  1  0
  9 35  1  0
 10 36  1  0
 13 37  1  0
 14 38  1  0
 15 39  1  0
 16 40  1  0
 17 41  1  0
 18 42  1  0
 20 43  1  0
 21 44  1  0
 21 45  1  0
 23 46  1  0
 24 47  1  0
 25 48  1  0
 26 49  1  0
 27 50  1  0
 28 51  1  0
 29 52  1  0
M  CHG  1  27   1
M  END
>  <UniqueID>  (24) 
24

>  <SMILES>  (24) 
CSc1ccc(Oc2ccc(-c3ccccc3)cc2NCc2cccc[nH+]2)cc1

>  <Energy>  (24) 
65.01086085324586

>  <Genealogy>  (24) 
CSc1ccc(Oc2ccc(-c3ccccc3)cc2NCc2cccc[nH+]2)cc1 (protonated)
CSc1ccc(Oc2ccc(-c3ccccc3)cc2NCc2cccc[nH+]2)cc1 (3D coordinates assigned)
CSc1ccc(Oc2ccc(-c3ccccc3)cc2NCc2cccc[nH+]2)cc1 (optimized conformer: 65.01086085324586 kcal/mol)

>  <smiles>  (24) 
CSc1ccc(Oc2ccc(-c3ccccc3)cc2NCc2ccccn2)cc1

>  <score_type>  (24) 
oracle

>  <origin>  (24) 
adg

>  <m_score__min__energy>  (24) 
-8.9100000000000001

>  <m_primary>  (24) 
energy

$$$$
24:0
     RDKit          3D

 72 75  0  0  0  0  0  0  0  0999 V2000
   -0.7300   18.3240  -32.0010 C   0  0  0  0  0  0  0  0  0  0  0  0
   -0.6480   19.7360  -31.5610 N   0  0  2  0  0  0  0  0  0  0  0  0
   -0.5630   20.5150  -32.6810 O   0  0  0  0  0  0  0  0  0  0  0  0
    0.5690   19.9340  -30.7130 C   0  0  0  0  0  0  0  0  0  0  0  0
    0.6630   18.9690  -29.5040 C   0  0  0  0  0  0  0  0  0  0  0  0
    0.3430   19.6550  -28.1640 C   0  0  0  0  0  0  0  0  0  0  0  0
   -1.0230   19.2890  -27.5420 C   0  0  0  0  0  0  0  0  0  0  0  0
   -1.6010   20.3260  -26.5610 C   0  0  0  0  0  0  0  0  0  0  0  0
   -1.9920   21.7120  -27.1510 C   0  0  0  0  0  0  0  0  0  0  0  0
   -1.1730   22.9080  -26.7350 N   0  0  0  0  0  0  0  0  0  0  0  0
   -0.5140   22.7080  -25.4210 C   0  0  0  0  0  0  0  0  0  0  0  0
   -1.9740   24.1550  -26.7400 C   0  0  0  0  0  0  0  0  0  0  0  0
   -1.9560   24.7150  -28.1590 C   0  0  0  0  0  0  0  0  0  0  0  0
   -0.8050   24.0130  -28.8560 C   0  0  0  0  0  0  0  0  0  0  0  0
   -0.1430   23.1790  -27.7690 C   0  0  0  0  0  0  0  0  0  0  0  0
   -1.8590   20.1210  -30.7710 C   0  0  0  0  0  0  0  0  0  0  0  0
   -2.1530   21.6390  -30.6560 C   0  0  0  0  0  0  0  0  0  0  0  0
   -2.7700   22.2940  -31.9150 C   0  0  0  0  0  0  0  0  0  0  0  0
   -4.1410   21.8190  -32.1690 N   0  0  0  0  0  0  0  0  0  0  0  0
   -5.2690   22.6860  -31.9320 C   0  0  0  0  0  0  0  0  0  0  0  0
   -5.0880   23.9130  -31.6990 O   0  0  0  0  0  0  0  0  0  0  0  0
   -6.6420   22.1330  -31.9630 C   0  0  0  0  0  0  0  0  0  0  0  0
   -7.7430   22.9290  -31.6040 C   0  0  0  0  0  0  0  0  0  0  0  0
   -9.0340   22.3970  -31.6110 C   0  0  0  0  0  0  0  0  0  0  0  0
   -9.2460   21.0670  -31.9730 C   0  0  0  0  0  0  0  0  0  0  0  0
   -8.1640   20.2550  -32.3420 C   0  0  0  0  0  0  0  0  0  0  0  0
   -8.3780   18.9210  -32.7150 C   0  0  0  0  0  0  0  0  0  0  0  0
   -7.3010   18.1170  -33.0930 C   0  0  0  0  0  0  0  0  0  0  0  0
   -6.0050   18.6360  -33.1050 C   0  0  0  0  0  0  0  0  0  0  0  0
   -5.7660   19.9690  -32.7300 C   0  0  0  0  0  0  0  0  0  0  0  0
   -6.8500   20.7870  -32.3410 C   0  0  0  0  0  0  0  0  0  0  0  0
   -4.3920   20.5180  -32.7350 C   0  0  0  0  0  0  0  0  0  0  0  0
   -3.4500   19.8530  -33.2470 O   0  0  0  0  0  0  0  0  0  0  0  0
   -0.7682   17.6669  -31.1196 H   0  0  0  0  0  0  0  0  0  0  0  0
   -1.6380   18.1803  -32.6051 H   0  0  0  0  0  0  0  0  0  0  0  0
    0.1553   18.0762  -32.6051 H   0  0  0  0  0  0  0  0  0  0  0  0
   -1.3800   20.3600  -33.2290 H   0  0  0  0  0  0  0  0  0  0  0  0
    0.5597   20.9656  -30.3314 H   0  0  0  0  0  0  0  0  0  0  0  0
    1.4386   19.7250  -31.3534 H   0  0  0  0  0  0  0  0  0  0  0  0
    1.6849   18.5648  -29.4562 H   0  0  0  0  0  0  0  0  0  0  0  0
   -0.0841   18.1760  -29.6556 H   0  0  0  0  0  0  0  0  0  0  0  0
    0.3613   20.7428  -28.3267 H   0  0  0  0  0  0  0  0  0  0  0  0
    1.1043   19.3015  -27.4530 H   0  0  0  0  0  0  0  0  0  0  0  0
   -0.9058   18.3384  -27.0010 H   0  0  0  0  0  0  0  0  0  0  0  0
   -1.7333   19.2358  -28.3802 H   0  0  0  0  0  0  0  0  0  0  0  0
   -0.8479   20.4986  -25.7781 H   0  0  0  0  0  0  0  0  0  0  0  0
   -2.5457   19.8889  -26.2055 H   0  0  0  0  0  0  0  0  0  0  0  0
   -3.0342   21.9105  -26.8603 H   0  0  0  0  0  0  0  0  0  0  0  0
   -1.8120   21.6145  -28.2318 H   0  0  0  0  0  0  0  0  0  0  0  0
   -1.2301   22.9253  -24.6148 H   0  0  0  0  0  0  0  0  0  0  0  0
   -0.1725   21.6657  -25.3369 H   0  0  0  0  0  0  0  0  0  0  0  0
    0.3492   23.3846  -25.3369 H   0  0  0  0  0  0  0  0  0  0  0  0
   -3.0086   23.9364  -26.4371 H   0  0  0  0  0  0  0  0  0  0  0  0
   -1.5527   24.8852  -26.0333 H   0  0  0  0  0  0  0  0  0  0  0  0
   -2.9054   24.4977  -28.6703 H   0  0  0  0  0  0  0  0  0  0  0  0
   -1.8321   25.8080  -28.1654 H   0  0  0  0  0  0  0  0  0  0  0  0
   -1.1775   23.3686  -29.6660 H   0  0  0  0  0  0  0  0  0  0  0  0
   -0.1044   24.7236  -29.3188 H   0  0  0  0  0  0  0  0  0  0  0  0
    0.2248   22.2324  -28.1917 H   0  0  0  0  0  0  0  0  0  0  0  0
    0.7149   23.7134  -27.3349 H   0  0  0  0  0  0  0  0  0  0  0  0
   -2.7316   19.6459  -31.2431 H   0  0  0  0  0  0  0  0  0  0  0  0
   -1.6571   19.7838  -29.7436 H   0  0  0  0  0  0  0  0  0  0  0  0
   -2.8521   21.7866  -29.8197 H   0  0  0  0  0  0  0  0  0  0  0  0
   -1.1776   22.1258  -30.5088 H   0  0  0  0  0  0  0  0  0  0  0  0
   -2.7927   23.3846  -31.7729 H   0  0  0  0  0  0  0  0  0  0  0  0
   -2.1493   22.0180  -32.7802 H   0  0  0  0  0  0  0  0  0  0  0  0
   -7.5867   23.9789  -31.3154 H   0  0  0  0  0  0  0  0  0  0  0  0
   -9.8883   23.0303  -31.3295 H   0  0  0  0  0  0  0  0  0  0  0  0
  -10.2653   20.6536  -31.9690 H   0  0  0  0  0  0  0  0  0  0  0  0
   -9.3969   18.5065  -32.7099 H   0  0  0  0  0  0  0  0  0  0  0  0
   -7.4743   17.0701  -33.3826 H   0  0  0  0  0  0  0  0  0  0  0  0
   -5.1640   17.9962  -33.4105 H   0  0  0  0  0  0  0  0  0  0  0  0
  1  2  1  0
  2  3  1  6
  2  4  1  0
  4  5  1  0
  5  6  1  0
  6  7  1  0
  7  8  1  0
  8  9  1  0
  9 10  1  0
 10 11  1  0
 10 12  1  0
 12 13  1  0
 13 14  1  0
 14 15  1  0
  2 16  1  0
 16 17  1  0
 17 18  1  0
 18 19  1  0
 19 20  1  0
 20 21  2  0
 20 22  1  0
 22 23  2  0
 23 24  1  0
 24 25  2  0
 25 26  1  0
 26 27  2  0
 27 28  1  0
 28 29  2  0
 29 30  1  0
 30 31  2  0
 30 32  1  0
 32 33  2  0
 15 10  1  0
 32 19  1  0
 31 22  1  0
 31 26  1  0
  1 34  1  0
  1 35  1  0
  1 36  1  0
  3 37  1  0
  4 38  1  0
  4 39  1  0
  5 40  1  0
  5 41  1  0
  6 42  1  0
  6 43  1  0
  7 44  1  0
  7 45  1  0
  8 46  1  0
  8 47  1  0
  9 48  1  0
  9 49  1  0
 11 50  1  0
 11 51  1  0
 11 52  1  0
 12 53  1  0
 12 54  1  0
 13 55  1  0
 13 56  1  0
 14 57  1  0
 14 58  1  0
 15 59  1  0
 15 60  1  0
 16 61  1  0
 16 62  1  0
 17 63  1  0
 17 64  1  0
 18 65  1  0
 18 66  1  0
 23 67  1  0
 24 68  1  0
 25 69  1  0
 27 70  1  0
 28 71  1  0
 29 72  1  0
M  CHG  2   2   1  10   1
M  END
>  <UniqueID>  (25) 
25

>  <SMILES>  (25) 
C[N+]1(CCCCCC[N@+](C)(O)CCCN2C(=O)c3cccc4cccc(c34)C2=O)CCCC1

>  <Energy>  (25) 
103.94373056859237

>  <Genealogy>  (25) 
C[N+](O)(CCCCCC[N+]1(C)CCCC1)CCCN1C(=O)c2cccc3cccc(c23)C1=O (protonated)
C[N+]1(CCCCCC[N@+](C)(O)CCCN2C(=O)c3cccc4cccc(c34)C2=O)CCCC1 (chirality)
C[N+]1(CCCCCC[N@+](C)(O)CCCN2C(=O)c3cccc4cccc(c34)C2=O)CCCC1 (3D coordinates assigned)
C[N+]1(CCCCCC[N@+](C)(O)CCCN2C(=O)c3cccc4cccc(c34)C2=O)CCCC1 (nonaromatic ring conformer: 103.94373056859237 kcal/mol)

>  <smiles>  (25) 
C[N+]([O-])(CCCCCC[N+]1(C)CCCC1)CCCN1C(=O)c2cccc3cccc(c23)C1=O

>  <score_type>  (25) 
oracle

>  <origin>  (25) 
adg

>  <m_score__min__energy>  (25) 
-9.1500000000000004

>  <m_primary>  (25) 
energy

$$$$
25:0
     RDKit          3D

 31 33  0  0  0  0  0  0  0  0999 V2000
   -4.9100   20.8430  -32.7410 O   0  0  0  0  0  0  0  0  0  0  0  0
   -5.7660   21.5450  -32.1390 C   0  0  0  0  0  0  0  0  0  0  0  0
   -5.3100   22.7550  -31.4330 C   0  0  0  0  0  0  0  0  0  0  0  0
   -4.1730   22.8050  -30.6300 C   0  0  0  0  0  0  0  0  0  0  0  0
   -4.0260   24.3760  -30.0540 S   0  0  0  0  0  0  0  0  0  0  0  0
   -5.3940   24.9300  -30.8530 C   0  0  0  0  0  0  0  0  0  0  0  0
   -5.9720   23.9370  -31.5620 N   0  0  0  0  0  0  0  0  0  0  0  0
   -7.1570   21.1640  -32.1920 N   0  0  0  0  0  0  0  0  0  0  0  0
   -8.1650   21.8220  -31.3790 C   0  0  0  0  0  0  0  0  0  0  0  0
   -9.4900   21.1800  -31.7650 C   0  0  0  0  0  0  0  0  0  0  0  0
   -9.1270   19.8480  -32.4130 C   0  0  0  0  0  0  0  0  0  0  0  0
   -7.6940   20.0180  -32.9210 C   0  0  2  0  0  0  0  0  0  0  0  0
   -6.8730   18.7730  -32.6840 C   0  0  0  0  0  0  0  0  0  0  0  0
   -6.8490   18.1540  -31.4260 C   0  0  0  0  0  0  0  0  0  0  0  0
   -6.1090   17.0270  -31.2460 N   0  0  0  0  0  0  0  0  0  0  0  0
   -5.3860   16.4930  -32.2650 C   0  0  0  0  0  0  0  0  0  0  0  0
   -5.3990   17.1120  -33.5160 C   0  0  0  0  0  0  0  0  0  0  0  0
   -6.1400   18.2350  -33.6970 N   0  0  0  0  0  0  0  0  0  0  0  0
   -3.4942   21.9672  -30.4124 H   0  0  0  0  0  0  0  0  0  0  0  0
   -5.7691   25.9630  -30.8054 H   0  0  0  0  0  0  0  0  0  0  0  0
   -7.9590   21.6633  -30.3102 H   0  0  0  0  0  0  0  0  0  0  0  0
   -8.1764   22.9089  -31.5479 H   0  0  0  0  0  0  0  0  0  0  0  0
  -10.1116   21.0160  -30.8724 H   0  0  0  0  0  0  0  0  0  0  0  0
  -10.0690   21.8200  -32.4470 H   0  0  0  0  0  0  0  0  0  0  0  0
   -9.1792   19.0343  -31.6746 H   0  0  0  0  0  0  0  0  0  0  0  0
   -9.8202   19.5874  -33.2264 H   0  0  0  0  0  0  0  0  0  0  0  0
   -7.6661   20.1841  -34.0080 H   0  0  0  0  0  0  0  0  0  0  0  0
   -7.4250   18.5772  -30.5899 H   0  0  0  0  0  0  0  0  0  0  0  0
   -6.0980   16.5640  -30.3100 H   0  0  0  0  0  0  0  0  0  0  0  0
   -4.7946   15.5794  -32.1052 H   0  0  0  0  0  0  0  0  0  0  0  0
   -4.8138   16.6934  -34.3481 H   0  0  0  0  0  0  0  0  0  0  0  0
  1  2  2  0
  2  3  1  0
  3  4  2  0
  4  5  1  0
  5  6  1  0
  6  7  2  0
  2  8  1  0
  8  9  1  0
  9 10  1  0
 10 11  1  0
 11 12  1  0
 12 13  1  0
 13 14  2  0
 14 15  1  0
 15 16  2  0
 16 17  1  0
 17 18  2  0
  7  3  1  0
 12  8  1  0
 18 13  1  0
  4 19  1  0
  6 20  1  0
  9 21  1  0
  9 22  1  0
 10 23  1  0
 10 24  1  0
 11 25  1  0
 11 26  1  0
 12 27  1  6
 14 28  1  0
 15 29  1  0
 16 30  1  0
 17 31  1  0
M  CHG  1  15   1
M  END
>  <UniqueID>  (26) 
26

>  <SMILES>  (26) 
O=C(c1cscn1)N1CCC[C@@H]1c1c[nH+]ccn1

>  <Energy>  (26) 
65.87162510696452

>  <Genealogy>  (26) 
O=C(c1cscn1)N1CCCC1c1c[nH+]ccn1 (protonated)
O=C(c1cscn1)N1CCC[C@@H]1c1c[nH+]ccn1 (chirality)
O=C(c1cscn1)N1CCC[C@@H]1c1c[nH+]ccn1 (3D coordinates assigned)
O=C(c1cscn1)N1CCC[C@@H]1c1c[nH+]ccn1 (nonaromatic ring conformer: 65.87162510696452 kcal/mol)

>  <smiles>  (26) 
O=C(c1cscn1)N1CCCC1c1cnccn1

>  <score_type>  (26) 
oracle

>  <origin>  (26) 
adg

>  <m_score__min__energy>  (26) 
-6.7599999999999998

>  <m_primary>  (26) 
energy

$$$$
26:0
     RDKit          3D

 45 47  0  0  0  0  0  0  0  0999 V2000
   -6.1320   24.6070  -31.2080 C   0  0  0  0  0  0  0  0  0  0  0  0
   -5.3000   25.6710  -30.5040 C   0  0  0  0  0  0  0  0  0  0  0  0
   -3.8750   25.2890  -30.5300 N   0  0  0  0  0  0  0  0  0  0  0  0
   -3.5020   24.0500  -29.8030 C   0  0  0  0  0  0  0  0  0  0  0  0
   -3.6180   22.9080  -30.8130 C   0  0  0  0  0  0  0  0  0  0  0  0
   -3.0970   22.9990  -31.9600 O   0  0  0  0  0  0  0  0  0  0  0  0
   -4.2970   21.6960  -30.4410 N   0  0  0  0  0  0  0  0  0  0  0  0
   -4.8030   20.7400  -31.3880 C   0  0  0  0  0  0  0  0  0  0  0  0
   -6.1880   20.6390  -31.5880 C   0  0  0  0  0  0  0  0  0  0  0  0
   -6.7100   19.7360  -32.5180 C   0  0  0  0  0  0  0  0  0  0  0  0
   -5.8470   18.9310  -33.2730 C   0  0  0  0  0  0  0  0  0  0  0  0
   -6.3400   18.0180  -34.2160 C   0  0  0  0  0  0  0  0  0  0  0  0
   -5.4500   17.2390  -34.9590 C   0  0  0  0  0  0  0  0  0  0  0  0
   -4.0750   17.3810  -34.7540 C   0  0  0  0  0  0  0  0  0  0  0  0
   -3.6090   18.2710  -33.8360 N   0  0  0  0  0  0  0  0  0  0  0  0
   -4.4510   19.0410  -33.0950 C   0  0  0  0  0  0  0  0  0  0  0  0
   -3.9350   19.9460  -32.1610 C   0  0  0  0  0  0  0  0  0  0  0  0
   -2.0160   24.0980  -29.3320 C   0  0  0  0  0  0  0  0  0  0  0  0
   -1.5780   22.7970  -28.6260 C   0  0  0  0  0  0  0  0  0  0  0  0
   -2.6950   22.1500  -27.7810 C   0  0  0  0  0  0  0  0  0  0  0  0
   -3.7640   23.1610  -27.3570 C   0  0  0  0  0  0  0  0  0  0  0  0
   -4.4520   23.8260  -28.5660 C   0  0  0  0  0  0  0  0  0  0  0  0
   -6.6276   23.9733  -30.4578 H   0  0  0  0  0  0  0  0  0  0  0  0
   -6.8922   25.0929  -31.8373 H   0  0  0  0  0  0  0  0  0  0  0  0
   -5.4771   23.9864  -31.8373 H   0  0  0  0  0  0  0  0  0  0  0  0
   -5.4292   26.6349  -31.0180 H   0  0  0  0  0  0  0  0  0  0  0  0
   -5.6332   25.7605  -29.4595 H   0  0  0  0  0  0  0  0  0  0  0  0
   -3.5720   25.1940  -31.5290 H   0  0  0  0  0  0  0  0  0  0  0  0
   -4.3890   21.4760  -29.4230 H   0  0  0  0  0  0  0  0  0  0  0  0
   -6.8699   21.2771  -31.0068 H   0  0  0  0  0  0  0  0  0  0  0  0
   -7.7983   19.6573  -32.6573 H   0  0  0  0  0  0  0  0  0  0  0  0
   -7.4243   17.9155  -34.3702 H   0  0  0  0  0  0  0  0  0  0  0  0
   -5.8285   16.5193  -35.6998 H   0  0  0  0  0  0  0  0  0  0  0  0
   -3.3677   16.7720  -35.3360 H   0  0  0  0  0  0  0  0  0  0  0  0
   -2.8466   20.0374  -32.0302 H   0  0  0  0  0  0  0  0  0  0  0  0
   -1.3725   24.2569  -30.2099 H   0  0  0  0  0  0  0  0  0  0  0  0
   -1.9212   24.9201  -28.6073 H   0  0  0  0  0  0  0  0  0  0  0  0
   -1.2587   22.0754  -29.3924 H   0  0  0  0  0  0  0  0  0  0  0  0
   -0.7625   23.0614  -27.9368 H   0  0  0  0  0  0  0  0  0  0  0  0
   -3.1737   21.3575  -28.3750 H   0  0  0  0  0  0  0  0  0  0  0  0
   -2.2340   21.7455  -26.8678 H   0  0  0  0  0  0  0  0  0  0  0  0
   -4.5260   22.6402  -26.7586 H   0  0  0  0  0  0  0  0  0  0  0  0
   -3.2678   23.9516  -26.7750 H   0  0  0  0  0  0  0  0  0  0  0  0
   -5.2877   23.1851  -28.8837 H   0  0  0  0  0  0  0  0  0  0  0  0
   -4.7825   24.8216  -28.2351 H   0  0  0  0  0  0  0  0  0  0  0  0
  1  2  1  0
  2  3  1  0
  3  4  1  0
  4  5  1  0
  5  6  2  0
  5  7  1  0
  7  8  1  0
  8  9  2  0
  9 10  1  0
 10 11  2  0
 11 12  1  0
 12 13  2  0
 13 14  1  0
 14 15  2  0
 15 16  1  0
 16 17  2  0
  4 18  1  0
 18 19  1  0
 19 20  1  0
 20 21  1  0
 21 22  1  0
 22  4  1  0
 17  8  1  0
 16 11  1  0
  1 23  1  0
  1 24  1  0
  1 25  1  0
  2 26  1  0
  2 27  1  0
  3 28  1  0
  7 29  1  0
  9 30  1  0
 10 31  1  0
 12 32  1  0
 13 33  1  0
 14 34  1  0
 17 35  1  0
 18 36  1  0
 18 37  1  0
 19 38  1  0
 19 39  1  0
 20 40  1  0
 20 41  1  0
 21 42  1  0
 21 43  1  0
 22 44  1  0
 22 45  1  0
M  END
>  <UniqueID>  (27) 
27

>  <SMILES>  (27) 
CCNC1(C(=O)Nc2ccc3cccnc3c2)CCCCC1

>  <Energy>  (27) 
62.14669668848305

>  <Genealogy>  (27) 
CCNC1(C(=O)Nc2ccc3cccnc3c2)CCCCC1 (3D coordinates assigned)
CCNC1(C(=O)Nc2ccc3cccnc3c2)CCCCC1 (nonaromatic ring conformer: 62.14669668848305 kcal/mol)

>  <smiles>  (27) 
CCNC1(C(=O)Nc2ccc3cccnc3c2)CCCCC1

>  <score_type>  (27) 
oracle

>  <origin>  (27) 
adg

>  <m_score__min__energy>  (27) 
-8.2300000000000004

>  <m_primary>  (27) 
energy

$$$$
27:0
     RDKit          3D

 28 29  0  0  0  0  0  0  0  0999 V2000
   -8.1962   17.2767  -32.1374 H   0  0  0  0  0  0  0  0  0  0  0  0
   -7.9600   18.3450  -32.2510 C   0  0  0  0  0  0  0  0  0  0  0  0
   -8.7140   19.6160  -31.4480 S   0  0  0  0  0  0  0  0  0  0  0  0
   -7.7660   20.7920  -32.2020 C   0  0  0  0  0  0  0  0  0  0  0  0
   -7.8070   22.0730  -31.9810 N   0  0  0  0  0  0  0  0  0  0  0  0
   -6.7430   22.8860  -31.4630 C   0  0  0  0  0  0  0  0  0  0  0  0
   -6.9900   24.1430  -30.8840 C   0  0  0  0  0  0  0  0  0  0  0  0
   -8.0229   24.5095  -30.7902 H   0  0  0  0  0  0  0  0  0  0  0  0
   -5.9280   24.9290  -30.4270 C   0  0  0  0  0  0  0  0  0  0  0  0
   -6.1290   25.9102  -29.9723 H   0  0  0  0  0  0  0  0  0  0  0  0
   -4.6050   24.4710  -30.5460 C   0  0  0  0  0  0  0  0  0  0  0  0
   -3.4910   25.2650  -30.1150 N   0  0  0  0  0  0  0  0  0  0  0  0
   -2.5350   24.9210  -29.1020 C   0  0  0  0  0  0  0  0  0  0  0  0
   -1.5180   25.6480  -28.9530 O   0  0  0  0  0  0  0  0  0  0  0  0
   -2.6860   23.7020  -28.2450 C   0  0  0  0  0  0  0  0  0  0  0  0
   -2.6500   23.9925  -27.1847 H   0  0  0  0  0  0  0  0  0  0  0  0
   -3.6508   23.2195  -28.4605 H   0  0  0  0  0  0  0  0  0  0  0  0
   -1.8681   22.9987  -28.4605 H   0  0  0  0  0  0  0  0  0  0  0  0
   -4.3590   23.2480  -31.1820 C   0  0  0  0  0  0  0  0  0  0  0  0
   -3.3239   22.9038  -31.3236 H   0  0  0  0  0  0  0  0  0  0  0  0
   -5.4210   22.4620  -31.6380 C   0  0  0  0  0  0  0  0  0  0  0  0
   -5.2162   21.5037  -32.1378 H   0  0  0  0  0  0  0  0  0  0  0  0
   -6.8680   20.2390  -33.0440 N   0  0  0  0  0  0  0  0  0  0  0  0
   -6.9840   18.8840  -33.0850 C   0  0  0  0  0  0  0  0  0  0  0  0
   -6.0730   18.0410  -33.9170 C   0  0  0  0  0  0  0  0  0  0  0  0
   -5.4256   17.4419  -33.2597 H   0  0  0  0  0  0  0  0  0  0  0  0
   -6.6714   17.3710  -34.5519 H   0  0  0  0  0  0  0  0  0  0  0  0
   -5.4514   18.6894  -34.5519 H   0  0  0  0  0  0  0  0  0  0  0  0
  1  2  1  0
  2  3  1  0
  3  4  1  0
  4  5  2  0
  5  6  1  0
  6  7  2  0
  7  8  1  0
  7  9  1  0
  9 10  1  0
  9 11  2  0
 11 12  1  0
 12 13  1  0
 13 14  2  0
 13 15  1  0
 15 16  1  0
 15 17  1  0
 15 18  1  0
 11 19  1  0
 19 20  1  0
 19 21  2  0
 21 22  1  0
  4 23  1  0
 23 24  1  0
 24 25  1  0
 25 26  1  0
 25 27  1  0
 25 28  1  0
 24  2  2  0
 21  6  1  0
M  CHG  2  12  -1  23  -1
M  END
>  <UniqueID>  (28) 
28

>  <SMILES>  (28) 
CC(=O)[N-]c1ccc(/N=c2/[n-]c(C)cs2)cc1

>  <Energy>  (28) 
67.12944063386342

>  <Genealogy>  (28) 
CC(=O)[N-]c1ccc(N=c2[n-]c(C)cs2)cc1 (protonated)
CC(=O)[N-]c1ccc(/N=c2/[n-]c(C)cs2)cc1 (cis-trans isomerization)
CC(=O)[N-]c1ccc(/N=c2/[n-]c(C)cs2)cc1 (3D coordinates assigned)
CC(=O)[N-]c1ccc(/N=c2/[n-]c(C)cs2)cc1 (optimized conformer: 67.12944063386342 kcal/mol)

>  <smiles>  (28) 
CC(=O)Nc1ccc(N=c2[nH]c(C)cs2)cc1

>  <score_type>  (28) 
oracle

>  <origin>  (28) 
adg

>  <m_score__min__energy>  (28) 
-8.9399999999999995

>  <m_primary>  (28) 
energy

$$$$
28:0
     RDKit          3D

 41 45  0  0  0  0  0  0  0  0999 V2000
   -4.2010   24.1740  -27.8630 C   0  0  0  0  0  0  0  0  0  0  0  0
   -4.2920   23.5440  -29.2210 C   0  0  0  0  0  0  0  0  0  0  0  0
   -3.5120   22.4210  -29.5330 C   0  0  0  0  0  0  0  0  0  0  0  0
   -3.6230   21.8100  -30.7850 C   0  0  0  0  0  0  0  0  0  0  0  0
   -4.5300   22.3030  -31.7390 C   0  0  0  0  0  0  0  0  0  0  0  0
   -4.6530   21.6400  -33.0910 C   0  0  1  0  0  0  0  0  0  0  0  0
   -3.3110   21.4450  -33.6630 N   0  0  0  0  0  0  0  0  0  0  0  0
   -2.6760   20.1560  -33.7650 C   0  0  0  0  0  0  0  0  0  0  0  0
   -1.3320   20.0570  -34.1540 C   0  0  0  0  0  0  0  0  0  0  0  0
   -0.7190   18.8040  -34.2580 C   0  0  0  0  0  0  0  0  0  0  0  0
   -1.4460   17.6420  -33.9800 C   0  0  0  0  0  0  0  0  0  0  0  0
   -2.7880   17.7280  -33.5980 C   0  0  0  0  0  0  0  0  0  0  0  0
   -3.4030   18.9840  -33.4900 C   0  0  0  0  0  0  0  0  0  0  0  0
   -4.8070   19.1360  -33.1060 C   0  0  0  0  0  0  0  0  0  0  0  0
   -5.6710   18.1120  -32.8740 N   0  0  0  0  0  0  0  0  0  0  0  0
   -6.8140   18.7590  -32.5700 C   0  0  0  0  0  0  0  0  0  0  0  0
   -8.0440   18.1980  -32.2330 C   0  0  0  0  0  0  0  0  0  0  0  0
   -9.1060   19.0740  -31.9420 C   0  0  0  0  0  0  0  0  0  0  0  0
   -8.9150   20.4750  -31.9940 C   0  0  0  0  0  0  0  0  0  0  0  0
   -7.6600   21.0110  -32.3380 C   0  0  0  0  0  0  0  0  0  0  0  0
   -6.6320   20.1120  -32.6210 C   0  0  0  0  0  0  0  0  0  0  0  0
   -5.3590   20.3600  -32.9620 N   0  0  0  0  0  0  0  0  0  0  0  0
   -5.3200   23.4200  -31.4190 C   0  0  0  0  0  0  0  0  0  0  0  0
   -5.2070   24.0300  -30.1660 C   0  0  0  0  0  0  0  0  0  0  0  0
   -4.3130   23.3986  -27.0908 H   0  0  0  0  0  0  0  0  0  0  0  0
   -3.2227   24.6643  -27.7511 H   0  0  0  0  0  0  0  0  0  0  0  0
   -5.0005   24.9211  -27.7511 H   0  0  0  0  0  0  0  0  0  0  0  0
   -2.8092   22.0190  -28.7884 H   0  0  0  0  0  0  0  0  0  0  0  0
   -2.9969   20.9381  -31.0253 H   0  0  0  0  0  0  0  0  0  0  0  0
   -5.2354   22.2836  -33.7667 H   0  0  0  0  0  0  0  0  0  0  0  0
   -2.7680   22.2990  -33.9270 H   0  0  0  0  0  0  0  0  0  0  0  0
   -0.7579   20.9681  -34.3781 H   0  0  0  0  0  0  0  0  0  0  0  0
    0.3366   18.7324  -34.5589 H   0  0  0  0  0  0  0  0  0  0  0  0
   -0.9607   16.6582  -34.0621 H   0  0  0  0  0  0  0  0  0  0  0  0
   -3.3600   16.8134  -33.3828 H   0  0  0  0  0  0  0  0  0  0  0  0
   -8.1803   17.1071  -32.1957 H   0  0  0  0  0  0  0  0  0  0  0  0
  -10.0916   18.6668  -31.6722 H   0  0  0  0  0  0  0  0  0  0  0  0
   -9.7529   21.1496  -31.7641 H   0  0  0  0  0  0  0  0  0  0  0  0
   -7.4961   22.0978  -32.3820 H   0  0  0  0  0  0  0  0  0  0  0  0
   -6.0313   23.8168  -32.1583 H   0  0  0  0  0  0  0  0  0  0  0  0
   -5.8393   24.8959  -29.9201 H   0  0  0  0  0  0  0  0  0  0  0  0
  1  2  1  0
  2  3  2  0
  3  4  1  0
  4  5  2  0
  5  6  1  0
  6  7  1  0
  7  8  1  0
  8  9  2  0
  9 10  1  0
 10 11  2  0
 11 12  1  0
 12 13  2  0
 13 14  1  0
 14 15  2  0
 15 16  1  0
 16 17  2  0
 17 18  1  0
 18 19  2  0
 19 20  1  0
 20 21  2  0
 21 22  1  0
  5 23  1  0
 23 24  2  0
 24  2  1  0
 22  6  1  0
 13  8  1  0
 22 14  1  0
 21 16  1  0
  1 25  1  0
  1 26  1  0
  1 27  1  0
  3 28  1  0
  4 29  1  0
  6 30  1  6
  7 31  1  0
  9 32  1  0
 10 33  1  0
 11 34  1  0
 12 35  1  0
 17 36  1  0
 18 37  1  0
 19 38  1  0
 20 39  1  0
 23 40  1  0
 24 41  1  0
M  END
>  <UniqueID>  (29) 
29

>  <SMILES>  (29) 
Cc1ccc([C@H]2Nc3ccccc3-c3nc4ccccc4n32)cc1

>  <Energy>  (29) 
85.8815989444778

>  <Genealogy>  (29) 
Cc1ccc([C@H]2Nc3ccccc3-c3nc4ccccc4n32)cc1 (chirality)
Cc1ccc([C@H]2Nc3ccccc3-c3nc4ccccc4n32)cc1 (3D coordinates assigned)
Cc1ccc([C@H]2Nc3ccccc3-c3nc4ccccc4n32)cc1 (nonaromatic ring conformer: 85.8815989444778 kcal/mol)

>  <smiles>  (29) 
Cc1ccc(C2Nc3ccccc3-c3nc4ccccc4n32)cc1

>  <score_type>  (29) 
oracle

>  <origin>  (29) 
adg

>  <m_score__min__energy>  (29) 
-8.6999999999999993

>  <m_primary>  (29) 
energy

$$$$
29:0
     RDKit          3D

 37 39  0  0  0  0  0  0  0  0999 V2000
    0.0060   22.6590  -25.5320 N   0  0  0  0  0  0  0  0  0  0  0  0
   -0.7550   22.9040  -26.3690 C   0  0  0  0  0  0  0  0  0  0  0  0
   -1.7010   23.2070  -27.4100 C   0  0  0  0  0  0  0  0  0  0  0  0
   -2.8920   23.8750  -27.1020 C   0  0  0  0  0  0  0  0  0  0  0  0
   -3.8130   24.1710  -28.1120 C   0  0  0  0  0  0  0  0  0  0  0  0
   -3.5570   23.7960  -29.4450 C   0  0  0  0  0  0  0  0  0  0  0  0
   -4.5180   24.1040  -30.5300 C   0  0  0  0  0  0  0  0  0  0  0  0
   -4.6150   25.2910  -30.9460 O   0  0  0  0  0  0  0  0  0  0  0  0
   -5.3250   23.0730  -31.1260 N   0  0  0  0  0  0  0  0  0  0  0  0
   -6.3280   23.3530  -32.1520 C   0  0  0  0  0  0  0  0  0  0  0  0
   -7.4650   22.3700  -32.0700 C   0  0  0  0  0  0  0  0  0  0  0  0
   -8.7390   22.6960  -31.6440 C   0  0  0  0  0  0  0  0  0  0  0  0
   -9.4790   21.5340  -31.6880 C   0  0  0  0  0  0  0  0  0  0  0  0
   -8.6310   20.5420  -32.1350 C   0  0  0  0  0  0  0  0  0  0  0  0
   -7.4000   21.0480  -32.3690 N   0  0  0  0  0  0  0  0  0  0  0  0
   -6.2650   20.2990  -32.8470 C   0  0  0  0  0  0  0  0  0  0  0  0
   -6.4230   19.2850  -33.8080 C   0  0  0  0  0  0  0  0  0  0  0  0
   -5.3030   18.5860  -34.2620 C   0  0  0  0  0  0  0  0  0  0  0  0
   -4.0380   18.8980  -33.7620 C   0  0  0  0  0  0  0  0  0  0  0  0
   -3.9130   19.9100  -32.8110 C   0  0  0  0  0  0  0  0  0  0  0  0
   -5.0160   20.5800  -32.3820 N   0  0  0  0  0  0  0  0  0  0  0  0
   -2.3500   23.1370  -29.7450 C   0  0  0  0  0  0  0  0  0  0  0  0
   -1.4320   22.8410  -28.7320 C   0  0  0  0  0  0  0  0  0  0  0  0
   -3.1040   24.1678  -26.0631 H   0  0  0  0  0  0  0  0  0  0  0  0
   -4.7444   24.7007  -27.8633 H   0  0  0  0  0  0  0  0  0  0  0  0
   -5.2030   22.0820  -30.8240 H   0  0  0  0  0  0  0  0  0  0  0  0
   -6.7196   24.3704  -32.0054 H   0  0  0  0  0  0  0  0  0  0  0  0
   -5.8552   23.2636  -33.1412 H   0  0  0  0  0  0  0  0  0  0  0  0
   -9.0932   23.6892  -31.3309 H   0  0  0  0  0  0  0  0  0  0  0  0
  -10.5395   21.4199  -31.4190 H   0  0  0  0  0  0  0  0  0  0  0  0
   -8.9161   19.4896  -32.2802 H   0  0  0  0  0  0  0  0  0  0  0  0
   -7.4223   19.0440  -34.1995 H   0  0  0  0  0  0  0  0  0  0  0  0
   -5.4175   17.7903  -35.0129 H   0  0  0  0  0  0  0  0  0  0  0  0
   -3.1502   18.3521  -34.1139 H   0  0  0  0  0  0  0  0  0  0  0  0
   -2.9222   20.1665  -32.4077 H   0  0  0  0  0  0  0  0  0  0  0  0
   -2.1270   22.8526  -30.7839 H   0  0  0  0  0  0  0  0  0  0  0  0
   -0.4954   22.3185  -28.9765 H   0  0  0  0  0  0  0  0  0  0  0  0
  1  2  3  0
  2  3  1  0
  3  4  2  0
  4  5  1  0
  5  6  2  0
  6  7  1  0
  7  8  2  0
  7  9  1  0
  9 10  1  0
 10 11  1  0
 11 12  2  0
 12 13  1  0
 13 14  2  0
 14 15  1  0
 15 16  1  0
 16 17  2  0
 17 18  1  0
 18 19  2  0
 19 20  1  0
 20 21  2  0
  6 22  1  0
 22 23  2  0
 23  3  1  0
 15 11  1  0
 21 16  1  0
  4 24  1  0
  5 25  1  0
  9 26  1  0
 10 27  1  0
 10 28  1  0
 12 29  1  0
 13 30  1  0
 14 31  1  0
 17 32  1  0
 18 33  1  0
 19 34  1  0
 20 35  1  0
 22 36  1  0
 23 37  1  0
M  END
>  <UniqueID>  (30) 
30

>  <SMILES>  (30) 
N#Cc1ccc(C(=O)NCc2cccn2-c2ccccn2)cc1

>  <Energy>  (30) 
69.45318229652902

>  <Genealogy>  (30) 
N#Cc1ccc(C(=O)NCc2cccn2-c2ccccn2)cc1 (3D coordinates assigned)
N#Cc1ccc(C(=O)NCc2cccn2-c2ccccn2)cc1 (optimized conformer: 69.45318229652902 kcal/mol)

>  <smiles>  (30) 
N#Cc1ccc(C(=O)NCc2cccn2-c2ccccn2)cc1

>  <score_type>  (30) 
oracle

>  <origin>  (30) 
adg

>  <m_score__min__energy>  (30) 
-7.54

>  <m_primary>  (30) 
energy

$$$$
30:0
     RDKit          3D

 55 57  0  0  0  0  0  0  0  0999 V2000
   -9.5080   19.2970  -32.6800 C   0  0  0  0  0  0  0  0  0  0  0  0
   -8.2350   19.4480  -31.8500 C   0  0  1  0  0  0  0  0  0  0  0  0
   -7.0960   18.0610  -32.2170 S   0  0  0  0  0  0  0  0  0  0  0  0
   -5.8530   19.1300  -33.0310 C   0  0  0  0  0  0  0  0  0  0  0  0
   -5.8470   18.8440  -34.5370 C   0  0  0  0  0  0  0  0  0  0  0  0
   -4.4750   18.8590  -32.4160 C   0  0  0  0  0  0  0  0  0  0  0  0
   -6.2810   20.5330  -32.7740 C   0  0  0  0  0  0  0  0  0  0  0  0
   -5.5610   21.5210  -33.0870 O   0  0  0  0  0  0  0  0  0  0  0  0
   -7.5550   20.7000  -32.1660 N   0  0  0  0  0  0  0  0  0  0  0  0
   -8.1100   22.0110  -31.8150 C   0  0  0  0  0  0  0  0  0  0  0  0
   -7.4570   22.5390  -30.5310 C   0  0  0  0  0  0  0  0  0  0  0  0
   -7.0180   24.0110  -30.6410 C   0  0  0  0  0  0  0  0  0  0  0  0
   -5.5160   24.2050  -30.9300 C   0  0  0  0  0  0  0  0  0  0  0  0
   -4.6760   23.3380  -30.0790 N   0  0  0  0  0  0  0  0  0  0  0  0
   -4.3530   23.9710  -28.7870 C   0  0  0  0  0  0  0  0  0  0  0  0
   -3.8080   22.8970  -27.8400 C   0  0  0  0  0  0  0  0  0  0  0  0
   -2.9680   21.9380  -28.5710 N   0  0  0  0  0  0  0  0  0  0  0  0
   -2.6250   20.6860  -27.9500 C   0  0  0  0  0  0  0  0  0  0  0  0
   -1.4090   20.1230  -28.1930 N   0  0  0  0  0  0  0  0  0  0  0  0
   -1.0420   18.9560  -27.6070 C   0  0  0  0  0  0  0  0  0  0  0  0
   -1.9130   18.3180  -26.7270 C   0  0  0  0  0  0  0  0  0  0  0  0
   -3.1470   18.9090  -26.4690 C   0  0  0  0  0  0  0  0  0  0  0  0
   -3.4830   20.0790  -27.0760 N   0  0  0  0  0  0  0  0  0  0  0  0
   -2.3690   22.3530  -29.8460 C   0  0  0  0  0  0  0  0  0  0  0  0
   -3.4430   22.9290  -30.7940 C   0  0  0  0  0  0  0  0  0  0  0  0
  -10.3734   19.1944  -32.0087 H   0  0  0  0  0  0  0  0  0  0  0  0
   -9.6396   20.1858  -33.3146 H   0  0  0  0  0  0  0  0  0  0  0  0
   -9.4280   18.4021  -33.3146 H   0  0  0  0  0  0  0  0  0  0  0  0
   -8.5164   19.4459  -30.7866 H   0  0  0  0  0  0  0  0  0  0  0  0
   -5.8242   17.7569  -34.7037 H   0  0  0  0  0  0  0  0  0  0  0  0
   -6.7542   19.2661  -34.9940 H   0  0  0  0  0  0  0  0  0  0  0  0
   -4.9583   19.3038  -34.9940 H   0  0  0  0  0  0  0  0  0  0  0  0
   -4.5536   18.8745  -31.3189 H   0  0  0  0  0  0  0  0  0  0  0  0
   -4.1147   17.8728  -32.7439 H   0  0  0  0  0  0  0  0  0  0  0  0
   -3.7680   19.6353  -32.7439 H   0  0  0  0  0  0  0  0  0  0  0  0
   -7.9192   22.7175  -32.6362 H   0  0  0  0  0  0  0  0  0  0  0  0
   -9.1927   21.9087  -31.6499 H   0  0  0  0  0  0  0  0  0  0  0  0
   -8.1806   22.4496  -29.7073 H   0  0  0  0  0  0  0  0  0  0  0  0
   -6.5532   21.9386  -30.3504 H   0  0  0  0  0  0  0  0  0  0  0  0
   -7.5890   24.4809  -31.4553 H   0  0  0  0  0  0  0  0  0  0  0  0
   -7.2125   24.4719  -29.6613 H   0  0  0  0  0  0  0  0  0  0  0  0
   -5.3225   23.9627  -31.9854 H   0  0  0  0  0  0  0  0  0  0  0  0
   -5.2585   25.2516  -30.7103 H   0  0  0  0  0  0  0  0  0  0  0  0
   -3.5940   24.7529  -28.9368 H   0  0  0  0  0  0  0  0  0  0  0  0
   -5.2557   24.4290  -28.3565 H   0  0  0  0  0  0  0  0  0  0  0  0
   -3.2065   23.3790  -27.0552 H   0  0  0  0  0  0  0  0  0  0  0  0
   -4.6554   22.3563  -27.3932 H   0  0  0  0  0  0  0  0  0  0  0  0
   -0.0587   18.5144  -27.8263 H   0  0  0  0  0  0  0  0  0  0  0  0
   -1.6324   17.3689  -26.2468 H   0  0  0  0  0  0  0  0  0  0  0  0
   -3.8511   18.4291  -25.7734 H   0  0  0  0  0  0  0  0  0  0  0  0
   -4.3960   20.5220  -26.8300 H   0  0  0  0  0  0  0  0  0  0  0  0
   -1.6076   23.1231  -29.6531 H   0  0  0  0  0  0  0  0  0  0  0  0
   -1.9117   21.4740  -30.3236 H   0  0  0  0  0  0  0  0  0  0  0  0
   -3.0253   23.8080  -31.3067 H   0  0  0  0  0  0  0  0  0  0  0  0
   -3.7183   22.1365  -31.5055 H   0  0  0  0  0  0  0  0  0  0  0  0
  1  2  1  0
  2  3  1  0
  3  4  1  0
  4  5  1  0
  4  6  1  0
  4  7  1  0
  7  8  2  0
  7  9  1  0
  9 10  1  0
 10 11  1  0
 11 12  1  0
 12 13  1  0
 13 14  1  0
 14 15  1  0
 15 16  1  0
 16 17  1  0
 17 18  1  0
 18 19  2  0
 19 20  1  0
 20 21  2  0
 21 22  1  0
 22 23  2  0
 17 24  1  0
 24 25  1  0
  9  2  1  0
 25 14  1  0
 23 18  1  0
  1 26  1  0
  1 27  1  0
  1 28  1  0
  2 29  1  1
  5 30  1  0
  5 31  1  0
  5 32  1  0
  6 33  1  0
  6 34  1  0
  6 35  1  0
 10 36  1  0
 10 37  1  0
 11 38  1  0
 11 39  1  0
 12 40  1  0
 12 41  1  0
 13 42  1  0
 13 43  1  0
 15 44  1  0
 15 45  1  0
 16 46  1  0
 16 47  1  0
 20 48  1  0
 21 49  1  0
 22 50  1  0
 23 51  1  0
 24 52  1  0
 24 53  1  0
 25 54  1  0
 25 55  1  0
M  CHG  1  23   1
M  END
>  <UniqueID>  (31) 
31

>  <SMILES>  (31) 
C[C@H]1SC(C)(C)C(=O)N1CCCCN1CCN(c2nccc[nH+]2)CC1

>  <Energy>  (31) 
46.53590450407791

>  <Genealogy>  (31) 
CC1SC(C)(C)C(=O)N1CCCCN1CCN(c2nccc[nH+]2)CC1 (protonated)
C[C@H]1SC(C)(C)C(=O)N1CCCCN1CCN(c2nccc[nH+]2)CC1 (chirality)
C[C@H]1SC(C)(C)C(=O)N1CCCCN1CCN(c2nccc[nH+]2)CC1 (3D coordinates assigned)
C[C@H]1SC(C)(C)C(=O)N1CCCCN1CCN(c2nccc[nH+]2)CC1 (nonaromatic ring conformer: 46.53590450407791 kcal/mol)

>  <smiles>  (31) 
CC1SC(C)(C)C(=O)N1CCCCN1CCN(c2ncccn2)CC1

>  <score_type>  (31) 
oracle

>  <origin>  (31) 
adg

>  <m_score__min__energy>  (31) 
-7.8899999999999997

>  <m_primary>  (31) 
energy

$$$$
31:0
     RDKit          3D

 33 34  0  0  0  0  0  0  0  0999 V2000
   -8.9330   18.5260  -31.7360 C   0  0  0  0  0  0  0  0  0  0  0  0
   -7.4490   18.1600  -31.7000 C   0  0  0  0  0  0  0  0  0  0  0  0
   -6.8190   18.0670  -33.1060 C   0  0  0  0  0  0  0  0  0  0  0  0
   -6.8800   19.3320  -33.8640 N   0  0  0  0  0  0  0  0  0  0  0  0
   -6.0700   20.3780  -33.2670 C   0  0  0  0  0  0  0  0  0  0  0  0
   -4.6760   20.3080  -33.4430 C   0  0  0  0  0  0  0  0  0  0  0  0
   -3.8210   21.2680  -32.9100 C   0  0  0  0  0  0  0  0  0  0  0  0
   -2.4430   21.1240  -33.1370 O   0  0  0  0  0  0  0  0  0  0  0  0
   -1.8570   20.0930  -33.9260 C   0  0  0  0  0  0  0  0  0  0  0  0
   -4.3540   22.3340  -32.1750 C   0  0  0  0  0  0  0  0  0  0  0  0
   -5.7410   22.4450  -31.9710 C   0  0  0  0  0  0  0  0  0  0  0  0
   -6.2830   23.5230  -31.2330 C   0  0  0  0  0  0  0  0  0  0  0  0
   -5.2830   24.7840  -30.5190 Cl  0  0  0  0  0  0  0  0  0  0  0  0
   -7.6240   23.6140  -31.0530 N   0  0  0  0  0  0  0  0  0  0  0  0
   -8.4830   22.6990  -31.5620 C   0  0  0  0  0  0  0  0  0  0  0  0
   -8.0050   21.6170  -32.2950 C   0  0  0  0  0  0  0  0  0  0  0  0
   -6.6180   21.4630  -32.5150 C   0  0  0  0  0  0  0  0  0  0  0  0
   -9.3126   18.6196  -30.7078 H   0  0  0  0  0  0  0  0  0  0  0  0
   -9.0620   19.4829  -32.2630 H   0  0  0  0  0  0  0  0  0  0  0  0
   -9.4921   17.7388  -32.2630 H   0  0  0  0  0  0  0  0  0  0  0  0
   -6.9118   18.9285  -31.1248 H   0  0  0  0  0  0  0  0  0  0  0  0
   -7.3651   17.1669  -31.2344 H   0  0  0  0  0  0  0  0  0  0  0  0
   -5.7634   17.7777  -32.9960 H   0  0  0  0  0  0  0  0  0  0  0  0
   -7.3991   17.3229  -33.6716 H   0  0  0  0  0  0  0  0  0  0  0  0
   -6.6770   19.1650  -34.8710 H   0  0  0  0  0  0  0  0  0  0  0  0
   -7.8760   19.6560  -33.8510 H   0  0  0  0  0  0  0  0  0  0  0  0
   -4.2504   19.4720  -34.0174 H   0  0  0  0  0  0  0  0  0  0  0  0
   -1.4223   19.3282  -33.2657 H   0  0  0  0  0  0  0  0  0  0  0  0
   -2.6289   19.6335  -34.5608 H   0  0  0  0  0  0  0  0  0  0  0  0
   -1.0673   20.5211  -34.5608 H   0  0  0  0  0  0  0  0  0  0  0  0
   -3.6799   23.0935  -31.7522 H   0  0  0  0  0  0  0  0  0  0  0  0
   -9.5644   22.8117  -31.3951 H   0  0  0  0  0  0  0  0  0  0  0  0
   -8.7099   20.8787  -32.7048 H   0  0  0  0  0  0  0  0  0  0  0  0
  1  2  1  0
  2  3  1  0
  3  4  1  0
  4  5  1  0
  5  6  2  0
  6  7  1  0
  7  8  1  0
  8  9  1  0
  7 10  2  0
 10 11  1  0
 11 12  2  0
 12 13  1  0
 12 14  1  0
 14 15  2  0
 15 16  1  0
 16 17  2  0
 17  5  1  0
 17 11  1  0
  1 18  1  0
  1 19  1  0
  1 20  1  0
  2 21  1  0
  2 22  1  0
  3 23  1  0
  3 24  1  0
  4 25  1  0
  4 26  1  0
  6 27  1  0
  9 28  1  0
  9 29  1  0
  9 30  1  0
 10 31  1  0
 15 32  1  0
 16 33  1  0
M  CHG  1   4   1
M  END
>  <UniqueID>  (32) 
32

>  <SMILES>  (32) 
CCC[NH2+]c1cc(OC)cc2c(Cl)nccc12

>  <Energy>  (32) 
41.89894228702632

>  <Genealogy>  (32) 
CCC[NH2+]c1cc(OC)cc2c(Cl)nccc12 (protonated)
CCC[NH2+]c1cc(OC)cc2c(Cl)nccc12 (3D coordinates assigned)
CCC[NH2+]c1cc(OC)cc2c(Cl)nccc12 (optimized conformer: 41.89894228702632 kcal/mol)

>  <smiles>  (32) 
CCCNc1cc(OC)cc2c(Cl)nccc12

>  <score_type>  (32) 
oracle

>  <origin>  (32) 
adg

>  <m_score__min__energy>  (32) 
-6.1299999999999999

>  <m_primary>  (32) 
energy

$$$$
33:0
     RDKit          3D

 29 29  0  0  0  0  0  0  0  0999 V2000
   -2.6110   25.3820  -25.9710 C   0  0  0  0  0  0  0  0  0  0  0  0
   -3.9500   24.9110  -26.5360 C   0  0  0  0  0  0  0  0  0  0  0  0
   -3.7770   24.1500  -27.8560 C   0  0  0  0  0  0  0  0  0  0  0  0
   -4.9730   24.2660  -28.6900 N   0  0  0  0  0  0  0  0  0  0  0  0
   -4.9410   24.8390  -30.0050 C   0  0  0  0  0  0  0  0  0  0  0  0
   -3.8590   25.2780  -30.4820 O   0  0  0  0  0  0  0  0  0  0  0  0
   -6.1990   24.9400  -30.8190 C   0  0  0  0  0  0  0  0  0  0  0  0
   -6.2810   23.8230  -31.8750 C   0  0  2  0  0  0  0  0  0  0  0  0
   -7.6910   23.3880  -32.1010 C   0  0  0  0  0  0  0  0  0  0  0  0
   -7.8950   22.1320  -31.7510 C   0  0  0  0  0  0  0  0  0  0  0  0
   -6.6680   21.4850  -31.2220 C   0  0  0  0  0  0  0  0  0  0  0  0
   -5.5710   22.5370  -31.4060 C   0  0  0  0  0  0  0  0  0  0  0  0
   -2.6514   25.3678  -24.8718 H   0  0  0  0  0  0  0  0  0  0  0  0
   -1.8107   24.7114  -26.3172 H   0  0  0  0  0  0  0  0  0  0  0  0
   -2.4068   26.4059  -26.3172 H   0  0  0  0  0  0  0  0  0  0  0  0
   -4.4316   24.2470  -25.8031 H   0  0  0  0  0  0  0  0  0  0  0  0
   -4.5686   25.7990  -26.7327 H   0  0  0  0  0  0  0  0  0  0  0  0
   -2.9170   24.5664  -28.4009 H   0  0  0  0  0  0  0  0  0  0  0  0
   -3.6113   23.0868  -27.6278 H   0  0  0  0  0  0  0  0  0  0  0  0
   -5.8670   23.8620  -28.3310 H   0  0  0  0  0  0  0  0  0  0  0  0
   -7.0664   24.8607  -30.1472 H   0  0  0  0  0  0  0  0  0  0  0  0
   -6.1944   25.9081  -31.3414 H   0  0  0  0  0  0  0  0  0  0  0  0
   -5.8183   24.2523  -32.7759 H   0  0  0  0  0  0  0  0  0  0  0  0
   -8.4734   24.0420  -32.5136 H   0  0  0  0  0  0  0  0  0  0  0  0
   -8.8653   21.6217  -31.8411 H   0  0  0  0  0  0  0  0  0  0  0  0
   -6.7895   21.2317  -30.1585 H   0  0  0  0  0  0  0  0  0  0  0  0
   -6.4353   20.5427  -31.7396 H   0  0  0  0  0  0  0  0  0  0  0  0
   -5.0500   22.7149  -30.4537 H   0  0  0  0  0  0  0  0  0  0  0  0
   -4.8177   22.2065  -32.1362 H   0  0  0  0  0  0  0  0  0  0  0  0
  1  2  1  0
  2  3  1  0
  3  4  1  0
  4  5  1  0
  5  6  2  0
  5  7  1  0
  7  8  1  0
  8  9  1  0
  9 10  2  0
 10 11  1  0
 11 12  1  0
 12  8  1  0
  1 13  1  0
  1 14  1  0
  1 15  1  0
  2 16  1  0
  2 17  1  0
  3 18  1  0
  3 19  1  0
  4 20  1  0
  7 21  1  0
  7 22  1  0
  8 23  1  6
  9 24  1  0
 10 25  1  0
 11 26  1  0
 11 27  1  0
 12 28  1  0
 12 29  1  0
M  END
>  <UniqueID>  (33) 
33

>  <SMILES>  (33) 
CCCNC(=O)C[C@@H]1C=CCC1

>  <Energy>  (33) 
19.79628987114058

>  <Genealogy>  (33) 
CCCNC(=O)C[C@@H]1C=CCC1 (chirality)
CCCNC(=O)C[C@@H]1C=CCC1 (3D coordinates assigned)
CCCNC(=O)C[C@@H]1C=CCC1 (nonaromatic ring conformer: 19.79628987114058 kcal/mol)

>  <smiles>  (33) 
CCCNC(=O)CC1C=CCC1

>  <score_type>  (33) 
oracle

>  <origin>  (33) 
adg

>  <m_score__min__energy>  (33) 
-6.0300000000000002

>  <m_primary>  (33) 
energy

$$$$
34:0
     RDKit          3D

 66 68  0  0  0  0  0  0  0  0999 V2000
   -0.4510   28.5210  -26.4880 C   0  0  0  0  0  0  0  0  0  0  0  0
   -0.8670   28.1450  -25.0550 C   0  0  0  0  0  0  0  0  0  0  0  0
   -0.5860   26.7270  -24.6530 N   0  0  0  0  0  0  0  0  0  0  0  0
   -0.5540   26.5970  -23.1720 C   0  0  0  0  0  0  0  0  0  0  0  0
    0.7280   26.2820  -25.1910 C   0  0  0  0  0  0  0  0  0  0  0  0
   -1.6250   25.8110  -25.2290 C   0  0  0  0  0  0  0  0  0  0  0  0
   -1.1760   24.9880  -26.4660 C   0  0  0  0  0  0  0  0  0  0  0  0
   -2.2690   24.9060  -27.5470 C   0  0  0  0  0  0  0  0  0  0  0  0
   -3.2190   23.6830  -27.4690 C   0  0  0  0  0  0  0  0  0  0  0  0
   -3.8650   23.2700  -28.7390 N   0  0  0  0  0  0  0  0  0  0  0  0
   -3.5130   21.9190  -29.2030 C   0  0  0  0  0  0  0  0  0  0  0  0
   -3.8130   24.2860  -29.8090 C   0  0  0  0  0  0  0  0  0  0  0  0
   -5.1690   24.9940  -29.9140 C   0  0  0  0  0  0  0  0  0  0  0  0
   -5.9300   24.5820  -31.1850 C   0  0  0  0  0  0  0  0  0  0  0  0
   -5.2740   23.4650  -31.8580 N   0  0  0  0  0  0  0  0  0  0  0  0
   -5.6120   22.2550  -32.2420 C   0  0  0  0  0  0  0  0  0  0  0  0
   -6.9450   21.7030  -32.2330 C   0  0  0  0  0  0  0  0  0  0  0  0
   -8.1170   22.4000  -31.8350 C   0  0  0  0  0  0  0  0  0  0  0  0
   -9.3730   21.7910  -31.8520 C   0  0  0  0  0  0  0  0  0  0  0  0
   -9.5120   20.4760  -32.2690 C   0  0  0  0  0  0  0  0  0  0  0  0
   -8.3950   19.7610  -32.6770 C   0  0  0  0  0  0  0  0  0  0  0  0
   -7.1190   20.3540  -32.6700 C   0  0  0  0  0  0  0  0  0  0  0  0
   -6.0590   19.6130  -33.0900 N   0  0  0  0  0  0  0  0  0  0  0  0
   -4.7980   20.1100  -33.1220 C   0  0  0  0  0  0  0  0  0  0  0  0
   -3.7420   19.2970  -33.5710 C   0  0  0  0  0  0  0  0  0  0  0  0
   -2.4370   19.7860  -33.6050 C   0  0  0  0  0  0  0  0  0  0  0  0
   -2.1710   21.0890  -33.1910 C   0  0  0  0  0  0  0  0  0  0  0  0
   -3.2090   21.9090  -32.7420 C   0  0  0  0  0  0  0  0  0  0  0  0
   -4.5450   21.4350  -32.7010 C   0  0  0  0  0  0  0  0  0  0  0  0
    0.3646   29.2582  -26.4515 H   0  0  0  0  0  0  0  0  0  0  0  0
   -0.1079   27.6205  -27.0184 H   0  0  0  0  0  0  0  0  0  0  0  0
   -1.3124   28.9531  -27.0184 H   0  0  0  0  0  0  0  0  0  0  0  0
   -0.3288   28.8072  -24.3609 H   0  0  0  0  0  0  0  0  0  0  0  0
   -1.9604   28.2590  -25.0177 H   0  0  0  0  0  0  0  0  0  0  0  0
   -0.7930   27.5679  -22.7135 H   0  0  0  0  0  0  0  0  0  0  0  0
   -1.2948   25.8488  -22.8535 H   0  0  0  0  0  0  0  0  0  0  0  0
    0.4494   26.2781  -22.8535 H   0  0  0  0  0  0  0  0  0  0  0  0
    1.4070   26.0521  -24.3566 H   0  0  0  0  0  0  0  0  0  0  0  0
    0.5861   25.3818  -25.8070 H   0  0  0  0  0  0  0  0  0  0  0  0
    1.1623   27.0832  -25.8070 H   0  0  0  0  0  0  0  0  0  0  0  0
   -1.9273   25.1038  -24.4426 H   0  0  0  0  0  0  0  0  0  0  0  0
   -2.4414   26.4605  -25.5776 H   0  0  0  0  0  0  0  0  0  0  0  0
   -0.2843   25.4629  -26.9011 H   0  0  0  0  0  0  0  0  0  0  0  0
   -0.9633   23.9634  -26.1269 H   0  0  0  0  0  0  0  0  0  0  0  0
   -2.8846   25.8145  -27.4713 H   0  0  0  0  0  0  0  0  0  0  0  0
   -1.7319   24.8010  -28.5012 H   0  0  0  0  0  0  0  0  0  0  0  0
   -2.6351   22.8284  -27.0967 H   0  0  0  0  0  0  0  0  0  0  0  0
   -4.0423   23.9930  -26.8086 H   0  0  0  0  0  0  0  0  0  0  0  0
   -3.3428   21.2658  -28.3345 H   0  0  0  0  0  0  0  0  0  0  0  0
   -4.3356   21.5141  -29.8107 H   0  0  0  0  0  0  0  0  0  0  0  0
   -2.5974   21.9670  -29.8107 H   0  0  0  0  0  0  0  0  0  0  0  0
   -3.0319   25.0243  -29.5748 H   0  0  0  0  0  0  0  0  0  0  0  0
   -3.5822   23.7960  -30.7664 H   0  0  0  0  0  0  0  0  0  0  0  0
   -5.7763   24.7329  -29.0348 H   0  0  0  0  0  0  0  0  0  0  0  0
   -4.9868   26.0778  -29.9602 H   0  0  0  0  0  0  0  0  0  0  0  0
   -6.9524   24.2838  -30.9096 H   0  0  0  0  0  0  0  0  0  0  0  0
   -5.9466   25.4402  -31.8730 H   0  0  0  0  0  0  0  0  0  0  0  0
   -8.0327   23.4460  -31.5051 H   0  0  0  0  0  0  0  0  0  0  0  0
  -10.2592   22.3587  -31.5321 H   0  0  0  0  0  0  0  0  0  0  0  0
  -10.5042   20.0012  -32.2764 H   0  0  0  0  0  0  0  0  0  0  0  0
   -8.5083   18.7187  -33.0097 H   0  0  0  0  0  0  0  0  0  0  0  0
   -6.2190   18.6280  -33.4060 H   0  0  0  0  0  0  0  0  0  0  0  0
   -3.9474   18.2670  -33.8980 H   0  0  0  0  0  0  0  0  0  0  0  0
   -1.6176   19.1430  -33.9587 H   0  0  0  0  0  0  0  0  0  0  0  0
   -1.1407   21.4734  -33.2177 H   0  0  0  0  0  0  0  0  0  0  0  0
   -2.9872   22.9359  -32.4159 H   0  0  0  0  0  0  0  0  0  0  0  0
  1  2  1  0
  2  3  1  0
  3  4  1  0
  3  5  1  0
  3  6  1  0
  6  7  1  0
  7  8  1  0
  8  9  1  0
  9 10  1  0
 10 11  1  0
 10 12  1  0
 12 13  1  0
 13 14  1  0
 14 15  1  0
 15 16  2  3
 16 17  1  0
 17 18  2  0
 18 19  1  0
 19 20  2  0
 20 21  1  0
 21 22  2  0
 22 23  1  0
 23 24  1  0
 24 25  2  0
 25 26  1  0
 26 27  2  0
 27 28  1  0
 28 29  2  0
 29 16  1  0
 22 17  1  0
 29 24  1  0
  1 30  1  0
  1 31  1  0
  1 32  1  0
  2 33  1  0
  2 34  1  0
  4 35  1  0
  4 36  1  0
  4 37  1  0
  5 38  1  0
  5 39  1  0
  5 40  1  0
  6 41  1  0
  6 42  1  0
  7 43  1  0
  7 44  1  0
  8 45  1  0
  8 46  1  0
  9 47  1  0
  9 48  1  0
 11 49  1  0
 11 50  1  0
 11 51  1  0
 12 52  1  0
 12 53  1  0
 13 54  1  0
 13 55  1  0
 14 56  1  0
 14 57  1  0
 18 58  1  0
 19 59  1  0
 20 60  1  0
 21 61  1  0
 23 62  1  0
 25 63  1  0
 26 64  1  0
 27 65  1  0
 28 66  1  0
M  CHG  1   3   1
M  END
>  <UniqueID>  (34) 
34

>  <SMILES>  (34) 
CC[N+](C)(C)CCCCN(C)CCCN=c1c2ccccc2[nH]c2ccccc12

>  <Energy>  (34) 
105.47662414585294

>  <Genealogy>  (34) 
CC[N+](C)(C)CCCCN(C)CCCN=c1c2ccccc2[nH]c2ccccc12 (3D coordinates assigned)
CC[N+](C)(C)CCCCN(C)CCCN=c1c2ccccc2[nH]c2ccccc12 (optimized conformer: 105.47662414585294 kcal/mol)

>  <smiles>  (34) 
CC[N+](C)(C)CCCCN(C)CCCN=c1c2ccccc2[nH]c2ccccc12

>  <score_type>  (34) 
oracle

>  <origin>  (34) 
adg

>  <m_score__min__energy>  (34) 
-8.6699999999999999

>  <m_primary>  (34) 
energy

$$$$
35:0
     RDKit          3D

 40 43  0  0  0  0  0  0  0  0999 V2000
   -4.0550   16.9160  -34.3450 F   0  0  0  0  0  0  0  0  0  0  0  0
   -3.0380   17.8150  -34.3600 C   0  0  0  0  0  0  0  0  0  0  0  0
   -1.7940   17.4160  -34.8610 C   0  0  0  0  0  0  0  0  0  0  0  0
   -0.7100   18.2960  -34.8360 C   0  0  0  0  0  0  0  0  0  0  0  0
   -0.8630   19.5770  -34.3020 C   0  0  0  0  0  0  0  0  0  0  0  0
   -2.1020   19.9830  -33.7990 C   0  0  0  0  0  0  0  0  0  0  0  0
   -3.2070   19.1120  -33.8350 C   0  0  0  0  0  0  0  0  0  0  0  0
   -4.5090   19.5670  -33.2990 C   0  0  0  0  0  0  0  0  0  0  0  0
   -5.4970   18.6570  -33.0900 N   0  0  0  0  0  0  0  0  0  0  0  0
   -6.7130   19.0220  -32.6120 C   0  0  0  0  0  0  0  0  0  0  0  0
   -6.9550   20.3640  -32.2760 C   0  0  0  0  0  0  0  0  0  0  0  0
   -5.9190   21.2930  -32.4730 C   0  0  0  0  0  0  0  0  0  0  0  0
   -6.1480   22.6870  -32.2090 N   0  0  0  0  0  0  0  0  0  0  0  0
   -5.3640   23.5030  -31.5580 C   0  0  0  0  0  0  0  0  0  0  0  0
   -5.8460   24.7770  -31.2360 C   0  0  0  0  0  0  0  0  0  0  0  0
   -5.0350   25.6690  -30.5290 C   0  0  0  0  0  0  0  0  0  0  0  0
   -3.7870   25.2960  -30.1440 N   0  0  0  0  0  0  0  0  0  0  0  0
   -3.2940   24.0610  -30.4240 C   0  0  0  0  0  0  0  0  0  0  0  0
   -4.0710   23.1380  -31.1290 C   0  0  0  0  0  0  0  0  0  0  0  0
   -4.7280   20.8790  -32.9930 N   0  0  0  0  0  0  0  0  0  0  0  0
   -8.3220   20.8060  -31.7960 C   0  0  0  0  0  0  0  0  0  0  0  0
   -9.1160   19.6910  -31.2580 N   0  0  0  0  0  0  0  0  0  0  0  0
   -9.1480   18.5670  -32.2020 C   0  0  0  0  0  0  0  0  0  0  0  0
   -7.7500   17.9620  -32.3760 C   0  0  0  0  0  0  0  0  0  0  0  0
   -1.6694   16.4050  -35.2762 H   0  0  0  0  0  0  0  0  0  0  0  0
    0.2644   17.9800  -35.2370 H   0  0  0  0  0  0  0  0  0  0  0  0
   -0.0071   20.2676  -34.2772 H   0  0  0  0  0  0  0  0  0  0  0  0
   -2.2144   20.9904  -33.3719 H   0  0  0  0  0  0  0  0  0  0  0  0
   -6.8606   25.0754  -31.5386 H   0  0  0  0  0  0  0  0  0  0  0  0
   -5.4079   26.6745  -30.2840 H   0  0  0  0  0  0  0  0  0  0  0  0
   -2.2807   23.7872  -30.0949 H   0  0  0  0  0  0  0  0  0  0  0  0
   -3.6772   22.1345  -31.3477 H   0  0  0  0  0  0  0  0  0  0  0  0
   -3.9720   21.5820  -33.1500 H   0  0  0  0  0  0  0  0  0  0  0  0
   -8.1919   21.5603  -31.0060 H   0  0  0  0  0  0  0  0  0  0  0  0
   -8.8640   21.2165  -32.6607 H   0  0  0  0  0  0  0  0  0  0  0  0
   -8.6850   19.3700  -30.3590 H   0  0  0  0  0  0  0  0  0  0  0  0
   -9.8304   17.7939  -31.8192 H   0  0  0  0  0  0  0  0  0  0  0  0
   -9.4964   18.9361  -33.1779 H   0  0  0  0  0  0  0  0  0  0  0  0
   -7.4876   17.4026  -31.4659 H   0  0  0  0  0  0  0  0  0  0  0  0
   -7.7694   17.2991  -33.2536 H   0  0  0  0  0  0  0  0  0  0  0  0
  1  2  1  0
  2  3  2  0
  3  4  1  0
  4  5  2  0
  5  6  1  0
  6  7  2  0
  7  8  1  0
  8  9  2  0
  9 10  1  0
 10 11  2  0
 11 12  1  0
 12 13  1  0
 13 14  2  3
 14 15  1  0
 15 16  2  0
 16 17  1  0
 17 18  1  0
 18 19  2  0
 12 20  2  0
 11 21  1  0
 21 22  1  0
 22 23  1  0
 23 24  1  0
  7  2  1  0
 20  8  1  0
 24 10  1  0
 19 14  1  0
  3 25  1  0
  4 26  1  0
  5 27  1  0
  6 28  1  0
 15 29  1  0
 16 30  1  0
 18 31  1  0
 19 32  1  0
 20 33  1  0
 21 34  1  0
 21 35  1  0
 22 36  1  0
 23 37  1  0
 23 38  1  0
 24 39  1  0
 24 40  1  0
M  CHG  2  17  -1  20   1
M  END
>  <UniqueID>  (35) 
35

>  <SMILES>  (35) 
Fc1ccccc1-c1nc2c(c(N=c3cc[n-]cc3)[nH+]1)CNCC2

>  <Energy>  (35) 
61.190554938651

>  <Genealogy>  (35) 
Fc1ccccc1-c1nc2c(c(N=c3cc[n-]cc3)[nH+]1)CNCC2 (protonated)
Fc1ccccc1-c1nc2c(c(N=c3cc[n-]cc3)[nH+]1)CNCC2 (3D coordinates assigned)
Fc1ccccc1-c1nc2c(c(N=c3cc[n-]cc3)[nH+]1)CNCC2 (nonaromatic ring conformer: 61.190554938651 kcal/mol)

>  <smiles>  (35) 
Fc1ccccc1-c1nc2c(c(N=c3cc[nH]cc3)n1)CNCC2

>  <score_type>  (35) 
oracle

>  <origin>  (35) 
adg

>  <m_score__min__energy>  (35) 
-9

>  <m_primary>  (35) 
energy

$$$$
36:0
     RDKit          3D

 62 65  0  0  0  0  0  0  0  0999 V2000
   -9.8710   20.7650  -32.3400 C   0  0  0  0  0  0  0  0  0  0  0  0
   -8.7190   20.9470  -31.3290 C   0  0  2  0  0  0  0  0  0  0  0  0
   -8.2540   22.4260  -31.2620 C   0  0  0  0  0  0  0  0  0  0  0  0
   -7.4150   22.7260  -30.0080 C   0  0  0  0  0  0  0  0  0  0  0  0
   -7.0900   24.1590  -29.9290 N   0  0  0  0  0  0  0  0  0  0  0  0
   -6.0480   24.5690  -30.8860 C   0  0  0  0  0  0  0  0  0  0  0  0
   -4.6880   24.0360  -30.5110 C   0  0  0  0  0  0  0  0  0  0  0  0
   -4.3940   22.6690  -30.6310 C   0  0  0  0  0  0  0  0  0  0  0  0
   -3.1300   22.2040  -30.2660 C   0  0  0  0  0  0  0  0  0  0  0  0
   -2.1690   23.1000  -29.7910 C   0  0  0  0  0  0  0  0  0  0  0  0
   -2.5090   24.4570  -29.6480 C   0  0  0  0  0  0  0  0  0  0  0  0
   -3.7460   24.8860  -30.0160 N   0  0  0  0  0  0  0  0  0  0  0  0
   -1.6060   25.3760  -29.0260 N   0  0  0  0  0  0  0  0  0  0  0  0
   -0.5130   24.9350  -28.2130 C   0  0  0  0  0  0  0  0  0  0  0  0
    0.2850   25.7810  -27.7310 O   0  0  0  0  0  0  0  0  0  0  0  0
   -0.3470   23.4780  -27.9000 C   0  0  0  0  0  0  0  0  0  0  0  0
   -0.5010   22.5240  -29.4410 S   0  0  0  0  0  0  0  0  0  0  0  0
   -7.5140   19.9840  -31.5940 C   0  0  2  0  0  0  0  0  0  0  0  0
   -6.3900   20.6110  -32.4820 C   0  0  0  0  0  0  0  0  0  0  0  0
   -6.2940   20.0520  -33.9160 C   0  0  0  0  0  0  0  0  0  0  0  0
   -5.9140   18.5520  -34.0060 C   0  0  1  0  0  0  0  0  0  0  0  0
   -4.4540   18.3410  -34.1900 N   0  0  0  0  0  0  0  0  0  0  0  0
   -4.0070   16.9490  -34.0280 C   0  0  0  0  0  0  0  0  0  0  0  0
   -2.7420   16.9600  -33.1800 C   0  0  0  0  0  0  0  0  0  0  0  0
   -2.2710   18.4040  -33.1960 C   0  0  1  0  0  0  0  0  0  0  0  0
   -1.3270   18.6240  -34.2170 O   0  0  0  0  0  0  0  0  0  0  0  0
   -3.5430   19.2080  -33.4320 C   0  0  0  0  0  0  0  0  0  0  0  0
   -6.6730   17.5970  -32.6740 S   0  0  0  0  0  0  0  0  0  0  0  0
   -5.7250   17.2740  -31.5550 O   0  0  0  0  0  0  0  0  0  0  0  0
   -7.2380   16.3170  -33.2230 O   0  0  0  0  0  0  0  0  0  0  0  0
   -8.0110   18.5950  -32.0610 C   0  0  0  0  0  0  0  0  0  0  0  0
  -10.8156   20.6158  -31.7965 H   0  0  0  0  0  0  0  0  0  0  0  0
   -9.9493   21.6619  -32.9720 H   0  0  0  0  0  0  0  0  0  0  0  0
   -9.6690   19.8876  -32.9720 H   0  0  0  0  0  0  0  0  0  0  0  0
   -9.1260   20.6701  -30.3453 H   0  0  0  0  0  0  0  0  0  0  0  0
   -7.6470   22.6452  -32.1528 H   0  0  0  0  0  0  0  0  0  0  0  0
   -9.1542   23.0567  -31.2193 H   0  0  0  0  0  0  0  0  0  0  0  0
   -7.9860   22.4356  -29.1138 H   0  0  0  0  0  0  0  0  0  0  0  0
   -6.4773   22.1538  -30.0652 H   0  0  0  0  0  0  0  0  0  0  0  0
   -6.7600   24.3780  -28.9580 H   0  0  0  0  0  0  0  0  0  0  0  0
   -6.3143   24.1897  -31.8836 H   0  0  0  0  0  0  0  0  0  0  0  0
   -5.9943   25.6676  -30.8764 H   0  0  0  0  0  0  0  0  0  0  0  0
   -5.1539   21.9697  -31.0098 H   0  0  0  0  0  0  0  0  0  0  0  0
   -2.8906   21.1338  -30.3521 H   0  0  0  0  0  0  0  0  0  0  0  0
    0.6449   23.3061  -27.4567 H   0  0  0  0  0  0  0  0  0  0  0  0
   -1.1202   23.1596  -27.1853 H   0  0  0  0  0  0  0  0  0  0  0  0
   -7.0034   19.8213  -30.6334 H   0  0  0  0  0  0  0  0  0  0  0  0
   -6.5753   21.6931  -32.5508 H   0  0  0  0  0  0  0  0  0  0  0  0
   -5.4384   20.3569  -31.9923 H   0  0  0  0  0  0  0  0  0  0  0  0
   -7.2717   20.1869  -34.4018 H   0  0  0  0  0  0  0  0  0  0  0  0
   -5.4828   20.6066  -34.4104 H   0  0  0  0  0  0  0  0  0  0  0  0
   -6.3496   18.1435  -34.9298 H   0  0  0  0  0  0  0  0  0  0  0  0
   -4.7891   16.3613  -33.5251 H   0  0  0  0  0  0  0  0  0  0  0  0
   -3.8069   16.4938  -35.0092 H   0  0  0  0  0  0  0  0  0  0  0  0
   -2.9627   16.6366  -32.1520 H   0  0  0  0  0  0  0  0  0  0  0  0
   -1.9775   16.2715  -33.5692 H   0  0  0  0  0  0  0  0  0  0  0  0
   -1.7621   18.6898  -32.2636 H   0  0  0  0  0  0  0  0  0  0  0  0
   -1.7850   18.5170  -35.0910 H   0  0  0  0  0  0  0  0  0  0  0  0
   -3.9983   19.4885  -32.4707 H   0  0  0  0  0  0  0  0  0  0  0  0
   -3.3289   20.1357  -33.9829 H   0  0  0  0  0  0  0  0  0  0  0  0
   -8.7518   18.7313  -32.8627 H   0  0  0  0  0  0  0  0  0  0  0  0
   -8.4585   18.0803  -31.1980 H   0  0  0  0  0  0  0  0  0  0  0  0
  1  2  1  0
  2  3  1  0
  3  4  1  0
  4  5  1  0
  5  6  1  0
  6  7  1  0
  7  8  2  0
  8  9  1  0
  9 10  2  0
 10 11  1  0
 11 12  2  0
 11 13  1  0
 13 14  1  0
 14 15  2  0
 14 16  1  0
 16 17  1  0
  2 18  1  0
 18 19  1  0
 19 20  1  0
 20 21  1  0
 21 22  1  0
 22 23  1  0
 23 24  1  0
 24 25  1  0
 25 26  1  0
 25 27  1  0
 21 28  1  0
 28 29  2  0
 28 30  2  0
 28 31  1  0
 12  7  1  0
 31 18  1  0
 17 10  1  0
 27 22  1  0
  1 32  1  0
  1 33  1  0
  1 34  1  0
  2 35  1  1
  3 36  1  0
  3 37  1  0
  4 38  1  0
  4 39  1  0
  5 40  1  0
  6 41  1  0
  6 42  1  0
  8 43  1  0
  9 44  1  0
 16 45  1  0
 16 46  1  0
 18 47  1  1
 19 48  1  0
 19 49  1  0
 20 50  1  0
 20 51  1  0
 21 52  1  6
 23 53  1  0
 23 54  1  0
 24 55  1  0
 24 56  1  0
 25 57  1  1
 26 58  1  0
 27 59  1  0
 27 60  1  0
 31 61  1  0
 31 62  1  0
M  CHG  1  13  -1
M  END
>  <UniqueID>  (36) 
36

>  <SMILES>  (36) 
C[C@H](CCNCc1ccc2c(n1)[N-]C(=O)CS2)[C@@H]1CCC(N2CCC(O)C2)S(=O)(=O)C1

>  <Energy>  (36) 
80.02325311585724

>  <Genealogy>  (36) 
CC(CCNCc1ccc2c(n1)[N-]C(=O)CS2)C1CCC(N2CCC(O)C2)S(=O)(=O)C1 (protonated)
C[C@H](CCNCc1ccc2c(n1)[N-]C(=O)CS2)[C@@H]1CCC(N2CCC(O)C2)S(=O)(=O)C1 (chirality)
C[C@H](CCNCc1ccc2c(n1)[N-]C(=O)CS2)[C@@H]1CCC(N2CCC(O)C2)S(=O)(=O)C1 (3D coordinates assigned)
C[C@H](CCNCc1ccc2c(n1)[N-]C(=O)CS2)[C@@H]1CCC(N2CCC(O)C2)S(=O)(=O)C1 (nonaromatic ring conformer: 80.02325311585724 kcal/mol)

>  <smiles>  (36) 
CC(CCNCc1ccc2c(n1)NC(=O)CS2)C1CCC(N2CCC(O)C2)S(=O)(=O)C1

>  <score_type>  (36) 
oracle

>  <origin>  (36) 
adg

>  <m_score__min__energy>  (36) 
-11.85

>  <m_primary>  (36) 
energy

$$$$
37:0
     RDKit          3D

 44 46  0  0  0  0  0  0  0  0999 V2000
   -8.8529   17.8667  -32.4425 H   0  0  0  0  0  0  0  0  0  0  0  0
   -7.9800   18.5170  -32.6010 C   0  0  0  0  0  0  0  0  0  0  0  0
   -7.0220   23.2920  -31.9920 C   0  0  0  0  0  0  0  0  0  0  0  0
   -7.0840   20.8450  -32.2780 C   0  0  0  0  0  0  0  0  0  0  0  0
   -5.8450   20.6450  -32.3900 O   0  0  0  0  0  0  0  0  0  0  0  0
   -7.6900   22.1270  -31.9790 C   0  0  0  0  0  0  0  0  0  0  0  0
   -8.1250   19.8290  -32.3480 C   0  0  0  0  0  0  0  0  0  0  0  0
   -7.3364   24.0628  -32.7110 H   0  0  0  0  0  0  0  0  0  0  0  0
   -5.8890   23.5960  -31.0950 C   0  0  0  0  0  0  0  0  0  0  0  0
   -6.0750   24.2980  -29.8970 C   0  0  0  0  0  0  0  0  0  0  0  0
   -7.0795   24.6507  -29.6204 H   0  0  0  0  0  0  0  0  0  0  0  0
   -4.9920   24.5530  -29.0510 C   0  0  0  0  0  0  0  0  0  0  0  0
   -5.1510   25.1171  -28.1202 H   0  0  0  0  0  0  0  0  0  0  0  0
   -3.6980   24.0960  -29.3760 C   0  0  0  0  0  0  0  0  0  0  0  0
   -2.5700   24.3620  -28.5000 N   0  0  0  0  0  0  0  0  0  0  0  0
   -2.7890   24.7630  -27.1050 C   0  0  0  0  0  0  0  0  0  0  0  0
   -2.3713   23.9982  -26.4337 H   0  0  0  0  0  0  0  0  0  0  0  0
   -2.2916   25.7261  -26.9179 H   0  0  0  0  0  0  0  0  0  0  0  0
   -3.8682   24.8652  -26.9179 H   0  0  0  0  0  0  0  0  0  0  0  0
   -1.1940   24.2380  -28.9950 C   0  0  0  0  0  0  0  0  0  0  0  0
   -0.5018   24.1756  -28.1424 H   0  0  0  0  0  0  0  0  0  0  0  0
   -1.1050   23.3282  -29.6068 H   0  0  0  0  0  0  0  0  0  0  0  0
   -0.9438   25.1172  -29.6068 H   0  0  0  0  0  0  0  0  0  0  0  0
   -3.5300   23.3640  -30.5700 C   0  0  0  0  0  0  0  0  0  0  0  0
   -2.5323   22.9884  -30.8412 H   0  0  0  0  0  0  0  0  0  0  0  0
   -4.6160   23.1100  -31.4130 C   0  0  0  0  0  0  0  0  0  0  0  0
   -4.4687   22.5242  -32.3323 H   0  0  0  0  0  0  0  0  0  0  0  0
   -9.1690   21.9510  -31.7870 C   0  0  0  0  0  0  0  0  0  0  0  0
   -9.4588   22.2334  -30.7641 H   0  0  0  0  0  0  0  0  0  0  0  0
   -9.7453   22.5878  -32.4743 H   0  0  0  0  0  0  0  0  0  0  0  0
   -9.4490   20.4520  -32.0310 C   0  0  0  0  0  0  0  0  0  0  0  0
   -9.8812   19.9926  -31.1298 H   0  0  0  0  0  0  0  0  0  0  0  0
  -10.1686   20.3055  -32.8499 H   0  0  0  0  0  0  0  0  0  0  0  0
   -6.7340   17.8870  -33.0760 C   0  0  0  0  0  0  0  0  0  0  0  0
   -6.0750   16.9120  -32.3070 C   0  0  0  0  0  0  0  0  0  0  0  0
   -6.5110   16.5790  -31.3536 H   0  0  0  0  0  0  0  0  0  0  0  0
   -4.8670   16.3640  -32.7500 C   0  0  0  0  0  0  0  0  0  0  0  0
   -4.3638   15.5887  -32.1536 H   0  0  0  0  0  0  0  0  0  0  0  0
   -4.2980   16.8010  -33.9510 C   0  0  0  0  0  0  0  0  0  0  0  0
   -3.1260   16.2710  -34.3780 F   0  0  0  0  0  0  0  0  0  0  0  0
   -4.9330   17.7930  -34.7030 C   0  0  0  0  0  0  0  0  0  0  0  0
   -4.4815   18.1421  -35.6434 H   0  0  0  0  0  0  0  0  0  0  0  0
   -6.1410   18.3430  -34.2630 C   0  0  0  0  0  0  0  0  0  0  0  0
   -6.6281   19.1359  -34.8495 H   0  0  0  0  0  0  0  0  0  0  0  0
  1  2  1  0
  2  3  2  0
  3  4  1  0
  4  5  2  0
  4  6  1  0
  6  7  2  0
  7  8  1  0
  7  9  1  0
  9 10  2  0
 10 11  1  0
 10 12  1  0
 12 13  1  0
 12 14  2  0
 14 15  1  0
 15 16  1  0
 16 17  1  0
 16 18  1  0
 16 19  1  0
 15 20  1  0
 20 21  1  0
 20 22  1  0
 20 23  1  0
 14 24  1  0
 24 25  1  0
 24 26  2  0
 26 27  1  0
  6 28  1  0
 28 29  1  0
 28 30  1  0
 28 31  1  0
 31 32  1  0
 31 33  1  0
  2 34  1  0
 34 35  2  0
 35 36  1  0
 35 37  1  0
 37 38  1  0
 37 39  2  0
 39 40  1  0
 39 41  1  0
 41 42  1  0
 41 43  2  0
 43 44  1  0
 31  3  1  0
 43 34  1  0
 26  9  1  0
M  END
>  <UniqueID>  (37) 
37

>  <SMILES>  (37) 
CN(C)c1ccc(/C=C2\CC/C(=C/c3ccc(F)cc3)C2=O)cc1

>  <Energy>  (37) 
70.37123958050091

>  <Genealogy>  (37) 
CN(C)c1ccc(/C=C2\CC/C(=C/c3ccc(F)cc3)C2=O)cc1 (cis-trans isomerization)
CN(C)c1ccc(/C=C2\CC/C(=C/c3ccc(F)cc3)C2=O)cc1 (3D coordinates assigned)
CN(C)c1ccc(/C=C2\CC/C(=C/c3ccc(F)cc3)C2=O)cc1 (nonaromatic ring conformer: 70.37123958050091 kcal/mol)

>  <smiles>  (37) 
CN(C)c1ccc(C=C2CCC(=Cc3ccc(F)cc3)C2=O)cc1

>  <score_type>  (37) 
oracle

>  <origin>  (37) 
adg

>  <m_score__min__energy>  (37) 
-8.9499999999999993

>  <m_primary>  (37) 
energy

$$$$
38:0
     RDKit          3D

 34 35  0  0  0  0  0  0  0  0999 V2000
   -2.4360   24.5810  -28.6180 C   0  0  0  0  0  0  0  0  0  0  0  0
   -3.1720   24.9610  -29.7770 O   0  0  0  0  0  0  0  0  0  0  0  0
   -4.0640   24.1200  -30.4650 C   0  0  0  0  0  0  0  0  0  0  0  0
   -3.6240   22.9770  -31.1560 C   0  0  0  0  0  0  0  0  0  0  0  0
   -4.5350   22.1590  -31.8260 C   0  0  0  0  0  0  0  0  0  0  0  0
   -5.9070   22.4540  -31.8070 C   0  0  0  0  0  0  0  0  0  0  0  0
   -6.8980   21.5550  -32.5240 C   0  0  0  0  0  0  0  0  0  0  0  0
   -7.7140   20.6950  -31.6310 N   0  0  0  0  0  0  0  0  0  0  0  0
   -9.1460   20.6890  -31.9510 C   0  0  0  0  0  0  0  0  0  0  0  0
   -9.4500   19.4060  -32.7120 C   0  0  0  0  0  0  0  0  0  0  0  0
   -8.2530   18.4980  -32.4860 C   0  0  0  0  0  0  0  0  0  0  0  0
   -7.2930   19.2900  -31.6060 C   0  0  0  0  0  0  0  0  0  0  0  0
   -6.3440   23.6130  -31.1470 C   0  0  0  0  0  0  0  0  0  0  0  0
   -5.4350   24.4390  -30.4650 C   0  0  0  0  0  0  0  0  0  0  0  0
   -5.9250   25.6670  -29.7490 C   0  0  0  0  0  0  0  0  0  0  0  0
   -2.9963   24.8703  -27.7167 H   0  0  0  0  0  0  0  0  0  0  0  0
   -2.2837   23.4916  -28.6212 H   0  0  0  0  0  0  0  0  0  0  0  0
   -1.4597   25.0877  -28.6212 H   0  0  0  0  0  0  0  0  0  0  0  0
   -2.5532   22.7256  -31.1686 H   0  0  0  0  0  0  0  0  0  0  0  0
   -4.1746   21.2756  -32.3736 H   0  0  0  0  0  0  0  0  0  0  0  0
   -7.5815   22.1925  -33.1041 H   0  0  0  0  0  0  0  0  0  0  0  0
   -6.3031   20.8751  -33.1515 H   0  0  0  0  0  0  0  0  0  0  0  0
   -9.7364   20.7222  -31.0235 H   0  0  0  0  0  0  0  0  0  0  0  0
   -9.4061   21.5669  -32.5606 H   0  0  0  0  0  0  0  0  0  0  0  0
  -10.3656   18.9371  -32.3223 H   0  0  0  0  0  0  0  0  0  0  0  0
   -9.6156   19.5993  -33.7822 H   0  0  0  0  0  0  0  0  0  0  0  0
   -8.5640   17.5731  -31.9782 H   0  0  0  0  0  0  0  0  0  0  0  0
   -7.7828   18.2031  -33.4357 H   0  0  0  0  0  0  0  0  0  0  0  0
   -7.3286   18.9074  -30.5753 H   0  0  0  0  0  0  0  0  0  0  0  0
   -6.2625   19.1919  -31.9780 H   0  0  0  0  0  0  0  0  0  0  0  0
   -7.4115   23.8779  -31.1639 H   0  0  0  0  0  0  0  0  0  0  0  0
   -5.8615   25.5078  -28.6624 H   0  0  0  0  0  0  0  0  0  0  0  0
   -5.3018   26.5287  -30.0304 H   0  0  0  0  0  0  0  0  0  0  0  0
   -6.9702   25.8630  -30.0304 H   0  0  0  0  0  0  0  0  0  0  0  0
  1  2  1  0
  2  3  1  0
  3  4  2  0
  4  5  1  0
  5  6  2  0
  6  7  1  0
  7  8  1  0
  8  9  1  0
  9 10  1  0
 10 11  1  0
 11 12  1  0
  6 13  1  0
 13 14  2  0
 14 15  1  0
 14  3  1  0
 12  8  1  0
  1 16  1  0
  1 17  1  0
  1 18  1  0
  4 19  1  0
  5 20  1  0
  7 21  1  0
  7 22  1  0
  9 23  1  0
  9 24  1  0
 10 25  1  0
 10 26  1  0
 11 27  1  0
 11 28  1  0
 12 29  1  0
 12 30  1  0
 13 31  1  0
 15 32  1  0
 15 33  1  0
 15 34  1  0
M  END
>  <UniqueID>  (38) 
38

>  <SMILES>  (38) 
COc1ccc(CN2CCCC2)cc1C

>  <Energy>  (38) 
37.22979782390786

>  <Genealogy>  (38) 
COc1ccc(CN2CCCC2)cc1C (3D coordinates assigned)
COc1ccc(CN2CCCC2)cc1C (nonaromatic ring conformer: 37.22979782390786 kcal/mol)

>  <smiles>  (38) 
COc1ccc(CN2CCCC2)cc1C

>  <score_type>  (38) 
oracle

>  <origin>  (38) 
adg

>  <m_score__min__energy>  (38) 
-6.8399999999999999

>  <m_primary>  (38) 
energy

$$$$
39:0
     RDKit          3D

 37 39  0  0  0  0  0  0  0  0999 V2000
   -3.1900   13.7700  -32.0410 C   0  0  0  0  0  0  0  0  0  0  0  0
   -3.3300   15.0510  -32.7440 N   0  0  0  0  0  0  0  0  0  0  0  0
   -2.1210   15.8050  -33.0960 C   0  0  0  0  0  0  0  0  0  0  0  0
   -4.6440   15.5630  -33.0920 C   0  0  0  0  0  0  0  0  0  0  0  0
   -5.5130   14.8210  -33.9160 C   0  0  0  0  0  0  0  0  0  0  0  0
   -6.7730   15.3170  -34.2500 C   0  0  0  0  0  0  0  0  0  0  0  0
   -7.1920   16.5570  -33.7720 C   0  0  0  0  0  0  0  0  0  0  0  0
   -6.3500   17.3210  -32.9450 C   0  0  0  0  0  0  0  0  0  0  0  0
   -6.7930   18.6420  -32.4320 C   0  0  0  0  0  0  0  0  0  0  0  0
   -8.1220   18.9350  -32.1220 C   0  0  0  0  0  0  0  0  0  0  0  0
   -8.1850   20.5250  -31.5780 S   0  0  0  0  0  0  0  0  0  0  0  0
   -6.5310   20.7910  -31.7520 C   0  0  0  0  0  0  0  0  0  0  0  0
   -5.8330   22.0590  -31.4290 C   0  0  0  0  0  0  0  0  0  0  0  0
   -6.5360   23.2790  -31.4330 C   0  0  0  0  0  0  0  0  0  0  0  0
   -5.8810   24.4770  -31.1300 C   0  0  0  0  0  0  0  0  0  0  0  0
   -4.5180   24.4750  -30.8250 C   0  0  0  0  0  0  0  0  0  0  0  0
   -3.8700   25.6660  -30.5250 O   0  0  0  0  0  0  0  0  0  0  0  0
   -3.8080   23.2720  -30.8250 C   0  0  0  0  0  0  0  0  0  0  0  0
   -4.4570   22.0710  -31.1250 C   0  0  0  0  0  0  0  0  0  0  0  0
   -5.9240   19.6730  -32.2210 N   0  0  0  0  0  0  0  0  0  0  0  0
   -5.0790   16.8170  -32.6140 C   0  0  0  0  0  0  0  0  0  0  0  0
   -3.2090   13.9438  -30.9550 H   0  0  0  0  0  0  0  0  0  0  0  0
   -4.0209   13.1056  -32.3206 H   0  0  0  0  0  0  0  0  0  0  0  0
   -2.2352   13.3007  -32.3206 H   0  0  0  0  0  0  0  0  0  0  0  0
   -1.6079   16.1250  -32.1771 H   0  0  0  0  0  0  0  0  0  0  0  0
   -1.4492   15.1655  -33.6874 H   0  0  0  0  0  0  0  0  0  0  0  0
   -2.3998   16.6896  -33.6874 H   0  0  0  0  0  0  0  0  0  0  0  0
   -5.1945   13.8406  -34.2998 H   0  0  0  0  0  0  0  0  0  0  0  0
   -7.4400   14.7258  -34.8946 H   0  0  0  0  0  0  0  0  0  0  0  0
   -8.1868   16.9401  -34.0431 H   0  0  0  0  0  0  0  0  0  0  0  0
   -8.9760   18.2482  -32.2167 H   0  0  0  0  0  0  0  0  0  0  0  0
   -7.6087   23.2899  -31.6763 H   0  0  0  0  0  0  0  0  0  0  0  0
   -6.4410   25.4238  -31.1319 H   0  0  0  0  0  0  0  0  0  0  0  0
   -2.7338   23.2699  -30.5880 H   0  0  0  0  0  0  0  0  0  0  0  0
   -3.8897   21.1286  -31.1238 H   0  0  0  0  0  0  0  0  0  0  0  0
   -4.8940   19.5890  -32.3580 H   0  0  0  0  0  0  0  0  0  0  0  0
   -4.4127   17.4111  -31.9712 H   0  0  0  0  0  0  0  0  0  0  0  0
  1  2  1  0
  2  3  1  0
  2  4  1  0
  4  5  2  0
  5  6  1  0
  6  7  2  0
  7  8  1  0
  8  9  1  0
  9 10  2  0
 10 11  1  0
 11 12  1  0
 12 13  1  0
 13 14  2  0
 14 15  1  0
 15 16  2  0
 16 17  1  0
 16 18  1  0
 18 19  2  0
 12 20  2  0
  8 21  2  0
 21  4  1  0
 20  9  1  0
 19 13  1  0
  1 22  1  0
  1 23  1  0
  1 24  1  0
  3 25  1  0
  3 26  1  0
  3 27  1  0
  5 28  1  0
  6 29  1  0
  7 30  1  0
 10 31  1  0
 14 32  1  0
 15 33  1  0
 18 34  1  0
 19 35  1  0
 20 36  1  0
 21 37  1  0
M  CHG  2  17  -1  20   1
M  END
>  <UniqueID>  (39) 
39

>  <SMILES>  (39) 
CN(C)c1cccc(-c2csc(-c3ccc([O-])cc3)[nH+]2)c1

>  <Energy>  (39) 
75.87766125147998

>  <Genealogy>  (39) 
CN(C)c1cccc(-c2csc(-c3ccc([O-])cc3)[nH+]2)c1 (protonated)
CN(C)c1cccc(-c2csc(-c3ccc([O-])cc3)[nH+]2)c1 (3D coordinates assigned)
CN(C)c1cccc(-c2csc(-c3ccc([O-])cc3)[nH+]2)c1 (optimized conformer: 75.87766125147998 kcal/mol)

>  <smiles>  (39) 
CN(C)c1cccc(-c2csc(-c3ccc(O)cc3)n2)c1

>  <score_type>  (39) 
oracle

>  <origin>  (39) 
adg

>  <m_score__min__energy>  (39) 
-9.7400000000000002

>  <m_primary>  (39) 
energy

$$$$
40:0
     RDKit          3D

 34 36  0  0  0  0  0  0  0  0999 V2000
  -10.3090   21.8106  -31.2427 H   0  0  0  0  0  0  0  0  0  0  0  0
   -9.2660   21.6250  -31.5390 C   0  0  0  0  0  0  0  0  0  0  0  0
   -8.3030   22.5350  -31.2380 N   0  0  0  0  0  0  0  0  0  0  0  0
   -6.9970   22.3560  -31.5860 C   0  0  0  0  0  0  0  0  0  0  0  0
   -6.0150   23.4000  -31.2110 C   0  0  0  0  0  0  0  0  0  0  0  0
   -4.7200   23.0310  -31.0170 N   0  0  0  0  0  0  0  0  0  0  0  0
   -3.7660   23.9250  -30.6340 C   0  0  0  0  0  0  0  0  0  0  0  0
   -2.5300   23.5570  -30.4640 N   0  0  0  0  0  0  0  0  0  0  0  0
   -1.9050   23.2770  -29.2010 C   0  0  0  0  0  0  0  0  0  0  0  0
   -1.8270   21.9430  -28.7770 C   0  0  0  0  0  0  0  0  0  0  0  0
   -2.2404   21.1440  -29.4101 H   0  0  0  0  0  0  0  0  0  0  0  0
   -1.2290   21.6210  -27.5580 C   0  0  0  0  0  0  0  0  0  0  0  0
   -1.1843   20.5727  -27.2278 H   0  0  0  0  0  0  0  0  0  0  0  0
   -0.6880   22.6270  -26.7580 C   0  0  0  0  0  0  0  0  0  0  0  0
   -0.2296   22.3724  -25.7910 H   0  0  0  0  0  0  0  0  0  0  0  0
   -0.7270   23.9570  -27.1820 C   0  0  0  0  0  0  0  0  0  0  0  0
   -0.2940   24.7453  -26.5487 H   0  0  0  0  0  0  0  0  0  0  0  0
   -1.3180   24.2960  -28.4170 C   0  0  0  0  0  0  0  0  0  0  0  0
   -1.3160   25.6150  -28.8980 O   0  0  0  0  0  0  0  0  0  0  0  0
   -0.8540   26.7440  -28.1640 C   0  0  0  0  0  0  0  0  0  0  0  0
   -0.9375   26.5399  -27.0863 H   0  0  0  0  0  0  0  0  0  0  0  0
    0.1975   26.9421  -28.4193 H   0  0  0  0  0  0  0  0  0  0  0  0
   -1.4650   27.6224  -28.4193 H   0  0  0  0  0  0  0  0  0  0  0  0
   -4.1040   25.2270  -30.4550 N   0  0  0  0  0  0  0  0  0  0  0  0
   -5.3820   25.6490  -30.6320 C   0  0  0  0  0  0  0  0  0  0  0  0
   -5.6368   26.7081  -30.4793 H   0  0  0  0  0  0  0  0  0  0  0  0
   -6.3720   24.7420  -31.0070 C   0  0  0  0  0  0  0  0  0  0  0  0
   -7.4129   25.0717  -31.1405 H   0  0  0  0  0  0  0  0  0  0  0  0
   -6.6280   21.1790  -32.2660 C   0  0  0  0  0  0  0  0  0  0  0  0
   -5.5778   21.0056  -32.5437 H   0  0  0  0  0  0  0  0  0  0  0  0
   -7.6050   20.2340  -32.5850 C   0  0  0  0  0  0  0  0  0  0  0  0
   -7.3270   19.3148  -33.1215 H   0  0  0  0  0  0  0  0  0  0  0  0
   -8.9340   20.4560  -32.2230 C   0  0  0  0  0  0  0  0  0  0  0  0
   -9.7102   19.7181  -32.4740 H   0  0  0  0  0  0  0  0  0  0  0  0
  1  2  1  0
  2  3  2  0
  3  4  1  0
  4  5  1  0
  5  6  2  0
  6  7  1  0
  7  8  2  0
  8  9  1  0
  9 10  2  0
 10 11  1  0
 10 12  1  0
 12 13  1  0
 12 14  2  0
 14 15  1  0
 14 16  1  0
 16 17  1  0
 16 18  2  0
 18 19  1  0
 19 20  1  0
 20 21  1  0
 20 22  1  0
 20 23  1  0
  7 24  1  0
 24 25  1  0
 25 26  1  0
 25 27  2  0
 27 28  1  0
  4 29  2  0
 29 30  1  0
 29 31  1  0
 31 32  1  0
 31 33  2  0
 33 34  1  0
 33  2  1  0
 27  5  1  0
 18  9  1  0
M  CHG  1  24  -1
M  END
>  <UniqueID>  (40) 
40

>  <SMILES>  (40) 
COc1ccccc1/N=c1\nc(-c2ccccn2)cc[n-]1

>  <Energy>  (40) 
47.62650836971304

>  <Genealogy>  (40) 
COc1ccccc1N=c1nc(-c2ccccn2)cc[n-]1 (protonated)
COc1ccccc1/N=c1\nc(-c2ccccn2)cc[n-]1 (cis-trans isomerization)
COc1ccccc1/N=c1\nc(-c2ccccn2)cc[n-]1 (3D coordinates assigned)
COc1ccccc1/N=c1\nc(-c2ccccn2)cc[n-]1 (optimized conformer: 47.62650836971304 kcal/mol)

>  <smiles>  (40) 
COc1ccccc1N=c1nc(-c2ccccn2)cc[nH]1

>  <score_type>  (40) 
oracle

>  <origin>  (40) 
adg

>  <m_score__min__energy>  (40) 
-8.9199999999999999

>  <m_primary>  (40) 
energy

$$$$
41:0
     RDKit          3D

 57 60  0  0  0  0  0  0  0  0999 V2000
   -0.8650   28.3880  -25.2190 C   0  0  0  0  0  0  0  0  0  0  0  0
   -0.8310   27.0040  -24.7290 N   0  0  0  0  0  0  0  0  0  0  0  0
   -0.5100   26.7590  -23.3170 C   0  0  0  0  0  0  0  0  0  0  0  0
   -1.1080   25.8970  -25.6270 C   0  0  0  0  0  0  0  0  0  0  0  0
   -2.4080   25.6810  -26.1310 C   0  0  0  0  0  0  0  0  0  0  0  0
   -2.6720   24.6150  -26.9950 C   0  0  0  0  0  0  0  0  0  0  0  0
   -1.6510   23.7320  -27.3740 C   0  0  0  0  0  0  0  0  0  0  0  0
   -1.9210   22.6410  -28.2750 N   0  0  0  0  0  0  0  0  0  0  0  0
   -3.2220   21.9620  -28.2450 C   0  0  0  0  0  0  0  0  0  0  0  0
   -3.4660   21.1960  -29.5540 C   0  0  0  0  0  0  0  0  0  0  0  0
   -2.8950   21.9470  -30.6970 N   0  0  0  0  0  0  0  0  0  0  0  0
   -3.3180   21.3580  -31.9910 C   0  0  0  0  0  0  0  0  0  0  0  0
   -4.2670   22.2840  -32.7750 C   0  0  0  0  0  0  0  0  0  0  0  0
   -5.4180   22.6590  -31.9380 N   0  0  0  0  0  0  0  0  0  0  0  0
   -5.3460   23.8460  -31.1200 C   0  0  0  0  0  0  0  0  0  0  0  0
   -4.2930   24.5380  -31.0810 O   0  0  0  0  0  0  0  0  0  0  0  0
   -6.5530   24.3180  -30.3640 C   0  0  0  0  0  0  0  0  0  0  0  0
   -7.4300   23.2350  -30.0660 O   0  0  0  0  0  0  0  0  0  0  0  0
   -7.6150   22.1650  -30.9440 C   0  0  0  0  0  0  0  0  0  0  0  0
   -8.7670   21.3790  -30.8370 C   0  0  0  0  0  0  0  0  0  0  0  0
   -8.9800   20.3250  -31.7250 C   0  0  0  0  0  0  0  0  0  0  0  0
   -8.0420   20.0510  -32.7220 C   0  0  0  0  0  0  0  0  0  0  0  0
   -6.8780   20.8190  -32.8220 C   0  0  0  0  0  0  0  0  0  0  0  0
   -6.6400   21.8780  -31.9190 C   0  0  0  0  0  0  0  0  0  0  0  0
   -1.4110   21.9770  -30.6130 C   0  0  0  0  0  0  0  0  0  0  0  0
   -0.8780   22.1260  -29.1700 C   0  0  0  0  0  0  0  0  0  0  0  0
   -0.3530   23.9450  -26.8850 C   0  0  0  0  0  0  0  0  0  0  0  0
   -0.0850   25.0110  -26.0210 C   0  0  0  0  0  0  0  0  0  0  0  0
   -0.8820   29.0795  -24.3637 H   0  0  0  0  0  0  0  0  0  0  0  0
    0.0286   28.5826  -25.8302 H   0  0  0  0  0  0  0  0  0  0  0  0
   -1.7671   28.5385  -25.8302 H   0  0  0  0  0  0  0  0  0  0  0  0
   -1.2225   27.3028  -22.6793 H   0  0  0  0  0  0  0  0  0  0  0  0
   -0.5785   25.6814  -23.1070 H   0  0  0  0  0  0  0  0  0  0  0  0
    0.5114   27.1093  -23.1070 H   0  0  0  0  0  0  0  0  0  0  0  0
   -3.2233   26.3598  -25.8404 H   0  0  0  0  0  0  0  0  0  0  0  0
   -3.6911   24.4671  -27.3817 H   0  0  0  0  0  0  0  0  0  0  0  0
   -3.2401   21.2537  -27.4036 H   0  0  0  0  0  0  0  0  0  0  0  0
   -4.0123   22.7178  -28.1254 H   0  0  0  0  0  0  0  0  0  0  0  0
   -2.9869   20.2078  -29.4921 H   0  0  0  0  0  0  0  0  0  0  0  0
   -4.5491   21.0777  -29.7057 H   0  0  0  0  0  0  0  0  0  0  0  0
   -3.2360   22.9380  -30.6530 H   0  0  0  0  0  0  0  0  0  0  0  0
   -2.4234   21.1693  -32.6026 H   0  0  0  0  0  0  0  0  0  0  0  0
   -3.8615   20.4266  -31.7740 H   0  0  0  0  0  0  0  0  0  0  0  0
   -3.7235   23.1926  -33.0735 H   0  0  0  0  0  0  0  0  0  0  0  0
   -4.6301   21.7532  -33.6674 H   0  0  0  0  0  0  0  0  0  0  0  0
   -6.2270   24.7852  -29.4230 H   0  0  0  0  0  0  0  0  0  0  0  0
   -7.0945   25.0429  -30.9895 H   0  0  0  0  0  0  0  0  0  0  0  0
   -9.5063   21.5926  -30.0510 H   0  0  0  0  0  0  0  0  0  0  0  0
   -9.8875   19.7092  -31.6398 H   0  0  0  0  0  0  0  0  0  0  0  0
   -8.2192   19.2287  -33.4308 H   0  0  0  0  0  0  0  0  0  0  0  0
   -6.1427   20.5967  -33.6094 H   0  0  0  0  0  0  0  0  0  0  0  0
   -1.0194   21.0391  -31.0337 H   0  0  0  0  0  0  0  0  0  0  0  0
   -1.0729   22.8598  -31.1755 H   0  0  0  0  0  0  0  0  0  0  0  0
   -0.5450   21.1428  -28.8061 H   0  0  0  0  0  0  0  0  0  0  0  0
   -0.0396   22.8381  -29.1777 H   0  0  0  0  0  0  0  0  0  0  0  0
    0.4604   23.2676  -27.1840 H   0  0  0  0  0  0  0  0  0  0  0  0
    0.9375   25.1602  -25.6438 H   0  0  0  0  0  0  0  0  0  0  0  0
  1  2  1  0
  2  3  1  0
  2  4  1  0
  4  5  2  0
  5  6  1  0
  6  7  2  0
  7  8  1  0
  8  9  1  0
  9 10  1  0
 10 11  1  0
 11 12  1  0
 12 13  1  0
 13 14  1  0
 14 15  1  0
 15 16  2  0
 15 17  1  0
 17 18  1  0
 18 19  1  0
 19 20  2  0
 20 21  1  0
 21 22  2  0
 22 23  1  0
 23 24  2  0
 11 25  1  0
 25 26  1  0
  7 27  1  0
 27 28  2  0
 28  4  1  0
 26  8  1  0
 24 14  1  0
 24 19  1  0
  1 29  1  0
  1 30  1  0
  1 31  1  0
  3 32  1  0
  3 33  1  0
  3 34  1  0
  5 35  1  0
  6 36  1  0
  9 37  1  0
  9 38  1  0
 10 39  1  0
 10 40  1  0
 11 41  1  0
 12 42  1  0
 12 43  1  0
 13 44  1  0
 13 45  1  0
 17 46  1  0
 17 47  1  0
 20 48  1  0
 21 49  1  0
 22 50  1  0
 23 51  1  0
 25 52  1  0
 25 53  1  0
 26 54  1  0
 26 55  1  0
 27 56  1  0
 28 57  1  0
M  CHG  1  11   1
M  END
>  <UniqueID>  (41) 
41

>  <SMILES>  (41) 
CN(C)c1ccc(N2CC[NH+](CCN3C(=O)COc4ccccc43)CC2)cc1

>  <Energy>  (41) 
76.03336183242105

>  <Genealogy>  (41) 
CN(C)c1ccc(N2CC[NH+](CCN3C(=O)COc4ccccc43)CC2)cc1 (protonated)
CN(C)c1ccc(N2CC[NH+](CCN3C(=O)COc4ccccc43)CC2)cc1 (3D coordinates assigned)
CN(C)c1ccc(N2CC[NH+](CCN3C(=O)COc4ccccc43)CC2)cc1 (nonaromatic ring conformer: 76.03336183242105 kcal/mol)

>  <smiles>  (41) 
CN(C)c1ccc(N2CCN(CCN3C(=O)COc4ccccc43)CC2)cc1

>  <score_type>  (41) 
oracle

>  <origin>  (41) 
adg

>  <m_score__min__energy>  (41) 
-7.6200000000000001

>  <m_primary>  (41) 
energy

$$$$
42:0
     RDKit          3D

 24 25  0  0  0  0  0  0  0  0999 V2000
   -0.3917   25.3715  -27.8776 H   0  0  0  0  0  0  0  0  0  0  0  0
   -1.2260   24.7670  -28.2630 C   0  0  0  0  0  0  0  0  0  0  0  0
   -2.0420   25.2720  -29.2250 N   0  0  0  0  0  0  0  0  0  0  0  0
   -3.0860   24.5580  -29.7340 C   0  0  0  0  0  0  0  0  0  0  0  0
   -3.8700   25.0660  -30.6390 N   0  0  0  0  0  0  0  0  0  0  0  0
   -5.2920   25.2260  -30.5170 C   0  0  0  0  0  0  0  0  0  0  0  0
   -5.7450   26.3240  -30.0990 O   0  0  0  0  0  0  0  0  0  0  0  0
   -6.2270   24.1190  -30.7960 C   0  0  0  0  0  0  0  0  0  0  0  0
   -6.6470   23.5370  -32.3210 S   0  0  0  0  0  0  0  0  0  0  0  0
   -7.6370   22.2910  -31.7810 C   0  0  0  0  0  0  0  0  0  0  0  0
   -8.1885   21.5837  -32.4178 H   0  0  0  0  0  0  0  0  0  0  0  0
   -7.6390   22.3080  -30.3920 C   0  0  0  0  0  0  0  0  0  0  0  0
   -8.2095   21.5918  -29.7824 H   0  0  0  0  0  0  0  0  0  0  0  0
   -6.8470   23.3220  -29.8410 C   0  0  0  0  0  0  0  0  0  0  0  0
   -6.7270   23.4733  -28.7581 H   0  0  0  0  0  0  0  0  0  0  0  0
   -3.3430   23.2690  -29.2480 C   0  0  0  0  0  0  0  0  0  0  0  0
   -4.1967   22.6925  -29.6339 H   0  0  0  0  0  0  0  0  0  0  0  0
   -2.5060   22.7180  -28.2670 C   0  0  0  0  0  0  0  0  0  0  0  0
   -2.7870   21.3540  -27.7120 C   0  0  0  0  0  0  0  0  0  0  0  0
   -2.7783   21.3964  -26.6129 H   0  0  0  0  0  0  0  0  0  0  0  0
   -3.7741   21.0136  -28.0580 H   0  0  0  0  0  0  0  0  0  0  0  0
   -2.0148   20.6511  -28.0580 H   0  0  0  0  0  0  0  0  0  0  0  0
   -1.4450   23.4820  -27.7630 C   0  0  0  0  0  0  0  0  0  0  0  0
   -0.7900   23.0727  -26.9798 H   0  0  0  0  0  0  0  0  0  0  0  0
  1  2  1  0
  2  3  1  0
  3  4  1  0
  4  5  2  0
  5  6  1  0
  6  7  2  0
  6  8  1  0
  8  9  1  0
  9 10  1  0
 10 11  1  0
 10 12  2  0
 12 13  1  0
 12 14  1  0
 14 15  1  0
  4 16  1  0
 16 17  1  0
 16 18  2  0
 18 19  1  0
 19 20  1  0
 19 21  1  0
 19 22  1  0
 18 23  1  0
 23 24  1  0
 23  2  2  0
 14  8  2  0
M  CHG  1   3  -1
M  END
>  <UniqueID>  (42) 
42

>  <SMILES>  (42) 
Cc1cc[n-]/c(=N\C(=O)c2cccs2)c1

>  <Energy>  (42) 
56.90996606112954

>  <Genealogy>  (42) 
Cc1cc[n-]c(=NC(=O)c2cccs2)c1 (protonated)
Cc1cc[n-]/c(=N\C(=O)c2cccs2)c1 (cis-trans isomerization)
Cc1cc[n-]/c(=N\C(=O)c2cccs2)c1 (3D coordinates assigned)
Cc1cc[n-]/c(=N\C(=O)c2cccs2)c1 (optimized conformer: 56.90996606112954 kcal/mol)

>  <smiles>  (42) 
Cc1cc[nH]c(=NC(=O)c2cccs2)c1

>  <score_type>  (42) 
oracle

>  <origin>  (42) 
adg

>  <m_score__min__energy>  (42) 
-7.9100000000000001

>  <m_primary>  (42) 
energy

$$$$
43:0
     RDKit          3D

 44 46  0  0  0  0  0  0  0  0999 V2000
   -3.8480   24.5020  -27.0890 C   0  0  0  0  0  0  0  0  0  0  0  0
   -3.3120   23.6870  -28.2630 C   0  0  0  0  0  0  0  0  0  0  0  0
   -2.5950   24.5460  -29.3110 C   0  0  0  0  0  0  0  0  0  0  0  0
   -3.4860   24.9410  -30.3570 O   0  0  0  0  0  0  0  0  0  0  0  0
   -4.8230   24.5370  -30.5140 C   0  0  0  0  0  0  0  0  0  0  0  0
   -5.9220   25.3650  -30.2240 C   0  0  0  0  0  0  0  0  0  0  0  0
   -7.1900   24.9030  -30.3920 N   0  0  0  0  0  0  0  0  0  0  0  0
   -7.4400   23.6460  -30.8480 C   0  0  0  0  0  0  0  0  0  0  0  0
   -6.3830   22.7820  -31.1720 C   0  0  0  0  0  0  0  0  0  0  0  0
   -6.6660   21.4090  -31.6640 C   0  0  0  0  0  0  0  0  0  0  0  0
   -7.7900   20.6800  -31.2350 C   0  0  0  0  0  0  0  0  0  0  0  0
   -8.0020   19.4240  -31.7100 N   0  0  0  0  0  0  0  0  0  0  0  0
   -7.1450   18.8520  -32.5970 C   0  0  0  0  0  0  0  0  0  0  0  0
   -7.3780   17.5610  -33.0780 C   0  0  0  0  0  0  0  0  0  0  0  0
   -6.4800   16.9730  -33.9920 C   0  0  0  0  0  0  0  0  0  0  0  0
   -6.6760   15.6800  -34.5010 O   0  0  0  0  0  0  0  0  0  0  0  0
   -5.8960   14.5440  -34.1410 C   0  0  0  0  0  0  0  0  0  0  0  0
   -5.3480   17.6920  -34.4180 C   0  0  0  0  0  0  0  0  0  0  0  0
   -4.4740   17.0780  -35.3290 O   0  0  0  0  0  0  0  0  0  0  0  0
   -3.1480   16.6630  -35.0200 C   0  0  0  0  0  0  0  0  0  0  0  0
   -5.1210   18.9940  -33.9270 C   0  0  0  0  0  0  0  0  0  0  0  0
   -6.0160   19.5700  -33.0220 C   0  0  0  0  0  0  0  0  0  0  0  0
   -5.8060   20.8230  -32.5440 N   0  0  0  0  0  0  0  0  0  0  0  0
   -5.0680   23.2460  -30.9900 C   0  0  0  0  0  0  0  0  0  0  0  0
   -3.5384   24.0313  -26.1442 H   0  0  0  0  0  0  0  0  0  0  0  0
   -3.4455   25.5245  -27.1384 H   0  0  0  0  0  0  0  0  0  0  0  0
   -4.9463   24.5375  -27.1384 H   0  0  0  0  0  0  0  0  0  0  0  0
   -2.6024   22.9406  -27.8766 H   0  0  0  0  0  0  0  0  0  0  0  0
   -4.1744   23.2163  -28.7576 H   0  0  0  0  0  0  0  0  0  0  0  0
   -2.1941   25.4465  -28.8227 H   0  0  0  0  0  0  0  0  0  0  0  0
   -1.7837   23.9490  -29.7531 H   0  0  0  0  0  0  0  0  0  0  0  0
   -5.7555   26.3896  -29.8601 H   0  0  0  0  0  0  0  0  0  0  0  0
   -7.9940   25.5310  -30.1660 H   0  0  0  0  0  0  0  0  0  0  0  0
   -8.4791   23.3042  -30.9637 H   0  0  0  0  0  0  0  0  0  0  0  0
   -8.4952   21.1248  -30.5175 H   0  0  0  0  0  0  0  0  0  0  0  0
   -8.2642   17.0021  -32.7427 H   0  0  0  0  0  0  0  0  0  0  0  0
   -5.8436   14.4676  -33.0449 H   0  0  0  0  0  0  0  0  0  0  0  0
   -6.3614   13.6351  -34.5500 H   0  0  0  0  0  0  0  0  0  0  0  0
   -4.8806   14.6519  -34.5500 H   0  0  0  0  0  0  0  0  0  0  0  0
   -3.0213   16.6233  -33.9280 H   0  0  0  0  0  0  0  0  0  0  0  0
   -2.9672   15.6653  -35.4466 H   0  0  0  0  0  0  0  0  0  0  0  0
   -2.4307   17.3796  -35.4466 H   0  0  0  0  0  0  0  0  0  0  0  0
   -4.2364   19.5581  -34.2575 H   0  0  0  0  0  0  0  0  0  0  0  0
   -4.2213   22.5843  -31.2253 H   0  0  0  0  0  0  0  0  0  0  0  0
  1  2  1  0
  2  3  1  0
  3  4  1  0
  4  5  1  0
  5  6  2  0
  6  7  1  0
  7  8  2  0
  8  9  1  0
  9 10  1  0
 10 11  2  0
 11 12  1  0
 12 13  2  0
 13 14  1  0
 14 15  2  0
 15 16  1  0
 16 17  1  0
 15 18  1  0
 18 19  1  0
 19 20  1  0
 18 21  2  0
 21 22  1  0
 22 23  2  0
  9 24  2  0
 24  5  1  0
 23 10  1  0
 22 13  1  0
  1 25  1  0
  1 26  1  0
  1 27  1  0
  2 28  1  0
  2 29  1  0
  3 30  1  0
  3 31  1  0
  6 32  1  0
  7 33  1  0
  8 34  1  0
 11 35  1  0
 14 36  1  0
 17 37  1  0
 17 38  1  0
 17 39  1  0
 20 40  1  0
 20 41  1  0
 20 42  1  0
 21 43  1  0
 24 44  1  0
M  CHG  1   7   1
M  END
>  <UniqueID>  (43) 
43

>  <SMILES>  (43) 
CCCOc1c[nH+]cc(-c2cnc3cc(OC)c(OC)cc3n2)c1

>  <Energy>  (43) 
50.50164175833256

>  <Genealogy>  (43) 
CCCOc1c[nH+]cc(-c2cnc3cc(OC)c(OC)cc3n2)c1 (protonated)
CCCOc1c[nH+]cc(-c2cnc3cc(OC)c(OC)cc3n2)c1 (3D coordinates assigned)
CCCOc1c[nH+]cc(-c2cnc3cc(OC)c(OC)cc3n2)c1 (optimized conformer: 50.50164175833256 kcal/mol)

>  <smiles>  (43) 
CCCOc1cncc(-c2cnc3cc(OC)c(OC)cc3n2)c1

>  <score_type>  (43) 
oracle

>  <origin>  (43) 
adg

>  <m_score__min__energy>  (43) 
-6.4500000000000002

>  <m_primary>  (43) 
energy

$$$$
44:0
     RDKit          3D

 70 74  0  0  0  0  0  0  0  0999 V2000
   -0.3440   12.4340  -33.4280 C   0  0  0  0  0  0  0  0  0  0  0  0
   -1.6620   13.0860  -33.3280 N   0  0  0  0  0  0  0  0  0  0  0  0
   -1.8110   14.0640  -34.4240 C   0  0  0  0  0  0  0  0  0  0  0  0
   -1.8130   13.7310  -31.9990 C   0  0  0  0  0  0  0  0  0  0  0  0
   -3.0470   13.2130  -31.2380 C   0  0  0  0  0  0  0  0  0  0  0  0
   -3.8370   12.3720  -32.0770 O   0  0  0  0  0  0  0  0  0  0  0  0
   -4.7850   12.8080  -33.0180 C   0  0  0  0  0  0  0  0  0  0  0  0
   -5.3570   11.9530  -33.9800 C   0  0  0  0  0  0  0  0  0  0  0  0
   -6.2950   12.4470  -34.8910 C   0  0  0  0  0  0  0  0  0  0  0  0
   -6.6680   13.7910  -34.8560 C   0  0  0  0  0  0  0  0  0  0  0  0
   -6.1030   14.6550  -33.9090 C   0  0  0  0  0  0  0  0  0  0  0  0
   -6.5320   16.0980  -33.8490 C   0  0  0  0  0  0  0  0  0  0  0  0
   -5.6910   16.9380  -34.7300 N   0  0  0  0  0  0  0  0  0  0  0  0
   -6.1210   18.3540  -34.7920 C   0  0  0  0  0  0  0  0  0  0  0  0
   -5.8290   19.1190  -33.4950 C   0  0  0  0  0  0  0  0  0  0  0  0
   -4.4360   18.9130  -33.0910 N   0  0  0  0  0  0  0  0  0  0  0  0
   -3.7510   19.9410  -32.3530 C   0  0  0  0  0  0  0  0  0  0  0  0
   -4.4770   20.8660  -31.5900 C   0  0  0  0  0  0  0  0  0  0  0  0
   -3.8450   21.9340  -30.8890 C   0  0  0  0  0  0  0  0  0  0  0  0
   -2.4140   21.9520  -30.9170 C   0  0  0  0  0  0  0  0  0  0  0  0
   -1.7010   21.0100  -31.6840 C   0  0  0  0  0  0  0  0  0  0  0  0
   -2.3630   20.0250  -32.4050 C   0  0  0  0  0  0  0  0  0  0  0  0
   -1.6490   19.1570  -33.1650 F   0  0  0  0  0  0  0  0  0  0  0  0
   -1.7100   22.9090  -30.1700 C   0  0  0  0  0  0  0  0  0  0  0  0
   -0.4470   22.9200  -30.1880 O   0  0  0  0  0  0  0  0  0  0  0  0
   -2.4050   23.8410  -29.3960 C   0  0  0  0  0  0  0  0  0  0  0  0
   -1.7000   24.8620  -28.5710 C   0  0  0  0  0  0  0  0  0  0  0  0
   -1.6050   26.0550  -28.9730 O   0  0  0  0  0  0  0  0  0  0  0  0
   -1.1270   24.5270  -27.3510 O   0  0  0  0  0  0  0  0  0  0  0  0
   -3.8040   23.8190  -29.4210 C   0  0  0  0  0  0  0  0  0  0  0  0
   -4.5270   22.9270  -30.1730 N   0  0  0  0  0  0  0  0  0  0  0  0
   -5.9950   23.2440  -30.1290 C   0  0  0  0  0  0  0  0  0  0  0  0
   -6.4650   24.6790  -30.2650 C   0  0  0  0  0  0  0  0  0  0  0  0
   -6.6530   23.6760  -31.4230 C   0  0  0  0  0  0  0  0  0  0  0  0
   -3.9070   17.5470  -33.0800 C   0  0  0  0  0  0  0  0  0  0  0  0
   -4.2530   16.8350  -34.3950 C   0  0  0  0  0  0  0  0  0  0  0  0
   -5.1630   14.1540  -32.9930 C   0  0  0  0  0  0  0  0  0  0  0  0
    0.0470   12.2406  -32.4182 H   0  0  0  0  0  0  0  0  0  0  0  0
   -0.4459   11.4824  -33.9702 H   0  0  0  0  0  0  0  0  0  0  0  0
    0.3506   13.0924  -33.9702 H   0  0  0  0  0  0  0  0  0  0  0  0
   -2.3920   12.3420  -33.4440 H   0  0  0  0  0  0  0  0  0  0  0  0
   -1.9640   15.0680  -34.0013 H   0  0  0  0  0  0  0  0  0  0  0  0
   -0.9021   14.0616  -35.0436 H   0  0  0  0  0  0  0  0  0  0  0  0
   -2.6779   13.7911  -35.0436 H   0  0  0  0  0  0  0  0  0  0  0  0
   -0.9142   13.5227  -31.4000 H   0  0  0  0  0  0  0  0  0  0  0  0
   -1.9449   14.8110  -32.1608 H   0  0  0  0  0  0  0  0  0  0  0  0
   -2.7158   12.6393  -30.3598 H   0  0  0  0  0  0  0  0  0  0  0  0
   -3.6563   14.0728  -30.9227 H   0  0  0  0  0  0  0  0  0  0  0  0
   -5.0646   10.8931  -34.0145 H   0  0  0  0  0  0  0  0  0  0  0  0
   -6.7407   11.7738  -35.6381 H   0  0  0  0  0  0  0  0  0  0  0  0
   -7.4081   14.1734  -35.5743 H   0  0  0  0  0  0  0  0  0  0  0  0
   -7.5806   16.1753  -34.1721 H   0  0  0  0  0  0  0  0  0  0  0  0
   -6.4205   16.4541  -32.8142 H   0  0  0  0  0  0  0  0  0  0  0  0
   -5.5891   18.8474  -35.6188 H   0  0  0  0  0  0  0  0  0  0  0  0
   -7.2102   18.3639  -34.9454 H   0  0  0  0  0  0  0  0  0  0  0  0
   -6.0054   20.1924  -33.6583 H   0  0  0  0  0  0  0  0  0  0  0  0
   -6.4927   18.7469  -32.7007 H   0  0  0  0  0  0  0  0  0  0  0  0
   -5.5707   20.7643  -31.5303 H   0  0  0  0  0  0  0  0  0  0  0  0
   -0.6023   21.0553  -31.7123 H   0  0  0  0  0  0  0  0  0  0  0  0
   -4.3503   24.5516  -28.8087 H   0  0  0  0  0  0  0  0  0  0  0  0
   -6.1740   22.4585  -29.3800 H   0  0  0  0  0  0  0  0  0  0  0  0
   -7.3361   25.0309  -29.6929 H   0  0  0  0  0  0  0  0  0  0  0  0
   -5.9970   25.6685  -30.1561 H   0  0  0  0  0  0  0  0  0  0  0  0
   -7.6587   23.3113  -31.6790 H   0  0  0  0  0  0  0  0  0  0  0  0
   -6.3753   23.6504  -32.4871 H   0  0  0  0  0  0  0  0  0  0  0  0
   -2.8139   17.5814  -32.9620 H   0  0  0  0  0  0  0  0  0  0  0  0
   -4.3575   16.9940  -32.2426 H   0  0  0  0  0  0  0  0  0  0  0  0
   -3.6674   17.2895  -35.2077 H   0  0  0  0  0  0  0  0  0  0  0  0
   -4.0122   15.7686  -34.2729 H   0  0  0  0  0  0  0  0  0  0  0  0
   -4.7188   14.8291  -32.2467 H   0  0  0  0  0  0  0  0  0  0  0  0
  1  2  1  0
  2  3  1  0
  2  4  1  0
  4  5  1  0
  5  6  1  0
  6  7  1  0
  7  8  2  0
  8  9  1  0
  9 10  2  0
 10 11  1  0
 11 12  1  0
 12 13  1  0
 13 14  1  0
 14 15  1  0
 15 16  1  0
 16 17  1  0
 17 18  2  0
 18 19  1  0
 19 20  2  0
 20 21  1  0
 21 22  2  0
 22 23  1  0
 20 24  1  0
 24 25  2  0
 24 26  1  0
 26 27  1  0
 27 28  2  0
 27 29  1  0
 26 30  2  0
 30 31  1  0
 31 32  1  0
 32 33  1  0
 33 34  1  0
 16 35  1  0
 35 36  1  0
 11 37  2  0
 37  7  1  0
 36 13  1  0
 22 17  1  0
 34 32  1  0
 31 19  1  0
  1 38  1  0
  1 39  1  0
  1 40  1  0
  2 41  1  0
  3 42  1  0
  3 43  1  0
  3 44  1  0
  4 45  1  0
  4 46  1  0
  5 47  1  0
  5 48  1  0
  8 49  1  0
  9 50  1  0
 10 51  1  0
 12 52  1  0
 12 53  1  0
 14 54  1  0
 14 55  1  0
 15 56  1  0
 15 57  1  0
 18 58  1  0
 21 59  1  0
 30 60  1  0
 32 61  1  0
 33 62  1  0
 33 63  1  0
 34 64  1  0
 34 65  1  0
 35 66  1  0
 35 67  1  0
 36 68  1  0
 36 69  1  0
 37 70  1  0
M  CHG  2   2   1  29  -1
M  END
>  <UniqueID>  (44) 
44

>  <SMILES>  (44) 
C[NH+](C)CCOc1cccc(CN2CCN(c3cc4c(cc3F)c(=O)c(C(=O)[O-])cn4C3CC3)CC2)c1

>  <Energy>  (44) 
382.0855990883411

>  <Genealogy>  (44) 
C[NH+](C)CCOc1cccc(CN2CCN(c3cc4c(cc3F)c(=O)c(C(=O)[O-])cn4C3CC3)CC2)c1 (protonated)
C[NH+](C)CCOc1cccc(CN2CCN(c3cc4c(cc3F)c(=O)c(C(=O)[O-])cn4C3CC3)CC2)c1 (3D coordinates assigned)
C[NH+](C)CCOc1cccc(CN2CCN(c3cc4c(cc3F)c(=O)c(C(=O)[O-])cn4C3CC3)CC2)c1 (nonaromatic ring conformer: 382.0855990883411 kcal/mol)

>  <smiles>  (44) 
CN(C)CCOc1cccc(CN2CCN(c3cc4c(cc3F)c(=O)c(C(=O)O)cn4C3CC3)CC2)c1

>  <score_type>  (44) 
oracle

>  <origin>  (44) 
adg

>  <m_score__min__energy>  (44) 
-9.6400000000000006

>  <m_primary>  (44) 
energy

$$$$
45:0
     RDKit          3D

 41 41  0  0  0  0  0  0  0  0999 V2000
   -0.4510   22.7010  -25.3020 C   0  0  0  0  0  0  0  0  0  0  0  0
   -0.3900   23.9840  -24.4800 C   0  0  0  0  0  0  0  0  0  0  0  0
   -1.2960   24.9410  -24.9980 O   0  0  0  0  0  0  0  0  0  0  0  0
   -0.6110   26.1180  -25.3760 C   0  0  0  0  0  0  0  0  0  0  0  0
   -1.2520   26.7090  -26.6350 C   0  0  0  0  0  0  0  0  0  0  0  0
   -0.5530   26.2530  -27.9250 C   0  0  0  0  0  0  0  0  0  0  0  0
   -1.5270   25.8480  -28.9350 N   0  0  0  0  0  0  0  0  0  0  0  0
   -2.0730   24.5280  -29.0270 C   0  0  0  0  0  0  0  0  0  0  0  0
   -1.6410   23.6170  -28.2730 O   0  0  0  0  0  0  0  0  0  0  0  0
   -3.1290   24.2570  -30.0220 C   0  0  0  0  0  0  0  0  0  0  0  0
   -3.3870   23.0590  -30.3110 O   0  0  0  0  0  0  0  0  0  0  0  0
   -3.8630   25.2890  -30.7000 N   0  0  0  0  0  0  0  0  0  0  0  0
   -5.2430   25.7080  -30.4690 C   0  0  0  0  0  0  0  0  0  0  0  0
   -6.2220   24.5330  -30.5540 C   0  0  0  0  0  0  0  0  0  0  0  0
   -6.2790   24.0120  -31.8840 O   0  0  0  0  0  0  0  0  0  0  0  0
   -6.0850   22.6710  -32.2600 C   0  0  0  0  0  0  0  0  0  0  0  0
   -4.8410   22.1790  -32.7090 C   0  0  0  0  0  0  0  0  0  0  0  0
   -4.7010   20.8360  -33.0700 C   0  0  0  0  0  0  0  0  0  0  0  0
   -5.7950   19.9740  -32.9980 C   0  0  0  0  0  0  0  0  0  0  0  0
   -7.0350   20.4520  -32.5680 C   0  0  0  0  0  0  0  0  0  0  0  0
   -7.1830   21.7960  -32.2050 C   0  0  0  0  0  0  0  0  0  0  0  0
   -8.7530   22.3690  -31.6640 Cl  0  0  0  0  0  0  0  0  0  0  0  0
   -0.4922   21.8341  -24.6261 H   0  0  0  0  0  0  0  0  0  0  0  0
   -1.3495   22.7144  -25.9364 H   0  0  0  0  0  0  0  0  0  0  0  0
    0.4447   22.6291  -25.9364 H   0  0  0  0  0  0  0  0  0  0  0  0
   -0.6559   23.7598  -23.4364 H   0  0  0  0  0  0  0  0  0  0  0  0
    0.6301   24.3928  -24.5285 H   0  0  0  0  0  0  0  0  0  0  0  0
   -0.6673   26.8519  -24.5585 H   0  0  0  0  0  0  0  0  0  0  0  0
    0.4415   25.8751  -25.5839 H   0  0  0  0  0  0  0  0  0  0  0  0
   -2.3052   26.3940  -26.6750 H   0  0  0  0  0  0  0  0  0  0  0  0
   -1.1573   27.8032  -26.5742 H   0  0  0  0  0  0  0  0  0  0  0  0
    0.0500   27.0839  -28.3200 H   0  0  0  0  0  0  0  0  0  0  0  0
    0.0864   25.3894  -27.6897 H   0  0  0  0  0  0  0  0  0  0  0  0
   -5.3145   26.1580  -29.4678 H   0  0  0  0  0  0  0  0  0  0  0  0
   -5.5133   26.4324  -31.2514 H   0  0  0  0  0  0  0  0  0  0  0  0
   -5.8909   23.7380  -29.8696 H   0  0  0  0  0  0  0  0  0  0  0  0
   -7.2240   24.8892  -30.2727 H   0  0  0  0  0  0  0  0  0  0  0  0
   -3.9767   22.8562  -32.7753 H   0  0  0  0  0  0  0  0  0  0  0  0
   -3.7260   20.4582  -33.4116 H   0  0  0  0  0  0  0  0  0  0  0  0
   -5.6812   18.9169  -33.2801 H   0  0  0  0  0  0  0  0  0  0  0  0
   -7.8971   19.7709  -32.5145 H   0  0  0  0  0  0  0  0  0  0  0  0
  1  2  1  0
  2  3  1  0
  3  4  1  0
  4  5  1  0
  5  6  1  0
  6  7  1  0
  7  8  1  0
  8  9  2  0
  8 10  1  0
 10 11  2  0
 10 12  1  0
 12 13  1  0
 13 14  1  0
 14 15  1  0
 15 16  1  0
 16 17  2  0
 17 18  1  0
 18 19  2  0
 19 20  1  0
 20 21  2  0
 21 22  1  0
 21 16  1  0
  1 23  1  0
  1 24  1  0
  1 25  1  0
  2 26  1  0
  2 27  1  0
  4 28  1  0
  4 29  1  0
  5 30  1  0
  5 31  1  0
  6 32  1  0
  6 33  1  0
 13 34  1  0
 13 35  1  0
 14 36  1  0
 14 37  1  0
 17 38  1  0
 18 39  1  0
 19 40  1  0
 20 41  1  0
M  CHG  2   7  -1  12  -1
M  END
>  <UniqueID>  (45) 
45

>  <SMILES>  (45) 
CCOCCC[N-]C(=O)C(=O)[N-]CCOc1ccccc1Cl

>  <Energy>  (45) 
31.52533803790714

>  <Genealogy>  (45) 
CCOCCC[N-]C(=O)C(=O)[N-]CCOc1ccccc1Cl (protonated)
CCOCCC[N-]C(=O)C(=O)[N-]CCOc1ccccc1Cl (3D coordinates assigned)
CCOCCC[N-]C(=O)C(=O)[N-]CCOc1ccccc1Cl (optimized conformer: 31.52533803790714 kcal/mol)

>  <smiles>  (45) 
CCOCCCNC(=O)C(=O)NCCOc1ccccc1Cl

>  <score_type>  (45) 
oracle

>  <origin>  (45) 
adg

>  <m_score__min__energy>  (45) 
-9.6099999999999994

>  <m_primary>  (45) 
energy

$$$$
46:0
     RDKit          3D

 44 46  0  0  0  0  0  0  0  0999 V2000
   -3.9190   15.2820  -34.4770 C   0  0  0  0  0  0  0  0  0  0  0  0
   -3.5100   16.5760  -35.1820 C   0  0  0  0  0  0  0  0  0  0  0  0
   -2.7940   17.5550  -34.2410 C   0  0  0  0  0  0  0  0  0  0  0  0
   -3.7520   18.5350  -33.6110 C   0  0  0  0  0  0  0  0  0  0  0  0
   -3.2790   19.7270  -33.0510 C   0  0  0  0  0  0  0  0  0  0  0  0
   -4.1650   20.6490  -32.4890 C   0  0  0  0  0  0  0  0  0  0  0  0
   -5.5530   20.3960  -32.4720 C   0  0  0  0  0  0  0  0  0  0  0  0
   -6.4780   21.3140  -31.9060 C   0  0  0  0  0  0  0  0  0  0  0  0
   -6.0200   22.5830  -31.2930 C   0  0  0  0  0  0  0  0  0  0  0  0
   -5.8340   22.6770  -29.9080 C   0  0  0  0  0  0  0  0  0  0  0  0
   -5.3810   23.8730  -29.3470 C   0  0  0  0  0  0  0  0  0  0  0  0
   -5.1180   24.9630  -30.1790 C   0  0  0  0  0  0  0  0  0  0  0  0
   -5.3020   24.8560  -31.5220 N   0  0  0  0  0  0  0  0  0  0  0  0
   -5.7430   23.7020  -32.0920 C   0  0  0  0  0  0  0  0  0  0  0  0
   -7.8630   21.0250  -31.9500 C   0  0  0  0  0  0  0  0  0  0  0  0
   -8.8300   21.9210  -31.3740 N   0  0  0  0  0  0  0  0  0  0  0  0
   -9.1490   23.1930  -32.0250 C   0  0  0  0  0  0  0  0  0  0  0  0
   -9.5080   21.5490  -30.1330 C   0  0  0  0  0  0  0  0  0  0  0  0
   -8.3100   19.8400  -32.5470 C   0  0  0  0  0  0  0  0  0  0  0  0
   -7.4050   18.9320  -33.0910 C   0  0  0  0  0  0  0  0  0  0  0  0
   -6.0300   19.1970  -33.0590 C   0  0  0  0  0  0  0  0  0  0  0  0
   -5.1300   18.2780  -33.6200 C   0  0  0  0  0  0  0  0  0  0  0  0
   -3.8730   15.4276  -33.3877 H   0  0  0  0  0  0  0  0  0  0  0  0
   -4.9455   15.0145  -34.7681 H   0  0  0  0  0  0  0  0  0  0  0  0
   -3.2327   14.4731  -34.7681 H   0  0  0  0  0  0  0  0  0  0  0  0
   -2.8339   16.3268  -36.0132 H   0  0  0  0  0  0  0  0  0  0  0  0
   -4.4270   17.0663  -35.5408 H   0  0  0  0  0  0  0  0  0  0  0  0
   -2.2964   16.9825  -33.4444 H   0  0  0  0  0  0  0  0  0  0  0  0
   -2.0651   18.1259  -34.8349 H   0  0  0  0  0  0  0  0  0  0  0  0
   -2.1998   19.9398  -33.0534 H   0  0  0  0  0  0  0  0  0  0  0  0
   -3.7766   21.5822  -32.0551 H   0  0  0  0  0  0  0  0  0  0  0  0
   -6.0443   21.8107  -29.2635 H   0  0  0  0  0  0  0  0  0  0  0  0
   -5.2328   23.9555  -28.2602 H   0  0  0  0  0  0  0  0  0  0  0  0
   -4.7614   25.9098  -29.7473 H   0  0  0  0  0  0  0  0  0  0  0  0
   -5.8826   23.6465  -33.1817 H   0  0  0  0  0  0  0  0  0  0  0  0
   -9.3411   23.9588  -31.2591 H   0  0  0  0  0  0  0  0  0  0  0  0
   -8.3016   23.5064  -32.6525 H   0  0  0  0  0  0  0  0  0  0  0  0
  -10.0440   23.0694  -32.6525 H   0  0  0  0  0  0  0  0  0  0  0  0
   -8.9064   21.8791  -29.2733 H   0  0  0  0  0  0  0  0  0  0  0  0
  -10.4959   22.0314  -30.0961 H   0  0  0  0  0  0  0  0  0  0  0  0
   -9.6318   20.4566  -30.0961 H   0  0  0  0  0  0  0  0  0  0  0  0
   -9.3878   19.6239  -32.5868 H   0  0  0  0  0  0  0  0  0  0  0  0
   -7.7721   18.0014  -33.5484 H   0  0  0  0  0  0  0  0  0  0  0  0
   -5.5088   17.3487  -34.0703 H   0  0  0  0  0  0  0  0  0  0  0  0
  1  2  1  0
  2  3  1  0
  3  4  1  0
  4  5  2  0
  5  6  1  0
  6  7  2  0
  7  8  1  0
  8  9  1  0
  9 10  2  0
 10 11  1  0
 11 12  2  0
 12 13  1  0
 13 14  2  0
  8 15  2  0
 15 16  1  0
 16 17  1  0
 16 18  1  0
 15 19  1  0
 19 20  2  0
 20 21  1  0
 21 22  2  0
 22  4  1  0
 21  7  1  0
 14  9  1  0
  1 23  1  0
  1 24  1  0
  1 25  1  0
  2 26  1  0
  2 27  1  0
  3 28  1  0
  3 29  1  0
  5 30  1  0
  6 31  1  0
 10 32  1  0
 11 33  1  0
 12 34  1  0
 14 35  1  0
 17 36  1  0
 17 37  1  0
 17 38  1  0
 18 39  1  0
 18 40  1  0
 18 41  1  0
 19 42  1  0
 20 43  1  0
 22 44  1  0
M  END
>  <UniqueID>  (46) 
46

>  <SMILES>  (46) 
CCCc1ccc2c(-c3cccnc3)c(N(C)C)ccc2c1

>  <Energy>  (46) 
56.98556573377933

>  <Genealogy>  (46) 
CCCc1ccc2c(-c3cccnc3)c(N(C)C)ccc2c1 (3D coordinates assigned)
CCCc1ccc2c(-c3cccnc3)c(N(C)C)ccc2c1 (optimized conformer: 56.98556573377933 kcal/mol)

>  <smiles>  (46) 
CCCc1ccc2c(-c3cccnc3)c(N(C)C)ccc2c1

>  <score_type>  (46) 
oracle

>  <origin>  (46) 
adg

>  <m_score__min__energy>  (46) 
-7.3899999999999997

>  <m_primary>  (46) 
energy

$$$$
47:0
     RDKit          3D

 41 44  0  0  0  0  0  0  0  0999 V2000
   -6.4330   25.6300  -29.4400 C   0  0  0  0  0  0  0  0  0  0  0  0
   -5.8120   24.6320  -30.3060 N   0  0  0  0  0  0  0  0  0  0  0  0
   -4.5010   24.4990  -30.6280 C   0  0  0  0  0  0  0  0  0  0  0  0
   -3.6040   25.3000  -30.2520 O   0  0  0  0  0  0  0  0  0  0  0  0
   -4.2570   23.4350  -31.3740 O   0  0  0  0  0  0  0  0  0  0  0  0
   -5.4190   22.8470  -31.5390 C   0  0  0  0  0  0  0  0  0  0  0  0
   -5.7090   21.6780  -32.2350 C   0  0  0  0  0  0  0  0  0  0  0  0
   -7.0510   21.2370  -32.2480 C   0  0  0  0  0  0  0  0  0  0  0  0
   -7.4880   19.7520  -33.0860 S   0  0  0  0  0  0  0  0  0  0  0  0
   -6.8570   19.7480  -34.4520 O   0  0  0  0  0  0  0  0  0  0  0  0
   -8.9830   19.7140  -33.2510 O   0  0  0  0  0  0  0  0  0  0  0  0
   -6.9500   18.3750  -32.1440 N   0  0  1  0  0  0  0  0  0  0  0  0
   -7.2550   17.0870  -32.7970 C   0  0  0  0  0  0  0  0  0  0  0  0
   -6.4750   16.8840  -34.1040 C   0  0  0  0  0  0  0  0  0  0  0  0
   -5.0350   17.3090  -33.9900 C   0  0  0  0  0  0  0  0  0  0  0  0
   -4.1360   16.9610  -35.0110 C   0  0  0  0  0  0  0  0  0  0  0  0
   -2.8110   17.3980  -34.9630 C   0  0  0  0  0  0  0  0  0  0  0  0
   -2.3720   18.1900  -33.9000 C   0  0  0  0  0  0  0  0  0  0  0  0
   -3.2600   18.5510  -32.8850 C   0  0  0  0  0  0  0  0  0  0  0  0
   -4.5990   18.1300  -32.9280 C   0  0  0  0  0  0  0  0  0  0  0  0
   -5.5220   18.4800  -31.7860 C   0  0  0  0  0  0  0  0  0  0  0  0
   -8.0470   21.9730  -31.5580 C   0  0  0  0  0  0  0  0  0  0  0  0
   -7.7170   23.1530  -30.8650 C   0  0  0  0  0  0  0  0  0  0  0  0
   -6.3840   23.5620  -30.8850 C   0  0  0  0  0  0  0  0  0  0  0  0
   -6.2640   25.3583  -28.3876 H   0  0  0  0  0  0  0  0  0  0  0  0
   -5.9889   26.6163  -29.6400 H   0  0  0  0  0  0  0  0  0  0  0  0
   -7.5140   25.6673  -29.6400 H   0  0  0  0  0  0  0  0  0  0  0  0
   -4.9205   21.1163  -32.7573 H   0  0  0  0  0  0  0  0  0  0  0  0
   -7.4970   18.4040  -31.2520 H   0  0  0  0  0  0  0  0  0  0  0  0
   -6.9983   16.2721  -32.1042 H   0  0  0  0  0  0  0  0  0  0  0  0
   -8.3262   17.0874  -33.0469 H   0  0  0  0  0  0  0  0  0  0  0  0
   -6.5076   15.8176  -34.3719 H   0  0  0  0  0  0  0  0  0  0  0  0
   -6.9475   17.5102  -34.8751 H   0  0  0  0  0  0  0  0  0  0  0  0
   -4.4775   16.3409  -35.8529 H   0  0  0  0  0  0  0  0  0  0  0  0
   -2.1113   17.1179  -35.7642 H   0  0  0  0  0  0  0  0  0  0  0  0
   -1.3264   18.5295  -33.8624 H   0  0  0  0  0  0  0  0  0  0  0  0
   -2.9084   19.1694  -32.0459 H   0  0  0  0  0  0  0  0  0  0  0  0
   -5.3194   17.7952  -30.9493 H   0  0  0  0  0  0  0  0  0  0  0  0
   -5.3273   19.5284  -31.5158 H   0  0  0  0  0  0  0  0  0  0  0  0
   -9.0883   21.6184  -31.5642 H   0  0  0  0  0  0  0  0  0  0  0  0
   -8.4827   23.7314  -30.3273 H   0  0  0  0  0  0  0  0  0  0  0  0
  1  2  1  0
  2  3  1  0
  3  4  2  0
  3  5  1  0
  5  6  1  0
  6  7  2  0
  7  8  1  0
  8  9  1  0
  9 10  2  0
  9 11  2  0
  9 12  1  0
 12 13  1  0
 13 14  1  0
 14 15  1  0
 15 16  2  0
 16 17  1  0
 17 18  2  0
 18 19  1  0
 19 20  2  0
 20 21  1  0
  8 22  2  0
 22 23  1  0
 23 24  2  0
 24  2  1  0
 24  6  1  0
 21 12  1  0
 20 15  1  0
  1 25  1  0
  1 26  1  0
  1 27  1  0
  7 28  1  0
 12 29  1  1
 13 30  1  0
 13 31  1  0
 14 32  1  0
 14 33  1  0
 16 34  1  0
 17 35  1  0
 18 36  1  0
 19 37  1  0
 21 38  1  0
 21 39  1  0
 22 40  1  0
 23 41  1  0
M  CHG  1  12   1
M  END
>  <UniqueID>  (47) 
47

>  <SMILES>  (47) 
Cn1c(=O)oc2cc(S(=O)(=O)[N@H+]3CCc4ccccc4C3)ccc21

>  <Energy>  (47) 
89.56107538949895

>  <Genealogy>  (47) 
Cn1c(=O)oc2cc(S(=O)(=O)[NH+]3CCc4ccccc4C3)ccc21 (protonated)
Cn1c(=O)oc2cc(S(=O)(=O)[N@H+]3CCc4ccccc4C3)ccc21 (chirality)
Cn1c(=O)oc2cc(S(=O)(=O)[N@H+]3CCc4ccccc4C3)ccc21 (3D coordinates assigned)
Cn1c(=O)oc2cc(S(=O)(=O)[N@H+]3CCc4ccccc4C3)ccc21 (nonaromatic ring conformer: 89.56107538949895 kcal/mol)

>  <smiles>  (47) 
Cn1c(=O)oc2cc(S(=O)(=O)N3CCc4ccccc4C3)ccc21

>  <score_type>  (47) 
oracle

>  <origin>  (47) 
adg

>  <m_score__min__energy>  (47) 
-8.9199999999999999

>  <m_primary>  (47) 
energy

$$$$
48:0
     RDKit          3D

 37 38  0  0  0  0  0  0  0  0999 V2000
   -7.2030   25.6410  -29.3500 C   0  0  0  0  0  0  0  0  0  0  0  0
   -6.0530   24.7640  -29.8610 C   0  0  2  0  0  0  0  0  0  0  0  0
   -5.1180   25.5680  -30.7870 C   0  0  0  0  0  0  0  0  0  0  0  0
   -3.7140   25.3000  -30.4780 N   0  0  0  0  0  0  0  0  0  0  0  0
   -3.1260   24.0250  -30.1800 C   0  0  0  0  0  0  0  0  0  0  0  0
   -3.2450   23.0980  -31.0250 O   0  0  0  0  0  0  0  0  0  0  0  0
   -2.4120   23.7540  -28.9130 C   0  0  0  0  0  0  0  0  0  0  0  0
   -2.5170   22.4980  -28.2900 C   0  0  0  0  0  0  0  0  0  0  0  0
   -1.8360   22.2420  -27.0960 C   0  0  0  0  0  0  0  0  0  0  0  0
   -1.0250   23.2260  -26.5270 C   0  0  0  0  0  0  0  0  0  0  0  0
   -0.8810   24.4630  -27.1590 C   0  0  0  0  0  0  0  0  0  0  0  0
   -1.5620   24.7270  -28.3520 C   0  0  0  0  0  0  0  0  0  0  0  0
   -1.4100   25.9390  -28.9450 F   0  0  0  0  0  0  0  0  0  0  0  0
   -6.5970   23.5200  -30.5400 C   0  0  0  0  0  0  0  0  0  0  0  0
   -6.1300   23.1450  -31.8080 C   0  0  0  0  0  0  0  0  0  0  0  0
   -6.6120   21.9890  -32.4200 C   0  0  0  0  0  0  0  0  0  0  0  0
   -7.5610   21.1960  -31.7590 C   0  0  0  0  0  0  0  0  0  0  0  0
   -8.1150   19.9700  -32.4390 C   0  0  0  0  0  0  0  0  0  0  0  0
   -7.2900   19.5600  -33.4700 F   0  0  0  0  0  0  0  0  0  0  0  0
   -8.2240   18.9470  -31.5160 F   0  0  0  0  0  0  0  0  0  0  0  0
   -9.3670   20.2400  -32.9640 F   0  0  0  0  0  0  0  0  0  0  0  0
   -8.0270   21.5890  -30.5360 N   0  0  0  0  0  0  0  0  0  0  0  0
   -7.5640   22.7100  -29.9200 C   0  0  0  0  0  0  0  0  0  0  0  0
   -7.2032   25.6411  -28.2500 H   0  0  0  0  0  0  0  0  0  0  0  0
   -7.0706   26.6696  -29.7168 H   0  0  0  0  0  0  0  0  0  0  0  0
   -8.1599   25.2412  -29.7168 H   0  0  0  0  0  0  0  0  0  0  0  0
   -5.4498   24.4350  -29.0020 H   0  0  0  0  0  0  0  0  0  0  0  0
   -5.3164   25.2852  -31.8313 H   0  0  0  0  0  0  0  0  0  0  0  0
   -5.3113   26.6400  -30.6336 H   0  0  0  0  0  0  0  0  0  0  0  0
   -3.1384   21.7123  -28.7445 H   0  0  0  0  0  0  0  0  0  0  0  0
   -1.9393   21.2636  -26.6040 H   0  0  0  0  0  0  0  0  0  0  0  0
   -0.4997   23.0269  -25.5813 H   0  0  0  0  0  0  0  0  0  0  0  0
   -0.2301   25.2320  -26.7174 H   0  0  0  0  0  0  0  0  0  0  0  0
   -5.3806   23.7653  -32.3215 H   0  0  0  0  0  0  0  0  0  0  0  0
   -6.2494   21.7000  -33.4175 H   0  0  0  0  0  0  0  0  0  0  0  0
   -8.7620   21.0300  -30.0480 H   0  0  0  0  0  0  0  0  0  0  0  0
   -7.9500   22.9851  -28.9274 H   0  0  0  0  0  0  0  0  0  0  0  0
  1  2  1  0
  2  3  1  0
  3  4  1  0
  4  5  1  0
  5  6  2  0
  5  7  1  0
  7  8  2  0
  8  9  1  0
  9 10  2  0
 10 11  1  0
 11 12  2  0
 12 13  1  0
  2 14  1  0
 14 15  2  0
 15 16  1  0
 16 17  2  0
 17 18  1  0
 18 19  1  0
 18 20  1  0
 18 21  1  0
 17 22  1  0
 22 23  2  0
 12  7  1  0
 23 14  1  0
  1 24  1  0
  1 25  1  0
  1 26  1  0
  2 27  1  1
  3 28  1  0
  3 29  1  0
  8 30  1  0
  9 31  1  0
 10 32  1  0
 11 33  1  0
 15 34  1  0
 16 35  1  0
 22 36  1  0
 23 37  1  0
M  CHG  2   4  -1  22   1
M  END
>  <UniqueID>  (48) 
48

>  <SMILES>  (48) 
C[C@H](C[N-]C(=O)c1ccccc1F)c1ccc(C(F)(F)F)[nH+]c1

>  <Energy>  (48) 
36.785114528292034

>  <Genealogy>  (48) 
CC(C[N-]C(=O)c1ccccc1F)c1ccc(C(F)(F)F)[nH+]c1 (protonated)
C[C@H](C[N-]C(=O)c1ccccc1F)c1ccc(C(F)(F)F)[nH+]c1 (chirality)
C[C@H](C[N-]C(=O)c1ccccc1F)c1ccc(C(F)(F)F)[nH+]c1 (3D coordinates assigned)
C[C@H](C[N-]C(=O)c1ccccc1F)c1ccc(C(F)(F)F)[nH+]c1 (optimized conformer: 36.785114528292034 kcal/mol)

>  <smiles>  (48) 
CC(CNC(=O)c1ccccc1F)c1ccc(C(F)(F)F)nc1

>  <score_type>  (48) 
oracle

>  <origin>  (48) 
adg

>  <m_score__min__energy>  (48) 
-8.3000000000000007

>  <m_primary>  (48) 
energy

$$$$
