0:0
     RDKit          3D

 57 59  0  0  0  0  0  0  0  0999 V2000
    0.5140   25.6570  -36.1250 C   0  0  0  0  0  0  0  0  0  0  0  0
    1.7130   24.8910  -35.5440 C   0  0  0  0  0  0  0  0  0  0  0  0
    1.4790   23.4380  -35.3390 N   0  0  0  0  0  0  0  0  0  0  0  0
    2.6640   22.6300  -35.6820 C   0  0  0  0  0  0  0  0  0  0  0  0
    0.2650   22.9060  -36.0010 C   0  0  0  0  0  0  0  0  0  0  0  0
    0.2500   21.3660  -36.0510 C   0  0  0  0  0  0  0  0  0  0  0  0
    0.2150   20.7230  -34.6590 C   0  0  0  0  0  0  0  0  0  0  0  0
   -1.1460   20.8070  -34.1030 N   0  0  0  0  0  0  0  0  0  0  0  0
   -1.1250   21.1050  -32.6660 C   0  0  0  0  0  0  0  0  0  0  0  0
   -2.5110   21.5500  -32.1950 C   0  0  0  0  0  0  0  0  0  0  0  0
   -3.4890   21.4590  -33.2810 N   0  0  0  0  0  0  0  0  0  0  0  0
   -4.8200   20.9920  -33.0200 C   0  0  0  0  0  0  0  0  0  0  0  0
   -5.1890   19.6820  -33.3630 C   0  0  0  0  0  0  0  0  0  0  0  0
   -4.2400   18.7790  -33.8890 C   0  0  0  0  0  0  0  0  0  0  0  0
   -4.5940   17.4650  -34.1800 C   0  0  0  0  0  0  0  0  0  0  0  0
   -5.8900   17.0240  -33.9360 C   0  0  0  0  0  0  0  0  0  0  0  0
   -6.8460   17.9010  -33.4200 C   0  0  0  0  0  0  0  0  0  0  0  0
   -6.5260   19.2550  -33.1480 C   0  0  0  0  0  0  0  0  0  0  0  0
   -7.4700   20.1450  -32.6660 N   0  0  0  0  0  0  0  0  0  0  0  0
   -8.9070   19.7970  -32.7120 C   0  0  0  0  0  0  0  0  0  0  0  0
   -7.0700   21.3670  -32.1590 C   0  0  0  0  0  0  0  0  0  0  0  0
   -7.9530   22.1940  -31.4160 C   0  0  0  0  0  0  0  0  0  0  0  0
   -7.5480   23.4440  -30.9510 C   0  0  0  0  0  0  0  0  0  0  0  0
   -6.2570   23.8990  -31.1990 C   0  0  0  0  0  0  0  0  0  0  0  0
   -5.3560   23.0960  -31.8940 C   0  0  0  0  0  0  0  0  0  0  0  0
   -5.7410   21.8210  -32.3610 C   0  0  0  0  0  0  0  0  0  0  0  0
   -0.1025   26.0508  -35.3035 H   0  0  0  0  0  0  0  0  0  0  0  0
    0.8767   26.4911  -36.7437 H   0  0  0  0  0  0  0  0  0  0  0  0
   -0.0904   24.9773  -36.7437 H   0  0  0  0  0  0  0  0  0  0  0  0
    2.5616   25.0077  -36.2341 H   0  0  0  0  0  0  0  0  0  0  0  0
    1.9036   25.3192  -34.5489 H   0  0  0  0  0  0  0  0  0  0  0  0
    3.1579   22.2932  -34.7586 H   0  0  0  0  0  0  0  0  0  0  0  0
    2.3530   21.7550  -36.2716 H   0  0  0  0  0  0  0  0  0  0  0  0
    3.3650   23.2391  -36.2716 H   0  0  0  0  0  0  0  0  0  0  0  0
   -0.6198   23.2500  -35.4453 H   0  0  0  0  0  0  0  0  0  0  0  0
    0.2590   23.2752  -37.0372 H   0  0  0  0  0  0  0  0  0  0  0  0
   -0.6404   21.0418  -36.6097 H   0  0  0  0  0  0  0  0  0  0  0  0
    1.1808   21.0429  -36.5401 H   0  0  0  0  0  0  0  0  0  0  0  0
    0.5126   19.6669  -34.7373 H   0  0  0  0  0  0  0  0  0  0  0  0
    0.9112   21.2569  -33.9955 H   0  0  0  0  0  0  0  0  0  0  0  0
   -1.6620   21.5750  -34.5940 H   0  0  0  0  0  0  0  0  0  0  0  0
   -0.8263   20.2024  -32.1127 H   0  0  0  0  0  0  0  0  0  0  0  0
   -0.4064   21.9167  -32.4797 H   0  0  0  0  0  0  0  0  0  0  0  0
   -2.8336   20.9037  -31.3654 H   0  0  0  0  0  0  0  0  0  0  0  0
   -2.4494   22.5978  -31.8660 H   0  0  0  0  0  0  0  0  0  0  0  0
   -3.1970   21.5900  -34.2740 H   0  0  0  0  0  0  0  0  0  0  0  0
   -3.2094   19.1177  -34.0709 H   0  0  0  0  0  0  0  0  0  0  0  0
   -3.8487   16.7753  -34.6030 H   0  0  0  0  0  0  0  0  0  0  0  0
   -6.1630   15.9802  -34.1503 H   0  0  0  0  0  0  0  0  0  0  0  0
   -7.8642   17.5353  -33.2212 H   0  0  0  0  0  0  0  0  0  0  0  0
   -9.2945   19.7032  -31.6868 H   0  0  0  0  0  0  0  0  0  0  0  0
   -9.4589   20.5874  -33.2417 H   0  0  0  0  0  0  0  0  0  0  0  0
   -9.0361   18.8416  -33.2417 H   0  0  0  0  0  0  0  0  0  0  0  0
   -8.9735   21.8425  -31.2038 H   0  0  0  0  0  0  0  0  0  0  0  0
   -8.2517   24.0729  -30.3859 H   0  0  0  0  0  0  0  0  0  0  0  0
   -5.9476   24.8938  -30.8459 H   0  0  0  0  0  0  0  0  0  0  0  0
   -4.3345   23.4590  -32.0807 H   0  0  0  0  0  0  0  0  0  0  0  0
  1  2  1  0
  2  3  1  0
  3  4  1  0
  3  5  1  0
  5  6  1  0
  6  7  1  0
  7  8  1  0
  8  9  1  0
  9 10  1  0
 10 11  1  0
 11 12  1  0
 12 13  2  0
 13 14  1  0
 14 15  2  0
 15 16  1  0
 16 17  2  0
 17 18  1  0
 18 19  2  0
 19 20  1  0
 19 21  1  0
 21 22  2  0
 22 23  1  0
 23 24  2  0
 24 25  1  0
 25 26  2  0
 26 12  1  0
 18 13  1  0
 26 21  1  0
  1 27  1  0
  1 28  1  0
  1 29  1  0
  2 30  1  0
  2 31  1  0
  4 32  1  0
  4 33  1  0
  4 34  1  0
  5 35  1  0
  5 36  1  0
  6 37  1  0
  6 38  1  0
  7 39  1  0
  7 40  1  0
  8 41  1  0
  9 42  1  0
  9 43  1  0
 10 44  1  0
 10 45  1  0
 11 46  1  0
 14 47  1  0
 15 48  1  0
 16 49  1  0
 17 50  1  0
 20 51  1  0
 20 52  1  0
 20 53  1  0
 22 54  1  0
 23 55  1  0
 24 56  1  0
 25 57  1  0
M  CHG  1  19   1
M  END
>  <UniqueID>  (1) 
1

>  <SMILES>  (1) 
CCN(C)CCCNCCNc1c2ccccc2[n+](C)c2ccccc12

>  <Energy>  (1) 
80.59371658657855

>  <Genealogy>  (1) 
CCN(C)CCCNCCNc1c2ccccc2[n+](C)c2ccccc12 (3D coordinates assigned)
CCN(C)CCCNCCNc1c2ccccc2[n+](C)c2ccccc12 (optimized conformer: 80.59371658657855 kcal/mol)

>  <smiles>  (1) 
CCN(C)CCCNCCNc1c2ccccc2[n+](C)c2ccccc12

>  <score_type>  (1) 
oracle

>  <origin>  (1) 
adg

>  <m_score__min__energy>  (1) 
-8.75

>  <m_primary>  (1) 
energy

$$$$
1:0
     RDKit          3D

 47 49  0  0  0  0  0  0  0  0999 V2000
    0.7690   23.9460  -36.0470 C   0  0  0  0  0  0  0  0  0  0  0  0
    1.3290   22.7100  -35.3550 C   0  0  0  0  0  0  0  0  0  0  0  0
    0.2320   21.7620  -35.0490 N   0  0  0  0  0  0  0  0  0  0  0  0
    0.2340   20.6460  -36.0150 C   0  0  0  0  0  0  0  0  0  0  0  0
    0.3210   21.2350  -33.6690 C   0  0  0  0  0  0  0  0  0  0  0  0
   -1.0650   21.1510  -32.9920 C   0  0  0  0  0  0  0  0  0  0  0  0
   -2.1910   21.2400  -33.9460 N   0  0  0  0  0  0  0  0  0  0  0  0
   -3.2460   20.2750  -33.6460 C   0  0  0  0  0  0  0  0  0  0  0  0
   -4.5180   20.6850  -33.1420 C   0  0  0  0  0  0  0  0  0  0  0  0
   -4.7770   22.0080  -32.6960 C   0  0  0  0  0  0  0  0  0  0  0  0
   -6.0240   22.3730  -32.1930 C   0  0  0  0  0  0  0  0  0  0  0  0
   -7.0380   21.4350  -32.0920 C   0  0  0  0  0  0  0  0  0  0  0  0
   -8.7310   21.9350  -31.3570 Br  0  0  0  0  0  0  0  0  0  0  0  0
   -6.8180   20.1270  -32.5090 C   0  0  0  0  0  0  0  0  0  0  0  0
   -5.5760   19.7300  -33.0690 C   0  0  0  0  0  0  0  0  0  0  0  0
   -5.3880   18.4440  -33.5280 N   0  0  0  0  0  0  0  0  0  0  0  0
   -6.5570   17.5680  -33.7780 C   0  0  0  0  0  0  0  0  0  0  0  0
   -4.1150   17.9760  -33.7680 C   0  0  0  0  0  0  0  0  0  0  0  0
   -3.8580   16.5880  -33.9100 C   0  0  0  0  0  0  0  0  0  0  0  0
   -2.5850   16.1160  -34.2170 C   0  0  0  0  0  0  0  0  0  0  0  0
   -2.2780   14.2400  -34.4100 Br  0  0  0  0  0  0  0  0  0  0  0  0
   -1.5350   17.0090  -34.3790 C   0  0  0  0  0  0  0  0  0  0  0  0
   -1.7450   18.3740  -34.2040 C   0  0  0  0  0  0  0  0  0  0  0  0
   -3.0270   18.8860  -33.8730 C   0  0  0  0  0  0  0  0  0  0  0  0
    0.4398   24.6727  -35.2897 H   0  0  0  0  0  0  0  0  0  0  0  0
    1.5495   24.3996  -36.6755 H   0  0  0  0  0  0  0  0  0  0  0  0
   -0.0867   23.6583  -36.6755 H   0  0  0  0  0  0  0  0  0  0  0  0
    2.0594   22.2212  -36.0165 H   0  0  0  0  0  0  0  0  0  0  0  0
    1.8192   23.0111  -34.4174 H   0  0  0  0  0  0  0  0  0  0  0  0
    0.2357   19.6900  -35.4708 H   0  0  0  0  0  0  0  0  0  0  0  0
   -0.6643   20.7065  -36.6470 H   0  0  0  0  0  0  0  0  0  0  0  0
    1.1320   20.7097  -36.6470 H   0  0  0  0  0  0  0  0  0  0  0  0
    0.7624   20.2279  -33.7010 H   0  0  0  0  0  0  0  0  0  0  0  0
    0.9454   21.9241  -33.0814 H   0  0  0  0  0  0  0  0  0  0  0  0
   -1.1349   20.1915  -32.4587 H   0  0  0  0  0  0  0  0  0  0  0  0
   -1.1468   22.0117  -32.3120 H   0  0  0  0  0  0  0  0  0  0  0  0
   -2.5830   22.2060  -33.9310 H   0  0  0  0  0  0  0  0  0  0  0  0
   -1.8110   21.1780  -34.9090 H   0  0  0  0  0  0  0  0  0  0  0  0
   -3.9764   22.7605  -32.7487 H   0  0  0  0  0  0  0  0  0  0  0  0
   -6.2039   23.4105  -31.8748 H   0  0  0  0  0  0  0  0  0  0  0  0
   -7.6230   19.3849  -32.4027 H   0  0  0  0  0  0  0  0  0  0  0  0
   -6.9862   17.2464  -32.8176 H   0  0  0  0  0  0  0  0  0  0  0  0
   -7.3148   18.1225  -34.3510 H   0  0  0  0  0  0  0  0  0  0  0  0
   -6.2376   16.6850  -34.3510 H   0  0  0  0  0  0  0  0  0  0  0  0
   -4.6809   15.8707  -33.7748 H   0  0  0  0  0  0  0  0  0  0  0  0
   -0.5348   16.6374  -34.6462 H   0  0  0  0  0  0  0  0  0  0  0  0
   -0.9012   19.0693  -34.3245 H   0  0  0  0  0  0  0  0  0  0  0  0
  1  2  1  0
  2  3  1  0
  3  4  1  0
  3  5  1  0
  5  6  1  0
  6  7  1  0
  7  8  1  0
  8  9  2  0
  9 10  1  0
 10 11  2  0
 11 12  1  0
 12 13  1  0
 12 14  2  0
 14 15  1  0
 15 16  2  0
 16 17  1  0
 16 18  1  0
 18 19  2  0
 19 20  1  0
 20 21  1  0
 20 22  2  0
 22 23  1  0
 23 24  2  0
 24  8  1  0
 15  9  1  0
 24 18  1  0
  1 25  1  0
  1 26  1  0
  1 27  1  0
  2 28  1  0
  2 29  1  0
  4 30  1  0
  4 31  1  0
  4 32  1  0
  5 33  1  0
  5 34  1  0
  6 35  1  0
  6 36  1  0
  7 37  1  0
  7 38  1  0
 10 39  1  0
 11 40  1  0
 14 41  1  0
 17 42  1  0
 17 43  1  0
 17 44  1  0
 19 45  1  0
 22 46  1  0
 23 47  1  0
M  CHG  2   7   1  16   1
M  END
>  <UniqueID>  (2) 
2

>  <SMILES>  (2) 
CCN(C)CC[NH2+]c1c2ccc(Br)cc2[n+](C)c2cc(Br)ccc12

>  <Energy>  (2) 
77.23695360874055

>  <Genealogy>  (2) 
CCN(C)CC[NH2+]c1c2ccc(Br)cc2[n+](C)c2cc(Br)ccc12 (protonated)
CCN(C)CC[NH2+]c1c2ccc(Br)cc2[n+](C)c2cc(Br)ccc12 (3D coordinates assigned)
CCN(C)CC[NH2+]c1c2ccc(Br)cc2[n+](C)c2cc(Br)ccc12 (optimized conformer: 77.23695360874055 kcal/mol)

>  <smiles>  (2) 
CCN(C)CCNc1c2ccc(Br)cc2[n+](C)c2cc(Br)ccc12

>  <score_type>  (2) 
oracle

>  <origin>  (2) 
adg

>  <m_score__min__energy>  (2) 
-7.3200000000000003

>  <m_primary>  (2) 
energy

$$$$
2:0
     RDKit          3D

 85 88  0  0  0  0  0  0  0  0999 V2000
    0.0360   19.4450  -31.9760 C   0  0  0  0  0  0  0  0  0  0  0  0
   -1.3090   18.7620  -32.2460 C   0  0  0  0  0  0  0  0  0  0  0  0
   -1.6030   18.6540  -33.6850 N   0  0  0  0  0  0  0  0  0  0  0  0
   -1.2250   17.3460  -34.2420 C   0  0  0  0  0  0  0  0  0  0  0  0
   -2.3890   16.7590  -35.0350 C   0  0  0  0  0  0  0  0  0  0  0  0
   -3.5720   17.4370  -34.6740 O   0  0  0  0  0  0  0  0  0  0  0  0
   -4.0040   17.0050  -33.4010 C   0  0  0  0  0  0  0  0  0  0  0  0
   -4.5910   18.1990  -32.6410 C   0  0  0  0  0  0  0  0  0  0  0  0
   -4.6850   19.3910  -33.5020 N   0  0  0  0  0  0  0  0  0  0  0  0
   -5.3900   20.4690  -32.8200 C   0  0  0  0  0  0  0  0  0  0  0  0
   -6.7920   20.3330  -32.5780 C   0  0  0  0  0  0  0  0  0  0  0  0
   -7.5010   19.1400  -32.8880 C   0  0  0  0  0  0  0  0  0  0  0  0
   -8.8770   19.0500  -32.7110 C   0  0  0  0  0  0  0  0  0  0  0  0
   -9.5880   20.1260  -32.2030 C   0  0  0  0  0  0  0  0  0  0  0  0
   -8.9170   21.2870  -31.8320 C   0  0  0  0  0  0  0  0  0  0  0  0
   -7.5120   21.4110  -31.9940 C   0  0  0  0  0  0  0  0  0  0  0  0
   -6.8420   22.5250  -31.5460 N   0  0  0  0  0  0  0  0  0  0  0  0
   -7.5950   23.7400  -31.1650 C   0  0  0  0  0  0  0  0  0  0  0  0
   -5.4680   22.5050  -31.4510 C   0  0  0  0  0  0  0  0  0  0  0  0
   -4.8030   23.3800  -30.5610 C   0  0  0  0  0  0  0  0  0  0  0  0
   -3.4080   23.4480  -30.5110 C   0  0  0  0  0  0  0  0  0  0  0  0
   -2.7230   24.2990  -29.6290 O   0  0  0  0  0  0  0  0  0  0  0  0
   -1.8930   23.8540  -28.5580 C   0  0  0  0  0  0  0  0  0  0  0  0
   -1.2350   25.0580  -27.8470 C   0  0  0  0  0  0  0  0  0  0  0  0
   -1.6750   25.2950  -26.4320 N   0  0  0  0  0  0  0  0  0  0  0  0
   -3.1360   25.0470  -26.3180 C   0  0  0  0  0  0  0  0  0  0  0  0
   -1.4230   26.7380  -26.0940 C   0  0  0  0  0  0  0  0  0  0  0  0
   -0.0200   26.9680  -25.4960 C   0  0  0  0  0  0  0  0  0  0  0  0
    0.1610   26.2480  -24.1960 N   0  0  0  0  0  0  0  0  0  0  0  0
   -0.1850   27.1510  -23.0720 C   0  0  0  0  0  0  0  0  0  0  0  0
    1.5880   25.8700  -24.0500 C   0  0  0  0  0  0  0  0  0  0  0  0
   -0.6940   25.0240  -24.1110 C   0  0  0  0  0  0  0  0  0  0  0  0
   -0.9330   24.3860  -25.4940 C   0  0  0  0  0  0  0  0  0  0  0  0
   -2.6660   22.6720  -31.3880 C   0  0  0  0  0  0  0  0  0  0  0  0
   -3.2820   21.7920  -32.2840 C   0  0  0  0  0  0  0  0  0  0  0  0
   -2.4550   21.2810  -33.3300 N   0  0  0  0  0  0  0  0  0  0  0  0
   -4.7010   21.5830  -32.2270 C   0  0  0  0  0  0  0  0  0  0  0  0
    0.1949   19.5257  -30.8905 H   0  0  0  0  0  0  0  0  0  0  0  0
    0.8459   18.8490  -32.4218 H   0  0  0  0  0  0  0  0  0  0  0  0
    0.0326   20.4506  -32.4218 H   0  0  0  0  0  0  0  0  0  0  0  0
   -1.2854   17.7510  -31.8131 H   0  0  0  0  0  0  0  0  0  0  0  0
   -2.0967   19.3776  -31.7872 H   0  0  0  0  0  0  0  0  0  0  0  0
   -2.6250   18.8180  -33.8460 H   0  0  0  0  0  0  0  0  0  0  0  0
   -0.3575   17.4704  -34.9069 H   0  0  0  0  0  0  0  0  0  0  0  0
   -0.9695   16.6635  -33.4181 H   0  0  0  0  0  0  0  0  0  0  0  0
   -2.2040   16.8858  -36.1119 H   0  0  0  0  0  0  0  0  0  0  0  0
   -2.4899   15.6865  -34.8126 H   0  0  0  0  0  0  0  0  0  0  0  0
   -4.7734   16.2275  -33.5170 H   0  0  0  0  0  0  0  0  0  0  0  0
   -3.1529   16.5904  -32.8409 H   0  0  0  0  0  0  0  0  0  0  0  0
   -5.5973   17.9357  -32.2832 H   0  0  0  0  0  0  0  0  0  0  0  0
   -3.9254   18.4332  -31.7971 H   0  0  0  0  0  0  0  0  0  0  0  0
   -5.1420   19.1640  -34.4110 H   0  0  0  0  0  0  0  0  0  0  0  0
   -3.7470   19.6680  -33.8330 H   0  0  0  0  0  0  0  0  0  0  0  0
   -6.9496   18.2707  -33.2757 H   0  0  0  0  0  0  0  0  0  0  0  0
   -9.4036   18.1211  -32.9752 H   0  0  0  0  0  0  0  0  0  0  0  0
  -10.6807   20.0621  -32.0934 H   0  0  0  0  0  0  0  0  0  0  0  0
   -9.4864   22.1255  -31.4047 H   0  0  0  0  0  0  0  0  0  0  0  0
   -7.6409   23.8141  -30.0685 H   0  0  0  0  0  0  0  0  0  0  0  0
   -7.0886   24.6278  -31.5716 H   0  0  0  0  0  0  0  0  0  0  0  0
   -8.6154   23.6815  -31.5716 H   0  0  0  0  0  0  0  0  0  0  0  0
   -5.3969   24.0213  -29.8932 H   0  0  0  0  0  0  0  0  0  0  0  0
   -2.5047   23.2960  -27.8338 H   0  0  0  0  0  0  0  0  0  0  0  0
   -1.1029   23.2063  -28.9657 H   0  0  0  0  0  0  0  0  0  0  0  0
   -0.1473   24.8940  -27.8402 H   0  0  0  0  0  0  0  0  0  0  0  0
   -1.5469   25.9486  -28.4123 H   0  0  0  0  0  0  0  0  0  0  0  0
   -3.4180   24.9991  -25.2558 H   0  0  0  0  0  0  0  0  0  0  0  0
   -3.6860   25.8646  -26.8069 H   0  0  0  0  0  0  0  0  0  0  0  0
   -3.3853   24.0937  -26.8069 H   0  0  0  0  0  0  0  0  0  0  0  0
   -1.5179   27.3371  -27.0117 H   0  0  0  0  0  0  0  0  0  0  0  0
   -2.1624   27.0381  -25.3369 H   0  0  0  0  0  0  0  0  0  0  0  0
    0.7341   26.6060  -26.2103 H   0  0  0  0  0  0  0  0  0  0  0  0
    0.0959   28.0453  -25.3065 H   0  0  0  0  0  0  0  0  0  0  0  0
    0.0107   26.6402  -22.1177 H   0  0  0  0  0  0  0  0  0  0  0  0
    0.4275   28.0627  -23.1322 H   0  0  0  0  0  0  0  0  0  0  0  0
   -1.2499   27.4200  -23.1322 H   0  0  0  0  0  0  0  0  0  0  0  0
    1.8420   25.8027  -22.9819 H   0  0  0  0  0  0  0  0  0  0  0  0
    1.7601   24.8953  -24.5299 H   0  0  0  0  0  0  0  0  0  0  0  0
    2.2200   26.6317  -24.5299 H   0  0  0  0  0  0  0  0  0  0  0  0
   -0.1964   24.2882  -23.4622 H   0  0  0  0  0  0  0  0  0  0  0  0
   -1.6709   25.3211  -23.7018 H   0  0  0  0  0  0  0  0  0  0  0  0
    0.0414   24.1391  -25.9407 H   0  0  0  0  0  0  0  0  0  0  0  0
   -1.5509   23.4885  -25.3433 H   0  0  0  0  0  0  0  0  0  0  0  0
   -1.5688   22.7500  -31.3791 H   0  0  0  0  0  0  0  0  0  0  0  0
   -2.4550   21.7670  -34.2540 H   0  0  0  0  0  0  0  0  0  0  0  0
   -1.6000   20.7310  -33.0990 H   0  0  0  0  0  0  0  0  0  0  0  0
  1  2  1  0
  2  3  1  0
  3  4  1  0
  4  5  1  0
  5  6  1  0
  6  7  1  0
  7  8  1  0
  8  9  1  0
  9 10  1  0
 10 11  2  0
 11 12  1  0
 12 13  2  0
 13 14  1  0
 14 15  2  0
 15 16  1  0
 16 17  2  0
 17 18  1  0
 17 19  1  0
 19 20  2  0
 20 21  1  0
 21 22  1  0
 22 23  1  0
 23 24  1  0
 24 25  1  0
 25 26  1  0
 25 27  1  0
 27 28  1  0
 28 29  1  0
 29 30  1  0
 29 31  1  0
 29 32  1  0
 32 33  1  0
 21 34  2  0
 34 35  1  0
 35 36  1  0
 35 37  2  0
 37 10  1  0
 16 11  1  0
 37 19  1  0
 33 25  1  0
  1 38  1  0
  1 39  1  0
  1 40  1  0
  2 41  1  0
  2 42  1  0
  3 43  1  0
  4 44  1  0
  4 45  1  0
  5 46  1  0
  5 47  1  0
  7 48  1  0
  7 49  1  0
  8 50  1  0
  8 51  1  0
  9 52  1  0
  9 53  1  0
 12 54  1  0
 13 55  1  0
 14 56  1  0
 15 57  1  0
 18 58  1  0
 18 59  1  0
 18 60  1  0
 20 61  1  0
 23 62  1  0
 23 63  1  0
 24 64  1  0
 24 65  1  0
 26 66  1  0
 26 67  1  0
 26 68  1  0
 27 69  1  0
 27 70  1  0
 28 71  1  0
 28 72  1  0
 30 73  1  0
 30 74  1  0
 30 75  1  0
 31 76  1  0
 31 77  1  0
 31 78  1  0
 32 79  1  0
 32 80  1  0
 33 81  1  0
 33 82  1  0
 34 83  1  0
 36 84  1  0
 36 85  1  0
M  CHG  4   9   1  17   1  25   1  29   1
M  END
>  <UniqueID>  (3) 
3

>  <SMILES>  (3) 
CCNCCOCC[NH2+]c1c2ccccc2[n+](C)c2cc(OCC[N+]3(C)CC[N+](C)(C)CC3)cc(N)c12

>  <Energy>  (3) 
153.472780629486

>  <Genealogy>  (3) 
CCNCCOCC[NH2+]c1c2ccccc2[n+](C)c2cc(OCC[N+]3(C)CC[N+](C)(C)CC3)cc(N)c12 (protonated)
CCNCCOCC[NH2+]c1c2ccccc2[n+](C)c2cc(OCC[N+]3(C)CC[N+](C)(C)CC3)cc(N)c12 (3D coordinates assigned)
CCNCCOCC[NH2+]c1c2ccccc2[n+](C)c2cc(OCC[N+]3(C)CC[N+](C)(C)CC3)cc(N)c12 (nonaromatic ring conformer: 153.472780629486 kcal/mol)

>  <smiles>  (3) 
CCNCCOCCNc1c2ccccc2[n+](C)c2cc(OCC[N+]3(C)CC[N+](C)(C)CC3)cc(N)c12

>  <score_type>  (3) 
oracle

>  <origin>  (3) 
adg

>  <m_score__min__energy>  (3) 
-7.29

>  <m_primary>  (3) 
energy

$$$$
3:0
     RDKit          3D

 47 49  0  0  0  0  0  0  0  0999 V2000
   -6.6590   15.5430  -34.0730 C   0  0  0  0  0  0  0  0  0  0  0  0
   -5.1550   15.1650  -33.1170 S   0  0  0  0  0  0  0  0  0  0  0  0
   -3.9880   16.0820  -34.1900 C   0  0  0  0  0  0  0  0  0  0  0  0
   -4.6060   17.2870  -34.9320 C   0  0  0  0  0  0  0  0  0  0  0  0
   -4.8610   18.5290  -34.1460 N   0  0  1  0  0  0  0  0  0  0  0  0
   -6.1550   19.1940  -34.4830 C   0  0  0  0  0  0  0  0  0  0  0  0
   -6.8260   19.8780  -33.2680 C   0  0  1  0  0  0  0  0  0  0  0  0
   -7.0720   18.8350  -32.1710 C   0  0  0  0  0  0  0  0  0  0  0  0
   -5.8120   18.0220  -31.8400 C   0  0  0  0  0  0  0  0  0  0  0  0
   -4.5710   18.4390  -32.6760 C   0  0  2  0  0  0  0  0  0  0  0  0
   -4.0140   19.7920  -32.1400 C   0  0  0  0  0  0  0  0  0  0  0  0
   -4.5680   20.9460  -32.8800 N   0  0  0  0  0  0  0  0  0  0  0  0
   -3.8350   22.2020  -32.6060 C   0  0  0  0  0  0  0  0  0  0  0  0
   -4.3680   22.9570  -31.4190 C   0  0  0  0  0  0  0  0  0  0  0  0
   -4.3240   22.5360  -30.1000 C   0  0  0  0  0  0  0  0  0  0  0  0
   -4.9650   23.5360  -29.4010 C   0  0  0  0  0  0  0  0  0  0  0  0
   -5.3460   24.4880  -30.2720 N   0  0  0  0  0  0  0  0  0  0  0  0
   -6.1190   25.6790  -29.9500 C   0  0  0  0  0  0  0  0  0  0  0  0
   -5.0030   24.1430  -31.5020 N   0  0  0  0  0  0  0  0  0  0  0  0
   -6.0310   21.1000  -32.7340 C   0  0  0  0  0  0  0  0  0  0  0  0
   -7.4895   15.7517  -33.3826 H   0  0  0  0  0  0  0  0  0  0  0  0
   -6.4789   16.4238  -34.7068 H   0  0  0  0  0  0  0  0  0  0  0  0
   -6.9167   14.6817  -34.7068 H   0  0  0  0  0  0  0  0  0  0  0  0
   -3.1637   16.4518  -33.5625 H   0  0  0  0  0  0  0  0  0  0  0  0
   -3.6575   15.3753  -34.9655 H   0  0  0  0  0  0  0  0  0  0  0  0
   -3.9238   17.5522  -35.7532 H   0  0  0  0  0  0  0  0  0  0  0  0
   -5.6045   16.9422  -35.2387 H   0  0  0  0  0  0  0  0  0  0  0  0
   -4.1290   19.1720  -34.5360 H   0  0  0  0  0  0  0  0  0  0  0  0
   -5.9655   19.9568  -35.2525 H   0  0  0  0  0  0  0  0  0  0  0  0
   -6.8417   18.4106  -34.8363 H   0  0  0  0  0  0  0  0  0  0  0  0
   -7.7893   20.2891  -33.6042 H   0  0  0  0  0  0  0  0  0  0  0  0
   -7.4070   19.3531  -31.2603 H   0  0  0  0  0  0  0  0  0  0  0  0
   -7.8347   18.1340  -32.5410 H   0  0  0  0  0  0  0  0  0  0  0  0
   -5.5773   18.1612  -30.7744 H   0  0  0  0  0  0  0  0  0  0  0  0
   -6.0299   16.9718  -32.0842 H   0  0  0  0  0  0  0  0  0  0  0  0
   -3.8127   17.6507  -32.5599 H   0  0  0  0  0  0  0  0  0  0  0  0
   -4.2794   19.8901  -31.0770 H   0  0  0  0  0  0  0  0  0  0  0  0
   -2.9225   19.7904  -32.2767 H   0  0  0  0  0  0  0  0  0  0  0  0
   -2.7795   21.9560  -32.4177 H   0  0  0  0  0  0  0  0  0  0  0  0
   -3.9598   22.8499  -33.4862 H   0  0  0  0  0  0  0  0  0  0  0  0
   -3.8785   21.6128  -29.7010 H   0  0  0  0  0  0  0  0  0  0  0  0
   -5.1362   23.5529  -28.3145 H   0  0  0  0  0  0  0  0  0  0  0  0
   -6.1888   25.7865  -28.8575 H   0  0  0  0  0  0  0  0  0  0  0  0
   -5.6227   26.5641  -30.3746 H   0  0  0  0  0  0  0  0  0  0  0  0
   -7.1295   25.5862  -30.3746 H   0  0  0  0  0  0  0  0  0  0  0  0
   -6.2649   21.2313  -31.6672 H   0  0  0  0  0  0  0  0  0  0  0  0
   -6.3310   21.9740  -33.3308 H   0  0  0  0  0  0  0  0  0  0  0  0
  1  2  1  0
  2  3  1  0
  3  4  1  0
  4  5  1  0
  5  6  1  0
  6  7  1  0
  7  8  1  0
  8  9  1  0
  9 10  1  0
 10 11  1  0
 11 12  1  0
 12 13  1  0
 13 14  1  0
 14 15  1  0
 15 16  2  0
 16 17  1  0
 17 18  1  0
 17 19  1  0
 12 20  1  0
 10  5  1  0
 19 14  2  0
 20  7  1  0
  1 21  1  0
  1 22  1  0
  1 23  1  0
  3 24  1  0
  3 25  1  0
  4 26  1  0
  4 27  1  0
  5 28  1  6
  6 29  1  0
  6 30  1  0
  7 31  1  6
  8 32  1  0
  8 33  1  0
  9 34  1  0
  9 35  1  0
 10 36  1  6
 11 37  1  0
 11 38  1  0
 13 39  1  0
 13 40  1  0
 15 41  1  0
 16 42  1  0
 18 43  1  0
 18 44  1  0
 18 45  1  0
 20 46  1  0
 20 47  1  0
M  CHG  1   5   1
M  END
>  <UniqueID>  (4) 
4

>  <SMILES>  (4) 
CSCC[N@H+]1C[C@H]2CCC1CN(Cc1ccn(C)n1)C2

>  <Energy>  (4) 
101.81410835234612

>  <Genealogy>  (4) 
CSCC[NH+]1CC2CCC1CN(Cc1ccn(C)n1)C2 (protonated)
CSCC[N@H+]1C[C@H]2CCC1CN(Cc1ccn(C)n1)C2 (chirality)
CSCC[N@H+]1C[C@H]2CCC1CN(Cc1ccn(C)n1)C2 (3D coordinates assigned)
CSCC[N@H+]1C[C@H]2CCC1CN(Cc1ccn(C)n1)C2 (nonaromatic ring conformer: 101.81410835234612 kcal/mol)

>  <smiles>  (4) 
CSCCN1CC2CCC1CN(Cc1ccn(C)n1)C2

>  <score_type>  (4) 
oracle

>  <origin>  (4) 
adg

>  <m_score__min__energy>  (4) 
-5.4000000000000004

>  <m_primary>  (4) 
energy

$$$$
4:0
     RDKit          3D

 60 63  0  0  0  0  0  0  0  0999 V2000
   -3.8170   24.1660  -27.4460 C   0  0  0  0  0  0  0  0  0  0  0  0
   -2.7680   24.5590  -28.4810 C   0  0  0  0  0  0  0  0  0  0  0  0
   -3.3530   24.4770  -29.8460 N   0  0  0  0  0  0  0  0  0  0  0  0
   -4.8330   24.4280  -29.8070 C   0  0  0  0  0  0  0  0  0  0  0  0
   -5.4650   25.6160  -30.5330 C   0  0  0  0  0  0  0  0  0  0  0  0
   -2.8330   23.3040  -30.5870 C   0  0  0  0  0  0  0  0  0  0  0  0
   -3.8990   22.2090  -30.7430 C   0  0  0  0  0  0  0  0  0  0  0  0
   -4.4400   22.1720  -32.1020 N   0  0  0  0  0  0  0  0  0  0  0  0
   -5.4380   21.2140  -32.4810 C   0  0  0  0  0  0  0  0  0  0  0  0
   -6.7910   21.5390  -32.2810 C   0  0  0  0  0  0  0  0  0  0  0  0
   -7.1850   22.8700  -32.0180 C   0  0  0  0  0  0  0  0  0  0  0  0
   -8.5310   23.1940  -31.8650 C   0  0  0  0  0  0  0  0  0  0  0  0
   -9.5030   22.2060  -31.9780 C   0  0  0  0  0  0  0  0  0  0  0  0
   -9.1310   20.8820  -32.2110 C   0  0  0  0  0  0  0  0  0  0  0  0
   -7.7660   20.5170  -32.3280 C   0  0  0  0  0  0  0  0  0  0  0  0
   -7.3720   19.2030  -32.4580 N   0  0  0  0  0  0  0  0  0  0  0  0
   -8.3130   18.1180  -32.0990 C   0  0  0  0  0  0  0  0  0  0  0  0
   -6.0930   18.9020  -32.8900 C   0  0  0  0  0  0  0  0  0  0  0  0
   -5.7520   17.5830  -33.2640 C   0  0  0  0  0  0  0  0  0  0  0  0
   -4.4570   17.2420  -33.6180 C   0  0  0  0  0  0  0  0  0  0  0  0
   -3.4720   18.2180  -33.7160 C   0  0  0  0  0  0  0  0  0  0  0  0
   -2.1790   17.8420  -34.1070 C   0  0  0  0  0  0  0  0  0  0  0  0
   -1.1990   18.8040  -34.3280 C   0  0  0  0  0  0  0  0  0  0  0  0
   -1.5130   20.1660  -34.2190 C   0  0  0  0  0  0  0  0  0  0  0  0
   -0.5440   21.1880  -34.5220 N   0  0  0  0  0  0  0  0  0  0  0  0
    0.8710   21.0870  -34.1820 C   0  0  0  0  0  0  0  0  0  0  0  0
   -2.8060   20.5400  -33.8250 C   0  0  0  0  0  0  0  0  0  0  0  0
   -3.7870   19.5800  -33.4710 C   0  0  0  0  0  0  0  0  0  0  0  0
   -5.0900   19.9210  -32.9620 C   0  0  0  0  0  0  0  0  0  0  0  0
   -3.4101   24.3184  -26.4354 H   0  0  0  0  0  0  0  0  0  0  0  0
   -4.7138   24.7891  -27.5780 H   0  0  0  0  0  0  0  0  0  0  0  0
   -4.0836   23.1070  -27.5780 H   0  0  0  0  0  0  0  0  0  0  0  0
   -2.4326   25.5888  -28.2885 H   0  0  0  0  0  0  0  0  0  0  0  0
   -1.9121   23.8717  -28.4103 H   0  0  0  0  0  0  0  0  0  0  0  0
   -5.1703   23.4978  -30.2876 H   0  0  0  0  0  0  0  0  0  0  0  0
   -5.1465   24.4679  -28.7534 H   0  0  0  0  0  0  0  0  0  0  0  0
   -5.8478   26.3356  -29.7944 H   0  0  0  0  0  0  0  0  0  0  0  0
   -4.7080   26.1053  -31.1635 H   0  0  0  0  0  0  0  0  0  0  0  0
   -6.2938   25.2617  -31.1635 H   0  0  0  0  0  0  0  0  0  0  0  0
   -2.5082   23.6296  -31.5863 H   0  0  0  0  0  0  0  0  0  0  0  0
   -1.9925   22.8837  -30.0153 H   0  0  0  0  0  0  0  0  0  0  0  0
   -3.4450   21.2338  -30.5131 H   0  0  0  0  0  0  0  0  0  0  0  0
   -4.7243   22.4319  -30.0507 H   0  0  0  0  0  0  0  0  0  0  0  0
   -4.3870   23.0580  -32.6540 H   0  0  0  0  0  0  0  0  0  0  0  0
   -6.4218   23.6576  -31.9333 H   0  0  0  0  0  0  0  0  0  0  0  0
   -8.8255   24.2327  -31.6545 H   0  0  0  0  0  0  0  0  0  0  0  0
  -10.5669   22.4690  -31.8835 H   0  0  0  0  0  0  0  0  0  0  0  0
   -9.9084   20.1095  -32.3054 H   0  0  0  0  0  0  0  0  0  0  0  0
   -8.3813   18.0393  -31.0039 H   0  0  0  0  0  0  0  0  0  0  0  0
   -9.3070   18.3427  -32.5131 H   0  0  0  0  0  0  0  0  0  0  0  0
   -7.9499   17.1658  -32.5131 H   0  0  0  0  0  0  0  0  0  0  0  0
   -6.5332   16.8087  -33.2743 H   0  0  0  0  0  0  0  0  0  0  0  0
   -4.2061   16.1908  -33.8232 H   0  0  0  0  0  0  0  0  0  0  0  0
   -1.9376   16.7771  -34.2401 H   0  0  0  0  0  0  0  0  0  0  0  0
   -0.1758   18.4956  -34.5888 H   0  0  0  0  0  0  0  0  0  0  0  0
   -0.8610   22.0590  -35.0060 H   0  0  0  0  0  0  0  0  0  0  0  0
    0.9856   21.0788  -33.0880 H   0  0  0  0  0  0  0  0  0  0  0  0
    1.2833   20.1571  -34.6008 H   0  0  0  0  0  0  0  0  0  0  0  0
    1.4112   21.9489  -34.6008 H   0  0  0  0  0  0  0  0  0  0  0  0
   -3.0661   21.6082  -33.7897 H   0  0  0  0  0  0  0  0  0  0  0  0
  1  2  1  0
  2  3  1  0
  3  4  1  0
  4  5  1  0
  3  6  1  0
  6  7  1  0
  7  8  1  0
  8  9  1  0
  9 10  2  0
 10 11  1  0
 11 12  2  0
 12 13  1  0
 13 14  2  0
 14 15  1  0
 15 16  2  0
 16 17  1  0
 16 18  1  0
 18 19  2  0
 19 20  1  0
 20 21  2  0
 21 22  1  0
 22 23  2  0
 23 24  1  0
 24 25  1  0
 25 26  1  0
 24 27  2  0
 27 28  1  0
 28 29  2  0
 29  9  1  0
 15 10  1  0
 29 18  1  0
 28 21  1  0
  1 30  1  0
  1 31  1  0
  1 32  1  0
  2 33  1  0
  2 34  1  0
  4 35  1  0
  4 36  1  0
  5 37  1  0
  5 38  1  0
  5 39  1  0
  6 40  1  0
  6 41  1  0
  7 42  1  0
  7 43  1  0
  8 44  1  0
 11 45  1  0
 12 46  1  0
 13 47  1  0
 14 48  1  0
 17 49  1  0
 17 50  1  0
 17 51  1  0
 19 52  1  0
 20 53  1  0
 22 54  1  0
 23 55  1  0
 25 56  1  0
 26 57  1  0
 26 58  1  0
 26 59  1  0
 27 60  1  0
M  CHG  1  16   1
M  END
>  <UniqueID>  (5) 
5

>  <SMILES>  (5) 
CCN(CC)CCNc1c2ccccc2[n+](C)c2ccc3ccc(NC)cc3c12

>  <Energy>  (5) 
97.277212644552

>  <Genealogy>  (5) 
CCN(CC)CCNc1c2ccccc2[n+](C)c2ccc3ccc(NC)cc3c12 (3D coordinates assigned)
CCN(CC)CCNc1c2ccccc2[n+](C)c2ccc3ccc(NC)cc3c12 (optimized conformer: 97.277212644552 kcal/mol)

>  <smiles>  (5) 
CCN(CC)CCNc1c2ccccc2[n+](C)c2ccc3ccc(NC)cc3c12

>  <score_type>  (5) 
oracle

>  <origin>  (5) 
adg

>  <m_score__min__energy>  (5) 
-9.7599999999999998

>  <m_primary>  (5) 
energy

$$$$
5:0
     RDKit          3D

 35 37  0  0  0  0  0  0  0  0999 V2000
   -6.4920   25.6730  -29.3570 C   0  0  0  0  0  0  0  0  0  0  0  0
   -5.2630   25.4040  -30.2250 C   0  0  0  0  0  0  0  0  0  0  0  0
   -5.3300   24.0490  -30.9470 C   0  0  0  0  0  0  0  0  0  0  0  0
   -6.4810   23.9750  -31.9590 C   0  0  0  0  0  0  0  0  0  0  0  0
   -7.0080   22.6070  -32.0260 N   0  0  0  0  0  0  0  0  0  0  0  0
   -8.2400   22.3790  -31.5500 N   0  0  0  0  0  0  0  0  0  0  0  0
   -8.8020   21.1680  -31.5920 N   0  0  0  0  0  0  0  0  0  0  0  0
   -8.1150   20.1450  -32.1390 C   0  0  0  0  0  0  0  0  0  0  0  0
   -8.6220   18.5500  -32.2740 S   0  0  0  0  0  0  0  0  0  0  0  0
   -7.1900   18.0400  -33.0120 C   0  0  0  0  0  0  0  0  0  0  0  0
   -6.3240   19.1230  -33.1930 C   0  0  0  0  0  0  0  0  0  0  0  0
   -6.8540   20.3150  -32.6630 C   0  0  0  0  0  0  0  0  0  0  0  0
   -6.2820   21.5900  -32.5990 C   0  0  0  0  0  0  0  0  0  0  0  0
   -5.1250   21.8010  -33.0560 O   0  0  0  0  0  0  0  0  0  0  0  0
   -4.9520   18.9520  -33.7980 C   0  0  0  0  0  0  0  0  0  0  0  0
   -4.8230   17.6180  -34.5570 C   0  0  0  0  0  0  0  0  0  0  0  0
   -5.4140   16.4500  -33.7530 C   0  0  0  0  0  0  0  0  0  0  0  0
   -6.9180   16.6520  -33.5080 C   0  0  0  0  0  0  0  0  0  0  0  0
   -6.2115   25.6116  -28.2951 H   0  0  0  0  0  0  0  0  0  0  0  0
   -6.8825   26.6779  -29.5756 H   0  0  0  0  0  0  0  0  0  0  0  0
   -7.2665   24.9231  -29.5756 H   0  0  0  0  0  0  0  0  0  0  0  0
   -5.1840   26.2008  -30.9792 H   0  0  0  0  0  0  0  0  0  0  0  0
   -4.3863   25.3829  -29.5610 H   0  0  0  0  0  0  0  0  0  0  0  0
   -4.3815   23.8867  -31.4800 H   0  0  0  0  0  0  0  0  0  0  0  0
   -5.5058   23.2746  -30.1858 H   0  0  0  0  0  0  0  0  0  0  0  0
   -7.2839   24.6591  -31.6471 H   0  0  0  0  0  0  0  0  0  0  0  0
   -6.1061   24.2649  -32.9517 H   0  0  0  0  0  0  0  0  0  0  0  0
   -4.7663   19.7795  -34.4985 H   0  0  0  0  0  0  0  0  0  0  0  0
   -4.2158   18.9526  -32.9807 H   0  0  0  0  0  0  0  0  0  0  0  0
   -5.3582   17.6990  -35.5146 H   0  0  0  0  0  0  0  0  0  0  0  0
   -3.7539   17.4171  -34.7200 H   0  0  0  0  0  0  0  0  0  0  0  0
   -5.2636   15.5155  -34.3135 H   0  0  0  0  0  0  0  0  0  0  0  0
   -4.9046   16.4029  -32.7792 H   0  0  0  0  0  0  0  0  0  0  0  0
   -7.4625   16.4916  -34.4502 H   0  0  0  0  0  0  0  0  0  0  0  0
   -7.2533   15.9316  -32.7474 H   0  0  0  0  0  0  0  0  0  0  0  0
  1  2  1  0
  2  3  1  0
  3  4  1  0
  4  5  1  0
  5  6  1  0
  6  7  2  0
  7  8  1  0
  8  9  1  0
  9 10  1  0
 10 11  2  0
 11 12  1  0
 12 13  1  0
 13 14  2  0
 11 15  1  0
 15 16  1  0
 16 17  1  0
 17 18  1  0
 13  5  1  0
 12  8  2  0
 18 10  1  0
  1 19  1  0
  1 20  1  0
  1 21  1  0
  2 22  1  0
  2 23  1  0
  3 24  1  0
  3 25  1  0
  4 26  1  0
  4 27  1  0
 15 28  1  0
 15 29  1  0
 16 30  1  0
 16 31  1  0
 17 32  1  0
 17 33  1  0
 18 34  1  0
 18 35  1  0
M  END
>  <UniqueID>  (6) 
6

>  <SMILES>  (6) 
CCCCn1nnc2sc3c(c2c1=O)CCCC3

>  <Energy>  (6) 
64.55075172836891

>  <Genealogy>  (6) 
CCCCn1nnc2sc3c(c2c1=O)CCCC3 (3D coordinates assigned)
CCCCn1nnc2sc3c(c2c1=O)CCCC3 (nonaromatic ring conformer: 64.55075172836891 kcal/mol)

>  <smiles>  (6) 
CCCCn1nnc2sc3c(c2c1=O)CCCC3

>  <score_type>  (6) 
oracle

>  <origin>  (6) 
adg

>  <m_score__min__energy>  (6) 
-7.75

>  <m_primary>  (6) 
energy

$$$$
6:0
     RDKit          3D

 40 42  0  0  0  0  0  0  0  0999 V2000
   -4.3250   18.5350  -34.3270 C   0  0  0  0  0  0  0  0  0  0  0  0
   -5.7920   18.3190  -34.6830 C   0  0  0  0  0  0  0  0  0  0  0  0
   -6.4520   17.4930  -33.6610 N   0  0  0  0  0  0  0  0  0  0  0  0
   -7.5820   18.0250  -32.8900 C   0  0  0  0  0  0  0  0  0  0  0  0
   -7.2880   19.4270  -32.4600 C   0  0  0  0  0  0  0  0  0  0  0  0
   -6.1190   19.8470  -31.8330 C   0  0  0  0  0  0  0  0  0  0  0  0
   -6.3290   21.1850  -31.5930 C   0  0  0  0  0  0  0  0  0  0  0  0
   -5.5170   22.1400  -30.9870 C   0  0  0  0  0  0  0  0  0  0  0  0
   -6.0130   23.4600  -30.8640 C   0  0  0  0  0  0  0  0  0  0  0  0
   -5.1730   24.5030  -30.2280 C   0  0  0  0  0  0  0  0  0  0  0  0
   -5.3650   24.8910  -28.8650 N   0  0  0  0  0  0  0  0  0  0  0  0
   -4.2560   25.0550  -30.8930 O   0  0  0  0  0  0  0  0  0  0  0  0
   -7.3050   23.7670  -31.3730 C   0  0  0  0  0  0  0  0  0  0  0  0
   -8.0960   22.7740  -31.9790 C   0  0  0  0  0  0  0  0  0  0  0  0
   -7.5740   21.4890  -32.0690 C   0  0  0  0  0  0  0  0  0  0  0  0
   -8.1410   20.4270  -32.5860 O   0  0  0  0  0  0  0  0  0  0  0  0
   -5.9520   16.1740  -33.3690 C   0  0  0  0  0  0  0  0  0  0  0  0
   -6.3410   15.0780  -34.1570 C   0  0  0  0  0  0  0  0  0  0  0  0
   -5.8660   13.7950  -33.8660 C   0  0  0  0  0  0  0  0  0  0  0  0
   -5.0040   13.5960  -32.7850 C   0  0  0  0  0  0  0  0  0  0  0  0
   -4.6150   14.6810  -31.9920 C   0  0  0  0  0  0  0  0  0  0  0  0
   -5.0870   15.9650  -32.2820 C   0  0  0  0  0  0  0  0  0  0  0  0
   -4.2118   18.5517  -33.2330 H   0  0  0  0  0  0  0  0  0  0  0  0
   -3.7217   17.7160  -34.7456 H   0  0  0  0  0  0  0  0  0  0  0  0
   -3.9833   19.4931  -34.7456 H   0  0  0  0  0  0  0  0  0  0  0  0
   -6.2977   19.2940  -34.7428 H   0  0  0  0  0  0  0  0  0  0  0  0
   -5.8513   17.8020  -35.6521 H   0  0  0  0  0  0  0  0  0  0  0  0
   -8.4867   18.0173  -33.5157 H   0  0  0  0  0  0  0  0  0  0  0  0
   -7.7409   17.3984  -32.0000 H   0  0  0  0  0  0  0  0  0  0  0  0
   -5.2309   19.2468  -31.5860 H   0  0  0  0  0  0  0  0  0  0  0  0
   -4.5166   21.8757  -30.6137 H   0  0  0  0  0  0  0  0  0  0  0  0
   -5.9950   24.3600  -28.2250 H   0  0  0  0  0  0  0  0  0  0  0  0
   -4.7990   25.6690  -28.4610 H   0  0  0  0  0  0  0  0  0  0  0  0
   -7.6907   24.7940  -31.2918 H   0  0  0  0  0  0  0  0  0  0  0  0
   -9.0974   23.0075  -32.3698 H   0  0  0  0  0  0  0  0  0  0  0  0
   -7.0225   15.2295  -35.0071 H   0  0  0  0  0  0  0  0  0  0  0  0
   -6.1716   12.9416  -34.4892 H   0  0  0  0  0  0  0  0  0  0  0  0
   -4.6311   12.5865  -32.5573 H   0  0  0  0  0  0  0  0  0  0  0  0
   -3.9374   14.5240  -31.1398 H   0  0  0  0  0  0  0  0  0  0  0  0
   -4.7794   16.8155  -31.6559 H   0  0  0  0  0  0  0  0  0  0  0  0
  1  2  1  0
  2  3  1  0
  3  4  1  0
  4  5  1  0
  5  6  2  0
  6  7  1  0
  7  8  2  0
  8  9  1  0
  9 10  1  0
 10 11  1  0
 10 12  2  0
  9 13  2  0
 13 14  1  0
 14 15  2  0
 15 16  1  0
  3 17  1  0
 17 18  2  0
 18 19  1  0
 19 20  2  0
 20 21  1  0
 21 22  2  0
 16  5  1  0
 22 17  1  0
 15  7  1  0
  1 23  1  0
  1 24  1  0
  1 25  1  0
  2 26  1  0
  2 27  1  0
  4 28  1  0
  4 29  1  0
  6 30  1  0
  8 31  1  0
 11 32  1  0
 11 33  1  0
 13 34  1  0
 14 35  1  0
 18 36  1  0
 19 37  1  0
 20 38  1  0
 21 39  1  0
 22 40  1  0
M  END
>  <UniqueID>  (7) 
7

>  <SMILES>  (7) 
CCN(Cc1cc2cc(C(N)=O)ccc2o1)c1ccccc1

>  <Energy>  (7) 
75.56972052890993

>  <Genealogy>  (7) 
CCN(Cc1cc2cc(C(N)=O)ccc2o1)c1ccccc1 (3D coordinates assigned)
CCN(Cc1cc2cc(C(N)=O)ccc2o1)c1ccccc1 (optimized conformer: 75.56972052890993 kcal/mol)

>  <smiles>  (7) 
CCN(Cc1cc2cc(C(N)=O)ccc2o1)c1ccccc1

>  <score_type>  (7) 
oracle

>  <origin>  (7) 
adg

>  <m_score__min__energy>  (7) 
-8.6699999999999999

>  <m_primary>  (7) 
energy

$$$$
7:0
     RDKit          3D

 60 63  0  0  0  0  0  0  0  0999 V2000
   -1.8050   21.5130  -31.9580 C   0  0  0  0  0  0  0  0  0  0  0  0
   -3.0890   21.5400  -32.7700 C   0  0  0  0  0  0  0  0  0  0  0  0
   -3.9230   22.6040  -32.3270 O   0  0  0  0  0  0  0  0  0  0  0  0
   -5.3020   22.4900  -32.0780 C   0  0  0  0  0  0  0  0  0  0  0  0
   -6.0220   21.3470  -32.4780 C   0  0  0  0  0  0  0  0  0  0  0  0
   -7.3920   21.2500  -32.2350 C   0  0  0  0  0  0  0  0  0  0  0  0
   -8.0630   22.2840  -31.5850 C   0  0  0  0  0  0  0  0  0  0  0  0
   -9.3940   22.1840  -31.3450 F   0  0  0  0  0  0  0  0  0  0  0  0
   -7.3660   23.4150  -31.1690 C   0  0  0  0  0  0  0  0  0  0  0  0
   -5.9850   23.5420  -31.4160 C   0  0  0  0  0  0  0  0  0  0  0  0
   -5.2690   24.7730  -30.8880 C   0  0  1  0  0  0  0  0  0  0  0  0
   -5.9800   25.3170  -29.6400 C   0  0  0  0  0  0  0  0  0  0  0  0
   -3.8200   24.5290  -30.7390 N   0  0  0  0  0  0  0  0  0  0  0  0
   -3.0930   24.2660  -29.6900 C   0  0  0  0  0  0  0  0  0  0  0  0
   -2.5660   25.2510  -28.9160 N   0  0  0  0  0  0  0  0  0  0  0  0
   -1.7910   24.9800  -27.8280 C   0  0  0  0  0  0  0  0  0  0  0  0
   -1.2870   26.0720  -27.0180 N   0  0  0  0  0  0  0  0  0  0  0  0
   -0.4980   27.1570  -27.6420 C   0  0  0  0  0  0  0  0  0  0  0  0
   -0.0750   28.2620  -26.6550 C   0  0  0  0  0  0  0  0  0  0  0  0
    0.1040   27.7600  -25.3480 O   0  0  0  0  0  0  0  0  0  0  0  0
   -1.1450   27.3250  -24.8590 C   0  0  0  0  0  0  0  0  0  0  0  0
   -1.5760   26.0440  -25.5730 C   0  0  0  0  0  0  0  0  0  0  0  0
   -1.5470   23.6360  -27.4940 C   0  0  0  0  0  0  0  0  0  0  0  0
   -2.1100   22.6220  -28.2850 C   0  0  0  0  0  0  0  0  0  0  0  0
   -1.9490   21.2260  -27.9520 N   0  0  0  0  0  0  0  0  0  0  0  0
   -0.7680   20.5180  -28.4480 C   0  0  0  0  0  0  0  0  0  0  0  0
   -0.4780   19.2730  -27.6100 C   0  0  0  0  0  0  0  0  0  0  0  0
   -1.6390   18.4870  -27.4760 O   0  0  0  0  0  0  0  0  0  0  0  0
   -2.6060   19.1950  -26.7260 C   0  0  0  0  0  0  0  0  0  0  0  0
   -3.0920   20.4270  -27.4860 C   0  0  0  0  0  0  0  0  0  0  0  0
   -2.8640   22.9710  -29.3620 N   0  0  0  0  0  0  0  0  0  0  0  0
   -2.0493   21.5181  -30.8855 H   0  0  0  0  0  0  0  0  0  0  0  0
   -1.2370   20.6027  -32.2003 H   0  0  0  0  0  0  0  0  0  0  0  0
   -1.1992   22.3986  -32.2003 H   0  0  0  0  0  0  0  0  0  0  0  0
   -2.8450   21.6867  -33.8325 H   0  0  0  0  0  0  0  0  0  0  0  0
   -3.6201   20.5859  -32.6373 H   0  0  0  0  0  0  0  0  0  0  0  0
   -5.4990   20.5237  -32.9865 H   0  0  0  0  0  0  0  0  0  0  0  0
   -7.9443   20.3549  -32.5573 H   0  0  0  0  0  0  0  0  0  0  0  0
   -7.8999   24.2190  -30.6412 H   0  0  0  0  0  0  0  0  0  0  0  0
   -5.3301   25.5852  -31.6274 H   0  0  0  0  0  0  0  0  0  0  0  0
   -5.4805   24.9348  -28.7376 H   0  0  0  0  0  0  0  0  0  0  0  0
   -5.9386   26.4162  -29.6443 H   0  0  0  0  0  0  0  0  0  0  0  0
   -7.0301   24.9896  -29.6443 H   0  0  0  0  0  0  0  0  0  0  0  0
    0.4098   26.7177  -28.0813 H   0  0  0  0  0  0  0  0  0  0  0  0
   -1.1431   27.6302  -28.3969 H   0  0  0  0  0  0  0  0  0  0  0  0
    0.8721   28.7029  -26.9994 H   0  0  0  0  0  0  0  0  0  0  0  0
   -0.8753   29.0160  -26.6239 H   0  0  0  0  0  0  0  0  0  0  0  0
   -1.0642   27.1294  -23.7796 H   0  0  0  0  0  0  0  0  0  0  0  0
   -1.8949   28.1082  -25.0444 H   0  0  0  0  0  0  0  0  0  0  0  0
   -1.0413   25.1941  -25.1238 H   0  0  0  0  0  0  0  0  0  0  0  0
   -2.6654   25.9486  -25.4544 H   0  0  0  0  0  0  0  0  0  0  0  0
   -0.9231   23.3825  -26.6242 H   0  0  0  0  0  0  0  0  0  0  0  0
   -0.9425   20.2158  -29.4912 H   0  0  0  0  0  0  0  0  0  0  0  0
    0.0975   21.1934  -28.3797 H   0  0  0  0  0  0  0  0  0  0  0  0
    0.3060   18.6795  -28.1029 H   0  0  0  0  0  0  0  0  0  0  0  0
   -0.1438   19.5871  -26.6102 H   0  0  0  0  0  0  0  0  0  0  0  0
   -3.4623   18.5337  -26.5273 H   0  0  0  0  0  0  0  0  0  0  0  0
   -2.1464   19.5236  -25.7822 H   0  0  0  0  0  0  0  0  0  0  0  0
   -3.6876   20.1062  -28.3534 H   0  0  0  0  0  0  0  0  0  0  0  0
   -3.7064   21.0424  -26.8123 H   0  0  0  0  0  0  0  0  0  0  0  0
  1  2  1  0
  2  3  1  0
  3  4  1  0
  4  5  2  0
  5  6  1  0
  6  7  2  0
  7  8  1  0
  7  9  1  0
  9 10  2  0
 10 11  1  0
 11 12  1  0
 11 13  1  0
 13 14  2  3
 14 15  1  0
 15 16  2  0
 16 17  1  0
 17 18  1  0
 18 19  1  0
 19 20  1  0
 20 21  1  0
 21 22  1  0
 16 23  1  0
 23 24  2  0
 24 25  1  0
 25 26  1  0
 26 27  1  0
 27 28  1  0
 28 29  1  0
 29 30  1  0
 24 31  1  0
 10  4  1  0
 31 14  1  0
 22 17  1  0
 30 25  1  0
  1 32  1  0
  1 33  1  0
  1 34  1  0
  2 35  1  0
  2 36  1  0
  5 37  1  0
  6 38  1  0
  9 39  1  0
 11 40  1  6
 12 41  1  0
 12 42  1  0
 12 43  1  0
 18 44  1  0
 18 45  1  0
 19 46  1  0
 19 47  1  0
 21 48  1  0
 21 49  1  0
 22 50  1  0
 22 51  1  0
 23 52  1  0
 26 53  1  0
 26 54  1  0
 27 55  1  0
 27 56  1  0
 29 57  1  0
 29 58  1  0
 30 59  1  0
 30 60  1  0
M  CHG  1  31  -1
M  END
>  <UniqueID>  (8) 
8

>  <SMILES>  (8) 
CCOc1ccc(F)cc1[C@@H](C)N=c1nc(N2CCOCC2)cc(N2CCOCC2)[n-]1

>  <Energy>  (8) 
74.9786558479485

>  <Genealogy>  (8) 
CCOc1ccc(F)cc1C(C)N=c1nc(N2CCOCC2)cc(N2CCOCC2)[n-]1 (protonated)
CCOc1ccc(F)cc1[C@@H](C)N=c1nc(N2CCOCC2)cc(N2CCOCC2)[n-]1 (chirality)
CCOc1ccc(F)cc1[C@@H](C)N=c1nc(N2CCOCC2)cc(N2CCOCC2)[n-]1 (3D coordinates assigned)
CCOc1ccc(F)cc1[C@@H](C)N=c1nc(N2CCOCC2)cc(N2CCOCC2)[n-]1 (nonaromatic ring conformer: 74.9786558479485 kcal/mol)

>  <smiles>  (8) 
CCOc1ccc(F)cc1C(C)N=c1nc(N2CCOCC2)cc(N2CCOCC2)[nH]1

>  <score_type>  (8) 
oracle

>  <origin>  (8) 
adg

>  <m_score__min__energy>  (8) 
-9.5099999999999998

>  <m_primary>  (8) 
energy

$$$$
8:0
     RDKit          3D

 47 49  0  0  0  0  0  0  0  0999 V2000
    0.6746   24.0518  -24.4306 H   0  0  0  0  0  0  0  0  0  0  0  0
    1.2450   24.7360  -25.0760 C   0  0  0  0  0  0  0  0  0  0  0  0
    1.1030   24.6000  -26.4090 C   0  0  0  0  0  0  0  0  0  0  0  0
   -0.2150   24.4140  -27.0530 C   0  0  0  0  0  0  0  0  0  0  0  0
   -1.3690   24.9780  -26.4870 C   0  0  0  0  0  0  0  0  0  0  0  0
   -1.2944   25.5547  -25.5533 H   0  0  0  0  0  0  0  0  0  0  0  0
   -2.6120   24.8110  -27.1030 C   0  0  0  0  0  0  0  0  0  0  0  0
   -3.5125   25.2484  -26.6472 H   0  0  0  0  0  0  0  0  0  0  0  0
   -2.7160   24.0880  -28.3000 C   0  0  0  0  0  0  0  0  0  0  0  0
   -3.9610   23.9120  -28.9230 C   0  0  0  0  0  0  0  0  0  0  0  0
   -4.8654   24.3391  -28.4651 H   0  0  0  0  0  0  0  0  0  0  0  0
   -4.0620   23.1940  -30.1280 C   0  0  0  0  0  0  0  0  0  0  0  0
   -5.3820   23.0080  -30.7840 C   0  0  0  0  0  0  0  0  0  0  0  0
   -6.4090   23.9550  -30.6060 C   0  0  0  0  0  0  0  0  0  0  0  0
   -6.2335   24.8392  -29.9756 H   0  0  0  0  0  0  0  0  0  0  0  0
   -7.6500   23.7790  -31.2250 C   0  0  0  0  0  0  0  0  0  0  0  0
   -8.4479   24.5217  -31.0773 H   0  0  0  0  0  0  0  0  0  0  0  0
   -7.8780   22.6610  -32.0310 C   0  0  0  0  0  0  0  0  0  0  0  0
   -8.8526   22.5279  -32.5234 H   0  0  0  0  0  0  0  0  0  0  0  0
   -6.8690   21.7120  -32.2120 C   0  0  0  0  0  0  0  0  0  0  0  0
   -7.0520   20.8295  -32.8426 H   0  0  0  0  0  0  0  0  0  0  0  0
   -5.6270   21.8820  -31.5930 C   0  0  0  0  0  0  0  0  0  0  0  0
   -4.8363   21.1314  -31.7389 H   0  0  0  0  0  0  0  0  0  0  0  0
   -2.8980   22.6540  -30.7030 C   0  0  0  0  0  0  0  0  0  0  0  0
   -2.9664   22.0938  -31.6472 H   0  0  0  0  0  0  0  0  0  0  0  0
   -1.6560   22.8220  -30.0870 C   0  0  0  0  0  0  0  0  0  0  0  0
   -0.7540   22.3919  -30.5468 H   0  0  0  0  0  0  0  0  0  0  0  0
   -1.5540   23.5360  -28.8860 C   0  0  0  0  0  0  0  0  0  0  0  0
   -0.3090   23.7100  -28.2620 C   0  0  0  0  0  0  0  0  0  0  0  0
    0.5977   23.2920  -28.7237 H   0  0  0  0  0  0  0  0  0  0  0  0
    2.3330   24.5640  -27.2700 C   0  0  0  0  0  0  0  0  0  0  0  0
    3.2276   24.5378  -26.6305 H   0  0  0  0  0  0  0  0  0  0  0  0
    2.3099   23.6661  -27.9051 H   0  0  0  0  0  0  0  0  0  0  0  0
    2.3624   25.4617  -27.9051 H   0  0  0  0  0  0  0  0  0  0  0  0
    2.1300   25.7590  -24.4020 C   0  0  0  0  0  0  0  0  0  0  0  0
    2.4102   26.5241  -25.1410 H   0  0  0  0  0  0  0  0  0  0  0  0
    3.0121   25.2308  -24.0109 H   0  0  0  0  0  0  0  0  0  0  0  0
    1.4660   26.4210  -23.2660 N   0  0  0  0  0  0  0  0  0  0  0  0
    2.1780   26.7870  -22.5930 H   0  0  0  0  0  0  0  0  0  0  0  0
    0.8900   25.7020  -22.7680 H   0  0  0  0  0  0  0  0  0  0  0  0
    0.5850   27.5160  -23.7040 C   0  0  0  0  0  0  0  0  0  0  0  0
    0.8756   27.8287  -24.7178 H   0  0  0  0  0  0  0  0  0  0  0  0
    0.6886   28.3544  -22.9994 H   0  0  0  0  0  0  0  0  0  0  0  0
   -0.8750   27.0670  -23.7180 C   0  0  0  0  0  0  0  0  0  0  0  0
   -1.2345   26.9564  -22.6843 H   0  0  0  0  0  0  0  0  0  0  0  0
   -1.4849   27.8191  -24.2399 H   0  0  0  0  0  0  0  0  0  0  0  0
   -0.9569   26.1022  -24.2399 H   0  0  0  0  0  0  0  0  0  0  0  0
  1  2  1  0
  2  3  2  0
  3  4  1  0
  4  5  2  0
  5  6  1  0
  5  7  1  0
  7  8  1  0
  7  9  2  0
  9 10  1  0
 10 11  1  0
 10 12  2  0
 12 13  1  0
 13 14  2  0
 14 15  1  0
 14 16  1  0
 16 17  1  0
 16 18  2  0
 18 19  1  0
 18 20  1  0
 20 21  1  0
 20 22  2  0
 22 23  1  0
 12 24  1  0
 24 25  1  0
 24 26  2  0
 26 27  1  0
 26 28  1  0
 28 29  2  0
 29 30  1  0
  3 31  1  0
 31 32  1  0
 31 33  1  0
 31 34  1  0
  2 35  1  0
 35 36  1  0
 35 37  1  0
 35 38  1  0
 38 39  1  0
 38 40  1  0
 38 41  1  0
 41 42  1  0
 41 43  1  0
 41 44  1  0
 44 45  1  0
 44 46  1  0
 44 47  1  0
 29  4  1  0
 28  9  1  0
 22 13  1  0
M  CHG  1  38   1
M  END
>  <UniqueID>  (9) 
9

>  <SMILES>  (9) 
CC[NH2+]C/C=C(/C)c1ccc2cc(-c3ccccc3)ccc2c1

>  <Energy>  (9) 
58.8154031844095

>  <Genealogy>  (9) 
CC[NH2+]CC=C(C)c1ccc2cc(-c3ccccc3)ccc2c1 (protonated)
CC[NH2+]C/C=C(/C)c1ccc2cc(-c3ccccc3)ccc2c1 (cis-trans isomerization)
CC[NH2+]C/C=C(/C)c1ccc2cc(-c3ccccc3)ccc2c1 (3D coordinates assigned)
CC[NH2+]C/C=C(/C)c1ccc2cc(-c3ccccc3)ccc2c1 (optimized conformer: 58.8154031844095 kcal/mol)

>  <smiles>  (9) 
CCNCC=C(C)c1ccc2cc(-c3ccccc3)ccc2c1

>  <score_type>  (9) 
oracle

>  <origin>  (9) 
adg

>  <m_score__min__energy>  (9) 
-8.2200000000000006

>  <m_primary>  (9) 
energy

$$$$
9:0
     RDKit          3D

 30 30  0  0  0  0  0  0  0  0999 V2000
   -6.1546   24.7708  -32.6359 H   0  0  0  0  0  0  0  0  0  0  0  0
   -6.1120   24.0900  -31.7730 C   0  0  0  0  0  0  0  0  0  0  0  0
   -5.4760   24.5260  -30.6670 C   0  0  0  0  0  0  0  0  0  0  0  0
   -6.2000   25.3650  -29.7430 C   0  0  0  0  0  0  0  0  0  0  0  0
   -6.7790   26.0380  -29.0020 N   0  0  0  0  0  0  0  0  0  0  0  0
   -4.0610   24.2210  -30.3600 C   0  0  0  0  0  0  0  0  0  0  0  0
   -3.4060   23.4810  -31.1430 O   0  0  0  0  0  0  0  0  0  0  0  0
   -3.4410   24.7210  -29.1660 N   0  0  0  0  0  0  0  0  0  0  0  0
   -4.0450   25.1330  -28.4180 H   0  0  0  0  0  0  0  0  0  0  0  0
   -1.9900   24.6960  -28.9940 C   0  0  0  0  0  0  0  0  0  0  0  0
   -1.5205   25.2579  -29.8149 H   0  0  0  0  0  0  0  0  0  0  0  0
   -1.6534   23.6488  -29.0028 H   0  0  0  0  0  0  0  0  0  0  0  0
   -1.5880   25.3250  -27.6650 C   0  0  0  0  0  0  0  0  0  0  0  0
   -1.9782   24.7144  -26.8374 H   0  0  0  0  0  0  0  0  0  0  0  0
   -0.4910   25.3736  -27.5993 H   0  0  0  0  0  0  0  0  0  0  0  0
   -2.0046   26.3409  -27.5993 H   0  0  0  0  0  0  0  0  0  0  0  0
   -6.7570   22.7660  -31.9150 C   0  0  0  0  0  0  0  0  0  0  0  0
   -6.0340   21.6370  -32.3330 C   0  0  0  0  0  0  0  0  0  0  0  0
   -4.9612   21.7277  -32.5587 H   0  0  0  0  0  0  0  0  0  0  0  0
   -6.6690   20.3990  -32.4640 C   0  0  0  0  0  0  0  0  0  0  0  0
   -6.1001   19.5288  -32.8233 H   0  0  0  0  0  0  0  0  0  0  0  0
   -8.0290   20.2580  -32.1400 C   0  0  0  0  0  0  0  0  0  0  0  0
   -8.7270   18.9360  -32.3370 C   0  0  0  0  0  0  0  0  0  0  0  0
   -7.9040   18.0440  -33.0030 F   0  0  0  0  0  0  0  0  0  0  0  0
   -9.8730   19.1350  -33.0840 F   0  0  0  0  0  0  0  0  0  0  0  0
   -9.0730   18.3790  -31.1180 F   0  0  0  0  0  0  0  0  0  0  0  0
   -8.7480   21.3880  -31.7120 C   0  0  0  0  0  0  0  0  0  0  0  0
   -9.8187   21.2971  -31.4770 H   0  0  0  0  0  0  0  0  0  0  0  0
   -8.1120   22.6260  -31.5830 C   0  0  0  0  0  0  0  0  0  0  0  0
   -8.6781   23.4959  -31.2187 H   0  0  0  0  0  0  0  0  0  0  0  0
  1  2  1  0
  2  3  2  0
  3  4  1  0
  4  5  3  0
  3  6  1  0
  6  7  2  0
  6  8  1  0
  8  9  1  0
  8 10  1  0
 10 11  1  0
 10 12  1  0
 10 13  1  0
 13 14  1  0
 13 15  1  0
 13 16  1  0
  2 17  1  0
 17 18  2  0
 18 19  1  0
 18 20  1  0
 20 21  1  0
 20 22  2  0
 22 23  1  0
 23 24  1  0
 23 25  1  0
 23 26  1  0
 22 27  1  0
 27 28  1  0
 27 29  2  0
 29 30  1  0
 29 17  1  0
M  END
>  <UniqueID>  (10) 
10

>  <SMILES>  (10) 
CCNC(=O)/C(C#N)=C\c1ccc(C(F)(F)F)cc1

>  <Energy>  (10) 
31.01614285294047

>  <Genealogy>  (10) 
CCNC(=O)/C(C#N)=C\c1ccc(C(F)(F)F)cc1 (cis-trans isomerization)
CCNC(=O)/C(C#N)=C\c1ccc(C(F)(F)F)cc1 (3D coordinates assigned)
CCNC(=O)/C(C#N)=C\c1ccc(C(F)(F)F)cc1 (optimized conformer: 31.01614285294047 kcal/mol)

>  <smiles>  (10) 
CCNC(=O)C(C#N)=Cc1ccc(C(F)(F)F)cc1

>  <score_type>  (10) 
oracle

>  <origin>  (10) 
adg

>  <m_score__min__energy>  (10) 
-6.5199999999999996

>  <m_primary>  (10) 
energy

$$$$
10:0
     RDKit          3D

 50 52  0  0  0  0  0  0  0  0999 V2000
   -2.6806   18.9925  -34.7569 H   0  0  0  0  0  0  0  0  0  0  0  0
   -3.1200   19.5210  -33.8980 C   0  0  0  0  0  0  0  0  0  0  0  0
   -4.4030   19.1910  -33.4570 C   0  0  0  0  0  0  0  0  0  0  0  0
   -4.9728   18.4012  -33.9684 H   0  0  0  0  0  0  0  0  0  0  0  0
   -4.9650   19.8620  -32.3670 C   0  0  0  0  0  0  0  0  0  0  0  0
   -5.9739   19.5945  -32.0199 H   0  0  0  0  0  0  0  0  0  0  0  0
   -4.2460   20.8770  -31.7130 C   0  0  0  0  0  0  0  0  0  0  0  0
   -4.8320   21.5740  -30.5140 C   0  0  0  0  0  0  0  0  0  0  0  0
   -4.6697   20.9556  -29.6189 H   0  0  0  0  0  0  0  0  0  0  0  0
   -5.9096   21.7235  -30.6766 H   0  0  0  0  0  0  0  0  0  0  0  0
   -4.1910   22.8790  -30.3240 N   0  0  0  0  0  0  0  0  0  0  0  0
   -4.6060   24.0690  -30.8360 C   0  0  0  0  0  0  0  0  0  0  0  0
   -5.6250   24.1710  -31.6390 N   0  0  0  0  0  0  0  0  0  0  0  0
   -7.0060   23.8370  -31.2900 C   0  0  0  0  0  0  0  0  0  0  0  0
   -7.6345   24.7308  -31.4172 H   0  0  0  0  0  0  0  0  0  0  0  0
   -7.0279   23.4931  -30.2454 H   0  0  0  0  0  0  0  0  0  0  0  0
   -7.5480   22.7120  -32.1840 C   0  0  0  0  0  0  0  0  0  0  0  0
   -6.7012   22.0855  -32.5008 H   0  0  0  0  0  0  0  0  0  0  0  0
   -8.0589   23.1988  -33.0278 H   0  0  0  0  0  0  0  0  0  0  0  0
   -8.5870   21.8080  -31.5030 C   0  0  0  0  0  0  0  0  0  0  0  0
   -9.5845   22.2486  -31.6473 H   0  0  0  0  0  0  0  0  0  0  0  0
   -8.3204   21.7413  -30.4379 H   0  0  0  0  0  0  0  0  0  0  0  0
   -8.5950   20.3870  -32.0650 C   0  0  0  0  0  0  0  0  0  0  0  0
   -8.5991   19.6646  -31.2354 H   0  0  0  0  0  0  0  0  0  0  0  0
   -9.4940   20.2418  -32.6821 H   0  0  0  0  0  0  0  0  0  0  0  0
   -7.6977   20.2317  -32.6821 H   0  0  0  0  0  0  0  0  0  0  0  0
   -3.8700   25.1360  -30.4270 N   0  0  0  0  0  0  0  0  0  0  0  0
   -2.9620   24.5590  -29.6220 C   0  0  0  0  0  0  0  0  0  0  0  0
   -1.9920   25.1970  -28.9360 N   0  0  0  0  0  0  0  0  0  0  0  0
   -1.1560   24.4680  -28.1390 C   0  0  0  0  0  0  0  0  0  0  0  0
    0.1110   25.3610  -27.2180 S   0  0  0  0  0  0  0  0  0  0  0  0
   -1.0650   26.4450  -26.3360 C   0  0  0  0  0  0  0  0  0  0  0  0
   -0.5206   27.0229  -25.5746 H   0  0  0  0  0  0  0  0  0  0  0  0
   -1.5366   27.1194  -27.0659 H   0  0  0  0  0  0  0  0  0  0  0  0
   -2.1540   25.6260  -25.6560 C   0  0  0  0  0  0  0  0  0  0  0  0
   -2.0461   25.7072  -24.5643 H   0  0  0  0  0  0  0  0  0  0  0  0
   -3.1411   26.0074  -25.9562 H   0  0  0  0  0  0  0  0  0  0  0  0
   -2.0614   24.5718  -25.9562 H   0  0  0  0  0  0  0  0  0  0  0  0
   -1.2820   23.0900  -28.0580 N   0  0  0  0  0  0  0  0  0  0  0  0
   -0.3560   22.3220  -27.2080 C   0  0  0  0  0  0  0  0  0  0  0  0
   -0.5861   22.5129  -26.1494 H   0  0  0  0  0  0  0  0  0  0  0  0
   -0.4685   21.2485  -27.4199 H   0  0  0  0  0  0  0  0  0  0  0  0
    0.6782   22.6311  -27.4199 H   0  0  0  0  0  0  0  0  0  0  0  0
   -2.2900   22.4490  -28.7510 C   0  0  0  0  0  0  0  0  0  0  0  0
   -2.4360   21.2000  -28.6760 O   0  0  0  0  0  0  0  0  0  0  0  0
   -3.1410   23.2190  -29.5460 C   0  0  0  0  0  0  0  0  0  0  0  0
   -2.9520   21.1970  -32.1580 C   0  0  0  0  0  0  0  0  0  0  0  0
   -2.3755   21.9816  -31.6461 H   0  0  0  0  0  0  0  0  0  0  0  0
   -2.3940   20.5230  -33.2480 C   0  0  0  0  0  0  0  0  0  0  0  0
   -1.3825   20.7814  -33.5946 H   0  0  0  0  0  0  0  0  0  0  0  0
  1  2  1  0
  2  3  2  0
  3  4  1  0
  3  5  1  0
  5  6  1  0
  5  7  2  0
  7  8  1  0
  8  9  1  0
  8 10  1  0
  8 11  1  0
 11 12  1  0
 12 13  2  0
 13 14  1  0
 14 15  1  0
 14 16  1  0
 14 17  1  0
 17 18  1  0
 17 19  1  0
 17 20  1  0
 20 21  1  0
 20 22  1  0
 20 23  1  0
 23 24  1  0
 23 25  1  0
 23 26  1  0
 12 27  1  0
 27 28  1  0
 28 29  1  0
 29 30  2  0
 30 31  1  0
 31 32  1  0
 32 33  1  0
 32 34  1  0
 32 35  1  0
 35 36  1  0
 35 37  1  0
 35 38  1  0
 30 39  1  0
 39 40  1  0
 40 41  1  0
 40 42  1  0
 40 43  1  0
 39 44  1  0
 44 45  2  0
 44 46  1  0
  7 47  1  0
 47 48  1  0
 47 49  2  0
 49 50  1  0
 49  2  1  0
 46 11  1  0
 46 28  2  0
M  CHG  1  27  -1
M  END
>  <UniqueID>  (11) 
11

>  <SMILES>  (11) 
CCCC/N=c1\[n-]c2nc(SCC)n(C)c(=O)c2n1Cc1ccccc1

>  <Energy>  (11) 
85.06507752777429

>  <Genealogy>  (11) 
CCCCN=c1[n-]c2nc(SCC)n(C)c(=O)c2n1Cc1ccccc1 (protonated)
CCCC/N=c1\[n-]c2nc(SCC)n(C)c(=O)c2n1Cc1ccccc1 (cis-trans isomerization)
CCCC/N=c1\[n-]c2nc(SCC)n(C)c(=O)c2n1Cc1ccccc1 (3D coordinates assigned)
CCCC/N=c1\[n-]c2nc(SCC)n(C)c(=O)c2n1Cc1ccccc1 (optimized conformer: 85.06507752777429 kcal/mol)

>  <smiles>  (11) 
CCCCN=c1[nH]c2nc(SCC)n(C)c(=O)c2n1Cc1ccccc1

>  <score_type>  (11) 
oracle

>  <origin>  (11) 
adg

>  <m_score__min__energy>  (11) 
-8.7899999999999991

>  <m_primary>  (11) 
energy

$$$$
11:0
     RDKit          3D

 48 50  0  0  0  0  0  0  0  0999 V2000
   -1.0000   25.2310  -28.2780 C   0  0  0  0  0  0  0  0  0  0  0  0
   -2.3890   24.8830  -28.6180 N   0  0  0  0  0  0  0  0  0  0  0  0
   -3.1210   24.5430  -27.3850 C   0  0  0  0  0  0  0  0  0  0  0  0
   -2.4140   23.7570  -29.5800 C   0  0  0  0  0  0  0  0  0  0  0  0
   -3.7250   23.7360  -30.3730 C   0  0  0  0  0  0  0  0  0  0  0  0
   -4.2570   25.1010  -30.5080 N   0  0  0  0  0  0  0  0  0  0  0  0
   -5.6660   25.0920  -30.9250 C   0  0  0  0  0  0  0  0  0  0  0  0
   -6.1920   23.6570  -30.9840 C   0  0  0  0  0  0  0  0  0  0  0  0
   -6.1120   23.1400  -32.3490 N   0  0  0  0  0  0  0  0  0  0  0  0
   -6.0700   21.7280  -32.6050 C   0  0  0  0  0  0  0  0  0  0  0  0
   -4.8850   21.0690  -32.9940 C   0  0  0  0  0  0  0  0  0  0  0  0
   -3.6640   21.7670  -33.0730 C   0  0  0  0  0  0  0  0  0  0  0  0
   -2.4890   21.1070  -33.4210 C   0  0  0  0  0  0  0  0  0  0  0  0
   -2.5030   19.7400  -33.6740 C   0  0  0  0  0  0  0  0  0  0  0  0
   -3.6950   19.0200  -33.5930 C   0  0  0  0  0  0  0  0  0  0  0  0
   -4.9170   19.6620  -33.2690 C   0  0  0  0  0  0  0  0  0  0  0  0
   -6.1120   18.9590  -33.1930 N   0  0  0  0  0  0  0  0  0  0  0  0
   -6.1870   17.5440  -33.6070 C   0  0  0  0  0  0  0  0  0  0  0  0
   -7.2300   19.6010  -32.7110 C   0  0  0  0  0  0  0  0  0  0  0  0
   -8.4880   19.0170  -32.4420 C   0  0  0  0  0  0  0  0  0  0  0  0
   -9.4340   19.9330  -31.9900 C   0  0  0  0  0  0  0  0  0  0  0  0
   -8.7240   21.4560  -31.9080 S   0  0  0  0  0  0  0  0  0  0  0  0
   -7.2100   20.9580  -32.4350 C   0  0  0  0  0  0  0  0  0  0  0  0
   -0.8864   25.2595  -27.1843 H   0  0  0  0  0  0  0  0  0  0  0  0
   -0.3195   24.4756  -28.6978 H   0  0  0  0  0  0  0  0  0  0  0  0
   -0.7560   26.2180  -28.6978 H   0  0  0  0  0  0  0  0  0  0  0  0
   -2.5162   24.8239  -26.5102 H   0  0  0  0  0  0  0  0  0  0  0  0
   -4.0750   25.0902  -27.3622 H   0  0  0  0  0  0  0  0  0  0  0  0
   -3.3183   23.4611  -27.3622 H   0  0  0  0  0  0  0  0  0  0  0  0
   -1.5725   23.8644  -30.2803 H   0  0  0  0  0  0  0  0  0  0  0  0
   -2.3318   22.8155  -29.0171 H   0  0  0  0  0  0  0  0  0  0  0  0
   -3.5384   23.3178  -31.3732 H   0  0  0  0  0  0  0  0  0  0  0  0
   -4.4589   23.1152  -29.8383 H   0  0  0  0  0  0  0  0  0  0  0  0
   -4.2060   25.5650  -29.5700 H   0  0  0  0  0  0  0  0  0  0  0  0
   -6.2623   25.6678  -30.2019 H   0  0  0  0  0  0  0  0  0  0  0  0
   -5.7467   25.5445  -31.9244 H   0  0  0  0  0  0  0  0  0  0  0  0
   -5.5873   23.0219  -30.3200 H   0  0  0  0  0  0  0  0  0  0  0  0
   -7.2434   23.6491  -30.6608 H   0  0  0  0  0  0  0  0  0  0  0  0
   -5.8120   23.7930  -33.1090 H   0  0  0  0  0  0  0  0  0  0  0  0
   -3.6389   22.8454  -32.8573 H   0  0  0  0  0  0  0  0  0  0  0  0
   -1.5463   21.6688  -33.4961 H   0  0  0  0  0  0  0  0  0  0  0  0
   -1.5689   19.2233  -33.9395 H   0  0  0  0  0  0  0  0  0  0  0  0
   -3.6868   17.9367  -33.7836 H   0  0  0  0  0  0  0  0  0  0  0  0
   -6.2210   16.9021  -32.7144 H   0  0  0  0  0  0  0  0  0  0  0  0
   -7.0948   17.3853  -34.2076 H   0  0  0  0  0  0  0  0  0  0  0  0
   -5.3010   17.2902  -34.2076 H   0  0  0  0  0  0  0  0  0  0  0  0
   -8.6989   17.9458  -32.5762 H   0  0  0  0  0  0  0  0  0  0  0  0
  -10.4766   19.6989  -31.7288 H   0  0  0  0  0  0  0  0  0  0  0  0
  1  2  1  0
  2  3  1  0
  2  4  1  0
  4  5  1  0
  5  6  1  0
  6  7  1  0
  7  8  1  0
  8  9  1  0
  9 10  1  0
 10 11  2  0
 11 12  1  0
 12 13  2  0
 13 14  1  0
 14 15  2  0
 15 16  1  0
 16 17  2  0
 17 18  1  0
 17 19  1  0
 19 20  1  0
 20 21  2  0
 21 22  1  0
 22 23  1  0
 23 10  1  0
 16 11  1  0
 23 19  2  0
  1 24  1  0
  1 25  1  0
  1 26  1  0
  3 27  1  0
  3 28  1  0
  3 29  1  0
  4 30  1  0
  4 31  1  0
  5 32  1  0
  5 33  1  0
  6 34  1  0
  7 35  1  0
  7 36  1  0
  8 37  1  0
  8 38  1  0
  9 39  1  0
 12 40  1  0
 13 41  1  0
 14 42  1  0
 15 43  1  0
 18 44  1  0
 18 45  1  0
 18 46  1  0
 20 47  1  0
 21 48  1  0
M  CHG  1  17   1
M  END
>  <UniqueID>  (12) 
12

>  <SMILES>  (12) 
CN(C)CCNCCNc1c2ccccc2[n+](C)c2ccsc12

>  <Energy>  (12) 
93.25583197853693

>  <Genealogy>  (12) 
CN(C)CCNCCNc1c2ccccc2[n+](C)c2ccsc12 (3D coordinates assigned)
CN(C)CCNCCNc1c2ccccc2[n+](C)c2ccsc12 (optimized conformer: 93.25583197853693 kcal/mol)

>  <smiles>  (12) 
CN(C)CCNCCNc1c2ccccc2[n+](C)c2ccsc12

>  <score_type>  (12) 
oracle

>  <origin>  (12) 
adg

>  <m_score__min__energy>  (12) 
-8.2799999999999994

>  <m_primary>  (12) 
energy

$$$$
12:0
     RDKit          3D

 84 85  0  0  0  0  0  0  0  0999 V2000
   -1.1770   26.6810  -25.9740 C   0  0  0  0  0  0  0  0  0  0  0  0
   -0.8590   26.4280  -27.4410 C   0  0  0  0  0  0  0  0  0  0  0  0
   -1.3680   25.0920  -27.8320 N   0  0  0  0  0  0  0  0  0  0  0  0
   -2.2450   24.4670  -26.8210 C   0  0  0  0  0  0  0  0  0  0  0  0
   -3.7040   24.5340  -27.2650 C   0  0  0  0  0  0  0  0  0  0  0  0
   -0.3210   24.1860  -28.3610 C   0  0  0  0  0  0  0  0  0  0  0  0
    0.1440   23.0810  -27.3850 C   0  0  0  0  0  0  0  0  0  0  0  0
   -0.4310   21.8310  -27.7060 O   0  0  0  0  0  0  0  0  0  0  0  0
   -1.2820   21.3840  -26.6690 C   0  0  0  0  0  0  0  0  0  0  0  0
   -2.4100   20.5560  -27.2710 C   0  0  0  0  0  0  0  0  0  0  0  0
   -1.8870   19.7000  -28.2660 O   0  0  0  0  0  0  0  0  0  0  0  0
   -0.9700   18.7800  -27.7060 C   0  0  0  0  0  0  0  0  0  0  0  0
   -0.1210   18.1470  -28.8120 C   0  0  0  0  0  0  0  0  0  0  0  0
    0.3630   19.1520  -29.6870 O   0  0  0  0  0  0  0  0  0  0  0  0
    1.5440   19.7560  -29.1920 C   0  0  0  0  0  0  0  0  0  0  0  0
    2.6590   18.7180  -29.0840 C   0  0  0  0  0  0  0  0  0  0  0  0
    3.6590   18.9970  -30.0490 O   0  0  0  0  0  0  0  0  0  0  0  0
    3.4140   18.3160  -31.2660 C   0  0  0  0  0  0  0  0  0  0  0  0
    2.8120   19.2370  -32.3430 C   0  0  0  0  0  0  0  0  0  0  0  0
    1.4020   18.9090  -32.5980 N   0  0  0  0  0  0  0  0  0  0  0  0
    0.7330   19.9120  -33.4400 C   0  0  0  0  0  0  0  0  0  0  0  0
   -0.5590   20.3710  -32.7520 C   0  0  0  0  0  0  0  0  0  0  0  0
   -0.2910   21.1720  -31.4580 C   0  0  0  0  0  0  0  0  0  0  0  0
   -1.3040   20.9260  -30.4150 N   0  0  0  0  0  0  0  0  0  0  0  0
   -2.4870   21.7360  -30.6080 C   0  0  0  0  0  0  0  0  0  0  0  0
   -2.4380   23.1160  -30.3450 C   0  0  0  0  0  0  0  0  0  0  0  0
   -3.5430   23.9330  -30.5770 C   0  0  0  0  0  0  0  0  0  0  0  0
   -3.4440   25.2940  -30.3110 O   0  0  0  0  0  0  0  0  0  0  0  0
   -4.7320   23.3820  -31.0830 C   0  0  0  0  0  0  0  0  0  0  0  0
   -5.8560   24.1930  -31.3290 C   0  0  0  0  0  0  0  0  0  0  0  0
   -7.0230   23.6410  -31.8560 C   0  0  0  0  0  0  0  0  0  0  0  0
   -7.0880   22.2790  -32.1470 C   0  0  0  0  0  0  0  0  0  0  0  0
   -5.9840   21.4550  -31.9030 C   0  0  0  0  0  0  0  0  0  0  0  0
   -4.8010   21.9900  -31.3590 C   0  0  0  0  0  0  0  0  0  0  0  0
   -3.6810   21.1670  -31.1020 C   0  0  0  0  0  0  0  0  0  0  0  0
   -3.7390   19.7930  -31.3560 O   0  0  0  0  0  0  0  0  0  0  0  0
   -3.7530   19.2800  -32.6810 C   0  0  0  0  0  0  0  0  0  0  0  0
   -0.4715   26.1197  -25.3438 H   0  0  0  0  0  0  0  0  0  0  0  0
   -1.0855   27.7559  -25.7591 H   0  0  0  0  0  0  0  0  0  0  0  0
   -2.2038   26.3502  -25.7591 H   0  0  0  0  0  0  0  0  0  0  0  0
   -1.3409   27.1997  -28.0593 H   0  0  0  0  0  0  0  0  0  0  0  0
    0.2299   26.4650  -27.5925 H   0  0  0  0  0  0  0  0  0  0  0  0
   -1.9542   23.4142  -26.6905 H   0  0  0  0  0  0  0  0  0  0  0  0
   -2.1367   25.0106  -25.8708 H   0  0  0  0  0  0  0  0  0  0  0  0
   -4.3558   24.5639  -26.3794 H   0  0  0  0  0  0  0  0  0  0  0  0
   -3.8626   25.4404  -27.8678 H   0  0  0  0  0  0  0  0  0  0  0  0
   -3.9450   23.6460  -27.8678 H   0  0  0  0  0  0  0  0  0  0  0  0
   -0.7167   23.6985  -29.2642 H   0  0  0  0  0  0  0  0  0  0  0  0
    0.5603   24.8155  -28.5535 H   0  0  0  0  0  0  0  0  0  0  0  0
    1.2393   22.9948  -27.4383 H   0  0  0  0  0  0  0  0  0  0  0  0
   -0.1781   23.3587  -26.3705 H   0  0  0  0  0  0  0  0  0  0  0  0
   -0.7083   20.7662  -25.9624 H   0  0  0  0  0  0  0  0  0  0  0  0
   -1.7019   22.2495  -26.1356 H   0  0  0  0  0  0  0  0  0  0  0  0
   -2.8844   19.9541  -26.4819 H   0  0  0  0  0  0  0  0  0  0  0  0
   -3.1574   21.2265  -27.7202 H   0  0  0  0  0  0  0  0  0  0  0  0
   -0.3125   19.3062  -26.9983 H   0  0  0  0  0  0  0  0  0  0  0  0
   -1.5268   17.9896  -27.1814 H   0  0  0  0  0  0  0  0  0  0  0  0
    0.7302   17.6171  -28.3596 H   0  0  0  0  0  0  0  0  0  0  0  0
   -0.7405   17.4394  -29.3825 H   0  0  0  0  0  0  0  0  0  0  0  0
    1.8578   20.5570  -29.8775 H   0  0  0  0  0  0  0  0  0  0  0  0
    1.3436   20.1741  -28.1945 H   0  0  0  0  0  0  0  0  0  0  0  0
    3.1000   18.7570  -28.0770 H   0  0  0  0  0  0  0  0  0  0  0  0
    2.2450   17.7149  -29.2643 H   0  0  0  0  0  0  0  0  0  0  0  0
    4.3647   17.9089  -31.6406 H   0  0  0  0  0  0  0  0  0  0  0  0
    2.6857   17.5171  -31.0626 H   0  0  0  0  0  0  0  0  0  0  0  0
    2.8812   20.2805  -32.0018 H   0  0  0  0  0  0  0  0  0  0  0  0
    3.3761   19.0949  -33.2766 H   0  0  0  0  0  0  0  0  0  0  0  0
    0.9050   18.8700  -31.6760 H   0  0  0  0  0  0  0  0  0  0  0  0
    1.3997   20.7752  -33.5833 H   0  0  0  0  0  0  0  0  0  0  0  0
    0.4927   19.4706  -34.4185 H   0  0  0  0  0  0  0  0  0  0  0  0
   -1.1228   21.0074  -33.4499 H   0  0  0  0  0  0  0  0  0  0  0  0
   -1.1268   19.4706  -32.4749 H   0  0  0  0  0  0  0  0  0  0  0  0
    0.6955   20.8852  -31.0648 H   0  0  0  0  0  0  0  0  0  0  0  0
   -0.3321   22.2408  -31.7149 H   0  0  0  0  0  0  0  0  0  0  0  0
   -0.8860   21.0970  -29.4710 H   0  0  0  0  0  0  0  0  0  0  0  0
   -1.5700   19.9150  -30.4390 H   0  0  0  0  0  0  0  0  0  0  0  0
   -1.5119   23.5585  -29.9494 H   0  0  0  0  0  0  0  0  0  0  0  0
   -5.8134   25.2689  -31.1041 H   0  0  0  0  0  0  0  0  0  0  0  0
   -7.8964   24.2831  -32.0430 H   0  0  0  0  0  0  0  0  0  0  0  0
   -8.0093   21.8514  -32.5693 H   0  0  0  0  0  0  0  0  0  0  0  0
   -6.0408   20.3819  -32.1378 H   0  0  0  0  0  0  0  0  0  0  0  0
   -3.7830   18.1809  -32.6483 H   0  0  0  0  0  0  0  0  0  0  0  0
   -4.6412   19.6555  -33.2102 H   0  0  0  0  0  0  0  0  0  0  0  0
   -2.8456   19.6065  -33.2102 H   0  0  0  0  0  0  0  0  0  0  0  0
  1  2  1  0
  2  3  1  0
  3  4  1  0
  4  5  1  0
  3  6  1  0
  6  7  1  0
  7  8  1  0
  8  9  1  0
  9 10  1  0
 10 11  1  0
 11 12  1  0
 12 13  1  0
 13 14  1  0
 14 15  1  0
 15 16  1  0
 16 17  1  0
 17 18  1  0
 18 19  1  0
 19 20  1  0
 20 21  1  0
 21 22  1  0
 22 23  1  0
 23 24  1  0
 24 25  1  0
 25 26  2  0
 26 27  1  0
 27 28  1  0
 27 29  2  0
 29 30  1  0
 30 31  2  0
 31 32  1  0
 32 33  2  0
 33 34  1  0
 34 35  2  0
 35 36  1  0
 36 37  1  0
 35 25  1  0
 34 29  1  0
  1 38  1  0
  1 39  1  0
  1 40  1  0
  2 41  1  0
  2 42  1  0
  4 43  1  0
  4 44  1  0
  5 45  1  0
  5 46  1  0
  5 47  1  0
  6 48  1  0
  6 49  1  0
  7 50  1  0
  7 51  1  0
  9 52  1  0
  9 53  1  0
 10 54  1  0
 10 55  1  0
 12 56  1  0
 12 57  1  0
 13 58  1  0
 13 59  1  0
 15 60  1  0
 15 61  1  0
 16 62  1  0
 16 63  1  0
 18 64  1  0
 18 65  1  0
 19 66  1  0
 19 67  1  0
 20 68  1  0
 21 69  1  0
 21 70  1  0
 22 71  1  0
 22 72  1  0
 23 73  1  0
 23 74  1  0
 24 75  1  0
 24 76  1  0
 26 77  1  0
 30 78  1  0
 31 79  1  0
 32 80  1  0
 33 81  1  0
 37 82  1  0
 37 83  1  0
 37 84  1  0
M  CHG  2  24   1  28  -1
M  END
>  <UniqueID>  (13) 
13

>  <SMILES>  (13) 
CCN(CC)CCOCCOCCOCCOCCNCCC[NH2+]c1cc([O-])c2ccccc2c1OC

>  <Energy>  (13) 
95.435384024825

>  <Genealogy>  (13) 
CCN(CC)CCOCCOCCOCCOCCNCCC[NH2+]c1cc([O-])c2ccccc2c1OC (protonated)
CCN(CC)CCOCCOCCOCCOCCNCCC[NH2+]c1cc([O-])c2ccccc2c1OC (3D coordinates assigned)
CCN(CC)CCOCCOCCOCCOCCNCCC[NH2+]c1cc([O-])c2ccccc2c1OC (optimized conformer: 95.435384024825 kcal/mol)

>  <smiles>  (13) 
CCN(CC)CCOCCOCCOCCOCCNCCCNc1cc(O)c2ccccc2c1OC

>  <score_type>  (13) 
oracle

>  <origin>  (13) 
adg

>  <m_score__min__energy>  (13) 
-8.7699999999999996

>  <m_primary>  (13) 
energy

$$$$
13:0
     RDKit          3D

 49 51  0  0  0  0  0  0  0  0999 V2000
   -5.8790   25.2620  -30.2540 C   0  0  0  0  0  0  0  0  0  0  0  0
   -4.6110   24.4280  -30.4890 C   0  0  0  0  0  0  0  0  0  0  0  0
   -3.6310   24.4970  -29.3790 N   0  0  0  0  0  0  0  0  0  0  0  0
   -4.2290   24.1440  -28.0820 C   0  0  0  0  0  0  0  0  0  0  0  0
   -2.4000   23.7240  -29.6550 C   0  0  0  0  0  0  0  0  0  0  0  0
   -2.6530   22.6570  -30.7200 C   0  0  0  0  0  0  0  0  0  0  0  0
   -3.4790   21.6420  -30.1780 O   0  0  0  0  0  0  0  0  0  0  0  0
   -4.0580   20.8440  -31.1910 C   0  0  0  0  0  0  0  0  0  0  0  0
   -3.6130   21.3310  -32.5680 C   0  0  0  0  0  0  0  0  0  0  0  0
   -4.6780   21.1740  -33.4990 O   0  0  0  0  0  0  0  0  0  0  0  0
   -5.7800   20.3680  -33.1980 C   0  0  0  0  0  0  0  0  0  0  0  0
   -5.7600   18.9970  -33.5140 C   0  0  0  0  0  0  0  0  0  0  0  0
   -4.6610   18.4130  -34.1720 C   0  0  0  0  0  0  0  0  0  0  0  0
   -4.6600   17.0470  -34.4640 C   0  0  0  0  0  0  0  0  0  0  0  0
   -5.7490   16.2500  -34.1030 C   0  0  0  0  0  0  0  0  0  0  0  0
   -6.8460   16.8160  -33.4510 C   0  0  0  0  0  0  0  0  0  0  0  0
   -6.8640   18.1900  -33.1540 C   0  0  0  0  0  0  0  0  0  0  0  0
   -7.9370   18.7400  -32.5150 N   0  0  0  0  0  0  0  0  0  0  0  0
   -7.9890   20.0710  -32.2180 C   0  0  0  0  0  0  0  0  0  0  0  0
   -9.1120   20.6050  -31.5630 C   0  0  0  0  0  0  0  0  0  0  0  0
   -9.1690   21.9680  -31.2630 C   0  0  0  0  0  0  0  0  0  0  0  0
   -8.1130   22.8090  -31.6170 C   0  0  0  0  0  0  0  0  0  0  0  0
   -6.9880   22.2920  -32.2660 C   0  0  0  0  0  0  0  0  0  0  0  0
   -6.9100   20.9200  -32.5650 C   0  0  0  0  0  0  0  0  0  0  0  0
   -6.0491   25.3739  -29.1730 H   0  0  0  0  0  0  0  0  0  0  0  0
   -5.7545   26.2551  -30.7103 H   0  0  0  0  0  0  0  0  0  0  0  0
   -6.7416   24.7543  -30.7103 H   0  0  0  0  0  0  0  0  0  0  0  0
   -4.9078   23.3774  -30.6239 H   0  0  0  0  0  0  0  0  0  0  0  0
   -4.1154   24.8450  -31.3781 H   0  0  0  0  0  0  0  0  0  0  0  0
   -3.5907   24.5208  -27.2692 H   0  0  0  0  0  0  0  0  0  0  0  0
   -5.2283   24.5971  -28.0035 H   0  0  0  0  0  0  0  0  0  0  0  0
   -4.3152   23.0502  -28.0035 H   0  0  0  0  0  0  0  0  0  0  0  0
   -1.6166   24.4093  -30.0108 H   0  0  0  0  0  0  0  0  0  0  0  0
   -2.0824   23.2259  -28.7271 H   0  0  0  0  0  0  0  0  0  0  0  0
   -3.1530   23.1140  -31.5867 H   0  0  0  0  0  0  0  0  0  0  0  0
   -1.6951   22.2211  -31.0401 H   0  0  0  0  0  0  0  0  0  0  0  0
   -3.7411   19.7994  -31.0556 H   0  0  0  0  0  0  0  0  0  0  0  0
   -5.1534   20.9173  -31.1222 H   0  0  0  0  0  0  0  0  0  0  0  0
   -3.3336   22.3932  -32.5076 H   0  0  0  0  0  0  0  0  0  0  0  0
   -2.7472   20.7400  -32.9014 H   0  0  0  0  0  0  0  0  0  0  0  0
   -3.7997   19.0348  -34.4573 H   0  0  0  0  0  0  0  0  0  0  0  0
   -3.7988   16.5974  -34.9799 H   0  0  0  0  0  0  0  0  0  0  0  0
   -5.7421   15.1743  -34.3329 H   0  0  0  0  0  0  0  0  0  0  0  0
   -7.7006   16.1837  -33.1682 H   0  0  0  0  0  0  0  0  0  0  0  0
   -8.7410   18.1260  -32.2480 H   0  0  0  0  0  0  0  0  0  0  0  0
   -9.9489   19.9473  -31.2857 H   0  0  0  0  0  0  0  0  0  0  0  0
  -10.0486   22.3796  -30.7463 H   0  0  0  0  0  0  0  0  0  0  0  0
   -8.1661   23.8828  -31.3844 H   0  0  0  0  0  0  0  0  0  0  0  0
   -6.1603   22.9611  -32.5440 H   0  0  0  0  0  0  0  0  0  0  0  0
  1  2  1  0
  2  3  1  0
  3  4  1  0
  3  5  1  0
  5  6  1  0
  6  7  1  0
  7  8  1  0
  8  9  1  0
  9 10  1  0
 10 11  1  0
 11 12  2  0
 12 13  1  0
 13 14  2  0
 14 15  1  0
 15 16  2  0
 16 17  1  0
 17 18  2  0
 18 19  1  0
 19 20  2  0
 20 21  1  0
 21 22  2  0
 22 23  1  0
 23 24  2  0
 24 11  1  0
 17 12  1  0
 24 19  1  0
  1 25  1  0
  1 26  1  0
  1 27  1  0
  2 28  1  0
  2 29  1  0
  4 30  1  0
  4 31  1  0
  4 32  1  0
  5 33  1  0
  5 34  1  0
  6 35  1  0
  6 36  1  0
  8 37  1  0
  8 38  1  0
  9 39  1  0
  9 40  1  0
 13 41  1  0
 14 42  1  0
 15 43  1  0
 16 44  1  0
 18 45  1  0
 20 46  1  0
 21 47  1  0
 22 48  1  0
 23 49  1  0
M  CHG  1  18   1
M  END
>  <UniqueID>  (14) 
14

>  <SMILES>  (14) 
CCN(C)CCOCCOc1c2ccccc2[nH+]c2ccccc12

>  <Energy>  (14) 
65.66594665204393

>  <Genealogy>  (14) 
CCN(C)CCOCCOc1c2ccccc2[nH+]c2ccccc12 (protonated)
CCN(C)CCOCCOc1c2ccccc2[nH+]c2ccccc12 (3D coordinates assigned)
CCN(C)CCOCCOc1c2ccccc2[nH+]c2ccccc12 (optimized conformer: 65.66594665204393 kcal/mol)

>  <smiles>  (14) 
CCN(C)CCOCCOc1c2ccccc2nc2ccccc12

>  <score_type>  (14) 
oracle

>  <origin>  (14) 
adg

>  <m_score__min__energy>  (14) 
-8.0700000000000003

>  <m_primary>  (14) 
energy

$$$$
14:0
     RDKit          3D

 52 55  0  0  0  0  0  0  0  0999 V2000
   -8.6820   18.7240  -31.7480 C   0  0  0  0  0  0  0  0  0  0  0  0
   -7.4740   19.4760  -32.0710 N   0  0  0  0  0  0  0  0  0  0  0  0
   -6.3000   18.9690  -32.4940 C   0  0  0  0  0  0  0  0  0  0  0  0
   -5.4480   20.0270  -32.7510 C   0  0  0  0  0  0  0  0  0  0  0  0
   -4.0610   19.9270  -33.2340 C   0  0  0  0  0  0  0  0  0  0  0  0
   -3.3960   18.7570  -33.5880 C   0  0  0  0  0  0  0  0  0  0  0  0
   -2.0800   18.9760  -34.0120 C   0  0  0  0  0  0  0  0  0  0  0  0
   -1.7020   20.3120  -33.9960 C   0  0  0  0  0  0  0  0  0  0  0  0
   -3.0080   21.2210  -33.4530 S   0  0  0  0  0  0  0  0  0  0  0  0
   -6.0940   21.1840  -32.5000 N   0  0  0  0  0  0  0  0  0  0  0  0
   -7.3240   20.8170  -32.0930 C   0  0  0  0  0  0  0  0  0  0  0  0
   -8.6080   21.9890  -31.6500 S   0  0  0  0  0  0  0  0  0  0  0  0
   -7.5960   23.4400  -32.1040 C   0  0  0  0  0  0  0  0  0  0  0  0
   -6.9190   24.0420  -30.8700 C   0  0  0  0  0  0  0  0  0  0  0  0
   -5.6210   24.7840  -31.2250 C   0  0  0  0  0  0  0  0  0  0  0  0
   -4.5060   24.2850  -30.3890 N   0  0  0  0  0  0  0  0  0  0  0  0
   -3.9100   23.0670  -30.9820 C   0  0  0  0  0  0  0  0  0  0  0  0
   -2.6310   22.5980  -30.2380 C   0  0  1  0  0  0  0  0  0  0  0  0
   -1.8010   23.7840  -29.6940 C   0  0  0  0  0  0  0  0  0  0  0  0
   -2.4650   24.4840  -28.4820 C   0  0  0  0  0  0  0  0  0  0  0  0
   -3.7690   23.7900  -28.0270 C   0  0  2  0  0  0  0  0  0  0  0  0
   -3.5270   22.2800  -27.8420 C   0  0  0  0  0  0  0  0  0  0  0  0
   -2.9580   21.6020  -29.1050 C   0  0  0  0  0  0  0  0  0  0  0  0
   -4.9520   24.0600  -28.9950 C   0  0  0  0  0  0  0  0  0  0  0  0
   -8.7907   18.6564  -30.6555 H   0  0  0  0  0  0  0  0  0  0  0  0
   -9.5577   19.2368  -32.1725 H   0  0  0  0  0  0  0  0  0  0  0  0
   -8.6084   17.7119  -32.1725 H   0  0  0  0  0  0  0  0  0  0  0  0
   -6.0614   17.9019  -32.6138 H   0  0  0  0  0  0  0  0  0  0  0  0
   -3.8581   17.7600  -33.5395 H   0  0  0  0  0  0  0  0  0  0  0  0
   -1.4077   18.1649  -34.3285 H   0  0  0  0  0  0  0  0  0  0  0  0
   -0.7180   20.7074  -34.2881 H   0  0  0  0  0  0  0  0  0  0  0  0
   -5.7320   22.1580  -32.6020 H   0  0  0  0  0  0  0  0  0  0  0  0
   -6.8236   23.1295  -32.8230 H   0  0  0  0  0  0  0  0  0  0  0  0
   -8.2532   24.2008  -32.5504 H   0  0  0  0  0  0  0  0  0  0  0  0
   -7.6136   24.7504  -30.3949 H   0  0  0  0  0  0  0  0  0  0  0  0
   -6.6615   23.2170  -30.1895 H   0  0  0  0  0  0  0  0  0  0  0  0
   -5.3841   24.6158  -32.2859 H   0  0  0  0  0  0  0  0  0  0  0  0
   -5.7580   25.8594  -31.0385 H   0  0  0  0  0  0  0  0  0  0  0  0
   -4.6544   22.2580  -30.9450 H   0  0  0  0  0  0  0  0  0  0  0  0
   -3.6211   23.3097  -32.0153 H   0  0  0  0  0  0  0  0  0  0  0  0
   -2.0158   22.0756  -30.9855 H   0  0  0  0  0  0  0  0  0  0  0  0
   -1.6757   24.5225  -30.4996 H   0  0  0  0  0  0  0  0  0  0  0  0
   -0.8365   23.3804  -29.3522 H   0  0  0  0  0  0  0  0  0  0  0  0
   -2.6987   25.5221  -28.7609 H   0  0  0  0  0  0  0  0  0  0  0  0
   -1.7551   24.4355  -27.6431 H   0  0  0  0  0  0  0  0  0  0  0  0
   -4.0586   24.2237  -27.0585 H   0  0  0  0  0  0  0  0  0  0  0  0
   -4.4835   21.8003  -27.5873 H   0  0  0  0  0  0  0  0  0  0  0  0
   -2.7824   22.1617  -27.0411 H   0  0  0  0  0  0  0  0  0  0  0  0
   -3.6996   20.8802  -29.4779 H   0  0  0  0  0  0  0  0  0  0  0  0
   -2.0145   21.1155  -28.8166 H   0  0  0  0  0  0  0  0  0  0  0  0
   -5.6275   23.1920  -28.9768 H   0  0  0  0  0  0  0  0  0  0  0  0
   -5.4589   24.9752  -28.6551 H   0  0  0  0  0  0  0  0  0  0  0  0
  1  2  1  0
  2  3  1  0
  3  4  2  0
  4  5  1  0
  5  6  2  0
  6  7  1  0
  7  8  2  0
  8  9  1  0
  4 10  1  0
 10 11  2  0
 11 12  1  0
 12 13  1  0
 13 14  1  0
 14 15  1  0
 15 16  1  0
 16 17  1  0
 17 18  1  0
 18 19  1  0
 19 20  1  0
 20 21  1  0
 21 22  1  0
 22 23  1  0
 21 24  1  0
 11  2  1  0
 24 16  1  0
  9  5  1  0
 23 18  1  0
  1 25  1  0
  1 26  1  0
  1 27  1  0
  3 28  1  0
  6 29  1  0
  7 30  1  0
  8 31  1  0
 10 32  1  0
 13 33  1  0
 13 34  1  0
 14 35  1  0
 14 36  1  0
 15 37  1  0
 15 38  1  0
 17 39  1  0
 17 40  1  0
 18 41  1  6
 19 42  1  0
 19 43  1  0
 20 44  1  0
 20 45  1  0
 21 46  1  1
 22 47  1  0
 22 48  1  0
 23 49  1  0
 23 50  1  0
 24 51  1  0
 24 52  1  0
M  CHG  1  10   1
M  END
>  <UniqueID>  (15) 
15

>  <SMILES>  (15) 
Cn1cc(-c2cccs2)[nH+]c1SCCCN1CC2CCC(CC2)C1

>  <Energy>  (15) 
115.18449567736852

>  <Genealogy>  (15) 
Cn1cc(-c2cccs2)[nH+]c1SCCCN1CC2CCC(CC2)C1 (protonated)
Cn1cc(-c2cccs2)[nH+]c1SCCCN1CC2CCC(CC2)C1 (3D coordinates assigned)
Cn1cc(-c2cccs2)[nH+]c1SCCCN1CC2CCC(CC2)C1 (nonaromatic ring conformer: 115.18449567736852 kcal/mol)

>  <smiles>  (15) 
Cn1cc(-c2cccs2)nc1SCCCN1CC2CCC(CC2)C1

>  <score_type>  (15) 
oracle

>  <origin>  (15) 
adg

>  <m_score__min__energy>  (15) 
-7.5199999999999996

>  <m_primary>  (15) 
energy

$$$$
15:0
     RDKit          3D

 72 75  0  0  0  0  0  0  0  0999 V2000
    0.6480   28.7970  -26.7870 C   0  0  0  0  0  0  0  0  0  0  0  0
    2.0530   28.2660  -26.4730 C   0  0  0  0  0  0  0  0  0  0  0  0
    2.0630   27.0220  -25.6640 N   0  0  0  0  0  0  0  0  0  0  0  0
    2.7440   25.8980  -26.3500 C   0  0  0  0  0  0  0  0  0  0  0  0
    1.7760   25.2320  -27.3210 C   0  0  0  0  0  0  0  0  0  0  0  0
    2.5360   27.2320  -24.2800 C   0  0  0  0  0  0  0  0  0  0  0  0
    1.5270   28.0710  -23.4790 C   0  0  0  0  0  0  0  0  0  0  0  0
    0.5090   27.2170  -22.8480 N   0  0  0  0  0  0  0  0  0  0  0  0
   -0.2750   26.5540  -23.8610 C   0  0  0  0  0  0  0  0  0  0  0  0
   -1.2380   27.2680  -24.5900 C   0  0  0  0  0  0  0  0  0  0  0  0
   -1.9640   26.6380  -25.6050 C   0  0  0  0  0  0  0  0  0  0  0  0
   -1.7220   25.2940  -25.9110 C   0  0  0  0  0  0  0  0  0  0  0  0
   -2.4250   24.6860  -26.8960 N   0  0  0  0  0  0  0  0  0  0  0  0
   -2.2170   23.3860  -27.2220 C   0  0  0  0  0  0  0  0  0  0  0  0
   -3.2450   22.6780  -28.5230 S   0  0  0  0  0  0  0  0  0  0  0  0
   -1.9080   22.6780  -29.7620 C   0  0  0  0  0  0  0  0  0  0  0  0
   -2.3780   22.0330  -31.0540 C   0  0  0  0  0  0  0  0  0  0  0  0
   -3.3190   22.8950  -31.6920 O   0  0  0  0  0  0  0  0  0  0  0  0
   -4.6870   22.6200  -31.8320 C   0  0  0  0  0  0  0  0  0  0  0  0
   -5.1600   21.3670  -32.2740 C   0  0  0  0  0  0  0  0  0  0  0  0
   -6.5310   21.1420  -32.4150 C   0  0  0  0  0  0  0  0  0  0  0  0
   -7.4430   22.1560  -32.1120 C   0  0  0  0  0  0  0  0  0  0  0  0
   -6.9850   23.4000  -31.6670 C   0  0  0  0  0  0  0  0  0  0  0  0
   -5.6030   23.6400  -31.5240 C   0  0  0  0  0  0  0  0  0  0  0  0
   -5.1070   24.8720  -31.0650 O   0  0  0  0  0  0  0  0  0  0  0  0
   -5.7420   25.6840  -30.0790 C   0  0  0  0  0  0  0  0  0  0  0  0
   -1.2730   22.6460  -26.5500 N   0  0  0  0  0  0  0  0  0  0  0  0
   -1.0820   21.2500  -26.8570 C   0  0  0  0  0  0  0  0  0  0  0  0
    0.0140   20.8460  -27.6350 C   0  0  0  0  0  0  0  0  0  0  0  0
    0.2010   19.4960  -27.9420 C   0  0  0  0  0  0  0  0  0  0  0  0
   -0.7060   18.5380  -27.4820 C   0  0  0  0  0  0  0  0  0  0  0  0
   -1.8050   18.9320  -26.7140 C   0  0  0  0  0  0  0  0  0  0  0  0
   -1.9950   20.2840  -26.4000 C   0  0  0  0  0  0  0  0  0  0  0  0
   -0.5320   23.2250  -25.5500 C   0  0  0  0  0  0  0  0  0  0  0  0
    0.3460   22.5480  -24.9390 O   0  0  0  0  0  0  0  0  0  0  0  0
   -0.7480   24.5700  -25.1990 C   0  0  0  0  0  0  0  0  0  0  0  0
   -0.0300   25.2040  -24.1720 C   0  0  0  0  0  0  0  0  0  0  0  0
    0.1138   28.9989  -25.8469 H   0  0  0  0  0  0  0  0  0  0  0  0
    0.7290   29.7265  -27.3696 H   0  0  0  0  0  0  0  0  0  0  0  0
    0.0940   28.0462  -27.3696 H   0  0  0  0  0  0  0  0  0  0  0  0
    2.5666   28.0636  -27.4245 H   0  0  0  0  0  0  0  0  0  0  0  0
    2.5578   29.0383  -25.8741 H   0  0  0  0  0  0  0  0  0  0  0  0
    3.6140   26.2801  -26.9042 H   0  0  0  0  0  0  0  0  0  0  0  0
    3.0781   25.1622  -25.6037 H   0  0  0  0  0  0  0  0  0  0  0  0
    0.9989   24.6973  -26.7551 H   0  0  0  0  0  0  0  0  0  0  0  0
    1.3062   25.9990  -27.9543 H   0  0  0  0  0  0  0  0  0  0  0  0
    2.3244   24.5191  -27.9543 H   0  0  0  0  0  0  0  0  0  0  0  0
    2.6622   26.2553  -23.7900 H   0  0  0  0  0  0  0  0  0  0  0  0
    3.4945   27.7707  -24.3131 H   0  0  0  0  0  0  0  0  0  0  0  0
    2.0638   28.6275  -22.6966 H   0  0  0  0  0  0  0  0  0  0  0  0
    1.0226   28.7629  -24.1696 H   0  0  0  0  0  0  0  0  0  0  0  0
   -0.1160   27.7950  -22.2400 H   0  0  0  0  0  0  0  0  0  0  0  0
    0.9720   26.5020  -22.2410 H   0  0  0  0  0  0  0  0  0  0  0  0
   -1.4225   28.3281  -24.3619 H   0  0  0  0  0  0  0  0  0  0  0  0
   -2.7268   27.1996  -26.1641 H   0  0  0  0  0  0  0  0  0  0  0  0
   -1.6034   23.7152  -29.9655 H   0  0  0  0  0  0  0  0  0  0  0  0
   -1.0577   22.1028  -29.3668 H   0  0  0  0  0  0  0  0  0  0  0  0
   -1.5170   21.8713  -31.7192 H   0  0  0  0  0  0  0  0  0  0  0  0
   -2.8527   21.0655  -30.8334 H   0  0  0  0  0  0  0  0  0  0  0  0
   -4.4461   20.5637  -32.5086 H   0  0  0  0  0  0  0  0  0  0  0  0
   -6.8936   20.1644  -32.7654 H   0  0  0  0  0  0  0  0  0  0  0  0
   -8.5224   21.9756  -32.2236 H   0  0  0  0  0  0  0  0  0  0  0  0
   -7.7063   24.1951  -31.4274 H   0  0  0  0  0  0  0  0  0  0  0  0
   -5.4636   25.3280  -29.0761 H   0  0  0  0  0  0  0  0  0  0  0  0
   -5.4185   26.7283  -30.2003 H   0  0  0  0  0  0  0  0  0  0  0  0
   -6.8335   25.6218  -30.2003 H   0  0  0  0  0  0  0  0  0  0  0  0
    0.7290   21.5957  -28.0047 H   0  0  0  0  0  0  0  0  0  0  0  0
    1.0652   19.1863  -28.5479 H   0  0  0  0  0  0  0  0  0  0  0  0
   -0.5553   17.4756  -27.7239 H   0  0  0  0  0  0  0  0  0  0  0  0
   -2.5223   18.1791  -26.3553 H   0  0  0  0  0  0  0  0  0  0  0  0
   -2.8607   20.5903  -25.7944 H   0  0  0  0  0  0  0  0  0  0  0  0
    0.7284   24.6418  -23.6074 H   0  0  0  0  0  0  0  0  0  0  0  0
  1  2  1  0
  2  3  1  0
  3  4  1  0
  4  5  1  0
  3  6  1  0
  6  7  1  0
  7  8  1  0
  8  9  1  0
  9 10  2  0
 10 11  1  0
 11 12  2  0
 12 13  1  0
 13 14  2  0
 14 15  1  0
 15 16  1  0
 16 17  1  0
 17 18  1  0
 18 19  1  0
 19 20  2  0
 20 21  1  0
 21 22  2  0
 22 23  1  0
 23 24  2  0
 24 25  1  0
 25 26  1  0
 14 27  1  0
 27 28  1  0
 28 29  2  0
 29 30  1  0
 30 31  2  0
 31 32  1  0
 32 33  2  0
 27 34  1  0
 34 35  2  0
 34 36  1  0
 36 37  2  0
 37  9  1  0
 36 12  1  0
 24 19  1  0
 33 28  1  0
  1 38  1  0
  1 39  1  0
  1 40  1  0
  2 41  1  0
  2 42  1  0
  4 43  1  0
  4 44  1  0
  5 45  1  0
  5 46  1  0
  5 47  1  0
  6 48  1  0
  6 49  1  0
  7 50  1  0
  7 51  1  0
  8 52  1  0
  8 53  1  0
 10 54  1  0
 11 55  1  0
 16 56  1  0
 16 57  1  0
 17 58  1  0
 17 59  1  0
 20 60  1  0
 21 61  1  0
 22 62  1  0
 23 63  1  0
 26 64  1  0
 26 65  1  0
 26 66  1  0
 29 67  1  0
 30 68  1  0
 31 69  1  0
 32 70  1  0
 33 71  1  0
 37 72  1  0
M  CHG  1   8   1
M  END
>  <UniqueID>  (16) 
16

>  <SMILES>  (16) 
CCN(CC)CC[NH2+]c1ccc2nc(SCCOc3ccccc3OC)n(-c3ccccc3)c(=O)c2c1

>  <Energy>  (16) 
84.50125824835284

>  <Genealogy>  (16) 
CCN(CC)CC[NH2+]c1ccc2nc(SCCOc3ccccc3OC)n(-c3ccccc3)c(=O)c2c1 (protonated)
CCN(CC)CC[NH2+]c1ccc2nc(SCCOc3ccccc3OC)n(-c3ccccc3)c(=O)c2c1 (3D coordinates assigned)
CCN(CC)CC[NH2+]c1ccc2nc(SCCOc3ccccc3OC)n(-c3ccccc3)c(=O)c2c1 (optimized conformer: 84.50125824835284 kcal/mol)

>  <smiles>  (16) 
CCN(CC)CCNc1ccc2nc(SCCOc3ccccc3OC)n(-c3ccccc3)c(=O)c2c1

>  <score_type>  (16) 
oracle

>  <origin>  (16) 
adg

>  <m_score__min__energy>  (16) 
-9.2400000000000002

>  <m_primary>  (16) 
energy

$$$$
16:0
     RDKit          3D

 42 44  0  0  0  0  0  0  0  0999 V2000
   -3.9280   21.8470  -33.0170 C   0  0  0  0  0  0  0  0  0  0  0  0
   -5.0380   20.8240  -33.0740 C   0  0  0  0  0  0  0  0  0  0  0  0
   -4.7710   19.6440  -33.7650 C   0  0  0  0  0  0  0  0  0  0  0  0
   -5.6600   18.5700  -33.7260 C   0  0  0  0  0  0  0  0  0  0  0  0
   -5.3050   17.3440  -34.5380 C   0  0  0  0  0  0  0  0  0  0  0  0
   -6.7810   18.6300  -32.9260 N   0  0  0  0  0  0  0  0  0  0  0  0
   -7.6150   17.4230  -32.7300 C   0  0  0  0  0  0  0  0  0  0  0  0
   -7.1420   19.8270  -32.3280 C   0  0  0  0  0  0  0  0  0  0  0  0
   -8.3540   19.9440  -31.6020 C   0  0  0  0  0  0  0  0  0  0  0  0
   -8.7230   21.1380  -30.9980 C   0  0  0  0  0  0  0  0  0  0  0  0
   -7.9330   22.2670  -31.1430 C   0  0  0  0  0  0  0  0  0  0  0  0
   -6.7440   22.2210  -31.8810 C   0  0  0  0  0  0  0  0  0  0  0  0
   -6.0950   23.4660  -32.1870 N   0  0  0  0  0  0  0  0  0  0  0  0
   -5.9640   24.5450  -31.2100 C   0  0  0  0  0  0  0  0  0  0  0  0
   -4.9340   24.1770  -30.1800 C   0  0  0  0  0  0  0  0  0  0  0  0
   -3.6580   23.7470  -30.5760 C   0  0  0  0  0  0  0  0  0  0  0  0
   -2.7000   23.4540  -29.6060 C   0  0  0  0  0  0  0  0  0  0  0  0
   -3.0150   23.5970  -28.2550 C   0  0  0  0  0  0  0  0  0  0  0  0
   -4.2890   24.0380  -27.8930 C   0  0  0  0  0  0  0  0  0  0  0  0
   -5.2140   24.3210  -28.8510 N   0  0  0  0  0  0  0  0  0  0  0  0
   -6.2980   20.9810  -32.4350 C   0  0  0  0  0  0  0  0  0  0  0  0
   -3.6873   22.0688  -31.9668 H   0  0  0  0  0  0  0  0  0  0  0  0
   -3.0355   21.4481  -33.5213 H   0  0  0  0  0  0  0  0  0  0  0  0
   -4.2529   22.7690  -33.5213 H   0  0  0  0  0  0  0  0  0  0  0  0
   -3.8440   19.5580  -34.3509 H   0  0  0  0  0  0  0  0  0  0  0  0
   -5.0641   16.5121  -33.8598 H   0  0  0  0  0  0  0  0  0  0  0  0
   -6.1591   17.0644  -35.1723 H   0  0  0  0  0  0  0  0  0  0  0  0
   -4.4337   17.5640  -35.1723 H   0  0  0  0  0  0  0  0  0  0  0  0
   -7.7435   17.2370  -31.6535 H   0  0  0  0  0  0  0  0  0  0  0  0
   -8.5995   17.5781  -33.1954 H   0  0  0  0  0  0  0  0  0  0  0  0
   -7.1217   16.5569  -33.1954 H   0  0  0  0  0  0  0  0  0  0  0  0
   -9.0161   19.0699  -31.5155 H   0  0  0  0  0  0  0  0  0  0  0  0
   -9.6461   21.1881  -30.4019 H   0  0  0  0  0  0  0  0  0  0  0  0
   -8.2438   23.2114  -30.6724 H   0  0  0  0  0  0  0  0  0  0  0  0
   -5.9390   23.6930  -33.1940 H   0  0  0  0  0  0  0  0  0  0  0  0
   -5.6536   25.4669  -31.7236 H   0  0  0  0  0  0  0  0  0  0  0  0
   -6.9326   24.7051  -30.7138 H   0  0  0  0  0  0  0  0  0  0  0  0
   -3.4154   23.6419  -31.6438 H   0  0  0  0  0  0  0  0  0  0  0  0
   -1.6987   23.1111  -29.9056 H   0  0  0  0  0  0  0  0  0  0  0  0
   -2.2672   23.3646  -27.4825 H   0  0  0  0  0  0  0  0  0  0  0  0
   -4.5464   24.1572  -26.8302 H   0  0  0  0  0  0  0  0  0  0  0  0
   -6.1560   24.6600  -28.5520 H   0  0  0  0  0  0  0  0  0  0  0  0
  1  2  1  0
  2  3  2  0
  3  4  1  0
  4  5  1  0
  4  6  2  0
  6  7  1  0
  6  8  1  0
  8  9  2  0
  9 10  1  0
 10 11  2  0
 11 12  1  0
 12 13  1  0
 13 14  1  0
 14 15  1  0
 15 16  2  0
 16 17  1  0
 17 18  2  0
 18 19  1  0
 19 20  2  0
 12 21  2  0
 21  2  1  0
 21  8  1  0
 20 15  1  0
  1 22  1  0
  1 23  1  0
  1 24  1  0
  3 25  1  0
  5 26  1  0
  5 27  1  0
  5 28  1  0
  7 29  1  0
  7 30  1  0
  7 31  1  0
  9 32  1  0
 10 33  1  0
 11 34  1  0
 13 35  1  0
 14 36  1  0
 14 37  1  0
 16 38  1  0
 17 39  1  0
 18 40  1  0
 19 41  1  0
 20 42  1  0
M  CHG  2   6   1  20   1
M  END
>  <UniqueID>  (17) 
17

>  <SMILES>  (17) 
Cc1cc(C)[n+](C)c2cccc(NCc3cccc[nH+]3)c12

>  <Energy>  (17) 
67.04292632037075

>  <Genealogy>  (17) 
Cc1cc(C)[n+](C)c2cccc(NCc3cccc[nH+]3)c12 (protonated)
Cc1cc(C)[n+](C)c2cccc(NCc3cccc[nH+]3)c12 (3D coordinates assigned)
Cc1cc(C)[n+](C)c2cccc(NCc3cccc[nH+]3)c12 (optimized conformer: 67.04292632037075 kcal/mol)

>  <smiles>  (17) 
Cc1cc(C)[n+](C)c2cccc(NCc3ccccn3)c12

>  <score_type>  (17) 
oracle

>  <origin>  (17) 
adg

>  <m_score__min__energy>  (17) 
-7

>  <m_primary>  (17) 
energy

$$$$
17:0
     RDKit          3D

 61 63  0  0  0  0  0  0  0  0999 V2000
   -3.8460   22.3860  -27.8420 C   0  0  0  0  0  0  0  0  0  0  0  0
   -2.5540   21.8960  -28.4800 C   0  0  0  0  0  0  0  0  0  0  0  0
   -2.6200   20.4980  -28.6930 O   0  0  0  0  0  0  0  0  0  0  0  0
   -2.7460   19.8110  -27.4650 C   0  0  0  0  0  0  0  0  0  0  0  0
   -1.5100   18.9490  -27.2400 C   0  0  0  0  0  0  0  0  0  0  0  0
   -0.4050   19.5340  -27.8980 O   0  0  0  0  0  0  0  0  0  0  0  0
    0.2940   18.5420  -28.6190 C   0  0  0  0  0  0  0  0  0  0  0  0
    0.2210   18.8420  -30.1220 C   0  0  0  0  0  0  0  0  0  0  0  0
   -0.7800   19.8850  -30.4390 N   0  0  0  0  0  0  0  0  0  0  0  0
   -0.5830   20.4850  -31.7780 C   0  0  0  0  0  0  0  0  0  0  0  0
   -1.6880   20.1040  -32.7880 C   0  0  0  0  0  0  0  0  0  0  0  0
   -2.9240   21.0250  -32.7610 C   0  0  0  0  0  0  0  0  0  0  0  0
   -3.7990   20.7370  -31.6220 N   0  0  0  0  0  0  0  0  0  0  0  0
   -5.1590   21.2010  -31.6170 C   0  0  0  0  0  0  0  0  0  0  0  0
   -5.4460   22.5280  -31.2520 C   0  0  0  0  0  0  0  0  0  0  0  0
   -4.4110   23.4160  -30.8890 C   0  0  0  0  0  0  0  0  0  0  0  0
   -4.7000   24.7140  -30.4740 C   0  0  0  0  0  0  0  0  0  0  0  0
   -6.0200   25.1440  -30.4010 C   0  0  0  0  0  0  0  0  0  0  0  0
   -7.0570   24.2910  -30.7770 C   0  0  0  0  0  0  0  0  0  0  0  0
   -6.7930   22.9800  -31.2510 C   0  0  0  0  0  0  0  0  0  0  0  0
   -7.8050   22.1470  -31.6910 N   0  0  0  0  0  0  0  0  0  0  0  0
   -9.1530   22.6970  -31.9610 C   0  0  0  0  0  0  0  0  0  0  0  0
   -7.5540   20.8020  -31.8990 C   0  0  0  0  0  0  0  0  0  0  0  0
   -8.6040   19.8670  -32.0940 C   0  0  0  0  0  0  0  0  0  0  0  0
   -8.3340   18.5210  -32.3340 C   0  0  0  0  0  0  0  0  0  0  0  0
   -7.0210   18.0660  -32.3690 C   0  0  0  0  0  0  0  0  0  0  0  0
   -5.9710   18.9510  -32.1430 C   0  0  0  0  0  0  0  0  0  0  0  0
   -6.2180   20.3170  -31.8960 C   0  0  0  0  0  0  0  0  0  0  0  0
   -3.7508   22.3499  -26.7467 H   0  0  0  0  0  0  0  0  0  0  0  0
   -4.0420   23.4209  -28.1591 H   0  0  0  0  0  0  0  0  0  0  0  0
   -4.6790   21.7414  -28.1591 H   0  0  0  0  0  0  0  0  0  0  0  0
   -2.4077   22.4050  -29.4441 H   0  0  0  0  0  0  0  0  0  0  0  0
   -1.7118   22.1200  -27.8088 H   0  0  0  0  0  0  0  0  0  0  0  0
   -2.8407   20.5384  -26.6453 H   0  0  0  0  0  0  0  0  0  0  0  0
   -3.6408   19.1718  -27.4910 H   0  0  0  0  0  0  0  0  0  0  0  0
   -1.3014   18.8805  -26.1621 H   0  0  0  0  0  0  0  0  0  0  0  0
   -1.6864   17.9407  -27.6427 H   0  0  0  0  0  0  0  0  0  0  0  0
    1.3465   18.5320  -28.2995 H   0  0  0  0  0  0  0  0  0  0  0  0
   -0.1629   17.5609  -28.4223 H   0  0  0  0  0  0  0  0  0  0  0  0
    1.2091   19.1850  -30.4626 H   0  0  0  0  0  0  0  0  0  0  0  0
   -0.0825   17.9176  -30.6351 H   0  0  0  0  0  0  0  0  0  0  0  0
   -1.7410   19.4820  -30.3550 H   0  0  0  0  0  0  0  0  0  0  0  0
   -0.7370   20.6480  -29.7220 H   0  0  0  0  0  0  0  0  0  0  0  0
   -0.5701   21.5797  -31.6714 H   0  0  0  0  0  0  0  0  0  0  0  0
    0.3669   20.0952  -32.1726 H   0  0  0  0  0  0  0  0  0  0  0  0
   -1.2560   20.1383  -33.7990 H   0  0  0  0  0  0  0  0  0  0  0  0
   -2.0390   19.1009  -32.5040 H   0  0  0  0  0  0  0  0  0  0  0  0
   -2.5867   22.0699  -32.6943 H   0  0  0  0  0  0  0  0  0  0  0  0
   -3.4980   20.8499  -33.6829 H   0  0  0  0  0  0  0  0  0  0  0  0
   -3.3890   20.4630  -30.7030 H   0  0  0  0  0  0  0  0  0  0  0  0
   -3.3647   23.0796  -30.9342 H   0  0  0  0  0  0  0  0  0  0  0  0
   -3.8831   25.3993  -30.2038 H   0  0  0  0  0  0  0  0  0  0  0  0
   -6.2470   26.1600  -30.0456 H   0  0  0  0  0  0  0  0  0  0  0  0
   -8.0975   24.6405  -30.7049 H   0  0  0  0  0  0  0  0  0  0  0  0
   -9.6619   22.9046  -31.0082 H   0  0  0  0  0  0  0  0  0  0  0  0
   -9.0600   23.6291  -32.5377 H   0  0  0  0  0  0  0  0  0  0  0  0
   -9.7386   21.9659  -32.5377 H   0  0  0  0  0  0  0  0  0  0  0  0
   -9.6483   20.2105  -32.0550 H   0  0  0  0  0  0  0  0  0  0  0  0
   -9.1628   17.8162  -32.4963 H   0  0  0  0  0  0  0  0  0  0  0  0
   -6.8118   17.0060  -32.5754 H   0  0  0  0  0  0  0  0  0  0  0  0
   -4.9355   18.5802  -32.1573 H   0  0  0  0  0  0  0  0  0  0  0  0
  1  2  1  0
  2  3  1  0
  3  4  1  0
  4  5  1  0
  5  6  1  0
  6  7  1  0
  7  8  1  0
  8  9  1  0
  9 10  1  0
 10 11  1  0
 11 12  1  0
 12 13  1  0
 13 14  1  0
 14 15  2  0
 15 16  1  0
 16 17  2  0
 17 18  1  0
 18 19  2  0
 19 20  1  0
 20 21  2  0
 21 22  1  0
 21 23  1  0
 23 24  2  0
 24 25  1  0
 25 26  2  0
 26 27  1  0
 27 28  2  0
 28 14  1  0
 20 15  1  0
 28 23  1  0
  1 29  1  0
  1 30  1  0
  1 31  1  0
  2 32  1  0
  2 33  1  0
  4 34  1  0
  4 35  1  0
  5 36  1  0
  5 37  1  0
  7 38  1  0
  7 39  1  0
  8 40  1  0
  8 41  1  0
  9 42  1  0
  9 43  1  0
 10 44  1  0
 10 45  1  0
 11 46  1  0
 11 47  1  0
 12 48  1  0
 12 49  1  0
 13 50  1  0
 16 51  1  0
 17 52  1  0
 18 53  1  0
 19 54  1  0
 22 55  1  0
 22 56  1  0
 22 57  1  0
 24 58  1  0
 25 59  1  0
 26 60  1  0
 27 61  1  0
M  CHG  2   9   1  21   1
M  END
>  <UniqueID>  (18) 
18

>  <SMILES>  (18) 
CCOCCOCC[NH2+]CCCNc1c2ccccc2[n+](C)c2ccccc12

>  <Energy>  (18) 
87.26266885869879

>  <Genealogy>  (18) 
CCOCCOCC[NH2+]CCCNc1c2ccccc2[n+](C)c2ccccc12 (protonated)
CCOCCOCC[NH2+]CCCNc1c2ccccc2[n+](C)c2ccccc12 (3D coordinates assigned)
CCOCCOCC[NH2+]CCCNc1c2ccccc2[n+](C)c2ccccc12 (optimized conformer: 87.26266885869879 kcal/mol)

>  <smiles>  (18) 
CCOCCOCCNCCCNc1c2ccccc2[n+](C)c2ccccc12

>  <score_type>  (18) 
oracle

>  <origin>  (18) 
adg

>  <m_score__min__energy>  (18) 
-8.2899999999999991

>  <m_primary>  (18) 
energy

$$$$
18:0
     RDKit          3D

 91 94  0  0  0  0  0  0  0  0999 V2000
    0.2190   18.6300  -30.0470 C   0  0  0  0  0  0  0  0  0  0  0  0
    0.9060   19.6400  -30.9620 C   0  0  0  0  0  0  0  0  0  0  0  0
    0.3310   19.6210  -32.3280 N   0  0  0  0  0  0  0  0  0  0  0  0
    0.8510   18.5550  -33.2230 C   0  0  0  0  0  0  0  0  0  0  0  0
    0.6190   18.8130  -34.7190 C   0  0  0  0  0  0  0  0  0  0  0  0
    0.3160   20.9580  -32.9730 C   0  0  0  0  0  0  0  0  0  0  0  0
   -1.1300   21.4810  -33.0050 C   0  0  0  0  0  0  0  0  0  0  0  0
   -1.8420   21.1850  -31.7510 N   0  0  0  0  0  0  0  0  0  0  0  0
   -3.2180   20.7890  -32.0210 C   0  0  0  0  0  0  0  0  0  0  0  0
   -3.4800   19.5270  -32.6290 C   0  0  0  0  0  0  0  0  0  0  0  0
   -4.8090   19.1610  -32.9220 C   0  0  0  0  0  0  0  0  0  0  0  0
   -5.8010   20.1200  -32.9350 N   0  0  0  0  0  0  0  0  0  0  0  0
   -7.0410   19.8940  -33.7120 C   0  0  0  0  0  0  0  0  0  0  0  0
   -5.5990   21.3330  -32.3130 C   0  0  0  0  0  0  0  0  0  0  0  0
   -6.6590   22.2700  -32.1960 C   0  0  0  0  0  0  0  0  0  0  0  0
   -6.4390   23.5480  -31.7090 C   0  0  0  0  0  0  0  0  0  0  0  0
   -5.1770   23.9070  -31.2310 C   0  0  0  0  0  0  0  0  0  0  0  0
   -4.8680   25.2340  -30.8720 O   0  0  0  0  0  0  0  0  0  0  0  0
   -5.7350   26.0740  -30.0940 C   0  0  0  0  0  0  0  0  0  0  0  0
   -4.1900   22.9210  -31.0870 C   0  0  0  0  0  0  0  0  0  0  0  0
   -3.1230   23.1830  -30.2150 O   0  0  0  0  0  0  0  0  0  0  0  0
   -3.1970   22.9600  -28.8020 C   0  0  0  0  0  0  0  0  0  0  0  0
   -2.4260   21.7110  -28.3650 C   0  0  0  0  0  0  0  0  0  0  0  0
   -1.3470   21.4710  -29.2430 O   0  0  0  0  0  0  0  0  0  0  0  0
   -0.1120   21.7370  -28.5900 C   0  0  0  0  0  0  0  0  0  0  0  0
   -0.1810   22.9910  -27.7080 C   0  0  0  0  0  0  0  0  0  0  0  0
    0.0290   24.1430  -28.5080 O   0  0  0  0  0  0  0  0  0  0  0  0
   -0.1100   25.3240  -27.7350 C   0  0  0  0  0  0  0  0  0  0  0  0
   -1.5880   25.7040  -27.5350 C   0  0  0  0  0  0  0  0  0  0  0  0
   -2.0960   25.1550  -26.2620 N   0  0  0  0  0  0  0  0  0  0  0  0
   -1.7900   26.0640  -25.1430 C   0  0  0  0  0  0  0  0  0  0  0  0
   -3.5580   24.9590  -26.3320 C   0  0  0  0  0  0  0  0  0  0  0  0
   -4.3180   21.6750  -31.7730 C   0  0  0  0  0  0  0  0  0  0  0  0
   -5.0570   17.7480  -33.3710 C   0  0  0  0  0  0  0  0  0  0  0  0
   -6.2200   17.0380  -33.0180 C   0  0  0  0  0  0  0  0  0  0  0  0
   -6.4470   15.7560  -33.5220 C   0  0  0  0  0  0  0  0  0  0  0  0
   -5.5010   15.1570  -34.3540 C   0  0  0  0  0  0  0  0  0  0  0  0
   -4.2970   15.8150  -34.6380 C   0  0  0  0  0  0  0  0  0  0  0  0
   -4.0590   17.0920  -34.1090 C   0  0  0  0  0  0  0  0  0  0  0  0
   -2.7200   17.7560  -34.2690 C   0  0  0  0  0  0  0  0  0  0  0  0
   -2.3810   18.5130  -32.9780 C   0  0  0  0  0  0  0  0  0  0  0  0
    0.4036   18.9015  -28.9971 H   0  0  0  0  0  0  0  0  0  0  0  0
   -0.8635   18.6354  -30.2422 H   0  0  0  0  0  0  0  0  0  0  0  0
    0.6217   17.6252  -30.2422 H   0  0  0  0  0  0  0  0  0  0  0  0
    0.7831   20.6472  -30.5373 H   0  0  0  0  0  0  0  0  0  0  0  0
    1.9699   19.3700  -31.0337 H   0  0  0  0  0  0  0  0  0  0  0  0
    1.9339   18.4619  -33.0539 H   0  0  0  0  0  0  0  0  0  0  0  0
    0.2973   17.6379  -32.9732 H   0  0  0  0  0  0  0  0  0  0  0  0
   -0.1119   19.6258  -34.8419 H   0  0  0  0  0  0  0  0  0  0  0  0
    1.5692   19.0995  -35.1933 H   0  0  0  0  0  0  0  0  0  0  0  0
    0.2335   17.8984  -35.1933 H   0  0  0  0  0  0  0  0  0  0  0  0
    0.9468   21.6521  -32.3982 H   0  0  0  0  0  0  0  0  0  0  0  0
    0.7066   20.8809  -33.9984 H   0  0  0  0  0  0  0  0  0  0  0  0
   -1.1122   22.5704  -33.1566 H   0  0  0  0  0  0  0  0  0  0  0  0
   -1.6593   20.9781  -33.8277 H   0  0  0  0  0  0  0  0  0  0  0  0
   -1.3350   20.4690  -31.1930 H   0  0  0  0  0  0  0  0  0  0  0  0
   -1.8180   22.0090  -31.1170 H   0  0  0  0  0  0  0  0  0  0  0  0
   -7.8835   19.7405  -33.0216 H   0  0  0  0  0  0  0  0  0  0  0  0
   -7.2414   20.7704  -34.3458 H   0  0  0  0  0  0  0  0  0  0  0  0
   -6.9193   19.0032  -34.3458 H   0  0  0  0  0  0  0  0  0  0  0  0
   -7.6749   21.9754  -32.4980 H   0  0  0  0  0  0  0  0  0  0  0  0
   -7.2593   24.2808  -31.6988 H   0  0  0  0  0  0  0  0  0  0  0  0
   -5.5529   25.8975  -29.0236 H   0  0  0  0  0  0  0  0  0  0  0  0
   -5.5331   27.1290  -30.3312 H   0  0  0  0  0  0  0  0  0  0  0  0
   -6.7831   25.8389  -30.3312 H   0  0  0  0  0  0  0  0  0  0  0  0
   -2.7754   23.8341  -28.2842 H   0  0  0  0  0  0  0  0  0  0  0  0
   -4.2550   22.8080  -28.5422 H   0  0  0  0  0  0  0  0  0  0  0  0
   -2.0389   21.8611  -27.3464 H   0  0  0  0  0  0  0  0  0  0  0  0
   -3.1044   20.8454  -28.3857 H   0  0  0  0  0  0  0  0  0  0  0  0
    0.1483   20.8742  -27.9593 H   0  0  0  0  0  0  0  0  0  0  0  0
    0.6492   21.9106  -29.3649 H   0  0  0  0  0  0  0  0  0  0  0  0
   -1.1708   23.0505  -27.2319 H   0  0  0  0  0  0  0  0  0  0  0  0
    0.5963   22.9368  -26.9316 H   0  0  0  0  0  0  0  0  0  0  0  0
    0.3526   25.1618  -26.7503 H   0  0  0  0  0  0  0  0  0  0  0  0
    0.3851   26.1458  -28.2731 H   0  0  0  0  0  0  0  0  0  0  0  0
   -1.6809   26.8000  -27.5192 H   0  0  0  0  0  0  0  0  0  0  0  0
   -2.1780   25.2850  -28.3635 H   0  0  0  0  0  0  0  0  0  0  0  0
   -1.9651   25.5439  -24.1897 H   0  0  0  0  0  0  0  0  0  0  0  0
   -0.7371   26.3767  -25.2021 H   0  0  0  0  0  0  0  0  0  0  0  0
   -2.4395   26.9498  -25.2021 H   0  0  0  0  0  0  0  0  0  0  0  0
   -3.9697   24.9038  -25.3135 H   0  0  0  0  0  0  0  0  0  0  0  0
   -4.0160   25.8038  -26.8673 H   0  0  0  0  0  0  0  0  0  0  0  0
   -3.7773   24.0234  -26.8673 H   0  0  0  0  0  0  0  0  0  0  0  0
   -6.9552   17.4965  -32.3403 H   0  0  0  0  0  0  0  0  0  0  0  0
   -7.3712   15.2186  -33.2632 H   0  0  0  0  0  0  0  0  0  0  0  0
   -5.7006   14.1661  -34.7880 H   0  0  0  0  0  0  0  0  0  0  0  0
   -3.5408   15.3315  -35.2739 H   0  0  0  0  0  0  0  0  0  0  0  0
   -1.9509   16.9937  -34.4624 H   0  0  0  0  0  0  0  0  0  0  0  0
   -2.7520   18.4587  -35.1147 H   0  0  0  0  0  0  0  0  0  0  0  0
   -2.2824   17.7916  -32.1535 H   0  0  0  0  0  0  0  0  0  0  0  0
   -1.4373   19.0576  -33.1290 H   0  0  0  0  0  0  0  0  0  0  0  0
  1  2  1  0
  2  3  1  0
  3  4  1  0
  4  5  1  0
  3  6  1  0
  6  7  1  0
  7  8  1  0
  8  9  1  0
  9 10  2  0
 10 11  1  0
 11 12  2  0
 12 13  1  0
 12 14  1  0
 14 15  2  0
 15 16  1  0
 16 17  2  0
 17 18  1  0
 18 19  1  0
 17 20  1  0
 20 21  1  0
 21 22  1  0
 22 23  1  0
 23 24  1  0
 24 25  1  0
 25 26  1  0
 26 27  1  0
 27 28  1  0
 28 29  1  0
 29 30  1  0
 30 31  1  0
 30 32  1  0
 20 33  2  0
 11 34  1  0
 34 35  2  0
 35 36  1  0
 36 37  2  0
 37 38  1  0
 38 39  2  0
 39 40  1  0
 40 41  1  0
 33  9  1  0
 39 34  1  0
 41 10  1  0
 33 14  1  0
  1 42  1  0
  1 43  1  0
  1 44  1  0
  2 45  1  0
  2 46  1  0
  4 47  1  0
  4 48  1  0
  5 49  1  0
  5 50  1  0
  5 51  1  0
  6 52  1  0
  6 53  1  0
  7 54  1  0
  7 55  1  0
  8 56  1  0
  8 57  1  0
 13 58  1  0
 13 59  1  0
 13 60  1  0
 15 61  1  0
 16 62  1  0
 19 63  1  0
 19 64  1  0
 19 65  1  0
 22 66  1  0
 22 67  1  0
 23 68  1  0
 23 69  1  0
 25 70  1  0
 25 71  1  0
 26 72  1  0
 26 73  1  0
 28 74  1  0
 28 75  1  0
 29 76  1  0
 29 77  1  0
 31 78  1  0
 31 79  1  0
 31 80  1  0
 32 81  1  0
 32 82  1  0
 32 83  1  0
 35 84  1  0
 36 85  1  0
 37 86  1  0
 38 87  1  0
 40 88  1  0
 40 89  1  0
 41 90  1  0
 41 91  1  0
M  CHG  2   8   1  12   1
M  END
>  <UniqueID>  (19) 
19

>  <SMILES>  (19) 
CCN(CC)CC[NH2+]c1c2c([n+](C)c3ccc(OC)c(OCCOCCOCCN(C)C)c13)-c1ccccc1CC2

>  <Energy>  (19) 
146.29659998707487

>  <Genealogy>  (19) 
CCN(CC)CC[NH2+]c1c2c([n+](C)c3ccc(OC)c(OCCOCCOCCN(C)C)c13)-c1ccccc1CC2 (protonated)
CCN(CC)CC[NH2+]c1c2c([n+](C)c3ccc(OC)c(OCCOCCOCCN(C)C)c13)-c1ccccc1CC2 (3D coordinates assigned)
CCN(CC)CC[NH2+]c1c2c([n+](C)c3ccc(OC)c(OCCOCCOCCN(C)C)c13)-c1ccccc1CC2 (nonaromatic ring conformer: 146.29659998707487 kcal/mol)

>  <smiles>  (19) 
CCN(CC)CCNc1c2c([n+](C)c3ccc(OC)c(OCCOCCOCCN(C)C)c13)-c1ccccc1CC2

>  <score_type>  (19) 
oracle

>  <origin>  (19) 
adg

>  <m_score__min__energy>  (19) 
-7.75

>  <m_primary>  (19) 
energy

$$$$
19:0
     RDKit          3D

 42 44  0  0  0  0  0  0  0  0999 V2000
   -0.7400   26.7620  -23.0310 C   0  0  0  0  0  0  0  0  0  0  0  0
   -0.5830   26.0470  -24.2920 N   0  0  0  0  0  0  0  0  0  0  0  0
   -1.1190   26.4040  -25.4750 C   0  0  0  0  0  0  0  0  0  0  0  0
   -0.6650   25.5150  -26.4320 C   0  0  0  0  0  0  0  0  0  0  0  0
   -0.9410   25.5530  -27.9050 C   0  0  0  0  0  0  0  0  0  0  0  0
   -1.9010   24.4910  -28.2770 N   0  0  0  0  0  0  0  0  0  0  0  0
   -2.2770   23.6850  -27.0910 C   0  0  0  0  0  0  0  0  0  0  0  0
   -3.2250   22.5140  -27.4330 C   0  0  0  0  0  0  0  0  0  0  0  0
   -4.3140   22.8570  -28.4680 C   0  0  0  0  0  0  0  0  0  0  0  0
   -3.7850   23.3960  -29.7390 N   0  0  0  0  0  0  0  0  0  0  0  0
   -4.5250   24.4310  -30.4240 C   0  0  0  0  0  0  0  0  0  0  0  0
   -3.9300   25.4590  -30.8490 O   0  0  0  0  0  0  0  0  0  0  0  0
   -6.0170   24.3380  -30.5950 C   0  0  0  0  0  0  0  0  0  0  0  0
   -6.5450   22.9220  -30.7700 C   0  0  0  0  0  0  0  0  0  0  0  0
   -6.4820   23.8570  -31.9630 C   0  0  0  0  0  0  0  0  0  0  0  0
   -2.4460   23.0210  -30.2270 C   0  0  0  0  0  0  0  0  0  0  0  0
   -1.3440   23.6520  -29.3620 C   0  0  0  0  0  0  0  0  0  0  0  0
    0.1800   24.6480  -25.7640 C   0  0  0  0  0  0  0  0  0  0  0  0
    0.2080   25.0010  -24.4650 N   0  0  0  0  0  0  0  0  0  0  0  0
   -0.5871   26.0658  -22.1932 H   0  0  0  0  0  0  0  0  0  0  0  0
    0.0016   27.5725  -22.9742 H   0  0  0  0  0  0  0  0  0  0  0  0
   -1.7529   27.1872  -22.9742 H   0  0  0  0  0  0  0  0  0  0  0  0
   -1.7975   27.2522  -25.6490 H   0  0  0  0  0  0  0  0  0  0  0  0
   -1.3644   26.5332  -28.1693 H   0  0  0  0  0  0  0  0  0  0  0  0
    0.0009   25.3892  -28.4490 H   0  0  0  0  0  0  0  0  0  0  0  0
   -1.3609   23.2745  -26.6413 H   0  0  0  0  0  0  0  0  0  0  0  0
   -2.8124   24.3501  -26.3974 H   0  0  0  0  0  0  0  0  0  0  0  0
   -2.6197   21.6868  -27.8321 H   0  0  0  0  0  0  0  0  0  0  0  0
   -3.7487   22.2523  -26.5018 H   0  0  0  0  0  0  0  0  0  0  0  0
   -4.8815   21.9412  -28.6899 H   0  0  0  0  0  0  0  0  0  0  0  0
   -4.9398   23.6448  -28.0234 H   0  0  0  0  0  0  0  0  0  0  0  0
   -6.2615   25.1921  -29.9464 H   0  0  0  0  0  0  0  0  0  0  0  0
   -5.8563   22.0667  -30.7051 H   0  0  0  0  0  0  0  0  0  0  0  0
   -7.3349   22.3229  -30.2933 H   0  0  0  0  0  0  0  0  0  0  0  0
   -5.7475   23.6797  -32.7624 H   0  0  0  0  0  0  0  0  0  0  0  0
   -7.2068   24.2162  -32.7084 H   0  0  0  0  0  0  0  0  0  0  0  0
   -2.3455   21.9261  -30.1941 H   0  0  0  0  0  0  0  0  0  0  0  0
   -2.3344   23.3893  -31.2575 H   0  0  0  0  0  0  0  0  0  0  0  0
   -0.7401   22.8486  -28.9149 H   0  0  0  0  0  0  0  0  0  0  0  0
   -0.7322   24.2972  -30.0096 H   0  0  0  0  0  0  0  0  0  0  0  0
    0.7345   23.8127  -26.2165 H   0  0  0  0  0  0  0  0  0  0  0  0
    0.7740   24.5440  -23.7150 H   0  0  0  0  0  0  0  0  0  0  0  0
  1  2  1  0
  2  3  1  0
  3  4  2  0
  4  5  1  0
  5  6  1  0
  6  7  1  0
  7  8  1  0
  8  9  1  0
  9 10  1  0
 10 11  1  0
 11 12  2  0
 11 13  1  0
 13 14  1  0
 14 15  1  0
 10 16  1  0
 16 17  1  0
  4 18  1  0
 18 19  2  0
 19  2  1  0
 17  6  1  0
 15 13  1  0
  1 20  1  0
  1 21  1  0
  1 22  1  0
  3 23  1  0
  5 24  1  0
  5 25  1  0
  7 26  1  0
  7 27  1  0
  8 28  1  0
  8 29  1  0
  9 30  1  0
  9 31  1  0
 13 32  1  0
 14 33  1  0
 14 34  1  0
 15 35  1  0
 15 36  1  0
 16 37  1  0
 16 38  1  0
 17 39  1  0
 17 40  1  0
 18 41  1  0
 19 42  1  0
M  CHG  1  19   1
M  END
>  <UniqueID>  (20) 
20

>  <SMILES>  (20) 
Cn1cc(CN2CCCN(C(=O)C3CC3)CC2)c[nH+]1

>  <Energy>  (20) 
342.07302236150196

>  <Genealogy>  (20) 
Cn1cc(CN2CCCN(C(=O)C3CC3)CC2)c[nH+]1 (protonated)
Cn1cc(CN2CCCN(C(=O)C3CC3)CC2)c[nH+]1 (3D coordinates assigned)
Cn1cc(CN2CCCN(C(=O)C3CC3)CC2)c[nH+]1 (nonaromatic ring conformer: 342.07302236150196 kcal/mol)

>  <smiles>  (20) 
Cn1cc(CN2CCCN(C(=O)C3CC3)CC2)cn1

>  <score_type>  (20) 
oracle

>  <origin>  (20) 
adg

>  <m_score__min__energy>  (20) 
-5.3099999999999996

>  <m_primary>  (20) 
energy

$$$$
20:0
     RDKit          3D

 72 74  0  0  0  0  0  0  0  0999 V2000
   -2.7140   20.6240  -27.6130 C   0  0  0  0  0  0  0  0  0  0  0  0
   -3.1630   21.8390  -28.4420 C   0  0  0  0  0  0  0  0  0  0  0  0
   -2.6620   21.8480  -29.8420 N   0  0  0  0  0  0  0  0  0  0  0  0
   -1.1890   21.8220  -29.9780 C   0  0  0  0  0  0  0  0  0  0  0  0
   -0.6690   20.4060  -30.2260 C   0  0  0  0  0  0  0  0  0  0  0  0
   -3.2910   22.9110  -30.6610 C   0  0  0  0  0  0  0  0  0  0  0  0
   -3.6030   24.1410  -29.7930 C   0  0  0  0  0  0  0  0  0  0  0  0
   -3.8630   25.2850  -30.5830 O   0  0  0  0  0  0  0  0  0  0  0  0
   -5.2000   25.7320  -30.4440 C   0  0  0  0  0  0  0  0  0  0  0  0
   -6.1980   24.6110  -30.7440 C   0  0  0  0  0  0  0  0  0  0  0  0
   -5.8680   24.0200  -31.9920 O   0  0  0  0  0  0  0  0  0  0  0  0
   -6.9910   23.5020  -32.5870 N   0  0  0  0  0  0  0  0  0  0  0  0
   -7.4310   22.2710  -31.9180 C   0  0  0  0  0  0  0  0  0  0  0  0
   -6.2860   21.2520  -31.8570 C   0  0  0  0  0  0  0  0  0  0  0  0
   -5.8220   20.8650  -33.2090 N   0  0  0  0  0  0  0  0  0  0  0  0
   -4.9140   19.7280  -33.1680 C   0  0  0  0  0  0  0  0  0  0  0  0
   -3.5090   19.9620  -33.3150 C   0  0  0  0  0  0  0  0  0  0  0  0
   -2.9740   21.2730  -33.4490 C   0  0  0  0  0  0  0  0  0  0  0  0
   -1.6040   21.4900  -33.5730 C   0  0  0  0  0  0  0  0  0  0  0  0
   -0.7310   20.4160  -33.5980 C   0  0  0  0  0  0  0  0  0  0  0  0
   -1.2200   19.1180  -33.5010 C   0  0  0  0  0  0  0  0  0  0  0  0
   -2.6100   18.8630  -33.3510 C   0  0  0  0  0  0  0  0  0  0  0  0
   -3.0900   17.5760  -33.2980 N   0  0  0  0  0  0  0  0  0  0  0  0
   -2.1580   16.4450  -33.0800 C   0  0  0  0  0  0  0  0  0  0  0  0
   -4.4370   17.3350  -33.4390 C   0  0  0  0  0  0  0  0  0  0  0  0
   -4.8870   16.0610  -33.8570 C   0  0  0  0  0  0  0  0  0  0  0  0
   -6.2420   15.7500  -33.9120 C   0  0  0  0  0  0  0  0  0  0  0  0
   -6.7020   14.4070  -34.4050 C   0  0  0  0  0  0  0  0  0  0  0  0
   -7.1710   16.6940  -33.4960 C   0  0  0  0  0  0  0  0  0  0  0  0
   -6.7720   17.9640  -33.0510 C   0  0  0  0  0  0  0  0  0  0  0  0
   -7.8340   18.7180  -32.2890 C   0  0  0  0  0  0  0  0  0  0  0  0
   -5.3920   18.3680  -33.1920 C   0  0  0  0  0  0  0  0  0  0  0  0
   -2.8007   20.8587  -26.5418 H   0  0  0  0  0  0  0  0  0  0  0  0
   -3.3525   19.7608  -27.8521 H   0  0  0  0  0  0  0  0  0  0  0  0
   -1.6676   20.3834  -27.8521 H   0  0  0  0  0  0  0  0  0  0  0  0
   -4.2626   21.8485  -28.4703 H   0  0  0  0  0  0  0  0  0  0  0  0
   -2.7383   22.7273  -27.9515 H   0  0  0  0  0  0  0  0  0  0  0  0
   -0.8978   22.4620  -30.8239 H   0  0  0  0  0  0  0  0  0  0  0  0
   -0.7513   22.1883  -29.0376 H   0  0  0  0  0  0  0  0  0  0  0  0
   -0.4863   19.9084  -29.2621 H   0  0  0  0  0  0  0  0  0  0  0  0
   -1.4164   19.8357  -30.7972 H   0  0  0  0  0  0  0  0  0  0  0  0
    0.2698   20.4549  -30.7972 H   0  0  0  0  0  0  0  0  0  0  0  0
   -2.6027   23.2020  -31.4682 H   0  0  0  0  0  0  0  0  0  0  0  0
   -4.2298   22.5262  -31.0859 H   0  0  0  0  0  0  0  0  0  0  0  0
   -4.4869   23.9262  -29.1745 H   0  0  0  0  0  0  0  0  0  0  0  0
   -2.7245   24.3498  -29.1649 H   0  0  0  0  0  0  0  0  0  0  0  0
   -5.3548   26.0824  -29.4129 H   0  0  0  0  0  0  0  0  0  0  0  0
   -5.3688   26.5472  -31.1630 H   0  0  0  0  0  0  0  0  0  0  0  0
   -6.1476   23.8504  -29.9509 H   0  0  0  0  0  0  0  0  0  0  0  0
   -7.2174   25.0223  -30.7856 H   0  0  0  0  0  0  0  0  0  0  0  0
   -6.8570   23.3580  -33.6160 H   0  0  0  0  0  0  0  0  0  0  0  0
   -7.7559   22.5116  -30.8950 H   0  0  0  0  0  0  0  0  0  0  0  0
   -8.2642   21.8351  -32.4887 H   0  0  0  0  0  0  0  0  0  0  0  0
   -5.4441   21.6950  -31.3048 H   0  0  0  0  0  0  0  0  0  0  0  0
   -6.6585   20.3488  -31.3517 H   0  0  0  0  0  0  0  0  0  0  0  0
   -6.6220   20.6950  -33.8430 H   0  0  0  0  0  0  0  0  0  0  0  0
   -5.3460   21.6730  -33.6680 H   0  0  0  0  0  0  0  0  0  0  0  0
   -3.6576   22.1348  -33.4548 H   0  0  0  0  0  0  0  0  0  0  0  0
   -1.2151   22.5160  -33.6512 H   0  0  0  0  0  0  0  0  0  0  0  0
    0.3509   20.5896  -33.6947 H   0  0  0  0  0  0  0  0  0  0  0  0
   -0.5176   18.2724  -33.5411 H   0  0  0  0  0  0  0  0  0  0  0  0
   -2.0244   16.2829  -32.0002 H   0  0  0  0  0  0  0  0  0  0  0  0
   -2.5720   15.5351  -33.5390 H   0  0  0  0  0  0  0  0  0  0  0  0
   -1.1857   16.6774  -33.5390 H   0  0  0  0  0  0  0  0  0  0  0  0
   -4.1486   15.2983  -34.1453 H   0  0  0  0  0  0  0  0  0  0  0  0
   -6.9245   13.7574  -33.5456 H   0  0  0  0  0  0  0  0  0  0  0  0
   -7.6088   14.5313  -35.0151 H   0  0  0  0  0  0  0  0  0  0  0  0
   -5.9094   13.9492  -35.0151 H   0  0  0  0  0  0  0  0  0  0  0  0
   -8.2415   16.4416  -33.5155 H   0  0  0  0  0  0  0  0  0  0  0  0
   -7.6650   18.5980  -31.2087 H   0  0  0  0  0  0  0  0  0  0  0  0
   -7.7856   19.7851  -32.5514 H   0  0  0  0  0  0  0  0  0  0  0  0
   -8.8255   18.3205  -32.5514 H   0  0  0  0  0  0  0  0  0  0  0  0
  1  2  1  0
  2  3  1  0
  3  4  1  0
  4  5  1  0
  3  6  1  0
  6  7  1  0
  7  8  1  0
  8  9  1  0
  9 10  1  0
 10 11  1  0
 11 12  1  0
 12 13  1  0
 13 14  1  0
 14 15  1  0
 15 16  1  0
 16 17  2  0
 17 18  1  0
 18 19  2  0
 19 20  1  0
 20 21  2  0
 21 22  1  0
 22 23  2  0
 23 24  1  0
 23 25  1  0
 25 26  2  0
 26 27  1  0
 27 28  1  0
 27 29  2  0
 29 30  1  0
 30 31  1  0
 30 32  2  0
 32 16  1  0
 22 17  1  0
 32 25  1  0
  1 33  1  0
  1 34  1  0
  1 35  1  0
  2 36  1  0
  2 37  1  0
  4 38  1  0
  4 39  1  0
  5 40  1  0
  5 41  1  0
  5 42  1  0
  6 43  1  0
  6 44  1  0
  7 45  1  0
  7 46  1  0
  9 47  1  0
  9 48  1  0
 10 49  1  0
 10 50  1  0
 12 51  1  0
 13 52  1  0
 13 53  1  0
 14 54  1  0
 14 55  1  0
 15 56  1  0
 15 57  1  0
 18 58  1  0
 19 59  1  0
 20 60  1  0
 21 61  1  0
 24 62  1  0
 24 63  1  0
 24 64  1  0
 26 65  1  0
 28 66  1  0
 28 67  1  0
 28 68  1  0
 29 69  1  0
 31 70  1  0
 31 71  1  0
 31 72  1  0
M  CHG  2  15   1  23   1
M  END
>  <UniqueID>  (21) 
21

>  <SMILES>  (21) 
CCN(CC)CCOCCONCC[NH2+]c1c2ccccc2[n+](C)c2cc(C)cc(C)c12

>  <Energy>  (21) 
127.45635371613686

>  <Genealogy>  (21) 
CCN(CC)CCOCCONCC[NH2+]c1c2ccccc2[n+](C)c2cc(C)cc(C)c12 (protonated)
CCN(CC)CCOCCONCC[NH2+]c1c2ccccc2[n+](C)c2cc(C)cc(C)c12 (3D coordinates assigned)
CCN(CC)CCOCCONCC[NH2+]c1c2ccccc2[n+](C)c2cc(C)cc(C)c12 (optimized conformer: 127.45635371613686 kcal/mol)

>  <smiles>  (21) 
CCN(CC)CCOCCONCCNc1c2ccccc2[n+](C)c2cc(C)cc(C)c12

>  <score_type>  (21) 
oracle

>  <origin>  (21) 
adg

>  <m_score__min__energy>  (21) 
-8.9900000000000002

>  <m_primary>  (21) 
energy

$$$$
21:0
     RDKit          3D

 36 37  0  0  0  0  0  0  0  0999 V2000
   -6.8420   17.0750  -32.9300 C   0  0  0  0  0  0  0  0  0  0  0  0
   -7.2470   17.8230  -31.6610 C   0  0  0  0  0  0  0  0  0  0  0  0
   -8.7430   18.1790  -31.6180 C   0  0  0  0  0  0  0  0  0  0  0  0
   -9.0670   19.5580  -32.2120 C   0  0  0  0  0  0  0  0  0  0  0  0
   -8.0560   19.9430  -33.2140 N   0  0  0  0  0  0  0  0  0  0  0  0
   -7.2220   21.1160  -32.8750 C   0  0  2  0  0  0  0  0  0  0  0  0
   -5.7450   20.7520  -32.6480 C   0  0  0  0  0  0  0  0  0  0  0  0
   -4.9290   21.9700  -32.5510 N   0  0  0  0  0  0  0  0  0  0  0  0
   -5.4170   22.8960  -31.5530 C   0  0  0  0  0  0  0  0  0  0  0  0
   -4.5340   23.8540  -31.0210 C   0  0  0  0  0  0  0  0  0  0  0  0
   -4.9870   24.8170  -30.1170 C   0  0  0  0  0  0  0  0  0  0  0  0
   -6.3300   24.8480  -29.7420 C   0  0  0  0  0  0  0  0  0  0  0  0
   -7.2260   23.9180  -30.2720 C   0  0  0  0  0  0  0  0  0  0  0  0
   -6.7880   22.9480  -31.1890 C   0  0  0  0  0  0  0  0  0  0  0  0
   -7.7760   21.9210  -31.6840 C   0  0  0  0  0  0  0  0  0  0  0  0
   -6.3346   16.1379  -32.6571 H   0  0  0  0  0  0  0  0  0  0  0  0
   -7.7397   16.8466  -33.5233 H   0  0  0  0  0  0  0  0  0  0  0  0
   -6.1601   17.7019  -33.5233 H   0  0  0  0  0  0  0  0  0  0  0  0
   -7.0133   17.1898  -30.7924 H   0  0  0  0  0  0  0  0  0  0  0  0
   -6.6856   18.7688  -31.6461 H   0  0  0  0  0  0  0  0  0  0  0  0
   -9.2977   17.4174  -32.1857 H   0  0  0  0  0  0  0  0  0  0  0  0
   -9.0360   18.2087  -30.5582 H   0  0  0  0  0  0  0  0  0  0  0  0
  -10.0560   19.5213  -32.6922 H   0  0  0  0  0  0  0  0  0  0  0  0
   -9.0642   20.3022  -31.4019 H   0  0  0  0  0  0  0  0  0  0  0  0
   -8.5350   20.1330  -34.1250 H   0  0  0  0  0  0  0  0  0  0  0  0
   -7.2690   21.7662  -33.7610 H   0  0  0  0  0  0  0  0  0  0  0  0
   -5.6521   20.1776  -31.7145 H   0  0  0  0  0  0  0  0  0  0  0  0
   -5.3901   20.1501  -33.4975 H   0  0  0  0  0  0  0  0  0  0  0  0
   -3.9490   21.6840  -32.3170 H   0  0  0  0  0  0  0  0  0  0  0  0
   -4.9160   22.4560  -33.4790 H   0  0  0  0  0  0  0  0  0  0  0  0
   -3.4756   23.8441  -31.3205 H   0  0  0  0  0  0  0  0  0  0  0  0
   -4.2834   25.5525  -29.6999 H   0  0  0  0  0  0  0  0  0  0  0  0
   -6.6836   25.6062  -29.0278 H   0  0  0  0  0  0  0  0  0  0  0  0
   -8.2832   23.9449  -29.9693 H   0  0  0  0  0  0  0  0  0  0  0  0
   -8.0082   21.2267  -30.8630 H   0  0  0  0  0  0  0  0  0  0  0  0
   -8.6780   22.4520  -32.0223 H   0  0  0  0  0  0  0  0  0  0  0  0
  1  2  1  0
  2  3  1  0
  3  4  1  0
  4  5  1  0
  5  6  1  0
  6  7  1  0
  7  8  1  0
  8  9  1  0
  9 10  2  0
 10 11  1  0
 11 12  2  0
 12 13  1  0
 13 14  2  0
 14 15  1  0
 15  6  1  0
 14  9  1  0
  1 16  1  0
  1 17  1  0
  1 18  1  0
  2 19  1  0
  2 20  1  0
  3 21  1  0
  3 22  1  0
  4 23  1  0
  4 24  1  0
  5 25  1  0
  6 26  1  6
  7 27  1  0
  7 28  1  0
  8 29  1  0
  8 30  1  0
 10 31  1  0
 11 32  1  0
 12 33  1  0
 13 34  1  0
 15 35  1  0
 15 36  1  0
M  CHG  1   8   1
M  END
>  <UniqueID>  (22) 
22

>  <SMILES>  (22) 
CCCCN[C@@H]1C[NH2+]c2ccccc2C1

>  <Energy>  (22) 
39.02649483074591

>  <Genealogy>  (22) 
CCCCNC1C[NH2+]c2ccccc2C1 (protonated)
CCCCN[C@@H]1C[NH2+]c2ccccc2C1 (chirality)
CCCCN[C@@H]1C[NH2+]c2ccccc2C1 (3D coordinates assigned)
CCCCN[C@@H]1C[NH2+]c2ccccc2C1 (nonaromatic ring conformer: 39.02649483074591 kcal/mol)

>  <smiles>  (22) 
CCCCNC1CNc2ccccc2C1

>  <score_type>  (22) 
oracle

>  <origin>  (22) 
adg

>  <m_score__min__energy>  (22) 
-5.9900000000000002

>  <m_primary>  (22) 
energy

$$$$
22:0
     RDKit          3D

 47 47  0  0  0  0  0  0  0  0999 V2000
   -2.2690   21.4250  -28.1630 C   0  0  0  0  0  0  0  0  0  0  0  0
   -3.1550   21.3410  -29.4060 C   0  0  0  0  0  0  0  0  0  0  0  0
   -2.7870   22.3840  -30.3930 N   0  0  0  0  0  0  0  0  0  0  0  0
   -1.7710   21.8930  -31.3590 C   0  0  0  0  0  0  0  0  0  0  0  0
   -2.4600   21.4550  -32.6450 C   0  0  0  0  0  0  0  0  0  0  0  0
   -2.3440   23.6170  -29.7040 C   0  0  0  0  0  0  0  0  0  0  0  0
   -3.5390   24.5070  -29.3490 C   0  0  0  0  0  0  0  0  0  0  0  0
   -3.8690   25.3050  -30.4680 O   0  0  0  0  0  0  0  0  0  0  0  0
   -5.2540   25.5890  -30.4850 C   0  0  0  0  0  0  0  0  0  0  0  0
   -6.0280   24.5410  -31.3060 C   0  0  0  0  0  0  0  0  0  0  0  0
   -5.1510   23.4980  -31.8690 N   0  0  0  0  0  0  0  0  0  0  0  0
   -5.6340   22.1350  -31.5990 C   0  0  0  0  0  0  0  0  0  0  0  0
   -6.6760   21.7010  -32.6380 C   0  0  0  0  0  0  0  0  0  0  0  0
   -6.6040   20.2160  -32.9150 C   0  0  0  0  0  0  0  0  0  0  0  0
   -5.4990   19.7100  -33.6220 C   0  0  0  0  0  0  0  0  0  0  0  0
   -5.4070   18.3500  -33.9190 C   0  0  0  0  0  0  0  0  0  0  0  0
   -6.4220   17.4760  -33.5230 C   0  0  0  0  0  0  0  0  0  0  0  0
   -6.3060   15.7660  -33.8970 Cl  0  0  0  0  0  0  0  0  0  0  0  0
   -7.5310   17.9650  -32.8250 C   0  0  0  0  0  0  0  0  0  0  0  0
   -7.6320   19.3280  -32.5210 C   0  0  0  0  0  0  0  0  0  0  0  0
   -9.0580   19.8710  -31.6400 Cl  0  0  0  0  0  0  0  0  0  0  0  0
   -2.8960   21.3656  -27.2611 H   0  0  0  0  0  0  0  0  0  0  0  0
   -1.5520   20.5908  -28.1667 H   0  0  0  0  0  0  0  0  0  0  0  0
   -1.7215   22.3791  -28.1667 H   0  0  0  0  0  0  0  0  0  0  0  0
   -3.0336   20.3501  -29.8678 H   0  0  0  0  0  0  0  0  0  0  0  0
   -4.2003   21.4996  -29.1023 H   0  0  0  0  0  0  0  0  0  0  0  0
   -1.0576   22.7000  -31.5822 H   0  0  0  0  0  0  0  0  0  0  0  0
   -1.2341   21.0381  -30.9222 H   0  0  0  0  0  0  0  0  0  0  0  0
   -3.3647   20.8799  -32.3987 H   0  0  0  0  0  0  0  0  0  0  0  0
   -2.7382   22.3424  -33.2325 H   0  0  0  0  0  0  0  0  0  0  0  0
   -1.7746   20.8265  -33.2325 H   0  0  0  0  0  0  0  0  0  0  0  0
   -1.8133   23.3421  -28.7805 H   0  0  0  0  0  0  0  0  0  0  0  0
   -1.6790   24.1759  -30.3788 H   0  0  0  0  0  0  0  0  0  0  0  0
   -4.3997   23.8777  -29.0785 H   0  0  0  0  0  0  0  0  0  0  0  0
   -3.2805   25.1523  -28.4965 H   0  0  0  0  0  0  0  0  0  0  0  0
   -5.6332   25.5872  -29.4524 H   0  0  0  0  0  0  0  0  0  0  0  0
   -5.4015   26.5744  -30.9510 H   0  0  0  0  0  0  0  0  0  0  0  0
   -6.7711   24.0608  -30.6524 H   0  0  0  0  0  0  0  0  0  0  0  0
   -6.5045   25.0644  -32.1480 H   0  0  0  0  0  0  0  0  0  0  0  0
   -4.1800   23.6000  -31.4910 H   0  0  0  0  0  0  0  0  0  0  0  0
   -4.7826   21.4393  -31.6321 H   0  0  0  0  0  0  0  0  0  0  0  0
   -6.1059   22.1225  -30.6054 H   0  0  0  0  0  0  0  0  0  0  0  0
   -7.6797   21.9449  -32.2598 H   0  0  0  0  0  0  0  0  0  0  0  0
   -6.4680   22.2356  -33.5766 H   0  0  0  0  0  0  0  0  0  0  0  0
   -4.6992   20.3931  -33.9441 H   0  0  0  0  0  0  0  0  0  0  0  0
   -4.5336   17.9653  -34.4660 H   0  0  0  0  0  0  0  0  0  0  0  0
   -8.3286   17.2747  -32.5130 H   0  0  0  0  0  0  0  0  0  0  0  0
  1  2  1  0
  2  3  1  0
  3  4  1  0
  4  5  1  0
  3  6  1  0
  6  7  1  0
  7  8  1  0
  8  9  1  0
  9 10  1  0
 10 11  1  0
 11 12  1  0
 12 13  1  0
 13 14  1  0
 14 15  2  0
 15 16  1  0
 16 17  2  0
 17 18  1  0
 17 19  1  0
 19 20  2  0
 20 21  1  0
 20 14  1  0
  1 22  1  0
  1 23  1  0
  1 24  1  0
  2 25  1  0
  2 26  1  0
  4 27  1  0
  4 28  1  0
  5 29  1  0
  5 30  1  0
  5 31  1  0
  6 32  1  0
  6 33  1  0
  7 34  1  0
  7 35  1  0
  9 36  1  0
  9 37  1  0
 10 38  1  0
 10 39  1  0
 11 40  1  0
 12 41  1  0
 12 42  1  0
 13 43  1  0
 13 44  1  0
 15 45  1  0
 16 46  1  0
 19 47  1  0
M  END
>  <UniqueID>  (23) 
23

>  <SMILES>  (23) 
CCN(CC)CCOCCNCCc1ccc(Cl)cc1Cl

>  <Energy>  (23) 
43.142450381597904

>  <Genealogy>  (23) 
CCN(CC)CCOCCNCCc1ccc(Cl)cc1Cl (3D coordinates assigned)
CCN(CC)CCOCCNCCc1ccc(Cl)cc1Cl (optimized conformer: 43.142450381597904 kcal/mol)

>  <smiles>  (23) 
CCN(CC)CCOCCNCCc1ccc(Cl)cc1Cl

>  <score_type>  (23) 
oracle

>  <origin>  (23) 
adg

>  <m_score__min__energy>  (23) 
-7.9500000000000002

>  <m_primary>  (23) 
energy

$$$$
23:0
     RDKit          3D

 50 51  0  0  0  0  0  0  0  0999 V2000
   -3.6050   18.5330  -26.0000 C   0  0  0  0  0  0  0  0  0  0  0  0
   -2.2750   19.2730  -26.1340 C   0  0  0  0  0  0  0  0  0  0  0  0
   -1.8340   19.3650  -27.5440 N   0  0  0  0  0  0  0  0  0  0  0  0
   -0.4630   18.8510  -27.6920 C   0  0  0  0  0  0  0  0  0  0  0  0
   -1.9870   20.7100  -28.1540 C   0  0  0  0  0  0  0  0  0  0  0  0
   -3.3630   21.3690  -27.9250 C   0  0  0  0  0  0  0  0  0  0  0  0
   -3.2810   22.7600  -28.1690 O   0  0  0  0  0  0  0  0  0  0  0  0
   -4.0930   23.1460  -29.2640 C   0  0  0  0  0  0  0  0  0  0  0  0
   -3.5230   24.3980  -29.9250 C   0  0  0  0  0  0  0  0  0  0  0  0
   -4.4440   24.8850  -30.8770 O   0  0  0  0  0  0  0  0  0  0  0  0
   -5.5800   25.4020  -30.2150 C   0  0  0  0  0  0  0  0  0  0  0  0
   -6.7630   24.4680  -30.4460 C   0  0  0  0  0  0  0  0  0  0  0  0
   -6.4720   23.5580  -31.5530 N   0  0  0  0  0  0  0  0  0  0  0  0
   -7.3240   22.4500  -31.8820 C   0  0  0  0  0  0  0  0  0  0  0  0
   -8.7010   22.5330  -31.6150 C   0  0  0  0  0  0  0  0  0  0  0  0
   -9.5410   21.4450  -31.8600 C   0  0  0  0  0  0  0  0  0  0  0  0
   -9.0200   20.2550  -32.3670 C   0  0  0  0  0  0  0  0  0  0  0  0
   -7.6550   20.1510  -32.6480 C   0  0  0  0  0  0  0  0  0  0  0  0
   -7.1590   18.9920  -33.1610 N   0  0  0  0  0  0  0  0  0  0  0  0
   -5.8470   18.8530  -33.4830 C   0  0  0  0  0  0  0  0  0  0  0  0
   -5.2250   17.2070  -34.2170 Br  0  0  0  0  0  0  0  0  0  0  0  0
   -4.9650   19.9200  -33.3000 C   0  0  0  0  0  0  0  0  0  0  0  0
   -5.4370   21.1210  -32.7680 C   0  0  0  0  0  0  0  0  0  0  0  0
   -6.7950   21.2530  -32.4180 C   0  0  0  0  0  0  0  0  0  0  0  0
   -3.8447   18.3996  -24.9347 H   0  0  0  0  0  0  0  0  0  0  0  0
   -4.4006   19.1181  -26.4844 H   0  0  0  0  0  0  0  0  0  0  0  0
   -3.5272   17.5485  -26.4844 H   0  0  0  0  0  0  0  0  0  0  0  0
   -2.3916   20.2898  -25.7308 H   0  0  0  0  0  0  0  0  0  0  0  0
   -1.5136   18.7095  -25.5748 H   0  0  0  0  0  0  0  0  0  0  0  0
   -0.0238   18.6863  -26.6970 H   0  0  0  0  0  0  0  0  0  0  0  0
   -0.4855   17.9003  -28.2448 H   0  0  0  0  0  0  0  0  0  0  0  0
    0.1451   19.5822  -28.2448 H   0  0  0  0  0  0  0  0  0  0  0  0
   -1.2163   21.3691  -27.7280 H   0  0  0  0  0  0  0  0  0  0  0  0
   -1.8858   20.5717  -29.2406 H   0  0  0  0  0  0  0  0  0  0  0  0
   -4.0991   20.9221  -28.6094 H   0  0  0  0  0  0  0  0  0  0  0  0
   -3.6732   21.2034  -26.8827 H   0  0  0  0  0  0  0  0  0  0  0  0
   -4.1243   22.3286  -29.9995 H   0  0  0  0  0  0  0  0  0  0  0  0
   -5.1084   23.3619  -28.9003 H   0  0  0  0  0  0  0  0  0  0  0  0
   -3.3440   25.1679  -29.1600 H   0  0  0  0  0  0  0  0  0  0  0  0
   -2.5742   24.1511  -30.4239 H   0  0  0  0  0  0  0  0  0  0  0  0
   -5.3753   25.4767  -29.1368 H   0  0  0  0  0  0  0  0  0  0  0  0
   -5.8153   26.4012  -30.6102 H   0  0  0  0  0  0  0  0  0  0  0  0
   -6.9494   23.8834  -29.5331 H   0  0  0  0  0  0  0  0  0  0  0  0
   -7.6525   25.0658  -30.6938 H   0  0  0  0  0  0  0  0  0  0  0  0
   -5.6890   23.8070  -32.1990 H   0  0  0  0  0  0  0  0  0  0  0  0
   -9.1215   23.4647  -31.2088 H   0  0  0  0  0  0  0  0  0  0  0  0
  -10.6181   21.5268  -31.6523 H   0  0  0  0  0  0  0  0  0  0  0  0
   -9.6845   19.3968  -32.5460 H   0  0  0  0  0  0  0  0  0  0  0  0
   -3.9047   19.8147  -33.5734 H   0  0  0  0  0  0  0  0  0  0  0  0
   -4.7475   21.9656  -32.6219 H   0  0  0  0  0  0  0  0  0  0  0  0
  1  2  1  0
  2  3  1  0
  3  4  1  0
  3  5  1  0
  5  6  1  0
  6  7  1  0
  7  8  1  0
  8  9  1  0
  9 10  1  0
 10 11  1  0
 11 12  1  0
 12 13  1  0
 13 14  1  0
 14 15  2  0
 15 16  1  0
 16 17  2  0
 17 18  1  0
 18 19  2  0
 19 20  1  0
 20 21  1  0
 20 22  2  0
 22 23  1  0
 23 24  2  0
 24 14  1  0
 24 18  1  0
  1 25  1  0
  1 26  1  0
  1 27  1  0
  2 28  1  0
  2 29  1  0
  4 30  1  0
  4 31  1  0
  4 32  1  0
  5 33  1  0
  5 34  1  0
  6 35  1  0
  6 36  1  0
  8 37  1  0
  8 38  1  0
  9 39  1  0
  9 40  1  0
 11 41  1  0
 11 42  1  0
 12 43  1  0
 12 44  1  0
 13 45  1  0
 15 46  1  0
 16 47  1  0
 17 48  1  0
 22 49  1  0
 23 50  1  0
M  END
>  <UniqueID>  (24) 
24

>  <SMILES>  (24) 
CCN(C)CCOCCOCCNc1cccc2nc(Br)ccc12

>  <Energy>  (24) 
53.35075680858331

>  <Genealogy>  (24) 
CCN(C)CCOCCOCCNc1cccc2nc(Br)ccc12 (3D coordinates assigned)
CCN(C)CCOCCOCCNc1cccc2nc(Br)ccc12 (optimized conformer: 53.35075680858331 kcal/mol)

>  <smiles>  (24) 
CCN(C)CCOCCOCCNc1cccc2nc(Br)ccc12

>  <score_type>  (24) 
oracle

>  <origin>  (24) 
adg

>  <m_score__min__energy>  (24) 
-8.8699999999999992

>  <m_primary>  (24) 
energy

$$$$
24:0
     RDKit          3D

 44 46  0  0  0  0  0  0  0  0999 V2000
   -3.8510   24.2410  -27.1820 C   0  0  0  0  0  0  0  0  0  0  0  0
   -4.2950   23.8630  -28.5940 C   0  0  0  0  0  0  0  0  0  0  0  0
   -5.4220   24.7050  -29.0320 N   0  0  0  0  0  0  0  0  0  0  0  0
   -5.8240   24.4180  -30.4220 C   0  0  0  0  0  0  0  0  0  0  0  0
   -4.8960   23.3960  -31.0990 C   0  0  0  0  0  0  0  0  0  0  0  0
   -5.4700   22.9290  -32.3630 N   0  0  0  0  0  0  0  0  0  0  0  0
   -5.5550   21.5300  -32.6900 C   0  0  0  0  0  0  0  0  0  0  0  0
   -6.7560   20.8260  -32.5020 C   0  0  0  0  0  0  0  0  0  0  0  0
   -7.9300   21.4920  -32.0890 C   0  0  0  0  0  0  0  0  0  0  0  0
   -9.0980   20.7810  -31.8250 C   0  0  0  0  0  0  0  0  0  0  0  0
   -9.1170   19.3990  -31.9660 C   0  0  0  0  0  0  0  0  0  0  0  0
   -7.9840   18.7240  -32.4160 C   0  0  0  0  0  0  0  0  0  0  0  0
   -6.7950   19.4260  -32.7440 C   0  0  0  0  0  0  0  0  0  0  0  0
   -5.6930   18.7830  -33.2780 N   0  0  0  0  0  0  0  0  0  0  0  0
   -5.8210   17.4000  -33.7900 C   0  0  0  0  0  0  0  0  0  0  0  0
   -4.4820   19.4450  -33.3750 C   0  0  0  0  0  0  0  0  0  0  0  0
   -3.2790   18.7620  -33.6950 C   0  0  0  0  0  0  0  0  0  0  0  0
   -2.0770   19.4520  -33.8490 C   0  0  0  0  0  0  0  0  0  0  0  0
   -0.9450   18.7730  -34.1600 F   0  0  0  0  0  0  0  0  0  0  0  0
   -2.0360   20.8310  -33.6790 C   0  0  0  0  0  0  0  0  0  0  0  0
   -0.8670   21.5020  -33.8400 F   0  0  0  0  0  0  0  0  0  0  0  0
   -3.1900   21.5230  -33.3190 C   0  0  0  0  0  0  0  0  0  0  0  0
   -4.4110   20.8430  -33.1340 C   0  0  0  0  0  0  0  0  0  0  0  0
   -4.4743   23.7103  -26.4472 H   0  0  0  0  0  0  0  0  0  0  0  0
   -2.7973   23.9585  -27.0410 H   0  0  0  0  0  0  0  0  0  0  0  0
   -3.9617   25.3263  -27.0410 H   0  0  0  0  0  0  0  0  0  0  0  0
   -3.4514   24.0012  -29.2863 H   0  0  0  0  0  0  0  0  0  0  0  0
   -4.6205   22.8123  -28.5914 H   0  0  0  0  0  0  0  0  0  0  0  0
   -5.1260   25.7090  -28.9850 H   0  0  0  0  0  0  0  0  0  0  0  0
   -6.2380   24.5760  -28.3880 H   0  0  0  0  0  0  0  0  0  0  0  0
   -6.8485   24.0174  -30.4183 H   0  0  0  0  0  0  0  0  0  0  0  0
   -5.7618   25.3574  -30.9909 H   0  0  0  0  0  0  0  0  0  0  0  0
   -3.9229   23.8688  -31.2978 H   0  0  0  0  0  0  0  0  0  0  0  0
   -4.7727   22.5332  -30.4279 H   0  0  0  0  0  0  0  0  0  0  0  0
   -5.7540   23.6320  -33.0810 H   0  0  0  0  0  0  0  0  0  0  0  0
   -7.9222   22.5860  -31.9743 H   0  0  0  0  0  0  0  0  0  0  0  0
  -10.0056   21.3137  -31.5048 H   0  0  0  0  0  0  0  0  0  0  0  0
  -10.0296   18.8356  -31.7216 H   0  0  0  0  0  0  0  0  0  0  0  0
   -8.0117   17.6292  -32.5187 H   0  0  0  0  0  0  0  0  0  0  0  0
   -5.8858   16.7002  -32.9437 H   0  0  0  0  0  0  0  0  0  0  0  0
   -6.7305   17.3188  -34.4034 H   0  0  0  0  0  0  0  0  0  0  0  0
   -4.9419   17.1532  -34.4034 H   0  0  0  0  0  0  0  0  0  0  0  0
   -3.2955   17.6697  -33.8237 H   0  0  0  0  0  0  0  0  0  0  0  0
   -3.1481   22.6130  -33.1774 H   0  0  0  0  0  0  0  0  0  0  0  0
  1  2  1  0
  2  3  1  0
  3  4  1  0
  4  5  1  0
  5  6  1  0
  6  7  1  0
  7  8  2  0
  8  9  1  0
  9 10  2  0
 10 11  1  0
 11 12  2  0
 12 13  1  0
 13 14  2  0
 14 15  1  0
 14 16  1  0
 16 17  2  0
 17 18  1  0
 18 19  1  0
 18 20  2  0
 20 21  1  0
 20 22  1  0
 22 23  2  0
 23  7  1  0
 13  8  1  0
 23 16  1  0
  1 24  1  0
  1 25  1  0
  1 26  1  0
  2 27  1  0
  2 28  1  0
  3 29  1  0
  3 30  1  0
  4 31  1  0
  4 32  1  0
  5 33  1  0
  5 34  1  0
  6 35  1  0
  9 36  1  0
 10 37  1  0
 11 38  1  0
 12 39  1  0
 15 40  1  0
 15 41  1  0
 15 42  1  0
 17 43  1  0
 22 44  1  0
M  CHG  2   3   1  14   1
M  END
>  <UniqueID>  (25) 
25

>  <SMILES>  (25) 
CC[NH2+]CCNc1c2ccccc2[n+](C)c2cc(F)c(F)cc12

>  <Energy>  (25) 
68.25360199915721

>  <Genealogy>  (25) 
CC[NH2+]CCNc1c2ccccc2[n+](C)c2cc(F)c(F)cc12 (protonated)
CC[NH2+]CCNc1c2ccccc2[n+](C)c2cc(F)c(F)cc12 (3D coordinates assigned)
CC[NH2+]CCNc1c2ccccc2[n+](C)c2cc(F)c(F)cc12 (optimized conformer: 68.25360199915721 kcal/mol)

>  <smiles>  (25) 
CCNCCNc1c2ccccc2[n+](C)c2cc(F)c(F)cc12

>  <score_type>  (25) 
oracle

>  <origin>  (25) 
adg

>  <m_score__min__energy>  (25) 
-7.1200000000000001

>  <m_primary>  (25) 
energy

$$$$
