0:0
     RDKit          3D

 52 54  0  0  0  0  0  0  0  0999 V2000
   -6.2000   25.3840  -29.4890 C   0  0  0  0  0  0  0  0  0  0  0  0
   -5.2940   25.6930  -30.6860 C   0  0  0  0  0  0  0  0  0  0  0  0
   -3.9350   25.2880  -30.4530 N   0  0  0  0  0  0  0  0  0  0  0  0
   -3.8110   24.3180  -29.3540 C   0  0  0  0  0  0  0  0  0  0  0  0
   -3.7090   22.9830  -29.9940 C   0  0  0  0  0  0  0  0  0  0  0  0
   -3.3320   23.0230  -31.3610 O   0  0  0  0  0  0  0  0  0  0  0  0
   -2.8030   21.7590  -31.5940 C   0  0  0  0  0  0  0  0  0  0  0  0
   -3.0600   21.1800  -32.9330 C   0  0  0  0  0  0  0  0  0  0  0  0
   -4.3810   21.4330  -33.4680 N   0  0  0  0  0  0  0  0  0  0  0  0
   -5.5230   20.6600  -33.0770 C   0  0  0  0  0  0  0  0  0  0  0  0
   -5.5940   19.2970  -33.2710 C   0  0  0  0  0  0  0  0  0  0  0  0
   -4.5130   18.6880  -33.8490 C   0  0  0  0  0  0  0  0  0  0  0  0
   -4.4560   17.3240  -34.1020 C   0  0  0  0  0  0  0  0  0  0  0  0
   -5.5660   16.5650  -33.7390 C   0  0  0  0  0  0  0  0  0  0  0  0
   -6.6620   17.2020  -33.1490 C   0  0  0  0  0  0  0  0  0  0  0  0
   -6.7080   18.5470  -32.9040 C   0  0  0  0  0  0  0  0  0  0  0  0
   -7.7790   19.1410  -32.3330 N   0  0  0  0  0  0  0  0  0  0  0  0
   -8.8910   18.2930  -31.9630 C   0  0  0  0  0  0  0  0  0  0  0  0
   -7.7510   20.4680  -32.1260 C   0  0  0  0  0  0  0  0  0  0  0  0
   -8.8420   21.1060  -31.5380 C   0  0  0  0  0  0  0  0  0  0  0  0
   -8.8450   22.4780  -31.3060 C   0  0  0  0  0  0  0  0  0  0  0  0
   -7.7610   23.2420  -31.6560 C   0  0  0  0  0  0  0  0  0  0  0  0
   -6.6630   22.6090  -32.2460 C   0  0  0  0  0  0  0  0  0  0  0  0
   -5.5730   23.4740  -32.5570 N   0  0  0  0  0  0  0  0  0  0  0  0
   -6.6420   21.2490  -32.4840 C   0  0  0  0  0  0  0  0  0  0  0  0
   -5.6502   25.5715  -28.5549 H   0  0  0  0  0  0  0  0  0  0  0  0
   -7.0900   26.0294  -29.5265 H   0  0  0  0  0  0  0  0  0  0  0  0
   -6.5101   24.3293  -29.5265 H   0  0  0  0  0  0  0  0  0  0  0  0
   -5.6771   25.1591  -31.5682 H   0  0  0  0  0  0  0  0  0  0  0  0
   -5.3010   26.7815  -30.8446 H   0  0  0  0  0  0  0  0  0  0  0  0
   -3.6340   24.8180  -31.3590 H   0  0  0  0  0  0  0  0  0  0  0  0
   -2.9088   24.5268  -28.7603 H   0  0  0  0  0  0  0  0  0  0  0  0
   -4.6716   24.3719  -28.6710 H   0  0  0  0  0  0  0  0  0  0  0  0
   -2.9591   22.3937  -29.4460 H   0  0  0  0  0  0  0  0  0  0  0  0
   -4.7129   22.5351  -29.9549 H   0  0  0  0  0  0  0  0  0  0  0  0
   -1.7131   21.8209  -31.4585 H   0  0  0  0  0  0  0  0  0  0  0  0
   -3.3102   21.0914  -30.8819 H   0  0  0  0  0  0  0  0  0  0  0  0
   -2.3227   21.5998  -33.6331 H   0  0  0  0  0  0  0  0  0  0  0  0
   -2.9808   20.0892  -32.8155 H   0  0  0  0  0  0  0  0  0  0  0  0
   -4.5460   22.2140  -34.1690 H   0  0  0  0  0  0  0  0  0  0  0  0
   -3.6483   19.3088  -34.1263 H   0  0  0  0  0  0  0  0  0  0  0  0
   -3.5730   16.8630  -34.5686 H   0  0  0  0  0  0  0  0  0  0  0  0
   -5.5802   15.4791  -33.9141 H   0  0  0  0  0  0  0  0  0  0  0  0
   -7.5318   16.5902  -32.8674 H   0  0  0  0  0  0  0  0  0  0  0  0
   -8.9619   18.2389  -30.8666 H   0  0  0  0  0  0  0  0  0  0  0  0
   -9.8230   18.7118  -32.3705 H   0  0  0  0  0  0  0  0  0  0  0  0
   -8.7337   17.2834  -32.3705 H   0  0  0  0  0  0  0  0  0  0  0  0
   -9.7213   20.5108  -31.2506 H   0  0  0  0  0  0  0  0  0  0  0  0
   -9.7211   22.9522  -30.8396 H   0  0  0  0  0  0  0  0  0  0  0  0
   -7.7557   24.3273  -31.4767 H   0  0  0  0  0  0  0  0  0  0  0  0
   -4.9860   23.7660  -31.7240 H   0  0  0  0  0  0  0  0  0  0  0  0
   -5.3280   23.8110  -33.4960 H   0  0  0  0  0  0  0  0  0  0  0  0
  1  2  1  0
  2  3  1  0
  3  4  1  0
  4  5  1  0
  5  6  1  0
  6  7  1  0
  7  8  1  0
  8  9  1  0
  9 10  1  0
 10 11  2  0
 11 12  1  0
 12 13  2  0
 13 14  1  0
 14 15  2  0
 15 16  1  0
 16 17  2  0
 17 18  1  0
 17 19  1  0
 19 20  2  0
 20 21  1  0
 21 22  2  0
 22 23  1  0
 23 24  1  0
 23 25  2  0
 25 10  1  0
 16 11  1  0
 25 19  1  0
  1 26  1  0
  1 27  1  0
  1 28  1  0
  2 29  1  0
  2 30  1  0
  3 31  1  0
  4 32  1  0
  4 33  1  0
  5 34  1  0
  5 35  1  0
  7 36  1  0
  7 37  1  0
  8 38  1  0
  8 39  1  0
  9 40  1  0
 12 41  1  0
 13 42  1  0
 14 43  1  0
 15 44  1  0
 18 45  1  0
 18 46  1  0
 18 47  1  0
 20 48  1  0
 21 49  1  0
 22 50  1  0
 24 51  1  0
 24 52  1  0
M  CHG  1  17   1
M  END
>  <smiles>  (1) 
CCNCCOCCNc1c2ccccc2[n+](C)c2cccc(N)c12

>  <score_type>  (1) 
oracle

>  <origin>  (1) 
adg

>  <m_score__min__energy>  (1) 
-9.0899999999999999

>  <m_primary>  (1) 
energy

$$$$
1:0
     RDKit          3D

 71 73  0  0  0  0  0  0  0  0999 V2000
   -0.3060   20.1280  -30.7140 C   0  0  0  0  0  0  0  0  0  0  0  0
   -0.8620   21.5340  -30.4760 C   0  0  0  0  0  0  0  0  0  0  0  0
   -1.6040   21.4570  -29.3100 O   0  0  0  0  0  0  0  0  0  0  0  0
   -1.0860   20.5540  -28.4060 C   0  0  0  0  0  0  0  0  0  0  0  0
   -1.0240   21.1730  -27.0360 C   0  0  0  0  0  0  0  0  0  0  0  0
   -1.4610   22.5190  -27.0020 O   0  0  0  0  0  0  0  0  0  0  0  0
   -0.4570   23.2840  -26.3690 C   0  0  0  0  0  0  0  0  0  0  0  0
    0.0530   24.4290  -27.1600 C   0  0  0  0  0  0  0  0  0  0  0  0
   -0.1720   24.1830  -28.6180 N   0  0  0  0  0  0  0  0  0  0  0  0
   -1.2180   25.1220  -28.9700 C   0  0  0  0  0  0  0  0  0  0  0  0
   -2.6320   24.6310  -28.6920 C   0  0  0  0  0  0  0  0  0  0  0  0
   -3.1060   24.0920  -30.0300 C   0  0  0  0  0  0  0  0  0  0  0  0
   -3.9270   24.8460  -30.8200 N   0  0  0  0  0  0  0  0  0  0  0  0
   -5.1290   25.4510  -30.5220 C   0  0  0  0  0  0  0  0  0  0  0  0
   -6.3510   24.5370  -30.6200 C   0  0  0  0  0  0  0  0  0  0  0  0
   -5.7760   23.1710  -30.9400 C   0  0  0  0  0  0  0  0  0  0  0  0
   -5.9000   22.8210  -32.3420 N   0  0  0  0  0  0  0  0  0  0  0  0
   -5.7000   21.4230  -32.6220 C   0  0  0  0  0  0  0  0  0  0  0  0
   -4.4920   20.8730  -32.9660 C   0  0  0  0  0  0  0  0  0  0  0  0
   -3.4180   21.6980  -33.0890 C   0  0  0  0  0  0  0  0  0  0  0  0
   -2.2040   21.0870  -33.4490 C   0  0  0  0  0  0  0  0  0  0  0  0
   -2.1160   19.7420  -33.6630 C   0  0  0  0  0  0  0  0  0  0  0  0
   -3.2460   18.9640  -33.5220 C   0  0  0  0  0  0  0  0  0  0  0  0
   -4.4710   19.5040  -33.1670 C   0  0  0  0  0  0  0  0  0  0  0  0
   -5.5840   18.7270  -33.0360 N   0  0  0  0  0  0  0  0  0  0  0  0
   -5.4770   17.2980  -33.2310 C   0  0  0  0  0  0  0  0  0  0  0  0
   -6.7690   19.2790  -32.6990 C   0  0  0  0  0  0  0  0  0  0  0  0
   -7.9350   18.5590  -32.5700 C   0  0  0  0  0  0  0  0  0  0  0  0
   -9.1540   19.1230  -32.2400 C   0  0  0  0  0  0  0  0  0  0  0  0
   -9.2200   20.4820  -32.0280 C   0  0  0  0  0  0  0  0  0  0  0  0
   -8.0630   21.2320  -32.1540 C   0  0  0  0  0  0  0  0  0  0  0  0
   -6.8450   20.6410  -32.4850 C   0  0  0  0  0  0  0  0  0  0  0  0
   -0.1135   19.6412  -29.7465 H   0  0  0  0  0  0  0  0  0  0  0  0
   -1.0377   19.5359  -31.2833 H   0  0  0  0  0  0  0  0  0  0  0  0
    0.6328   20.1964  -31.2833 H   0  0  0  0  0  0  0  0  0  0  0  0
   -0.0400   22.2557  -30.3593 H   0  0  0  0  0  0  0  0  0  0  0  0
   -1.4758   21.8740  -31.3232 H   0  0  0  0  0  0  0  0  0  0  0  0
   -1.7288   19.6619  -28.3736 H   0  0  0  0  0  0  0  0  0  0  0  0
   -0.0703   20.2717  -28.7203 H   0  0  0  0  0  0  0  0  0  0  0  0
   -1.6599   20.5837  -26.3590 H   0  0  0  0  0  0  0  0  0  0  0  0
    0.0319   21.1688  -26.7276 H   0  0  0  0  0  0  0  0  0  0  0  0
   -0.8700   23.6767  -25.4282 H   0  0  0  0  0  0  0  0  0  0  0  0
    0.3978   22.6072  -26.2232 H   0  0  0  0  0  0  0  0  0  0  0  0
   -0.4768   25.3448  -26.8589 H   0  0  0  0  0  0  0  0  0  0  0  0
    1.1312   24.5444  -26.9751 H   0  0  0  0  0  0  0  0  0  0  0  0
   -0.4600   23.1920  -28.7350 H   0  0  0  0  0  0  0  0  0  0  0  0
   -1.0568   26.0461  -28.3955 H   0  0  0  0  0  0  0  0  0  0  0  0
   -1.1487   25.2717  -30.0576 H   0  0  0  0  0  0  0  0  0  0  0  0
   -2.6272   23.8371  -27.9306 H   0  0  0  0  0  0  0  0  0  0  0  0
   -3.2855   25.4247  -28.3009 H   0  0  0  0  0  0  0  0  0  0  0  0
   -2.2046   23.8776  -30.6229 H   0  0  0  0  0  0  0  0  0  0  0  0
   -3.7414   23.2397  -29.7475 H   0  0  0  0  0  0  0  0  0  0  0  0
   -3.4350   25.4170  -31.5770 H   0  0  0  0  0  0  0  0  0  0  0  0
   -5.0720   25.8363  -29.4933 H   0  0  0  0  0  0  0  0  0  0  0  0
   -5.2725   26.2401  -31.2748 H   0  0  0  0  0  0  0  0  0  0  0  0
   -6.8982   24.5152  -29.6660 H   0  0  0  0  0  0  0  0  0  0  0  0
   -7.0695   24.8778  -31.3800 H   0  0  0  0  0  0  0  0  0  0  0  0
   -4.7096   23.1670  -30.6702 H   0  0  0  0  0  0  0  0  0  0  0  0
   -6.3470   22.4289  -30.3627 H   0  0  0  0  0  0  0  0  0  0  0  0
   -6.1060   23.4900  -33.1060 H   0  0  0  0  0  0  0  0  0  0  0  0
   -3.4947   22.7817  -32.9166 H   0  0  0  0  0  0  0  0  0  0  0  0
   -1.3031   21.7082  -33.5609 H   0  0  0  0  0  0  0  0  0  0  0  0
   -1.1561   19.2843  -33.9443 H   0  0  0  0  0  0  0  0  0  0  0  0
   -3.1720   17.8805  -33.6970 H   0  0  0  0  0  0  0  0  0  0  0  0
   -5.4394   16.7963  -32.2528 H   0  0  0  0  0  0  0  0  0  0  0  0
   -6.3507   16.9384  -33.7942 H   0  0  0  0  0  0  0  0  0  0  0  0
   -4.5595   17.0725  -33.7942 H   0  0  0  0  0  0  0  0  0  0  0  0
   -7.8950   17.4728  -32.7390 H   0  0  0  0  0  0  0  0  0  0  0  0
  -10.0542   18.4975  -32.1486 H   0  0  0  0  0  0  0  0  0  0  0  0
  -10.1735   20.9625  -31.7636 H   0  0  0  0  0  0  0  0  0  0  0  0
   -8.1061   22.3187  -31.9891 H   0  0  0  0  0  0  0  0  0  0  0  0
  1  2  1  0
  2  3  1  0
  3  4  1  0
  4  5  1  0
  5  6  1  0
  6  7  1  0
  7  8  1  0
  8  9  1  0
  9 10  1  0
 10 11  1  0
 11 12  1  0
 12 13  1  0
 13 14  1  0
 14 15  1  0
 15 16  1  0
 16 17  1  0
 17 18  1  0
 18 19  2  0
 19 20  1  0
 20 21  2  0
 21 22  1  0
 22 23  2  0
 23 24  1  0
 24 25  2  0
 25 26  1  0
 25 27  1  0
 27 28  2  0
 28 29  1  0
 29 30  2  0
 30 31  1  0
 31 32  2  0
 32 18  1  0
 24 19  1  0
 32 27  1  0
  1 33  1  0
  1 34  1  0
  1 35  1  0
  2 36  1  0
  2 37  1  0
  4 38  1  0
  4 39  1  0
  5 40  1  0
  5 41  1  0
  7 42  1  0
  7 43  1  0
  8 44  1  0
  8 45  1  0
  9 46  1  0
 10 47  1  0
 10 48  1  0
 11 49  1  0
 11 50  1  0
 12 51  1  0
 12 52  1  0
 13 53  1  0
 14 54  1  0
 14 55  1  0
 15 56  1  0
 15 57  1  0
 16 58  1  0
 16 59  1  0
 17 60  1  0
 20 61  1  0
 21 62  1  0
 22 63  1  0
 23 64  1  0
 26 65  1  0
 26 66  1  0
 26 67  1  0
 28 68  1  0
 29 69  1  0
 30 70  1  0
 31 71  1  0
M  CHG  1  25   1
M  END
>  <smiles>  (2) 
CCOCCOCCNCCCNCCCNc1c2ccccc2[n+](C)c2ccccc12

>  <score_type>  (2) 
oracle

>  <origin>  (2) 
adg

>  <m_score__min__energy>  (2) 
-9.7699999999999996

>  <m_primary>  (2) 
energy

$$$$
3:0
     RDKit          3D

 37 38  0  0  1  0  0  0  0  0999 V2000
   -5.7890   16.6590  -33.1310 C   0  0  0  0  0  0  0  0  0  0  0  0
   -6.1660   17.5800  -31.9820 C   0  0  0  0  0  0  0  0  0  0  0  0
   -7.1370   18.5330  -32.4210 N   0  0  0  0  0  0  0  0  0  0  0  0
   -6.9620   19.3750  -33.4100 C   0  0  0  0  0  0  0  0  0  0  0  0
   -5.8580   20.3010  -33.3840 C   0  0  0  0  0  0  0  0  0  0  0  0
   -5.7380   21.3520  -32.6130 C   0  0  0  0  0  0  0  0  0  0  0  0
   -6.8650   22.1560  -32.1110 C   0  0  0  0  0  0  0  0  0  0  0  0
   -8.0920   22.0040  -32.3340 O   0  0  0  0  0  0  0  0  0  0  0  0
   -6.2730   23.1900  -31.2820 C   0  0  0  0  0  0  0  0  0  0  0  0
   -6.8670   24.2030  -30.5740 C   0  0  0  0  0  0  0  0  0  0  0  0
   -6.1170   25.0880  -29.8400 C   0  0  0  0  0  0  0  0  0  0  0  0
   -4.7430   24.9230  -29.8400 C   0  0  0  0  0  0  0  0  0  0  0  0
   -4.1520   23.8930  -30.5630 C   0  0  0  0  0  0  0  0  0  0  0  0
   -4.9170   23.0090  -31.2960 C   0  0  0  0  0  0  0  0  0  0  0  0
   -4.5530   21.8780  -32.1120 N   0  0  0  0  0  0  0  0  0  0  0  0
   -3.2210   21.3940  -32.3300 C   0  0  0  0  0  0  0  0  0  0  0  0
   -8.4040   18.5630  -31.6630 C   0  0  0  0  0  0  0  0  0  0  0  0
   -9.4600   19.3570  -32.3830 C   0  0  0  0  0  0  0  0  0  0  0  0
   -5.4011   15.7113  -32.7292 H   0  0  0  0  0  0  0  0  0  0  0  0
   -6.6778   16.4593  -33.7477 H   0  0  0  0  0  0  0  0  0  0  0  0
   -5.0153   17.1398  -33.7477 H   0  0  0  0  0  0  0  0  0  0  0  0
   -6.5866   16.9833  -31.1592 H   0  0  0  0  0  0  0  0  0  0  0  0
   -5.2680   18.1117  -31.6344 H   0  0  0  0  0  0  0  0  0  0  0  0
   -7.6588   19.3749  -34.2612 H   0  0  0  0  0  0  0  0  0  0  0  0
   -5.0320   20.1046  -34.0834 H   0  0  0  0  0  0  0  0  0  0  0  0
   -7.9618   24.3081  -30.5945 H   0  0  0  0  0  0  0  0  0  0  0  0
   -6.5921   25.9008  -29.2711 H   0  0  0  0  0  0  0  0  0  0  0  0
   -4.1119   25.6140  -29.2619 H   0  0  0  0  0  0  0  0  0  0  0  0
   -3.0578   23.7811  -30.5505 H   0  0  0  0  0  0  0  0  0  0  0  0
   -2.7322   21.2164  -31.3607 H   0  0  0  0  0  0  0  0  0  0  0  0
   -3.2612   20.4530  -32.8983 H   0  0  0  0  0  0  0  0  0  0  0  0
   -2.6477   22.1413  -32.8983 H   0  0  0  0  0  0  0  0  0  0  0  0
   -8.7631   17.5323  -31.5265 H   0  0  0  0  0  0  0  0  0  0  0  0
   -8.2135   19.0437  -30.6921 H   0  0  0  0  0  0  0  0  0  0  0  0
  -10.1140   19.8487  -31.6478 H   0  0  0  0  0  0  0  0  0  0  0  0
   -8.9793   20.1192  -33.0138 H   0  0  0  0  0  0  0  0  0  0  0  0
  -10.0588   18.6835  -33.0138 H   0  0  0  0  0  0  0  0  0  0  0  0
  1  2  1  0
  2  3  1  0
  3  4  2  0
  4  5  1  0
  5  6  2  0
  6  7  1  0
  7  8  2  0
  7  9  1  0
  9 10  2  0
 10 11  1  0
 11 12  2  0
 12 13  1  0
 13 14  2  0
 14 15  1  0
 15 16  1  0
  3 17  1  0
 17 18  1  0
 15  6  1  0
 14  9  1  0
  1 19  1  0
  1 20  1  0
  1 21  1  0
  2 22  1  0
  2 23  1  0
  4 24  1  0
  5 25  1  0
 10 26  1  0
 11 27  1  0
 12 28  1  0
 13 29  1  0
 16 30  1  0
 16 31  1  0
 16 32  1  0
 17 33  1  0
 17 34  1  0
 18 35  1  0
 18 36  1  0
 18 37  1  0
M  CHG  1   3   1
M  END
>  <smiles>  (3) 
CC[N+](=CC=C1C(=O)c2ccccc2N1C)CC

>  <score_type>  (3) 
oracle

>  <origin>  (3) 
adg

>  <m_score__min__energy>  (3) 
-5.9199999999999999

>  <m_primary>  (3) 
energy

$$$$
4:0
     RDKit          3D

 58 60  0  0  0  0  0  0  0  0999 V2000
   -6.1820   25.2990  -29.5190 C   0  0  0  0  0  0  0  0  0  0  0  0
   -5.3870   25.3430  -30.8260 C   0  0  0  0  0  0  0  0  0  0  0  0
   -4.0140   25.2140  -30.4820 N   0  0  0  0  0  0  0  0  0  0  0  0
   -3.8060   24.5430  -29.2340 C   0  0  0  0  0  0  0  0  0  0  0  0
   -2.3620   24.1900  -29.0510 C   0  0  0  0  0  0  0  0  0  0  0  0
   -1.9610   23.0600  -30.0130 C   0  0  0  0  0  0  0  0  0  0  0  0
   -3.0350   22.6290  -30.8170 N   0  0  0  0  0  0  0  0  0  0  0  0
   -3.4480   21.2900  -30.7770 C   0  0  0  0  0  0  0  0  0  0  0  0
   -2.8960   20.3800  -31.8370 C   0  0  0  0  0  0  0  0  0  0  0  0
   -3.0660   21.0630  -33.2210 C   0  0  0  0  0  0  0  0  0  0  0  0
   -4.4570   21.3820  -33.4770 N   0  0  0  0  0  0  0  0  0  0  0  0
   -5.5590   20.5700  -33.1220 C   0  0  0  0  0  0  0  0  0  0  0  0
   -5.5940   19.1950  -33.3700 C   0  0  0  0  0  0  0  0  0  0  0  0
   -6.7250   18.5090  -32.9780 C   0  0  0  0  0  0  0  0  0  0  0  0
   -7.7810   19.1130  -32.3740 N   0  0  0  0  0  0  0  0  0  0  0  0
   -8.9540   18.3390  -31.9680 C   0  0  0  0  0  0  0  0  0  0  0  0
   -7.7730   20.4260  -32.1270 C   0  0  0  0  0  0  0  0  0  0  0  0
   -8.8730   20.9820  -31.5160 C   0  0  0  0  0  0  0  0  0  0  0  0
   -8.9110   22.3310  -31.2450 C   0  0  0  0  0  0  0  0  0  0  0  0
   -7.8270   23.0840  -31.6010 C   0  0  0  0  0  0  0  0  0  0  0  0
   -6.7170   22.5100  -32.2200 C   0  0  0  0  0  0  0  0  0  0  0  0
   -6.6570   21.1510  -32.5030 C   0  0  0  0  0  0  0  0  0  0  0  0
   -6.6080   17.0730  -33.3120 C   0  0  0  0  0  0  0  0  0  0  0  0
   -5.2500   16.8860  -33.8600 C   0  0  0  0  0  0  0  0  0  0  0  0
   -4.6540   18.2610  -33.9840 C   0  0  0  0  0  0  0  0  0  0  0  0
   -5.4881   25.3374  -28.6663 H   0  0  0  0  0  0  0  0  0  0  0  0
   -6.8643   26.1608  -29.4756 H   0  0  0  0  0  0  0  0  0  0  0  0
   -6.7650   24.3672  -29.4756 H   0  0  0  0  0  0  0  0  0  0  0  0
   -5.6917   24.5139  -31.4815 H   0  0  0  0  0  0  0  0  0  0  0  0
   -5.5698   26.2843  -31.3651 H   0  0  0  0  0  0  0  0  0  0  0  0
   -3.4820   24.7610  -31.2340 H   0  0  0  0  0  0  0  0  0  0  0  0
   -4.1221   25.2033  -28.4130 H   0  0  0  0  0  0  0  0  0  0  0  0
   -4.3976   23.6156  -29.2308 H   0  0  0  0  0  0  0  0  0  0  0  0
   -1.7434   25.0764  -29.2550 H   0  0  0  0  0  0  0  0  0  0  0  0
   -2.2058   23.8504  -28.0165 H   0  0  0  0  0  0  0  0  0  0  0  0
   -1.1544   23.4231  -30.6669 H   0  0  0  0  0  0  0  0  0  0  0  0
   -1.6342   22.2036  -29.4048 H   0  0  0  0  0  0  0  0  0  0  0  0
   -3.5450   23.3060  -31.3790 H   0  0  0  0  0  0  0  0  0  0  0  0
   -3.1536   20.8798  -29.7997 H   0  0  0  0  0  0  0  0  0  0  0  0
   -4.5328   21.3174  -30.9570 H   0  0  0  0  0  0  0  0  0  0  0  0
   -1.8290   20.1937  -31.6453 H   0  0  0  0  0  0  0  0  0  0  0  0
   -3.4354   19.4214  -31.8245 H   0  0  0  0  0  0  0  0  0  0  0  0
   -2.4752   21.9907  -33.2390 H   0  0  0  0  0  0  0  0  0  0  0  0
   -2.7174   20.3682  -33.9993 H   0  0  0  0  0  0  0  0  0  0  0  0
   -4.6080   22.2970  -33.9640 H   0  0  0  0  0  0  0  0  0  0  0  0
   -9.0078   18.3035  -30.8699 H   0  0  0  0  0  0  0  0  0  0  0  0
   -9.8628   18.8154  -32.3644 H   0  0  0  0  0  0  0  0  0  0  0  0
   -8.8735   17.3161  -32.3644 H   0  0  0  0  0  0  0  0  0  0  0  0
   -9.7270   20.3450  -31.2425 H   0  0  0  0  0  0  0  0  0  0  0  0
   -9.7850   22.7881  -30.7579 H   0  0  0  0  0  0  0  0  0  0  0  0
   -7.8304   24.1645  -31.3950 H   0  0  0  0  0  0  0  0  0  0  0  0
   -5.8653   23.1509  -32.4918 H   0  0  0  0  0  0  0  0  0  0  0  0
   -6.7424   16.4594  -32.4090 H   0  0  0  0  0  0  0  0  0  0  0  0
   -7.3776   16.7661  -34.0356 H   0  0  0  0  0  0  0  0  0  0  0  0
   -4.6458   16.2686  -33.1790 H   0  0  0  0  0  0  0  0  0  0  0  0
   -5.2776   16.3722  -34.8322 H   0  0  0  0  0  0  0  0  0  0  0  0
   -3.6869   18.3013  -33.4615 H   0  0  0  0  0  0  0  0  0  0  0  0
   -4.4805   18.5181  -35.0394 H   0  0  0  0  0  0  0  0  0  0  0  0
  1  2  1  0
  2  3  1  0
  3  4  1  0
  4  5  1  0
  5  6  1  0
  6  7  1  0
  7  8  1  0
  8  9  1  0
  9 10  1  0
 10 11  1  0
 11 12  1  0
 12 13  2  0
 13 14  1  0
 14 15  2  0
 15 16  1  0
 15 17  1  0
 17 18  2  0
 18 19  1  0
 19 20  2  0
 20 21  1  0
 21 22  2  0
 14 23  1  0
 23 24  1  0
 24 25  1  0
 22 12  1  0
 25 13  1  0
 22 17  1  0
  1 26  1  0
  1 27  1  0
  1 28  1  0
  2 29  1  0
  2 30  1  0
  3 31  1  0
  4 32  1  0
  4 33  1  0
  5 34  1  0
  5 35  1  0
  6 36  1  0
  6 37  1  0
  7 38  1  0
  8 39  1  0
  8 40  1  0
  9 41  1  0
  9 42  1  0
 10 43  1  0
 10 44  1  0
 11 45  1  0
 16 46  1  0
 16 47  1  0
 16 48  1  0
 18 49  1  0
 19 50  1  0
 20 51  1  0
 21 52  1  0
 23 53  1  0
 23 54  1  0
 24 55  1  0
 24 56  1  0
 25 57  1  0
 25 58  1  0
M  CHG  1  15   1
M  END
>  <smiles>  (4) 
CCNCCCNCCCNc1c2c([n+](C)c3ccccc13)CCC2

>  <score_type>  (4) 
oracle

>  <origin>  (4) 
adg

>  <m_score__min__energy>  (4) 
-9.4299999999999997

>  <m_primary>  (4) 
energy

$$$$
5:0
     RDKit          3D

 53 54  0  0  0  0  0  0  0  0999 V2000
   -9.4750   22.0400  -31.7090 C   0  0  0  0  0  0  0  0  0  0  0  0
   -8.1550   22.6420  -31.3880 C   0  0  0  0  0  0  0  0  0  0  0  0
   -7.6240   22.4960  -30.1170 C   0  0  0  0  0  0  0  0  0  0  0  0
   -6.3940   23.0530  -29.8180 C   0  0  0  0  0  0  0  0  0  0  0  0
   -5.6460   23.7570  -30.7200 C   0  0  0  0  0  0  0  0  0  0  0  0
   -4.0790   24.4940  -30.4080 S   0  0  0  0  0  0  0  0  0  0  0  0
   -2.7710   23.3450  -29.9860 C   0  0  0  0  0  0  0  0  0  0  0  0
   -2.8550   22.0450  -30.7190 C   0  0  0  0  0  0  0  0  0  0  0  0
   -2.2160   22.1300  -32.0140 N   0  0  0  0  0  0  0  0  0  0  0  0
   -0.9160   21.5490  -31.9430 C   0  0  0  0  0  0  0  0  0  0  0  0
   -0.4660   20.9580  -33.2650 C   0  0  0  0  0  0  0  0  0  0  0  0
   -1.5120   20.7930  -34.2260 N   0  0  0  0  0  0  0  0  0  0  0  0
   -1.7260   19.3760  -34.3880 C   0  0  0  0  0  0  0  0  0  0  0  0
   -3.0060   18.8560  -33.8340 C   0  0  0  0  0  0  0  0  0  0  0  0
   -3.6180   19.7520  -32.8990 N   0  0  0  0  0  0  0  0  0  0  0  0
   -4.8540   20.3160  -33.4400 C   0  0  0  0  0  0  0  0  0  0  0  0
   -6.0540   19.6310  -32.9120 C   0  0  0  0  0  0  0  0  0  0  0  0
   -7.3420   19.9470  -33.2890 C   0  0  0  0  0  0  0  0  0  0  0  0
   -8.3860   19.2440  -32.7260 C   0  0  0  0  0  0  0  0  0  0  0  0
   -8.2000   18.2340  -31.7950 C   0  0  0  0  0  0  0  0  0  0  0  0
   -6.9120   17.9420  -31.4420 C   0  0  0  0  0  0  0  0  0  0  0  0
   -5.8130   18.6160  -31.9750 C   0  0  0  0  0  0  0  0  0  0  0  0
   -6.1860   23.9000  -31.9970 C   0  0  0  0  0  0  0  0  0  0  0  0
   -7.4100   23.3540  -32.3190 C   0  0  0  0  0  0  0  0  0  0  0  0
  -10.0046   21.7985  -30.7756 H   0  0  0  0  0  0  0  0  0  0  0  0
  -10.0715   22.7551  -32.2945 H   0  0  0  0  0  0  0  0  0  0  0  0
   -9.3261   21.1208  -32.2945 H   0  0  0  0  0  0  0  0  0  0  0  0
   -8.1789   21.9388  -29.3479 H   0  0  0  0  0  0  0  0  0  0  0  0
   -5.9966   22.9227  -28.8006 H   0  0  0  0  0  0  0  0  0  0  0  0
   -1.8053   23.8156  -30.2227 H   0  0  0  0  0  0  0  0  0  0  0  0
   -2.8752   23.1179  -28.9148 H   0  0  0  0  0  0  0  0  0  0  0  0
   -2.3569   21.2653  -30.1241 H   0  0  0  0  0  0  0  0  0  0  0  0
   -3.9165   21.7998  -30.8709 H   0  0  0  0  0  0  0  0  0  0  0  0
   -2.8020   21.7580  -32.7860 H   0  0  0  0  0  0  0  0  0  0  0  0
   -0.1987   22.3272  -31.6431 H   0  0  0  0  0  0  0  0  0  0  0  0
   -0.9578   20.7299  -31.2100 H   0  0  0  0  0  0  0  0  0  0  0  0
    0.2962   21.6230  -33.6972 H   0  0  0  0  0  0  0  0  0  0  0  0
   -0.0819   19.9513  -33.0437 H   0  0  0  0  0  0  0  0  0  0  0  0
   -2.3630   21.3400  -34.0550 H   0  0  0  0  0  0  0  0  0  0  0  0
   -1.7057   19.1506  -35.4645 H   0  0  0  0  0  0  0  0  0  0  0  0
   -0.9259   18.8816  -33.8176 H   0  0  0  0  0  0  0  0  0  0  0  0
   -3.7050   18.6873  -34.6664 H   0  0  0  0  0  0  0  0  0  0  0  0
   -2.7762   17.9253  -33.2946 H   0  0  0  0  0  0  0  0  0  0  0  0
   -2.9520   20.5000  -32.6180 H   0  0  0  0  0  0  0  0  0  0  0  0
   -4.9059   21.3812  -33.1706 H   0  0  0  0  0  0  0  0  0  0  0  0
   -4.8392   20.1816  -34.5317 H   0  0  0  0  0  0  0  0  0  0  0  0
   -7.5327   20.7433  -34.0236 H   0  0  0  0  0  0  0  0  0  0  0  0
   -9.4129   19.4960  -33.0293 H   0  0  0  0  0  0  0  0  0  0  0  0
   -9.0517   17.6911  -31.3592 H   0  0  0  0  0  0  0  0  0  0  0  0
   -6.7349   17.1426  -30.7074 H   0  0  0  0  0  0  0  0  0  0  0  0
   -4.7881   18.3589  -31.6694 H   0  0  0  0  0  0  0  0  0  0  0  0
   -5.6255   24.4584  -32.7613 H   0  0  0  0  0  0  0  0  0  0  0  0
   -7.8058   23.4853  -33.3369 H   0  0  0  0  0  0  0  0  0  0  0  0
  1  2  1  0
  2  3  2  0
  3  4  1  0
  4  5  2  0
  5  6  1  0
  6  7  1  0
  7  8  1  0
  8  9  1  0
  9 10  1  0
 10 11  1  0
 11 12  1  0
 12 13  1  0
 13 14  1  0
 14 15  1  0
 15 16  1  0
 16 17  1  0
 17 18  2  0
 18 19  1  0
 19 20  2  0
 20 21  1  0
 21 22  2  0
  5 23  1  0
 23 24  2  0
 24  2  1  0
 22 17  1  0
  1 25  1  0
  1 26  1  0
  1 27  1  0
  3 28  1  0
  4 29  1  0
  7 30  1  0
  7 31  1  0
  8 32  1  0
  8 33  1  0
  9 34  1  0
 10 35  1  0
 10 36  1  0
 11 37  1  0
 11 38  1  0
 12 39  1  0
 13 40  1  0
 13 41  1  0
 14 42  1  0
 14 43  1  0
 15 44  1  0
 16 45  1  0
 16 46  1  0
 18 47  1  0
 19 48  1  0
 20 49  1  0
 21 50  1  0
 22 51  1  0
 23 52  1  0
 24 53  1  0
M  END
>  <smiles>  (5) 
Cc1ccc(SCCNCCNCCNCc2ccccc2)cc1

>  <score_type>  (5) 
oracle

>  <origin>  (5) 
adg

>  <m_score__min__energy>  (5) 
-7.4100000000000001

>  <m_primary>  (5) 
energy

$$$$
6:0
     RDKit          3D

 44 46  0  0  0  0  0  0  0  0999 V2000
   -6.1410   25.3760  -29.4720 C   0  0  0  0  0  0  0  0  0  0  0  0
   -5.3210   25.6790  -30.7160 C   0  0  0  0  0  0  0  0  0  0  0  0
   -3.9650   25.2630  -30.4560 N   0  0  0  0  0  0  0  0  0  0  0  0
   -3.9180   24.2170  -29.4860 C   0  0  0  0  0  0  0  0  0  0  0  0
   -2.6270   23.4420  -29.5300 C   0  0  0  0  0  0  0  0  0  0  0  0
   -2.5700   22.5520  -30.7510 C   0  0  0  0  0  0  0  0  0  0  0  0
   -3.6500   22.8010  -31.6090 O   0  0  0  0  0  0  0  0  0  0  0  0
   -4.3750   21.7540  -32.1710 C   0  0  0  0  0  0  0  0  0  0  0  0
   -3.7160   20.7500  -32.8870 C   0  0  0  0  0  0  0  0  0  0  0  0
   -4.4360   19.7120  -33.4440 C   0  0  0  0  0  0  0  0  0  0  0  0
   -5.8120   19.6110  -33.3270 C   0  0  0  0  0  0  0  0  0  0  0  0
   -6.4400   20.6110  -32.6190 C   0  0  0  0  0  0  0  0  0  0  0  0
   -7.8090   20.5660  -32.4730 C   0  0  0  0  0  0  0  0  0  0  0  0
   -8.4500   21.5560  -31.7730 C   0  0  0  0  0  0  0  0  0  0  0  0
   -7.7550   22.6030  -31.2070 C   0  0  0  0  0  0  0  0  0  0  0  0
   -6.3700   22.6730  -31.3390 C   0  0  0  0  0  0  0  0  0  0  0  0
   -5.7420   21.6720  -32.0440 C   0  0  0  0  0  0  0  0  0  0  0  0
   -6.4760   18.4680  -33.9490 C   0  0  0  0  0  0  0  0  0  0  0  0
   -5.6230   17.2300  -34.0230 C   0  0  0  0  0  0  0  0  0  0  0  0
   -4.1800   17.4230  -34.2370 C   0  0  0  0  0  0  0  0  0  0  0  0
   -3.7250   18.7480  -34.1400 O   0  0  0  0  0  0  0  0  0  0  0  0
   -5.5428   25.5970  -28.5757 H   0  0  0  0  0  0  0  0  0  0  0  0
   -7.0480   25.9983  -29.4701 H   0  0  0  0  0  0  0  0  0  0  0  0
   -6.4254   24.3134  -29.4701 H   0  0  0  0  0  0  0  0  0  0  0  0
   -5.7251   25.1247  -31.5759 H   0  0  0  0  0  0  0  0  0  0  0  0
   -5.3575   26.7530  -30.9508 H   0  0  0  0  0  0  0  0  0  0  0  0
   -3.5090   24.9410  -31.3360 H   0  0  0  0  0  0  0  0  0  0  0  0
   -4.0289   24.6597  -28.4852 H   0  0  0  0  0  0  0  0  0  0  0  0
   -4.7347   23.5159  -29.7130 H   0  0  0  0  0  0  0  0  0  0  0  0
   -1.7843   24.1484  -29.5602 H   0  0  0  0  0  0  0  0  0  0  0  0
   -2.5677   22.8091  -28.6322 H   0  0  0  0  0  0  0  0  0  0  0  0
   -1.6309   22.7430  -31.2910 H   0  0  0  0  0  0  0  0  0  0  0  0
   -2.6207   21.5038  -30.4214 H   0  0  0  0  0  0  0  0  0  0  0  0
   -2.6232   20.7872  -33.0066 H   0  0  0  0  0  0  0  0  0  0  0  0
   -8.3852   19.7402  -32.9156 H   0  0  0  0  0  0  0  0  0  0  0  0
   -9.5434   21.5134  -31.6608 H   0  0  0  0  0  0  0  0  0  0  0  0
   -8.2943   23.3838  -30.6507 H   0  0  0  0  0  0  0  0  0  0  0  0
   -5.7977   23.5006  -30.8946 H   0  0  0  0  0  0  0  0  0  0  0  0
   -7.3779   18.2322  -33.3651 H   0  0  0  0  0  0  0  0  0  0  0  0
   -6.7057   18.7585  -34.9848 H   0  0  0  0  0  0  0  0  0  0  0  0
   -5.7477   16.6844  -33.0760 H   0  0  0  0  0  0  0  0  0  0  0  0
   -5.9746   16.6947  -34.9173 H   0  0  0  0  0  0  0  0  0  0  0  0
   -3.6433   16.8248  -33.4859 H   0  0  0  0  0  0  0  0  0  0  0  0
   -3.9850   17.1126  -35.2741 H   0  0  0  0  0  0  0  0  0  0  0  0
  1  2  1  0
  2  3  1  0
  3  4  1  0
  4  5  1  0
  5  6  1  0
  6  7  1  0
  7  8  1  0
  8  9  2  0
  9 10  1  0
 10 11  2  0
 11 12  1  0
 12 13  2  0
 13 14  1  0
 14 15  2  0
 15 16  1  0
 16 17  2  0
 11 18  1  0
 18 19  1  0
 19 20  1  0
 20 21  1  0
 17  8  1  0
 21 10  1  0
 17 12  1  0
  1 22  1  0
  1 23  1  0
  1 24  1  0
  2 25  1  0
  2 26  1  0
  3 27  1  0
  4 28  1  0
  4 29  1  0
  5 30  1  0
  5 31  1  0
  6 32  1  0
  6 33  1  0
  9 34  1  0
 13 35  1  0
 14 36  1  0
 15 37  1  0
 16 38  1  0
 18 39  1  0
 18 40  1  0
 19 41  1  0
 19 42  1  0
 20 43  1  0
 20 44  1  0
M  END
>  <smiles>  (6) 
CCNCCCOc1cc2c(c3ccccc13)CCCO2

>  <score_type>  (6) 
oracle

>  <origin>  (6) 
adg

>  <m_score__min__energy>  (6) 
-8.4000000000000004

>  <m_primary>  (6) 
energy

$$$$
7:0
     RDKit          3D

 60 62  0  0  0  0  0  0  0  0999 V2000
   -3.0630   25.2990  -26.2740 C   0  0  0  0  0  0  0  0  0  0  0  0
   -1.7230   25.9700  -26.0680 C   0  0  0  0  0  0  0  0  0  0  0  0
   -1.1370   25.4150  -24.8500 N   0  0  0  0  0  0  0  0  0  0  0  0
   -0.8980   26.4710  -23.8780 C   0  0  0  0  0  0  0  0  0  0  0  0
    0.0930   24.7770  -25.2060 C   0  0  0  0  0  0  0  0  0  0  0  0
   -0.1500   23.2750  -25.2540 C   0  0  0  0  0  0  0  0  0  0  0  0
   -1.2230   23.0060  -26.0890 O   0  0  0  0  0  0  0  0  0  0  0  0
   -1.1030   21.7530  -26.6300 C   0  0  0  0  0  0  0  0  0  0  0  0
   -1.7410   21.6080  -27.9920 C   0  0  0  0  0  0  0  0  0  0  0  0
   -1.0840   22.5830  -28.9030 C   0  0  0  0  0  0  0  0  0  0  0  0
   -1.9160   23.2180  -29.9470 C   0  0  0  0  0  0  0  0  0  0  0  0
   -3.3420   23.1600  -29.7240 N   0  0  0  0  0  0  0  0  0  0  0  0
   -4.2220   24.2440  -30.0100 C   0  0  0  0  0  0  0  0  0  0  0  0
   -3.7270   25.2920  -30.4750 O   0  0  0  0  0  0  0  0  0  0  0  0
   -5.6720   24.0590  -29.7370 C   0  0  0  0  0  0  0  0  0  0  0  0
   -6.3860   24.0720  -31.0730 C   0  0  0  0  0  0  0  0  0  0  0  0
   -6.3050   22.7660  -31.7700 C   0  0  0  0  0  0  0  0  0  0  0  0
   -5.1800   22.2460  -32.3580 C   0  0  0  0  0  0  0  0  0  0  0  0
   -5.5140   21.0650  -32.8750 N   0  0  0  0  0  0  0  0  0  0  0  0
   -6.8120   20.8090  -32.6370 C   0  0  0  0  0  0  0  0  0  0  0  0
   -7.5890   19.7130  -32.9830 C   0  0  0  0  0  0  0  0  0  0  0  0
   -8.9260   19.6910  -32.6140 C   0  0  0  0  0  0  0  0  0  0  0  0
   -9.4350   20.7640  -31.9150 C   0  0  0  0  0  0  0  0  0  0  0  0
   -8.6920   21.8660  -31.5570 C   0  0  0  0  0  0  0  0  0  0  0  0
   -7.3560   21.8810  -31.9280 C   0  0  0  0  0  0  0  0  0  0  0  0
   -3.8530   21.8930  -29.1730 C   0  0  0  0  0  0  0  0  0  0  0  0
   -3.2160   21.8840  -27.7830 C   0  0  0  0  0  0  0  0  0  0  0  0
   -3.5141   25.0731  -25.2965 H   0  0  0  0  0  0  0  0  0  0  0  0
   -3.7268   25.9711  -26.8376 H   0  0  0  0  0  0  0  0  0  0  0  0
   -2.9225   24.3649  -26.8376 H   0  0  0  0  0  0  0  0  0  0  0  0
   -1.0659   25.7682  -26.9267 H   0  0  0  0  0  0  0  0  0  0  0  0
   -1.8449   27.0595  -25.9779 H   0  0  0  0  0  0  0  0  0  0  0  0
   -0.9907   26.0614  -22.8613 H   0  0  0  0  0  0  0  0  0  0  0  0
    0.1147   26.8767  -24.0189 H   0  0  0  0  0  0  0  0  0  0  0  0
   -1.6373   27.2732  -24.0189 H   0  0  0  0  0  0  0  0  0  0  0  0
    0.4256   25.1326  -26.1924 H   0  0  0  0  0  0  0  0  0  0  0  0
    0.8728   25.0135  -24.4671 H   0  0  0  0  0  0  0  0  0  0  0  0
    0.7488   22.7705  -25.6382 H   0  0  0  0  0  0  0  0  0  0  0  0
   -0.3729   22.9076  -24.2414 H   0  0  0  0  0  0  0  0  0  0  0  0
   -0.0326   21.5173  -26.7226 H   0  0  0  0  0  0  0  0  0  0  0  0
   -1.6318   21.0632  -25.9558 H   0  0  0  0  0  0  0  0  0  0  0  0
   -1.6243   20.6132  -28.4468 H   0  0  0  0  0  0  0  0  0  0  0  0
   -0.6698   23.3882  -28.2785 H   0  0  0  0  0  0  0  0  0  0  0  0
   -0.3456   21.9880  -29.4604 H   0  0  0  0  0  0  0  0  0  0  0  0
   -1.6260   24.2769  -30.0144 H   0  0  0  0  0  0  0  0  0  0  0  0
   -1.7304   22.6488  -30.8698 H   0  0  0  0  0  0  0  0  0  0  0  0
   -5.8400   23.0976  -29.2295 H   0  0  0  0  0  0  0  0  0  0  0  0
   -6.0511   24.8593  -29.0845 H   0  0  0  0  0  0  0  0  0  0  0  0
   -7.4450   24.3177  -30.9052 H   0  0  0  0  0  0  0  0  0  0  0  0
   -5.8938   24.8226  -31.7089 H   0  0  0  0  0  0  0  0  0  0  0  0
   -4.1866   22.7170  -32.3955 H   0  0  0  0  0  0  0  0  0  0  0  0
   -4.8390   20.4390  -33.3890 H   0  0  0  0  0  0  0  0  0  0  0  0
   -7.1509   18.8731  -33.5422 H   0  0  0  0  0  0  0  0  0  0  0  0
   -9.5664   18.8352  -32.8738 H   0  0  0  0  0  0  0  0  0  0  0  0
  -10.4962   20.7384  -31.6265 H   0  0  0  0  0  0  0  0  0  0  0  0
   -9.1401   22.7013  -30.9989 H   0  0  0  0  0  0  0  0  0  0  0  0
   -4.9513   21.8959  -29.1114 H   0  0  0  0  0  0  0  0  0  0  0  0
   -3.6108   21.0097  -29.7823 H   0  0  0  0  0  0  0  0  0  0  0  0
   -3.3553   22.8595  -27.2941 H   0  0  0  0  0  0  0  0  0  0  0  0
   -3.6773   21.1224  -27.1371 H   0  0  0  0  0  0  0  0  0  0  0  0
  1  2  1  0
  2  3  1  0
  3  4  1  0
  3  5  1  0
  5  6  1  0
  6  7  1  0
  7  8  1  0
  8  9  1  0
  9 10  1  0
 10 11  1  0
 11 12  1  0
 12 13  1  0
 13 14  2  0
 13 15  1  0
 15 16  1  0
 16 17  1  0
 17 18  2  0
 18 19  1  0
 19 20  1  0
 20 21  2  0
 21 22  1  0
 22 23  2  0
 23 24  1  0
 24 25  2  0
 12 26  1  0
 26 27  1  0
 27  9  1  0
 25 17  1  0
 25 20  1  0
  1 28  1  0
  1 29  1  0
  1 30  1  0
  2 31  1  0
  2 32  1  0
  4 33  1  0
  4 34  1  0
  4 35  1  0
  5 36  1  0
  5 37  1  0
  6 38  1  0
  6 39  1  0
  8 40  1  0
  8 41  1  0
  9 42  1  0
 10 43  1  0
 10 44  1  0
 11 45  1  0
 11 46  1  0
 15 47  1  0
 15 48  1  0
 16 49  1  0
 16 50  1  0
 18 51  1  0
 19 52  1  0
 21 53  1  0
 22 54  1  0
 23 55  1  0
 24 56  1  0
 26 57  1  0
 26 58  1  0
 27 59  1  0
 27 60  1  0
M  END
>  <smiles>  (7) 
CCN(C)CCOCC1CCN(C(=O)CCc2c[nH]c3ccccc23)CC1

>  <score_type>  (7) 
oracle

>  <origin>  (7) 
adg

>  <m_score__min__energy>  (7) 
-8.9499999999999993

>  <m_primary>  (7) 
energy

$$$$
8:0
     RDKit          3D

 41 43  0  0  0  0  0  0  0  0999 V2000
   -1.6960   24.9220  -28.8210 C   0  0  0  0  0  0  0  0  0  0  0  0
   -3.0220   24.4960  -29.3340 C   0  0  0  0  0  0  0  0  0  0  0  0
   -3.8550   23.6560  -28.5860 C   0  0  0  0  0  0  0  0  0  0  0  0
   -4.9860   23.4720  -29.3570 C   0  0  0  0  0  0  0  0  0  0  0  0
   -4.8030   24.1970  -30.5310 C   0  0  0  0  0  0  0  0  0  0  0  0
   -5.8130   24.2490  -31.6220 C   0  0  0  0  0  0  0  0  0  0  0  0
   -6.9650   23.4880  -31.1880 N   0  0  0  0  0  0  0  0  0  0  0  0
   -7.1910   22.1660  -31.6500 C   0  0  0  0  0  0  0  0  0  0  0  0
   -8.3900   21.4410  -31.6430 C   0  0  0  0  0  0  0  0  0  0  0  0
   -9.6990   21.9260  -31.1350 C   0  0  0  0  0  0  0  0  0  0  0  0
   -8.1650   20.2150  -32.1780 N   0  0  0  0  0  0  0  0  0  0  0  0
   -9.1550   19.1820  -32.3410 C   0  0  0  0  0  0  0  0  0  0  0  0
   -6.8900   20.1430  -32.5150 N   0  0  0  0  0  0  0  0  0  0  0  0
   -6.3080   18.9970  -33.1050 C   0  0  0  0  0  0  0  0  0  0  0  0
   -5.9670   18.9380  -34.4540 C   0  0  0  0  0  0  0  0  0  0  0  0
   -5.4010   17.7620  -34.9270 C   0  0  0  0  0  0  0  0  0  0  0  0
   -5.1650   16.6750  -34.1440 C   0  0  0  0  0  0  0  0  0  0  0  0
   -5.5030   16.7310  -32.8000 C   0  0  0  0  0  0  0  0  0  0  0  0
   -6.0730   17.8870  -32.2810 C   0  0  0  0  0  0  0  0  0  0  0  0
   -6.2650   21.3080  -32.2100 C   0  0  0  0  0  0  0  0  0  0  0  0
   -5.0430   21.5180  -32.4240 O   0  0  0  0  0  0  0  0  0  0  0  0
   -3.6320   24.7710  -30.4490 O   0  0  0  0  0  0  0  0  0  0  0  0
   -1.7097   24.9176  -27.7211 H   0  0  0  0  0  0  0  0  0  0  0  0
   -0.9231   24.2270  -29.1809 H   0  0  0  0  0  0  0  0  0  0  0  0
   -1.4725   25.9372  -29.1809 H   0  0  0  0  0  0  0  0  0  0  0  0
   -3.6514   23.2312  -27.5920 H   0  0  0  0  0  0  0  0  0  0  0  0
   -5.8657   22.8666  -29.0930 H   0  0  0  0  0  0  0  0  0  0  0  0
   -6.1035   25.2923  -31.8149 H   0  0  0  0  0  0  0  0  0  0  0  0
   -5.4002   23.8292  -32.5511 H   0  0  0  0  0  0  0  0  0  0  0  0
   -7.6830   23.8840  -30.5100 H   0  0  0  0  0  0  0  0  0  0  0  0
   -9.6895   21.9225  -30.0350 H   0  0  0  0  0  0  0  0  0  0  0  0
   -9.8763   22.9495  -31.4969 H   0  0  0  0  0  0  0  0  0  0  0  0
  -10.5004   21.2651  -31.4969 H   0  0  0  0  0  0  0  0  0  0  0  0
   -9.4883   18.8342  -31.3521 H   0  0  0  0  0  0  0  0  0  0  0  0
  -10.0149   19.5828  -32.8977 H   0  0  0  0  0  0  0  0  0  0  0  0
   -8.7180   18.3399  -32.8977 H   0  0  0  0  0  0  0  0  0  0  0  0
   -6.1403   19.7944  -35.1222 H   0  0  0  0  0  0  0  0  0  0  0  0
   -5.1289   17.7062  -35.9914 H   0  0  0  0  0  0  0  0  0  0  0  0
   -4.7136   15.7667  -34.5697 H   0  0  0  0  0  0  0  0  0  0  0  0
   -5.3206   15.8641  -32.1479 H   0  0  0  0  0  0  0  0  0  0  0  0
   -6.3420   17.9318  -31.2153 H   0  0  0  0  0  0  0  0  0  0  0  0
  1  2  1  0
  2  3  2  0
  3  4  1  0
  4  5  2  0
  5  6  1  0
  6  7  1  0
  7  8  1  0
  8  9  2  0
  9 10  1  0
  9 11  1  0
 11 12  1  0
 11 13  1  0
 13 14  1  0
 14 15  2  0
 15 16  1  0
 16 17  2  0
 17 18  1  0
 18 19  2  0
 13 20  1  0
 20 21  2  0
  5 22  1  0
 22  2  1  0
 20  8  1  0
 19 14  1  0
  1 23  1  0
  1 24  1  0
  1 25  1  0
  3 26  1  0
  4 27  1  0
  6 28  1  0
  6 29  1  0
  7 30  1  0
 10 31  1  0
 10 32  1  0
 10 33  1  0
 12 34  1  0
 12 35  1  0
 12 36  1  0
 15 37  1  0
 16 38  1  0
 17 39  1  0
 18 40  1  0
 19 41  1  0
M  END
>  <smiles>  (8) 
Cc1ccc(CNc2c(C)n(C)n(-c3ccccc3)c2=O)o1

>  <score_type>  (8) 
oracle

>  <origin>  (8) 
adg

>  <m_score__min__energy>  (8) 
-8.4700000000000006

>  <m_primary>  (8) 
energy

$$$$
9:0
     RDKit          3D

 53 55  0  0  0  0  0  0  0  0999 V2000
   -6.4600   25.1630  -29.7620 C   0  0  0  0  0  0  0  0  0  0  0  0
   -5.2140   25.6720  -30.4670 C   0  0  0  0  0  0  0  0  0  0  0  0
   -4.4340   24.6090  -31.0290 N   0  0  0  0  0  0  0  0  0  0  0  0
   -4.3240   23.4860  -30.1650 C   0  0  0  0  0  0  0  0  0  0  0  0
   -3.9760   22.1790  -30.8940 C   0  0  0  0  0  0  0  0  0  0  0  0
   -3.6050   22.5610  -32.2700 C   0  0  0  0  0  0  0  0  0  0  0  0
   -4.4210   22.0760  -33.3490 N   0  0  0  0  0  0  0  0  0  0  0  0
   -5.3570   21.0480  -33.0480 C   0  0  0  0  0  0  0  0  0  0  0  0
   -6.5890   21.4100  -32.5470 C   0  0  0  0  0  0  0  0  0  0  0  0
   -6.8470   22.7530  -32.3160 C   0  0  0  0  0  0  0  0  0  0  0  0
   -8.0530   23.1890  -31.8230 C   0  0  0  0  0  0  0  0  0  0  0  0
   -9.0120   22.2510  -31.5570 C   0  0  0  0  0  0  0  0  0  0  0  0
   -8.7530   20.9120  -31.7860 C   0  0  0  0  0  0  0  0  0  0  0  0
   -7.5550   20.4450  -32.2800 C   0  0  0  0  0  0  0  0  0  0  0  0
   -7.3200   19.1230  -32.5000 N   0  0  0  0  0  0  0  0  0  0  0  0
   -8.3510   18.1440  -32.1890 C   0  0  0  0  0  0  0  0  0  0  0  0
   -6.1040   18.7520  -32.9940 C   0  0  0  0  0  0  0  0  0  0  0  0
   -5.8240   17.4020  -33.2260 C   0  0  0  0  0  0  0  0  0  0  0  0
   -4.6010   16.9810  -33.7130 C   0  0  0  0  0  0  0  0  0  0  0  0
   -3.6530   17.9390  -33.9670 C   0  0  0  0  0  0  0  0  0  0  0  0
   -3.8930   19.3060  -33.7480 C   0  0  0  0  0  0  0  0  0  0  0  0
   -2.7910   20.1510  -33.9950 N   0  0  0  0  0  0  0  0  0  0  0  0
   -1.6990   20.0450  -33.0480 C   0  0  0  0  0  0  0  0  0  0  0  0
   -0.4810   20.8820  -33.2000 C   0  0  0  0  0  0  0  0  0  0  0  0
   -1.7790   19.2300  -32.0770 O   0  0  0  0  0  0  0  0  0  0  0  0
   -5.1170   19.7090  -33.2680 C   0  0  0  0  0  0  0  0  0  0  0  0
   -6.3152   25.2221  -28.6732 H   0  0  0  0  0  0  0  0  0  0  0  0
   -7.3231   25.7806  -30.0512 H   0  0  0  0  0  0  0  0  0  0  0  0
   -6.6438   24.1177  -30.0512 H   0  0  0  0  0  0  0  0  0  0  0  0
   -5.5184   26.3530  -31.2755 H   0  0  0  0  0  0  0  0  0  0  0  0
   -4.5919   26.1873  -29.7204 H   0  0  0  0  0  0  0  0  0  0  0  0
   -3.4840   24.9690  -31.2600 H   0  0  0  0  0  0  0  0  0  0  0  0
   -3.5358   23.6921  -29.4259 H   0  0  0  0  0  0  0  0  0  0  0  0
   -5.3093   23.3415  -29.6978 H   0  0  0  0  0  0  0  0  0  0  0  0
   -3.1323   21.6781  -30.3968 H   0  0  0  0  0  0  0  0  0  0  0  0
   -4.8241   21.4785  -30.8875 H   0  0  0  0  0  0  0  0  0  0  0  0
   -3.6177   23.6598  -32.3189 H   0  0  0  0  0  0  0  0  0  0  0  0
   -2.6259   22.0866  -32.4319 H   0  0  0  0  0  0  0  0  0  0  0  0
   -4.2780   22.4790  -34.2980 H   0  0  0  0  0  0  0  0  0  0  0  0
   -6.0618   23.4919  -32.5342 H   0  0  0  0  0  0  0  0  0  0  0  0
   -8.2412   24.2585  -31.6478 H   0  0  0  0  0  0  0  0  0  0  0  0
   -9.9899   22.5618  -31.1607 H   0  0  0  0  0  0  0  0  0  0  0  0
   -9.5448   20.1820  -31.5620 H   0  0  0  0  0  0  0  0  0  0  0  0
   -8.4500   18.0500  -31.0975 H   0  0  0  0  0  0  0  0  0  0  0  0
   -9.3096   18.4723  -32.6172 H   0  0  0  0  0  0  0  0  0  0  0  0
   -8.0727   17.1698  -32.6172 H   0  0  0  0  0  0  0  0  0  0  0  0
   -6.6006   16.6522  -33.0145 H   0  0  0  0  0  0  0  0  0  0  0  0
   -4.3952   15.9151  -33.8906 H   0  0  0  0  0  0  0  0  0  0  0  0
   -2.6722   17.6268  -34.3550 H   0  0  0  0  0  0  0  0  0  0  0  0
   -2.6490   20.8200  -34.7560 H   0  0  0  0  0  0  0  0  0  0  0  0
   -0.0929   21.1487  -32.2059 H   0  0  0  0  0  0  0  0  0  0  0  0
    0.2846   20.3183  -33.7533 H   0  0  0  0  0  0  0  0  0  0  0  0
   -0.7328   21.7987  -33.7533 H   0  0  0  0  0  0  0  0  0  0  0  0
  1  2  1  0
  2  3  1  0
  3  4  1  0
  4  5  1  0
  5  6  1  0
  6  7  1  0
  7  8  1  0
  8  9  2  0
  9 10  1  0
 10 11  2  0
 11 12  1  0
 12 13  2  0
 13 14  1  0
 14 15  2  0
 15 16  1  0
 15 17  1  0
 17 18  2  0
 18 19  1  0
 19 20  2  0
 20 21  1  0
 21 22  1  0
 22 23  1  0
 23 24  1  0
 23 25  2  0
 21 26  2  0
 26  8  1  0
 14  9  1  0
 26 17  1  0
  1 27  1  0
  1 28  1  0
  1 29  1  0
  2 30  1  0
  2 31  1  0
  3 32  1  0
  4 33  1  0
  4 34  1  0
  5 35  1  0
  5 36  1  0
  6 37  1  0
  6 38  1  0
  7 39  1  0
 10 40  1  0
 11 41  1  0
 12 42  1  0
 13 43  1  0
 16 44  1  0
 16 45  1  0
 16 46  1  0
 18 47  1  0
 19 48  1  0
 20 49  1  0
 22 50  1  0
 24 51  1  0
 24 52  1  0
 24 53  1  0
M  CHG  1  15   1
M  END
>  <smiles>  (9) 
CCNCCCNc1c2ccccc2[n+](C)c2cccc(NC(C)=O)c12

>  <score_type>  (9) 
oracle

>  <origin>  (9) 
adg

>  <m_score__min__energy>  (9) 
-9.6300000000000008

>  <m_primary>  (9) 
energy

$$$$
10:0
     RDKit          3D

 43 44  0  0  0  0  0  0  0  0999 V2000
   -8.9040   21.9890  -31.5540 C   0  0  0  0  0  0  0  0  0  0  0  0
   -7.6450   21.2950  -31.9240 C   0  0  0  0  0  0  0  0  0  0  0  0
   -7.7870   19.9840  -32.3600 C   0  0  0  0  0  0  0  0  0  0  0  0
   -6.6730   19.2740  -32.6830 C   0  0  0  0  0  0  0  0  0  0  0  0
   -6.8440   17.4790  -33.2820 Br  0  0  0  0  0  0  0  0  0  0  0  0
   -5.4140   19.8060  -32.5920 C   0  0  0  0  0  0  0  0  0  0  0  0
   -5.2840   21.0900  -32.1650 C   0  0  0  0  0  0  0  0  0  0  0  0
   -3.5190   21.8210  -32.0430 Br  0  0  0  0  0  0  0  0  0  0  0  0
   -6.3930   21.9000  -31.8100 C   0  0  0  0  0  0  0  0  0  0  0  0
   -6.1610   23.1110  -31.4190 O   0  0  0  0  0  0  0  0  0  0  0  0
   -5.9310   24.3120  -31.0300 C   0  0  0  0  0  0  0  0  0  0  0  0
   -4.8770   24.6820  -30.0200 C   0  0  0  0  0  0  0  0  0  0  0  0
   -3.9100   25.3010  -30.5350 O   0  0  0  0  0  0  0  0  0  0  0  0
   -4.9790   24.3680  -28.6700 N   0  0  0  0  0  0  0  0  0  0  0  0
   -4.2250   24.5320  -27.5020 C   0  0  0  0  0  0  0  0  0  0  0  0
   -2.9050   23.9770  -27.2530 C   0  0  0  0  0  0  0  0  0  0  0  0
   -2.5480   22.5840  -27.5150 C   0  0  0  0  0  0  0  0  0  0  0  0
   -3.1140   21.7360  -28.3430 C   0  0  0  0  0  0  0  0  0  0  0  0
   -2.6760   20.3390  -28.5470 C   0  0  0  0  0  0  0  0  0  0  0  0
   -2.2970   19.7240  -27.2290 C   0  0  0  0  0  0  0  0  0  0  0  0
   -1.5620   20.6320  -26.3100 C   0  0  0  0  0  0  0  0  0  0  0  0
   -1.3790   22.0310  -26.7400 C   0  0  0  0  0  0  0  0  0  0  0  0
   -8.9886   22.0356  -30.4583 H   0  0  0  0  0  0  0  0  0  0  0  0
   -8.8946   23.0094  -31.9648 H   0  0  0  0  0  0  0  0  0  0  0  0
   -9.7617   21.4363  -31.9648 H   0  0  0  0  0  0  0  0  0  0  0  0
   -8.7843   19.5274  -32.4427 H   0  0  0  0  0  0  0  0  0  0  0  0
   -4.5295   19.2086  -32.8580 H   0  0  0  0  0  0  0  0  0  0  0  0
   -5.6839   24.8782  -31.9401 H   0  0  0  0  0  0  0  0  0  0  0  0
   -6.8489   24.5282  -30.4637 H   0  0  0  0  0  0  0  0  0  0  0  0
   -5.9600   23.8630  -28.4710 H   0  0  0  0  0  0  0  0  0  0  0  0
   -4.1075   25.6194  -27.3848 H   0  0  0  0  0  0  0  0  0  0  0  0
   -4.8198   23.9208  -26.8072 H   0  0  0  0  0  0  0  0  0  0  0  0
   -2.2078   24.5824  -27.8508 H   0  0  0  0  0  0  0  0  0  0  0  0
   -2.8679   24.0025  -26.1539 H   0  0  0  0  0  0  0  0  0  0  0  0
   -3.9761   22.0910  -28.9267 H   0  0  0  0  0  0  0  0  0  0  0  0
   -3.4971   19.7613  -28.9964 H   0  0  0  0  0  0  0  0  0  0  0  0
   -1.8032   20.3272  -29.2164 H   0  0  0  0  0  0  0  0  0  0  0  0
   -3.2188   19.3985  -26.7248 H   0  0  0  0  0  0  0  0  0  0  0  0
   -1.6135   18.8931  -27.4582 H   0  0  0  0  0  0  0  0  0  0  0  0
   -2.1091   20.6491  -25.3558 H   0  0  0  0  0  0  0  0  0  0  0  0
   -0.5442   20.2178  -26.2603 H   0  0  0  0  0  0  0  0  0  0  0  0
   -1.2301   22.6529  -25.8450 H   0  0  0  0  0  0  0  0  0  0  0  0
   -0.5091   22.0496  -27.4130 H   0  0  0  0  0  0  0  0  0  0  0  0
  1  2  1  0
  2  3  2  0
  3  4  1  0
  4  5  1  0
  4  6  2  0
  6  7  1  0
  7  8  1  0
  7  9  2  0
  9 10  1  0
 10 11  1  0
 11 12  1  0
 12 13  2  0
 12 14  1  0
 14 15  1  0
 15 16  1  0
 16 17  1  0
 17 18  2  0
 18 19  1  0
 19 20  1  0
 20 21  1  0
 21 22  1  0
  9  2  1  0
 22 17  1  0
  1 23  1  0
  1 24  1  0
  1 25  1  0
  3 26  1  0
  6 27  1  0
 11 28  1  0
 11 29  1  0
 14 30  1  0
 15 31  1  0
 15 32  1  0
 16 33  1  0
 16 34  1  0
 18 35  1  0
 19 36  1  0
 19 37  1  0
 20 38  1  0
 20 39  1  0
 21 40  1  0
 21 41  1  0
 22 42  1  0
 22 43  1  0
M  END
>  <smiles>  (10) 
Cc1cc(Br)cc(Br)c1OCC(=O)NCCC1=CCCCC1

>  <score_type>  (10) 
oracle

>  <origin>  (10) 
adg

>  <m_score__min__energy>  (10) 
-9.0399999999999991

>  <m_primary>  (10) 
energy

$$$$
11:0
     RDKit          3D

 58 61  0  0  0  0  0  0  0  0999 V2000
   -0.9420   26.3180  -24.2110 C   0  0  0  0  0  0  0  0  0  0  0  0
   -1.2440   25.0440  -24.9420 C   0  0  0  0  0  0  0  0  0  0  0  0
   -1.8310   25.3610  -26.2290 N   0  0  0  0  0  0  0  0  0  0  0  0
   -3.2760   25.2900  -26.3370 C   0  0  0  0  0  0  0  0  0  0  0  0
   -3.7140   24.1560  -27.2070 C   0  0  0  0  0  0  0  0  0  0  0  0
   -1.0620   25.7310  -27.3680 C   0  0  0  0  0  0  0  0  0  0  0  0
   -1.6300   25.9950  -28.4650 O   0  0  0  0  0  0  0  0  0  0  0  0
    0.4360   25.7940  -27.2230 C   0  0  0  0  0  0  0  0  0  0  0  0
    0.9480   24.3730  -27.2080 C   0  0  0  0  0  0  0  0  0  0  0  0
    0.0870   23.4180  -27.9970 C   0  0  0  0  0  0  0  0  0  0  0  0
   -0.2680   23.8930  -29.2700 O   0  0  0  0  0  0  0  0  0  0  0  0
   -1.0620   23.0560  -30.0660 C   0  0  0  0  0  0  0  0  0  0  0  0
   -0.5420   21.9350  -30.6820 C   0  0  0  0  0  0  0  0  0  0  0  0
   -1.2960   21.0930  -31.4710 C   0  0  0  0  0  0  0  0  0  0  0  0
   -2.6240   21.3710  -31.6600 C   0  0  0  0  0  0  0  0  0  0  0  0
   -3.3550   20.5080  -32.4560 C   0  0  0  0  0  0  0  0  0  0  0  0
   -4.6970   20.7690  -32.6630 C   0  0  0  0  0  0  0  0  0  0  0  0
   -5.2740   21.8760  -32.0730 C   0  0  0  0  0  0  0  0  0  0  0  0
   -4.5280   22.7330  -31.2760 C   0  0  0  0  0  0  0  0  0  0  0  0
   -3.1780   22.4860  -31.0600 C   0  0  0  0  0  0  0  0  0  0  0  0
   -2.4050   23.3320  -30.2630 C   0  0  0  0  0  0  0  0  0  0  0  0
   -6.7260   22.1020  -32.3340 C   0  0  0  0  0  0  0  0  0  0  0  0
   -7.3700   20.7580  -32.1940 C   0  0  0  0  0  0  0  0  0  0  0  0
   -8.5430   20.5660  -31.4990 C   0  0  0  0  0  0  0  0  0  0  0  0
   -9.1010   19.2990  -31.3970 C   0  0  0  0  0  0  0  0  0  0  0  0
   -8.4840   18.2100  -31.9950 C   0  0  0  0  0  0  0  0  0  0  0  0
   -7.3100   18.4460  -32.6800 C   0  0  0  0  0  0  0  0  0  0  0  0
   -6.7220   17.4650  -33.2390 O   0  0  0  0  0  0  0  0  0  0  0  0
   -6.7780   19.6940  -32.7700 N   0  0  0  0  0  0  0  0  0  0  0  0
   -5.5370   19.8810  -33.5080 C   0  0  0  0  0  0  0  0  0  0  0  0
   -0.9848   26.1376  -23.1267 H   0  0  0  0  0  0  0  0  0  0  0  0
    0.0641   26.6683  -24.4850 H   0  0  0  0  0  0  0  0  0  0  0  0
   -1.6838   27.0826  -24.4850 H   0  0  0  0  0  0  0  0  0  0  0  0
   -0.3138   24.4762  -25.0916 H   0  0  0  0  0  0  0  0  0  0  0  0
   -1.9486   24.4381  -24.3534 H   0  0  0  0  0  0  0  0  0  0  0  0
   -3.7016   25.1524  -25.3320 H   0  0  0  0  0  0  0  0  0  0  0  0
   -3.6306   26.2264  -26.7925 H   0  0  0  0  0  0  0  0  0  0  0  0
   -4.0389   23.3148  -26.5770 H   0  0  0  0  0  0  0  0  0  0  0  0
   -4.5505   24.4830  -27.8421 H   0  0  0  0  0  0  0  0  0  0  0  0
   -2.8749   23.8358  -27.8421 H   0  0  0  0  0  0  0  0  0  0  0  0
    0.8731   26.3423  -28.0705 H   0  0  0  0  0  0  0  0  0  0  0  0
    0.7151   26.3174  -26.2966 H   0  0  0  0  0  0  0  0  0  0  0  0
    1.9616   24.3630  -27.6352 H   0  0  0  0  0  0  0  0  0  0  0  0
    0.9346   24.0339  -26.1617 H   0  0  0  0  0  0  0  0  0  0  0  0
    0.6392   22.4747  -28.1206 H   0  0  0  0  0  0  0  0  0  0  0  0
   -0.8477   23.2883  -27.4318 H   0  0  0  0  0  0  0  0  0  0  0  0
    0.5234   21.7031  -30.5363 H   0  0  0  0  0  0  0  0  0  0  0  0
   -0.8380   20.2107  -31.9420 H   0  0  0  0  0  0  0  0  0  0  0  0
   -2.8776   19.6302  -32.9159 H   0  0  0  0  0  0  0  0  0  0  0  0
   -5.0065   23.6094  -30.8145 H   0  0  0  0  0  0  0  0  0  0  0  0
   -2.8612   24.2155  -29.7926 H   0  0  0  0  0  0  0  0  0  0  0  0
   -7.1436   22.8070  -31.6001 H   0  0  0  0  0  0  0  0  0  0  0  0
   -6.8995   22.5366  -33.3295 H   0  0  0  0  0  0  0  0  0  0  0  0
   -9.0414   21.4224  -31.0213 H   0  0  0  0  0  0  0  0  0  0  0  0
  -10.0381   19.1577  -30.8386 H   0  0  0  0  0  0  0  0  0  0  0  0
   -8.9133   17.1996  -31.9258 H   0  0  0  0  0  0  0  0  0  0  0  0
   -5.0353   18.9149  -33.6660 H   0  0  0  0  0  0  0  0  0  0  0  0
   -5.7171   20.3172  -34.5016 H   0  0  0  0  0  0  0  0  0  0  0  0
  1  2  1  0
  2  3  1  0
  3  4  1  0
  4  5  1  0
  3  6  1  0
  6  7  2  0
  6  8  1  0
  8  9  1  0
  9 10  1  0
 10 11  1  0
 11 12  1  0
 12 13  2  0
 13 14  1  0
 14 15  2  0
 15 16  1  0
 16 17  2  0
 17 18  1  0
 18 19  2  0
 19 20  1  0
 20 21  2  0
 18 22  1  0
 22 23  1  0
 23 24  2  0
 24 25  1  0
 25 26  2  0
 26 27  1  0
 27 28  2  0
 27 29  1  0
 29 30  1  0
 21 12  1  0
 29 23  1  0
 20 15  1  0
 30 17  1  0
  1 31  1  0
  1 32  1  0
  1 33  1  0
  2 34  1  0
  2 35  1  0
  4 36  1  0
  4 37  1  0
  5 38  1  0
  5 39  1  0
  5 40  1  0
  8 41  1  0
  8 42  1  0
  9 43  1  0
  9 44  1  0
 10 45  1  0
 10 46  1  0
 13 47  1  0
 14 48  1  0
 16 49  1  0
 19 50  1  0
 21 51  1  0
 22 52  1  0
 22 53  1  0
 24 54  1  0
 25 55  1  0
 26 56  1  0
 30 57  1  0
 30 58  1  0
M  END
>  <smiles>  (11) 
CCN(CC)C(=O)CCCOc1ccc2cc3c(cc2c1)Cc1cccc(=O)n1C3

>  <score_type>  (11) 
oracle

>  <origin>  (11) 
adg

>  <m_score__min__energy>  (11) 
-9.4100000000000001

>  <m_primary>  (11) 
energy

$$$$
12:0
     RDKit          3D

 55 55  0  0  1  0  0  0  0  0999 V2000
   -0.7760   26.3320  -23.8020 C   0  0  0  0  0  0  0  0  0  0  0  0
   -0.7910   25.0160  -24.5240 C   0  0  0  0  0  0  0  0  0  0  0  0
   -1.4560   25.0390  -25.7840 N   0  0  0  0  0  0  0  0  0  0  0  0
   -2.6780   25.7970  -25.7950 C   0  0  0  0  0  0  0  0  0  0  0  0
   -3.7710   24.9170  -26.3580 C   0  0  0  0  0  0  0  0  0  0  0  0
   -0.6170   25.2760  -26.9150 C   0  0  0  0  0  0  0  0  0  0  0  0
   -1.1650   26.3120  -27.8670 C   0  0  0  0  0  0  0  0  0  0  0  0
   -1.6850   25.5960  -28.9710 O   0  0  0  0  0  0  0  0  0  0  0  0
   -1.2410   24.2760  -28.9400 C   0  0  0  0  0  0  0  0  0  0  0  0
   -2.2070   23.3660  -29.6210 C   0  0  0  0  0  0  0  0  0  0  0  0
   -3.6150   23.9200  -29.5790 C   0  0  0  0  0  0  0  0  0  0  0  0
   -3.8540   24.9820  -30.5050 N   0  0  0  0  0  0  0  0  0  0  0  0
   -5.1620   25.5620  -30.4080 C   0  0  0  0  0  0  0  0  0  0  0  0
   -6.1940   24.5490  -30.5990 C   0  0  0  0  0  0  0  0  0  0  0  0
   -6.5280   23.9440  -31.7010 C   0  0  0  0  0  0  0  0  0  0  0  0
   -7.2390   22.7080  -31.8670 C   0  0  0  0  0  0  0  0  0  0  0  0
   -8.5430   22.4420  -31.5750 C   0  0  0  0  0  0  0  0  0  0  0  0
   -9.1230   21.1760  -31.6700 C   0  0  0  0  0  0  0  0  0  0  0  0
   -8.3700   20.1080  -32.0770 C   0  0  0  0  0  0  0  0  0  0  0  0
   -7.0450   20.3650  -32.3780 C   0  0  0  0  0  0  0  0  0  0  0  0
   -6.4730   21.6080  -32.2860 C   0  0  0  0  0  0  0  0  0  0  0  0
   -5.1380   21.7610  -32.6110 O   0  0  0  0  0  0  0  0  0  0  0  0
   -4.3350   20.6500  -32.9380 C   0  0  0  0  0  0  0  0  0  0  0  0
   -0.7780   26.1547  -22.7164 H   0  0  0  0  0  0  0  0  0  0  0  0
    0.1286   26.8926  -24.0803 H   0  0  0  0  0  0  0  0  0  0  0  0
   -1.6676   26.9131  -24.0803 H   0  0  0  0  0  0  0  0  0  0  0  0
    0.2506   24.7044  -24.6913 H   0  0  0  0  0  0  0  0  0  0  0  0
   -1.3531   24.3171  -23.8872 H   0  0  0  0  0  0  0  0  0  0  0  0
   -2.9362   26.1030  -24.7705 H   0  0  0  0  0  0  0  0  0  0  0  0
   -2.5607   26.7006  -26.4112 H   0  0  0  0  0  0  0  0  0  0  0  0
   -4.3369   24.4614  -25.5320 H   0  0  0  0  0  0  0  0  0  0  0  0
   -4.4489   25.5243  -26.9758 H   0  0  0  0  0  0  0  0  0  0  0  0
   -3.3224   24.1251  -26.9758 H   0  0  0  0  0  0  0  0  0  0  0  0
    0.3640   25.6191  -26.5546 H   0  0  0  0  0  0  0  0  0  0  0  0
   -0.5503   24.3295  -27.4714 H   0  0  0  0  0  0  0  0  0  0  0  0
   -1.9615   26.8940  -27.3803 H   0  0  0  0  0  0  0  0  0  0  0  0
   -0.3851   27.0217  -28.1802 H   0  0  0  0  0  0  0  0  0  0  0  0
   -0.2681   24.2126  -29.4494 H   0  0  0  0  0  0  0  0  0  0  0  0
   -1.1496   23.9637  -27.8892 H   0  0  0  0  0  0  0  0  0  0  0  0
   -1.9026   23.2426  -30.6708 H   0  0  0  0  0  0  0  0  0  0  0  0
   -2.2004   22.3998  -29.0952 H   0  0  0  0  0  0  0  0  0  0  0  0
   -4.3147   23.1017  -29.8044 H   0  0  0  0  0  0  0  0  0  0  0  0
   -3.7601   24.3393  -28.5725 H   0  0  0  0  0  0  0  0  0  0  0  0
   -3.1070   25.6740  -30.6240 H   0  0  0  0  0  0  0  0  0  0  0  0
   -5.2822   26.0160  -29.4133 H   0  0  0  0  0  0  0  0  0  0  0  0
   -5.2680   26.3253  -31.1930 H   0  0  0  0  0  0  0  0  0  0  0  0
   -6.7595   24.2612  -29.7004 H   0  0  0  0  0  0  0  0  0  0  0  0
   -6.2248   24.4473  -32.6310 H   0  0  0  0  0  0  0  0  0  0  0  0
   -9.1781   23.2768  -31.2438 H   0  0  0  0  0  0  0  0  0  0  0  0
  -10.1846   21.0367  -31.4179 H   0  0  0  0  0  0  0  0  0  0  0  0
   -8.7967   19.0976  -32.1604 H   0  0  0  0  0  0  0  0  0  0  0  0
   -6.4152   19.5263  -32.7095 H   0  0  0  0  0  0  0  0  0  0  0  0
   -3.9851   20.1659  -32.0143 H   0  0  0  0  0  0  0  0  0  0  0  0
   -4.9245   19.9323  -33.5275 H   0  0  0  0  0  0  0  0  0  0  0  0
   -3.4686   20.9846  -33.5275 H   0  0  0  0  0  0  0  0  0  0  0  0
  1  2  1  0
  2  3  1  0
  3  4  1  0
  4  5  1  0
  3  6  1  0
  6  7  1  0
  7  8  1  0
  8  9  1  0
  9 10  1  0
 10 11  1  0
 11 12  1  0
 12 13  1  0
 13 14  1  0
 14 15  2  0
 15 16  1  0
 16 17  2  0
 17 18  1  0
 18 19  2  0
 19 20  1  0
 20 21  2  0
 21 22  1  0
 22 23  1  0
 21 16  1  0
  1 24  1  0
  1 25  1  0
  1 26  1  0
  2 27  1  0
  2 28  1  0
  4 29  1  0
  4 30  1  0
  5 31  1  0
  5 32  1  0
  5 33  1  0
  6 34  1  0
  6 35  1  0
  7 36  1  0
  7 37  1  0
  9 38  1  0
  9 39  1  0
 10 40  1  0
 10 41  1  0
 11 42  1  0
 11 43  1  0
 12 44  1  0
 13 45  1  0
 13 46  1  0
 14 47  1  0
 15 48  1  0
 17 49  1  0
 18 50  1  0
 19 51  1  0
 20 52  1  0
 23 53  1  0
 23 54  1  0
 23 55  1  0
M  END
>  <smiles>  (12) 
CCN(CC)CCOCCCNCC=Cc1ccccc1OC

>  <score_type>  (12) 
oracle

>  <origin>  (12) 
adg

>  <m_score__min__energy>  (12) 
-7.7199999999999998

>  <m_primary>  (12) 
energy

$$$$
13:0
     RDKit          3D

 55 57  0  0  0  0  0  0  0  0999 V2000
   -2.0250   20.7690  -33.8140 C   0  0  0  0  0  0  0  0  0  0  0  0
   -2.3840   21.5220  -32.7820 C   0  0  0  0  0  0  0  0  0  0  0  0
   -3.7460   21.5310  -32.1940 C   0  0  0  0  0  0  0  0  0  0  0  0
   -4.7660   21.4620  -33.2680 N   0  0  0  0  0  0  0  0  0  0  0  0
   -5.9470   20.7680  -32.9160 C   0  0  0  0  0  0  0  0  0  0  0  0
   -5.8580   19.3710  -33.0560 C   0  0  0  0  0  0  0  0  0  0  0  0
   -4.6760   18.8170  -33.5310 C   0  0  0  0  0  0  0  0  0  0  0  0
   -4.4880   17.4590  -33.6940 C   0  0  0  0  0  0  0  0  0  0  0  0
   -5.5370   16.6390  -33.3630 C   0  0  0  0  0  0  0  0  0  0  0  0
   -6.7340   17.1840  -32.8840 C   0  0  0  0  0  0  0  0  0  0  0  0
   -6.9110   18.5440  -32.7260 C   0  0  0  0  0  0  0  0  0  0  0  0
   -8.0510   19.0910  -32.2600 N   0  0  0  0  0  0  0  0  0  0  0  0
   -9.1330   18.1760  -31.9590 C   0  0  0  0  0  0  0  0  0  0  0  0
   -8.1620   20.4330  -32.1160 C   0  0  0  0  0  0  0  0  0  0  0  0
   -9.3500   20.9250  -31.6220 C   0  0  0  0  0  0  0  0  0  0  0  0
   -9.4690   22.2830  -31.4650 C   0  0  0  0  0  0  0  0  0  0  0  0
   -8.4270   23.1210  -31.7960 C   0  0  0  0  0  0  0  0  0  0  0  0
   -7.2140   22.6630  -32.2970 C   0  0  0  0  0  0  0  0  0  0  0  0
   -6.2330   23.6130  -32.6390 N   0  0  0  0  0  0  0  0  0  0  0  0
   -5.6110   24.4220  -31.5640 C   0  0  0  0  0  0  0  0  0  0  0  0
   -5.7190   23.7500  -30.2410 C   0  0  0  0  0  0  0  0  0  0  0  0
   -4.9860   24.4830  -29.1480 C   0  0  0  0  0  0  0  0  0  0  0  0
   -3.7580   23.8670  -28.7610 N   0  0  0  0  0  0  0  0  0  0  0  0
   -2.7710   23.7490  -29.7860 C   0  0  0  0  0  0  0  0  0  0  0  0
   -3.8680   22.7270  -27.9070 C   0  0  0  0  0  0  0  0  0  0  0  0
   -7.1050   21.2990  -32.4450 C   0  0  0  0  0  0  0  0  0  0  0  0
   -0.9947   20.8154  -34.1967 H   0  0  0  0  0  0  0  0  0  0  0  0
   -2.7577   20.0984  -34.2868 H   0  0  0  0  0  0  0  0  0  0  0  0
   -1.6246   22.1803  -32.3348 H   0  0  0  0  0  0  0  0  0  0  0  0
   -3.8602   20.6632  -31.5277 H   0  0  0  0  0  0  0  0  0  0  0  0
   -3.8858   22.4617  -31.6245 H   0  0  0  0  0  0  0  0  0  0  0  0
   -4.5830   21.8730  -34.2170 H   0  0  0  0  0  0  0  0  0  0  0  0
   -3.8486   19.4940  -33.7902 H   0  0  0  0  0  0  0  0  0  0  0  0
   -3.5387   17.0522  -34.0727 H   0  0  0  0  0  0  0  0  0  0  0  0
   -5.4370   15.5492  -33.4745 H   0  0  0  0  0  0  0  0  0  0  0  0
   -7.5609   16.5064  -32.6249 H   0  0  0  0  0  0  0  0  0  0  0  0
   -9.2423   18.0836  -30.8684 H   0  0  0  0  0  0  0  0  0  0  0  0
  -10.0691   18.5606  -32.3900 H   0  0  0  0  0  0  0  0  0  0  0  0
   -8.9092   17.1890  -32.3900 H   0  0  0  0  0  0  0  0  0  0  0  0
  -10.1782   20.2497  -31.3613 H   0  0  0  0  0  0  0  0  0  0  0  0
  -10.4049   22.7062  -31.0713 H   0  0  0  0  0  0  0  0  0  0  0  0
   -8.5612   24.2039  -31.6573 H   0  0  0  0  0  0  0  0  0  0  0  0
   -5.8670   23.8810  -33.5520 H   0  0  0  0  0  0  0  0  0  0  0  0
   -4.5478   24.5741  -31.8014 H   0  0  0  0  0  0  0  0  0  0  0  0
   -6.1419   25.3836  -31.5059 H   0  0  0  0  0  0  0  0  0  0  0  0
   -6.7823   23.6839  -29.9670 H   0  0  0  0  0  0  0  0  0  0  0  0
   -5.2579   22.7560  -30.3377 H   0  0  0  0  0  0  0  0  0  0  0  0
   -4.7664   25.5014  -29.5010 H   0  0  0  0  0  0  0  0  0  0  0  0
   -5.6401   24.4743  -28.2636 H   0  0  0  0  0  0  0  0  0  0  0  0
   -1.7783   23.6303  -29.3272 H   0  0  0  0  0  0  0  0  0  0  0  0
   -2.9938   22.8711  -30.4102 H   0  0  0  0  0  0  0  0  0  0  0  0
   -2.7805   24.6547  -30.4102 H   0  0  0  0  0  0  0  0  0  0  0  0
   -3.8367   23.0515  -26.8564 H   0  0  0  0  0  0  0  0  0  0  0  0
   -4.8200   22.2121  -28.1035 H   0  0  0  0  0  0  0  0  0  0  0  0
   -3.0320   22.0396  -28.1035 H   0  0  0  0  0  0  0  0  0  0  0  0
  1  2  2  0
  2  3  1  0
  3  4  1  0
  4  5  1  0
  5  6  2  0
  6  7  1  0
  7  8  2  0
  8  9  1  0
  9 10  2  0
 10 11  1  0
 11 12  2  0
 12 13  1  0
 12 14  1  0
 14 15  2  0
 15 16  1  0
 16 17  2  0
 17 18  1  0
 18 19  1  0
 19 20  1  0
 20 21  1  0
 21 22  1  0
 22 23  1  0
 23 24  1  0
 23 25  1  0
 18 26  2  0
 26  5  1  0
 11  6  1  0
 26 14  1  0
  1 27  1  0
  1 28  1  0
  2 29  1  0
  3 30  1  0
  3 31  1  0
  4 32  1  0
  7 33  1  0
  8 34  1  0
  9 35  1  0
 10 36  1  0
 13 37  1  0
 13 38  1  0
 13 39  1  0
 15 40  1  0
 16 41  1  0
 17 42  1  0
 19 43  1  0
 20 44  1  0
 20 45  1  0
 21 46  1  0
 21 47  1  0
 22 48  1  0
 22 49  1  0
 24 50  1  0
 24 51  1  0
 24 52  1  0
 25 53  1  0
 25 54  1  0
 25 55  1  0
M  CHG  1  12   1
M  END
>  <smiles>  (13) 
C=CCNc1c2ccccc2[n+](C)c2cccc(NCCCN(C)C)c12

>  <score_type>  (13) 
oracle

>  <origin>  (13) 
adg

>  <m_score__min__energy>  (13) 
-8.5099999999999998

>  <m_primary>  (13) 
energy

$$$$
14:0
     RDKit          3D

 39 41  0  0  0  0  0  0  0  0999 V2000
   -1.3580   20.0750  -32.9810 C   0  0  0  0  0  0  0  0  0  0  0  0
   -2.3330   20.1480  -34.1250 C   0  0  0  0  0  0  0  0  0  0  0  0
   -3.5480   19.4520  -33.7740 N   0  0  0  0  0  0  0  0  0  0  0  0
   -3.6960   18.0950  -34.2100 C   0  0  0  0  0  0  0  0  0  0  0  0
   -4.8650   17.7860  -35.0910 C   0  0  0  0  0  0  0  0  0  0  0  0
   -4.5630   20.1340  -33.0240 C   0  0  0  0  0  0  0  0  0  0  0  0
   -5.8250   19.6110  -32.8500 C   0  0  0  0  0  0  0  0  0  0  0  0
   -6.8140   20.2770  -32.1170 C   0  0  0  0  0  0  0  0  0  0  0  0
   -6.5700   21.4910  -31.5350 C   0  0  0  0  0  0  0  0  0  0  0  0
   -5.3120   22.0270  -31.6990 C   0  0  0  0  0  0  0  0  0  0  0  0
   -4.3270   21.3700  -32.4240 C   0  0  0  0  0  0  0  0  0  0  0  0
   -4.8540   23.3020  -31.1600 C   0  0  0  0  0  0  0  0  0  0  0  0
   -3.5550   23.6460  -31.0180 N   0  0  0  0  0  0  0  0  0  0  0  0
   -3.5640   24.8850  -30.4940 N   0  0  0  0  0  0  0  0  0  0  0  0
   -4.8110   25.3000  -30.3170 N   0  0  0  0  0  0  0  0  0  0  0  0
   -5.6620   24.3530  -30.7150 C   0  0  0  0  0  0  0  0  0  0  0  0
   -7.1160   24.5210  -30.6410 C   0  0  0  0  0  0  0  0  0  0  0  0
   -7.9240   23.4700  -31.3160 C   0  0  0  0  0  0  0  0  0  0  0  0
   -7.7210   22.0710  -30.7960 C   0  0  0  0  0  0  0  0  0  0  0  0
   -1.9066   20.1161  -32.0285 H   0  0  0  0  0  0  0  0  0  0  0  0
   -0.7944   19.1321  -33.0392 H   0  0  0  0  0  0  0  0  0  0  0  0
   -0.6603   20.9234  -33.0392 H   0  0  0  0  0  0  0  0  0  0  0  0
   -2.5645   21.2014  -34.3414 H   0  0  0  0  0  0  0  0  0  0  0  0
   -1.8875   19.6775  -35.0139 H   0  0  0  0  0  0  0  0  0  0  0  0
   -2.7841   17.8229  -34.7618 H   0  0  0  0  0  0  0  0  0  0  0  0
   -3.8725   17.5182  -33.2902 H   0  0  0  0  0  0  0  0  0  0  0  0
   -5.7419   17.5542  -34.4687 H   0  0  0  0  0  0  0  0  0  0  0  0
   -5.0858   18.6566  -35.7260 H   0  0  0  0  0  0  0  0  0  0  0  0
   -4.6268   16.9200  -35.7260 H   0  0  0  0  0  0  0  0  0  0  0  0
   -6.0638   18.6371  -33.3023 H   0  0  0  0  0  0  0  0  0  0  0  0
   -7.8064   19.8156  -32.0067 H   0  0  0  0  0  0  0  0  0  0  0  0
   -3.3361   21.8362  -32.5275 H   0  0  0  0  0  0  0  0  0  0  0  0
   -5.0420   26.2530  -29.9140 H   0  0  0  0  0  0  0  0  0  0  0  0
   -7.4005   24.5352  -29.5785 H   0  0  0  0  0  0  0  0  0  0  0  0
   -7.3364   25.4568  -31.1755 H   0  0  0  0  0  0  0  0  0  0  0  0
   -8.9865   23.7273  -31.1943 H   0  0  0  0  0  0  0  0  0  0  0  0
   -7.5919   23.4567  -32.3646 H   0  0  0  0  0  0  0  0  0  0  0  0
   -7.5023   22.0974  -29.7183 H   0  0  0  0  0  0  0  0  0  0  0  0
   -8.6263   21.4639  -30.9440 H   0  0  0  0  0  0  0  0  0  0  0  0
  1  2  1  0
  2  3  1  0
  3  4  1  0
  4  5  1  0
  3  6  1  0
  6  7  2  0
  7  8  1  0
  8  9  2  0
  9 10  1  0
 10 11  2  0
 10 12  1  0
 12 13  1  0
 13 14  2  0
 14 15  1  0
 15 16  1  0
 16 17  1  0
 17 18  1  0
 18 19  1  0
 11  6  1  0
 16 12  2  0
 19  9  1  0
  1 20  1  0
  1 21  1  0
  1 22  1  0
  2 23  1  0
  2 24  1  0
  4 25  1  0
  4 26  1  0
  5 27  1  0
  5 28  1  0
  5 29  1  0
  7 30  1  0
  8 31  1  0
 11 32  1  0
 15 33  1  0
 17 34  1  0
 17 35  1  0
 18 36  1  0
 18 37  1  0
 19 38  1  0
 19 39  1  0
M  END
>  <smiles>  (14) 
CCN(CC)c1ccc2c(c1)-c1nn[nH]c1CCC2

>  <score_type>  (14) 
oracle

>  <origin>  (14) 
adg

>  <m_score__min__energy>  (14) 
-6.6600000000000001

>  <m_primary>  (14) 
energy

$$$$
15:0
     RDKit          3D

 46 48  0  0  0  0  0  0  0  0999 V2000
   -2.6880   20.9600  -28.7600 C   0  0  0  0  0  0  0  0  0  0  0  0
   -1.5300   21.4370  -29.5750 C   0  0  0  0  0  0  0  0  0  0  0  0
   -1.8400   21.6790  -30.9520 N   0  0  0  0  0  0  0  0  0  0  0  0
   -0.7080   21.4730  -31.7840 C   0  0  0  0  0  0  0  0  0  0  0  0
   -3.0550   21.0490  -31.3440 C   0  0  0  0  0  0  0  0  0  0  0  0
   -3.4490   21.3430  -32.7940 C   0  0  0  0  0  0  0  0  0  0  0  0
   -4.7410   21.9760  -32.8230 N   0  0  0  0  0  0  0  0  0  0  0  0
   -5.8920   21.5910  -32.1040 C   0  0  0  0  0  0  0  0  0  0  0  0
   -6.4180   22.3090  -31.0260 C   0  0  0  0  0  0  0  0  0  0  0  0
   -5.9990   23.5070  -30.4260 N   0  0  0  0  0  0  0  0  0  0  0  0
   -6.4850   24.8360  -30.7500 C   0  0  0  0  0  0  0  0  0  0  0  0
   -5.3560   25.8260  -30.4750 C   0  0  0  0  0  0  0  0  0  0  0  0
   -4.1210   25.2900  -30.7200 O   0  0  0  0  0  0  0  0  0  0  0  0
   -3.7760   24.1530  -30.0500 C   0  0  0  0  0  0  0  0  0  0  0  0
   -4.9580   23.4790  -29.3770 C   0  0  0  0  0  0  0  0  0  0  0  0
   -7.5210   21.6330  -30.5840 N   0  0  0  0  0  0  0  0  0  0  0  0
   -7.6960   20.5410  -31.3340 C   0  0  0  0  0  0  0  0  0  0  0  0
   -8.6420   19.5990  -31.2560 N   0  0  0  0  0  0  0  0  0  0  0  0
   -8.6710   18.5460  -32.1080 C   0  0  0  0  0  0  0  0  0  0  0  0
   -7.6630   18.5040  -33.0630 C   0  0  0  0  0  0  0  0  0  0  0  0
   -6.7100   19.4950  -33.1060 C   0  0  0  0  0  0  0  0  0  0  0  0
   -6.7020   20.5290  -32.2510 N   0  0  0  0  0  0  0  0  0  0  0  0
   -2.4491   21.0584  -27.6908 H   0  0  0  0  0  0  0  0  0  0  0  0
   -3.5758   21.5657  -28.9946 H   0  0  0  0  0  0  0  0  0  0  0  0
   -2.8916   19.9048  -28.9946 H   0  0  0  0  0  0  0  0  0  0  0  0
   -1.1616   22.3752  -29.1345 H   0  0  0  0  0  0  0  0  0  0  0  0
   -0.7791   20.6333  -29.5571 H   0  0  0  0  0  0  0  0  0  0  0  0
    0.1822   21.3110  -31.1585 H   0  0  0  0  0  0  0  0  0  0  0  0
   -0.8754   20.5906  -32.4191 H   0  0  0  0  0  0  0  0  0  0  0  0
   -0.5538   22.3578  -32.4191 H   0  0  0  0  0  0  0  0  0  0  0  0
   -2.9378   19.9615  -31.2277 H   0  0  0  0  0  0  0  0  0  0  0  0
   -3.8525   21.4509  -30.7017 H   0  0  0  0  0  0  0  0  0  0  0  0
   -2.7030   22.0120  -33.2478 H   0  0  0  0  0  0  0  0  0  0  0  0
   -3.4904   20.4008  -33.3601 H   0  0  0  0  0  0  0  0  0  0  0  0
   -4.8330   22.8150  -33.4460 H   0  0  0  0  0  0  0  0  0  0  0  0
   -6.7720   24.8811  -31.8109 H   0  0  0  0  0  0  0  0  0  0  0  0
   -7.3677   25.0812  -30.1411 H   0  0  0  0  0  0  0  0  0  0  0  0
   -5.4933   26.7064  -31.1200 H   0  0  0  0  0  0  0  0  0  0  0  0
   -5.3990   26.0962  -29.4096 H   0  0  0  0  0  0  0  0  0  0  0  0
   -3.3302   23.4462  -30.7654 H   0  0  0  0  0  0  0  0  0  0  0  0
   -3.0668   24.4395  -29.2594 H   0  0  0  0  0  0  0  0  0  0  0  0
   -4.7132   22.4455  -29.0906 H   0  0  0  0  0  0  0  0  0  0  0  0
   -5.2677   23.9761  -28.4459 H   0  0  0  0  0  0  0  0  0  0  0  0
   -9.4476   17.7694  -32.0471 H   0  0  0  0  0  0  0  0  0  0  0  0
   -7.6268   17.6763  -33.7866 H   0  0  0  0  0  0  0  0  0  0  0  0
   -5.9228   19.4375  -33.8722 H   0  0  0  0  0  0  0  0  0  0  0  0
  1  2  1  0
  2  3  1  0
  3  4  1  0
  3  5  1  0
  5  6  1  0
  6  7  1  0
  7  8  1  0
  8  9  2  0
  9 10  1  0
 10 11  1  0
 11 12  1  0
 12 13  1  0
 13 14  1  0
 14 15  1  0
  9 16  1  0
 16 17  2  0
 17 18  1  0
 18 19  2  0
 19 20  1  0
 20 21  2  0
 21 22  1  0
 22  8  1  0
 15 10  1  0
 22 17  1  0
  1 23  1  0
  1 24  1  0
  1 25  1  0
  2 26  1  0
  2 27  1  0
  4 28  1  0
  4 29  1  0
  4 30  1  0
  5 31  1  0
  5 32  1  0
  6 33  1  0
  6 34  1  0
  7 35  1  0
 11 36  1  0
 11 37  1  0
 12 38  1  0
 12 39  1  0
 14 40  1  0
 14 41  1  0
 15 42  1  0
 15 43  1  0
 19 44  1  0
 20 45  1  0
 21 46  1  0
M  END
>  <smiles>  (15) 
CCN(C)CCNc1c(N2CCOCC2)nc2ncccn12

>  <score_type>  (15) 
oracle

>  <origin>  (15) 
adg

>  <m_score__min__energy>  (15) 
-7.0999999999999996

>  <m_primary>  (15) 
energy

$$$$
16:0
     RDKit          3D

 46 48  0  0  1  0  0  0  0  0999 V2000
   -1.9520   25.0930  -28.0540 C   0  0  0  0  0  0  0  0  0  0  0  0
   -2.5420   25.2710  -29.3410 O   0  0  0  0  0  0  0  0  0  0  0  0
   -3.1080   24.1940  -29.9980 C   0  0  0  0  0  0  0  0  0  0  0  0
   -2.4320   23.0200  -30.2300 C   0  0  0  0  0  0  0  0  0  0  0  0
   -3.0110   21.9640  -30.8830 C   0  0  0  0  0  0  0  0  0  0  0  0
   -4.3160   22.0360  -31.3400 C   0  0  0  0  0  0  0  0  0  0  0  0
   -4.8360   20.8620  -32.0170 C   0  0  0  0  0  0  0  0  0  0  0  0
   -4.0460   20.0430  -32.7300 N   0  0  0  0  0  0  0  0  0  0  0  0
   -4.5510   18.9520  -33.3530 C   0  0  0  0  0  0  0  0  0  0  0  0
   -3.7570   18.1010  -34.0880 C   0  0  0  0  0  0  0  0  0  0  0  0
   -4.3220   16.9850  -34.7150 C   0  0  0  0  0  0  0  0  0  0  0  0
   -5.6840   16.7410  -34.5920 C   0  0  0  0  0  0  0  0  0  0  0  0
   -6.4910   17.5840  -33.8590 C   0  0  0  0  0  0  0  0  0  0  0  0
   -5.8940   18.6660  -33.2620 C   0  0  0  0  0  0  0  0  0  0  0  0
   -6.7030   19.5150  -32.5250 C   0  0  0  0  0  0  0  0  0  0  0  0
   -7.9210   19.3510  -32.3770 N   0  0  0  0  0  0  0  0  0  0  0  0
   -9.0980   20.0700  -32.3950 C   0  0  0  0  0  0  0  0  0  0  0  0
   -9.4720   21.2240  -31.5740 C   0  0  0  0  0  0  0  0  0  0  0  0
   -8.3160   22.1340  -31.3580 N   0  0  0  0  0  0  0  0  0  0  0  0
   -8.0320   22.3050  -29.9540 C   0  0  0  0  0  0  0  0  0  0  0  0
   -8.5080   23.3980  -32.0340 C   0  0  0  0  0  0  0  0  0  0  0  0
   -6.1280   20.5740  -31.9380 N   0  0  0  0  0  0  0  0  0  0  0  0
   -4.9960   23.1900  -31.1170 C   0  0  0  0  0  0  0  0  0  0  0  0
   -4.4090   24.2670  -30.4530 C   0  0  0  0  0  0  0  0  0  0  0  0
   -2.6959   25.3174  -27.2754 H   0  0  0  0  0  0  0  0  0  0  0  0
   -1.6120   24.0523  -27.9472 H   0  0  0  0  0  0  0  0  0  0  0  0
   -1.0932   25.7720  -27.9472 H   0  0  0  0  0  0  0  0  0  0  0  0
   -1.3934   22.9253  -29.8803 H   0  0  0  0  0  0  0  0  0  0  0  0
   -2.4300   21.0444  -31.0468 H   0  0  0  0  0  0  0  0  0  0  0  0
   -2.6789   18.2982  -34.1824 H   0  0  0  0  0  0  0  0  0  0  0  0
   -3.6900   16.3034  -35.3032 H   0  0  0  0  0  0  0  0  0  0  0  0
   -6.1245   15.8627  -35.0865 H   0  0  0  0  0  0  0  0  0  0  0  0
   -7.5702   17.3972  -33.7566 H   0  0  0  0  0  0  0  0  0  0  0  0
   -9.1877   20.4275  -33.4314 H   0  0  0  0  0  0  0  0  0  0  0  0
   -9.7529   19.3199  -31.9275 H   0  0  0  0  0  0  0  0  0  0  0  0
  -10.2745   21.7792  -32.0816 H   0  0  0  0  0  0  0  0  0  0  0  0
   -9.8108   20.8564  -30.5942 H   0  0  0  0  0  0  0  0  0  0  0  0
   -8.8245   21.8278  -29.3588 H   0  0  0  0  0  0  0  0  0  0  0  0
   -7.0642   21.8393  -29.7163 H   0  0  0  0  0  0  0  0  0  0  0  0
   -7.9908   23.3782  -29.7163 H   0  0  0  0  0  0  0  0  0  0  0  0
   -8.6295   24.1977  -31.2886 H   0  0  0  0  0  0  0  0  0  0  0  0
   -7.6323   23.6137  -32.6638 H   0  0  0  0  0  0  0  0  0  0  0  0
   -9.4082   23.3440  -32.6638 H   0  0  0  0  0  0  0  0  0  0  0  0
   -6.7330   21.1970  -31.3950 H   0  0  0  0  0  0  0  0  0  0  0  0
   -6.0347   23.2776  -31.4684 H   0  0  0  0  0  0  0  0  0  0  0  0
   -4.9904   25.1864  -30.2899 H   0  0  0  0  0  0  0  0  0  0  0  0
  1  2  1  0
  2  3  1  0
  3  4  2  0
  4  5  1  0
  5  6  2  0
  6  7  1  0
  7  8  2  0
  8  9  1  0
  9 10  2  0
 10 11  1  0
 11 12  2  0
 12 13  1  0
 13 14  2  0
 14 15  1  0
 15 16  2  0
 16 17  1  0
 17 18  1  0
 18 19  1  0
 19 20  1  0
 19 21  1  0
 15 22  1  0
  6 23  1  0
 23 24  2  0
 24  3  1  0
 22  7  1  0
 14  9  1  0
  1 25  1  0
  1 26  1  0
  1 27  1  0
  4 28  1  0
  5 29  1  0
 10 30  1  0
 11 31  1  0
 12 32  1  0
 13 33  1  0
 17 34  1  0
 17 35  1  0
 18 36  1  0
 18 37  1  0
 20 38  1  0
 20 39  1  0
 20 40  1  0
 21 41  1  0
 21 42  1  0
 21 43  1  0
 22 44  1  0
 23 45  1  0
 24 46  1  0
M  END
>  <smiles>  (16) 
COc1ccc(-c2nc3ccccc3c(=NCCN(C)C)[nH]2)cc1

>  <score_type>  (16) 
oracle

>  <origin>  (16) 
adg

>  <m_score__min__energy>  (16) 
-7.6200000000000001

>  <m_primary>  (16) 
energy

$$$$
17:0
     RDKit          3D

 62 64  0  0  0  0  0  0  0  0999 V2000
   -2.2930   19.6740  -26.9060 C   0  0  0  0  0  0  0  0  0  0  0  0
   -2.8230   20.1610  -28.2060 C   0  0  0  0  0  0  0  0  0  0  0  0
   -2.6920   21.5330  -28.5140 N   0  0  0  0  0  0  0  0  0  0  0  0
   -3.8790   22.2140  -27.9960 C   0  0  0  0  0  0  0  0  0  0  0  0
   -1.5540   22.2430  -28.0570 C   0  0  0  0  0  0  0  0  0  0  0  0
   -0.3960   22.3190  -29.0300 C   0  0  0  0  0  0  0  0  0  0  0  0
   -0.7400   21.8190  -30.2540 O   0  0  0  0  0  0  0  0  0  0  0  0
    0.0940   20.8140  -30.7340 C   0  0  0  0  0  0  0  0  0  0  0  0
   -0.7140   19.5370  -30.9300 C   0  0  0  0  0  0  0  0  0  0  0  0
   -1.5520   19.5500  -32.0120 O   0  0  0  0  0  0  0  0  0  0  0  0
   -1.3220   20.5790  -32.9050 C   0  0  0  0  0  0  0  0  0  0  0  0
   -2.4970   21.5550  -32.9170 C   0  0  0  0  0  0  0  0  0  0  0  0
   -3.2850   21.3500  -31.6970 N   0  0  0  0  0  0  0  0  0  0  0  0
   -4.6880   21.2890  -31.8900 C   0  0  0  0  0  0  0  0  0  0  0  0
   -5.1310   20.0480  -32.3860 C   0  0  0  0  0  0  0  0  0  0  0  0
   -4.2110   19.0670  -32.7260 C   0  0  0  0  0  0  0  0  0  0  0  0
   -4.5740   17.8340  -33.2190 C   0  0  0  0  0  0  0  0  0  0  0  0
   -5.9130   17.5880  -33.3720 C   0  0  0  0  0  0  0  0  0  0  0  0
   -6.8560   18.5270  -33.0480 C   0  0  0  0  0  0  0  0  0  0  0  0
   -6.4530   19.7610  -32.5540 C   0  0  0  0  0  0  0  0  0  0  0  0
   -7.3780   20.7190  -32.2240 N   0  0  0  0  0  0  0  0  0  0  0  0
   -8.7490   20.3130  -32.4310 C   0  0  0  0  0  0  0  0  0  0  0  0
   -6.9750   21.9030  -31.7530 C   0  0  0  0  0  0  0  0  0  0  0  0
   -7.9480   22.8070  -31.4030 C   0  0  0  0  0  0  0  0  0  0  0  0
   -7.5710   24.0200  -30.8790 C   0  0  0  0  0  0  0  0  0  0  0  0
   -6.2550   24.3080  -30.7200 C   0  0  0  0  0  0  0  0  0  0  0  0
   -5.2070   23.4190  -31.0660 C   0  0  0  0  0  0  0  0  0  0  0  0
   -3.9310   23.9150  -30.8440 N   0  0  0  0  0  0  0  0  0  0  0  0
   -3.8540   25.2170  -30.8570 O   0  0  0  0  0  0  0  0  0  0  0  0
   -2.7380   23.3550  -30.5830 O   0  0  0  0  0  0  0  0  0  0  0  0
   -5.6150   22.2250  -31.5750 C   0  0  0  0  0  0  0  0  0  0  0  0
   -2.8303   20.1677  -26.0829 H   0  0  0  0  0  0  0  0  0  0  0  0
   -2.4359   18.5855  -26.8364 H   0  0  0  0  0  0  0  0  0  0  0  0
   -1.2205   19.9082  -26.8364 H   0  0  0  0  0  0  0  0  0  0  0  0
   -2.3068   19.5992  -28.9984 H   0  0  0  0  0  0  0  0  0  0  0  0
   -3.9091   20.0037  -28.1308 H   0  0  0  0  0  0  0  0  0  0  0  0
   -3.8580   22.2019  -26.8963 H   0  0  0  0  0  0  0  0  0  0  0  0
   -3.8887   23.2550  -28.3512 H   0  0  0  0  0  0  0  0  0  0  0  0
   -4.7826   21.6970  -28.3512 H   0  0  0  0  0  0  0  0  0  0  0  0
   -1.8678   23.2711  -27.8234 H   0  0  0  0  0  0  0  0  0  0  0  0
   -1.1797   21.6837  -27.1869 H   0  0  0  0  0  0  0  0  0  0  0  0
   -0.0935   23.3703  -29.1450 H   0  0  0  0  0  0  0  0  0  0  0  0
    0.4325   21.7160  -28.6300 H   0  0  0  0  0  0  0  0  0  0  0  0
    0.5278   21.1251  -31.6958 H   0  0  0  0  0  0  0  0  0  0  0  0
    0.9022   20.6303  -30.0108 H   0  0  0  0  0  0  0  0  0  0  0  0
   -0.0093   18.7013  -31.0526 H   0  0  0  0  0  0  0  0  0  0  0  0
   -1.3553   19.4362  -30.0420 H   0  0  0  0  0  0  0  0  0  0  0  0
   -0.4089   21.1165  -32.6094 H   0  0  0  0  0  0  0  0  0  0  0  0
   -1.2047   20.1537  -33.9127 H   0  0  0  0  0  0  0  0  0  0  0  0
   -2.1208   22.5882  -32.9464 H   0  0  0  0  0  0  0  0  0  0  0  0
   -3.1234   21.3797  -33.8041 H   0  0  0  0  0  0  0  0  0  0  0  0
   -2.8310   21.3130  -30.7420 H   0  0  0  0  0  0  0  0  0  0  0  0
   -3.1407   19.2847  -32.5955 H   0  0  0  0  0  0  0  0  0  0  0  0
   -3.8196   17.0770  -33.4795 H   0  0  0  0  0  0  0  0  0  0  0  0
   -6.2385   16.6133  -33.7644 H   0  0  0  0  0  0  0  0  0  0  0  0
   -7.9255   18.3053  -33.1782 H   0  0  0  0  0  0  0  0  0  0  0  0
   -9.2394   20.1678  -31.4571 H   0  0  0  0  0  0  0  0  0  0  0  0
   -9.2807   21.0922  -32.9967 H   0  0  0  0  0  0  0  0  0  0  0  0
   -8.7707   19.3699  -32.9967 H   0  0  0  0  0  0  0  0  0  0  0  0
   -9.0120   22.5638  -31.5400 H   0  0  0  0  0  0  0  0  0  0  0  0
   -8.3351   24.7563  -30.5889 H   0  0  0  0  0  0  0  0  0  0  0  0
   -5.9859   25.2877  -30.2984 H   0  0  0  0  0  0  0  0  0  0  0  0
  1  2  1  0
  2  3  1  0
  3  4  1  0
  3  5  1  0
  5  6  1  0
  6  7  1  0
  7  8  1  0
  8  9  1  0
  9 10  1  0
 10 11  1  0
 11 12  1  0
 12 13  1  0
 13 14  1  0
 14 15  2  0
 15 16  1  0
 16 17  2  0
 17 18  1  0
 18 19  2  0
 19 20  1  0
 20 21  2  0
 21 22  1  0
 21 23  1  0
 23 24  2  0
 24 25  1  0
 25 26  2  0
 26 27  1  0
 27 28  1  0
 28 29  2  0
 28 30  1  0
 27 31  2  0
 31 14  1  0
 20 15  1  0
 31 23  1  0
  1 32  1  0
  1 33  1  0
  1 34  1  0
  2 35  1  0
  2 36  1  0
  4 37  1  0
  4 38  1  0
  4 39  1  0
  5 40  1  0
  5 41  1  0
  6 42  1  0
  6 43  1  0
  8 44  1  0
  8 45  1  0
  9 46  1  0
  9 47  1  0
 11 48  1  0
 11 49  1  0
 12 50  1  0
 12 51  1  0
 13 52  1  0
 16 53  1  0
 17 54  1  0
 18 55  1  0
 19 56  1  0
 22 57  1  0
 22 58  1  0
 22 59  1  0
 24 60  1  0
 25 61  1  0
 26 62  1  0
M  CHG  3  21   1  28   1  30  -1
M  END
>  <smiles>  (17) 
CCN(C)CCOCCOCCNc1c2ccccc2[n+](C)c2cccc([N+](=O)[O-])c12

>  <score_type>  (17) 
oracle

>  <origin>  (17) 
adg

>  <m_score__min__energy>  (17) 
-8.9000000000000004

>  <m_primary>  (17) 
energy

$$$$
18:0
     RDKit          3D

 44 45  0  0  0  0  0  0  0  0999 V2000
   -0.8770   26.7770  -27.9440 C   0  0  0  0  0  0  0  0  0  0  0  0
   -1.5910   26.0490  -28.9240 O   0  0  0  0  0  0  0  0  0  0  0  0
   -1.9850   24.7460  -28.7760 C   0  0  0  0  0  0  0  0  0  0  0  0
   -1.3760   23.9200  -27.8520 C   0  0  0  0  0  0  0  0  0  0  0  0
   -1.8050   22.6090  -27.7350 C   0  0  0  0  0  0  0  0  0  0  0  0
   -1.1910   21.7880  -26.8080 C   0  0  0  0  0  0  0  0  0  0  0  0
   -1.6320   20.4750  -26.7020 C   0  0  0  0  0  0  0  0  0  0  0  0
   -2.6630   20.0570  -27.5290 C   0  0  0  0  0  0  0  0  0  0  0  0
   -3.2500   20.8680  -28.4250 N   0  0  0  0  0  0  0  0  0  0  0  0
   -2.8290   22.1430  -28.5340 C   0  0  0  0  0  0  0  0  0  0  0  0
   -3.4290   22.9790  -29.4530 C   0  0  0  0  0  0  0  0  0  0  0  0
   -4.4780   22.4480  -30.2510 N   0  0  0  0  0  0  0  0  0  0  0  0
   -4.1160   21.8420  -31.5400 C   0  0  0  0  0  0  0  0  0  0  0  0
   -5.2780   22.0500  -32.4870 C   0  0  0  0  0  0  0  0  0  0  0  0
   -6.4850   21.2570  -32.0050 C   0  0  0  0  0  0  0  0  0  0  0  0
   -7.2520   22.1510  -31.1470 N   0  0  0  0  0  0  0  0  0  0  0  0
   -7.4010   23.4210  -31.8480 C   0  0  0  0  0  0  0  0  0  0  0  0
   -8.5690   21.5950  -30.9100 C   0  0  0  0  0  0  0  0  0  0  0  0
   -3.0130   24.2890  -29.5830 C   0  0  0  0  0  0  0  0  0  0  0  0
   -3.6140   25.1350  -30.5080 O   0  0  0  0  0  0  0  0  0  0  0  0
   -5.0140   25.3180  -30.3770 C   0  0  0  0  0  0  0  0  0  0  0  0
   -1.1951   26.4527  -26.9422 H   0  0  0  0  0  0  0  0  0  0  0  0
    0.2009   26.5934  -28.0638 H   0  0  0  0  0  0  0  0  0  0  0  0
   -1.0815   27.8512  -28.0638 H   0  0  0  0  0  0  0  0  0  0  0  0
   -0.5611   24.2986  -27.2175 H   0  0  0  0  0  0  0  0  0  0  0  0
   -0.3760   22.1638  -26.1720 H   0  0  0  0  0  0  0  0  0  0  0  0
   -1.1741   19.7836  -25.9792 H   0  0  0  0  0  0  0  0  0  0  0  0
   -3.0152   19.0180  -27.4483 H   0  0  0  0  0  0  0  0  0  0  0  0
   -5.4800   22.4880  -29.9270 H   0  0  0  0  0  0  0  0  0  0  0  0
   -3.2137   22.3262  -31.9417 H   0  0  0  0  0  0  0  0  0  0  0  0
   -3.9060   20.7693  -31.4167 H   0  0  0  0  0  0  0  0  0  0  0  0
   -5.5338   23.1193  -32.5217 H   0  0  0  0  0  0  0  0  0  0  0  0
   -4.9939   21.7039  -33.4917 H   0  0  0  0  0  0  0  0  0  0  0  0
   -7.0956   20.9361  -32.8618 H   0  0  0  0  0  0  0  0  0  0  0  0
   -6.1751   20.3525  -31.4610 H   0  0  0  0  0  0  0  0  0  0  0  0
   -7.4966   24.2355  -31.1149 H   0  0  0  0  0  0  0  0  0  0  0  0
   -6.5174   23.5974  -32.4790 H   0  0  0  0  0  0  0  0  0  0  0  0
   -8.3014   23.3881  -32.4790 H   0  0  0  0  0  0  0  0  0  0  0  0
   -8.7460   21.5203  -29.8269 H   0  0  0  0  0  0  0  0  0  0  0  0
   -9.3297   22.2488  -31.3616 H   0  0  0  0  0  0  0  0  0  0  0  0
   -8.6311   20.5939  -31.3616 H   0  0  0  0  0  0  0  0  0  0  0  0
   -5.2810   25.3529  -29.3105 H   0  0  0  0  0  0  0  0  0  0  0  0
   -5.3071   26.2621  -30.8595 H   0  0  0  0  0  0  0  0  0  0  0  0
   -5.5399   24.4810  -30.8595 H   0  0  0  0  0  0  0  0  0  0  0  0
  1  2  1  0
  2  3  1  0
  3  4  2  0
  4  5  1  0
  5  6  2  0
  6  7  1  0
  7  8  2  0
  8  9  1  0
  9 10  2  0
 10 11  1  0
 11 12  1  0
 12 13  1  0
 13 14  1  0
 14 15  1  0
 15 16  1  0
 16 17  1  0
 16 18  1  0
 11 19  2  0
 19 20  1  0
 20 21  1  0
 19  3  1  0
 10  5  1  0
  1 22  1  0
  1 23  1  0
  1 24  1  0
  4 25  1  0
  6 26  1  0
  7 27  1  0
  8 28  1  0
 12 29  1  0
 13 30  1  0
 13 31  1  0
 14 32  1  0
 14 33  1  0
 15 34  1  0
 15 35  1  0
 17 36  1  0
 17 37  1  0
 17 38  1  0
 18 39  1  0
 18 40  1  0
 18 41  1  0
 21 42  1  0
 21 43  1  0
 21 44  1  0
M  END
>  <smiles>  (18) 
COc1cc2cccnc2c(NCCCN(C)C)c1OC

>  <score_type>  (18) 
oracle

>  <origin>  (18) 
adg

>  <m_score__min__energy>  (18) 
-6.9500000000000002

>  <m_primary>  (18) 
energy

$$$$
19:0
     RDKit          3D

 54 55  0  0  0  0  0  0  0  0999 V2000
    1.2210   25.0480  -36.0660 C   0  0  0  0  0  0  0  0  0  0  0  0
    0.7160   23.6240  -36.1160 C   0  0  0  0  0  0  0  0  0  0  0  0
    1.4580   22.7530  -35.3520 O   0  0  0  0  0  0  0  0  0  0  0  0
    2.8200   22.8680  -35.4730 C   0  0  0  0  0  0  0  0  0  0  0  0
    3.4850   21.6030  -35.9710 C   0  0  0  0  0  0  0  0  0  0  0  0
    2.8720   21.2730  -37.1570 O   0  0  0  0  0  0  0  0  0  0  0  0
    2.7940   19.9020  -37.4050 C   0  0  0  0  0  0  0  0  0  0  0  0
    1.4830   19.2900  -37.0530 C   0  0  0  0  0  0  0  0  0  0  0  0
    0.6890   20.2220  -36.2960 N   0  0  0  0  0  0  0  0  0  0  0  0
    0.3670   19.7350  -35.0040 C   0  0  0  0  0  0  0  0  0  0  0  0
   -0.9900   20.2200  -34.5740 C   0  0  0  0  0  0  0  0  0  0  0  0
   -0.8380   21.5530  -33.8870 C   0  0  0  0  0  0  0  0  0  0  0  0
   -1.4960   21.4970  -32.5060 C   0  0  0  0  0  0  0  0  0  0  0  0
   -2.8610   20.9840  -32.6570 N   0  0  0  0  0  0  0  0  0  0  0  0
   -3.8780   21.8080  -32.1340 C   0  0  0  0  0  0  0  0  0  0  0  0
   -3.4420   22.8950  -31.6000 O   0  0  0  0  0  0  0  0  0  0  0  0
   -5.2960   21.6160  -32.1070 C   0  0  0  0  0  0  0  0  0  0  0  0
   -6.0870   22.7650  -31.9450 C   0  0  0  0  0  0  0  0  0  0  0  0
   -7.4720   22.6850  -31.9040 C   0  0  0  0  0  0  0  0  0  0  0  0
   -8.1380   21.4920  -32.0190 C   0  0  0  0  0  0  0  0  0  0  0  0
   -9.8750   21.4860  -31.9580 Cl  0  0  0  0  0  0  0  0  0  0  0  0
   -7.3750   20.3570  -32.1790 C   0  0  0  0  0  0  0  0  0  0  0  0
   -8.1850   18.8060  -32.3300 Cl  0  0  0  0  0  0  0  0  0  0  0  0
   -5.9830   20.4450  -32.2190 C   0  0  0  0  0  0  0  0  0  0  0  0
   -3.0120   19.7180  -33.3070 C   0  0  0  0  0  0  0  0  0  0  0  0
   -1.6110   19.1970  -33.6680 C   0  0  0  0  0  0  0  0  0  0  0  0
    1.3320   25.3611  -35.0174 H   0  0  0  0  0  0  0  0  0  0  0  0
    2.1957   25.1094  -36.5721 H   0  0  0  0  0  0  0  0  0  0  0  0
    0.5027   25.7098  -36.5721 H   0  0  0  0  0  0  0  0  0  0  0  0
   -0.3220   23.6094  -35.7521 H   0  0  0  0  0  0  0  0  0  0  0  0
    0.7958   23.2881  -37.1604 H   0  0  0  0  0  0  0  0  0  0  0  0
    3.0404   23.6805  -36.1811 H   0  0  0  0  0  0  0  0  0  0  0  0
    3.2204   23.0735  -34.4693 H   0  0  0  0  0  0  0  0  0  0  0  0
    4.5583   21.7788  -36.1354 H   0  0  0  0  0  0  0  0  0  0  0  0
    3.3875   20.7900  -35.2364 H   0  0  0  0  0  0  0  0  0  0  0  0
    2.9757   19.7348  -38.4769 H   0  0  0  0  0  0  0  0  0  0  0  0
    3.5483   19.4222  -36.7640 H   0  0  0  0  0  0  0  0  0  0  0  0
    0.9476   19.0213  -37.9756 H   0  0  0  0  0  0  0  0  0  0  0  0
    1.6576   18.3896  -36.4457 H   0  0  0  0  0  0  0  0  0  0  0  0
    1.1120   21.1600  -36.2420 H   0  0  0  0  0  0  0  0  0  0  0  0
    0.3678   18.6352  -35.0225 H   0  0  0  0  0  0  0  0  0  0  0  0
    1.1169   20.1062  -34.2900 H   0  0  0  0  0  0  0  0  0  0  0  0
   -1.6518   20.3544  -35.4423 H   0  0  0  0  0  0  0  0  0  0  0  0
    0.2309   21.7868  -33.7740 H   0  0  0  0  0  0  0  0  0  0  0  0
   -1.3237   22.3331  -34.4917 H   0  0  0  0  0  0  0  0  0  0  0  0
   -0.9202   20.8293  -31.8483 H   0  0  0  0  0  0  0  0  0  0  0  0
   -1.5203   22.5027  -32.0610 H   0  0  0  0  0  0  0  0  0  0  0  0
   -5.5999   23.7466  -31.8488 H   0  0  0  0  0  0  0  0  0  0  0  0
   -8.0546   23.6091  -31.7750 H   0  0  0  0  0  0  0  0  0  0  0  0
   -5.4079   19.5163  -32.3483 H   0  0  0  0  0  0  0  0  0  0  0  0
   -3.5109   19.0085  -32.6304 H   0  0  0  0  0  0  0  0  0  0  0  0
   -3.6243   19.8258  -34.2144 H   0  0  0  0  0  0  0  0  0  0  0  0
   -1.0045   19.0787  -32.7580 H   0  0  0  0  0  0  0  0  0  0  0  0
   -1.6691   18.2154  -34.1610 H   0  0  0  0  0  0  0  0  0  0  0  0
  1  2  1  0
  2  3  1  0
  3  4  1  0
  4  5  1  0
  5  6  1  0
  6  7  1  0
  7  8  1  0
  8  9  1  0
  9 10  1  0
 10 11  1  0
 11 12  1  0
 12 13  1  0
 13 14  1  0
 14 15  1  0
 15 16  2  0
 15 17  1  0
 17 18  2  0
 18 19  1  0
 19 20  2  0
 20 21  1  0
 20 22  1  0
 22 23  1  0
 22 24  2  0
 14 25  1  0
 25 26  1  0
 26 11  1  0
 24 17  1  0
  1 27  1  0
  1 28  1  0
  1 29  1  0
  2 30  1  0
  2 31  1  0
  4 32  1  0
  4 33  1  0
  5 34  1  0
  5 35  1  0
  7 36  1  0
  7 37  1  0
  8 38  1  0
  8 39  1  0
  9 40  1  0
 10 41  1  0
 10 42  1  0
 11 43  1  0
 12 44  1  0
 12 45  1  0
 13 46  1  0
 13 47  1  0
 18 48  1  0
 19 49  1  0
 24 50  1  0
 25 51  1  0
 25 52  1  0
 26 53  1  0
 26 54  1  0
M  END
>  <smiles>  (19) 
CCOCCOCCNCC1CCN(C(=O)c2ccc(Cl)c(Cl)c2)CC1

>  <score_type>  (19) 
oracle

>  <origin>  (19) 
adg

>  <m_score__min__energy>  (19) 
-9.0899999999999999

>  <m_primary>  (19) 
energy

$$$$
20:0
     RDKit          3D

 48 49  0  0  0  0  0  0  0  0999 V2000
   -2.7780   21.0350  -27.7130 C   0  0  0  0  0  0  0  0  0  0  0  0
   -3.4870   22.0190  -28.5810 C   0  0  0  0  0  0  0  0  0  0  0  0
   -3.0820   22.0460  -29.9500 N   0  0  0  0  0  0  0  0  0  0  0  0
   -3.9440   21.4210  -30.8870 C   0  0  0  0  0  0  0  0  0  0  0  0
   -3.5760   21.5990  -32.3300 C   0  0  0  0  0  0  0  0  0  0  0  0
   -2.6330   23.3380  -30.3490 C   0  0  0  0  0  0  0  0  0  0  0  0
   -3.2690   24.4800  -29.5530 C   0  0  0  0  0  0  0  0  0  0  0  0
   -3.8750   25.2890  -30.4920 O   0  0  0  0  0  0  0  0  0  0  0  0
   -5.2210   25.4120  -30.4680 C   0  0  0  0  0  0  0  0  0  0  0  0
   -5.8910   24.3410  -31.2820 C   0  0  0  0  0  0  0  0  0  0  0  0
   -7.1840   23.9370  -30.6230 C   0  0  0  0  0  0  0  0  0  0  0  0
   -7.9450   23.0840  -31.3690 O   0  0  0  0  0  0  0  0  0  0  0  0
   -7.7490   21.8220  -31.7900 C   0  0  0  0  0  0  0  0  0  0  0  0
   -8.5550   20.8270  -31.2080 C   0  0  0  0  0  0  0  0  0  0  0  0
   -8.4410   19.5020  -31.5600 C   0  0  0  0  0  0  0  0  0  0  0  0
   -7.5310   19.0880  -32.5010 C   0  0  0  0  0  0  0  0  0  0  0  0
   -7.4750   17.7430  -32.8040 C   0  0  0  0  0  0  0  0  0  0  0  0
   -6.5360   17.3700  -33.7640 C   0  0  0  0  0  0  0  0  0  0  0  0
   -5.7460   18.3590  -34.3310 C   0  0  0  0  0  0  0  0  0  0  0  0
   -4.9140   17.9660  -35.1940 O   0  0  0  0  0  0  0  0  0  0  0  0
   -5.8650   19.6280  -33.9840 O   0  0  0  0  0  0  0  0  0  0  0  0
   -6.7320   20.0350  -33.0850 C   0  0  0  0  0  0  0  0  0  0  0  0
   -6.8510   21.3750  -32.7240 C   0  0  0  0  0  0  0  0  0  0  0  0
   -2.9565   21.2828  -26.6562 H   0  0  0  0  0  0  0  0  0  0  0  0
   -3.1560   20.0232  -27.9213 H   0  0  0  0  0  0  0  0  0  0  0  0
   -1.6986   21.0733  -27.9213 H   0  0  0  0  0  0  0  0  0  0  0  0
   -4.5609   21.7826  -28.5515 H   0  0  0  0  0  0  0  0  0  0  0  0
   -3.2354   23.0102  -28.1757 H   0  0  0  0  0  0  0  0  0  0  0  0
   -3.9524   20.3424  -30.6711 H   0  0  0  0  0  0  0  0  0  0  0  0
   -4.9225   21.9085  -30.7652 H   0  0  0  0  0  0  0  0  0  0  0  0
   -2.5878   22.0770  -32.4001 H   0  0  0  0  0  0  0  0  0  0  0  0
   -3.5441   20.6167  -32.8241 H   0  0  0  0  0  0  0  0  0  0  0  0
   -4.3262   22.2338  -32.8241 H   0  0  0  0  0  0  0  0  0  0  0  0
   -1.5424   23.3845  -30.2132 H   0  0  0  0  0  0  0  0  0  0  0  0
   -2.9296   23.4726  -31.3997 H   0  0  0  0  0  0  0  0  0  0  0  0
   -4.0139   24.0874  -28.8452 H   0  0  0  0  0  0  0  0  0  0  0  0
   -2.5233   25.0298  -28.9600 H   0  0  0  0  0  0  0  0  0  0  0  0
   -5.5674   25.3376  -29.4266 H   0  0  0  0  0  0  0  0  0  0  0  0
   -5.4842   26.3880  -30.9018 H   0  0  0  0  0  0  0  0  0  0  0  0
   -6.0995   24.7254  -32.2913 H   0  0  0  0  0  0  0  0  0  0  0  0
   -5.2276   23.4662  -31.3498 H   0  0  0  0  0  0  0  0  0  0  0  0
   -6.9465   23.4440  -29.6688 H   0  0  0  0  0  0  0  0  0  0  0  0
   -7.7739   24.8559  -30.4900 H   0  0  0  0  0  0  0  0  0  0  0  0
   -9.2976   21.1165  -30.4499 H   0  0  0  0  0  0  0  0  0  0  0  0
   -9.0926   18.7587  -31.0774 H   0  0  0  0  0  0  0  0  0  0  0  0
   -8.1328   17.0084  -32.3165 H   0  0  0  0  0  0  0  0  0  0  0  0
   -6.4242   16.3177  -34.0644 H   0  0  0  0  0  0  0  0  0  0  0  0
   -6.1930   22.1094  -33.2116 H   0  0  0  0  0  0  0  0  0  0  0  0
  1  2  1  0
  2  3  1  0
  3  4  1  0
  4  5  1  0
  3  6  1  0
  6  7  1  0
  7  8  1  0
  8  9  1  0
  9 10  1  0
 10 11  1  0
 11 12  1  0
 12 13  1  0
 13 14  2  0
 14 15  1  0
 15 16  2  0
 16 17  1  0
 17 18  2  0
 18 19  1  0
 19 20  2  0
 19 21  1  0
 21 22  1  0
 22 23  2  0
 23 13  1  0
 22 16  1  0
  1 24  1  0
  1 25  1  0
  1 26  1  0
  2 27  1  0
  2 28  1  0
  4 29  1  0
  4 30  1  0
  5 31  1  0
  5 32  1  0
  5 33  1  0
  6 34  1  0
  6 35  1  0
  7 36  1  0
  7 37  1  0
  9 38  1  0
  9 39  1  0
 10 40  1  0
 10 41  1  0
 11 42  1  0
 11 43  1  0
 14 44  1  0
 15 45  1  0
 17 46  1  0
 18 47  1  0
 23 48  1  0
M  END
>  <smiles>  (20) 
CCN(CC)CCOCCCOc1ccc2ccc(=O)oc2c1

>  <score_type>  (20) 
oracle

>  <origin>  (20) 
adg

>  <m_score__min__energy>  (20) 
-7.3099999999999996

>  <m_primary>  (20) 
energy

$$$$
21:0
     RDKit          3D

 42 42  0  0  0  0  0  0  0  0999 V2000
   -4.1290   22.0170  -32.7040 C   0  0  0  0  0  0  0  0  0  0  0  0
   -4.3150   22.5640  -31.3500 C   0  0  0  0  0  0  0  0  0  0  0  0
   -4.6350   23.9590  -31.2090 N   0  0  0  0  0  0  0  0  0  0  0  0
   -3.9440   24.5280  -30.0610 C   0  0  0  0  0  0  0  0  0  0  0  0
   -4.5110   24.1510  -28.7320 C   0  0  0  0  0  0  0  0  0  0  0  0
   -6.0540   24.1680  -31.1420 C   0  0  0  0  0  0  0  0  0  0  0  0
   -6.8710   23.8000  -32.3160 C   0  0  0  0  0  0  0  0  0  0  0  0
   -7.8100   22.8230  -32.1890 O   0  0  0  0  0  0  0  0  0  0  0  0
   -7.9950   22.3560  -30.9270 C   0  0  0  0  0  0  0  0  0  0  0  0
   -9.1160   21.2830  -30.9070 C   0  0  0  0  0  0  0  0  0  0  0  0
   -9.2520   20.7780  -32.3060 C   0  0  0  0  0  0  0  0  0  0  0  0
   -8.1080   19.8330  -32.5460 C   0  0  0  0  0  0  0  0  0  0  0  0
   -8.0800   18.6900  -31.8110 C   0  0  0  0  0  0  0  0  0  0  0  0
   -7.0670   17.7670  -31.9730 C   0  0  0  0  0  0  0  0  0  0  0  0
   -6.0900   18.0290  -32.8910 C   0  0  0  0  0  0  0  0  0  0  0  0
   -6.0820   19.1910  -33.6660 C   0  0  0  0  0  0  0  0  0  0  0  0
   -7.1220   20.0980  -33.4730 C   0  0  0  0  0  0  0  0  0  0  0  0
   -3.7756   20.9777  -32.6342 H   0  0  0  0  0  0  0  0  0  0  0  0
   -5.0865   22.0432  -33.2448 H   0  0  0  0  0  0  0  0  0  0  0  0
   -3.3859   22.6214  -33.2448 H   0  0  0  0  0  0  0  0  0  0  0  0
   -5.1306   21.9951  -30.8797 H   0  0  0  0  0  0  0  0  0  0  0  0
   -3.3235   22.4678  -30.8834 H   0  0  0  0  0  0  0  0  0  0  0  0
   -2.8968   24.1928  -30.0926 H   0  0  0  0  0  0  0  0  0  0  0  0
   -4.0564   25.6190  -30.1446 H   0  0  0  0  0  0  0  0  0  0  0  0
   -3.8816   24.5695  -27.9328 H   0  0  0  0  0  0  0  0  0  0  0  0
   -5.5318   24.5508  -28.6421 H   0  0  0  0  0  0  0  0  0  0  0  0
   -4.5372   23.0550  -28.6421 H   0  0  0  0  0  0  0  0  0  0  0  0
   -6.4293   23.5850  -30.2881 H   0  0  0  0  0  0  0  0  0  0  0  0
   -6.1648   25.2597  -31.0649 H   0  0  0  0  0  0  0  0  0  0  0  0
   -7.3958   24.7105  -32.6411 H   0  0  0  0  0  0  0  0  0  0  0  0
   -6.1416   23.3734  -33.0203 H   0  0  0  0  0  0  0  0  0  0  0  0
   -7.0578   21.9080  -30.5651 H   0  0  0  0  0  0  0  0  0  0  0  0
   -8.2896   23.1925  -30.2762 H   0  0  0  0  0  0  0  0  0  0  0  0
   -8.8405   20.4595  -30.2318 H   0  0  0  0  0  0  0  0  0  0  0  0
  -10.0641   21.7081  -30.5460 H   0  0  0  0  0  0  0  0  0  0  0  0
  -10.2095   20.2499  -32.4254 H   0  0  0  0  0  0  0  0  0  0  0  0
   -9.2323   21.6089  -33.0266 H   0  0  0  0  0  0  0  0  0  0  0  0
   -8.8761   18.4980  -31.0766 H   0  0  0  0  0  0  0  0  0  0  0  0
   -7.0468   16.8425  -31.3772 H   0  0  0  0  0  0  0  0  0  0  0  0
   -5.2793   17.2976  -33.0249 H   0  0  0  0  0  0  0  0  0  0  0  0
   -5.2856   19.3826  -34.4002 H   0  0  0  0  0  0  0  0  0  0  0  0
   -7.1566   21.0270  -34.0611 H   0  0  0  0  0  0  0  0  0  0  0  0
  1  2  1  0
  2  3  1  0
  3  4  1  0
  4  5  1  0
  3  6  1  0
  6  7  1  0
  7  8  1  0
  8  9  1  0
  9 10  1  0
 10 11  1  0
 11 12  1  0
 12 13  2  0
 13 14  1  0
 14 15  2  0
 15 16  1  0
 16 17  2  0
 17 12  1  0
  1 18  1  0
  1 19  1  0
  1 20  1  0
  2 21  1  0
  2 22  1  0
  4 23  1  0
  4 24  1  0
  5 25  1  0
  5 26  1  0
  5 27  1  0
  6 28  1  0
  6 29  1  0
  7 30  1  0
  7 31  1  0
  9 32  1  0
  9 33  1  0
 10 34  1  0
 10 35  1  0
 11 36  1  0
 11 37  1  0
 13 38  1  0
 14 39  1  0
 15 40  1  0
 16 41  1  0
 17 42  1  0
M  END
>  <smiles>  (21) 
CCN(CC)CCOCCCc1ccccc1

>  <score_type>  (21) 
oracle

>  <origin>  (21) 
adg

>  <m_score__min__energy>  (21) 
-6.5700000000000003

>  <m_primary>  (21) 
energy

$$$$
22:0
     RDKit          3D

 48 50  0  0  0  0  0  0  0  0999 V2000
   -0.1190   27.6030  -26.6760 C   0  0  0  0  0  0  0  0  0  0  0  0
   -1.3030   26.7960  -26.2100 C   0  0  0  0  0  0  0  0  0  0  0  0
   -1.2370   26.7600  -24.6800 C   0  0  0  0  0  0  0  0  0  0  0  0
   -1.2490   25.4320  -26.6600 N   0  0  0  0  0  0  0  0  0  0  0  0
   -1.2620   25.0630  -28.0440 C   0  0  0  0  0  0  0  0  0  0  0  0
   -1.3230   25.9110  -28.9710 O   0  0  0  0  0  0  0  0  0  0  0  0
   -1.1990   23.5910  -28.3180 C   0  0  0  0  0  0  0  0  0  0  0  0
   -1.9830   23.2160  -29.5160 C   0  0  0  0  0  0  0  0  0  0  0  0
   -3.2550   23.7470  -29.7320 C   0  0  0  0  0  0  0  0  0  0  0  0
   -3.9910   23.3990  -30.8470 C   0  0  0  0  0  0  0  0  0  0  0  0
   -5.6400   24.0890  -31.1300 S   0  0  0  0  0  0  0  0  0  0  0  0
   -6.7920   22.8000  -31.5580 C   0  0  0  0  0  0  0  0  0  0  0  0
   -8.1610   23.0300  -31.5720 C   0  0  0  0  0  0  0  0  0  0  0  0
   -8.9560   21.9640  -31.9200 C   0  0  0  0  0  0  0  0  0  0  0  0
   -8.4500   20.7230  -32.2410 C   0  0  0  0  0  0  0  0  0  0  0  0
   -9.4820   19.3670  -32.6850 Cl  0  0  0  0  0  0  0  0  0  0  0  0
   -7.0870   20.4910  -32.2270 C   0  0  0  0  0  0  0  0  0  0  0  0
   -6.2630   21.5540  -31.8790 C   0  0  0  0  0  0  0  0  0  0  0  0
   -3.4590   22.5360  -31.7270 N   0  0  0  0  0  0  0  0  0  0  0  0
   -2.2400   21.9980  -31.5630 N   0  0  0  0  0  0  0  0  0  0  0  0
   -1.7840   21.0950  -32.5630 C   0  0  0  0  0  0  0  0  0  0  0  0
   -2.3120   19.8680  -32.8050 C   0  0  0  0  0  0  0  0  0  0  0  0
   -1.7980   19.0620  -33.8000 C   0  0  0  0  0  0  0  0  0  0  0  0
   -0.7380   19.4300  -34.6020 C   0  0  0  0  0  0  0  0  0  0  0  0
   -0.1980   20.6880  -34.3530 C   0  0  0  0  0  0  0  0  0  0  0  0
   -0.7060   21.5110  -33.3530 C   0  0  0  0  0  0  0  0  0  0  0  0
   -1.5180   22.3320  -30.4790 C   0  0  0  0  0  0  0  0  0  0  0  0
   -0.3880   21.8490  -30.3070 O   0  0  0  0  0  0  0  0  0  0  0  0
    0.4342   27.9800  -25.8032 H   0  0  0  0  0  0  0  0  0  0  0  0
    0.5425   26.9669  -27.2825 H   0  0  0  0  0  0  0  0  0  0  0  0
   -0.4692   28.4512  -27.2825 H   0  0  0  0  0  0  0  0  0  0  0  0
   -2.2187   27.2577  -26.6078 H   0  0  0  0  0  0  0  0  0  0  0  0
   -2.1306   27.2474  -24.2629 H   0  0  0  0  0  0  0  0  0  0  0  0
   -1.1966   25.7149  -24.3392 H   0  0  0  0  0  0  0  0  0  0  0  0
   -0.3364   27.2919  -24.3392 H   0  0  0  0  0  0  0  0  0  0  0  0
   -1.1980   24.6910  -25.9040 H   0  0  0  0  0  0  0  0  0  0  0  0
   -0.1490   23.3039  -28.4765 H   0  0  0  0  0  0  0  0  0  0  0  0
   -1.6289   23.0656  -27.4525 H   0  0  0  0  0  0  0  0  0  0  0  0
   -3.6779   24.4537  -29.0028 H   0  0  0  0  0  0  0  0  0  0  0  0
   -8.5865   24.0121  -31.3183 H   0  0  0  0  0  0  0  0  0  0  0  0
  -10.0463   22.1081  -31.9433 H   0  0  0  0  0  0  0  0  0  0  0  0
   -6.6718   19.5046  -32.4811 H   0  0  0  0  0  0  0  0  0  0  0  0
   -5.1730   21.4079  -31.8569 H   0  0  0  0  0  0  0  0  0  0  0  0
   -3.1595   19.5122  -32.2008 H   0  0  0  0  0  0  0  0  0  0  0  0
   -2.2571   18.0756  -33.9619 H   0  0  0  0  0  0  0  0  0  0  0  0
   -0.3441   18.7703  -35.3892 H   0  0  0  0  0  0  0  0  0  0  0  0
    0.6492   21.0395  -34.9602 H   0  0  0  0  0  0  0  0  0  0  0  0
   -0.2555   22.4997  -33.1812 H   0  0  0  0  0  0  0  0  0  0  0  0
  1  2  1  0
  2  3  1  0
  2  4  1  0
  4  5  1  0
  5  6  2  0
  5  7  1  0
  7  8  1  0
  8  9  2  0
  9 10  1  0
 10 11  1  0
 11 12  1  0
 12 13  2  0
 13 14  1  0
 14 15  2  0
 15 16  1  0
 15 17  1  0
 17 18  2  0
 10 19  2  0
 19 20  1  0
 20 21  1  0
 21 22  2  0
 22 23  1  0
 23 24  2  0
 24 25  1  0
 25 26  2  0
 20 27  1  0
 27 28  2  0
 27  8  1  0
 18 12  1  0
 26 21  1  0
  1 29  1  0
  1 30  1  0
  1 31  1  0
  2 32  1  0
  3 33  1  0
  3 34  1  0
  3 35  1  0
  4 36  1  0
  7 37  1  0
  7 38  1  0
  9 39  1  0
 13 40  1  0
 14 41  1  0
 17 42  1  0
 18 43  1  0
 22 44  1  0
 23 45  1  0
 24 46  1  0
 25 47  1  0
 26 48  1  0
M  END
>  <smiles>  (22) 
CC(C)NC(=O)Cc1cc(Sc2ccc(Cl)cc2)nn(-c2ccccc2)c1=O

>  <score_type>  (22) 
oracle

>  <origin>  (22) 
adg

>  <m_score__min__energy>  (22) 
-9.1799999999999997

>  <m_primary>  (22) 
energy

$$$$
23:0
     RDKit          3D

 46 47  0  0  0  0  0  0  0  0999 V2000
   -3.2170   18.1870  -34.2090 C   0  0  0  0  0  0  0  0  0  0  0  0
   -4.6220   18.5390  -33.7890 C   0  0  0  0  0  0  0  0  0  0  0  0
   -5.5900   17.5590  -33.7490 C   0  0  0  0  0  0  0  0  0  0  0  0
   -6.8850   17.8460  -33.3680 C   0  0  0  0  0  0  0  0  0  0  0  0
   -7.1860   19.1480  -33.0270 C   0  0  0  0  0  0  0  0  0  0  0  0
   -8.5720   19.5260  -32.6050 C   0  0  0  0  0  0  0  0  0  0  0  0
   -8.5700   20.8970  -31.9610 C   0  0  0  0  0  0  0  0  0  0  0  0
   -9.1140   18.5550  -31.5770 C   0  0  0  0  0  0  0  0  0  0  0  0
   -6.2070   20.1130  -33.0710 C   0  0  0  0  0  0  0  0  0  0  0  0
   -4.9050   19.8680  -33.4450 C   0  0  0  0  0  0  0  0  0  0  0  0
   -3.8950   20.7600  -33.5130 O   0  0  0  0  0  0  0  0  0  0  0  0
   -3.6020   21.9240  -32.8540 C   0  0  0  0  0  0  0  0  0  0  0  0
   -4.2380   22.1820  -31.5390 C   0  0  0  0  0  0  0  0  0  0  0  0
   -4.7950   23.5330  -31.6010 N   0  0  0  0  0  0  0  0  0  0  0  0
   -6.1260   23.5660  -32.0850 C   0  0  0  0  0  0  0  0  0  0  0  0
   -7.1890   23.7820  -31.0510 C   0  0  0  0  0  0  0  0  0  0  0  0
   -6.8670   24.8940  -30.0860 C   0  0  0  0  0  0  0  0  0  0  0  0
   -5.4840   25.4780  -30.3820 C   0  0  0  0  0  0  0  0  0  0  0  0
   -4.5550   24.2840  -30.3990 C   0  0  0  0  0  0  0  0  0  0  0  0
   -2.5952   18.0312  -33.3151 H   0  0  0  0  0  0  0  0  0  0  0  0
   -3.2337   17.2653  -34.8091 H   0  0  0  0  0  0  0  0  0  0  0  0
   -2.7972   19.0077  -34.8091 H   0  0  0  0  0  0  0  0  0  0  0  0
   -5.3253   16.5279  -34.0261 H   0  0  0  0  0  0  0  0  0  0  0  0
   -7.6539   17.0600  -33.3372 H   0  0  0  0  0  0  0  0  0  0  0  0
   -9.1980   19.5134  -33.5094 H   0  0  0  0  0  0  0  0  0  0  0  0
   -8.5702   20.7879  -30.8664 H   0  0  0  0  0  0  0  0  0  0  0  0
   -7.6710   21.4480  -32.2745 H   0  0  0  0  0  0  0  0  0  0  0  0
   -9.4673   21.4507  -32.2745 H   0  0  0  0  0  0  0  0  0  0  0  0
   -8.9021   18.9346  -30.5666 H   0  0  0  0  0  0  0  0  0  0  0  0
  -10.2010   18.4503  -31.7089 H   0  0  0  0  0  0  0  0  0  0  0  0
   -8.6326   17.5748  -31.7089 H   0  0  0  0  0  0  0  0  0  0  0  0
   -6.4804   21.1410  -32.7909 H   0  0  0  0  0  0  0  0  0  0  0  0
   -2.5137   21.9400  -32.6951 H   0  0  0  0  0  0  0  0  0  0  0  0
   -4.0132   22.7087  -33.5060 H   0  0  0  0  0  0  0  0  0  0  0  0
   -5.0380   21.4499  -31.3544 H   0  0  0  0  0  0  0  0  0  0  0  0
   -3.5080   22.0915  -30.7212 H   0  0  0  0  0  0  0  0  0  0  0  0
   -6.1983   24.3818  -32.8194 H   0  0  0  0  0  0  0  0  0  0  0  0
   -6.3164   22.5679  -32.5063 H   0  0  0  0  0  0  0  0  0  0  0  0
   -8.1304   24.0274  -31.5644 H   0  0  0  0  0  0  0  0  0  0  0  0
   -7.2653   22.8545  -30.4645 H   0  0  0  0  0  0  0  0  0  0  0  0
   -7.6230   25.6872  -30.1827 H   0  0  0  0  0  0  0  0  0  0  0  0
   -6.8703   24.4890  -29.0633 H   0  0  0  0  0  0  0  0  0  0  0  0
   -5.4790   25.9866  -31.3573 H   0  0  0  0  0  0  0  0  0  0  0  0
   -5.1820   26.2281  -29.6362 H   0  0  0  0  0  0  0  0  0  0  0  0
   -3.5101   24.6272  -30.3789 H   0  0  0  0  0  0  0  0  0  0  0  0
   -4.7395   23.6519  -29.5179 H   0  0  0  0  0  0  0  0  0  0  0  0
  1  2  1  0
  2  3  2  0
  3  4  1  0
  4  5  2  0
  5  6  1  0
  6  7  1  0
  6  8  1  0
  5  9  1  0
  9 10  2  0
 10 11  1  0
 11 12  1  0
 12 13  1  0
 13 14  1  0
 14 15  1  0
 15 16  1  0
 16 17  1  0
 17 18  1  0
 18 19  1  0
 10  2  1  0
 19 14  1  0
  1 20  1  0
  1 21  1  0
  1 22  1  0
  3 23  1  0
  4 24  1  0
  6 25  1  0
  7 26  1  0
  7 27  1  0
  7 28  1  0
  8 29  1  0
  8 30  1  0
  8 31  1  0
  9 32  1  0
 12 33  1  0
 12 34  1  0
 13 35  1  0
 13 36  1  0
 15 37  1  0
 15 38  1  0
 16 39  1  0
 16 40  1  0
 17 41  1  0
 17 42  1  0
 18 43  1  0
 18 44  1  0
 19 45  1  0
 19 46  1  0
M  END
>  <smiles>  (23) 
Cc1ccc(C(C)C)cc1OCCN1CCCCC1

>  <score_type>  (23) 
oracle

>  <origin>  (23) 
adg

>  <m_score__min__energy>  (23) 
-7.8399999999999999

>  <m_primary>  (23) 
energy

$$$$
