0:0
     RDKit          3D

 41 43  0  0  0  0  0  0  0  0999 V2000
   -6.6210   17.5630  -31.8900 C   0  0  0  0  0  0  0  0  0  0  0  0
   -7.2200   18.9320  -31.8260 C   0  0  0  0  0  0  0  0  0  0  0  0
   -6.4150   20.0640  -31.9830 C   0  0  0  0  0  0  0  0  0  0  0  0
   -7.0080   21.3310  -31.8960 C   0  0  0  0  0  0  0  0  0  0  0  0
   -6.2080   22.5230  -32.0270 N   0  0  0  0  0  0  0  0  0  0  0  0
   -6.7110   23.8030  -31.5210 C   0  0  0  0  0  0  0  0  0  0  0  0
   -5.5440   24.7580  -31.2140 C   0  0  0  0  0  0  0  0  0  0  0  0
   -4.3770   24.0310  -30.6660 N   0  0  0  0  0  0  0  0  0  0  0  0
   -4.6670   23.4440  -29.3400 C   0  0  0  0  0  0  0  0  0  0  0  0
   -3.3850   23.1940  -28.5860 C   0  0  0  0  0  0  0  0  0  0  0  0
   -3.2100   22.0040  -27.8590 C   0  0  0  0  0  0  0  0  0  0  0  0
   -2.0160   21.7680  -27.1690 C   0  0  0  0  0  0  0  0  0  0  0  0
   -1.8550   20.6160  -26.4710 F   0  0  0  0  0  0  0  0  0  0  0  0
   -0.9900   22.7180  -27.2000 C   0  0  0  0  0  0  0  0  0  0  0  0
    0.1680   22.4900  -26.5330 F   0  0  0  0  0  0  0  0  0  0  0  0
   -1.1570   23.9030  -27.9210 C   0  0  0  0  0  0  0  0  0  0  0  0
   -2.3480   24.1430  -28.6130 C   0  0  0  0  0  0  0  0  0  0  0  0
   -2.4900   25.2990  -29.3100 F   0  0  0  0  0  0  0  0  0  0  0  0
   -3.8260   23.0330  -31.6240 C   0  0  0  0  0  0  0  0  0  0  0  0
   -4.8680   22.4850  -32.6190 C   0  0  0  0  0  0  0  0  0  0  0  0
   -8.3440   21.4260  -31.6400 N   0  0  0  0  0  0  0  0  0  0  0  0
   -9.1090   20.3130  -31.4860 C   0  0  0  0  0  0  0  0  0  0  0  0
   -8.5470   19.0800  -31.5770 N   0  0  0  0  0  0  0  0  0  0  0  0
   -6.4564   17.1867  -30.8695 H   0  0  0  0  0  0  0  0  0  0  0  0
   -7.3059   16.8877  -32.4238 H   0  0  0  0  0  0  0  0  0  0  0  0
   -5.6602   17.6077  -32.4238 H   0  0  0  0  0  0  0  0  0  0  0  0
   -5.3360   19.9623  -32.1714 H   0  0  0  0  0  0  0  0  0  0  0  0
   -7.3633   24.2607  -32.2793 H   0  0  0  0  0  0  0  0  0  0  0  0
   -7.2753   23.6219  -30.5943 H   0  0  0  0  0  0  0  0  0  0  0  0
   -5.2446   25.2663  -32.1424 H   0  0  0  0  0  0  0  0  0  0  0  0
   -5.8822   25.4848  -30.4608 H   0  0  0  0  0  0  0  0  0  0  0  0
   -5.2963   24.1394  -28.7652 H   0  0  0  0  0  0  0  0  0  0  0  0
   -5.1922   22.4876  -29.4794 H   0  0  0  0  0  0  0  0  0  0  0  0
   -4.0152   21.2550  -27.8324 H   0  0  0  0  0  0  0  0  0  0  0  0
   -0.3492   24.6493  -27.9443 H   0  0  0  0  0  0  0  0  0  0  0  0
   -3.0177   23.5113  -32.1966 H   0  0  0  0  0  0  0  0  0  0  0  0
   -3.4714   22.1789  -31.0284 H   0  0  0  0  0  0  0  0  0  0  0  0
   -4.8569   23.1000  -33.5310 H   0  0  0  0  0  0  0  0  0  0  0  0
   -4.6149   21.4427  -32.8632 H   0  0  0  0  0  0  0  0  0  0  0  0
   -8.8010   22.3630  -31.5710 H   0  0  0  0  0  0  0  0  0  0  0  0
  -10.1864   20.4113  -31.2871 H   0  0  0  0  0  0  0  0  0  0  0  0
  1  2  1  0
  2  3  2  0
  3  4  1  0
  4  5  1  0
  5  6  1  0
  6  7  1  0
  7  8  1  0
  8  9  1  0
  9 10  1  0
 10 11  2  0
 11 12  1  0
 12 13  1  0
 12 14  2  0
 14 15  1  0
 14 16  1  0
 16 17  2  0
 17 18  1  0
  8 19  1  0
 19 20  1  0
  4 21  2  0
 21 22  1  0
 22 23  2  0
 23  2  1  0
 20  5  1  0
 17 10  1  0
  1 24  1  0
  1 25  1  0
  1 26  1  0
  3 27  1  0
  6 28  1  0
  6 29  1  0
  7 30  1  0
  7 31  1  0
  9 32  1  0
  9 33  1  0
 11 34  1  0
 16 35  1  0
 19 36  1  0
 19 37  1  0
 20 38  1  0
 20 39  1  0
 21 40  1  0
 22 41  1  0
M  CHG  1  21   1
M  END
>  <UniqueID>  (1) 
1

>  <SMILES>  (1) 
Cc1cc(N2CCN(Cc3cc(F)c(F)cc3F)CC2)[nH+]cn1

>  <Energy>  (1) 
53.15105871930149

>  <Genealogy>  (1) 
Cc1cc(N2CCN(Cc3cc(F)c(F)cc3F)CC2)[nH+]cn1 (protonated)
Cc1cc(N2CCN(Cc3cc(F)c(F)cc3F)CC2)[nH+]cn1 (3D coordinates assigned)
Cc1cc(N2CCN(Cc3cc(F)c(F)cc3F)CC2)[nH+]cn1 (nonaromatic ring conformer: 53.15105871930149 kcal/mol)

>  <smiles>  (1) 
Cc1cc(N2CCN(Cc3cc(F)c(F)cc3F)CC2)ncn1

>  <score_type>  (1) 
oracle

>  <origin>  (1) 
adg

>  <m_score__min__energy>  (1) 
-6.5800000000000001

>  <m_primary>  (1) 
energy

$$$$
1:0
     RDKit          3D

 25 25  0  0  0  0  0  0  0  0999 V2000
   -6.1110   17.1410  -31.8560 C   0  0  0  0  0  0  0  0  0  0  0  0
   -6.6650   17.5220  -33.1630 N   0  0  0  0  0  0  0  0  0  0  0  0
   -6.1830   16.6170  -34.2190 C   0  0  0  0  0  0  0  0  0  0  0  0
   -6.3000   18.8810  -33.4750 C   0  0  0  0  0  0  0  0  0  0  0  0
   -6.0910   19.2110  -34.6750 O   0  0  0  0  0  0  0  0  0  0  0  0
   -6.2530   19.8410  -32.4530 O   0  0  0  0  0  0  0  0  0  0  0  0
   -7.1440   20.9160  -32.3060 C   0  0  0  0  0  0  0  0  0  0  0  0
   -6.7040   22.2530  -32.3400 C   0  0  0  0  0  0  0  0  0  0  0  0
   -7.6150   23.3020  -32.1780 C   0  0  0  0  0  0  0  0  0  0  0  0
   -8.9680   23.0280  -31.9690 C   0  0  0  0  0  0  0  0  0  0  0  0
   -9.4140   21.7050  -31.9130 C   0  0  0  0  0  0  0  0  0  0  0  0
   -8.5060   20.6490  -32.0740 C   0  0  0  0  0  0  0  0  0  0  0  0
   -8.9830   19.2900  -32.0130 C   0  0  0  0  0  0  0  0  0  0  0  0
   -9.3670   18.1990  -31.9660 N   0  0  0  0  0  0  0  0  0  0  0  0
   -6.7327   17.5685  -31.0555 H   0  0  0  0  0  0  0  0  0  0  0  0
   -6.1018   16.0446  -31.7672 H   0  0  0  0  0  0  0  0  0  0  0  0
   -5.0839   17.5247  -31.7672 H   0  0  0  0  0  0  0  0  0  0  0  0
   -7.7090   17.4420  -33.1160 H   0  0  0  0  0  0  0  0  0  0  0  0
   -5.7132   15.7348  -33.7596 H   0  0  0  0  0  0  0  0  0  0  0  0
   -7.0305   16.2977  -34.8433 H   0  0  0  0  0  0  0  0  0  0  0  0
   -5.4451   17.1421  -34.8433 H   0  0  0  0  0  0  0  0  0  0  0  0
   -5.6376   22.4739  -32.4949 H   0  0  0  0  0  0  0  0  0  0  0  0
   -7.2650   24.3442  -32.2153 H   0  0  0  0  0  0  0  0  0  0  0  0
   -9.6837   23.8546  -31.8483 H   0  0  0  0  0  0  0  0  0  0  0  0
  -10.4795   21.4916  -31.7423 H   0  0  0  0  0  0  0  0  0  0  0  0
  1  2  1  0
  2  3  1  0
  2  4  1  0
  4  5  2  0
  4  6  1  0
  6  7  1  0
  7  8  2  0
  8  9  1  0
  9 10  2  0
 10 11  1  0
 11 12  2  0
 12 13  1  0
 13 14  3  0
 12  7  1  0
  1 15  1  0
  1 16  1  0
  1 17  1  0
  2 18  1  0
  3 19  1  0
  3 20  1  0
  3 21  1  0
  8 22  1  0
  9 23  1  0
 10 24  1  0
 11 25  1  0
M  CHG  1   2   1
M  END
>  <UniqueID>  (2) 
2

>  <SMILES>  (2) 
C[NH+](C)C(=O)Oc1ccccc1C#N

>  <Energy>  (2) 
26.873229510745944

>  <Genealogy>  (2) 
C[NH+](C)C(=O)Oc1ccccc1C#N (protonated)
C[NH+](C)C(=O)Oc1ccccc1C#N (3D coordinates assigned)
C[NH+](C)C(=O)Oc1ccccc1C#N (optimized conformer: 26.873229510745944 kcal/mol)

>  <smiles>  (2) 
CN(C)C(=O)Oc1ccccc1C#N

>  <score_type>  (2) 
oracle

>  <origin>  (2) 
adg

>  <m_score__min__energy>  (2) 
-4.8399999999999999

>  <m_primary>  (2) 
energy

$$$$
2:0
     RDKit          3D

 65 68  0  0  1  0  0  0  0  0999 V2000
   -5.8210   24.9800  -30.3400 C   0  0  0  0  0  0  0  0  0  0  0  0
   -5.4940   24.5230  -31.6060 O   0  0  0  0  0  0  0  0  0  0  0  0
   -6.2790   23.5050  -32.0720 C   0  0  2  0  0  0  0  0  0  0  0  0
   -7.5500   23.5460  -31.2060 C   0  0  0  0  0  0  0  0  0  0  0  0
   -8.7960   23.4520  -32.0450 C   0  0  0  0  0  0  0  0  0  0  0  0
   -9.2110   21.9760  -31.9890 C   0  0  0  0  0  0  0  0  0  0  0  0
   -8.0390   21.2680  -31.3460 C   0  0  0  0  0  0  0  0  0  0  0  0
   -6.8610   21.0870  -32.2330 C   0  0  0  0  0  0  0  0  0  0  0  0
   -5.7460   22.1260  -31.9840 C   0  0  1  0  0  0  0  0  0  0  0  0
   -4.6900   21.7450  -32.8370 N   0  0  0  0  0  0  0  0  0  0  0  0
   -3.7610   20.7510  -32.3960 C   0  0  0  0  0  0  0  0  0  0  0  0
   -2.8650   21.3990  -31.3710 C   0  0  0  0  0  0  0  0  0  0  0  0
   -1.5640   21.8910  -31.9480 C   0  0  0  0  0  0  0  0  0  0  0  0
   -0.9920   20.9770  -32.9040 N   0  0  0  0  0  0  0  0  0  0  0  0
    0.3080   20.4290  -32.8340 C   0  0  0  0  0  0  0  0  0  0  0  0
    1.2080   20.4120  -33.8730 C   0  0  0  0  0  0  0  0  0  0  0  0
    2.4780   19.8600  -33.7530 C   0  0  0  0  0  0  0  0  0  0  0  0
    2.8280   19.3310  -32.5890 N   0  0  0  0  0  0  0  0  0  0  0  0
    1.9690   19.3350  -31.5580 C   0  0  0  0  0  0  0  0  0  0  0  0
    2.2830   18.8260  -30.4110 N   0  0  0  0  0  0  0  0  0  0  0  0
    1.3240   18.6410  -29.3750 C   0  0  0  0  0  0  0  0  0  0  0  0
    1.2990   17.3760  -28.7890 C   0  0  0  0  0  0  0  0  0  0  0  0
    0.4020   17.0840  -27.7680 C   0  0  0  0  0  0  0  0  0  0  0  0
   -0.4640   18.0920  -27.3510 C   0  0  0  0  0  0  0  0  0  0  0  0
   -1.3510   17.8500  -26.3600 F   0  0  0  0  0  0  0  0  0  0  0  0
   -0.4320   19.3570  -27.9430 C   0  0  0  0  0  0  0  0  0  0  0  0
   -1.3860   20.3720  -27.4420 C   0  0  0  0  0  0  0  0  0  0  0  0
   -1.1020   21.6340  -27.9400 F   0  0  0  0  0  0  0  0  0  0  0  0
   -2.6880   20.0530  -27.7020 F   0  0  0  0  0  0  0  0  0  0  0  0
   -1.2250   20.4590  -26.0620 F   0  0  0  0  0  0  0  0  0  0  0  0
    0.4620   19.6270  -28.9530 C   0  0  0  0  0  0  0  0  0  0  0  0
    0.7390   19.8680  -31.6690 N   0  0  0  0  0  0  0  0  0  0  0  0
   -1.8540   20.6010  -34.0340 C   0  0  0  0  0  0  0  0  0  0  0  0
   -3.0730   19.9740  -33.4390 C   0  0  0  0  0  0  0  0  0  0  0  0
   -5.3560   24.3301  -29.5841 H   0  0  0  0  0  0  0  0  0  0  0  0
   -5.4529   26.0091  -30.2152 H   0  0  0  0  0  0  0  0  0  0  0  0
   -6.9138   24.9638  -30.2152 H   0  0  0  0  0  0  0  0  0  0  0  0
   -6.3998   23.6841  -33.1506 H   0  0  0  0  0  0  0  0  0  0  0  0
   -7.5294   22.7012  -30.5018 H   0  0  0  0  0  0  0  0  0  0  0  0
   -7.5690   24.5055  -30.6685 H   0  0  0  0  0  0  0  0  0  0  0  0
   -9.5891   24.0913  -31.6300 H   0  0  0  0  0  0  0  0  0  0  0  0
   -8.6221   23.7904  -33.0771 H   0  0  0  0  0  0  0  0  0  0  0  0
  -10.1194   21.8519  -31.3811 H   0  0  0  0  0  0  0  0  0  0  0  0
   -9.4434   21.5724  -32.9855 H   0  0  0  0  0  0  0  0  0  0  0  0
   -7.7223   21.8546  -30.4710 H   0  0  0  0  0  0  0  0  0  0  0  0
   -8.3903   20.2586  -31.0858 H   0  0  0  0  0  0  0  0  0  0  0  0
   -6.4467   20.0822  -32.0632 H   0  0  0  0  0  0  0  0  0  0  0  0
   -7.2078   21.2217  -33.2682 H   0  0  0  0  0  0  0  0  0  0  0  0
   -5.3347   22.1407  -30.9639 H   0  0  0  0  0  0  0  0  0  0  0  0
   -5.0150   21.5810  -33.7920 H   0  0  0  0  0  0  0  0  0  0  0  0
   -4.3280   19.9305  -31.9320 H   0  0  0  0  0  0  0  0  0  0  0  0
   -3.3984   22.2546  -30.9312 H   0  0  0  0  0  0  0  0  0  0  0  0
   -2.6211   20.6340  -30.6192 H   0  0  0  0  0  0  0  0  0  0  0  0
   -1.7439   22.8542  -32.4478 H   0  0  0  0  0  0  0  0  0  0  0  0
   -0.8503   21.9876  -31.1166 H   0  0  0  0  0  0  0  0  0  0  0  0
    0.9117   20.8522  -34.8365 H   0  0  0  0  0  0  0  0  0  0  0  0
    3.1758   19.8621  -34.6034 H   0  0  0  0  0  0  0  0  0  0  0  0
    3.7600   18.9080  -32.4470 H   0  0  0  0  0  0  0  0  0  0  0  0
    1.9967   16.6007  -29.1385 H   0  0  0  0  0  0  0  0  0  0  0  0
    0.3769   16.0872  -27.3035 H   0  0  0  0  0  0  0  0  0  0  0  0
    0.4876   20.6229  -29.4194 H   0  0  0  0  0  0  0  0  0  0  0  0
   -2.1296   21.4926  -34.6164 H   0  0  0  0  0  0  0  0  0  0  0  0
   -1.3400   19.9083  -34.7167 H   0  0  0  0  0  0  0  0  0  0  0  0
   -3.7907   19.7968  -34.2536 H   0  0  0  0  0  0  0  0  0  0  0  0
   -2.7194   19.0600  -32.9395 H   0  0  0  0  0  0  0  0  0  0  0  0
  1  2  1  0
  2  3  1  0
  3  4  1  0
  4  5  1  0
  5  6  1  0
  6  7  1  0
  7  8  1  0
  8  9  1  0
  9 10  1  0
 10 11  1  0
 11 12  1  0
 12 13  1  0
 13 14  1  0
 14 15  1  0
 15 16  1  0
 16 17  2  0
 17 18  1  0
 18 19  1  0
 19 20  2  0
 20 21  1  0
 21 22  2  0
 22 23  1  0
 23 24  2  0
 24 25  1  0
 24 26  1  0
 26 27  1  0
 27 28  1  0
 27 29  1  0
 27 30  1  0
 26 31  2  0
 19 32  1  0
 14 33  1  0
 33 34  1  0
  9  3  1  0
 34 11  1  0
 32 15  2  0
 31 21  1  0
  1 35  1  0
  1 36  1  0
  1 37  1  0
  3 38  1  6
  4 39  1  0
  4 40  1  0
  5 41  1  0
  5 42  1  0
  6 43  1  0
  6 44  1  0
  7 45  1  0
  7 46  1  0
  8 47  1  0
  8 48  1  0
  9 49  1  1
 10 50  1  0
 11 51  1  0
 12 52  1  0
 12 53  1  0
 13 54  1  0
 13 55  1  0
 16 56  1  0
 17 57  1  0
 18 58  1  0
 22 59  1  0
 23 60  1  0
 31 61  1  0
 33 62  1  0
 33 63  1  0
 34 64  1  0
 34 65  1  0
M  END
>  <smiles>  (3) 
COC1CCCCCC1NC1CCN(c2cc[nH]c(=Nc3ccc(F)c(C(F)(F)F)c3)n2)CC1

>  <score_type>  (3) 
oracle

>  <origin>  (3) 
adg

>  <m_score__min__energy>  (3) 
-8.3900000000000006

>  <m_primary>  (3) 
energy

$$$$
3:0
     RDKit          3D

 40 42  0  0  0  0  0  0  0  0999 V2000
   -4.2280   21.9450  -27.6030 F   0  0  0  0  0  0  0  0  0  0  0  0
   -3.8960   23.2280  -27.9990 C   0  0  0  0  0  0  0  0  0  0  0  0
   -4.2710   24.1200  -27.0120 F   0  0  0  0  0  0  0  0  0  0  0  0
   -2.5250   23.3020  -28.1740 F   0  0  0  0  0  0  0  0  0  0  0  0
   -4.6080   23.5600  -29.2770 C   0  0  0  0  0  0  0  0  0  0  0  0
   -4.3050   24.7300  -29.9820 C   0  0  0  0  0  0  0  0  0  0  0  0
   -4.9570   25.0000  -31.1410 N   0  0  0  0  0  0  0  0  0  0  0  0
   -5.9090   24.1630  -31.6310 C   0  0  0  0  0  0  0  0  0  0  0  0
   -6.2320   22.9900  -30.9250 C   0  0  0  0  0  0  0  0  0  0  0  0
   -7.2480   22.0210  -31.3990 C   0  0  0  0  0  0  0  0  0  0  0  0
   -8.6290   22.2230  -31.2160 C   0  0  0  0  0  0  0  0  0  0  0  0
   -9.5310   21.2590  -31.6710 C   0  0  0  0  0  0  0  0  0  0  0  0
   -9.0630   20.1060  -32.2990 C   0  0  0  0  0  0  0  0  0  0  0  0
   -7.6840   19.9300  -32.4690 C   0  0  0  0  0  0  0  0  0  0  0  0
   -7.1450   18.6810  -33.0960 C   0  0  0  0  0  0  0  0  0  0  0  0
   -5.9600   19.0090  -33.8990 N   0  0  0  0  0  0  0  0  0  0  0  0
   -4.9000   17.9940  -33.7810 C   0  0  0  0  0  0  0  0  0  0  0  0
   -3.4780   18.5790  -33.8250 C   0  0  0  0  0  0  0  0  0  0  0  0
   -3.4000   19.8420  -33.0970 N   0  0  0  0  0  0  0  0  0  0  0  0
   -2.9000   20.0170  -31.8580 C   0  0  0  0  0  0  0  0  0  0  0  0
   -3.0440   21.3430  -31.5170 C   0  0  0  0  0  0  0  0  0  0  0  0
   -3.6510   21.9250  -32.6140 C   0  0  0  0  0  0  0  0  0  0  0  0
   -3.8610   20.9920  -33.5630 N   0  0  0  0  0  0  0  0  0  0  0  0
   -6.8230   20.8770  -32.0060 N   0  0  0  0  0  0  0  0  0  0  0  0
   -5.5600   22.7230  -29.7710 N   0  0  0  0  0  0  0  0  0  0  0  0
   -3.5438   25.4259  -29.5995 H   0  0  0  0  0  0  0  0  0  0  0  0
   -6.4236   24.4013  -32.5736 H   0  0  0  0  0  0  0  0  0  0  0  0
   -8.9948   23.1332  -30.7184 H   0  0  0  0  0  0  0  0  0  0  0  0
  -10.6119   21.4097  -31.5337 H   0  0  0  0  0  0  0  0  0  0  0  0
   -9.7692   19.3425  -32.6572 H   0  0  0  0  0  0  0  0  0  0  0  0
   -6.8675   17.9654  -32.3081 H   0  0  0  0  0  0  0  0  0  0  0  0
   -7.9142   18.2338  -33.7428 H   0  0  0  0  0  0  0  0  0  0  0  0
   -5.5910   19.9440  -33.6080 H   0  0  0  0  0  0  0  0  0  0  0  0
   -5.0292   17.4661  -32.8246 H   0  0  0  0  0  0  0  0  0  0  0  0
   -4.9990   17.3227  -34.6468 H   0  0  0  0  0  0  0  0  0  0  0  0
   -2.7807   17.8599  -33.3703 H   0  0  0  0  0  0  0  0  0  0  0  0
   -3.2131   18.7676  -34.8758 H   0  0  0  0  0  0  0  0  0  0  0  0
   -2.4533   19.2344  -31.2271 H   0  0  0  0  0  0  0  0  0  0  0  0
   -2.7425   21.8315  -30.5787 H   0  0  0  0  0  0  0  0  0  0  0  0
   -3.9214   22.9878  -32.6992 H   0  0  0  0  0  0  0  0  0  0  0  0
  1  2  1  0
  2  3  1  0
  2  4  1  0
  2  5  1  0
  5  6  2  0
  6  7  1  0
  7  8  2  0
  8  9  1  0
  9 10  1  0
 10 11  2  0
 11 12  1  0
 12 13  2  0
 13 14  1  0
 14 15  1  0
 15 16  1  0
 16 17  1  0
 17 18  1  0
 18 19  1  0
 19 20  1  0
 20 21  2  0
 21 22  1  0
 22 23  2  0
 14 24  2  0
  9 25  2  0
 25  5  1  0
 24 10  1  0
 23 19  1  0
  6 26  1  0
  8 27  1  0
 11 28  1  0
 12 29  1  0
 13 30  1  0
 15 31  1  0
 15 32  1  0
 16 33  1  0
 17 34  1  0
 17 35  1  0
 18 36  1  0
 18 37  1  0
 20 38  1  0
 21 39  1  0
 22 40  1  0
M  END
>  <UniqueID>  (4) 
3

>  <SMILES>  (4) 
FC(F)(F)c1cncc(-c2cccc(CNCCn3cccn3)n2)n1

>  <Energy>  (4) 
72.80907177229822

>  <Genealogy>  (4) 
FC(F)(F)c1cncc(-c2cccc(CNCCn3cccn3)n2)n1 (3D coordinates assigned)
FC(F)(F)c1cncc(-c2cccc(CNCCn3cccn3)n2)n1 (optimized conformer: 72.80907177229822 kcal/mol)

>  <smiles>  (4) 
FC(F)(F)c1cncc(-c2cccc(CNCCn3cccn3)n2)n1

>  <score_type>  (4) 
oracle

>  <origin>  (4) 
adg

>  <m_score__min__energy>  (4) 
-7.2699999999999996

>  <m_primary>  (4) 
energy

$$$$
4:0
     RDKit          3D

 60 63  0  0  0  0  0  0  0  0999 V2000
    1.6370   24.6430  -25.4810 C   0  0  0  0  0  0  0  0  0  0  0  0
    0.2600   25.0540  -24.9380 C   0  0  0  0  0  0  0  0  0  0  0  0
   -0.5210   23.8020  -24.5030 C   0  0  0  0  0  0  0  0  0  0  0  0
    0.4690   25.8810  -23.7450 N   0  0  0  0  0  0  0  0  0  0  0  0
    0.3980   27.1770  -23.7430 C   0  0  0  0  0  0  0  0  0  0  0  0
    0.6710   27.8940  -22.5400 N   0  0  0  0  0  0  0  0  0  0  0  0
    0.0140   27.8840  -24.9270 N   0  0  0  0  0  0  0  0  0  0  0  0
   -0.4230   27.2560  -25.9770 C   0  0  0  0  0  0  0  0  0  0  0  0
   -0.8640   28.0110  -27.1160 N   0  0  0  0  0  0  0  0  0  0  0  0
   -0.4800   25.8120  -25.9750 N   0  0  0  0  0  0  0  0  0  0  0  0
   -1.1030   25.1260  -27.0770 C   0  0  0  0  0  0  0  0  0  0  0  0
   -2.4930   24.9560  -27.1140 C   0  0  0  0  0  0  0  0  0  0  0  0
   -3.0880   24.2680  -28.1750 C   0  0  0  0  0  0  0  0  0  0  0  0
   -2.2990   23.7400  -29.2100 C   0  0  0  0  0  0  0  0  0  0  0  0
   -2.9400   22.9630  -30.3300 C   0  0  0  0  0  0  0  0  0  0  0  0
   -4.4700   23.0230  -30.2580 C   0  0  0  0  0  0  0  0  0  0  0  0
   -4.9930   24.0010  -31.2240 N   0  0  0  0  0  0  0  0  0  0  0  0
   -5.6120   23.3560  -32.3920 C   0  0  0  0  0  0  0  0  0  0  0  0
   -7.1480   23.4080  -32.3470 C   0  0  0  0  0  0  0  0  0  0  0  0
   -7.7030   22.0960  -31.8800 C   0  0  0  0  0  0  0  0  0  0  0  0
   -8.7240   21.9100  -30.9510 C   0  0  0  0  0  0  0  0  0  0  0  0
   -9.0160   20.5950  -30.8290 N   0  0  0  0  0  0  0  0  0  0  0  0
   -8.1980   19.9510  -31.6810 C   0  0  0  0  0  0  0  0  0  0  0  0
   -8.1410   18.5800  -31.9230 C   0  0  0  0  0  0  0  0  0  0  0  0
   -7.2170   18.1190  -32.8790 C   0  0  0  0  0  0  0  0  0  0  0  0
   -6.3830   19.0300  -33.5660 C   0  0  0  0  0  0  0  0  0  0  0  0
   -6.4650   20.4090  -33.3020 C   0  0  0  0  0  0  0  0  0  0  0  0
   -7.3860   20.8350  -32.3450 C   0  0  0  0  0  0  0  0  0  0  0  0
   -0.9040   23.8970  -29.1590 C   0  0  0  0  0  0  0  0  0  0  0  0
   -0.3100   24.5850  -28.0970 C   0  0  0  0  0  0  0  0  0  0  0  0
    2.3169   24.4401  -24.6405 H   0  0  0  0  0  0  0  0  0  0  0  0
    1.5332   23.7367  -26.0957 H   0  0  0  0  0  0  0  0  0  0  0  0
    2.0469   25.4579  -26.0957 H   0  0  0  0  0  0  0  0  0  0  0  0
   -0.5519   23.7524  -23.4046 H   0  0  0  0  0  0  0  0  0  0  0  0
   -1.5468   23.8545  -24.8967 H   0  0  0  0  0  0  0  0  0  0  0  0
   -0.0227   22.9038  -24.8967 H   0  0  0  0  0  0  0  0  0  0  0  0
    0.6040   28.9370  -22.5180 H   0  0  0  0  0  0  0  0  0  0  0  0
    0.9400   27.3870  -21.6690 H   0  0  0  0  0  0  0  0  0  0  0  0
    0.0420   28.9300  -24.9160 H   0  0  0  0  0  0  0  0  0  0  0  0
   -1.2290   27.5500  -27.9770 H   0  0  0  0  0  0  0  0  0  0  0  0
   -0.8250   29.0550  -27.1070 H   0  0  0  0  0  0  0  0  0  0  0  0
   -3.1176   25.3650  -26.3061 H   0  0  0  0  0  0  0  0  0  0  0  0
   -4.1802   24.1393  -28.1996 H   0  0  0  0  0  0  0  0  0  0  0  0
   -2.6114   23.3858  -31.2909 H   0  0  0  0  0  0  0  0  0  0  0  0
   -2.6332   21.9108  -30.2370 H   0  0  0  0  0  0  0  0  0  0  0  0
   -4.8825   22.0298  -30.4890 H   0  0  0  0  0  0  0  0  0  0  0  0
   -4.7667   23.3304  -29.2444 H   0  0  0  0  0  0  0  0  0  0  0  0
   -4.2110   24.6140  -31.5500 H   0  0  0  0  0  0  0  0  0  0  0  0
   -5.2680   23.8692  -33.3021 H   0  0  0  0  0  0  0  0  0  0  0  0
   -5.3127   22.2975  -32.3875 H   0  0  0  0  0  0  0  0  0  0  0  0
   -7.4634   24.2020  -31.6541 H   0  0  0  0  0  0  0  0  0  0  0  0
   -7.5273   23.6156  -33.3585 H   0  0  0  0  0  0  0  0  0  0  0  0
   -9.2222   22.7181  -30.3953 H   0  0  0  0  0  0  0  0  0  0  0  0
   -9.7410   20.1710  -30.2090 H   0  0  0  0  0  0  0  0  0  0  0  0
   -8.7971   17.8806  -31.3841 H   0  0  0  0  0  0  0  0  0  0  0  0
   -7.1433   17.0425  -33.0930 H   0  0  0  0  0  0  0  0  0  0  0  0
   -5.6652   18.6581  -34.3119 H   0  0  0  0  0  0  0  0  0  0  0  0
   -5.8238   21.1281  -33.8329 H   0  0  0  0  0  0  0  0  0  0  0  0
   -0.2762   23.4766  -29.9584 H   0  0  0  0  0  0  0  0  0  0  0  0
    0.7832   24.7019  -28.0622 H   0  0  0  0  0  0  0  0  0  0  0  0
  1  2  1  0
  2  3  1  0
  2  4  1  0
  4  5  2  0
  5  6  1  0
  5  7  1  0
  7  8  2  0
  8  9  1  0
  8 10  1  0
 10 11  1  0
 11 12  2  0
 12 13  1  0
 13 14  2  0
 14 15  1  0
 15 16  1  0
 16 17  1  0
 17 18  1  0
 18 19  1  0
 19 20  1  0
 20 21  2  0
 21 22  1  0
 22 23  1  0
 23 24  2  0
 24 25  1  0
 25 26  2  0
 26 27  1  0
 27 28  2  0
 14 29  1  0
 29 30  2  0
 10  2  1  0
 30 11  1  0
 28 20  1  0
 28 23  1  0
  1 31  1  0
  1 32  1  0
  1 33  1  0
  3 34  1  0
  3 35  1  0
  3 36  1  0
  6 37  1  0
  6 38  1  0
  7 39  1  0
  9 40  1  0
  9 41  1  0
 12 42  1  0
 13 43  1  0
 15 44  1  0
 15 45  1  0
 16 46  1  0
 16 47  1  0
 17 48  1  0
 18 49  1  0
 18 50  1  0
 19 51  1  0
 19 52  1  0
 21 53  1  0
 22 54  1  0
 24 55  1  0
 25 56  1  0
 26 57  1  0
 27 58  1  0
 29 59  1  0
 30 60  1  0
M  CHG  1   7   1
M  END
>  <UniqueID>  (5) 
4

>  <SMILES>  (5) 
CC1(C)N=C(N)[NH+]=C(N)N1c1ccc(CCNCCc2c[nH]c3ccccc23)cc1

>  <Energy>  (5) 
94.83461489727895

>  <Genealogy>  (5) 
CC1(C)N=C(N)[NH+]=C(N)N1c1ccc(CCNCCc2c[nH]c3ccccc23)cc1 (protonated)
CC1(C)N=C(N)[NH+]=C(N)N1c1ccc(CCNCCc2c[nH]c3ccccc23)cc1 (3D coordinates assigned)
CC1(C)N=C(N)[NH+]=C(N)N1c1ccc(CCNCCc2c[nH]c3ccccc23)cc1 (nonaromatic ring conformer: 94.83461489727895 kcal/mol)

>  <smiles>  (5) 
CC1(C)N=C(N)N=C(N)N1c1ccc(CCNCCc2c[nH]c3ccccc23)cc1

>  <score_type>  (5) 
oracle

>  <origin>  (5) 
adg

>  <m_score__min__energy>  (5) 
-9.3800000000000008

>  <m_primary>  (5) 
energy

$$$$
5:0
     RDKit          3D

 59 62  0  0  0  0  0  0  0  0999 V2000
    1.9480   18.8510  -31.8300 C   0  0  0  0  0  0  0  0  0  0  0  0
    1.0800   19.8720  -32.3130 O   0  0  0  0  0  0  0  0  0  0  0  0
    1.1060   20.4020  -33.6110 C   0  0  0  0  0  0  0  0  0  0  0  0
    2.3120   20.7830  -34.2320 C   0  0  0  0  0  0  0  0  0  0  0  0
    2.3020   21.3470  -35.5110 C   0  0  0  0  0  0  0  0  0  0  0  0
    1.0940   21.5370  -36.1840 C   0  0  0  0  0  0  0  0  0  0  0  0
   -0.1100   21.1540  -35.5830 C   0  0  0  0  0  0  0  0  0  0  0  0
   -0.1140   20.5770  -34.3020 C   0  0  0  0  0  0  0  0  0  0  0  0
   -1.3630   20.2010  -33.6960 N   0  0  0  0  0  0  0  0  0  0  0  0
   -2.3810   21.2250  -33.4660 C   0  0  0  0  0  0  0  0  0  0  0  0
   -3.5980   20.6340  -32.7430 C   0  0  0  0  0  0  0  0  0  0  0  0
   -4.0200   19.3660  -33.3920 N   0  0  0  0  0  0  0  0  0  0  0  0
   -5.3090   18.8500  -32.8240 C   0  0  2  0  0  0  0  0  0  0  0  0
   -5.9810   17.8140  -33.7650 C   0  0  0  0  0  0  0  0  0  0  0  0
   -7.2410   17.2090  -33.1250 C   0  0  0  0  0  0  0  0  0  0  0  0
   -7.9310   18.1810  -32.1570 C   0  0  0  0  0  0  0  0  0  0  0  0
   -7.7590   19.5630  -32.6340 N   0  0  0  0  0  0  0  0  0  0  0  0
   -8.6530   20.4760  -31.8940 C   0  0  0  0  0  0  0  0  0  0  0  0
   -7.9200   21.7220  -31.4670 C   0  0  0  0  0  0  0  0  0  0  0  0
   -7.5360   22.6720  -32.4270 C   0  0  0  0  0  0  0  0  0  0  0  0
   -6.8650   23.8350  -32.0360 C   0  0  0  0  0  0  0  0  0  0  0  0
   -6.5640   24.0540  -30.6860 C   0  0  0  0  0  0  0  0  0  0  0  0
   -5.7240   25.5170  -30.2010 Cl  0  0  0  0  0  0  0  0  0  0  0  0
   -6.9350   23.1060  -29.7270 C   0  0  0  0  0  0  0  0  0  0  0  0
   -7.6070   21.9410  -30.1140 C   0  0  0  0  0  0  0  0  0  0  0  0
   -6.3400   19.9930  -32.5300 C   0  0  0  0  0  0  0  0  0  0  0  0
   -2.9410   18.3310  -33.3030 C   0  0  0  0  0  0  0  0  0  0  0  0
   -1.5180   18.8820  -33.0850 C   0  0  0  0  0  0  0  0  0  0  0  0
    1.9437   18.8561  -30.7300 H   0  0  0  0  0  0  0  0  0  0  0  0
    1.6010   17.8725  -32.1935 H   0  0  0  0  0  0  0  0  0  0  0  0
    2.9696   19.0360  -32.1935 H   0  0  0  0  0  0  0  0  0  0  0  0
    3.2674   20.6357  -33.7071 H   0  0  0  0  0  0  0  0  0  0  0  0
    3.2483   21.6418  -35.9882 H   0  0  0  0  0  0  0  0  0  0  0  0
    1.0886   21.9880  -37.1873 H   0  0  0  0  0  0  0  0  0  0  0  0
   -1.0597   21.3056  -36.1169 H   0  0  0  0  0  0  0  0  0  0  0  0
   -1.9510   22.0283  -32.8498 H   0  0  0  0  0  0  0  0  0  0  0  0
   -2.7080   21.6204  -34.4390 H   0  0  0  0  0  0  0  0  0  0  0  0
   -3.3346   20.4341  -31.6939 H   0  0  0  0  0  0  0  0  0  0  0  0
   -4.4278   21.3543  -32.7935 H   0  0  0  0  0  0  0  0  0  0  0  0
   -4.1840   19.5710  -34.4080 H   0  0  0  0  0  0  0  0  0  0  0  0
   -5.0334   18.3666  -31.8751 H   0  0  0  0  0  0  0  0  0  0  0  0
   -6.2611   18.3128  -34.7045 H   0  0  0  0  0  0  0  0  0  0  0  0
   -5.2641   17.0012  -33.9531 H   0  0  0  0  0  0  0  0  0  0  0  0
   -7.9496   16.9430  -33.9232 H   0  0  0  0  0  0  0  0  0  0  0  0
   -6.9323   16.3245  -32.5484 H   0  0  0  0  0  0  0  0  0  0  0  0
   -9.0038   17.9436  -32.1035 H   0  0  0  0  0  0  0  0  0  0  0  0
   -7.4801   18.0818  -31.1586 H   0  0  0  0  0  0  0  0  0  0  0  0
   -9.4952   20.7587  -32.5426 H   0  0  0  0  0  0  0  0  0  0  0  0
   -9.0162   19.9576  -30.9944 H   0  0  0  0  0  0  0  0  0  0  0  0
   -7.7636   22.5010  -33.4895 H   0  0  0  0  0  0  0  0  0  0  0  0
   -6.5728   24.5798  -32.7909 H   0  0  0  0  0  0  0  0  0  0  0  0
   -6.6981   23.2764  -28.6664 H   0  0  0  0  0  0  0  0  0  0  0  0
   -7.8911   21.1946  -29.3575 H   0  0  0  0  0  0  0  0  0  0  0  0
   -6.1706   20.8066  -33.2507 H   0  0  0  0  0  0  0  0  0  0  0  0
   -6.1773   20.3111  -31.4896 H   0  0  0  0  0  0  0  0  0  0  0  0
   -3.1794   17.6626  -32.4625 H   0  0  0  0  0  0  0  0  0  0  0  0
   -2.9249   17.8228  -34.2784 H   0  0  0  0  0  0  0  0  0  0  0  0
   -1.3257   18.9620  -32.0049 H   0  0  0  0  0  0  0  0  0  0  0  0
   -0.8015   18.1932  -33.5563 H   0  0  0  0  0  0  0  0  0  0  0  0
  1  2  1  0
  2  3  1  0
  3  4  2  0
  4  5  1  0
  5  6  2  0
  6  7  1  0
  7  8  2  0
  8  9  1  0
  9 10  1  0
 10 11  1  0
 11 12  1  0
 12 13  1  0
 13 14  1  0
 14 15  1  0
 15 16  1  0
 16 17  1  0
 17 18  1  0
 18 19  1  0
 19 20  2  0
 20 21  1  0
 21 22  2  0
 22 23  1  0
 22 24  1  0
 24 25  2  0
 17 26  1  0
 12 27  1  0
 27 28  1  0
  8  3  1  0
 28  9  1  0
 26 13  1  0
 25 19  1  0
  1 29  1  0
  1 30  1  0
  1 31  1  0
  4 32  1  0
  5 33  1  0
  6 34  1  0
  7 35  1  0
 10 36  1  0
 10 37  1  0
 11 38  1  0
 11 39  1  0
 12 40  1  0
 13 41  1  1
 14 42  1  0
 14 43  1  0
 15 44  1  0
 15 45  1  0
 16 46  1  0
 16 47  1  0
 18 48  1  0
 18 49  1  0
 20 50  1  0
 21 51  1  0
 24 52  1  0
 25 53  1  0
 26 54  1  0
 26 55  1  0
 27 56  1  0
 27 57  1  0
 28 58  1  0
 28 59  1  0
M  CHG  1  12   1
M  END
>  <UniqueID>  (6) 
5

>  <SMILES>  (6) 
COc1ccccc1N1CC[NH+]([C@@H]2CCCN(Cc3ccc(Cl)cc3)C2)CC1

>  <Energy>  (6) 
83.4318924328496

>  <Genealogy>  (6) 
COc1ccccc1N1CC[NH+](C2CCCN(Cc3ccc(Cl)cc3)C2)CC1 (protonated)
COc1ccccc1N1CC[NH+]([C@@H]2CCCN(Cc3ccc(Cl)cc3)C2)CC1 (chirality)
COc1ccccc1N1CC[NH+]([C@@H]2CCCN(Cc3ccc(Cl)cc3)C2)CC1 (3D coordinates assigned)
COc1ccccc1N1CC[NH+]([C@@H]2CCCN(Cc3ccc(Cl)cc3)C2)CC1 (nonaromatic ring conformer: 83.4318924328496 kcal/mol)

>  <smiles>  (6) 
COc1ccccc1N1CCN(C2CCCN(Cc3ccc(Cl)cc3)C2)CC1

>  <score_type>  (6) 
oracle

>  <origin>  (6) 
adg

>  <m_score__min__energy>  (6) 
-8.3499999999999996

>  <m_primary>  (6) 
energy

$$$$
6:0
     RDKit          3D

 19 20  0  0  0  0  0  0  0  0999 V2000
   -5.3130   24.9500  -28.9080 N   0  0  0  0  0  0  0  0  0  0  0  0
   -5.0120   24.7170  -30.2870 C   0  0  0  0  0  0  0  0  0  0  0  0
   -4.0280   25.3030  -30.8100 O   0  0  0  0  0  0  0  0  0  0  0  0
   -5.8290   23.8060  -31.1080 C   0  0  0  0  0  0  0  0  0  0  0  0
   -6.1170   22.4800  -30.8450 C   0  0  0  0  0  0  0  0  0  0  0  0
   -6.9060   22.1020  -31.9140 C   0  0  0  0  0  0  0  0  0  0  0  0
   -7.5030   20.7770  -32.1530 C   0  0  0  0  0  0  0  0  0  0  0  0
   -6.7780   19.6530  -32.5840 C   0  0  0  0  0  0  0  0  0  0  0  0
   -7.5580   18.5160  -32.7390 C   0  0  0  0  0  0  0  0  0  0  0  0
   -9.1420   18.9090  -32.3410 S   0  0  0  0  0  0  0  0  0  0  0  0
   -8.8580   20.5230  -31.9680 C   0  0  0  0  0  0  0  0  0  0  0  0
   -7.0500   23.1320  -32.7160 O   0  0  0  0  0  0  0  0  0  0  0  0
   -6.4170   24.1740  -32.2630 N   0  0  0  0  0  0  0  0  0  0  0  0
   -6.1180   24.4860  -28.4360 H   0  0  0  0  0  0  0  0  0  0  0  0
   -4.7170   25.6000  -28.3490 H   0  0  0  0  0  0  0  0  0  0  0  0
   -5.7945   21.8705  -29.9880 H   0  0  0  0  0  0  0  0  0  0  0  0
   -5.6957   19.6727  -32.7798 H   0  0  0  0  0  0  0  0  0  0  0  0
   -7.2009   17.5283  -33.0659 H   0  0  0  0  0  0  0  0  0  0  0  0
   -9.6122   21.2515  -31.6355 H   0  0  0  0  0  0  0  0  0  0  0  0
  1  2  1  0
  2  3  2  0
  2  4  1  0
  4  5  1  0
  5  6  2  0
  6  7  1  0
  7  8  1  0
  8  9  2  0
  9 10  1  0
 10 11  1  0
  6 12  1  0
 12 13  1  0
 13  4  2  0
 11  7  2  0
  1 14  1  0
  1 15  1  0
  5 16  1  0
  8 17  1  0
  9 18  1  0
 11 19  1  0
M  END
>  <UniqueID>  (7) 
6

>  <SMILES>  (7) 
NC(=O)c1cc(-c2ccsc2)on1

>  <Energy>  (7) 
73.30132015618565

>  <Genealogy>  (7) 
NC(=O)c1cc(-c2ccsc2)on1 (3D coordinates assigned)
NC(=O)c1cc(-c2ccsc2)on1 (optimized conformer: 73.30132015618565 kcal/mol)

>  <smiles>  (7) 
NC(=O)c1cc(-c2ccsc2)on1

>  <score_type>  (7) 
oracle

>  <origin>  (7) 
adg

>  <m_score__min__energy>  (7) 
-7.1299999999999999

>  <m_primary>  (7) 
energy

$$$$
7:0
     RDKit          3D

 45 47  0  0  0  0  0  0  0  0999 V2000
   -2.8770   18.8270  -26.1360 C   0  0  0  0  0  0  0  0  0  0  0  0
   -2.0820   19.6920  -27.1100 C   0  0  0  0  0  0  0  0  0  0  0  0
   -2.9190   20.8680  -27.6180 C   0  0  0  0  0  0  0  0  0  0  0  0
   -2.2780   21.4740  -28.7860 N   0  0  0  0  0  0  0  0  0  0  0  0
   -2.1650   20.9120  -30.0020 C   0  0  0  0  0  0  0  0  0  0  0  0
   -1.4280   21.7570  -30.7980 C   0  0  0  0  0  0  0  0  0  0  0  0
   -1.0670   22.8460  -30.0910 N   0  0  0  0  0  0  0  0  0  0  0  0
   -1.5900   22.6360  -28.8640 C   0  0  0  0  0  0  0  0  0  0  0  0
   -1.4740   23.6450  -27.7550 C   0  0  0  0  0  0  0  0  0  0  0  0
   -2.2800   24.9150  -28.0520 C   0  0  0  0  0  0  0  0  0  0  0  0
   -2.7430   24.9250  -29.4400 N   0  0  0  0  0  0  0  0  0  0  0  0
   -4.1240   24.7790  -29.7910 C   0  0  0  0  0  0  0  0  0  0  0  0
   -5.0200   24.9220  -28.9150 O   0  0  0  0  0  0  0  0  0  0  0  0
   -4.4780   24.4990  -31.1490 N   0  0  0  0  0  0  0  0  0  0  0  0
   -5.2580   23.3840  -31.6060 C   0  0  0  0  0  0  0  0  0  0  0  0
   -4.6030   22.3260  -32.2470 C   0  0  0  0  0  0  0  0  0  0  0  0
   -5.3150   21.2010  -32.6760 C   0  0  0  0  0  0  0  0  0  0  0  0
   -6.6970   21.1150  -32.4520 C   0  0  0  0  0  0  0  0  0  0  0  0
   -7.4220   19.9880  -32.8690 C   0  0  0  0  0  0  0  0  0  0  0  0
   -8.7960   19.9090  -32.6260 C   0  0  0  0  0  0  0  0  0  0  0  0
   -9.4550   20.9500  -31.9670 C   0  0  0  0  0  0  0  0  0  0  0  0
   -8.7450   22.0770  -31.5460 C   0  0  0  0  0  0  0  0  0  0  0  0
   -7.3650   22.1710  -31.7840 C   0  0  0  0  0  0  0  0  0  0  0  0
   -6.6400   23.2950  -31.3620 C   0  0  0  0  0  0  0  0  0  0  0  0
   -2.6201   19.1065  -25.1036 H   0  0  0  0  0  0  0  0  0  0  0  0
   -3.9532   18.9833  -26.3012 H   0  0  0  0  0  0  0  0  0  0  0  0
   -2.6307   17.7677  -26.3012 H   0  0  0  0  0  0  0  0  0  0  0  0
   -1.1900   20.0816  -26.5977 H   0  0  0  0  0  0  0  0  0  0  0  0
   -1.7951   19.0715  -27.9718 H   0  0  0  0  0  0  0  0  0  0  0  0
   -3.9200   20.5080  -27.8982 H   0  0  0  0  0  0  0  0  0  0  0  0
   -3.0019   21.6218  -26.8212 H   0  0  0  0  0  0  0  0  0  0  0  0
   -2.5887   19.9439  -30.3073 H   0  0  0  0  0  0  0  0  0  0  0  0
   -1.1720   21.5722  -31.8517 H   0  0  0  0  0  0  0  0  0  0  0  0
   -1.8492   23.1951  -26.8240 H   0  0  0  0  0  0  0  0  0  0  0  0
   -0.4151   23.9273  -27.6599 H   0  0  0  0  0  0  0  0  0  0  0  0
   -3.1509   24.9543  -27.3812 H   0  0  0  0  0  0  0  0  0  0  0  0
   -1.6320   25.7891  -27.8906 H   0  0  0  0  0  0  0  0  0  0  0  0
   -2.0280   24.8420  -30.1990 H   0  0  0  0  0  0  0  0  0  0  0  0
   -3.5173   22.3798  -32.4151 H   0  0  0  0  0  0  0  0  0  0  0  0
   -4.7902   20.3822  -33.1900 H   0  0  0  0  0  0  0  0  0  0  0  0
   -6.9080   19.1655  -33.3879 H   0  0  0  0  0  0  0  0  0  0  0  0
   -9.3607   19.0241  -32.9547 H   0  0  0  0  0  0  0  0  0  0  0  0
  -10.5367   20.8819  -31.7790 H   0  0  0  0  0  0  0  0  0  0  0  0
   -9.2689   22.8929  -31.0266 H   0  0  0  0  0  0  0  0  0  0  0  0
   -7.1558   24.1123  -30.8367 H   0  0  0  0  0  0  0  0  0  0  0  0
  1  2  1  0
  2  3  1  0
  3  4  1  0
  4  5  1  0
  5  6  2  0
  6  7  1  0
  7  8  2  0
  8  9  1  0
  9 10  1  0
 10 11  1  0
 11 12  1  0
 12 13  2  0
 12 14  1  0
 14 15  1  0
 15 16  2  0
 16 17  1  0
 17 18  2  0
 18 19  1  0
 19 20  2  0
 20 21  1  0
 21 22  2  0
 22 23  1  0
 23 24  2  0
  8  4  1  0
 24 15  1  0
 23 18  1  0
  1 25  1  0
  1 26  1  0
  1 27  1  0
  2 28  1  0
  2 29  1  0
  3 30  1  0
  3 31  1  0
  5 32  1  0
  6 33  1  0
  9 34  1  0
  9 35  1  0
 10 36  1  0
 10 37  1  0
 11 38  1  0
 16 39  1  0
 17 40  1  0
 19 41  1  0
 20 42  1  0
 21 43  1  0
 22 44  1  0
 24 45  1  0
M  CHG  1  14  -1
M  END
>  <UniqueID>  (8) 
7

>  <SMILES>  (8) 
CCCn1ccnc1CCNC(=O)[N-]c1ccc2ccccc2c1

>  <Energy>  (8) 
70.23680853769459

>  <Genealogy>  (8) 
CCCn1ccnc1CCNC(=O)[N-]c1ccc2ccccc2c1 (protonated)
CCCn1ccnc1CCNC(=O)[N-]c1ccc2ccccc2c1 (3D coordinates assigned)
CCCn1ccnc1CCNC(=O)[N-]c1ccc2ccccc2c1 (optimized conformer: 70.23680853769459 kcal/mol)

>  <smiles>  (8) 
CCCn1ccnc1CCNC(=O)Nc1ccc2ccccc2c1

>  <score_type>  (8) 
oracle

>  <origin>  (8) 
adg

>  <m_score__min__energy>  (8) 
-9.7899999999999991

>  <m_primary>  (8) 
energy

$$$$
8:0
     RDKit          3D

 28 29  0  0  0  0  0  0  0  0999 V2000
   -0.7090   25.3030  -30.0270 H   0  0  0  0  0  0  0  0  0  0  0  0
   -1.3920   25.3150  -29.2370 N   0  0  0  0  0  0  0  0  0  0  0  0
   -2.4920   24.6370  -29.2930 C   0  0  0  0  0  0  0  0  0  0  0  0
   -2.7570   23.5830  -28.4890 N   0  0  0  0  0  0  0  0  0  0  0  0
   -3.9850   23.2210  -28.9120 C   0  0  0  0  0  0  0  0  0  0  0  0
   -4.5634   22.3828  -28.4962 H   0  0  0  0  0  0  0  0  0  0  0  0
   -4.4100   24.0160  -29.9060 N   0  0  0  0  0  0  0  0  0  0  0  0
   -5.9280   23.9120  -30.7250 S   0  0  0  0  0  0  0  0  0  0  0  0
   -7.0440   23.8670  -29.7180 O   0  0  0  0  0  0  0  0  0  0  0  0
   -6.1160   25.1260  -31.5910 O   0  0  0  0  0  0  0  0  0  0  0  0
   -5.9630   22.4490  -31.7030 C   0  0  0  0  0  0  0  0  0  0  0  0
   -4.8000   21.9880  -32.3250 C   0  0  0  0  0  0  0  0  0  0  0  0
   -3.8611   22.5506  -32.2160 H   0  0  0  0  0  0  0  0  0  0  0  0
   -4.8240   20.8170  -33.0840 C   0  0  0  0  0  0  0  0  0  0  0  0
   -3.9040   20.4664  -33.5746 H   0  0  0  0  0  0  0  0  0  0  0  0
   -6.0130   20.0820  -33.2270 C   0  0  0  0  0  0  0  0  0  0  0  0
   -6.0090   18.8220  -34.0510 C   0  0  0  0  0  0  0  0  0  0  0  0
   -6.0062   17.9475  -33.3837 H   0  0  0  0  0  0  0  0  0  0  0  0
   -6.9071   18.7961  -34.6857 H   0  0  0  0  0  0  0  0  0  0  0  0
   -5.1108   18.8018  -34.6857 H   0  0  0  0  0  0  0  0  0  0  0  0
   -7.1930   20.5410  -32.5930 C   0  0  0  0  0  0  0  0  0  0  0  0
   -8.4890   19.7820  -32.7130 C   0  0  0  0  0  0  0  0  0  0  0  0
   -8.8757   19.5555  -31.7084 H   0  0  0  0  0  0  0  0  0  0  0  0
   -9.2226   20.3932  -33.2591 H   0  0  0  0  0  0  0  0  0  0  0  0
   -8.3149   18.8431  -33.2591 H   0  0  0  0  0  0  0  0  0  0  0  0
   -7.1530   21.7220  -31.8320 C   0  0  0  0  0  0  0  0  0  0  0  0
   -8.0658   22.0789  -31.3326 H   0  0  0  0  0  0  0  0  0  0  0  0
   -3.4810   24.9180  -30.1600 N   0  0  0  0  0  0  0  0  0  0  0  0
  1  2  1  0
  2  3  2  0
  3  4  1  0
  4  5  2  0
  5  6  1  0
  5  7  1  0
  7  8  1  0
  8  9  2  0
  8 10  2  0
  8 11  1  0
 11 12  2  0
 12 13  1  0
 12 14  1  0
 14 15  1  0
 14 16  2  0
 16 17  1  0
 17 18  1  0
 17 19  1  0
 17 20  1  0
 16 21  1  0
 21 22  1  0
 22 23  1  0
 22 24  1  0
 22 25  1  0
 21 26  2  0
 26 27  1  0
  7 28  1  0
 28  3  1  0
 26 11  1  0
M  CHG  1  28  -1
M  END
>  <UniqueID>  (9) 
8

>  <SMILES>  (9) 
[H]/N=c1\ncn(S(=O)(=O)c2ccc(C)c(C)c2)[n-]1

>  <Energy>  (9) 
63.43394453414937

>  <Genealogy>  (9) 
Cc1ccc(S(=O)(=O)n2cnc(=N)[n-]2)cc1C (protonated)
[H]/N=c1\ncn(S(=O)(=O)c2ccc(C)c(C)c2)[n-]1 (cis-trans isomerization)
[H]/N=c1\ncn(S(=O)(=O)c2ccc(C)c(C)c2)[n-]1 (3D coordinates assigned)
[H]/N=c1\ncn(S(=O)(=O)c2ccc(C)c(C)c2)[n-]1 (optimized conformer: 63.43394453414937 kcal/mol)

>  <smiles>  (9) 
Cc1ccc(S(=O)(=O)n2cnc(=N)[nH]2)cc1C

>  <score_type>  (9) 
oracle

>  <origin>  (9) 
adg

>  <m_score__min__energy>  (9) 
-8.6799999999999997

>  <m_primary>  (9) 
energy

$$$$
9:0
     RDKit          3D

 76 78  0  0  0  0  0  0  0  0999 V2000
   -4.3360   25.5630  -29.4570 H   0  0  0  0  0  0  0  0  0  0  0  0
   -3.8610   25.3010  -30.2890 O   0  0  0  0  0  0  0  0  0  0  0  0
   -4.5410   24.2020  -30.8470 C   0  0  1  0  0  0  0  0  0  0  0  0
   -4.0687   23.9612  -31.8108 H   0  0  0  0  0  0  0  0  0  0  0  0
   -4.4280   22.9680  -29.9370 C   0  0  0  0  0  0  0  0  0  0  0  0
   -3.3666   22.7230  -29.7837 H   0  0  0  0  0  0  0  0  0  0  0  0
   -4.9012   23.1860  -28.9682 H   0  0  0  0  0  0  0  0  0  0  0  0
   -5.1210   21.8020  -30.5760 C   0  0  0  0  0  0  0  0  0  0  0  0
   -4.6854   20.7966  -30.4790 H   0  0  0  0  0  0  0  0  0  0  0  0
   -6.2640   21.9610  -31.2650 C   0  0  0  0  0  0  0  0  0  0  0  0
   -6.9000   20.7470  -31.8360 C   0  0  0  0  0  0  0  0  0  0  0  0
   -7.7554   20.3228  -31.2898 H   0  0  0  0  0  0  0  0  0  0  0  0
   -6.5200   20.1230  -32.9620 C   0  0  0  0  0  0  0  0  0  0  0  0
   -6.0962   20.7438  -33.7651 H   0  0  0  0  0  0  0  0  0  0  0  0
   -6.6270   18.6350  -33.2170 C   0  0  0  0  0  0  0  0  0  0  0  0
   -7.0223   18.1629  -32.3055 H   0  0  0  0  0  0  0  0  0  0  0  0
   -7.2821   18.5261  -34.0939 H   0  0  0  0  0  0  0  0  0  0  0  0
   -5.2930   17.9180  -33.5890 C   0  0  0  0  0  0  0  0  0  0  0  0
   -5.2780   16.5090  -32.9500 C   0  0  0  0  0  0  0  0  0  0  0  0
   -5.2790   16.6034  -31.8541 H   0  0  0  0  0  0  0  0  0  0  0  0
   -6.1703   15.9514  -33.2708 H   0  0  0  0  0  0  0  0  0  0  0  0
   -4.3741   15.9705  -33.2708 H   0  0  0  0  0  0  0  0  0  0  0  0
   -5.1500   17.7940  -35.1260 C   0  0  0  0  0  0  0  0  0  0  0  0
   -4.3385   17.0903  -35.3632 H   0  0  0  0  0  0  0  0  0  0  0  0
   -6.0934   17.4232  -35.5533 H   0  0  0  0  0  0  0  0  0  0  0  0
   -4.9166   18.7804  -35.5533 H   0  0  0  0  0  0  0  0  0  0  0  0
   -4.1400   18.8000  -33.0020 C   0  0  0  0  0  0  0  0  0  0  0  0
   -4.4484   19.8527  -33.0837 H   0  0  0  0  0  0  0  0  0  0  0  0
   -3.9973   18.4477  -31.9698 H   0  0  0  0  0  0  0  0  0  0  0  0
   -2.7590   18.6600  -33.6800 C   0  0  0  0  0  0  0  0  0  0  0  0
   -2.0922   18.1293  -32.9845 H   0  0  0  0  0  0  0  0  0  0  0  0
   -2.9380   18.1200  -34.6215 H   0  0  0  0  0  0  0  0  0  0  0  0
   -2.0660   20.0050  -34.0810 C   0  0  1  0  0  0  0  0  0  0  0  0
   -2.4740   20.2020  -35.0834 H   0  0  0  0  0  0  0  0  0  0  0  0
   -2.4510   21.1630  -33.1520 C   0  0  0  0  0  0  0  0  0  0  0  0
   -3.7440   21.9130  -33.3780 C   0  0  0  0  0  0  0  0  0  0  0  0
   -4.1917   22.1727  -32.4074 H   0  0  0  0  0  0  0  0  0  0  0  0
   -3.5399   22.8329  -33.9455 H   0  0  0  0  0  0  0  0  0  0  0  0
   -4.4412   21.2791  -33.9455 H   0  0  0  0  0  0  0  0  0  0  0  0
   -1.6360   21.6120  -32.1770 C   0  0  0  0  0  0  0  0  0  0  0  0
   -2.0766   22.2281  -31.3793 H   0  0  0  0  0  0  0  0  0  0  0  0
   -0.1620   21.3230  -32.1120 C   0  0  0  0  0  0  0  0  0  0  0  0
    0.3753   22.2049  -32.4909 H   0  0  0  0  0  0  0  0  0  0  0  0
    0.0595   21.0944  -31.0590 H   0  0  0  0  0  0  0  0  0  0  0  0
    0.3020   20.0910  -32.9280 C   0  0  1  0  0  0  0  0  0  0  0  0
    1.3302   20.2771  -33.2717 H   0  0  0  0  0  0  0  0  0  0  0  0
    0.5330   18.7850  -32.0480 C   0  0  0  0  0  0  0  0  0  0  0  0
   -0.4810   18.6470  -30.8710 C   0  0  0  0  0  0  0  0  0  0  0  0
    0.0561   18.7201  -29.9138 H   0  0  0  0  0  0  0  0  0  0  0  0
   -1.2282   19.4517  -30.9345 H   0  0  0  0  0  0  0  0  0  0  0  0
   -0.9860   17.6718  -30.9345 H   0  0  0  0  0  0  0  0  0  0  0  0
    1.9430   18.8710  -31.4000 C   0  0  0  0  0  0  0  0  0  0  0  0
    1.8440   18.8650  -30.3045 H   0  0  0  0  0  0  0  0  0  0  0  0
    2.5461   18.0080  -31.7184 H   0  0  0  0  0  0  0  0  0  0  0  0
    2.4368   19.8009  -31.7184 H   0  0  0  0  0  0  0  0  0  0  0  0
    0.5070   17.4950  -32.9230 C   0  0  0  0  0  0  0  0  0  0  0  0
    1.1734   16.7465  -32.4696 H   0  0  0  0  0  0  0  0  0  0  0  0
   -0.5320   17.1360  -32.9627 H   0  0  0  0  0  0  0  0  0  0  0  0
    0.9650   17.7570  -34.3530 C   0  0  0  0  0  0  0  0  0  0  0  0
    1.9550   18.2360  -34.3286 H   0  0  0  0  0  0  0  0  0  0  0  0
    1.0073   16.7937  -34.8825 H   0  0  0  0  0  0  0  0  0  0  0  0
   -0.0130   18.6730  -35.1010 C   0  0  0  0  0  0  0  0  0  0  0  0
    0.4804   19.0199  -36.0209 H   0  0  0  0  0  0  0  0  0  0  0  0
   -0.9146   18.0713  -35.2884 H   0  0  0  0  0  0  0  0  0  0  0  0
   -0.4910   19.9430  -34.2930 C   0  0  1  0  0  0  0  0  0  0  0  0
   -0.1260   21.1750  -35.1850 C   0  0  0  0  0  0  0  0  0  0  0  0
    0.1276   22.0308  -34.5422 H   0  0  0  0  0  0  0  0  0  0  0  0
    0.7367   20.9251  -35.8201 H   0  0  0  0  0  0  0  0  0  0  0  0
   -0.9856   21.4354  -35.8201 H   0  0  0  0  0  0  0  0  0  0  0  0
   -6.8640   23.3260  -31.3890 C   0  0  0  0  0  0  0  0  0  0  0  0
   -8.1670   23.4940  -31.6480 C   0  0  0  0  0  0  0  0  0  0  0  0
   -8.8027   22.6215  -31.8592 H   0  0  0  0  0  0  0  0  0  0  0  0
   -8.6016   24.5045  -31.6496 H   0  0  0  0  0  0  0  0  0  0  0  0
   -6.0220   24.5530  -31.1030 C   0  0  0  0  0  0  0  0  0  0  0  0
   -6.0803   25.2310  -31.9672 H   0  0  0  0  0  0  0  0  0  0  0  0
   -6.4172   25.0269  -30.1924 H   0  0  0  0  0  0  0  0  0  0  0  0
  1  2  1  0
  2  3  1  0
  3  4  1  6
  3  5  1  0
  5  6  1  0
  5  7  1  0
  5  8  1  0
  8  9  1  0
  8 10  2  0
 10 11  1  0
 11 12  1  0
 11 13  2  0
 13 14  1  0
 13 15  1  0
 15 16  1  0
 15 17  1  0
 15 18  1  0
 18 19  1  0
 19 20  1  0
 19 21  1  0
 19 22  1  0
 18 23  1  0
 23 24  1  0
 23 25  1  0
 23 26  1  0
 18 27  1  0
 27 28  1  0
 27 29  1  0
 27 30  1  0
 30 31  1  0
 30 32  1  0
 30 33  1  0
 33 34  1  6
 33 35  1  0
 35 36  1  0
 36 37  1  0
 36 38  1  0
 36 39  1  0
 35 40  2  0
 40 41  1  0
 40 42  1  0
 42 43  1  0
 42 44  1  0
 42 45  1  0
 45 46  1  6
 45 47  1  0
 47 48  1  0
 48 49  1  0
 48 50  1  0
 48 51  1  0
 47 52  1  0
 52 53  1  0
 52 54  1  0
 52 55  1  0
 47 56  1  0
 56 57  1  0
 56 58  1  0
 56 59  1  0
 59 60  1  0
 59 61  1  0
 59 62  1  0
 62 63  1  0
 62 64  1  0
 62 65  1  0
 65 66  1  6
 66 67  1  0
 66 68  1  0
 66 69  1  0
 10 70  1  0
 70 71  2  0
 71 72  1  0
 71 73  1  0
 70 74  1  0
 74 75  1  0
 74 76  1  0
 74  3  1  0
 65 33  1  0
 65 45  1  0
M  END
>  <UniqueID>  (10) 
9

>  <SMILES>  (10) 
C=C1C[C@@H](O)CC=C1/C=C\CC(C)(C)CC[C@H]1C(C)=CCC2C(C)(C)CCCC21C

>  <Energy>  (10) 
112.82933239777742

>  <Genealogy>  (10) 
C=C1C[C@@H](O)CC=C1C=CCC(C)(C)CC[C@H]1C(C)=CCC2C(C)(C)CCCC21C (chirality)
C=C1C[C@@H](O)CC=C1/C=C\CC(C)(C)CC[C@H]1C(C)=CCC2C(C)(C)CCCC21C (cis-trans isomerization)
C=C1C[C@@H](O)CC=C1/C=C\CC(C)(C)CC[C@H]1C(C)=CCC2C(C)(C)CCCC21C (3D coordinates assigned)
C=C1C[C@@H](O)CC=C1/C=C\CC(C)(C)CC[C@H]1C(C)=CCC2C(C)(C)CCCC21C (nonaromatic ring conformer: 112.82933239777742 kcal/mol)

>  <smiles>  (10) 
C=C1CC(O)CC=C1C=CCC(C)(C)CCC1C(C)=CCC2C(C)(C)CCCC12C

>  <score_type>  (10) 
oracle

>  <origin>  (10) 
adg

>  <m_score__min__energy>  (10) 
-10.08

>  <m_primary>  (10) 
energy

$$$$
10:0
     RDKit          3D

 63 66  0  0  0  0  0  0  0  0999 V2000
   -1.7410   15.7970  -34.3800 F   0  0  0  0  0  0  0  0  0  0  0  0
   -2.2900   17.0170  -34.7350 C   0  0  0  0  0  0  0  0  0  0  0  0
   -1.3110   17.7630  -35.3700 F   0  0  0  0  0  0  0  0  0  0  0  0
   -3.3270   16.7930  -35.6250 F   0  0  0  0  0  0  0  0  0  0  0  0
   -2.7880   17.7570  -33.4740 C   0  0  0  0  0  0  0  0  0  0  0  0
   -2.5810   16.9200  -32.3870 F   0  0  0  0  0  0  0  0  0  0  0  0
   -4.2720   18.0340  -33.5750 C   0  0  0  0  0  0  0  0  0  0  0  0
   -5.2720   17.6150  -32.7190 C   0  0  0  0  0  0  0  0  0  0  0  0
   -6.4250   18.0870  -33.2270 N   0  0  0  0  0  0  0  0  0  0  0  0
   -7.7750   17.8480  -32.7140 C   0  0  0  0  0  0  0  0  0  0  0  0
   -8.3380   19.0580  -31.9330 C   0  0  2  0  0  0  0  0  0  0  0  0
   -9.2490   19.9470  -32.8060 C   0  0  0  0  0  0  0  0  0  0  0  0
   -9.7580   21.1490  -31.9970 C   0  0  0  0  0  0  0  0  0  0  0  0
   -8.6150   21.8840  -31.2550 C   0  0  0  0  0  0  0  0  0  0  0  0
   -7.3000   21.3120  -31.6060 N   0  0  0  0  0  0  0  0  0  0  0  0
   -6.1570   22.1450  -31.1440 C   0  0  0  0  0  0  0  0  0  0  0  0
   -6.6640   23.5460  -30.7500 C   0  0  0  0  0  0  0  0  0  0  0  0
   -5.6610   24.6760  -31.0370 C   0  0  0  0  0  0  0  0  0  0  0  0
   -4.2530   24.2690  -30.8560 N   0  0  0  0  0  0  0  0  0  0  0  0
   -3.6720   24.5140  -29.5160 C   0  0  0  0  0  0  0  0  0  0  0  0
   -3.0480   23.2840  -28.8970 C   0  0  0  0  0  0  0  0  0  0  0  0
   -3.8370   22.3920  -28.1480 C   0  0  0  0  0  0  0  0  0  0  0  0
   -3.2760   21.2230  -27.6170 C   0  0  0  0  0  0  0  0  0  0  0  0
   -1.9200   20.9440  -27.8180 C   0  0  0  0  0  0  0  0  0  0  0  0
   -1.2160   19.4660  -27.1720 Cl  0  0  0  0  0  0  0  0  0  0  0  0
   -1.1200   21.8430  -28.5320 C   0  0  0  0  0  0  0  0  0  0  0  0
   -1.6780   23.0120  -29.0600 C   0  0  0  0  0  0  0  0  0  0  0  0
   -3.8250   23.0160  -31.5240 C   0  0  0  0  0  0  0  0  0  0  0  0
   -4.9880   22.2290  -32.1430 C   0  0  0  0  0  0  0  0  0  0  0  0
   -7.2330   19.8840  -31.2180 C   0  0  0  0  0  0  0  0  0  0  0  0
   -6.1510   18.7560  -34.3350 N   0  0  0  0  0  0  0  0  0  0  0  0
   -4.8450   18.7440  -34.5690 N   0  0  0  0  0  0  0  0  0  0  0  0
   -2.0040   19.0630  -33.2140 C   0  0  0  0  0  0  0  0  0  0  0  0
   -2.4190   19.6310  -32.0210 F   0  0  0  0  0  0  0  0  0  0  0  0
   -0.6510   18.7960  -33.1160 F   0  0  0  0  0  0  0  0  0  0  0  0
   -2.2000   19.9790  -34.2320 F   0  0  0  0  0  0  0  0  0  0  0  0
   -5.1500   17.0154  -31.8049 H   0  0  0  0  0  0  0  0  0  0  0  0
   -8.4418   17.6355  -33.5627 H   0  0  0  0  0  0  0  0  0  0  0  0
   -7.7208   16.9983  -32.0175 H   0  0  0  0  0  0  0  0  0  0  0  0
   -8.9695   18.6348  -31.1380 H   0  0  0  0  0  0  0  0  0  0  0  0
   -8.6780   20.3095  -33.6735 H   0  0  0  0  0  0  0  0  0  0  0  0
  -10.1111   19.3525  -33.1427 H   0  0  0  0  0  0  0  0  0  0  0  0
  -10.2464   21.8562  -32.6835 H   0  0  0  0  0  0  0  0  0  0  0  0
  -10.4624   20.7719  -31.2409 H   0  0  0  0  0  0  0  0  0  0  0  0
   -8.6305   22.9477  -31.5349 H   0  0  0  0  0  0  0  0  0  0  0  0
   -8.7693   21.7672  -30.1722 H   0  0  0  0  0  0  0  0  0  0  0  0
   -5.7338   21.6396  -30.2634 H   0  0  0  0  0  0  0  0  0  0  0  0
   -7.5868   23.7511  -31.3125 H   0  0  0  0  0  0  0  0  0  0  0  0
   -6.8263   23.5322  -29.6621 H   0  0  0  0  0  0  0  0  0  0  0  0
   -5.7974   25.0078  -32.0769 H   0  0  0  0  0  0  0  0  0  0  0  0
   -5.8623   25.4808  -30.3146 H   0  0  0  0  0  0  0  0  0  0  0  0
   -2.8968   25.2889  -29.6086 H   0  0  0  0  0  0  0  0  0  0  0  0
   -4.4960   24.8260  -28.8574 H   0  0  0  0  0  0  0  0  0  0  0  0
   -4.9010   22.6137  -27.9782 H   0  0  0  0  0  0  0  0  0  0  0  0
   -3.9019   20.5246  -27.0421 H   0  0  0  0  0  0  0  0  0  0  0  0
   -0.0508   21.6301  -28.6783 H   0  0  0  0  0  0  0  0  0  0  0  0
   -1.0410   23.7232  -29.6063 H   0  0  0  0  0  0  0  0  0  0  0  0
   -3.1128   23.2719  -32.3223 H   0  0  0  0  0  0  0  0  0  0  0  0
   -3.3720   22.3749  -30.7534 H   0  0  0  0  0  0  0  0  0  0  0  0
   -5.3262   22.7378  -33.0577 H   0  0  0  0  0  0  0  0  0  0  0  0
   -4.6470   21.2119  -32.3865 H   0  0  0  0  0  0  0  0  0  0  0  0
   -6.2475   19.4820  -31.4958 H   0  0  0  0  0  0  0  0  0  0  0  0
   -7.3886   19.8093  -30.1316 H   0  0  0  0  0  0  0  0  0  0  0  0
  1  2  1  0
  2  3  1  0
  2  4  1  0
  2  5  1  0
  5  6  1  0
  5  7  1  0
  7  8  2  0
  8  9  1  0
  9 10  1  0
 10 11  1  0
 11 12  1  0
 12 13  1  0
 13 14  1  0
 14 15  1  0
 15 16  1  0
 16 17  1  0
 17 18  1  0
 18 19  1  0
 19 20  1  0
 20 21  1  0
 21 22  2  0
 22 23  1  0
 23 24  2  0
 24 25  1  0
 24 26  1  0
 26 27  2  0
 19 28  1  0
 28 29  1  0
 15 30  1  0
  9 31  1  0
 31 32  2  0
  5 33  1  0
 33 34  1  0
 33 35  1  0
 33 36  1  0
 32  7  1  0
 30 11  1  0
 29 16  1  0
 27 21  1  0
  8 37  1  0
 10 38  1  0
 10 39  1  0
 11 40  1  1
 12 41  1  0
 12 42  1  0
 13 43  1  0
 13 44  1  0
 14 45  1  0
 14 46  1  0
 16 47  1  0
 17 48  1  0
 17 49  1  0
 18 50  1  0
 18 51  1  0
 20 52  1  0
 20 53  1  0
 22 54  1  0
 23 55  1  0
 26 56  1  0
 27 57  1  0
 28 58  1  0
 28 59  1  0
 29 60  1  0
 29 61  1  0
 30 62  1  0
 30 63  1  0
M  END
>  <UniqueID>  (11) 
10

>  <SMILES>  (11) 
FC(F)(F)C(F)(c1cn(C[C@@H]2CCCN(C3CCN(Cc4ccc(Cl)cc4)CC3)C2)nn1)C(F)(F)F

>  <Energy>  (11) 
119.03189578747352

>  <Genealogy>  (11) 
FC(F)(F)C(F)(c1cn(C[C@@H]2CCCN(C3CCN(Cc4ccc(Cl)cc4)CC3)C2)nn1)C(F)(F)F (chirality)
FC(F)(F)C(F)(c1cn(C[C@@H]2CCCN(C3CCN(Cc4ccc(Cl)cc4)CC3)C2)nn1)C(F)(F)F (3D coordinates assigned)
FC(F)(F)C(F)(c1cn(C[C@@H]2CCCN(C3CCN(Cc4ccc(Cl)cc4)CC3)C2)nn1)C(F)(F)F (nonaromatic ring conformer: 119.03189578747352 kcal/mol)

>  <smiles>  (11) 
FC(F)(F)C(F)(c1cn(CC2CCCN(C3CCN(Cc4ccc(Cl)cc4)CC3)C2)nn1)C(F)(F)F

>  <score_type>  (11) 
oracle

>  <origin>  (11) 
adg

>  <m_score__min__energy>  (11) 
-9.6999999999999993

>  <m_primary>  (11) 
energy

$$$$
11:0
     RDKit          3D

 50 52  0  0  0  0  0  0  0  0999 V2000
   -2.5489   25.0295  -25.6839 H   0  0  0  0  0  0  0  0  0  0  0  0
   -2.8120   24.8510  -26.7370 C   0  0  0  0  0  0  0  0  0  0  0  0
   -1.8270   24.9280  -27.7260 C   0  0  0  0  0  0  0  0  0  0  0  0
   -0.7877   25.1600  -27.4503 H   0  0  0  0  0  0  0  0  0  0  0  0
   -2.1630   24.7100  -29.0660 C   0  0  0  0  0  0  0  0  0  0  0  0
   -1.3826   24.7475  -29.8403 H   0  0  0  0  0  0  0  0  0  0  0  0
   -3.4960   24.4430  -29.4260 C   0  0  0  0  0  0  0  0  0  0  0  0
   -3.8500   24.1600  -30.7860 N   0  0  0  0  0  0  0  0  0  0  0  0
   -4.2370   23.0400  -31.3440 C   0  0  0  0  0  0  0  0  0  0  0  0
   -3.2280   22.2290  -31.8580 C   0  0  0  0  0  0  0  0  0  0  0  0
   -2.1768   22.4553  -31.6263 H   0  0  0  0  0  0  0  0  0  0  0  0
   -3.5350   21.1390  -32.6590 C   0  0  0  0  0  0  0  0  0  0  0  0
   -2.7192   20.5301  -33.0758 H   0  0  0  0  0  0  0  0  0  0  0  0
   -4.8300   20.8060  -32.9410 N   0  0  0  0  0  0  0  0  0  0  0  0
   -5.0420   19.6590  -33.8480 C   0  0  0  0  0  0  0  0  0  0  0  0
   -4.1229   19.4768  -34.4242 H   0  0  0  0  0  0  0  0  0  0  0  0
   -5.8735   19.8900  -34.5300 H   0  0  0  0  0  0  0  0  0  0  0  0
   -5.3940   18.3930  -33.0350 C   0  0  0  0  0  0  0  0  0  0  0  0
   -5.2506   18.6193  -31.9681 H   0  0  0  0  0  0  0  0  0  0  0  0
   -4.7313   17.5941  -33.3991 H   0  0  0  0  0  0  0  0  0  0  0  0
   -6.7880   17.9040  -33.2230 N   0  0  0  0  0  0  0  0  0  0  0  0
   -7.2480   18.5920  -33.8680 H   0  0  0  0  0  0  0  0  0  0  0  0
   -6.8680   16.5680  -33.8700 C   0  0  0  0  0  0  0  0  0  0  0  0
   -7.1719   16.7045  -34.9183 H   0  0  0  0  0  0  0  0  0  0  0  0
   -7.5988   15.9726  -33.3031 H   0  0  0  0  0  0  0  0  0  0  0  0
   -5.5380   15.8050  -33.8430 C   0  0  0  0  0  0  0  0  0  0  0  0
   -5.2358   15.6317  -32.7996 H   0  0  0  0  0  0  0  0  0  0  0  0
   -5.6590   14.8390  -34.3550 H   0  0  0  0  0  0  0  0  0  0  0  0
   -4.7652   16.3971  -34.3550 H   0  0  0  0  0  0  0  0  0  0  0  0
   -7.5350   17.9190  -31.9360 C   0  0  0  0  0  0  0  0  0  0  0  0
   -7.6412   16.8842  -31.5782 H   0  0  0  0  0  0  0  0  0  0  0  0
   -6.9646   18.5370  -31.2270 H   0  0  0  0  0  0  0  0  0  0  0  0
   -8.9330   18.5380  -32.0720 C   0  0  0  0  0  0  0  0  0  0  0  0
   -9.3510   18.7231  -31.0715 H   0  0  0  0  0  0  0  0  0  0  0  0
   -8.8613   19.4885  -32.6210 H   0  0  0  0  0  0  0  0  0  0  0  0
   -9.5886   17.8460  -32.6210 H   0  0  0  0  0  0  0  0  0  0  0  0
   -5.8700   21.5270  -32.3840 C   0  0  0  0  0  0  0  0  0  0  0  0
   -7.2230   21.1900  -32.6350 C   0  0  0  0  0  0  0  0  0  0  0  0
   -7.4585   20.4087  -33.3726 H   0  0  0  0  0  0  0  0  0  0  0  0
   -8.2600   21.8330  -31.9620 C   0  0  0  0  0  0  0  0  0  0  0  0
   -9.3051   21.5765  -32.1900 H   0  0  0  0  0  0  0  0  0  0  0  0
   -7.9760   22.7970  -31.0040 C   0  0  0  0  0  0  0  0  0  0  0  0
   -8.7942   23.2633  -30.4356 H   0  0  0  0  0  0  0  0  0  0  0  0
   -6.6580   23.1750  -30.7610 C   0  0  0  0  0  0  0  0  0  0  0  0
   -6.4433   23.9142  -29.9752 H   0  0  0  0  0  0  0  0  0  0  0  0
   -5.5910   22.6240  -31.5080 C   0  0  0  0  0  0  0  0  0  0  0  0
   -4.4690   24.3310  -28.4250 C   0  0  0  0  0  0  0  0  0  0  0  0
   -5.5036   24.0717  -28.6940 H   0  0  0  0  0  0  0  0  0  0  0  0
   -4.1320   24.5470  -27.0860 C   0  0  0  0  0  0  0  0  0  0  0  0
   -4.9049   24.4779  -26.3064 H   0  0  0  0  0  0  0  0  0  0  0  0
  1  2  1  0
  2  3  2  0
  3  4  1  0
  3  5  1  0
  5  6  1  0
  5  7  2  0
  7  8  1  0
  8  9  2  0
  9 10  1  0
 10 11  1  0
 10 12  2  0
 12 13  1  0
 12 14  1  0
 14 15  1  0
 15 16  1  0
 15 17  1  0
 15 18  1  0
 18 19  1  0
 18 20  1  0
 18 21  1  0
 21 22  1  0
 21 23  1  0
 23 24  1  0
 23 25  1  0
 23 26  1  0
 26 27  1  0
 26 28  1  0
 26 29  1  0
 21 30  1  0
 30 31  1  0
 30 32  1  0
 30 33  1  0
 33 34  1  0
 33 35  1  0
 33 36  1  0
 14 37  1  0
 37 38  2  0
 38 39  1  0
 38 40  1  0
 40 41  1  0
 40 42  2  0
 42 43  1  0
 42 44  1  0
 44 45  1  0
 44 46  2  0
  7 47  1  0
 47 48  1  0
 47 49  2  0
 49 50  1  0
 49  2  1  0
 46  9  1  0
 46 37  1  0
M  CHG  1  21   1
M  END
>  <UniqueID>  (12) 
11

>  <SMILES>  (12) 
CC[NH+](CC)CCn1cc/c(=N/c2ccccc2)c2ccccc21

>  <Energy>  (12) 
82.21577710975157

>  <Genealogy>  (12) 
CC[NH+](CC)CCn1ccc(=Nc2ccccc2)c2ccccc21 (protonated)
CC[NH+](CC)CCn1cc/c(=N/c2ccccc2)c2ccccc21 (cis-trans isomerization)
CC[NH+](CC)CCn1cc/c(=N/c2ccccc2)c2ccccc21 (3D coordinates assigned)
CC[NH+](CC)CCn1cc/c(=N/c2ccccc2)c2ccccc21 (optimized conformer: 82.21577710975157 kcal/mol)

>  <smiles>  (12) 
CCN(CC)CCn1ccc(=Nc2ccccc2)c2ccccc21

>  <score_type>  (12) 
oracle

>  <origin>  (12) 
adg

>  <m_score__min__energy>  (12) 
-7.46

>  <m_primary>  (12) 
energy

$$$$
12:0
     RDKit          3D

 50 53  0  0  0  0  0  0  0  0999 V2000
   -1.6140   26.0080  -26.6200 C   0  0  0  0  0  0  0  0  0  0  0  0
   -1.6160   25.2920  -27.9380 C   0  0  0  0  0  0  0  0  0  0  0  0
   -1.6060   25.9560  -28.9650 O   0  0  0  0  0  0  0  0  0  0  0  0
   -1.6210   23.7700  -28.0090 C   0  0  2  0  0  0  0  0  0  0  0  0
   -0.5240   23.2720  -28.9890 C   0  0  0  0  0  0  0  0  0  0  0  0
   -1.2360   22.6520  -30.2040 C   0  0  0  0  0  0  0  0  0  0  0  0
   -2.6930   23.0760  -30.0420 C   0  0  1  0  0  0  0  0  0  0  0  0
   -3.8430   22.4620  -30.9050 C   0  0  1  0  0  0  0  0  0  0  0  0
   -3.8000   21.0220  -31.3290 C   0  0  0  0  0  0  0  0  0  0  0  0
   -2.7980   20.2860  -31.1470 O   0  0  0  0  0  0  0  0  0  0  0  0
   -4.9730   20.4950  -32.0470 C   0  0  0  0  0  0  0  0  0  0  0  0
   -6.1560   21.1500  -32.0670 C   0  0  0  0  0  0  0  0  0  0  0  0
   -7.2920   20.5820  -32.8840 C   0  0  0  0  0  0  0  0  0  0  0  0
   -8.5890   20.6970  -32.1420 C   0  0  0  0  0  0  0  0  0  0  0  0
   -9.5780   20.0110  -32.5130 O   0  0  0  0  0  0  0  0  0  0  0  0
   -8.7390   21.6220  -31.0090 C   0  0  0  0  0  0  0  0  0  0  0  0
   -7.7340   22.4040  -30.5980 C   0  0  0  0  0  0  0  0  0  0  0  0
   -6.3890   22.4800  -31.3150 C   0  0  2  0  0  0  0  0  0  0  0  0
   -6.4670   23.6370  -32.3360 C   0  0  0  0  0  0  0  0  0  0  0  0
   -5.2420   22.6990  -30.2590 C   0  0  2  0  0  0  0  0  0  0  0  0
   -5.2470   24.0240  -29.4580 C   0  0  0  0  0  0  0  0  0  0  0  0
   -4.2790   23.9410  -28.2430 C   0  0  0  0  0  0  0  0  0  0  0  0
   -2.9520   23.1370  -28.5320 C   0  0  2  0  0  0  0  0  0  0  0  0
   -3.0550   21.7080  -27.9120 C   0  0  0  0  0  0  0  0  0  0  0  0
   -1.6161   25.2717  -25.8027 H   0  0  0  0  0  0  0  0  0  0  0  0
   -0.7141   26.6362  -26.5453 H   0  0  0  0  0  0  0  0  0  0  0  0
   -2.5104   26.6412  -26.5453 H   0  0  0  0  0  0  0  0  0  0  0  0
   -1.4605   23.4596  -26.9660 H   0  0  0  0  0  0  0  0  0  0  0  0
    0.1028   24.1164  -29.3116 H   0  0  0  0  0  0  0  0  0  0  0  0
    0.1246   22.5302  -28.5000 H   0  0  0  0  0  0  0  0  0  0  0  0
   -0.8179   23.0440  -31.1429 H   0  0  0  0  0  0  0  0  0  0  0  0
   -1.1181   21.5592  -30.2485 H   0  0  0  0  0  0  0  0  0  0  0  0
   -2.7706   24.0503  -30.5466 H   0  0  0  0  0  0  0  0  0  0  0  0
   -3.6623   23.0240  -31.8332 H   0  0  0  0  0  0  0  0  0  0  0  0
   -4.8841   19.5389  -32.5837 H   0  0  0  0  0  0  0  0  0  0  0  0
   -7.3677   21.1363  -33.8311 H   0  0  0  0  0  0  0  0  0  0  0  0
   -7.0896   19.5184  -33.0786 H   0  0  0  0  0  0  0  0  0  0  0  0
   -9.7046   21.6726  -30.4845 H   0  0  0  0  0  0  0  0  0  0  0  0
   -7.8845   23.0217  -29.7003 H   0  0  0  0  0  0  0  0  0  0  0  0
   -6.5316   24.5954  -31.7999 H   0  0  0  0  0  0  0  0  0  0  0  0
   -5.5664   23.6301  -32.9675 H   0  0  0  0  0  0  0  0  0  0  0  0
   -7.3586   23.5093  -32.9675 H   0  0  0  0  0  0  0  0  0  0  0  0
   -5.4647   21.9394  -29.4952 H   0  0  0  0  0  0  0  0  0  0  0  0
   -4.9281   24.8448  -30.1173 H   0  0  0  0  0  0  0  0  0  0  0  0
   -6.2656   24.2054  -29.0845 H   0  0  0  0  0  0  0  0  0  0  0  0
   -4.0056   24.9649  -27.9482 H   0  0  0  0  0  0  0  0  0  0  0  0
   -4.8123   23.3990  -27.4482 H   0  0  0  0  0  0  0  0  0  0  0  0
   -3.0496   21.7832  -26.8146 H   0  0  0  0  0  0  0  0  0  0  0  0
   -3.9898   21.2315  -28.2423 H   0  0  0  0  0  0  0  0  0  0  0  0
   -2.1982   21.1024  -28.2423 H   0  0  0  0  0  0  0  0  0  0  0  0
  1  2  1  0
  2  3  2  0
  2  4  1  0
  4  5  1  0
  5  6  1  0
  6  7  1  0
  7  8  1  0
  8  9  1  0
  9 10  2  0
  9 11  1  0
 11 12  2  0
 12 13  1  0
 13 14  1  0
 14 15  2  0
 14 16  1  0
 16 17  2  0
 17 18  1  0
 18 19  1  6
 18 20  1  0
 20 21  1  0
 21 22  1  0
 22 23  1  0
 23 24  1  1
 23  4  1  0
 23  7  1  0
 20  8  1  0
 18 12  1  0
  1 25  1  0
  1 26  1  0
  1 27  1  0
  4 28  1  1
  5 29  1  0
  5 30  1  0
  6 31  1  0
  6 32  1  0
  7 33  1  6
  8 34  1  6
 11 35  1  0
 13 36  1  0
 13 37  1  0
 16 38  1  0
 17 39  1  0
 19 40  1  0
 19 41  1  0
 19 42  1  0
 20 43  1  1
 21 44  1  0
 21 45  1  0
 22 46  1  0
 22 47  1  0
 24 48  1  0
 24 49  1  0
 24 50  1  0
M  END
>  <UniqueID>  (13) 
12

>  <SMILES>  (13) 
CC(=O)[C@@H]1CC[C@H]2C3C(=O)C=C4CC(=O)C=CC4(C)C3CCC12C

>  <Energy>  (13) 
89.50237241447832

>  <Genealogy>  (13) 
CC(=O)[C@@H]1CC[C@H]2C3C(=O)C=C4CC(=O)C=CC4(C)C3CCC12C (chirality)
CC(=O)[C@@H]1CC[C@H]2C3C(=O)C=C4CC(=O)C=CC4(C)C3CCC12C (3D coordinates assigned)
CC(=O)[C@@H]1CC[C@H]2C3C(=O)C=C4CC(=O)C=CC4(C)C3CCC12C (nonaromatic ring conformer: 89.50237241447832 kcal/mol)

>  <smiles>  (13) 
CC(=O)C1CCC2C3C(=O)C=C4CC(=O)C=CC4(C)C3CCC12C

>  <score_type>  (13) 
oracle

>  <origin>  (13) 
adg

>  <m_score__min__energy>  (13) 
-10.23

>  <m_primary>  (13) 
energy

$$$$
13:0
     RDKit          3D

 60 61  0  0  0  0  0  0  0  0999 V2000
   -9.1630   22.4260  -31.9550 C   0  0  0  0  0  0  0  0  0  0  0  0
   -9.1000   21.0120  -31.3770 C   0  0  0  0  0  0  0  0  0  0  0  0
   -9.2350   19.9220  -32.4550 C   0  0  0  0  0  0  0  0  0  0  0  0
   -8.5950   18.5690  -32.0930 C   0  0  0  0  0  0  0  0  0  0  0  0
   -7.1410   18.6180  -31.5770 C   0  0  0  0  0  0  0  0  0  0  0  0
   -6.2330   17.4200  -31.9590 C   0  0  0  0  0  0  0  0  0  0  0  0
   -5.7540   17.4090  -33.3590 N   0  0  0  0  0  0  0  0  0  0  0  0
   -6.4350   16.4070  -34.1960 C   0  0  0  0  0  0  0  0  0  0  0  0
   -5.7280   18.7450  -33.9860 C   0  0  0  0  0  0  0  0  0  0  0  0
   -4.5940   19.6340  -33.4030 C   0  0  0  0  0  0  0  0  0  0  0  0
   -4.8500   21.1040  -33.3060 N   0  0  1  0  0  0  0  0  0  0  0  0
   -6.0180   21.4760  -32.4630 C   0  0  0  0  0  0  0  0  0  0  0  0
   -5.7160   22.5920  -31.4810 C   0  0  0  0  0  0  0  0  0  0  0  0
   -5.0630   22.3200  -30.2640 C   0  0  0  0  0  0  0  0  0  0  0  0
   -4.7800   23.3540  -29.3660 C   0  0  0  0  0  0  0  0  0  0  0  0
   -5.1230   24.6680  -29.6790 C   0  0  0  0  0  0  0  0  0  0  0  0
   -5.7390   24.9530  -30.8950 C   0  0  0  0  0  0  0  0  0  0  0  0
   -6.0290   23.9250  -31.7970 C   0  0  0  0  0  0  0  0  0  0  0  0
   -3.6330   21.9280  -33.0690 C   0  0  0  0  0  0  0  0  0  0  0  0
   -2.3870   21.1600  -32.6870 C   0  0  0  0  0  0  0  0  0  0  0  0
   -2.0670   20.9400  -31.3390 C   0  0  0  0  0  0  0  0  0  0  0  0
   -0.8780   20.2960  -30.9870 C   0  0  0  0  0  0  0  0  0  0  0  0
    0.0130   19.8810  -31.9790 C   0  0  0  0  0  0  0  0  0  0  0  0
    1.1600   19.2440  -31.6360 F   0  0  0  0  0  0  0  0  0  0  0  0
   -0.2780   20.1240  -33.3220 C   0  0  0  0  0  0  0  0  0  0  0  0
   -1.4660   20.7710  -33.6770 C   0  0  0  0  0  0  0  0  0  0  0  0
   -9.1956   23.1568  -31.1335 H   0  0  0  0  0  0  0  0  0  0  0  0
   -8.2721   22.6093  -32.5737 H   0  0  0  0  0  0  0  0  0  0  0  0
  -10.0666   22.5293  -32.5737 H   0  0  0  0  0  0  0  0  0  0  0  0
   -8.1344   20.8836  -30.8660 H   0  0  0  0  0  0  0  0  0  0  0  0
   -9.9462   20.8991  -30.6833 H   0  0  0  0  0  0  0  0  0  0  0  0
  -10.3064   19.7547  -32.6394 H   0  0  0  0  0  0  0  0  0  0  0  0
   -8.6938   20.2928  -33.3380 H   0  0  0  0  0  0  0  0  0  0  0  0
   -9.2130   18.1042  -31.3107 H   0  0  0  0  0  0  0  0  0  0  0  0
   -8.5537   18.0021  -33.0347 H   0  0  0  0  0  0  0  0  0  0  0  0
   -6.6751   19.5314  -31.9753 H   0  0  0  0  0  0  0  0  0  0  0  0
   -7.2190   18.5875  -30.4802 H   0  0  0  0  0  0  0  0  0  0  0  0
   -5.3530   17.4369  -31.2992 H   0  0  0  0  0  0  0  0  0  0  0  0
   -6.8541   16.5195  -31.8436 H   0  0  0  0  0  0  0  0  0  0  0  0
   -6.9359   15.6699  -33.5512 H   0  0  0  0  0  0  0  0  0  0  0  0
   -7.1817   16.9061  -34.8310 H   0  0  0  0  0  0  0  0  0  0  0  0
   -5.6961   15.8964  -34.8310 H   0  0  0  0  0  0  0  0  0  0  0  0
   -5.5678   18.6276  -35.0679 H   0  0  0  0  0  0  0  0  0  0  0  0
   -6.6894   19.2383  -33.7800 H   0  0  0  0  0  0  0  0  0  0  0  0
   -4.3785   19.2694  -32.3878 H   0  0  0  0  0  0  0  0  0  0  0  0
   -3.7668   19.5404  -34.1221 H   0  0  0  0  0  0  0  0  0  0  0  0
   -5.1240   21.3630  -34.2840 H   0  0  0  0  0  0  0  0  0  0  0  0
   -6.8352   21.8028  -33.1228 H   0  0  0  0  0  0  0  0  0  0  0  0
   -6.2917   20.5881  -31.8741 H   0  0  0  0  0  0  0  0  0  0  0  0
   -4.7735   21.2877  -30.0178 H   0  0  0  0  0  0  0  0  0  0  0  0
   -4.2851   23.1295  -28.4096 H   0  0  0  0  0  0  0  0  0  0  0  0
   -4.9076   25.4784  -28.9670 H   0  0  0  0  0  0  0  0  0  0  0  0
   -5.9986   25.9918  -31.1470 H   0  0  0  0  0  0  0  0  0  0  0  0
   -6.5052   24.1611  -32.7601 H   0  0  0  0  0  0  0  0  0  0  0  0
   -3.4169   22.4856  -33.9922 H   0  0  0  0  0  0  0  0  0  0  0  0
   -3.8673   22.5690  -32.2063 H   0  0  0  0  0  0  0  0  0  0  0  0
   -2.7580   21.2773  -30.5524 H   0  0  0  0  0  0  0  0  0  0  0  0
   -0.6436   20.1157  -29.9275 H   0  0  0  0  0  0  0  0  0  0  0  0
    0.4284   19.8060  -34.1030 H   0  0  0  0  0  0  0  0  0  0  0  0
   -1.6815   20.9769  -34.7359 H   0  0  0  0  0  0  0  0  0  0  0  0
  1  2  1  0
  2  3  1  0
  3  4  1  0
  4  5  1  0
  5  6  1  0
  6  7  1  0
  7  8  1  0
  7  9  1  0
  9 10  1  0
 10 11  1  0
 11 12  1  0
 12 13  1  0
 13 14  2  0
 14 15  1  0
 15 16  2  0
 16 17  1  0
 17 18  2  0
 11 19  1  0
 19 20  1  0
 20 21  2  0
 21 22  1  0
 22 23  2  0
 23 24  1  0
 23 25  1  0
 25 26  2  0
 18 13  1  0
 26 20  1  0
  1 27  1  0
  1 28  1  0
  1 29  1  0
  2 30  1  0
  2 31  1  0
  3 32  1  0
  3 33  1  0
  4 34  1  0
  4 35  1  0
  5 36  1  0
  5 37  1  0
  6 38  1  0
  6 39  1  0
  8 40  1  0
  8 41  1  0
  8 42  1  0
  9 43  1  0
  9 44  1  0
 10 45  1  0
 10 46  1  0
 11 47  1  6
 12 48  1  0
 12 49  1  0
 14 50  1  0
 15 51  1  0
 16 52  1  0
 17 53  1  0
 18 54  1  0
 19 55  1  0
 19 56  1  0
 21 57  1  0
 22 58  1  0
 25 59  1  0
 26 60  1  0
M  CHG  1  11   1
M  END
>  <UniqueID>  (14) 
13

>  <SMILES>  (14) 
CCCCCCN(C)CC[N@@H+](Cc1ccccc1)Cc1ccc(F)cc1

>  <Energy>  (14) 
72.9035871187703

>  <Genealogy>  (14) 
CCCCCCN(C)CC[NH+](Cc1ccccc1)Cc1ccc(F)cc1 (protonated)
CCCCCCN(C)CC[N@@H+](Cc1ccccc1)Cc1ccc(F)cc1 (chirality)
CCCCCCN(C)CC[N@@H+](Cc1ccccc1)Cc1ccc(F)cc1 (3D coordinates assigned)
CCCCCCN(C)CC[N@@H+](Cc1ccccc1)Cc1ccc(F)cc1 (optimized conformer: 72.9035871187703 kcal/mol)

>  <smiles>  (14) 
CCCCCCN(C)CCN(Cc1ccccc1)Cc1ccc(F)cc1

>  <score_type>  (14) 
oracle

>  <origin>  (14) 
adg

>  <m_score__min__energy>  (14) 
-7.1399999999999997

>  <m_primary>  (14) 
energy

$$$$
14:0
     RDKit          3D

 41 43  0  0  0  0  0  0  0  0999 V2000
   -1.2300   25.4230  -29.2010 O   0  0  0  0  0  0  0  0  0  0  0  0
   -2.3640   24.9240  -28.9700 C   0  0  0  0  0  0  0  0  0  0  0  0
   -2.5410   24.0200  -27.7810 C   0  0  0  0  0  0  0  0  0  0  0  0
   -1.8930   24.6170  -26.5600 C   0  0  0  0  0  0  0  0  0  0  0  0
   -0.8880   23.9170  -25.8730 C   0  0  0  0  0  0  0  0  0  0  0  0
   -0.2690   24.4870  -24.7570 C   0  0  0  0  0  0  0  0  0  0  0  0
   -0.6420   25.7670  -24.3220 C   0  0  0  0  0  0  0  0  0  0  0  0
   -0.0320   26.3460  -23.2110 O   0  0  0  0  0  0  0  0  0  0  0  0
   -1.6340   26.4720  -25.0110 C   0  0  0  0  0  0  0  0  0  0  0  0
   -2.2540   25.9030  -26.1270 C   0  0  0  0  0  0  0  0  0  0  0  0
   -3.4610   25.2800  -29.8220 N   0  0  0  0  0  0  0  0  0  0  0  0
   -4.4690   24.3930  -30.3240 C   0  0  0  0  0  0  0  0  0  0  0  0
   -5.8010   24.8090  -30.3370 C   0  0  0  0  0  0  0  0  0  0  0  0
   -6.7940   23.9730  -30.8500 C   0  0  0  0  0  0  0  0  0  0  0  0
   -6.4420   22.7160  -31.3760 C   0  0  0  0  0  0  0  0  0  0  0  0
   -7.4350   21.8170  -31.9150 N   0  0  0  0  0  0  0  0  0  0  0  0
   -7.0430   20.6470  -32.7130 C   0  0  0  0  0  0  0  0  0  0  0  0
   -8.1190   19.5590  -32.6280 C   0  0  0  0  0  0  0  0  0  0  0  0
   -9.3960   20.0880  -32.9260 O   0  0  0  0  0  0  0  0  0  0  0  0
   -9.7650   21.0190  -31.9290 C   0  0  0  0  0  0  0  0  0  0  0  0
   -8.8410   22.2390  -31.9560 C   0  0  0  0  0  0  0  0  0  0  0  0
   -5.1300   22.3460  -31.3740 N   0  0  0  0  0  0  0  0  0  0  0  0
   -4.1480   23.1430  -30.8750 C   0  0  0  0  0  0  0  0  0  0  0  0
   -3.6152   23.8815  -27.5889 H   0  0  0  0  0  0  0  0  0  0  0  0
   -2.0652   23.0522  -27.9975 H   0  0  0  0  0  0  0  0  0  0  0  0
   -0.5866   22.9158  -26.2146 H   0  0  0  0  0  0  0  0  0  0  0  0
    0.5124   23.9304  -24.2188 H   0  0  0  0  0  0  0  0  0  0  0  0
    0.5810   25.8120  -22.6060 H   0  0  0  0  0  0  0  0  0  0  0  0
   -1.9271   27.4771  -24.6737 H   0  0  0  0  0  0  0  0  0  0  0  0
   -3.0286   26.4655  -26.6688 H   0  0  0  0  0  0  0  0  0  0  0  0
   -6.0694   25.7997  -29.9414 H   0  0  0  0  0  0  0  0  0  0  0  0
   -7.8458   24.2948  -30.8432 H   0  0  0  0  0  0  0  0  0  0  0  0
   -6.9159   20.9501  -33.7627 H   0  0  0  0  0  0  0  0  0  0  0  0
   -6.0976   20.2461  -32.3188 H   0  0  0  0  0  0  0  0  0  0  0  0
   -7.8825   18.7616  -33.3479 H   0  0  0  0  0  0  0  0  0  0  0  0
   -8.1345   19.1593  -31.6033 H   0  0  0  0  0  0  0  0  0  0  0  0
  -10.8000   21.3465  -32.1067 H   0  0  0  0  0  0  0  0  0  0  0  0
   -9.6804   20.5342  -30.9452 H   0  0  0  0  0  0  0  0  0  0  0  0
   -9.0213   22.8100  -32.8788 H   0  0  0  0  0  0  0  0  0  0  0  0
   -9.0514   22.8656  -31.0767 H   0  0  0  0  0  0  0  0  0  0  0  0
   -3.1008   22.8076  -30.9032 H   0  0  0  0  0  0  0  0  0  0  0  0
  1  2  2  0
  2  3  1  0
  3  4  1  0
  4  5  2  0
  5  6  1  0
  6  7  2  0
  7  8  1  0
  7  9  1  0
  9 10  2  0
  2 11  1  0
 11 12  1  0
 12 13  2  0
 13 14  1  0
 14 15  2  0
 15 16  1  0
 16 17  1  0
 17 18  1  0
 18 19  1  0
 19 20  1  0
 20 21  1  0
 15 22  1  0
 22 23  2  0
 10  4  1  0
 23 12  1  0
 21 16  1  0
  3 24  1  0
  3 25  1  0
  5 26  1  0
  6 27  1  0
  8 28  1  0
  9 29  1  0
 10 30  1  0
 13 31  1  0
 14 32  1  0
 17 33  1  0
 17 34  1  0
 18 35  1  0
 18 36  1  0
 20 37  1  0
 20 38  1  0
 21 39  1  0
 21 40  1  0
 23 41  1  0
M  CHG  1  11  -1
M  END
>  <UniqueID>  (15) 
14

>  <SMILES>  (15) 
O=C(Cc1ccc(O)cc1)[N-]c1ccc(N2CCOCC2)nc1

>  <Energy>  (15) 
50.764992357521635

>  <Genealogy>  (15) 
O=C(Cc1ccc(O)cc1)[N-]c1ccc(N2CCOCC2)nc1 (protonated)
O=C(Cc1ccc(O)cc1)[N-]c1ccc(N2CCOCC2)nc1 (3D coordinates assigned)
O=C(Cc1ccc(O)cc1)[N-]c1ccc(N2CCOCC2)nc1 (nonaromatic ring conformer: 50.764992357521635 kcal/mol)

>  <smiles>  (15) 
O=C(Cc1ccc(O)cc1)Nc1ccc(N2CCOCC2)nc1

>  <score_type>  (15) 
oracle

>  <origin>  (15) 
adg

>  <m_score__min__energy>  (15) 
-9.6500000000000004

>  <m_primary>  (15) 
energy

$$$$
15:0
     RDKit          3D

 37 39  0  0  0  0  0  0  0  0999 V2000
   -0.8890   26.9300  -27.9010 C   0  0  0  0  0  0  0  0  0  0  0  0
   -1.4160   26.0280  -28.8660 O   0  0  0  0  0  0  0  0  0  0  0  0
   -0.9820   24.7030  -28.9750 C   0  0  0  0  0  0  0  0  0  0  0  0
    0.2480   24.4360  -29.0410 O   0  0  0  0  0  0  0  0  0  0  0  0
   -1.9750   23.6090  -29.0090 C   0  0  0  0  0  0  0  0  0  0  0  0
   -3.2060   23.7950  -29.6840 C   0  0  0  0  0  0  0  0  0  0  0  0
   -3.4820   24.9730  -30.3890 O   0  0  0  0  0  0  0  0  0  0  0  0
   -4.1580   22.7560  -29.6900 C   0  0  0  0  0  0  0  0  0  0  0  0
   -5.4730   22.9020  -30.3550 C   0  0  0  0  0  0  0  0  0  0  0  0
   -6.2330   24.0660  -30.1500 C   0  0  0  0  0  0  0  0  0  0  0  0
   -7.4670   24.2280  -30.7860 C   0  0  0  0  0  0  0  0  0  0  0  0
   -7.9490   23.2400  -31.6580 C   0  0  0  0  0  0  0  0  0  0  0  0
   -9.2900   23.3970  -32.3110 C   0  0  0  0  0  0  0  0  0  0  0  0
   -7.1930   22.0780  -31.8670 C   0  0  0  0  0  0  0  0  0  0  0  0
   -5.9590   21.9150  -31.2310 C   0  0  0  0  0  0  0  0  0  0  0  0
   -3.8590   21.5690  -29.1030 N   0  0  0  0  0  0  0  0  0  0  0  0
   -2.6830   21.3420  -28.4660 C   0  0  0  0  0  0  0  0  0  0  0  0
   -2.4520   20.0960  -27.8740 C   0  0  0  0  0  0  0  0  0  0  0  0
   -1.2610   19.8540  -27.1870 C   0  0  0  0  0  0  0  0  0  0  0  0
   -0.2990   20.8600  -27.0820 C   0  0  0  0  0  0  0  0  0  0  0  0
   -0.5180   22.1080  -27.6710 C   0  0  0  0  0  0  0  0  0  0  0  0
   -1.7080   22.3640  -28.3870 C   0  0  0  0  0  0  0  0  0  0  0  0
   -1.1081   26.5549  -26.8904 H   0  0  0  0  0  0  0  0  0  0  0  0
    0.1999   27.0133  -28.0331 H   0  0  0  0  0  0  0  0  0  0  0  0
   -1.3511   27.9194  -28.0331 H   0  0  0  0  0  0  0  0  0  0  0  0
   -2.7810   25.6690  -30.6110 H   0  0  0  0  0  0  0  0  0  0  0  0
   -5.8540   24.8554  -29.4842 H   0  0  0  0  0  0  0  0  0  0  0  0
   -8.0630   25.1341  -30.6021 H   0  0  0  0  0  0  0  0  0  0  0  0
  -10.0663   23.4879  -31.5370 H   0  0  0  0  0  0  0  0  0  0  0  0
   -9.2892   24.3012  -32.9375 H   0  0  0  0  0  0  0  0  0  0  0  0
   -9.4980   22.5171  -32.9375 H   0  0  0  0  0  0  0  0  0  0  0  0
   -7.5728   21.2907  -32.5348 H   0  0  0  0  0  0  0  0  0  0  0  0
   -5.3641   21.0087  -31.4169 H   0  0  0  0  0  0  0  0  0  0  0  0
   -3.2115   19.3039  -27.9500 H   0  0  0  0  0  0  0  0  0  0  0  0
   -1.0807   18.8705  -26.7284 H   0  0  0  0  0  0  0  0  0  0  0  0
    0.6352   20.6695  -26.5334 H   0  0  0  0  0  0  0  0  0  0  0  0
    0.2424   22.8972  -27.5762 H   0  0  0  0  0  0  0  0  0  0  0  0
  1  2  1  0
  2  3  1  0
  3  4  2  0
  3  5  1  0
  5  6  2  0
  6  7  1  0
  6  8  1  0
  8  9  1  0
  9 10  2  0
 10 11  1  0
 11 12  2  0
 12 13  1  0
 12 14  1  0
 14 15  2  0
  8 16  2  0
 16 17  1  0
 17 18  2  0
 18 19  1  0
 19 20  2  0
 20 21  1  0
 21 22  2  0
 22  5  1  0
 15  9  1  0
 22 17  1  0
  1 23  1  0
  1 24  1  0
  1 25  1  0
  7 26  1  0
 10 27  1  0
 11 28  1  0
 13 29  1  0
 13 30  1  0
 13 31  1  0
 14 32  1  0
 15 33  1  0
 18 34  1  0
 19 35  1  0
 20 36  1  0
 21 37  1  0
M  END
>  <UniqueID>  (16) 
15

>  <SMILES>  (16) 
COC(=O)c1c(O)c(-c2ccc(C)cc2)nc2ccccc12

>  <Energy>  (16) 
54.88143270762142

>  <Genealogy>  (16) 
COC(=O)c1c(O)c(-c2ccc(C)cc2)nc2ccccc12 (3D coordinates assigned)
COC(=O)c1c(O)c(-c2ccc(C)cc2)nc2ccccc12 (optimized conformer: 54.88143270762142 kcal/mol)

>  <smiles>  (16) 
COC(=O)c1c(O)c(-c2ccc(C)cc2)nc2ccccc12

>  <score_type>  (16) 
oracle

>  <origin>  (16) 
adg

>  <m_score__min__energy>  (16) 
-8.3900000000000006

>  <m_primary>  (16) 
energy

$$$$
16:0
     RDKit          3D

 48 50  0  0  0  0  0  0  0  0999 V2000
   -3.8680   25.3060  -30.5940 O   0  0  0  0  0  0  0  0  0  0  0  0
   -3.8200   24.0750  -30.3200 C   0  0  0  0  0  0  0  0  0  0  0  0
   -2.6740   23.5460  -29.4890 C   0  0  0  0  0  0  0  0  0  0  0  0
   -2.3210   24.4670  -28.3500 C   0  0  0  0  0  0  0  0  0  0  0  0
   -3.0850   24.4650  -27.1700 C   0  0  0  0  0  0  0  0  0  0  0  0
   -2.7340   25.2980  -26.1040 C   0  0  0  0  0  0  0  0  0  0  0  0
   -1.6160   26.1310  -26.2020 C   0  0  0  0  0  0  0  0  0  0  0  0
   -0.8430   26.1290  -27.3670 C   0  0  0  0  0  0  0  0  0  0  0  0
   -1.1900   25.2980  -28.4360 C   0  0  0  0  0  0  0  0  0  0  0  0
   -4.8300   23.1860  -30.8470 N   0  0  0  0  0  0  0  0  0  0  0  0
   -6.0120   23.7330  -31.5240 C   0  0  0  0  0  0  0  0  0  0  0  0
   -7.2720   22.8940  -31.2250 C   0  0  0  0  0  0  0  0  0  0  0  0
   -7.0220   21.4330  -31.0350 N   0  0  0  0  0  0  0  0  0  0  0  0
   -8.1200   20.6060  -31.6010 C   0  0  0  0  0  0  0  0  0  0  0  0
   -7.9180   20.2540  -33.0920 C   0  0  0  0  0  0  0  0  0  0  0  0
   -7.0790   19.0220  -33.3100 C   0  0  0  0  0  0  0  0  0  0  0  0
   -6.1040   18.9910  -34.3220 C   0  0  0  0  0  0  0  0  0  0  0  0
   -5.3260   17.8460  -34.5200 C   0  0  0  0  0  0  0  0  0  0  0  0
   -5.5220   16.7200  -33.7150 C   0  0  0  0  0  0  0  0  0  0  0  0
   -6.4980   16.7360  -32.7160 C   0  0  0  0  0  0  0  0  0  0  0  0
   -7.2770   17.8790  -32.5140 C   0  0  0  0  0  0  0  0  0  0  0  0
   -5.7290   21.0120  -31.6170 C   0  0  0  0  0  0  0  0  0  0  0  0
   -4.5720   21.7410  -30.9260 C   0  0  0  0  0  0  0  0  0  0  0  0
   -2.9584   22.5666  -29.0769 H   0  0  0  0  0  0  0  0  0  0  0  0
   -1.7930   23.4661  -30.1427 H   0  0  0  0  0  0  0  0  0  0  0  0
   -3.9616   23.8059  -27.0854 H   0  0  0  0  0  0  0  0  0  0  0  0
   -3.3392   25.2980  -25.1855 H   0  0  0  0  0  0  0  0  0  0  0  0
   -1.3443   26.7881  -25.3627 H   0  0  0  0  0  0  0  0  0  0  0  0
    0.0390   26.7820  -27.4424 H   0  0  0  0  0  0  0  0  0  0  0  0
   -0.5757   25.2941  -29.3485 H   0  0  0  0  0  0  0  0  0  0  0  0
   -6.1779   24.7636  -31.1772 H   0  0  0  0  0  0  0  0  0  0  0  0
   -5.8307   23.7100  -32.6087 H   0  0  0  0  0  0  0  0  0  0  0  0
   -7.7329   23.2846  -30.3058 H   0  0  0  0  0  0  0  0  0  0  0  0
   -7.9210   22.9846  -32.1085 H   0  0  0  0  0  0  0  0  0  0  0  0
   -6.9700   21.2400  -30.0050 H   0  0  0  0  0  0  0  0  0  0  0  0
   -8.1825   19.6696  -31.0272 H   0  0  0  0  0  0  0  0  0  0  0  0
   -9.0432   21.1999  -31.5300 H   0  0  0  0  0  0  0  0  0  0  0  0
   -8.9054   20.0879  -33.5475 H   0  0  0  0  0  0  0  0  0  0  0  0
   -7.3821   21.0964  -33.5537 H   0  0  0  0  0  0  0  0  0  0  0  0
   -5.9521   19.8726  -34.9620 H   0  0  0  0  0  0  0  0  0  0  0  0
   -4.5598   17.8313  -35.3091 H   0  0  0  0  0  0  0  0  0  0  0  0
   -4.9072   15.8209  -33.8684 H   0  0  0  0  0  0  0  0  0  0  0  0
   -6.6540   15.8473  -32.0868 H   0  0  0  0  0  0  0  0  0  0  0  0
   -8.0480   17.8848  -31.7294 H   0  0  0  0  0  0  0  0  0  0  0  0
   -5.6065   19.9272  -31.4822 H   0  0  0  0  0  0  0  0  0  0  0  0
   -5.7205   21.2621  -32.6882 H   0  0  0  0  0  0  0  0  0  0  0  0
   -4.4519   21.3412  -29.9083 H   0  0  0  0  0  0  0  0  0  0  0  0
   -3.6565   21.5808  -31.5144 H   0  0  0  0  0  0  0  0  0  0  0  0
  1  2  2  0
  2  3  1  0
  3  4  1  0
  4  5  2  0
  5  6  1  0
  6  7  2  0
  7  8  1  0
  8  9  2  0
  2 10  1  0
 10 11  1  0
 11 12  1  0
 12 13  1  0
 13 14  1  0
 14 15  1  0
 15 16  1  0
 16 17  2  0
 17 18  1  0
 18 19  2  0
 19 20  1  0
 20 21  2  0
 13 22  1  0
 22 23  1  0
  9  4  1  0
 23 10  1  0
 21 16  1  0
  3 24  1  0
  3 25  1  0
  5 26  1  0
  6 27  1  0
  7 28  1  0
  8 29  1  0
  9 30  1  0
 11 31  1  0
 11 32  1  0
 12 33  1  0
 12 34  1  0
 13 35  1  0
 14 36  1  0
 14 37  1  0
 15 38  1  0
 15 39  1  0
 17 40  1  0
 18 41  1  0
 19 42  1  0
 20 43  1  0
 21 44  1  0
 22 45  1  0
 22 46  1  0
 23 47  1  0
 23 48  1  0
M  CHG  1  13   1
M  END
>  <UniqueID>  (17) 
16

>  <SMILES>  (17) 
O=C(Cc1ccccc1)N1CC[NH+](CCc2ccccc2)CC1

>  <Energy>  (17) 
56.83557371820603

>  <Genealogy>  (17) 
O=C(Cc1ccccc1)N1CC[NH+](CCc2ccccc2)CC1 (protonated)
O=C(Cc1ccccc1)N1CC[NH+](CCc2ccccc2)CC1 (3D coordinates assigned)
O=C(Cc1ccccc1)N1CC[NH+](CCc2ccccc2)CC1 (nonaromatic ring conformer: 56.83557371820603 kcal/mol)

>  <smiles>  (17) 
O=C(Cc1ccccc1)N1CCN(CCc2ccccc2)CC1

>  <score_type>  (17) 
oracle

>  <origin>  (17) 
adg

>  <m_score__min__energy>  (17) 
-8.0999999999999996

>  <m_primary>  (17) 
energy

$$$$
17:0
     RDKit          3D

 35 37  0  0  0  0  0  0  0  0999 V2000
   -9.4770   20.8540  -32.0150 C   0  0  0  0  0  0  0  0  0  0  0  0
   -8.5580   19.7160  -31.5810 C   0  0  0  0  0  0  0  0  0  0  0  0
   -7.3670   19.6430  -32.4320 N   0  0  0  0  0  0  0  0  0  0  0  0
   -6.6290   20.6700  -32.9360 C   0  0  0  0  0  0  0  0  0  0  0  0
   -6.8550   22.0170  -32.6350 O   0  0  0  0  0  0  0  0  0  0  0  0
   -6.0440   22.7700  -31.7770 C   0  0  0  0  0  0  0  0  0  0  0  0
   -4.6580   22.5530  -31.6860 C   0  0  0  0  0  0  0  0  0  0  0  0
   -3.8790   23.3330  -30.8290 C   0  0  0  0  0  0  0  0  0  0  0  0
   -4.4720   24.3380  -30.0610 C   0  0  0  0  0  0  0  0  0  0  0  0
   -5.8550   24.5640  -30.1410 C   0  0  0  0  0  0  0  0  0  0  0  0
   -6.4860   25.6730  -29.3520 C   0  0  0  0  0  0  0  0  0  0  0  0
   -6.6310   23.7890  -31.0170 C   0  0  0  0  0  0  0  0  0  0  0  0
   -5.6700   20.2800  -33.8140 N   0  0  0  0  0  0  0  0  0  0  0  0
   -5.8240   18.9440  -33.8460 C   0  0  0  0  0  0  0  0  0  0  0  0
   -5.1080   18.0300  -34.6160 C   0  0  0  0  0  0  0  0  0  0  0  0
   -5.4750   16.6730  -34.5310 C   0  0  0  0  0  0  0  0  0  0  0  0
   -6.5430   16.2710  -33.6990 C   0  0  0  0  0  0  0  0  0  0  0  0
   -7.2500   17.2210  -32.9370 C   0  0  0  0  0  0  0  0  0  0  0  0
   -6.8460   18.5560  -33.0280 C   0  0  0  0  0  0  0  0  0  0  0  0
   -9.8832   21.3570  -31.1250 H   0  0  0  0  0  0  0  0  0  0  0  0
   -8.9064   21.5770  -32.6164 H   0  0  0  0  0  0  0  0  0  0  0  0
  -10.3039   20.4484  -32.6164 H   0  0  0  0  0  0  0  0  0  0  0  0
   -8.2454   19.8844  -30.5399 H   0  0  0  0  0  0  0  0  0  0  0  0
   -9.1097   18.7687  -31.6718 H   0  0  0  0  0  0  0  0  0  0  0  0
   -4.1855   21.7659  -32.2921 H   0  0  0  0  0  0  0  0  0  0  0  0
   -2.7957   23.1557  -30.7584 H   0  0  0  0  0  0  0  0  0  0  0  0
   -3.8534   24.9539  -29.3917 H   0  0  0  0  0  0  0  0  0  0  0  0
   -6.3705   25.4700  -28.2771 H   0  0  0  0  0  0  0  0  0  0  0  0
   -5.9945   26.6253  -29.6002 H   0  0  0  0  0  0  0  0  0  0  0  0
   -7.5557   25.7369  -29.6002 H   0  0  0  0  0  0  0  0  0  0  0  0
   -7.7098   23.9839  -31.1072 H   0  0  0  0  0  0  0  0  0  0  0  0
   -4.2845   18.3570  -35.2678 H   0  0  0  0  0  0  0  0  0  0  0  0
   -4.9260   15.9210  -35.1167 H   0  0  0  0  0  0  0  0  0  0  0  0
   -6.8244   15.2089  -33.6458 H   0  0  0  0  0  0  0  0  0  0  0  0
   -8.0905   16.9230  -32.2929 H   0  0  0  0  0  0  0  0  0  0  0  0
  1  2  1  0
  2  3  1  0
  3  4  1  0
  4  5  1  0
  5  6  1  0
  6  7  2  0
  7  8  1  0
  8  9  2  0
  9 10  1  0
 10 11  1  0
 10 12  2  0
  4 13  2  0
 13 14  1  0
 14 15  2  0
 15 16  1  0
 16 17  2  0
 17 18  1  0
 18 19  2  0
 19  3  1  0
 12  6  1  0
 19 14  1  0
  1 20  1  0
  1 21  1  0
  1 22  1  0
  2 23  1  0
  2 24  1  0
  7 25  1  0
  8 26  1  0
  9 27  1  0
 11 28  1  0
 11 29  1  0
 11 30  1  0
 12 31  1  0
 15 32  1  0
 16 33  1  0
 17 34  1  0
 18 35  1  0
M  END
>  <UniqueID>  (18) 
17

>  <SMILES>  (18) 
CCn1c(Oc2cccc(C)c2)nc2ccccc21

>  <Energy>  (18) 
79.11701828607238

>  <Genealogy>  (18) 
CCn1c(Oc2cccc(C)c2)nc2ccccc21 (3D coordinates assigned)
CCn1c(Oc2cccc(C)c2)nc2ccccc21 (optimized conformer: 79.11701828607238 kcal/mol)

>  <smiles>  (18) 
CCn1c(Oc2cccc(C)c2)nc2ccccc21

>  <score_type>  (18) 
oracle

>  <origin>  (18) 
adg

>  <m_score__min__energy>  (18) 
-7.1699999999999999

>  <m_primary>  (18) 
energy

$$$$
18:0
     RDKit          3D

 56 59  0  0  0  0  0  0  0  0999 V2000
   -1.0850   20.2080  -32.3660 C   0  0  0  0  0  0  0  0  0  0  0  0
   -1.3380   21.5340  -31.9610 O   0  0  0  0  0  0  0  0  0  0  0  0
   -1.4880   21.6000  -30.5560 C   0  0  0  0  0  0  0  0  0  0  0  0
   -1.4940   23.0540  -30.0840 C   0  0  0  0  0  0  0  0  0  0  0  0
   -2.3840   23.1980  -28.9070 N   0  0  0  0  0  0  0  0  0  0  0  0
   -2.9790   24.5470  -28.8040 C   0  0  0  0  0  0  0  0  0  0  0  0
   -4.1570   24.7600  -29.7830 C   0  0  0  0  0  0  0  0  0  0  0  0
   -4.3380   23.5930  -30.6640 N   0  0  0  0  0  0  0  0  0  0  0  0
   -5.4440   23.8220  -31.6130 C   0  0  0  0  0  0  0  0  0  0  0  0
   -5.9320   22.5130  -32.1610 C   0  0  0  0  0  0  0  0  0  0  0  0
   -5.1510   21.5080  -32.7250 C   0  0  0  0  0  0  0  0  0  0  0  0
   -3.7790   21.6150  -32.9450 O   0  0  0  0  0  0  0  0  0  0  0  0
   -5.9050   20.4230  -33.0440 N   0  0  0  0  0  0  0  0  0  0  0  0
   -5.4630   19.1630  -33.5730 C   0  0  0  0  0  0  0  0  0  0  0  0
   -4.1310   18.9930  -33.9820 C   0  0  0  0  0  0  0  0  0  0  0  0
   -3.6970   17.7590  -34.4690 C   0  0  0  0  0  0  0  0  0  0  0  0
   -4.5850   16.6840  -34.5480 C   0  0  0  0  0  0  0  0  0  0  0  0
   -5.9200   16.8400  -34.1490 C   0  0  0  0  0  0  0  0  0  0  0  0
   -6.8590   15.6710  -34.1950 C   0  0  0  0  0  0  0  0  0  0  0  0
   -6.3500   18.0770  -33.6440 C   0  0  0  0  0  0  0  0  0  0  0  0
   -7.1620   20.7490  -32.6820 C   0  0  0  0  0  0  0  0  0  0  0  0
   -8.2560   19.9500  -32.7630 N   0  0  0  0  0  0  0  0  0  0  0  0
   -9.4560   20.4160  -32.3050 C   0  0  0  0  0  0  0  0  0  0  0  0
   -9.5570   21.7070  -31.7380 C   0  0  0  0  0  0  0  0  0  0  0  0
   -8.4150   22.5200  -31.6440 C   0  0  0  0  0  0  0  0  0  0  0  0
   -7.2170   22.0050  -32.1350 C   0  0  0  0  0  0  0  0  0  0  0  0
   -4.5670   22.3790  -29.8560 C   0  0  0  0  0  0  0  0  0  0  0  0
   -3.4270   22.1540  -28.8380 C   0  0  0  0  0  0  0  0  0  0  0  0
   -0.9633   19.5703  -31.4780 H   0  0  0  0  0  0  0  0  0  0  0  0
   -1.9293   19.8411  -32.9680 H   0  0  0  0  0  0  0  0  0  0  0  0
   -0.1649   20.1777  -32.9680 H   0  0  0  0  0  0  0  0  0  0  0  0
   -2.4375   21.1233  -30.2709 H   0  0  0  0  0  0  0  0  0  0  0  0
   -0.6432   21.0770  -30.0839 H   0  0  0  0  0  0  0  0  0  0  0  0
   -0.4719   23.3520  -29.8072 H   0  0  0  0  0  0  0  0  0  0  0  0
   -1.8613   23.6975  -30.8970 H   0  0  0  0  0  0  0  0  0  0  0  0
   -3.3453   24.6919  -27.7769 H   0  0  0  0  0  0  0  0  0  0  0  0
   -2.1963   25.2745  -29.0652 H   0  0  0  0  0  0  0  0  0  0  0  0
   -5.0792   24.9191  -29.2049 H   0  0  0  0  0  0  0  0  0  0  0  0
   -3.9343   25.6366  -30.4090 H   0  0  0  0  0  0  0  0  0  0  0  0
   -6.2701   24.3297  -31.0935 H   0  0  0  0  0  0  0  0  0  0  0  0
   -5.0831   24.4477  -32.4426 H   0  0  0  0  0  0  0  0  0  0  0  0
   -3.1830   22.1760  -32.3530 H   0  0  0  0  0  0  0  0  0  0  0  0
   -3.4266   19.8354  -33.9185 H   0  0  0  0  0  0  0  0  0  0  0  0
   -2.6529   17.6329  -34.7914 H   0  0  0  0  0  0  0  0  0  0  0  0
   -4.2357   15.7113  -34.9247 H   0  0  0  0  0  0  0  0  0  0  0  0
   -7.1084   15.3605  -33.1696 H   0  0  0  0  0  0  0  0  0  0  0  0
   -7.7788   15.9601  -34.7245 H   0  0  0  0  0  0  0  0  0  0  0  0
   -6.3783   14.8352  -34.7245 H   0  0  0  0  0  0  0  0  0  0  0  0
   -7.3885   18.1963  -33.3017 H   0  0  0  0  0  0  0  0  0  0  0  0
  -10.3513   19.7811  -32.3781 H   0  0  0  0  0  0  0  0  0  0  0  0
  -10.5270   22.0740  -31.3714 H   0  0  0  0  0  0  0  0  0  0  0  0
   -8.4648   23.5250  -31.1996 H   0  0  0  0  0  0  0  0  0  0  0  0
   -5.5168   22.4858  -29.3114 H   0  0  0  0  0  0  0  0  0  0  0  0
   -4.6002   21.5137  -30.5344 H   0  0  0  0  0  0  0  0  0  0  0  0
   -3.8557   22.1518  -27.8250 H   0  0  0  0  0  0  0  0  0  0  0  0
   -2.9504   21.1929  -29.0813 H   0  0  0  0  0  0  0  0  0  0  0  0
  1  2  1  0
  2  3  1  0
  3  4  1  0
  4  5  1  0
  5  6  1  0
  6  7  1  0
  7  8  1  0
  8  9  1  0
  9 10  1  0
 10 11  2  0
 11 12  1  0
 11 13  1  0
 13 14  1  0
 14 15  2  0
 15 16  1  0
 16 17  2  0
 17 18  1  0
 18 19  1  0
 18 20  2  0
 13 21  1  0
 21 22  2  0
 22 23  1  0
 23 24  2  0
 24 25  1  0
 25 26  2  0
  8 27  1  0
 27 28  1  0
 28  5  1  0
 26 10  1  0
 20 14  1  0
 26 21  1  0
  1 29  1  0
  1 30  1  0
  1 31  1  0
  3 32  1  0
  3 33  1  0
  4 34  1  0
  4 35  1  0
  6 36  1  0
  6 37  1  0
  7 38  1  0
  7 39  1  0
  9 40  1  0
  9 41  1  0
 12 42  1  0
 15 43  1  0
 16 44  1  0
 17 45  1  0
 19 46  1  0
 19 47  1  0
 19 48  1  0
 20 49  1  0
 23 50  1  0
 24 51  1  0
 25 52  1  0
 27 53  1  0
 27 54  1  0
 28 55  1  0
 28 56  1  0
M  END
>  <UniqueID>  (19) 
18

>  <SMILES>  (19) 
COCCN1CCN(Cc2c(O)n(-c3cccc(C)c3)c3ncccc23)CC1

>  <Energy>  (19) 
111.63702552898258

>  <Genealogy>  (19) 
COCCN1CCN(Cc2c(O)n(-c3cccc(C)c3)c3ncccc23)CC1 (3D coordinates assigned)
COCCN1CCN(Cc2c(O)n(-c3cccc(C)c3)c3ncccc23)CC1 (nonaromatic ring conformer: 111.63702552898258 kcal/mol)

>  <smiles>  (19) 
COCCN1CCN(Cc2c(O)n(-c3cccc(C)c3)c3ncccc23)CC1

>  <score_type>  (19) 
oracle

>  <origin>  (19) 
adg

>  <m_score__min__energy>  (19) 
-9.1899999999999995

>  <m_primary>  (19) 
energy

$$$$
19:0
     RDKit          3D

 23 23  0  0  0  0  0  0  0  0999 V2000
   -3.9680   24.1660  -28.1130 C   0  0  0  0  0  0  0  0  0  0  0  0
   -3.6150   24.0100  -29.5880 C   0  0  0  0  0  0  0  0  0  0  0  0
   -3.8470   25.2680  -30.3140 N   0  0  0  0  0  0  0  0  0  0  0  0
   -5.2690   25.4990  -30.6240 C   0  0  0  0  0  0  0  0  0  0  0  0
   -6.0080   24.2110  -30.9050 C   0  0  0  0  0  0  0  0  0  0  0  0
   -5.7770   23.4990  -32.0950 C   0  0  0  0  0  0  0  0  0  0  0  0
   -6.4580   22.3040  -32.3450 C   0  0  0  0  0  0  0  0  0  0  0  0
   -7.3710   21.8090  -31.4100 C   0  0  0  0  0  0  0  0  0  0  0  0
   -8.0300   20.6480  -31.6530 F   0  0  0  0  0  0  0  0  0  0  0  0
   -7.6070   22.5100  -30.2240 C   0  0  0  0  0  0  0  0  0  0  0  0
   -6.9280   23.7070  -29.9710 C   0  0  0  0  0  0  0  0  0  0  0  0
   -3.1352   23.7980  -27.4958 H   0  0  0  0  0  0  0  0  0  0  0  0
   -4.1487   25.2278  -27.8895 H   0  0  0  0  0  0  0  0  0  0  0  0
   -4.8748   23.5848  -27.8895 H   0  0  0  0  0  0  0  0  0  0  0  0
   -2.5547   23.7314  -29.6780 H   0  0  0  0  0  0  0  0  0  0  0  0
   -4.2536   23.2274  -30.0236 H   0  0  0  0  0  0  0  0  0  0  0  0
   -3.4870   26.0640  -29.7350 H   0  0  0  0  0  0  0  0  0  0  0  0
   -5.7420   25.9990  -29.7660 H   0  0  0  0  0  0  0  0  0  0  0  0
   -5.3207   26.1226  -31.5287 H   0  0  0  0  0  0  0  0  0  0  0  0
   -5.0573   23.8838  -32.8325 H   0  0  0  0  0  0  0  0  0  0  0  0
   -6.2749   21.7526  -33.2790 H   0  0  0  0  0  0  0  0  0  0  0  0
   -8.3269   22.1205  -29.4892 H   0  0  0  0  0  0  0  0  0  0  0  0
   -7.1156   24.2558  -29.0363 H   0  0  0  0  0  0  0  0  0  0  0  0
  1  2  1  0
  2  3  1  0
  3  4  1  0
  4  5  1  0
  5  6  2  0
  6  7  1  0
  7  8  2  0
  8  9  1  0
  8 10  1  0
 10 11  2  0
 11  5  1  0
  1 12  1  0
  1 13  1  0
  1 14  1  0
  2 15  1  0
  2 16  1  0
  3 17  1  0
  4 18  1  0
  4 19  1  0
  6 20  1  0
  7 21  1  0
 10 22  1  0
 11 23  1  0
M  END
>  <UniqueID>  (20) 
19

>  <SMILES>  (20) 
CCNCc1ccc(F)cc1

>  <Energy>  (20) 
19.35249348933872

>  <Genealogy>  (20) 
CCNCc1ccc(F)cc1 (3D coordinates assigned)
CCNCc1ccc(F)cc1 (optimized conformer: 19.35249348933872 kcal/mol)

>  <smiles>  (20) 
CCNCc1ccc(F)cc1

>  <score_type>  (20) 
oracle

>  <origin>  (20) 
adg

>  <m_score__min__energy>  (20) 
-5.0499999999999998

>  <m_primary>  (20) 
energy

$$$$
20:0
     RDKit          3D

 41 43  0  0  0  0  0  0  0  0999 V2000
   -3.2310   25.2680  -29.7150 O   0  0  0  0  0  0  0  0  0  0  0  0
   -3.9280   24.2680  -29.4010 C   0  0  0  0  0  0  0  0  0  0  0  0
   -3.6900   23.6490  -28.1270 N   0  0  0  0  0  0  0  0  0  0  0  0
   -2.6920   22.6580  -27.8380 C   0  0  0  0  0  0  0  0  0  0  0  0
   -3.1060   21.3190  -27.8420 C   0  0  0  0  0  0  0  0  0  0  0  0
   -2.2280   20.3020  -27.4830 C   0  0  0  0  0  0  0  0  0  0  0  0
   -0.9200   20.6090  -27.1230 C   0  0  0  0  0  0  0  0  0  0  0  0
   -0.4760   21.9310  -27.1520 C   0  0  0  0  0  0  0  0  0  0  0  0
   -1.3370   22.9850  -27.5390 C   0  0  0  0  0  0  0  0  0  0  0  0
   -0.8000   24.3840  -27.6850 C   0  0  0  0  0  0  0  0  0  0  0  0
    0.3680   24.5420  -28.1390 O   0  0  0  0  0  0  0  0  0  0  0  0
   -1.5780   25.5490  -27.2780 N   0  0  0  0  0  0  0  0  0  0  0  0
   -0.8640   26.8190  -27.5840 C   0  0  0  0  0  0  0  0  0  0  0  0
   -0.1530   27.4130  -26.3570 C   0  0  0  0  0  0  0  0  0  0  0  0
    0.2630   26.3820  -25.4920 O   0  0  0  0  0  0  0  0  0  0  0  0
   -0.8640   25.7910  -24.8720 C   0  0  0  0  0  0  0  0  0  0  0  0
   -2.0170   25.4920  -25.8620 C   0  0  0  0  0  0  0  0  0  0  0  0
   -4.9430   23.7610  -30.3580 C   0  0  0  0  0  0  0  0  0  0  0  0
   -6.2690   24.2280  -30.2880 C   0  0  0  0  0  0  0  0  0  0  0  0
   -7.2350   23.7680  -31.1850 C   0  0  0  0  0  0  0  0  0  0  0  0
   -6.8970   22.8200  -32.1510 C   0  0  0  0  0  0  0  0  0  0  0  0
   -5.5960   22.3220  -32.2150 C   0  0  0  0  0  0  0  0  0  0  0  0
   -4.6160   22.7810  -31.3250 C   0  0  0  0  0  0  0  0  0  0  0  0
   -2.9870   22.1260  -31.4850 Cl  0  0  0  0  0  0  0  0  0  0  0  0
   -4.1372   21.0696  -28.1324 H   0  0  0  0  0  0  0  0  0  0  0  0
   -2.5676   19.2557  -27.4837 H   0  0  0  0  0  0  0  0  0  0  0  0
   -0.2336   19.8067  -26.8145 H   0  0  0  0  0  0  0  0  0  0  0  0
    0.5624   22.1583  -26.8689 H   0  0  0  0  0  0  0  0  0  0  0  0
   -2.4690   25.5310  -27.8270 H   0  0  0  0  0  0  0  0  0  0  0  0
   -0.1136   26.6213  -28.3636 H   0  0  0  0  0  0  0  0  0  0  0  0
   -1.6157   27.5497  -27.9173 H   0  0  0  0  0  0  0  0  0  0  0  0
    0.7252   27.9868  -26.6879 H   0  0  0  0  0  0  0  0  0  0  0  0
   -0.8511   28.0728  -25.8209 H   0  0  0  0  0  0  0  0  0  0  0  0
   -0.5505   24.8460  -24.4044 H   0  0  0  0  0  0  0  0  0  0  0  0
   -1.2457   26.5105  -24.1327 H   0  0  0  0  0  0  0  0  0  0  0  0
   -2.4085   24.4853  -25.6541 H   0  0  0  0  0  0  0  0  0  0  0  0
   -2.7887   26.2629  -25.7196 H   0  0  0  0  0  0  0  0  0  0  0  0
   -6.5471   24.9631  -29.5185 H   0  0  0  0  0  0  0  0  0  0  0  0
   -8.2638   24.1535  -31.1299 H   0  0  0  0  0  0  0  0  0  0  0  0
   -7.6571   22.4651  -32.8626 H   0  0  0  0  0  0  0  0  0  0  0  0
   -5.3375   21.5640  -32.9690 H   0  0  0  0  0  0  0  0  0  0  0  0
  1  2  2  0
  2  3  1  0
  3  4  1  0
  4  5  2  0
  5  6  1  0
  6  7  2  0
  7  8  1  0
  8  9  2  0
  9 10  1  0
 10 11  2  0
 10 12  1  0
 12 13  1  0
 13 14  1  0
 14 15  1  0
 15 16  1  0
 16 17  1  0
  2 18  1  0
 18 19  2  0
 19 20  1  0
 20 21  2  0
 21 22  1  0
 22 23  2  0
 23 24  1  0
  9  4  1  0
 17 12  1  0
 23 18  1  0
  5 25  1  0
  6 26  1  0
  7 27  1  0
  8 28  1  0
 12 29  1  0
 13 30  1  0
 13 31  1  0
 14 32  1  0
 14 33  1  0
 16 34  1  0
 16 35  1  0
 17 36  1  0
 17 37  1  0
 19 38  1  0
 20 39  1  0
 21 40  1  0
 22 41  1  0
M  CHG  2   3  -1  12   1
M  END
>  <UniqueID>  (21) 
20

>  <SMILES>  (21) 
O=C([N-]c1ccccc1C(=O)[NH+]1CCOCC1)c1ccccc1Cl

>  <Energy>  (21) 
73.03321766925274

>  <Genealogy>  (21) 
O=C([N-]c1ccccc1C(=O)[NH+]1CCOCC1)c1ccccc1Cl (protonated)
O=C([N-]c1ccccc1C(=O)[NH+]1CCOCC1)c1ccccc1Cl (3D coordinates assigned)
O=C([N-]c1ccccc1C(=O)[NH+]1CCOCC1)c1ccccc1Cl (nonaromatic ring conformer: 73.03321766925274 kcal/mol)

>  <smiles>  (21) 
O=C(Nc1ccccc1C(=O)N1CCOCC1)c1ccccc1Cl

>  <score_type>  (21) 
oracle

>  <origin>  (21) 
adg

>  <m_score__min__energy>  (21) 
-7.8700000000000001

>  <m_primary>  (21) 
energy

$$$$
21:0
     RDKit          3D

 35 37  0  0  0  0  0  0  0  0999 V2000
   -2.4920   22.5870  -27.3410 O   0  0  0  0  0  0  0  0  0  0  0  0
   -2.8200   23.4020  -28.2450 C   0  0  0  0  0  0  0  0  0  0  0  0
   -4.1310   24.1200  -28.1590 C   0  0  0  0  0  0  0  0  0  0  0  0
   -4.8880   23.8780  -29.3840 N   0  0  0  0  0  0  0  0  0  0  0  0
   -5.7910   22.9220  -29.5240 N   0  0  0  0  0  0  0  0  0  0  0  0
   -6.1280   22.9350  -30.8340 C   0  0  0  0  0  0  0  0  0  0  0  0
   -7.0960   22.0080  -31.4500 C   0  0  0  0  0  0  0  0  0  0  0  0
   -6.6420   20.8830  -32.1600 C   0  0  0  0  0  0  0  0  0  0  0  0
   -7.5560   19.9860  -32.7190 C   0  0  0  0  0  0  0  0  0  0  0  0
   -8.9290   20.2020  -32.5740 C   0  0  0  0  0  0  0  0  0  0  0  0
   -9.8150   19.3300  -33.1160 F   0  0  0  0  0  0  0  0  0  0  0  0
   -9.3900   21.3190  -31.8710 C   0  0  0  0  0  0  0  0  0  0  0  0
   -8.4780   22.2190  -31.3100 C   0  0  0  0  0  0  0  0  0  0  0  0
   -5.4580   23.8570  -31.4970 O   0  0  0  0  0  0  0  0  0  0  0  0
   -4.6940   24.4230  -30.5970 C   0  0  0  0  0  0  0  0  0  0  0  0
   -3.8710   25.3440  -30.8450 O   0  0  0  0  0  0  0  0  0  0  0  0
   -1.9840   23.5820  -29.3940 N   0  0  0  0  0  0  0  0  0  0  0  0
   -1.1590   22.4970  -29.9150 C   0  0  0  0  0  0  0  0  0  0  0  0
   -1.8740   21.8230  -31.0430 C   0  0  0  0  0  0  0  0  0  0  0  0
   -1.3500   21.5730  -32.3040 C   0  0  0  0  0  0  0  0  0  0  0  0
   -2.2020   20.8120  -33.1150 C   0  0  0  0  0  0  0  0  0  0  0  0
   -3.3860   20.4460  -32.4880 C   0  0  0  0  0  0  0  0  0  0  0  0
   -3.3700   21.0640  -30.9250 S   0  0  0  0  0  0  0  0  0  0  0  0
   -4.6996   23.7468  -27.2945 H   0  0  0  0  0  0  0  0  0  0  0  0
   -3.9559   25.1992  -28.0379 H   0  0  0  0  0  0  0  0  0  0  0  0
   -5.5622   20.7080  -32.2761 H   0  0  0  0  0  0  0  0  0  0  0  0
   -7.1941   19.1081  -33.2743 H   0  0  0  0  0  0  0  0  0  0  0  0
  -10.4708   21.4902  -31.7590 H   0  0  0  0  0  0  0  0  0  0  0  0
   -8.8445   23.0961  -30.7566 H   0  0  0  0  0  0  0  0  0  0  0  0
   -2.1560   24.4060  -30.0140 H   0  0  0  0  0  0  0  0  0  0  0  0
   -0.2039   22.9046  -30.2779 H   0  0  0  0  0  0  0  0  0  0  0  0
   -0.9663   21.7669  -29.1151 H   0  0  0  0  0  0  0  0  0  0  0  0
   -0.3651   21.9358  -32.6332 H   0  0  0  0  0  0  0  0  0  0  0  0
   -1.9566   20.5311  -34.1498 H   0  0  0  0  0  0  0  0  0  0  0  0
   -4.1960   19.8529  -32.9376 H   0  0  0  0  0  0  0  0  0  0  0  0
  1  2  2  0
  2  3  1  0
  3  4  1  0
  4  5  1  0
  5  6  2  0
  6  7  1  0
  7  8  2  0
  8  9  1  0
  9 10  2  0
 10 11  1  0
 10 12  1  0
 12 13  2  0
  6 14  1  0
 14 15  1  0
 15 16  2  0
  2 17  1  0
 17 18  1  0
 18 19  1  0
 19 20  2  0
 20 21  1  0
 21 22  2  0
 22 23  1  0
 15  4  1  0
 23 19  1  0
 13  7  1  0
  3 24  1  0
  3 25  1  0
  8 26  1  0
  9 27  1  0
 12 28  1  0
 13 29  1  0
 17 30  1  0
 18 31  1  0
 18 32  1  0
 20 33  1  0
 21 34  1  0
 22 35  1  0
M  END
>  <UniqueID>  (22) 
21

>  <SMILES>  (22) 
O=C(Cn1nc(-c2ccc(F)cc2)oc1=O)NCc1cccs1

>  <Energy>  (22) 
92.54285968461333

>  <Genealogy>  (22) 
O=C(Cn1nc(-c2ccc(F)cc2)oc1=O)NCc1cccs1 (3D coordinates assigned)
O=C(Cn1nc(-c2ccc(F)cc2)oc1=O)NCc1cccs1 (optimized conformer: 92.54285968461333 kcal/mol)

>  <smiles>  (22) 
O=C(Cn1nc(-c2ccc(F)cc2)oc1=O)NCc1cccs1

>  <score_type>  (22) 
oracle

>  <origin>  (22) 
adg

>  <m_score__min__energy>  (22) 
-7.3600000000000003

>  <m_primary>  (22) 
energy

$$$$
22:0
     RDKit          3D

 35 36  0  0  0  0  0  0  0  0999 V2000
   -9.3275   19.9998  -32.8682 H   0  0  0  0  0  0  0  0  0  0  0  0
   -8.3750   19.9260  -32.3230 C   0  0  0  0  0  0  0  0  0  0  0  0
   -7.5680   20.9980  -32.3490 C   0  0  0  0  0  0  0  0  0  0  0  0
   -6.5050   20.9830  -33.2640 O   0  0  0  0  0  0  0  0  0  0  0  0
   -5.1340   20.9030  -32.8900 C   0  0  0  0  0  0  0  0  0  0  0  0
   -5.0529   20.8983  -31.7930 H   0  0  0  0  0  0  0  0  0  0  0  0
   -4.6971   19.9778  -33.2940 H   0  0  0  0  0  0  0  0  0  0  0  0
   -4.5925   21.7711  -33.2940 H   0  0  0  0  0  0  0  0  0  0  0  0
   -7.7690   22.1650  -31.4620 C   0  0  0  0  0  0  0  0  0  0  0  0
   -8.8200   22.8490  -31.5790 O   0  0  0  0  0  0  0  0  0  0  0  0
   -6.7930   22.4700  -30.4530 N   0  0  0  0  0  0  0  0  0  0  0  0
   -5.8810   23.4040  -30.4510 C   0  0  0  0  0  0  0  0  0  0  0  0
   -6.1790   24.7780  -30.5770 C   0  0  0  0  0  0  0  0  0  0  0  0
   -7.2224   25.1120  -30.6760 H   0  0  0  0  0  0  0  0  0  0  0  0
   -5.1380   25.7110  -30.5750 C   0  0  0  0  0  0  0  0  0  0  0  0
   -5.3648   26.7838  -30.6622 H   0  0  0  0  0  0  0  0  0  0  0  0
   -3.8480   25.3000  -30.4660 N   0  0  0  0  0  0  0  0  0  0  0  0
   -3.5300   23.9840  -30.3600 C   0  0  0  0  0  0  0  0  0  0  0  0
   -2.4764   23.6798  -30.2747 H   0  0  0  0  0  0  0  0  0  0  0  0
   -4.5360   23.0160  -30.3590 C   0  0  0  0  0  0  0  0  0  0  0  0
   -4.2743   21.9501  -30.2861 H   0  0  0  0  0  0  0  0  0  0  0  0
   -8.0870   18.6290  -31.6100 C   0  0  0  0  0  0  0  0  0  0  0  0
   -7.7944   18.8407  -30.5710 H   0  0  0  0  0  0  0  0  0  0  0  0
   -8.9899   18.0008  -31.6202 H   0  0  0  0  0  0  0  0  0  0  0  0
   -6.9680   17.9020  -32.3060 C   0  0  0  0  0  0  0  0  0  0  0  0
   -6.1040   17.0670  -31.5780 C   0  0  0  0  0  0  0  0  0  0  0  0
   -6.2303   16.9627  -30.4903 H   0  0  0  0  0  0  0  0  0  0  0  0
   -5.0840   16.3680  -32.2310 C   0  0  0  0  0  0  0  0  0  0  0  0
   -4.4044   15.7228  -31.6550 H   0  0  0  0  0  0  0  0  0  0  0  0
   -4.9270   16.4880  -33.6140 C   0  0  0  0  0  0  0  0  0  0  0  0
   -4.1226   15.9395  -34.1259 H   0  0  0  0  0  0  0  0  0  0  0  0
   -5.7920   17.3050  -34.3470 C   0  0  0  0  0  0  0  0  0  0  0  0
   -5.6700   17.3963  -35.4364 H   0  0  0  0  0  0  0  0  0  0  0  0
   -6.8130   18.0070  -33.6970 C   0  0  0  0  0  0  0  0  0  0  0  0
   -7.4966   18.6434  -34.2782 H   0  0  0  0  0  0  0  0  0  0  0  0
  1  2  1  0
  2  3  2  0
  3  4  1  0
  4  5  1  0
  5  6  1  0
  5  7  1  0
  5  8  1  0
  3  9  1  0
  9 10  2  0
  9 11  1  0
 11 12  2  3
 12 13  1  0
 13 14  1  0
 13 15  2  0
 15 16  1  0
 15 17  1  0
 17 18  1  0
 18 19  1  0
 18 20  2  0
 20 21  1  0
  2 22  1  0
 22 23  1  0
 22 24  1  0
 22 25  1  0
 25 26  2  0
 26 27  1  0
 26 28  1  0
 28 29  1  0
 28 30  2  0
 30 31  1  0
 30 32  1  0
 32 33  1  0
 32 34  2  0
 34 35  1  0
 20 12  1  0
 34 25  1  0
M  CHG  1  17  -1
M  END
>  <UniqueID>  (23) 
22

>  <SMILES>  (23) 
CO/C(=C/Cc1ccccc1)C(=O)N=c1cc[n-]cc1

>  <Energy>  (23) 
47.335294697019194

>  <Genealogy>  (23) 
COC(=CCc1ccccc1)C(=O)N=c1cc[n-]cc1 (protonated)
CO/C(=C/Cc1ccccc1)C(=O)N=c1cc[n-]cc1 (cis-trans isomerization)
CO/C(=C/Cc1ccccc1)C(=O)N=c1cc[n-]cc1 (3D coordinates assigned)
CO/C(=C/Cc1ccccc1)C(=O)N=c1cc[n-]cc1 (optimized conformer: 47.335294697019194 kcal/mol)

>  <smiles>  (23) 
COC(=CCc1ccccc1)C(=O)N=c1cc[nH]cc1

>  <score_type>  (23) 
oracle

>  <origin>  (23) 
adg

>  <m_score__min__energy>  (23) 
-8.5999999999999996

>  <m_primary>  (23) 
energy

$$$$
23:0
     RDKit          3D

 35 38  0  0  0  0  0  0  0  0999 V2000
   -1.2380   26.4200  -24.5350 C   0  0  0  0  0  0  0  0  0  0  0  0
   -0.8940   26.4050  -25.9210 O   0  0  0  0  0  0  0  0  0  0  0  0
   -1.7030   25.6660  -26.7760 C   0  0  0  0  0  0  0  0  0  0  0  0
   -1.2900   25.3450  -28.0430 C   0  0  0  0  0  0  0  0  0  0  0  0
   -2.0840   24.6170  -28.8870 C   0  0  0  0  0  0  0  0  0  0  0  0
   -3.3490   24.1740  -28.4840 C   0  0  0  0  0  0  0  0  0  0  0  0
   -4.1630   23.4040  -29.4050 C   0  0  0  0  0  0  0  0  0  0  0  0
   -3.5930   22.7400  -30.4150 N   0  0  0  0  0  0  0  0  0  0  0  0
   -4.2500   22.0080  -31.3120 C   0  0  0  0  0  0  0  0  0  0  0  0
   -3.5860   21.4400  -32.2050 O   0  0  0  0  0  0  0  0  0  0  0  0
   -5.6610   21.8920  -31.2320 C   0  0  0  0  0  0  0  0  0  0  0  0
   -6.5290   21.2130  -32.0210 C   0  0  0  0  0  0  0  0  0  0  0  0
   -7.8450   21.2580  -31.7370 C   0  0  0  0  0  0  0  0  0  0  0  0
   -7.9840   22.2910  -30.2930 S   0  0  0  0  0  0  0  0  0  0  0  0
   -6.1890   22.5950  -30.1780 C   0  0  0  0  0  0  0  0  0  0  0  0
   -5.4950   23.3240  -29.2920 N   0  0  0  0  0  0  0  0  0  0  0  0
   -8.6720   20.4590  -32.6820 C   0  0  0  0  0  0  0  0  0  0  0  0
   -7.6090   19.4120  -33.0630 C   0  0  0  0  0  0  0  0  0  0  0  0
   -6.4350   20.3370  -33.2680 C   0  0  0  0  0  0  0  0  0  0  0  0
   -3.7310   24.5090  -27.2170 C   0  0  0  0  0  0  0  0  0  0  0  0
   -2.9330   25.2480  -26.3510 C   0  0  0  0  0  0  0  0  0  0  0  0
   -0.3208   26.3800  -23.9291 H   0  0  0  0  0  0  0  0  0  0  0  0
   -1.7900   27.3431  -24.3042 H   0  0  0  0  0  0  0  0  0  0  0  0
   -1.8682   25.5485  -24.3042 H   0  0  0  0  0  0  0  0  0  0  0  0
   -0.3005   25.6793  -28.3883 H   0  0  0  0  0  0  0  0  0  0  0  0
   -1.7225   24.3763  -29.8976 H   0  0  0  0  0  0  0  0  0  0  0  0
   -6.0050   23.8060  -28.5410 H   0  0  0  0  0  0  0  0  0  0  0  0
   -9.5459   20.0061  -32.1908 H   0  0  0  0  0  0  0  0  0  0  0  0
   -9.1240   21.0144  -33.5170 H   0  0  0  0  0  0  0  0  0  0  0  0
   -7.4300   18.6910  -32.2518 H   0  0  0  0  0  0  0  0  0  0  0  0
   -7.8617   18.7691  -33.9191 H   0  0  0  0  0  0  0  0  0  0  0  0
   -5.4855   19.7826  -33.3009 H   0  0  0  0  0  0  0  0  0  0  0  0
   -6.4591   20.8951  -34.2156 H   0  0  0  0  0  0  0  0  0  0  0  0
   -4.7188   24.1780  -26.8639 H   0  0  0  0  0  0  0  0  0  0  0  0
   -3.2864   25.4928  -25.3385 H   0  0  0  0  0  0  0  0  0  0  0  0
  1  2  1  0
  2  3  1  0
  3  4  2  0
  4  5  1  0
  5  6  2  0
  6  7  1  0
  7  8  2  0
  8  9  1  0
  9 10  2  0
  9 11  1  0
 11 12  1  0
 12 13  2  0
 13 14  1  0
 14 15  1  0
 15 16  1  0
 13 17  1  0
 17 18  1  0
 18 19  1  0
  6 20  1  0
 20 21  2  0
 21  3  1  0
 16  7  1  0
 15 11  2  0
 19 12  1  0
  1 22  1  0
  1 23  1  0
  1 24  1  0
  4 25  1  0
  5 26  1  0
 16 27  1  0
 17 28  1  0
 17 29  1  0
 18 30  1  0
 18 31  1  0
 19 32  1  0
 19 33  1  0
 20 34  1  0
 21 35  1  0
M  END
>  <smiles>  (24) 
COc1ccc(-c2nc(=O)c3c4c(sc3[nH]2)CCC4)cc1

>  <score_type>  (24) 
oracle

>  <origin>  (24) 
adg

>  <m_score__min__energy>  (24) 
-7.2000000000000002

>  <m_primary>  (24) 
energy

$$$$
24:0
     RDKit          3D

 34 37  0  0  0  0  0  0  0  0999 V2000
   -3.5600   25.2600  -31.5900 H   0  0  0  0  0  0  0  0  0  0  0  0
   -4.1560   25.6740  -30.8410 N   0  0  0  0  0  0  0  0  0  0  0  0
   -5.2260   25.0930  -30.4010 C   0  0  0  0  0  0  0  0  0  0  0  0
   -6.1680   25.7210  -29.6760 N   0  0  0  0  0  0  0  0  0  0  0  0
   -7.0580   24.8040  -29.4130 O   0  0  0  0  0  0  0  0  0  0  0  0
   -6.7590   23.6370  -29.9090 N   0  0  0  0  0  0  0  0  0  0  0  0
   -7.3580   22.7860  -29.8390 H   0  0  0  0  0  0  0  0  0  0  0  0
   -5.5840   23.7690  -30.5500 C   0  0  0  0  0  0  0  0  0  0  0  0
   -4.9070   22.7060  -31.3200 C   0  0  0  0  0  0  0  0  0  0  0  0
   -3.5540   22.6750  -31.4780 N   0  0  0  0  0  0  0  0  0  0  0  0
   -3.3650   21.6220  -32.2910 C   0  0  0  0  0  0  0  0  0  0  0  0
   -2.1670   21.1010  -32.7680 C   0  0  0  0  0  0  0  0  0  0  0  0
   -1.2011   21.5646  -32.5189 H   0  0  0  0  0  0  0  0  0  0  0  0
   -2.2420   19.9570  -33.5820 C   0  0  0  0  0  0  0  0  0  0  0  0
   -1.3236   19.5085  -33.9886 H   0  0  0  0  0  0  0  0  0  0  0  0
   -3.5020   19.3840  -33.8770 C   0  0  0  0  0  0  0  0  0  0  0  0
   -3.5592   18.4870  -34.5111 H   0  0  0  0  0  0  0  0  0  0  0  0
   -4.6490   19.9380  -33.3790 N   0  0  0  0  0  0  0  0  0  0  0  0
   -4.5540   21.0520  -32.6090 C   0  0  0  0  0  0  0  0  0  0  0  0
   -5.5500   21.7160  -32.0060 N   0  0  0  0  0  0  0  0  0  0  0  0
   -6.9450   21.3650  -32.0030 C   0  0  0  0  0  0  0  0  0  0  0  0
   -7.9280   22.3590  -32.1340 C   0  0  0  0  0  0  0  0  0  0  0  0
   -7.6306   23.4112  -32.2544 H   0  0  0  0  0  0  0  0  0  0  0  0
   -9.2820   22.0170  -32.1120 C   0  0  0  0  0  0  0  0  0  0  0  0
  -10.0476   22.7999  -32.2170 H   0  0  0  0  0  0  0  0  0  0  0  0
   -9.6660   20.6830  -31.9570 C   0  0  0  0  0  0  0  0  0  0  0  0
  -10.7338   20.4201  -31.9313 H   0  0  0  0  0  0  0  0  0  0  0  0
   -8.6960   19.6770  -31.8340 C   0  0  0  0  0  0  0  0  0  0  0  0
   -9.1080   18.2510  -31.6270 C   0  0  0  0  0  0  0  0  0  0  0  0
   -9.1690   18.0397  -30.5492 H   0  0  0  0  0  0  0  0  0  0  0  0
  -10.0915   18.0826  -32.0899 H   0  0  0  0  0  0  0  0  0  0  0  0
   -8.3658   17.5840  -32.0899 H   0  0  0  0  0  0  0  0  0  0  0  0
   -7.3360   20.0270  -31.8380 C   0  0  0  0  0  0  0  0  0  0  0  0
   -6.5712   19.2466  -31.7109 H   0  0  0  0  0  0  0  0  0  0  0  0
  1  2  1  0
  2  3  2  0
  3  4  1  0
  4  5  1  0
  5  6  1  0
  6  7  1  0
  6  8  2  0
  8  9  1  0
  9 10  2  0
 10 11  1  0
 11 12  2  0
 12 13  1  0
 12 14  1  0
 14 15  1  0
 14 16  2  0
 16 17  1  0
 16 18  1  0
 18 19  2  0
 19 20  1  0
 20 21  1  0
 21 22  2  0
 22 23  1  0
 22 24  1  0
 24 25  1  0
 24 26  2  0
 26 27  1  0
 26 28  1  0
 28 29  1  0
 29 30  1  0
 29 31  1  0
 29 32  1  0
 28 33  2  0
 33 34  1  0
  8  3  1  0
 20  9  1  0
 33 21  1  0
 19 11  1  0
M  CHG  2   4  -1   6   1
M  END
>  <UniqueID>  (25) 
23

>  <SMILES>  (25) 
[H]/N=c1/[n-]o[nH+]c1-c1nc2cccnc2n1-c1cccc(C)c1

>  <Energy>  (25) 
123.39594671869042

>  <Genealogy>  (25) 
Cc1cccc(-n2c(-c3[nH+]o[n-]c3=N)nc3cccnc32)c1 (protonated)
[H]/N=c1/[n-]o[nH+]c1-c1nc2cccnc2n1-c1cccc(C)c1 (cis-trans isomerization)
[H]/N=c1/[n-]o[nH+]c1-c1nc2cccnc2n1-c1cccc(C)c1 (3D coordinates assigned)
[H]/N=c1/[n-]o[nH+]c1-c1nc2cccnc2n1-c1cccc(C)c1 (optimized conformer: 123.39594671869042 kcal/mol)

>  <smiles>  (25) 
Cc1cccc(-n2c(-c3no[nH]c3=N)nc3cccnc32)c1

>  <score_type>  (25) 
oracle

>  <origin>  (25) 
adg

>  <m_score__min__energy>  (25) 
-8.6199999999999992

>  <m_primary>  (25) 
energy

$$$$
25:0
     RDKit          3D

 43 45  0  0  0  0  0  0  0  0999 V2000
   -1.2270   30.4370  -25.2640 C   0  0  0  0  0  0  0  0  0  0  0  0
   -0.1400   29.8450  -24.5610 O   0  0  0  0  0  0  0  0  0  0  0  0
    0.1540   28.4730  -24.5650 C   0  0  0  0  0  0  0  0  0  0  0  0
    0.6710   27.8980  -23.4040 C   0  0  0  0  0  0  0  0  0  0  0  0
    0.9730   26.5730  -23.3660 N   0  0  0  0  0  0  0  0  0  0  0  0
    0.7840   25.7670  -24.4440 C   0  0  0  0  0  0  0  0  0  0  0  0
    0.2610   26.2840  -25.6430 C   0  0  0  0  0  0  0  0  0  0  0  0
    0.0500   25.4320  -26.7990 N   0  0  0  0  0  0  0  0  0  0  0  0
    0.5550   24.0470  -26.7890 C   0  0  0  0  0  0  0  0  0  0  0  0
   -0.4550   23.0800  -27.4260 C   0  0  0  0  0  0  0  0  0  0  0  0
   -0.6060   23.2940  -28.9340 C   0  0  0  0  0  0  0  0  0  0  0  0
   -1.7230   24.1960  -29.2220 N   0  0  0  0  0  0  0  0  0  0  0  0
   -2.7560   23.7890  -30.1290 C   0  0  0  0  0  0  0  0  0  0  0  0
   -2.7360   22.6320  -30.6250 O   0  0  0  0  0  0  0  0  0  0  0  0
   -3.8290   24.6730  -30.4640 N   0  0  0  0  0  0  0  0  0  0  0  0
   -5.2070   24.4350  -30.0550 C   0  0  0  0  0  0  0  0  0  0  0  0
   -6.0500   25.6940  -30.0610 C   0  0  0  0  0  0  0  0  0  0  0  0
   -6.2190   24.6590  -31.1630 C   0  0  0  0  0  0  0  0  0  0  0  0
   -1.8890   25.4110  -28.4200 C   0  0  0  0  0  0  0  0  0  0  0  0
   -0.5340   26.0160  -28.0240 C   0  0  0  0  0  0  0  0  0  0  0  0
   -0.0490   27.6560  -25.6900 C   0  0  0  0  0  0  0  0  0  0  0  0
   -1.9568   30.8345  -24.5433 H   0  0  0  0  0  0  0  0  0  0  0  0
   -0.8525   31.2558  -25.8960 H   0  0  0  0  0  0  0  0  0  0  0  0
   -1.7117   29.6783  -25.8960 H   0  0  0  0  0  0  0  0  0  0  0  0
    0.8355   28.5212  -22.5127 H   0  0  0  0  0  0  0  0  0  0  0  0
    1.3600   26.1650  -22.4860 H   0  0  0  0  0  0  0  0  0  0  0  0
    1.0426   24.6999  -24.3781 H   0  0  0  0  0  0  0  0  0  0  0  0
    1.4973   24.0051  -27.3550 H   0  0  0  0  0  0  0  0  0  0  0  0
    0.7150   23.7433  -25.7439 H   0  0  0  0  0  0  0  0  0  0  0  0
   -0.1151   22.0489  -27.2490 H   0  0  0  0  0  0  0  0  0  0  0  0
   -1.4347   23.2699  -26.9633 H   0  0  0  0  0  0  0  0  0  0  0  0
    0.3221   23.7312  -29.3309 H   0  0  0  0  0  0  0  0  0  0  0  0
   -0.8057   22.3225  -29.4097 H   0  0  0  0  0  0  0  0  0  0  0  0
   -5.0104   23.6261  -29.3360 H   0  0  0  0  0  0  0  0  0  0  0  0
   -6.8406   25.8303  -29.3084 H   0  0  0  0  0  0  0  0  0  0  0  0
   -5.8374   26.7729  -30.0328 H   0  0  0  0  0  0  0  0  0  0  0  0
   -7.1314   24.0461  -31.2074 H   0  0  0  0  0  0  0  0  0  0  0  0
   -6.1791   24.6780  -32.2621 H   0  0  0  0  0  0  0  0  0  0  0  0
   -2.4530   26.1515  -29.0062 H   0  0  0  0  0  0  0  0  0  0  0  0
   -2.4293   25.1448  -27.4996 H   0  0  0  0  0  0  0  0  0  0  0  0
    0.1713   25.8572  -28.8531 H   0  0  0  0  0  0  0  0  0  0  0  0
   -0.7100   27.0817  -27.8158 H   0  0  0  0  0  0  0  0  0  0  0  0
   -0.4536   28.0924  -26.6151 H   0  0  0  0  0  0  0  0  0  0  0  0
  1  2  1  0
  2  3  1  0
  3  4  2  0
  4  5  1  0
  5  6  2  0
  6  7  1  0
  7  8  1  0
  8  9  1  0
  9 10  1  0
 10 11  1  0
 11 12  1  0
 12 13  1  0
 13 14  2  0
 13 15  1  0
 15 16  1  0
 16 17  1  0
 17 18  1  0
 12 19  1  0
 19 20  1  0
  7 21  2  0
 21  3  1  0
 20  8  1  0
 18 16  1  0
  1 22  1  0
  1 23  1  0
  1 24  1  0
  4 25  1  0
  5 26  1  0
  6 27  1  0
  9 28  1  0
  9 29  1  0
 10 30  1  0
 10 31  1  0
 11 32  1  0
 11 33  1  0
 16 34  1  0
 17 35  1  0
 17 36  1  0
 18 37  1  0
 18 38  1  0
 19 39  1  0
 19 40  1  0
 20 41  1  0
 20 42  1  0
 21 43  1  0
M  CHG  2   5   1  15  -1
M  END
>  <UniqueID>  (26) 
24

>  <SMILES>  (26) 
COc1c[nH+]cc(N2CCCN(C(=O)[N-]C3CC3)CC2)c1

>  <Energy>  (26) 
313.1331066261031

>  <Genealogy>  (26) 
COc1c[nH+]cc(N2CCCN(C(=O)[N-]C3CC3)CC2)c1 (protonated)
COc1c[nH+]cc(N2CCCN(C(=O)[N-]C3CC3)CC2)c1 (3D coordinates assigned)
COc1c[nH+]cc(N2CCCN(C(=O)[N-]C3CC3)CC2)c1 (nonaromatic ring conformer: 313.1331066261031 kcal/mol)

>  <smiles>  (26) 
COc1cncc(N2CCCN(C(=O)NC3CC3)CC2)c1

>  <score_type>  (26) 
oracle

>  <origin>  (26) 
adg

>  <m_score__min__energy>  (26) 
-5.7400000000000002

>  <m_primary>  (26) 
energy

$$$$
26:0
     RDKit          3D

 45 46  0  0  0  0  0  0  0  0999 V2000
   -8.7130   18.6590  -31.5990 C   0  0  0  0  0  0  0  0  0  0  0  0
   -8.6880   19.6830  -32.7270 C   0  0  0  0  0  0  0  0  0  0  0  0
   -7.4920   20.5190  -32.6260 N   0  0  0  0  0  0  0  0  0  0  0  0
   -6.2780   20.0730  -32.9130 N   0  0  0  0  0  0  0  0  0  0  0  0
   -5.4080   21.0890  -32.7410 C   0  0  0  0  0  0  0  0  0  0  0  0
   -3.9300   20.9270  -32.8910 C   0  0  0  0  0  0  0  0  0  0  0  0
   -6.1080   22.2210  -32.3400 C   0  0  0  0  0  0  0  0  0  0  0  0
   -5.5980   23.5120  -31.9670 N   0  0  0  0  0  0  0  0  0  0  0  0
   -6.2030   24.3610  -30.9420 C   0  0  0  0  0  0  0  0  0  0  0  0
   -5.2640   25.4590  -30.5490 C   0  0  0  0  0  0  0  0  0  0  0  0
   -5.7210   26.5260  -30.0540 O   0  0  0  0  0  0  0  0  0  0  0  0
   -3.8570   25.2880  -30.7270 N   0  0  0  0  0  0  0  0  0  0  0  0
   -3.1180   24.1750  -30.1480 C   0  0  0  0  0  0  0  0  0  0  0  0
   -3.5660   23.9590  -28.7050 C   0  0  0  0  0  0  0  0  0  0  0  0
   -2.6610   24.6950  -27.7530 C   0  0  0  0  0  0  0  0  0  0  0  0
   -3.0750   24.9470  -26.4330 C   0  0  0  0  0  0  0  0  0  0  0  0
   -2.2490   25.6600  -25.5600 C   0  0  0  0  0  0  0  0  0  0  0  0
   -1.0090   26.1360  -26.0000 C   0  0  0  0  0  0  0  0  0  0  0  0
   -0.5970   25.9020  -27.3150 C   0  0  0  0  0  0  0  0  0  0  0  0
   -1.4210   25.1890  -28.1910 C   0  0  0  0  0  0  0  0  0  0  0  0
   -7.4310   21.8250  -32.2860 C   0  0  0  0  0  0  0  0  0  0  0  0
   -8.5920   22.6690  -31.8470 C   0  0  0  0  0  0  0  0  0  0  0  0
   -8.7003   19.1801  -30.6304 H   0  0  0  0  0  0  0  0  0  0  0  0
   -9.6263   18.0507  -31.6761 H   0  0  0  0  0  0  0  0  0  0  0  0
   -7.8305   18.0069  -31.6761 H   0  0  0  0  0  0  0  0  0  0  0  0
   -8.6835   19.1582  -33.6937 H   0  0  0  0  0  0  0  0  0  0  0  0
   -9.5797   20.3225  -32.6501 H   0  0  0  0  0  0  0  0  0  0  0  0
   -3.4639   20.8759  -31.8959 H   0  0  0  0  0  0  0  0  0  0  0  0
   -3.7170   20.0001  -33.4437 H   0  0  0  0  0  0  0  0  0  0  0  0
   -3.5212   21.7857  -33.4437 H   0  0  0  0  0  0  0  0  0  0  0  0
   -4.6500   23.7850  -32.3140 H   0  0  0  0  0  0  0  0  0  0  0  0
   -7.1298   24.8017  -31.3379 H   0  0  0  0  0  0  0  0  0  0  0  0
   -6.4231   23.7471  -30.0561 H   0  0  0  0  0  0  0  0  0  0  0  0
   -3.3121   23.2633  -30.7320 H   0  0  0  0  0  0  0  0  0  0  0  0
   -2.0418   24.4018  -30.1665 H   0  0  0  0  0  0  0  0  0  0  0  0
   -4.5945   24.3307  -28.5863 H   0  0  0  0  0  0  0  0  0  0  0  0
   -3.5211   22.8838  -28.4771 H   0  0  0  0  0  0  0  0  0  0  0  0
   -4.0528   24.5815  -26.0863 H   0  0  0  0  0  0  0  0  0  0  0  0
   -2.5740   25.8472  -24.5259 H   0  0  0  0  0  0  0  0  0  0  0  0
   -0.3583   26.6944  -25.3110 H   0  0  0  0  0  0  0  0  0  0  0  0
    0.3766   26.2792  -27.6610 H   0  0  0  0  0  0  0  0  0  0  0  0
   -1.0970   25.0141  -29.2275 H   0  0  0  0  0  0  0  0  0  0  0  0
   -8.6303   22.6968  -30.7480 H   0  0  0  0  0  0  0  0  0  0  0  0
   -8.4702   23.6908  -32.2356 H   0  0  0  0  0  0  0  0  0  0  0  0
   -9.5264   22.2379  -32.2356 H   0  0  0  0  0  0  0  0  0  0  0  0
  1  2  1  0
  2  3  1  0
  3  4  1  0
  4  5  2  0
  5  6  1  0
  5  7  1  0
  7  8  1  0
  8  9  1  0
  9 10  1  0
 10 11  2  0
 10 12  1  0
 12 13  1  0
 13 14  1  0
 14 15  1  0
 15 16  2  0
 16 17  1  0
 17 18  2  0
 18 19  1  0
 19 20  2  0
  7 21  2  0
 21 22  1  0
 21  3  1  0
 20 15  1  0
  1 23  1  0
  1 24  1  0
  1 25  1  0
  2 26  1  0
  2 27  1  0
  6 28  1  0
  6 29  1  0
  6 30  1  0
  8 31  1  0
  9 32  1  0
  9 33  1  0
 13 34  1  0
 13 35  1  0
 14 36  1  0
 14 37  1  0
 16 38  1  0
 17 39  1  0
 18 40  1  0
 19 41  1  0
 20 42  1  0
 22 43  1  0
 22 44  1  0
 22 45  1  0
M  CHG  1  12  -1
M  END
>  <UniqueID>  (27) 
25

>  <SMILES>  (27) 
CCn1nc(C)c(NCC(=O)[N-]CCc2ccccc2)c1C

>  <Energy>  (27) 
65.53920636878085

>  <Genealogy>  (27) 
CCn1nc(C)c(NCC(=O)[N-]CCc2ccccc2)c1C (protonated)
CCn1nc(C)c(NCC(=O)[N-]CCc2ccccc2)c1C (3D coordinates assigned)
CCn1nc(C)c(NCC(=O)[N-]CCc2ccccc2)c1C (optimized conformer: 65.53920636878085 kcal/mol)

>  <smiles>  (27) 
CCn1nc(C)c(NCC(=O)NCCc2ccccc2)c1C

>  <score_type>  (27) 
oracle

>  <origin>  (27) 
adg

>  <m_score__min__energy>  (27) 
-9.1999999999999993

>  <m_primary>  (27) 
energy

$$$$
27:0
     RDKit          3D

 31 32  0  0  0  0  0  0  0  0999 V2000
   -7.3980   20.3760  -33.0340 C   0  0  0  0  0  0  0  0  0  0  0  0
   -5.9000   20.5880  -32.9420 C   0  0  0  0  0  0  0  0  0  0  0  0
   -5.0480   19.6050  -33.4950 C   0  0  0  0  0  0  0  0  0  0  0  0
   -5.7040   17.9550  -34.2490 Br  0  0  0  0  0  0  0  0  0  0  0  0
   -3.6730   19.8250  -33.4800 C   0  0  0  0  0  0  0  0  0  0  0  0
   -2.8860   18.9750  -33.9760 O   0  0  0  0  0  0  0  0  0  0  0  0
   -3.1760   20.9610  -32.9370 N   0  0  0  0  0  0  0  0  0  0  0  0
   -3.9860   21.8830  -32.3580 C   0  0  0  0  0  0  0  0  0  0  0  0
   -3.4630   22.9250  -31.8720 O   0  0  0  0  0  0  0  0  0  0  0  0
   -5.3500   21.6890  -32.3030 N   0  0  0  0  0  0  0  0  0  0  0  0
   -6.1710   22.7030  -31.5840 C   0  0  1  0  0  0  0  0  0  0  0  0
   -6.1950   22.4500  -30.0820 C   0  0  0  0  0  0  0  0  0  0  0  0
   -6.1340   23.8400  -29.4760 C   0  0  1  0  0  0  0  0  0  0  0  0
   -4.9670   23.9840  -28.7070 O   0  0  0  0  0  0  0  0  0  0  0  0
   -6.1300   24.7650  -30.7050 C   0  0  1  0  0  0  0  0  0  0  0  0
   -5.2530   26.0180  -30.5640 C   0  0  0  0  0  0  0  0  0  0  0  0
   -3.8930   25.6710  -30.5810 O   0  0  0  0  0  0  0  0  0  0  0  0
   -5.7120   24.0130  -31.8180 O   0  0  0  0  0  0  0  0  0  0  0  0
   -7.8227   20.3159  -32.0211 H   0  0  0  0  0  0  0  0  0  0  0  0
   -7.8551   21.2184  -33.5738 H   0  0  0  0  0  0  0  0  0  0  0  0
   -7.6034   19.4398  -33.5738 H   0  0  0  0  0  0  0  0  0  0  0  0
   -2.1430   21.1250  -32.9530 H   0  0  0  0  0  0  0  0  0  0  0  0
   -7.1912   22.6037  -31.9832 H   0  0  0  0  0  0  0  0  0  0  0  0
   -7.1210   21.9348  -29.7868 H   0  0  0  0  0  0  0  0  0  0  0  0
   -5.3691   21.8051  -29.7475 H   0  0  0  0  0  0  0  0  0  0  0  0
   -6.9666   24.0627  -28.7925 H   0  0  0  0  0  0  0  0  0  0  0  0
   -4.7390   24.9500  -28.7160 H   0  0  0  0  0  0  0  0  0  0  0  0
   -7.1557   25.1444  -30.8230 H   0  0  0  0  0  0  0  0  0  0  0  0
   -5.4624   26.7022  -31.3994 H   0  0  0  0  0  0  0  0  0  0  0  0
   -5.4832   26.5073  -29.6061 H   0  0  0  0  0  0  0  0  0  0  0  0
   -3.7920   24.9240  -31.2240 H   0  0  0  0  0  0  0  0  0  0  0  0
  1  2  1  0
  2  3  2  0
  3  4  1  0
  3  5  1  0
  5  6  2  0
  5  7  1  0
  7  8  1  0
  8  9  2  0
  8 10  1  0
 10 11  1  0
 11 12  1  0
 12 13  1  0
 13 14  1  0
 13 15  1  0
 15 16  1  0
 16 17  1  0
 15 18  1  0
 10  2  1  0
 18 11  1  0
  1 19  1  0
  1 20  1  0
  1 21  1  0
  7 22  1  0
 11 23  1  6
 12 24  1  0
 12 25  1  0
 13 26  1  1
 14 27  1  0
 15 28  1  6
 16 29  1  0
 16 30  1  0
 17 31  1  0
M  END
>  <UniqueID>  (28) 
26

>  <SMILES>  (28) 
Cc1c(Br)c(=O)[nH]c(=O)n1[C@H]1C[C@@H](O)C(CO)O1

>  <Energy>  (28) 
43.32619433998922

>  <Genealogy>  (28) 
Cc1c(Br)c(=O)[nH]c(=O)n1[C@H]1C[C@@H](O)C(CO)O1 (chirality)
Cc1c(Br)c(=O)[nH]c(=O)n1[C@H]1C[C@@H](O)C(CO)O1 (3D coordinates assigned)
Cc1c(Br)c(=O)[nH]c(=O)n1[C@H]1C[C@@H](O)C(CO)O1 (nonaromatic ring conformer: 43.32619433998922 kcal/mol)

>  <smiles>  (28) 
Cc1c(Br)c(=O)[nH]c(=O)n1C1CC(O)C(CO)O1

>  <score_type>  (28) 
oracle

>  <origin>  (28) 
adg

>  <m_score__min__energy>  (28) 
-6.8600000000000003

>  <m_primary>  (28) 
energy

$$$$
28:0
     RDKit          3D

 38 40  0  0  0  0  0  0  0  0999 V2000
   -9.6117   21.0703  -31.0367 H   0  0  0  0  0  0  0  0  0  0  0  0
   -8.7490   21.1620  -31.7130 C   0  0  0  0  0  0  0  0  0  0  0  0
   -8.3470   22.3610  -32.0320 N   0  0  0  0  0  0  0  0  0  0  0  0
   -7.1570   23.0300  -31.5820 C   0  0  0  0  0  0  0  0  0  0  0  0
   -7.2190   24.2070  -30.8190 C   0  0  0  0  0  0  0  0  0  0  0  0
   -8.1962   24.6243  -30.5344 H   0  0  0  0  0  0  0  0  0  0  0  0
   -6.0460   24.8500  -30.4200 C   0  0  0  0  0  0  0  0  0  0  0  0
   -6.1038   25.7610  -29.8063 H   0  0  0  0  0  0  0  0  0  0  0  0
   -4.7900   24.3400  -30.7980 C   0  0  0  0  0  0  0  0  0  0  0  0
   -3.5890   24.9550  -30.4120 O   0  0  0  0  0  0  0  0  0  0  0  0
   -2.7570   24.5050  -29.3480 C   0  0  0  0  0  0  0  0  0  0  0  0
   -3.2245   24.7578  -28.3849 H   0  0  0  0  0  0  0  0  0  0  0  0
   -2.6291   23.4147  -29.4185 H   0  0  0  0  0  0  0  0  0  0  0  0
   -1.7746   24.9947  -29.4185 H   0  0  0  0  0  0  0  0  0  0  0  0
   -4.7230   23.1830  -31.5910 C   0  0  0  0  0  0  0  0  0  0  0  0
   -3.4560   22.7030  -31.9630 O   0  0  0  0  0  0  0  0  0  0  0  0
   -3.2350   21.5420  -32.7560 C   0  0  0  0  0  0  0  0  0  0  0  0
   -3.0700   20.6752  -32.0991 H   0  0  0  0  0  0  0  0  0  0  0  0
   -4.1144   21.3588  -33.3909 H   0  0  0  0  0  0  0  0  0  0  0  0
   -2.3498   21.6947  -33.3909 H   0  0  0  0  0  0  0  0  0  0  0  0
   -5.9120   22.5410  -31.9880 C   0  0  0  0  0  0  0  0  0  0  0  0
   -5.8604   21.6452  -32.6243 H   0  0  0  0  0  0  0  0  0  0  0  0
   -8.1170   19.9170  -32.2040 C   0  0  0  0  0  0  0  0  0  0  0  0
   -7.0720   20.0030  -33.1300 C   0  0  0  0  0  0  0  0  0  0  0  0
   -6.7275   20.9856  -33.4848 H   0  0  0  0  0  0  0  0  0  0  0  0
   -6.4680   18.8350  -33.6020 C   0  0  0  0  0  0  0  0  0  0  0  0
   -5.4350   18.8740  -34.5500 C   0  0  0  0  0  0  0  0  0  0  0  0
   -5.0793   19.8399  -34.9381 H   0  0  0  0  0  0  0  0  0  0  0  0
   -4.8580   17.6820  -35.0010 C   0  0  0  0  0  0  0  0  0  0  0  0
   -4.0484   17.7116  -35.7451 H   0  0  0  0  0  0  0  0  0  0  0  0
   -5.3080   16.4520  -34.5080 C   0  0  0  0  0  0  0  0  0  0  0  0
   -4.8512   15.5174  -34.8655 H   0  0  0  0  0  0  0  0  0  0  0  0
   -6.3370   16.4080  -33.5620 C   0  0  0  0  0  0  0  0  0  0  0  0
   -6.6884   15.4392  -33.1775 H   0  0  0  0  0  0  0  0  0  0  0  0
   -6.9200   17.5940  -33.1040 C   0  0  0  0  0  0  0  0  0  0  0  0
   -7.8920   17.5500  -32.1990 O   0  0  0  0  0  0  0  0  0  0  0  0
   -8.4910   18.6420  -31.7310 C   0  0  0  0  0  0  0  0  0  0  0  0
   -9.3800   18.5220  -30.8470 O   0  0  0  0  0  0  0  0  0  0  0  0
  1  2  1  0
  2  3  2  0
  3  4  1  0
  4  5  2  0
  5  6  1  0
  5  7  1  0
  7  8  1  0
  7  9  2  0
  9 10  1  0
 10 11  1  0
 11 12  1  0
 11 13  1  0
 11 14  1  0
  9 15  1  0
 15 16  1  0
 16 17  1  0
 17 18  1  0
 17 19  1  0
 17 20  1  0
 15 21  2  0
 21 22  1  0
  2 23  1  0
 23 24  2  0
 24 25  1  0
 24 26  1  0
 26 27  2  0
 27 28  1  0
 27 29  1  0
 29 30  1  0
 29 31  2  0
 31 32  1  0
 31 33  1  0
 33 34  1  0
 33 35  2  0
 35 36  1  0
 36 37  1  0
 37 38  2  0
 21  4  1  0
 37 23  1  0
 35 26  1  0
M  END
>  <UniqueID>  (29) 
27

>  <SMILES>  (29) 
COc1ccc(/N=C\c2cc3ccccc3oc2=O)cc1OC

>  <Energy>  (29) 
56.19195477209381

>  <Genealogy>  (29) 
COc1ccc(/N=C\c2cc3ccccc3oc2=O)cc1OC (cis-trans isomerization)
COc1ccc(/N=C\c2cc3ccccc3oc2=O)cc1OC (3D coordinates assigned)
COc1ccc(/N=C\c2cc3ccccc3oc2=O)cc1OC (optimized conformer: 56.19195477209381 kcal/mol)

>  <smiles>  (29) 
COc1ccc(N=Cc2cc3ccccc3oc2=O)cc1OC

>  <score_type>  (29) 
oracle

>  <origin>  (29) 
adg

>  <m_score__min__energy>  (29) 
-8.4800000000000004

>  <m_primary>  (29) 
energy

$$$$
29:0
     RDKit          3D

 39 38  0  0  0  0  0  0  0  0999 V2000
   -8.6300   19.4050  -31.7180 C   0  0  0  0  0  0  0  0  0  0  0  0
   -8.8750   20.8130  -32.2550 C   0  0  0  0  0  0  0  0  0  0  0  0
   -8.6110   21.8720  -31.1740 C   0  0  0  0  0  0  0  0  0  0  0  0
   -7.8080   23.0790  -31.7080 C   0  0  0  0  0  0  0  0  0  0  0  0
   -6.8370   23.6790  -30.6750 C   0  0  0  0  0  0  0  0  0  0  0  0
   -5.3380   23.3780  -30.9350 C   0  0  1  0  0  0  0  0  0  0  0  0
   -5.2130   22.7150  -32.3410 C   0  0  0  0  0  0  0  0  0  0  0  0
   -4.5590   21.3680  -32.4070 N   0  0  0  0  0  0  0  0  0  0  0  0
   -3.2890   21.5220  -33.1610 C   0  0  0  0  0  0  0  0  0  0  0  0
   -4.2220   20.8520  -31.0570 C   0  0  0  0  0  0  0  0  0  0  0  0
   -5.4020   20.3850  -33.1280 C   0  0  0  0  0  0  0  0  0  0  0  0
   -4.6200   24.6040  -30.9230 O   0  0  0  0  0  0  0  0  0  0  0  0
   -5.4190   25.6770  -30.4670 C   0  0  0  0  0  0  0  0  0  0  0  0
   -8.6337   19.4262  -30.6182 H   0  0  0  0  0  0  0  0  0  0  0  0
   -9.4247   18.7332  -32.0744 H   0  0  0  0  0  0  0  0  0  0  0  0
   -7.6550   19.0411  -32.0744 H   0  0  0  0  0  0  0  0  0  0  0  0
   -8.2032   20.9943  -33.1069 H   0  0  0  0  0  0  0  0  0  0  0  0
   -9.9267   20.8889  -32.5683 H   0  0  0  0  0  0  0  0  0  0  0  0
   -9.5770   22.2331  -30.7913 H   0  0  0  0  0  0  0  0  0  0  0  0
   -8.0125   21.3978  -30.3823 H   0  0  0  0  0  0  0  0  0  0  0  0
   -7.2265   22.7505  -32.5820 H   0  0  0  0  0  0  0  0  0  0  0  0
   -8.5357   23.8642  -31.9607 H   0  0  0  0  0  0  0  0  0  0  0  0
   -6.9710   24.7708  -30.6742 H   0  0  0  0  0  0  0  0  0  0  0  0
   -7.0831   23.2090  -29.7114 H   0  0  0  0  0  0  0  0  0  0  0  0
   -4.9329   22.7063  -30.1638 H   0  0  0  0  0  0  0  0  0  0  0  0
   -6.2291   22.6099  -32.7489 H   0  0  0  0  0  0  0  0  0  0  0  0
   -4.5485   23.3812  -32.9108 H   0  0  0  0  0  0  0  0  0  0  0  0
   -2.4527   21.6234  -32.4537 H   0  0  0  0  0  0  0  0  0  0  0  0
   -3.1287   20.6367  -33.7939 H   0  0  0  0  0  0  0  0  0  0  0  0
   -3.3449   22.4199  -33.7939 H   0  0  0  0  0  0  0  0  0  0  0  0
   -4.6546   21.5144  -30.2928 H   0  0  0  0  0  0  0  0  0  0  0  0
   -4.6328   19.8384  -30.9388 H   0  0  0  0  0  0  0  0  0  0  0  0
   -3.1288   20.8207  -30.9388 H   0  0  0  0  0  0  0  0  0  0  0  0
   -5.9390   19.7589  -32.4002 H   0  0  0  0  0  0  0  0  0  0  0  0
   -6.1281   20.9180  -33.7594 H   0  0  0  0  0  0  0  0  0  0  0  0
   -4.7646   19.7486  -33.7594 H   0  0  0  0  0  0  0  0  0  0  0  0
   -5.4264   25.6870  -29.3671 H   0  0  0  0  0  0  0  0  0  0  0  0
   -5.0058   26.6260  -30.8395 H   0  0  0  0  0  0  0  0  0  0  0  0
   -6.4466   25.5531  -30.8395 H   0  0  0  0  0  0  0  0  0  0  0  0
  1  2  1  0
  2  3  1  0
  3  4  1  0
  4  5  1  0
  5  6  1  0
  6  7  1  0
  7  8  1  0
  8  9  1  0
  8 10  1  0
  8 11  1  0
  6 12  1  0
 12 13  1  0
  1 14  1  0
  1 15  1  0
  1 16  1  0
  2 17  1  0
  2 18  1  0
  3 19  1  0
  3 20  1  0
  4 21  1  0
  4 22  1  0
  5 23  1  0
  5 24  1  0
  6 25  1  1
  7 26  1  0
  7 27  1  0
  9 28  1  0
  9 29  1  0
  9 30  1  0
 10 31  1  0
 10 32  1  0
 10 33  1  0
 11 34  1  0
 11 35  1  0
 11 36  1  0
 13 37  1  0
 13 38  1  0
 13 39  1  0
M  CHG  1   8   1
M  END
>  <UniqueID>  (30) 
28

>  <SMILES>  (30) 
CCCCC[C@@H](C[N+](C)(C)C)OC

>  <Energy>  (30) 
39.57549020414503

>  <Genealogy>  (30) 
CCCCC[C@@H](C[N+](C)(C)C)OC (chirality)
CCCCC[C@@H](C[N+](C)(C)C)OC (3D coordinates assigned)
CCCCC[C@@H](C[N+](C)(C)C)OC (optimized conformer: 39.57549020414503 kcal/mol)

>  <smiles>  (30) 
CCCCCC(C[N+](C)(C)C)OC

>  <score_type>  (30) 
oracle

>  <origin>  (30) 
adg

>  <m_score__min__energy>  (30) 
-4.1500000000000004

>  <m_primary>  (30) 
energy

$$$$
30:0
     RDKit          3D

 20 21  0  0  0  0  0  0  0  0999 V2000
   -7.3750   23.4650  -32.3950 O   0  0  0  0  0  0  0  0  0  0  0  0
   -7.1560   23.7380  -31.1860 C   0  0  0  0  0  0  0  0  0  0  0  0
   -5.7960   24.0200  -30.7190 C   0  0  0  0  0  0  0  0  0  0  0  0
   -5.1040   23.3620  -29.7270 C   0  0  0  0  0  0  0  0  0  0  0  0
   -3.8990   23.9570  -29.6510 N   0  0  0  0  0  0  0  0  0  0  0  0
   -2.8140   23.6310  -28.7550 C   0  0  0  0  0  0  0  0  0  0  0  0
   -2.8470   22.4400  -28.0020 C   0  0  0  0  0  0  0  0  0  0  0  0
   -1.8040   22.1230  -27.1280 C   0  0  0  0  0  0  0  0  0  0  0  0
   -0.7180   22.9860  -26.9910 C   0  0  0  0  0  0  0  0  0  0  0  0
   -0.6700   24.1700  -27.7280 C   0  0  0  0  0  0  0  0  0  0  0  0
   -1.7080   24.4960  -28.6090 C   0  0  0  0  0  0  0  0  0  0  0  0
   -1.6190   25.6760  -29.3410 O   0  0  0  0  0  0  0  0  0  0  0  0
   -3.8640   24.9290  -30.5520 N   0  0  0  0  0  0  0  0  0  0  0  0
   -5.0080   24.9900  -31.2190 N   0  0  0  0  0  0  0  0  0  0  0  0
   -7.9934   23.7652  -30.4732 H   0  0  0  0  0  0  0  0  0  0  0  0
   -5.4638   22.5191  -29.1186 H   0  0  0  0  0  0  0  0  0  0  0  0
   -3.7011   21.7543  -28.1033 H   0  0  0  0  0  0  0  0  0  0  0  0
   -1.8400   21.1900  -26.5465 H   0  0  0  0  0  0  0  0  0  0  0  0
    0.1014   22.7337  -26.3018 H   0  0  0  0  0  0  0  0  0  0  0  0
    0.1872   24.8502  -27.6162 H   0  0  0  0  0  0  0  0  0  0  0  0
  1  2  2  0
  2  3  1  0
  3  4  2  0
  4  5  1  0
  5  6  1  0
  6  7  2  0
  7  8  1  0
  8  9  2  0
  9 10  1  0
 10 11  2  0
 11 12  1  0
  5 13  1  0
 13 14  2  0
 14  3  1  0
 11  6  1  0
  2 15  1  0
  4 16  1  0
  7 17  1  0
  8 18  1  0
  9 19  1  0
 10 20  1  0
M  CHG  1  12  -1
M  END
>  <UniqueID>  (31) 
29

>  <SMILES>  (31) 
O=Cc1cn(-c2ccccc2[O-])nn1

>  <Energy>  (31) 
58.58940768818412

>  <Genealogy>  (31) 
O=Cc1cn(-c2ccccc2[O-])nn1 (protonated)
O=Cc1cn(-c2ccccc2[O-])nn1 (3D coordinates assigned)
O=Cc1cn(-c2ccccc2[O-])nn1 (optimized conformer: 58.58940768818412 kcal/mol)

>  <smiles>  (31) 
O=Cc1cn(-c2ccccc2O)nn1

>  <score_type>  (31) 
oracle

>  <origin>  (31) 
adg

>  <m_score__min__energy>  (31) 
-9.1400000000000006

>  <m_primary>  (31) 
energy

$$$$
31:0
     RDKit          3D

 38 40  0  0  0  0  0  0  0  0999 V2000
   -2.1000   19.1830  -26.7210 C   0  0  0  0  0  0  0  0  0  0  0  0
   -3.0860   20.1840  -27.3150 C   0  0  0  0  0  0  0  0  0  0  0  0
   -2.3590   21.2630  -28.0520 C   0  0  0  0  0  0  0  0  0  0  0  0
   -2.9050   22.4630  -28.3350 N   0  0  0  0  0  0  0  0  0  0  0  0
   -2.0160   23.3010  -28.9370 C   0  0  0  0  0  0  0  0  0  0  0  0
   -2.3840   24.6750  -29.3340 C   0  0  0  0  0  0  0  0  0  0  0  0
   -1.6850   25.6430  -28.9360 O   0  0  0  0  0  0  0  0  0  0  0  0
   -3.4860   24.9350  -30.2140 N   0  0  0  0  0  0  0  0  0  0  0  0
   -4.5240   24.0070  -30.5590 C   0  0  0  0  0  0  0  0  0  0  0  0
   -4.2160   22.8730  -31.3110 C   0  0  0  0  0  0  0  0  0  0  0  0
   -5.1940   21.9900  -31.6410 N   0  0  0  0  0  0  0  0  0  0  0  0
   -6.4890   22.1940  -31.2690 C   0  0  0  0  0  0  0  0  0  0  0  0
   -7.5100   21.2370  -31.6220 N   0  0  0  0  0  0  0  0  0  0  0  0
   -8.9250   21.5620  -31.3980 C   0  0  0  0  0  0  0  0  0  0  0  0
   -9.8230   20.7140  -32.3030 C   0  0  0  0  0  0  0  0  0  0  0  0
   -9.4940   19.3440  -32.1980 O   0  0  0  0  0  0  0  0  0  0  0  0
   -8.1950   19.1340  -32.7140 C   0  0  0  0  0  0  0  0  0  0  0  0
   -7.1440   19.8310  -31.8450 C   0  0  0  0  0  0  0  0  0  0  0  0
   -6.8090   23.3140  -30.5640 N   0  0  0  0  0  0  0  0  0  0  0  0
   -5.8630   24.2210  -30.2110 C   0  0  0  0  0  0  0  0  0  0  0  0
   -0.7490   22.7590  -29.1440 C   0  0  0  0  0  0  0  0  0  0  0  0
   -0.7480   21.1950  -28.5260 S   0  0  0  0  0  0  0  0  0  0  0  0
   -2.1464   19.2301  -25.6230 H   0  0  0  0  0  0  0  0  0  0  0  0
   -2.3612   18.1683  -27.0558 H   0  0  0  0  0  0  0  0  0  0  0  0
   -1.0814   19.4288  -27.0558 H   0  0  0  0  0  0  0  0  0  0  0  0
   -3.7581   19.6604  -28.0107 H   0  0  0  0  0  0  0  0  0  0  0  0
   -3.6648   20.6398  -26.4982 H   0  0  0  0  0  0  0  0  0  0  0  0
   -3.1807   22.6939  -31.6368 H   0  0  0  0  0  0  0  0  0  0  0  0
   -9.1797   21.3623  -30.3467 H   0  0  0  0  0  0  0  0  0  0  0  0
   -9.0863   22.6243  -31.6337 H   0  0  0  0  0  0  0  0  0  0  0  0
  -10.8722   20.8564  -32.0048 H   0  0  0  0  0  0  0  0  0  0  0  0
   -9.6733   21.0327  -33.3451 H   0  0  0  0  0  0  0  0  0  0  0  0
   -7.9861   18.0542  -32.7358 H   0  0  0  0  0  0  0  0  0  0  0  0
   -8.1473   19.5545  -33.7294 H   0  0  0  0  0  0  0  0  0  0  0  0
   -7.0771   19.3162  -30.8752 H   0  0  0  0  0  0  0  0  0  0  0  0
   -6.1738   19.7938  -32.3620 H   0  0  0  0  0  0  0  0  0  0  0  0
   -6.1484   25.1241  -29.6516 H   0  0  0  0  0  0  0  0  0  0  0  0
    0.1004   23.2648  -29.6264 H   0  0  0  0  0  0  0  0  0  0  0  0
  1  2  1  0
  2  3  1  0
  3  4  2  0
  4  5  1  0
  5  6  1  0
  6  7  2  0
  6  8  1  0
  8  9  1  0
  9 10  2  0
 10 11  1  0
 11 12  2  0
 12 13  1  0
 13 14  1  0
 14 15  1  0
 15 16  1  0
 16 17  1  0
 17 18  1  0
 12 19  1  0
 19 20  2  0
  5 21  2  0
 21 22  1  0
 22  3  1  0
 20  9  1  0
 18 13  1  0
  1 23  1  0
  1 24  1  0
  1 25  1  0
  2 26  1  0
  2 27  1  0
 10 28  1  0
 14 29  1  0
 14 30  1  0
 15 31  1  0
 15 32  1  0
 17 33  1  0
 17 34  1  0
 18 35  1  0
 18 36  1  0
 20 37  1  0
 21 38  1  0
M  CHG  1   8  -1
M  END
>  <UniqueID>  (32) 
30

>  <SMILES>  (32) 
CCc1nc(C(=O)[N-]c2cnc(N3CCOCC3)nc2)cs1

>  <Energy>  (32) 
71.28351488562984

>  <Genealogy>  (32) 
CCc1nc(C(=O)[N-]c2cnc(N3CCOCC3)nc2)cs1 (protonated)
CCc1nc(C(=O)[N-]c2cnc(N3CCOCC3)nc2)cs1 (3D coordinates assigned)
CCc1nc(C(=O)[N-]c2cnc(N3CCOCC3)nc2)cs1 (nonaromatic ring conformer: 71.28351488562984 kcal/mol)

>  <smiles>  (32) 
CCc1nc(C(=O)Nc2cnc(N3CCOCC3)nc2)cs1

>  <score_type>  (32) 
oracle

>  <origin>  (32) 
adg

>  <m_score__min__energy>  (32) 
-8.5899999999999999

>  <m_primary>  (32) 
energy

$$$$
32:0
     RDKit          3D

 41 43  0  0  0  0  0  0  0  0999 V2000
   -9.4650   20.5530  -32.3030 C   0  0  0  0  0  0  0  0  0  0  0  0
   -8.1490   21.2140  -31.9040 C   0  0  0  0  0  0  0  0  0  0  0  0
   -8.2980   22.7530  -31.8660 C   0  0  0  0  0  0  0  0  0  0  0  0
   -7.2250   23.4670  -31.1260 N   0  0  1  0  0  0  0  0  0  0  0  0
   -6.7970   22.7290  -29.9090 C   0  0  0  0  0  0  0  0  0  0  0  0
   -5.5090   23.3240  -29.3260 C   0  0  0  0  0  0  0  0  0  0  0  0
   -4.3140   23.2030  -30.3220 C   0  0  2  0  0  0  0  0  0  0  0  0
   -4.8210   23.0980  -31.7860 C   0  0  0  0  0  0  0  0  0  0  0  0
   -6.1030   23.9190  -31.9990 C   0  0  0  0  0  0  0  0  0  0  0  0
   -3.4510   21.9540  -29.9930 C   0  0  0  0  0  0  0  0  0  0  0  0
   -2.6700   22.1170  -28.7070 C   0  0  0  0  0  0  0  0  0  0  0  0
   -2.3470   20.9910  -27.9330 C   0  0  0  0  0  0  0  0  0  0  0  0
   -1.5710   21.1280  -26.7790 C   0  0  0  0  0  0  0  0  0  0  0  0
   -1.0980   22.3860  -26.3970 C   0  0  0  0  0  0  0  0  0  0  0  0
   -1.3980   23.5120  -27.1680 C   0  0  0  0  0  0  0  0  0  0  0  0
   -2.1830   23.3850  -28.3260 C   0  0  0  0  0  0  0  0  0  0  0  0
   -2.5240   24.5530  -29.1580 C   0  0  0  0  0  0  0  0  0  0  0  0
   -1.9710   25.6700  -28.9690 O   0  0  0  0  0  0  0  0  0  0  0  0
   -3.4830   24.4060  -30.2060 N   0  0  0  0  0  0  0  0  0  0  0  0
  -10.0236   20.2724  -31.3979 H   0  0  0  0  0  0  0  0  0  0  0  0
  -10.0632   21.2576  -32.8994 H   0  0  0  0  0  0  0  0  0  0  0  0
   -9.2570   19.6524  -32.8994 H   0  0  0  0  0  0  0  0  0  0  0  0
   -7.8528   20.8554  -30.9072 H   0  0  0  0  0  0  0  0  0  0  0  0
   -7.3824   20.9518  -32.6480 H   0  0  0  0  0  0  0  0  0  0  0  0
   -8.3020   23.1217  -32.9024 H   0  0  0  0  0  0  0  0  0  0  0  0
   -9.2345   22.9593  -31.3271 H   0  0  0  0  0  0  0  0  0  0  0  0
   -7.6820   24.3430  -30.7730 H   0  0  0  0  0  0  0  0  0  0  0  0
   -6.6193   21.6757  -30.1716 H   0  0  0  0  0  0  0  0  0  0  0  0
   -7.5924   22.8105  -29.1535 H   0  0  0  0  0  0  0  0  0  0  0  0
   -5.2563   22.7877  -28.3994 H   0  0  0  0  0  0  0  0  0  0  0  0
   -5.6837   24.3920  -29.1287 H   0  0  0  0  0  0  0  0  0  0  0  0
   -5.0298   22.0430  -32.0171 H   0  0  0  0  0  0  0  0  0  0  0  0
   -4.0410   23.4978  -32.4506 H   0  0  0  0  0  0  0  0  0  0  0  0
   -6.4131   23.8219  -33.0499 H   0  0  0  0  0  0  0  0  0  0  0  0
   -5.8772   24.9634  -31.7376 H   0  0  0  0  0  0  0  0  0  0  0  0
   -4.1141   21.0817  -29.8958 H   0  0  0  0  0  0  0  0  0  0  0  0
   -2.7277   21.8203  -30.8109 H   0  0  0  0  0  0  0  0  0  0  0  0
   -2.7064   19.9966  -28.2364 H   0  0  0  0  0  0  0  0  0  0  0  0
   -1.3320   20.2436  -26.1701 H   0  0  0  0  0  0  0  0  0  0  0  0
   -0.4882   22.4902  -25.4874 H   0  0  0  0  0  0  0  0  0  0  0  0
   -1.0187   24.4999  -26.8676 H   0  0  0  0  0  0  0  0  0  0  0  0
  1  2  1  0
  2  3  1  0
  3  4  1  0
  4  5  1  0
  5  6  1  0
  6  7  1  0
  7  8  1  0
  8  9  1  0
  7 10  1  0
 10 11  1  0
 11 12  2  0
 12 13  1  0
 13 14  2  0
 14 15  1  0
 15 16  2  0
 16 17  1  0
 17 18  2  0
 17 19  1  0
  9  4  1  0
 16 11  1  0
  7 19  1  6
  1 20  1  0
  1 21  1  0
  1 22  1  0
  2 23  1  0
  2 24  1  0
  3 25  1  0
  3 26  1  0
  4 27  1  1
  5 28  1  0
  5 29  1  0
  6 30  1  0
  6 31  1  0
  8 32  1  0
  8 33  1  0
  9 34  1  0
  9 35  1  0
 10 36  1  0
 10 37  1  0
 12 38  1  0
 13 39  1  0
 14 40  1  0
 15 41  1  0
M  CHG  2   4   1  19  -1
M  END
>  <UniqueID>  (33) 
31

>  <SMILES>  (33) 
CCC[NH+]1CCC2(CC1)Cc1ccccc1C(=O)[N-]2

>  <Energy>  (33) 
52.682409217300595

>  <Genealogy>  (33) 
CCC[NH+]1CCC2(CC1)Cc1ccccc1C(=O)[N-]2 (protonated)
CCC[NH+]1CCC2(CC1)Cc1ccccc1C(=O)[N-]2 (3D coordinates assigned)
CCC[NH+]1CCC2(CC1)Cc1ccccc1C(=O)[N-]2 (nonaromatic ring conformer: 52.682409217300595 kcal/mol)

>  <smiles>  (33) 
CCCN1CCC2(CC1)Cc1ccccc1C(=O)N2

>  <score_type>  (33) 
oracle

>  <origin>  (33) 
adg

>  <m_score__min__energy>  (33) 
-7.9800000000000004

>  <m_primary>  (33) 
energy

$$$$
33:0
     RDKit          3D

 57 60  0  0  0  0  0  0  0  0999 V2000
   -3.8190   21.9390  -31.1280 N   0  0  0  0  0  0  0  0  0  0  0  0
   -4.5150   21.6110  -32.3290 C   0  0  0  0  0  0  0  0  0  0  0  0
   -4.3470   22.3200  -33.3570 O   0  0  0  0  0  0  0  0  0  0  0  0
   -5.4940   20.5000  -32.3460 C   0  0  0  0  0  0  0  0  0  0  0  0
   -5.0040   19.2280  -32.6890 C   0  0  0  0  0  0  0  0  0  0  0  0
   -5.8720   18.1930  -33.0200 C   0  0  0  0  0  0  0  0  0  0  0  0
   -7.2450   18.4130  -33.0430 C   0  0  0  0  0  0  0  0  0  0  0  0
   -7.7690   19.6520  -32.6520 C   0  0  0  0  0  0  0  0  0  0  0  0
   -9.1560   19.8540  -32.6960 C   0  0  0  0  0  0  0  0  0  0  0  0
   -9.7030   21.0650  -32.2900 C   0  0  0  0  0  0  0  0  0  0  0  0
   -8.8850   22.0590  -31.7620 C   0  0  0  0  0  0  0  0  0  0  0  0
   -7.4960   21.8720  -31.6650 C   0  0  0  0  0  0  0  0  0  0  0  0
   -6.7720   22.8140  -30.7760 C   0  0  0  0  0  0  0  0  0  0  0  0
   -6.1930   22.3650  -29.7500 O   0  0  0  0  0  0  0  0  0  0  0  0
   -6.6410   24.2790  -31.1110 C   0  0  0  0  0  0  0  0  0  0  0  0
   -5.7780   25.0240  -30.0820 C   0  0  0  0  0  0  0  0  0  0  0  0
   -4.2870   24.9760  -30.4450 C   0  0  0  0  0  0  0  0  0  0  0  0
   -3.4960   24.4880  -29.2980 N   0  0  0  0  0  0  0  0  0  0  0  0
   -4.2650   23.5350  -28.4750 C   0  0  0  0  0  0  0  0  0  0  0  0
   -3.5550   23.2910  -27.1250 C   0  0  0  0  0  0  0  0  0  0  0  0
   -2.0260   23.5450  -27.1930 C   0  0  0  0  0  0  0  0  0  0  0  0
   -1.5860   24.9630  -26.8290 C   0  0  0  0  0  0  0  0  0  0  0  0
   -0.8290   25.6900  -27.7670 C   0  0  0  0  0  0  0  0  0  0  0  0
   -0.4590   27.0140  -27.5160 C   0  0  0  0  0  0  0  0  0  0  0  0
   -0.8370   27.6330  -26.3220 C   0  0  0  0  0  0  0  0  0  0  0  0
   -0.3800   29.2980  -26.0130 Cl  0  0  0  0  0  0  0  0  0  0  0  0
   -1.5820   26.9250  -25.3770 C   0  0  0  0  0  0  0  0  0  0  0  0
   -1.9570   25.6020  -25.6240 C   0  0  0  0  0  0  0  0  0  0  0  0
   -1.4930   23.1430  -28.5810 C   0  0  0  0  0  0  0  0  0  0  0  0
   -2.2030   23.9010  -29.7240 C   0  0  0  0  0  0  0  0  0  0  0  0
   -6.9030   20.6960  -32.2170 C   0  0  0  0  0  0  0  0  0  0  0  0
   -4.1630   22.6990  -30.5000 H   0  0  0  0  0  0  0  0  0  0  0  0
   -3.9187   19.0487  -32.6957 H   0  0  0  0  0  0  0  0  0  0  0  0
   -5.4716   17.1980  -33.2642 H   0  0  0  0  0  0  0  0  0  0  0  0
   -7.9227   17.6105  -33.3697 H   0  0  0  0  0  0  0  0  0  0  0  0
   -9.8147   19.0491  -33.0540 H   0  0  0  0  0  0  0  0  0  0  0  0
  -10.7850   21.2383  -32.3862 H   0  0  0  0  0  0  0  0  0  0  0  0
   -9.3314   23.0030  -31.4162 H   0  0  0  0  0  0  0  0  0  0  0  0
   -6.1765   24.3773  -32.1033 H   0  0  0  0  0  0  0  0  0  0  0  0
   -7.6470   24.7238  -31.0998 H   0  0  0  0  0  0  0  0  0  0  0  0
   -6.1006   26.0748  -30.0411 H   0  0  0  0  0  0  0  0  0  0  0  0
   -5.9080   24.5317  -29.1070 H   0  0  0  0  0  0  0  0  0  0  0  0
   -4.1432   24.2984  -31.2995 H   0  0  0  0  0  0  0  0  0  0  0  0
   -3.9496   25.9897  -30.7070 H   0  0  0  0  0  0  0  0  0  0  0  0
   -5.2681   23.9458  -28.2875 H   0  0  0  0  0  0  0  0  0  0  0  0
   -4.3415   22.5796  -29.0147 H   0  0  0  0  0  0  0  0  0  0  0  0
   -3.9898   23.9655  -26.3727 H   0  0  0  0  0  0  0  0  0  0  0  0
   -3.7027   22.2336  -26.8605 H   0  0  0  0  0  0  0  0  0  0  0  0
   -1.5823   22.9105  -26.4117 H   0  0  0  0  0  0  0  0  0  0  0  0
   -0.5250   25.2101  -28.7090 H   0  0  0  0  0  0  0  0  0  0  0  0
    0.1309   27.5697  -28.2598 H   0  0  0  0  0  0  0  0  0  0  0  0
   -1.8748   27.4107  -24.4345 H   0  0  0  0  0  0  0  0  0  0  0  0
   -2.5459   25.0530  -24.8744 H   0  0  0  0  0  0  0  0  0  0  0  0
   -0.4166   23.3652  -28.6244 H   0  0  0  0  0  0  0  0  0  0  0  0
   -1.6876   22.0690  -28.7179 H   0  0  0  0  0  0  0  0  0  0  0  0
   -1.5453   24.7111  -30.0720 H   0  0  0  0  0  0  0  0  0  0  0  0
   -2.4121   23.1775  -30.5258 H   0  0  0  0  0  0  0  0  0  0  0  0
  1  2  1  0
  2  3  2  0
  2  4  1  0
  4  5  2  0
  5  6  1  0
  6  7  2  0
  7  8  1  0
  8  9  2  0
  9 10  1  0
 10 11  2  0
 11 12  1  0
 12 13  1  0
 13 14  2  0
 13 15  1  0
 15 16  1  0
 16 17  1  0
 17 18  1  0
 18 19  1  0
 19 20  1  0
 20 21  1  0
 21 22  1  0
 22 23  2  0
 23 24  1  0
 24 25  2  0
 25 26  1  0
 25 27  1  0
 27 28  2  0
 21 29  1  0
 29 30  1  0
 12 31  2  0
 31  4  1  0
 31  8  1  0
 30 18  1  0
 28 22  1  0
  1 32  1  0
  5 33  1  0
  6 34  1  0
  7 35  1  0
  9 36  1  0
 10 37  1  0
 11 38  1  0
 15 39  1  0
 15 40  1  0
 16 41  1  0
 16 42  1  0
 17 43  1  0
 17 44  1  0
 19 45  1  0
 19 46  1  0
 20 47  1  0
 20 48  1  0
 21 49  1  0
 23 50  1  0
 24 51  1  0
 27 52  1  0
 28 53  1  0
 29 54  1  0
 29 55  1  0
 30 56  1  0
 30 57  1  0
M  CHG  1   1  -1
M  END
>  <UniqueID>  (34) 
32

>  <SMILES>  (34) 
[NH-]C(=O)c1cccc2cccc(C(=O)CCCN3CCC(c4ccc(Cl)cc4)CC3)c12

>  <Energy>  (34) 
87.33315372357912

>  <Genealogy>  (34) 
[NH-]C(=O)c1cccc2cccc(C(=O)CCCN3CCC(c4ccc(Cl)cc4)CC3)c12 (protonated)
[NH-]C(=O)c1cccc2cccc(C(=O)CCCN3CCC(c4ccc(Cl)cc4)CC3)c12 (3D coordinates assigned)
[NH-]C(=O)c1cccc2cccc(C(=O)CCCN3CCC(c4ccc(Cl)cc4)CC3)c12 (nonaromatic ring conformer: 87.33315372357912 kcal/mol)

>  <smiles>  (34) 
NC(=O)c1cccc2cccc(C(=O)CCCN3CCC(c4ccc(Cl)cc4)CC3)c12

>  <score_type>  (34) 
oracle

>  <origin>  (34) 
adg

>  <m_score__min__energy>  (34) 
-12.67

>  <m_primary>  (34) 
energy

$$$$
34:0
     RDKit          3D

 37 38  0  0  0  0  0  0  0  0999 V2000
   -1.7950   21.5650  -31.3980 C   0  0  0  0  0  0  0  0  0  0  0  0
   -2.0610   22.7610  -30.4920 C   0  0  0  0  0  0  0  0  0  0  0  0
   -3.4520   23.1840  -30.6120 N   0  0  0  0  0  0  0  0  0  0  0  0
   -4.5130   22.3710  -30.7820 C   0  0  0  0  0  0  0  0  0  0  0  0
   -5.6500   23.1480  -30.7770 C   0  0  0  0  0  0  0  0  0  0  0  0
   -7.3080   22.5680  -30.9230 S   0  0  0  0  0  0  0  0  0  0  0  0
   -8.0640   23.4440  -31.8830 O   0  0  0  0  0  0  0  0  0  0  0  0
   -7.9720   22.6690  -29.5770 O   0  0  0  0  0  0  0  0  0  0  0  0
   -7.3700   20.9100  -31.4770 N   0  0  0  0  0  0  0  0  0  0  0  0
   -6.5350   20.7430  -32.6900 C   0  0  0  0  0  0  0  0  0  0  0  0
   -6.8560   19.4520  -33.4770 C   0  0  0  0  0  0  0  0  0  0  0  0
   -7.5710   18.4170  -32.6080 C   0  0  0  0  0  0  0  0  0  0  0  0
   -8.8690   18.9940  -32.0200 C   0  0  0  0  0  0  0  0  0  0  0  0
   -8.7680   20.5020  -31.7130 C   0  0  0  0  0  0  0  0  0  0  0  0
   -5.1990   24.4450  -30.5830 C   0  0  0  0  0  0  0  0  0  0  0  0
   -6.0310   25.6750  -30.4230 C   0  0  0  0  0  0  0  0  0  0  0  0
   -3.8560   24.4380  -30.4730 N   0  0  0  0  0  0  0  0  0  0  0  0
   -1.5971   20.6753  -30.7821 H   0  0  0  0  0  0  0  0  0  0  0  0
   -2.6747   21.3832  -32.0329 H   0  0  0  0  0  0  0  0  0  0  0  0
   -0.9212   21.7732  -32.0329 H   0  0  0  0  0  0  0  0  0  0  0  0
   -1.8555   22.4794  -29.4487 H   0  0  0  0  0  0  0  0  0  0  0  0
   -1.4058   23.5919  -30.7926 H   0  0  0  0  0  0  0  0  0  0  0  0
   -4.4772   21.2783  -30.9035 H   0  0  0  0  0  0  0  0  0  0  0  0
   -6.9730   20.3230  -30.7050 H   0  0  0  0  0  0  0  0  0  0  0  0
   -6.7021   21.6062  -33.3511 H   0  0  0  0  0  0  0  0  0  0  0  0
   -5.4883   20.6725  -32.3592 H   0  0  0  0  0  0  0  0  0  0  0  0
   -7.5018   19.7070  -34.3302 H   0  0  0  0  0  0  0  0  0  0  0  0
   -5.9054   19.0142  -33.8158 H   0  0  0  0  0  0  0  0  0  0  0  0
   -7.8141   17.5376  -33.2224 H   0  0  0  0  0  0  0  0  0  0  0  0
   -6.9053   18.1354  -31.7788 H   0  0  0  0  0  0  0  0  0  0  0  0
   -9.6828   18.8364  -32.7431 H   0  0  0  0  0  0  0  0  0  0  0  0
   -9.0612   18.4749  -31.0694 H   0  0  0  0  0  0  0  0  0  0  0  0
   -9.1671   21.0688  -32.5671 H   0  0  0  0  0  0  0  0  0  0  0  0
   -9.3482   20.7098  -30.8018 H   0  0  0  0  0  0  0  0  0  0  0  0
   -6.1730   25.8849  -29.3526 H   0  0  0  0  0  0  0  0  0  0  0  0
   -5.5224   26.5262  -30.8993 H   0  0  0  0  0  0  0  0  0  0  0  0
   -7.0103   25.5198  -30.8993 H   0  0  0  0  0  0  0  0  0  0  0  0
  1  2  1  0
  2  3  1  0
  3  4  1  0
  4  5  2  0
  5  6  1  0
  6  7  2  0
  6  8  2  0
  6  9  1  0
  9 10  1  0
 10 11  1  0
 11 12  1  0
 12 13  1  0
 13 14  1  0
  5 15  1  0
 15 16  1  0
 15 17  2  0
 17  3  1  0
 14  9  1  0
  1 18  1  0
  1 19  1  0
  1 20  1  0
  2 21  1  0
  2 22  1  0
  4 23  1  0
  9 24  1  0
 10 25  1  0
 10 26  1  0
 11 27  1  0
 11 28  1  0
 12 29  1  0
 12 30  1  0
 13 31  1  0
 13 32  1  0
 14 33  1  0
 14 34  1  0
 16 35  1  0
 16 36  1  0
 16 37  1  0
M  CHG  1   9   1
M  END
>  <UniqueID>  (35) 
33

>  <SMILES>  (35) 
CCn1cc(S(=O)(=O)[NH+]2CCCCC2)c(C)n1

>  <Energy>  (35) 
63.52267199920767

>  <Genealogy>  (35) 
CCn1cc(S(=O)(=O)[NH+]2CCCCC2)c(C)n1 (protonated)
CCn1cc(S(=O)(=O)[NH+]2CCCCC2)c(C)n1 (3D coordinates assigned)
CCn1cc(S(=O)(=O)[NH+]2CCCCC2)c(C)n1 (nonaromatic ring conformer: 63.52267199920767 kcal/mol)

>  <smiles>  (35) 
CCn1cc(S(=O)(=O)N2CCCCC2)c(C)n1

>  <score_type>  (35) 
oracle

>  <origin>  (35) 
adg

>  <m_score__min__energy>  (35) 
-6.4699999999999998

>  <m_primary>  (35) 
energy

$$$$
35:0
     RDKit          3D

 49 53  0  0  0  0  0  0  0  0999 V2000
   -3.4950   21.7160  -27.9310 C   0  0  0  0  0  0  0  0  0  0  0  0
   -3.7260   21.3480  -29.2860 O   0  0  0  0  0  0  0  0  0  0  0  0
   -2.6970   21.2500  -30.2270 C   0  0  0  0  0  0  0  0  0  0  0  0
   -1.5020   21.9690  -30.0210 C   0  0  0  0  0  0  0  0  0  0  0  0
   -0.4660   21.8870  -30.9630 C   0  0  0  0  0  0  0  0  0  0  0  0
   -0.6640   21.0760  -32.0750 C   0  0  0  0  0  0  0  0  0  0  0  0
    0.3450   20.8200  -33.3900 S   0  0  0  0  0  0  0  0  0  0  0  0
   -0.7200   19.7880  -34.2060 C   0  0  0  0  0  0  0  0  0  0  0  0
   -1.8770   19.6260  -33.4390 C   0  0  0  0  0  0  0  0  0  0  0  0
   -2.9980   18.8450  -33.8850 N   0  0  0  0  0  0  0  0  0  0  0  0
   -3.1160   17.4940  -34.0220 C   0  0  0  0  0  0  0  0  0  0  0  0
   -2.1420   16.6960  -33.9540 O   0  0  0  0  0  0  0  0  0  0  0  0
   -4.4040   17.0820  -34.1800 N   0  0  0  0  0  0  0  0  0  0  0  0
   -4.9280   15.7370  -33.9760 C   0  0  0  0  0  0  0  0  0  0  0  0
   -5.0940   18.2360  -34.1450 C   0  0  0  0  0  0  0  0  0  0  0  0
   -6.2760   18.4660  -33.5560 N   0  0  0  0  0  0  0  0  0  0  0  0
   -6.1080   19.7420  -33.1000 C   0  0  0  0  0  0  0  0  0  0  0  0
   -7.1730   20.4790  -32.3810 C   0  0  0  0  0  0  0  0  0  0  0  0
   -8.5070   20.0660  -32.5430 C   0  0  0  0  0  0  0  0  0  0  0  0
   -9.5500   20.7810  -31.9520 C   0  0  0  0  0  0  0  0  0  0  0  0
   -9.2760   21.9140  -31.1880 C   0  0  0  0  0  0  0  0  0  0  0  0
   -7.9560   22.3280  -31.0000 C   0  0  0  0  0  0  0  0  0  0  0  0
   -6.8930   21.6160  -31.5830 C   0  0  0  0  0  0  0  0  0  0  0  0
   -5.5400   21.9970  -31.2860 N   0  0  0  0  0  0  0  0  0  0  0  0
   -5.0740   23.6410  -30.9970 S   0  0  0  0  0  0  0  0  0  0  0  0
   -5.4710   24.0940  -29.3230 C   0  0  0  0  0  0  0  0  0  0  0  0
   -5.7890   24.5540  -31.9540 O   0  0  0  0  0  0  0  0  0  0  0  0
   -3.5930   23.7750  -31.2140 O   0  0  0  0  0  0  0  0  0  0  0  0
   -4.8560   20.2490  -33.2950 N   0  0  0  0  0  0  0  0  0  0  0  0
   -4.2710   19.2680  -33.9900 C   0  0  0  0  0  0  0  0  0  0  0  0
   -1.8380   20.3670  -32.2470 C   0  0  0  0  0  0  0  0  0  0  0  0
   -2.8430   20.4680  -31.3390 N   0  0  0  0  0  0  0  0  0  0  0  0
   -3.9605   20.9744  -27.2652 H   0  0  0  0  0  0  0  0  0  0  0  0
   -2.4123   21.7515  -27.7402 H   0  0  0  0  0  0  0  0  0  0  0  0
   -3.9337   22.7065  -27.7402 H   0  0  0  0  0  0  0  0  0  0  0  0
   -1.3823   22.5932  -29.1232 H   0  0  0  0  0  0  0  0  0  0  0  0
    0.4718   22.4456  -30.8266 H   0  0  0  0  0  0  0  0  0  0  0  0
   -0.5316   19.3198  -35.1834 H   0  0  0  0  0  0  0  0  0  0  0  0
   -5.0071   15.5339  -32.8978 H   0  0  0  0  0  0  0  0  0  0  0  0
   -5.9230   15.6571  -34.4381 H   0  0  0  0  0  0  0  0  0  0  0  0
   -4.2493   15.0051  -34.4381 H   0  0  0  0  0  0  0  0  0  0  0  0
   -8.7310   19.1706  -33.1414 H   0  0  0  0  0  0  0  0  0  0  0  0
  -10.5899   20.4497  -32.0895 H   0  0  0  0  0  0  0  0  0  0  0  0
  -10.1004   22.4825  -30.7328 H   0  0  0  0  0  0  0  0  0  0  0  0
   -7.7458   23.2191  -30.3903 H   0  0  0  0  0  0  0  0  0  0  0  0
   -4.7820   21.2790  -31.3160 H   0  0  0  0  0  0  0  0  0  0  0  0
   -4.9097   23.4535  -28.6269 H   0  0  0  0  0  0  0  0  0  0  0  0
   -5.1989   25.1463  -29.1536 H   0  0  0  0  0  0  0  0  0  0  0  0
   -6.5499   23.9623  -29.1536 H   0  0  0  0  0  0  0  0  0  0  0  0
  1  2  1  0
  2  3  1  0
  3  4  2  0
  4  5  1  0
  5  6  2  0
  6  7  1  0
  7  8  1  0
  8  9  2  0
  9 10  1  0
 10 11  1  0
 11 12  2  0
 11 13  1  0
 13 14  1  0
 13 15  1  0
 15 16  1  0
 16 17  2  0
 17 18  1  0
 18 19  2  0
 19 20  1  0
 20 21  2  0
 21 22  1  0
 22 23  2  0
 23 24  1  0
 24 25  1  0
 25 26  1  0
 25 27  2  0
 25 28  2  0
 17 29  1  0
 29 30  1  0
  9 31  1  0
 31 32  2  0
 32  3  1  0
 31  6  1  0
 30 10  1  0
 30 15  2  0
 23 18  1  0
  1 33  1  0
  1 34  1  0
  1 35  1  0
  4 36  1  0
  5 37  1  0
  8 38  1  0
 14 39  1  0
 14 40  1  0
 14 41  1  0
 19 42  1  0
 20 43  1  0
 21 44  1  0
 22 45  1  0
 24 46  1  0
 26 47  1  0
 26 48  1  0
 26 49  1  0
M  CHG  1  29  -1
M  END
>  <UniqueID>  (36) 
34

>  <SMILES>  (36) 
COc1ccc2scc(-n3c(=O)n(C)c4nc(-c5ccccc5NS(C)(=O)=O)[n-]c43)c2n1

>  <Energy>  (36) 
185.86028796493082

>  <Genealogy>  (36) 
COc1ccc2scc(-n3c(=O)n(C)c4nc(-c5ccccc5NS(C)(=O)=O)[n-]c43)c2n1 (protonated)
COc1ccc2scc(-n3c(=O)n(C)c4nc(-c5ccccc5NS(C)(=O)=O)[n-]c43)c2n1 (3D coordinates assigned)
COc1ccc2scc(-n3c(=O)n(C)c4nc(-c5ccccc5NS(C)(=O)=O)[n-]c43)c2n1 (optimized conformer: 185.86028796493082 kcal/mol)

>  <smiles>  (36) 
COc1ccc2scc(-n3c(=O)n(C)c4nc(-c5ccccc5NS(C)(=O)=O)[nH]c43)c2n1

>  <score_type>  (36) 
oracle

>  <origin>  (36) 
adg

>  <m_score__min__energy>  (36) 
-10.529999999999999

>  <m_primary>  (36) 
energy

$$$$
36:0
     RDKit          3D

 38 39  0  0  0  0  0  0  0  0999 V2000
   -9.1210   18.8990  -32.1690 C   0  0  0  0  0  0  0  0  0  0  0  0
   -8.2820   20.1500  -32.1500 C   0  0  0  0  0  0  0  0  0  0  0  0
   -8.7910   21.3110  -31.5450 C   0  0  0  0  0  0  0  0  0  0  0  0
   -8.0390   22.4870  -31.5190 C   0  0  0  0  0  0  0  0  0  0  0  0
   -6.7610   22.5230  -32.0890 C   0  0  0  0  0  0  0  0  0  0  0  0
   -5.9650   23.8000  -32.0860 C   0  0  0  0  0  0  0  0  0  0  0  0
   -6.3390   24.6630  -30.8740 C   0  0  0  0  0  0  0  0  0  0  0  0
   -5.2310   25.6460  -30.4710 C   0  0  0  0  0  0  0  0  0  0  0  0
   -3.9450   25.0220  -30.4760 O   0  0  0  0  0  0  0  0  0  0  0  0
   -3.4120   24.1650  -29.4970 C   0  0  0  0  0  0  0  0  0  0  0  0
   -4.0510   22.9830  -29.0550 C   0  0  0  0  0  0  0  0  0  0  0  0
   -5.2680   22.6100  -29.5140 F   0  0  0  0  0  0  0  0  0  0  0  0
   -3.4420   22.1800  -28.0830 C   0  0  0  0  0  0  0  0  0  0  0  0
   -2.2110   22.5450  -27.5360 C   0  0  0  0  0  0  0  0  0  0  0  0
   -1.6280   21.7630  -26.5950 F   0  0  0  0  0  0  0  0  0  0  0  0
   -1.5860   23.7210  -27.9510 C   0  0  0  0  0  0  0  0  0  0  0  0
   -2.1850   24.5290  -28.9200 C   0  0  0  0  0  0  0  0  0  0  0  0
   -1.5620   25.6670  -29.3180 F   0  0  0  0  0  0  0  0  0  0  0  0
   -6.2530   21.3740  -32.7140 C   0  0  0  0  0  0  0  0  0  0  0  0
   -7.0020   20.1850  -32.7540 C   0  0  0  0  0  0  0  0  0  0  0  0
   -6.4190   18.9690  -33.4240 C   0  0  0  0  0  0  0  0  0  0  0  0
   -9.3325   18.5836  -31.1366 H   0  0  0  0  0  0  0  0  0  0  0  0
  -10.0675   19.1002  -32.6921 H   0  0  0  0  0  0  0  0  0  0  0  0
   -8.5757   18.0997  -32.6921 H   0  0  0  0  0  0  0  0  0  0  0  0
   -9.7912   21.2935  -31.0875 H   0  0  0  0  0  0  0  0  0  0  0  0
   -8.4532   23.3906  -31.0478 H   0  0  0  0  0  0  0  0  0  0  0  0
   -4.8928   23.5582  -32.0413 H   0  0  0  0  0  0  0  0  0  0  0  0
   -6.1890   24.3612  -33.0052 H   0  0  0  0  0  0  0  0  0  0  0  0
   -7.2446   25.2373  -31.1190 H   0  0  0  0  0  0  0  0  0  0  0  0
   -6.5002   23.9834  -30.0242 H   0  0  0  0  0  0  0  0  0  0  0  0
   -5.2230   26.4855  -31.1818 H   0  0  0  0  0  0  0  0  0  0  0  0
   -5.4384   25.9974  -29.4495 H   0  0  0  0  0  0  0  0  0  0  0  0
   -3.9366   21.2562  -27.7486 H   0  0  0  0  0  0  0  0  0  0  0  0
   -0.6195   24.0126  -27.5142 H   0  0  0  0  0  0  0  0  0  0  0  0
   -5.2563   21.4040  -33.1784 H   0  0  0  0  0  0  0  0  0  0  0  0
   -6.0775   18.2568  -32.6584 H   0  0  0  0  0  0  0  0  0  0  0  0
   -7.1867   18.4927  -34.0515 H   0  0  0  0  0  0  0  0  0  0  0  0
   -5.5669   19.2692  -34.0515 H   0  0  0  0  0  0  0  0  0  0  0  0
  1  2  1  0
  2  3  2  0
  3  4  1  0
  4  5  2  0
  5  6  1  0
  6  7  1  0
  7  8  1  0
  8  9  1  0
  9 10  1  0
 10 11  2  0
 11 12  1  0
 11 13  1  0
 13 14  2  0
 14 15  1  0
 14 16  1  0
 16 17  2  0
 17 18  1  0
  5 19  1  0
 19 20  2  0
 20 21  1  0
 20  2  1  0
 17 10  1  0
  1 22  1  0
  1 23  1  0
  1 24  1  0
  3 25  1  0
  4 26  1  0
  6 27  1  0
  6 28  1  0
  7 29  1  0
  7 30  1  0
  8 31  1  0
  8 32  1  0
 13 33  1  0
 16 34  1  0
 19 35  1  0
 21 36  1  0
 21 37  1  0
 21 38  1  0
M  END
>  <UniqueID>  (37) 
35

>  <SMILES>  (37) 
Cc1ccc(CCCOc2c(F)cc(F)cc2F)cc1C

>  <Energy>  (37) 
39.08690170040831

>  <Genealogy>  (37) 
Cc1ccc(CCCOc2c(F)cc(F)cc2F)cc1C (3D coordinates assigned)
Cc1ccc(CCCOc2c(F)cc(F)cc2F)cc1C (optimized conformer: 39.08690170040831 kcal/mol)

>  <smiles>  (37) 
Cc1ccc(CCCOc2c(F)cc(F)cc2F)cc1C

>  <score_type>  (37) 
oracle

>  <origin>  (37) 
adg

>  <m_score__min__energy>  (37) 
-8.0500000000000007

>  <m_primary>  (37) 
energy

$$$$
37:0
     RDKit          3D

 52 55  0  0  0  0  0  0  0  0999 V2000
   -3.8720   25.2890  -30.6460 O   0  0  0  0  0  0  0  0  0  0  0  0
   -4.1920   24.1930  -30.1110 C   0  0  0  0  0  0  0  0  0  0  0  0
   -5.6550   23.8600  -30.0030 C   0  0  0  0  0  0  0  0  0  0  0  0
   -6.5220   24.1730  -31.5830 S   0  0  0  0  0  0  0  0  0  0  0  0
   -7.0460   22.4720  -31.8180 C   0  0  0  0  0  0  0  0  0  0  0  0
   -8.3100   22.0590  -31.3700 C   0  0  0  0  0  0  0  0  0  0  0  0
   -8.7220   20.7350  -31.5510 C   0  0  0  0  0  0  0  0  0  0  0  0
   -7.8670   19.8190  -32.1720 C   0  0  0  0  0  0  0  0  0  0  0  0
   -6.6110   20.2350  -32.6380 C   0  0  0  0  0  0  0  0  0  0  0  0
   -6.1930   21.5540  -32.4440 C   0  0  0  0  0  0  0  0  0  0  0  0
   -5.7910   19.3120  -33.2940 O   0  0  0  0  0  0  0  0  0  0  0  0
   -6.3060   18.0550  -33.7420 C   0  0  0  0  0  0  0  0  0  0  0  0
   -7.2910   17.4870  -32.7120 C   0  0  0  0  0  0  0  0  0  0  0  0
   -8.2450   18.4840  -32.3380 O   0  0  0  0  0  0  0  0  0  0  0  0
   -3.1630   23.3240  -29.5810 N   0  0  0  0  0  0  0  0  0  0  0  0
   -1.9290   23.0350  -30.3340 C   0  0  0  0  0  0  0  0  0  0  0  0
   -2.1270   21.8620  -31.2620 C   0  0  0  0  0  0  0  0  0  0  0  0
   -1.4510   20.6510  -31.0320 C   0  0  0  0  0  0  0  0  0  0  0  0
   -1.5950   19.5810  -31.9200 C   0  0  0  0  0  0  0  0  0  0  0  0
   -2.4230   19.7060  -33.0380 C   0  0  0  0  0  0  0  0  0  0  0  0
   -3.1150   20.8990  -33.2640 C   0  0  0  0  0  0  0  0  0  0  0  0
   -2.9730   21.9710  -32.3790 C   0  0  0  0  0  0  0  0  0  0  0  0
   -3.3220   22.7490  -28.2340 C   0  0  0  0  0  0  0  0  0  0  0  0
   -2.6910   23.6330  -27.1890 C   0  0  0  0  0  0  0  0  0  0  0  0
   -1.4100   23.3410  -26.6900 C   0  0  0  0  0  0  0  0  0  0  0  0
   -0.7970   24.2010  -25.7740 C   0  0  0  0  0  0  0  0  0  0  0  0
   -1.4570   25.3570  -25.3460 C   0  0  0  0  0  0  0  0  0  0  0  0
   -0.6070   26.5450  -24.1170 Br  0  0  0  0  0  0  0  0  0  0  0  0
   -2.7390   25.6450  -25.8250 C   0  0  0  0  0  0  0  0  0  0  0  0
   -3.3560   24.7850  -26.7380 C   0  0  0  0  0  0  0  0  0  0  0  0
   -5.7628   22.7977  -29.7387 H   0  0  0  0  0  0  0  0  0  0  0  0
   -6.1018   24.4994  -29.2275 H   0  0  0  0  0  0  0  0  0  0  0  0
   -8.9786   22.7787  -30.8751 H   0  0  0  0  0  0  0  0  0  0  0  0
   -9.7161   20.4148  -31.2058 H   0  0  0  0  0  0  0  0  0  0  0  0
   -5.1955   21.8711  -32.7824 H   0  0  0  0  0  0  0  0  0  0  0  0
   -6.8252   18.1965  -34.7014 H   0  0  0  0  0  0  0  0  0  0  0  0
   -5.4712   17.3496  -33.8665 H   0  0  0  0  0  0  0  0  0  0  0  0
   -7.8178   16.6262  -33.1495 H   0  0  0  0  0  0  0  0  0  0  0  0
   -6.7329   17.1715  -31.8181 H   0  0  0  0  0  0  0  0  0  0  0  0
   -1.6527   23.9200  -30.9260 H   0  0  0  0  0  0  0  0  0  0  0  0
   -1.1309   22.7867  -29.6189 H   0  0  0  0  0  0  0  0  0  0  0  0
   -0.8049   20.5448  -30.1481 H   0  0  0  0  0  0  0  0  0  0  0  0
   -1.0557   18.6397  -31.7382 H   0  0  0  0  0  0  0  0  0  0  0  0
   -2.5303   18.8660  -33.7401 H   0  0  0  0  0  0  0  0  0  0  0  0
   -3.7729   20.9943  -34.1404 H   0  0  0  0  0  0  0  0  0  0  0  0
   -3.5261   22.9049  -32.5575 H   0  0  0  0  0  0  0  0  0  0  0  0
   -4.3943   22.6413  -28.0136 H   0  0  0  0  0  0  0  0  0  0  0  0
   -2.8224   21.7693  -28.2110 H   0  0  0  0  0  0  0  0  0  0  0  0
   -0.8874   22.4317  -27.0217 H   0  0  0  0  0  0  0  0  0  0  0  0
    0.2067   23.9678  -25.3891 H   0  0  0  0  0  0  0  0  0  0  0  0
   -3.2626   26.5498  -25.4827 H   0  0  0  0  0  0  0  0  0  0  0  0
   -4.3678   25.0117  -27.1053 H   0  0  0  0  0  0  0  0  0  0  0  0
  1  2  2  0
  2  3  1  0
  3  4  1  0
  4  5  1  0
  5  6  2  0
  6  7  1  0
  7  8  2  0
  8  9  1  0
  9 10  2  0
  9 11  1  0
 11 12  1  0
 12 13  1  0
 13 14  1  0
  2 15  1  0
 15 16  1  0
 16 17  1  0
 17 18  2  0
 18 19  1  0
 19 20  2  0
 20 21  1  0
 21 22  2  0
 15 23  1  0
 23 24  1  0
 24 25  2  0
 25 26  1  0
 26 27  2  0
 27 28  1  0
 27 29  1  0
 29 30  2  0
 10  5  1  0
 22 17  1  0
 30 24  1  0
 14  8  1  0
  3 31  1  0
  3 32  1  0
  6 33  1  0
  7 34  1  0
 10 35  1  0
 12 36  1  0
 12 37  1  0
 13 38  1  0
 13 39  1  0
 16 40  1  0
 16 41  1  0
 18 42  1  0
 19 43  1  0
 20 44  1  0
 21 45  1  0
 22 46  1  0
 23 47  1  0
 23 48  1  0
 25 49  1  0
 26 50  1  0
 29 51  1  0
 30 52  1  0
M  END
>  <UniqueID>  (38) 
36

>  <SMILES>  (38) 
O=C(CSc1ccc2c(c1)OCCO2)N(Cc1ccccc1)Cc1ccc(Br)cc1

>  <Energy>  (38) 
48.81279093149698

>  <Genealogy>  (38) 
O=C(CSc1ccc2c(c1)OCCO2)N(Cc1ccccc1)Cc1ccc(Br)cc1 (3D coordinates assigned)
O=C(CSc1ccc2c(c1)OCCO2)N(Cc1ccccc1)Cc1ccc(Br)cc1 (nonaromatic ring conformer: 48.81279093149698 kcal/mol)

>  <smiles>  (38) 
O=C(CSc1ccc2c(c1)OCCO2)N(Cc1ccccc1)Cc1ccc(Br)cc1

>  <score_type>  (38) 
oracle

>  <origin>  (38) 
adg

>  <m_score__min__energy>  (38) 
-9.6699999999999999

>  <m_primary>  (38) 
energy

$$$$
38:0
     RDKit          3D

 33 34  0  0  0  0  0  0  0  0999 V2000
   -5.5380   19.7100  -33.4930 C   0  0  0  0  0  0  0  0  0  0  0  0
   -5.0080   21.0150  -33.2850 O   0  0  0  0  0  0  0  0  0  0  0  0
   -3.8450   21.2900  -32.5500 C   0  0  0  0  0  0  0  0  0  0  0  0
   -2.6630   20.5390  -32.6980 C   0  0  0  0  0  0  0  0  0  0  0  0
   -1.5320   20.8510  -31.9410 C   0  0  0  0  0  0  0  0  0  0  0  0
   -1.5650   21.9130  -31.0330 C   0  0  0  0  0  0  0  0  0  0  0  0
   -2.7330   22.6740  -30.8800 C   0  0  0  0  0  0  0  0  0  0  0  0
   -2.7860   23.8050  -29.8880 C   0  0  0  0  0  0  0  0  0  0  0  0
   -3.4830   24.9490  -30.4610 N   0  0  0  0  0  0  0  0  0  0  0  0
   -4.8900   25.1710  -30.3210 C   0  0  0  0  0  0  0  0  0  0  0  0
   -5.4350   26.1770  -30.8510 O   0  0  0  0  0  0  0  0  0  0  0  0
   -5.7270   24.1700  -29.5920 C   0  0  0  0  0  0  0  0  0  0  0  0
   -6.6060   23.4820  -30.5320 N   0  0  0  0  0  0  0  0  0  0  0  0
   -7.1050   22.2390  -30.3870 C   0  0  0  0  0  0  0  0  0  0  0  0
   -7.8220   21.9330  -31.5260 C   0  0  0  0  0  0  0  0  0  0  0  0
   -8.7450   20.3080  -31.9040 Br  0  0  0  0  0  0  0  0  0  0  0  0
   -7.7110   23.0410  -32.3450 C   0  0  0  0  0  0  0  0  0  0  0  0
   -6.9610   23.9620  -31.7120 N   0  0  0  0  0  0  0  0  0  0  0  0
   -3.8700   22.3530  -31.6390 C   0  0  0  0  0  0  0  0  0  0  0  0
   -5.7315   19.2336  -32.5206 H   0  0  0  0  0  0  0  0  0  0  0  0
   -6.4781   19.7821  -34.0595 H   0  0  0  0  0  0  0  0  0  0  0  0
   -4.8138   19.1062  -34.0595 H   0  0  0  0  0  0  0  0  0  0  0  0
   -2.6306   19.7034  -33.4127 H   0  0  0  0  0  0  0  0  0  0  0  0
   -0.6123   20.2592  -32.0596 H   0  0  0  0  0  0  0  0  0  0  0  0
   -0.6723   22.1526  -30.4367 H   0  0  0  0  0  0  0  0  0  0  0  0
   -3.3183   23.4710  -28.9852 H   0  0  0  0  0  0  0  0  0  0  0  0
   -1.7589   24.1039  -29.6315 H   0  0  0  0  0  0  0  0  0  0  0  0
   -5.0723   23.4357  -29.0999 H   0  0  0  0  0  0  0  0  0  0  0  0
   -6.3368   24.6877  -28.8369 H   0  0  0  0  0  0  0  0  0  0  0  0
   -6.9656   21.5836  -29.5147 H   0  0  0  0  0  0  0  0  0  0  0  0
   -8.1591   23.1512  -33.3435 H   0  0  0  0  0  0  0  0  0  0  0  0
   -6.6870   24.8970  -32.0870 H   0  0  0  0  0  0  0  0  0  0  0  0
   -4.7903   22.9430  -31.5165 H   0  0  0  0  0  0  0  0  0  0  0  0
  1  2  1  0
  2  3  1  0
  3  4  2  0
  4  5  1  0
  5  6  2  0
  6  7  1  0
  7  8  1  0
  8  9  1  0
  9 10  1  0
 10 11  2  0
 10 12  1  0
 12 13  1  0
 13 14  1  0
 14 15  2  0
 15 16  1  0
 15 17  1  0
 17 18  2  0
  7 19  2  0
 19  3  1  0
 18 13  1  0
  1 20  1  0
  1 21  1  0
  1 22  1  0
  4 23  1  0
  5 24  1  0
  6 25  1  0
  8 26  1  0
  8 27  1  0
 12 28  1  0
 12 29  1  0
 14 30  1  0
 17 31  1  0
 18 32  1  0
 19 33  1  0
M  CHG  2   9  -1  18   1
M  END
>  <UniqueID>  (39) 
37

>  <SMILES>  (39) 
COc1cccc(C[N-]C(=O)Cn2cc(Br)c[nH+]2)c1

>  <Energy>  (39) 
58.021490281719316

>  <Genealogy>  (39) 
COc1cccc(C[N-]C(=O)Cn2cc(Br)c[nH+]2)c1 (protonated)
COc1cccc(C[N-]C(=O)Cn2cc(Br)c[nH+]2)c1 (3D coordinates assigned)
COc1cccc(C[N-]C(=O)Cn2cc(Br)c[nH+]2)c1 (optimized conformer: 58.021490281719316 kcal/mol)

>  <smiles>  (39) 
COc1cccc(CNC(=O)Cn2cc(Br)cn2)c1

>  <score_type>  (39) 
oracle

>  <origin>  (39) 
adg

>  <m_score__min__energy>  (39) 
-7.6799999999999997

>  <m_primary>  (39) 
energy

$$$$
39:0
     RDKit          3D

 22 23  0  0  0  0  0  0  0  0999 V2000
   -3.0260   22.1180  -30.7480 C   0  0  0  0  0  0  0  0  0  0  0  0
   -3.8490   22.1680  -31.7980 C   0  0  0  0  0  0  0  0  0  0  0  0
   -3.4330   21.5360  -33.0950 C   0  0  0  0  0  0  0  0  0  0  0  0
   -5.1740   22.7140  -31.6610 N   0  0  0  0  0  0  0  0  0  0  0  0
   -5.5200   23.9950  -31.3730 C   0  0  0  0  0  0  0  0  0  0  0  0
   -4.6860   24.9230  -31.1960 O   0  0  0  0  0  0  0  0  0  0  0  0
   -6.8260   24.1790  -31.3130 O   0  0  0  0  0  0  0  0  0  0  0  0
   -7.3600   23.0070  -31.5570 C   0  0  0  0  0  0  0  0  0  0  0  0
   -8.7070   22.6590  -31.5930 C   0  0  0  0  0  0  0  0  0  0  0  0
   -9.0260   21.3120  -31.8470 C   0  0  0  0  0  0  0  0  0  0  0  0
   -8.0020   20.3560  -32.0480 C   0  0  0  0  0  0  0  0  0  0  0  0
   -8.4190   18.6790  -32.3430 Cl  0  0  0  0  0  0  0  0  0  0  0  0
   -6.6480   20.7430  -32.0060 C   0  0  0  0  0  0  0  0  0  0  0  0
   -6.3660   22.0920  -31.7740 C   0  0  0  0  0  0  0  0  0  0  0  0
   -3.3228   22.5784  -29.7941 H   0  0  0  0  0  0  0  0  0  0  0  0
   -2.0511   21.6164  -30.8368 H   0  0  0  0  0  0  0  0  0  0  0  0
   -2.8389   20.6334  -32.8891 H   0  0  0  0  0  0  0  0  0  0  0  0
   -4.3279   21.2620  -33.6730 H   0  0  0  0  0  0  0  0  0  0  0  0
   -2.8275   22.2496  -33.6730 H   0  0  0  0  0  0  0  0  0  0  0  0
   -9.4940   23.4098  -31.4288 H   0  0  0  0  0  0  0  0  0  0  0  0
  -10.0799   20.9997  -31.8896 H   0  0  0  0  0  0  0  0  0  0  0  0
   -5.8413   20.0093  -32.1507 H   0  0  0  0  0  0  0  0  0  0  0  0
  1  2  2  0
  2  3  1  0
  2  4  1  0
  4  5  1  0
  5  6  2  0
  5  7  1  0
  7  8  1  0
  8  9  2  0
  9 10  1  0
 10 11  2  0
 11 12  1  0
 11 13  1  0
 13 14  2  0
 14  4  1  0
 14  8  1  0
  1 15  1  0
  1 16  1  0
  3 17  1  0
  3 18  1  0
  3 19  1  0
  9 20  1  0
 10 21  1  0
 13 22  1  0
M  END
>  <UniqueID>  (40) 
38

>  <SMILES>  (40) 
C=C(C)n1c(=O)oc2ccc(Cl)cc21

>  <Energy>  (40) 
66.93293882239638

>  <Genealogy>  (40) 
C=C(C)n1c(=O)oc2ccc(Cl)cc21 (3D coordinates assigned)
C=C(C)n1c(=O)oc2ccc(Cl)cc21 (optimized conformer: 66.93293882239638 kcal/mol)

>  <smiles>  (40) 
C=C(C)n1c(=O)oc2ccc(Cl)cc21

>  <score_type>  (40) 
oracle

>  <origin>  (40) 
adg

>  <m_score__min__energy>  (40) 
-6.3600000000000003

>  <m_primary>  (40) 
energy

$$$$
40:0
     RDKit          3D

 43 46  0  0  0  0  0  0  0  0999 V2000
   -3.7540   25.6370  -29.0240 H   0  0  0  0  0  0  0  0  0  0  0  0
   -3.0190   24.9260  -29.2350 N   0  0  0  0  0  0  0  0  0  0  0  0
   -3.2260   23.9840  -30.0950 C   0  0  0  0  0  0  0  0  0  0  0  0
   -3.9610   24.1580  -31.2110 N   0  0  0  0  0  0  0  0  0  0  0  0
   -4.0420   23.0540  -31.9500 N   0  0  0  0  0  0  0  0  0  0  0  0
   -3.3730   22.0070  -31.4170 C   0  0  0  0  0  0  0  0  0  0  0  0
   -3.2900   20.3940  -32.1840 S   0  0  0  0  0  0  0  0  0  0  0  0
   -5.0860   20.2530  -32.2920 C   0  0  0  0  0  0  0  0  0  0  0  0
   -5.6930   19.0960  -32.7170 N   0  0  0  0  0  0  0  0  0  0  0  0
   -4.9010   17.9640  -33.1290 C   0  0  0  0  0  0  0  0  0  0  0  0
   -4.0030   18.0830  -34.1940 C   0  0  0  0  0  0  0  0  0  0  0  0
   -3.9000   19.0447  -34.7180 H   0  0  0  0  0  0  0  0  0  0  0  0
   -3.2380   16.9900  -34.5950 C   0  0  0  0  0  0  0  0  0  0  0  0
   -2.5403   17.0949  -35.4389 H   0  0  0  0  0  0  0  0  0  0  0  0
   -3.3480   15.7500  -33.9310 C   0  0  0  0  0  0  0  0  0  0  0  0
   -2.5830   14.6450  -34.3350 O   0  0  0  0  0  0  0  0  0  0  0  0
   -1.1600   14.5770  -34.2870 C   0  0  0  0  0  0  0  0  0  0  0  0
   -0.8288   14.5612  -33.2381 H   0  0  0  0  0  0  0  0  0  0  0  0
   -0.8194   13.6616  -34.7929 H   0  0  0  0  0  0  0  0  0  0  0  0
   -0.7336   15.4558  -34.7929 H   0  0  0  0  0  0  0  0  0  0  0  0
   -4.2480   15.6310  -32.8400 C   0  0  0  0  0  0  0  0  0  0  0  0
   -4.4390   14.4500  -32.1000 O   0  0  0  0  0  0  0  0  0  0  0  0
   -3.4340   13.5090  -31.7380 C   0  0  0  0  0  0  0  0  0  0  0  0
   -3.3677   13.4469  -30.6418 H   0  0  0  0  0  0  0  0  0  0  0  0
   -3.6928   12.5209  -32.1463 H   0  0  0  0  0  0  0  0  0  0  0  0
   -2.4650   13.8321  -32.1463 H   0  0  0  0  0  0  0  0  0  0  0  0
   -5.0080   16.7430  -32.4530 C   0  0  0  0  0  0  0  0  0  0  0  0
   -5.7008   16.6548  -31.6031 H   0  0  0  0  0  0  0  0  0  0  0  0
   -7.0610   19.0110  -32.7580 C   0  0  0  0  0  0  0  0  0  0  0  0
   -7.6190   17.9490  -33.1560 O   0  0  0  0  0  0  0  0  0  0  0  0
   -7.8480   20.1070  -32.3690 C   0  0  0  0  0  0  0  0  0  0  0  0
   -9.2550   20.0650  -32.3910 C   0  0  0  0  0  0  0  0  0  0  0  0
   -9.7713   19.1508  -32.7191 H   0  0  0  0  0  0  0  0  0  0  0  0
   -9.9980   21.1820  -31.9970 C   0  0  0  0  0  0  0  0  0  0  0  0
  -11.0972   21.1443  -32.0156 H   0  0  0  0  0  0  0  0  0  0  0  0
   -9.3480   22.3450  -31.5800 C   0  0  0  0  0  0  0  0  0  0  0  0
   -9.9358   23.2218  -31.2706 H   0  0  0  0  0  0  0  0  0  0  0  0
   -7.9520   22.3970  -31.5550 C   0  0  0  0  0  0  0  0  0  0  0  0
   -7.4438   23.3155  -31.2263 H   0  0  0  0  0  0  0  0  0  0  0  0
   -7.1950   21.2810  -31.9480 C   0  0  0  0  0  0  0  0  0  0  0  0
   -5.8360   21.3260  -31.9240 N   0  0  0  0  0  0  0  0  0  0  0  0
   -5.3520   22.1960  -31.6070 H   0  0  0  0  0  0  0  0  0  0  0  0
   -2.6210   22.4170  -29.9650 S   0  0  0  0  0  0  0  0  0  0  0  0
  1  2  1  0
  2  3  2  0
  3  4  1  0
  4  5  1  0
  5  6  2  0
  6  7  1  0
  7  8  1  0
  8  9  1  0
  9 10  1  0
 10 11  2  0
 11 12  1  0
 11 13  1  0
 13 14  1  0
 13 15  2  0
 15 16  1  0
 16 17  1  0
 17 18  1  0
 17 19  1  0
 17 20  1  0
 15 21  1  0
 21 22  1  0
 22 23  1  0
 23 24  1  0
 23 25  1  0
 23 26  1  0
 21 27  2  0
 27 28  1  0
  9 29  1  0
 29 30  2  0
 29 31  1  0
 31 32  2  0
 32 33  1  0
 32 34  1  0
 34 35  1  0
 34 36  2  0
 36 37  1  0
 36 38  1  0
 38 39  1  0
 38 40  2  0
 40 41  1  0
 41 42  1  0
  6 43  1  0
 43  3  1  0
 41  8  2  0
 27 10  1  0
 40 31  1  0
M  CHG  2   4  -1  41   1
M  END
>  <UniqueID>  (41) 
39

>  <SMILES>  (41) 
[H]/N=c1/[n-]nc(Sc2[nH+]c3ccccc3c(=O)n2-c2ccc(OC)c(OC)c2)s1

>  <Energy>  (41) 
93.05798410617206

>  <Genealogy>  (41) 
COc1ccc(-n2c(Sc3n[n-]c(=N)s3)[nH+]c3ccccc3c2=O)cc1OC (protonated)
[H]/N=c1/[n-]nc(Sc2[nH+]c3ccccc3c(=O)n2-c2ccc(OC)c(OC)c2)s1 (cis-trans isomerization)
[H]/N=c1/[n-]nc(Sc2[nH+]c3ccccc3c(=O)n2-c2ccc(OC)c(OC)c2)s1 (3D coordinates assigned)
[H]/N=c1/[n-]nc(Sc2[nH+]c3ccccc3c(=O)n2-c2ccc(OC)c(OC)c2)s1 (optimized conformer: 93.05798410617206 kcal/mol)

>  <smiles>  (41) 
COc1ccc(-n2c(Sc3n[nH]c(=N)s3)nc3ccccc3c2=O)cc1OC

>  <score_type>  (41) 
oracle

>  <origin>  (41) 
adg

>  <m_score__min__energy>  (41) 
-8.75

>  <m_primary>  (41) 
energy

$$$$
41:0
     RDKit          3D

 54 53  0  0  0  0  0  0  0  0999 V2000
   -9.0780   18.9350  -32.2090 C   0  0  0  0  0  0  0  0  0  0  0  0
   -7.5800   18.6520  -32.2050 C   0  0  0  0  0  0  0  0  0  0  0  0
   -6.8490   19.8750  -32.5810 N   0  0  0  0  0  0  0  0  0  0  0  0
   -5.9750   19.6800  -33.7470 C   0  0  0  0  0  0  0  0  0  0  0  0
   -4.5090   20.0120  -33.4190 C   0  0  0  0  0  0  0  0  0  0  0  0
   -4.3320   21.3570  -32.6970 C   0  0  0  0  0  0  0  0  0  0  0  0
   -4.4960   21.2040  -31.2440 N   0  0  0  0  0  0  0  0  0  0  0  0
   -3.2150   20.8330  -30.6310 C   0  0  0  0  0  0  0  0  0  0  0  0
   -2.6720   21.9950  -29.7900 C   0  0  0  0  0  0  0  0  0  0  0  0
   -3.5230   22.2750  -28.5420 C   0  0  0  0  0  0  0  0  0  0  0  0
   -4.7350   23.0360  -28.8940 N   0  0  0  0  0  0  0  0  0  0  0  0
   -4.4280   24.4110  -29.3200 C   0  0  0  0  0  0  0  0  0  0  0  0
   -5.7180   25.2340  -29.3490 C   0  0  0  0  0  0  0  0  0  0  0  0
   -6.5560   24.9100  -30.5990 C   0  0  0  0  0  0  0  0  0  0  0  0
   -5.9650   23.8230  -31.3970 N   0  0  0  0  0  0  0  0  0  0  0  0
   -6.8360   23.3850  -32.5050 C   0  0  0  0  0  0  0  0  0  0  0  0
   -8.2610   23.1250  -31.9990 C   0  0  0  0  0  0  0  0  0  0  0  0
   -8.3180   22.1020  -30.8560 C   0  0  0  0  0  0  0  0  0  0  0  0
   -6.9750   21.6750  -30.4710 N   0  0  0  0  0  0  0  0  0  0  0  0
   -9.4410   19.0036  -31.1729 H   0  0  0  0  0  0  0  0  0  0  0  0
   -9.2702   19.8853  -32.7285 H   0  0  0  0  0  0  0  0  0  0  0  0
   -9.6037   18.1203  -32.7285 H   0  0  0  0  0  0  0  0  0  0  0  0
   -7.2695   18.3337  -31.1989 H   0  0  0  0  0  0  0  0  0  0  0  0
   -7.3554   17.8534  -32.9273 H   0  0  0  0  0  0  0  0  0  0  0  0
   -6.2460   20.1620  -31.7740 H   0  0  0  0  0  0  0  0  0  0  0  0
   -6.0395   18.6304  -34.0697 H   0  0  0  0  0  0  0  0  0  0  0  0
   -6.3106   20.3583  -34.5453 H   0  0  0  0  0  0  0  0  0  0  0  0
   -4.1073   19.2157  -32.7752 H   0  0  0  0  0  0  0  0  0  0  0  0
   -3.9718   20.0853  -34.3761 H   0  0  0  0  0  0  0  0  0  0  0  0
   -3.3248   21.7468  -32.9057 H   0  0  0  0  0  0  0  0  0  0  0  0
   -5.1002   22.0538  -33.0636 H   0  0  0  0  0  0  0  0  0  0  0  0
   -4.7730   22.1310  -30.8460 H   0  0  0  0  0  0  0  0  0  0  0  0
   -3.3625   19.9551  -29.9848 H   0  0  0  0  0  0  0  0  0  0  0  0
   -2.4922   20.5979  -31.4261 H   0  0  0  0  0  0  0  0  0  0  0  0
   -1.6488   21.7490  -29.4698 H   0  0  0  0  0  0  0  0  0  0  0  0
   -2.6971   22.8981  -30.4175 H   0  0  0  0  0  0  0  0  0  0  0  0
   -3.8178   21.3189  -28.0847 H   0  0  0  0  0  0  0  0  0  0  0  0
   -2.9263   22.8702  -27.8351 H   0  0  0  0  0  0  0  0  0  0  0  0
   -5.2200   22.5520  -29.6880 H   0  0  0  0  0  0  0  0  0  0  0  0
   -3.7189   24.8649  -28.6121 H   0  0  0  0  0  0  0  0  0  0  0  0
   -3.9808   24.3932  -30.3248 H   0  0  0  0  0  0  0  0  0  0  0  0
   -6.3101   25.0051  -28.4507 H   0  0  0  0  0  0  0  0  0  0  0  0
   -5.4506   26.3007  -29.3753 H   0  0  0  0  0  0  0  0  0  0  0  0
   -7.5648   24.6081  -30.2810 H   0  0  0  0  0  0  0  0  0  0  0  0
   -6.5882   25.8121  -31.2277 H   0  0  0  0  0  0  0  0  0  0  0  0
   -5.7560   23.0090  -30.7700 H   0  0  0  0  0  0  0  0  0  0  0  0
   -6.8632   24.1694  -33.2757 H   0  0  0  0  0  0  0  0  0  0  0  0
   -6.4329   22.4524  -32.9266 H   0  0  0  0  0  0  0  0  0  0  0  0
   -8.6835   24.0750  -31.6397 H   0  0  0  0  0  0  0  0  0  0  0  0
   -8.8363   22.7095  -32.8395 H   0  0  0  0  0  0  0  0  0  0  0  0
   -8.8132   22.5600  -29.9871 H   0  0  0  0  0  0  0  0  0  0  0  0
   -8.8815   21.2220  -31.1997 H   0  0  0  0  0  0  0  0  0  0  0  0
   -6.5640   22.4120  -29.8560 H   0  0  0  0  0  0  0  0  0  0  0  0
   -6.3900   21.6470  -31.3360 H   0  0  0  0  0  0  0  0  0  0  0  0
  1  2  1  0
  2  3  1  0
  3  4  1  0
  4  5  1  0
  5  6  1  0
  6  7  1  0
  7  8  1  0
  8  9  1  0
  9 10  1  0
 10 11  1  0
 11 12  1  0
 12 13  1  0
 13 14  1  0
 14 15  1  0
 15 16  1  0
 16 17  1  0
 17 18  1  0
 18 19  1  0
  1 20  1  0
  1 21  1  0
  1 22  1  0
  2 23  1  0
  2 24  1  0
  3 25  1  0
  4 26  1  0
  4 27  1  0
  5 28  1  0
  5 29  1  0
  6 30  1  0
  6 31  1  0
  7 32  1  0
  8 33  1  0
  8 34  1  0
  9 35  1  0
  9 36  1  0
 10 37  1  0
 10 38  1  0
 11 39  1  0
 12 40  1  0
 12 41  1  0
 13 42  1  0
 13 43  1  0
 14 44  1  0
 14 45  1  0
 15 46  1  0
 16 47  1  0
 16 48  1  0
 17 49  1  0
 17 50  1  0
 18 51  1  0
 18 52  1  0
 19 53  1  0
 19 54  1  0
M  END
>  <UniqueID>  (42) 
40

>  <SMILES>  (42) 
CCNCCCNCCCNCCCNCCCN

>  <Energy>  (42) 
32.32292159861178

>  <Genealogy>  (42) 
CCNCCCNCCCNCCCNCCCN (3D coordinates assigned)
CCNCCCNCCCNCCCNCCCN (optimized conformer: 32.32292159861178 kcal/mol)

>  <smiles>  (42) 
CCNCCCNCCCNCCCNCCCN

>  <score_type>  (42) 
oracle

>  <origin>  (42) 
adg

>  <m_score__min__energy>  (42) 
-2.4900000000000002

>  <m_primary>  (42) 
energy

$$$$
42:0
     RDKit          3D

 43 45  0  0  0  0  0  0  0  0999 V2000
   -4.1960   25.6680  -30.7220 O   0  0  0  0  0  0  0  0  0  0  0  0
   -3.8740   24.4760  -30.4680 C   0  0  0  0  0  0  0  0  0  0  0  0
   -2.6930   24.2090  -29.6990 N   0  0  0  0  0  0  0  0  0  0  0  0
   -2.3380   24.8180  -28.4500 C   0  0  0  0  0  0  0  0  0  0  0  0
   -3.1080   24.6330  -27.2860 C   0  0  0  0  0  0  0  0  0  0  0  0
   -2.7440   25.2680  -26.0950 C   0  0  0  0  0  0  0  0  0  0  0  0
   -1.6230   26.1010  -26.0580 C   0  0  0  0  0  0  0  0  0  0  0  0
   -0.8690   26.3070  -27.2160 C   0  0  0  0  0  0  0  0  0  0  0  0
   -1.2300   25.6750  -28.4090 C   0  0  0  0  0  0  0  0  0  0  0  0
   -4.7190   23.3890  -30.9070 N   0  0  0  0  0  0  0  0  0  0  0  0
   -5.9170   23.6570  -31.7210 C   0  0  0  0  0  0  0  0  0  0  0  0
   -6.8490   22.4710  -31.7150 C   0  0  0  0  0  0  0  0  0  0  0  0
   -6.6830   21.4320  -32.6480 C   0  0  0  0  0  0  0  0  0  0  0  0
   -7.5790   20.3580  -32.6740 C   0  0  0  0  0  0  0  0  0  0  0  0
   -8.6420   20.3100  -31.7690 C   0  0  0  0  0  0  0  0  0  0  0  0
   -8.8060   21.3310  -30.8290 C   0  0  0  0  0  0  0  0  0  0  0  0
   -7.9110   22.4060  -30.7980 C   0  0  0  0  0  0  0  0  0  0  0  0
   -4.3460   21.9900  -30.6310 C   0  0  0  0  0  0  0  0  0  0  0  0
   -3.1790   21.5640  -31.4880 C   0  0  0  0  0  0  0  0  0  0  0  0
   -3.3750   21.2140  -32.8350 C   0  0  0  0  0  0  0  0  0  0  0  0
   -2.3000   20.7730  -33.6120 C   0  0  0  0  0  0  0  0  0  0  0  0
   -1.0220   20.6830  -33.0540 C   0  0  0  0  0  0  0  0  0  0  0  0
   -0.8150   21.0430  -31.7200 C   0  0  0  0  0  0  0  0  0  0  0  0
   -1.8870   21.4850  -30.9400 C   0  0  0  0  0  0  0  0  0  0  0  0
   -3.9981   23.9873  -27.3138 H   0  0  0  0  0  0  0  0  0  0  0  0
   -3.3416   25.1114  -25.1848 H   0  0  0  0  0  0  0  0  0  0  0  0
   -1.3343   26.5942  -25.1181 H   0  0  0  0  0  0  0  0  0  0  0  0
    0.0101   26.9676  -27.1887 H   0  0  0  0  0  0  0  0  0  0  0  0
   -0.6410   25.8513  -29.3211 H   0  0  0  0  0  0  0  0  0  0  0  0
   -6.4436   24.5308  -31.3097 H   0  0  0  0  0  0  0  0  0  0  0  0
   -5.6016   23.8505  -32.7569 H   0  0  0  0  0  0  0  0  0  0  0  0
   -5.8453   21.4639  -33.3602 H   0  0  0  0  0  0  0  0  0  0  0  0
   -7.4462   19.5499  -33.4084 H   0  0  0  0  0  0  0  0  0  0  0  0
   -9.3500   19.4686  -31.7962 H   0  0  0  0  0  0  0  0  0  0  0  0
   -9.6397   21.2895  -30.1126 H   0  0  0  0  0  0  0  0  0  0  0  0
   -8.0397   23.2040  -30.0520 H   0  0  0  0  0  0  0  0  0  0  0  0
   -4.0683   21.8939  -29.5710 H   0  0  0  0  0  0  0  0  0  0  0  0
   -5.2062   21.3449  -30.8632 H   0  0  0  0  0  0  0  0  0  0  0  0
   -4.3785   21.2874  -33.2796 H   0  0  0  0  0  0  0  0  0  0  0  0
   -2.4603   20.4963  -34.6645 H   0  0  0  0  0  0  0  0  0  0  0  0
   -0.1788   20.3287  -33.6652 H   0  0  0  0  0  0  0  0  0  0  0  0
    0.1926   20.9785  -31.2833 H   0  0  0  0  0  0  0  0  0  0  0  0
   -1.7188   21.7726  -29.8917 H   0  0  0  0  0  0  0  0  0  0  0  0
  1  2  2  0
  2  3  1  0
  3  4  1  0
  4  5  2  0
  5  6  1  0
  6  7  2  0
  7  8  1  0
  8  9  2  0
  2 10  1  0
 10 11  1  0
 11 12  1  0
 12 13  2  0
 13 14  1  0
 14 15  2  0
 15 16  1  0
 16 17  2  0
 10 18  1  0
 18 19  1  0
 19 20  2  0
 20 21  1  0
 21 22  2  0
 22 23  1  0
 23 24  2  0
  9  4  1  0
 17 12  1  0
 24 19  1  0
  5 25  1  0
  6 26  1  0
  7 27  1  0
  8 28  1  0
  9 29  1  0
 11 30  1  0
 11 31  1  0
 13 32  1  0
 14 33  1  0
 15 34  1  0
 16 35  1  0
 17 36  1  0
 18 37  1  0
 18 38  1  0
 20 39  1  0
 21 40  1  0
 22 41  1  0
 23 42  1  0
 24 43  1  0
M  CHG  1   3  -1
M  END
>  <UniqueID>  (43) 
41

>  <SMILES>  (43) 
O=C([N-]c1ccccc1)N(Cc1ccccc1)Cc1ccccc1

>  <Energy>  (43) 
44.9982784566068

>  <Genealogy>  (43) 
O=C([N-]c1ccccc1)N(Cc1ccccc1)Cc1ccccc1 (protonated)
O=C([N-]c1ccccc1)N(Cc1ccccc1)Cc1ccccc1 (3D coordinates assigned)
O=C([N-]c1ccccc1)N(Cc1ccccc1)Cc1ccccc1 (optimized conformer: 44.9982784566068 kcal/mol)

>  <smiles>  (43) 
O=C(Nc1ccccc1)N(Cc1ccccc1)Cc1ccccc1

>  <score_type>  (43) 
oracle

>  <origin>  (43) 
adg

>  <m_score__min__energy>  (43) 
-9.4199999999999999

>  <m_primary>  (43) 
energy

$$$$
43:0
     RDKit          3D

 41 44  0  0  0  0  0  0  0  0999 V2000
   -2.2000   23.5420  -29.7340 C   0  0  0  0  0  0  0  0  0  0  0  0
   -3.0410   23.7750  -30.8590 O   0  0  0  0  0  0  0  0  0  0  0  0
   -4.1620   22.9980  -31.1870 C   0  0  0  0  0  0  0  0  0  0  0  0
   -3.9540   21.7750  -31.8320 C   0  0  0  0  0  0  0  0  0  0  0  0
   -5.0320   20.9540  -32.1690 C   0  0  0  0  0  0  0  0  0  0  0  0
   -6.3410   21.3370  -31.8390 C   0  0  0  0  0  0  0  0  0  0  0  0
   -6.5680   22.6010  -31.2510 C   0  0  0  0  0  0  0  0  0  0  0  0
   -5.4770   23.4100  -30.8990 C   0  0  0  0  0  0  0  0  0  0  0  0
   -7.9840   23.0560  -30.9370 C   0  0  0  0  0  0  0  0  0  0  0  0
   -9.0010   22.5260  -31.9680 C   0  0  0  0  0  0  0  0  0  0  0  0
   -8.7410   21.1150  -32.2450 N   0  0  0  0  0  0  0  0  0  0  0  0
   -9.5910   20.1760  -32.6960 C   0  0  0  0  0  0  0  0  0  0  0  0
   -8.9800   18.9880  -32.8930 N   0  0  0  0  0  0  0  0  0  0  0  0
   -7.6860   19.2080  -32.5670 C   0  0  0  0  0  0  0  0  0  0  0  0
   -6.6920   18.1210  -32.5030 C   0  0  0  0  0  0  0  0  0  0  0  0
   -6.0340   17.7000  -33.6630 C   0  0  0  0  0  0  0  0  0  0  0  0
   -5.1190   16.6480  -33.6080 C   0  0  0  0  0  0  0  0  0  0  0  0
   -4.8780   16.0030  -32.3810 C   0  0  0  0  0  0  0  0  0  0  0  0
   -3.9680   14.9410  -32.2630 O   0  0  0  0  0  0  0  0  0  0  0  0
   -4.3390   13.5700  -32.1470 C   0  0  0  0  0  0  0  0  0  0  0  0
   -5.5490   16.4140  -31.2680 N   0  0  0  0  0  0  0  0  0  0  0  0
   -6.4440   17.4380  -31.3030 C   0  0  0  0  0  0  0  0  0  0  0  0
   -7.5330   20.5390  -32.1970 C   0  0  0  0  0  0  0  0  0  0  0  0
   -2.7731   23.7008  -28.8086 H   0  0  0  0  0  0  0  0  0  0  0  0
   -1.8284   22.5071  -29.7621 H   0  0  0  0  0  0  0  0  0  0  0  0
   -1.3488   24.2381  -29.7621 H   0  0  0  0  0  0  0  0  0  0  0  0
   -2.9300   21.4562  -32.0766 H   0  0  0  0  0  0  0  0  0  0  0  0
   -4.8546   20.0042  -32.6947 H   0  0  0  0  0  0  0  0  0  0  0  0
   -5.6502   24.3722  -30.3948 H   0  0  0  0  0  0  0  0  0  0  0  0
   -8.2633   22.6859  -29.9395 H   0  0  0  0  0  0  0  0  0  0  0  0
   -8.0043   24.1552  -30.9726 H   0  0  0  0  0  0  0  0  0  0  0  0
  -10.0189   22.6370  -31.5661 H   0  0  0  0  0  0  0  0  0  0  0  0
   -8.9038   23.1014  -32.9005 H   0  0  0  0  0  0  0  0  0  0  0  0
  -10.6602   20.3548  -32.8828 H   0  0  0  0  0  0  0  0  0  0  0  0
   -6.2384   18.1996  -34.6215 H   0  0  0  0  0  0  0  0  0  0  0  0
   -4.5901   16.3254  -34.5170 H   0  0  0  0  0  0  0  0  0  0  0  0
   -4.4124   13.2987  -31.0835 H   0  0  0  0  0  0  0  0  0  0  0  0
   -5.3124   13.4111  -32.6340 H   0  0  0  0  0  0  0  0  0  0  0  0
   -3.5785   12.9419  -32.6340 H   0  0  0  0  0  0  0  0  0  0  0  0
   -5.3760   15.9270  -30.3600 H   0  0  0  0  0  0  0  0  0  0  0  0
   -6.9757   17.7318  -30.3860 H   0  0  0  0  0  0  0  0  0  0  0  0
  1  2  1  0
  2  3  1  0
  3  4  2  0
  4  5  1  0
  5  6  2  0
  6  7  1  0
  7  8  2  0
  7  9  1  0
  9 10  1  0
 10 11  1  0
 11 12  1  0
 12 13  2  0
 13 14  1  0
 14 15  1  0
 15 16  2  0
 16 17  1  0
 17 18  2  0
 18 19  1  0
 19 20  1  0
 18 21  1  0
 21 22  2  0
 14 23  2  0
  8  3  1  0
 23 11  1  0
 23  6  1  0
 22 15  1  0
  1 24  1  0
  1 25  1  0
  1 26  1  0
  4 27  1  0
  5 28  1  0
  8 29  1  0
  9 30  1  0
  9 31  1  0
 10 32  1  0
 10 33  1  0
 12 34  1  0
 16 35  1  0
 17 36  1  0
 20 37  1  0
 20 38  1  0
 20 39  1  0
 21 40  1  0
 22 41  1  0
M  CHG  1  21   1
M  END
>  <UniqueID>  (44) 
42

>  <SMILES>  (44) 
COc1ccc2c(c1)CCn1cnc(-c3ccc(OC)[nH+]c3)c1-2

>  <Energy>  (44) 
85.1245964604921

>  <Genealogy>  (44) 
COc1ccc2c(c1)CCn1cnc(-c3ccc(OC)[nH+]c3)c1-2 (protonated)
COc1ccc2c(c1)CCn1cnc(-c3ccc(OC)[nH+]c3)c1-2 (3D coordinates assigned)
COc1ccc2c(c1)CCn1cnc(-c3ccc(OC)[nH+]c3)c1-2 (nonaromatic ring conformer: 85.1245964604921 kcal/mol)

>  <smiles>  (44) 
COc1ccc2c(c1)CCn1cnc(-c3ccc(OC)nc3)c1-2

>  <score_type>  (44) 
oracle

>  <origin>  (44) 
adg

>  <m_score__min__energy>  (44) 
-7.4199999999999999

>  <m_primary>  (44) 
energy

$$$$
44:0
     RDKit          3D

 47 49  0  0  0  0  0  0  0  0999 V2000
   -1.7170   21.0510  -32.6400 C   0  0  0  0  0  0  0  0  0  0  0  0
   -2.6530   20.1110  -33.1600 O   0  0  0  0  0  0  0  0  0  0  0  0
   -4.0460   20.2250  -33.0340 C   0  0  0  0  0  0  0  0  0  0  0  0
   -4.8110   19.0590  -33.0820 C   0  0  0  0  0  0  0  0  0  0  0  0
   -6.2000   19.1170  -32.9720 C   0  0  0  0  0  0  0  0  0  0  0  0
   -6.8540   20.3540  -32.8160 C   0  0  0  0  0  0  0  0  0  0  0  0
   -8.2540   20.4360  -32.7140 O   0  0  0  0  0  0  0  0  0  0  0  0
   -9.1010   19.3610  -32.3220 C   0  0  0  0  0  0  0  0  0  0  0  0
   -6.0940   21.5430  -32.7640 C   0  0  0  0  0  0  0  0  0  0  0  0
   -6.7690   22.8150  -32.6170 N   0  0  0  0  0  0  0  0  0  0  0  0
   -7.0750   23.4750  -31.3410 C   0  0  1  0  0  0  0  0  0  0  0  0
   -8.0040   22.7160  -30.6110 O   0  0  0  0  0  0  0  0  0  0  0  0
   -5.8190   23.7010  -30.5450 C   0  0  0  0  0  0  0  0  0  0  0  0
   -4.8550   24.6600  -30.8120 C   0  0  0  0  0  0  0  0  0  0  0  0
   -3.9120   24.5210  -29.8180 C   0  0  0  0  0  0  0  0  0  0  0  0
   -2.7660   25.2980  -29.6950 O   0  0  0  0  0  0  0  0  0  0  0  0
   -4.2470   23.5310  -28.9680 N   0  0  0  0  0  0  0  0  0  0  0  0
   -3.5330   23.1310  -27.7590 C   0  0  0  0  0  0  0  0  0  0  0  0
   -2.6280   21.9680  -28.0580 C   0  0  0  0  0  0  0  0  0  0  0  0
   -1.6010   22.0920  -29.0080 C   0  0  0  0  0  0  0  0  0  0  0  0
   -0.7350   21.0220  -29.2540 C   0  0  0  0  0  0  0  0  0  0  0  0
   -0.8830   19.8240  -28.5470 C   0  0  0  0  0  0  0  0  0  0  0  0
   -0.0420   18.7890  -28.7860 F   0  0  0  0  0  0  0  0  0  0  0  0
   -1.8950   19.6970  -27.5910 C   0  0  0  0  0  0  0  0  0  0  0  0
   -2.7610   20.7660  -27.3420 C   0  0  0  0  0  0  0  0  0  0  0  0
   -5.4250   23.0340  -29.3960 C   0  0  0  0  0  0  0  0  0  0  0  0
   -4.6900   21.4640  -32.8660 C   0  0  0  0  0  0  0  0  0  0  0  0
   -1.7432   21.0247  -31.5406 H   0  0  0  0  0  0  0  0  0  0  0  0
   -0.7062   20.7933  -32.9890 H   0  0  0  0  0  0  0  0  0  0  0  0
   -1.9790   22.0607  -32.9890 H   0  0  0  0  0  0  0  0  0  0  0  0
   -4.3142   18.0857  -33.2077 H   0  0  0  0  0  0  0  0  0  0  0  0
   -6.7894   18.1889  -33.0074 H   0  0  0  0  0  0  0  0  0  0  0  0
   -9.1424   19.3084  -31.2240 H   0  0  0  0  0  0  0  0  0  0  0  0
  -10.1130   19.5278  -32.7195 H   0  0  0  0  0  0  0  0  0  0  0  0
   -8.7020   18.4161  -32.7195 H   0  0  0  0  0  0  0  0  0  0  0  0
   -7.0360   23.3430  -33.4780 H   0  0  0  0  0  0  0  0  0  0  0  0
   -7.5219   24.4577  -31.5521 H   0  0  0  0  0  0  0  0  0  0  0  0
   -8.1620   21.8870  -31.1340 H   0  0  0  0  0  0  0  0  0  0  0  0
   -4.8451   25.3806  -31.6430 H   0  0  0  0  0  0  0  0  0  0  0  0
   -2.9313   23.9766  -27.3945 H   0  0  0  0  0  0  0  0  0  0  0  0
   -4.2618   22.8335  -26.9906 H   0  0  0  0  0  0  0  0  0  0  0  0
   -1.4774   23.0349  -29.5609 H   0  0  0  0  0  0  0  0  0  0  0  0
    0.0633   21.1224  -30.0041 H   0  0  0  0  0  0  0  0  0  0  0  0
   -2.0101   18.7553  -27.0342 H   0  0  0  0  0  0  0  0  0  0  0  0
   -3.5501   20.6658  -26.5822 H   0  0  0  0  0  0  0  0  0  0  0  0
   -5.9868   22.2238  -28.9082 H   0  0  0  0  0  0  0  0  0  0  0  0
   -4.0899   22.3844  -32.8134 H   0  0  0  0  0  0  0  0  0  0  0  0
  1  2  1  0
  2  3  1  0
  3  4  2  0
  4  5  1  0
  5  6  2  0
  6  7  1  0
  7  8  1  0
  6  9  1  0
  9 10  1  0
 10 11  1  0
 11 12  1  0
 11 13  1  0
 13 14  1  0
 14 15  2  0
 15 16  1  0
 15 17  1  0
 17 18  1  0
 18 19  1  0
 19 20  2  0
 20 21  1  0
 21 22  2  0
 22 23  1  0
 22 24  1  0
 24 25  2  0
 17 26  1  0
  9 27  2  0
 27  3  1  0
 26 13  2  0
 25 19  1  0
  1 28  1  0
  1 29  1  0
  1 30  1  0
  4 31  1  0
  5 32  1  0
  8 33  1  0
  8 34  1  0
  8 35  1  0
 10 36  1  0
 11 37  1  6
 12 38  1  0
 14 39  1  0
 18 40  1  0
 18 41  1  0
 20 42  1  0
 21 43  1  0
 24 44  1  0
 25 45  1  0
 26 46  1  0
 27 47  1  0
M  CHG  1  16  -1
M  END
>  <UniqueID>  (45) 
43

>  <SMILES>  (45) 
COc1ccc(OC)c(N[C@@H](O)c2cc([O-])n(Cc3ccc(F)cc3)c2)c1

>  <Energy>  (45) 
73.92683744865289

>  <Genealogy>  (45) 
COc1ccc(OC)c(NC(O)c2cc([O-])n(Cc3ccc(F)cc3)c2)c1 (protonated)
COc1ccc(OC)c(N[C@@H](O)c2cc([O-])n(Cc3ccc(F)cc3)c2)c1 (chirality)
COc1ccc(OC)c(N[C@@H](O)c2cc([O-])n(Cc3ccc(F)cc3)c2)c1 (3D coordinates assigned)
COc1ccc(OC)c(N[C@@H](O)c2cc([O-])n(Cc3ccc(F)cc3)c2)c1 (optimized conformer: 73.92683744865289 kcal/mol)

>  <smiles>  (45) 
COc1ccc(OC)c(NC(O)c2cc(O)n(Cc3ccc(F)cc3)c2)c1

>  <score_type>  (45) 
oracle

>  <origin>  (45) 
adg

>  <m_score__min__energy>  (45) 
-9.6999999999999993

>  <m_primary>  (45) 
energy

$$$$
45:0
     RDKit          3D

 32 33  0  0  0  0  0  0  0  0999 V2000
   -3.5500   20.6080  -31.5550 C   0  0  0  0  0  0  0  0  0  0  0  0
   -4.5280   21.7050  -31.2910 C   0  0  0  0  0  0  0  0  0  0  0  0
   -4.1250   23.0200  -31.1780 C   0  0  0  0  0  0  0  0  0  0  0  0
   -5.0560   24.0180  -30.9330 C   0  0  0  0  0  0  0  0  0  0  0  0
   -4.6150   25.1930  -30.8430 O   0  0  0  0  0  0  0  0  0  0  0  0
   -6.3840   23.7350  -30.8000 N   0  0  0  0  0  0  0  0  0  0  0  0
   -6.7450   22.4380  -30.9160 C   0  0  0  0  0  0  0  0  0  0  0  0
   -8.4660   21.9250  -30.7600 S   0  0  0  0  0  0  0  0  0  0  0  0
   -8.8210   20.9170  -32.2360 C   0  0  0  0  0  0  0  0  0  0  0  0
   -7.9180   19.7550  -32.3530 C   0  0  0  0  0  0  0  0  0  0  0  0
   -7.6540   18.9870  -31.3830 O   0  0  0  0  0  0  0  0  0  0  0  0
   -7.2880   19.4370  -33.5940 N   0  0  0  0  0  0  0  0  0  0  0  0
   -6.4190   18.3150  -33.7020 C   0  0  0  0  0  0  0  0  0  0  0  0
   -6.8390   17.0270  -33.4630 C   0  0  0  0  0  0  0  0  0  0  0  0
   -5.9090   16.0240  -33.5990 C   0  0  0  0  0  0  0  0  0  0  0  0
   -4.5900   16.2740  -33.9630 C   0  0  0  0  0  0  0  0  0  0  0  0
   -4.1720   17.5660  -34.2020 C   0  0  0  0  0  0  0  0  0  0  0  0
   -2.9010   17.8650  -34.5590 F   0  0  0  0  0  0  0  0  0  0  0  0
   -5.1080   18.5830  -34.0660 C   0  0  0  0  0  0  0  0  0  0  0  0
   -5.8550   21.4590  -31.1530 N   0  0  0  0  0  0  0  0  0  0  0  0
   -3.1878   20.2018  -30.5991 H   0  0  0  0  0  0  0  0  0  0  0  0
   -4.0413   19.8094  -32.1302 H   0  0  0  0  0  0  0  0  0  0  0  0
   -2.7004   21.0047  -32.1302 H   0  0  0  0  0  0  0  0  0  0  0  0
   -3.0607   23.2776  -31.2827 H   0  0  0  0  0  0  0  0  0  0  0  0
   -9.8577   20.5543  -32.1754 H   0  0  0  0  0  0  0  0  0  0  0  0
   -8.6678   21.5519  -33.1211 H   0  0  0  0  0  0  0  0  0  0  0  0
   -7.4760   20.0470  -34.4380 H   0  0  0  0  0  0  0  0  0  0  0  0
   -7.8778   16.8085  -33.1745 H   0  0  0  0  0  0  0  0  0  0  0  0
   -6.2193   14.9852  -33.4131 H   0  0  0  0  0  0  0  0  0  0  0  0
   -3.8795   15.4399  -34.0603 H   0  0  0  0  0  0  0  0  0  0  0  0
   -4.8028   19.6235  -34.2510 H   0  0  0  0  0  0  0  0  0  0  0  0
   -6.1450   20.4560  -31.2420 H   0  0  0  0  0  0  0  0  0  0  0  0
  1  2  1  0
  2  3  2  0
  3  4  1  0
  4  5  2  0
  4  6  1  0
  6  7  2  0
  7  8  1  0
  8  9  1  0
  9 10  1  0
 10 11  2  0
 10 12  1  0
 12 13  1  0
 13 14  2  0
 14 15  1  0
 15 16  2  0
 16 17  1  0
 17 18  1  0
 17 19  2  0
  7 20  1  0
 20  2  1  0
 19 13  1  0
  1 21  1  0
  1 22  1  0
  1 23  1  0
  3 24  1  0
  9 25  1  0
  9 26  1  0
 12 27  1  0
 14 28  1  0
 15 29  1  0
 16 30  1  0
 19 31  1  0
 20 32  1  0
M  END
>  <smiles>  (46) 
Cc1cc(=O)nc(SCC(=O)Nc2cccc(F)c2)[nH]1

>  <score_type>  (46) 
oracle

>  <origin>  (46) 
adg

>  <m_score__min__energy>  (46) 
-7.1600000000000001

>  <m_primary>  (46) 
energy

$$$$
