0:0
     RDKit          3D

 64 67  0  0  0  0  0  0  0  0999 V2000
   -0.1010   23.0340  -24.4580 C   0  0  0  0  0  0  0  0  0  0  0  0
    0.0080   24.2670  -25.3700 C   0  0  0  0  0  0  0  0  0  0  0  0
   -1.1590   24.4620  -26.2650 N   0  0  0  0  0  0  0  0  0  0  0  0
   -1.8910   25.7170  -26.0010 C   0  0  0  0  0  0  0  0  0  0  0  0
   -1.2280   26.4970  -24.8680 C   0  0  0  0  0  0  0  0  0  0  0  0
   -0.8260   24.2630  -27.6950 C   0  0  0  0  0  0  0  0  0  0  0  0
   -1.1640   25.5260  -28.4840 C   0  0  0  0  0  0  0  0  0  0  0  0
   -2.3240   25.2890  -29.3380 N   0  0  0  0  0  0  0  0  0  0  0  0
   -3.4060   24.4230  -28.9810 C   0  0  0  0  0  0  0  0  0  0  0  0
   -3.9210   24.5350  -27.8360 O   0  0  0  0  0  0  0  0  0  0  0  0
   -3.8890   23.3700  -29.8980 C   0  0  0  0  0  0  0  0  0  0  0  0
   -5.2770   23.1030  -30.0110 C   0  0  0  0  0  0  0  0  0  0  0  0
   -5.7450   22.0710  -30.8430 C   0  0  0  0  0  0  0  0  0  0  0  0
   -4.8010   21.3150  -31.5490 C   0  0  0  0  0  0  0  0  0  0  0  0
   -3.4640   21.5650  -31.4300 C   0  0  0  0  0  0  0  0  0  0  0  0
   -2.9670   22.5790  -30.6170 C   0  0  0  0  0  0  0  0  0  0  0  0
   -2.7510   20.6780  -32.1410 N   0  0  0  0  0  0  0  0  0  0  0  0
   -3.7030   19.8910  -32.7000 C   0  0  0  0  0  0  0  0  0  0  0  0
   -3.3290   18.7220  -33.5140 C   0  0  0  0  0  0  0  0  0  0  0  0
   -4.1430   18.3220  -34.5880 C   0  0  0  0  0  0  0  0  0  0  0  0
   -5.2670   19.0150  -34.9000 F   0  0  0  0  0  0  0  0  0  0  0  0
   -3.8120   17.1850  -35.3320 C   0  0  0  0  0  0  0  0  0  0  0  0
   -2.6940   16.4220  -34.9860 C   0  0  0  0  0  0  0  0  0  0  0  0
   -1.9170   16.7800  -33.8830 C   0  0  0  0  0  0  0  0  0  0  0  0
   -2.2410   17.9160  -33.1350 C   0  0  0  0  0  0  0  0  0  0  0  0
   -1.4940   18.2340  -32.0460 F   0  0  0  0  0  0  0  0  0  0  0  0
   -4.9810   20.2540  -32.3660 N   0  0  0  0  0  0  0  0  0  0  0  0
   -6.2690   19.6120  -32.7140 C   0  0  0  0  0  0  0  0  0  0  0  0
   -7.3680   20.6650  -33.0200 C   0  0  0  0  0  0  0  0  0  0  0  0
   -8.6180   20.5020  -32.1420 C   0  0  0  0  0  0  0  0  0  0  0  0
   -9.1580   19.0630  -32.2010 C   0  0  0  0  0  0  0  0  0  0  0  0
   -8.0700   17.9820  -32.0010 C   0  0  0  0  0  0  0  0  0  0  0  0
   -6.6910   18.5650  -31.6620 C   0  0  0  0  0  0  0  0  0  0  0  0
   -0.0728   23.3527  -23.4056 H   0  0  0  0  0  0  0  0  0  0  0  0
   -1.0487   22.5126  -24.6580 H   0  0  0  0  0  0  0  0  0  0  0  0
    0.7406   22.3545  -24.6580 H   0  0  0  0  0  0  0  0  0  0  0  0
    0.1091   25.1591  -24.7345 H   0  0  0  0  0  0  0  0  0  0  0  0
    0.8822   24.1065  -26.0181 H   0  0  0  0  0  0  0  0  0  0  0  0
   -1.8922   26.3334  -26.9120 H   0  0  0  0  0  0  0  0  0  0  0  0
   -2.9221   25.4713  -25.7068 H   0  0  0  0  0  0  0  0  0  0  0  0
   -1.5672   26.0980  -23.9007 H   0  0  0  0  0  0  0  0  0  0  0  0
   -0.1353   26.3958  -24.9436 H   0  0  0  0  0  0  0  0  0  0  0  0
   -1.5039   27.5591  -24.9436 H   0  0  0  0  0  0  0  0  0  0  0  0
    0.2481   24.0471  -27.7935 H   0  0  0  0  0  0  0  0  0  0  0  0
   -1.4107   23.4195  -28.0907 H   0  0  0  0  0  0  0  0  0  0  0  0
   -1.3892   26.3434  -27.7831 H   0  0  0  0  0  0  0  0  0  0  0  0
   -0.3037   25.7984  -29.1130 H   0  0  0  0  0  0  0  0  0  0  0  0
   -5.9957   23.7103  -29.4412 H   0  0  0  0  0  0  0  0  0  0  0  0
   -6.8212   21.8634  -30.9367 H   0  0  0  0  0  0  0  0  0  0  0  0
   -1.8849   22.7594  -30.5367 H   0  0  0  0  0  0  0  0  0  0  0  0
   -4.4330   16.8910  -36.1910 H   0  0  0  0  0  0  0  0  0  0  0  0
   -2.4257   15.5382  -35.5834 H   0  0  0  0  0  0  0  0  0  0  0  0
   -1.0480   16.1671  -33.6017 H   0  0  0  0  0  0  0  0  0  0  0  0
   -6.1243   19.0495  -33.6482 H   0  0  0  0  0  0  0  0  0  0  0  0
   -6.9492   21.6679  -32.8505 H   0  0  0  0  0  0  0  0  0  0  0  0
   -7.6794   20.5207  -34.0651 H   0  0  0  0  0  0  0  0  0  0  0  0
   -8.3590   20.7452  -31.1010 H   0  0  0  0  0  0  0  0  0  0  0  0
   -9.3974   21.1812  -32.5177 H   0  0  0  0  0  0  0  0  0  0  0  0
   -9.9153   18.9436  -31.4122 H   0  0  0  0  0  0  0  0  0  0  0  0
   -9.5748   18.9171  -33.2085 H   0  0  0  0  0  0  0  0  0  0  0  0
   -8.3814   17.3209  -31.1788 H   0  0  0  0  0  0  0  0  0  0  0  0
   -7.9699   17.4400  -32.9529 H   0  0  0  0  0  0  0  0  0  0  0  0
   -6.7346   19.0441  -30.6728 H   0  0  0  0  0  0  0  0  0  0  0  0
   -5.9529   17.7494  -31.6583 H   0  0  0  0  0  0  0  0  0  0  0  0
  1  2  1  0
  2  3  1  0
  3  4  1  0
  4  5  1  0
  3  6  1  0
  6  7  1  0
  7  8  1  0
  8  9  1  0
  9 10  2  0
  9 11  1  0
 11 12  2  0
 12 13  1  0
 13 14  2  0
 14 15  1  0
 15 16  2  0
 15 17  1  0
 17 18  2  0
 18 19  1  0
 19 20  2  0
 20 21  1  0
 20 22  1  0
 22 23  2  0
 23 24  1  0
 24 25  2  0
 25 26  1  0
 18 27  1  0
 27 28  1  0
 28 29  1  0
 29 30  1  0
 30 31  1  0
 31 32  1  0
 32 33  1  0
 16 11  1  0
 25 19  1  0
 33 28  1  0
 27 14  1  0
  1 34  1  0
  1 35  1  0
  1 36  1  0
  2 37  1  0
  2 38  1  0
  4 39  1  0
  4 40  1  0
  5 41  1  0
  5 42  1  0
  5 43  1  0
  6 44  1  0
  6 45  1  0
  7 46  1  0
  7 47  1  0
 12 48  1  0
 13 49  1  0
 16 50  1  0
 22 51  1  0
 23 52  1  0
 24 53  1  0
 28 54  1  0
 29 55  1  0
 29 56  1  0
 30 57  1  0
 30 58  1  0
 31 59  1  0
 31 60  1  0
 32 61  1  0
 32 62  1  0
 33 63  1  0
 33 64  1  0
M  CHG  1   8  -1
M  END
>  <UniqueID>  (1) 
1

>  <SMILES>  (1) 
CCN(CC)CC[N-]C(=O)c1ccc2c(c1)nc(-c1c(F)cccc1F)n2C1CCCCC1

>  <Energy>  (1) 
121.39424558868622

>  <Genealogy>  (1) 
CCN(CC)CC[N-]C(=O)c1ccc2c(c1)nc(-c1c(F)cccc1F)n2C1CCCCC1 (protonated)
CCN(CC)CC[N-]C(=O)c1ccc2c(c1)nc(-c1c(F)cccc1F)n2C1CCCCC1 (3D coordinates assigned)
CCN(CC)CC[N-]C(=O)c1ccc2c(c1)nc(-c1c(F)cccc1F)n2C1CCCCC1 (nonaromatic ring conformer: 121.39424558868622 kcal/mol)

>  <smiles>  (1) 
CCN(CC)CCNC(=O)c1ccc2c(c1)nc(-c1c(F)cccc1F)n2C1CCCCC1

>  <score_type>  (1) 
oracle

>  <origin>  (1) 
adg

>  <m_score__min__energy>  (1) 
-10.529999999999999

>  <m_primary>  (1) 
energy

$$$$
1:0
     RDKit          3D

 41 44  0  0  0  0  0  0  0  0999 V2000
   -3.2280   20.4270  -29.4770 O   0  0  0  0  0  0  0  0  0  0  0  0
   -3.1400   21.6820  -28.6540 S   0  0  0  0  0  0  0  0  0  0  0  0
   -4.2010   21.6340  -27.5920 O   0  0  0  0  0  0  0  0  0  0  0  0
   -1.5340   21.7350  -27.9150 C   0  0  0  0  0  0  0  0  0  0  0  0
   -1.4030   22.1580  -26.5820 C   0  0  0  0  0  0  0  0  0  0  0  0
   -0.1420   22.2530  -25.9890 C   0  0  0  0  0  0  0  0  0  0  0  0
    1.0000   21.9210  -26.7180 C   0  0  0  0  0  0  0  0  0  0  0  0
    0.8840   21.4880  -28.0400 C   0  0  0  0  0  0  0  0  0  0  0  0
   -0.3750   21.3900  -28.6450 C   0  0  0  0  0  0  0  0  0  0  0  0
   -0.4440   20.8090  -30.4730 Br  0  0  0  0  0  0  0  0  0  0  0  0
   -3.4150   23.1030  -29.6750 C   0  0  0  0  0  0  0  0  0  0  0  0
   -4.1080   23.1600  -30.8740 C   0  0  0  0  0  0  0  0  0  0  0  0
   -4.6350   22.0290  -31.6550 C   0  0  0  0  0  0  0  0  0  0  0  0
   -3.7340   21.1850  -32.3210 C   0  0  0  0  0  0  0  0  0  0  0  0
   -4.2040   20.1420  -33.1220 C   0  0  0  0  0  0  0  0  0  0  0  0
   -5.5790   19.9200  -33.2470 C   0  0  0  0  0  0  0  0  0  0  0  0
   -6.1680   18.6220  -34.2690 Cl  0  0  0  0  0  0  0  0  0  0  0  0
   -6.4830   20.7340  -32.5580 C   0  0  0  0  0  0  0  0  0  0  0  0
   -6.0200   21.7850  -31.7580 C   0  0  0  0  0  0  0  0  0  0  0  0
   -7.1960   22.7490  -30.8710 Cl  0  0  0  0  0  0  0  0  0  0  0  0
   -4.3280   24.4470  -31.2020 N   0  0  0  0  0  0  0  0  0  0  0  0
   -3.7850   25.1780  -30.2730 O   0  0  0  0  0  0  0  0  0  0  0  0
   -3.2240   24.4360  -29.3430 C   0  0  0  0  0  0  0  0  0  0  0  0
   -2.5430   25.0010  -28.1620 C   0  0  0  0  0  0  0  0  0  0  0  0
   -1.2840   25.6040  -28.3120 C   0  0  0  0  0  0  0  0  0  0  0  0
   -0.6150   26.1250  -27.2000 C   0  0  0  0  0  0  0  0  0  0  0  0
   -1.1890   26.0340  -25.9300 C   0  0  0  0  0  0  0  0  0  0  0  0
   -2.4300   25.4130  -25.7690 C   0  0  0  0  0  0  0  0  0  0  0  0
   -3.1030   24.8910  -26.8780 C   0  0  0  0  0  0  0  0  0  0  0  0
   -2.3004   22.4164  -26.0007 H   0  0  0  0  0  0  0  0  0  0  0  0
   -0.0493   22.5900  -24.9460 H   0  0  0  0  0  0  0  0  0  0  0  0
    1.9927   22.0005  -26.2508 H   0  0  0  0  0  0  0  0  0  0  0  0
    1.7867   21.2223  -28.6097 H   0  0  0  0  0  0  0  0  0  0  0  0
   -2.6513   21.3456  -32.2117 H   0  0  0  0  0  0  0  0  0  0  0  0
   -3.4921   19.4946  -33.6550 H   0  0  0  0  0  0  0  0  0  0  0  0
   -7.5636   20.5475  -32.6451 H   0  0  0  0  0  0  0  0  0  0  0  0
   -0.8220   25.6669  -29.3083 H   0  0  0  0  0  0  0  0  0  0  0  0
    0.3655   26.6076  -27.3258 H   0  0  0  0  0  0  0  0  0  0  0  0
   -0.6645   26.4508  -25.0575 H   0  0  0  0  0  0  0  0  0  0  0  0
   -2.8787   25.3345  -24.7677 H   0  0  0  0  0  0  0  0  0  0  0  0
   -4.0744   24.3924  -26.7447 H   0  0  0  0  0  0  0  0  0  0  0  0
  1  2  2  0
  2  3  2  0
  2  4  1  0
  4  5  2  0
  5  6  1  0
  6  7  2  0
  7  8  1  0
  8  9  2  0
  9 10  1  0
  2 11  1  0
 11 12  1  0
 12 13  1  0
 13 14  2  0
 14 15  1  0
 15 16  2  0
 16 17  1  0
 16 18  1  0
 18 19  2  0
 19 20  1  0
 12 21  2  0
 21 22  1  0
 22 23  1  0
 23 24  1  0
 24 25  2  0
 25 26  1  0
 26 27  2  0
 27 28  1  0
 28 29  2  0
  9  4  1  0
 23 11  2  0
 29 24  1  0
 19 13  1  0
  5 30  1  0
  6 31  1  0
  7 32  1  0
  8 33  1  0
 14 34  1  0
 15 35  1  0
 18 36  1  0
 25 37  1  0
 26 38  1  0
 27 39  1  0
 28 40  1  0
 29 41  1  0
M  END
>  <UniqueID>  (2) 
2

>  <SMILES>  (2) 
O=S(=O)(c1ccccc1Br)c1c(-c2ccc(Cl)cc2Cl)noc1-c1ccccc1

>  <Energy>  (2) 
87.88405959157205

>  <Genealogy>  (2) 
O=S(=O)(c1ccccc1Br)c1c(-c2ccc(Cl)cc2Cl)noc1-c1ccccc1 (3D coordinates assigned)
O=S(=O)(c1ccccc1Br)c1c(-c2ccc(Cl)cc2Cl)noc1-c1ccccc1 (optimized conformer: 87.88405959157205 kcal/mol)

>  <smiles>  (2) 
O=S(=O)(c1ccccc1Br)c1c(-c2ccc(Cl)cc2Cl)noc1-c1ccccc1

>  <score_type>  (2) 
oracle

>  <origin>  (2) 
adg

>  <m_score__min__energy>  (2) 
-9.9600000000000009

>  <m_primary>  (2) 
energy

$$$$
2:0
     RDKit          3D

 18 19  0  0  0  0  0  0  0  0999 V2000
   -8.3550   20.1480  -32.6060 C   0  0  0  0  0  0  0  0  0  0  0  0
   -6.9720   20.3010  -32.7300 C   0  0  0  0  0  0  0  0  0  0  0  0
   -6.3440   21.4410  -32.2190 C   0  0  0  0  0  0  0  0  0  0  0  0
   -7.0960   22.4430  -31.5790 C   0  0  0  0  0  0  0  0  0  0  0  0
   -6.4520   23.6190  -31.0540 N   0  0  0  0  0  0  0  0  0  0  0  0
   -5.3740   24.1740  -31.5890 N   0  0  0  0  0  0  0  0  0  0  0  0
   -5.0800   25.2370  -30.8200 C   0  0  0  0  0  0  0  0  0  0  0  0
   -6.0150   25.2990  -29.8110 C   0  0  0  0  0  0  0  0  0  0  0  0
   -6.8670   24.2730  -29.9790 N   0  0  0  0  0  0  0  0  0  0  0  0
   -8.4890   22.2790  -31.4610 C   0  0  0  0  0  0  0  0  0  0  0  0
   -9.1120   21.1360  -31.9730 C   0  0  0  0  0  0  0  0  0  0  0  0
   -8.8474   19.2497  -33.0068 H   0  0  0  0  0  0  0  0  0  0  0  0
   -6.3761   19.5235  -33.2304 H   0  0  0  0  0  0  0  0  0  0  0  0
   -5.2544   21.5551  -32.3181 H   0  0  0  0  0  0  0  0  0  0  0  0
   -4.2417   25.9332  -30.9702 H   0  0  0  0  0  0  0  0  0  0  0  0
   -6.0571   26.0529  -29.0111 H   0  0  0  0  0  0  0  0  0  0  0  0
   -9.0909   23.0538  -30.9635 H   0  0  0  0  0  0  0  0  0  0  0  0
  -10.2011   21.0152  -31.8767 H   0  0  0  0  0  0  0  0  0  0  0  0
  1  2  2  0
  2  3  1  0
  3  4  2  0
  4  5  1  0
  5  6  1  0
  6  7  2  0
  7  8  1  0
  8  9  2  0
  4 10  1  0
 10 11  2  0
 11  1  1  0
  9  5  1  0
  1 12  1  0
  2 13  1  0
  3 14  1  0
  7 15  1  0
  8 16  1  0
 10 17  1  0
 11 18  1  0
M  END
>  <UniqueID>  (3) 
3

>  <SMILES>  (3) 
c1ccc(-n2nccn2)cc1

>  <Energy>  (3) 
53.0454546202248

>  <Genealogy>  (3) 
c1ccc(-n2nccn2)cc1 (3D coordinates assigned)
c1ccc(-n2nccn2)cc1 (optimized conformer: 53.0454546202248 kcal/mol)

>  <smiles>  (3) 
c1ccc(-n2nccn2)cc1

>  <score_type>  (3) 
oracle

>  <origin>  (3) 
adg

>  <m_score__min__energy>  (3) 
-5.1799999999999997

>  <m_primary>  (3) 
energy

$$$$
3:0
     RDKit          3D

 43 45  0  0  0  0  0  0  0  0999 V2000
   -1.4940   25.8820  -25.3660 C   0  0  0  0  0  0  0  0  0  0  0  0
   -0.8400   25.1700  -26.4110 O   0  0  0  0  0  0  0  0  0  0  0  0
   -1.5020   24.4270  -27.4020 C   0  0  0  0  0  0  0  0  0  0  0  0
   -1.5230   23.0210  -27.4010 C   0  0  0  0  0  0  0  0  0  0  0  0
   -2.1960   22.3150  -28.4140 C   0  0  0  0  0  0  0  0  0  0  0  0
   -2.2330   20.9100  -28.4430 O   0  0  0  0  0  0  0  0  0  0  0  0
   -2.7140   20.0910  -27.3830 C   0  0  0  0  0  0  0  0  0  0  0  0
   -2.8570   23.0280  -29.4320 C   0  0  0  0  0  0  0  0  0  0  0  0
   -3.5710   22.2910  -30.5040 C   0  0  0  0  0  0  0  0  0  0  0  0
   -4.9760   22.1020  -30.4690 C   0  0  0  0  0  0  0  0  0  0  0  0
   -5.8130   22.7040  -29.3560 C   0  0  0  0  0  0  0  0  0  0  0  0
   -5.5890   21.3340  -31.4920 C   0  0  0  0  0  0  0  0  0  0  0  0
   -6.9760   21.0580  -31.5020 C   0  0  0  0  0  0  0  0  0  0  0  0
   -7.5450   20.3040  -32.5330 C   0  0  0  0  0  0  0  0  0  0  0  0
   -9.2680   19.9720  -32.5280 Cl  0  0  0  0  0  0  0  0  0  0  0  0
   -6.7450   19.8130  -33.5660 C   0  0  0  0  0  0  0  0  0  0  0  0
   -5.3750   20.0670  -33.5700 C   0  0  0  0  0  0  0  0  0  0  0  0
   -4.7860   20.8200  -32.5410 C   0  0  0  0  0  0  0  0  0  0  0  0
   -3.4450   21.0500  -32.5540 N   0  0  0  0  0  0  0  0  0  0  0  0
   -2.8280   21.7550  -31.5710 C   0  0  0  0  0  0  0  0  0  0  0  0
   -1.5790   21.9190  -31.6200 O   0  0  0  0  0  0  0  0  0  0  0  0
   -2.8410   24.4350  -29.4400 C   0  0  0  0  0  0  0  0  0  0  0  0
   -3.5150   25.1130  -30.4690 O   0  0  0  0  0  0  0  0  0  0  0  0
   -4.9060   25.4170  -30.4620 C   0  0  0  0  0  0  0  0  0  0  0  0
   -2.1590   25.1220  -28.4190 C   0  0  0  0  0  0  0  0  0  0  0  0
   -1.1475   25.5047  -24.3926 H   0  0  0  0  0  0  0  0  0  0  0  0
   -1.2585   26.9533  -25.4490 H   0  0  0  0  0  0  0  0  0  0  0  0
   -2.5814   25.7381  -25.4490 H   0  0  0  0  0  0  0  0  0  0  0  0
   -1.0085   22.4686  -26.6009 H   0  0  0  0  0  0  0  0  0  0  0  0
   -2.4468   20.5460  -26.4178 H   0  0  0  0  0  0  0  0  0  0  0  0
   -3.8080   20.0018  -27.4560 H   0  0  0  0  0  0  0  0  0  0  0  0
   -2.2590   19.0922  -27.4560 H   0  0  0  0  0  0  0  0  0  0  0  0
   -5.3976   22.4052  -28.3822 H   0  0  0  0  0  0  0  0  0  0  0  0
   -5.7997   23.8008  -29.4394 H   0  0  0  0  0  0  0  0  0  0  0  0
   -6.8485   22.3425  -29.4394 H   0  0  0  0  0  0  0  0  0  0  0  0
   -7.6133   21.4401  -30.6909 H   0  0  0  0  0  0  0  0  0  0  0  0
   -7.1968   19.2246  -34.3782 H   0  0  0  0  0  0  0  0  0  0  0  0
   -4.7497   19.6747  -34.3855 H   0  0  0  0  0  0  0  0  0  0  0  0
   -2.8610   20.6660  -33.3330 H   0  0  0  0  0  0  0  0  0  0  0  0
   -5.2592   25.4942  -29.4231 H   0  0  0  0  0  0  0  0  0  0  0  0
   -5.0749   26.3733  -30.9787 H   0  0  0  0  0  0  0  0  0  0  0  0
   -5.4585   24.6184  -30.9787 H   0  0  0  0  0  0  0  0  0  0  0  0
   -2.1433   26.2219  -28.4221 H   0  0  0  0  0  0  0  0  0  0  0  0
  1  2  1  0
  2  3  1  0
  3  4  2  0
  4  5  1  0
  5  6  1  0
  6  7  1  0
  5  8  2  0
  8  9  1  0
  9 10  2  0
 10 11  1  0
 10 12  1  0
 12 13  2  0
 13 14  1  0
 14 15  1  0
 14 16  2  0
 16 17  1  0
 17 18  2  0
 18 19  1  0
 19 20  1  0
 20 21  2  0
  8 22  1  0
 22 23  1  0
 23 24  1  0
 22 25  2  0
 25  3  1  0
 20  9  1  0
 18 12  1  0
  1 26  1  0
  1 27  1  0
  1 28  1  0
  4 29  1  0
  7 30  1  0
  7 31  1  0
  7 32  1  0
 11 33  1  0
 11 34  1  0
 11 35  1  0
 13 36  1  0
 16 37  1  0
 17 38  1  0
 19 39  1  0
 24 40  1  0
 24 41  1  0
 24 42  1  0
 25 43  1  0
M  END
>  <UniqueID>  (4) 
4

>  <SMILES>  (4) 
COc1cc(OC)c(-c2c(C)c3cc(Cl)ccc3[nH]c2=O)c(OC)c1

>  <Energy>  (4) 
59.519917202650774

>  <Genealogy>  (4) 
COc1cc(OC)c(-c2c(C)c3cc(Cl)ccc3[nH]c2=O)c(OC)c1 (3D coordinates assigned)
COc1cc(OC)c(-c2c(C)c3cc(Cl)ccc3[nH]c2=O)c(OC)c1 (optimized conformer: 59.519917202650774 kcal/mol)

>  <smiles>  (4) 
COc1cc(OC)c(-c2c(C)c3cc(Cl)ccc3[nH]c2=O)c(OC)c1

>  <score_type>  (4) 
oracle

>  <origin>  (4) 
adg

>  <m_score__min__energy>  (4) 
-7.3799999999999999

>  <m_primary>  (4) 
energy

$$$$
4:0
     RDKit          3D

 57 58  0  0  0  0  0  0  0  0999 V2000
   -5.2270   17.2180  -34.7220 C   0  0  0  0  0  0  0  0  0  0  0  0
   -5.5860   17.1530  -33.2410 C   0  0  0  0  0  0  0  0  0  0  0  0
   -6.5450   18.2140  -32.8900 N   0  0  0  0  0  0  0  0  0  0  0  0
   -7.9600   17.8050  -32.7160 C   0  0  0  0  0  0  0  0  0  0  0  0
   -8.8820   18.9940  -32.4080 C   0  0  0  0  0  0  0  0  0  0  0  0
   -8.2700   19.8620  -31.3160 C   0  0  0  0  0  0  0  0  0  0  0  0
   -6.9540   20.3930  -31.7990 C   0  0  0  0  0  0  0  0  0  0  0  0
   -6.6090   21.7320  -31.5600 C   0  0  0  0  0  0  0  0  0  0  0  0
   -5.4560   22.2680  -32.1570 C   0  0  0  0  0  0  0  0  0  0  0  0
   -5.1350   23.6360  -32.1240 O   0  0  0  0  0  0  0  0  0  0  0  0
   -5.9490   24.6840  -31.5650 C   0  0  0  0  0  0  0  0  0  0  0  0
   -5.2220   25.5120  -30.4670 C   0  0  2  0  0  0  0  0  0  0  0  0
   -3.8660   25.6390  -30.7890 O   0  0  0  0  0  0  0  0  0  0  0  0
   -5.4370   24.9130  -29.0530 C   0  0  0  0  0  0  0  0  0  0  0  0
   -4.2350   24.1960  -28.5350 N   0  0  0  0  0  0  0  0  0  0  0  0
   -4.0570   24.5450  -27.1090 C   0  0  0  0  0  0  0  0  0  0  0  0
   -4.4070   22.7220  -28.7410 C   0  0  0  0  0  0  0  0  0  0  0  0
   -3.3650   22.0090  -29.6380 C   0  0  0  0  0  0  0  0  0  0  0  0
   -2.5080   22.9540  -30.3960 N   0  0  0  0  0  0  0  0  0  0  0  0
   -1.8150   22.2230  -31.4750 C   0  0  0  0  0  0  0  0  0  0  0  0
   -1.5270   23.6190  -29.5170 C   0  0  0  0  0  0  0  0  0  0  0  0
   -4.5870   21.4270  -32.8530 C   0  0  0  0  0  0  0  0  0  0  0  0
   -4.9070   20.0900  -33.0680 C   0  0  0  0  0  0  0  0  0  0  0  0
   -6.1100   19.5560  -32.5610 C   0  0  0  0  0  0  0  0  0  0  0  0
   -4.1498   17.4130  -34.8300 H   0  0  0  0  0  0  0  0  0  0  0  0
   -5.4761   16.2601  -35.2021 H   0  0  0  0  0  0  0  0  0  0  0  0
   -5.7962   18.0277  -35.2021 H   0  0  0  0  0  0  0  0  0  0  0  0
   -6.0352   16.1733  -33.0212 H   0  0  0  0  0  0  0  0  0  0  0  0
   -4.6699   17.2948  -32.6488 H   0  0  0  0  0  0  0  0  0  0  0  0
   -8.3042   17.3224  -33.6426 H   0  0  0  0  0  0  0  0  0  0  0  0
   -8.0060   17.1158  -31.8599 H   0  0  0  0  0  0  0  0  0  0  0  0
   -9.0160   19.5960  -33.3189 H   0  0  0  0  0  0  0  0  0  0  0  0
   -9.8554   18.6149  -32.0633 H   0  0  0  0  0  0  0  0  0  0  0  0
   -8.9453   20.7000  -31.0884 H   0  0  0  0  0  0  0  0  0  0  0  0
   -8.1192   19.2641  -30.4051 H   0  0  0  0  0  0  0  0  0  0  0  0
   -7.2374   22.3579  -30.9093 H   0  0  0  0  0  0  0  0  0  0  0  0
   -6.2458   25.3652  -32.3761 H   0  0  0  0  0  0  0  0  0  0  0  0
   -6.8156   24.2027  -31.0882 H   0  0  0  0  0  0  0  0  0  0  0  0
   -5.6635   26.5191  -30.4377 H   0  0  0  0  0  0  0  0  0  0  0  0
   -3.5760   24.7890  -31.2120 H   0  0  0  0  0  0  0  0  0  0  0  0
   -5.6834   25.7306  -28.3596 H   0  0  0  0  0  0  0  0  0  0  0  0
   -6.2521   24.1781  -29.1272 H   0  0  0  0  0  0  0  0  0  0  0  0
   -4.4672   23.7407  -26.4807 H   0  0  0  0  0  0  0  0  0  0  0  0
   -2.9856   24.6689  -26.8928 H   0  0  0  0  0  0  0  0  0  0  0  0
   -4.5858   25.4850  -26.8928 H   0  0  0  0  0  0  0  0  0  0  0  0
   -4.3753   22.2431  -27.7512 H   0  0  0  0  0  0  0  0  0  0  0  0
   -5.3621   22.6189  -29.2769 H   0  0  0  0  0  0  0  0  0  0  0  0
   -2.7207   21.3865  -28.9997 H   0  0  0  0  0  0  0  0  0  0  0  0
   -3.9204   21.4074  -30.3725 H   0  0  0  0  0  0  0  0  0  0  0  0
   -1.1213   21.4913  -31.0353 H   0  0  0  0  0  0  0  0  0  0  0  0
   -2.5554   21.6986  -32.0969 H   0  0  0  0  0  0  0  0  0  0  0  0
   -1.2518   22.9344  -32.0969 H   0  0  0  0  0  0  0  0  0  0  0  0
   -1.7946   23.4376  -28.4656 H   0  0  0  0  0  0  0  0  0  0  0  0
   -0.5236   23.2141  -29.7151 H   0  0  0  0  0  0  0  0  0  0  0  0
   -1.5315   24.7010  -29.7151 H   0  0  0  0  0  0  0  0  0  0  0  0
   -3.6365   21.8261  -33.2368 H   0  0  0  0  0  0  0  0  0  0  0  0
   -4.2187   19.4467  -33.6359 H   0  0  0  0  0  0  0  0  0  0  0  0
  1  2  1  0
  2  3  1  0
  3  4  1  0
  4  5  1  0
  5  6  1  0
  6  7  1  0
  7  8  2  0
  8  9  1  0
  9 10  1  0
 10 11  1  0
 11 12  1  0
 12 13  1  0
 12 14  1  0
 14 15  1  0
 15 16  1  0
 15 17  1  0
 17 18  1  0
 18 19  1  0
 19 20  1  0
 19 21  1  0
  9 22  2  0
 22 23  1  0
 23 24  2  0
 24  3  1  0
 24  7  1  0
  1 25  1  0
  1 26  1  0
  1 27  1  0
  2 28  1  0
  2 29  1  0
  4 30  1  0
  4 31  1  0
  5 32  1  0
  5 33  1  0
  6 34  1  0
  6 35  1  0
  8 36  1  0
 11 37  1  0
 11 38  1  0
 12 39  1  1
 13 40  1  0
 14 41  1  0
 14 42  1  0
 16 43  1  0
 16 44  1  0
 16 45  1  0
 17 46  1  0
 17 47  1  0
 18 48  1  0
 18 49  1  0
 20 50  1  0
 20 51  1  0
 20 52  1  0
 21 53  1  0
 21 54  1  0
 21 55  1  0
 22 56  1  0
 23 57  1  0
M  END
>  <UniqueID>  (5) 
5

>  <SMILES>  (5) 
CCN1CCCc2cc(OC[C@H](O)CN(C)CCN(C)C)ccc21

>  <Energy>  (5) 
70.32837721839479

>  <Genealogy>  (5) 
CCN1CCCc2cc(OC[C@H](O)CN(C)CCN(C)C)ccc21 (chirality)
CCN1CCCc2cc(OC[C@H](O)CN(C)CCN(C)C)ccc21 (3D coordinates assigned)
CCN1CCCc2cc(OC[C@H](O)CN(C)CCN(C)C)ccc21 (nonaromatic ring conformer: 70.32837721839479 kcal/mol)

>  <smiles>  (5) 
CCN1CCCc2cc(OCC(O)CN(C)CCN(C)C)ccc21

>  <score_type>  (5) 
oracle

>  <origin>  (5) 
adg

>  <m_score__min__energy>  (5) 
-8.3300000000000001

>  <m_primary>  (5) 
energy

$$$$
5:0
     RDKit          3D

 53 56  0  0  0  0  0  0  0  0999 V2000
   -0.6772   25.7933  -23.4151 H   0  0  0  0  0  0  0  0  0  0  0  0
   -0.8460   25.4370  -24.4420 C   0  0  0  0  0  0  0  0  0  0  0  0
   -1.5790   26.2170  -25.3410 C   0  0  0  0  0  0  0  0  0  0  0  0
   -1.9895   27.1858  -25.0201 H   0  0  0  0  0  0  0  0  0  0  0  0
   -1.7910   25.7670  -26.6480 C   0  0  0  0  0  0  0  0  0  0  0  0
   -2.3732   26.3810  -27.3509 H   0  0  0  0  0  0  0  0  0  0  0  0
   -1.2640   24.5350  -27.0670 C   0  0  0  0  0  0  0  0  0  0  0  0
   -1.5020   24.0510  -28.4740 C   0  0  0  0  0  0  0  0  0  0  0  0
   -0.5376   23.9706  -28.9969 H   0  0  0  0  0  0  0  0  0  0  0  0
   -1.9950   23.0685  -28.4329 H   0  0  0  0  0  0  0  0  0  0  0  0
   -2.3650   24.9820  -29.1980 N   0  0  0  0  0  0  0  0  0  0  0  0
   -3.3270   24.6040  -29.9820 C   0  0  0  0  0  0  0  0  0  0  0  0
   -4.2510   25.4460  -30.4760 N   0  0  0  0  0  0  0  0  0  0  0  0
   -5.0460   24.7030  -31.2310 N   0  0  0  0  0  0  0  0  0  0  0  0
   -4.5740   23.4410  -31.1620 C   0  0  0  0  0  0  0  0  0  0  0  0
   -5.1660   22.2870  -31.8640 C   0  0  0  0  0  0  0  0  0  0  0  0
   -4.4960   21.6850  -32.9410 C   0  0  0  0  0  0  0  0  0  0  0  0
   -3.5300   22.0884  -33.2788 H   0  0  0  0  0  0  0  0  0  0  0  0
   -5.0500   20.5760  -33.5860 C   0  0  0  0  0  0  0  0  0  0  0  0
   -4.5112   20.1052  -34.4215 H   0  0  0  0  0  0  0  0  0  0  0  0
   -6.2890   20.0580  -33.1760 C   0  0  0  0  0  0  0  0  0  0  0  0
   -6.8390   18.8880  -33.8220 N   0  0  0  0  0  0  0  0  0  0  0  0
   -7.8850   18.8950  -33.7590 H   0  0  0  0  0  0  0  0  0  0  0  0
   -6.5990   18.9440  -34.8410 H   0  0  0  0  0  0  0  0  0  0  0  0
   -6.3000   17.6320  -33.2460 C   0  0  0  0  0  0  0  0  0  0  0  0
   -6.8666   17.3567  -32.3442 H   0  0  0  0  0  0  0  0  0  0  0  0
   -6.4730   16.4550  -34.2450 C   0  0  0  0  0  0  0  0  0  0  0  0
   -7.5379   16.3966  -34.5143 H   0  0  0  0  0  0  0  0  0  0  0  0
   -5.8055   16.6835  -35.0890 H   0  0  0  0  0  0  0  0  0  0  0  0
   -6.0400   15.0700  -33.7400 C   0  0  0  0  0  0  0  0  0  0  0  0
   -6.7132   14.7746  -32.9217 H   0  0  0  0  0  0  0  0  0  0  0  0
   -6.0931   14.3873  -34.6009 H   0  0  0  0  0  0  0  0  0  0  0  0
   -4.5930   15.0160  -33.2190 C   0  0  0  0  0  0  0  0  0  0  0  0
   -4.6003   15.3499  -32.1709 H   0  0  0  0  0  0  0  0  0  0  0  0
   -4.2670   13.9747  -33.3582 H   0  0  0  0  0  0  0  0  0  0  0  0
   -3.5610   15.8820  -33.9850 C   0  0  0  0  0  0  0  0  0  0  0  0
   -2.5572   15.6120  -33.6251 H   0  0  0  0  0  0  0  0  0  0  0  0
   -3.7188   15.6694  -35.0527 H   0  0  0  0  0  0  0  0  0  0  0  0
   -3.7300   17.4030  -33.8250 C   0  0  0  0  0  0  0  0  0  0  0  0
   -2.7690   17.8165  -33.4853 H   0  0  0  0  0  0  0  0  0  0  0  0
   -4.0511   17.7755  -34.8089 H   0  0  0  0  0  0  0  0  0  0  0  0
   -4.8240   17.8530  -32.8230 C   0  0  0  0  0  0  0  0  0  0  0  0
   -4.6616   17.3021  -31.8848 H   0  0  0  0  0  0  0  0  0  0  0  0
   -4.7092   18.9443  -32.7457 H   0  0  0  0  0  0  0  0  0  0  0  0
   -6.9660   20.6720  -32.1060 C   0  0  0  0  0  0  0  0  0  0  0  0
   -7.9425   20.2828  -31.7821 H   0  0  0  0  0  0  0  0  0  0  0  0
   -6.4060   21.7730  -31.4520 C   0  0  0  0  0  0  0  0  0  0  0  0
   -6.9393   22.2391  -30.6104 H   0  0  0  0  0  0  0  0  0  0  0  0
   -3.5130   23.3730  -30.3930 O   0  0  0  0  0  0  0  0  0  0  0  0
   -0.5370   23.7510  -26.1550 C   0  0  0  0  0  0  0  0  0  0  0  0
   -0.1313   22.7781  -26.4693 H   0  0  0  0  0  0  0  0  0  0  0  0
   -0.3280   24.2050  -24.8480 C   0  0  0  0  0  0  0  0  0  0  0  0
    0.2455   23.5903  -24.1387 H   0  0  0  0  0  0  0  0  0  0  0  0
  1  2  1  0
  2  3  2  0
  3  4  1  0
  3  5  1  0
  5  6  1  0
  5  7  2  0
  7  8  1  0
  8  9  1  0
  8 10  1  0
  8 11  1  0
 11 12  2  0
 12 13  1  0
 13 14  1  0
 14 15  2  0
 15 16  1  0
 16 17  2  0
 17 18  1  0
 17 19  1  0
 19 20  1  0
 19 21  2  0
 21 22  1  0
 22 23  1  0
 22 24  1  0
 22 25  1  0
 25 26  1  0
 25 27  1  0
 27 28  1  0
 27 29  1  0
 27 30  1  0
 30 31  1  0
 30 32  1  0
 30 33  1  0
 33 34  1  0
 33 35  1  0
 33 36  1  0
 36 37  1  0
 36 38  1  0
 36 39  1  0
 39 40  1  0
 39 41  1  0
 39 42  1  0
 42 43  1  0
 42 44  1  0
 21 45  1  0
 45 46  1  0
 45 47  2  0
 47 48  1  0
 15 49  1  0
  7 50  1  0
 50 51  1  0
 50 52  2  0
 52 53  1  0
 52  2  1  0
 49 12  1  0
 47 16  1  0
 42 25  1  0
M  CHG  2  13  -1  22   1
M  END
>  <UniqueID>  (6) 
6

>  <SMILES>  (6) 
c1ccc(C/N=c2/[n-]nc(-c3ccc([NH2+]C4CCCCCC4)cc3)o2)cc1

>  <Energy>  (6) 
100.26202932639464

>  <Genealogy>  (6) 
c1ccc(CN=c2[n-]nc(-c3ccc([NH2+]C4CCCCCC4)cc3)o2)cc1 (protonated)
c1ccc(C/N=c2/[n-]nc(-c3ccc([NH2+]C4CCCCCC4)cc3)o2)cc1 (cis-trans isomerization)
c1ccc(C/N=c2/[n-]nc(-c3ccc([NH2+]C4CCCCCC4)cc3)o2)cc1 (3D coordinates assigned)
c1ccc(C/N=c2/[n-]nc(-c3ccc([NH2+]C4CCCCCC4)cc3)o2)cc1 (nonaromatic ring conformer: 100.26202932639464 kcal/mol)

>  <smiles>  (6) 
c1ccc(CN=c2[nH]nc(-c3ccc(NC4CCCCCC4)cc3)o2)cc1

>  <score_type>  (6) 
oracle

>  <origin>  (6) 
adg

>  <m_score__min__energy>  (6) 
-8.0600000000000005

>  <m_primary>  (6) 
energy

$$$$
6:0
     RDKit          3D

 53 56  0  0  1  0  0  0  0  0999 V2000
   -0.9480   25.8340  -27.7380 C   0  0  0  0  0  0  0  0  0  0  0  0
   -1.5890   24.8070  -28.6260 C   0  0  0  0  0  0  0  0  0  0  0  0
   -1.0380   23.5610  -28.6790 N   0  0  0  0  0  0  0  0  0  0  0  0
   -1.5700   22.5990  -29.4580 C   0  0  0  0  0  0  0  0  0  0  0  0
   -1.0330   21.2860  -29.5470 N   0  0  0  0  0  0  0  0  0  0  0  0
   -0.8100   20.5120  -28.4760 C   0  0  0  0  0  0  0  0  0  0  0  0
   -0.2910   19.3150  -28.9200 C   0  0  0  0  0  0  0  0  0  0  0  0
   -0.2050   19.3830  -30.2740 N   0  0  0  0  0  0  0  0  0  0  0  0
   -0.6630   20.5970  -30.6530 C   0  0  0  0  0  0  0  0  0  0  0  0
   -0.7540   21.1140  -32.0630 C   0  0  0  0  0  0  0  0  0  0  0  0
   -2.6900   22.8980  -30.2070 C   0  0  0  0  0  0  0  0  0  0  0  0
   -3.2130   24.1780  -30.1200 C   0  0  0  0  0  0  0  0  0  0  0  0
   -4.2370   24.4560  -30.8030 N   0  0  0  0  0  0  0  0  0  0  0  0
   -5.2250   23.5650  -31.2910 C   0  0  0  0  0  0  0  0  0  0  0  0
   -6.4190   24.1030  -31.9760 C   0  0  0  0  0  0  0  0  0  0  0  0
   -7.3890   22.9400  -32.1340 C   0  0  0  0  0  0  0  0  0  0  0  0
   -6.7730   21.7000  -32.4640 N   0  0  0  0  0  0  0  0  0  0  0  0
   -7.8080   20.6890  -32.5510 C   0  0  0  0  0  0  0  0  0  0  0  0
   -7.2490   19.4150  -33.0040 C   0  0  0  0  0  0  0  0  0  0  0  0
   -7.5270   18.1820  -32.4860 C   0  0  0  0  0  0  0  0  0  0  0  0
   -6.9400   17.0310  -32.9920 C   0  0  0  0  0  0  0  0  0  0  0  0
   -6.0440   17.0740  -34.0460 C   0  0  0  0  0  0  0  0  0  0  0  0
   -5.7560   18.3310  -34.5830 C   0  0  0  0  0  0  0  0  0  0  0  0
   -6.3470   19.4540  -34.0670 C   0  0  0  0  0  0  0  0  0  0  0  0
   -5.8040   21.2030  -31.5160 C   0  0  0  0  0  0  0  0  0  0  0  0
   -5.5870   22.3600  -30.5140 C   0  0  0  0  0  0  0  0  0  0  0  0
   -2.6790   25.1330  -29.3410 N   0  0  0  0  0  0  0  0  0  0  0  0
   -1.1162   25.5645  -26.6849 H   0  0  0  0  0  0  0  0  0  0  0  0
    0.1329   25.8694  -27.9393 H   0  0  0  0  0  0  0  0  0  0  0  0
   -1.3910   26.8205  -27.9393 H   0  0  0  0  0  0  0  0  0  0  0  0
   -1.0064   20.7838  -27.4284 H   0  0  0  0  0  0  0  0  0  0  0  0
    0.0006   18.4601  -28.2922 H   0  0  0  0  0  0  0  0  0  0  0  0
   -0.9447   22.1972  -32.0448 H   0  0  0  0  0  0  0  0  0  0  0  0
    0.1926   20.9171  -32.5876 H   0  0  0  0  0  0  0  0  0  0  0  0
   -1.5765   20.6057  -32.5876 H   0  0  0  0  0  0  0  0  0  0  0  0
   -3.1548   22.1407  -30.8554 H   0  0  0  0  0  0  0  0  0  0  0  0
   -4.5371   23.2207  -32.0773 H   0  0  0  0  0  0  0  0  0  0  0  0
   -6.8768   24.8999  -31.3716 H   0  0  0  0  0  0  0  0  0  0  0  0
   -6.1556   24.5361  -32.9522 H   0  0  0  0  0  0  0  0  0  0  0  0
   -7.9310   22.8130  -31.1852 H   0  0  0  0  0  0  0  0  0  0  0  0
   -8.0501   23.1953  -32.9753 H   0  0  0  0  0  0  0  0  0  0  0  0
   -8.2629   20.5515  -31.5589 H   0  0  0  0  0  0  0  0  0  0  0  0
   -8.5663   21.0203  -33.2757 H   0  0  0  0  0  0  0  0  0  0  0  0
   -8.2336   18.0995  -31.6470 H   0  0  0  0  0  0  0  0  0  0  0  0
   -7.1934   16.0590  -32.5437 H   0  0  0  0  0  0  0  0  0  0  0  0
   -5.5795   16.1593  -34.4430 H   0  0  0  0  0  0  0  0  0  0  0  0
   -5.0519   18.4194  -35.4235 H   0  0  0  0  0  0  0  0  0  0  0  0
   -6.0992   20.4296  -34.5107 H   0  0  0  0  0  0  0  0  0  0  0  0
   -6.1915   20.3127  -30.9991 H   0  0  0  0  0  0  0  0  0  0  0  0
   -4.8663   20.9022  -32.0060 H   0  0  0  0  0  0  0  0  0  0  0  0
   -6.5118   22.5434  -29.9473 H   0  0  0  0  0  0  0  0  0  0  0  0
   -4.7890   22.1073  -29.8004 H   0  0  0  0  0  0  0  0  0  0  0  0
   -3.1180   26.0580  -29.3260 H   0  0  0  0  0  0  0  0  0  0  0  0
  1  2  1  0
  2  3  2  0
  3  4  1  0
  4  5  1  0
  5  6  1  0
  6  7  2  0
  7  8  1  0
  8  9  2  0
  9 10  1  0
  4 11  2  0
 11 12  1  0
 12 13  2  0
 13 14  1  0
 14 15  1  0
 15 16  1  0
 16 17  1  0
 17 18  1  0
 18 19  1  0
 19 20  2  0
 20 21  1  0
 21 22  2  0
 22 23  1  0
 23 24  2  0
 17 25  1  0
 25 26  1  0
 12 27  1  0
 27  2  1  0
  9  5  1  0
 26 14  1  0
 24 19  1  0
  1 28  1  0
  1 29  1  0
  1 30  1  0
  6 31  1  0
  7 32  1  0
 10 33  1  0
 10 34  1  0
 10 35  1  0
 11 36  1  0
 14 37  1  0
 15 38  1  0
 15 39  1  0
 16 40  1  0
 16 41  1  0
 18 42  1  0
 18 43  1  0
 20 44  1  0
 21 45  1  0
 22 46  1  0
 23 47  1  0
 24 48  1  0
 25 49  1  0
 25 50  1  0
 26 51  1  0
 26 52  1  0
 27 53  1  0
M  END
>  <smiles>  (7) 
Cc1nc(-n2ccnc2C)cc(=NC2CCN(Cc3ccccc3)CC2)[nH]1

>  <score_type>  (7) 
oracle

>  <origin>  (7) 
adg

>  <m_score__min__energy>  (7) 
-9.8900000000000006

>  <m_primary>  (7) 
energy

$$$$
7:0
     RDKit          3D

 42 44  0  0  0  0  0  0  0  0999 V2000
   -8.6870   22.2360  -30.4320 O   0  0  0  0  0  0  0  0  0  0  0  0
   -8.2670   21.7270  -31.5060 C   0  0  0  0  0  0  0  0  0  0  0  0
   -9.1890   20.8700  -32.3200 C   0  0  0  0  0  0  0  0  0  0  0  0
   -9.1120   19.1240  -31.7880 S   0  0  0  0  0  0  0  0  0  0  0  0
   -7.6320   18.7400  -32.7260 C   0  0  0  0  0  0  0  0  0  0  0  0
   -7.1030   17.4450  -32.7070 C   0  0  0  0  0  0  0  0  0  0  0  0
   -5.9550   17.1660  -33.4500 C   0  0  0  0  0  0  0  0  0  0  0  0
   -5.3460   18.1810  -34.1930 C   0  0  0  0  0  0  0  0  0  0  0  0
   -5.8980   19.4640  -34.1780 C   0  0  0  0  0  0  0  0  0  0  0  0
   -7.0190   19.7140  -33.4500 N   0  0  0  0  0  0  0  0  0  0  0  0
   -6.9400   22.0050  -31.9780 N   0  0  0  0  0  0  0  0  0  0  0  0
   -5.8910   22.5590  -31.1640 C   0  0  0  0  0  0  0  0  0  0  0  0
   -5.9890   23.8500  -30.6160 C   0  0  0  0  0  0  0  0  0  0  0  0
   -4.9680   24.3530  -29.8040 C   0  0  0  0  0  0  0  0  0  0  0  0
   -3.8350   23.5740  -29.5190 C   0  0  0  0  0  0  0  0  0  0  0  0
   -2.7850   24.0840  -28.6760 N   0  0  0  0  0  0  0  0  0  0  0  0
   -3.0680   24.4520  -27.2820 C   0  0  0  0  0  0  0  0  0  0  0  0
   -2.2040   25.6500  -26.8240 C   0  0  0  0  0  0  0  0  0  0  0  0
   -1.2360   26.0520  -27.7770 O   0  0  0  0  0  0  0  0  0  0  0  0
   -0.5140   24.9280  -28.2340 C   0  0  0  0  0  0  0  0  0  0  0  0
   -1.4010   24.1000  -29.1650 C   0  0  0  0  0  0  0  0  0  0  0  0
   -3.7520   22.2750  -30.0460 C   0  0  0  0  0  0  0  0  0  0  0  0
   -4.7730   21.7720  -30.8550 C   0  0  0  0  0  0  0  0  0  0  0  0
  -10.2191   21.2365  -32.1995 H   0  0  0  0  0  0  0  0  0  0  0  0
   -8.8773   20.9267  -33.3734 H   0  0  0  0  0  0  0  0  0  0  0  0
   -7.5865   16.6554  -32.1130 H   0  0  0  0  0  0  0  0  0  0  0  0
   -5.5311   16.1510  -33.4508 H   0  0  0  0  0  0  0  0  0  0  0  0
   -4.4417   17.9718  -34.7833 H   0  0  0  0  0  0  0  0  0  0  0  0
   -5.4257   20.2725  -34.7553 H   0  0  0  0  0  0  0  0  0  0  0  0
   -6.7410   21.8410  -32.9910 H   0  0  0  0  0  0  0  0  0  0  0  0
   -6.8741   24.4680  -30.8273 H   0  0  0  0  0  0  0  0  0  0  0  0
   -5.0529   25.3666  -29.3853 H   0  0  0  0  0  0  0  0  0  0  0  0
   -4.1304   24.7230  -27.1928 H   0  0  0  0  0  0  0  0  0  0  0  0
   -2.8280   23.5897  -26.6425 H   0  0  0  0  0  0  0  0  0  0  0  0
   -2.8701   26.5024  -26.6250 H   0  0  0  0  0  0  0  0  0  0  0  0
   -1.6562   25.3265  -25.9266 H   0  0  0  0  0  0  0  0  0  0  0  0
    0.3799   25.2631  -28.7805 H   0  0  0  0  0  0  0  0  0  0  0  0
   -0.2077   24.3133  -27.3748 H   0  0  0  0  0  0  0  0  0  0  0  0
   -1.3782   24.5400  -30.1729 H   0  0  0  0  0  0  0  0  0  0  0  0
   -1.0215   23.0679  -29.1934 H   0  0  0  0  0  0  0  0  0  0  0  0
   -2.8762   21.6491  -29.8198 H   0  0  0  0  0  0  0  0  0  0  0  0
   -4.6993   20.7493  -31.2533 H   0  0  0  0  0  0  0  0  0  0  0  0
  1  2  2  0
  2  3  1  0
  3  4  1  0
  4  5  1  0
  5  6  2  0
  6  7  1  0
  7  8  2  0
  8  9  1  0
  9 10  2  0
  2 11  1  0
 11 12  1  0
 12 13  2  0
 13 14  1  0
 14 15  2  0
 15 16  1  0
 16 17  1  0
 17 18  1  0
 18 19  1  0
 19 20  1  0
 20 21  1  0
 15 22  1  0
 22 23  2  0
 10  5  1  0
 23 12  1  0
 21 16  1  0
  3 24  1  0
  3 25  1  0
  6 26  1  0
  7 27  1  0
  8 28  1  0
  9 29  1  0
 11 30  1  0
 13 31  1  0
 14 32  1  0
 17 33  1  0
 17 34  1  0
 18 35  1  0
 18 36  1  0
 20 37  1  0
 20 38  1  0
 21 39  1  0
 21 40  1  0
 22 41  1  0
 23 42  1  0
M  END
>  <UniqueID>  (8) 
7

>  <SMILES>  (8) 
O=C(CSc1ccccn1)Nc1ccc(N2CCOCC2)cc1

>  <Energy>  (8) 
52.26028224000114

>  <Genealogy>  (8) 
O=C(CSc1ccccn1)Nc1ccc(N2CCOCC2)cc1 (3D coordinates assigned)
O=C(CSc1ccccn1)Nc1ccc(N2CCOCC2)cc1 (nonaromatic ring conformer: 52.26028224000114 kcal/mol)

>  <smiles>  (8) 
O=C(CSc1ccccn1)Nc1ccc(N2CCOCC2)cc1

>  <score_type>  (8) 
oracle

>  <origin>  (8) 
adg

>  <m_score__min__energy>  (8) 
-8.1600000000000001

>  <m_primary>  (8) 
energy

$$$$
8:0
     RDKit          3D

 48 50  0  0  0  0  0  0  0  0999 V2000
    0.2100   21.7290  -35.0190 C   0  0  0  0  0  0  0  0  0  0  0  0
    0.1200   20.4220  -34.2240 C   0  0  0  0  0  0  0  0  0  0  0  0
   -0.2110   20.6510  -32.8080 N   0  0  0  0  0  0  0  0  0  0  0  0
   -1.6100   20.9580  -32.6310 C   0  0  0  0  0  0  0  0  0  0  0  0
   -2.5880   20.2800  -33.3750 C   0  0  0  0  0  0  0  0  0  0  0  0
   -3.9390   20.5700  -33.1920 C   0  0  0  0  0  0  0  0  0  0  0  0
   -4.3460   21.5360  -32.2590 C   0  0  0  0  0  0  0  0  0  0  0  0
   -5.7890   21.8330  -32.1420 C   0  0  0  0  0  0  0  0  0  0  0  0
   -6.2620   23.1430  -32.3180 C   0  0  0  0  0  0  0  0  0  0  0  0
   -7.6300   23.4160  -32.2150 C   0  0  0  0  0  0  0  0  0  0  0  0
   -8.5320   22.3830  -31.9450 C   0  0  0  0  0  0  0  0  0  0  0  0
   -9.8580   22.6500  -31.8460 F   0  0  0  0  0  0  0  0  0  0  0  0
   -8.0690   21.0740  -31.7840 C   0  0  0  0  0  0  0  0  0  0  0  0
   -6.7020   20.7970  -31.8860 C   0  0  0  0  0  0  0  0  0  0  0  0
   -3.3710   22.2010  -31.4760 C   0  0  0  0  0  0  0  0  0  0  0  0
   -3.8060   23.3530  -30.2000 S   0  0  0  0  0  0  0  0  0  0  0  0
   -3.8660   24.7370  -30.7820 O   0  0  0  0  0  0  0  0  0  0  0  0
   -5.1460   23.0120  -29.6100 O   0  0  0  0  0  0  0  0  0  0  0  0
   -2.6210   23.2960  -28.8950 C   0  0  0  0  0  0  0  0  0  0  0  0
   -2.5530   22.1650  -28.0720 C   0  0  0  0  0  0  0  0  0  0  0  0
   -1.6000   22.0940  -27.0520 C   0  0  0  0  0  0  0  0  0  0  0  0
   -0.7020   23.1470  -26.8430 C   0  0  0  0  0  0  0  0  0  0  0  0
    0.2360   23.0280  -25.8070 O   0  0  0  0  0  0  0  0  0  0  0  0
   -0.0860   23.0800  -24.4210 C   0  0  0  0  0  0  0  0  0  0  0  0
   -0.7700   24.2820  -27.6740 C   0  0  0  0  0  0  0  0  0  0  0  0
   -1.7230   24.3520  -28.6950 C   0  0  0  0  0  0  0  0  0  0  0  0
   -2.0120   21.9170  -31.6890 C   0  0  0  0  0  0  0  0  0  0  0  0
    0.2685   22.5785  -34.3226 H   0  0  0  0  0  0  0  0  0  0  0  0
    1.1091   21.7117  -35.6525 H   0  0  0  0  0  0  0  0  0  0  0  0
   -0.6830   21.8351  -35.6525 H   0  0  0  0  0  0  0  0  0  0  0  0
   -0.6601   19.7887  -34.6717 H   0  0  0  0  0  0  0  0  0  0  0  0
    1.1054   19.9349  -34.2647 H   0  0  0  0  0  0  0  0  0  0  0  0
    0.3900   21.4170  -32.4200 H   0  0  0  0  0  0  0  0  0  0  0  0
    0.0150   19.7830  -32.2680 H   0  0  0  0  0  0  0  0  0  0  0  0
   -2.2867   19.5157  -34.1065 H   0  0  0  0  0  0  0  0  0  0  0  0
   -4.6950   20.0354  -33.7859 H   0  0  0  0  0  0  0  0  0  0  0  0
   -5.5551   23.9567  -32.5374 H   0  0  0  0  0  0  0  0  0  0  0  0
   -7.9963   24.4448  -32.3466 H   0  0  0  0  0  0  0  0  0  0  0  0
   -8.7805   20.2610  -31.5769 H   0  0  0  0  0  0  0  0  0  0  0  0
   -6.3409   19.7650  -31.7654 H   0  0  0  0  0  0  0  0  0  0  0  0
   -3.2517   21.3300  -28.2287 H   0  0  0  0  0  0  0  0  0  0  0  0
   -1.5554   21.2032  -26.4082 H   0  0  0  0  0  0  0  0  0  0  0  0
    0.8277   22.9324  -23.8265 H   0  0  0  0  0  0  0  0  0  0  0  0
   -0.5240   24.0605  -24.1829 H   0  0  0  0  0  0  0  0  0  0  0  0
   -0.8104   22.2872  -24.1829 H   0  0  0  0  0  0  0  0  0  0  0  0
   -0.0706   25.1168  -27.5193 H   0  0  0  0  0  0  0  0  0  0  0  0
   -1.7675   25.2395  -29.3433 H   0  0  0  0  0  0  0  0  0  0  0  0
   -1.2496   22.4558  -31.1072 H   0  0  0  0  0  0  0  0  0  0  0  0
  1  2  1  0
  2  3  1  0
  3  4  1  0
  4  5  2  0
  5  6  1  0
  6  7  2  0
  7  8  1  0
  8  9  2  0
  9 10  1  0
 10 11  2  0
 11 12  1  0
 11 13  1  0
 13 14  2  0
  7 15  1  0
 15 16  1  0
 16 17  2  0
 16 18  2  0
 16 19  1  0
 19 20  2  0
 20 21  1  0
 21 22  2  0
 22 23  1  0
 23 24  1  0
 22 25  1  0
 25 26  2  0
 15 27  2  0
 27  4  1  0
 14  8  1  0
 26 19  1  0
  1 28  1  0
  1 29  1  0
  1 30  1  0
  2 31  1  0
  2 32  1  0
  3 33  1  0
  3 34  1  0
  5 35  1  0
  6 36  1  0
  9 37  1  0
 10 38  1  0
 13 39  1  0
 14 40  1  0
 20 41  1  0
 21 42  1  0
 24 43  1  0
 24 44  1  0
 24 45  1  0
 25 46  1  0
 26 47  1  0
 27 48  1  0
M  CHG  1   3   1
M  END
>  <UniqueID>  (9) 
8

>  <SMILES>  (9) 
CC[NH2+]c1ccc(-c2ccc(F)cc2)c(S(=O)(=O)c2ccc(OC)cc2)c1

>  <Energy>  (9) 
58.783637205360726

>  <Genealogy>  (9) 
CC[NH2+]c1ccc(-c2ccc(F)cc2)c(S(=O)(=O)c2ccc(OC)cc2)c1 (protonated)
CC[NH2+]c1ccc(-c2ccc(F)cc2)c(S(=O)(=O)c2ccc(OC)cc2)c1 (3D coordinates assigned)
CC[NH2+]c1ccc(-c2ccc(F)cc2)c(S(=O)(=O)c2ccc(OC)cc2)c1 (optimized conformer: 58.783637205360726 kcal/mol)

>  <smiles>  (9) 
CCNc1ccc(-c2ccc(F)cc2)c(S(=O)(=O)c2ccc(OC)cc2)c1

>  <score_type>  (9) 
oracle

>  <origin>  (9) 
adg

>  <m_score__min__energy>  (9) 
-8.1899999999999995

>  <m_primary>  (9) 
energy

$$$$
9:0
     RDKit          3D

 42 43  0  0  0  0  0  0  0  0999 V2000
   -8.5940   18.5340  -31.6100 C   0  0  0  0  0  0  0  0  0  0  0  0
   -8.5180   19.6070  -32.5420 O   0  0  0  0  0  0  0  0  0  0  0  0
   -7.8630   20.8250  -32.3010 C   0  0  0  0  0  0  0  0  0  0  0  0
   -8.5530   21.9690  -31.8550 C   0  0  0  0  0  0  0  0  0  0  0  0
   -7.8670   23.1620  -31.6240 C   0  0  0  0  0  0  0  0  0  0  0  0
   -6.4810   23.2320  -31.8220 C   0  0  0  0  0  0  0  0  0  0  0  0
   -5.7500   24.5300  -31.6040 C   0  0  0  0  0  0  0  0  0  0  0  0
   -5.1170   24.5640  -30.2120 C   0  0  0  0  0  0  0  0  0  0  0  0
   -3.7300   25.0070  -30.2950 N   0  0  0  0  0  0  0  0  0  0  0  0
   -2.7750   24.8180  -29.2460 C   0  0  0  0  0  0  0  0  0  0  0  0
   -1.6110   25.2900  -29.3460 O   0  0  0  0  0  0  0  0  0  0  0  0
   -3.1840   24.1040  -27.9990 C   0  0  0  0  0  0  0  0  0  0  0  0
   -3.0300   22.6660  -28.1830 N   0  0  0  0  0  0  0  0  0  0  0  0
   -2.9290   22.0270  -29.3650 C   0  0  0  0  0  0  0  0  0  0  0  0
   -2.6970   20.6910  -29.1180 C   0  0  0  0  0  0  0  0  0  0  0  0
   -2.6720   20.5940  -27.7380 C   0  0  0  0  0  0  0  0  0  0  0  0
   -2.3590   19.3610  -26.9520 C   0  0  0  0  0  0  0  0  0  0  0  0
   -3.4840   18.5610  -26.8590 F   0  0  0  0  0  0  0  0  0  0  0  0
   -1.9460   19.7040  -25.6780 F   0  0  0  0  0  0  0  0  0  0  0  0
   -1.3510   18.6580  -27.5830 F   0  0  0  0  0  0  0  0  0  0  0  0
   -2.8540   21.8110  -27.1880 N   0  0  0  0  0  0  0  0  0  0  0  0
   -5.7910   22.0990  -32.2790 C   0  0  0  0  0  0  0  0  0  0  0  0
   -6.4770   20.8910  -32.5160 C   0  0  0  0  0  0  0  0  0  0  0  0
   -5.8170   19.7370  -32.9660 O   0  0  0  0  0  0  0  0  0  0  0  0
   -6.0820   19.0850  -34.2040 C   0  0  0  0  0  0  0  0  0  0  0  0
   -8.5656   18.9350  -30.5861 H   0  0  0  0  0  0  0  0  0  0  0  0
   -9.5335   17.9823  -31.7618 H   0  0  0  0  0  0  0  0  0  0  0  0
   -7.7417   17.8554  -31.7618 H   0  0  0  0  0  0  0  0  0  0  0  0
   -9.6392   21.9217  -31.6878 H   0  0  0  0  0  0  0  0  0  0  0  0
   -8.4168   24.0523  -31.2847 H   0  0  0  0  0  0  0  0  0  0  0  0
   -4.9603   24.6320  -32.3629 H   0  0  0  0  0  0  0  0  0  0  0  0
   -6.4675   25.3595  -31.6877 H   0  0  0  0  0  0  0  0  0  0  0  0
   -5.6820   25.2593  -29.5738 H   0  0  0  0  0  0  0  0  0  0  0  0
   -5.1431   23.5513  -29.7833 H   0  0  0  0  0  0  0  0  0  0  0  0
   -2.5503   24.4356  -27.1632 H   0  0  0  0  0  0  0  0  0  0  0  0
   -4.2370   24.3321  -27.7774 H   0  0  0  0  0  0  0  0  0  0  0  0
   -3.0168   22.4923  -30.3579 H   0  0  0  0  0  0  0  0  0  0  0  0
   -2.5621   19.8835  -29.8527 H   0  0  0  0  0  0  0  0  0  0  0  0
   -4.7063   22.1541  -32.4536 H   0  0  0  0  0  0  0  0  0  0  0  0
   -6.4897   18.0819  -34.0102 H   0  0  0  0  0  0  0  0  0  0  0  0
   -6.8125   19.6729  -34.7790 H   0  0  0  0  0  0  0  0  0  0  0  0
   -5.1484   18.9966  -34.7790 H   0  0  0  0  0  0  0  0  0  0  0  0
  1  2  1  0
  2  3  1  0
  3  4  2  0
  4  5  1  0
  5  6  2  0
  6  7  1  0
  7  8  1  0
  8  9  1  0
  9 10  1  0
 10 11  2  0
 10 12  1  0
 12 13  1  0
 13 14  1  0
 14 15  2  0
 15 16  1  0
 16 17  1  0
 17 18  1  0
 17 19  1  0
 17 20  1  0
 16 21  2  0
  6 22  1  0
 22 23  2  0
 23 24  1  0
 24 25  1  0
 23  3  1  0
 21 13  1  0
  1 26  1  0
  1 27  1  0
  1 28  1  0
  4 29  1  0
  5 30  1  0
  7 31  1  0
  7 32  1  0
  8 33  1  0
  8 34  1  0
 12 35  1  0
 12 36  1  0
 14 37  1  0
 15 38  1  0
 22 39  1  0
 25 40  1  0
 25 41  1  0
 25 42  1  0
M  CHG  1   9  -1
M  END
>  <UniqueID>  (10) 
9

>  <SMILES>  (10) 
COc1ccc(CC[N-]C(=O)Cn2ccc(C(F)(F)F)n2)cc1OC

>  <Energy>  (10) 
61.99974294793457

>  <Genealogy>  (10) 
COc1ccc(CC[N-]C(=O)Cn2ccc(C(F)(F)F)n2)cc1OC (protonated)
COc1ccc(CC[N-]C(=O)Cn2ccc(C(F)(F)F)n2)cc1OC (3D coordinates assigned)
COc1ccc(CC[N-]C(=O)Cn2ccc(C(F)(F)F)n2)cc1OC (optimized conformer: 61.99974294793457 kcal/mol)

>  <smiles>  (10) 
COc1ccc(CCNC(=O)Cn2ccc(C(F)(F)F)n2)cc1OC

>  <score_type>  (10) 
oracle

>  <origin>  (10) 
adg

>  <m_score__min__energy>  (10) 
-8.0600000000000005

>  <m_primary>  (10) 
energy

$$$$
10:0
     RDKit          3D

 50 51  0  0  0  0  0  0  0  0999 V2000
   -2.9180   18.6270  -33.6830 C   0  0  0  0  0  0  0  0  0  0  0  0
   -3.6900   17.3760  -33.2400 C   0  0  0  0  0  0  0  0  0  0  0  0
   -5.1660   17.5280  -33.3470 N   0  0  0  0  0  0  0  0  0  0  0  0
   -5.7510   16.8010  -34.5090 C   0  0  0  0  0  0  0  0  0  0  0  0
   -6.2970   15.4000  -34.1960 C   0  0  0  0  0  0  0  0  0  0  0  0
   -5.8040   17.1750  -32.0480 C   0  0  0  0  0  0  0  0  0  0  0  0
   -7.3010   17.5520  -31.9700 C   0  0  0  0  0  0  0  0  0  0  0  0
   -7.6380   18.6450  -32.8820 N   0  0  0  0  0  0  0  0  0  0  0  0
   -7.9380   19.9700  -32.4080 C   0  0  0  0  0  0  0  0  0  0  0  0
   -9.2430   20.2350  -31.9620 C   0  0  0  0  0  0  0  0  0  0  0  0
   -9.6360   21.5340  -31.6310 C   0  0  0  0  0  0  0  0  0  0  0  0
   -8.7380   22.5920  -31.7710 C   0  0  0  0  0  0  0  0  0  0  0  0
   -7.4420   22.3500  -32.2290 C   0  0  0  0  0  0  0  0  0  0  0  0
   -7.0160   21.0430  -32.5220 C   0  0  0  0  0  0  0  0  0  0  0  0
   -5.3420   20.8040  -33.1470 S   0  0  0  0  0  0  0  0  0  0  0  0
   -4.5400   21.6870  -31.7990 C   0  0  0  0  0  0  0  0  0  0  0  0
   -3.7920   21.0120  -30.8250 C   0  0  0  0  0  0  0  0  0  0  0  0
   -3.1800   21.7260  -29.7920 C   0  0  0  0  0  0  0  0  0  0  0  0
   -3.3070   23.1170  -29.7280 C   0  0  0  0  0  0  0  0  0  0  0  0
   -4.0430   23.8070  -30.6980 C   0  0  0  0  0  0  0  0  0  0  0  0
   -4.1340   25.2040  -30.5980 O   0  0  0  0  0  0  0  0  0  0  0  0
   -5.3570   25.9220  -30.4640 C   0  0  0  0  0  0  0  0  0  0  0  0
   -4.6620   23.0820  -31.7340 C   0  0  0  0  0  0  0  0  0  0  0  0
   -2.5765   19.1804  -32.7958 H   0  0  0  0  0  0  0  0  0  0  0  0
   -2.0479   18.3268  -34.2853 H   0  0  0  0  0  0  0  0  0  0  0  0
   -3.5765   19.2701  -34.2853 H   0  0  0  0  0  0  0  0  0  0  0  0
   -3.3790   16.5314  -33.8724 H   0  0  0  0  0  0  0  0  0  0  0  0
   -3.4555   17.2067  -32.1787 H   0  0  0  0  0  0  0  0  0  0  0  0
   -5.3440   18.5490  -33.5090 H   0  0  0  0  0  0  0  0  0  0  0  0
   -6.5776   17.4070  -34.9085 H   0  0  0  0  0  0  0  0  0  0  0  0
   -4.9278   16.6552  -35.2239 H   0  0  0  0  0  0  0  0  0  0  0  0
   -6.3506   15.2625  -33.1059 H   0  0  0  0  0  0  0  0  0  0  0  0
   -7.3026   15.2932  -34.6289 H   0  0  0  0  0  0  0  0  0  0  0  0
   -5.6289   14.6409  -34.6289 H   0  0  0  0  0  0  0  0  0  0  0  0
   -5.7108   16.0892  -31.8987 H   0  0  0  0  0  0  0  0  0  0  0  0
   -5.2856   17.7512  -31.2674 H   0  0  0  0  0  0  0  0  0  0  0  0
   -7.9037   16.6704  -32.2339 H   0  0  0  0  0  0  0  0  0  0  0  0
   -7.5146   17.8867  -30.9442 H   0  0  0  0  0  0  0  0  0  0  0  0
   -8.0950   18.3710  -33.7810 H   0  0  0  0  0  0  0  0  0  0  0  0
   -9.9645   19.4096  -31.8722 H   0  0  0  0  0  0  0  0  0  0  0  0
  -10.6542   21.7226  -31.2598 H   0  0  0  0  0  0  0  0  0  0  0  0
   -9.0510   23.6164  -31.5206 H   0  0  0  0  0  0  0  0  0  0  0  0
   -6.7462   23.1915  -32.3621 H   0  0  0  0  0  0  0  0  0  0  0  0
   -3.6866   19.9182  -30.8740 H   0  0  0  0  0  0  0  0  0  0  0  0
   -2.5967   21.1926  -29.0270 H   0  0  0  0  0  0  0  0  0  0  0  0
   -2.8253   23.6726  -28.9099 H   0  0  0  0  0  0  0  0  0  0  0  0
   -5.5877   26.0574  -29.3970 H   0  0  0  0  0  0  0  0  0  0  0  0
   -5.2592   26.9060  -30.9458 H   0  0  0  0  0  0  0  0  0  0  0  0
   -6.1686   25.3570  -30.9458 H   0  0  0  0  0  0  0  0  0  0  0  0
   -5.2462   23.6146  -32.4988 H   0  0  0  0  0  0  0  0  0  0  0  0
  1  2  1  0
  2  3  1  0
  3  4  1  0
  4  5  1  0
  3  6  1  0
  6  7  1  0
  7  8  1  0
  8  9  1  0
  9 10  2  0
 10 11  1  0
 11 12  2  0
 12 13  1  0
 13 14  2  0
 14 15  1  0
 15 16  1  0
 16 17  2  0
 17 18  1  0
 18 19  2  0
 19 20  1  0
 20 21  1  0
 21 22  1  0
 20 23  2  0
 14  9  1  0
 23 16  1  0
  1 24  1  0
  1 25  1  0
  1 26  1  0
  2 27  1  0
  2 28  1  0
  3 29  1  0
  4 30  1  0
  4 31  1  0
  5 32  1  0
  5 33  1  0
  5 34  1  0
  6 35  1  0
  6 36  1  0
  7 37  1  0
  7 38  1  0
  8 39  1  0
 10 40  1  0
 11 41  1  0
 12 42  1  0
 13 43  1  0
 17 44  1  0
 18 45  1  0
 19 46  1  0
 22 47  1  0
 22 48  1  0
 22 49  1  0
 23 50  1  0
M  CHG  1   3   1
M  END
>  <UniqueID>  (11) 
10

>  <SMILES>  (11) 
CC[NH+](CC)CCNc1ccccc1Sc1cccc(OC)c1

>  <Energy>  (11) 
57.25725227749771

>  <Genealogy>  (11) 
CC[NH+](CC)CCNc1ccccc1Sc1cccc(OC)c1 (protonated)
CC[NH+](CC)CCNc1ccccc1Sc1cccc(OC)c1 (3D coordinates assigned)
CC[NH+](CC)CCNc1ccccc1Sc1cccc(OC)c1 (optimized conformer: 57.25725227749771 kcal/mol)

>  <smiles>  (11) 
CCN(CC)CCNc1ccccc1Sc1cccc(OC)c1

>  <score_type>  (11) 
oracle

>  <origin>  (11) 
adg

>  <m_score__min__energy>  (11) 
-7.3099999999999996

>  <m_primary>  (11) 
energy

$$$$
11:0
     RDKit          3D

 47 49  0  0  0  0  0  0  0  0999 V2000
   -0.0560   21.4880  -28.5860 C   0  0  0  0  0  0  0  0  0  0  0  0
   -1.0140   21.4590  -29.7440 C   0  0  0  0  0  0  0  0  0  0  0  0
   -0.5300   21.5260  -31.0020 C   0  0  0  0  0  0  0  0  0  0  0  0
   -1.4310   21.4610  -32.2110 C   0  0  0  0  0  0  0  0  0  0  0  0
   -2.8080   21.8580  -31.8640 N   0  0  0  0  0  0  0  0  0  0  0  0
   -3.7250   21.9130  -33.0250 C   0  0  0  0  0  0  0  0  0  0  0  0
   -5.0530   21.1830  -32.8280 C   0  0  0  0  0  0  0  0  0  0  0  0
   -5.0490   19.8220  -32.9480 N   0  0  0  0  0  0  0  0  0  0  0  0
   -6.1850   19.1120  -32.7910 C   0  0  0  0  0  0  0  0  0  0  0  0
   -6.2930   17.7250  -32.9150 C   0  0  0  0  0  0  0  0  0  0  0  0
   -7.5990   17.2780  -32.7160 C   0  0  0  0  0  0  0  0  0  0  0  0
   -8.5950   18.6080  -32.3890 S   0  0  0  0  0  0  0  0  0  0  0  0
   -7.3630   19.7440  -32.5030 C   0  0  0  0  0  0  0  0  0  0  0  0
   -7.3980   21.1200  -32.3400 C   0  0  0  0  0  0  0  0  0  0  0  0
   -8.4940   21.6870  -32.0770 O   0  0  0  0  0  0  0  0  0  0  0  0
   -6.2270   21.8400  -32.4650 N   0  0  0  0  0  0  0  0  0  0  0  0
   -6.2640   23.2990  -32.2310 C   0  0  0  0  0  0  0  0  0  0  0  0
   -5.6940   23.6310  -30.8360 C   0  0  0  0  0  0  0  0  0  0  0  0
   -4.7480   24.7700  -30.8150 N   0  0  0  0  0  0  0  0  0  0  0  0
   -5.3890   26.0450  -30.4620 C   0  0  0  0  0  0  0  0  0  0  0  0
   -3.5670   24.5150  -29.9740 C   0  0  0  0  0  0  0  0  0  0  0  0
   -3.3160   21.0930  -30.7120 C   0  0  0  0  0  0  0  0  0  0  0  0
   -2.5030   21.4710  -29.4710 C   0  0  0  0  0  0  0  0  0  0  0  0
   -0.6209   21.4709  -27.6423 H   0  0  0  0  0  0  0  0  0  0  0  0
    0.6041   20.6094  -28.6342 H   0  0  0  0  0  0  0  0  0  0  0  0
    0.5498   22.4049  -28.6342 H   0  0  0  0  0  0  0  0  0  0  0  0
    0.5548   21.6312  -31.1508 H   0  0  0  0  0  0  0  0  0  0  0  0
   -1.0446   22.1406  -32.9849 H   0  0  0  0  0  0  0  0  0  0  0  0
   -1.4470   20.4254  -32.5816 H   0  0  0  0  0  0  0  0  0  0  0  0
   -3.9438   22.9697  -33.2385 H   0  0  0  0  0  0  0  0  0  0  0  0
   -3.2098   21.4009  -33.8510 H   0  0  0  0  0  0  0  0  0  0  0  0
   -5.4457   17.0617  -33.1433 H   0  0  0  0  0  0  0  0  0  0  0  0
   -7.9291   16.2298  -32.7638 H   0  0  0  0  0  0  0  0  0  0  0  0
   -5.6614   23.8054  -32.9994 H   0  0  0  0  0  0  0  0  0  0  0  0
   -7.3072   23.6440  -32.2832 H   0  0  0  0  0  0  0  0  0  0  0  0
   -6.5353   23.8707  -30.1691 H   0  0  0  0  0  0  0  0  0  0  0  0
   -5.1264   22.7465  -30.5111 H   0  0  0  0  0  0  0  0  0  0  0  0
   -5.4370   26.1405  -29.3672 H   0  0  0  0  0  0  0  0  0  0  0  0
   -4.8024   26.8777  -30.8773 H   0  0  0  0  0  0  0  0  0  0  0  0
   -6.4073   26.0708  -30.8773 H   0  0  0  0  0  0  0  0  0  0  0  0
   -3.8520   24.5765  -28.9133 H   0  0  0  0  0  0  0  0  0  0  0  0
   -3.1728   23.5110  -30.1901 H   0  0  0  0  0  0  0  0  0  0  0  0
   -2.7937   25.2669  -30.1901 H   0  0  0  0  0  0  0  0  0  0  0  0
   -4.3764   21.3342  -30.5468 H   0  0  0  0  0  0  0  0  0  0  0  0
   -3.2195   20.0149  -30.9077 H   0  0  0  0  0  0  0  0  0  0  0  0
   -2.7968   22.4806  -29.1478 H   0  0  0  0  0  0  0  0  0  0  0  0
   -2.7112   20.7266  -28.6883 H   0  0  0  0  0  0  0  0  0  0  0  0
  1  2  1  0
  2  3  2  0
  3  4  1  0
  4  5  1  0
  5  6  1  0
  6  7  1  0
  7  8  2  0
  8  9  1  0
  9 10  1  0
 10 11  2  0
 11 12  1  0
 12 13  1  0
 13 14  1  0
 14 15  2  0
 14 16  1  0
 16 17  1  0
 17 18  1  0
 18 19  1  0
 19 20  1  0
 19 21  1  0
  5 22  1  0
 22 23  1  0
 23  2  1  0
 16  7  1  0
 13  9  2  0
  1 24  1  0
  1 25  1  0
  1 26  1  0
  3 27  1  0
  4 28  1  0
  4 29  1  0
  6 30  1  0
  6 31  1  0
 10 32  1  0
 11 33  1  0
 17 34  1  0
 17 35  1  0
 18 36  1  0
 18 37  1  0
 20 38  1  0
 20 39  1  0
 20 40  1  0
 21 41  1  0
 21 42  1  0
 21 43  1  0
 22 44  1  0
 22 45  1  0
 23 46  1  0
 23 47  1  0
M  END
>  <UniqueID>  (12) 
11

>  <SMILES>  (12) 
CC1=CCN(Cc2nc3ccsc3c(=O)n2CCN(C)C)CC1

>  <Energy>  (12) 
91.82964368488462

>  <Genealogy>  (12) 
CC1=CCN(Cc2nc3ccsc3c(=O)n2CCN(C)C)CC1 (3D coordinates assigned)
CC1=CCN(Cc2nc3ccsc3c(=O)n2CCN(C)C)CC1 (nonaromatic ring conformer: 91.82964368488462 kcal/mol)

>  <smiles>  (12) 
CC1=CCN(Cc2nc3ccsc3c(=O)n2CCN(C)C)CC1

>  <score_type>  (12) 
oracle

>  <origin>  (12) 
adg

>  <m_score__min__energy>  (12) 
-7.4100000000000001

>  <m_primary>  (12) 
energy

$$$$
12:0
     RDKit          3D

 27 29  0  0  0  0  0  0  0  0999 V2000
   -8.3910   22.6030  -30.9270 O   0  0  0  0  0  0  0  0  0  0  0  0
   -7.4070   21.8540  -31.1870 C   0  0  0  0  0  0  0  0  0  0  0  0
   -6.0950   22.3540  -31.0980 C   0  0  0  0  0  0  0  0  0  0  0  0
   -5.8790   23.7610  -30.6970 C   0  0  0  0  0  0  0  0  0  0  0  0
   -4.8100   24.4850  -31.0950 N   0  0  0  0  0  0  0  0  0  0  0  0
   -4.9750   25.6740  -30.4840 C   0  0  0  0  0  0  0  0  0  0  0  0
   -6.1210   25.6460  -29.7230 C   0  0  0  0  0  0  0  0  0  0  0  0
   -6.6860   24.4370  -29.8560 N   0  0  0  0  0  0  0  0  0  0  0  0
   -5.0190   21.4750  -31.3820 C   0  0  0  0  0  0  0  0  0  0  0  0
   -3.5720   21.8880  -31.2680 C   0  0  0  0  0  0  0  0  0  0  0  0
   -3.3450   22.5750  -30.0880 F   0  0  0  0  0  0  0  0  0  0  0  0
   -2.7630   20.7660  -31.2760 F   0  0  0  0  0  0  0  0  0  0  0  0
   -3.2260   22.6840  -32.3430 F   0  0  0  0  0  0  0  0  0  0  0  0
   -5.2690   20.2250  -31.7650 O   0  0  0  0  0  0  0  0  0  0  0  0
   -6.4940   19.7260  -31.8760 C   0  0  0  0  0  0  0  0  0  0  0  0
   -6.6640   18.3980  -32.2840 C   0  0  0  0  0  0  0  0  0  0  0  0
   -7.9490   17.8580  -32.3990 C   0  0  0  0  0  0  0  0  0  0  0  0
   -9.0670   18.6430  -32.1080 C   0  0  0  0  0  0  0  0  0  0  0  0
   -8.9090   19.9720  -31.7010 C   0  0  0  0  0  0  0  0  0  0  0  0
   -7.6190   20.5240  -31.5830 C   0  0  0  0  0  0  0  0  0  0  0  0
   -4.2974   26.5353  -30.5789 H   0  0  0  0  0  0  0  0  0  0  0  0
   -6.5076   26.4737  -29.1103 H   0  0  0  0  0  0  0  0  0  0  0  0
   -7.5410   24.0900  -29.3690 H   0  0  0  0  0  0  0  0  0  0  0  0
   -5.7853   17.7778  -32.5147 H   0  0  0  0  0  0  0  0  0  0  0  0
   -8.0793   16.8137  -32.7190 H   0  0  0  0  0  0  0  0  0  0  0  0
  -10.0759   18.2144  -32.1992 H   0  0  0  0  0  0  0  0  0  0  0  0
   -9.7928   20.5860  -31.4731 H   0  0  0  0  0  0  0  0  0  0  0  0
  1  2  2  0
  2  3  1  0
  3  4  1  0
  4  5  2  0
  5  6  1  0
  6  7  2  0
  7  8  1  0
  3  9  2  0
  9 10  1  0
 10 11  1  0
 10 12  1  0
 10 13  1  0
  9 14  1  0
 14 15  1  0
 15 16  2  0
 16 17  1  0
 17 18  2  0
 18 19  1  0
 19 20  2  0
 20  2  1  0
  8  4  1  0
 20 15  1  0
  6 21  1  0
  7 22  1  0
  8 23  1  0
 16 24  1  0
 17 25  1  0
 18 26  1  0
 19 27  1  0
M  END
>  <UniqueID>  (13) 
12

>  <SMILES>  (13) 
O=c1c(-c2ncc[nH]2)c(C(F)(F)F)oc2ccccc12

>  <Energy>  (13) 
71.52928697327077

>  <Genealogy>  (13) 
O=c1c(-c2ncc[nH]2)c(C(F)(F)F)oc2ccccc12 (3D coordinates assigned)
O=c1c(-c2ncc[nH]2)c(C(F)(F)F)oc2ccccc12 (optimized conformer: 71.52928697327077 kcal/mol)

>  <smiles>  (13) 
O=c1c(-c2ncc[nH]2)c(C(F)(F)F)oc2ccccc12

>  <score_type>  (13) 
oracle

>  <origin>  (13) 
adg

>  <m_score__min__energy>  (13) 
-6.3200000000000003

>  <m_primary>  (13) 
energy

$$$$
13:0
     RDKit          3D

 33 35  0  0  0  0  0  0  0  0999 V2000
   -4.3925   21.4125  -29.9481 H   0  0  0  0  0  0  0  0  0  0  0  0
   -4.4310   22.1740  -30.7410 C   0  0  0  0  0  0  0  0  0  0  0  0
   -3.8230   21.9140  -31.9020 C   0  0  0  0  0  0  0  0  0  0  0  0
   -2.7341   22.0474  -31.9829 H   0  0  0  0  0  0  0  0  0  0  0  0
   -4.5970   21.4440  -33.0960 C   0  0  0  0  0  0  0  0  0  0  0  0
   -5.3668   22.1892  -33.3450 H   0  0  0  0  0  0  0  0  0  0  0  0
   -3.9054   21.3173  -33.9419 H   0  0  0  0  0  0  0  0  0  0  0  0
   -5.2420   20.1600  -32.8140 N   0  0  0  0  0  0  0  0  0  0  0  0
   -4.6320   18.9510  -32.7770 C   0  0  0  0  0  0  0  0  0  0  0  0
   -3.5532   18.7891  -32.9187 H   0  0  0  0  0  0  0  0  0  0  0  0
   -5.5590   17.9430  -32.5350 C   0  0  0  0  0  0  0  0  0  0  0  0
   -5.3636   16.8642  -32.4456 H   0  0  0  0  0  0  0  0  0  0  0  0
   -6.7750   18.5840  -32.4310 C   0  0  0  0  0  0  0  0  0  0  0  0
   -8.0510   18.0710  -32.2090 C   0  0  0  0  0  0  0  0  0  0  0  0
   -8.2123   16.9920  -32.0687 H   0  0  0  0  0  0  0  0  0  0  0  0
   -9.1260   18.9760  -32.1700 C   0  0  0  0  0  0  0  0  0  0  0  0
  -10.1466   18.6049  -31.9951 H   0  0  0  0  0  0  0  0  0  0  0  0
   -8.9040   20.3590  -32.3540 C   0  0  0  0  0  0  0  0  0  0  0  0
   -9.7529   21.0579  -32.3219 H   0  0  0  0  0  0  0  0  0  0  0  0
   -7.6040   20.8480  -32.5780 C   0  0  0  0  0  0  0  0  0  0  0  0
   -7.4197   21.9225  -32.7242 H   0  0  0  0  0  0  0  0  0  0  0  0
   -6.5540   19.9260  -32.6090 C   0  0  0  0  0  0  0  0  0  0  0  0
   -5.1510   23.4320  -30.4710 C   0  0  0  0  0  0  0  0  0  0  0  0
   -4.3890   24.9310  -30.4610 S   0  0  0  0  0  0  0  0  0  0  0  0
   -5.7450   25.8450  -30.0760 C   0  0  0  0  0  0  0  0  0  0  0  0
   -5.7750   26.9384  -29.9599 H   0  0  0  0  0  0  0  0  0  0  0  0
   -6.8200   24.9810  -29.9300 C   0  0  0  0  0  0  0  0  0  0  0  0
   -7.8349   25.3242  -29.6807 H   0  0  0  0  0  0  0  0  0  0  0  0
   -6.4970   23.6280  -30.1290 C   0  0  0  0  0  0  0  0  0  0  0  0
   -7.5130   22.5390  -29.9530 C   0  0  0  0  0  0  0  0  0  0  0  0
   -7.6784   22.3617  -28.8800 H   0  0  0  0  0  0  0  0  0  0  0  0
   -8.4596   22.8409  -30.4249 H   0  0  0  0  0  0  0  0  0  0  0  0
   -7.1462   21.6156  -30.4249 H   0  0  0  0  0  0  0  0  0  0  0  0
  1  2  1  0
  2  3  2  0
  3  4  1  0
  3  5  1  0
  5  6  1  0
  5  7  1  0
  5  8  1  0
  8  9  1  0
  9 10  1  0
  9 11  2  0
 11 12  1  0
 11 13  1  0
 13 14  2  0
 14 15  1  0
 14 16  1  0
 16 17  1  0
 16 18  2  0
 18 19  1  0
 18 20  1  0
 20 21  1  0
 20 22  2  0
  2 23  1  0
 23 24  1  0
 24 25  1  0
 25 26  1  0
 25 27  2  0
 27 28  1  0
 27 29  1  0
 29 30  1  0
 30 31  1  0
 30 32  1  0
 30 33  1  0
 22  8  1  0
 29 23  2  0
 22 13  1  0
M  END
>  <UniqueID>  (14) 
13

>  <SMILES>  (14) 
Cc1ccsc1/C=C/Cn1ccc2ccccc21

>  <Energy>  (14) 
93.63269944543141

>  <Genealogy>  (14) 
Cc1ccsc1/C=C/Cn1ccc2ccccc21 (cis-trans isomerization)
Cc1ccsc1/C=C/Cn1ccc2ccccc21 (3D coordinates assigned)
Cc1ccsc1/C=C/Cn1ccc2ccccc21 (optimized conformer: 93.63269944543141 kcal/mol)

>  <smiles>  (14) 
Cc1ccsc1C=CCn1ccc2ccccc21

>  <score_type>  (14) 
oracle

>  <origin>  (14) 
adg

>  <m_score__min__energy>  (14) 
-7.4000000000000004

>  <m_primary>  (14) 
energy

$$$$
14:0
     RDKit          3D

 42 44  0  0  0  0  0  0  0  0999 V2000
   -8.4620   20.3210  -32.6870 C   0  0  0  0  0  0  0  0  0  0  0  0
   -7.6630   21.3660  -31.9660 C   0  0  0  0  0  0  0  0  0  0  0  0
   -6.4600   21.8380  -32.5120 C   0  0  0  0  0  0  0  0  0  0  0  0
   -5.7350   22.8390  -31.8600 C   0  0  0  0  0  0  0  0  0  0  0  0
   -6.2090   23.3870  -30.6610 C   0  0  0  0  0  0  0  0  0  0  0  0
   -5.2950   24.6630  -29.8610 S   0  0  0  0  0  0  0  0  0  0  0  0
   -4.2580   25.2050  -30.8040 O   0  0  0  0  0  0  0  0  0  0  0  0
   -6.2420   25.7750  -29.5000 O   0  0  0  0  0  0  0  0  0  0  0  0
   -4.5400   24.0190  -28.4160 N   0  0  0  0  0  0  0  0  0  0  0  0
   -3.1700   24.5490  -28.2400 C   0  0  0  0  0  0  0  0  0  0  0  0
   -2.2000   24.0220  -29.3090 C   0  0  0  0  0  0  0  0  0  0  0  0
   -2.4800   22.6190  -29.6300 N   0  0  0  0  0  0  0  0  0  0  0  0
   -1.7430   21.9820  -30.6870 C   0  0  0  0  0  0  0  0  0  0  0  0
   -0.5250   22.2620  -30.8510 O   0  0  0  0  0  0  0  0  0  0  0  0
   -2.3810   21.0310  -31.6140 C   0  0  0  0  0  0  0  0  0  0  0  0
   -1.8480   20.5360  -32.7900 C   0  0  0  0  0  0  0  0  0  0  0  0
   -2.7920   19.6680  -33.2910 C   0  0  0  0  0  0  0  0  0  0  0  0
   -3.8400   19.6810  -32.3940 C   0  0  0  0  0  0  0  0  0  0  0  0
   -3.5640   20.5000  -31.4050 O   0  0  0  0  0  0  0  0  0  0  0  0
   -3.2730   21.8300  -28.6850 C   0  0  0  0  0  0  0  0  0  0  0  0
   -4.6100   22.5320  -28.3790 C   0  0  0  0  0  0  0  0  0  0  0  0
   -7.4220   22.9320  -30.1250 C   0  0  0  0  0  0  0  0  0  0  0  0
   -8.1480   21.9320  -30.7770 C   0  0  0  0  0  0  0  0  0  0  0  0
   -8.9601   19.6696  -31.9538 H   0  0  0  0  0  0  0  0  0  0  0  0
   -9.2194   20.8091  -33.3180 H   0  0  0  0  0  0  0  0  0  0  0  0
   -7.7924   19.7180  -33.3180 H   0  0  0  0  0  0  0  0  0  0  0  0
   -6.0858   21.4183  -33.4574 H   0  0  0  0  0  0  0  0  0  0  0  0
   -4.7883   23.1981  -32.2899 H   0  0  0  0  0  0  0  0  0  0  0  0
   -5.1080   24.3830  -27.6150 H   0  0  0  0  0  0  0  0  0  0  0  0
   -3.2043   25.6466  -28.3035 H   0  0  0  0  0  0  0  0  0  0  0  0
   -2.8031   24.2151  -27.2582 H   0  0  0  0  0  0  0  0  0  0  0  0
   -2.3070   24.6275  -30.2211 H   0  0  0  0  0  0  0  0  0  0  0  0
   -1.1750   24.0927  -28.9161 H   0  0  0  0  0  0  0  0  0  0  0  0
   -0.8723   20.7842  -33.2332 H   0  0  0  0  0  0  0  0  0  0  0  0
   -2.7242   19.0821  -34.2195 H   0  0  0  0  0  0  0  0  0  0  0  0
   -4.7656   19.0948  -32.4921 H   0  0  0  0  0  0  0  0  0  0  0  0
   -3.4758   20.8408  -29.1212 H   0  0  0  0  0  0  0  0  0  0  0  0
   -2.7059   21.7244  -27.7484 H   0  0  0  0  0  0  0  0  0  0  0  0
   -5.3508   22.2027  -29.1225 H   0  0  0  0  0  0  0  0  0  0  0  0
   -4.8857   22.2536  -27.3512 H   0  0  0  0  0  0  0  0  0  0  0  0
   -7.8034   23.3638  -29.1879 H   0  0  0  0  0  0  0  0  0  0  0  0
   -9.1040   21.5868  -30.3564 H   0  0  0  0  0  0  0  0  0  0  0  0
  1  2  1  0
  2  3  2  0
  3  4  1  0
  4  5  2  0
  5  6  1  0
  6  7  2  0
  6  8  2  0
  6  9  1  0
  9 10  1  0
 10 11  1  0
 11 12  1  0
 12 13  1  0
 13 14  2  0
 13 15  1  0
 15 16  2  0
 16 17  1  0
 17 18  2  0
 18 19  1  0
 12 20  1  0
 20 21  1  0
  5 22  1  0
 22 23  2  0
 23  2  1  0
 21  9  1  0
 19 15  1  0
  1 24  1  0
  1 25  1  0
  1 26  1  0
  3 27  1  0
  4 28  1  0
  9 29  1  0
 10 30  1  0
 10 31  1  0
 11 32  1  0
 11 33  1  0
 16 34  1  0
 17 35  1  0
 18 36  1  0
 20 37  1  0
 20 38  1  0
 21 39  1  0
 21 40  1  0
 22 41  1  0
 23 42  1  0
M  CHG  1   9   1
M  END
>  <UniqueID>  (15) 
14

>  <SMILES>  (15) 
Cc1ccc(S(=O)(=O)[NH+]2CCN(C(=O)c3ccco3)CC2)cc1

>  <Energy>  (15) 
76.77889078251256

>  <Genealogy>  (15) 
Cc1ccc(S(=O)(=O)[NH+]2CCN(C(=O)c3ccco3)CC2)cc1 (protonated)
Cc1ccc(S(=O)(=O)[NH+]2CCN(C(=O)c3ccco3)CC2)cc1 (3D coordinates assigned)
Cc1ccc(S(=O)(=O)[NH+]2CCN(C(=O)c3ccco3)CC2)cc1 (nonaromatic ring conformer: 76.77889078251256 kcal/mol)

>  <smiles>  (15) 
Cc1ccc(S(=O)(=O)N2CCN(C(=O)c3ccco3)CC2)cc1

>  <score_type>  (15) 
oracle

>  <origin>  (15) 
adg

>  <m_score__min__energy>  (15) 
-7.4900000000000002

>  <m_primary>  (15) 
energy

$$$$
15:0
     RDKit          3D

 32 33  0  0  0  0  0  0  0  0999 V2000
   -4.2310   24.9040  -26.5120 C   0  0  0  0  0  0  0  0  0  0  0  0
   -3.9300   24.1920  -27.8270 C   0  0  0  0  0  0  0  0  0  0  0  0
   -5.0710   24.2860  -28.7360 N   0  0  0  0  0  0  0  0  0  0  0  0
   -4.9670   24.8360  -30.0530 C   0  0  0  0  0  0  0  0  0  0  0  0
   -3.8670   25.2970  -30.4670 O   0  0  0  0  0  0  0  0  0  0  0  0
   -6.1010   24.8630  -30.8740 O   0  0  0  0  0  0  0  0  0  0  0  0
   -6.6620   23.6950  -31.4670 C   0  0  0  0  0  0  0  0  0  0  0  0
   -5.5800   22.7410  -31.8800 C   0  0  0  0  0  0  0  0  0  0  0  0
   -4.3170   23.0730  -31.9880 O   0  0  0  0  0  0  0  0  0  0  0  0
   -3.6670   22.0090  -32.3980 C   0  0  0  0  0  0  0  0  0  0  0  0
   -4.4760   20.9420  -32.5680 N   0  0  0  0  0  0  0  0  0  0  0  0
   -5.6940   21.4040  -32.2230 C   0  0  0  0  0  0  0  0  0  0  0  0
   -6.9150   20.5670  -32.2560 C   0  0  0  0  0  0  0  0  0  0  0  0
   -6.7960   19.1670  -32.2180 C   0  0  0  0  0  0  0  0  0  0  0  0
   -7.9390   18.3610  -32.2340 C   0  0  0  0  0  0  0  0  0  0  0  0
   -9.2070   18.9440  -32.2760 C   0  0  0  0  0  0  0  0  0  0  0  0
   -9.3360   20.3340  -32.2930 C   0  0  0  0  0  0  0  0  0  0  0  0
   -8.1970   21.1450  -32.2770 C   0  0  0  0  0  0  0  0  0  0  0  0
   -3.9552   24.2517  -25.6703 H   0  0  0  0  0  0  0  0  0  0  0  0
   -3.6502   25.8366  -26.4587 H   0  0  0  0  0  0  0  0  0  0  0  0
   -5.3047   25.1372  -26.4587 H   0  0  0  0  0  0  0  0  0  0  0  0
   -3.0528   24.6591  -28.2985 H   0  0  0  0  0  0  0  0  0  0  0  0
   -3.7297   23.1308  -27.6179 H   0  0  0  0  0  0  0  0  0  0  0  0
   -6.0100   23.9830  -28.3940 H   0  0  0  0  0  0  0  0  0  0  0  0
   -7.3212   23.2006  -30.7383 H   0  0  0  0  0  0  0  0  0  0  0  0
   -7.2343   23.9899  -32.3589 H   0  0  0  0  0  0  0  0  0  0  0  0
   -2.5828   21.9890  -32.5827 H   0  0  0  0  0  0  0  0  0  0  0  0
   -5.7995   18.7031  -32.1755 H   0  0  0  0  0  0  0  0  0  0  0  0
   -7.8388   17.2658  -32.2135 H   0  0  0  0  0  0  0  0  0  0  0  0
  -10.1043   18.3081  -32.2957 H   0  0  0  0  0  0  0  0  0  0  0  0
  -10.3357   20.7922  -32.3190 H   0  0  0  0  0  0  0  0  0  0  0  0
   -8.3041   22.2398  -32.2809 H   0  0  0  0  0  0  0  0  0  0  0  0
  1  2  1  0
  2  3  1  0
  3  4  1  0
  4  5  2  0
  4  6  1  0
  6  7  1  0
  7  8  1  0
  8  9  1  0
  9 10  1  0
 10 11  2  0
 11 12  1  0
 12 13  1  0
 13 14  2  0
 14 15  1  0
 15 16  2  0
 16 17  1  0
 17 18  2  0
 12  8  2  0
 18 13  1  0
  1 19  1  0
  1 20  1  0
  1 21  1  0
  2 22  1  0
  2 23  1  0
  3 24  1  0
  7 25  1  0
  7 26  1  0
 10 27  1  0
 14 28  1  0
 15 29  1  0
 16 30  1  0
 17 31  1  0
 18 32  1  0
M  END
>  <UniqueID>  (16) 
15

>  <SMILES>  (16) 
CCNC(=O)OCc1ocnc1-c1ccccc1

>  <Energy>  (16) 
58.663210563254026

>  <Genealogy>  (16) 
CCNC(=O)OCc1ocnc1-c1ccccc1 (3D coordinates assigned)
CCNC(=O)OCc1ocnc1-c1ccccc1 (optimized conformer: 58.663210563254026 kcal/mol)

>  <smiles>  (16) 
CCNC(=O)OCc1ocnc1-c1ccccc1

>  <score_type>  (16) 
oracle

>  <origin>  (16) 
adg

>  <m_score__min__energy>  (16) 
-7.3499999999999996

>  <m_primary>  (16) 
energy

$$$$
16:0
     RDKit          3D

 49 50  0  0  0  0  0  0  0  0999 V2000
   -3.6870   24.4550  -27.2840 C   0  0  0  0  0  0  0  0  0  0  0  0
   -4.5910   23.8960  -28.3830 C   0  0  0  0  0  0  0  0  0  0  0  0
   -4.0180   24.0310  -29.7420 N   0  0  0  0  0  0  0  0  0  0  0  0
   -4.5310   25.1890  -30.5180 C   0  0  0  0  0  0  0  0  0  0  0  0
   -5.9690   25.6120  -30.1860 C   0  0  0  0  0  0  0  0  0  0  0  0
   -2.5710   23.7240  -29.8320 C   0  0  0  0  0  0  0  0  0  0  0  0
   -2.2560   22.3350  -29.2490 C   0  0  0  0  0  0  0  0  0  0  0  0
   -2.8300   21.1890  -30.0980 C   0  0  0  0  0  0  0  0  0  0  0  0
   -4.3230   21.3820  -30.4440 C   0  0  0  0  0  0  0  0  0  0  0  0
   -4.5560   22.0300  -31.7570 N   0  0  1  0  0  0  0  0  0  0  0  0
   -3.8950   21.2900  -32.8120 C   0  0  0  0  0  0  0  0  0  0  0  0
   -3.0630   21.8560  -33.5110 O   0  0  0  0  0  0  0  0  0  0  0  0
   -4.1890   19.8360  -33.0820 C   0  0  0  0  0  0  0  0  0  0  0  0
   -5.5440   19.6790  -33.7730 C   0  0  0  0  0  0  0  0  0  0  0  0
   -6.7470   19.9300  -32.8810 C   0  0  0  0  0  0  0  0  0  0  0  0
   -7.7110   18.9050  -32.8150 C   0  0  0  0  0  0  0  0  0  0  0  0
   -8.8570   19.0440  -32.0330 C   0  0  0  0  0  0  0  0  0  0  0  0
   -9.7760   18.0480  -31.9920 F   0  0  0  0  0  0  0  0  0  0  0  0
   -9.0580   20.2050  -31.2920 C   0  0  0  0  0  0  0  0  0  0  0  0
   -8.1080   21.2250  -31.3210 C   0  0  0  0  0  0  0  0  0  0  0  0
   -6.9360   21.1010  -32.0920 C   0  0  0  0  0  0  0  0  0  0  0  0
   -5.9630   22.2260  -32.0410 C   0  0  0  0  0  0  0  0  0  0  0  0
   -6.3920   23.4010  -32.2190 O   0  0  0  0  0  0  0  0  0  0  0  0
   -4.1043   24.1970  -26.2995 H   0  0  0  0  0  0  0  0  0  0  0  0
   -2.6808   24.0212  -27.3809 H   0  0  0  0  0  0  0  0  0  0  0  0
   -3.6255   25.5490  -27.3809 H   0  0  0  0  0  0  0  0  0  0  0  0
   -4.7644   22.8285  -28.1823 H   0  0  0  0  0  0  0  0  0  0  0  0
   -5.5232   24.4796  -28.3645 H   0  0  0  0  0  0  0  0  0  0  0  0
   -3.8706   26.0473  -30.3254 H   0  0  0  0  0  0  0  0  0  0  0  0
   -4.5415   24.8707  -31.5709 H   0  0  0  0  0  0  0  0  0  0  0  0
   -6.0973   25.6497  -29.0942 H   0  0  0  0  0  0  0  0  0  0  0  0
   -6.1666   26.6063  -30.6130 H   0  0  0  0  0  0  0  0  0  0  0  0
   -6.6735   24.8830  -30.6130 H   0  0  0  0  0  0  0  0  0  0  0  0
   -2.2650   23.7469  -30.8883 H   0  0  0  0  0  0  0  0  0  0  0  0
   -2.0197   24.4775  -29.2503 H   0  0  0  0  0  0  0  0  0  0  0  0
   -1.1638   22.2172  -29.1918 H   0  0  0  0  0  0  0  0  0  0  0  0
   -2.7249   22.2785  -28.2555 H   0  0  0  0  0  0  0  0  0  0  0  0
   -2.2582   21.1273  -31.0357 H   0  0  0  0  0  0  0  0  0  0  0  0
   -2.7469   20.2667  -29.5043 H   0  0  0  0  0  0  0  0  0  0  0  0
   -4.8067   20.3941  -30.4545 H   0  0  0  0  0  0  0  0  0  0  0  0
   -4.7446   22.0502  -29.6786 H   0  0  0  0  0  0  0  0  0  0  0  0
   -4.0980   22.9710  -31.7400 H   0  0  0  0  0  0  0  0  0  0  0  0
   -3.4026   19.4228  -33.7307 H   0  0  0  0  0  0  0  0  0  0  0  0
   -4.2154   19.2962  -32.1239 H   0  0  0  0  0  0  0  0  0  0  0  0
   -5.5851   20.3903  -34.6110 H   0  0  0  0  0  0  0  0  0  0  0  0
   -5.6089   18.6282  -34.0918 H   0  0  0  0  0  0  0  0  0  0  0  0
   -7.5572   17.9798  -33.3898 H   0  0  0  0  0  0  0  0  0  0  0  0
   -9.9671   20.3178  -30.6830 H   0  0  0  0  0  0  0  0  0  0  0  0
   -8.2762   22.1395  -30.7334 H   0  0  0  0  0  0  0  0  0  0  0  0
  1  2  1  0
  2  3  1  0
  3  4  1  0
  4  5  1  0
  3  6  1  0
  6  7  1  0
  7  8  1  0
  8  9  1  0
  9 10  1  0
 10 11  1  0
 11 12  2  0
 11 13  1  0
 13 14  1  0
 14 15  1  0
 15 16  2  0
 16 17  1  0
 17 18  1  0
 17 19  2  0
 19 20  1  0
 20 21  2  0
 21 22  1  0
 22 23  2  0
 22 10  1  0
 21 15  1  0
  1 24  1  0
  1 25  1  0
  1 26  1  0
  2 27  1  0
  2 28  1  0
  4 29  1  0
  4 30  1  0
  5 31  1  0
  5 32  1  0
  5 33  1  0
  6 34  1  0
  6 35  1  0
  7 36  1  0
  7 37  1  0
  8 38  1  0
  8 39  1  0
  9 40  1  0
  9 41  1  0
 10 42  1  1
 13 43  1  0
 13 44  1  0
 14 45  1  0
 14 46  1  0
 16 47  1  0
 19 48  1  0
 20 49  1  0
M  CHG  1  10   1
M  END
>  <UniqueID>  (17) 
16

>  <SMILES>  (17) 
CCN(CC)CCCC[N@H+]1C(=O)CCc2cc(F)ccc2C1=O

>  <Energy>  (17) 
67.66620985406963

>  <Genealogy>  (17) 
CCN(CC)CCCC[NH+]1C(=O)CCc2cc(F)ccc2C1=O (protonated)
CCN(CC)CCCC[N@H+]1C(=O)CCc2cc(F)ccc2C1=O (chirality)
CCN(CC)CCCC[N@H+]1C(=O)CCc2cc(F)ccc2C1=O (3D coordinates assigned)
CCN(CC)CCCC[N@H+]1C(=O)CCc2cc(F)ccc2C1=O (nonaromatic ring conformer: 67.66620985406963 kcal/mol)

>  <smiles>  (17) 
CCN(CC)CCCCN1C(=O)CCc2cc(F)ccc2C1=O

>  <score_type>  (17) 
oracle

>  <origin>  (17) 
adg

>  <m_score__min__energy>  (17) 
-5.2199999999999998

>  <m_primary>  (17) 
energy

$$$$
17:0
     RDKit          3D

 38 40  0  0  0  0  0  0  0  0999 V2000
    1.6303   26.1518  -27.1607 H   0  0  0  0  0  0  0  0  0  0  0  0
    0.5680   25.8980  -27.0300 C   0  0  0  0  0  0  0  0  0  0  0  0
   -0.1180   25.3030  -28.0430 N   0  0  0  0  0  0  0  0  0  0  0  0
   -1.4350   24.9670  -27.9300 C   0  0  0  0  0  0  0  0  0  0  0  0
   -2.1330   24.3200  -29.0680 C   0  0  0  0  0  0  0  0  0  0  0  0
   -3.2130   24.9250  -29.6360 N   0  0  0  0  0  0  0  0  0  0  0  0
   -3.8810   24.3620  -30.6770 C   0  0  0  0  0  0  0  0  0  0  0  0
   -4.9080   24.9780  -31.1810 N   0  0  0  0  0  0  0  0  0  0  0  0
   -6.1440   25.2790  -30.4580 C   0  0  0  0  0  0  0  0  0  0  0  0
   -5.9298   26.0223  -29.6760 H   0  0  0  0  0  0  0  0  0  0  0  0
   -6.8798   25.6706  -31.1758 H   0  0  0  0  0  0  0  0  0  0  0  0
   -6.7270   24.0210  -29.8050 C   0  0  0  0  0  0  0  0  0  0  0  0
   -6.0101   23.6319  -29.0670 H   0  0  0  0  0  0  0  0  0  0  0  0
   -7.6752   24.2845  -29.3136 H   0  0  0  0  0  0  0  0  0  0  0  0
   -6.9880   22.9920  -30.8090 N   0  0  0  0  0  0  0  0  0  0  0  0
   -8.1330   22.2980  -30.9560 C   0  0  0  0  0  0  0  0  0  0  0  0
   -9.0525   22.4416  -30.3695 H   0  0  0  0  0  0  0  0  0  0  0  0
   -7.9560   21.3750  -31.9690 C   0  0  0  0  0  0  0  0  0  0  0  0
   -8.6913   20.6518  -32.3516 H   0  0  0  0  0  0  0  0  0  0  0  0
   -6.6520   21.5580  -32.3980 C   0  0  0  0  0  0  0  0  0  0  0  0
   -6.1560   20.9919  -33.2002 H   0  0  0  0  0  0  0  0  0  0  0  0
   -6.0920   22.5420  -31.6720 N   0  0  0  0  0  0  0  0  0  0  0  0
   -5.1110   22.8920  -31.7570 H   0  0  0  0  0  0  0  0  0  0  0  0
   -3.4640   23.1660  -31.1760 N   0  0  0  0  0  0  0  0  0  0  0  0
   -2.3920   22.5230  -30.6470 C   0  0  0  0  0  0  0  0  0  0  0  0
   -2.0696   21.5572  -31.0633 H   0  0  0  0  0  0  0  0  0  0  0  0
   -1.7000   23.0860  -29.5770 C   0  0  0  0  0  0  0  0  0  0  0  0
   -0.8308   22.5731  -29.1395 H   0  0  0  0  0  0  0  0  0  0  0  0
   -2.1100   25.2420  -26.7270 C   0  0  0  0  0  0  0  0  0  0  0  0
   -3.1720   24.9782  -26.6151 H   0  0  0  0  0  0  0  0  0  0  0  0
   -1.4230   25.8520  -25.6760 C   0  0  0  0  0  0  0  0  0  0  0  0
   -1.9431   26.0689  -24.7313 H   0  0  0  0  0  0  0  0  0  0  0  0
   -0.0750   26.1870  -25.8240 C   0  0  0  0  0  0  0  0  0  0  0  0
    0.8210   26.9670  -24.4800 S   0  0  0  0  0  0  0  0  0  0  0  0
   -0.5420   26.7620  -23.2920 C   0  0  0  0  0  0  0  0  0  0  0  0
   -0.1471   26.8214  -22.2671 H   0  0  0  0  0  0  0  0  0  0  0  0
   -1.2850   27.5585  -23.4454 H   0  0  0  0  0  0  0  0  0  0  0  0
   -1.0178   25.7822  -23.4454 H   0  0  0  0  0  0  0  0  0  0  0  0
  1  2  1  0
  2  3  2  0
  3  4  1  0
  4  5  1  0
  5  6  2  0
  6  7  1  0
  7  8  2  0
  8  9  1  0
  9 10  1  0
  9 11  1  0
  9 12  1  0
 12 13  1  0
 12 14  1  0
 12 15  1  0
 15 16  1  0
 16 17  1  0
 16 18  2  0
 18 19  1  0
 18 20  1  0
 20 21  1  0
 20 22  2  0
 22 23  1  0
  7 24  1  0
 24 25  1  0
 25 26  1  0
 25 27  2  0
 27 28  1  0
  4 29  2  0
 29 30  1  0
 29 31  1  0
 31 32  1  0
 31 33  2  0
 33 34  1  0
 34 35  1  0
 35 36  1  0
 35 37  1  0
 35 38  1  0
 33  2  1  0
 27  5  1  0
 22 15  1  0
M  CHG  2  22   1  24  -1
M  END
>  <UniqueID>  (18) 
17

>  <SMILES>  (18) 
CSc1ccc(-c2cc[n-]/c(=N\CCn3ccc[nH+]3)n2)nc1

>  <Energy>  (18) 
65.38608121270418

>  <Genealogy>  (18) 
CSc1ccc(-c2cc[n-]c(=NCCn3ccc[nH+]3)n2)nc1 (protonated)
CSc1ccc(-c2cc[n-]/c(=N\CCn3ccc[nH+]3)n2)nc1 (cis-trans isomerization)
CSc1ccc(-c2cc[n-]/c(=N\CCn3ccc[nH+]3)n2)nc1 (3D coordinates assigned)
CSc1ccc(-c2cc[n-]/c(=N\CCn3ccc[nH+]3)n2)nc1 (optimized conformer: 65.38608121270418 kcal/mol)

>  <smiles>  (18) 
CSc1ccc(-c2cc[nH]c(=NCCn3cccn3)n2)nc1

>  <score_type>  (18) 
oracle

>  <origin>  (18) 
adg

>  <m_score__min__energy>  (18) 
-7.5499999999999998

>  <m_primary>  (18) 
energy

$$$$
18:0
     RDKit          3D

 57 59  0  0  0  0  0  0  0  0999 V2000
   -1.5920   21.5330  -32.2960 C   0  0  0  0  0  0  0  0  0  0  0  0
   -2.6060   20.7900  -31.6860 C   0  0  0  0  0  0  0  0  0  0  0  0
   -3.1710   19.6990  -32.3520 C   0  0  0  0  0  0  0  0  0  0  0  0
   -2.7210   19.3410  -33.6340 C   0  0  0  0  0  0  0  0  0  0  0  0
   -3.3680   18.1970  -34.3680 C   0  0  0  0  0  0  0  0  0  0  0  0
   -4.4130   17.4820  -33.5070 C   0  0  0  0  0  0  0  0  0  0  0  0
   -5.7610   17.6310  -34.1030 N   0  0  0  0  0  0  0  0  0  0  0  0
   -6.8480   16.9650  -33.3620 C   0  0  0  0  0  0  0  0  0  0  0  0
   -7.2800   17.7380  -32.1030 C   0  0  0  0  0  0  0  0  0  0  0  0
   -8.3240   18.8340  -32.3730 C   0  0  0  0  0  0  0  0  0  0  0  0
   -7.8210   20.0460  -33.0790 N   0  0  1  0  0  0  0  0  0  0  0  0
   -8.2010   21.2910  -32.3460 C   0  0  0  0  0  0  0  0  0  0  0  0
   -7.7790   21.3710  -30.8530 C   0  0  0  0  0  0  0  0  0  0  0  0
   -6.8200   22.4640  -30.5940 N   0  0  0  0  0  0  0  0  0  0  0  0
   -7.3610   23.7700  -31.0200 C   0  0  0  0  0  0  0  0  0  0  0  0
   -6.4800   24.9150  -30.4870 C   0  0  0  0  0  0  0  0  0  0  0  0
   -5.0450   24.4550  -30.1770 C   0  0  0  0  0  0  0  0  0  0  0  0
   -4.5690   23.4140  -31.1910 C   0  0  0  0  0  0  0  0  0  0  0  0
   -5.5260   22.2020  -31.2640 C   0  0  0  0  0  0  0  0  0  0  0  0
   -6.3810   20.0100  -33.4500 C   0  0  0  0  0  0  0  0  0  0  0  0
   -6.0800   18.9930  -34.5720 C   0  0  0  0  0  0  0  0  0  0  0  0
   -1.7050   20.0970  -34.2430 C   0  0  0  0  0  0  0  0  0  0  0  0
   -1.1430   21.1880  -33.5740 C   0  0  0  0  0  0  0  0  0  0  0  0
   -1.1466   22.3903  -31.7700 H   0  0  0  0  0  0  0  0  0  0  0  0
   -2.9597   21.0639  -30.6811 H   0  0  0  0  0  0  0  0  0  0  0  0
   -3.9714   19.1181  -31.8705 H   0  0  0  0  0  0  0  0  0  0  0  0
   -3.8589   18.5870  -35.2718 H   0  0  0  0  0  0  0  0  0  0  0  0
   -2.5833   17.4700  -34.6242 H   0  0  0  0  0  0  0  0  0  0  0  0
   -4.1607   16.4132  -33.4434 H   0  0  0  0  0  0  0  0  0  0  0  0
   -4.4151   17.9297  -32.5022 H   0  0  0  0  0  0  0  0  0  0  0  0
   -7.7176   16.8668  -34.0285 H   0  0  0  0  0  0  0  0  0  0  0  0
   -6.4698   15.9859  -33.0330 H   0  0  0  0  0  0  0  0  0  0  0  0
   -7.7074   17.0214  -31.3862 H   0  0  0  0  0  0  0  0  0  0  0  0
   -6.3826   18.2407  -31.7131 H   0  0  0  0  0  0  0  0  0  0  0  0
   -9.1250   18.3942  -32.9854 H   0  0  0  0  0  0  0  0  0  0  0  0
   -8.6577   19.1803  -31.3837 H   0  0  0  0  0  0  0  0  0  0  0  0
   -8.3720   20.0970  -33.9700 H   0  0  0  0  0  0  0  0  0  0  0  0
   -7.7401   22.1414  -32.8698 H   0  0  0  0  0  0  0  0  0  0  0  0
   -9.3009   21.3013  -32.3392 H   0  0  0  0  0  0  0  0  0  0  0  0
   -8.6776   21.5377  -30.2409 H   0  0  0  0  0  0  0  0  0  0  0  0
   -7.2836   20.4235  -30.5945 H   0  0  0  0  0  0  0  0  0  0  0  0
   -7.3842   23.8118  -32.1190 H   0  0  0  0  0  0  0  0  0  0  0  0
   -8.3778   23.8842  -30.6162 H   0  0  0  0  0  0  0  0  0  0  0  0
   -6.4398   25.7117  -31.2444 H   0  0  0  0  0  0  0  0  0  0  0  0
   -6.9275   25.2736  -29.5483 H   0  0  0  0  0  0  0  0  0  0  0  0
   -4.3731   25.3252  -30.2133 H   0  0  0  0  0  0  0  0  0  0  0  0
   -5.0331   23.9986  -29.1762 H   0  0  0  0  0  0  0  0  0  0  0  0
   -4.5136   23.8839  -32.1840 H   0  0  0  0  0  0  0  0  0  0  0  0
   -3.5819   23.0505  -30.8692 H   0  0  0  0  0  0  0  0  0  0  0  0
   -5.7170   21.9658  -32.3212 H   0  0  0  0  0  0  0  0  0  0  0  0
   -5.0431   21.3614  -30.7442 H   0  0  0  0  0  0  0  0  0  0  0  0
   -6.0808   21.0112  -33.7927 H   0  0  0  0  0  0  0  0  0  0  0  0
   -5.8160   19.6986  -32.5590 H   0  0  0  0  0  0  0  0  0  0  0  0
   -6.9633   18.9321  -35.2247 H   0  0  0  0  0  0  0  0  0  0  0  0
   -5.1820   19.3604  -35.0903 H   0  0  0  0  0  0  0  0  0  0  0  0
   -1.3508   19.8293  -35.2494 H   0  0  0  0  0  0  0  0  0  0  0  0
   -0.3465   21.7757  -34.0537 H   0  0  0  0  0  0  0  0  0  0  0  0
  1  2  2  0
  2  3  1  0
  3  4  2  0
  4  5  1  0
  5  6  1  0
  6  7  1  0
  7  8  1  0
  8  9  1  0
  9 10  1  0
 10 11  1  0
 11 12  1  0
 12 13  1  0
 13 14  1  0
 14 15  1  0
 15 16  1  0
 16 17  1  0
 17 18  1  0
 18 19  1  0
 11 20  1  0
 20 21  1  0
  4 22  1  0
 22 23  2  0
 23  1  1  0
 21  7  1  0
 19 14  1  0
  1 24  1  0
  2 25  1  0
  3 26  1  0
  5 27  1  0
  5 28  1  0
  6 29  1  0
  6 30  1  0
  8 31  1  0
  8 32  1  0
  9 33  1  0
  9 34  1  0
 10 35  1  0
 10 36  1  0
 11 37  1  6
 12 38  1  0
 12 39  1  0
 13 40  1  0
 13 41  1  0
 15 42  1  0
 15 43  1  0
 16 44  1  0
 16 45  1  0
 17 46  1  0
 17 47  1  0
 18 48  1  0
 18 49  1  0
 19 50  1  0
 19 51  1  0
 20 52  1  0
 20 53  1  0
 21 54  1  0
 21 55  1  0
 22 56  1  0
 23 57  1  0
M  CHG  1  11   1
M  END
>  <UniqueID>  (19) 
18

>  <SMILES>  (19) 
c1ccc(CCN2CCC[N@@H+](CCN3CCCCC3)CC2)cc1

>  <Energy>  (19) 
80.63827919485968

>  <Genealogy>  (19) 
c1ccc(CCN2CCC[NH+](CCN3CCCCC3)CC2)cc1 (protonated)
c1ccc(CCN2CCC[N@@H+](CCN3CCCCC3)CC2)cc1 (chirality)
c1ccc(CCN2CCC[N@@H+](CCN3CCCCC3)CC2)cc1 (3D coordinates assigned)
c1ccc(CCN2CCC[N@@H+](CCN3CCCCC3)CC2)cc1 (nonaromatic ring conformer: 80.63827919485968 kcal/mol)

>  <smiles>  (19) 
c1ccc(CCN2CCCN(CCN3CCCCC3)CC2)cc1

>  <score_type>  (19) 
oracle

>  <origin>  (19) 
adg

>  <m_score__min__energy>  (19) 
-5.4000000000000004

>  <m_primary>  (19) 
energy

$$$$
19:0
     RDKit          3D

 50 53  0  0  0  0  0  0  0  0999 V2000
   -4.1490   25.6630  -30.8490 O   0  0  0  0  0  0  0  0  0  0  0  0
   -3.8480   24.6570  -30.1580 C   0  0  0  0  0  0  0  0  0  0  0  0
   -3.0510   24.8460  -28.9830 N   0  0  0  0  0  0  0  0  0  0  0  0
   -1.6060   25.0380  -28.9710 C   0  0  0  0  0  0  0  0  0  0  0  0
   -1.1420   25.1830  -27.5510 C   0  0  0  0  0  0  0  0  0  0  0  0
    0.1910   24.9010  -27.2090 C   0  0  0  0  0  0  0  0  0  0  0  0
    0.5960   24.9930  -25.8750 C   0  0  0  0  0  0  0  0  0  0  0  0
   -0.3020   25.3480  -24.9150 N   0  0  0  0  0  0  0  0  0  0  0  0
   -1.6040   25.6170  -25.2160 C   0  0  0  0  0  0  0  0  0  0  0  0
   -2.0500   25.5330  -26.5380 C   0  0  0  0  0  0  0  0  0  0  0  0
   -4.3490   23.3290  -30.5680 C   0  0  0  0  0  0  0  0  0  0  0  0
   -5.5190   23.1020  -31.2690 C   0  0  0  0  0  0  0  0  0  0  0  0
   -5.6870   21.7260  -31.3260 C   0  0  0  0  0  0  0  0  0  0  0  0
   -6.7800   20.9970  -32.0860 C   0  0  0  0  0  0  0  0  0  0  0  0
   -8.1400   21.7320  -31.9470 C   0  0  0  0  0  0  0  0  0  0  0  0
   -9.3540   20.8090  -32.1870 C   0  0  0  0  0  0  0  0  0  0  0  0
   -9.0120   19.6920  -33.0780 N   0  0  0  0  0  0  0  0  0  0  0  0
   -8.0200   18.7880  -32.4600 C   0  0  0  0  0  0  0  0  0  0  0  0
   -6.9290   19.5250  -31.6460 C   0  0  0  0  0  0  0  0  0  0  0  0
   -4.5960   21.1710  -30.6760 C   0  0  0  0  0  0  0  0  0  0  0  0
   -3.7970   22.1480  -30.2000 N   0  0  0  0  0  0  0  0  0  0  0  0
   -2.5480   21.9390  -29.5190 C   0  0  0  0  0  0  0  0  0  0  0  0
   -2.5160   21.8180  -28.1180 C   0  0  0  0  0  0  0  0  0  0  0  0
   -1.3010   21.6320  -27.4520 C   0  0  0  0  0  0  0  0  0  0  0  0
   -0.1060   21.5720  -28.1780 C   0  0  0  0  0  0  0  0  0  0  0  0
   -0.1250   21.6980  -29.5690 C   0  0  0  0  0  0  0  0  0  0  0  0
   -1.3400   21.8830  -30.2410 C   0  0  0  0  0  0  0  0  0  0  0  0
   -1.3400   21.9820  -31.5940 F   0  0  0  0  0  0  0  0  0  0  0  0
   -1.1150   24.1683  -29.4321 H   0  0  0  0  0  0  0  0  0  0  0  0
   -1.3476   25.9434  -29.5398 H   0  0  0  0  0  0  0  0  0  0  0  0
    0.9118   24.6094  -27.9870 H   0  0  0  0  0  0  0  0  0  0  0  0
    1.6394   24.7788  -25.6005 H   0  0  0  0  0  0  0  0  0  0  0  0
   -2.3049   25.9007  -24.4171 H   0  0  0  0  0  0  0  0  0  0  0  0
   -3.1024   25.7391  -26.7829 H   0  0  0  0  0  0  0  0  0  0  0  0
   -6.1865   23.8639  -31.6979 H   0  0  0  0  0  0  0  0  0  0  0  0
   -6.4750   20.9968  -33.1429 H   0  0  0  0  0  0  0  0  0  0  0  0
   -8.2113   22.1473  -30.9309 H   0  0  0  0  0  0  0  0  0  0  0  0
   -8.1683   22.5181  -32.7159 H   0  0  0  0  0  0  0  0  0  0  0  0
   -9.6929   20.4054  -31.2214 H   0  0  0  0  0  0  0  0  0  0  0  0
  -10.1491   21.4008  -32.6642 H   0  0  0  0  0  0  0  0  0  0  0  0
   -8.6200   20.0760  -33.9730 H   0  0  0  0  0  0  0  0  0  0  0  0
   -8.5503   18.0992  -31.7860 H   0  0  0  0  0  0  0  0  0  0  0  0
   -7.5092   18.2623  -33.2802 H   0  0  0  0  0  0  0  0  0  0  0  0
   -7.2008   19.4979  -30.5805 H   0  0  0  0  0  0  0  0  0  0  0  0
   -5.9695   19.0170  -31.8229 H   0  0  0  0  0  0  0  0  0  0  0  0
   -4.4092   20.0927  -30.5647 H   0  0  0  0  0  0  0  0  0  0  0  0
   -3.4524   21.8700  -27.5431 H   0  0  0  0  0  0  0  0  0  0  0  0
   -1.2842   21.5327  -26.3566 H   0  0  0  0  0  0  0  0  0  0  0  0
    0.8493   21.4255  -27.6526 H   0  0  0  0  0  0  0  0  0  0  0  0
    0.8156   21.6519  -30.1375 H   0  0  0  0  0  0  0  0  0  0  0  0
  1  2  2  0
  2  3  1  0
  3  4  1  0
  4  5  1  0
  5  6  2  0
  6  7  1  0
  7  8  2  0
  8  9  1  0
  9 10  2  0
  2 11  1  0
 11 12  2  0
 12 13  1  0
 13 14  1  0
 14 15  1  0
 15 16  1  0
 16 17  1  0
 17 18  1  0
 18 19  1  0
 13 20  2  0
 20 21  1  0
 21 22  1  0
 22 23  2  0
 23 24  1  0
 24 25  2  0
 25 26  1  0
 26 27  2  0
 27 28  1  0
 10  5  1  0
 21 11  1  0
 27 22  1  0
 19 14  1  0
  4 29  1  0
  4 30  1  0
  6 31  1  0
  7 32  1  0
  9 33  1  0
 10 34  1  0
 12 35  1  0
 14 36  1  0
 15 37  1  0
 15 38  1  0
 16 39  1  0
 16 40  1  0
 17 41  1  0
 18 42  1  0
 18 43  1  0
 19 44  1  0
 19 45  1  0
 20 46  1  0
 23 47  1  0
 24 48  1  0
 25 49  1  0
 26 50  1  0
M  CHG  1   3  -1
M  END
>  <UniqueID>  (20) 
19

>  <SMILES>  (20) 
O=C([N-]Cc1ccncc1)c1cc(C2CCNCC2)cn1-c1ccccc1F

>  <Energy>  (20) 
94.44315974601398

>  <Genealogy>  (20) 
O=C([N-]Cc1ccncc1)c1cc(C2CCNCC2)cn1-c1ccccc1F (protonated)
O=C([N-]Cc1ccncc1)c1cc(C2CCNCC2)cn1-c1ccccc1F (3D coordinates assigned)
O=C([N-]Cc1ccncc1)c1cc(C2CCNCC2)cn1-c1ccccc1F (nonaromatic ring conformer: 94.44315974601398 kcal/mol)

>  <smiles>  (20) 
O=C(NCc1ccncc1)c1cc(C2CCNCC2)cn1-c1ccccc1F

>  <score_type>  (20) 
oracle

>  <origin>  (20) 
adg

>  <m_score__min__energy>  (20) 
-10.24

>  <m_primary>  (20) 
energy

$$$$
20:0
     RDKit          3D

 55 58  0  0  0  0  0  0  0  0999 V2000
   -0.8670   26.8740  -27.7920 C   0  0  0  0  0  0  0  0  0  0  0  0
   -1.4570   26.0390  -28.7830 O   0  0  0  0  0  0  0  0  0  0  0  0
   -1.7170   24.6710  -28.6130 C   0  0  0  0  0  0  0  0  0  0  0  0
   -1.6270   24.1330  -27.3250 C   0  0  0  0  0  0  0  0  0  0  0  0
   -1.8720   22.7750  -27.1050 C   0  0  0  0  0  0  0  0  0  0  0  0
   -2.2160   21.9380  -28.1700 C   0  0  0  0  0  0  0  0  0  0  0  0
   -2.4850   20.0730  -27.8210 Br  0  0  0  0  0  0  0  0  0  0  0  0
   -2.3160   22.4660  -29.4710 C   0  0  0  0  0  0  0  0  0  0  0  0
   -2.6770   21.6320  -30.5830 N   0  0  0  0  0  0  0  0  0  0  0  0
   -1.7050   20.7160  -31.1720 C   0  0  0  0  0  0  0  0  0  0  0  0
   -1.5640   21.0290  -32.6620 C   0  0  0  0  0  0  0  0  0  0  0  0
   -2.8670   21.0320  -33.3640 N   0  0  0  0  0  0  0  0  0  0  0  0
   -3.3160   19.6780  -33.6690 C   0  0  0  0  0  0  0  0  0  0  0  0
   -2.5490   18.7480  -33.4520 O   0  0  0  0  0  0  0  0  0  0  0  0
   -4.6960   19.3570  -34.2110 C   0  0  0  0  0  0  0  0  0  0  0  0
   -5.5560   18.7570  -33.1740 N   0  0  0  0  0  0  0  0  0  0  0  0
   -5.3250   17.3950  -32.7550 C   0  0  0  0  0  0  0  0  0  0  0  0
   -4.3790   16.7220  -33.2490 O   0  0  0  0  0  0  0  0  0  0  0  0
   -6.1590   16.7850  -31.6670 C   0  0  0  0  0  0  0  0  0  0  0  0
   -7.4310   17.4250  -31.5730 O   0  0  0  0  0  0  0  0  0  0  0  0
   -7.5920   18.7930  -31.7970 C   0  0  0  0  0  0  0  0  0  0  0  0
   -8.7010   19.4550  -31.2610 C   0  0  0  0  0  0  0  0  0  0  0  0
   -8.8540   20.8300  -31.4470 C   0  0  0  0  0  0  0  0  0  0  0  0
   -7.9060   21.5530  -32.1820 C   0  0  0  0  0  0  0  0  0  0  0  0
   -8.0370   23.0400  -32.3340 C   0  0  0  0  0  0  0  0  0  0  0  0
   -6.7940   20.8870  -32.7240 C   0  0  0  0  0  0  0  0  0  0  0  0
   -6.6430   19.4940  -32.5620 C   0  0  0  0  0  0  0  0  0  0  0  0
   -3.8700   21.9220  -32.7210 C   0  0  0  0  0  0  0  0  0  0  0  0
   -3.9990   21.7350  -31.1980 C   0  0  0  0  0  0  0  0  0  0  0  0
   -2.0610   23.8280  -29.6880 C   0  0  0  0  0  0  0  0  0  0  0  0
   -1.1316   26.4995  -26.7921 H   0  0  0  0  0  0  0  0  0  0  0  0
    0.2267   26.8655  -27.9091 H   0  0  0  0  0  0  0  0  0  0  0  0
   -1.2403   27.9021  -27.9091 H   0  0  0  0  0  0  0  0  0  0  0  0
   -1.3614   24.7838  -26.4789 H   0  0  0  0  0  0  0  0  0  0  0  0
   -1.7937   22.3626  -26.0882 H   0  0  0  0  0  0  0  0  0  0  0  0
   -0.7317   20.8419  -30.6752 H   0  0  0  0  0  0  0  0  0  0  0  0
   -2.0460   19.6784  -31.0412 H   0  0  0  0  0  0  0  0  0  0  0  0
   -1.1011   22.0207  -32.7723 H   0  0  0  0  0  0  0  0  0  0  0  0
   -0.9422   20.2414  -33.1126 H   0  0  0  0  0  0  0  0  0  0  0  0
   -2.6830   21.4730  -34.2980 H   0  0  0  0  0  0  0  0  0  0  0  0
   -5.1639   20.2853  -34.5707 H   0  0  0  0  0  0  0  0  0  0  0  0
   -4.5856   18.6319  -35.0308 H   0  0  0  0  0  0  0  0  0  0  0  0
   -6.3095   15.7175  -31.8857 H   0  0  0  0  0  0  0  0  0  0  0  0
   -5.6322   16.9137  -30.7100 H   0  0  0  0  0  0  0  0  0  0  0  0
   -9.4544   18.8910  -30.6916 H   0  0  0  0  0  0  0  0  0  0  0  0
   -9.7228   21.3479  -31.0145 H   0  0  0  0  0  0  0  0  0  0  0  0
   -8.0782   23.5080  -31.3394 H   0  0  0  0  0  0  0  0  0  0  0  0
   -7.1697   23.4299  -32.8870 H   0  0  0  0  0  0  0  0  0  0  0  0
   -8.9591   23.2722  -32.8870 H   0  0  0  0  0  0  0  0  0  0  0  0
   -6.0346   21.4568  -33.2795 H   0  0  0  0  0  0  0  0  0  0  0  0
   -3.5807   22.9651  -32.9167 H   0  0  0  0  0  0  0  0  0  0  0  0
   -4.8467   21.6607  -33.1543 H   0  0  0  0  0  0  0  0  0  0  0  0
   -4.5312   22.5977  -30.7708 H   0  0  0  0  0  0  0  0  0  0  0  0
   -4.5582   20.8090  -30.9985 H   0  0  0  0  0  0  0  0  0  0  0  0
   -2.1301   24.2410  -30.7052 H   0  0  0  0  0  0  0  0  0  0  0  0
  1  2  1  0
  2  3  1  0
  3  4  2  0
  4  5  1  0
  5  6  2  0
  6  7  1  0
  6  8  1  0
  8  9  1  0
  9 10  1  0
 10 11  1  0
 11 12  1  0
 12 13  1  0
 13 14  2  0
 13 15  1  0
 15 16  1  0
 16 17  1  0
 17 18  2  0
 17 19  1  0
 19 20  1  0
 20 21  1  0
 21 22  2  0
 22 23  1  0
 23 24  2  0
 24 25  1  0
 24 26  1  0
 26 27  2  0
 12 28  1  0
 28 29  1  0
  8 30  2  0
 30  3  1  0
 29  9  1  0
 27 16  1  0
 27 21  1  0
  1 31  1  0
  1 32  1  0
  1 33  1  0
  4 34  1  0
  5 35  1  0
 10 36  1  0
 10 37  1  0
 11 38  1  0
 11 39  1  0
 12 40  1  0
 15 41  1  0
 15 42  1  0
 19 43  1  0
 19 44  1  0
 22 45  1  0
 23 46  1  0
 25 47  1  0
 25 48  1  0
 25 49  1  0
 26 50  1  0
 28 51  1  0
 28 52  1  0
 29 53  1  0
 29 54  1  0
 30 55  1  0
M  CHG  1  12   1
M  END
>  <UniqueID>  (21) 
20

>  <SMILES>  (21) 
COc1ccc(Br)c(N2CC[NH+](C(=O)CN3C(=O)COc4ccc(C)cc43)CC2)c1

>  <Energy>  (21) 
75.11172579941386

>  <Genealogy>  (21) 
COc1ccc(Br)c(N2CC[NH+](C(=O)CN3C(=O)COc4ccc(C)cc43)CC2)c1 (protonated)
COc1ccc(Br)c(N2CC[NH+](C(=O)CN3C(=O)COc4ccc(C)cc43)CC2)c1 (3D coordinates assigned)
COc1ccc(Br)c(N2CC[NH+](C(=O)CN3C(=O)COc4ccc(C)cc43)CC2)c1 (nonaromatic ring conformer: 75.11172579941386 kcal/mol)

>  <smiles>  (21) 
COc1ccc(Br)c(N2CCN(C(=O)CN3C(=O)COc4ccc(C)cc43)CC2)c1

>  <score_type>  (21) 
oracle

>  <origin>  (21) 
adg

>  <m_score__min__energy>  (21) 
-8.7100000000000009

>  <m_primary>  (21) 
energy

$$$$
21:0
     RDKit          3D

 47 50  0  0  0  0  0  0  0  0999 V2000
   -7.2550   23.7990  -33.0670 O   0  0  0  0  0  0  0  0  0  0  0  0
   -6.7060   23.0140  -32.2450 C   0  0  0  0  0  0  0  0  0  0  0  0
   -6.9420   21.5580  -32.3620 C   0  0  0  0  0  0  0  0  0  0  0  0
   -7.8920   20.9350  -31.5390 C   0  0  0  0  0  0  0  0  0  0  0  0
   -8.1110   19.5620  -31.6500 C   0  0  0  0  0  0  0  0  0  0  0  0
   -7.3750   18.8110  -32.5720 C   0  0  0  0  0  0  0  0  0  0  0  0
   -7.5750   17.4290  -32.7050 C   0  0  0  0  0  0  0  0  0  0  0  0
   -6.8200   16.6970  -33.6290 C   0  0  0  0  0  0  0  0  0  0  0  0
   -5.8670   17.3390  -34.4240 C   0  0  0  0  0  0  0  0  0  0  0  0
   -5.6610   18.7170  -34.2990 C   0  0  0  0  0  0  0  0  0  0  0  0
   -6.4120   19.4650  -33.3760 C   0  0  0  0  0  0  0  0  0  0  0  0
   -6.2180   20.8100  -33.2470 N   0  0  0  0  0  0  0  0  0  0  0  0
   -5.8630   23.5480  -31.2080 N   0  0  0  0  0  0  0  0  0  0  0  0
   -6.1810   24.8610  -30.6330 C   0  0  0  0  0  0  0  0  0  0  0  0
   -5.7480   24.9550  -29.1530 C   0  0  0  0  0  0  0  0  0  0  0  0
   -4.6780   23.9940  -28.7980 N   0  0  0  0  0  0  0  0  0  0  0  0
   -3.9920   24.3070  -27.5200 C   0  0  0  0  0  0  0  0  0  0  0  0
   -2.4800   24.1580  -27.5730 C   0  0  0  0  0  0  0  0  0  0  0  0
   -1.6670   25.2930  -27.7480 C   0  0  0  0  0  0  0  0  0  0  0  0
   -0.2740   25.1700  -27.7940 C   0  0  0  0  0  0  0  0  0  0  0  0
    0.3240   23.9160  -27.6540 C   0  0  0  0  0  0  0  0  0  0  0  0
    1.6700   23.7970  -27.7100 F   0  0  0  0  0  0  0  0  0  0  0  0
   -0.4680   22.7840  -27.4490 C   0  0  0  0  0  0  0  0  0  0  0  0
   -1.8640   22.9000  -27.4000 C   0  0  0  0  0  0  0  0  0  0  0  0
   -2.6050   21.7910  -27.1540 F   0  0  0  0  0  0  0  0  0  0  0  0
   -3.7620   23.7160  -29.9130 C   0  0  0  0  0  0  0  0  0  0  0  0
   -4.5330   22.9600  -30.9960 C   0  0  0  0  0  0  0  0  0  0  0  0
   -8.4624   21.5274  -30.8085 H   0  0  0  0  0  0  0  0  0  0  0  0
   -8.8615   19.0706  -31.0133 H   0  0  0  0  0  0  0  0  0  0  0  0
   -8.3258   16.9200  -32.0827 H   0  0  0  0  0  0  0  0  0  0  0  0
   -6.9775   15.6130  -33.7295 H   0  0  0  0  0  0  0  0  0  0  0  0
   -5.2774   16.7596  -35.1497 H   0  0  0  0  0  0  0  0  0  0  0  0
   -4.9081   19.2173  -34.9257 H   0  0  0  0  0  0  0  0  0  0  0  0
   -5.4810   21.2750  -33.8270 H   0  0  0  0  0  0  0  0  0  0  0  0
   -5.6571   25.6387  -31.2081 H   0  0  0  0  0  0  0  0  0  0  0  0
   -7.2708   25.0026  -30.6818 H   0  0  0  0  0  0  0  0  0  0  0  0
   -5.3816   25.9740  -28.9596 H   0  0  0  0  0  0  0  0  0  0  0  0
   -6.6265   24.7093  -28.5382 H   0  0  0  0  0  0  0  0  0  0  0  0
   -4.2271   25.3465  -27.2476 H   0  0  0  0  0  0  0  0  0  0  0  0
   -4.3560   23.5801  -26.7789 H   0  0  0  0  0  0  0  0  0  0  0  0
   -2.1305   26.2854  -27.8495 H   0  0  0  0  0  0  0  0  0  0  0  0
    0.3513   26.0630  -27.9408 H   0  0  0  0  0  0  0  0  0  0  0  0
    0.0051   21.7986  -27.3257 H   0  0  0  0  0  0  0  0  0  0  0  0
   -3.3778   24.6619  -30.3225 H   0  0  0  0  0  0  0  0  0  0  0  0
   -2.9131   23.1109  -29.5621 H   0  0  0  0  0  0  0  0  0  0  0  0
   -3.9663   23.0048  -31.9377 H   0  0  0  0  0  0  0  0  0  0  0  0
   -4.6604   21.9171  -30.6701 H   0  0  0  0  0  0  0  0  0  0  0  0
  1  2  2  0
  2  3  1  0
  3  4  2  0
  4  5  1  0
  5  6  2  0
  6  7  1  0
  7  8  2  0
  8  9  1  0
  9 10  2  0
 10 11  1  0
 11 12  2  0
  2 13  1  0
 13 14  1  0
 14 15  1  0
 15 16  1  0
 16 17  1  0
 17 18  1  0
 18 19  2  0
 19 20  1  0
 20 21  2  0
 21 22  1  0
 21 23  1  0
 23 24  2  0
 24 25  1  0
 16 26  1  0
 26 27  1  0
 12  3  1  0
 27 13  1  0
 11  6  1  0
 24 18  1  0
  4 28  1  0
  5 29  1  0
  7 30  1  0
  8 31  1  0
  9 32  1  0
 10 33  1  0
 12 34  1  0
 14 35  1  0
 14 36  1  0
 15 37  1  0
 15 38  1  0
 17 39  1  0
 17 40  1  0
 19 41  1  0
 20 42  1  0
 23 43  1  0
 26 44  1  0
 26 45  1  0
 27 46  1  0
 27 47  1  0
M  CHG  1  12   1
M  END
>  <UniqueID>  (22) 
21

>  <SMILES>  (22) 
O=C(c1ccc2ccccc2[nH+]1)N1CCN(Cc2ccc(F)cc2F)CC1

>  <Energy>  (22) 
67.86621229262786

>  <Genealogy>  (22) 
O=C(c1ccc2ccccc2[nH+]1)N1CCN(Cc2ccc(F)cc2F)CC1 (protonated)
O=C(c1ccc2ccccc2[nH+]1)N1CCN(Cc2ccc(F)cc2F)CC1 (3D coordinates assigned)
O=C(c1ccc2ccccc2[nH+]1)N1CCN(Cc2ccc(F)cc2F)CC1 (nonaromatic ring conformer: 67.86621229262786 kcal/mol)

>  <smiles>  (22) 
O=C(c1ccc2ccccc2n1)N1CCN(Cc2ccc(F)cc2F)CC1

>  <score_type>  (22) 
oracle

>  <origin>  (22) 
adg

>  <m_score__min__energy>  (22) 
-8.8599999999999994

>  <m_primary>  (22) 
energy

$$$$
22:0
     RDKit          3D

 37 39  0  0  0  0  0  0  0  0999 V2000
   -0.5080   25.2110  -30.0120 H   0  0  0  0  0  0  0  0  0  0  0  0
   -0.8720   24.5070  -29.3310 N   0  0  0  0  0  0  0  0  0  0  0  0
   -2.0940   24.0860  -29.3850 C   0  0  0  0  0  0  0  0  0  0  0  0
   -2.3740   22.7900  -29.0950 N   0  0  0  0  0  0  0  0  0  0  0  0
   -3.6460   22.3220  -29.1500 C   0  0  0  0  0  0  0  0  0  0  0  0
   -3.8562   21.2719  -28.8989 H   0  0  0  0  0  0  0  0  0  0  0  0
   -4.6920   23.1740  -29.5260 C   0  0  0  0  0  0  0  0  0  0  0  0
   -4.3890   24.5140  -29.7960 C   0  0  0  0  0  0  0  0  0  0  0  0
   -3.0980   24.9350  -29.7300 N   0  0  0  0  0  0  0  0  0  0  0  0
   -5.4450   25.4900  -30.2230 C   0  0  0  0  0  0  0  0  0  0  0  0
   -5.4003   26.3610  -29.5526 H   0  0  0  0  0  0  0  0  0  0  0  0
   -5.2319   25.7457  -31.2714 H   0  0  0  0  0  0  0  0  0  0  0  0
   -6.8800   24.9280  -30.1890 C   0  0  0  0  0  0  0  0  0  0  0  0
   -7.3014   25.1245  -29.1921 H   0  0  0  0  0  0  0  0  0  0  0  0
   -7.4299   25.4309  -30.9981 H   0  0  0  0  0  0  0  0  0  0  0  0
   -6.9820   23.4720  -30.4550 N   0  0  1  0  0  0  0  0  0  0  0  0
   -7.9560   23.2200  -30.1590 H   0  0  0  0  0  0  0  0  0  0  0  0
   -6.9460   23.0880  -31.8930 C   0  0  0  0  0  0  0  0  0  0  0  0
   -7.6702   23.7178  -32.4305 H   0  0  0  0  0  0  0  0  0  0  0  0
   -5.9055   23.2332  -32.2191 H   0  0  0  0  0  0  0  0  0  0  0  0
   -7.2770   21.6400  -32.1880 C   0  0  0  0  0  0  0  0  0  0  0  0
   -8.5170   21.1070  -31.8030 C   0  0  0  0  0  0  0  0  0  0  0  0
   -9.2524   21.7460  -31.2922 H   0  0  0  0  0  0  0  0  0  0  0  0
   -8.8220   19.7700  -32.0650 C   0  0  0  0  0  0  0  0  0  0  0  0
   -9.8002   19.3626  -31.7699 H   0  0  0  0  0  0  0  0  0  0  0  0
   -7.8880   18.9480  -32.7010 C   0  0  0  0  0  0  0  0  0  0  0  0
   -8.1348   17.8957  -32.9051 H   0  0  0  0  0  0  0  0  0  0  0  0
   -6.6360   19.4580  -33.0810 C   0  0  0  0  0  0  0  0  0  0  0  0
   -5.6090   18.5540  -33.7170 C   0  0  0  0  0  0  0  0  0  0  0  0
   -5.3380   17.5020  -32.8640 F   0  0  0  0  0  0  0  0  0  0  0  0
   -6.0820   18.0530  -34.9170 F   0  0  0  0  0  0  0  0  0  0  0  0
   -4.4360   19.2440  -33.9690 F   0  0  0  0  0  0  0  0  0  0  0  0
   -6.3230   20.7950  -32.7790 C   0  0  0  0  0  0  0  0  0  0  0  0
   -5.3198   21.1838  -33.0081 H   0  0  0  0  0  0  0  0  0  0  0  0
   -6.1070   22.6660  -29.5750 C   0  0  0  0  0  0  0  0  0  0  0  0
   -6.5215   22.6852  -28.5563 H   0  0  0  0  0  0  0  0  0  0  0  0
   -6.0759   21.6467  -29.9873 H   0  0  0  0  0  0  0  0  0  0  0  0
  1  2  1  0
  2  3  2  0
  3  4  1  0
  4  5  2  0
  5  6  1  0
  5  7  1  0
  7  8  2  0
  8  9  1  0
  8 10  1  0
 10 11  1  0
 10 12  1  0
 10 13  1  0
 13 14  1  0
 13 15  1  0
 13 16  1  0
 16 17  1  1
 16 18  1  0
 18 19  1  0
 18 20  1  0
 18 21  1  0
 21 22  2  0
 22 23  1  0
 22 24  1  0
 24 25  1  0
 24 26  2  0
 26 27  1  0
 26 28  1  0
 28 29  1  0
 29 30  1  0
 29 31  1  0
 29 32  1  0
 28 33  2  0
 33 34  1  0
 16 35  1  0
 35 36  1  0
 35 37  1  0
  9  3  1  0
 33 21  1  0
 35  7  1  0
M  CHG  2   9  -1  16   1
M  END
>  <UniqueID>  (23) 
22

>  <SMILES>  (23) 
[H]/N=c1/ncc2c([n-]1)CC[N@@H+](Cc1cccc(C(F)(F)F)c1)C2

>  <Energy>  (23) 
49.80507157858549

>  <Genealogy>  (23) 
N=c1ncc2c([n-]1)CC[NH+](Cc1cccc(C(F)(F)F)c1)C2 (protonated)
N=c1ncc2c([n-]1)CC[N@@H+](Cc1cccc(C(F)(F)F)c1)C2 (chirality)
[H]/N=c1/ncc2c([n-]1)CC[N@@H+](Cc1cccc(C(F)(F)F)c1)C2 (cis-trans isomerization)
[H]/N=c1/ncc2c([n-]1)CC[N@@H+](Cc1cccc(C(F)(F)F)c1)C2 (3D coordinates assigned)
[H]/N=c1/ncc2c([n-]1)CC[N@@H+](Cc1cccc(C(F)(F)F)c1)C2 (nonaromatic ring conformer: 49.80507157858549 kcal/mol)

>  <smiles>  (23) 
N=c1ncc2c([nH]1)CCN(Cc1cccc(C(F)(F)F)c1)C2

>  <score_type>  (23) 
oracle

>  <origin>  (23) 
adg

>  <m_score__min__energy>  (23) 
-8.3599999999999994

>  <m_primary>  (23) 
energy

$$$$
23:0
     RDKit          3D

 41 44  0  0  0  0  0  0  0  0999 V2000
   -3.2880   25.4340  -28.1230 H   0  0  0  0  0  0  0  0  0  0  0  0
   -2.6380   24.7280  -28.5360 N   0  0  0  0  0  0  0  0  0  0  0  0
   -2.9190   24.1310  -29.6460 C   0  0  0  0  0  0  0  0  0  0  0  0
   -3.8910   24.5430  -30.4860 N   0  0  0  0  0  0  0  0  0  0  0  0
   -3.9960   23.7700  -31.5670 N   0  0  0  0  0  0  0  0  0  0  0  0
   -3.1110   22.7490  -31.5760 C   0  0  0  0  0  0  0  0  0  0  0  0
   -3.0050   21.5500  -32.8980 S   0  0  0  0  0  0  0  0  0  0  0  0
   -4.7410   21.0950  -32.7490 C   0  0  0  0  0  0  0  0  0  0  0  0
   -5.6110   22.0520  -32.3560 N   0  0  0  0  0  0  0  0  0  0  0  0
   -6.9300   21.7980  -32.1890 C   0  0  0  0  0  0  0  0  0  0  0  0
   -7.7710   22.8340  -31.7770 C   0  0  0  0  0  0  0  0  0  0  0  0
   -7.3575   23.8374  -31.5974 H   0  0  0  0  0  0  0  0  0  0  0  0
   -9.1300   22.6010  -31.5930 C   0  0  0  0  0  0  0  0  0  0  0  0
   -9.7881   23.4212  -31.2703 H   0  0  0  0  0  0  0  0  0  0  0  0
   -9.6600   21.3330  -31.8160 C   0  0  0  0  0  0  0  0  0  0  0  0
  -10.7359   21.1610  -31.6649 H   0  0  0  0  0  0  0  0  0  0  0  0
   -8.8390   20.2680  -32.2320 C   0  0  0  0  0  0  0  0  0  0  0  0
   -9.4900   18.9240  -32.4480 C   0  0  0  0  0  0  0  0  0  0  0  0
   -9.7129   18.4638  -31.4741 H   0  0  0  0  0  0  0  0  0  0  0  0
  -10.4241   19.0557  -33.0137 H   0  0  0  0  0  0  0  0  0  0  0  0
   -8.8075   18.2727  -33.0137 H   0  0  0  0  0  0  0  0  0  0  0  0
   -7.4410   20.4990  -32.4250 C   0  0  0  0  0  0  0  0  0  0  0  0
   -6.5140   19.5110  -32.8490 C   0  0  0  0  0  0  0  0  0  0  0  0
   -6.9020   18.3360  -33.1000 O   0  0  0  0  0  0  0  0  0  0  0  0
   -5.1860   19.8230  -33.0030 N   0  0  0  0  0  0  0  0  0  0  0  0
   -4.2640   18.8060  -33.4430 C   0  0  0  0  0  0  0  0  0  0  0  0
   -3.0920   18.5480  -32.7160 C   0  0  0  0  0  0  0  0  0  0  0  0
   -2.8761   19.1239  -31.8040 H   0  0  0  0  0  0  0  0  0  0  0  0
   -2.1980   17.5640  -33.1440 C   0  0  0  0  0  0  0  0  0  0  0  0
   -1.2851   17.3635  -32.5640 H   0  0  0  0  0  0  0  0  0  0  0  0
   -2.4610   16.8270  -34.3160 C   0  0  0  0  0  0  0  0  0  0  0  0
   -1.5970   15.8270  -34.7850 O   0  0  0  0  0  0  0  0  0  0  0  0
   -1.8180   15.0620  -35.9660 C   0  0  0  0  0  0  0  0  0  0  0  0
   -2.1135   14.0390  -35.6902 H   0  0  0  0  0  0  0  0  0  0  0  0
   -2.6184   15.5274  -36.5599 H   0  0  0  0  0  0  0  0  0  0  0  0
   -0.8927   15.0289  -36.5599 H   0  0  0  0  0  0  0  0  0  0  0  0
   -3.6250   17.0960  -35.0440 C   0  0  0  0  0  0  0  0  0  0  0  0
   -3.8379   16.5274  -35.9613 H   0  0  0  0  0  0  0  0  0  0  0  0
   -4.5200   18.0810  -34.6160 C   0  0  0  0  0  0  0  0  0  0  0  0
   -5.4281   18.2881  -35.2012 H   0  0  0  0  0  0  0  0  0  0  0  0
   -2.1230   22.7610  -30.2110 S   0  0  0  0  0  0  0  0  0  0  0  0
  1  2  1  0
  2  3  2  0
  3  4  1  0
  4  5  1  0
  5  6  2  0
  6  7  1  0
  7  8  1  0
  8  9  2  0
  9 10  1  0
 10 11  2  0
 11 12  1  0
 11 13  1  0
 13 14  1  0
 13 15  2  0
 15 16  1  0
 15 17  1  0
 17 18  1  0
 18 19  1  0
 18 20  1  0
 18 21  1  0
 17 22  2  0
 22 23  1  0
 23 24  2  0
 23 25  1  0
 25 26  1  0
 26 27  2  0
 27 28  1  0
 27 29  1  0
 29 30  1  0
 29 31  2  0
 31 32  1  0
 32 33  1  0
 33 34  1  0
 33 35  1  0
 33 36  1  0
 31 37  1  0
 37 38  1  0
 37 39  2  0
 39 40  1  0
  6 41  1  0
 41  3  1  0
 25  8  1  0
 39 26  1  0
 22 10  1  0
M  CHG  1   4  -1
M  END
>  <UniqueID>  (24) 
23

>  <SMILES>  (24) 
[H]/N=c1\[n-]nc(Sc2nc3cccc(C)c3c(=O)n2-c2ccc(OC)cc2)s1

>  <Energy>  (24) 
92.93541581033783

>  <Genealogy>  (24) 
COc1ccc(-n2c(Sc3n[n-]c(=N)s3)nc3cccc(C)c3c2=O)cc1 (protonated)
[H]/N=c1\[n-]nc(Sc2nc3cccc(C)c3c(=O)n2-c2ccc(OC)cc2)s1 (cis-trans isomerization)
[H]/N=c1\[n-]nc(Sc2nc3cccc(C)c3c(=O)n2-c2ccc(OC)cc2)s1 (3D coordinates assigned)
[H]/N=c1\[n-]nc(Sc2nc3cccc(C)c3c(=O)n2-c2ccc(OC)cc2)s1 (optimized conformer: 92.93541581033783 kcal/mol)

>  <smiles>  (24) 
COc1ccc(-n2c(Sc3n[nH]c(=N)s3)nc3cccc(C)c3c2=O)cc1

>  <score_type>  (24) 
oracle

>  <origin>  (24) 
adg

>  <m_score__min__energy>  (24) 
-9.5500000000000007

>  <m_primary>  (24) 
energy

$$$$
24:0
     RDKit          3D

 45 46  0  0  0  0  0  0  0  0999 V2000
   -2.8920   24.5140  -27.3110 C   0  0  0  0  0  0  0  0  0  0  0  0
   -4.2060   23.8780  -27.7590 C   0  0  0  0  0  0  0  0  0  0  0  0
   -4.0630   23.0020  -29.0120 C   0  0  0  0  0  0  0  0  0  0  0  0
   -4.5520   23.7930  -30.5530 S   0  0  0  0  0  0  0  0  0  0  0  0
   -3.8630   25.1270  -30.6080 O   0  0  0  0  0  0  0  0  0  0  0  0
   -4.0800   22.9830  -31.7270 O   0  0  0  0  0  0  0  0  0  0  0  0
   -6.2760   24.0750  -30.6810 N   0  0  0  0  0  0  0  0  0  0  0  0
   -7.0480   23.2150  -29.7570 C   0  0  0  0  0  0  0  0  0  0  0  0
   -7.5630   21.9760  -30.4310 C   0  0  0  0  0  0  0  0  0  0  0  0
   -8.1030   22.0660  -31.6520 C   0  0  0  0  0  0  0  0  0  0  0  0
   -8.6610   20.8600  -32.3230 C   0  0  0  0  0  0  0  0  0  0  0  0
   -9.9130   20.6840  -32.3200 O   0  0  0  0  0  0  0  0  0  0  0  0
   -7.8000   19.8710  -32.9410 N   0  0  0  0  0  0  0  0  0  0  0  0
   -6.4380   20.4270  -33.0960 C   0  0  0  0  0  0  0  0  0  0  0  0
   -5.5110   19.4200  -33.7910 C   0  0  0  0  0  0  0  0  0  0  0  0
   -5.4770   18.0980  -33.0190 C   0  0  0  0  0  0  0  0  0  0  0  0
   -6.8940   17.5620  -32.7970 C   0  0  0  0  0  0  0  0  0  0  0  0
   -7.7750   18.6310  -32.1330 C   0  0  0  0  0  0  0  0  0  0  0  0
   -8.1030   23.4230  -32.3120 C   0  0  0  0  0  0  0  0  0  0  0  0
   -6.7430   24.1100  -32.0920 C   0  0  0  0  0  0  0  0  0  0  0  0
   -2.8504   24.5342  -26.2120 H   0  0  0  0  0  0  0  0  0  0  0  0
   -2.0483   23.9246  -27.6992 H   0  0  0  0  0  0  0  0  0  0  0  0
   -2.8308   25.5414  -27.6992 H   0  0  0  0  0  0  0  0  0  0  0  0
   -4.5886   23.2532  -26.9385 H   0  0  0  0  0  0  0  0  0  0  0  0
   -4.8940   24.6980  -28.0126 H   0  0  0  0  0  0  0  0  0  0  0  0
   -3.0080   22.7038  -29.1013 H   0  0  0  0  0  0  0  0  0  0  0  0
   -4.7468   22.1518  -28.8724 H   0  0  0  0  0  0  0  0  0  0  0  0
   -6.3967   22.9189  -28.9214 H   0  0  0  0  0  0  0  0  0  0  0  0
   -7.9152   23.7923  -29.4040 H   0  0  0  0  0  0  0  0  0  0  0  0
   -7.4969   21.0016  -29.9248 H   0  0  0  0  0  0  0  0  0  0  0  0
   -8.1790   19.6210  -33.8830 H   0  0  0  0  0  0  0  0  0  0  0  0
   -6.4903   21.3448  -33.7001 H   0  0  0  0  0  0  0  0  0  0  0  0
   -6.0324   20.6468  -32.0974 H   0  0  0  0  0  0  0  0  0  0  0  0
   -5.8789   19.2339  -34.8108 H   0  0  0  0  0  0  0  0  0  0  0  0
   -4.4940   19.8380  -33.8241 H   0  0  0  0  0  0  0  0  0  0  0  0
   -4.8979   17.3598  -33.5932 H   0  0  0  0  0  0  0  0  0  0  0  0
   -5.0087   18.2735  -32.0393 H   0  0  0  0  0  0  0  0  0  0  0  0
   -7.3318   17.2833  -33.7669 H   0  0  0  0  0  0  0  0  0  0  0  0
   -6.8429   16.6830  -32.1377 H   0  0  0  0  0  0  0  0  0  0  0  0
   -8.7999   18.2436  -32.0359 H   0  0  0  0  0  0  0  0  0  0  0  0
   -7.3575   18.8651  -31.1426 H   0  0  0  0  0  0  0  0  0  0  0  0
   -8.2819   23.3043  -33.3909 H   0  0  0  0  0  0  0  0  0  0  0  0
   -8.8981   24.0417  -31.8703 H   0  0  0  0  0  0  0  0  0  0  0  0
   -5.9933   23.6043  -32.7184 H   0  0  0  0  0  0  0  0  0  0  0  0
   -6.8708   25.1687  -32.3617 H   0  0  0  0  0  0  0  0  0  0  0  0
  1  2  1  0
  2  3  1  0
  3  4  1  0
  4  5  2  0
  4  6  2  0
  4  7  1  0
  7  8  1  0
  8  9  1  0
  9 10  2  0
 10 11  1  0
 11 12  2  0
 11 13  1  0
 13 14  1  0
 14 15  1  0
 15 16  1  0
 16 17  1  0
 17 18  1  0
 10 19  1  0
 19 20  1  0
 20  7  1  0
 18 13  1  0
  1 21  1  0
  1 22  1  0
  1 23  1  0
  2 24  1  0
  2 25  1  0
  3 26  1  0
  3 27  1  0
  8 28  1  0
  8 29  1  0
  9 30  1  0
 13 31  1  0
 14 32  1  0
 14 33  1  0
 15 34  1  0
 15 35  1  0
 16 36  1  0
 16 37  1  0
 17 38  1  0
 17 39  1  0
 18 40  1  0
 18 41  1  0
 19 42  1  0
 19 43  1  0
 20 44  1  0
 20 45  1  0
M  CHG  1  13   1
M  END
>  <UniqueID>  (25) 
24

>  <SMILES>  (25) 
CCCS(=O)(=O)N1CC=C(C(=O)[NH+]2CCCCC2)CC1

>  <Energy>  (25) 
43.069289537943504

>  <Genealogy>  (25) 
CCCS(=O)(=O)N1CC=C(C(=O)[NH+]2CCCCC2)CC1 (protonated)
CCCS(=O)(=O)N1CC=C(C(=O)[NH+]2CCCCC2)CC1 (3D coordinates assigned)
CCCS(=O)(=O)N1CC=C(C(=O)[NH+]2CCCCC2)CC1 (nonaromatic ring conformer: 43.069289537943504 kcal/mol)

>  <smiles>  (25) 
CCCS(=O)(=O)N1CC=C(C(=O)N2CCCCC2)CC1

>  <score_type>  (25) 
oracle

>  <origin>  (25) 
adg

>  <m_score__min__energy>  (25) 
-8.6799999999999997

>  <m_primary>  (25) 
energy

$$$$
25:0
     RDKit          3D

 39 41  0  0  0  0  0  0  0  0999 V2000
   -1.1750   25.2730  -29.8860 H   0  0  0  0  0  0  0  0  0  0  0  0
   -2.0550   25.1680  -29.3340 N   0  0  0  0  0  0  0  0  0  0  0  0
   -3.1060   24.5460  -29.7710 C   0  0  0  0  0  0  0  0  0  0  0  0
   -4.0510   25.2470  -30.4480 N   0  0  0  0  0  0  0  0  0  0  0  0
   -5.1690   24.6500  -30.9340 C   0  0  0  0  0  0  0  0  0  0  0  0
   -5.9215   25.2434  -31.4740 H   0  0  0  0  0  0  0  0  0  0  0  0
   -5.3610   23.2740  -30.7450 C   0  0  0  0  0  0  0  0  0  0  0  0
   -6.5680   22.5950  -31.2810 C   0  0  0  0  0  0  0  0  0  0  0  0
   -6.5190   21.2340  -31.6360 C   0  0  0  0  0  0  0  0  0  0  0  0
   -5.5814   20.6715  -31.5151 H   0  0  0  0  0  0  0  0  0  0  0  0
   -7.6530   20.5920  -32.1410 C   0  0  0  0  0  0  0  0  0  0  0  0
   -7.6040   19.5291  -32.4199 H   0  0  0  0  0  0  0  0  0  0  0  0
   -8.8480   21.2980  -32.2920 C   0  0  0  0  0  0  0  0  0  0  0  0
   -9.7408   20.7902  -32.6859 H   0  0  0  0  0  0  0  0  0  0  0  0
   -8.9100   22.6490  -31.9430 C   0  0  0  0  0  0  0  0  0  0  0  0
   -9.8519   23.2044  -32.0633 H   0  0  0  0  0  0  0  0  0  0  0  0
   -7.7770   23.2970  -31.4410 C   0  0  0  0  0  0  0  0  0  0  0  0
   -7.8312   24.3616  -31.1696 H   0  0  0  0  0  0  0  0  0  0  0  0
   -4.4130   22.5660  -30.0640 N   0  0  0  0  0  0  0  0  0  0  0  0
   -4.5460   21.5440  -29.8920 H   0  0  0  0  0  0  0  0  0  0  0  0
   -3.2930   23.1640  -29.5700 C   0  0  0  0  0  0  0  0  0  0  0  0
   -2.3360   22.3740  -28.8520 N   0  0  0  0  0  0  0  0  0  0  0  0
   -2.6340   21.9760  -27.4740 C   0  0  0  0  0  0  0  0  0  0  0  0
   -2.6449   22.8707  -26.8341 H   0  0  0  0  0  0  0  0  0  0  0  0
   -3.6157   21.4801  -27.4537 H   0  0  0  0  0  0  0  0  0  0  0  0
   -1.5810   21.0010  -26.9540 C   0  0  0  0  0  0  0  0  0  0  0  0
   -0.6693   21.5521  -26.6801 H   0  0  0  0  0  0  0  0  0  0  0  0
   -1.9618   20.4765  -26.0652 H   0  0  0  0  0  0  0  0  0  0  0  0
   -1.2730   20.0310  -28.0150 N   0  0  0  0  0  0  0  0  0  0  0  0
   -0.5090   18.8980  -27.4700 C   0  0  0  0  0  0  0  0  0  0  0  0
   -0.5334   18.9342  -26.3709 H   0  0  0  0  0  0  0  0  0  0  0  0
   -0.9559   17.9542  -27.8158 H   0  0  0  0  0  0  0  0  0  0  0  0
    0.5335   18.9585  -27.8158 H   0  0  0  0  0  0  0  0  0  0  0  0
   -0.5310   20.6670  -29.1260 C   0  0  0  0  0  0  0  0  0  0  0  0
    0.5315   20.7261  -28.8474 H   0  0  0  0  0  0  0  0  0  0  0  0
   -0.6915   20.0479  -30.0210 H   0  0  0  0  0  0  0  0  0  0  0  0
   -1.0310   22.0930  -29.4600 C   0  0  0  0  0  0  0  0  0  0  0  0
   -0.2993   22.8231  -29.0838 H   0  0  0  0  0  0  0  0  0  0  0  0
   -1.1417   22.1672  -30.5519 H   0  0  0  0  0  0  0  0  0  0  0  0
  1  2  1  0
  2  3  2  0
  3  4  1  0
  4  5  1  0
  5  6  1  0
  5  7  2  0
  7  8  1  0
  8  9  2  0
  9 10  1  0
  9 11  1  0
 11 12  1  0
 11 13  2  0
 13 14  1  0
 13 15  1  0
 15 16  1  0
 15 17  2  0
 17 18  1  0
  7 19  1  0
 19 20  1  0
 19 21  2  0
 21 22  1  0
 22 23  1  0
 23 24  1  0
 23 25  1  0
 23 26  1  0
 26 27  1  0
 26 28  1  0
 26 29  1  0
 29 30  1  0
 30 31  1  0
 30 32  1  0
 30 33  1  0
 29 34  1  0
 34 35  1  0
 34 36  1  0
 34 37  1  0
 37 38  1  0
 37 39  1  0
 21  3  1  0
 37 22  1  0
 17  8  1  0
M  CHG  2   4  -1  19   1
M  END
>  <UniqueID>  (26) 
25

>  <SMILES>  (26) 
[H]/N=c1/[n-]cc(-c2ccccc2)[nH+]c1N1CCN(C)CC1

>  <Energy>  (26) 
58.071356713969585

>  <Genealogy>  (26) 
CN1CCN(c2[nH+]c(-c3ccccc3)c[n-]c2=N)CC1 (protonated)
[H]/N=c1/[n-]cc(-c2ccccc2)[nH+]c1N1CCN(C)CC1 (cis-trans isomerization)
[H]/N=c1/[n-]cc(-c2ccccc2)[nH+]c1N1CCN(C)CC1 (3D coordinates assigned)
[H]/N=c1/[n-]cc(-c2ccccc2)[nH+]c1N1CCN(C)CC1 (nonaromatic ring conformer: 58.071356713969585 kcal/mol)

>  <smiles>  (26) 
CN1CCN(c2nc(-c3ccccc3)c[nH]c2=N)CC1

>  <score_type>  (26) 
oracle

>  <origin>  (26) 
adg

>  <m_score__min__energy>  (26) 
-8.4800000000000004

>  <m_primary>  (26) 
energy

$$$$
26:0
     RDKit          3D

 63 65  0  0  0  0  0  0  0  0999 V2000
   -7.6310   19.8730  -32.7180 C   0  0  0  0  0  0  0  0  0  0  0  0
   -6.7240   20.9180  -33.0530 O   0  0  0  0  0  0  0  0  0  0  0  0
   -5.3310   20.8280  -32.9150 C   0  0  0  0  0  0  0  0  0  0  0  0
   -4.7400   19.5600  -32.9410 C   0  0  0  0  0  0  0  0  0  0  0  0
   -3.3610   19.4150  -32.7770 C   0  0  0  0  0  0  0  0  0  0  0  0
   -2.5400   20.5360  -32.5400 C   0  0  0  0  0  0  0  0  0  0  0  0
   -1.0360   20.3480  -32.3290 C   0  0  2  0  0  0  0  0  0  0  0  0
   -0.5350   20.7850  -30.9090 C   0  0  0  0  0  0  0  0  0  0  0  0
   -1.0410   19.9280  -29.8130 N   0  0  0  0  0  0  0  0  0  0  0  0
   -0.5170   20.3370  -28.4980 C   0  0  0  0  0  0  0  0  0  0  0  0
   -1.6250   20.9220  -27.6060 C   0  0  0  0  0  0  0  0  0  0  0  0
   -2.2950   22.1050  -28.2650 C   0  0  0  0  0  0  0  0  0  0  0  0
   -3.4870   21.9310  -28.9830 C   0  0  0  0  0  0  0  0  0  0  0  0
   -4.0380   22.9910  -29.7040 C   0  0  0  0  0  0  0  0  0  0  0  0
   -3.4010   24.2460  -29.7220 C   0  0  0  0  0  0  0  0  0  0  0  0
   -3.9020   25.3230  -30.4670 O   0  0  0  0  0  0  0  0  0  0  0  0
   -5.2820   25.6480  -30.5840 C   0  0  0  0  0  0  0  0  0  0  0  0
   -2.2200   24.4350  -28.9890 C   0  0  0  0  0  0  0  0  0  0  0  0
   -1.6130   25.7010  -29.0210 O   0  0  0  0  0  0  0  0  0  0  0  0
   -0.9060   26.2780  -27.9290 C   0  0  0  0  0  0  0  0  0  0  0  0
   -1.6700   23.3610  -28.2610 C   0  0  0  0  0  0  0  0  0  0  0  0
   -0.2420   20.9370  -33.4470 N   0  0  0  0  0  0  0  0  0  0  0  0
   -0.8650   20.7480  -34.7690 C   0  0  0  0  0  0  0  0  0  0  0  0
   -0.0940   21.5190  -35.8640 C   0  0  0  0  0  0  0  0  0  0  0  0
    1.0480   22.2660  -35.3190 N   0  0  0  0  0  0  0  0  0  0  0  0
    1.9420   21.3800  -34.5650 C   0  0  0  0  0  0  0  0  0  0  0  0
    1.1930   20.5810  -33.4800 C   0  0  0  0  0  0  0  0  0  0  0  0
   -3.1350   21.8140  -32.5690 C   0  0  0  0  0  0  0  0  0  0  0  0
   -4.5130   21.9590  -32.7500 C   0  0  0  0  0  0  0  0  0  0  0  0
   -7.7046   19.7882  -31.6237 H   0  0  0  0  0  0  0  0  0  0  0  0
   -8.6229   20.1004  -33.1357 H   0  0  0  0  0  0  0  0  0  0  0  0
   -7.2663   18.9230  -33.1357 H   0  0  0  0  0  0  0  0  0  0  0  0
   -5.3675   18.6693  -33.0920 H   0  0  0  0  0  0  0  0  0  0  0  0
   -2.9097   18.4134  -32.8335 H   0  0  0  0  0  0  0  0  0  0  0  0
   -0.8571   19.2629  -32.3544 H   0  0  0  0  0  0  0  0  0  0  0  0
    0.5643   20.7470  -30.9011 H   0  0  0  0  0  0  0  0  0  0  0  0
   -0.9195   21.7998  -30.7291 H   0  0  0  0  0  0  0  0  0  0  0  0
   -2.0830   19.9440  -29.7960 H   0  0  0  0  0  0  0  0  0  0  0  0
   -0.7500   18.9380  -29.9870 H   0  0  0  0  0  0  0  0  0  0  0  0
   -0.0820   19.4591  -27.9979 H   0  0  0  0  0  0  0  0  0  0  0  0
    0.2444   21.1149  -28.6570 H   0  0  0  0  0  0  0  0  0  0  0  0
   -2.3789   20.1441  -27.4150 H   0  0  0  0  0  0  0  0  0  0  0  0
   -1.1686   21.2622  -26.6647 H   0  0  0  0  0  0  0  0  0  0  0  0
   -3.9906   20.9531  -28.9778 H   0  0  0  0  0  0  0  0  0  0  0  0
   -4.9751   22.8451  -30.2612 H   0  0  0  0  0  0  0  0  0  0  0  0
   -5.7207   25.7513  -29.5806 H   0  0  0  0  0  0  0  0  0  0  0  0
   -5.3903   26.5962  -31.1309 H   0  0  0  0  0  0  0  0  0  0  0  0
   -5.8021   24.8478  -31.1309 H   0  0  0  0  0  0  0  0  0  0  0  0
   -1.3404   25.9235  -26.9826 H   0  0  0  0  0  0  0  0  0  0  0  0
    0.1523   25.9824  -27.9802 H   0  0  0  0  0  0  0  0  0  0  0  0
   -0.9835   27.3741  -27.9802 H   0  0  0  0  0  0  0  0  0  0  0  0
   -0.7442   23.5085  -27.6856 H   0  0  0  0  0  0  0  0  0  0  0  0
   -0.8641   19.6762  -35.0164 H   0  0  0  0  0  0  0  0  0  0  0  0
   -1.8938   21.1352  -34.7284 H   0  0  0  0  0  0  0  0  0  0  0  0
    0.2766   20.7997  -36.6091 H   0  0  0  0  0  0  0  0  0  0  0  0
   -0.7862   22.2443  -36.3165 H   0  0  0  0  0  0  0  0  0  0  0  0
    0.6900   23.0160  -34.6800 H   0  0  0  0  0  0  0  0  0  0  0  0
    2.4119   20.6728  -35.2643 H   0  0  0  0  0  0  0  0  0  0  0  0
    2.6936   22.0071  -34.0633 H   0  0  0  0  0  0  0  0  0  0  0  0
    1.2911   19.5065  -33.6941 H   0  0  0  0  0  0  0  0  0  0  0  0
    1.6343   20.8241  -32.5022 H   0  0  0  0  0  0  0  0  0  0  0  0
   -2.5063   22.7084  -32.4476 H   0  0  0  0  0  0  0  0  0  0  0  0
   -4.9601   22.9640  -32.7634 H   0  0  0  0  0  0  0  0  0  0  0  0
  1  2  1  0
  2  3  1  0
  3  4  2  0
  4  5  1  0
  5  6  2  0
  6  7  1  0
  7  8  1  0
  8  9  1  0
  9 10  1  0
 10 11  1  0
 11 12  1  0
 12 13  2  0
 13 14  1  0
 14 15  2  0
 15 16  1  0
 16 17  1  0
 15 18  1  0
 18 19  1  0
 19 20  1  0
 18 21  2  0
  7 22  1  0
 22 23  1  0
 23 24  1  0
 24 25  1  0
 25 26  1  0
 26 27  1  0
  6 28  1  0
 28 29  2  0
 29  3  1  0
 21 12  1  0
 27 22  1  0
  1 30  1  0
  1 31  1  0
  1 32  1  0
  4 33  1  0
  5 34  1  0
  7 35  1  1
  8 36  1  0
  8 37  1  0
  9 38  1  0
  9 39  1  0
 10 40  1  0
 10 41  1  0
 11 42  1  0
 11 43  1  0
 13 44  1  0
 14 45  1  0
 17 46  1  0
 17 47  1  0
 17 48  1  0
 20 49  1  0
 20 50  1  0
 20 51  1  0
 21 52  1  0
 23 53  1  0
 23 54  1  0
 24 55  1  0
 24 56  1  0
 25 57  1  0
 26 58  1  0
 26 59  1  0
 27 60  1  0
 27 61  1  0
 28 62  1  0
 29 63  1  0
M  CHG  1   9   1
M  END
>  <UniqueID>  (27) 
26

>  <SMILES>  (27) 
COc1ccc([C@H](C[NH2+]CCc2ccc(OC)c(OC)c2)N2CCNCC2)cc1

>  <Energy>  (27) 
76.34265813688069

>  <Genealogy>  (27) 
COc1ccc(C(C[NH2+]CCc2ccc(OC)c(OC)c2)N2CCNCC2)cc1 (protonated)
COc1ccc([C@H](C[NH2+]CCc2ccc(OC)c(OC)c2)N2CCNCC2)cc1 (chirality)
COc1ccc([C@H](C[NH2+]CCc2ccc(OC)c(OC)c2)N2CCNCC2)cc1 (3D coordinates assigned)
COc1ccc([C@H](C[NH2+]CCc2ccc(OC)c(OC)c2)N2CCNCC2)cc1 (nonaromatic ring conformer: 76.34265813688069 kcal/mol)

>  <smiles>  (27) 
COc1ccc(C(CNCCc2ccc(OC)c(OC)c2)N2CCNCC2)cc1

>  <score_type>  (27) 
oracle

>  <origin>  (27) 
adg

>  <m_score__min__energy>  (27) 
-7.8499999999999996

>  <m_primary>  (27) 
energy

$$$$
27:0
     RDKit          3D

 66 70  0  0  0  0  0  0  0  0999 V2000
    2.3730   20.3260  -34.2760 C   0  0  0  0  0  0  0  0  0  0  0  0
    1.0070   20.3260  -33.5900 C   0  0  0  0  0  0  0  0  0  0  0  0
    0.1120   21.3660  -34.1430 N   0  0  0  0  0  0  0  0  0  0  0  0
   -0.0740   21.1920  -35.5930 C   0  0  0  0  0  0  0  0  0  0  0  0
   -1.1630   21.5660  -33.4100 C   0  0  0  0  0  0  0  0  0  0  0  0
   -1.7980   20.2990  -32.7930 C   0  0  0  0  0  0  0  0  0  0  0  0
   -3.1240   20.5570  -32.2160 N   0  0  0  0  0  0  0  0  0  0  0  0
   -4.2690   19.9920  -32.6520 C   0  0  0  0  0  0  0  0  0  0  0  0
   -5.3260   20.5250  -31.9370 C   0  0  0  0  0  0  0  0  0  0  0  0
   -6.7610   20.1770  -32.0890 C   0  0  0  0  0  0  0  0  0  0  0  0
   -7.7430   21.1860  -32.1060 C   0  0  0  0  0  0  0  0  0  0  0  0
   -9.0940   20.8570  -32.2540 C   0  0  0  0  0  0  0  0  0  0  0  0
   -9.4810   19.5220  -32.3850 C   0  0  0  0  0  0  0  0  0  0  0  0
   -8.5170   18.5130  -32.3670 C   0  0  0  0  0  0  0  0  0  0  0  0
   -7.1630   18.8350  -32.2210 C   0  0  0  0  0  0  0  0  0  0  0  0
   -4.8400   21.4300  -31.0670 N   0  0  0  0  0  0  0  0  0  0  0  0
   -3.5030   21.4440  -31.2550 C   0  0  0  0  0  0  0  0  0  0  0  0
   -2.5820   22.3290  -30.4420 C   0  0  0  0  0  0  0  0  0  0  0  0
   -3.3650   23.5050  -29.8330 C   0  0  0  0  0  0  0  0  0  0  0  0
   -2.3960   24.4590  -29.1180 C   0  0  0  0  0  0  0  0  0  0  0  0
   -1.4030   23.7160  -28.3340 N   0  0  0  0  0  0  0  0  0  0  0  0
   -0.3180   24.4280  -27.7280 C   0  0  0  0  0  0  0  0  0  0  0  0
    0.9380   24.2710  -28.2210 N   0  0  0  0  0  0  0  0  0  0  0  0
    1.9970   24.9220  -27.6790 C   0  0  0  0  0  0  0  0  0  0  0  0
    1.8190   25.7560  -26.6210 N   0  0  0  0  0  0  0  0  0  0  0  0
    0.5850   25.9560  -26.0900 C   0  0  0  0  0  0  0  0  0  0  0  0
    0.4200   26.8220  -25.0030 C   0  0  0  0  0  0  0  0  0  0  0  0
   -0.8510   27.0290  -24.4590 C   0  0  0  0  0  0  0  0  0  0  0  0
   -1.9610   26.3720  -24.9970 C   0  0  0  0  0  0  0  0  0  0  0  0
   -1.8080   25.5070  -26.0830 C   0  0  0  0  0  0  0  0  0  0  0  0
   -0.5340   25.2890  -26.6360 C   0  0  0  0  0  0  0  0  0  0  0  0
   -1.5810   22.2880  -28.0560 C   0  0  0  0  0  0  0  0  0  0  0  0
   -1.8390   21.5030  -29.3550 C   0  0  0  0  0  0  0  0  0  0  0  0
    2.7007   19.2889  -34.4406 H   0  0  0  0  0  0  0  0  0  0  0  0
    2.2976   20.8445  -35.2432 H   0  0  0  0  0  0  0  0  0  0  0  0
    3.1037   20.8445  -33.6379 H   0  0  0  0  0  0  0  0  0  0  0  0
    0.5379   19.3412  -33.7316 H   0  0  0  0  0  0  0  0  0  0  0  0
    1.1616   20.5418  -32.5225 H   0  0  0  0  0  0  0  0  0  0  0  0
   -0.8663   20.4509  -35.7747 H   0  0  0  0  0  0  0  0  0  0  0  0
   -0.3609   22.1535  -36.0438 H   0  0  0  0  0  0  0  0  0  0  0  0
    0.8662   20.8417  -36.0438 H   0  0  0  0  0  0  0  0  0  0  0  0
   -0.9733   22.2786  -32.5937 H   0  0  0  0  0  0  0  0  0  0  0  0
   -1.8833   21.9219  -34.1613 H   0  0  0  0  0  0  0  0  0  0  0  0
   -1.8980   19.5361  -33.5792 H   0  0  0  0  0  0  0  0  0  0  0  0
   -1.1405   19.9585  -31.9795 H   0  0  0  0  0  0  0  0  0  0  0  0
   -4.3486   19.2334  -33.4446 H   0  0  0  0  0  0  0  0  0  0  0  0
   -7.4454   22.2399  -32.0022 H   0  0  0  0  0  0  0  0  0  0  0  0
   -9.8539   21.6522  -32.2673 H   0  0  0  0  0  0  0  0  0  0  0  0
  -10.5443   19.2658  -32.5022 H   0  0  0  0  0  0  0  0  0  0  0  0
   -8.8225   17.4611  -32.4679 H   0  0  0  0  0  0  0  0  0  0  0  0
   -6.4087   18.0345  -32.2094 H   0  0  0  0  0  0  0  0  0  0  0  0
   -5.3750   21.9950  -30.3700 H   0  0  0  0  0  0  0  0  0  0  0  0
   -1.8165   22.7500  -31.1105 H   0  0  0  0  0  0  0  0  0  0  0  0
   -3.8891   24.0484  -30.6330 H   0  0  0  0  0  0  0  0  0  0  0  0
   -4.0962   23.1185  -29.1078 H   0  0  0  0  0  0  0  0  0  0  0  0
   -1.8753   25.0711  -29.8691 H   0  0  0  0  0  0  0  0  0  0  0  0
   -2.9754   25.0958  -28.4333 H   0  0  0  0  0  0  0  0  0  0  0  0
    3.0036   24.7744  -28.0973 H   0  0  0  0  0  0  0  0  0  0  0  0
    1.2914   27.3403  -24.5763 H   0  0  0  0  0  0  0  0  0  0  0  0
   -0.9778   27.7108  -23.6052 H   0  0  0  0  0  0  0  0  0  0  0  0
   -2.9586   26.5367  -24.5637 H   0  0  0  0  0  0  0  0  0  0  0  0
   -2.6853   24.9958  -26.5060 H   0  0  0  0  0  0  0  0  0  0  0  0
   -0.6717   21.8988  -27.5747 H   0  0  0  0  0  0  0  0  0  0  0  0
   -2.4498   22.1649  -27.3927 H   0  0  0  0  0  0  0  0  0  0  0  0
   -0.8706   21.1800  -29.7647 H   0  0  0  0  0  0  0  0  0  0  0  0
   -2.4871   20.6528  -29.0957 H   0  0  0  0  0  0  0  0  0  0  0  0
  1  2  1  0
  2  3  1  0
  3  4  1  0
  3  5  1  0
  5  6  1  0
  6  7  1  0
  7  8  1  0
  8  9  2  0
  9 10  1  0
 10 11  2  0
 11 12  1  0
 12 13  2  0
 13 14  1  0
 14 15  2  0
  9 16  1  0
 16 17  2  0
 17 18  1  0
 18 19  1  0
 19 20  1  0
 20 21  1  0
 21 22  1  0
 22 23  2  0
 23 24  1  0
 24 25  2  0
 25 26  1  0
 26 27  2  0
 27 28  1  0
 28 29  2  0
 29 30  1  0
 30 31  2  0
 21 32  1  0
 32 33  1  0
 17  7  1  0
 33 18  1  0
 15 10  1  0
 31 22  1  0
 31 26  1  0
  1 34  1  0
  1 35  1  0
  1 36  1  0
  2 37  1  0
  2 38  1  0
  4 39  1  0
  4 40  1  0
  4 41  1  0
  5 42  1  0
  5 43  1  0
  6 44  1  0
  6 45  1  0
  8 46  1  0
 11 47  1  0
 12 48  1  0
 13 49  1  0
 14 50  1  0
 15 51  1  0
 16 52  1  0
 18 53  1  0
 19 54  1  0
 19 55  1  0
 20 56  1  0
 20 57  1  0
 24 58  1  0
 27 59  1  0
 28 60  1  0
 29 61  1  0
 30 62  1  0
 32 63  1  0
 32 64  1  0
 33 65  1  0
 33 66  1  0
M  CHG  1  16   1
M  END
>  <UniqueID>  (28) 
27

>  <SMILES>  (28) 
CCN(C)CCn1cc(-c2ccccc2)[nH+]c1C1CCN(c2ncnc3ccccc23)CC1

>  <Energy>  (28) 
116.59087453077323

>  <Genealogy>  (28) 
CCN(C)CCn1cc(-c2ccccc2)[nH+]c1C1CCN(c2ncnc3ccccc23)CC1 (protonated)
CCN(C)CCn1cc(-c2ccccc2)[nH+]c1C1CCN(c2ncnc3ccccc23)CC1 (3D coordinates assigned)
CCN(C)CCn1cc(-c2ccccc2)[nH+]c1C1CCN(c2ncnc3ccccc23)CC1 (nonaromatic ring conformer: 116.59087453077323 kcal/mol)

>  <smiles>  (28) 
CCN(C)CCn1cc(-c2ccccc2)nc1C1CCN(c2ncnc3ccccc23)CC1

>  <score_type>  (28) 
oracle

>  <origin>  (28) 
adg

>  <m_score__min__energy>  (28) 
-9.2899999999999991

>  <m_primary>  (28) 
energy

$$$$
28:0
     RDKit          3D

 35 37  0  0  0  0  0  0  0  0999 V2000
   -3.4260   24.0300  -30.4710 C   0  0  0  0  0  0  0  0  0  0  0  0
   -4.4170   24.8690  -31.1490 N   0  0  0  0  0  0  0  0  0  0  0  0
   -5.4740   25.3390  -30.2350 C   0  0  0  0  0  0  0  0  0  0  0  0
   -6.8610   24.7390  -30.5350 C   0  0  0  0  0  0  0  0  0  0  0  0
   -6.8480   23.9280  -31.7540 N   0  0  0  0  0  0  0  0  0  0  0  0
   -7.4610   22.6270  -31.8560 C   0  0  0  0  0  0  0  0  0  0  0  0
   -8.8500   22.4590  -31.5930 C   0  0  0  0  0  0  0  0  0  0  0  0
   -9.4680   21.1970  -31.7180 C   0  0  0  0  0  0  0  0  0  0  0  0
   -8.6900   20.1100  -32.1090 C   0  0  0  0  0  0  0  0  0  0  0  0
   -7.3650   20.2740  -32.3570 C   0  0  0  0  0  0  0  0  0  0  0  0
   -6.7610   19.1070  -32.7060 C   0  0  0  0  0  0  0  0  0  0  0  0
   -5.3910   19.0790  -32.9710 C   0  0  0  0  0  0  0  0  0  0  0  0
   -4.6620   20.2820  -32.8630 C   0  0  0  0  0  0  0  0  0  0  0  0
   -5.3070   21.4860  -32.4970 C   0  0  0  0  0  0  0  0  0  0  0  0
   -6.6980   21.4940  -32.2440 C   0  0  0  0  0  0  0  0  0  0  0  0
   -7.7540   17.9880  -32.7200 C   0  0  0  0  0  0  0  0  0  0  0  0
   -9.0850   18.6800  -32.3080 C   0  0  0  0  0  0  0  0  0  0  0  0
   -3.5443   24.1302  -29.3820 H   0  0  0  0  0  0  0  0  0  0  0  0
   -3.5751   22.9794  -30.7609 H   0  0  0  0  0  0  0  0  0  0  0  0
   -2.4144   24.3504  -30.7609 H   0  0  0  0  0  0  0  0  0  0  0  0
   -3.9310   25.6840  -31.5880 H   0  0  0  0  0  0  0  0  0  0  0  0
   -5.1919   25.0659  -29.2075 H   0  0  0  0  0  0  0  0  0  0  0  0
   -5.5573   26.4274  -30.3709 H   0  0  0  0  0  0  0  0  0  0  0  0
   -7.1661   24.1059  -29.6888 H   0  0  0  0  0  0  0  0  0  0  0  0
   -7.5687   25.5681  -30.6822 H   0  0  0  0  0  0  0  0  0  0  0  0
   -6.3380   24.3190  -32.5760 H   0  0  0  0  0  0  0  0  0  0  0  0
   -9.4514   23.3278  -31.2872 H   0  0  0  0  0  0  0  0  0  0  0  0
  -10.5414   21.0741  -31.5111 H   0  0  0  0  0  0  0  0  0  0  0  0
   -4.8917   18.1416  -33.2572 H   0  0  0  0  0  0  0  0  0  0  0  0
   -3.5808   20.2834  -33.0656 H   0  0  0  0  0  0  0  0  0  0  0  0
   -4.7266   22.4163  -32.4091 H   0  0  0  0  0  0  0  0  0  0  0  0
   -7.8347   17.5462  -33.7242 H   0  0  0  0  0  0  0  0  0  0  0  0
   -7.4763   17.1598  -32.0514 H   0  0  0  0  0  0  0  0  0  0  0  0
   -9.8387   18.5876  -33.1039 H   0  0  0  0  0  0  0  0  0  0  0  0
   -9.5400   18.2331  -31.4118 H   0  0  0  0  0  0  0  0  0  0  0  0
  1  2  1  0
  2  3  1  0
  3  4  1  0
  4  5  1  0
  5  6  1  0
  6  7  2  0
  7  8  1  0
  8  9  2  0
  9 10  1  0
 10 11  2  0
 11 12  1  0
 12 13  2  0
 13 14  1  0
 14 15  2  0
 11 16  1  0
 16 17  1  0
 15  6  1  0
 17  9  1  0
 15 10  1  0
  1 18  1  0
  1 19  1  0
  1 20  1  0
  2 21  1  0
  3 22  1  0
  3 23  1  0
  4 24  1  0
  4 25  1  0
  5 26  1  0
  7 27  1  0
  8 28  1  0
 12 29  1  0
 13 30  1  0
 14 31  1  0
 16 32  1  0
 16 33  1  0
 17 34  1  0
 17 35  1  0
M  END
>  <UniqueID>  (29) 
28

>  <SMILES>  (29) 
CNCCNc1ccc2c3c(cccc13)CC2

>  <Energy>  (29) 
57.25750043863471

>  <Genealogy>  (29) 
CNCCNc1ccc2c3c(cccc13)CC2 (3D coordinates assigned)
CNCCNc1ccc2c3c(cccc13)CC2 (nonaromatic ring conformer: 57.25750043863471 kcal/mol)

>  <smiles>  (29) 
CNCCNc1ccc2c3c(cccc13)CC2

>  <score_type>  (29) 
oracle

>  <origin>  (29) 
adg

>  <m_score__min__energy>  (29) 
-8.2799999999999994

>  <m_primary>  (29) 
energy

$$$$
29:0
     RDKit          3D

 33 35  0  0  0  0  0  0  0  0999 V2000
   -1.6800   24.9720  -28.3560 C   0  0  0  0  0  0  0  0  0  0  0  0
   -2.6730   25.2770  -29.3290 O   0  0  0  0  0  0  0  0  0  0  0  0
   -3.8140   24.4970  -29.5680 C   0  0  0  0  0  0  0  0  0  0  0  0
   -4.2040   23.4460  -28.7090 C   0  0  0  0  0  0  0  0  0  0  0  0
   -5.3510   22.6950  -28.9870 C   0  0  0  0  0  0  0  0  0  0  0  0
   -6.1150   22.9830  -30.1210 C   0  0  0  0  0  0  0  0  0  0  0  0
   -7.2270   22.2610  -30.4100 N   0  0  0  0  0  0  0  0  0  0  0  0
   -7.9550   22.5380  -31.5220 C   0  0  0  0  0  0  0  0  0  0  0  0
   -9.3960   21.5520  -31.9160 S   0  0  0  0  0  0  0  0  0  0  0  0
   -8.7280   20.0120  -31.1940 C   0  0  0  0  0  0  0  0  0  0  0  0
   -7.8150   19.3120  -32.1650 C   0  0  0  0  0  0  0  0  0  0  0  0
   -7.6610   17.9170  -32.1090 C   0  0  0  0  0  0  0  0  0  0  0  0
   -6.7830   17.2710  -32.9830 C   0  0  0  0  0  0  0  0  0  0  0  0
   -6.0490   18.0100  -33.9150 C   0  0  0  0  0  0  0  0  0  0  0  0
   -6.1960   19.3990  -33.9760 C   0  0  0  0  0  0  0  0  0  0  0  0
   -7.0750   20.0500  -33.1060 C   0  0  0  0  0  0  0  0  0  0  0  0
   -7.5750   23.5520  -32.3440 N   0  0  0  0  0  0  0  0  0  0  0  0
   -6.4880   24.2790  -32.0790 N   0  0  0  0  0  0  0  0  0  0  0  0
   -5.7300   24.0250  -30.9810 C   0  0  0  0  0  0  0  0  0  0  0  0
   -4.5870   24.7790  -30.7040 C   0  0  0  0  0  0  0  0  0  0  0  0
   -2.1019   25.1016  -27.3484 H   0  0  0  0  0  0  0  0  0  0  0  0
   -1.3490   23.9308  -28.4838 H   0  0  0  0  0  0  0  0  0  0  0  0
   -0.8216   25.6479  -28.4838 H   0  0  0  0  0  0  0  0  0  0  0  0
   -3.6028   23.2168  -27.8168 H   0  0  0  0  0  0  0  0  0  0  0  0
   -5.6512   21.8786  -28.3136 H   0  0  0  0  0  0  0  0  0  0  0  0
   -8.1633   20.2576  -30.2825 H   0  0  0  0  0  0  0  0  0  0  0  0
   -9.5683   19.3424  -30.9584 H   0  0  0  0  0  0  0  0  0  0  0  0
   -8.2335   17.3313  -31.3747 H   0  0  0  0  0  0  0  0  0  0  0  0
   -6.6691   16.1779  -32.9375 H   0  0  0  0  0  0  0  0  0  0  0  0
   -5.3562   17.4992  -34.5999 H   0  0  0  0  0  0  0  0  0  0  0  0
   -5.6188   19.9805  -34.7100 H   0  0  0  0  0  0  0  0  0  0  0  0
   -7.1883   21.1429  -33.1575 H   0  0  0  0  0  0  0  0  0  0  0  0
   -4.2923   25.5962  -31.3787 H   0  0  0  0  0  0  0  0  0  0  0  0
  1  2  1  0
  2  3  1  0
  3  4  2  0
  4  5  1  0
  5  6  2  0
  6  7  1  0
  7  8  2  0
  8  9  1  0
  9 10  1  0
 10 11  1  0
 11 12  2  0
 12 13  1  0
 13 14  2  0
 14 15  1  0
 15 16  2  0
  8 17  1  0
 17 18  2  0
 18 19  1  0
 19 20  2  0
 20  3  1  0
 19  6  1  0
 16 11  1  0
  1 21  1  0
  1 22  1  0
  1 23  1  0
  4 24  1  0
  5 25  1  0
 10 26  1  0
 10 27  1  0
 12 28  1  0
 13 29  1  0
 14 30  1  0
 15 31  1  0
 16 32  1  0
 20 33  1  0
M  END
>  <UniqueID>  (30) 
29

>  <SMILES>  (30) 
COc1ccc2nc(SCc3ccccc3)nnc2c1

>  <Energy>  (30) 
33.88764517540844

>  <Genealogy>  (30) 
COc1ccc2nc(SCc3ccccc3)nnc2c1 (3D coordinates assigned)
COc1ccc2nc(SCc3ccccc3)nnc2c1 (optimized conformer: 33.88764517540844 kcal/mol)

>  <smiles>  (30) 
COc1ccc2nc(SCc3ccccc3)nnc2c1

>  <score_type>  (30) 
oracle

>  <origin>  (30) 
adg

>  <m_score__min__energy>  (30) 
-8.3100000000000005

>  <m_primary>  (30) 
energy

$$$$
30:0
     RDKit          3D

 53 56  0  0  0  0  0  0  0  0999 V2000
   -7.1390   17.8950  -32.9930 C   0  0  0  0  0  0  0  0  0  0  0  0
   -7.0390   19.3410  -32.6030 C   0  0  0  0  0  0  0  0  0  0  0  0
   -8.1770   20.0380  -32.1690 C   0  0  0  0  0  0  0  0  0  0  0  0
   -8.0920   21.3950  -31.8410 C   0  0  0  0  0  0  0  0  0  0  0  0
   -6.8720   22.0780  -31.9660 C   0  0  0  0  0  0  0  0  0  0  0  0
   -6.7760   23.5270  -31.5810 C   0  0  0  0  0  0  0  0  0  0  0  0
   -6.9260   23.6750  -29.7680 S   0  0  0  0  0  0  0  0  0  0  0  0
   -6.1640   25.3360  -29.6280 C   0  0  0  0  0  0  0  0  0  0  0  0
   -5.3240   25.6990  -30.8580 C   0  0  0  0  0  0  0  0  0  0  0  0
   -3.9350   25.2860  -30.6930 N   0  0  0  0  0  0  0  0  0  0  0  0
   -3.5220   23.9340  -30.4770 C   0  0  0  0  0  0  0  0  0  0  0  0
   -3.1920   23.2040  -31.4510 O   0  0  0  0  0  0  0  0  0  0  0  0
   -3.4640   23.3850  -29.0820 C   0  0  0  0  0  0  0  0  0  0  0  0
   -2.0820   23.3210  -28.5800 N   0  0  0  0  0  0  0  0  0  0  0  0
   -1.4260   24.5270  -28.1460 C   0  0  0  0  0  0  0  0  0  0  0  0
   -1.6130   25.5830  -28.8110 O   0  0  0  0  0  0  0  0  0  0  0  0
   -0.5780   24.5980  -26.9220 C   0  0  0  0  0  0  0  0  0  0  0  0
    0.1280   25.7920  -26.6660 C   0  0  0  0  0  0  0  0  0  0  0  0
    0.8070   25.9770  -25.4640 C   0  0  0  0  0  0  0  0  0  0  0  0
    0.7750   24.9740  -24.5040 C   0  0  0  0  0  0  0  0  0  0  0  0
    0.1120   23.8170  -24.7580 N   0  0  0  0  0  0  0  0  0  0  0  0
   -0.5410   23.5850  -25.9300 C   0  0  0  0  0  0  0  0  0  0  0  0
   -1.1410   22.3340  -26.0840 O   0  0  0  0  0  0  0  0  0  0  0  0
   -1.0180   21.5620  -27.2360 C   0  0  0  0  0  0  0  0  0  0  0  0
   -0.5040   20.2640  -27.1240 C   0  0  0  0  0  0  0  0  0  0  0  0
   -0.3640   19.4610  -28.2590 C   0  0  0  0  0  0  0  0  0  0  0  0
   -0.7500   19.9480  -29.5080 C   0  0  0  0  0  0  0  0  0  0  0  0
   -1.2890   21.2320  -29.6210 C   0  0  0  0  0  0  0  0  0  0  0  0
   -1.4260   22.0490  -28.4840 C   0  0  0  0  0  0  0  0  0  0  0  0
   -5.7330   21.3820  -32.4000 C   0  0  0  0  0  0  0  0  0  0  0  0
   -5.8200   20.0240  -32.7290 C   0  0  0  0  0  0  0  0  0  0  0  0
   -7.1820   17.2730  -32.0868 H   0  0  0  0  0  0  0  0  0  0  0  0
   -8.0501   17.7381  -33.5890 H   0  0  0  0  0  0  0  0  0  0  0  0
   -6.2581   17.6142  -33.5890 H   0  0  0  0  0  0  0  0  0  0  0  0
   -9.1409   19.5144  -32.0863 H   0  0  0  0  0  0  0  0  0  0  0  0
   -8.9847   21.9292  -31.4837 H   0  0  0  0  0  0  0  0  0  0  0  0
   -5.8051   23.9304  -31.9043 H   0  0  0  0  0  0  0  0  0  0  0  0
   -7.5839   24.0937  -32.0670 H   0  0  0  0  0  0  0  0  0  0  0  0
   -6.9634   26.0829  -29.5132 H   0  0  0  0  0  0  0  0  0  0  0  0
   -5.4941   25.3253  -28.7556 H   0  0  0  0  0  0  0  0  0  0  0  0
   -5.7450   25.1952  -31.7406 H   0  0  0  0  0  0  0  0  0  0  0  0
   -5.3483   26.7914  -30.9844 H   0  0  0  0  0  0  0  0  0  0  0  0
   -4.0547   24.0338  -28.4186 H   0  0  0  0  0  0  0  0  0  0  0  0
   -3.8710   22.3632  -29.0981 H   0  0  0  0  0  0  0  0  0  0  0  0
    0.1425   26.5875  -27.4256 H   0  0  0  0  0  0  0  0  0  0  0  0
    1.3627   26.9077  -25.2771 H   0  0  0  0  0  0  0  0  0  0  0  0
    1.2856   25.1167  -23.5402 H   0  0  0  0  0  0  0  0  0  0  0  0
   -0.2092   19.8749  -26.1382 H   0  0  0  0  0  0  0  0  0  0  0  0
    0.0501   18.4460  -28.1677 H   0  0  0  0  0  0  0  0  0  0  0  0
   -0.6300   19.3211  -30.4039 H   0  0  0  0  0  0  0  0  0  0  0  0
   -1.6081   21.6063  -30.6049 H   0  0  0  0  0  0  0  0  0  0  0  0
   -4.7689   21.9052  -32.4819 H   0  0  0  0  0  0  0  0  0  0  0  0
   -4.9280   19.4898  -33.0881 H   0  0  0  0  0  0  0  0  0  0  0  0
  1  2  1  0
  2  3  2  0
  3  4  1  0
  4  5  2  0
  5  6  1  0
  6  7  1  0
  7  8  1  0
  8  9  1  0
  9 10  1  0
 10 11  1  0
 11 12  2  0
 11 13  1  0
 13 14  1  0
 14 15  1  0
 15 16  2  0
 15 17  1  0
 17 18  2  0
 18 19  1  0
 19 20  2  0
 20 21  1  0
 21 22  2  0
 22 23  1  0
 23 24  1  0
 24 25  2  0
 25 26  1  0
 26 27  2  0
 27 28  1  0
 28 29  2  0
  5 30  1  0
 30 31  2  0
 31  2  1  0
 29 14  1  0
 22 17  1  0
 29 24  1  0
  1 32  1  0
  1 33  1  0
  1 34  1  0
  3 35  1  0
  4 36  1  0
  6 37  1  0
  6 38  1  0
  8 39  1  0
  8 40  1  0
  9 41  1  0
  9 42  1  0
 13 43  1  0
 13 44  1  0
 18 45  1  0
 19 46  1  0
 20 47  1  0
 25 48  1  0
 26 49  1  0
 27 50  1  0
 28 51  1  0
 30 52  1  0
 31 53  1  0
M  CHG  1  10  -1
M  END
>  <UniqueID>  (31) 
30

>  <SMILES>  (31) 
Cc1ccc(CSCC[N-]C(=O)CN2C(=O)c3cccnc3Oc3ccccc32)cc1

>  <Energy>  (31) 
75.93635777484369

>  <Genealogy>  (31) 
Cc1ccc(CSCC[N-]C(=O)CN2C(=O)c3cccnc3Oc3ccccc32)cc1 (protonated)
Cc1ccc(CSCC[N-]C(=O)CN2C(=O)c3cccnc3Oc3ccccc32)cc1 (3D coordinates assigned)
Cc1ccc(CSCC[N-]C(=O)CN2C(=O)c3cccnc3Oc3ccccc32)cc1 (nonaromatic ring conformer: 75.93635777484369 kcal/mol)

>  <smiles>  (31) 
Cc1ccc(CSCCNC(=O)CN2C(=O)c3cccnc3Oc3ccccc32)cc1

>  <score_type>  (31) 
oracle

>  <origin>  (31) 
adg

>  <m_score__min__energy>  (31) 
-12.26

>  <m_primary>  (31) 
energy

$$$$
31:0
     RDKit          3D

 36 38  0  0  0  0  0  0  0  0999 V2000
   -5.0750   19.5150  -33.4440 C   0  0  0  0  0  0  0  0  0  0  0  0
   -5.4800   20.5890  -32.6010 O   0  0  0  0  0  0  0  0  0  0  0  0
   -6.8120   20.8800  -32.2600 C   0  0  0  0  0  0  0  0  0  0  0  0
   -7.8730   20.0520  -32.6800 C   0  0  0  0  0  0  0  0  0  0  0  0
   -9.1920   20.3660  -32.3490 C   0  0  0  0  0  0  0  0  0  0  0  0
   -9.4700   21.5030  -31.5930 C   0  0  0  0  0  0  0  0  0  0  0  0
   -8.4330   22.3320  -31.1670 C   0  0  0  0  0  0  0  0  0  0  0  0
   -7.0950   22.0350  -31.4910 C   0  0  0  0  0  0  0  0  0  0  0  0
   -6.0080   22.9290  -31.0170 C   0  0  0  0  0  0  0  0  0  0  0  0
   -5.3560   23.8100  -31.8040 N   0  0  0  0  0  0  0  0  0  0  0  0
   -4.4850   24.3890  -31.0300 O   0  0  0  0  0  0  0  0  0  0  0  0
   -4.5740   23.9030  -29.8140 C   0  0  0  0  0  0  0  0  0  0  0  0
   -3.7280   24.3490  -28.6820 C   0  0  0  0  0  0  0  0  0  0  0  0
   -4.2580   24.5210  -27.3890 C   0  0  0  0  0  0  0  0  0  0  0  0
   -3.4360   24.9410  -26.3390 C   0  0  0  0  0  0  0  0  0  0  0  0
   -2.0790   25.1890  -26.5630 C   0  0  0  0  0  0  0  0  0  0  0  0
   -1.0280   25.7310  -25.2130 S   0  0  0  0  0  0  0  0  0  0  0  0
   -0.4770   24.0460  -24.8050 C   0  0  0  0  0  0  0  0  0  0  0  0
   -1.5450   25.0240  -27.8440 C   0  0  0  0  0  0  0  0  0  0  0  0
   -2.3620   24.6040  -28.8970 C   0  0  0  0  0  0  0  0  0  0  0  0
   -5.5360   22.9620  -29.7530 N   0  0  0  0  0  0  0  0  0  0  0  0
   -4.7541   18.6641  -32.8252 H   0  0  0  0  0  0  0  0  0  0  0  0
   -5.9194   19.2088  -34.0790 H   0  0  0  0  0  0  0  0  0  0  0  0
   -4.2386   19.8426  -34.0790 H   0  0  0  0  0  0  0  0  0  0  0  0
   -7.6594   19.1509  -33.2736 H   0  0  0  0  0  0  0  0  0  0  0  0
  -10.0128   19.7154  -32.6852 H   0  0  0  0  0  0  0  0  0  0  0  0
  -10.5102   21.7472  -31.3316 H   0  0  0  0  0  0  0  0  0  0  0  0
   -8.6625   23.2278  -30.5713 H   0  0  0  0  0  0  0  0  0  0  0  0
   -5.3243   24.3239  -27.2040 H   0  0  0  0  0  0  0  0  0  0  0  0
   -3.8590   25.0768  -25.3327 H   0  0  0  0  0  0  0  0  0  0  0  0
   -0.4382   23.9275  -23.7121 H   0  0  0  0  0  0  0  0  0  0  0  0
   -1.1835   23.3167  -25.2281 H   0  0  0  0  0  0  0  0  0  0  0  0
    0.5239   23.8750  -25.2281 H   0  0  0  0  0  0  0  0  0  0  0  0
   -0.4786   25.2253  -28.0238 H   0  0  0  0  0  0  0  0  0  0  0  0
   -1.9334   24.4719  -29.9014 H   0  0  0  0  0  0  0  0  0  0  0  0
   -5.8610   22.4130  -28.9280 H   0  0  0  0  0  0  0  0  0  0  0  0
  1  2  1  0
  2  3  1  0
  3  4  2  0
  4  5  1  0
  5  6  2  0
  6  7  1  0
  7  8  2  0
  8  9  1  0
  9 10  2  0
 10 11  1  0
 11 12  1  0
 12 13  1  0
 13 14  2  0
 14 15  1  0
 15 16  2  0
 16 17  1  0
 17 18  1  0
 16 19  1  0
 19 20  2  0
 12 21  2  0
  8  3  1  0
 21  9  1  0
 20 13  1  0
  1 22  1  0
  1 23  1  0
  1 24  1  0
  4 25  1  0
  5 26  1  0
  6 27  1  0
  7 28  1  0
 14 29  1  0
 15 30  1  0
 18 31  1  0
 18 32  1  0
 18 33  1  0
 19 34  1  0
 20 35  1  0
 21 36  1  0
M  CHG  1  21   1
M  END
>  <UniqueID>  (32) 
31

>  <SMILES>  (32) 
COc1ccccc1-c1noc(-c2ccc(SC)cc2)[nH+]1

>  <Energy>  (32) 
72.74488993282247

>  <Genealogy>  (32) 
COc1ccccc1-c1noc(-c2ccc(SC)cc2)[nH+]1 (protonated)
COc1ccccc1-c1noc(-c2ccc(SC)cc2)[nH+]1 (3D coordinates assigned)
COc1ccccc1-c1noc(-c2ccc(SC)cc2)[nH+]1 (optimized conformer: 72.74488993282247 kcal/mol)

>  <smiles>  (32) 
COc1ccccc1-c1noc(-c2ccc(SC)cc2)n1

>  <score_type>  (32) 
oracle

>  <origin>  (32) 
adg

>  <m_score__min__energy>  (32) 
-7.1699999999999999

>  <m_primary>  (32) 
energy

$$$$
33:0
     RDKit          3D

 31 32  0  0  0  0  0  0  0  0999 V2000
   -9.9758   18.2225  -32.4401 H   0  0  0  0  0  0  0  0  0  0  0  0
   -9.1480   18.9390  -32.3330 C   0  0  0  0  0  0  0  0  0  0  0  0
   -7.8300   18.4970  -32.4330 C   0  0  0  0  0  0  0  0  0  0  0  0
   -7.6281   17.4323  -32.6218 H   0  0  0  0  0  0  0  0  0  0  0  0
   -6.7540   19.3930  -32.2960 C   0  0  0  0  0  0  0  0  0  0  0  0
   -5.3480   18.8450  -32.4370 C   0  0  0  0  0  0  0  0  0  0  0  0
   -5.3489   17.7862  -32.1388 H   0  0  0  0  0  0  0  0  0  0  0  0
   -4.6865   19.4419  -31.7919 H   0  0  0  0  0  0  0  0  0  0  0  0
   -4.8250   18.9530  -33.8780 C   0  0  0  0  0  0  0  0  0  0  0  0
   -3.8030   18.5478  -33.9143 H   0  0  0  0  0  0  0  0  0  0  0  0
   -4.8478   20.0148  -34.1646 H   0  0  0  0  0  0  0  0  0  0  0  0
   -5.6940   18.1830  -34.8720 C   0  0  0  0  0  0  0  0  0  0  0  0
   -6.4073   17.5510  -34.3226 H   0  0  0  0  0  0  0  0  0  0  0  0
   -6.2457   18.8941  -35.5044 H   0  0  0  0  0  0  0  0  0  0  0  0
   -5.0544   17.5497  -35.5044 H   0  0  0  0  0  0  0  0  0  0  0  0
   -7.0260   20.7720  -32.0630 C   0  0  0  0  0  0  0  0  0  0  0  0
   -8.3720   21.2020  -31.9640 C   0  0  0  0  0  0  0  0  0  0  0  0
   -9.4210   20.2840  -32.0980 C   0  0  0  0  0  0  0  0  0  0  0  0
  -10.4633   20.6263  -32.0174 H   0  0  0  0  0  0  0  0  0  0  0  0
   -8.6460   22.5530  -31.7350 C   0  0  0  0  0  0  0  0  0  0  0  0
   -9.6882   22.8962  -31.6566 H   0  0  0  0  0  0  0  0  0  0  0  0
   -7.6030   23.4650  -31.6060 C   0  0  0  0  0  0  0  0  0  0  0  0
   -7.8183   24.5283  -31.4243 H   0  0  0  0  0  0  0  0  0  0  0  0
   -6.2710   23.0210  -31.7090 C   0  0  0  0  0  0  0  0  0  0  0  0
   -5.2610   23.8400  -31.5980 N   0  0  0  0  0  0  0  0  0  0  0  0
   -5.1250   24.9170  -30.6220 C   0  0  0  0  0  0  0  0  0  0  0  0
   -5.1777   24.4996  -29.6056 H   0  0  0  0  0  0  0  0  0  0  0  0
   -4.1563   25.4190  -30.7625 H   0  0  0  0  0  0  0  0  0  0  0  0
   -5.9385   25.6440  -30.7625 H   0  0  0  0  0  0  0  0  0  0  0  0
   -6.0210   21.6970  -31.9330 N   0  0  0  0  0  0  0  0  0  0  0  0
   -5.0210   21.4100  -32.0040 H   0  0  0  0  0  0  0  0  0  0  0  0
  1  2  1  0
  2  3  2  0
  3  4  1  0
  3  5  1  0
  5  6  1  0
  6  7  1  0
  6  8  1  0
  6  9  1  0
  9 10  1  0
  9 11  1  0
  9 12  1  0
 12 13  1  0
 12 14  1  0
 12 15  1  0
  5 16  2  0
 16 17  1  0
 17 18  2  0
 18 19  1  0
 17 20  1  0
 20 21  1  0
 20 22  2  0
 22 23  1  0
 22 24  1  0
 24 25  2  0
 25 26  1  0
 26 27  1  0
 26 28  1  0
 26 29  1  0
 24 30  1  0
 30 31  1  0
 18  2  1  0
 30 16  1  0
M  END
>  <UniqueID>  (33) 
32

>  <SMILES>  (33) 
CCCc1cccc2cc/c(=N\C)[nH]c12

>  <Energy>  (33) 
33.305325075829565

>  <Genealogy>  (33) 
CCCc1cccc2cc/c(=N\C)[nH]c12 (cis-trans isomerization)
CCCc1cccc2cc/c(=N\C)[nH]c12 (3D coordinates assigned)
CCCc1cccc2cc/c(=N\C)[nH]c12 (optimized conformer: 33.305325075829565 kcal/mol)

>  <smiles>  (33) 
CCCc1cccc2ccc(=NC)[nH]c12

>  <score_type>  (33) 
oracle

>  <origin>  (33) 
adg

>  <m_score__min__energy>  (33) 
-6.4000000000000004

>  <m_primary>  (33) 
energy

$$$$
34:0
     RDKit          3D

 69 71  0  0  0  0  0  0  0  0999 V2000
   -1.8520   19.3100  -26.8760 C   0  0  0  0  0  0  0  0  0  0  0  0
   -0.5990   19.9240  -27.4990 C   0  0  0  0  0  0  0  0  0  0  0  0
   -0.9600   21.0360  -28.4070 N   0  0  0  0  0  0  0  0  0  0  0  0
   -1.0970   20.5610  -29.8050 C   0  0  0  0  0  0  0  0  0  0  0  0
   -0.8660   21.7090  -30.7820 C   0  0  0  0  0  0  0  0  0  0  0  0
    0.0030   22.1630  -28.3070 C   0  0  0  0  0  0  0  0  0  0  0  0
    0.6090   22.2290  -26.8960 C   0  0  0  0  0  0  0  0  0  0  0  0
   -0.4030   22.5890  -25.7950 C   0  0  0  0  0  0  0  0  0  0  0  0
   -1.6550   23.1360  -26.3430 N   0  0  0  0  0  0  0  0  0  0  0  0
   -1.6070   24.6000  -26.4540 C   0  0  0  0  0  0  0  0  0  0  0  0
   -2.1170   25.0430  -27.8290 C   0  0  0  0  0  0  0  0  0  0  0  0
   -3.4720   24.5480  -28.0600 N   0  0  0  0  0  0  0  0  0  0  0  0
   -3.7710   23.7000  -29.1720 C   0  0  0  0  0  0  0  0  0  0  0  0
   -3.9920   24.2550  -30.4440 C   0  0  0  0  0  0  0  0  0  0  0  0
   -3.8730   25.6270  -30.6400 O   0  0  0  0  0  0  0  0  0  0  0  0
   -4.3330   23.4280  -31.5190 C   0  0  0  0  0  0  0  0  0  0  0  0
   -4.4740   22.0480  -31.3250 C   0  0  0  0  0  0  0  0  0  0  0  0
   -4.9890   20.9840  -32.6730 S   0  0  0  0  0  0  0  0  0  0  0  0
   -6.7310   21.0780  -32.2280 C   0  0  0  0  0  0  0  0  0  0  0  0
   -7.2690   22.3450  -31.9620 C   0  0  0  0  0  0  0  0  0  0  0  0
   -8.6060   22.4840  -31.5850 C   0  0  0  0  0  0  0  0  0  0  0  0
   -9.4190   21.3540  -31.4670 C   0  0  0  0  0  0  0  0  0  0  0  0
   -8.8970   20.0870  -31.7260 C   0  0  0  0  0  0  0  0  0  0  0  0
   -7.5530   19.9310  -32.1110 C   0  0  0  0  0  0  0  0  0  0  0  0
   -7.0290   18.6080  -32.3320 N   0  0  0  0  0  0  0  0  0  0  0  0
   -6.5440   17.7500  -31.2630 C   0  0  0  0  0  0  0  0  0  0  0  0
   -5.7590   16.6410  -31.9540 C   0  0  0  0  0  0  0  0  0  0  0  0
   -6.1710   16.6940  -33.4250 C   0  0  0  0  0  0  0  0  0  0  0  0
   -6.6920   18.1050  -33.6540 C   0  0  0  0  0  0  0  0  0  0  0  0
   -4.2190   21.4920  -30.0680 C   0  0  0  0  0  0  0  0  0  0  0  0
   -3.8650   22.3120  -28.9900 C   0  0  0  0  0  0  0  0  0  0  0  0
   -3.6090   21.7550  -27.7370 O   0  0  0  0  0  0  0  0  0  0  0  0
   -1.7730   19.3487  -25.7795 H   0  0  0  0  0  0  0  0  0  0  0  0
   -2.7377   19.8762  -27.2000 H   0  0  0  0  0  0  0  0  0  0  0  0
   -1.9473   18.2631  -27.2000 H   0  0  0  0  0  0  0  0  0  0  0  0
    0.0518   20.3071  -26.6992 H   0  0  0  0  0  0  0  0  0  0  0  0
   -0.0747   19.1494  -28.0779 H   0  0  0  0  0  0  0  0  0  0  0  0
   -0.3559   19.7702  -29.9933 H   0  0  0  0  0  0  0  0  0  0  0  0
   -2.1142   20.1683  -29.9502 H   0  0  0  0  0  0  0  0  0  0  0  0
   -0.6794   22.6363  -30.2206 H   0  0  0  0  0  0  0  0  0  0  0  0
    0.0045   21.4822  -31.4151 H   0  0  0  0  0  0  0  0  0  0  0  0
   -1.7565   21.8365  -31.4151 H   0  0  0  0  0  0  0  0  0  0  0  0
    0.8092   22.0165  -29.0408 H   0  0  0  0  0  0  0  0  0  0  0  0
   -0.5284   23.1044  -28.5106 H   0  0  0  0  0  0  0  0  0  0  0  0
    1.0419   21.2458  -26.6595 H   0  0  0  0  0  0  0  0  0  0  0  0
    1.3612   23.0315  -26.9107 H   0  0  0  0  0  0  0  0  0  0  0  0
   -0.6360   21.6816  -25.2185 H   0  0  0  0  0  0  0  0  0  0  0  0
    0.0524   23.3631  -25.1599 H   0  0  0  0  0  0  0  0  0  0  0  0
   -1.7640   22.7480  -27.3100 H   0  0  0  0  0  0  0  0  0  0  0  0
   -2.2392   25.0447  -25.6713 H   0  0  0  0  0  0  0  0  0  0  0  0
   -0.5665   24.9354  -26.3318 H   0  0  0  0  0  0  0  0  0  0  0  0
   -2.1209   26.1420  -27.8760 H   0  0  0  0  0  0  0  0  0  0  0  0
   -1.4527   24.6308  -28.6028 H   0  0  0  0  0  0  0  0  0  0  0  0
   -4.2030   24.6910  -27.3270 H   0  0  0  0  0  0  0  0  0  0  0  0
   -4.4906   23.8616  -32.5176 H   0  0  0  0  0  0  0  0  0  0  0  0
   -6.6321   23.2374  -32.0511 H   0  0  0  0  0  0  0  0  0  0  0  0
   -9.0192   23.4828  -31.3809 H   0  0  0  0  0  0  0  0  0  0  0  0
  -10.4723   21.4638  -31.1694 H   0  0  0  0  0  0  0  0  0  0  0  0
   -9.5422   19.2014  -31.6283 H   0  0  0  0  0  0  0  0  0  0  0  0
   -5.8912   18.3160  -30.5822 H   0  0  0  0  0  0  0  0  0  0  0  0
   -7.3691   17.3484  -30.6564 H   0  0  0  0  0  0  0  0  0  0  0  0
   -4.6778   16.8164  -31.8524 H   0  0  0  0  0  0  0  0  0  0  0  0
   -5.9707   15.6574  -31.5093 H   0  0  0  0  0  0  0  0  0  0  0  0
   -5.3052   16.4945  -34.0736 H   0  0  0  0  0  0  0  0  0  0  0  0
   -6.9321   15.9359  -33.6618 H   0  0  0  0  0  0  0  0  0  0  0  0
   -5.9164   18.7316  -34.1186 H   0  0  0  0  0  0  0  0  0  0  0  0
   -7.5588   18.1176  -34.3312 H   0  0  0  0  0  0  0  0  0  0  0  0
   -4.2969   20.4041  -29.9251 H   0  0  0  0  0  0  0  0  0  0  0  0
   -2.6620   21.5730  -27.4260 H   0  0  0  0  0  0  0  0  0  0  0  0
  1  2  1  0
  2  3  1  0
  3  4  1  0
  4  5  1  0
  3  6  1  0
  6  7  1  0
  7  8  1  0
  8  9  1  0
  9 10  1  0
 10 11  1  0
 11 12  1  0
 12 13  1  0
 13 14  2  0
 14 15  1  0
 14 16  1  0
 16 17  2  0
 17 18  1  0
 18 19  1  0
 19 20  2  0
 20 21  1  0
 21 22  2  0
 22 23  1  0
 23 24  2  0
 24 25  1  0
 25 26  1  0
 26 27  1  0
 27 28  1  0
 28 29  1  0
 17 30  1  0
 30 31  2  0
 31 32  1  0
 31 13  1  0
 24 19  1  0
 29 25  1  0
  1 33  1  0
  1 34  1  0
  1 35  1  0
  2 36  1  0
  2 37  1  0
  4 38  1  0
  4 39  1  0
  5 40  1  0
  5 41  1  0
  5 42  1  0
  6 43  1  0
  6 44  1  0
  7 45  1  0
  7 46  1  0
  8 47  1  0
  8 48  1  0
  9 49  1  0
 10 50  1  0
 10 51  1  0
 11 52  1  0
 11 53  1  0
 12 54  1  0
 16 55  1  0
 20 56  1  0
 21 57  1  0
 22 58  1  0
 23 59  1  0
 26 60  1  0
 26 61  1  0
 27 62  1  0
 27 63  1  0
 28 64  1  0
 28 65  1  0
 29 66  1  0
 29 67  1  0
 30 68  1  0
 32 69  1  0
M  CHG  1  15  -1
M  END
>  <UniqueID>  (34) 
33

>  <SMILES>  (34) 
CCN(CC)CCCNCCNc1c([O-])cc(Sc2ccccc2N2CCCC2)cc1O

>  <Energy>  (34) 
68.57954908739404

>  <Genealogy>  (34) 
CCN(CC)CCCNCCNc1c([O-])cc(Sc2ccccc2N2CCCC2)cc1O (protonated)
CCN(CC)CCCNCCNc1c([O-])cc(Sc2ccccc2N2CCCC2)cc1O (3D coordinates assigned)
CCN(CC)CCCNCCNc1c([O-])cc(Sc2ccccc2N2CCCC2)cc1O (nonaromatic ring conformer: 68.57954908739404 kcal/mol)

>  <smiles>  (34) 
CCN(CC)CCCNCCNc1c(O)cc(Sc2ccccc2N2CCCC2)cc1O

>  <score_type>  (34) 
oracle

>  <origin>  (34) 
adg

>  <m_score__min__energy>  (34) 
-11.289999999999999

>  <m_primary>  (34) 
energy

$$$$
35:0
     RDKit          3D

 40 42  0  0  0  0  0  0  0  0999 V2000
   -9.0430   18.9250  -32.3490 C   0  0  0  0  0  0  0  0  0  0  0  0
   -8.0750   18.2290  -31.6200 C   0  0  0  0  0  0  0  0  0  0  0  0
   -6.7490   18.6730  -31.6140 C   0  0  0  0  0  0  0  0  0  0  0  0
   -6.3810   19.8140  -32.3470 C   0  0  0  0  0  0  0  0  0  0  0  0
   -4.9620   20.3140  -32.3120 C   0  0  0  0  0  0  0  0  0  0  0  0
   -4.8910   21.7660  -32.8340 C   0  0  0  0  0  0  0  0  0  0  0  0
   -5.2840   22.8040  -31.8460 N   0  0  1  0  0  0  0  0  0  0  0  0
   -6.6740   23.2880  -32.0680 C   0  0  0  0  0  0  0  0  0  0  0  0
   -7.2460   24.0670  -30.8620 C   0  0  0  0  0  0  0  0  0  0  0  0
   -6.1340   24.6760  -30.0070 C   0  0  0  0  0  0  0  0  0  0  0  0
   -5.1920   23.5780  -29.4640 C   0  0  2  0  0  0  0  0  0  0  0  0
   -3.8480   24.1690  -29.1300 C   0  0  0  0  0  0  0  0  0  0  0  0
   -3.2150   24.0970  -27.9080 C   0  0  0  0  0  0  0  0  0  0  0  0
   -2.0570   24.8220  -28.0840 C   0  0  0  0  0  0  0  0  0  0  0  0
   -2.0170   25.3040  -29.3420 N   0  0  0  0  0  0  0  0  0  0  0  0
   -3.1090   24.9110  -29.9780 N   0  0  0  0  0  0  0  0  0  0  0  0
   -5.0590   22.3820  -30.4440 C   0  0  0  0  0  0  0  0  0  0  0  0
   -7.3630   20.5170  -33.0660 C   0  0  0  0  0  0  0  0  0  0  0  0
   -8.6890   20.0690  -33.0700 C   0  0  0  0  0  0  0  0  0  0  0  0
  -10.0849   18.5721  -32.3555 H   0  0  0  0  0  0  0  0  0  0  0  0
   -8.3564   17.3310  -31.0504 H   0  0  0  0  0  0  0  0  0  0  0  0
   -5.9910   18.1269  -31.0332 H   0  0  0  0  0  0  0  0  0  0  0  0
   -4.5917   20.2823  -31.2767 H   0  0  0  0  0  0  0  0  0  0  0  0
   -4.3411   19.6725  -32.9546 H   0  0  0  0  0  0  0  0  0  0  0  0
   -3.8559   21.9666  -33.1474 H   0  0  0  0  0  0  0  0  0  0  0  0
   -5.6156   21.8340  -33.6589 H   0  0  0  0  0  0  0  0  0  0  0  0
   -4.6470   23.6150  -32.0330 H   0  0  0  0  0  0  0  0  0  0  0  0
   -6.6777   23.9506  -32.9460 H   0  0  0  0  0  0  0  0  0  0  0  0
   -7.3092   22.4024  -32.2168 H   0  0  0  0  0  0  0  0  0  0  0  0
   -7.8938   24.8747  -31.2334 H   0  0  0  0  0  0  0  0  0  0  0  0
   -7.8151   23.3635  -30.2364 H   0  0  0  0  0  0  0  0  0  0  0  0
   -5.5517   25.3789  -30.6209 H   0  0  0  0  0  0  0  0  0  0  0  0
   -6.5924   25.1989  -29.1547 H   0  0  0  0  0  0  0  0  0  0  0  0
   -5.6383   23.1756  -28.5427 H   0  0  0  0  0  0  0  0  0  0  0  0
   -3.5564   23.5790  -26.9997 H   0  0  0  0  0  0  0  0  0  0  0  0
   -1.2850   24.9826  -27.3171 H   0  0  0  0  0  0  0  0  0  0  0  0
   -4.0479   21.9579  -30.3559 H   0  0  0  0  0  0  0  0  0  0  0  0
   -5.8208   21.6332  -30.1815 H   0  0  0  0  0  0  0  0  0  0  0  0
   -7.0885   21.4222  -33.6274 H   0  0  0  0  0  0  0  0  0  0  0  0
   -9.4529   20.6174  -33.6408 H   0  0  0  0  0  0  0  0  0  0  0  0
  1  2  2  0
  2  3  1  0
  3  4  2  0
  4  5  1  0
  5  6  1  0
  6  7  1  0
  7  8  1  0
  8  9  1  0
  9 10  1  0
 10 11  1  0
 11 12  1  0
 12 13  1  0
 13 14  2  0
 14 15  1  0
 15 16  1  0
 11 17  1  0
  4 18  1  0
 18 19  2  0
 19  1  1  0
 17  7  1  0
 16 12  2  0
  1 20  1  0
  2 21  1  0
  3 22  1  0
  5 23  1  0
  5 24  1  0
  6 25  1  0
  6 26  1  0
  7 27  1  6
  8 28  1  0
  8 29  1  0
  9 30  1  0
  9 31  1  0
 10 32  1  0
 10 33  1  0
 11 34  1  1
 13 35  1  0
 14 36  1  0
 17 37  1  0
 17 38  1  0
 18 39  1  0
 19 40  1  0
M  CHG  2   7   1  15  -1
M  END
>  <UniqueID>  (35) 
34

>  <SMILES>  (35) 
c1ccc(CC[N@H+]2CCC[C@H](c3cc[n-]n3)C2)cc1

>  <Energy>  (35) 
77.88477498885811

>  <Genealogy>  (35) 
c1ccc(CC[NH+]2CCCC(c3cc[n-]n3)C2)cc1 (protonated)
c1ccc(CC[N@H+]2CCC[C@H](c3cc[n-]n3)C2)cc1 (chirality)
c1ccc(CC[N@H+]2CCC[C@H](c3cc[n-]n3)C2)cc1 (3D coordinates assigned)
c1ccc(CC[N@H+]2CCC[C@H](c3cc[n-]n3)C2)cc1 (nonaromatic ring conformer: 77.88477498885811 kcal/mol)

>  <smiles>  (35) 
c1ccc(CCN2CCCC(c3cc[nH]n3)C2)cc1

>  <score_type>  (35) 
oracle

>  <origin>  (35) 
adg

>  <m_score__min__energy>  (35) 
-9.0299999999999994

>  <m_primary>  (35) 
energy

$$$$
36:0
     RDKit          3D

 41 43  0  0  0  0  0  0  0  0999 V2000
   -3.8700   24.1930  -27.3810 C   0  0  0  0  0  0  0  0  0  0  0  0
   -4.4010   23.1070  -28.3040 C   0  0  0  0  0  0  0  0  0  0  0  0
   -4.0890   23.4360  -29.6530 O   0  0  0  0  0  0  0  0  0  0  0  0
   -4.8060   24.3910  -30.3810 C   0  0  0  0  0  0  0  0  0  0  0  0
   -4.2460   25.4490  -30.7790 O   0  0  0  0  0  0  0  0  0  0  0  0
   -6.2630   24.1680  -30.6620 C   0  0  0  0  0  0  0  0  0  0  0  0
   -6.5750   22.6890  -30.9990 C   0  0  1  0  0  0  0  0  0  0  0  0
   -7.8640   22.5820  -31.8310 C   0  0  0  0  0  0  0  0  0  0  0  0
   -8.3150   21.1250  -31.8710 C   0  0  0  0  0  0  0  0  0  0  0  0
   -7.1830   20.2160  -32.2590 C   0  0  0  0  0  0  0  0  0  0  0  0
   -7.4730   18.9280  -32.7390 C   0  0  0  0  0  0  0  0  0  0  0  0
   -6.4450   18.0860  -33.1720 C   0  0  0  0  0  0  0  0  0  0  0  0
   -6.8560   16.3440  -33.8380 Br  0  0  0  0  0  0  0  0  0  0  0  0
   -5.1220   18.5350  -33.1620 C   0  0  0  0  0  0  0  0  0  0  0  0
   -4.8230   19.8130  -32.6770 C   0  0  0  0  0  0  0  0  0  0  0  0
   -5.8330   20.6320  -32.1430 C   0  0  0  0  0  0  0  0  0  0  0  0
   -5.4430   21.9410  -31.6320 N   0  0  1  0  0  0  0  0  0  0  0  0
   -4.7280   22.6650  -32.7150 C   0  0  0  0  0  0  0  0  0  0  0  0
   -3.5230   21.8530  -33.2840 C   0  0  0  0  0  0  0  0  0  0  0  0
   -3.4440   20.3960  -32.7820 C   0  0  0  0  0  0  0  0  0  0  0  0
   -4.0184   23.8894  -26.3342 H   0  0  0  0  0  0  0  0  0  0  0  0
   -2.7969   24.3430  -27.5706 H   0  0  0  0  0  0  0  0  0  0  0  0
   -4.4106   25.1320  -27.5706 H   0  0  0  0  0  0  0  0  0  0  0  0
   -3.9352   22.1450  -28.0441 H   0  0  0  0  0  0  0  0  0  0  0  0
   -5.4922   23.0293  -28.1887 H   0  0  0  0  0  0  0  0  0  0  0  0
   -6.8434   24.4589  -29.7740 H   0  0  0  0  0  0  0  0  0  0  0  0
   -6.5351   24.7778  -31.5361 H   0  0  0  0  0  0  0  0  0  0  0  0
   -6.7298   22.1888  -30.0316 H   0  0  0  0  0  0  0  0  0  0  0  0
   -8.6508   23.1983  -31.3716 H   0  0  0  0  0  0  0  0  0  0  0  0
   -7.6745   22.9387  -32.8541 H   0  0  0  0  0  0  0  0  0  0  0  0
   -8.6823   20.8357  -30.8753 H   0  0  0  0  0  0  0  0  0  0  0  0
   -9.1127   21.0279  -32.6221 H   0  0  0  0  0  0  0  0  0  0  0  0
   -8.5159   18.5799  -32.7743 H   0  0  0  0  0  0  0  0  0  0  0  0
   -4.3168   17.8849  -33.5348 H   0  0  0  0  0  0  0  0  0  0  0  0
   -4.7480   21.7720  -30.8640 H   0  0  0  0  0  0  0  0  0  0  0  0
   -5.4361   22.8647  -33.5327 H   0  0  0  0  0  0  0  0  0  0  0  0
   -4.3301   23.5970  -32.2871 H   0  0  0  0  0  0  0  0  0  0  0  0
   -3.6070   21.8352  -34.3806 H   0  0  0  0  0  0  0  0  0  0  0  0
   -2.6104   22.3566  -32.9326 H   0  0  0  0  0  0  0  0  0  0  0  0
   -2.8491   19.7990  -33.4889 H   0  0  0  0  0  0  0  0  0  0  0  0
   -2.9697   20.3816  -31.7896 H   0  0  0  0  0  0  0  0  0  0  0  0
  1  2  1  0
  2  3  1  0
  3  4  1  0
  4  5  2  0
  4  6  1  0
  6  7  1  0
  7  8  1  0
  8  9  1  0
  9 10  1  0
 10 11  2  0
 11 12  1  0
 12 13  1  0
 12 14  2  0
 14 15  1  0
 15 16  2  0
 16 17  1  0
 17 18  1  0
 18 19  1  0
 19 20  1  0
 17  7  1  0
 16 10  1  0
 20 15  1  0
  1 21  1  0
  1 22  1  0
  1 23  1  0
  2 24  1  0
  2 25  1  0
  6 26  1  0
  6 27  1  0
  7 28  1  1
  8 29  1  0
  8 30  1  0
  9 31  1  0
  9 32  1  0
 11 33  1  0
 14 34  1  0
 17 35  1  1
 18 36  1  0
 18 37  1  0
 19 38  1  0
 19 39  1  0
 20 40  1  0
 20 41  1  0
M  CHG  1  17   1
M  END
>  <UniqueID>  (36) 
35

>  <SMILES>  (36) 
CCOC(=O)C[C@H]1CCc2cc(Br)cc3c2[N@H+]1CCC3

>  <Energy>  (36) 
52.455124040896024

>  <Genealogy>  (36) 
CCOC(=O)CC1CCc2cc(Br)cc3c2[NH+]1CCC3 (protonated)
CCOC(=O)C[C@H]1CCc2cc(Br)cc3c2[N@H+]1CCC3 (chirality)
CCOC(=O)C[C@H]1CCc2cc(Br)cc3c2[N@H+]1CCC3 (3D coordinates assigned)
CCOC(=O)C[C@H]1CCc2cc(Br)cc3c2[N@H+]1CCC3 (nonaromatic ring conformer: 52.455124040896024 kcal/mol)

>  <smiles>  (36) 
CCOC(=O)CC1CCc2cc(Br)cc3c2N1CCC3

>  <score_type>  (36) 
oracle

>  <origin>  (36) 
adg

>  <m_score__min__energy>  (36) 
-8.1999999999999993

>  <m_primary>  (36) 
energy

$$$$
37:0
     RDKit          3D

 75 79  0  0  0  0  0  0  0  0999 V2000
    0.1660   12.1980  -26.4040 C   0  0  0  0  0  0  0  0  0  0  0  0
    1.0680   13.4260  -26.2890 C   0  0  0  0  0  0  0  0  0  0  0  0
    1.8300   13.7340  -27.5940 C   0  0  2  0  0  0  0  0  0  0  0  0
    3.3390   13.8750  -27.3660 C   0  0  0  0  0  0  0  0  0  0  0  0
    1.3050   14.9710  -28.1830 N   0  0  0  0  0  0  0  0  0  0  0  0
    1.0080   15.1240  -29.4660 N   0  0  0  0  0  0  0  0  0  0  0  0
    0.6310   16.4130  -29.6170 C   0  0  0  0  0  0  0  0  0  0  0  0
    0.6850   17.0880  -28.4470 N   0  0  0  0  0  0  0  0  0  0  0  0
    0.3780   18.4750  -28.2170 C   0  0  0  0  0  0  0  0  0  0  0  0
   -0.9180   18.8580  -27.8390 C   0  0  0  0  0  0  0  0  0  0  0  0
   -1.2240   20.2040  -27.6190 C   0  0  0  0  0  0  0  0  0  0  0  0
   -0.2350   21.1920  -27.7570 C   0  0  0  0  0  0  0  0  0  0  0  0
   -0.5510   22.5850  -27.5560 N   0  0  0  0  0  0  0  0  0  0  0  0
   -1.4920   23.0110  -26.5150 C   0  0  0  0  0  0  0  0  0  0  0  0
   -2.7860   23.5170  -27.1680 C   0  0  0  0  0  0  0  0  0  0  0  0
   -2.5340   24.0180  -28.5290 N   0  0  0  0  0  0  0  0  0  0  0  0
   -3.5070   23.7600  -29.5590 C   0  0  0  0  0  0  0  0  0  0  0  0
   -4.5980   24.6240  -29.7320 C   0  0  0  0  0  0  0  0  0  0  0  0
   -5.5940   24.3300  -30.6680 C   0  0  0  0  0  0  0  0  0  0  0  0
   -5.5200   23.1660  -31.4420 C   0  0  0  0  0  0  0  0  0  0  0  0
   -6.5750   22.8850  -32.3250 O   0  0  0  0  0  0  0  0  0  0  0  0
   -7.8090   22.2600  -31.9630 C   0  0  0  0  0  0  0  0  0  0  0  0
   -7.7560   20.7700  -32.1890 C   0  0  0  0  0  0  0  0  0  0  0  0
   -8.6870   19.9290  -31.5590 C   0  0  0  0  0  0  0  0  0  0  0  0
   -8.6500   18.5500  -31.7800 C   0  0  0  0  0  0  0  0  0  0  0  0
   -7.6770   17.9980  -32.6180 C   0  0  0  0  0  0  0  0  0  0  0  0
   -6.7190   18.8220  -33.2260 C   0  0  0  0  0  0  0  0  0  0  0  0
   -5.7030   18.2340  -34.1600 C   0  0  0  0  0  0  0  0  0  0  0  0
   -6.7650   20.2090  -33.0120 C   0  0  0  0  0  0  0  0  0  0  0  0
   -4.4090   22.3150  -31.2950 C   0  0  0  0  0  0  0  0  0  0  0  0
   -3.4190   22.6040  -30.3520 C   0  0  0  0  0  0  0  0  0  0  0  0
   -1.2180   24.6000  -28.8650 C   0  0  1  0  0  0  0  0  0  0  0  0
   -1.0350   25.9450  -28.1510 C   0  0  0  0  0  0  0  0  0  0  0  0
   -0.0900   23.5930  -28.5240 C   0  0  0  0  0  0  0  0  0  0  0  0
    1.0630   20.8070  -28.1290 C   0  0  0  0  0  0  0  0  0  0  0  0
    1.3670   19.4620  -28.3560 C   0  0  0  0  0  0  0  0  0  0  0  0
    1.1160   16.1560  -27.5760 C   0  0  0  0  0  0  0  0  0  0  0  0
    1.3670   16.3770  -26.3590 O   0  0  0  0  0  0  0  0  0  0  0  0
   -0.0967   11.8404  -25.3974 H   0  0  0  0  0  0  0  0  0  0  0  0
   -0.7512   12.4665  -26.9487 H   0  0  0  0  0  0  0  0  0  0  0  0
    0.6965   11.4031  -26.9487 H   0  0  0  0  0  0  0  0  0  0  0  0
    0.4458   14.2959  -26.0320 H   0  0  0  0  0  0  0  0  0  0  0  0
    1.8165   13.2146  -25.5112 H   0  0  0  0  0  0  0  0  0  0  0  0
    1.6771   12.8863  -28.2781 H   0  0  0  0  0  0  0  0  0  0  0  0
    3.5464   13.8944  -26.2859 H   0  0  0  0  0  0  0  0  0  0  0  0
    3.8604   13.0217  -27.8242 H   0  0  0  0  0  0  0  0  0  0  0  0
    3.6933   14.8102  -27.8242 H   0  0  0  0  0  0  0  0  0  0  0  0
    0.3189   16.8578  -30.5734 H   0  0  0  0  0  0  0  0  0  0  0  0
   -1.6989   18.0933  -27.7149 H   0  0  0  0  0  0  0  0  0  0  0  0
   -2.2472   20.4918  -27.3356 H   0  0  0  0  0  0  0  0  0  0  0  0
   -1.7220   22.1591  -25.8582 H   0  0  0  0  0  0  0  0  0  0  0  0
   -1.0404   23.8204  -25.9227 H   0  0  0  0  0  0  0  0  0  0  0  0
   -3.5098   22.6902  -27.2182 H   0  0  0  0  0  0  0  0  0  0  0  0
   -3.1832   24.3434  -26.5603 H   0  0  0  0  0  0  0  0  0  0  0  0
   -4.6706   25.5397  -29.1268 H   0  0  0  0  0  0  0  0  0  0  0  0
   -6.4421   25.0185  -30.7972 H   0  0  0  0  0  0  0  0  0  0  0  0
   -8.0103   22.4540  -30.8991 H   0  0  0  0  0  0  0  0  0  0  0  0
   -8.6078   22.6783  -32.5930 H   0  0  0  0  0  0  0  0  0  0  0  0
   -9.4477   20.3570  -30.8895 H   0  0  0  0  0  0  0  0  0  0  0  0
   -9.3889   17.8966  -31.2930 H   0  0  0  0  0  0  0  0  0  0  0  0
   -7.6627   16.9135  -32.8012 H   0  0  0  0  0  0  0  0  0  0  0  0
   -4.8958   17.7668  -33.5767 H   0  0  0  0  0  0  0  0  0  0  0  0
   -6.1840   17.4746  -34.7941 H   0  0  0  0  0  0  0  0  0  0  0  0
   -5.2842   19.0293  -34.7941 H   0  0  0  0  0  0  0  0  0  0  0  0
   -6.0201   20.8608  -33.4919 H   0  0  0  0  0  0  0  0  0  0  0  0
   -4.3194   21.4180  -31.9254 H   0  0  0  0  0  0  0  0  0  0  0  0
   -2.5650   21.9215  -30.2299 H   0  0  0  0  0  0  0  0  0  0  0  0
   -1.1664   24.7972  -29.9459 H   0  0  0  0  0  0  0  0  0  0  0  0
   -1.0563   25.7882  -27.0624 H   0  0  0  0  0  0  0  0  0  0  0  0
   -0.0688   26.3847  -28.4392 H   0  0  0  0  0  0  0  0  0  0  0  0
   -1.8487   26.6268  -28.4392 H   0  0  0  0  0  0  0  0  0  0  0  0
    0.2286   23.0853  -29.4464 H   0  0  0  0  0  0  0  0  0  0  0  0
    0.7483   24.1474  -28.0769 H   0  0  0  0  0  0  0  0  0  0  0  0
    1.8469   21.5702  -28.2427 H   0  0  0  0  0  0  0  0  0  0  0  0
    2.3885   19.1744  -28.6457 H   0  0  0  0  0  0  0  0  0  0  0  0
  1  2  1  0
  2  3  1  0
  3  4  1  0
  3  5  1  0
  5  6  1  0
  6  7  2  0
  7  8  1  0
  8  9  1  0
  9 10  2  0
 10 11  1  0
 11 12  2  0
 12 13  1  0
 13 14  1  0
 14 15  1  0
 15 16  1  0
 16 17  1  0
 17 18  2  0
 18 19  1  0
 19 20  2  0
 20 21  1  0
 21 22  1  0
 22 23  1  0
 23 24  2  0
 24 25  1  0
 25 26  2  0
 26 27  1  0
 27 28  1  0
 27 29  2  0
 20 30  1  0
 30 31  2  0
 16 32  1  0
 32 33  1  0
 32 34  1  0
 12 35  1  0
 35 36  2  0
  8 37  1  0
 37 38  2  0
 37  5  1  0
 36  9  1  0
 34 13  1  0
 31 17  1  0
 29 23  1  0
  1 39  1  0
  1 40  1  0
  1 41  1  0
  2 42  1  0
  2 43  1  0
  3 44  1  6
  4 45  1  0
  4 46  1  0
  4 47  1  0
  7 48  1  0
 10 49  1  0
 11 50  1  0
 14 51  1  0
 14 52  1  0
 15 53  1  0
 15 54  1  0
 18 55  1  0
 19 56  1  0
 22 57  1  0
 22 58  1  0
 24 59  1  0
 25 60  1  0
 26 61  1  0
 28 62  1  0
 28 63  1  0
 28 64  1  0
 29 65  1  0
 30 66  1  0
 31 67  1  0
 32 68  1  6
 33 69  1  0
 33 70  1  0
 33 71  1  0
 34 72  1  0
 34 73  1  0
 35 74  1  0
 36 75  1  0
M  END
>  <UniqueID>  (37) 
36

>  <SMILES>  (37) 
CC[C@H](C)n1ncn(-c2ccc(N3CCN(c4ccc(OCc5cccc(C)c5)cc4)[C@@H](C)C3)cc2)c1=O

>  <Energy>  (37) 
126.20975723935153

>  <Genealogy>  (37) 
CC[C@H](C)n1ncn(-c2ccc(N3CCN(c4ccc(OCc5cccc(C)c5)cc4)[C@@H](C)C3)cc2)c1=O (chirality)
CC[C@H](C)n1ncn(-c2ccc(N3CCN(c4ccc(OCc5cccc(C)c5)cc4)[C@@H](C)C3)cc2)c1=O (3D coordinates assigned)
CC[C@H](C)n1ncn(-c2ccc(N3CCN(c4ccc(OCc5cccc(C)c5)cc4)[C@@H](C)C3)cc2)c1=O (nonaromatic ring conformer: 126.20975723935153 kcal/mol)

>  <smiles>  (37) 
CCC(C)n1ncn(-c2ccc(N3CCN(c4ccc(OCc5cccc(C)c5)cc4)C(C)C3)cc2)c1=O

>  <score_type>  (37) 
oracle

>  <origin>  (37) 
adg

>  <m_score__min__energy>  (37) 
-10.34

>  <m_primary>  (37) 
energy

$$$$
38:0
     RDKit          3D

 34 36  0  0  0  0  0  0  0  0999 V2000
   -2.4840   24.5430  -29.2270 C   0  0  0  0  0  0  0  0  0  0  0  0
   -3.6320   24.2180  -30.1280 C   0  0  0  0  0  0  0  0  0  0  0  0
   -3.7170   22.9610  -30.7430 C   0  0  0  0  0  0  0  0  0  0  0  0
   -4.7930   22.6790  -31.5980 C   0  0  0  0  0  0  0  0  0  0  0  0
   -4.9070   21.3650  -32.2690 C   0  0  0  0  0  0  0  0  0  0  0  0
   -3.9160   20.7940  -32.9830 N   0  0  0  0  0  0  0  0  0  0  0  0
   -4.3170   19.6150  -33.4450 N   0  0  0  0  0  0  0  0  0  0  0  0
   -3.4260   18.7490  -34.2150 C   0  0  0  0  0  0  0  0  0  0  0  0
   -5.5970   19.4040  -33.0270 C   0  0  0  0  0  0  0  0  0  0  0  0
   -6.4970   18.3210  -33.2480 C   0  0  0  0  0  0  0  0  0  0  0  0
   -6.1630   17.0790  -34.0500 C   0  0  0  0  0  0  0  0  0  0  0  0
   -7.2470   16.2200  -34.1300 F   0  0  0  0  0  0  0  0  0  0  0  0
   -5.1360   16.3800  -33.4520 F   0  0  0  0  0  0  0  0  0  0  0  0
   -5.8160   17.4340  -35.3390 F   0  0  0  0  0  0  0  0  0  0  0  0
   -7.8020   18.4590  -32.7060 C   0  0  0  0  0  0  0  0  0  0  0  0
   -8.1810   19.6030  -31.9810 C   0  0  0  0  0  0  0  0  0  0  0  0
   -7.2740   20.6440  -31.7690 C   0  0  0  0  0  0  0  0  0  0  0  0
   -5.9900   20.5060  -32.2890 C   0  0  0  0  0  0  0  0  0  0  0  0
   -5.7450   23.6770  -31.8480 C   0  0  0  0  0  0  0  0  0  0  0  0
   -5.6210   24.9200  -31.2240 C   0  0  0  0  0  0  0  0  0  0  0  0
   -4.5780   25.1620  -30.3870 N   0  0  0  0  0  0  0  0  0  0  0  0
   -2.8038   24.4525  -28.1784 H   0  0  0  0  0  0  0  0  0  0  0  0
   -1.6571   23.8436  -29.4198 H   0  0  0  0  0  0  0  0  0  0  0  0
   -2.1464   25.5720  -29.4198 H   0  0  0  0  0  0  0  0  0  0  0  0
   -2.9446   22.2004  -30.5563 H   0  0  0  0  0  0  0  0  0  0  0  0
   -2.9640   21.1980  -33.1340 H   0  0  0  0  0  0  0  0  0  0  0  0
   -2.8108   18.1510  -33.5266 H   0  0  0  0  0  0  0  0  0  0  0  0
   -4.0244   18.0781  -34.8489 H   0  0  0  0  0  0  0  0  0  0  0  0
   -2.7724   19.3662  -34.8489 H   0  0  0  0  0  0  0  0  0  0  0  0
   -8.5341   17.6519  -32.8567 H   0  0  0  0  0  0  0  0  0  0  0  0
   -9.2013   19.6787  -31.5771 H   0  0  0  0  0  0  0  0  0  0  0  0
   -7.5652   21.5447  -31.2087 H   0  0  0  0  0  0  0  0  0  0  0  0
   -6.5846   23.4822  -32.5315 H   0  0  0  0  0  0  0  0  0  0  0  0
   -6.3689   25.7048  -31.4103 H   0  0  0  0  0  0  0  0  0  0  0  0
  1  2  1  0
  2  3  2  0
  3  4  1  0
  4  5  1  0
  5  6  2  0
  6  7  1  0
  7  8  1  0
  7  9  1  0
  9 10  2  0
 10 11  1  0
 11 12  1  0
 11 13  1  0
 11 14  1  0
 10 15  1  0
 15 16  2  0
 16 17  1  0
 17 18  2  0
  4 19  2  0
 19 20  1  0
 20 21  2  0
 21  2  1  0
 18  5  1  0
 18  9  1  0
  1 22  1  0
  1 23  1  0
  1 24  1  0
  3 25  1  0
  6 26  1  0
  8 27  1  0
  8 28  1  0
  8 29  1  0
 15 30  1  0
 16 31  1  0
 17 32  1  0
 19 33  1  0
 20 34  1  0
M  CHG  1   6   1
M  END
>  <UniqueID>  (38) 
37

>  <SMILES>  (38) 
Cc1cc(-c2[nH+]n(C)c3c(C(F)(F)F)cccc23)ccn1

>  <Energy>  (38) 
85.92998184168813

>  <Genealogy>  (38) 
Cc1cc(-c2[nH+]n(C)c3c(C(F)(F)F)cccc23)ccn1 (protonated)
Cc1cc(-c2[nH+]n(C)c3c(C(F)(F)F)cccc23)ccn1 (3D coordinates assigned)
Cc1cc(-c2[nH+]n(C)c3c(C(F)(F)F)cccc23)ccn1 (optimized conformer: 85.92998184168813 kcal/mol)

>  <smiles>  (38) 
Cc1cc(-c2nn(C)c3c(C(F)(F)F)cccc23)ccn1

>  <score_type>  (38) 
oracle

>  <origin>  (38) 
adg

>  <m_score__min__energy>  (38) 
-6.7199999999999998

>  <m_primary>  (38) 
energy

$$$$
39:0
     RDKit          3D

 17 17  0  0  0  0  0  0  0  0999 V2000
   -3.1430   24.5470  -29.3770 C   0  0  0  0  0  0  0  0  0  0  0  0
   -3.8620   25.1110  -30.4680 O   0  0  0  0  0  0  0  0  0  0  0  0
   -5.1370   24.6710  -30.8390 C   0  0  0  0  0  0  0  0  0  0  0  0
   -6.1520   25.3640  -30.5580 O   0  0  0  0  0  0  0  0  0  0  0  0
   -5.2730   23.3920  -31.5570 C   0  0  0  0  0  0  0  0  0  0  0  0
   -3.9790   22.3740  -31.9040 S   0  0  0  0  0  0  0  0  0  0  0  0
   -4.9280   21.2150  -32.6610 C   0  0  0  0  0  0  0  0  0  0  0  0
   -6.2280   21.5800  -32.6600 N   0  0  0  0  0  0  0  0  0  0  0  0
   -6.4360   22.7850  -32.0590 C   0  0  0  0  0  0  0  0  0  0  0  0
   -7.8200   23.3440  -31.9400 C   0  0  0  0  0  0  0  0  0  0  0  0
   -9.0780   21.9280  -31.5340 Br  0  0  0  0  0  0  0  0  0  0  0  0
   -3.5833   24.8924  -28.4300 H   0  0  0  0  0  0  0  0  0  0  0  0
   -3.1993   23.4497  -29.4289 H   0  0  0  0  0  0  0  0  0  0  0  0
   -2.0906   24.8630  -29.4289 H   0  0  0  0  0  0  0  0  0  0  0  0
   -4.5425   20.2827  -33.0993 H   0  0  0  0  0  0  0  0  0  0  0  0
   -7.8420   24.0922  -31.1340 H   0  0  0  0  0  0  0  0  0  0  0  0
   -8.1019   23.8130  -32.8942 H   0  0  0  0  0  0  0  0  0  0  0  0
  1  2  1  0
  2  3  1  0
  3  4  2  0
  3  5  1  0
  5  6  1  0
  6  7  1  0
  7  8  2  0
  8  9  1  0
  9 10  1  0
 10 11  1  0
  9  5  2  0
  1 12  1  0
  1 13  1  0
  1 14  1  0
  7 15  1  0
 10 16  1  0
 10 17  1  0
M  END
>  <UniqueID>  (39) 
38

>  <SMILES>  (39) 
COC(=O)c1scnc1CBr

>  <Energy>  (39) 
41.909321090698235

>  <Genealogy>  (39) 
COC(=O)c1scnc1CBr (3D coordinates assigned)
COC(=O)c1scnc1CBr (optimized conformer: 41.909321090698235 kcal/mol)

>  <smiles>  (39) 
COC(=O)c1scnc1CBr

>  <score_type>  (39) 
oracle

>  <origin>  (39) 
adg

>  <m_score__min__energy>  (39) 
-4.8499999999999996

>  <m_primary>  (39) 
energy

$$$$
40:0
     RDKit          3D

 54 55  0  0  0  0  0  0  0  0999 V2000
   -8.9620   18.5790  -31.9680 C   0  0  0  0  0  0  0  0  0  0  0  0
   -8.5190   19.6700  -32.7700 O   0  0  0  0  0  0  0  0  0  0  0  0
   -7.2100   20.1790  -32.7660 C   0  0  0  0  0  0  0  0  0  0  0  0
   -6.1050   19.4010  -33.1590 C   0  0  0  0  0  0  0  0  0  0  0  0
   -4.8180   19.9390  -33.1360 C   0  0  0  0  0  0  0  0  0  0  0  0
   -4.6110   21.2630  -32.7240 C   0  0  0  0  0  0  0  0  0  0  0  0
   -3.2120   21.8280  -32.6410 C   0  0  0  0  0  0  0  0  0  0  0  0
   -2.8290   22.1400  -31.2530 N   0  0  0  0  0  0  0  0  0  0  0  0
   -1.5080   21.5800  -30.9090 C   0  0  0  0  0  0  0  0  0  0  0  0
   -1.2350   21.6040  -29.3810 C   0  0  0  0  0  0  0  0  0  0  0  0
   -2.4540   21.0480  -28.5950 C   0  0  0  0  0  0  0  0  0  0  0  0
   -3.4030   22.1500  -28.0790 C   0  0  0  0  0  0  0  0  0  0  0  0
   -3.3570   23.3310  -28.9590 N   0  0  0  0  0  0  0  0  0  0  0  0
   -4.5020   24.2660  -28.8380 C   0  0  0  0  0  0  0  0  0  0  0  0
   -5.1890   24.6870  -30.1690 C   0  0  1  0  0  0  0  0  0  0  0  0
   -5.9190   26.0330  -30.0860 C   0  0  0  0  0  0  0  0  0  0  0  0
   -4.2310   24.7340  -31.1970 O   0  0  0  0  0  0  0  0  0  0  0  0
   -2.0370   24.0000  -29.0130 C   0  0  0  0  0  0  0  0  0  0  0  0
   -0.8710   23.0050  -28.8470 C   0  0  0  0  0  0  0  0  0  0  0  0
   -5.7100   22.0420  -32.3340 C   0  0  0  0  0  0  0  0  0  0  0  0
   -7.0120   21.5060  -32.3520 C   0  0  0  0  0  0  0  0  0  0  0  0
   -8.1330   22.2570  -31.9660 O   0  0  0  0  0  0  0  0  0  0  0  0
   -9.0280   21.8900  -30.9210 C   0  0  0  0  0  0  0  0  0  0  0  0
   -8.8564   18.8391  -30.9044 H   0  0  0  0  0  0  0  0  0  0  0  0
  -10.0180   18.3657  -32.1902 H   0  0  0  0  0  0  0  0  0  0  0  0
   -8.3537   17.6899  -32.1902 H   0  0  0  0  0  0  0  0  0  0  0  0
   -6.2571   18.3619  -33.4864 H   0  0  0  0  0  0  0  0  0  0  0  0
   -3.9612   19.3211  -33.4427 H   0  0  0  0  0  0  0  0  0  0  0  0
   -2.5052   21.0898  -33.0480 H   0  0  0  0  0  0  0  0  0  0  0  0
   -3.1858   22.7623  -33.2210 H   0  0  0  0  0  0  0  0  0  0  0  0
   -2.7990   23.1810  -31.1500 H   0  0  0  0  0  0  0  0  0  0  0  0
   -3.5620   21.7610  -30.6110 H   0  0  0  0  0  0  0  0  0  0  0  0
   -1.4637   20.5383  -31.2595 H   0  0  0  0  0  0  0  0  0  0  0  0
   -0.7427   22.2020  -31.3963 H   0  0  0  0  0  0  0  0  0  0  0  0
   -0.3592   20.9579  -29.2213 H   0  0  0  0  0  0  0  0  0  0  0  0
   -3.0227   20.3807  -29.2593 H   0  0  0  0  0  0  0  0  0  0  0  0
   -2.0598   20.5196  -27.7145 H   0  0  0  0  0  0  0  0  0  0  0  0
   -4.4307   21.7586  -28.0534 H   0  0  0  0  0  0  0  0  0  0  0  0
   -3.0829   22.4483  -27.0698 H   0  0  0  0  0  0  0  0  0  0  0  0
   -5.2625   23.7851  -28.2053 H   0  0  0  0  0  0  0  0  0  0  0  0
   -4.0826   25.1920  -28.4176 H   0  0  0  0  0  0  0  0  0  0  0  0
   -5.9560   23.9274  -30.3806 H   0  0  0  0  0  0  0  0  0  0  0  0
   -6.0668   26.3055  -29.0306 H   0  0  0  0  0  0  0  0  0  0  0  0
   -5.3174   26.8077  -30.5839 H   0  0  0  0  0  0  0  0  0  0  0  0
   -6.8964   25.9513  -30.5839 H   0  0  0  0  0  0  0  0  0  0  0  0
   -4.2310   25.6560  -31.5660 H   0  0  0  0  0  0  0  0  0  0  0  0
   -1.9357   24.5051  -29.9849 H   0  0  0  0  0  0  0  0  0  0  0  0
   -1.9886   24.7179  -28.1809 H   0  0  0  0  0  0  0  0  0  0  0  0
    0.0010   23.3822  -29.4014 H   0  0  0  0  0  0  0  0  0  0  0  0
   -0.6475   22.9151  -27.7737 H   0  0  0  0  0  0  0  0  0  0  0  0
   -5.5534   23.0818  -32.0109 H   0  0  0  0  0  0  0  0  0  0  0  0
   -8.5543   22.0843  -29.9474 H   0  0  0  0  0  0  0  0  0  0  0  0
   -9.9513   22.4821  -31.0042 H   0  0  0  0  0  0  0  0  0  0  0  0
   -9.2698   20.8201  -31.0042 H   0  0  0  0  0  0  0  0  0  0  0  0
  1  2  1  0
  2  3  1  0
  3  4  2  0
  4  5  1  0
  5  6  2  0
  6  7  1  0
  7  8  1  0
  8  9  1  0
  9 10  1  0
 10 11  1  0
 11 12  1  0
 12 13  1  0
 13 14  1  0
 14 15  1  0
 15 16  1  0
 15 17  1  0
 13 18  1  0
 18 19  1  0
  6 20  1  0
 20 21  2  0
 21 22  1  0
 22 23  1  0
 21  3  1  0
 19 10  1  0
  1 24  1  0
  1 25  1  0
  1 26  1  0
  4 27  1  0
  5 28  1  0
  7 29  1  0
  7 30  1  0
  8 31  1  0
  8 32  1  0
  9 33  1  0
  9 34  1  0
 10 35  1  0
 11 36  1  0
 11 37  1  0
 12 38  1  0
 12 39  1  0
 14 40  1  0
 14 41  1  0
 15 42  1  6
 16 43  1  0
 16 44  1  0
 16 45  1  0
 17 46  1  0
 18 47  1  0
 18 48  1  0
 19 49  1  0
 19 50  1  0
 20 51  1  0
 23 52  1  0
 23 53  1  0
 23 54  1  0
M  CHG  1   8   1
M  END
>  <UniqueID>  (40) 
39

>  <SMILES>  (40) 
COc1ccc(C[NH2+]CC2CCN(C[C@@H](C)O)CC2)cc1OC

>  <Energy>  (40) 
60.52751767006157

>  <Genealogy>  (40) 
COc1ccc(C[NH2+]CC2CCN(CC(C)O)CC2)cc1OC (protonated)
COc1ccc(C[NH2+]CC2CCN(C[C@@H](C)O)CC2)cc1OC (chirality)
COc1ccc(C[NH2+]CC2CCN(C[C@@H](C)O)CC2)cc1OC (3D coordinates assigned)
COc1ccc(C[NH2+]CC2CCN(C[C@@H](C)O)CC2)cc1OC (nonaromatic ring conformer: 60.52751767006157 kcal/mol)

>  <smiles>  (40) 
COc1ccc(CNCC2CCN(CC(C)O)CC2)cc1OC

>  <score_type>  (40) 
oracle

>  <origin>  (40) 
adg

>  <m_score__min__energy>  (40) 
-6.5300000000000002

>  <m_primary>  (40) 
energy

$$$$
41:0
     RDKit          3D

 42 43  0  0  0  0  0  0  0  0999 V2000
   -2.1500   26.0240  -25.8310 C   0  0  0  0  0  0  0  0  0  0  0  0
   -2.9190   25.2980  -26.8560 N   0  0  0  0  0  0  0  0  0  0  0  0
   -4.2540   24.9300  -26.3510 C   0  0  0  0  0  0  0  0  0  0  0  0
   -2.1800   24.1430  -27.4280 C   0  0  0  0  0  0  0  0  0  0  0  0
   -2.0340   24.1480  -28.9660 C   0  0  0  0  0  0  0  0  0  0  0  0
   -3.0220   24.9630  -29.5960 O   0  0  0  0  0  0  0  0  0  0  0  0
   -4.1600   24.4970  -30.2740 C   0  0  0  0  0  0  0  0  0  0  0  0
   -4.1330   23.3810  -31.1330 C   0  0  0  0  0  0  0  0  0  0  0  0
   -5.3000   22.9590  -31.7770 C   0  0  0  0  0  0  0  0  0  0  0  0
   -6.5060   23.6470  -31.5820 C   0  0  0  0  0  0  0  0  0  0  0  0
   -7.7660   23.1660  -32.2490 C   0  0  0  0  0  0  0  0  0  0  0  0
   -7.8610   21.7100  -32.1550 N   0  0  0  0  0  0  0  0  0  0  0  0
   -7.0800   20.7800  -32.9490 C   0  0  0  0  0  0  0  0  0  0  0  0
   -7.5260   19.3680  -32.5150 C   0  0  0  0  0  0  0  0  0  0  0  0
   -8.5510   19.5350  -31.3820 C   0  0  0  0  0  0  0  0  0  0  0  0
   -8.7010   20.9990  -31.2680 C   0  0  0  0  0  0  0  0  0  0  0  0
   -9.4920   21.5610  -30.4670 O   0  0  0  0  0  0  0  0  0  0  0  0
   -6.5330   24.7590  -30.7270 C   0  0  0  0  0  0  0  0  0  0  0  0
   -5.3660   25.1800  -30.0830 C   0  0  0  0  0  0  0  0  0  0  0  0
   -2.4834   25.7093  -24.8311 H   0  0  0  0  0  0  0  0  0  0  0  0
   -1.0796   25.7994  -25.9482 H   0  0  0  0  0  0  0  0  0  0  0  0
   -2.3127   27.1056  -25.9482 H   0  0  0  0  0  0  0  0  0  0  0  0
   -3.0720   25.9680  -27.6490 H   0  0  0  0  0  0  0  0  0  0  0  0
   -4.2435   24.9329  -25.2511 H   0  0  0  0  0  0  0  0  0  0  0  0
   -4.9960   25.6571  -26.7125 H   0  0  0  0  0  0  0  0  0  0  0  0
   -4.5187   23.9254  -26.7125 H   0  0  0  0  0  0  0  0  0  0  0  0
   -1.1706   24.1354  -26.9910 H   0  0  0  0  0  0  0  0  0  0  0  0
   -2.7738   23.2503  -27.1820 H   0  0  0  0  0  0  0  0  0  0  0  0
   -1.0373   24.5336  -29.2265 H   0  0  0  0  0  0  0  0  0  0  0  0
   -2.1682   23.1161  -29.3226 H   0  0  0  0  0  0  0  0  0  0  0  0
   -3.1899   22.8393  -31.2978 H   0  0  0  0  0  0  0  0  0  0  0  0
   -5.2718   22.0821  -32.4405 H   0  0  0  0  0  0  0  0  0  0  0  0
   -8.6363   23.6200  -31.7526 H   0  0  0  0  0  0  0  0  0  0  0  0
   -7.7453   23.4573  -33.3095 H   0  0  0  0  0  0  0  0  0  0  0  0
   -7.2796   20.9311  -34.0201 H   0  0  0  0  0  0  0  0  0  0  0  0
   -6.0009   20.9263  -32.7936 H   0  0  0  0  0  0  0  0  0  0  0  0
   -7.9871   18.8423  -33.3641 H   0  0  0  0  0  0  0  0  0  0  0  0
   -6.6634   18.7773  -32.1730 H   0  0  0  0  0  0  0  0  0  0  0  0
   -9.5082   19.0607  -31.6443 H   0  0  0  0  0  0  0  0  0  0  0  0
   -8.2319   19.0619  -30.4416 H   0  0  0  0  0  0  0  0  0  0  0  0
   -7.4758   25.3014  -30.5629 H   0  0  0  0  0  0  0  0  0  0  0  0
   -5.3961   26.0569  -29.4195 H   0  0  0  0  0  0  0  0  0  0  0  0
  1  2  1  0
  2  3  1  0
  2  4  1  0
  4  5  1  0
  5  6  1  0
  6  7  1  0
  7  8  2  0
  8  9  1  0
  9 10  2  0
 10 11  1  0
 11 12  1  0
 12 13  1  0
 13 14  1  0
 14 15  1  0
 15 16  1  0
 16 17  2  0
 10 18  1  0
 18 19  2  0
 19  7  1  0
 16 12  1  0
  1 20  1  0
  1 21  1  0
  1 22  1  0
  2 23  1  0
  3 24  1  0
  3 25  1  0
  3 26  1  0
  4 27  1  0
  4 28  1  0
  5 29  1  0
  5 30  1  0
  8 31  1  0
  9 32  1  0
 11 33  1  0
 11 34  1  0
 13 35  1  0
 13 36  1  0
 14 37  1  0
 14 38  1  0
 15 39  1  0
 15 40  1  0
 18 41  1  0
 19 42  1  0
M  CHG  1   2   1
M  END
>  <UniqueID>  (41) 
40

>  <SMILES>  (41) 
C[NH+](C)CCOc1ccc(CN2CCCC2=O)cc1

>  <Energy>  (41) 
46.9586758461357

>  <Genealogy>  (41) 
C[NH+](C)CCOc1ccc(CN2CCCC2=O)cc1 (protonated)
C[NH+](C)CCOc1ccc(CN2CCCC2=O)cc1 (3D coordinates assigned)
C[NH+](C)CCOc1ccc(CN2CCCC2=O)cc1 (nonaromatic ring conformer: 46.9586758461357 kcal/mol)

>  <smiles>  (41) 
CN(C)CCOc1ccc(CN2CCCC2=O)cc1

>  <score_type>  (41) 
oracle

>  <origin>  (41) 
adg

>  <m_score__min__energy>  (41) 
-6.2999999999999998

>  <m_primary>  (41) 
energy

$$$$
42:0
     RDKit          3D

 58 60  0  0  0  0  0  0  0  0999 V2000
   -5.3440   17.9940  -34.4650 C   0  0  0  0  0  0  0  0  0  0  0  0
   -6.2620   17.7060  -33.2840 C   0  0  0  0  0  0  0  0  0  0  0  0
   -6.5580   18.9660  -32.5600 N   0  0  0  0  0  0  0  0  0  0  0  0
   -7.7490   18.8600  -31.6850 C   0  0  0  0  0  0  0  0  0  0  0  0
   -9.0610   19.2570  -32.3780 C   0  0  0  0  0  0  0  0  0  0  0  0
   -6.6130   20.1500  -33.4470 C   0  0  0  0  0  0  0  0  0  0  0  0
   -6.2470   21.4080  -32.6900 C   0  0  0  0  0  0  0  0  0  0  0  0
   -7.2730   22.2960  -32.3290 C   0  0  0  0  0  0  0  0  0  0  0  0
   -6.9850   23.4650  -31.7050 N   0  0  0  0  0  0  0  0  0  0  0  0
   -5.7040   23.8030  -31.4200 C   0  0  0  0  0  0  0  0  0  0  0  0
   -5.3570   25.3420  -30.5760 S   0  0  0  0  0  0  0  0  0  0  0  0
   -5.0000   24.5560  -28.9640 C   0  0  0  0  0  0  0  0  0  0  0  0
   -3.7710   23.6920  -29.0400 C   0  0  0  0  0  0  0  0  0  0  0  0
   -3.8710   22.3060  -28.8420 C   0  0  0  0  0  0  0  0  0  0  0  0
   -2.7320   21.4970  -28.9400 C   0  0  0  0  0  0  0  0  0  0  0  0
   -1.4920   22.0660  -29.2400 C   0  0  0  0  0  0  0  0  0  0  0  0
   -1.3870   23.4460  -29.4460 C   0  0  0  0  0  0  0  0  0  0  0  0
   -2.5210   24.2580  -29.3460 C   0  0  0  0  0  0  0  0  0  0  0  0
   -4.6890   22.9700  -31.7580 N   0  0  0  0  0  0  0  0  0  0  0  0
   -4.9120   21.7790  -32.3790 C   0  0  0  0  0  0  0  0  0  0  0  0
   -3.7260   20.9450  -32.6970 C   0  0  0  0  0  0  0  0  0  0  0  0
   -3.6530   19.7520  -32.2990 O   0  0  0  0  0  0  0  0  0  0  0  0
   -2.6470   21.5060  -33.4650 N   0  0  0  0  0  0  0  0  0  0  0  0
   -1.3450   20.9080  -33.5800 C   0  0  0  0  0  0  0  0  0  0  0  0
   -0.7180   20.7520  -34.8290 C   0  0  0  0  0  0  0  0  0  0  0  0
    0.5410   20.1540  -34.9140 C   0  0  0  0  0  0  0  0  0  0  0  0
    1.1790   19.6890  -33.7630 C   0  0  0  0  0  0  0  0  0  0  0  0
    0.5500   19.7990  -32.5150 C   0  0  0  0  0  0  0  0  0  0  0  0
    1.2490   19.3270  -31.2740 C   0  0  0  0  0  0  0  0  0  0  0  0
   -0.7100   20.4150  -32.4300 C   0  0  0  0  0  0  0  0  0  0  0  0
   -4.3559   18.3040  -34.0942 H   0  0  0  0  0  0  0  0  0  0  0  0
   -5.2378   17.0860  -35.0768 H   0  0  0  0  0  0  0  0  0  0  0  0
   -5.7755   18.7999  -35.0768 H   0  0  0  0  0  0  0  0  0  0  0  0
   -7.2012   17.2658  -33.6502 H   0  0  0  0  0  0  0  0  0  0  0  0
   -5.7650   17.0020  -32.6004 H   0  0  0  0  0  0  0  0  0  0  0  0
   -7.8378   17.8180  -31.3439 H   0  0  0  0  0  0  0  0  0  0  0  0
   -7.5997   19.5628  -30.8520 H   0  0  0  0  0  0  0  0  0  0  0  0
   -9.8221   19.4873  -31.6179 H   0  0  0  0  0  0  0  0  0  0  0  0
   -8.8901   20.1437  -33.0062 H   0  0  0  0  0  0  0  0  0  0  0  0
   -9.4104   18.4244  -33.0062 H   0  0  0  0  0  0  0  0  0  0  0  0
   -5.9058   20.0109  -34.2780 H   0  0  0  0  0  0  0  0  0  0  0  0
   -7.6388   20.2556  -33.8298 H   0  0  0  0  0  0  0  0  0  0  0  0
   -8.3191   22.0413  -32.5542 H   0  0  0  0  0  0  0  0  0  0  0  0
   -4.8408   25.3407  -28.2097 H   0  0  0  0  0  0  0  0  0  0  0  0
   -5.8553   23.9213  -28.6891 H   0  0  0  0  0  0  0  0  0  0  0  0
   -4.8465   21.8541  -28.6093 H   0  0  0  0  0  0  0  0  0  0  0  0
   -2.8140   20.4117  -28.7805 H   0  0  0  0  0  0  0  0  0  0  0  0
   -0.5981   21.4292  -29.3143 H   0  0  0  0  0  0  0  0  0  0  0  0
   -0.4111   23.8927  -29.6869 H   0  0  0  0  0  0  0  0  0  0  0  0
   -2.4348   25.3427  -29.5072 H   0  0  0  0  0  0  0  0  0  0  0  0
   -2.8470   22.3510  -34.0490 H   0  0  0  0  0  0  0  0  0  0  0  0
   -1.2211   21.1023  -35.7423 H   0  0  0  0  0  0  0  0  0  0  0  0
    1.0322   20.0489  -35.8926 H   0  0  0  0  0  0  0  0  0  0  0  0
    2.1783   19.2349  -33.8354 H   0  0  0  0  0  0  0  0  0  0  0  0
    0.7090   19.6917  -30.3878 H   0  0  0  0  0  0  0  0  0  0  0  0
    1.2726   18.2273  -31.2622 H   0  0  0  0  0  0  0  0  0  0  0  0
    2.2779   19.7160  -31.2622 H   0  0  0  0  0  0  0  0  0  0  0  0
   -1.2037   20.5118  -31.4518 H   0  0  0  0  0  0  0  0  0  0  0  0
  1  2  1  0
  2  3  1  0
  3  4  1  0
  4  5  1  0
  3  6  1  0
  6  7  1  0
  7  8  2  0
  8  9  1  0
  9 10  2  0
 10 11  1  0
 11 12  1  0
 12 13  1  0
 13 14  2  0
 14 15  1  0
 15 16  2  0
 16 17  1  0
 17 18  2  0
 10 19  1  0
 19 20  2  0
 20 21  1  0
 21 22  2  0
 21 23  1  0
 23 24  1  0
 24 25  2  0
 25 26  1  0
 26 27  2  0
 27 28  1  0
 28 29  1  0
 28 30  2  0
 20  7  1  0
 30 24  1  0
 18 13  1  0
  1 31  1  0
  1 32  1  0
  1 33  1  0
  2 34  1  0
  2 35  1  0
  4 36  1  0
  4 37  1  0
  5 38  1  0
  5 39  1  0
  5 40  1  0
  6 41  1  0
  6 42  1  0
  8 43  1  0
 12 44  1  0
 12 45  1  0
 14 46  1  0
 15 47  1  0
 16 48  1  0
 17 49  1  0
 18 50  1  0
 23 51  1  0
 25 52  1  0
 26 53  1  0
 27 54  1  0
 29 55  1  0
 29 56  1  0
 29 57  1  0
 30 58  1  0
M  END
>  <UniqueID>  (42) 
41

>  <SMILES>  (42) 
CCN(CC)Cc1cnc(SCc2ccccc2)nc1C(=O)Nc1cccc(C)c1

>  <Energy>  (42) 
62.65994054945826

>  <Genealogy>  (42) 
CCN(CC)Cc1cnc(SCc2ccccc2)nc1C(=O)Nc1cccc(C)c1 (3D coordinates assigned)
CCN(CC)Cc1cnc(SCc2ccccc2)nc1C(=O)Nc1cccc(C)c1 (optimized conformer: 62.65994054945826 kcal/mol)

>  <smiles>  (42) 
CCN(CC)Cc1cnc(SCc2ccccc2)nc1C(=O)Nc1cccc(C)c1

>  <score_type>  (42) 
oracle

>  <origin>  (42) 
adg

>  <m_score__min__energy>  (42) 
-8.7200000000000006

>  <m_primary>  (42) 
energy

$$$$
43:0
     RDKit          3D

 59 61  0  0  0  0  0  0  0  0999 V2000
   -6.1210   17.0510  -31.1110 C   0  0  0  0  0  0  0  0  0  0  0  0
   -5.2390   16.2010  -32.0250 C   0  0  0  0  0  0  0  0  0  0  0  0
   -5.4250   16.5470  -33.5160 C   0  0  0  0  0  0  0  0  0  0  0  0
   -5.0990   17.9570  -33.7950 N   0  0  0  0  0  0  0  0  0  0  0  0
   -6.0960   18.8150  -34.4530 C   0  0  0  0  0  0  0  0  0  0  0  0
   -7.0980   19.3250  -33.4560 C   0  0  0  0  0  0  0  0  0  0  0  0
   -7.0960   20.6730  -33.0530 C   0  0  0  0  0  0  0  0  0  0  0  0
   -8.0440   21.1120  -32.1250 C   0  0  0  0  0  0  0  0  0  0  0  0
   -8.9850   20.2130  -31.6130 C   0  0  0  0  0  0  0  0  0  0  0  0
   -8.9620   18.8820  -32.0410 C   0  0  0  0  0  0  0  0  0  0  0  0
   -8.0310   18.4720  -32.9450 N   0  0  0  0  0  0  0  0  0  0  0  0
   -3.8130   18.5230  -33.4610 C   0  0  0  0  0  0  0  0  0  0  0  0
   -2.7710   17.9790  -33.9190 O   0  0  0  0  0  0  0  0  0  0  0  0
   -3.6530   19.7730  -32.6180 C   0  0  0  0  0  0  0  0  0  0  0  0
   -2.4000   19.7330  -31.7080 C   0  0  0  0  0  0  0  0  0  0  0  0
   -1.7570   21.1220  -31.5370 C   0  0  0  0  0  0  0  0  0  0  0  0
   -2.7630   22.1940  -31.3940 N   0  0  0  0  0  0  0  0  0  0  0  0
   -3.4730   22.1240  -30.0970 C   0  0  0  0  0  0  0  0  0  0  0  0
   -4.6390   23.0840  -30.0840 C   0  0  0  0  0  0  0  0  0  0  0  0
   -5.9500   22.5930  -30.2100 C   0  0  0  0  0  0  0  0  0  0  0  0
   -7.0370   23.4710  -30.2130 C   0  0  0  0  0  0  0  0  0  0  0  0
   -6.8260   24.8440  -30.0920 C   0  0  0  0  0  0  0  0  0  0  0  0
   -5.5280   25.3480  -29.9660 C   0  0  0  0  0  0  0  0  0  0  0  0
   -4.4210   24.4740  -29.9610 C   0  0  0  0  0  0  0  0  0  0  0  0
   -3.1060   24.9460  -29.8390 O   0  0  0  0  0  0  0  0  0  0  0  0
   -2.2600   24.7070  -28.7180 C   0  0  0  0  0  0  0  0  0  0  0  0
   -3.6900   22.3040  -32.5570 C   0  0  0  0  0  0  0  0  0  0  0  0
   -3.7190   21.0550  -33.4610 C   0  0  0  0  0  0  0  0  0  0  0  0
   -5.8860   16.8245  -30.0605 H   0  0  0  0  0  0  0  0  0  0  0  0
   -5.9327   18.1168  -31.3073 H   0  0  0  0  0  0  0  0  0  0  0  0
   -7.1791   16.8234  -31.3073 H   0  0  0  0  0  0  0  0  0  0  0  0
   -4.1862   16.3674  -31.7532 H   0  0  0  0  0  0  0  0  0  0  0  0
   -5.5317   15.1496  -31.8875 H   0  0  0  0  0  0  0  0  0  0  0  0
   -4.7649   15.9034  -34.1160 H   0  0  0  0  0  0  0  0  0  0  0  0
   -6.4809   16.3820  -33.7764 H   0  0  0  0  0  0  0  0  0  0  0  0
   -5.5848   19.6694  -34.9207 H   0  0  0  0  0  0  0  0  0  0  0  0
   -6.6246   18.2231  -35.2148 H   0  0  0  0  0  0  0  0  0  0  0  0
   -6.3554   21.3745  -33.4645 H   0  0  0  0  0  0  0  0  0  0  0  0
   -8.0501   22.1622  -31.7980 H   0  0  0  0  0  0  0  0  0  0  0  0
   -9.7349   20.5492  -30.8818 H   0  0  0  0  0  0  0  0  0  0  0  0
   -9.6974   18.1654  -31.6465 H   0  0  0  0  0  0  0  0  0  0  0  0
   -4.5187   19.7933  -31.9396 H   0  0  0  0  0  0  0  0  0  0  0  0
   -2.6940   19.3550  -30.7177 H   0  0  0  0  0  0  0  0  0  0  0  0
   -1.6585   19.0754  -32.1852 H   0  0  0  0  0  0  0  0  0  0  0  0
   -1.1234   21.1098  -30.6379 H   0  0  0  0  0  0  0  0  0  0  0  0
   -1.1682   21.3329  -32.4419 H   0  0  0  0  0  0  0  0  0  0  0  0
   -3.8443   21.1003  -29.9416 H   0  0  0  0  0  0  0  0  0  0  0  0
   -2.7751   22.3985  -29.2923 H   0  0  0  0  0  0  0  0  0  0  0  0
   -6.1213   21.5108  -30.3069 H   0  0  0  0  0  0  0  0  0  0  0  0
   -8.0600   23.0787  -30.3109 H   0  0  0  0  0  0  0  0  0  0  0  0
   -7.6836   25.5329  -30.0957 H   0  0  0  0  0  0  0  0  0  0  0  0
   -5.3692   26.4323  -29.8702 H   0  0  0  0  0  0  0  0  0  0  0  0
   -2.8276   24.8673  -27.7895 H   0  0  0  0  0  0  0  0  0  0  0  0
   -1.8938   23.6702  -28.7495 H   0  0  0  0  0  0  0  0  0  0  0  0
   -1.4054   25.3989  -28.7495 H   0  0  0  0  0  0  0  0  0  0  0  0
   -4.7064   22.4760  -32.1732 H   0  0  0  0  0  0  0  0  0  0  0  0
   -3.3229   23.1352  -33.1770 H   0  0  0  0  0  0  0  0  0  0  0  0
   -4.6502   21.0546  -34.0465 H   0  0  0  0  0  0  0  0  0  0  0  0
   -2.8470   21.0830  -34.1309 H   0  0  0  0  0  0  0  0  0  0  0  0
  1  2  1  0
  2  3  1  0
  3  4  1  0
  4  5  1  0
  5  6  1  0
  6  7  2  0
  7  8  1  0
  8  9  2  0
  9 10  1  0
 10 11  2  0
  4 12  1  0
 12 13  2  0
 12 14  1  0
 14 15  1  0
 15 16  1  0
 16 17  1  0
 17 18  1  0
 18 19  1  0
 19 20  2  0
 20 21  1  0
 21 22  2  0
 22 23  1  0
 23 24  2  0
 24 25  1  0
 25 26  1  0
 17 27  1  0
 27 28  1  0
 11  6  1  0
 28 14  1  0
 24 19  1  0
  1 29  1  0
  1 30  1  0
  1 31  1  0
  2 32  1  0
  2 33  1  0
  3 34  1  0
  3 35  1  0
  5 36  1  0
  5 37  1  0
  7 38  1  0
  8 39  1  0
  9 40  1  0
 10 41  1  0
 14 42  1  0
 15 43  1  0
 15 44  1  0
 16 45  1  0
 16 46  1  0
 18 47  1  0
 18 48  1  0
 20 49  1  0
 21 50  1  0
 22 51  1  0
 23 52  1  0
 26 53  1  0
 26 54  1  0
 26 55  1  0
 27 56  1  0
 27 57  1  0
 28 58  1  0
 28 59  1  0
M  END
>  <UniqueID>  (43) 
42

>  <SMILES>  (43) 
CCCN(Cc1ccccn1)C(=O)C1CCN(Cc2ccccc2OC)CC1

>  <Energy>  (43) 
68.45489057285492

>  <Genealogy>  (43) 
CCCN(Cc1ccccn1)C(=O)C1CCN(Cc2ccccc2OC)CC1 (3D coordinates assigned)
CCCN(Cc1ccccn1)C(=O)C1CCN(Cc2ccccc2OC)CC1 (nonaromatic ring conformer: 68.45489057285492 kcal/mol)

>  <smiles>  (43) 
CCCN(Cc1ccccn1)C(=O)C1CCN(Cc2ccccc2OC)CC1

>  <score_type>  (43) 
oracle

>  <origin>  (43) 
adg

>  <m_score__min__energy>  (43) 
-8.8300000000000001

>  <m_primary>  (43) 
energy

$$$$
44:0
     RDKit          3D

 48 51  0  0  1  0  0  0  0  0999 V2000
   -1.2070   26.0490  -27.5690 C   0  0  0  0  0  0  0  0  0  0  0  0
   -1.9000   25.7000  -28.7470 O   0  0  0  0  0  0  0  0  0  0  0  0
   -1.9260   24.4220  -29.2440 C   0  0  0  0  0  0  0  0  0  0  0  0
   -1.0090   23.4460  -28.9280 C   0  0  0  0  0  0  0  0  0  0  0  0
   -1.0870   22.1580  -29.4700 C   0  0  0  0  0  0  0  0  0  0  0  0
   -2.1010   21.8050  -30.3520 C   0  0  0  0  0  0  0  0  0  0  0  0
   -2.1970   20.4330  -30.9420 C   0  0  0  0  0  0  0  0  0  0  0  0
   -2.6320   20.3480  -32.2420 N   0  0  0  0  0  0  0  0  0  0  0  0
   -3.6830   19.9500  -32.7360 C   0  0  0  0  0  0  0  0  0  0  0  0
   -4.8420   20.5610  -32.3800 N   0  0  0  0  0  0  0  0  0  0  0  0
   -6.0480   20.1860  -32.8300 C   0  0  0  0  0  0  0  0  0  0  0  0
   -7.2540   20.8920  -32.4040 C   0  0  0  0  0  0  0  0  0  0  0  0
   -8.4750   20.2520  -32.4650 C   0  0  0  0  0  0  0  0  0  0  0  0
   -9.5800   20.9710  -32.0490 C   0  0  0  0  0  0  0  0  0  0  0  0
   -9.4770   22.2670  -31.5910 C   0  0  0  0  0  0  0  0  0  0  0  0
   -8.2300   22.8570  -31.5500 C   0  0  0  0  0  0  0  0  0  0  0  0
   -7.1440   22.1580  -31.9580 N   0  0  0  0  0  0  0  0  0  0  0  0
   -6.1150   19.1500  -33.6790 N   0  0  0  0  0  0  0  0  0  0  0  0
   -4.9850   18.5280  -34.0490 C   0  0  0  0  0  0  0  0  0  0  0  0
   -5.1180   17.4730  -34.9270 C   0  0  0  0  0  0  0  0  0  0  0  0
   -3.9450   16.8530  -35.3000 C   0  0  0  0  0  0  0  0  0  0  0  0
   -2.7040   17.2010  -34.8730 C   0  0  0  0  0  0  0  0  0  0  0  0
   -2.5750   18.2830  -33.9720 C   0  0  0  0  0  0  0  0  0  0  0  0
   -3.7250   18.8940  -33.6010 C   0  0  0  0  0  0  0  0  0  0  0  0
   -2.9970   22.8200  -30.6370 C   0  0  0  0  0  0  0  0  0  0  0  0
   -2.9310   24.0830  -30.1160 C   0  0  0  0  0  0  0  0  0  0  0  0
   -3.8770   25.0210  -30.4670 O   0  0  0  0  0  0  0  0  0  0  0  0
   -5.2430   24.9060  -30.1810 C   0  0  0  0  0  0  0  0  0  0  0  0
   -1.8004   25.7502  -26.6923 H   0  0  0  0  0  0  0  0  0  0  0  0
   -0.2361   25.5323  -27.5480 H   0  0  0  0  0  0  0  0  0  0  0  0
   -1.0441   27.1367  -27.5480 H   0  0  0  0  0  0  0  0  0  0  0  0
   -0.1925   23.6845  -28.2305 H   0  0  0  0  0  0  0  0  0  0  0  0
   -0.3301   21.4098  -29.1921 H   0  0  0  0  0  0  0  0  0  0  0  0
   -1.1958   19.9798  -30.8956 H   0  0  0  0  0  0  0  0  0  0  0  0
   -2.9643   19.9163  -30.3468 H   0  0  0  0  0  0  0  0  0  0  0  0
   -4.8310   21.3730  -31.7200 H   0  0  0  0  0  0  0  0  0  0  0  0
   -8.5649   19.2175  -32.8279 H   0  0  0  0  0  0  0  0  0  0  0  0
  -10.5709   20.4947  -32.0845 H   0  0  0  0  0  0  0  0  0  0  0  0
  -10.3704   22.8197  -31.2649 H   0  0  0  0  0  0  0  0  0  0  0  0
   -8.1187   23.8897  -31.1878 H   0  0  0  0  0  0  0  0  0  0  0  0
   -6.0980   17.1470  -35.3056 H   0  0  0  0  0  0  0  0  0  0  0  0
   -4.0203   16.0080  -36.0002 H   0  0  0  0  0  0  0  0  0  0  0  0
   -1.8166   16.6521  -35.2211 H   0  0  0  0  0  0  0  0  0  0  0  0
   -1.5953   18.6101  -33.5936 H   0  0  0  0  0  0  0  0  0  0  0  0
   -3.8202   22.5955  -31.3313 H   0  0  0  0  0  0  0  0  0  0  0  0
   -5.3896   24.8937  -29.0909 H   0  0  0  0  0  0  0  0  0  0  0  0
   -5.7816   25.7620  -30.6137 H   0  0  0  0  0  0  0  0  0  0  0  0
   -5.6309   23.9720  -30.6137 H   0  0  0  0  0  0  0  0  0  0  0  0
  1  2  1  0
  2  3  1  0
  3  4  2  0
  4  5  1  0
  5  6  2  0
  6  7  1  0
  7  8  1  0
  8  9  2  0
  9 10  1  0
 10 11  1  0
 11 12  1  0
 12 13  2  0
 13 14  1  0
 14 15  2  0
 15 16  1  0
 16 17  2  0
 11 18  2  0
 18 19  1  0
 19 20  2  0
 20 21  1  0
 21 22  2  0
 22 23  1  0
 23 24  2  0
  6 25  1  0
 25 26  2  0
 26 27  1  0
 27 28  1  0
 26  3  1  0
 24  9  1  0
 17 12  1  0
 24 19  1  0
  1 29  1  0
  1 30  1  0
  1 31  1  0
  4 32  1  0
  5 33  1  0
  7 34  1  0
  7 35  1  0
 10 36  1  0
 13 37  1  0
 14 38  1  0
 15 39  1  0
 16 40  1  0
 20 41  1  0
 21 42  1  0
 22 43  1  0
 23 44  1  0
 25 45  1  0
 28 46  1  0
 28 47  1  0
 28 48  1  0
M  END
>  <smiles>  (44) 
COc1ccc(CN=c2[nH]c(-c3ccccn3)nc3ccccc23)cc1OC

>  <score_type>  (44) 
oracle

>  <origin>  (44) 
adg

>  <m_score__min__energy>  (44) 
-9.7899999999999991

>  <m_primary>  (44) 
energy

$$$$
45:0
     RDKit          3D

 45 46  0  0  0  0  0  0  0  0999 V2000
   -9.7930   19.3390  -33.0860 N   0  0  0  0  0  0  0  0  0  0  0  0
   -8.3270   19.0590  -32.2130 S   0  0  0  0  0  0  0  0  0  0  0  0
   -7.4940   18.0540  -32.9600 O   0  0  0  0  0  0  0  0  0  0  0  0
   -8.6470   18.5060  -30.8530 O   0  0  0  0  0  0  0  0  0  0  0  0
   -7.4440   20.5720  -32.0380 C   0  0  0  0  0  0  0  0  0  0  0  0
   -8.1380   21.7480  -31.7240 C   0  0  0  0  0  0  0  0  0  0  0  0
   -7.4510   22.9570  -31.5890 C   0  0  0  0  0  0  0  0  0  0  0  0
   -6.0600   23.0070  -31.7880 C   0  0  0  0  0  0  0  0  0  0  0  0
   -5.3230   24.2260  -31.6300 N   0  0  0  0  0  0  0  0  0  0  0  0
   -4.7010   24.6930  -30.4260 C   0  0  0  0  0  0  0  0  0  0  0  0
   -3.8720   25.6380  -30.4950 O   0  0  0  0  0  0  0  0  0  0  0  0
   -5.0470   24.1290  -29.0800 C   0  0  0  0  0  0  0  0  0  0  0  0
   -3.8540   23.9450  -28.3290 O   0  0  0  0  0  0  0  0  0  0  0  0
   -3.6460   24.5240  -27.0730 C   0  0  0  0  0  0  0  0  0  0  0  0
   -4.6180   24.9320  -26.3820 O   0  0  0  0  0  0  0  0  0  0  0  0
   -2.2450   24.7040  -26.5780 C   0  0  0  0  0  0  0  0  0  0  0  0
   -1.4350   25.6630  -27.4670 C   0  0  0  0  0  0  0  0  0  0  0  0
    0.0600   25.3220  -27.5430 C   0  0  0  0  0  0  0  0  0  0  0  0
    0.3040   24.3120  -28.5720 N   0  0  0  0  0  0  0  0  0  0  0  0
   -0.4870   23.3260  -28.8870 C   0  0  0  0  0  0  0  0  0  0  0  0
   -0.5950   22.1610  -28.1000 C   0  0  0  0  0  0  0  0  0  0  0  0
   -1.4480   21.1340  -28.5080 C   0  0  0  0  0  0  0  0  0  0  0  0
   -2.1880   21.2680  -29.6820 C   0  0  0  0  0  0  0  0  0  0  0  0
   -2.0630   22.4350  -30.4360 C   0  0  0  0  0  0  0  0  0  0  0  0
   -1.2250   23.4250  -30.0270 N   0  0  0  0  0  0  0  0  0  0  0  0
   -5.3660   21.8250  -32.0740 C   0  0  0  0  0  0  0  0  0  0  0  0
   -6.0540   20.6150  -32.2100 C   0  0  0  0  0  0  0  0  0  0  0  0
   -9.5340   19.4450  -34.0920 H   0  0  0  0  0  0  0  0  0  0  0  0
  -10.1640   20.2630  -32.7710 H   0  0  0  0  0  0  0  0  0  0  0  0
   -9.2286   21.7192  -31.5832 H   0  0  0  0  0  0  0  0  0  0  0  0
   -8.0003   23.8731  -31.3261 H   0  0  0  0  0  0  0  0  0  0  0  0
   -5.7120   24.8260  -28.5490 H   0  0  0  0  0  0  0  0  0  0  0  0
   -5.5577   23.1628  -29.2046 H   0  0  0  0  0  0  0  0  0  0  0  0
   -2.2794   25.1111  -25.5567 H   0  0  0  0  0  0  0  0  0  0  0  0
   -1.7495   23.7222  -26.6002 H   0  0  0  0  0  0  0  0  0  0  0  0
   -1.8511   25.6277  -28.4846 H   0  0  0  0  0  0  0  0  0  0  0  0
   -1.5135   26.6628  -27.0151 H   0  0  0  0  0  0  0  0  0  0  0  0
    0.6268   26.2324  -27.7879 H   0  0  0  0  0  0  0  0  0  0  0  0
    0.3836   24.9236  -26.5701 H   0  0  0  0  0  0  0  0  0  0  0  0
   -0.0120   22.0622  -27.1724 H   0  0  0  0  0  0  0  0  0  0  0  0
   -1.5363   20.2193  -27.9034 H   0  0  0  0  0  0  0  0  0  0  0  0
   -2.8623   20.4631  -30.0098 H   0  0  0  0  0  0  0  0  0  0  0  0
   -2.6432   22.5547  -31.3629 H   0  0  0  0  0  0  0  0  0  0  0  0
   -4.2726   21.8483  -32.1925 H   0  0  0  0  0  0  0  0  0  0  0  0
   -5.5025   19.6947  -32.4526 H   0  0  0  0  0  0  0  0  0  0  0  0
  1  2  1  0
  2  3  2  0
  2  4  2  0
  2  5  1  0
  5  6  2  0
  6  7  1  0
  7  8  2  0
  8  9  1  0
  9 10  1  0
 10 11  2  0
 10 12  1  0
 12 13  1  0
 13 14  1  0
 14 15  2  0
 14 16  1  0
 16 17  1  0
 17 18  1  0
 18 19  1  0
 19 20  2  3
 20 21  1  0
 21 22  2  0
 22 23  1  0
 23 24  2  0
 24 25  1  0
  8 26  1  0
 26 27  2  0
 27  5  1  0
 25 20  1  0
  1 28  1  0
  1 29  1  0
  6 30  1  0
  7 31  1  0
 12 32  1  0
 12 33  1  0
 16 34  1  0
 16 35  1  0
 17 36  1  0
 17 37  1  0
 18 38  1  0
 18 39  1  0
 21 40  1  0
 22 41  1  0
 23 42  1  0
 24 43  1  0
 26 44  1  0
 27 45  1  0
M  CHG  2   9  -1  25  -1
M  END
>  <UniqueID>  (45) 
43

>  <SMILES>  (45) 
NS(=O)(=O)c1ccc([N-]C(=O)COC(=O)CCCN=c2cccc[n-]2)cc1

>  <Energy>  (45) 
41.66692242896347

>  <Genealogy>  (45) 
NS(=O)(=O)c1ccc([N-]C(=O)COC(=O)CCCN=c2cccc[n-]2)cc1 (protonated)
NS(=O)(=O)c1ccc([N-]C(=O)COC(=O)CCCN=c2cccc[n-]2)cc1 (3D coordinates assigned)
NS(=O)(=O)c1ccc([N-]C(=O)COC(=O)CCCN=c2cccc[n-]2)cc1 (optimized conformer: 41.66692242896347 kcal/mol)

>  <smiles>  (45) 
NS(=O)(=O)c1ccc(NC(=O)COC(=O)CCCN=c2cccc[nH]2)cc1

>  <score_type>  (45) 
oracle

>  <origin>  (45) 
adg

>  <m_score__min__energy>  (45) 
-10.029999999999999

>  <m_primary>  (45) 
energy

$$$$
46:0
     RDKit          3D

 48 49  0  0  0  0  0  0  0  0999 V2000
   -6.1100   17.6620  -34.4070 C   0  0  0  0  0  0  0  0  0  0  0  0
   -6.6100   18.0600  -33.1340 O   0  0  0  0  0  0  0  0  0  0  0  0
   -6.8300   19.3910  -32.7470 C   0  0  0  0  0  0  0  0  0  0  0  0
   -8.0840   19.8370  -32.2870 C   0  0  0  0  0  0  0  0  0  0  0  0
   -8.2650   21.1690  -31.9110 C   0  0  0  0  0  0  0  0  0  0  0  0
   -7.2030   22.0790  -31.9930 C   0  0  0  0  0  0  0  0  0  0  0  0
   -7.3890   23.5080  -31.5480 C   0  0  0  0  0  0  0  0  0  0  0  0
   -6.6690   23.7780  -30.2270 C   0  0  0  0  0  0  0  0  0  0  0  0
   -5.2460   23.4960  -30.3650 N   0  0  0  0  0  0  0  0  0  0  0  0
   -4.2500   24.5210  -30.4310 C   0  0  0  0  0  0  0  0  0  0  0  0
   -4.5560   25.6710  -30.8490 O   0  0  0  0  0  0  0  0  0  0  0  0
   -2.8250   24.1890  -30.0610 C   0  0  1  0  0  0  0  0  0  0  0  0
   -2.1780   25.2880  -29.3360 N   0  0  0  0  0  0  0  0  0  0  0  0
   -1.2320   25.2070  -28.2580 C   0  0  0  0  0  0  0  0  0  0  0  0
   -1.6210   25.4120  -26.8270 C   0  0  0  0  0  0  0  0  0  0  0  0
   -0.0380   24.9120  -28.5260 O   0  0  0  0  0  0  0  0  0  0  0  0
   -2.6440   22.8680  -29.3300 C   0  0  0  0  0  0  0  0  0  0  0  0
   -3.3310   22.5530  -28.1370 C   0  0  0  0  0  0  0  0  0  0  0  0
   -3.1150   21.3290  -27.4980 C   0  0  0  0  0  0  0  0  0  0  0  0
   -2.2120   20.4080  -28.0310 C   0  0  0  0  0  0  0  0  0  0  0  0
   -1.5190   20.7100  -29.2060 C   0  0  0  0  0  0  0  0  0  0  0  0
   -1.7310   21.9320  -29.8490 C   0  0  0  0  0  0  0  0  0  0  0  0
   -5.9490   21.6360  -32.4400 C   0  0  0  0  0  0  0  0  0  0  0  0
   -5.7570   20.2940  -32.8220 C   0  0  0  0  0  0  0  0  0  0  0  0
   -4.5180   19.8190  -33.2790 O   0  0  0  0  0  0  0  0  0  0  0  0
   -3.2750   20.4860  -33.0800 C   0  0  0  0  0  0  0  0  0  0  0  0
   -5.2561   16.9823  -34.2694 H   0  0  0  0  0  0  0  0  0  0  0  0
   -6.9032   17.1455  -34.9673 H   0  0  0  0  0  0  0  0  0  0  0  0
   -5.7845   18.5509  -34.9673 H   0  0  0  0  0  0  0  0  0  0  0  0
   -8.9257   19.1317  -32.2236 H   0  0  0  0  0  0  0  0  0  0  0  0
   -9.2472   21.5061  -31.5482 H   0  0  0  0  0  0  0  0  0  0  0  0
   -6.9843   24.1790  -32.3200 H   0  0  0  0  0  0  0  0  0  0  0  0
   -8.4641   23.6877  -31.3998 H   0  0  0  0  0  0  0  0  0  0  0  0
   -6.8053   24.8331  -29.9475 H   0  0  0  0  0  0  0  0  0  0  0  0
   -7.0910   23.1266  -29.4475 H   0  0  0  0  0  0  0  0  0  0  0  0
   -2.3164   24.0561  -31.0273 H   0  0  0  0  0  0  0  0  0  0  0  0
   -0.8393   25.0000  -26.1719 H   0  0  0  0  0  0  0  0  0  0  0  0
   -1.7361   26.4879  -26.6288 H   0  0  0  0  0  0  0  0  0  0  0  0
   -2.5735   24.8987  -26.6288 H   0  0  0  0  0  0  0  0  0  0  0  0
   -4.0407   23.2757  -27.7080 H   0  0  0  0  0  0  0  0  0  0  0  0
   -3.6585   21.0907  -26.5718 H   0  0  0  0  0  0  0  0  0  0  0  0
   -2.0460   19.4448  -27.5263 H   0  0  0  0  0  0  0  0  0  0  0  0
   -0.8058   19.9849  -29.6252 H   0  0  0  0  0  0  0  0  0  0  0  0
   -1.1781   22.1648  -30.7710 H   0  0  0  0  0  0  0  0  0  0  0  0
   -5.1081   22.3432  -32.4926 H   0  0  0  0  0  0  0  0  0  0  0  0
   -3.0827   20.5892  -32.0019 H   0  0  0  0  0  0  0  0  0  0  0  0
   -2.4666   19.9005  -33.5422 H   0  0  0  0  0  0  0  0  0  0  0  0
   -3.3159   21.4833  -33.5422 H   0  0  0  0  0  0  0  0  0  0  0  0
  1  2  1  0
  2  3  1  0
  3  4  2  0
  4  5  1  0
  5  6  2  0
  6  7  1  0
  7  8  1  0
  8  9  1  0
  9 10  1  0
 10 11  2  0
 10 12  1  0
 12 13  1  0
 13 14  1  0
 14 15  1  0
 14 16  2  0
 12 17  1  0
 17 18  2  0
 18 19  1  0
 19 20  2  0
 20 21  1  0
 21 22  2  0
  6 23  1  0
 23 24  2  0
 24 25  1  0
 25 26  1  0
 24  3  1  0
 22 17  1  0
  1 27  1  0
  1 28  1  0
  1 29  1  0
  4 30  1  0
  5 31  1  0
  7 32  1  0
  7 33  1  0
  8 34  1  0
  8 35  1  0
 12 36  1  6
 15 37  1  0
 15 38  1  0
 15 39  1  0
 18 40  1  0
 19 41  1  0
 20 42  1  0
 21 43  1  0
 22 44  1  0
 23 45  1  0
 26 46  1  0
 26 47  1  0
 26 48  1  0
M  CHG  2   9  -1  13  -1
M  END
>  <UniqueID>  (46) 
44

>  <SMILES>  (46) 
COc1ccc(CC[N-]C(=O)[C@@H]([N-]C(C)=O)c2ccccc2)cc1OC

>  <Energy>  (46) 
43.10983694998532

>  <Genealogy>  (46) 
COc1ccc(CC[N-]C(=O)C([N-]C(C)=O)c2ccccc2)cc1OC (protonated)
COc1ccc(CC[N-]C(=O)[C@@H]([N-]C(C)=O)c2ccccc2)cc1OC (chirality)
COc1ccc(CC[N-]C(=O)[C@@H]([N-]C(C)=O)c2ccccc2)cc1OC (3D coordinates assigned)
COc1ccc(CC[N-]C(=O)[C@@H]([N-]C(C)=O)c2ccccc2)cc1OC (optimized conformer: 43.10983694998532 kcal/mol)

>  <smiles>  (46) 
COc1ccc(CCNC(=O)C(NC(C)=O)c2ccccc2)cc1OC

>  <score_type>  (46) 
oracle

>  <origin>  (46) 
adg

>  <m_score__min__energy>  (46) 
-10.17

>  <m_primary>  (46) 
energy

$$$$
47:0
     RDKit          3D

 41 44  0  0  0  0  0  0  0  0999 V2000
    0.5310   23.8050  -36.0910 C   0  0  0  0  0  0  0  0  0  0  0  0
    0.2520   22.6140  -35.3620 O   0  0  0  0  0  0  0  0  0  0  0  0
    1.2120   21.6500  -35.0110 C   0  0  0  0  0  0  0  0  0  0  0  0
    2.4770   21.6020  -35.6310 C   0  0  0  0  0  0  0  0  0  0  0  0
    3.4150   20.6410  -35.2490 C   0  0  0  0  0  0  0  0  0  0  0  0
    3.1090   19.7230  -34.2450 C   0  0  0  0  0  0  0  0  0  0  0  0
    1.8590   19.7570  -33.6240 C   0  0  0  0  0  0  0  0  0  0  0  0
    0.8980   20.7060  -34.0100 C   0  0  0  0  0  0  0  0  0  0  0  0
   -0.4340   20.7470  -33.2990 C   0  0  0  0  0  0  0  0  0  0  0  0
   -1.4810   21.2520  -34.1980 N   0  0  0  0  0  0  0  0  0  0  0  0
   -2.7610   20.7120  -33.8150 C   0  0  0  0  0  0  0  0  0  0  0  0
   -3.0060   19.3140  -33.9150 C   0  0  0  0  0  0  0  0  0  0  0  0
   -4.2600   18.7750  -33.5760 C   0  0  0  0  0  0  0  0  0  0  0  0
   -5.2460   19.6600  -33.1490 C   0  0  0  0  0  0  0  0  0  0  0  0
   -5.0270   21.0150  -33.0580 C   0  0  0  0  0  0  0  0  0  0  0  0
   -3.7970   21.5770  -33.3870 C   0  0  0  0  0  0  0  0  0  0  0  0
   -6.1370   21.6580  -32.6290 N   0  0  0  0  0  0  0  0  0  0  0  0
   -7.0500   20.7110  -32.4510 N   0  0  0  0  0  0  0  0  0  0  0  0
   -8.3240   20.8970  -32.0250 C   0  0  0  0  0  0  0  0  0  0  0  0
   -9.1550   19.7730  -31.8960 C   0  0  0  0  0  0  0  0  0  0  0  0
   -8.6510   18.4950  -32.2070 C   0  0  0  0  0  0  0  0  0  0  0  0
   -7.3250   18.3420  -32.6460 C   0  0  0  0  0  0  0  0  0  0  0  0
   -6.5500   19.4940  -32.7540 C   0  0  0  0  0  0  0  0  0  0  0  0
    0.7239   24.6286  -35.3878 H   0  0  0  0  0  0  0  0  0  0  0  0
    1.4168   23.6484  -36.7242 H   0  0  0  0  0  0  0  0  0  0  0  0
   -0.3322   24.0581  -36.7242 H   0  0  0  0  0  0  0  0  0  0  0  0
    2.7267   22.3261  -36.4206 H   0  0  0  0  0  0  0  0  0  0  0  0
    4.3981   20.6079  -35.7414 H   0  0  0  0  0  0  0  0  0  0  0  0
    3.8530   18.9715  -33.9420 H   0  0  0  0  0  0  0  0  0  0  0  0
    1.6251   19.0357  -32.8271 H   0  0  0  0  0  0  0  0  0  0  0  0
   -0.6993   19.7320  -32.9682 H   0  0  0  0  0  0  0  0  0  0  0  0
   -0.3543   21.4193  -32.4320 H   0  0  0  0  0  0  0  0  0  0  0  0
   -1.2650   20.9790  -35.1850 H   0  0  0  0  0  0  0  0  0  0  0  0
   -1.5110   22.2980  -34.1500 H   0  0  0  0  0  0  0  0  0  0  0  0
   -2.2040   18.6459  -34.2621 H   0  0  0  0  0  0  0  0  0  0  0  0
   -4.4544   17.6946  -33.6457 H   0  0  0  0  0  0  0  0  0  0  0  0
   -3.6343   22.6626  -33.3165 H   0  0  0  0  0  0  0  0  0  0  0  0
   -8.6970   21.9039  -31.7864 H   0  0  0  0  0  0  0  0  0  0  0  0
  -10.1939   19.8896  -31.5540 H   0  0  0  0  0  0  0  0  0  0  0  0
   -9.2990   17.6119  -32.1057 H   0  0  0  0  0  0  0  0  0  0  0  0
   -6.9154   17.3518  -32.8944 H   0  0  0  0  0  0  0  0  0  0  0  0
  1  2  1  0
  2  3  1  0
  3  4  2  0
  4  5  1  0
  5  6  2  0
  6  7  1  0
  7  8  2  0
  8  9  1  0
  9 10  1  0
 10 11  1  0
 11 12  1  0
 12 13  2  0
 13 14  1  0
 14 15  1  0
 15 16  1  0
 15 17  2  0
 17 18  1  0
 18 19  1  0
 19 20  2  0
 20 21  1  0
 21 22  2  0
 22 23  1  0
  8  3  1  0
 16 11  2  0
 23 18  1  0
 23 14  2  0
  1 24  1  0
  1 25  1  0
  1 26  1  0
  4 27  1  0
  5 28  1  0
  6 29  1  0
  7 30  1  0
  9 31  1  0
  9 32  1  0
 10 33  1  0
 10 34  1  0
 12 35  1  0
 13 36  1  0
 16 37  1  0
 19 38  1  0
 20 39  1  0
 21 40  1  0
 22 41  1  0
M  CHG  1  10   1
M  END
>  <UniqueID>  (47) 
45

>  <SMILES>  (47) 
COc1ccccc1C[NH2+]c1ccc2c(c1)nn1ccccc21

>  <Energy>  (47) 
89.15388442636502

>  <Genealogy>  (47) 
COc1ccccc1C[NH2+]c1ccc2c(c1)nn1ccccc21 (protonated)
COc1ccccc1C[NH2+]c1ccc2c(c1)nn1ccccc21 (3D coordinates assigned)
COc1ccccc1C[NH2+]c1ccc2c(c1)nn1ccccc21 (optimized conformer: 89.15388442636502 kcal/mol)

>  <smiles>  (47) 
COc1ccccc1CNc1ccc2c(c1)nn1ccccc21

>  <score_type>  (47) 
oracle

>  <origin>  (47) 
adg

>  <m_score__min__energy>  (47) 
-7.0700000000000003

>  <m_primary>  (47) 
energy

$$$$
