0:0
     RDKit          3D

 42 45  0  0  0  0  0  0  0  0999 V2000
    0.7380   28.4520  -24.5150 C   0  0  0  0  0  0  0  0  0  0  0  0
    0.2130   27.2740  -25.2150 N   0  0  0  0  0  0  0  0  0  0  0  0
    0.3660   26.0620  -24.6410 C   0  0  0  0  0  0  0  0  0  0  0  0
   -0.3610   25.0190  -25.1380 C   0  0  0  0  0  0  0  0  0  0  0  0
   -0.4900   23.5270  -24.2160 Cl  0  0  0  0  0  0  0  0  0  0  0  0
   -1.1000   25.2140  -26.3070 C   0  0  0  0  0  0  0  0  0  0  0  0
   -0.8790   26.3350  -27.2720 C   0  0  0  0  0  0  0  0  0  0  0  0
   -1.2570   25.2960  -28.2440 C   0  0  0  0  0  0  0  0  0  0  0  0
   -0.3730   24.5820  -28.7950 O   0  0  0  0  0  0  0  0  0  0  0  0
   -2.6490   24.9110  -28.2790 N   0  0  0  0  0  0  0  0  0  0  0  0
   -3.3280   24.0810  -29.2400 C   0  0  0  0  0  0  0  0  0  0  0  0
   -3.0380   22.7090  -29.2370 C   0  0  0  0  0  0  0  0  0  0  0  0
   -3.7330   21.8240  -30.0560 C   0  0  0  0  0  0  0  0  0  0  0  0
   -4.7180   22.2970  -30.9340 C   0  0  0  0  0  0  0  0  0  0  0  0
   -5.4820   21.3650  -31.7210 N   0  0  0  0  0  0  0  0  0  0  0  0
   -5.0500   20.6940  -32.8190 C   0  0  0  0  0  0  0  0  0  0  0  0
   -6.0470   20.0850  -33.5080 N   0  0  0  0  0  0  0  0  0  0  0  0
   -7.1430   20.3850  -32.7880 C   0  0  0  0  0  0  0  0  0  0  0  0
   -8.4660   20.0570  -33.0810 C   0  0  0  0  0  0  0  0  0  0  0  0
   -9.4690   20.5330  -32.2160 C   0  0  0  0  0  0  0  0  0  0  0  0
   -9.1270   21.2940  -31.0750 C   0  0  0  0  0  0  0  0  0  0  0  0
   -7.7810   21.5960  -30.7990 C   0  0  0  0  0  0  0  0  0  0  0  0
   -6.8130   21.1450  -31.7040 C   0  0  0  0  0  0  0  0  0  0  0  0
   -5.0070   23.6770  -30.9580 C   0  0  0  0  0  0  0  0  0  0  0  0
   -5.9630   24.1570  -31.7860 F   0  0  0  0  0  0  0  0  0  0  0  0
   -4.3220   24.5630  -30.1080 C   0  0  0  0  0  0  0  0  0  0  0  0
   -0.5430   27.4100  -26.3550 C   0  0  0  0  0  0  0  0  0  0  0  0
   -0.8560   28.5710  -26.7430 O   0  0  0  0  0  0  0  0  0  0  0  0
    0.6678   28.2945  -23.4286 H   0  0  0  0  0  0  0  0  0  0  0  0
    1.7902   28.6067  -24.7958 H   0  0  0  0  0  0  0  0  0  0  0  0
    0.1495   29.3379  -24.7958 H   0  0  0  0  0  0  0  0  0  0  0  0
    1.0567   25.9188  -23.7969 H   0  0  0  0  0  0  0  0  0  0  0  0
   -1.8997   24.4934  -26.5335 H   0  0  0  0  0  0  0  0  0  0  0  0
   -3.2430   25.3310  -27.5270 H   0  0  0  0  0  0  0  0  0  0  0  0
   -2.2472   22.3254  -28.5756 H   0  0  0  0  0  0  0  0  0  0  0  0
   -3.5082   20.7480  -30.0141 H   0  0  0  0  0  0  0  0  0  0  0  0
   -3.9932   20.6485  -33.1209 H   0  0  0  0  0  0  0  0  0  0  0  0
   -8.7179   19.4457  -33.9601 H   0  0  0  0  0  0  0  0  0  0  0  0
  -10.5252   20.3115  -32.4291 H   0  0  0  0  0  0  0  0  0  0  0  0
   -9.9176   21.6520  -30.3992 H   0  0  0  0  0  0  0  0  0  0  0  0
   -7.4988   22.1672  -29.9023 H   0  0  0  0  0  0  0  0  0  0  0  0
   -4.5648   25.6358  -30.1226 H   0  0  0  0  0  0  0  0  0  0  0  0
  1  2  1  0
  2  3  1  0
  3  4  2  0
  4  5  1  0
  4  6  1  0
  6  7  2  0
  7  8  1  0
  8  9  2  0
  8 10  1  0
 10 11  1  0
 11 12  2  0
 12 13  1  0
 13 14  2  0
 14 15  1  0
 15 16  1  0
 16 17  2  0
 17 18  1  0
 18 19  2  0
 19 20  1  0
 20 21  2  0
 21 22  1  0
 22 23  2  0
 14 24  1  0
 24 25  1  0
 24 26  2  0
  7 27  1  0
 27 28  2  0
 27  2  1  0
 26 11  1  0
 23 15  1  0
 23 18  1  0
  1 29  1  0
  1 30  1  0
  1 31  1  0
  3 32  1  0
  6 33  1  0
 10 34  1  0
 12 35  1  0
 13 36  1  0
 16 37  1  0
 19 38  1  0
 20 39  1  0
 21 40  1  0
 22 41  1  0
 26 42  1  0
M  END
>  <UniqueID>  (1) 
1

>  <SMILES>  (1) 
Cn1cc(Cl)cc(C(=O)Nc2ccc(-n3cnc4ccccc43)c(F)c2)c1=O

>  <Energy>  (1) 
243.5670234531749

>  <Genealogy>  (1) 
Cn1cc(Cl)cc(C(=O)Nc2ccc(-n3cnc4ccccc43)c(F)c2)c1=O (3D coordinates assigned)
Cn1cc(Cl)cc(C(=O)Nc2ccc(-n3cnc4ccccc43)c(F)c2)c1=O (optimized conformer: 243.5670234531749 kcal/mol)

>  <smiles>  (1) 
Cn1cc(Cl)cc(C(=O)Nc2ccc(-n3cnc4ccccc43)c(F)c2)c1=O

>  <score_type>  (1) 
oracle

>  <origin>  (1) 
adg

>  <m_score__min__energy>  (1) 
-8.8699999999999992

>  <m_primary>  (1) 
energy

$$$$
1:0
     RDKit          3D

 49 50  0  0  0  0  0  0  0  0999 V2000
   -2.5260   19.8800  -27.1410 C   0  0  0  0  0  0  0  0  0  0  0  0
   -1.7330   21.1780  -27.0350 C   0  0  0  0  0  0  0  0  0  0  0  0
   -2.2970   22.2230  -27.9590 C   0  0  0  0  0  0  0  0  0  0  0  0
   -3.3300   23.0680  -27.5260 C   0  0  0  0  0  0  0  0  0  0  0  0
   -3.8320   24.0600  -28.3740 C   0  0  0  0  0  0  0  0  0  0  0  0
   -3.3030   24.2320  -29.6580 C   0  0  0  0  0  0  0  0  0  0  0  0
   -3.8350   25.2490  -30.4630 O   0  0  0  0  0  0  0  0  0  0  0  0
   -5.1720   25.7350  -30.3770 C   0  0  0  0  0  0  0  0  0  0  0  0
   -6.1230   24.8610  -31.2200 C   0  0  0  0  0  0  0  0  0  0  0  0
   -5.8690   23.3960  -31.1730 N   0  0  1  0  0  0  0  0  0  0  0  0
   -6.5370   22.7000  -30.0380 C   0  0  0  0  0  0  0  0  0  0  0  0
   -7.7900   21.9250  -30.4770 C   0  0  0  0  0  0  0  0  0  0  0  0
   -7.4750   20.8270  -31.5380 C   0  0  1  0  0  0  0  0  0  0  0  0
   -8.6640   20.5770  -32.4140 N   0  0  0  0  0  0  0  0  0  0  0  0
   -9.0900   19.1600  -32.3790 C   0  0  0  0  0  0  0  0  0  0  0  0
   -9.8120   21.4140  -32.0010 C   0  0  0  0  0  0  0  0  0  0  0  0
   -6.1990   21.2210  -32.3470 C   0  0  0  0  0  0  0  0  0  0  0  0
   -6.0720   22.7420  -32.4930 C   0  0  0  0  0  0  0  0  0  0  0  0
   -2.2610   23.3910  -30.0900 C   0  0  0  0  0  0  0  0  0  0  0  0
   -1.7590   22.3990  -29.2440 C   0  0  0  0  0  0  0  0  0  0  0  0
   -2.7543   19.5063  -26.1319 H   0  0  0  0  0  0  0  0  0  0  0  0
   -3.4643   20.0669  -27.6838 H   0  0  0  0  0  0  0  0  0  0  0  0
   -1.9315   19.1304  -27.6838 H   0  0  0  0  0  0  0  0  0  0  0  0
   -1.7815   21.5472  -25.9999 H   0  0  0  0  0  0  0  0  0  0  0  0
   -0.6896   20.9792  -27.3210 H   0  0  0  0  0  0  0  0  0  0  0  0
   -3.7468   22.9496  -26.5149 H   0  0  0  0  0  0  0  0  0  0  0  0
   -4.6493   24.7104  -28.0290 H   0  0  0  0  0  0  0  0  0  0  0  0
   -5.4975   25.7137  -29.3265 H   0  0  0  0  0  0  0  0  0  0  0  0
   -5.2005   26.7644  -30.7636 H   0  0  0  0  0  0  0  0  0  0  0  0
   -7.1485   25.0373  -30.8632 H   0  0  0  0  0  0  0  0  0  0  0  0
   -5.9551   25.1597  -32.2653 H   0  0  0  0  0  0  0  0  0  0  0  0
   -4.8400   23.3150  -30.9800 H   0  0  0  0  0  0  0  0  0  0  0  0
   -6.8306   23.4496  -29.2884 H   0  0  0  0  0  0  0  0  0  0  0  0
   -5.8223   21.9729  -29.6251 H   0  0  0  0  0  0  0  0  0  0  0  0
   -8.5104   22.6355  -30.9085 H   0  0  0  0  0  0  0  0  0  0  0  0
   -8.1988   21.4219  -29.5883 H   0  0  0  0  0  0  0  0  0  0  0  0
   -7.2599   19.8758  -31.0292 H   0  0  0  0  0  0  0  0  0  0  0  0
   -9.1885   18.8324  -31.3335 H   0  0  0  0  0  0  0  0  0  0  0  0
  -10.0592   19.0558  -32.8887 H   0  0  0  0  0  0  0  0  0  0  0  0
   -8.3390   18.5386  -32.8887 H   0  0  0  0  0  0  0  0  0  0  0  0
   -9.8626   21.4509  -30.9028 H   0  0  0  0  0  0  0  0  0  0  0  0
   -9.6843   22.4324  -32.3966 H   0  0  0  0  0  0  0  0  0  0  0  0
  -10.7426   20.9810  -32.3966 H   0  0  0  0  0  0  0  0  0  0  0  0
   -6.2575   20.7697  -33.3484 H   0  0  0  0  0  0  0  0  0  0  0  0
   -5.3177   20.8524  -31.8015 H   0  0  0  0  0  0  0  0  0  0  0  0
   -6.9914   23.1361  -32.9506 H   0  0  0  0  0  0  0  0  0  0  0  0
   -5.1988   22.9585  -33.1259 H   0  0  0  0  0  0  0  0  0  0  0  0
   -1.8397   23.5151  -31.0985 H   0  0  0  0  0  0  0  0  0  0  0  0
   -0.9378   21.7522  -29.5864 H   0  0  0  0  0  0  0  0  0  0  0  0
  1  2  1  0
  2  3  1  0
  3  4  2  0
  4  5  1  0
  5  6  2  0
  6  7  1  0
  7  8  1  0
  8  9  1  0
  9 10  1  0
 10 11  1  0
 11 12  1  0
 12 13  1  0
 13 14  1  0
 14 15  1  0
 14 16  1  0
 13 17  1  0
 17 18  1  0
  6 19  1  0
 19 20  2  0
 20  3  1  0
 18 10  1  0
  1 21  1  0
  1 22  1  0
  1 23  1  0
  2 24  1  0
  2 25  1  0
  4 26  1  0
  5 27  1  0
  8 28  1  0
  8 29  1  0
  9 30  1  0
  9 31  1  0
 10 32  1  1
 11 33  1  0
 11 34  1  0
 12 35  1  0
 12 36  1  0
 13 37  1  1
 15 38  1  0
 15 39  1  0
 15 40  1  0
 16 41  1  0
 16 42  1  0
 16 43  1  0
 17 44  1  0
 17 45  1  0
 18 46  1  0
 18 47  1  0
 19 48  1  0
 20 49  1  0
M  CHG  1  10   1
M  END
>  <UniqueID>  (2) 
2

>  <SMILES>  (2) 
CCc1ccc(OCC[NH+]2CCC(N(C)C)CC2)cc1

>  <Energy>  (2) 
62.48851641615115

>  <Genealogy>  (2) 
CCc1ccc(OCC[NH+]2CCC(N(C)C)CC2)cc1 (protonated)
CCc1ccc(OCC[NH+]2CCC(N(C)C)CC2)cc1 (3D coordinates assigned)
CCc1ccc(OCC[NH+]2CCC(N(C)C)CC2)cc1 (nonaromatic ring conformer: 62.48851641615115 kcal/mol)

>  <smiles>  (2) 
CCc1ccc(OCCN2CCC(N(C)C)CC2)cc1

>  <score_type>  (2) 
oracle

>  <origin>  (2) 
adg

>  <m_score__min__energy>  (2) 
-6.6500000000000004

>  <m_primary>  (2) 
energy

$$$$
2:0
     RDKit          3D

 40 42  0  0  0  0  0  0  0  0999 V2000
   -7.6130   17.8140  -32.6690 C   0  0  0  0  0  0  0  0  0  0  0  0
   -8.0700   19.2030  -32.3560 C   0  0  0  0  0  0  0  0  0  0  0  0
   -9.4030   19.5740  -32.5650 C   0  0  0  0  0  0  0  0  0  0  0  0
   -9.8050   20.8760  -32.2630 C   0  0  0  0  0  0  0  0  0  0  0  0
   -8.8800   21.7910  -31.7560 C   0  0  0  0  0  0  0  0  0  0  0  0
   -7.5500   21.3890  -31.5560 C   0  0  0  0  0  0  0  0  0  0  0  0
   -6.5380   22.3210  -31.0220 C   0  0  0  0  0  0  0  0  0  0  0  0
   -6.9290   23.5010  -30.4690 N   0  0  0  0  0  0  0  0  0  0  0  0
   -6.0220   24.3810  -29.9710 C   0  0  0  0  0  0  0  0  0  0  0  0
   -6.4860   25.6820  -29.3980 C   0  0  0  0  0  0  0  0  0  0  0  0
   -4.6580   24.0800  -30.0330 C   0  0  0  0  0  0  0  0  0  0  0  0
   -4.2600   22.8560  -30.5950 C   0  0  0  0  0  0  0  0  0  0  0  0
   -2.8300   22.4660  -30.6960 C   0  0  0  0  0  0  0  0  0  0  0  0
   -1.9400   22.6390  -29.6190 C   0  0  0  0  0  0  0  0  0  0  0  0
   -0.6050   22.2490  -29.7540 C   0  0  0  0  0  0  0  0  0  0  0  0
   -0.1680   21.6990  -30.9170 N   0  0  0  0  0  0  0  0  0  0  0  0
   -1.0020   21.5080  -31.9730 C   0  0  0  0  0  0  0  0  0  0  0  0
   -0.3800   20.7920  -33.4470 S   0  0  0  0  0  0  0  0  0  0  0  0
    1.0670   19.8040  -33.1430 C   0  0  0  0  0  0  0  0  0  0  0  0
   -0.1000   21.9620  -34.6180 O   0  0  0  0  0  0  0  0  0  0  0  0
   -2.3460   21.8850  -31.8810 C   0  0  0  0  0  0  0  0  0  0  0  0
   -5.2140   22.0150  -31.0790 N   0  0  0  0  0  0  0  0  0  0  0  0
   -7.1860   20.1120  -31.8600 N   0  0  0  0  0  0  0  0  0  0  0  0
   -7.4331   17.2672  -31.7316 H   0  0  0  0  0  0  0  0  0  0  0  0
   -8.3880   17.2958  -33.2528 H   0  0  0  0  0  0  0  0  0  0  0  0
   -6.6817   17.8572  -33.2528 H   0  0  0  0  0  0  0  0  0  0  0  0
  -10.1264   18.8472  -32.9631 H   0  0  0  0  0  0  0  0  0  0  0  0
  -10.8495   21.1811  -32.4242 H   0  0  0  0  0  0  0  0  0  0  0  0
   -9.1910   22.8183  -31.5153 H   0  0  0  0  0  0  0  0  0  0  0  0
   -6.4663   25.6267  -28.2996 H   0  0  0  0  0  0  0  0  0  0  0  0
   -5.8206   26.4899  -29.7365 H   0  0  0  0  0  0  0  0  0  0  0  0
   -7.5125   25.8864  -29.7365 H   0  0  0  0  0  0  0  0  0  0  0  0
   -3.9101   24.7891  -29.6485 H   0  0  0  0  0  0  0  0  0  0  0  0
   -2.2940   23.0793  -28.6752 H   0  0  0  0  0  0  0  0  0  0  0  0
    0.0942   22.3877  -28.9162 H   0  0  0  0  0  0  0  0  0  0  0  0
    1.2189   19.7003  -32.0585 H   0  0  0  0  0  0  0  0  0  0  0  0
    0.9321   18.8086  -33.5912 H   0  0  0  0  0  0  0  0  0  0  0  0
    1.9450   20.2920  -33.5912 H   0  0  0  0  0  0  0  0  0  0  0  0
   -0.9880   22.1370  -35.0220 H   0  0  0  0  0  0  0  0  0  0  0  0
   -3.0225   21.7272  -32.7339 H   0  0  0  0  0  0  0  0  0  0  0  0
  1  2  1  0
  2  3  2  0
  3  4  1  0
  4  5  2  0
  5  6  1  0
  6  7  1  0
  7  8  2  0
  8  9  1  0
  9 10  1  0
  9 11  2  0
 11 12  1  0
 12 13  1  0
 13 14  2  0
 14 15  1  0
 15 16  2  0
 16 17  1  0
 17 18  1  0
 18 19  1  0
 18 20  1  6
 17 21  2  0
 12 22  2  0
  6 23  2  0
 23  2  1  0
 22  7  1  0
 21 13  1  0
  1 24  1  0
  1 25  1  0
  1 26  1  0
  3 27  1  0
  4 28  1  0
  5 29  1  0
 10 30  1  0
 10 31  1  0
 10 32  1  0
 11 33  1  0
 14 34  1  0
 15 35  1  0
 19 36  1  0
 19 37  1  0
 19 38  1  0
 20 39  1  0
 21 40  1  0
M  CHG  1  18   1
M  END
>  <UniqueID>  (3) 
3

>  <SMILES>  (3) 
Cc1cccc(-c2nc(C)cc(-c3ccnc([S@+](C)O)c3)n2)n1

>  <Energy>  (3) 
41.185416618097136

>  <Genealogy>  (3) 
Cc1cccc(-c2nc(C)cc(-c3ccnc([S+](C)O)c3)n2)n1 (protonated)
Cc1cccc(-c2nc(C)cc(-c3ccnc([S@+](C)O)c3)n2)n1 (chirality)
Cc1cccc(-c2nc(C)cc(-c3ccnc([S@+](C)O)c3)n2)n1 (3D coordinates assigned)
Cc1cccc(-c2nc(C)cc(-c3ccnc([S@+](C)O)c3)n2)n1 (optimized conformer: 41.185416618097136 kcal/mol)

>  <smiles>  (3) 
Cc1cccc(-c2nc(C)cc(-c3ccnc([S+](C)[O-])c3)n2)n1

>  <score_type>  (3) 
oracle

>  <origin>  (3) 
adg

>  <m_score__min__energy>  (3) 
-7.5999999999999996

>  <m_primary>  (3) 
energy

$$$$
3:0
     RDKit          3D

 50 52  0  0  0  0  0  0  0  0999 V2000
    0.6600   22.6300  -35.6750 C   0  0  0  0  0  0  0  0  0  0  0  0
   -0.0400   21.3280  -35.3040 C   0  0  0  0  0  0  0  0  0  0  0  0
   -1.0130   21.5620  -34.2250 N   0  0  0  0  0  0  0  0  0  0  0  0
   -0.4980   21.1700  -32.9010 C   0  0  0  0  0  0  0  0  0  0  0  0
   -1.6190   21.0830  -31.8480 C   0  0  0  0  0  0  0  0  0  0  0  0
   -2.8250   21.9520  -32.2230 C   0  0  0  0  0  0  0  0  0  0  0  0
   -3.5900   21.3640  -33.3210 N   0  0  0  0  0  0  0  0  0  0  0  0
   -4.8840   20.7970  -33.0800 C   0  0  0  0  0  0  0  0  0  0  0  0
   -5.8960   21.6090  -32.5410 C   0  0  0  0  0  0  0  0  0  0  0  0
   -5.6740   22.9860  -32.3190 C   0  0  0  0  0  0  0  0  0  0  0  0
   -6.6890   23.8010  -31.8250 C   0  0  0  0  0  0  0  0  0  0  0  0
   -7.9440   23.2650  -31.5600 C   0  0  0  0  0  0  0  0  0  0  0  0
   -8.1830   21.9070  -31.7650 C   0  0  0  0  0  0  0  0  0  0  0  0
   -7.1570   21.0430  -32.2290 C   0  0  0  0  0  0  0  0  0  0  0  0
   -7.3660   19.6890  -32.3940 N   0  0  0  0  0  0  0  0  0  0  0  0
   -8.5550   19.0480  -31.7880 C   0  0  0  0  0  0  0  0  0  0  0  0
   -6.4550   18.9280  -33.1030 C   0  0  0  0  0  0  0  0  0  0  0  0
   -6.7760   17.6190  -33.5380 C   0  0  0  0  0  0  0  0  0  0  0  0
   -5.8450   16.8300  -34.1990 C   0  0  0  0  0  0  0  0  0  0  0  0
   -4.5750   17.3190  -34.4640 C   0  0  0  0  0  0  0  0  0  0  0  0
   -4.2190   18.6290  -34.0990 C   0  0  0  0  0  0  0  0  0  0  0  0
   -2.9380   19.1220  -34.4010 O   0  0  0  0  0  0  0  0  0  0  0  0
   -1.7200   18.3980  -34.2560 C   0  0  0  0  0  0  0  0  0  0  0  0
   -5.1700   19.4560  -33.4300 C   0  0  0  0  0  0  0  0  0  0  0  0
    0.9479   23.1656  -34.7584 H   0  0  0  0  0  0  0  0  0  0  0  0
    1.5597   22.4068  -36.2672 H   0  0  0  0  0  0  0  0  0  0  0  0
   -0.0224   23.2574  -36.2672 H   0  0  0  0  0  0  0  0  0  0  0  0
   -0.5646   20.9335  -36.1867 H   0  0  0  0  0  0  0  0  0  0  0  0
    0.7115   20.6032  -34.9578 H   0  0  0  0  0  0  0  0  0  0  0  0
   -1.8910   21.0340  -34.4330 H   0  0  0  0  0  0  0  0  0  0  0  0
   -0.0132   20.1862  -32.9856 H   0  0  0  0  0  0  0  0  0  0  0  0
    0.2168   21.9392  -32.5733 H   0  0  0  0  0  0  0  0  0  0  0  0
   -1.9473   20.0365  -31.7639 H   0  0  0  0  0  0  0  0  0  0  0  0
   -1.2179   21.4511  -30.8922 H   0  0  0  0  0  0  0  0  0  0  0  0
   -3.4799   22.0522  -31.3449 H   0  0  0  0  0  0  0  0  0  0  0  0
   -2.4534   22.9345  -32.5494 H   0  0  0  0  0  0  0  0  0  0  0  0
   -3.2030   21.3210  -34.2910 H   0  0  0  0  0  0  0  0  0  0  0  0
   -4.6874   23.4198  -32.5390 H   0  0  0  0  0  0  0  0  0  0  0  0
   -6.4978   24.8691  -31.6444 H   0  0  0  0  0  0  0  0  0  0  0  0
   -8.7504   23.9140  -31.1877 H   0  0  0  0  0  0  0  0  0  0  0  0
   -9.1841   21.4980  -31.5637 H   0  0  0  0  0  0  0  0  0  0  0  0
   -8.4758   19.0907  -30.6917 H   0  0  0  0  0  0  0  0  0  0  0  0
   -9.4625   19.5791  -32.1110 H   0  0  0  0  0  0  0  0  0  0  0  0
   -8.6101   17.9979  -32.1110 H   0  0  0  0  0  0  0  0  0  0  0  0
   -7.7832   17.2197  -33.3482 H   0  0  0  0  0  0  0  0  0  0  0  0
   -6.1161   15.8116  -34.5142 H   0  0  0  0  0  0  0  0  0  0  0  0
   -3.8378   16.6747  -34.9654 H   0  0  0  0  0  0  0  0  0  0  0  0
   -1.4972   18.2656  -33.1870 H   0  0  0  0  0  0  0  0  0  0  0  0
   -1.8200   17.4126  -34.7345 H   0  0  0  0  0  0  0  0  0  0  0  0
   -0.9022   18.9567  -34.7345 H   0  0  0  0  0  0  0  0  0  0  0  0
  1  2  1  0
  2  3  1  0
  3  4  1  0
  4  5  1  0
  5  6  1  0
  6  7  1  0
  7  8  1  0
  8  9  2  0
  9 10  1  0
 10 11  2  0
 11 12  1  0
 12 13  2  0
 13 14  1  0
 14 15  2  0
 15 16  1  0
 15 17  1  0
 17 18  2  0
 18 19  1  0
 19 20  2  0
 20 21  1  0
 21 22  1  0
 22 23  1  0
 21 24  2  0
 24  8  1  0
 14  9  1  0
 24 17  1  0
  1 25  1  0
  1 26  1  0
  1 27  1  0
  2 28  1  0
  2 29  1  0
  3 30  1  0
  4 31  1  0
  4 32  1  0
  5 33  1  0
  5 34  1  0
  6 35  1  0
  6 36  1  0
  7 37  1  0
 10 38  1  0
 11 39  1  0
 12 40  1  0
 13 41  1  0
 16 42  1  0
 16 43  1  0
 16 44  1  0
 18 45  1  0
 19 46  1  0
 20 47  1  0
 23 48  1  0
 23 49  1  0
 23 50  1  0
M  CHG  1  15   1
M  END
>  <UniqueID>  (4) 
4

>  <SMILES>  (4) 
CCNCCCNc1c2ccccc2[n+](C)c2cccc(OC)c12

>  <Energy>  (4) 
75.36031872443911

>  <Genealogy>  (4) 
CCNCCCNc1c2ccccc2[n+](C)c2cccc(OC)c12 (3D coordinates assigned)
CCNCCCNc1c2ccccc2[n+](C)c2cccc(OC)c12 (optimized conformer: 75.36031872443911 kcal/mol)

>  <smiles>  (4) 
CCNCCCNc1c2ccccc2[n+](C)c2cccc(OC)c12

>  <score_type>  (4) 
oracle

>  <origin>  (4) 
adg

>  <m_score__min__energy>  (4) 
-9.0099999999999998

>  <m_primary>  (4) 
energy

$$$$
4:0
     RDKit          3D

 39 39  0  0  0  0  0  0  0  0999 V2000
   -0.8880   26.8410  -23.6380 C   0  0  0  0  0  0  0  0  0  0  0  0
   -1.2360   26.8460  -25.1320 C   0  0  0  0  0  0  0  0  0  0  0  0
   -0.9940   25.5380  -25.7940 N   0  0  0  0  0  0  0  0  0  0  0  0
   -0.8640   24.4780  -24.7590 C   0  0  0  0  0  0  0  0  0  0  0  0
   -0.1760   23.2090  -25.2770 C   0  0  0  0  0  0  0  0  0  0  0  0
   -2.0160   25.2170  -26.8290 C   0  0  0  0  0  0  0  0  0  0  0  0
   -1.4760   25.1990  -28.2330 C   0  0  0  0  0  0  0  0  0  0  0  0
   -0.2350   25.0950  -28.4270 O   0  0  0  0  0  0  0  0  0  0  0  0
   -2.3760   25.2980  -29.3400 N   0  0  0  0  0  0  0  0  0  0  0  0
   -3.3760   24.2860  -29.6660 C   0  0  0  0  0  0  0  0  0  0  0  0
   -4.6130   24.9200  -30.3130 C   0  0  0  0  0  0  0  0  0  0  0  0
   -5.5680   23.8690  -30.8190 C   0  0  0  0  0  0  0  0  0  0  0  0
   -6.7990   23.6630  -30.1750 C   0  0  0  0  0  0  0  0  0  0  0  0
   -7.6700   22.6660  -30.6240 C   0  0  0  0  0  0  0  0  0  0  0  0
   -7.3160   21.8610  -31.7110 C   0  0  0  0  0  0  0  0  0  0  0  0
   -8.5060   20.4980  -32.3200 Br  0  0  0  0  0  0  0  0  0  0  0  0
   -6.0870   22.0530  -32.3490 C   0  0  0  0  0  0  0  0  0  0  0  0
   -5.2140   23.0500  -31.9040 C   0  0  0  0  0  0  0  0  0  0  0  0
   -1.8148   26.8543  -23.0456 H   0  0  0  0  0  0  0  0  0  0  0  0
   -0.3128   25.9345  -23.3985 H   0  0  0  0  0  0  0  0  0  0  0  0
   -0.2869   27.7306  -23.3985 H   0  0  0  0  0  0  0  0  0  0  0  0
   -2.3001   27.1020  -25.2422 H   0  0  0  0  0  0  0  0  0  0  0  0
   -0.5809   27.5842  -25.6176 H   0  0  0  0  0  0  0  0  0  0  0  0
   -0.0690   25.6050  -26.2830 H   0  0  0  0  0  0  0  0  0  0  0  0
   -0.2744   24.8781  -23.9210 H   0  0  0  0  0  0  0  0  0  0  0  0
   -1.8815   24.1956  -24.4507 H   0  0  0  0  0  0  0  0  0  0  0  0
    0.1554   22.5977  -24.4247 H   0  0  0  0  0  0  0  0  0  0  0  0
   -0.8846   22.6315  -25.8889 H   0  0  0  0  0  0  0  0  0  0  0  0
    0.6946   23.4876  -25.8889 H   0  0  0  0  0  0  0  0  0  0  0  0
   -2.4349   24.2246  -26.6062 H   0  0  0  0  0  0  0  0  0  0  0  0
   -2.7734   26.0137  -26.7881 H   0  0  0  0  0  0  0  0  0  0  0  0
   -2.9371   23.5597  -30.3658 H   0  0  0  0  0  0  0  0  0  0  0  0
   -3.6853   23.7881  -28.7352 H   0  0  0  0  0  0  0  0  0  0  0  0
   -5.1282   25.5423  -29.5665 H   0  0  0  0  0  0  0  0  0  0  0  0
   -4.2833   25.5289  -31.1677 H   0  0  0  0  0  0  0  0  0  0  0  0
   -7.0787   24.2883  -29.3143 H   0  0  0  0  0  0  0  0  0  0  0  0
   -8.6364   22.5144  -30.1208 H   0  0  0  0  0  0  0  0  0  0  0  0
   -5.8064   21.4185  -33.2026 H   0  0  0  0  0  0  0  0  0  0  0  0
   -4.2457   23.1938  -32.4056 H   0  0  0  0  0  0  0  0  0  0  0  0
  1  2  1  0
  2  3  1  0
  3  4  1  0
  4  5  1  0
  3  6  1  0
  6  7  1  0
  7  8  2  0
  7  9  1  0
  9 10  1  0
 10 11  1  0
 11 12  1  0
 12 13  2  0
 13 14  1  0
 14 15  2  0
 15 16  1  0
 15 17  1  0
 17 18  2  0
 18 12  1  0
  1 19  1  0
  1 20  1  0
  1 21  1  0
  2 22  1  0
  2 23  1  0
  3 24  1  0
  4 25  1  0
  4 26  1  0
  5 27  1  0
  5 28  1  0
  5 29  1  0
  6 30  1  0
  6 31  1  0
 10 32  1  0
 10 33  1  0
 11 34  1  0
 11 35  1  0
 13 36  1  0
 14 37  1  0
 17 38  1  0
 18 39  1  0
M  CHG  2   3   1   9  -1
M  END
>  <UniqueID>  (5) 
5

>  <SMILES>  (5) 
CC[NH+](CC)CC(=O)[N-]CCc1ccc(Br)cc1

>  <Energy>  (5) 
33.313059988918575

>  <Genealogy>  (5) 
CC[NH+](CC)CC(=O)[N-]CCc1ccc(Br)cc1 (protonated)
CC[NH+](CC)CC(=O)[N-]CCc1ccc(Br)cc1 (3D coordinates assigned)
CC[NH+](CC)CC(=O)[N-]CCc1ccc(Br)cc1 (optimized conformer: 33.313059988918575 kcal/mol)

>  <smiles>  (5) 
CCN(CC)CC(=O)NCCc1ccc(Br)cc1

>  <score_type>  (5) 
oracle

>  <origin>  (5) 
adg

>  <m_score__min__energy>  (5) 
-7.7300000000000004

>  <m_primary>  (5) 
energy

$$$$
5:0
     RDKit          3D

 88 91  0  0  0  0  0  0  0  0999 V2000
   -3.8650   24.0940  -27.7000 C   0  0  0  0  0  0  0  0  0  0  0  0
   -4.6050   22.9910  -28.4470 C   0  0  0  0  0  0  0  0  0  0  0  0
   -3.7460   22.4670  -29.5340 N   0  0  0  0  0  0  0  0  0  0  0  0
   -2.4320   21.9850  -29.0470 C   0  0  0  0  0  0  0  0  0  0  0  0
   -1.3990   21.7530  -30.1640 C   0  0  0  0  0  0  0  0  0  0  0  0
   -3.6400   23.3670  -30.7040 C   0  0  0  0  0  0  0  0  0  0  0  0
   -5.0310   23.8180  -31.1870 C   0  0  0  0  0  0  0  0  0  0  0  0
   -5.3610   23.2510  -32.4950 N   0  0  0  0  0  0  0  0  0  0  0  0
   -5.8580   21.9090  -32.6340 C   0  0  0  0  0  0  0  0  0  0  0  0
   -4.9920   20.8720  -33.0240 C   0  0  0  0  0  0  0  0  0  0  0  0
   -5.5090   19.5770  -33.2490 C   0  0  0  0  0  0  0  0  0  0  0  0
   -6.7940   19.2720  -32.8440 N   0  0  0  0  0  0  0  0  0  0  0  0
   -7.1960   17.8660  -32.6290 C   0  0  0  0  0  0  0  0  0  0  0  0
   -7.6760   20.2840  -32.5200 C   0  0  0  0  0  0  0  0  0  0  0  0
   -9.0560   20.0280  -32.3180 C   0  0  0  0  0  0  0  0  0  0  0  0
   -9.9330   21.0520  -31.9610 C   0  0  0  0  0  0  0  0  0  0  0  0
   -9.4620   22.3470  -31.7930 C   0  0  0  0  0  0  0  0  0  0  0  0
   -8.1140   22.6340  -31.9990 C   0  0  0  0  0  0  0  0  0  0  0  0
   -7.2120   21.6200  -32.3860 C   0  0  0  0  0  0  0  0  0  0  0  0
   -4.5880   18.5690  -33.8710 C   0  0  0  0  0  0  0  0  0  0  0  0
   -5.0480   17.5810  -34.7600 C   0  0  0  0  0  0  0  0  0  0  0  0
   -4.1640   16.6460  -35.3050 C   0  0  0  0  0  0  0  0  0  0  0  0
   -2.7910   16.7130  -35.0100 C   0  0  0  0  0  0  0  0  0  0  0  0
   -1.8700   15.7750  -35.5010 O   0  0  0  0  0  0  0  0  0  0  0  0
   -1.3230   14.7060  -34.7310 C   0  0  0  0  0  0  0  0  0  0  0  0
   -2.2050   14.4570  -33.5080 C   0  0  0  0  0  0  0  0  0  0  0  0
   -3.0840   13.1940  -33.7130 C   0  0  0  0  0  0  0  0  0  0  0  0
   -4.4810   13.2680  -33.1500 N   0  0  0  0  0  0  0  0  0  0  0  0
   -4.9440   11.8640  -32.8680 C   0  0  0  0  0  0  0  0  0  0  0  0
   -5.7140   11.6440  -31.5590 C   0  0  0  0  0  0  0  0  0  0  0  0
   -4.4170   14.1110  -31.9020 C   0  0  0  0  0  0  0  0  0  0  0  0
   -4.9790   15.5430  -32.0190 C   0  0  0  0  0  0  0  0  0  0  0  0
   -5.3610   13.9300  -34.1870 C   0  0  0  0  0  0  0  0  0  0  0  0
   -6.8010   13.3970  -34.3420 C   0  0  0  0  0  0  0  0  0  0  0  0
   -2.3150   17.7550  -34.2090 C   0  0  0  0  0  0  0  0  0  0  0  0
   -3.2000   18.6990  -33.6680 C   0  0  0  0  0  0  0  0  0  0  0  0
   -2.6850   19.8650  -32.8700 C   0  0  0  0  0  0  0  0  0  0  0  0
   -3.5030   21.1210  -33.2020 C   0  0  0  0  0  0  0  0  0  0  0  0
   -3.9702   23.9372  -26.6163 H   0  0  0  0  0  0  0  0  0  0  0  0
   -2.7995   24.0701  -27.9722 H   0  0  0  0  0  0  0  0  0  0  0  0
   -4.2912   25.0709  -27.9722 H   0  0  0  0  0  0  0  0  0  0  0  0
   -4.8505   22.1769  -27.7492 H   0  0  0  0  0  0  0  0  0  0  0  0
   -5.5320   23.3983  -28.8770 H   0  0  0  0  0  0  0  0  0  0  0  0
   -2.0258   22.7325  -28.3496 H   0  0  0  0  0  0  0  0  0  0  0  0
   -2.6074   21.0107  -28.5674 H   0  0  0  0  0  0  0  0  0  0  0  0
   -0.4185   21.5328  -29.7167 H   0  0  0  0  0  0  0  0  0  0  0  0
   -1.7169   20.9039  -30.7868 H   0  0  0  0  0  0  0  0  0  0  0  0
   -1.3233   22.6565  -30.7868 H   0  0  0  0  0  0  0  0  0  0  0  0
   -3.0529   24.2537  -30.4227 H   0  0  0  0  0  0  0  0  0  0  0  0
   -3.1479   22.8195  -31.5214 H   0  0  0  0  0  0  0  0  0  0  0  0
   -5.7853   23.4908  -30.4563 H   0  0  0  0  0  0  0  0  0  0  0  0
   -5.0221   24.9139  -31.2812 H   0  0  0  0  0  0  0  0  0  0  0  0
   -5.0860   23.7720  -33.3570 H   0  0  0  0  0  0  0  0  0  0  0  0
   -7.2543   17.6623  -31.5496 H   0  0  0  0  0  0  0  0  0  0  0  0
   -8.1800   17.6916  -33.0887 H   0  0  0  0  0  0  0  0  0  0  0  0
   -6.4529   17.1978  -33.0887 H   0  0  0  0  0  0  0  0  0  0  0  0
   -9.4410   19.0054  -32.4449 H   0  0  0  0  0  0  0  0  0  0  0  0
  -11.0006   20.8329  -31.8122 H   0  0  0  0  0  0  0  0  0  0  0  0
  -10.1545   23.1486  -31.4965 H   0  0  0  0  0  0  0  0  0  0  0  0
   -7.7490   23.6621  -31.8584 H   0  0  0  0  0  0  0  0  0  0  0  0
   -6.1140   17.5439  -35.0289 H   0  0  0  0  0  0  0  0  0  0  0  0
   -4.5439   15.8543  -35.9675 H   0  0  0  0  0  0  0  0  0  0  0  0
   -1.2823   13.7946  -35.3456 H   0  0  0  0  0  0  0  0  0  0  0  0
   -0.3073   14.9722  -34.4030 H   0  0  0  0  0  0  0  0  0  0  0  0
   -1.5653   14.3122  -32.6250 H   0  0  0  0  0  0  0  0  0  0  0  0
   -2.8634   15.3264  -33.3640 H   0  0  0  0  0  0  0  0  0  0  0  0
   -3.1653   13.0114  -34.7947 H   0  0  0  0  0  0  0  0  0  0  0  0
   -2.5813   12.3872  -33.1595 H   0  0  0  0  0  0  0  0  0  0  0  0
   -5.5991   11.5560  -33.6963 H   0  0  0  0  0  0  0  0  0  0  0  0
   -4.0237   11.2702  -32.7662 H   0  0  0  0  0  0  0  0  0  0  0  0
   -5.0474   11.8345  -30.7050 H   0  0  0  0  0  0  0  0  0  0  0  0
   -6.5700   12.3335  -31.5168 H   0  0  0  0  0  0  0  0  0  0  0  0
   -6.0766   10.6063  -31.5168 H   0  0  0  0  0  0  0  0  0  0  0  0
   -4.9841   13.5909  -31.1160 H   0  0  0  0  0  0  0  0  0  0  0  0
   -3.3459   14.2316  -31.6823 H   0  0  0  0  0  0  0  0  0  0  0  0
   -5.1413   15.9565  -31.0127 H   0  0  0  0  0  0  0  0  0  0  0  0
   -4.2621   16.1749  -32.5639 H   0  0  0  0  0  0  0  0  0  0  0  0
   -5.9343   15.5186  -32.5639 H   0  0  0  0  0  0  0  0  0  0  0  0
   -5.4303   14.9969  -33.9283 H   0  0  0  0  0  0  0  0  0  0  0  0
   -4.8751   13.7108  -35.1492 H   0  0  0  0  0  0  0  0  0  0  0  0
   -7.2408   13.2342  -33.3470 H   0  0  0  0  0  0  0  0  0  0  0  0
   -7.4061   14.1307  -34.8947 H   0  0  0  0  0  0  0  0  0  0  0  0
   -6.7825   12.4461  -34.8947 H   0  0  0  0  0  0  0  0  0  0  0  0
   -1.2378   17.8352  -34.0013 H   0  0  0  0  0  0  0  0  0  0  0  0
   -2.7763   19.6423  -31.7967 H   0  0  0  0  0  0  0  0  0  0  0  0
   -1.6289   20.0409  -33.1222 H   0  0  0  0  0  0  0  0  0  0  0  0
   -3.1936   21.9376  -32.5331 H   0  0  0  0  0  0  0  0  0  0  0  0
   -3.3184   21.3884  -34.2529 H   0  0  0  0  0  0  0  0  0  0  0  0
  1  2  1  0
  2  3  1  0
  3  4  1  0
  4  5  1  0
  3  6  1  0
  6  7  1  0
  7  8  1  0
  8  9  1  0
  9 10  2  0
 10 11  1  0
 11 12  2  0
 12 13  1  0
 12 14  1  0
 14 15  2  0
 15 16  1  0
 16 17  2  0
 17 18  1  0
 18 19  2  0
 11 20  1  0
 20 21  2  0
 21 22  1  0
 22 23  2  0
 23 24  1  0
 24 25  1  0
 25 26  1  0
 26 27  1  0
 27 28  1  0
 28 29  1  0
 29 30  1  0
 28 31  1  0
 31 32  1  0
 28 33  1  0
 33 34  1  0
 23 35  1  0
 35 36  2  0
 36 37  1  0
 37 38  1  0
 19  9  1  0
 36 20  1  0
 38 10  1  0
 19 14  1  0
  1 39  1  0
  1 40  1  0
  1 41  1  0
  2 42  1  0
  2 43  1  0
  4 44  1  0
  4 45  1  0
  5 46  1  0
  5 47  1  0
  5 48  1  0
  6 49  1  0
  6 50  1  0
  7 51  1  0
  7 52  1  0
  8 53  1  0
 13 54  1  0
 13 55  1  0
 13 56  1  0
 15 57  1  0
 16 58  1  0
 17 59  1  0
 18 60  1  0
 21 61  1  0
 22 62  1  0
 25 63  1  0
 25 64  1  0
 26 65  1  0
 26 66  1  0
 27 67  1  0
 27 68  1  0
 29 69  1  0
 29 70  1  0
 30 71  1  0
 30 72  1  0
 30 73  1  0
 31 74  1  0
 31 75  1  0
 32 76  1  0
 32 77  1  0
 32 78  1  0
 33 79  1  0
 33 80  1  0
 34 81  1  0
 34 82  1  0
 34 83  1  0
 35 84  1  0
 37 85  1  0
 37 86  1  0
 38 87  1  0
 38 88  1  0
M  CHG  2  12   1  28   1
M  END
>  <UniqueID>  (6) 
6

>  <SMILES>  (6) 
CCN(CC)CCNc1c2c([n+](C)c3ccccc13)-c1ccc(OCCC[N+](CC)(CC)CC)cc1CC2

>  <Energy>  (6) 
140.78191280181468

>  <Genealogy>  (6) 
CCN(CC)CCNc1c2c([n+](C)c3ccccc13)-c1ccc(OCCC[N+](CC)(CC)CC)cc1CC2 (3D coordinates assigned)
CCN(CC)CCNc1c2c([n+](C)c3ccccc13)-c1ccc(OCCC[N+](CC)(CC)CC)cc1CC2 (nonaromatic ring conformer: 140.78191280181468 kcal/mol)

>  <smiles>  (6) 
CCN(CC)CCNc1c2c([n+](C)c3ccccc13)-c1ccc(OCCC[N+](CC)(CC)CC)cc1CC2

>  <score_type>  (6) 
oracle

>  <origin>  (6) 
adg

>  <m_score__min__energy>  (6) 
-8

>  <m_primary>  (6) 
energy

$$$$
6:0
     RDKit          3D

 84 87  0  0  0  0  0  0  0  0999 V2000
   -0.5390   19.6570  -30.2110 C   0  0  0  0  0  0  0  0  0  0  0  0
   -0.2900   19.5810  -31.7200 C   0  0  0  0  0  0  0  0  0  0  0  0
   -1.5050   19.7620  -32.5510 N   0  0  0  0  0  0  0  0  0  0  0  0
   -1.4650   20.9230  -33.4710 C   0  0  0  0  0  0  0  0  0  0  0  0
   -0.1200   21.1200  -34.1930 C   0  0  0  0  0  0  0  0  0  0  0  0
   -2.0850   18.5210  -33.1060 C   0  0  0  0  0  0  0  0  0  0  0  0
   -3.1560   18.8520  -34.1540 C   0  0  0  0  0  0  0  0  0  0  0  0
   -4.4300   19.3940  -33.4980 C   0  0  0  0  0  0  0  0  0  0  0  0
   -4.1600   19.8740  -32.1400 N   0  0  0  0  0  0  0  0  0  0  0  0
   -4.9070   20.9510  -31.5510 C   0  0  0  0  0  0  0  0  0  0  0  0
   -6.3010   21.0040  -31.7110 C   0  0  0  0  0  0  0  0  0  0  0  0
   -6.9900   19.9660  -32.3740 C   0  0  0  0  0  0  0  0  0  0  0  0
   -8.3570   20.0620  -32.6180 C   0  0  0  0  0  0  0  0  0  0  0  0
   -9.0570   21.1960  -32.2230 C   0  0  0  0  0  0  0  0  0  0  0  0
   -8.4020   22.2250  -31.5480 C   0  0  0  0  0  0  0  0  0  0  0  0
   -7.0210   22.1330  -31.2320 C   0  0  0  0  0  0  0  0  0  0  0  0
   -6.3710   23.1140  -30.5040 N   0  0  0  0  0  0  0  0  0  0  0  0
   -7.1530   24.1490  -29.7880 C   0  0  0  0  0  0  0  0  0  0  0  0
   -4.9900   23.1120  -30.4170 C   0  0  0  0  0  0  0  0  0  0  0  0
   -4.2780   24.2150  -29.8790 C   0  0  0  0  0  0  0  0  0  0  0  0
   -2.8840   24.1740  -29.7140 C   0  0  0  0  0  0  0  0  0  0  0  0
   -2.1640   25.2520  -29.1810 O   0  0  0  0  0  0  0  0  0  0  0  0
   -1.9800   25.4950  -27.7850 C   0  0  0  0  0  0  0  0  0  0  0  0
   -1.4120   24.2390  -27.0860 C   0  0  0  0  0  0  0  0  0  0  0  0
    0.0270   24.3160  -26.6510 N   0  0  0  0  0  0  0  0  0  0  0  0
    0.8650   23.4640  -27.5350 C   0  0  0  0  0  0  0  0  0  0  0  0
    0.5770   25.7040  -26.6800 C   0  0  0  0  0  0  0  0  0  0  0  0
   -0.0640   26.6380  -25.6320 C   0  0  0  0  0  0  0  0  0  0  0  0
    0.0120   26.1000  -24.2440 N   0  0  0  0  0  0  0  0  0  0  0  0
    1.4000   26.1900  -23.7210 C   0  0  0  0  0  0  0  0  0  0  0  0
   -0.8520   26.9340  -23.3720 C   0  0  0  0  0  0  0  0  0  0  0  0
   -0.4820   24.6960  -24.1910 C   0  0  0  0  0  0  0  0  0  0  0  0
    0.1540   23.7820  -25.2630 C   0  0  0  0  0  0  0  0  0  0  0  0
   -2.1810   23.0480  -30.1300 C   0  0  0  0  0  0  0  0  0  0  0  0
   -2.8480   21.9720  -30.7070 C   0  0  0  0  0  0  0  0  0  0  0  0
   -4.2440   22.0040  -30.8960 C   0  0  0  0  0  0  0  0  0  0  0  0
    0.3789   19.3769  -29.6734 H   0  0  0  0  0  0  0  0  0  0  0  0
   -0.8252   20.6834  -29.9378 H   0  0  0  0  0  0  0  0  0  0  0  0
   -1.3496   18.9653  -29.9378 H   0  0  0  0  0  0  0  0  0  0  0  0
    0.4315   20.3663  -31.9897 H   0  0  0  0  0  0  0  0  0  0  0  0
    0.0832   18.5670  -31.9260 H   0  0  0  0  0  0  0  0  0  0  0  0
   -2.2466   20.7848  -34.2326 H   0  0  0  0  0  0  0  0  0  0  0  0
   -1.6212   21.8183  -32.8514 H   0  0  0  0  0  0  0  0  0  0  0  0
    0.6817   21.2374  -33.4491 H   0  0  0  0  0  0  0  0  0  0  0  0
    0.0899   20.2430  -34.8230 H   0  0  0  0  0  0  0  0  0  0  0  0
   -0.1704   22.0203  -34.8230 H   0  0  0  0  0  0  0  0  0  0  0  0
   -1.2877   17.9278  -33.5777 H   0  0  0  0  0  0  0  0  0  0  0  0
   -2.5499   17.9487  -32.2897 H   0  0  0  0  0  0  0  0  0  0  0  0
   -2.7587   19.6101  -34.8449 H   0  0  0  0  0  0  0  0  0  0  0  0
   -3.4102   17.9278  -34.6936 H   0  0  0  0  0  0  0  0  0  0  0  0
   -4.8194   20.2263  -34.1026 H   0  0  0  0  0  0  0  0  0  0  0  0
   -5.1676   18.5799  -33.4410 H   0  0  0  0  0  0  0  0  0  0  0  0
   -3.4620   19.3650  -31.5530 H   0  0  0  0  0  0  0  0  0  0  0  0
   -6.4406   19.0711  -32.7016 H   0  0  0  0  0  0  0  0  0  0  0  0
   -8.8839   19.2396  -33.1240 H   0  0  0  0  0  0  0  0  0  0  0  0
  -10.1312   21.2818  -32.4437 H   0  0  0  0  0  0  0  0  0  0  0  0
   -8.9648   23.1236  -31.2552 H   0  0  0  0  0  0  0  0  0  0  0  0
   -7.0444   24.0053  -28.7029 H   0  0  0  0  0  0  0  0  0  0  0  0
   -6.7810   25.1465  -30.0648 H   0  0  0  0  0  0  0  0  0  0  0  0
   -8.2142   24.0636  -30.0648 H   0  0  0  0  0  0  0  0  0  0  0  0
   -4.8290   25.1206  -29.5852 H   0  0  0  0  0  0  0  0  0  0  0  0
   -1.2778   26.3313  -27.6528 H   0  0  0  0  0  0  0  0  0  0  0  0
   -2.9534   25.7418  -27.3360 H   0  0  0  0  0  0  0  0  0  0  0  0
   -2.0234   24.0467  -26.1920 H   0  0  0  0  0  0  0  0  0  0  0  0
   -1.4499   23.4390  -27.8401 H   0  0  0  0  0  0  0  0  0  0  0  0
    1.5042   22.8141  -26.9193 H   0  0  0  0  0  0  0  0  0  0  0  0
    0.2151   22.8439  -28.1699 H   0  0  0  0  0  0  0  0  0  0  0  0
    1.4958   24.1035  -28.1699 H   0  0  0  0  0  0  0  0  0  0  0  0
    1.6590   25.6546  -26.4880 H   0  0  0  0  0  0  0  0  0  0  0  0
    0.3500   26.1232  -27.6713 H   0  0  0  0  0  0  0  0  0  0  0  0
    0.4570   27.6063  -25.6610 H   0  0  0  0  0  0  0  0  0  0  0  0
   -1.1294   26.7353  -25.8878 H   0  0  0  0  0  0  0  0  0  0  0  0
    1.3782   26.1886  -22.6212 H   0  0  0  0  0  0  0  0  0  0  0  0
    1.9827   25.3278  -24.0773 H   0  0  0  0  0  0  0  0  0  0  0  0
    1.8665   27.1203  -24.0773 H   0  0  0  0  0  0  0  0  0  0  0  0
   -0.6270   26.7168  -22.3174 H   0  0  0  0  0  0  0  0  0  0  0  0
   -0.6609   27.9979  -23.5761 H   0  0  0  0  0  0  0  0  0  0  0  0
   -1.9085   26.7055  -23.5761 H   0  0  0  0  0  0  0  0  0  0  0  0
   -0.2513   24.2822  -23.1982 H   0  0  0  0  0  0  0  0  0  0  0  0
   -1.5639   24.7242  -24.3878 H   0  0  0  0  0  0  0  0  0  0  0  0
    1.2229   23.6650  -25.0313 H   0  0  0  0  0  0  0  0  0  0  0  0
   -0.3861   22.8242  -25.2338 H   0  0  0  0  0  0  0  0  0  0  0  0
   -1.0892   23.0081  -30.0017 H   0  0  0  0  0  0  0  0  0  0  0  0
   -2.2781   21.0846  -31.0198 H   0  0  0  0  0  0  0  0  0  0  0  0
  1  2  1  0
  2  3  1  0
  3  4  1  0
  4  5  1  0
  3  6  1  0
  6  7  1  0
  7  8  1  0
  8  9  1  0
  9 10  1  0
 10 11  2  0
 11 12  1  0
 12 13  2  0
 13 14  1  0
 14 15  2  0
 15 16  1  0
 16 17  2  0
 17 18  1  0
 17 19  1  0
 19 20  2  0
 20 21  1  0
 21 22  1  0
 22 23  1  0
 23 24  1  0
 24 25  1  0
 25 26  1  0
 25 27  1  0
 27 28  1  0
 28 29  1  0
 29 30  1  0
 29 31  1  0
 29 32  1  0
 32 33  1  0
 21 34  2  0
 34 35  1  0
 35 36  2  0
 36 10  1  0
 16 11  1  0
 36 19  1  0
 33 25  1  0
  1 37  1  0
  1 38  1  0
  1 39  1  0
  2 40  1  0
  2 41  1  0
  4 42  1  0
  4 43  1  0
  5 44  1  0
  5 45  1  0
  5 46  1  0
  6 47  1  0
  6 48  1  0
  7 49  1  0
  7 50  1  0
  8 51  1  0
  8 52  1  0
  9 53  1  0
 12 54  1  0
 13 55  1  0
 14 56  1  0
 15 57  1  0
 18 58  1  0
 18 59  1  0
 18 60  1  0
 20 61  1  0
 23 62  1  0
 23 63  1  0
 24 64  1  0
 24 65  1  0
 26 66  1  0
 26 67  1  0
 26 68  1  0
 27 69  1  0
 27 70  1  0
 28 71  1  0
 28 72  1  0
 30 73  1  0
 30 74  1  0
 30 75  1  0
 31 76  1  0
 31 77  1  0
 31 78  1  0
 32 79  1  0
 32 80  1  0
 33 81  1  0
 33 82  1  0
 34 83  1  0
 35 84  1  0
M  CHG  3  17   1  25   1  29   1
M  END
>  <UniqueID>  (7) 
7

>  <SMILES>  (7) 
CCN(CC)CCCNc1c2ccccc2[n+](C)c2cc(OCC[N+]3(C)CC[N+](C)(C)CC3)ccc12

>  <Energy>  (7) 
137.60712783042547

>  <Genealogy>  (7) 
CCN(CC)CCCNc1c2ccccc2[n+](C)c2cc(OCC[N+]3(C)CC[N+](C)(C)CC3)ccc12 (3D coordinates assigned)
CCN(CC)CCCNc1c2ccccc2[n+](C)c2cc(OCC[N+]3(C)CC[N+](C)(C)CC3)ccc12 (nonaromatic ring conformer: 137.60712783042547 kcal/mol)

>  <smiles>  (7) 
CCN(CC)CCCNc1c2ccccc2[n+](C)c2cc(OCC[N+]3(C)CC[N+](C)(C)CC3)ccc12

>  <score_type>  (7) 
oracle

>  <origin>  (7) 
adg

>  <m_score__min__energy>  (7) 
-7.7599999999999998

>  <m_primary>  (7) 
energy

$$$$
7:0
     RDKit          3D

 66 69  0  0  0  0  0  0  0  0999 V2000
   -6.4230   25.0250  -29.6920 C   0  0  0  0  0  0  0  0  0  0  0  0
   -5.4350   25.8870  -30.4630 C   0  0  0  0  0  0  0  0  0  0  0  0
   -4.3370   25.0900  -30.8550 O   0  0  0  0  0  0  0  0  0  0  0  0
   -3.9890   24.2150  -29.8060 C   0  0  0  0  0  0  0  0  0  0  0  0
   -3.8740   22.7890  -30.3460 C   0  0  0  0  0  0  0  0  0  0  0  0
   -4.5550   22.6460  -31.6360 N   0  0  0  0  0  0  0  0  0  0  0  0
   -5.2310   21.4330  -32.0130 C   0  0  0  0  0  0  0  0  0  0  0  0
   -6.6290   21.3300  -31.9000 C   0  0  0  0  0  0  0  0  0  0  0  0
   -7.3800   22.3470  -31.2740 C   0  0  0  0  0  0  0  0  0  0  0  0
   -8.7700   22.2820  -31.2320 C   0  0  0  0  0  0  0  0  0  0  0  0
   -9.4330   21.2090  -31.8140 C   0  0  0  0  0  0  0  0  0  0  0  0
   -8.7090   20.1690  -32.3960 C   0  0  0  0  0  0  0  0  0  0  0  0
   -7.2910   20.1790  -32.4070 C   0  0  0  0  0  0  0  0  0  0  0  0
   -6.5570   19.1180  -32.9060 N   0  0  0  0  0  0  0  0  0  0  0  0
   -7.2240   17.8250  -33.1810 C   0  0  0  0  0  0  0  0  0  0  0  0
   -5.1960   19.2490  -33.1060 C   0  0  0  0  0  0  0  0  0  0  0  0
   -4.4530   18.2910  -33.8440 C   0  0  0  0  0  0  0  0  0  0  0  0
   -3.0710   18.4060  -34.0110 C   0  0  0  0  0  0  0  0  0  0  0  0
   -2.4130   17.4330  -34.7840 O   0  0  0  0  0  0  0  0  0  0  0  0
   -1.2200   16.7440  -34.4100 C   0  0  0  0  0  0  0  0  0  0  0  0
   -1.5230   15.7380  -33.2840 C   0  0  0  0  0  0  0  0  0  0  0  0
   -2.4810   14.6270  -33.6130 N   0  0  0  0  0  0  0  0  0  0  0  0
   -2.1720   14.2540  -35.0230 C   0  0  0  0  0  0  0  0  0  0  0  0
   -2.2330   13.4050  -32.7720 C   0  0  0  0  0  0  0  0  0  0  0  0
   -3.1340   13.2740  -31.5300 C   0  0  0  0  0  0  0  0  0  0  0  0
   -4.4830   13.5040  -31.8530 O   0  0  0  0  0  0  0  0  0  0  0  0
   -4.6220   14.8450  -32.2470 C   0  0  0  0  0  0  0  0  0  0  0  0
   -3.9090   15.0860  -33.5850 C   0  0  0  0  0  0  0  0  0  0  0  0
   -2.3950   19.4760  -33.4110 C   0  0  0  0  0  0  0  0  0  0  0  0
   -3.1040   20.4510  -32.7180 C   0  0  0  0  0  0  0  0  0  0  0  0
   -4.5060   20.3810  -32.5990 C   0  0  0  0  0  0  0  0  0  0  0  0
   -6.2651   25.1628  -28.6122 H   0  0  0  0  0  0  0  0  0  0  0  0
   -7.4497   25.3212  -29.9531 H   0  0  0  0  0  0  0  0  0  0  0  0
   -6.2688   23.9676  -29.9531 H   0  0  0  0  0  0  0  0  0  0  0  0
   -5.9262   26.3025  -31.3552 H   0  0  0  0  0  0  0  0  0  0  0  0
   -5.0859   26.7126  -29.8254 H   0  0  0  0  0  0  0  0  0  0  0  0
   -3.0242   24.5231  -29.3768 H   0  0  0  0  0  0  0  0  0  0  0  0
   -4.7655   24.2499  -29.0276 H   0  0  0  0  0  0  0  0  0  0  0  0
   -2.8102   22.5401  -30.4740 H   0  0  0  0  0  0  0  0  0  0  0  0
   -4.3520   22.1081  -29.6263 H   0  0  0  0  0  0  0  0  0  0  0  0
   -4.6370   23.4810  -32.2580 H   0  0  0  0  0  0  0  0  0  0  0  0
   -6.8614   23.2010  -30.8139 H   0  0  0  0  0  0  0  0  0  0  0  0
   -9.3433   23.0803  -30.7380 H   0  0  0  0  0  0  0  0  0  0  0  0
  -10.5326   21.1796  -31.8158 H   0  0  0  0  0  0  0  0  0  0  0  0
   -9.2471   19.3263  -32.8545 H   0  0  0  0  0  0  0  0  0  0  0  0
   -7.4775   17.3336  -32.2301 H   0  0  0  0  0  0  0  0  0  0  0  0
   -8.1432   18.0022  -33.7586 H   0  0  0  0  0  0  0  0  0  0  0  0
   -6.5468   17.1786  -33.7586 H   0  0  0  0  0  0  0  0  0  0  0  0
   -4.9786   17.4367  -34.2957 H   0  0  0  0  0  0  0  0  0  0  0  0
   -0.8220   16.2051  -35.2824 H   0  0  0  0  0  0  0  0  0  0  0  0
   -0.4790   17.4739  -34.0520 H   0  0  0  0  0  0  0  0  0  0  0  0
   -0.5703   15.2785  -32.9819 H   0  0  0  0  0  0  0  0  0  0  0  0
   -2.0191   16.3248  -32.4969 H   0  0  0  0  0  0  0  0  0  0  0  0
   -1.4703   13.4069  -35.0328 H   0  0  0  0  0  0  0  0  0  0  0  0
   -3.1005   13.9670  -35.5382 H   0  0  0  0  0  0  0  0  0  0  0  0
   -1.7172   15.1129  -35.5382 H   0  0  0  0  0  0  0  0  0  0  0  0
   -2.3919   12.5185  -33.4035 H   0  0  0  0  0  0  0  0  0  0  0  0
   -1.2033   13.4954  -32.3958 H   0  0  0  0  0  0  0  0  0  0  0  0
   -3.0318   12.2591  -31.1182 H   0  0  0  0  0  0  0  0  0  0  0  0
   -2.8199   14.0262  -30.7914 H   0  0  0  0  0  0  0  0  0  0  0  0
   -5.6906   15.0813  -32.3579 H   0  0  0  0  0  0  0  0  0  0  0  0
   -4.1698   15.4911  -31.4801 H   0  0  0  0  0  0  0  0  0  0  0  0
   -4.4596   14.5482  -34.3709 H   0  0  0  0  0  0  0  0  0  0  0  0
   -3.8940   16.1744  -33.7433 H   0  0  0  0  0  0  0  0  0  0  0  0
   -1.2999   19.5452  -33.4882 H   0  0  0  0  0  0  0  0  0  0  0  0
   -2.5621   21.2894  -32.2559 H   0  0  0  0  0  0  0  0  0  0  0  0
  1  2  1  0
  2  3  1  0
  3  4  1  0
  4  5  1  0
  5  6  1  0
  6  7  1  0
  7  8  2  0
  8  9  1  0
  9 10  2  0
 10 11  1  0
 11 12  2  0
 12 13  1  0
 13 14  2  0
 14 15  1  0
 14 16  1  0
 16 17  2  0
 17 18  1  0
 18 19  1  0
 19 20  1  0
 20 21  1  0
 21 22  1  0
 22 23  1  0
 22 24  1  0
 24 25  1  0
 25 26  1  0
 26 27  1  0
 27 28  1  0
 18 29  2  0
 29 30  1  0
 30 31  2  0
 31  7  1  0
 13  8  1  0
 31 16  1  0
 28 22  1  0
  1 32  1  0
  1 33  1  0
  1 34  1  0
  2 35  1  0
  2 36  1  0
  4 37  1  0
  4 38  1  0
  5 39  1  0
  5 40  1  0
  6 41  1  0
  9 42  1  0
 10 43  1  0
 11 44  1  0
 12 45  1  0
 15 46  1  0
 15 47  1  0
 15 48  1  0
 17 49  1  0
 20 50  1  0
 20 51  1  0
 21 52  1  0
 21 53  1  0
 23 54  1  0
 23 55  1  0
 23 56  1  0
 24 57  1  0
 24 58  1  0
 25 59  1  0
 25 60  1  0
 27 61  1  0
 27 62  1  0
 28 63  1  0
 28 64  1  0
 29 65  1  0
 30 66  1  0
M  CHG  2  14   1  22   1
M  END
>  <UniqueID>  (8) 
8

>  <SMILES>  (8) 
CCOCCNc1c2ccccc2[n+](C)c2cc(OCC[N+]3(C)CCOCC3)ccc12

>  <Energy>  (8) 
107.56952891984125

>  <Genealogy>  (8) 
CCOCCNc1c2ccccc2[n+](C)c2cc(OCC[N+]3(C)CCOCC3)ccc12 (3D coordinates assigned)
CCOCCNc1c2ccccc2[n+](C)c2cc(OCC[N+]3(C)CCOCC3)ccc12 (nonaromatic ring conformer: 107.56952891984125 kcal/mol)

>  <smiles>  (8) 
CCOCCNc1c2ccccc2[n+](C)c2cc(OCC[N+]3(C)CCOCC3)ccc12

>  <score_type>  (8) 
oracle

>  <origin>  (8) 
adg

>  <m_score__min__energy>  (8) 
-8.5399999999999991

>  <m_primary>  (8) 
energy

$$$$
8:0
     RDKit          3D

 62 64  0  0  0  0  0  0  0  0999 V2000
   -1.9180   20.4160  -30.3510 C   0  0  0  0  0  0  0  0  0  0  0  0
   -3.1640   21.0850  -29.7470 C   0  0  0  0  0  0  0  0  0  0  0  0
   -3.0190   22.5450  -29.4940 N   0  0  0  0  0  0  0  0  0  0  0  0
   -1.6720   23.0670  -29.8630 C   0  0  0  0  0  0  0  0  0  0  0  0
   -1.0450   23.9380  -28.7650 C   0  0  0  0  0  0  0  0  0  0  0  0
   -3.3550   22.8810  -28.0800 C   0  0  0  0  0  0  0  0  0  0  0  0
   -4.1880   24.1740  -27.9380 C   0  0  0  0  0  0  0  0  0  0  0  0
   -4.3730   24.8260  -29.1830 O   0  0  0  0  0  0  0  0  0  0  0  0
   -5.7430   24.8860  -29.5470 C   0  0  0  0  0  0  0  0  0  0  0  0
   -5.8990   24.7040  -31.0530 C   0  0  0  0  0  0  0  0  0  0  0  0
   -4.9030   23.8270  -31.5270 O   0  0  0  0  0  0  0  0  0  0  0  0
   -5.4450   23.1230  -32.5590 N   0  0  0  0  0  0  0  0  0  0  0  0
   -5.6090   21.6920  -32.4980 C   0  0  0  0  0  0  0  0  0  0  0  0
   -6.8220   21.1510  -32.0350 C   0  0  0  0  0  0  0  0  0  0  0  0
   -6.9890   19.7560  -31.9720 C   0  0  0  0  0  0  0  0  0  0  0  0
   -5.9350   18.9110  -32.2440 N   0  0  0  0  0  0  0  0  0  0  0  0
   -6.0380   17.4760  -31.8980 C   0  0  0  0  0  0  0  0  0  0  0  0
   -4.7830   19.4110  -32.8230 C   0  0  0  0  0  0  0  0  0  0  0  0
   -3.7740   18.5540  -33.3320 C   0  0  0  0  0  0  0  0  0  0  0  0
   -2.5820   19.0670  -33.8400 C   0  0  0  0  0  0  0  0  0  0  0  0
   -2.3650   20.4390  -33.8600 C   0  0  0  0  0  0  0  0  0  0  0  0
   -3.3530   21.3120  -33.4050 C   0  0  0  0  0  0  0  0  0  0  0  0
   -4.5850   20.8180  -32.9220 C   0  0  0  0  0  0  0  0  0  0  0  0
   -8.3630   19.2440  -31.5670 C   0  0  0  0  0  0  0  0  0  0  0  0
   -9.4730   20.0500  -32.2550 C   0  0  0  0  0  0  0  0  0  0  0  0
   -9.3110   21.5770  -32.1210 C   0  0  0  0  0  0  0  0  0  0  0  0
   -7.9610   22.0230  -31.5440 C   0  0  0  0  0  0  0  0  0  0  0  0
   -1.2620   20.0638  -29.5413 H   0  0  0  0  0  0  0  0  0  0  0  0
   -2.2252   19.5615  -30.9719 H   0  0  0  0  0  0  0  0  0  0  0  0
   -1.3755   21.1441  -30.9719 H   0  0  0  0  0  0  0  0  0  0  0  0
   -4.0038   20.9384  -30.4422 H   0  0  0  0  0  0  0  0  0  0  0  0
   -3.3292   20.6125  -28.7675 H   0  0  0  0  0  0  0  0  0  0  0  0
   -3.7180   23.0140  -30.1220 H   0  0  0  0  0  0  0  0  0  0  0  0
   -1.0060   22.2131  -30.0562 H   0  0  0  0  0  0  0  0  0  0  0  0
   -1.7970   23.6999  -30.7539 H   0  0  0  0  0  0  0  0  0  0  0  0
   -1.3286   23.5441  -27.7779 H   0  0  0  0  0  0  0  0  0  0  0  0
    0.0503   23.9222  -28.8652 H   0  0  0  0  0  0  0  0  0  0  0  0
   -1.4075   24.9717  -28.8652 H   0  0  0  0  0  0  0  0  0  0  0  0
   -3.9296   22.0471  -27.6506 H   0  0  0  0  0  0  0  0  0  0  0  0
   -2.4049   23.0471  -27.5511 H   0  0  0  0  0  0  0  0  0  0  0  0
   -5.1733   23.9177  -27.5215 H   0  0  0  0  0  0  0  0  0  0  0  0
   -3.6411   24.8592  -27.2736 H   0  0  0  0  0  0  0  0  0  0  0  0
   -6.2921   24.0877  -29.0262 H   0  0  0  0  0  0  0  0  0  0  0  0
   -6.1463   25.8688  -29.2617 H   0  0  0  0  0  0  0  0  0  0  0  0
   -6.8917   24.2829  -31.2703 H   0  0  0  0  0  0  0  0  0  0  0  0
   -5.7963   25.6788  -31.5522 H   0  0  0  0  0  0  0  0  0  0  0  0
   -5.7140   23.6390  -33.4290 H   0  0  0  0  0  0  0  0  0  0  0  0
   -6.0462   17.3623  -30.8039 H   0  0  0  0  0  0  0  0  0  0  0  0
   -6.9680   17.0638  -32.3164 H   0  0  0  0  0  0  0  0  0  0  0  0
   -5.1764   16.9352  -32.3164 H   0  0  0  0  0  0  0  0  0  0  0  0
   -3.9351   17.4659  -33.3257 H   0  0  0  0  0  0  0  0  0  0  0  0
   -1.8111   18.3839  -34.2261 H   0  0  0  0  0  0  0  0  0  0  0  0
   -1.4113   20.8380  -34.2358 H   0  0  0  0  0  0  0  0  0  0  0  0
   -3.1709   22.3967  -33.4225 H   0  0  0  0  0  0  0  0  0  0  0  0
   -8.4531   18.1868  -31.8570 H   0  0  0  0  0  0  0  0  0  0  0  0
   -8.4721   19.3546  -30.4780 H   0  0  0  0  0  0  0  0  0  0  0  0
   -9.4742   19.7944  -33.3249 H   0  0  0  0  0  0  0  0  0  0  0  0
  -10.4166   19.7841  -31.7561 H   0  0  0  0  0  0  0  0  0  0  0  0
   -9.4227   22.0238  -33.1200 H   0  0  0  0  0  0  0  0  0  0  0  0
  -10.0819   21.9135  -31.4121 H   0  0  0  0  0  0  0  0  0  0  0  0
   -7.7699   23.0627  -31.8483 H   0  0  0  0  0  0  0  0  0  0  0  0
   -8.0116   21.9340  -30.4488 H   0  0  0  0  0  0  0  0  0  0  0  0
  1  2  1  0
  2  3  1  0
  3  4  1  0
  4  5  1  0
  3  6  1  0
  6  7  1  0
  7  8  1  0
  8  9  1  0
  9 10  1  0
 10 11  1  0
 11 12  1  0
 12 13  1  0
 13 14  2  0
 14 15  1  0
 15 16  2  0
 16 17  1  0
 16 18  1  0
 18 19  2  0
 19 20  1  0
 20 21  2  0
 21 22  1  0
 22 23  2  0
 15 24  1  0
 24 25  1  0
 25 26  1  0
 26 27  1  0
 23 13  1  0
 27 14  1  0
 23 18  1  0
  1 28  1  0
  1 29  1  0
  1 30  1  0
  2 31  1  0
  2 32  1  0
  3 33  1  0
  4 34  1  0
  4 35  1  0
  5 36  1  0
  5 37  1  0
  5 38  1  0
  6 39  1  0
  6 40  1  0
  7 41  1  0
  7 42  1  0
  9 43  1  0
  9 44  1  0
 10 45  1  0
 10 46  1  0
 12 47  1  0
 17 48  1  0
 17 49  1  0
 17 50  1  0
 19 51  1  0
 20 52  1  0
 21 53  1  0
 22 54  1  0
 24 55  1  0
 24 56  1  0
 25 57  1  0
 25 58  1  0
 26 59  1  0
 26 60  1  0
 27 61  1  0
 27 62  1  0
M  CHG  2   3   1  16   1
M  END
>  <UniqueID>  (9) 
9

>  <SMILES>  (9) 
CC[NH+](CC)CCOCCONc1c2c([n+](C)c3ccccc13)CCCC2

>  <Energy>  (9) 
91.98273271373374

>  <Genealogy>  (9) 
CC[NH+](CC)CCOCCONc1c2c([n+](C)c3ccccc13)CCCC2 (protonated)
CC[NH+](CC)CCOCCONc1c2c([n+](C)c3ccccc13)CCCC2 (3D coordinates assigned)
CC[NH+](CC)CCOCCONc1c2c([n+](C)c3ccccc13)CCCC2 (nonaromatic ring conformer: 91.98273271373374 kcal/mol)

>  <smiles>  (9) 
CCN(CC)CCOCCONc1c2c([n+](C)c3ccccc13)CCCC2

>  <score_type>  (9) 
oracle

>  <origin>  (9) 
adg

>  <m_score__min__energy>  (9) 
-7.1100000000000003

>  <m_primary>  (9) 
energy

$$$$
9:0
     RDKit          3D

 37 38  0  0  0  0  0  0  0  0999 V2000
   -3.8940   22.6750  -30.5430 C   0  0  0  0  0  0  0  0  0  0  0  0
   -4.2750   24.1510  -30.4610 C   0  0  0  0  0  0  0  0  0  0  0  0
   -5.5260   24.3510  -29.5950 C   0  0  0  0  0  0  0  0  0  0  0  0
   -6.7410   23.5950  -30.1440 C   0  0  0  0  0  0  0  0  0  0  0  0
   -6.9530   23.8110  -31.9500 S   0  0  0  0  0  0  0  0  0  0  0  0
   -6.8880   22.0540  -32.3320 C   0  0  0  0  0  0  0  0  0  0  0  0
   -5.8890   21.5090  -33.0630 N   0  0  0  0  0  0  0  0  0  0  0  0
   -6.1970   20.2070  -33.1050 C   0  0  0  0  0  0  0  0  0  0  0  0
   -5.4830   19.2360  -33.7220 N   0  0  0  0  0  0  0  0  0  0  0  0
   -5.9310   17.9470  -33.6730 C   0  0  0  0  0  0  0  0  0  0  0  0
   -5.1510   16.8660  -34.3490 C   0  0  0  0  0  0  0  0  0  0  0  0
   -7.1240   17.6340  -32.9790 C   0  0  0  0  0  0  0  0  0  0  0  0
   -7.8640   18.6490  -32.3310 C   0  0  0  0  0  0  0  0  0  0  0  0
   -9.1250   18.2990  -31.5950 C   0  0  0  0  0  0  0  0  0  0  0  0
   -7.3560   19.9600  -32.4250 C   0  0  0  0  0  0  0  0  0  0  0  0
   -7.8160   21.1380  -31.9330 N   0  0  0  0  0  0  0  0  0  0  0  0
   -9.0330   21.3980  -31.1630 C   0  0  0  0  0  0  0  0  0  0  0  0
   -3.7886   22.2665  -29.5271 H   0  0  0  0  0  0  0  0  0  0  0  0
   -4.6791   22.1230  -31.0805 H   0  0  0  0  0  0  0  0  0  0  0  0
   -2.9398   22.5719  -31.0805 H   0  0  0  0  0  0  0  0  0  0  0  0
   -3.4391   24.7139  -30.0202 H   0  0  0  0  0  0  0  0  0  0  0  0
   -4.4916   24.5130  -31.4769 H   0  0  0  0  0  0  0  0  0  0  0  0
   -5.3139   23.9888  -28.5782 H   0  0  0  0  0  0  0  0  0  0  0  0
   -5.7684   25.4239  -29.5970 H   0  0  0  0  0  0  0  0  0  0  0  0
   -6.6143   22.5234  -29.9305 H   0  0  0  0  0  0  0  0  0  0  0  0
   -7.6361   24.0052  -29.6536 H   0  0  0  0  0  0  0  0  0  0  0  0
   -5.0640   21.9890  -33.4850 H   0  0  0  0  0  0  0  0  0  0  0  0
   -4.6852   16.2204  -33.5899 H   0  0  0  0  0  0  0  0  0  0  0  0
   -5.8252   16.2655  -34.9773 H   0  0  0  0  0  0  0  0  0  0  0  0
   -4.3685   17.3165  -34.9773 H   0  0  0  0  0  0  0  0  0  0  0  0
   -7.4780   16.5931  -32.9436 H   0  0  0  0  0  0  0  0  0  0  0  0
   -8.9431   18.3495  -30.5113 H   0  0  0  0  0  0  0  0  0  0  0  0
   -9.9181   19.0110  -31.8672 H   0  0  0  0  0  0  0  0  0  0  0  0
   -9.4377   17.2801  -31.8672 H   0  0  0  0  0  0  0  0  0  0  0  0
   -8.8043   21.3491  -30.0882 H   0  0  0  0  0  0  0  0  0  0  0  0
   -9.4171   22.3985  -31.4110 H   0  0  0  0  0  0  0  0  0  0  0  0
   -9.7924   20.6418  -31.4110 H   0  0  0  0  0  0  0  0  0  0  0  0
  1  2  1  0
  2  3  1  0
  3  4  1  0
  4  5  1  0
  5  6  1  0
  6  7  2  0
  7  8  1  0
  8  9  2  0
  9 10  1  0
 10 11  1  0
 10 12  2  0
 12 13  1  0
 13 14  1  0
 13 15  2  0
 15 16  1  0
 16 17  1  0
 16  6  1  0
 15  8  1  0
  1 18  1  0
  1 19  1  0
  1 20  1  0
  2 21  1  0
  2 22  1  0
  3 23  1  0
  3 24  1  0
  4 25  1  0
  4 26  1  0
  7 27  1  0
 11 28  1  0
 11 29  1  0
 11 30  1  0
 12 31  1  0
 14 32  1  0
 14 33  1  0
 14 34  1  0
 17 35  1  0
 17 36  1  0
 17 37  1  0
M  CHG  1   7   1
M  END
>  <UniqueID>  (10) 
10

>  <SMILES>  (10) 
CCCCSc1[nH+]c2nc(C)cc(C)c2n1C

>  <Energy>  (10) 
67.209121873311

>  <Genealogy>  (10) 
CCCCSc1[nH+]c2nc(C)cc(C)c2n1C (protonated)
CCCCSc1[nH+]c2nc(C)cc(C)c2n1C (3D coordinates assigned)
CCCCSc1[nH+]c2nc(C)cc(C)c2n1C (optimized conformer: 67.209121873311 kcal/mol)

>  <smiles>  (10) 
CCCCSc1nc2nc(C)cc(C)c2n1C

>  <score_type>  (10) 
oracle

>  <origin>  (10) 
adg

>  <m_score__min__energy>  (10) 
-6.6299999999999999

>  <m_primary>  (10) 
energy

$$$$
10:0
     RDKit          3D

 56 58  0  0  0  0  0  0  0  0999 V2000
   -6.2830   25.2970  -29.7460 C   0  0  0  0  0  0  0  0  0  0  0  0
   -5.2810   25.6410  -30.8430 C   0  0  0  0  0  0  0  0  0  0  0  0
   -3.9370   25.2220  -30.4470 N   0  0  0  0  0  0  0  0  0  0  0  0
   -4.0140   24.2170  -29.3790 C   0  0  0  0  0  0  0  0  0  0  0  0
   -3.3000   22.9290  -29.7950 C   0  0  0  0  0  0  0  0  0  0  0  0
   -2.5190   23.1720  -30.9500 O   0  0  0  0  0  0  0  0  0  0  0  0
   -1.4400   22.2680  -31.0650 C   0  0  0  0  0  0  0  0  0  0  0  0
   -1.7910   21.1050  -32.0090 C   0  0  0  0  0  0  0  0  0  0  0  0
   -2.6710   21.5400  -33.1110 N   0  0  0  0  0  0  0  0  0  0  0  0
   -3.8410   20.6710  -33.1920 C   0  0  0  0  0  0  0  0  0  0  0  0
   -3.7270   19.2950  -33.5360 C   0  0  0  0  0  0  0  0  0  0  0  0
   -2.5970   18.7710  -34.2180 C   0  0  0  0  0  0  0  0  0  0  0  0
   -2.5240   17.4240  -34.5640 C   0  0  0  0  0  0  0  0  0  0  0  0
   -3.5740   16.5700  -34.2650 C   0  0  0  0  0  0  0  0  0  0  0  0
   -4.7050   17.0540  -33.6160 C   0  0  0  0  0  0  0  0  0  0  0  0
   -4.8000   18.4110  -33.2210 C   0  0  0  0  0  0  0  0  0  0  0  0
   -5.9190   18.8810  -32.5630 N   0  0  0  0  0  0  0  0  0  0  0  0
   -6.8340   17.9380  -31.8860 C   0  0  0  0  0  0  0  0  0  0  0  0
   -6.1600   20.2370  -32.5010 C   0  0  0  0  0  0  0  0  0  0  0  0
   -7.4330   20.7400  -32.1260 C   0  0  0  0  0  0  0  0  0  0  0  0
   -7.6690   22.1180  -32.0090 C   0  0  0  0  0  0  0  0  0  0  0  0
   -8.9500   22.6370  -31.6020 N   0  0  0  0  0  0  0  0  0  0  0  0
   -9.9050   21.8760  -30.7970 C   0  0  0  0  0  0  0  0  0  0  0  0
   -6.6380   23.0080  -32.3010 C   0  0  0  0  0  0  0  0  0  0  0  0
   -5.3870   22.5440  -32.6990 C   0  0  0  0  0  0  0  0  0  0  0  0
   -5.1220   21.1580  -32.8050 C   0  0  0  0  0  0  0  0  0  0  0  0
   -5.8183   25.4565  -28.7618 H   0  0  0  0  0  0  0  0  0  0  0  0
   -7.1683   25.9427  -29.8425 H   0  0  0  0  0  0  0  0  0  0  0  0
   -6.5851   24.2437  -29.8425 H   0  0  0  0  0  0  0  0  0  0  0  0
   -5.5650   25.1224  -31.7706 H   0  0  0  0  0  0  0  0  0  0  0  0
   -5.2852   26.7289  -31.0055 H   0  0  0  0  0  0  0  0  0  0  0  0
   -3.4890   24.7770  -31.2780 H   0  0  0  0  0  0  0  0  0  0  0  0
   -3.5375   24.6170  -28.4718 H   0  0  0  0  0  0  0  0  0  0  0  0
   -5.0722   23.9877  -29.1852 H   0  0  0  0  0  0  0  0  0  0  0  0
   -2.6478   22.5910  -28.9763 H   0  0  0  0  0  0  0  0  0  0  0  0
   -4.0466   22.1517  -30.0152 H   0  0  0  0  0  0  0  0  0  0  0  0
   -0.5645   22.8021  -31.4628 H   0  0  0  0  0  0  0  0  0  0  0  0
   -1.2213   21.8560  -30.0688 H   0  0  0  0  0  0  0  0  0  0  0  0
   -0.8615   20.6990  -32.4347 H   0  0  0  0  0  0  0  0  0  0  0  0
   -2.3257   20.3408  -31.4258 H   0  0  0  0  0  0  0  0  0  0  0  0
   -2.1050   21.5450  -33.9830 H   0  0  0  0  0  0  0  0  0  0  0  0
   -2.9630   22.5330  -32.9770 H   0  0  0  0  0  0  0  0  0  0  0  0
   -1.7643   19.4412  -34.4777 H   0  0  0  0  0  0  0  0  0  0  0  0
   -1.6307   17.0368  -35.0759 H   0  0  0  0  0  0  0  0  0  0  0  0
   -3.5127   15.5071  -34.5416 H   0  0  0  0  0  0  0  0  0  0  0  0
   -5.5409   16.3706  -33.4057 H   0  0  0  0  0  0  0  0  0  0  0  0
   -6.7302   18.0450  -30.7961 H   0  0  0  0  0  0  0  0  0  0  0  0
   -7.8710   18.1591  -32.1790 H   0  0  0  0  0  0  0  0  0  0  0  0
   -6.5818   16.9082  -32.1790 H   0  0  0  0  0  0  0  0  0  0  0  0
   -8.2521   20.0344  -31.9228 H   0  0  0  0  0  0  0  0  0  0  0  0
   -9.1680   23.6430  -31.7920 H   0  0  0  0  0  0  0  0  0  0  0  0
   -9.6980   22.0409  -29.7293 H   0  0  0  0  0  0  0  0  0  0  0  0
  -10.9273   22.2098  -31.0281 H   0  0  0  0  0  0  0  0  0  0  0  0
   -9.8079   20.8049  -31.0281 H   0  0  0  0  0  0  0  0  0  0  0  0
   -6.8143   24.0905  -32.2161 H   0  0  0  0  0  0  0  0  0  0  0  0
   -4.5918   23.2665  -32.9349 H   0  0  0  0  0  0  0  0  0  0  0  0
  1  2  1  0
  2  3  1  0
  3  4  1  0
  4  5  1  0
  5  6  1  0
  6  7  1  0
  7  8  1  0
  8  9  1  0
  9 10  1  0
 10 11  2  0
 11 12  1  0
 12 13  2  0
 13 14  1  0
 14 15  2  0
 15 16  1  0
 16 17  2  0
 17 18  1  0
 17 19  1  0
 19 20  2  0
 20 21  1  0
 21 22  1  0
 22 23  1  0
 21 24  2  0
 24 25  1  0
 25 26  2  0
 26 10  1  0
 16 11  1  0
 26 19  1  0
  1 27  1  0
  1 28  1  0
  1 29  1  0
  2 30  1  0
  2 31  1  0
  3 32  1  0
  4 33  1  0
  4 34  1  0
  5 35  1  0
  5 36  1  0
  7 37  1  0
  7 38  1  0
  8 39  1  0
  8 40  1  0
  9 41  1  0
  9 42  1  0
 12 43  1  0
 13 44  1  0
 14 45  1  0
 15 46  1  0
 18 47  1  0
 18 48  1  0
 18 49  1  0
 20 50  1  0
 22 51  1  0
 23 52  1  0
 23 53  1  0
 23 54  1  0
 24 55  1  0
 25 56  1  0
M  CHG  2   9   1  17   1
M  END
>  <UniqueID>  (11) 
11

>  <SMILES>  (11) 
CCNCCOCC[NH2+]c1c2ccccc2[n+](C)c2cc(NC)ccc12

>  <Energy>  (11) 
85.70415882157114

>  <Genealogy>  (11) 
CCNCCOCC[NH2+]c1c2ccccc2[n+](C)c2cc(NC)ccc12 (protonated)
CCNCCOCC[NH2+]c1c2ccccc2[n+](C)c2cc(NC)ccc12 (3D coordinates assigned)
CCNCCOCC[NH2+]c1c2ccccc2[n+](C)c2cc(NC)ccc12 (optimized conformer: 85.70415882157114 kcal/mol)

>  <smiles>  (11) 
CCNCCOCCNc1c2ccccc2[n+](C)c2cc(NC)ccc12

>  <score_type>  (11) 
oracle

>  <origin>  (11) 
adg

>  <m_score__min__energy>  (11) 
-7.96

>  <m_primary>  (11) 
energy

$$$$
11:0
     RDKit          3D

 57 59  0  0  0  0  0  0  0  0999 V2000
   -3.0350   19.2830  -26.7310 C   0  0  0  0  0  0  0  0  0  0  0  0
   -2.2500   20.3060  -27.4330 N   0  0  0  0  0  0  0  0  0  0  0  0
   -0.9130   19.8080  -27.7920 C   0  0  0  0  0  0  0  0  0  0  0  0
   -2.9760   20.9200  -28.5680 C   0  0  0  0  0  0  0  0  0  0  0  0
   -2.0990   21.7130  -29.5540 C   0  0  0  0  0  0  0  0  0  0  0  0
   -2.6510   22.9950  -29.7750 O   0  0  0  0  0  0  0  0  0  0  0  0
   -3.4580   23.3930  -28.6860 C   0  0  0  0  0  0  0  0  0  0  0  0
   -4.4070   24.5080  -29.1230 C   0  0  0  0  0  0  0  0  0  0  0  0
   -4.2450   24.7760  -30.5020 O   0  0  0  0  0  0  0  0  0  0  0  0
   -5.4970   25.0410  -31.1050 C   0  0  0  0  0  0  0  0  0  0  0  0
   -5.9560   23.8060  -31.8750 C   0  0  0  0  0  0  0  0  0  0  0  0
   -5.1560   22.6370  -31.5070 N   0  0  0  0  0  0  0  0  0  0  0  0
   -5.3490   21.3840  -32.1790 C   0  0  0  0  0  0  0  0  0  0  0  0
   -6.6030   20.7530  -32.1540 C   0  0  0  0  0  0  0  0  0  0  0  0
   -7.6940   21.3410  -31.4780 C   0  0  0  0  0  0  0  0  0  0  0  0
   -8.9220   20.6860  -31.4080 C   0  0  0  0  0  0  0  0  0  0  0  0
   -9.0810   19.4360  -31.9980 C   0  0  0  0  0  0  0  0  0  0  0  0
   -8.0240   18.8480  -32.6900 C   0  0  0  0  0  0  0  0  0  0  0  0
   -6.7740   19.5100  -32.8210 C   0  0  0  0  0  0  0  0  0  0  0  0
   -5.7380   18.9710  -33.5640 N   0  0  0  0  0  0  0  0  0  0  0  0
   -5.9980   17.8380  -34.4840 C   0  0  0  0  0  0  0  0  0  0  0  0
   -4.4690   19.5130  -33.4750 C   0  0  0  0  0  0  0  0  0  0  0  0
   -3.3330   18.8530  -34.0150 C   0  0  0  0  0  0  0  0  0  0  0  0
   -2.0680   19.4390  -33.9680 C   0  0  0  0  0  0  0  0  0  0  0  0
   -1.8960   20.6830  -33.3710 C   0  0  0  0  0  0  0  0  0  0  0  0
   -2.9810   21.3350  -32.7920 C   0  0  0  0  0  0  0  0  0  0  0  0
   -4.2680   20.7550  -32.8160 C   0  0  0  0  0  0  0  0  0  0  0  0
   -2.9292   19.4209  -25.6448 H   0  0  0  0  0  0  0  0  0  0  0  0
   -4.0945   19.3776  -27.0111 H   0  0  0  0  0  0  0  0  0  0  0  0
   -2.6694   18.2840  -27.0111 H   0  0  0  0  0  0  0  0  0  0  0  0
   -0.3426   19.5956  -26.8757 H   0  0  0  0  0  0  0  0  0  0  0  0
   -1.0119   18.8864  -28.3843 H   0  0  0  0  0  0  0  0  0  0  0  0
   -0.3849   20.5697  -28.3843 H   0  0  0  0  0  0  0  0  0  0  0  0
   -3.4756   20.1156  -29.1277 H   0  0  0  0  0  0  0  0  0  0  0  0
   -3.6740   21.6469  -28.1270 H   0  0  0  0  0  0  0  0  0  0  0  0
   -1.0873   21.8201  -29.1356 H   0  0  0  0  0  0  0  0  0  0  0  0
   -2.0541   21.1715  -30.5104 H   0  0  0  0  0  0  0  0  0  0  0  0
   -4.0446   22.5321  -28.3328 H   0  0  0  0  0  0  0  0  0  0  0  0
   -2.8145   23.7623  -27.8739 H   0  0  0  0  0  0  0  0  0  0  0  0
   -5.4448   24.1968  -28.9330 H   0  0  0  0  0  0  0  0  0  0  0  0
   -4.1769   25.4192  -28.5513 H   0  0  0  0  0  0  0  0  0  0  0  0
   -6.2355   25.2848  -30.3271 H   0  0  0  0  0  0  0  0  0  0  0  0
   -5.4013   25.8919  -31.7955 H   0  0  0  0  0  0  0  0  0  0  0  0
   -7.0126   23.6078  -31.6419 H   0  0  0  0  0  0  0  0  0  0  0  0
   -5.8302   23.9947  -32.9514 H   0  0  0  0  0  0  0  0  0  0  0  0
   -4.5900   22.6390  -30.6290 H   0  0  0  0  0  0  0  0  0  0  0  0
   -7.5736   22.3254  -31.0021 H   0  0  0  0  0  0  0  0  0  0  0  0
   -9.7671   21.1580  -30.8854 H   0  0  0  0  0  0  0  0  0  0  0  0
  -10.0440   18.9103  -31.9180 H   0  0  0  0  0  0  0  0  0  0  0  0
   -8.1599   17.8546  -33.1424 H   0  0  0  0  0  0  0  0  0  0  0  0
   -6.2063   16.9305  -33.8983 H   0  0  0  0  0  0  0  0  0  0  0  0
   -6.8657   18.0723  -35.1182 H   0  0  0  0  0  0  0  0  0  0  0  0
   -5.1149   17.6705  -35.1182 H   0  0  0  0  0  0  0  0  0  0  0  0
   -3.4529   17.8626  -34.4783 H   0  0  0  0  0  0  0  0  0  0  0  0
   -1.2044   18.9157  -34.4043 H   0  0  0  0  0  0  0  0  0  0  0  0
   -0.9013   21.1524  -33.3563 H   0  0  0  0  0  0  0  0  0  0  0  0
   -2.8341   22.3130  -32.3104 H   0  0  0  0  0  0  0  0  0  0  0  0
  1  2  1  0
  2  3  1  0
  2  4  1  0
  4  5  1  0
  5  6  1  0
  6  7  1  0
  7  8  1  0
  8  9  1  0
  9 10  1  0
 10 11  1  0
 11 12  1  0
 12 13  1  0
 13 14  2  0
 14 15  1  0
 15 16  2  0
 16 17  1  0
 17 18  2  0
 18 19  1  0
 19 20  2  0
 20 21  1  0
 20 22  1  0
 22 23  2  0
 23 24  1  0
 24 25  2  0
 25 26  1  0
 26 27  2  0
 27 13  1  0
 19 14  1  0
 27 22  1  0
  1 28  1  0
  1 29  1  0
  1 30  1  0
  3 31  1  0
  3 32  1  0
  3 33  1  0
  4 34  1  0
  4 35  1  0
  5 36  1  0
  5 37  1  0
  7 38  1  0
  7 39  1  0
  8 40  1  0
  8 41  1  0
 10 42  1  0
 10 43  1  0
 11 44  1  0
 11 45  1  0
 12 46  1  0
 15 47  1  0
 16 48  1  0
 17 49  1  0
 18 50  1  0
 21 51  1  0
 21 52  1  0
 21 53  1  0
 23 54  1  0
 24 55  1  0
 25 56  1  0
 26 57  1  0
M  CHG  1  20   1
M  END
>  <UniqueID>  (12) 
12

>  <SMILES>  (12) 
CN(C)CCOCCOCCNc1c2ccccc2[n+](C)c2ccccc12

>  <Energy>  (12) 
87.6283796715483

>  <Genealogy>  (12) 
CN(C)CCOCCOCCNc1c2ccccc2[n+](C)c2ccccc12 (3D coordinates assigned)
CN(C)CCOCCOCCNc1c2ccccc2[n+](C)c2ccccc12 (optimized conformer: 87.6283796715483 kcal/mol)

>  <smiles>  (12) 
CN(C)CCOCCOCCNc1c2ccccc2[n+](C)c2ccccc12

>  <score_type>  (12) 
oracle

>  <origin>  (12) 
adg

>  <m_score__min__energy>  (12) 
-9.0600000000000005

>  <m_primary>  (12) 
energy

$$$$
12:0
     RDKit          3D

 47 47  0  0  0  0  0  0  0  0999 V2000
   -3.5390   20.2430  -33.4530 C   0  0  0  0  0  0  0  0  0  0  0  0
   -5.0430   19.9890  -33.5220 C   0  0  0  0  0  0  0  0  0  0  0  0
   -5.4850   18.6700  -32.8490 C   0  0  0  0  0  0  0  0  0  0  0  0
   -6.7230   18.0820  -33.4430 N   0  0  1  0  0  0  0  0  0  0  0  0
   -6.4090   16.8520  -34.2350 C   0  0  0  0  0  0  0  0  0  0  0  0
   -5.4990   15.8800  -33.4730 C   0  0  0  0  0  0  0  0  0  0  0  0
   -7.6950   17.7900  -32.3520 C   0  0  0  0  0  0  0  0  0  0  0  0
   -8.7460   18.8960  -32.1330 C   0  0  0  0  0  0  0  0  0  0  0  0
   -8.5010   20.0490  -33.0130 N   0  0  0  0  0  0  0  0  0  0  0  0
   -8.6190   21.3440  -32.3140 C   0  0  0  0  0  0  0  0  0  0  0  0
   -7.3180   22.1650  -32.3470 C   0  0  0  0  0  0  0  0  0  0  0  0
   -7.2200   23.1590  -31.1820 C   0  0  0  0  0  0  0  0  0  0  0  0
   -5.7880   23.3070  -30.7270 C   0  0  0  0  0  0  0  0  0  0  0  0
   -4.8580   22.3060  -31.0570 C   0  0  0  0  0  0  0  0  0  0  0  0
   -3.5330   22.4000  -30.6260 C   0  0  0  0  0  0  0  0  0  0  0  0
   -3.1220   23.4880  -29.8520 C   0  0  0  0  0  0  0  0  0  0  0  0
   -1.4570   23.6020  -29.3120 Cl  0  0  0  0  0  0  0  0  0  0  0  0
   -4.0410   24.4830  -29.5040 C   0  0  0  0  0  0  0  0  0  0  0  0
   -5.3720   24.3980  -29.9310 C   0  0  0  0  0  0  0  0  0  0  0  0
   -6.4850   25.6710  -29.4400 Cl  0  0  0  0  0  0  0  0  0  0  0  0
   -3.2240   20.2962  -32.4004 H   0  0  0  0  0  0  0  0  0  0  0  0
   -3.0052   19.4223  -33.9544 H   0  0  0  0  0  0  0  0  0  0  0  0
   -3.3043   21.1935  -33.9544 H   0  0  0  0  0  0  0  0  0  0  0  0
   -5.5586   20.8226  -33.0228 H   0  0  0  0  0  0  0  0  0  0  0  0
   -5.3055   19.9084  -34.5872 H   0  0  0  0  0  0  0  0  0  0  0  0
   -4.6698   17.9383  -32.9489 H   0  0  0  0  0  0  0  0  0  0  0  0
   -5.7106   18.9035  -31.7980 H   0  0  0  0  0  0  0  0  0  0  0  0
   -7.1590   18.8090  -34.0590 H   0  0  0  0  0  0  0  0  0  0  0  0
   -7.3509   16.3378  -34.4766 H   0  0  0  0  0  0  0  0  0  0  0  0
   -5.8757   17.1666  -35.1442 H   0  0  0  0  0  0  0  0  0  0  0  0
   -5.6336   16.0237  -32.3908 H   0  0  0  0  0  0  0  0  0  0  0  0
   -5.7611   14.8458  -33.7409 H   0  0  0  0  0  0  0  0  0  0  0  0
   -4.4498   16.0735  -33.7409 H   0  0  0  0  0  0  0  0  0  0  0  0
   -8.2220   16.8567  -32.5995 H   0  0  0  0  0  0  0  0  0  0  0  0
   -7.1140   17.7157  -31.4209 H   0  0  0  0  0  0  0  0  0  0  0  0
   -9.7450   18.4882  -32.3468 H   0  0  0  0  0  0  0  0  0  0  0  0
   -8.6793   19.2361  -31.0890 H   0  0  0  0  0  0  0  0  0  0  0  0
   -9.1570   20.0020  -33.8270 H   0  0  0  0  0  0  0  0  0  0  0  0
   -9.4160   21.9305  -32.7944 H   0  0  0  0  0  0  0  0  0  0  0  0
   -8.8464   21.1295  -31.2594 H   0  0  0  0  0  0  0  0  0  0  0  0
   -6.4636   21.4742  -32.2940 H   0  0  0  0  0  0  0  0  0  0  0  0
   -7.3124   22.7446  -33.2819 H   0  0  0  0  0  0  0  0  0  0  0  0
   -7.5979   24.1386  -31.5101 H   0  0  0  0  0  0  0  0  0  0  0  0
   -7.8210   22.7804  -30.3421 H   0  0  0  0  0  0  0  0  0  0  0  0
   -5.1762   21.4422  -31.6592 H   0  0  0  0  0  0  0  0  0  0  0  0
   -2.8111   21.6154  -30.8966 H   0  0  0  0  0  0  0  0  0  0  0  0
   -3.7166   25.3371  -28.8915 H   0  0  0  0  0  0  0  0  0  0  0  0
  1  2  1  0
  2  3  1  0
  3  4  1  0
  4  5  1  0
  5  6  1  0
  4  7  1  0
  7  8  1  0
  8  9  1  0
  9 10  1  0
 10 11  1  0
 11 12  1  0
 12 13  1  0
 13 14  2  0
 14 15  1  0
 15 16  2  0
 16 17  1  0
 16 18  1  0
 18 19  2  0
 19 20  1  0
 19 13  1  0
  1 21  1  0
  1 22  1  0
  1 23  1  0
  2 24  1  0
  2 25  1  0
  3 26  1  0
  3 27  1  0
  4 28  1  6
  5 29  1  0
  5 30  1  0
  6 31  1  0
  6 32  1  0
  6 33  1  0
  7 34  1  0
  7 35  1  0
  8 36  1  0
  8 37  1  0
  9 38  1  0
 10 39  1  0
 10 40  1  0
 11 41  1  0
 11 42  1  0
 12 43  1  0
 12 44  1  0
 14 45  1  0
 15 46  1  0
 18 47  1  0
M  CHG  1   4   1
M  END
>  <UniqueID>  (13) 
13

>  <SMILES>  (13) 
CCC[N@@H+](CC)CCNCCCc1ccc(Cl)cc1Cl

>  <Energy>  (13) 
47.04887166855574

>  <Genealogy>  (13) 
CCC[NH+](CC)CCNCCCc1ccc(Cl)cc1Cl (protonated)
CCC[N@@H+](CC)CCNCCCc1ccc(Cl)cc1Cl (chirality)
CCC[N@@H+](CC)CCNCCCc1ccc(Cl)cc1Cl (3D coordinates assigned)
CCC[N@@H+](CC)CCNCCCc1ccc(Cl)cc1Cl (optimized conformer: 47.04887166855574 kcal/mol)

>  <smiles>  (13) 
CCCN(CC)CCNCCCc1ccc(Cl)cc1Cl

>  <score_type>  (13) 
oracle

>  <origin>  (13) 
adg

>  <m_score__min__energy>  (13) 
-6.9900000000000002

>  <m_primary>  (13) 
energy

$$$$
13:0
     RDKit          3D

 55 58  0  0  0  0  0  0  0  0999 V2000
   -9.8460   21.5370  -31.5870 C   0  0  0  0  0  0  0  0  0  0  0  0
   -8.7450   20.6010  -31.9900 C   0  0  0  0  0  0  0  0  0  0  0  0
   -8.7950   19.2550  -31.6110 C   0  0  0  0  0  0  0  0  0  0  0  0
   -7.7530   18.3890  -31.9510 C   0  0  0  0  0  0  0  0  0  0  0  0
   -6.6520   18.8850  -32.6670 C   0  0  0  0  0  0  0  0  0  0  0  0
   -5.5400   17.9580  -33.0860 C   0  0  2  0  0  0  0  0  0  0  0  0
   -4.9370   18.3900  -34.4460 C   0  0  0  0  0  0  0  0  0  0  0  0
   -3.8020   17.5210  -34.8430 N   0  0  0  0  0  0  0  0  0  0  0  0
   -2.4980   18.1590  -34.5530 C   0  0  0  0  0  0  0  0  0  0  0  0
   -1.8550   17.5600  -33.2890 C   0  0  0  0  0  0  0  0  0  0  0  0
   -1.5710   18.6250  -32.2200 C   0  0  0  0  0  0  0  0  0  0  0  0
   -0.9280   20.1830  -32.9450 S   0  0  0  0  0  0  0  0  0  0  0  0
   -2.4840   21.0780  -32.7970 C   0  0  0  0  0  0  0  0  0  0  0  0
   -3.4800   20.9830  -33.7020 N   0  0  0  0  0  0  0  0  0  0  0  0
   -4.4580   21.7520  -33.2550 N   0  0  0  0  0  0  0  0  0  0  0  0
   -4.0670   22.2980  -32.0830 C   0  0  0  0  0  0  0  0  0  0  0  0
   -4.9220   23.1760  -31.2500 C   0  0  0  0  0  0  0  0  0  0  0  0
   -6.0490   22.6680  -30.5860 C   0  0  0  0  0  0  0  0  0  0  0  0
   -6.8100   23.5360  -29.8060 C   0  0  0  0  0  0  0  0  0  0  0  0
   -6.4550   24.8440  -29.6950 N   0  0  0  0  0  0  0  0  0  0  0  0
   -5.3600   25.3220  -30.3400 C   0  0  0  0  0  0  0  0  0  0  0  0
   -4.6070   24.4920  -31.1060 N   0  0  0  0  0  0  0  0  0  0  0  0
   -2.8130   21.8940  -31.7720 N   0  0  0  0  0  0  0  0  0  0  0  0
   -2.0110   22.2160  -30.5890 C   0  0  0  0  0  0  0  0  0  0  0  0
   -3.8950   16.1650  -34.2490 C   0  0  0  0  0  0  0  0  0  0  0  0
   -5.3570   15.7650  -33.9950 C   0  0  0  0  0  0  0  0  0  0  0  0
   -6.0400   16.6270  -33.0950 O   0  0  0  0  0  0  0  0  0  0  0  0
   -6.6340   20.1960  -33.0370 N   0  0  0  0  0  0  0  0  0  0  0  0
   -7.6350   21.0560  -32.7110 C   0  0  0  0  0  0  0  0  0  0  0  0
   -9.9028   21.5853  -30.4895 H   0  0  0  0  0  0  0  0  0  0  0  0
   -9.6395   22.5403  -31.9880 H   0  0  0  0  0  0  0  0  0  0  0  0
  -10.8030   21.1717  -31.9880 H   0  0  0  0  0  0  0  0  0  0  0  0
   -9.6581   18.8774  -31.0432 H   0  0  0  0  0  0  0  0  0  0  0  0
   -7.7947   17.3289  -31.6606 H   0  0  0  0  0  0  0  0  0  0  0  0
   -4.7092   18.0080  -32.3668 H   0  0  0  0  0  0  0  0  0  0  0  0
   -5.7186   18.3305  -35.2177 H   0  0  0  0  0  0  0  0  0  0  0  0
   -4.5620   19.4191  -34.3438 H   0  0  0  0  0  0  0  0  0  0  0  0
   -1.8236   18.0020  -35.4077 H   0  0  0  0  0  0  0  0  0  0  0  0
   -2.6652   19.2329  -34.3837 H   0  0  0  0  0  0  0  0  0  0  0  0
   -2.5380   16.8082  -32.8668 H   0  0  0  0  0  0  0  0  0  0  0  0
   -0.8942   17.1107  -33.5804 H   0  0  0  0  0  0  0  0  0  0  0  0
   -2.5049   18.8441  -31.6817 H   0  0  0  0  0  0  0  0  0  0  0  0
   -0.8018   18.2258  -31.5425 H   0  0  0  0  0  0  0  0  0  0  0  0
   -5.3800   21.8630  -33.7340 H   0  0  0  0  0  0  0  0  0  0  0  0
   -6.3256   21.6074  -30.6793 H   0  0  0  0  0  0  0  0  0  0  0  0
   -7.7001   23.1624  -29.2787 H   0  0  0  0  0  0  0  0  0  0  0  0
   -5.0830   26.3820  -30.2418 H   0  0  0  0  0  0  0  0  0  0  0  0
   -2.5874   21.9846  -29.6812 H   0  0  0  0  0  0  0  0  0  0  0  0
   -1.0871   21.6191  -30.5988 H   0  0  0  0  0  0  0  0  0  0  0  0
   -1.7563   23.2861  -30.5988 H   0  0  0  0  0  0  0  0  0  0  0  0
   -3.4399   15.4395  -34.9394 H   0  0  0  0  0  0  0  0  0  0  0  0
   -3.3646   16.1713  -33.2853 H   0  0  0  0  0  0  0  0  0  0  0  0
   -5.8911   15.7743  -34.9566 H   0  0  0  0  0  0  0  0  0  0  0  0
   -5.3401   14.7673  -33.5320 H   0  0  0  0  0  0  0  0  0  0  0  0
   -7.5725   22.1115  -33.0144 H   0  0  0  0  0  0  0  0  0  0  0  0
  1  2  1  0
  2  3  2  0
  3  4  1  0
  4  5  2  0
  5  6  1  0
  6  7  1  0
  7  8  1  0
  8  9  1  0
  9 10  1  0
 10 11  1  0
 11 12  1  0
 12 13  1  0
 13 14  2  0
 14 15  1  0
 15 16  2  0
 16 17  1  0
 17 18  2  0
 18 19  1  0
 19 20  2  0
 20 21  1  0
 21 22  2  0
 16 23  1  0
 23 24  1  0
  8 25  1  0
 25 26  1  0
 26 27  1  0
  5 28  1  0
 28 29  2  0
 29  2  1  0
 27  6  1  0
 23 13  1  0
 22 17  1  0
  1 30  1  0
  1 31  1  0
  1 32  1  0
  3 33  1  0
  4 34  1  0
  6 35  1  1
  7 36  1  0
  7 37  1  0
  9 38  1  0
  9 39  1  0
 10 40  1  0
 10 41  1  0
 11 42  1  0
 11 43  1  0
 15 44  1  0
 18 45  1  0
 19 46  1  0
 21 47  1  0
 24 48  1  0
 24 49  1  0
 24 50  1  0
 25 51  1  0
 25 52  1  0
 26 53  1  0
 26 54  1  0
 29 55  1  0
M  CHG  1  15   1
M  END
>  <UniqueID>  (14) 
14

>  <SMILES>  (14) 
Cc1ccc([C@@H]2CN(CCCSc3n[nH+]c(-c4ccncn4)n3C)CCO2)nc1

>  <Energy>  (14) 
106.50562132810816

>  <Genealogy>  (14) 
Cc1ccc(C2CN(CCCSc3n[nH+]c(-c4ccncn4)n3C)CCO2)nc1 (protonated)
Cc1ccc([C@@H]2CN(CCCSc3n[nH+]c(-c4ccncn4)n3C)CCO2)nc1 (chirality)
Cc1ccc([C@@H]2CN(CCCSc3n[nH+]c(-c4ccncn4)n3C)CCO2)nc1 (3D coordinates assigned)
Cc1ccc([C@@H]2CN(CCCSc3n[nH+]c(-c4ccncn4)n3C)CCO2)nc1 (nonaromatic ring conformer: 106.50562132810816 kcal/mol)

>  <smiles>  (14) 
Cc1ccc(C2CN(CCCSc3nnc(-c4ccncn4)n3C)CCO2)nc1

>  <score_type>  (14) 
oracle

>  <origin>  (14) 
adg

>  <m_score__min__energy>  (14) 
-8.8399999999999999

>  <m_primary>  (14) 
energy

$$$$
14:0
     RDKit          3D

 40 41  0  0  0  0  0  0  0  0999 V2000
   -6.0900   17.0790  -31.8290 C   0  0  0  0  0  0  0  0  0  0  0  0
   -6.8450   17.0540  -33.1550 C   0  0  0  0  0  0  0  0  0  0  0  0
   -6.2610   18.0360  -34.1840 C   0  0  0  0  0  0  0  0  0  0  0  0
   -5.8270   19.3000  -33.5490 N   0  0  0  0  0  0  0  0  0  0  0  0
   -4.4880   19.6530  -33.4880 C   0  0  0  0  0  0  0  0  0  0  0  0
   -3.1870   18.6300  -34.2080 S   0  0  0  0  0  0  0  0  0  0  0  0
   -1.9300   19.1870  -33.0110 C   0  0  0  0  0  0  0  0  0  0  0  0
   -1.0080   20.2060  -33.6630 C   0  0  0  0  0  0  0  0  0  0  0  0
   -4.1080   20.8060  -32.8660 N   0  0  0  0  0  0  0  0  0  0  0  0
   -5.0430   21.6090  -32.3190 C   0  0  0  0  0  0  0  0  0  0  0  0
   -4.7750   23.0550  -31.5190 S   0  0  0  0  0  0  0  0  0  0  0  0
   -6.4100   23.3480  -31.2050 C   0  0  0  0  0  0  0  0  0  0  0  0
   -6.8970   24.5360  -30.4260 C   0  0  0  0  0  0  0  0  0  0  0  0
   -5.7480   25.4920  -30.1230 C   0  0  0  0  0  0  0  0  0  0  0  0
   -7.1850   22.2880  -31.7170 C   0  0  0  0  0  0  0  0  0  0  0  0
   -8.6810   22.1980  -31.5950 C   0  0  0  0  0  0  0  0  0  0  0  0
   -6.3850   21.3120  -32.3560 C   0  0  0  0  0  0  0  0  0  0  0  0
   -6.7810   20.1250  -32.9900 C   0  0  0  0  0  0  0  0  0  0  0  0
   -8.0040   19.8190  -33.0470 O   0  0  0  0  0  0  0  0  0  0  0  0
   -6.8092   17.0552  -30.9970 H   0  0  0  0  0  0  0  0  0  0  0  0
   -5.4286   16.2023  -31.7671 H   0  0  0  0  0  0  0  0  0  0  0  0
   -5.4880   17.9976  -31.7671 H   0  0  0  0  0  0  0  0  0  0  0  0
   -6.7948   16.0367  -33.5703 H   0  0  0  0  0  0  0  0  0  0  0  0
   -7.8828   17.3583  -32.9543 H   0  0  0  0  0  0  0  0  0  0  0  0
   -5.3945   17.5667  -34.6728 H   0  0  0  0  0  0  0  0  0  0  0  0
   -7.0466   18.2724  -34.9167 H   0  0  0  0  0  0  0  0  0  0  0  0
   -2.4293   19.6481  -32.1461 H   0  0  0  0  0  0  0  0  0  0  0  0
   -1.3366   18.3216  -32.6808 H   0  0  0  0  0  0  0  0  0  0  0  0
   -0.4875   20.7813  -32.8832 H   0  0  0  0  0  0  0  0  0  0  0  0
   -0.2689   19.6842  -34.2887 H   0  0  0  0  0  0  0  0  0  0  0  0
   -1.6009   20.8894  -34.2887 H   0  0  0  0  0  0  0  0  0  0  0  0
   -3.0990   21.0720  -32.8160 H   0  0  0  0  0  0  0  0  0  0  0  0
   -7.6608   25.0651  -31.0148 H   0  0  0  0  0  0  0  0  0  0  0  0
   -7.3232   24.1838  -29.4750 H   0  0  0  0  0  0  0  0  0  0  0  0
   -5.6301   25.5901  -29.0337 H   0  0  0  0  0  0  0  0  0  0  0  0
   -4.8181   25.0973  -30.5584 H   0  0  0  0  0  0  0  0  0  0  0  0
   -5.9670   26.4782  -30.5584 H   0  0  0  0  0  0  0  0  0  0  0  0
   -8.9618   22.1811  -30.5316 H   0  0  0  0  0  0  0  0  0  0  0  0
   -9.1417   23.0701  -32.0821 H   0  0  0  0  0  0  0  0  0  0  0  0
   -9.0339   21.2770  -32.0821 H   0  0  0  0  0  0  0  0  0  0  0  0
  1  2  1  0
  2  3  1  0
  3  4  1  0
  4  5  1  0
  5  6  1  0
  6  7  1  0
  7  8  1  0
  5  9  2  0
  9 10  1  0
 10 11  1  0
 11 12  1  0
 12 13  1  0
 13 14  1  0
 12 15  2  0
 15 16  1  0
 15 17  1  0
 17 18  1  0
 18 19  2  0
 18  4  1  0
 17 10  2  0
  1 20  1  0
  1 21  1  0
  1 22  1  0
  2 23  1  0
  2 24  1  0
  3 25  1  0
  3 26  1  0
  7 27  1  0
  7 28  1  0
  8 29  1  0
  8 30  1  0
  8 31  1  0
  9 32  1  0
 13 33  1  0
 13 34  1  0
 14 35  1  0
 14 36  1  0
 14 37  1  0
 16 38  1  0
 16 39  1  0
 16 40  1  0
M  CHG  1   9   1
M  END
>  <UniqueID>  (15) 
15

>  <SMILES>  (15) 
CCCn1c(SCC)[nH+]c2sc(CC)c(C)c2c1=O

>  <Energy>  (15) 
62.25293778481076

>  <Genealogy>  (15) 
CCCn1c(SCC)[nH+]c2sc(CC)c(C)c2c1=O (protonated)
CCCn1c(SCC)[nH+]c2sc(CC)c(C)c2c1=O (3D coordinates assigned)
CCCn1c(SCC)[nH+]c2sc(CC)c(C)c2c1=O (optimized conformer: 62.25293778481076 kcal/mol)

>  <smiles>  (15) 
CCCn1c(SCC)nc2sc(CC)c(C)c2c1=O

>  <score_type>  (15) 
oracle

>  <origin>  (15) 
adg

>  <m_score__min__energy>  (15) 
-6.4100000000000001

>  <m_primary>  (15) 
energy

$$$$
15:0
     RDKit          3D

 87 90  0  0  0  0  0  0  0  0999 V2000
   -2.7830   19.1120  -26.5970 C   0  0  0  0  0  0  0  0  0  0  0  0
   -2.5240   20.2790  -27.5390 C   0  0  0  0  0  0  0  0  0  0  0  0
   -1.7630   19.8140  -28.7070 N   0  0  0  0  0  0  0  0  0  0  0  0
   -0.4040   20.3740  -28.7380 C   0  0  0  0  0  0  0  0  0  0  0  0
    0.5360   19.5490  -29.6350 C   0  0  0  0  0  0  0  0  0  0  0  0
    0.2040   19.6410  -31.1340 C   0  0  0  0  0  0  0  0  0  0  0  0
   -1.2390   19.5020  -31.3610 N   0  0  0  0  0  0  0  0  0  0  0  0
   -1.5810   19.7280  -32.7720 C   0  0  0  0  0  0  0  0  0  0  0  0
   -3.0160   20.2620  -32.9070 C   0  0  0  0  0  0  0  0  0  0  0  0
   -3.7940   20.0710  -31.6710 N   0  0  0  0  0  0  0  0  0  0  0  0
   -4.5290   21.2800  -31.3270 C   0  0  0  0  0  0  0  0  0  0  0  0
   -5.9270   21.3680  -31.5560 C   0  0  0  0  0  0  0  0  0  0  0  0
   -6.6280   20.3680  -32.2740 C   0  0  0  0  0  0  0  0  0  0  0  0
   -8.0100   20.4230  -32.4240 C   0  0  0  0  0  0  0  0  0  0  0  0
   -8.7280   21.4670  -31.8630 C   0  0  0  0  0  0  0  0  0  0  0  0
   -8.0670   22.4850  -31.1840 C   0  0  0  0  0  0  0  0  0  0  0  0
   -6.6520   22.4850  -31.0510 C   0  0  0  0  0  0  0  0  0  0  0  0
   -5.9900   23.5250  -30.4280 N   0  0  0  0  0  0  0  0  0  0  0  0
   -6.7060   24.7910  -30.1450 C   0  0  0  0  0  0  0  0  0  0  0  0
   -4.6510   23.4090  -30.1180 C   0  0  0  0  0  0  0  0  0  0  0  0
   -4.0170   24.3160  -29.2320 C   0  0  0  0  0  0  0  0  0  0  0  0
   -2.6470   24.2490  -28.9710 C   0  0  0  0  0  0  0  0  0  0  0  0
   -2.1140   25.1180  -28.0030 O   0  0  0  0  0  0  0  0  0  0  0  0
   -0.7320   25.2440  -27.6670 C   0  0  0  0  0  0  0  0  0  0  0  0
   -0.2300   24.1470  -26.6850 C   0  0  0  0  0  0  0  0  0  0  0  0
   -0.1640   24.4880  -25.2200 N   0  0  0  0  0  0  0  0  0  0  0  0
   -0.4310   23.2810  -24.3940 C   0  0  0  0  0  0  0  0  0  0  0  0
    1.1780   25.0420  -24.8390 C   0  0  0  0  0  0  0  0  0  0  0  0
    1.2690   26.5650  -25.0590 C   0  0  0  0  0  0  0  0  0  0  0  0
    0.3210   27.3150  -24.1740 N   0  0  0  0  0  0  0  0  0  0  0  0
   -0.1050   28.5580  -24.8640 C   0  0  0  0  0  0  0  0  0  0  0  0
    1.0120   27.7070  -22.9200 C   0  0  0  0  0  0  0  0  0  0  0  0
   -0.8830   26.4920  -23.8260 C   0  0  0  0  0  0  0  0  0  0  0  0
   -1.2490   25.4970  -24.9470 C   0  0  0  0  0  0  0  0  0  0  0  0
   -1.8700   23.3140  -29.6590 C   0  0  0  0  0  0  0  0  0  0  0  0
   -2.4760   22.3690  -30.4810 C   0  0  0  0  0  0  0  0  0  0  0  0
   -3.8800   22.3450  -30.6540 C   0  0  0  0  0  0  0  0  0  0  0  0
   -2.7063   19.4575  -25.5555 H   0  0  0  0  0  0  0  0  0  0  0  0
   -3.7917   18.7121  -26.7773 H   0  0  0  0  0  0  0  0  0  0  0  0
   -2.0381   18.3229  -26.7773 H   0  0  0  0  0  0  0  0  0  0  0  0
   -3.4841   20.6998  -27.8722 H   0  0  0  0  0  0  0  0  0  0  0  0
   -1.9451   21.0513  -27.0113 H   0  0  0  0  0  0  0  0  0  0  0  0
   -2.2660   20.1510  -29.5640 H   0  0  0  0  0  0  0  0  0  0  0  0
   -0.4520   21.4028  -29.1242 H   0  0  0  0  0  0  0  0  0  0  0  0
   -0.0032   20.3534  -27.7138 H   0  0  0  0  0  0  0  0  0  0  0  0
    1.5640   19.9103  -29.4848 H   0  0  0  0  0  0  0  0  0  0  0  0
    0.4129   18.4953  -29.3440 H   0  0  0  0  0  0  0  0  0  0  0  0
    0.5363   20.6171  -31.5171 H   0  0  0  0  0  0  0  0  0  0  0  0
    0.7222   18.8251  -31.6591 H   0  0  0  0  0  0  0  0  0  0  0  0
   -1.6990   20.2700  -30.8230 H   0  0  0  0  0  0  0  0  0  0  0  0
   -0.8816   20.4614  -33.1996 H   0  0  0  0  0  0  0  0  0  0  0  0
   -1.5087   18.7712  -33.3099 H   0  0  0  0  0  0  0  0  0  0  0  0
   -2.9748   21.3366  -33.1383 H   0  0  0  0  0  0  0  0  0  0  0  0
   -3.5133   19.7007  -33.7118 H   0  0  0  0  0  0  0  0  0  0  0  0
   -4.4520   19.2690  -31.7670 H   0  0  0  0  0  0  0  0  0  0  0  0
   -3.1690   19.7740  -30.8900 H   0  0  0  0  0  0  0  0  0  0  0  0
   -6.0693   19.5326  -32.7212 H   0  0  0  0  0  0  0  0  0  0  0  0
   -8.5332   19.6371  -32.9884 H   0  0  0  0  0  0  0  0  0  0  0  0
   -9.8239   21.4907  -31.9550 H   0  0  0  0  0  0  0  0  0  0  0  0
   -8.6505   23.3058  -30.7415 H   0  0  0  0  0  0  0  0  0  0  0  0
   -6.7857   24.9319  -29.0570 H   0  0  0  0  0  0  0  0  0  0  0  0
   -6.1502   25.6326  -30.5840 H   0  0  0  0  0  0  0  0  0  0  0  0
   -7.7137   24.7484  -30.5840 H   0  0  0  0  0  0  0  0  0  0  0  0
   -4.6196   25.0922  -28.7376 H   0  0  0  0  0  0  0  0  0  0  0  0
   -0.1413   25.1795  -28.5927 H   0  0  0  0  0  0  0  0  0  0  0  0
   -0.6090   26.2127  -27.1605 H   0  0  0  0  0  0  0  0  0  0  0  0
   -0.9012   23.2819  -26.7898 H   0  0  0  0  0  0  0  0  0  0  0  0
    0.8171   23.9760  -26.9753 H   0  0  0  0  0  0  0  0  0  0  0  0
   -0.3724   23.5459  -23.3280 H   0  0  0  0  0  0  0  0  0  0  0  0
   -1.4360   22.8960  -24.6214 H   0  0  0  0  0  0  0  0  0  0  0  0
    0.3179   22.5080  -24.6214 H   0  0  0  0  0  0  0  0  0  0  0  0
    1.3599   24.8272  -23.7756 H   0  0  0  0  0  0  0  0  0  0  0  0
    1.9326   24.5646  -25.4815 H   0  0  0  0  0  0  0  0  0  0  0  0
    2.2955   26.8951  -24.8412 H   0  0  0  0  0  0  0  0  0  0  0  0
    0.9982   26.7752  -26.1042 H   0  0  0  0  0  0  0  0  0  0  0  0
   -0.3666   29.3212  -24.1163 H   0  0  0  0  0  0  0  0  0  0  0  0
    0.7175   28.9282  -25.4936 H   0  0  0  0  0  0  0  0  0  0  0  0
   -0.9817   28.3459  -25.4936 H   0  0  0  0  0  0  0  0  0  0  0  0
    0.4207   27.3715  -22.0552 H   0  0  0  0  0  0  0  0  0  0  0  0
    2.0068   27.2388  -22.8878 H   0  0  0  0  0  0  0  0  0  0  0  0
    1.1205   28.8012  -22.8878 H   0  0  0  0  0  0  0  0  0  0  0  0
   -0.6730   25.9277  -22.9054 H   0  0  0  0  0  0  0  0  0  0  0  0
   -1.7333   27.1763  -23.6892 H   0  0  0  0  0  0  0  0  0  0  0  0
   -2.1618   24.9583  -24.6526 H   0  0  0  0  0  0  0  0  0  0  0  0
   -1.3936   26.0801  -25.8684 H   0  0  0  0  0  0  0  0  0  0  0  0
   -0.7754   23.3249  -29.5506 H   0  0  0  0  0  0  0  0  0  0  0  0
   -1.8535   21.6286  -31.0048 H   0  0  0  0  0  0  0  0  0  0  0  0
  1  2  1  0
  2  3  1  0
  3  4  1  0
  4  5  1  0
  5  6  1  0
  6  7  1  0
  7  8  1  0
  8  9  1  0
  9 10  1  0
 10 11  1  0
 11 12  2  0
 12 13  1  0
 13 14  2  0
 14 15  1  0
 15 16  2  0
 16 17  1  0
 17 18  2  0
 18 19  1  0
 18 20  1  0
 20 21  2  0
 21 22  1  0
 22 23  1  0
 23 24  1  0
 24 25  1  0
 25 26  1  0
 26 27  1  0
 26 28  1  0
 28 29  1  0
 29 30  1  0
 30 31  1  0
 30 32  1  0
 30 33  1  0
 33 34  1  0
 22 35  2  0
 35 36  1  0
 36 37  2  0
 37 11  1  0
 17 12  1  0
 37 20  1  0
 34 26  1  0
  1 38  1  0
  1 39  1  0
  1 40  1  0
  2 41  1  0
  2 42  1  0
  3 43  1  0
  4 44  1  0
  4 45  1  0
  5 46  1  0
  5 47  1  0
  6 48  1  0
  6 49  1  0
  7 50  1  0
  8 51  1  0
  8 52  1  0
  9 53  1  0
  9 54  1  0
 10 55  1  0
 10 56  1  0
 13 57  1  0
 14 58  1  0
 15 59  1  0
 16 60  1  0
 19 61  1  0
 19 62  1  0
 19 63  1  0
 21 64  1  0
 24 65  1  0
 24 66  1  0
 25 67  1  0
 25 68  1  0
 27 69  1  0
 27 70  1  0
 27 71  1  0
 28 72  1  0
 28 73  1  0
 29 74  1  0
 29 75  1  0
 31 76  1  0
 31 77  1  0
 31 78  1  0
 32 79  1  0
 32 80  1  0
 32 81  1  0
 33 82  1  0
 33 83  1  0
 34 84  1  0
 34 85  1  0
 35 86  1  0
 36 87  1  0
M  CHG  4  10   1  18   1  26   1  30   1
M  END
>  <UniqueID>  (16) 
16

>  <SMILES>  (16) 
CCNCCCNCC[NH2+]c1c2ccccc2[n+](C)c2cc(OCC[N+]3(C)CC[N+](C)(C)CC3)ccc12

>  <Energy>  (16) 
137.44024969571925

>  <Genealogy>  (16) 
CCNCCCNCC[NH2+]c1c2ccccc2[n+](C)c2cc(OCC[N+]3(C)CC[N+](C)(C)CC3)ccc12 (protonated)
CCNCCCNCC[NH2+]c1c2ccccc2[n+](C)c2cc(OCC[N+]3(C)CC[N+](C)(C)CC3)ccc12 (3D coordinates assigned)
CCNCCCNCC[NH2+]c1c2ccccc2[n+](C)c2cc(OCC[N+]3(C)CC[N+](C)(C)CC3)ccc12 (nonaromatic ring conformer: 137.44024969571925 kcal/mol)

>  <smiles>  (16) 
CCNCCCNCCNc1c2ccccc2[n+](C)c2cc(OCC[N+]3(C)CC[N+](C)(C)CC3)ccc12

>  <score_type>  (16) 
oracle

>  <origin>  (16) 
adg

>  <m_score__min__energy>  (16) 
-7.8700000000000001

>  <m_primary>  (16) 
energy

$$$$
16:0
     RDKit          3D

 88 90  0  0  0  0  0  0  0  0999 V2000
    2.5590   24.2750  -27.0820 C   0  0  0  0  0  0  0  0  0  0  0  0
    1.3630   25.1870  -27.3460 C   0  0  0  0  0  0  0  0  0  0  0  0
    0.3530   24.5350  -28.2130 N   0  0  0  0  0  0  0  0  0  0  0  0
   -0.9870   25.1730  -28.1760 C   0  0  0  0  0  0  0  0  0  0  0  0
   -1.2050   26.1000  -26.9740 C   0  0  0  0  0  0  0  0  0  0  0  0
    0.2920   23.0750  -27.9770 C   0  0  0  0  0  0  0  0  0  0  0  0
   -0.6960   22.7770  -26.8490 C   0  0  0  0  0  0  0  0  0  0  0  0
   -0.5350   21.4410  -26.4010 O   0  0  0  0  0  0  0  0  0  0  0  0
   -1.6530   20.6400  -26.7370 C   0  0  0  0  0  0  0  0  0  0  0  0
   -1.2380   19.1910  -27.0010 C   0  0  0  0  0  0  0  0  0  0  0  0
   -0.9920   19.0090  -28.3850 O   0  0  0  0  0  0  0  0  0  0  0  0
    0.1570   19.7340  -28.7780 C   0  0  0  0  0  0  0  0  0  0  0  0
    0.0850   20.0550  -30.2700 C   0  0  0  0  0  0  0  0  0  0  0  0
   -0.6020   21.2700  -30.5070 O   0  0  0  0  0  0  0  0  0  0  0  0
   -1.9430   21.2080  -30.0580 C   0  0  0  0  0  0  0  0  0  0  0  0
   -2.4850   22.6110  -29.7180 C   0  0  0  0  0  0  0  0  0  0  0  0
   -3.8840   22.6320  -29.4820 O   0  0  0  0  0  0  0  0  0  0  0  0
   -4.2990   23.7190  -28.6700 C   0  0  0  0  0  0  0  0  0  0  0  0
   -4.8990   24.8870  -29.4650 C   0  0  0  0  0  0  0  0  0  0  0  0
   -4.6700   24.6680  -30.8430 O   0  0  0  0  0  0  0  0  0  0  0  0
   -5.8920   24.6620  -31.5630 C   0  0  0  0  0  0  0  0  0  0  0  0
   -6.2670   23.2530  -32.0450 C   0  0  0  0  0  0  0  0  0  0  0  0
   -5.4480   22.2200  -31.3900 N   0  0  0  0  0  0  0  0  0  0  0  0
   -5.5070   20.9750  -32.1410 C   0  0  0  0  0  0  0  0  0  0  0  0
   -6.6760   20.1680  -32.1140 C   0  0  0  0  0  0  0  0  0  0  0  0
   -7.8570   20.5840  -31.4500 C   0  0  0  0  0  0  0  0  0  0  0  0
   -8.9830   19.7630  -31.4050 C   0  0  0  0  0  0  0  0  0  0  0  0
   -8.9640   18.5190  -32.0200 C   0  0  0  0  0  0  0  0  0  0  0  0
   -7.8330   18.1040  -32.7140 C   0  0  0  0  0  0  0  0  0  0  0  0
   -6.6830   18.9280  -32.8070 C   0  0  0  0  0  0  0  0  0  0  0  0
   -5.5960   18.5410  -33.5590 N   0  0  0  0  0  0  0  0  0  0  0  0
   -5.8000   17.5630  -34.6500 C   0  0  0  0  0  0  0  0  0  0  0  0
   -4.3920   19.2070  -33.4350 C   0  0  0  0  0  0  0  0  0  0  0  0
   -3.1480   18.6410  -33.8660 C   0  0  0  0  0  0  0  0  0  0  0  0
   -2.9250   17.1550  -34.0300 C   0  0  0  0  0  0  0  0  0  0  0  0
   -2.0260   19.4680  -34.0110 C   0  0  0  0  0  0  0  0  0  0  0  0
   -2.0780   20.8020  -33.6350 C   0  0  0  0  0  0  0  0  0  0  0  0
   -3.2210   21.3120  -33.0330 C   0  0  0  0  0  0  0  0  0  0  0  0
   -4.3750   20.5100  -32.8630 C   0  0  0  0  0  0  0  0  0  0  0  0
    2.7036   24.1647  -25.9971 H   0  0  0  0  0  0  0  0  0  0  0  0
    2.3729   23.2875  -27.5293 H   0  0  0  0  0  0  0  0  0  0  0  0
    3.4621   24.7158  -27.5293 H   0  0  0  0  0  0  0  0  0  0  0  0
    0.8937   25.4455  -26.3853 H   0  0  0  0  0  0  0  0  0  0  0  0
    1.7274   26.0867  -27.8634 H   0  0  0  0  0  0  0  0  0  0  0  0
   -1.1142   25.7634  -29.0954 H   0  0  0  0  0  0  0  0  0  0  0  0
   -1.7233   24.3605  -28.0882 H   0  0  0  0  0  0  0  0  0  0  0  0
   -1.0710   25.5303  -26.0426 H   0  0  0  0  0  0  0  0  0  0  0  0
   -0.4759   26.9229  -27.0086 H   0  0  0  0  0  0  0  0  0  0  0  0
   -2.2245   26.5117  -27.0086 H   0  0  0  0  0  0  0  0  0  0  0  0
   -0.0389   22.5694  -28.8962 H   0  0  0  0  0  0  0  0  0  0  0  0
    1.2900   22.7095  -27.6936 H   0  0  0  0  0  0  0  0  0  0  0  0
   -0.5113   23.4663  -26.0119 H   0  0  0  0  0  0  0  0  0  0  0  0
   -1.7216   22.9101  -27.2238 H   0  0  0  0  0  0  0  0  0  0  0  0
   -2.3722   20.6611  -25.9050 H   0  0  0  0  0  0  0  0  0  0  0  0
   -2.1074   21.0441  -27.6537 H   0  0  0  0  0  0  0  0  0  0  0  0
   -0.3232   18.9636  -26.4340 H   0  0  0  0  0  0  0  0  0  0  0  0
   -2.0469   18.5168  -26.6831 H   0  0  0  0  0  0  0  0  0  0  0  0
    0.2100   20.6717  -28.2054 H   0  0  0  0  0  0  0  0  0  0  0  0
    1.0529   19.1268  -28.5813 H   0  0  0  0  0  0  0  0  0  0  0  0
    1.1073   20.1391  -30.6672 H   0  0  0  0  0  0  0  0  0  0  0  0
   -0.4645   19.2445  -30.7712 H   0  0  0  0  0  0  0  0  0  0  0  0
   -2.5658   20.7653  -30.8493 H   0  0  0  0  0  0  0  0  0  0  0  0
   -1.9761   20.5926  -29.1469 H   0  0  0  0  0  0  0  0  0  0  0  0
   -1.9733   22.9730  -28.8140 H   0  0  0  0  0  0  0  0  0  0  0  0
   -2.2927   23.2538  -30.5897 H   0  0  0  0  0  0  0  0  0  0  0  0
   -5.0578   23.3542  -27.9621 H   0  0  0  0  0  0  0  0  0  0  0  0
   -3.4020   24.1023  -28.1617 H   0  0  0  0  0  0  0  0  0  0  0  0
   -5.9809   24.9458  -29.2752 H   0  0  0  0  0  0  0  0  0  0  0  0
   -4.4275   25.8309  -29.1540 H   0  0  0  0  0  0  0  0  0  0  0  0
   -6.6920   25.0384  -30.9085 H   0  0  0  0  0  0  0  0  0  0  0  0
   -5.7686   25.3031  -32.4483 H   0  0  0  0  0  0  0  0  0  0  0  0
   -7.3266   23.0673  -31.8151 H   0  0  0  0  0  0  0  0  0  0  0  0
   -6.0849   23.2004  -33.1285 H   0  0  0  0  0  0  0  0  0  0  0  0
   -5.7510   22.0780  -30.4000 H   0  0  0  0  0  0  0  0  0  0  0  0
   -4.4630   22.5500  -31.2820 H   0  0  0  0  0  0  0  0  0  0  0  0
   -7.8857   21.5697  -30.9627 H   0  0  0  0  0  0  0  0  0  0  0  0
   -9.8886   20.1021  -30.8808 H   0  0  0  0  0  0  0  0  0  0  0  0
   -9.8437   17.8614  -31.9584 H   0  0  0  0  0  0  0  0  0  0  0  0
   -7.8304   17.1173  -33.2003 H   0  0  0  0  0  0  0  0  0  0  0  0
   -6.0067   16.5719  -34.2200 H   0  0  0  0  0  0  0  0  0  0  0  0
   -6.6517   17.8784  -35.2706 H   0  0  0  0  0  0  0  0  0  0  0  0
   -4.8933   17.5116  -35.2706 H   0  0  0  0  0  0  0  0  0  0  0  0
   -2.8542   16.6833  -33.0388 H   0  0  0  0  0  0  0  0  0  0  0  0
   -3.7675   16.7169  -34.5853 H   0  0  0  0  0  0  0  0  0  0  0  0
   -1.9911   16.9835  -34.5853 H   0  0  0  0  0  0  0  0  0  0  0  0
   -1.0951   19.0552  -34.4270 H   0  0  0  0  0  0  0  0  0  0  0  0
   -1.2126   21.4571  -33.8139 H   0  0  0  0  0  0  0  0  0  0  0  0
   -3.2297   22.3548  -32.6831 H   0  0  0  0  0  0  0  0  0  0  0  0
  1  2  1  0
  2  3  1  0
  3  4  1  0
  4  5  1  0
  3  6  1  0
  6  7  1  0
  7  8  1  0
  8  9  1  0
  9 10  1  0
 10 11  1  0
 11 12  1  0
 12 13  1  0
 13 14  1  0
 14 15  1  0
 15 16  1  0
 16 17  1  0
 17 18  1  0
 18 19  1  0
 19 20  1  0
 20 21  1  0
 21 22  1  0
 22 23  1  0
 23 24  1  0
 24 25  2  0
 25 26  1  0
 26 27  2  0
 27 28  1  0
 28 29  2  0
 29 30  1  0
 30 31  2  0
 31 32  1  0
 31 33  1  0
 33 34  2  0
 34 35  1  0
 34 36  1  0
 36 37  2  0
 37 38  1  0
 38 39  2  0
 39 24  1  0
 30 25  1  0
 39 33  1  0
  1 40  1  0
  1 41  1  0
  1 42  1  0
  2 43  1  0
  2 44  1  0
  4 45  1  0
  4 46  1  0
  5 47  1  0
  5 48  1  0
  5 49  1  0
  6 50  1  0
  6 51  1  0
  7 52  1  0
  7 53  1  0
  9 54  1  0
  9 55  1  0
 10 56  1  0
 10 57  1  0
 12 58  1  0
 12 59  1  0
 13 60  1  0
 13 61  1  0
 15 62  1  0
 15 63  1  0
 16 64  1  0
 16 65  1  0
 18 66  1  0
 18 67  1  0
 19 68  1  0
 19 69  1  0
 21 70  1  0
 21 71  1  0
 22 72  1  0
 22 73  1  0
 23 74  1  0
 23 75  1  0
 26 76  1  0
 27 77  1  0
 28 78  1  0
 29 79  1  0
 32 80  1  0
 32 81  1  0
 32 82  1  0
 35 83  1  0
 35 84  1  0
 35 85  1  0
 36 86  1  0
 37 87  1  0
 38 88  1  0
M  CHG  2  23   1  31   1
M  END
>  <UniqueID>  (17) 
17

>  <SMILES>  (17) 
CCN(CC)CCOCCOCCOCCOCCOCC[NH2+]c1c2ccccc2[n+](C)c2c(C)cccc12

>  <Energy>  (17) 
135.7353054409275

>  <Genealogy>  (17) 
CCN(CC)CCOCCOCCOCCOCCOCC[NH2+]c1c2ccccc2[n+](C)c2c(C)cccc12 (protonated)
CCN(CC)CCOCCOCCOCCOCCOCC[NH2+]c1c2ccccc2[n+](C)c2c(C)cccc12 (3D coordinates assigned)
CCN(CC)CCOCCOCCOCCOCCOCC[NH2+]c1c2ccccc2[n+](C)c2c(C)cccc12 (optimized conformer: 135.7353054409275 kcal/mol)

>  <smiles>  (17) 
CCN(CC)CCOCCOCCOCCOCCOCCNc1c2ccccc2[n+](C)c2c(C)cccc12

>  <score_type>  (17) 
oracle

>  <origin>  (17) 
adg

>  <m_score__min__energy>  (17) 
-8.5700000000000003

>  <m_primary>  (17) 
energy

$$$$
17:0
     RDKit          3D

 68 68  0  0  0  0  0  0  0  0999 V2000
   -2.7240   21.8240  -32.3670 C   0  0  0  0  0  0  0  0  0  0  0  0
   -3.8140   21.3630  -33.3470 C   0  0  0  0  0  0  0  0  0  0  0  0
   -4.2020   19.9410  -33.1940 N   0  0  0  0  0  0  0  0  0  0  0  0
   -3.1310   19.0230  -33.6300 C   0  0  0  0  0  0  0  0  0  0  0  0
   -5.4970   19.6390  -33.8420 C   0  0  0  0  0  0  0  0  0  0  0  0
   -5.7860   18.1380  -33.8140 C   0  0  0  0  0  0  0  0  0  0  0  0
   -6.2100   17.7760  -32.5150 O   0  0  0  0  0  0  0  0  0  0  0  0
   -7.6070   17.5470  -32.4930 C   0  0  0  0  0  0  0  0  0  0  0  0
   -8.3020   18.5080  -31.5240 C   0  0  0  0  0  0  0  0  0  0  0  0
   -9.1930   19.3500  -32.2320 O   0  0  0  0  0  0  0  0  0  0  0  0
   -8.6820   20.6660  -32.3100 C   0  0  0  0  0  0  0  0  0  0  0  0
   -7.9090   20.9870  -31.0370 C   0  0  0  0  0  0  0  0  0  0  0  0
   -6.5220   20.8460  -31.2760 O   0  0  0  0  0  0  0  0  0  0  0  0
   -5.8240   22.0070  -30.8580 C   0  0  0  0  0  0  0  0  0  0  0  0
   -6.3130   23.2260  -31.6480 C   0  0  0  0  0  0  0  0  0  0  0  0
   -7.2670   24.1280  -30.8480 C   0  0  0  0  0  0  0  0  0  0  0  0
   -6.5760   24.8280  -29.7520 N   0  0  0  0  0  0  0  0  0  0  0  0
   -5.2410   25.3250  -30.1250 C   0  0  0  0  0  0  0  0  0  0  0  0
   -4.1280   24.5940  -29.4250 C   0  0  0  0  0  0  0  0  0  0  0  0
   -4.3890   23.7220  -28.5500 O   0  0  0  0  0  0  0  0  0  0  0  0
   -2.7690   24.9290  -29.7280 N   0  0  0  0  0  0  0  0  0  0  0  0
   -1.6790   24.7400  -28.7810 C   0  0  0  0  0  0  0  0  0  0  0  0
   -1.6330   23.3020  -28.3570 C   0  0  0  0  0  0  0  0  0  0  0  0
   -1.6270   22.2800  -29.3210 C   0  0  0  0  0  0  0  0  0  0  0  0
   -1.5350   20.9410  -28.9250 C   0  0  0  0  0  0  0  0  0  0  0  0
   -1.4270   20.6150  -27.5680 C   0  0  0  0  0  0  0  0  0  0  0  0
   -1.2790   18.9000  -27.0600 S   0  0  0  0  0  0  0  0  0  0  0  0
   -2.8480   18.9150  -26.1340 C   0  0  0  0  0  0  0  0  0  0  0  0
   -1.4340   21.6300  -26.6040 C   0  0  0  0  0  0  0  0  0  0  0  0
   -1.5330   22.9680  -26.9960 C   0  0  0  0  0  0  0  0  0  0  0  0
   -3.0731   21.6764  -31.3344 H   0  0  0  0  0  0  0  0  0  0  0  0
   -1.8094   21.2356  -32.5325 H   0  0  0  0  0  0  0  0  0  0  0  0
   -2.5091   22.8900  -32.5325 H   0  0  0  0  0  0  0  0  0  0  0  0
   -4.7076   21.9842  -33.1871 H   0  0  0  0  0  0  0  0  0  0  0  0
   -3.3973   21.4713  -34.3593 H   0  0  0  0  0  0  0  0  0  0  0  0
   -2.6325   18.5957  -32.7474 H   0  0  0  0  0  0  0  0  0  0  0  0
   -3.5658   18.2128  -34.2337 H   0  0  0  0  0  0  0  0  0  0  0  0
   -2.3968   19.5766  -34.2337 H   0  0  0  0  0  0  0  0  0  0  0  0
   -6.2990   20.1699  -33.3081 H   0  0  0  0  0  0  0  0  0  0  0  0
   -5.4495   19.9675  -34.8907 H   0  0  0  0  0  0  0  0  0  0  0  0
   -6.5777   17.9011  -34.5400 H   0  0  0  0  0  0  0  0  0  0  0  0
   -4.8761   17.5790  -34.0776 H   0  0  0  0  0  0  0  0  0  0  0  0
   -8.0130   17.6986  -33.5040 H   0  0  0  0  0  0  0  0  0  0  0  0
   -7.7893   16.5155  -32.1570 H   0  0  0  0  0  0  0  0  0  0  0  0
   -8.8645   17.9285  -30.7772 H   0  0  0  0  0  0  0  0  0  0  0  0
   -7.5429   19.1263  -31.0225 H   0  0  0  0  0  0  0  0  0  0  0  0
   -8.0103   20.7477  -33.1773 H   0  0  0  0  0  0  0  0  0  0  0  0
   -9.5143   21.3764  -32.4225 H   0  0  0  0  0  0  0  0  0  0  0  0
   -8.1242   22.0208  -30.7289 H   0  0  0  0  0  0  0  0  0  0  0  0
   -8.2146   20.2939  -30.2394 H   0  0  0  0  0  0  0  0  0  0  0  0
   -6.0023   22.1727  -29.7853 H   0  0  0  0  0  0  0  0  0  0  0  0
   -4.7483   21.8666  -31.0402 H   0  0  0  0  0  0  0  0  0  0  0  0
   -5.4381   23.8219  -31.9470 H   0  0  0  0  0  0  0  0  0  0  0  0
   -6.8738   22.8478  -32.5154 H   0  0  0  0  0  0  0  0  0  0  0  0
   -7.7026   24.8752  -31.5276 H   0  0  0  0  0  0  0  0  0  0  0  0
   -8.0462   23.4901  -30.4055 H   0  0  0  0  0  0  0  0  0  0  0  0
   -6.4800   24.1710  -28.9410 H   0  0  0  0  0  0  0  0  0  0  0  0
   -5.1121   25.2041  -31.2107 H   0  0  0  0  0  0  0  0  0  0  0  0
   -5.1849   26.3808  -29.8214 H   0  0  0  0  0  0  0  0  0  0  0  0
   -0.7263   25.0128  -29.2584 H   0  0  0  0  0  0  0  0  0  0  0  0
   -1.8419   25.3784  -27.9001 H   0  0  0  0  0  0  0  0  0  0  0  0
   -1.6948   22.5329  -30.3894 H   0  0  0  0  0  0  0  0  0  0  0  0
   -1.5476   20.1428  -29.6818 H   0  0  0  0  0  0  0  0  0  0  0  0
   -2.6367   18.9130  -25.0545 H   0  0  0  0  0  0  0  0  0  0  0  0
   -3.4187   19.8186  -26.3942 H   0  0  0  0  0  0  0  0  0  0  0  0
   -3.4359   18.0224  -26.3942 H   0  0  0  0  0  0  0  0  0  0  0  0
   -1.3615   21.3743  -25.5366 H   0  0  0  0  0  0  0  0  0  0  0  0
   -1.5326   23.7629  -26.2356 H   0  0  0  0  0  0  0  0  0  0  0  0
  1  2  1  0
  2  3  1  0
  3  4  1  0
  3  5  1  0
  5  6  1  0
  6  7  1  0
  7  8  1  0
  8  9  1  0
  9 10  1  0
 10 11  1  0
 11 12  1  0
 12 13  1  0
 13 14  1  0
 14 15  1  0
 15 16  1  0
 16 17  1  0
 17 18  1  0
 18 19  1  0
 19 20  2  0
 19 21  1  0
 21 22  1  0
 22 23  1  0
 23 24  2  0
 24 25  1  0
 25 26  2  0
 26 27  1  0
 27 28  1  0
 26 29  1  0
 29 30  2  0
 30 23  1  0
  1 31  1  0
  1 32  1  0
  1 33  1  0
  2 34  1  0
  2 35  1  0
  4 36  1  0
  4 37  1  0
  4 38  1  0
  5 39  1  0
  5 40  1  0
  6 41  1  0
  6 42  1  0
  8 43  1  0
  8 44  1  0
  9 45  1  0
  9 46  1  0
 11 47  1  0
 11 48  1  0
 12 49  1  0
 12 50  1  0
 14 51  1  0
 14 52  1  0
 15 53  1  0
 15 54  1  0
 16 55  1  0
 16 56  1  0
 17 57  1  0
 18 58  1  0
 18 59  1  0
 22 60  1  0
 22 61  1  0
 24 62  1  0
 25 63  1  0
 28 64  1  0
 28 65  1  0
 28 66  1  0
 29 67  1  0
 30 68  1  0
M  CHG  1  21  -1
M  END
>  <UniqueID>  (18) 
18

>  <SMILES>  (18) 
CCN(C)CCOCCOCCOCCCNCC(=O)[N-]Cc1ccc(SC)cc1

>  <Energy>  (18) 
57.194384529321816

>  <Genealogy>  (18) 
CCN(C)CCOCCOCCOCCCNCC(=O)[N-]Cc1ccc(SC)cc1 (protonated)
CCN(C)CCOCCOCCOCCCNCC(=O)[N-]Cc1ccc(SC)cc1 (3D coordinates assigned)
CCN(C)CCOCCOCCOCCCNCC(=O)[N-]Cc1ccc(SC)cc1 (optimized conformer: 57.194384529321816 kcal/mol)

>  <smiles>  (18) 
CCN(C)CCOCCOCCOCCCNCC(=O)NCc1ccc(SC)cc1

>  <score_type>  (18) 
oracle

>  <origin>  (18) 
adg

>  <m_score__min__energy>  (18) 
-9.9199999999999999

>  <m_primary>  (18) 
energy

$$$$
18:0
     RDKit          3D

 66 68  0  0  0  0  0  0  0  0999 V2000
   -0.7240   29.9110  -25.6600 C   0  0  0  0  0  0  0  0  0  0  0  0
   -0.4510   28.6990  -26.5630 C   0  0  0  0  0  0  0  0  0  0  0  0
   -0.3160   27.4130  -25.8350 N   0  0  0  0  0  0  0  0  0  0  0  0
   -0.8940   27.4350  -24.4710 C   0  0  0  0  0  0  0  0  0  0  0  0
   -0.8160   26.0550  -23.8210 C   0  0  0  0  0  0  0  0  0  0  0  0
   -0.7780   26.2490  -26.6270 C   0  0  0  0  0  0  0  0  0  0  0  0
   -0.8360   26.5990  -28.1280 C   0  0  0  0  0  0  0  0  0  0  0  0
   -1.7370   25.7680  -28.8380 O   0  0  0  0  0  0  0  0  0  0  0  0
   -1.3460   24.4090  -28.7720 C   0  0  0  0  0  0  0  0  0  0  0  0
   -2.4860   23.5310  -29.2750 C   0  0  0  0  0  0  0  0  0  0  0  0
   -3.6710   24.2950  -29.3230 O   0  0  0  0  0  0  0  0  0  0  0  0
   -3.7290   24.8500  -30.5630 N   0  0  0  0  0  0  0  0  0  0  0  0
   -5.0880   25.3530  -30.7770 C   0  0  0  0  0  0  0  0  0  0  0  0
   -6.0240   24.2040  -31.1760 C   0  0  0  0  0  0  0  0  0  0  0  0
   -5.6770   22.9620  -30.4670 N   0  0  0  0  0  0  0  0  0  0  0  0
   -5.7900   21.8180  -31.3600 C   0  0  0  0  0  0  0  0  0  0  0  0
   -4.6420   21.2910  -32.0090 C   0  0  0  0  0  0  0  0  0  0  0  0
   -3.3350   21.7550  -31.7080 C   0  0  0  0  0  0  0  0  0  0  0  0
   -2.2320   21.3110  -32.4320 C   0  0  0  0  0  0  0  0  0  0  0  0
   -2.3970   20.4070  -33.4680 C   0  0  0  0  0  0  0  0  0  0  0  0
   -3.6590   19.8930  -33.7510 C   0  0  0  0  0  0  0  0  0  0  0  0
   -4.7970   20.2720  -32.9890 C   0  0  0  0  0  0  0  0  0  0  0  0
   -6.0280   19.6820  -33.1940 N   0  0  0  0  0  0  0  0  0  0  0  0
   -6.1230   18.4210  -33.9660 C   0  0  0  0  0  0  0  0  0  0  0  0
   -7.1660   20.2240  -32.6290 C   0  0  0  0  0  0  0  0  0  0  0  0
   -8.4610   19.7760  -33.0010 C   0  0  0  0  0  0  0  0  0  0  0  0
   -9.6030   20.2490  -32.3620 C   0  0  0  0  0  0  0  0  0  0  0  0
   -9.4900   21.1840  -31.3430 C   0  0  0  0  0  0  0  0  0  0  0  0
   -8.2390   21.6840  -30.9910 C   0  0  0  0  0  0  0  0  0  0  0  0
   -7.0620   21.2530  -31.6520 C   0  0  0  0  0  0  0  0  0  0  0  0
   -0.6552   29.6055  -24.6055 H   0  0  0  0  0  0  0  0  0  0  0  0
    0.0200   30.6951  -25.8639 H   0  0  0  0  0  0  0  0  0  0  0  0
   -1.7324   30.3004  -25.8639 H   0  0  0  0  0  0  0  0  0  0  0  0
   -1.2839   28.6057  -27.2755 H   0  0  0  0  0  0  0  0  0  0  0  0
    0.5147   28.8847  -27.0560 H   0  0  0  0  0  0  0  0  0  0  0  0
   -0.3350   28.1548  -23.8550 H   0  0  0  0  0  0  0  0  0  0  0  0
   -1.9515   27.7290  -24.5433 H   0  0  0  0  0  0  0  0  0  0  0  0
   -0.8222   26.1644  -22.7265 H   0  0  0  0  0  0  0  0  0  0  0  0
   -1.6815   25.4527  -24.1342 H   0  0  0  0  0  0  0  0  0  0  0  0
    0.1119   25.5541  -24.1342 H   0  0  0  0  0  0  0  0  0  0  0  0
   -0.0806   25.4114  -26.4783 H   0  0  0  0  0  0  0  0  0  0  0  0
   -1.7872   25.9700  -26.2898 H   0  0  0  0  0  0  0  0  0  0  0  0
   -1.1595   27.6449  -28.2354 H   0  0  0  0  0  0  0  0  0  0  0  0
    0.1684   26.4446  -28.5492 H   0  0  0  0  0  0  0  0  0  0  0  0
   -0.4567   24.2517  -29.4000 H   0  0  0  0  0  0  0  0  0  0  0  0
   -1.1091   24.1442  -27.7310 H   0  0  0  0  0  0  0  0  0  0  0  0
   -2.2471   23.1583  -30.2820 H   0  0  0  0  0  0  0  0  0  0  0  0
   -2.6232   22.6769  -28.5956 H   0  0  0  0  0  0  0  0  0  0  0  0
   -3.0780   25.6690  -30.5560 H   0  0  0  0  0  0  0  0  0  0  0  0
   -5.4548   25.8141  -29.8481 H   0  0  0  0  0  0  0  0  0  0  0  0
   -5.0707   26.0981  -31.5860 H   0  0  0  0  0  0  0  0  0  0  0  0
   -7.0588   24.4817  -30.9271 H   0  0  0  0  0  0  0  0  0  0  0  0
   -5.9178   24.0285  -32.2567 H   0  0  0  0  0  0  0  0  0  0  0  0
   -6.2720   22.8460  -29.6180 H   0  0  0  0  0  0  0  0  0  0  0  0
   -4.7150   23.0210  -30.0700 H   0  0  0  0  0  0  0  0  0  0  0  0
   -3.1913   22.4765  -30.8902 H   0  0  0  0  0  0  0  0  0  0  0  0
   -1.2265   21.6793  -32.1804 H   0  0  0  0  0  0  0  0  0  0  0  0
   -1.5295   20.0948  -34.0680 H   0  0  0  0  0  0  0  0  0  0  0  0
   -3.7778   19.1800  -34.5801 H   0  0  0  0  0  0  0  0  0  0  0  0
   -6.1871   17.5701  -33.2719 H   0  0  0  0  0  0  0  0  0  0  0  0
   -7.0218   18.4458  -34.5996 H   0  0  0  0  0  0  0  0  0  0  0  0
   -5.2306   18.3109  -34.5996 H   0  0  0  0  0  0  0  0  0  0  0  0
   -8.5636   19.0394  -33.8115 H   0  0  0  0  0  0  0  0  0  0  0  0
  -10.5948   19.8819  -32.6645 H   0  0  0  0  0  0  0  0  0  0  0  0
  -10.3894   21.5305  -30.8128 H   0  0  0  0  0  0  0  0  0  0  0  0
   -8.1629   22.4279  -30.1843 H   0  0  0  0  0  0  0  0  0  0  0  0
  1  2  1  0
  2  3  1  0
  3  4  1  0
  4  5  1  0
  3  6  1  0
  6  7  1  0
  7  8  1  0
  8  9  1  0
  9 10  1  0
 10 11  1  0
 11 12  1  0
 12 13  1  0
 13 14  1  0
 14 15  1  0
 15 16  1  0
 16 17  2  0
 17 18  1  0
 18 19  2  0
 19 20  1  0
 20 21  2  0
 21 22  1  0
 22 23  2  0
 23 24  1  0
 23 25  1  0
 25 26  2  0
 26 27  1  0
 27 28  2  0
 28 29  1  0
 29 30  2  0
 30 16  1  0
 22 17  1  0
 30 25  1  0
  1 31  1  0
  1 32  1  0
  1 33  1  0
  2 34  1  0
  2 35  1  0
  4 36  1  0
  4 37  1  0
  5 38  1  0
  5 39  1  0
  5 40  1  0
  6 41  1  0
  6 42  1  0
  7 43  1  0
  7 44  1  0
  9 45  1  0
  9 46  1  0
 10 47  1  0
 10 48  1  0
 12 49  1  0
 13 50  1  0
 13 51  1  0
 14 52  1  0
 14 53  1  0
 15 54  1  0
 15 55  1  0
 18 56  1  0
 19 57  1  0
 20 58  1  0
 21 59  1  0
 24 60  1  0
 24 61  1  0
 24 62  1  0
 26 63  1  0
 27 64  1  0
 28 65  1  0
 29 66  1  0
M  CHG  2  15   1  23   1
M  END
>  <UniqueID>  (19) 
19

>  <SMILES>  (19) 
CCN(CC)CCOCCONCC[NH2+]c1c2ccccc2[n+](C)c2ccccc12

>  <Energy>  (19) 
93.61280301908388

>  <Genealogy>  (19) 
CCN(CC)CCOCCONCC[NH2+]c1c2ccccc2[n+](C)c2ccccc12 (protonated)
CCN(CC)CCOCCONCC[NH2+]c1c2ccccc2[n+](C)c2ccccc12 (3D coordinates assigned)
CCN(CC)CCOCCONCC[NH2+]c1c2ccccc2[n+](C)c2ccccc12 (optimized conformer: 93.61280301908388 kcal/mol)

>  <smiles>  (19) 
CCN(CC)CCOCCONCCNc1c2ccccc2[n+](C)c2ccccc12

>  <score_type>  (19) 
oracle

>  <origin>  (19) 
adg

>  <m_score__min__energy>  (19) 
-8.4399999999999995

>  <m_primary>  (19) 
energy

$$$$
19:0
     RDKit          3D

 58 60  0  0  0  0  0  0  0  0999 V2000
   -1.9720   25.3990  -26.7480 C   0  0  0  0  0  0  0  0  0  0  0  0
   -1.2670   26.2150  -27.8370 C   0  0  0  0  0  0  0  0  0  0  0  0
   -1.1520   25.4820  -29.1070 N   0  0  0  0  0  0  0  0  0  0  0  0
   -1.0110   24.0340  -28.9080 C   0  0  0  0  0  0  0  0  0  0  0  0
   -1.9870   23.2710  -29.8100 C   0  0  0  0  0  0  0  0  0  0  0  0
   -3.2250   22.7900  -29.0380 C   0  0  0  0  0  0  0  0  0  0  0  0
   -4.4010   22.6240  -29.9300 N   0  0  0  0  0  0  0  0  0  0  0  0
   -4.7340   23.9150  -30.5790 C   0  0  0  0  0  0  0  0  0  0  0  0
   -5.6630   24.7410  -29.6900 C   0  0  0  0  0  0  0  0  0  0  0  0
   -4.1860   21.5390  -30.9280 C   0  0  0  0  0  0  0  0  0  0  0  0
   -3.7620   22.1310  -32.2900 C   0  0  0  0  0  0  0  0  0  0  0  0
   -4.4490   21.5230  -33.4450 N   0  0  0  0  0  0  0  0  0  0  0  0
   -5.6400   20.7810  -33.0650 C   0  0  0  0  0  0  0  0  0  0  0  0
   -6.8280   21.3940  -32.5620 C   0  0  0  0  0  0  0  0  0  0  0  0
   -6.9500   22.7980  -32.4140 C   0  0  0  0  0  0  0  0  0  0  0  0
   -8.1300   23.3740  -31.9540 C   0  0  0  0  0  0  0  0  0  0  0  0
   -9.2230   22.5790  -31.6430 C   0  0  0  0  0  0  0  0  0  0  0  0
   -9.1400   21.1960  -31.7640 C   0  0  0  0  0  0  0  0  0  0  0  0
   -7.9450   20.5650  -32.1950 C   0  0  0  0  0  0  0  0  0  0  0  0
   -7.8570   19.1840  -32.2720 N   0  0  0  0  0  0  0  0  0  0  0  0
   -8.9220   18.3200  -31.7220 C   0  0  0  0  0  0  0  0  0  0  0  0
   -6.7560   18.6190  -32.8660 C   0  0  0  0  0  0  0  0  0  0  0  0
   -6.5840   17.2530  -33.1810 C   0  0  0  0  0  0  0  0  0  0  0  0
   -5.3610   16.9720  -33.7780 C   0  0  0  0  0  0  0  0  0  0  0  0
   -4.4980   18.4050  -33.9330 S   0  0  0  0  0  0  0  0  0  0  0  0
   -5.6710   19.3950  -33.2380 C   0  0  0  0  0  0  0  0  0  0  0  0
   -1.6589   25.7614  -25.7577 H   0  0  0  0  0  0  0  0  0  0  0  0
   -3.0612   25.5121  -26.8523 H   0  0  0  0  0  0  0  0  0  0  0  0
   -1.7019   24.3378  -26.8523 H   0  0  0  0  0  0  0  0  0  0  0  0
   -1.8402   27.1372  -28.0130 H   0  0  0  0  0  0  0  0  0  0  0  0
   -0.2481   26.4321  -27.4839 H   0  0  0  0  0  0  0  0  0  0  0  0
   -1.9990   25.6680  -29.6940 H   0  0  0  0  0  0  0  0  0  0  0  0
    0.0185   23.7335  -29.1527 H   0  0  0  0  0  0  0  0  0  0  0  0
   -1.2361   23.7955  -27.8580 H   0  0  0  0  0  0  0  0  0  0  0  0
   -2.3118   23.9353  -30.6244 H   0  0  0  0  0  0  0  0  0  0  0  0
   -1.4659   22.3858  -30.2037 H   0  0  0  0  0  0  0  0  0  0  0  0
   -2.9968   21.8230  -28.5660 H   0  0  0  0  0  0  0  0  0  0  0  0
   -3.4734   23.5499  -28.2824 H   0  0  0  0  0  0  0  0  0  0  0  0
   -3.8070   24.4800  -30.7564 H   0  0  0  0  0  0  0  0  0  0  0  0
   -5.2442   23.7113  -31.5320 H   0  0  0  0  0  0  0  0  0  0  0  0
   -5.4350   24.5383  -28.6331 H   0  0  0  0  0  0  0  0  0  0  0  0
   -5.5145   25.8108  -29.8985 H   0  0  0  0  0  0  0  0  0  0  0  0
   -6.7081   24.4684  -29.8985 H   0  0  0  0  0  0  0  0  0  0  0  0
   -3.3962   20.8649  -30.5650 H   0  0  0  0  0  0  0  0  0  0  0  0
   -5.1275   20.9854  -31.0590 H   0  0  0  0  0  0  0  0  0  0  0  0
   -3.9829   23.2086  -32.2833 H   0  0  0  0  0  0  0  0  0  0  0  0
   -2.6889   21.9211  -32.4096 H   0  0  0  0  0  0  0  0  0  0  0  0
   -3.7800   20.8570  -33.8980 H   0  0  0  0  0  0  0  0  0  0  0  0
   -4.6170   22.2450  -34.1740 H   0  0  0  0  0  0  0  0  0  0  0  0
   -6.0965   23.4440  -32.6673 H   0  0  0  0  0  0  0  0  0  0  0  0
   -8.1964   24.4657  -31.8364 H   0  0  0  0  0  0  0  0  0  0  0  0
  -10.1588   23.0439  -31.2994 H   0  0  0  0  0  0  0  0  0  0  0  0
  -10.0180   20.5796  -31.5208 H   0  0  0  0  0  0  0  0  0  0  0  0
   -8.8865   18.3488  -30.6230 H   0  0  0  0  0  0  0  0  0  0  0  0
   -9.9020   18.6815  -32.0668 H   0  0  0  0  0  0  0  0  0  0  0  0
   -8.7703   17.2865  -32.0668 H   0  0  0  0  0  0  0  0  0  0  0  0
   -7.3445   16.4858  -32.9738 H   0  0  0  0  0  0  0  0  0  0  0  0
   -5.0156   15.9772  -34.0960 H   0  0  0  0  0  0  0  0  0  0  0  0
  1  2  1  0
  2  3  1  0
  3  4  1  0
  4  5  1  0
  5  6  1  0
  6  7  1  0
  7  8  1  0
  8  9  1  0
  7 10  1  0
 10 11  1  0
 11 12  1  0
 12 13  1  0
 13 14  2  0
 14 15  1  0
 15 16  2  0
 16 17  1  0
 17 18  2  0
 18 19  1  0
 19 20  2  0
 20 21  1  0
 20 22  1  0
 22 23  1  0
 23 24  2  0
 24 25  1  0
 25 26  1  0
 26 13  1  0
 19 14  1  0
 26 22  2  0
  1 27  1  0
  1 28  1  0
  1 29  1  0
  2 30  1  0
  2 31  1  0
  3 32  1  0
  4 33  1  0
  4 34  1  0
  5 35  1  0
  5 36  1  0
  6 37  1  0
  6 38  1  0
  8 39  1  0
  8 40  1  0
  9 41  1  0
  9 42  1  0
  9 43  1  0
 10 44  1  0
 10 45  1  0
 11 46  1  0
 11 47  1  0
 12 48  1  0
 12 49  1  0
 15 50  1  0
 16 51  1  0
 17 52  1  0
 18 53  1  0
 21 54  1  0
 21 55  1  0
 21 56  1  0
 23 57  1  0
 24 58  1  0
M  CHG  2  12   1  20   1
M  END
>  <UniqueID>  (20) 
20

>  <SMILES>  (20) 
CCNCCCN(CC)CC[NH2+]c1c2ccccc2[n+](C)c2ccsc12

>  <Energy>  (20) 
103.614798258632

>  <Genealogy>  (20) 
CCNCCCN(CC)CC[NH2+]c1c2ccccc2[n+](C)c2ccsc12 (protonated)
CCNCCCN(CC)CC[NH2+]c1c2ccccc2[n+](C)c2ccsc12 (3D coordinates assigned)
CCNCCCN(CC)CC[NH2+]c1c2ccccc2[n+](C)c2ccsc12 (optimized conformer: 103.614798258632 kcal/mol)

>  <smiles>  (20) 
CCNCCCN(CC)CCNc1c2ccccc2[n+](C)c2ccsc12

>  <score_type>  (20) 
oracle

>  <origin>  (20) 
adg

>  <m_score__min__energy>  (20) 
-8.3300000000000001

>  <m_primary>  (20) 
energy

$$$$
20:0
     RDKit          3D

 79 82  0  0  0  0  0  0  0  0999 V2000
    0.4740   21.2640  -34.3300 C   0  0  0  0  0  0  0  0  0  0  0  0
   -0.7970   21.2070  -33.4690 C   0  0  0  0  0  0  0  0  0  0  0  0
   -0.5840   20.2290  -32.2970 C   0  0  0  0  0  0  0  0  0  0  0  0
   -1.9840   20.8260  -34.2860 N   0  0  0  0  0  0  0  0  0  0  0  0
   -2.5720   19.5370  -33.8750 C   0  0  0  0  0  0  0  0  0  0  0  0
   -4.0570   19.6710  -33.5030 C   0  0  0  0  0  0  0  0  0  0  0  0
   -4.2060   19.9660  -32.0820 N   0  0  0  0  0  0  0  0  0  0  0  0
   -4.9700   21.0990  -31.6480 C   0  0  0  0  0  0  0  0  0  0  0  0
   -6.3740   21.0660  -31.7020 C   0  0  0  0  0  0  0  0  0  0  0  0
   -7.0480   19.9320  -32.2030 C   0  0  0  0  0  0  0  0  0  0  0  0
   -8.4390   19.8940  -32.2450 C   0  0  0  0  0  0  0  0  0  0  0  0
   -9.1790   20.9690  -31.7690 C   0  0  0  0  0  0  0  0  0  0  0  0
   -8.5340   22.0960  -31.2610 C   0  0  0  0  0  0  0  0  0  0  0  0
   -7.1170   22.1850  -31.2420 C   0  0  0  0  0  0  0  0  0  0  0  0
   -6.4630   23.3090  -30.7700 N   0  0  0  0  0  0  0  0  0  0  0  0
   -7.2260   24.5540  -30.5280 C   0  0  0  0  0  0  0  0  0  0  0  0
   -5.0950   23.2780  -30.5630 C   0  0  0  0  0  0  0  0  0  0  0  0
   -4.4270   24.2880  -29.8230 C   0  0  0  0  0  0  0  0  0  0  0  0
   -3.0290   24.2930  -29.6920 C   0  0  0  0  0  0  0  0  0  0  0  0
   -2.3530   25.2620  -28.9370 O   0  0  0  0  0  0  0  0  0  0  0  0
   -1.2780   24.9560  -28.0520 C   0  0  0  0  0  0  0  0  0  0  0  0
   -1.7620   24.7870  -26.5910 C   0  0  0  0  0  0  0  0  0  0  0  0
   -0.8920   25.3630  -25.5080 N   0  0  0  0  0  0  0  0  0  0  0  0
   -0.5090   24.2810  -24.5560 C   0  0  0  0  0  0  0  0  0  0  0  0
   -1.5960   26.4800  -24.7780 C   0  0  0  0  0  0  0  0  0  0  0  0
   -0.8780   27.8480  -24.8310 C   0  0  0  0  0  0  0  0  0  0  0  0
    0.5710   27.7680  -24.4920 N   0  0  0  0  0  0  0  0  0  0  0  0
    1.1850   29.0780  -24.8240 C   0  0  0  0  0  0  0  0  0  0  0  0
    0.7350   27.5610  -23.0280 C   0  0  0  0  0  0  0  0  0  0  0  0
    1.2730   26.6770  -25.2510 C   0  0  0  0  0  0  0  0  0  0  0  0
    0.3470   25.8630  -26.1810 C   0  0  0  0  0  0  0  0  0  0  0  0
   -2.2820   23.2940  -30.3090 C   0  0  0  0  0  0  0  0  0  0  0  0
   -2.9170   22.2420  -30.9630 C   0  0  0  0  0  0  0  0  0  0  0  0
   -4.3230   22.2020  -31.0670 C   0  0  0  0  0  0  0  0  0  0  0  0
    1.3580   21.3036  -33.6766 H   0  0  0  0  0  0  0  0  0  0  0  0
    0.5273   20.3673  -34.9650 H   0  0  0  0  0  0  0  0  0  0  0  0
    0.4468   22.1618  -34.9650 H   0  0  0  0  0  0  0  0  0  0  0  0
   -0.9957   22.2087  -33.0602 H   0  0  0  0  0  0  0  0  0  0  0  0
   -0.7011   20.7669  -31.3447 H   0  0  0  0  0  0  0  0  0  0  0  0
   -1.3270   19.4199  -32.3549 H   0  0  0  0  0  0  0  0  0  0  0  0
    0.4282   19.8022  -32.3549 H   0  0  0  0  0  0  0  0  0  0  0  0
   -2.7400   21.5450  -34.1920 H   0  0  0  0  0  0  0  0  0  0  0  0
   -1.7500   20.7900  -35.3050 H   0  0  0  0  0  0  0  0  0  0  0  0
   -2.4777   18.8230  -34.7065 H   0  0  0  0  0  0  0  0  0  0  0  0
   -2.0301   19.1864  -32.9842 H   0  0  0  0  0  0  0  0  0  0  0  0
   -4.5046   20.4863  -34.0903 H   0  0  0  0  0  0  0  0  0  0  0  0
   -4.5648   18.7203  -33.7229 H   0  0  0  0  0  0  0  0  0  0  0  0
   -3.8790   19.2880  -31.3600 H   0  0  0  0  0  0  0  0  0  0  0  0
   -6.4686   19.0695  -32.5639 H   0  0  0  0  0  0  0  0  0  0  0  0
   -8.9525   19.0121  -32.6554 H   0  0  0  0  0  0  0  0  0  0  0  0
  -10.2781   20.9310  -31.7929 H   0  0  0  0  0  0  0  0  0  0  0  0
   -9.1333   22.9306  -30.8682 H   0  0  0  0  0  0  0  0  0  0  0  0
   -7.3264   24.7178  -29.4449 H   0  0  0  0  0  0  0  0  0  0  0  0
   -6.6935   25.4040  -30.9796 H   0  0  0  0  0  0  0  0  0  0  0  0
   -8.2251   24.4654  -30.9796 H   0  0  0  0  0  0  0  0  0  0  0  0
   -5.0162   25.0829  -29.3424 H   0  0  0  0  0  0  0  0  0  0  0  0
   -0.8033   24.0194  -28.3798 H   0  0  0  0  0  0  0  0  0  0  0  0
   -0.5651   25.7933  -28.0799 H   0  0  0  0  0  0  0  0  0  0  0  0
   -2.7493   25.2656  -26.5120 H   0  0  0  0  0  0  0  0  0  0  0  0
   -1.7545   23.7014  -26.4135 H   0  0  0  0  0  0  0  0  0  0  0  0
   -0.6358   24.6391  -23.5237 H   0  0  0  0  0  0  0  0  0  0  0  0
   -1.1510   23.4032  -24.7210 H   0  0  0  0  0  0  0  0  0  0  0  0
    0.5423   24.0026  -24.7210 H   0  0  0  0  0  0  0  0  0  0  0  0
   -2.5952   26.6014  -25.2217 H   0  0  0  0  0  0  0  0  0  0  0  0
   -1.6221   26.1868  -23.7181 H   0  0  0  0  0  0  0  0  0  0  0  0
   -0.9764   28.2545  -25.8484 H   0  0  0  0  0  0  0  0  0  0  0  0
   -1.3530   28.4941  -24.0781 H   0  0  0  0  0  0  0  0  0  0  0  0
    1.4351   29.6116  -23.8952 H   0  0  0  0  0  0  0  0  0  0  0  0
    2.1007   28.9154  -25.4114 H   0  0  0  0  0  0  0  0  0  0  0  0
    0.4742   29.6778  -25.4114 H   0  0  0  0  0  0  0  0  0  0  0  0
    0.1416   28.3100  -22.4831 H   0  0  0  0  0  0  0  0  0  0  0  0
    0.3883   26.5522  -22.7592 H   0  0  0  0  0  0  0  0  0  0  0  0
    1.7963   27.6677  -22.7592 H   0  0  0  0  0  0  0  0  0  0  0  0
    2.0629   27.1353  -25.8642 H   0  0  0  0  0  0  0  0  0  0  0  0
    1.6708   25.9746  -24.5038 H   0  0  0  0  0  0  0  0  0  0  0  0
    0.0498   26.5048  -27.0235 H   0  0  0  0  0  0  0  0  0  0  0  0
    0.9150   24.9791  -26.5068 H   0  0  0  0  0  0  0  0  0  0  0  0
   -1.1832   23.3359  -30.2797 H   0  0  0  0  0  0  0  0  0  0  0  0
   -2.3157   21.4331  -31.4035 H   0  0  0  0  0  0  0  0  0  0  0  0
  1  2  1  0
  2  3  1  0
  2  4  1  0
  4  5  1  0
  5  6  1  0
  6  7  1  0
  7  8  1  0
  8  9  2  0
  9 10  1  0
 10 11  2  0
 11 12  1  0
 12 13  2  0
 13 14  1  0
 14 15  2  0
 15 16  1  0
 15 17  1  0
 17 18  2  0
 18 19  1  0
 19 20  1  0
 20 21  1  0
 21 22  1  0
 22 23  1  0
 23 24  1  0
 23 25  1  0
 25 26  1  0
 26 27  1  0
 27 28  1  0
 27 29  1  0
 27 30  1  0
 30 31  1  0
 19 32  2  0
 32 33  1  0
 33 34  2  0
 34  8  1  0
 14  9  1  0
 34 17  1  0
 31 23  1  0
  1 35  1  0
  1 36  1  0
  1 37  1  0
  2 38  1  0
  3 39  1  0
  3 40  1  0
  3 41  1  0
  4 42  1  0
  4 43  1  0
  5 44  1  0
  5 45  1  0
  6 46  1  0
  6 47  1  0
  7 48  1  0
 10 49  1  0
 11 50  1  0
 12 51  1  0
 13 52  1  0
 16 53  1  0
 16 54  1  0
 16 55  1  0
 18 56  1  0
 21 57  1  0
 21 58  1  0
 22 59  1  0
 22 60  1  0
 24 61  1  0
 24 62  1  0
 24 63  1  0
 25 64  1  0
 25 65  1  0
 26 66  1  0
 26 67  1  0
 28 68  1  0
 28 69  1  0
 28 70  1  0
 29 71  1  0
 29 72  1  0
 29 73  1  0
 30 74  1  0
 30 75  1  0
 31 76  1  0
 31 77  1  0
 32 78  1  0
 33 79  1  0
M  CHG  4   4   1  15   1  23   1  27   1
M  END
>  <UniqueID>  (21) 
21

>  <SMILES>  (21) 
CC(C)[NH2+]CCNc1c2ccccc2[n+](C)c2cc(OCC[N+]3(C)CC[N+](C)(C)CC3)ccc12

>  <Energy>  (21) 
138.30989953222698

>  <Genealogy>  (21) 
CC(C)[NH2+]CCNc1c2ccccc2[n+](C)c2cc(OCC[N+]3(C)CC[N+](C)(C)CC3)ccc12 (protonated)
CC(C)[NH2+]CCNc1c2ccccc2[n+](C)c2cc(OCC[N+]3(C)CC[N+](C)(C)CC3)ccc12 (3D coordinates assigned)
CC(C)[NH2+]CCNc1c2ccccc2[n+](C)c2cc(OCC[N+]3(C)CC[N+](C)(C)CC3)ccc12 (nonaromatic ring conformer: 138.30989953222698 kcal/mol)

>  <smiles>  (21) 
CC(C)NCCNc1c2ccccc2[n+](C)c2cc(OCC[N+]3(C)CC[N+](C)(C)CC3)ccc12

>  <score_type>  (21) 
oracle

>  <origin>  (21) 
adg

>  <m_score__min__energy>  (21) 
-7.7000000000000002

>  <m_primary>  (21) 
energy

$$$$
21:0
     RDKit          3D

 43 45  0  0  0  0  0  0  0  0999 V2000
   -5.7150   17.3320  -32.8760 C   0  0  0  0  0  0  0  0  0  0  0  0
   -5.8100   18.8110  -32.9000 N   0  0  0  0  0  0  0  0  0  0  0  0
   -4.6810   19.5700  -33.1410 C   0  0  0  0  0  0  0  0  0  0  0  0
   -3.4830   18.9920  -33.6360 C   0  0  0  0  0  0  0  0  0  0  0  0
   -2.3220   19.7500  -33.7790 C   0  0  0  0  0  0  0  0  0  0  0  0
   -2.3220   21.0970  -33.4380 C   0  0  0  0  0  0  0  0  0  0  0  0
   -3.4950   21.7060  -33.0010 C   0  0  0  0  0  0  0  0  0  0  0  0
   -4.6960   20.9710  -32.8990 C   0  0  0  0  0  0  0  0  0  0  0  0
   -5.9030   21.6010  -32.5400 C   0  0  0  0  0  0  0  0  0  0  0  0
   -5.9600   23.0320  -32.3770 N   0  0  0  0  0  0  0  0  0  0  0  0
   -6.1490   23.6630  -31.0680 C   0  0  0  0  0  0  0  0  0  0  0  0
   -5.6900   25.1330  -31.0780 C   0  0  0  0  0  0  0  0  0  0  0  0
   -4.2590   25.2900  -30.7640 N   0  0  0  0  0  0  0  0  0  0  0  0
   -3.6320   24.0180  -30.3810 C   0  0  0  0  0  0  0  0  0  0  0  0
   -3.2960   24.0120  -28.8890 C   0  0  0  0  0  0  0  0  0  0  0  0
   -1.5790   24.8540  -28.5490 Br  0  0  0  0  0  0  0  0  0  0  0  0
   -7.0720   20.8280  -32.4040 C   0  0  0  0  0  0  0  0  0  0  0  0
   -8.3070   21.4320  -32.0760 C   0  0  0  0  0  0  0  0  0  0  0  0
   -9.4790   20.6810  -32.0260 C   0  0  0  0  0  0  0  0  0  0  0  0
   -9.4470   19.3230  -32.3160 C   0  0  0  0  0  0  0  0  0  0  0  0
   -8.2390   18.7010  -32.6270 C   0  0  0  0  0  0  0  0  0  0  0  0
   -7.0200   19.4270  -32.6400 C   0  0  0  0  0  0  0  0  0  0  0  0
   -5.6926   16.9829  -31.8331 H   0  0  0  0  0  0  0  0  0  0  0  0
   -6.5873   16.9002  -33.3885 H   0  0  0  0  0  0  0  0  0  0  0  0
   -4.7947   17.0153  -33.3885 H   0  0  0  0  0  0  0  0  0  0  0  0
   -3.4705   17.9272  -33.9116 H   0  0  0  0  0  0  0  0  0  0  0  0
   -1.4040   19.2809  -34.1626 H   0  0  0  0  0  0  0  0  0  0  0  0
   -1.3940   21.6828  -33.5135 H   0  0  0  0  0  0  0  0  0  0  0  0
   -3.4860   22.7726  -32.7320 H   0  0  0  0  0  0  0  0  0  0  0  0
   -5.6640   23.6390  -33.1740 H   0  0  0  0  0  0  0  0  0  0  0  0
   -7.2159   23.6236  -30.8030 H   0  0  0  0  0  0  0  0  0  0  0  0
   -5.5417   23.1170  -30.3310 H   0  0  0  0  0  0  0  0  0  0  0  0
   -5.8779   25.5524  -32.0774 H   0  0  0  0  0  0  0  0  0  0  0  0
   -6.2585   25.6612  -30.2983 H   0  0  0  0  0  0  0  0  0  0  0  0
   -3.7610   25.6810  -31.5910 H   0  0  0  0  0  0  0  0  0  0  0  0
   -4.3260   23.1928  -30.5987 H   0  0  0  0  0  0  0  0  0  0  0  0
   -2.7018   23.8939  -30.9548 H   0  0  0  0  0  0  0  0  0  0  0  0
   -4.0782   24.5601  -28.3433 H   0  0  0  0  0  0  0  0  0  0  0  0
   -3.2437   22.9672  -28.5490 H   0  0  0  0  0  0  0  0  0  0  0  0
   -8.3431   22.5094  -31.8573 H   0  0  0  0  0  0  0  0  0  0  0  0
  -10.4302   21.1635  -31.7568 H   0  0  0  0  0  0  0  0  0  0  0  0
  -10.3776   18.7367  -32.3002 H   0  0  0  0  0  0  0  0  0  0  0  0
   -8.2306   17.6275  -32.8668 H   0  0  0  0  0  0  0  0  0  0  0  0
  1  2  1  0
  2  3  2  0
  3  4  1  0
  4  5  2  0
  5  6  1  0
  6  7  2  0
  7  8  1  0
  8  9  2  0
  9 10  1  0
 10 11  1  0
 11 12  1  0
 12 13  1  0
 13 14  1  0
 14 15  1  0
 15 16  1  0
  9 17  1  0
 17 18  2  0
 18 19  1  0
 19 20  2  0
 20 21  1  0
 21 22  2  0
 22  2  1  0
  8  3  1  0
 22 17  1  0
  1 23  1  0
  1 24  1  0
  1 25  1  0
  4 26  1  0
  5 27  1  0
  6 28  1  0
  7 29  1  0
 10 30  1  0
 11 31  1  0
 11 32  1  0
 12 33  1  0
 12 34  1  0
 13 35  1  0
 14 36  1  0
 14 37  1  0
 15 38  1  0
 15 39  1  0
 18 40  1  0
 19 41  1  0
 20 42  1  0
 21 43  1  0
M  CHG  1   2   1
M  END
>  <UniqueID>  (22) 
22

>  <SMILES>  (22) 
C[n+]1c2ccccc2c(NCCNCCBr)c2ccccc21

>  <Energy>  (22) 
67.13846107024071

>  <Genealogy>  (22) 
C[n+]1c2ccccc2c(NCCNCCBr)c2ccccc21 (3D coordinates assigned)
C[n+]1c2ccccc2c(NCCNCCBr)c2ccccc21 (optimized conformer: 67.13846107024071 kcal/mol)

>  <smiles>  (22) 
C[n+]1c2ccccc2c(NCCNCCBr)c2ccccc21

>  <score_type>  (22) 
oracle

>  <origin>  (22) 
adg

>  <m_score__min__energy>  (22) 
-9

>  <m_primary>  (22) 
energy

$$$$
22:0
     RDKit          3D

 50 52  0  0  0  0  0  0  0  0999 V2000
   -2.3730   23.8710  -29.6440 C   0  0  0  0  0  0  0  0  0  0  0  0
   -3.4880   23.4100  -30.5250 C   0  0  0  0  0  0  0  0  0  0  0  0
   -4.5580   24.1660  -30.8390 N   0  0  0  0  0  0  0  0  0  0  0  0
   -5.3340   23.4420  -31.6320 N   0  0  0  0  0  0  0  0  0  0  0  0
   -6.6260   23.8900  -32.1320 C   0  0  0  0  0  0  0  0  0  0  0  0
   -4.7990   22.2210  -31.8200 C   0  0  0  0  0  0  0  0  0  0  0  0
   -3.6070   22.1670  -31.1270 C   0  0  0  0  0  0  0  0  0  0  0  0
   -2.6720   20.9970  -31.0420 C   0  0  0  0  0  0  0  0  0  0  0  0
   -1.6600   21.0730  -32.1190 N   0  0  0  0  0  0  0  0  0  0  0  0
   -0.6580   19.9930  -32.0140 C   0  0  0  0  0  0  0  0  0  0  0  0
   -1.2630   18.6020  -32.3060 C   0  0  0  0  0  0  0  0  0  0  0  0
   -2.4710   18.6960  -33.1520 N   0  0  0  0  0  0  0  0  0  0  0  0
   -2.9110   17.3900  -33.6910 C   0  0  0  0  0  0  0  0  0  0  0  0
   -4.0410   17.4790  -34.7310 C   0  0  0  0  0  0  0  0  0  0  0  0
   -5.2810   17.1700  -34.0980 O   0  0  0  0  0  0  0  0  0  0  0  0
   -6.1380   18.1210  -33.5250 C   0  0  0  0  0  0  0  0  0  0  0  0
   -6.0950   19.4850  -33.8730 C   0  0  0  0  0  0  0  0  0  0  0  0
   -6.9710   20.3950  -33.2720 C   0  0  0  0  0  0  0  0  0  0  0  0
   -7.8970   19.9520  -32.3200 C   0  0  0  0  0  0  0  0  0  0  0  0
   -8.8000   20.8890  -31.7020 C   0  0  0  0  0  0  0  0  0  0  0  0
   -9.5240   21.6420  -31.2060 N   0  0  0  0  0  0  0  0  0  0  0  0
   -7.9440   18.5980  -31.9710 C   0  0  0  0  0  0  0  0  0  0  0  0
   -7.0680   17.6890  -32.5710 C   0  0  0  0  0  0  0  0  0  0  0  0
   -2.3590   19.7580  -34.1640 C   0  0  0  0  0  0  0  0  0  0  0  0
   -2.2660   21.1330  -33.4740 C   0  0  0  0  0  0  0  0  0  0  0  0
   -2.6645   23.7505  -28.5902 H   0  0  0  0  0  0  0  0  0  0  0  0
   -1.4736   23.2710  -29.8466 H   0  0  0  0  0  0  0  0  0  0  0  0
   -2.1599   24.9310  -29.8466 H   0  0  0  0  0  0  0  0  0  0  0  0
   -7.2878   24.1195  -31.2839 H   0  0  0  0  0  0  0  0  0  0  0  0
   -6.4889   24.7931  -32.7449 H   0  0  0  0  0  0  0  0  0  0  0  0
   -7.0774   23.0959  -32.7449 H   0  0  0  0  0  0  0  0  0  0  0  0
   -5.2354   21.4092  -32.4204 H   0  0  0  0  0  0  0  0  0  0  0  0
   -2.1652   21.0069  -30.0657 H   0  0  0  0  0  0  0  0  0  0  0  0
   -3.2487   20.0673  -31.1560 H   0  0  0  0  0  0  0  0  0  0  0  0
    0.1483   20.1869  -32.7367 H   0  0  0  0  0  0  0  0  0  0  0  0
   -0.2785   19.9851  -30.9816 H   0  0  0  0  0  0  0  0  0  0  0  0
   -0.5116   17.9887  -32.8249 H   0  0  0  0  0  0  0  0  0  0  0  0
   -1.5514   18.1463  -31.3473 H   0  0  0  0  0  0  0  0  0  0  0  0
   -2.0452   16.9041  -34.1646 H   0  0  0  0  0  0  0  0  0  0  0  0
   -3.3117   16.8188  -32.8407 H   0  0  0  0  0  0  0  0  0  0  0  0
   -4.0820   18.4974  -35.1446 H   0  0  0  0  0  0  0  0  0  0  0  0
   -3.8523   16.7651  -35.5463 H   0  0  0  0  0  0  0  0  0  0  0  0
   -5.3691   19.8364  -34.6210 H   0  0  0  0  0  0  0  0  0  0  0  0
   -6.9323   21.4592  -33.5475 H   0  0  0  0  0  0  0  0  0  0  0  0
   -8.6713   18.2483  -31.2235 H   0  0  0  0  0  0  0  0  0  0  0  0
   -7.1093   16.6259  -32.2917 H   0  0  0  0  0  0  0  0  0  0  0  0
   -1.4553   19.5916  -34.7687 H   0  0  0  0  0  0  0  0  0  0  0  0
   -3.2485   19.7370  -34.8107 H   0  0  0  0  0  0  0  0  0  0  0  0
   -1.6530   21.7971  -34.1011 H   0  0  0  0  0  0  0  0  0  0  0  0
   -3.2937   21.5064  -33.3540 H   0  0  0  0  0  0  0  0  0  0  0  0
  1  2  1  0
  2  3  2  0
  3  4  1  0
  4  5  1  0
  4  6  1  0
  6  7  2  0
  7  8  1  0
  8  9  1  0
  9 10  1  0
 10 11  1  0
 11 12  1  0
 12 13  1  0
 13 14  1  0
 14 15  1  0
 15 16  1  0
 16 17  2  0
 17 18  1  0
 18 19  2  0
 19 20  1  0
 20 21  3  0
 19 22  1  0
 22 23  2  0
 12 24  1  0
 24 25  1  0
  7  2  1  0
 25  9  1  0
 23 16  1  0
  1 26  1  0
  1 27  1  0
  1 28  1  0
  5 29  1  0
  5 30  1  0
  5 31  1  0
  6 32  1  0
  8 33  1  0
  8 34  1  0
 10 35  1  0
 10 36  1  0
 11 37  1  0
 11 38  1  0
 13 39  1  0
 13 40  1  0
 14 41  1  0
 14 42  1  0
 17 43  1  0
 18 44  1  0
 22 45  1  0
 23 46  1  0
 24 47  1  0
 24 48  1  0
 25 49  1  0
 25 50  1  0
M  END
>  <UniqueID>  (23) 
23

>  <SMILES>  (23) 
Cc1nn(C)cc1CN1CCN(CCOc2ccc(C#N)cc2)CC1

>  <Energy>  (23) 
89.31687610139431

>  <Genealogy>  (23) 
Cc1nn(C)cc1CN1CCN(CCOc2ccc(C#N)cc2)CC1 (3D coordinates assigned)
Cc1nn(C)cc1CN1CCN(CCOc2ccc(C#N)cc2)CC1 (nonaromatic ring conformer: 89.31687610139431 kcal/mol)

>  <smiles>  (23) 
Cc1nn(C)cc1CN1CCN(CCOc2ccc(C#N)cc2)CC1

>  <score_type>  (23) 
oracle

>  <origin>  (23) 
adg

>  <m_score__min__energy>  (23) 
-8.2400000000000002

>  <m_primary>  (23) 
energy

$$$$
23:0
     RDKit          3D

 63 65  0  0  0  0  0  0  0  0999 V2000
   -3.9080   23.9190  -27.6490 C   0  0  0  0  0  0  0  0  0  0  0  0
   -3.9030   22.6170  -28.4490 C   0  0  0  0  0  0  0  0  0  0  0  0
   -2.5220   22.3690  -29.0870 C   0  0  0  0  0  0  0  0  0  0  0  0
   -2.1750   20.9270  -29.2080 N   0  0  0  0  0  0  0  0  0  0  0  0
   -1.8810   20.2260  -27.9230 C   0  0  0  0  0  0  0  0  0  0  0  0
   -3.0850   19.6810  -27.1160 C   0  0  0  0  0  0  0  0  0  0  0  0
   -2.7360   18.5760  -26.1160 C   0  0  0  0  0  0  0  0  0  0  0  0
   -1.1810   20.6380  -30.2830 C   0  0  0  0  0  0  0  0  0  0  0  0
   -1.4540   21.3600  -31.6190 C   0  0  0  0  0  0  0  0  0  0  0  0
   -1.8980   20.4000  -32.7280 C   0  0  0  0  0  0  0  0  0  0  0  0
   -3.1000   20.9080  -33.3920 N   0  0  0  0  0  0  0  0  0  0  0  0
   -4.4180   20.5330  -32.9510 C   0  0  0  0  0  0  0  0  0  0  0  0
   -4.9620   19.2930  -33.3260 C   0  0  0  0  0  0  0  0  0  0  0  0
   -4.1860   18.3480  -34.0310 C   0  0  0  0  0  0  0  0  0  0  0  0
   -4.7450   17.1500  -34.4640 C   0  0  0  0  0  0  0  0  0  0  0  0
   -6.0840   16.8750  -34.2110 C   0  0  0  0  0  0  0  0  0  0  0  0
   -6.8620   17.7800  -33.4900 C   0  0  0  0  0  0  0  0  0  0  0  0
   -6.3080   18.9890  -32.9920 C   0  0  0  0  0  0  0  0  0  0  0  0
   -7.0500   19.8650  -32.2210 N   0  0  0  0  0  0  0  0  0  0  0  0
   -8.3490   19.4390  -31.6560 C   0  0  0  0  0  0  0  0  0  0  0  0
   -6.5640   21.1320  -31.9530 C   0  0  0  0  0  0  0  0  0  0  0  0
   -7.3870   22.1460  -31.4020 C   0  0  0  0  0  0  0  0  0  0  0  0
   -6.8770   23.4100  -31.1090 C   0  0  0  0  0  0  0  0  0  0  0  0
   -5.5420   23.7130  -31.3570 C   0  0  0  0  0  0  0  0  0  0  0  0
   -5.0850   25.0060  -31.0610 O   0  0  0  0  0  0  0  0  0  0  0  0
   -5.7260   25.9020  -30.1570 C   0  0  0  0  0  0  0  0  0  0  0  0
   -4.7090   22.7290  -31.9080 C   0  0  0  0  0  0  0  0  0  0  0  0
   -5.2170   21.4590  -32.2570 C   0  0  0  0  0  0  0  0  0  0  0  0
   -3.9071   23.6885  -26.5734 H   0  0  0  0  0  0  0  0  0  0  0  0
   -3.0121   24.5063  -27.8989 H   0  0  0  0  0  0  0  0  0  0  0  0
   -4.8084   24.4994  -27.8989 H   0  0  0  0  0  0  0  0  0  0  0  0
   -4.1448   21.7804  -27.7769 H   0  0  0  0  0  0  0  0  0  0  0  0
   -4.6519   22.6943  -29.2509 H   0  0  0  0  0  0  0  0  0  0  0  0
   -2.5182   22.8138  -30.0931 H   0  0  0  0  0  0  0  0  0  0  0  0
   -1.7725   22.8280  -28.4255 H   0  0  0  0  0  0  0  0  0  0  0  0
   -3.0570   20.4700  -29.5470 H   0  0  0  0  0  0  0  0  0  0  0  0
   -1.2262   19.3731  -28.1549 H   0  0  0  0  0  0  0  0  0  0  0  0
   -1.4362   20.9976  -27.2774 H   0  0  0  0  0  0  0  0  0  0  0  0
   -3.5320   20.5181  -26.5597 H   0  0  0  0  0  0  0  0  0  0  0  0
   -3.7726   19.2323  -27.8480 H   0  0  0  0  0  0  0  0  0  0  0  0
   -2.8565   18.9574  -25.0913 H   0  0  0  0  0  0  0  0  0  0  0  0
   -3.4068   17.7177  -26.2690 H   0  0  0  0  0  0  0  0  0  0  0  0
   -1.6939   18.2587  -26.2690 H   0  0  0  0  0  0  0  0  0  0  0  0
   -0.1876   20.9447  -29.9237 H   0  0  0  0  0  0  0  0  0  0  0  0
   -1.2499   19.5600  -30.4907 H   0  0  0  0  0  0  0  0  0  0  0  0
   -2.2467   22.1060  -31.4607 H   0  0  0  0  0  0  0  0  0  0  0  0
   -0.5133   21.8297  -31.9420 H   0  0  0  0  0  0  0  0  0  0  0  0
   -1.0896   20.3018  -33.4675 H   0  0  0  0  0  0  0  0  0  0  0  0
   -2.1238   19.4200  -32.2823 H   0  0  0  0  0  0  0  0  0  0  0  0
   -3.0030   21.5290  -34.2270 H   0  0  0  0  0  0  0  0  0  0  0  0
   -3.1274   18.5612  -34.2404 H   0  0  0  0  0  0  0  0  0  0  0  0
   -4.1270   16.4197  -35.0070 H   0  0  0  0  0  0  0  0  0  0  0  0
   -6.5312   15.9405  -34.5808 H   0  0  0  0  0  0  0  0  0  0  0  0
   -7.9223   17.5538  -33.3039 H   0  0  0  0  0  0  0  0  0  0  0  0
   -8.2946   19.4568  -30.5575 H   0  0  0  0  0  0  0  0  0  0  0  0
   -9.1391   20.1251  -31.9952 H   0  0  0  0  0  0  0  0  0  0  0  0
   -8.5793   18.4183  -31.9952 H   0  0  0  0  0  0  0  0  0  0  0  0
   -8.4472   21.9317  -31.2020 H   0  0  0  0  0  0  0  0  0  0  0  0
   -7.5375   24.1762  -30.6769 H   0  0  0  0  0  0  0  0  0  0  0  0
   -5.5081   25.5975  -29.1227 H   0  0  0  0  0  0  0  0  0  0  0  0
   -5.3518   26.9226  -30.3253 H   0  0  0  0  0  0  0  0  0  0  0  0
   -6.8128   25.8775  -30.3253 H   0  0  0  0  0  0  0  0  0  0  0  0
   -3.6438   22.9499  -32.0708 H   0  0  0  0  0  0  0  0  0  0  0  0
  1  2  1  0
  2  3  1  0
  3  4  1  0
  4  5  1  0
  5  6  1  0
  6  7  1  0
  4  8  1  0
  8  9  1  0
  9 10  1  0
 10 11  1  0
 11 12  1  0
 12 13  2  0
 13 14  1  0
 14 15  2  0
 15 16  1  0
 16 17  2  0
 17 18  1  0
 18 19  2  0
 19 20  1  0
 19 21  1  0
 21 22  2  0
 22 23  1  0
 23 24  2  0
 24 25  1  0
 25 26  1  0
 24 27  1  0
 27 28  2  0
 28 12  1  0
 18 13  1  0
 28 21  1  0
  1 29  1  0
  1 30  1  0
  1 31  1  0
  2 32  1  0
  2 33  1  0
  3 34  1  0
  3 35  1  0
  4 36  1  0
  5 37  1  0
  5 38  1  0
  6 39  1  0
  6 40  1  0
  7 41  1  0
  7 42  1  0
  7 43  1  0
  8 44  1  0
  8 45  1  0
  9 46  1  0
  9 47  1  0
 10 48  1  0
 10 49  1  0
 11 50  1  0
 14 51  1  0
 15 52  1  0
 16 53  1  0
 17 54  1  0
 20 55  1  0
 20 56  1  0
 20 57  1  0
 22 58  1  0
 23 59  1  0
 26 60  1  0
 26 61  1  0
 26 62  1  0
 27 63  1  0
M  CHG  2   4   1  19   1
M  END
>  <UniqueID>  (24) 
24

>  <SMILES>  (24) 
CCC[NH+](CCC)CCCNc1c2ccccc2[n+](C)c2ccc(OC)cc12

>  <Energy>  (24) 
92.32111923319056

>  <Genealogy>  (24) 
CCC[NH+](CCC)CCCNc1c2ccccc2[n+](C)c2ccc(OC)cc12 (protonated)
CCC[NH+](CCC)CCCNc1c2ccccc2[n+](C)c2ccc(OC)cc12 (3D coordinates assigned)
CCC[NH+](CCC)CCCNc1c2ccccc2[n+](C)c2ccc(OC)cc12 (optimized conformer: 92.32111923319056 kcal/mol)

>  <smiles>  (24) 
CCCN(CCC)CCCNc1c2ccccc2[n+](C)c2ccc(OC)cc12

>  <score_type>  (24) 
oracle

>  <origin>  (24) 
adg

>  <m_score__min__energy>  (24) 
-7.7300000000000004

>  <m_primary>  (24) 
energy

$$$$
24:0
     RDKit          3D

 36 37  0  0  0  0  0  0  0  0999 V2000
   -5.7560   17.5490  -34.5850 C   0  0  0  0  0  0  0  0  0  0  0  0
   -5.9520   19.0310  -34.2610 C   0  0  0  0  0  0  0  0  0  0  0  0
   -7.1030   19.1690  -33.4350 N   0  0  0  0  0  0  0  0  0  0  0  0
   -7.3060   18.1650  -32.4440 C   0  0  0  0  0  0  0  0  0  0  0  0
   -8.5920   18.3730  -31.6300 C   0  0  0  0  0  0  0  0  0  0  0  0
   -9.0900   19.5940  -32.0120 O   0  0  0  0  0  0  0  0  0  0  0  0
   -8.7080   20.6710  -31.2560 C   0  0  0  0  0  0  0  0  0  0  0  0
   -8.6300   21.9770  -32.0190 C   0  0  0  0  0  0  0  0  0  0  0  0
   -7.2820   22.4840  -31.8560 N   0  0  0  0  0  0  0  0  0  0  0  0
   -6.1650   21.9620  -32.4420 C   0  0  0  0  0  0  0  0  0  0  0  0
   -5.0870   22.6790  -32.0720 N   0  0  0  0  0  0  0  0  0  0  0  0
   -5.4910   23.6500  -31.2620 C   0  0  0  0  0  0  0  0  0  0  0  0
   -4.7820   24.6430  -30.6190 C   0  0  0  0  0  0  0  0  0  0  0  0
   -3.5030   24.7230  -30.7700 N   0  0  0  0  0  0  0  0  0  0  0  0
   -5.4950   25.4900  -29.8510 N   0  0  0  0  0  0  0  0  0  0  0  0
   -6.8310   25.3900  -29.7040 C   0  0  0  0  0  0  0  0  0  0  0  0
   -7.5520   24.4150  -30.3310 N   0  0  0  0  0  0  0  0  0  0  0  0
   -6.8740   23.5320  -31.1220 C   0  0  0  0  0  0  0  0  0  0  0  0
   -5.6802   16.9760  -33.6491 H   0  0  0  0  0  0  0  0  0  0  0  0
   -6.6138   17.1849  -35.1694 H   0  0  0  0  0  0  0  0  0  0  0  0
   -4.8330   17.4204  -35.1694 H   0  0  0  0  0  0  0  0  0  0  0  0
   -5.0677   19.4141  -33.7307 H   0  0  0  0  0  0  0  0  0  0  0  0
   -6.0869   19.6033  -35.1906 H   0  0  0  0  0  0  0  0  0  0  0  0
   -7.9310   19.5970  -33.8480 H   0  0  0  0  0  0  0  0  0  0  0  0
   -7.3622   17.1865  -32.9434 H   0  0  0  0  0  0  0  0  0  0  0  0
   -6.4609   18.2213  -31.7421 H   0  0  0  0  0  0  0  0  0  0  0  0
   -9.3182   17.5775  -31.8533 H   0  0  0  0  0  0  0  0  0  0  0  0
   -8.3933   18.3400  -30.5486 H   0  0  0  0  0  0  0  0  0  0  0  0
   -9.4349   20.7929  -30.4394 H   0  0  0  0  0  0  0  0  0  0  0  0
   -7.6905   20.4567  -30.8972 H   0  0  0  0  0  0  0  0  0  0  0  0
   -8.8426   21.8051  -33.0845 H   0  0  0  0  0  0  0  0  0  0  0  0
   -9.3688   22.6980  -31.6391 H   0  0  0  0  0  0  0  0  0  0  0  0
   -6.1482   21.0904  -33.1128 H   0  0  0  0  0  0  0  0  0  0  0  0
   -3.1120   24.1920  -31.5770 H   0  0  0  0  0  0  0  0  0  0  0  0
   -5.0030   26.2540  -29.3440 H   0  0  0  0  0  0  0  0  0  0  0  0
   -7.3544   26.1134  -29.0616 H   0  0  0  0  0  0  0  0  0  0  0  0
  1  2  1  0
  2  3  1  0
  3  4  1  0
  4  5  1  0
  5  6  1  0
  6  7  1  0
  7  8  1  0
  8  9  1  0
  9 10  1  0
 10 11  2  0
 11 12  1  0
 12 13  1  0
 13 14  2  3
 13 15  1  0
 15 16  1  0
 16 17  2  0
 17 18  1  0
 18  9  1  0
 18 12  2  0
  1 19  1  0
  1 20  1  0
  1 21  1  0
  2 22  1  0
  2 23  1  0
  3 24  1  0
  4 25  1  0
  4 26  1  0
  5 27  1  0
  5 28  1  0
  7 29  1  0
  7 30  1  0
  8 31  1  0
  8 32  1  0
 10 33  1  0
 14 34  1  0
 15 35  1  0
 16 36  1  0
M  END
>  <smiles>  (25) 
CCNCCOCCn1cnc2c(=N)[nH]cnc21

>  <score_type>  (25) 
oracle

>  <origin>  (25) 
adg

>  <m_score__min__energy>  (25) 
-6.5

>  <m_primary>  (25) 
energy

$$$$
25:0
     RDKit          3D

 51 55  0  0  0  0  0  0  0  0999 V2000
    0.1120   26.1240  -23.7310 C   0  0  0  0  0  0  0  0  0  0  0  0
   -0.9110   25.7950  -24.7130 N   0  0  0  0  0  0  0  0  0  0  0  0
   -0.9160   24.7310  -25.5370 C   0  0  0  0  0  0  0  0  0  0  0  0
   -2.0320   24.8710  -26.3380 C   0  0  0  0  0  0  0  0  0  0  0  0
   -2.4840   23.9650  -27.4060 C   0  0  0  0  0  0  0  0  0  0  0  0
   -3.2320   24.3360  -28.5280 C   0  0  0  0  0  0  0  0  0  0  0  0
   -3.5070   23.2470  -29.3630 C   0  0  0  0  0  0  0  0  0  0  0  0
   -4.2190   23.2440  -30.5620 C   0  0  0  0  0  0  0  0  0  0  0  0
   -4.7080   24.3190  -31.0060 O   0  0  0  0  0  0  0  0  0  0  0  0
   -4.3810   22.0570  -31.2420 N   0  0  0  0  0  0  0  0  0  0  0  0
   -5.0940   22.0130  -32.5300 C   0  0  0  0  0  0  0  0  0  0  0  0
   -6.5870   22.0680  -32.3080 C   0  0  0  0  0  0  0  0  0  0  0  0
   -7.2360   23.3130  -32.3380 C   0  0  0  0  0  0  0  0  0  0  0  0
   -8.6100   23.4030  -32.1110 C   0  0  0  0  0  0  0  0  0  0  0  0
   -9.3500   22.2520  -31.8480 C   0  0  0  0  0  0  0  0  0  0  0  0
   -8.7220   21.0060  -31.8160 C   0  0  0  0  0  0  0  0  0  0  0  0
   -7.3350   20.8980  -32.0470 C   0  0  0  0  0  0  0  0  0  0  0  0
   -6.6760   19.6560  -32.0250 O   0  0  0  0  0  0  0  0  0  0  0  0
   -7.1870   18.4330  -32.5540 C   0  0  0  0  0  0  0  0  0  0  0  0
   -6.1460   17.7320  -33.3850 C   0  0  0  0  0  0  0  0  0  0  0  0
   -6.0840   16.3280  -33.4030 C   0  0  0  0  0  0  0  0  0  0  0  0
   -5.1300   15.6740  -34.1880 C   0  0  0  0  0  0  0  0  0  0  0  0
   -4.2370   16.4150  -34.9670 C   0  0  0  0  0  0  0  0  0  0  0  0
   -4.3010   17.8110  -34.9660 C   0  0  0  0  0  0  0  0  0  0  0  0
   -5.2540   18.4700  -34.1820 C   0  0  0  0  0  0  0  0  0  0  0  0
   -3.8380   20.8950  -30.7390 C   0  0  0  0  0  0  0  0  0  0  0  0
   -3.1420   20.8970  -29.5680 N   0  0  0  0  0  0  0  0  0  0  0  0
   -2.9870   22.0610  -28.9010 C   0  0  0  0  0  0  0  0  0  0  0  0
   -2.1720   22.2990  -27.4560 S   0  0  0  0  0  0  0  0  0  0  0  0
   -2.6510   26.0140  -25.9780 N   0  0  0  0  0  0  0  0  0  0  0  0
   -1.9510   26.5630  -24.9980 N   0  0  0  0  0  0  0  0  0  0  0  0
   -0.2963   25.9927  -22.7181 H   0  0  0  0  0  0  0  0  0  0  0  0
    0.9777   25.4589  -23.8664 H   0  0  0  0  0  0  0  0  0  0  0  0
    0.4277   27.1690  -23.8664 H   0  0  0  0  0  0  0  0  0  0  0  0
   -0.1795   23.9144  -25.5665 H   0  0  0  0  0  0  0  0  0  0  0  0
   -3.5655   25.3644  -28.7307 H   0  0  0  0  0  0  0  0  0  0  0  0
   -4.7870   22.8727  -33.1437 H   0  0  0  0  0  0  0  0  0  0  0  0
   -4.8443   21.0731  -33.0439 H   0  0  0  0  0  0  0  0  0  0  0  0
   -6.6563   24.2252  -32.5422 H   0  0  0  0  0  0  0  0  0  0  0  0
   -9.1090   24.3829  -32.1397 H   0  0  0  0  0  0  0  0  0  0  0  0
  -10.4322   22.3256  -31.6651 H   0  0  0  0  0  0  0  0  0  0  0  0
   -9.3132   20.1017  -31.6091 H   0  0  0  0  0  0  0  0  0  0  0  0
   -7.4856   17.7776  -31.7225 H   0  0  0  0  0  0  0  0  0  0  0  0
   -8.0528   18.6606  -33.1932 H   0  0  0  0  0  0  0  0  0  0  0  0
   -6.7895   15.7411  -32.7965 H   0  0  0  0  0  0  0  0  0  0  0  0
   -5.0821   14.5751  -34.1926 H   0  0  0  0  0  0  0  0  0  0  0  0
   -3.4838   15.8994  -35.5809 H   0  0  0  0  0  0  0  0  0  0  0  0
   -3.6005   18.3929  -35.5830 H   0  0  0  0  0  0  0  0  0  0  0  0
   -5.3054   19.5688  -34.1893 H   0  0  0  0  0  0  0  0  0  0  0  0
   -3.9683   19.9523  -31.2907 H   0  0  0  0  0  0  0  0  0  0  0  0
   -3.5190   26.4210  -26.3880 H   0  0  0  0  0  0  0  0  0  0  0  0
  1  2  1  0
  2  3  1  0
  3  4  2  0
  4  5  1  0
  5  6  2  0
  6  7  1  0
  7  8  1  0
  8  9  2  0
  8 10  1  0
 10 11  1  0
 11 12  1  0
 12 13  2  0
 13 14  1  0
 14 15  2  0
 15 16  1  0
 16 17  2  0
 17 18  1  0
 18 19  1  0
 19 20  1  0
 20 21  2  0
 21 22  1  0
 22 23  2  0
 23 24  1  0
 24 25  2  0
 10 26  1  0
 26 27  2  0
 27 28  1  0
 28 29  1  0
  4 30  1  0
 30 31  2  0
 31  2  1  0
 29  5  1  0
 28  7  2  0
 17 12  1  0
 25 20  1  0
  1 32  1  0
  1 33  1  0
  1 34  1  0
  3 35  1  0
  6 36  1  0
 11 37  1  0
 11 38  1  0
 13 39  1  0
 14 40  1  0
 15 41  1  0
 16 42  1  0
 19 43  1  0
 19 44  1  0
 21 45  1  0
 22 46  1  0
 23 47  1  0
 24 48  1  0
 25 49  1  0
 26 50  1  0
 30 51  1  0
M  CHG  1  30   1
M  END
>  <UniqueID>  (26) 
25

>  <SMILES>  (26) 
Cn1cc(-c2cc3c(=O)n(Cc4ccccc4OCc4ccccc4)cnc3s2)[nH+]n1

>  <Energy>  (26) 
126.72758079894139

>  <Genealogy>  (26) 
Cn1cc(-c2cc3c(=O)n(Cc4ccccc4OCc4ccccc4)cnc3s2)[nH+]n1 (protonated)
Cn1cc(-c2cc3c(=O)n(Cc4ccccc4OCc4ccccc4)cnc3s2)[nH+]n1 (3D coordinates assigned)
Cn1cc(-c2cc3c(=O)n(Cc4ccccc4OCc4ccccc4)cnc3s2)[nH+]n1 (optimized conformer: 126.72758079894139 kcal/mol)

>  <smiles>  (26) 
Cn1cc(-c2cc3c(=O)n(Cc4ccccc4OCc4ccccc4)cnc3s2)nn1

>  <score_type>  (26) 
oracle

>  <origin>  (26) 
adg

>  <m_score__min__energy>  (26) 
-10.35

>  <m_primary>  (26) 
energy

$$$$
26:0
     RDKit          3D

 62 64  0  0  0  0  0  0  0  0999 V2000
    0.5900   23.5980  -36.0690 C   0  0  0  0  0  0  0  0  0  0  0  0
    0.5970   22.3150  -35.3470 N   0  0  0  0  0  0  0  0  0  0  0  0
   -0.0260   21.2730  -36.1790 C   0  0  0  0  0  0  0  0  0  0  0  0
    1.9720   21.9340  -34.9470 C   0  0  0  0  0  0  0  0  0  0  0  0
    1.9840   20.4990  -34.4190 C   0  0  0  0  0  0  0  0  0  0  0  0
    1.2580   20.4090  -33.2040 O   0  0  0  0  0  0  0  0  0  0  0  0
    0.9710   19.0630  -32.8680 C   0  0  0  0  0  0  0  0  0  0  0  0
   -0.4480   18.9380  -32.3000 C   0  0  0  0  0  0  0  0  0  0  0  0
   -1.5040   19.3570  -33.3430 C   0  0  0  0  0  0  0  0  0  0  0  0
   -1.5430   20.8110  -33.6030 N   0  0  0  0  0  0  0  0  0  0  0  0
   -1.8800   21.6550  -32.4420 C   0  0  0  0  0  0  0  0  0  0  0  0
   -3.3990   21.7400  -32.1900 C   0  0  0  0  0  0  0  0  0  0  0  0
   -4.1970   21.4660  -33.4040 N   0  0  0  0  0  0  0  0  0  0  0  0
   -5.4170   20.7170  -33.1100 C   0  0  0  0  0  0  0  0  0  0  0  0
   -5.5300   19.3290  -33.4230 C   0  0  0  0  0  0  0  0  0  0  0  0
   -4.4900   18.6120  -34.0730 C   0  0  0  0  0  0  0  0  0  0  0  0
   -4.6440   17.2730  -34.4220 C   0  0  0  0  0  0  0  0  0  0  0  0
   -5.8320   16.6140  -34.1520 C   0  0  0  0  0  0  0  0  0  0  0  0
   -6.8640   17.2800  -33.5040 C   0  0  0  0  0  0  0  0  0  0  0  0
   -6.7270   18.6310  -33.0900 C   0  0  0  0  0  0  0  0  0  0  0  0
   -7.7350   19.2640  -32.3950 N   0  0  0  0  0  0  0  0  0  0  0  0
   -8.8180   18.4670  -31.7710 C   0  0  0  0  0  0  0  0  0  0  0  0
   -7.7240   20.6360  -32.2510 C   0  0  0  0  0  0  0  0  0  0  0  0
   -8.8770   21.3360  -31.8120 C   0  0  0  0  0  0  0  0  0  0  0  0
   -8.8510   22.7090  -31.5970 C   0  0  0  0  0  0  0  0  0  0  0  0
   -7.6840   23.4230  -31.8180 C   0  0  0  0  0  0  0  0  0  0  0  0
   -6.5460   22.7740  -32.2890 C   0  0  0  0  0  0  0  0  0  0  0  0
   -6.5490   21.3800  -32.5520 C   0  0  0  0  0  0  0  0  0  0  0  0
    0.5855   24.4261  -35.3450 H   0  0  0  0  0  0  0  0  0  0  0  0
    1.4878   23.6681  -36.7007 H   0  0  0  0  0  0  0  0  0  0  0  0
   -0.3085   23.6583  -36.7007 H   0  0  0  0  0  0  0  0  0  0  0  0
   -0.4821   20.5102  -35.5308 H   0  0  0  0  0  0  0  0  0  0  0  0
   -0.8017   21.7259  -36.8140 H   0  0  0  0  0  0  0  0  0  0  0  0
    0.7401   20.8041  -36.8140 H   0  0  0  0  0  0  0  0  0  0  0  0
    2.6385   22.0069  -35.8190 H   0  0  0  0  0  0  0  0  0  0  0  0
    2.3190   22.6134  -34.1545 H   0  0  0  0  0  0  0  0  0  0  0  0
    1.5236   19.8351  -35.1655 H   0  0  0  0  0  0  0  0  0  0  0  0
    3.0255   20.1977  -34.2334 H   0  0  0  0  0  0  0  0  0  0  0  0
    1.0552   18.4395  -33.7703 H   0  0  0  0  0  0  0  0  0  0  0  0
    1.6887   18.7278  -32.1048 H   0  0  0  0  0  0  0  0  0  0  0  0
   -0.6270   17.8927  -32.0079 H   0  0  0  0  0  0  0  0  0  0  0  0
   -0.5349   19.6039  -31.4288 H   0  0  0  0  0  0  0  0  0  0  0  0
   -1.2805   18.8417  -34.2888 H   0  0  0  0  0  0  0  0  0  0  0  0
   -2.4862   19.0789  -32.9332 H   0  0  0  0  0  0  0  0  0  0  0  0
   -0.5960   21.1020  -33.9420 H   0  0  0  0  0  0  0  0  0  0  0  0
   -1.3979   21.2327  -31.5480 H   0  0  0  0  0  0  0  0  0  0  0  0
   -1.5207   22.6726  -32.6551 H   0  0  0  0  0  0  0  0  0  0  0  0
   -3.6690   21.0041  -31.4183 H   0  0  0  0  0  0  0  0  0  0  0  0
   -3.6248   22.7679  -31.8701 H   0  0  0  0  0  0  0  0  0  0  0  0
   -4.3690   22.3460  -33.9290 H   0  0  0  0  0  0  0  0  0  0  0  0
   -3.6130   20.9200  -34.0770 H   0  0  0  0  0  0  0  0  0  0  0  0
   -3.5448   19.1246  -34.3050 H   0  0  0  0  0  0  0  0  0  0  0  0
   -3.8193   16.7365  -34.9139 H   0  0  0  0  0  0  0  0  0  0  0  0
   -5.9580   15.5629  -34.4509 H   0  0  0  0  0  0  0  0  0  0  0  0
   -7.8074   16.7496  -33.3074 H   0  0  0  0  0  0  0  0  0  0  0  0
   -8.7343   18.5286  -30.6759 H   0  0  0  0  0  0  0  0  0  0  0  0
   -9.7940   18.8639  -32.0870 H   0  0  0  0  0  0  0  0  0  0  0  0
   -8.7293   17.4171  -32.0870 H   0  0  0  0  0  0  0  0  0  0  0  0
   -9.8107   20.7810  -31.6382 H   0  0  0  0  0  0  0  0  0  0  0  0
   -9.7567   23.2288  -31.2514 H   0  0  0  0  0  0  0  0  0  0  0  0
   -7.6568   24.5048  -31.6208 H   0  0  0  0  0  0  0  0  0  0  0  0
   -5.6268   23.3533  -32.4605 H   0  0  0  0  0  0  0  0  0  0  0  0
  1  2  1  0
  2  3  1  0
  2  4  1  0
  4  5  1  0
  5  6  1  0
  6  7  1  0
  7  8  1  0
  8  9  1  0
  9 10  1  0
 10 11  1  0
 11 12  1  0
 12 13  1  0
 13 14  1  0
 14 15  2  0
 15 16  1  0
 16 17  2  0
 17 18  1  0
 18 19  2  0
 19 20  1  0
 20 21  2  0
 21 22  1  0
 21 23  1  0
 23 24  2  0
 24 25  1  0
 25 26  2  0
 26 27  1  0
 27 28  2  0
 28 14  1  0
 20 15  1  0
 28 23  1  0
  1 29  1  0
  1 30  1  0
  1 31  1  0
  3 32  1  0
  3 33  1  0
  3 34  1  0
  4 35  1  0
  4 36  1  0
  5 37  1  0
  5 38  1  0
  7 39  1  0
  7 40  1  0
  8 41  1  0
  8 42  1  0
  9 43  1  0
  9 44  1  0
 10 45  1  0
 11 46  1  0
 11 47  1  0
 12 48  1  0
 12 49  1  0
 13 50  1  0
 13 51  1  0
 16 52  1  0
 17 53  1  0
 18 54  1  0
 19 55  1  0
 22 56  1  0
 22 57  1  0
 22 58  1  0
 24 59  1  0
 25 60  1  0
 26 61  1  0
 27 62  1  0
M  CHG  2  13   1  21   1
M  END
>  <UniqueID>  (27) 
26

>  <SMILES>  (27) 
CN(C)CCOCCCNCC[NH2+]c1c2ccccc2[n+](C)c2ccccc12

>  <Energy>  (27) 
90.42269632903002

>  <Genealogy>  (27) 
CN(C)CCOCCCNCC[NH2+]c1c2ccccc2[n+](C)c2ccccc12 (protonated)
CN(C)CCOCCCNCC[NH2+]c1c2ccccc2[n+](C)c2ccccc12 (3D coordinates assigned)
CN(C)CCOCCCNCC[NH2+]c1c2ccccc2[n+](C)c2ccccc12 (optimized conformer: 90.42269632903002 kcal/mol)

>  <smiles>  (27) 
CN(C)CCOCCCNCCNc1c2ccccc2[n+](C)c2ccccc12

>  <score_type>  (27) 
oracle

>  <origin>  (27) 
adg

>  <m_score__min__energy>  (27) 
-8.1999999999999993

>  <m_primary>  (27) 
energy

$$$$
27:0
     RDKit          3D

 51 53  0  0  0  0  0  0  0  0999 V2000
   -4.4220   17.2100  -34.9960 C   0  0  0  0  0  0  0  0  0  0  0  0
   -3.9280   17.8310  -33.6940 C   0  0  0  0  0  0  0  0  0  0  0  0
   -4.8070   18.9350  -33.2500 N   0  0  0  0  0  0  0  0  0  0  0  0
   -4.4090   20.2620  -33.3470 C   0  0  0  0  0  0  0  0  0  0  0  0
   -2.7180   20.7200  -33.8010 S   0  0  0  0  0  0  0  0  0  0  0  0
   -2.0610   20.8140  -32.0920 C   0  0  0  0  0  0  0  0  0  0  0  0
   -3.1470   21.1510  -31.0670 C   0  0  0  0  0  0  0  0  0  0  0  0
   -3.2830   22.6140  -30.8960 N   0  0  0  0  0  0  0  0  0  0  0  0
   -4.6890   22.9670  -30.6270 C   0  0  0  0  0  0  0  0  0  0  0  0
   -4.8410   24.4990  -30.5040 C   0  0  0  0  0  0  0  0  0  0  0  0
   -3.5940   25.1620  -30.3910 O   0  0  0  0  0  0  0  0  0  0  0  0
   -2.8170   24.5460  -29.3840 C   0  0  0  0  0  0  0  0  0  0  0  0
   -2.4160   23.1200  -29.8060 C   0  0  0  0  0  0  0  0  0  0  0  0
   -5.3000   21.2700  -33.0990 N   0  0  0  0  0  0  0  0  0  0  0  0
   -6.5490   20.9640  -32.6750 C   0  0  0  0  0  0  0  0  0  0  0  0
   -6.9470   19.6760  -32.5000 C   0  0  0  0  0  0  0  0  0  0  0  0
   -8.2470   19.7130  -32.0190 C   0  0  0  0  0  0  0  0  0  0  0  0
   -9.1020   18.5450  -31.6260 C   0  0  0  0  0  0  0  0  0  0  0  0
   -8.5530   21.0720  -31.8810 C   0  0  0  0  0  0  0  0  0  0  0  0
   -9.8420   21.6250  -31.3430 C   0  0  0  0  0  0  0  0  0  0  0  0
   -7.5200   21.8340  -32.3300 N   0  0  0  0  0  0  0  0  0  0  0  0
   -7.4290   23.2950  -32.3290 C   0  0  0  0  0  0  0  0  0  0  0  0
   -6.0720   18.6330  -32.7910 C   0  0  0  0  0  0  0  0  0  0  0  0
   -6.4410   17.4360  -32.6390 O   0  0  0  0  0  0  0  0  0  0  0  0
   -5.0921   16.3676  -34.7694 H   0  0  0  0  0  0  0  0  0  0  0  0
   -4.9680   17.9663  -35.5790 H   0  0  0  0  0  0  0  0  0  0  0  0
   -3.5623   16.8481  -35.5790 H   0  0  0  0  0  0  0  0  0  0  0  0
   -3.9069   17.0556  -32.9140 H   0  0  0  0  0  0  0  0  0  0  0  0
   -2.9220   18.2405  -33.8678 H   0  0  0  0  0  0  0  0  0  0  0  0
   -1.6174   19.8421  -31.8301 H   0  0  0  0  0  0  0  0  0  0  0  0
   -1.3122   21.6193  -32.0644 H   0  0  0  0  0  0  0  0  0  0  0  0
   -4.1068   20.7390  -31.4120 H   0  0  0  0  0  0  0  0  0  0  0  0
   -2.8626   20.7113  -30.0996 H   0  0  0  0  0  0  0  0  0  0  0  0
   -5.3188   22.6047  -31.4528 H   0  0  0  0  0  0  0  0  0  0  0  0
   -5.0018   22.4986  -29.6821 H   0  0  0  0  0  0  0  0  0  0  0  0
   -5.3602   24.8746  -31.3981 H   0  0  0  0  0  0  0  0  0  0  0  0
   -5.4126   24.7050  -29.5870 H   0  0  0  0  0  0  0  0  0  0  0  0
   -1.9081   25.1417  -29.2133 H   0  0  0  0  0  0  0  0  0  0  0  0
   -3.4128   24.4887  -28.4611 H   0  0  0  0  0  0  0  0  0  0  0  0
   -1.3726   23.1300  -30.1542 H   0  0  0  0  0  0  0  0  0  0  0  0
   -2.5312   22.4566  -28.9362 H   0  0  0  0  0  0  0  0  0  0  0  0
   -5.0060   22.2660  -33.2080 H   0  0  0  0  0  0  0  0  0  0  0  0
   -9.1505   18.4787  -30.5291 H   0  0  0  0  0  0  0  0  0  0  0  0
  -10.1160   18.6803  -32.0304 H   0  0  0  0  0  0  0  0  0  0  0  0
   -8.6665   17.6193  -32.0304 H   0  0  0  0  0  0  0  0  0  0  0  0
   -9.8153   21.6135  -30.2434 H   0  0  0  0  0  0  0  0  0  0  0  0
   -9.9732   22.6586  -31.6958 H   0  0  0  0  0  0  0  0  0  0  0  0
  -10.6814   21.0078  -31.6958 H   0  0  0  0  0  0  0  0  0  0  0  0
   -7.4063   23.6602  -31.2917 H   0  0  0  0  0  0  0  0  0  0  0  0
   -6.5098   23.6055  -32.8473 H   0  0  0  0  0  0  0  0  0  0  0  0
   -8.3026   23.7171  -32.8473 H   0  0  0  0  0  0  0  0  0  0  0  0
  1  2  1  0
  2  3  1  0
  3  4  1  0
  4  5  1  0
  5  6  1  0
  6  7  1  0
  7  8  1  0
  8  9  1  0
  9 10  1  0
 10 11  1  0
 11 12  1  0
 12 13  1  0
  4 14  2  0
 14 15  1  0
 15 16  2  0
 16 17  1  0
 17 18  1  0
 17 19  2  0
 19 20  1  0
 19 21  1  0
 21 22  1  0
 16 23  1  0
 23 24  2  0
 23  3  1  0
 13  8  1  0
 21 15  1  0
  1 25  1  0
  1 26  1  0
  1 27  1  0
  2 28  1  0
  2 29  1  0
  6 30  1  0
  6 31  1  0
  7 32  1  0
  7 33  1  0
  9 34  1  0
  9 35  1  0
 10 36  1  0
 10 37  1  0
 12 38  1  0
 12 39  1  0
 13 40  1  0
 13 41  1  0
 14 42  1  0
 18 43  1  0
 18 44  1  0
 18 45  1  0
 20 46  1  0
 20 47  1  0
 20 48  1  0
 22 49  1  0
 22 50  1  0
 22 51  1  0
M  CHG  1  14   1
M  END
>  <UniqueID>  (28) 
27

>  <SMILES>  (28) 
CCn1c(SCCN2CCOCC2)[nH+]c2c(c(C)c(C)n2C)c1=O

>  <Energy>  (28) 
95.29383427807294

>  <Genealogy>  (28) 
CCn1c(SCCN2CCOCC2)[nH+]c2c(c(C)c(C)n2C)c1=O (protonated)
CCn1c(SCCN2CCOCC2)[nH+]c2c(c(C)c(C)n2C)c1=O (3D coordinates assigned)
CCn1c(SCCN2CCOCC2)[nH+]c2c(c(C)c(C)n2C)c1=O (nonaromatic ring conformer: 95.29383427807294 kcal/mol)

>  <smiles>  (28) 
CCn1c(SCCN2CCOCC2)nc2c(c(C)c(C)n2C)c1=O

>  <score_type>  (28) 
oracle

>  <origin>  (28) 
adg

>  <m_score__min__energy>  (28) 
-8.2100000000000009

>  <m_primary>  (28) 
energy

$$$$
28:0
     RDKit          3D

 62 63  0  0  0  0  0  0  0  0999 V2000
   -6.0870   16.9050  -32.0620 C   0  0  0  0  0  0  0  0  0  0  0  0
   -5.0480   17.9990  -32.3620 C   0  0  0  0  0  0  0  0  0  0  0  0
   -5.0210   18.4870  -33.7800 N   0  0  0  0  0  0  0  0  0  0  0  0
   -3.7060   18.1750  -34.4040 C   0  0  0  0  0  0  0  0  0  0  0  0
   -6.0820   17.8220  -34.5870 C   0  0  0  0  0  0  0  0  0  0  0  0
   -5.1780   19.9830  -33.8370 C   0  0  0  0  0  0  0  0  0  0  0  0
   -5.5640   20.7210  -32.5210 C   0  0  1  0  0  0  0  0  0  0  0  0
   -4.9610   22.0200  -32.5340 O   0  0  0  0  0  0  0  0  0  0  0  0
   -3.9890   22.4160  -31.6020 C   0  0  0  0  0  0  0  0  0  0  0  0
   -2.7000   21.8160  -31.6000 C   0  0  0  0  0  0  0  0  0  0  0  0
   -2.2590   20.8580  -32.6990 C   0  0  0  0  0  0  0  0  0  0  0  0
   -1.7120   19.5500  -32.1120 C   0  0  0  0  0  0  0  0  0  0  0  0
   -1.2280   21.5150  -33.6250 C   0  0  0  0  0  0  0  0  0  0  0  0
   -1.7830   22.1760  -30.5940 C   0  0  0  0  0  0  0  0  0  0  0  0
   -2.1110   23.1300  -29.6380 C   0  0  0  0  0  0  0  0  0  0  0  0
   -3.3490   23.7670  -29.6790 C   0  0  0  0  0  0  0  0  0  0  0  0
   -4.2940   23.4380  -30.6670 C   0  0  0  0  0  0  0  0  0  0  0  0
   -5.6100   24.1980  -30.7280 C   0  0  0  0  0  0  0  0  0  0  0  0
   -6.6250   23.6340  -29.7260 C   0  0  0  0  0  0  0  0  0  0  0  0
   -5.3900   25.6990  -30.5020 C   0  0  0  0  0  0  0  0  0  0  0  0
   -7.0560   20.8650  -32.3120 C   0  0  0  0  0  0  0  0  0  0  0  0
   -7.9010   19.7410  -32.3020 C   0  0  0  0  0  0  0  0  0  0  0  0
   -9.2790   19.8950  -32.1130 C   0  0  0  0  0  0  0  0  0  0  0  0
   -9.8240   21.1700  -31.9470 C   0  0  0  0  0  0  0  0  0  0  0  0
   -8.9950   22.2920  -31.9730 C   0  0  0  0  0  0  0  0  0  0  0  0
   -7.6210   22.1440  -32.1610 C   0  0  0  0  0  0  0  0  0  0  0  0
   -6.1954   16.7909  -30.9733 H   0  0  0  0  0  0  0  0  0  0  0  0
   -7.0555   17.1894  -32.4991 H   0  0  0  0  0  0  0  0  0  0  0  0
   -5.7531   15.9524  -32.4991 H   0  0  0  0  0  0  0  0  0  0  0  0
   -5.2628   18.8591  -31.7108 H   0  0  0  0  0  0  0  0  0  0  0  0
   -4.0643   17.5420  -32.1792 H   0  0  0  0  0  0  0  0  0  0  0  0
   -2.9591   17.9978  -33.6161 H   0  0  0  0  0  0  0  0  0  0  0  0
   -3.8009   17.2744  -35.0285 H   0  0  0  0  0  0  0  0  0  0  0  0
   -3.3862   19.0222  -35.0285 H   0  0  0  0  0  0  0  0  0  0  0  0
   -6.8192   17.3600  -33.9139 H   0  0  0  0  0  0  0  0  0  0  0  0
   -6.5821   18.5685  -35.2215 H   0  0  0  0  0  0  0  0  0  0  0  0
   -5.6281   17.0465  -35.2215 H   0  0  0  0  0  0  0  0  0  0  0  0
   -4.2198   20.4011  -34.1792 H   0  0  0  0  0  0  0  0  0  0  0  0
   -6.0332   20.1474  -34.5091 H   0  0  0  0  0  0  0  0  0  0  0  0
   -5.1949   20.1058  -31.6872 H   0  0  0  0  0  0  0  0  0  0  0  0
   -3.1469   20.6118  -33.2999 H   0  0  0  0  0  0  0  0  0  0  0  0
   -1.7344   19.6035  -31.0135 H   0  0  0  0  0  0  0  0  0  0  0  0
   -2.3334   18.7079  -32.4508 H   0  0  0  0  0  0  0  0  0  0  0  0
   -0.6762   19.4010  -32.4508 H   0  0  0  0  0  0  0  0  0  0  0  0
   -0.4534   22.0086  -33.0197 H   0  0  0  0  0  0  0  0  0  0  0  0
   -0.7629   20.7464  -34.2597 H   0  0  0  0  0  0  0  0  0  0  0  0
   -1.7282   22.2612  -34.2597 H   0  0  0  0  0  0  0  0  0  0  0  0
   -0.7938   21.6958  -30.5643 H   0  0  0  0  0  0  0  0  0  0  0  0
   -1.3904   23.3829  -28.8463 H   0  0  0  0  0  0  0  0  0  0  0  0
   -3.5901   24.5359  -28.9303 H   0  0  0  0  0  0  0  0  0  0  0  0
   -6.0265   24.0645  -31.7373 H   0  0  0  0  0  0  0  0  0  0  0  0
   -6.2754   23.8283  -28.7013 H   0  0  0  0  0  0  0  0  0  0  0  0
   -7.6000   24.1197  -29.8790 H   0  0  0  0  0  0  0  0  0  0  0  0
   -6.7275   22.5495  -29.8790 H   0  0  0  0  0  0  0  0  0  0  0  0
   -5.3596   25.9066  -29.4222 H   0  0  0  0  0  0  0  0  0  0  0  0
   -4.4377   26.0032  -30.9609 H   0  0  0  0  0  0  0  0  0  0  0  0
   -6.2150   26.2637  -30.9609 H   0  0  0  0  0  0  0  0  0  0  0  0
   -7.4768   18.7360  -32.4434 H   0  0  0  0  0  0  0  0  0  0  0  0
   -9.9334   19.0110  -32.0952 H   0  0  0  0  0  0  0  0  0  0  0  0
  -10.9069   21.2898  -31.7957 H   0  0  0  0  0  0  0  0  0  0  0  0
   -9.4262   23.2958  -31.8449 H   0  0  0  0  0  0  0  0  0  0  0  0
   -6.9748   23.0337  -32.1914 H   0  0  0  0  0  0  0  0  0  0  0  0
  1  2  1  0
  2  3  1  0
  3  4  1  0
  3  5  1  0
  3  6  1  0
  6  7  1  0
  7  8  1  0
  8  9  1  0
  9 10  2  0
 10 11  1  0
 11 12  1  0
 11 13  1  0
 10 14  1  0
 14 15  2  0
 15 16  1  0
 16 17  2  0
 17 18  1  0
 18 19  1  0
 18 20  1  0
  7 21  1  0
 21 22  2  0
 22 23  1  0
 23 24  2  0
 24 25  1  0
 25 26  2  0
 17  9  1  0
 26 21  1  0
  1 27  1  0
  1 28  1  0
  1 29  1  0
  2 30  1  0
  2 31  1  0
  4 32  1  0
  4 33  1  0
  4 34  1  0
  5 35  1  0
  5 36  1  0
  5 37  1  0
  6 38  1  0
  6 39  1  0
  7 40  1  1
 11 41  1  0
 12 42  1  0
 12 43  1  0
 12 44  1  0
 13 45  1  0
 13 46  1  0
 13 47  1  0
 14 48  1  0
 15 49  1  0
 16 50  1  0
 18 51  1  0
 19 52  1  0
 19 53  1  0
 19 54  1  0
 20 55  1  0
 20 56  1  0
 20 57  1  0
 22 58  1  0
 23 59  1  0
 24 60  1  0
 25 61  1  0
 26 62  1  0
M  CHG  1   3   1
M  END
>  <UniqueID>  (29) 
28

>  <SMILES>  (29) 
CC[N+](C)(C)C[C@@H](Oc1c(C(C)C)cccc1C(C)C)c1ccccc1

>  <Energy>  (29) 
71.75881827123983

>  <Genealogy>  (29) 
CC[N+](C)(C)C[C@@H](Oc1c(C(C)C)cccc1C(C)C)c1ccccc1 (chirality)
CC[N+](C)(C)C[C@@H](Oc1c(C(C)C)cccc1C(C)C)c1ccccc1 (3D coordinates assigned)
CC[N+](C)(C)C[C@@H](Oc1c(C(C)C)cccc1C(C)C)c1ccccc1 (optimized conformer: 71.75881827123983 kcal/mol)

>  <smiles>  (29) 
CC[N+](C)(C)CC(Oc1c(C(C)C)cccc1C(C)C)c1ccccc1

>  <score_type>  (29) 
oracle

>  <origin>  (29) 
adg

>  <m_score__min__energy>  (29) 
-7.5599999999999996

>  <m_primary>  (29) 
energy

$$$$
29:0
     RDKit          3D

 53 55  0  0  0  0  0  0  0  0999 V2000
   -1.6340   21.4970  -31.4800 C   0  0  0  0  0  0  0  0  0  0  0  0
   -1.4160   21.5270  -32.9880 C   0  0  0  0  0  0  0  0  0  0  0  0
   -2.5750   21.0530  -33.6760 O   0  0  0  0  0  0  0  0  0  0  0  0
   -2.9910   19.7110  -33.7780 C   0  0  0  0  0  0  0  0  0  0  0  0
   -2.0770   18.7080  -34.1450 C   0  0  0  0  0  0  0  0  0  0  0  0
   -2.4670   17.3810  -34.2130 C   0  0  0  0  0  0  0  0  0  0  0  0
   -3.7800   17.0220  -33.9490 C   0  0  0  0  0  0  0  0  0  0  0  0
   -4.7560   17.9940  -33.6250 C   0  0  0  0  0  0  0  0  0  0  0  0
   -4.3470   19.3570  -33.5020 C   0  0  0  0  0  0  0  0  0  0  0  0
   -5.3070   20.3100  -33.0820 C   0  0  0  0  0  0  0  0  0  0  0  0
   -4.9910   21.7100  -33.0160 N   0  0  0  0  0  0  0  0  0  0  0  0
   -4.9320   22.3840  -31.7170 C   0  0  0  0  0  0  0  0  0  0  0  0
   -5.4430   23.8440  -31.7900 C   0  0  0  0  0  0  0  0  0  0  0  0
   -4.7670   24.7930  -30.8770 N   0  0  0  0  0  0  0  0  0  0  0  0
   -5.7160   25.6110  -30.1060 C   0  0  0  0  0  0  0  0  0  0  0  0
   -3.7470   24.1510  -30.0200 C   0  0  0  0  0  0  0  0  0  0  0  0
   -4.1880   24.1680  -28.5600 C   0  0  0  0  0  0  0  0  0  0  0  0
   -6.5850   19.8840  -32.6750 C   0  0  0  0  0  0  0  0  0  0  0  0
   -7.5150   20.7980  -32.1320 C   0  0  0  0  0  0  0  0  0  0  0  0
   -8.7620   20.3670  -31.6880 C   0  0  0  0  0  0  0  0  0  0  0  0
   -9.1010   19.0230  -31.7650 C   0  0  0  0  0  0  0  0  0  0  0  0
   -8.2070   18.1050  -32.3140 C   0  0  0  0  0  0  0  0  0  0  0  0
   -6.9450   18.5200  -32.8120 C   0  0  0  0  0  0  0  0  0  0  0  0
   -6.0730   17.6340  -33.4100 N   0  0  0  0  0  0  0  0  0  0  0  0
   -6.5580   16.3040  -33.8430 C   0  0  0  0  0  0  0  0  0  0  0  0
   -0.6698   21.6297  -30.9674 H   0  0  0  0  0  0  0  0  0  0  0  0
   -2.3172   22.3096  -31.1920 H   0  0  0  0  0  0  0  0  0  0  0  0
   -2.0723   20.5301  -31.1920 H   0  0  0  0  0  0  0  0  0  0  0  0
   -1.2072   22.5603  -33.3020 H   0  0  0  0  0  0  0  0  0  0  0  0
   -0.5664   20.8735  -33.2353 H   0  0  0  0  0  0  0  0  0  0  0  0
   -1.0379   18.9809  -34.3814 H   0  0  0  0  0  0  0  0  0  0  0  0
   -1.7311   16.6075  -34.4779 H   0  0  0  0  0  0  0  0  0  0  0  0
   -4.0684   15.9614  -33.9923 H   0  0  0  0  0  0  0  0  0  0  0  0
   -4.5170   22.1280  -33.8470 H   0  0  0  0  0  0  0  0  0  0  0  0
   -5.5536   21.8268  -31.0006 H   0  0  0  0  0  0  0  0  0  0  0  0
   -3.8794   22.4109  -31.3988 H   0  0  0  0  0  0  0  0  0  0  0  0
   -5.3019   24.2032  -32.8201 H   0  0  0  0  0  0  0  0  0  0  0  0
   -6.4969   23.8154  -31.4761 H   0  0  0  0  0  0  0  0  0  0  0  0
   -5.5408   25.4600  -29.0306 H   0  0  0  0  0  0  0  0  0  0  0  0
   -5.5720   26.6726  -30.3555 H   0  0  0  0  0  0  0  0  0  0  0  0
   -6.7448   25.3120  -30.3555 H   0  0  0  0  0  0  0  0  0  0  0  0
   -3.6063   23.1091  -30.3435 H   0  0  0  0  0  0  0  0  0  0  0  0
   -2.8029   24.7079  -30.1128 H   0  0  0  0  0  0  0  0  0  0  0  0
   -3.3020   24.1338  -27.9089 H   0  0  0  0  0  0  0  0  0  0  0  0
   -4.7554   25.0887  -28.3591 H   0  0  0  0  0  0  0  0  0  0  0  0
   -4.8246   23.2937  -28.3591 H   0  0  0  0  0  0  0  0  0  0  0  0
   -7.2507   21.8633  -32.0591 H   0  0  0  0  0  0  0  0  0  0  0  0
   -9.4793   21.0920  -31.2758 H   0  0  0  0  0  0  0  0  0  0  0  0
  -10.0778   18.6815  -31.3918 H   0  0  0  0  0  0  0  0  0  0  0  0
   -8.4845   17.0417  -32.3619 H   0  0  0  0  0  0  0  0  0  0  0  0
   -6.7820   15.6896  -32.9585 H   0  0  0  0  0  0  0  0  0  0  0  0
   -7.4700   16.4248  -34.4461 H   0  0  0  0  0  0  0  0  0  0  0  0
   -5.7824   15.8094  -34.4461 H   0  0  0  0  0  0  0  0  0  0  0  0
  1  2  1  0
  2  3  1  0
  3  4  1  0
  4  5  2  0
  5  6  1  0
  6  7  2  0
  7  8  1  0
  8  9  2  0
  9 10  1  0
 10 11  1  0
 11 12  1  0
 12 13  1  0
 13 14  1  0
 14 15  1  0
 14 16  1  0
 16 17  1  0
 10 18  2  0
 18 19  1  0
 19 20  2  0
 20 21  1  0
 21 22  2  0
 22 23  1  0
 23 24  2  0
 24 25  1  0
  9  4  1  0
 23 18  1  0
 24  8  1  0
  1 26  1  0
  1 27  1  0
  1 28  1  0
  2 29  1  0
  2 30  1  0
  5 31  1  0
  6 32  1  0
  7 33  1  0
 11 34  1  0
 12 35  1  0
 12 36  1  0
 13 37  1  0
 13 38  1  0
 15 39  1  0
 15 40  1  0
 15 41  1  0
 16 42  1  0
 16 43  1  0
 17 44  1  0
 17 45  1  0
 17 46  1  0
 19 47  1  0
 20 48  1  0
 21 49  1  0
 22 50  1  0
 25 51  1  0
 25 52  1  0
 25 53  1  0
M  CHG  1  24   1
M  END
>  <UniqueID>  (30) 
29

>  <SMILES>  (30) 
CCOc1cccc2c1c(NCCN(C)CC)c1ccccc1[n+]2C

>  <Energy>  (30) 
83.8191386287457

>  <Genealogy>  (30) 
CCOc1cccc2c1c(NCCN(C)CC)c1ccccc1[n+]2C (3D coordinates assigned)
CCOc1cccc2c1c(NCCN(C)CC)c1ccccc1[n+]2C (optimized conformer: 83.8191386287457 kcal/mol)

>  <smiles>  (30) 
CCOc1cccc2c1c(NCCN(C)CC)c1ccccc1[n+]2C

>  <score_type>  (30) 
oracle

>  <origin>  (30) 
adg

>  <m_score__min__energy>  (30) 
-8.0099999999999998

>  <m_primary>  (30) 
energy

$$$$
30:0
     RDKit          3D

 88 91  0  0  0  0  0  0  0  0999 V2000
   -0.1450   24.4680  -27.9440 C   0  0  0  0  0  0  0  0  0  0  0  0
   -1.0370   24.3330  -26.7020 C   0  0  0  0  0  0  0  0  0  0  0  0
   -2.0590   25.4010  -26.5170 N   0  0  0  0  0  0  0  0  0  0  0  0
   -1.6420   26.5580  -25.6760 C   0  0  0  0  0  0  0  0  0  0  0  0
   -0.8750   26.2070  -24.3930 C   0  0  0  0  0  0  0  0  0  0  0  0
   -3.4690   24.9460  -26.3400 C   0  0  0  0  0  0  0  0  0  0  0  0
   -4.1980   24.4580  -27.6060 C   0  0  0  0  0  0  0  0  0  0  0  0
   -3.3410   24.5590  -28.7250 O   0  0  0  0  0  0  0  0  0  0  0  0
   -3.2060   23.3080  -29.3730 C   0  0  0  0  0  0  0  0  0  0  0  0
   -3.6490   23.4240  -30.8370 C   0  0  0  0  0  0  0  0  0  0  0  0
   -5.1350   23.0950  -31.0260 C   0  0  0  0  0  0  0  0  0  0  0  0
   -5.4170   22.6860  -32.4040 N   0  0  0  0  0  0  0  0  0  0  0  0
   -5.5890   21.3000  -32.7540 C   0  0  0  0  0  0  0  0  0  0  0  0
   -6.8350   20.6730  -32.5700 C   0  0  0  0  0  0  0  0  0  0  0  0
   -7.9450   21.3940  -32.0810 C   0  0  0  0  0  0  0  0  0  0  0  0
   -9.1570   20.7580  -31.8340 C   0  0  0  0  0  0  0  0  0  0  0  0
   -9.2830   19.3920  -32.0520 C   0  0  0  0  0  0  0  0  0  0  0  0
   -8.2070   18.6590  -32.5500 C   0  0  0  0  0  0  0  0  0  0  0  0
   -6.9720   19.2870  -32.8600 C   0  0  0  0  0  0  0  0  0  0  0  0
   -5.9160   18.5830  -33.4080 N   0  0  0  0  0  0  0  0  0  0  0  0
   -6.1370   17.2260  -33.9580 C   0  0  0  0  0  0  0  0  0  0  0  0
   -4.6620   19.1610  -33.4850 C   0  0  0  0  0  0  0  0  0  0  0  0
   -3.5110   18.4070  -33.8220 C   0  0  0  0  0  0  0  0  0  0  0  0
   -2.2710   19.0180  -33.9970 C   0  0  0  0  0  0  0  0  0  0  0  0
   -2.1360   20.4030  -33.8410 C   0  0  0  0  0  0  0  0  0  0  0  0
   -0.9250   21.0790  -34.0630 O   0  0  0  0  0  0  0  0  0  0  0  0
    0.3780   20.5790  -33.7560 C   0  0  0  0  0  0  0  0  0  0  0  0
    0.6450   20.5750  -32.2280 C   0  0  0  0  0  0  0  0  0  0  0  0
    0.5560   19.2370  -31.5440 N   0  0  0  0  0  0  0  0  0  0  0  0
    0.8590   18.1470  -32.5100 C   0  0  0  0  0  0  0  0  0  0  0  0
    1.5080   19.1470  -30.3840 C   0  0  0  0  0  0  0  0  0  0  0  0
    0.8860   19.5490  -29.0270 C   0  0  0  0  0  0  0  0  0  0  0  0
   -0.1420   20.5770  -29.2250 N   0  0  0  0  0  0  0  0  0  0  0  0
   -0.5940   21.1160  -27.9340 C   0  0  0  0  0  0  0  0  0  0  0  0
   -1.2850   20.0410  -29.9950 C   0  0  0  0  0  0  0  0  0  0  0  0
   -0.8430   19.0200  -31.0710 C   0  0  0  0  0  0  0  0  0  0  0  0
   -3.2420   21.1520  -33.4430 C   0  0  0  0  0  0  0  0  0  0  0  0
   -4.4960   20.5450  -33.2180 C   0  0  0  0  0  0  0  0  0  0  0  0
    0.8977   24.6258  -27.6312 H   0  0  0  0  0  0  0  0  0  0  0  0
   -0.2124   23.5494  -28.5454 H   0  0  0  0  0  0  0  0  0  0  0  0
   -0.4812   25.3255  -28.5454 H   0  0  0  0  0  0  0  0  0  0  0  0
   -1.5640   23.3698  -26.7684 H   0  0  0  0  0  0  0  0  0  0  0  0
   -0.3604   24.4151  -25.8386 H   0  0  0  0  0  0  0  0  0  0  0  0
   -2.0930   25.8320  -27.4750 H   0  0  0  0  0  0  0  0  0  0  0  0
   -0.9976   27.2059  -26.2883 H   0  0  0  0  0  0  0  0  0  0  0  0
   -2.5741   27.0396  -25.3456 H   0  0  0  0  0  0  0  0  0  0  0  0
   -1.4798   26.4838  -23.5169 H   0  0  0  0  0  0  0  0  0  0  0  0
   -0.6716   25.1262  -24.3715 H   0  0  0  0  0  0  0  0  0  0  0  0
    0.0759   26.7596  -24.3715 H   0  0  0  0  0  0  0  0  0  0  0  0
   -3.4644   24.1173  -25.6167 H   0  0  0  0  0  0  0  0  0  0  0  0
   -4.0232   25.8372  -26.0104 H   0  0  0  0  0  0  0  0  0  0  0  0
   -4.4996   23.4087  -27.4714 H   0  0  0  0  0  0  0  0  0  0  0  0
   -5.0877   25.0826  -27.7744 H   0  0  0  0  0  0  0  0  0  0  0  0
   -2.1537   22.9900  -29.3351 H   0  0  0  0  0  0  0  0  0  0  0  0
   -3.8387   22.5671  -28.8623 H   0  0  0  0  0  0  0  0  0  0  0  0
   -3.4687   24.4534  -31.1801 H   0  0  0  0  0  0  0  0  0  0  0  0
   -3.0674   22.6964  -31.4221 H   0  0  0  0  0  0  0  0  0  0  0  0
   -5.4103   22.2759  -30.3454 H   0  0  0  0  0  0  0  0  0  0  0  0
   -5.7222   23.9983  -30.8042 H   0  0  0  0  0  0  0  0  0  0  0  0
   -5.7130   23.4160  -33.0910 H   0  0  0  0  0  0  0  0  0  0  0  0
   -7.8505   22.4736  -31.8926 H   0  0  0  0  0  0  0  0  0  0  0  0
  -10.0165   21.3373  -31.4657 H   0  0  0  0  0  0  0  0  0  0  0  0
  -10.2349   18.8870  -31.8309 H   0  0  0  0  0  0  0  0  0  0  0  0
   -8.3166   17.5756  -32.7054 H   0  0  0  0  0  0  0  0  0  0  0  0
   -6.2536   16.5098  -33.1313 H   0  0  0  0  0  0  0  0  0  0  0  0
   -7.0472   17.2244  -34.5756 H   0  0  0  0  0  0  0  0  0  0  0  0
   -5.2743   16.9357  -34.5756 H   0  0  0  0  0  0  0  0  0  0  0  0
   -3.5979   17.3177  -33.9480 H   0  0  0  0  0  0  0  0  0  0  0  0
   -1.3933   18.4090  -34.2592 H   0  0  0  0  0  0  0  0  0  0  0  0
    0.4637   19.5502  -34.1357 H   0  0  0  0  0  0  0  0  0  0  0  0
    1.1193   21.2376  -34.2322 H   0  0  0  0  0  0  0  0  0  0  0  0
    1.6581   20.9703  -32.0628 H   0  0  0  0  0  0  0  0  0  0  0  0
   -0.1556   21.1866  -31.7864 H   0  0  0  0  0  0  0  0  0  0  0  0
    1.1140   17.2295  -31.9594 H   0  0  0  0  0  0  0  0  0  0  0  0
   -0.0218   17.9622  -33.1424 H   0  0  0  0  0  0  0  0  0  0  0  0
    1.7088   18.4433  -33.1424 H   0  0  0  0  0  0  0  0  0  0  0  0
    1.8629   18.1086  -30.3077 H   0  0  0  0  0  0  0  0  0  0  0  0
    2.3218   19.8594  -30.5844 H   0  0  0  0  0  0  0  0  0  0  0  0
    0.4294   18.6638  -28.5602 H   0  0  0  0  0  0  0  0  0  0  0  0
    1.6756   19.9520  -28.3758 H   0  0  0  0  0  0  0  0  0  0  0  0
   -0.1216   20.5526  -27.1158 H   0  0  0  0  0  0  0  0  0  0  0  0
   -0.3111   22.1764  -27.8601 H   0  0  0  0  0  0  0  0  0  0  0  0
   -1.6875   21.0222  -27.8601 H   0  0  0  0  0  0  0  0  0  0  0  0
   -1.9778   19.5443  -29.2998 H   0  0  0  0  0  0  0  0  0  0  0  0
   -1.7679   20.8843  -30.5104 H   0  0  0  0  0  0  0  0  0  0  0  0
   -0.9156   18.0086  -30.6447 H   0  0  0  0  0  0  0  0  0  0  0  0
   -1.5066   19.1497  -31.9387 H   0  0  0  0  0  0  0  0  0  0  0  0
   -3.1353   22.2376  -33.3015 H   0  0  0  0  0  0  0  0  0  0  0  0
  1  2  1  0
  2  3  1  0
  3  4  1  0
  4  5  1  0
  3  6  1  0
  6  7  1  0
  7  8  1  0
  8  9  1  0
  9 10  1  0
 10 11  1  0
 11 12  1  0
 12 13  1  0
 13 14  2  0
 14 15  1  0
 15 16  2  0
 16 17  1  0
 17 18  2  0
 18 19  1  0
 19 20  2  0
 20 21  1  0
 20 22  1  0
 22 23  2  0
 23 24  1  0
 24 25  2  0
 25 26  1  0
 26 27  1  0
 27 28  1  0
 28 29  1  0
 29 30  1  0
 29 31  1  0
 31 32  1  0
 32 33  1  0
 33 34  1  0
 33 35  1  0
 35 36  1  0
 25 37  1  0
 37 38  2  0
 38 13  1  0
 19 14  1  0
 38 22  1  0
 36 29  1  0
  1 39  1  0
  1 40  1  0
  1 41  1  0
  2 42  1  0
  2 43  1  0
  3 44  1  0
  4 45  1  0
  4 46  1  0
  5 47  1  0
  5 48  1  0
  5 49  1  0
  6 50  1  0
  6 51  1  0
  7 52  1  0
  7 53  1  0
  9 54  1  0
  9 55  1  0
 10 56  1  0
 10 57  1  0
 11 58  1  0
 11 59  1  0
 12 60  1  0
 15 61  1  0
 16 62  1  0
 17 63  1  0
 18 64  1  0
 21 65  1  0
 21 66  1  0
 21 67  1  0
 23 68  1  0
 24 69  1  0
 27 70  1  0
 27 71  1  0
 28 72  1  0
 28 73  1  0
 30 74  1  0
 30 75  1  0
 30 76  1  0
 31 77  1  0
 31 78  1  0
 32 79  1  0
 32 80  1  0
 34 81  1  0
 34 82  1  0
 34 83  1  0
 35 84  1  0
 35 85  1  0
 36 86  1  0
 36 87  1  0
 37 88  1  0
M  CHG  3   3   1  20   1  29   1
M  END
>  <UniqueID>  (31) 
30

>  <SMILES>  (31) 
CC[NH+](CC)CCOCCCNc1c2ccccc2[n+](C)c2ccc(OCC[N+]3(C)CCN(C)CC3)cc12

>  <Energy>  (31) 
149.10242069183946

>  <Genealogy>  (31) 
CC[NH+](CC)CCOCCCNc1c2ccccc2[n+](C)c2ccc(OCC[N+]3(C)CCN(C)CC3)cc12 (protonated)
CC[NH+](CC)CCOCCCNc1c2ccccc2[n+](C)c2ccc(OCC[N+]3(C)CCN(C)CC3)cc12 (3D coordinates assigned)
CC[NH+](CC)CCOCCCNc1c2ccccc2[n+](C)c2ccc(OCC[N+]3(C)CCN(C)CC3)cc12 (nonaromatic ring conformer: 149.10242069183946 kcal/mol)

>  <smiles>  (31) 
CCN(CC)CCOCCCNc1c2ccccc2[n+](C)c2ccc(OCC[N+]3(C)CCN(C)CC3)cc12

>  <score_type>  (31) 
oracle

>  <origin>  (31) 
adg

>  <m_score__min__energy>  (31) 
-7.25

>  <m_primary>  (31) 
energy

$$$$
31:0
     RDKit          3D

 52 55  0  0  0  0  0  0  0  0999 V2000
   -2.1710   24.6680  -28.8730 C   0  0  0  0  0  0  0  0  0  0  0  0
   -3.1350   25.2890  -29.7150 O   0  0  0  0  0  0  0  0  0  0  0  0
   -4.3710   24.7210  -30.0560 C   0  0  0  0  0  0  0  0  0  0  0  0
   -5.6040   25.3830  -29.8060 C   0  0  0  0  0  0  0  0  0  0  0  0
   -6.8260   24.7750  -30.1440 C   0  0  0  0  0  0  0  0  0  0  0  0
   -6.7900   23.5200  -30.7460 C   0  0  0  0  0  0  0  0  0  0  0  0
   -7.8510   22.7640  -31.0950 N   0  0  0  0  0  0  0  0  0  0  0  0
   -7.3210   21.6220  -31.5980 C   0  0  0  0  0  0  0  0  0  0  0  0
   -5.9410   21.6580  -31.5700 C   0  0  0  0  0  0  0  0  0  0  0  0
   -5.1760   20.5780  -32.0050 C   0  0  0  0  0  0  0  0  0  0  0  0
   -3.7440   20.6630  -32.0610 N   0  0  0  0  0  0  0  0  0  0  0  0
   -3.0810   21.4120  -33.1270 C   0  0  0  0  0  0  0  0  0  0  0  0
   -1.5590   21.2170  -33.0480 C   0  0  0  0  0  0  0  0  0  0  0  0
   -0.9750   20.7870  -34.3420 N   0  0  0  0  0  0  0  0  0  0  0  0
   -1.1000   19.3240  -34.4850 C   0  0  0  0  0  0  0  0  0  0  0  0
    0.4450   21.1730  -34.4540 C   0  0  0  0  0  0  0  0  0  0  0  0
   -5.8660   19.4050  -32.3920 C   0  0  0  0  0  0  0  0  0  0  0  0
   -5.1610   18.2500  -32.7890 C   0  0  0  0  0  0  0  0  0  0  0  0
   -5.8420   17.0880  -33.1430 C   0  0  0  0  0  0  0  0  0  0  0  0
   -7.2300   17.0490  -33.1020 C   0  0  0  0  0  0  0  0  0  0  0  0
   -7.9570   18.1790  -32.7260 C   0  0  0  0  0  0  0  0  0  0  0  0
   -7.3030   19.3880  -32.3860 C   0  0  0  0  0  0  0  0  0  0  0  0
   -8.0170   20.5300  -32.0460 N   0  0  0  0  0  0  0  0  0  0  0  0
   -9.4880   20.5730  -32.1420 C   0  0  0  0  0  0  0  0  0  0  0  0
   -5.6010   22.8800  -31.0120 C   0  0  0  0  0  0  0  0  0  0  0  0
   -4.3730   23.4480  -30.6590 C   0  0  0  0  0  0  0  0  0  0  0  0
   -2.4386   24.8404  -27.8200 H   0  0  0  0  0  0  0  0  0  0  0  0
   -2.1509   23.5867  -29.0740 H   0  0  0  0  0  0  0  0  0  0  0  0
   -1.1781   25.0968  -29.0740 H   0  0  0  0  0  0  0  0  0  0  0  0
   -5.6021   26.3810  -29.3434 H   0  0  0  0  0  0  0  0  0  0  0  0
   -7.7832   25.2766  -29.9387 H   0  0  0  0  0  0  0  0  0  0  0  0
   -8.8520   23.0160  -30.9400 H   0  0  0  0  0  0  0  0  0  0  0  0
   -3.1800   19.9550  -31.5390 H   0  0  0  0  0  0  0  0  0  0  0  0
   -3.4428   21.0532  -34.1019 H   0  0  0  0  0  0  0  0  0  0  0  0
   -3.3115   22.4812  -33.0101 H   0  0  0  0  0  0  0  0  0  0  0  0
   -1.0960   22.1695  -32.7508 H   0  0  0  0  0  0  0  0  0  0  0  0
   -1.3607   20.4246  -32.3113 H   0  0  0  0  0  0  0  0  0  0  0  0
   -1.5050   21.2300  -35.1290 H   0  0  0  0  0  0  0  0  0  0  0  0
   -1.1396   18.8602  -33.4883 H   0  0  0  0  0  0  0  0  0  0  0  0
   -2.0217   19.0869  -35.0366 H   0  0  0  0  0  0  0  0  0  0  0  0
   -0.2319   18.9340  -35.0366 H   0  0  0  0  0  0  0  0  0  0  0  0
    0.8738   21.2895  -33.4477 H   0  0  0  0  0  0  0  0  0  0  0  0
    0.9954   20.3919  -34.9989 H   0  0  0  0  0  0  0  0  0  0  0  0
    0.5242   22.1253  -34.9989 H   0  0  0  0  0  0  0  0  0  0  0  0
   -4.0616   18.2671  -32.8194 H   0  0  0  0  0  0  0  0  0  0  0  0
   -5.2783   16.1970  -33.4565 H   0  0  0  0  0  0  0  0  0  0  0  0
   -7.7590   16.1218  -33.3675 H   0  0  0  0  0  0  0  0  0  0  0  0
   -9.0554   18.1299  -32.6932 H   0  0  0  0  0  0  0  0  0  0  0  0
   -9.9212   20.5857  -31.1310 H   0  0  0  0  0  0  0  0  0  0  0  0
   -9.7938   21.4805  -32.6833 H   0  0  0  0  0  0  0  0  0  0  0  0
   -9.8462   19.6849  -32.6833 H   0  0  0  0  0  0  0  0  0  0  0  0
   -3.4305   22.9132  -30.8478 H   0  0  0  0  0  0  0  0  0  0  0  0
  1  2  1  0
  2  3  1  0
  3  4  2  0
  4  5  1  0
  5  6  2  0
  6  7  1  0
  7  8  1  0
  8  9  2  0
  9 10  1  0
 10 11  1  0
 11 12  1  0
 12 13  1  0
 13 14  1  0
 14 15  1  0
 14 16  1  0
 10 17  2  0
 17 18  1  0
 18 19  2  0
 19 20  1  0
 20 21  2  0
 21 22  1  0
 22 23  2  0
 23 24  1  0
  9 25  1  0
 25 26  2  0
 26  3  1  0
 25  6  1  0
 23  8  1  0
 22 17  1  0
  1 27  1  0
  1 28  1  0
  1 29  1  0
  4 30  1  0
  5 31  1  0
  7 32  1  0
 11 33  1  0
 12 34  1  0
 12 35  1  0
 13 36  1  0
 13 37  1  0
 14 38  1  0
 15 39  1  0
 15 40  1  0
 15 41  1  0
 16 42  1  0
 16 43  1  0
 16 44  1  0
 18 45  1  0
 19 46  1  0
 20 47  1  0
 21 48  1  0
 24 49  1  0
 24 50  1  0
 24 51  1  0
 26 52  1  0
M  CHG  2  14   1  23   1
M  END
>  <UniqueID>  (32) 
31

>  <SMILES>  (32) 
COc1ccc2[nH]c3c(c(NCC[NH+](C)C)c4ccccc4[n+]3C)c2c1

>  <Energy>  (32) 
110.79988950730888

>  <Genealogy>  (32) 
COc1ccc2[nH]c3c(c(NCC[NH+](C)C)c4ccccc4[n+]3C)c2c1 (protonated)
COc1ccc2[nH]c3c(c(NCC[NH+](C)C)c4ccccc4[n+]3C)c2c1 (3D coordinates assigned)
COc1ccc2[nH]c3c(c(NCC[NH+](C)C)c4ccccc4[n+]3C)c2c1 (optimized conformer: 110.79988950730888 kcal/mol)

>  <smiles>  (32) 
COc1ccc2[nH]c3c(c(NCCN(C)C)c4ccccc4[n+]3C)c2c1

>  <score_type>  (32) 
oracle

>  <origin>  (32) 
adg

>  <m_score__min__energy>  (32) 
-8.1099999999999994

>  <m_primary>  (32) 
energy

$$$$
32:0
     RDKit          3D

 36 36  0  0  0  0  0  0  0  0999 V2000
   -8.7420   18.4180  -31.6110 C   0  0  0  0  0  0  0  0  0  0  0  0
   -9.1120   19.5370  -32.5810 C   0  0  0  0  0  0  0  0  0  0  0  0
   -8.2860   20.7120  -32.3550 N   0  0  0  0  0  0  0  0  0  0  0  0
   -8.7080   21.6880  -31.3480 C   0  0  0  0  0  0  0  0  0  0  0  0
   -9.0010   23.0420  -31.9920 C   0  0  0  0  0  0  0  0  0  0  0  0
   -7.2400   20.8330  -33.0420 N   0  0  0  0  0  0  0  0  0  0  0  0
   -5.6440   20.3770  -32.5630 S   0  0  0  0  0  0  0  0  0  0  0  0
   -4.8560   20.0200  -33.7910 O   0  0  0  0  0  0  0  0  0  0  0  0
   -5.7060   19.1640  -31.6750 O   0  0  0  0  0  0  0  0  0  0  0  0
   -4.8340   21.7190  -31.7610 C   0  0  0  0  0  0  0  0  0  0  0  0
   -3.4660   21.6670  -31.4840 C   0  0  0  0  0  0  0  0  0  0  0  0
   -2.8430   22.7250  -30.8240 C   0  0  0  0  0  0  0  0  0  0  0  0
   -3.5780   23.8610  -30.4310 C   0  0  0  0  0  0  0  0  0  0  0  0
   -2.9660   24.9220  -29.7420 O   0  0  0  0  0  0  0  0  0  0  0  0
   -2.2760   24.7950  -28.5020 C   0  0  0  0  0  0  0  0  0  0  0  0
   -4.9620   23.9270  -30.7220 C   0  0  0  0  0  0  0  0  0  0  0  0
   -5.7560   25.0730  -30.3470 N   0  0  0  0  0  0  0  0  0  0  0  0
   -6.9190   24.9220  -29.9180 O   0  0  0  0  0  0  0  0  0  0  0  0
   -5.2770   26.3530  -30.5030 O   0  0  0  0  0  0  0  0  0  0  0  0
   -5.5740   22.8450  -31.3860 C   0  0  0  0  0  0  0  0  0  0  0  0
   -8.8600   18.7749  -30.5772 H   0  0  0  0  0  0  0  0  0  0  0  0
   -9.4024   17.5544  -31.7784 H   0  0  0  0  0  0  0  0  0  0  0  0
   -7.6969   18.1183  -31.7784 H   0  0  0  0  0  0  0  0  0  0  0  0
   -8.9625   19.1842  -33.6121 H   0  0  0  0  0  0  0  0  0  0  0  0
  -10.1650   19.8103  -32.4181 H   0  0  0  0  0  0  0  0  0  0  0  0
   -9.6177   21.3215  -30.8499 H   0  0  0  0  0  0  0  0  0  0  0  0
   -7.8951   21.8141  -30.6177 H   0  0  0  0  0  0  0  0  0  0  0  0
   -9.1638   23.7943  -31.2061 H   0  0  0  0  0  0  0  0  0  0  0  0
   -8.1473   23.3433  -32.6168 H   0  0  0  0  0  0  0  0  0  0  0  0
   -9.9029   22.9634  -32.6168 H   0  0  0  0  0  0  0  0  0  0  0  0
   -2.8783   20.7882  -31.7877 H   0  0  0  0  0  0  0  0  0  0  0  0
   -1.7658   22.6724  -30.6076 H   0  0  0  0  0  0  0  0  0  0  0  0
   -2.9861   24.9257  -27.6722 H   0  0  0  0  0  0  0  0  0  0  0  0
   -1.8171   23.7973  -28.4382 H   0  0  0  0  0  0  0  0  0  0  0  0
   -1.4920   25.5639  -28.4382 H   0  0  0  0  0  0  0  0  0  0  0  0
   -6.6496   22.8867  -31.6127 H   0  0  0  0  0  0  0  0  0  0  0  0
  1  2  1  0
  2  3  1  0
  3  4  1  0
  4  5  1  0
  3  6  2  3
  6  7  1  0
  7  8  2  0
  7  9  2  0
  7 10  1  0
 10 11  2  0
 11 12  1  0
 12 13  2  0
 13 14  1  0
 14 15  1  0
 13 16  1  0
 16 17  1  0
 17 18  2  0
 17 19  1  0
 16 20  2  0
 20 10  1  0
  1 21  1  0
  1 22  1  0
  1 23  1  0
  2 24  1  0
  2 25  1  0
  4 26  1  0
  4 27  1  0
  5 28  1  0
  5 29  1  0
  5 30  1  0
 11 31  1  0
 12 32  1  0
 15 33  1  0
 15 34  1  0
 15 35  1  0
 20 36  1  0
M  CHG  3   3   1  17   1  19  -1
M  END
>  <UniqueID>  (33) 
32

>  <SMILES>  (33) 
CC[N+](CC)=NS(=O)(=O)c1ccc(OC)c([N+](=O)[O-])c1

>  <Energy>  (33) 
36.51569731222416

>  <Genealogy>  (33) 
CC[N+](CC)=NS(=O)(=O)c1ccc(OC)c([N+](=O)[O-])c1 (3D coordinates assigned)
CC[N+](CC)=NS(=O)(=O)c1ccc(OC)c([N+](=O)[O-])c1 (optimized conformer: 36.51569731222416 kcal/mol)

>  <smiles>  (33) 
CC[N+](CC)=NS(=O)(=O)c1ccc(OC)c([N+](=O)[O-])c1

>  <score_type>  (33) 
oracle

>  <origin>  (33) 
adg

>  <m_score__min__energy>  (33) 
-6.9100000000000001

>  <m_primary>  (33) 
energy

$$$$
