0:0
     RDKit          3D

 75 77  0  0  0  0  0  0  0  0999 V2000
   -5.7880   16.9720  -31.9830 C   0  0  0  0  0  0  0  0  0  0  0  0
   -6.8810   17.6130  -32.8360 C   0  0  0  0  0  0  0  0  0  0  0  0
   -7.3910   18.8440  -32.1910 N   0  0  0  0  0  0  0  0  0  0  0  0
   -8.7540   18.6220  -31.6730 C   0  0  0  0  0  0  0  0  0  0  0  0
   -7.3650   20.0060  -33.1110 C   0  0  0  0  0  0  0  0  0  0  0  0
   -6.4510   21.0860  -32.5360 C   0  0  0  0  0  0  0  0  0  0  0  0
   -5.1830   21.1150  -33.2600 N   0  0  0  0  0  0  0  0  0  0  0  0
   -3.9400   20.8750  -32.5800 C   0  0  0  0  0  0  0  0  0  0  0  0
   -3.2170   19.6960  -32.8300 C   0  0  0  0  0  0  0  0  0  0  0  0
   -3.6370   18.7890  -33.8260 C   0  0  0  0  0  0  0  0  0  0  0  0
   -2.9010   17.6390  -34.0990 C   0  0  0  0  0  0  0  0  0  0  0  0
   -1.7260   17.3820  -33.4010 C   0  0  0  0  0  0  0  0  0  0  0  0
   -0.7860   15.9470  -33.7710 Cl  0  0  0  0  0  0  0  0  0  0  0  0
   -1.2890   18.2680  -32.4140 C   0  0  0  0  0  0  0  0  0  0  0  0
   -2.0370   19.4290  -32.0860 C   0  0  0  0  0  0  0  0  0  0  0  0
   -1.6380   20.2940  -31.0870 N   0  0  0  0  0  0  0  0  0  0  0  0
   -0.6090   19.8720  -30.1100 C   0  0  0  0  0  0  0  0  0  0  0  0
   -2.2330   21.5380  -30.9720 C   0  0  0  0  0  0  0  0  0  0  0  0
   -1.6810   22.5490  -30.1520 C   0  0  0  0  0  0  0  0  0  0  0  0
   -2.3440   23.7710  -29.9420 C   0  0  0  0  0  0  0  0  0  0  0  0
   -1.8390   24.7680  -29.0870 O   0  0  0  0  0  0  0  0  0  0  0  0
   -1.1230   24.5430  -27.8720 C   0  0  0  0  0  0  0  0  0  0  0  0
   -1.7480   25.3630  -26.7200 C   0  0  0  0  0  0  0  0  0  0  0  0
   -0.7800   26.0270  -25.7830 N   0  0  0  0  0  0  0  0  0  0  0  0
   -0.1090   27.1650  -26.4750 C   0  0  0  0  0  0  0  0  0  0  0  0
    0.2110   25.0430  -25.2050 C   0  0  0  0  0  0  0  0  0  0  0  0
   -0.3690   23.7570  -24.5800 C   0  0  0  0  0  0  0  0  0  0  0  0
   -1.5630   26.6470  -24.6590 C   0  0  0  0  0  0  0  0  0  0  0  0
   -0.7890   26.8490  -23.3380 C   0  0  0  0  0  0  0  0  0  0  0  0
   -3.5510   24.0220  -30.6010 C   0  0  0  0  0  0  0  0  0  0  0  0
   -4.1980   25.2460  -30.3610 O   0  0  0  0  0  0  0  0  0  0  0  0
   -5.5960   25.3930  -30.1340 C   0  0  0  0  0  0  0  0  0  0  0  0
   -4.0740   23.0610  -31.4820 C   0  0  0  0  0  0  0  0  0  0  0  0
   -3.4210   21.8300  -31.6870 C   0  0  0  0  0  0  0  0  0  0  0  0
   -6.0252   17.1111  -30.9179 H   0  0  0  0  0  0  0  0  0  0  0  0
   -5.7302   15.8969  -32.2084 H   0  0  0  0  0  0  0  0  0  0  0  0
   -4.8215   17.4464  -32.2084 H   0  0  0  0  0  0  0  0  0  0  0  0
   -6.4669   17.8670  -33.8229 H   0  0  0  0  0  0  0  0  0  0  0  0
   -7.7110   16.8992  -32.9436 H   0  0  0  0  0  0  0  0  0  0  0  0
   -8.7333   18.6254  -30.5732 H   0  0  0  0  0  0  0  0  0  0  0  0
   -9.4170   19.4240  -32.0297 H   0  0  0  0  0  0  0  0  0  0  0  0
   -9.1282   17.6511  -32.0297 H   0  0  0  0  0  0  0  0  0  0  0  0
   -6.9853   19.6883  -34.0933 H   0  0  0  0  0  0  0  0  0  0  0  0
   -8.3826   20.4077  -33.2254 H   0  0  0  0  0  0  0  0  0  0  0  0
   -6.9438   22.0651  -32.6279 H   0  0  0  0  0  0  0  0  0  0  0  0
   -6.2536   20.8614  -31.4774 H   0  0  0  0  0  0  0  0  0  0  0  0
   -5.1640   21.5340  -34.2190 H   0  0  0  0  0  0  0  0  0  0  0  0
   -4.5569   18.9929  -34.3936 H   0  0  0  0  0  0  0  0  0  0  0  0
   -3.2493   16.9332  -34.8674 H   0  0  0  0  0  0  0  0  0  0  0  0
   -0.3487   18.0626  -31.8814 H   0  0  0  0  0  0  0  0  0  0  0  0
   -0.9874   20.0272  -29.0889 H   0  0  0  0  0  0  0  0  0  0  0  0
   -0.3783   18.8066  -30.2576 H   0  0  0  0  0  0  0  0  0  0  0  0
    0.3033   20.4686  -30.2576 H   0  0  0  0  0  0  0  0  0  0  0  0
   -0.7093   22.3753  -29.6666 H   0  0  0  0  0  0  0  0  0  0  0  0
   -1.1642   23.4732  -27.6196 H   0  0  0  0  0  0  0  0  0  0  0  0
   -0.0782   24.8584  -28.0092 H   0  0  0  0  0  0  0  0  0  0  0  0
   -2.3752   26.1480  -27.1676 H   0  0  0  0  0  0  0  0  0  0  0  0
   -2.3032   24.6375  -26.1072 H   0  0  0  0  0  0  0  0  0  0  0  0
    0.3004   27.8593  -25.7264 H   0  0  0  0  0  0  0  0  0  0  0  0
    0.7074   26.7814  -27.1045 H   0  0  0  0  0  0  0  0  0  0  0  0
   -0.8399   27.6937  -27.1045 H   0  0  0  0  0  0  0  0  0  0  0  0
    0.8916   24.7416  -26.0149 H   0  0  0  0  0  0  0  0  0  0  0  0
    0.6929   25.5757  -24.3720 H   0  0  0  0  0  0  0  0  0  0  0  0
   -0.3341   23.8343  -23.4833 H   0  0  0  0  0  0  0  0  0  0  0  0
   -1.4119   23.6292  -24.9056 H   0  0  0  0  0  0  0  0  0  0  0  0
    0.2255   22.8907  -24.9056 H   0  0  0  0  0  0  0  0  0  0  0  0
   -1.9182   27.6317  -24.9970 H   0  0  0  0  0  0  0  0  0  0  0  0
   -2.3713   25.9374  -24.4284 H   0  0  0  0  0  0  0  0  0  0  0  0
   -1.4636   26.6729  -22.4872 H   0  0  0  0  0  0  0  0  0  0  0  0
    0.0508   26.1399  -23.2929 H   0  0  0  0  0  0  0  0  0  0  0  0
   -0.4028   27.8780  -23.2929 H   0  0  0  0  0  0  0  0  0  0  0  0
   -5.7916   25.4136  -29.0517 H   0  0  0  0  0  0  0  0  0  0  0  0
   -5.9443   26.3327  -30.5875 H   0  0  0  0  0  0  0  0  0  0  0  0
   -6.1321   24.5463  -30.5875 H   0  0  0  0  0  0  0  0  0  0  0  0
   -5.0092   23.2734  -32.0208 H   0  0  0  0  0  0  0  0  0  0  0  0
  1  2  1  0
  2  3  1  0
  3  4  1  0
  3  5  1  0
  5  6  1  0
  6  7  1  0
  7  8  1  0
  8  9  2  0
  9 10  1  0
 10 11  2  0
 11 12  1  0
 12 13  1  0
 12 14  2  0
 14 15  1  0
 15 16  2  0
 16 17  1  0
 16 18  1  0
 18 19  2  0
 19 20  1  0
 20 21  1  0
 21 22  1  0
 22 23  1  0
 23 24  1  0
 24 25  1  0
 24 26  1  0
 26 27  1  0
 24 28  1  0
 28 29  1  0
 20 30  2  0
 30 31  1  0
 31 32  1  0
 30 33  1  0
 33 34  2  0
 34  8  1  0
 15  9  1  0
 34 18  1  0
  1 35  1  0
  1 36  1  0
  1 37  1  0
  2 38  1  0
  2 39  1  0
  4 40  1  0
  4 41  1  0
  4 42  1  0
  5 43  1  0
  5 44  1  0
  6 45  1  0
  6 46  1  0
  7 47  1  0
 10 48  1  0
 11 49  1  0
 14 50  1  0
 17 51  1  0
 17 52  1  0
 17 53  1  0
 19 54  1  0
 22 55  1  0
 22 56  1  0
 23 57  1  0
 23 58  1  0
 25 59  1  0
 25 60  1  0
 25 61  1  0
 26 62  1  0
 26 63  1  0
 27 64  1  0
 27 65  1  0
 27 66  1  0
 28 67  1  0
 28 68  1  0
 29 69  1  0
 29 70  1  0
 29 71  1  0
 32 72  1  0
 32 73  1  0
 32 74  1  0
 33 75  1  0
M  CHG  2  16   1  24   1
M  END
>  <UniqueID>  (1) 
1

>  <SMILES>  (1) 
CCN(C)CCNc1c2ccc(Cl)cc2[n+](C)c2cc(OCC[N+](C)(CC)CC)c(OC)cc12

>  <Energy>  (1) 
115.28251956714178

>  <Genealogy>  (1) 
CCN(C)CCNc1c2ccc(Cl)cc2[n+](C)c2cc(OCC[N+](C)(CC)CC)c(OC)cc12 (3D coordinates assigned)
CCN(C)CCNc1c2ccc(Cl)cc2[n+](C)c2cc(OCC[N+](C)(CC)CC)c(OC)cc12 (optimized conformer: 115.28251956714178 kcal/mol)

>  <smiles>  (1) 
CCN(C)CCNc1c2ccc(Cl)cc2[n+](C)c2cc(OCC[N+](C)(CC)CC)c(OC)cc12

>  <score_type>  (1) 
oracle

>  <origin>  (1) 
adg

>  <m_score__min__energy>  (1) 
-8.1400000000000006

>  <m_primary>  (1) 
energy

$$$$
1:0
     RDKit          3D

 38 41  0  0  0  0  0  0  0  0999 V2000
   -9.4520   23.2400  -32.1490 C   0  0  0  0  0  0  0  0  0  0  0  0
   -9.0330   22.0540  -31.4840 O   0  0  0  0  0  0  0  0  0  0  0  0
   -8.0530   21.1710  -31.9680 C   0  0  0  0  0  0  0  0  0  0  0  0
   -8.2890   19.7910  -32.0900 C   0  0  0  0  0  0  0  0  0  0  0  0
   -7.3090   18.9410  -32.6220 C   0  0  0  0  0  0  0  0  0  0  0  0
   -6.0550   19.4600  -33.0130 C   0  0  0  0  0  0  0  0  0  0  0  0
   -5.8310   20.8460  -32.9000 C   0  0  0  0  0  0  0  0  0  0  0  0
   -6.8050   21.6900  -32.3540 C   0  0  0  0  0  0  0  0  0  0  0  0
   -6.5350   23.0990  -32.2780 N   0  0  0  0  0  0  0  0  0  0  0  0
   -5.5670   23.6720  -31.6170 C   0  0  0  0  0  0  0  0  0  0  0  0
   -4.3360   23.0340  -31.3630 C   0  0  0  0  0  0  0  0  0  0  0  0
   -3.3410   23.7120  -30.6570 C   0  0  0  0  0  0  0  0  0  0  0  0
   -3.5540   24.9840  -30.2260 N   0  0  0  0  0  0  0  0  0  0  0  0
   -4.7250   25.6290  -30.4680 C   0  0  0  0  0  0  0  0  0  0  0  0
   -5.7480   24.9880  -31.1700 C   0  0  0  0  0  0  0  0  0  0  0  0
   -5.0400   18.5310  -33.5910 C   0  0  0  0  0  0  0  0  0  0  0  0
   -3.6960   18.8980  -33.8180 C   0  0  0  0  0  0  0  0  0  0  0  0
   -2.8120   18.0000  -34.4270 C   0  0  0  0  0  0  0  0  0  0  0  0
   -3.2520   16.7340  -34.8130 C   0  0  0  0  0  0  0  0  0  0  0  0
   -4.5730   16.3510  -34.5740 C   0  0  0  0  0  0  0  0  0  0  0  0
   -5.4560   17.2340  -33.9460 C   0  0  0  0  0  0  0  0  0  0  0  0
   -6.7660   16.8240  -33.6820 O   0  0  0  0  0  0  0  0  0  0  0  0
   -7.5730   17.4580  -32.6910 C   0  0  0  0  0  0  0  0  0  0  0  0
   -9.7214   24.0027  -31.4035 H   0  0  0  0  0  0  0  0  0  0  0  0
   -8.6324   23.6163  -32.7788 H   0  0  0  0  0  0  0  0  0  0  0  0
  -10.3261   23.0179  -32.7788 H   0  0  0  0  0  0  0  0  0  0  0  0
   -9.2531   19.3731  -31.7646 H   0  0  0  0  0  0  0  0  0  0  0  0
   -4.8772   21.2711  -33.2457 H   0  0  0  0  0  0  0  0  0  0  0  0
   -4.1606   22.0081  -31.7190 H   0  0  0  0  0  0  0  0  0  0  0  0
   -2.3816   23.2159  -30.4486 H   0  0  0  0  0  0  0  0  0  0  0  0
   -4.8677   26.6592  -30.1099 H   0  0  0  0  0  0  0  0  0  0  0  0
   -6.6927   25.5142  -31.3715 H   0  0  0  0  0  0  0  0  0  0  0  0
   -3.3418   19.8943  -33.5149 H   0  0  0  0  0  0  0  0  0  0  0  0
   -1.7665   18.2937  -34.6018 H   0  0  0  0  0  0  0  0  0  0  0  0
   -2.5580   16.0372  -35.3058 H   0  0  0  0  0  0  0  0  0  0  0  0
   -4.9195   15.3529  -34.8803 H   0  0  0  0  0  0  0  0  0  0  0  0
   -8.6328   17.2956  -32.9369 H   0  0  0  0  0  0  0  0  0  0  0  0
   -7.3235   17.0194  -31.7136 H   0  0  0  0  0  0  0  0  0  0  0  0
  1  2  1  0
  2  3  1  0
  3  4  2  0
  4  5  1  0
  5  6  2  0
  6  7  1  0
  7  8  2  0
  8  9  1  0
  9 10  2  3
 10 11  1  0
 11 12  2  0
 12 13  1  0
 13 14  1  0
 14 15  2  0
  6 16  1  0
 16 17  2  0
 17 18  1  0
 18 19  2  0
 19 20  1  0
 20 21  2  0
 21 22  1  0
 22 23  1  0
  8  3  1  0
 15 10  1  0
 21 16  1  0
 23  5  1  0
  1 24  1  0
  1 25  1  0
  1 26  1  0
  4 27  1  0
  7 28  1  0
 11 29  1  0
 12 30  1  0
 14 31  1  0
 15 32  1  0
 17 33  1  0
 18 34  1  0
 19 35  1  0
 20 36  1  0
 23 37  1  0
 23 38  1  0
M  CHG  1  13  -1
M  END
>  <UniqueID>  (2) 
2

>  <SMILES>  (2) 
COc1cc2c(cc1N=c1cc[n-]cc1)-c1ccccc1OC2

>  <Energy>  (2) 
60.33059166047187

>  <Genealogy>  (2) 
COc1cc2c(cc1N=c1cc[n-]cc1)-c1ccccc1OC2 (protonated)
COc1cc2c(cc1N=c1cc[n-]cc1)-c1ccccc1OC2 (3D coordinates assigned)
COc1cc2c(cc1N=c1cc[n-]cc1)-c1ccccc1OC2 (nonaromatic ring conformer: 60.33059166047187 kcal/mol)

>  <smiles>  (2) 
COc1cc2c(cc1N=c1cc[nH]cc1)-c1ccccc1OC2

>  <score_type>  (2) 
oracle

>  <origin>  (2) 
adg

>  <m_score__min__energy>  (2) 
-9.3800000000000008

>  <m_primary>  (2) 
energy

$$$$
2:0
     RDKit          3D

 61 64  0  0  0  0  0  0  0  0999 V2000
   -5.7240   25.7280  -30.3570 C   0  0  0  0  0  0  0  0  0  0  0  0
   -6.4480   24.5520  -29.7090 C   0  0  0  0  0  0  0  0  0  0  0  0
   -6.4230   23.3820  -30.6160 N   0  0  0  0  0  0  0  0  0  0  0  0
   -7.5850   22.4760  -30.4220 C   0  0  0  0  0  0  0  0  0  0  0  0
   -8.4870   22.3150  -31.6540 C   0  0  0  0  0  0  0  0  0  0  0  0
   -6.1560   23.7720  -32.0190 C   0  0  0  0  0  0  0  0  0  0  0  0
   -5.1240   22.8570  -32.6880 C   0  0  0  0  0  0  0  0  0  0  0  0
   -4.9780   21.6090  -31.9400 N   0  0  0  0  0  0  0  0  0  0  0  0
   -4.5650   20.3680  -32.5430 C   0  0  0  0  0  0  0  0  0  0  0  0
   -3.2060   20.1810  -32.8740 C   0  0  0  0  0  0  0  0  0  0  0  0
   -1.9930   21.4930  -32.5920 S   0  0  0  0  0  0  0  0  0  0  0  0
   -1.6400   21.1280  -30.8320 C   0  0  0  0  0  0  0  0  0  0  0  0
   -2.4150   22.0100  -29.8950 C   0  0  0  0  0  0  0  0  0  0  0  0
   -3.1440   21.4460  -28.8350 C   0  0  0  0  0  0  0  0  0  0  0  0
   -3.7810   22.2700  -27.9020 C   0  0  0  0  0  0  0  0  0  0  0  0
   -3.7030   23.6600  -28.0280 C   0  0  0  0  0  0  0  0  0  0  0  0
   -3.0060   24.2280  -29.0980 C   0  0  0  0  0  0  0  0  0  0  0  0
   -2.3650   23.4080  -30.0320 C   0  0  0  0  0  0  0  0  0  0  0  0
   -2.7630   18.9470  -33.3580 C   0  0  0  0  0  0  0  0  0  0  0  0
   -3.6580   17.8980  -33.5940 C   0  0  0  0  0  0  0  0  0  0  0  0
   -5.0210   18.0690  -33.2730 C   0  0  0  0  0  0  0  0  0  0  0  0
   -5.9190   16.9950  -33.4590 C   0  0  0  0  0  0  0  0  0  0  0  0
   -7.2590   17.1330  -33.0740 C   0  0  0  0  0  0  0  0  0  0  0  0
   -7.6930   18.3010  -32.4520 C   0  0  0  0  0  0  0  0  0  0  0  0
   -6.8090   19.3600  -32.2460 C   0  0  0  0  0  0  0  0  0  0  0  0
   -5.4740   19.2870  -32.6980 C   0  0  0  0  0  0  0  0  0  0  0  0
   -5.4510   15.7110  -34.0870 C   0  0  0  0  0  0  0  0  0  0  0  0
   -3.9570   15.5090  -33.8150 C   0  0  0  0  0  0  0  0  0  0  0  0
   -3.1870   16.6880  -34.2350 N   0  0  0  0  0  0  0  0  0  0  0  0
   -5.3190   26.3858  -29.5739 H   0  0  0  0  0  0  0  0  0  0  0  0
   -4.9006   25.3522  -30.9822 H   0  0  0  0  0  0  0  0  0  0  0  0
   -6.4303   26.2940  -30.9822 H   0  0  0  0  0  0  0  0  0  0  0  0
   -5.9480   24.2918  -28.7644 H   0  0  0  0  0  0  0  0  0  0  0  0
   -7.4926   24.8346  -29.5117 H   0  0  0  0  0  0  0  0  0  0  0  0
   -7.2022   21.4825  -30.1457 H   0  0  0  0  0  0  0  0  0  0  0  0
   -8.2078   22.9335  -29.6392 H   0  0  0  0  0  0  0  0  0  0  0  0
   -9.5216   22.1303  -31.3293 H   0  0  0  0  0  0  0  0  0  0  0  0
   -8.4506   23.2338  -32.2577 H   0  0  0  0  0  0  0  0  0  0  0  0
   -8.1350   21.4655  -32.2577 H   0  0  0  0  0  0  0  0  0  0  0  0
   -7.0968   23.7193  -32.5865 H   0  0  0  0  0  0  0  0  0  0  0  0
   -5.7483   24.7937  -32.0138 H   0  0  0  0  0  0  0  0  0  0  0  0
   -5.4545   22.6278  -33.7118 H   0  0  0  0  0  0  0  0  0  0  0  0
   -4.1530   23.3736  -32.7071 H   0  0  0  0  0  0  0  0  0  0  0  0
   -4.9890   21.6730  -30.8960 H   0  0  0  0  0  0  0  0  0  0  0  0
   -1.9042   20.0796  -30.6293 H   0  0  0  0  0  0  0  0  0  0  0  0
   -0.5700   21.3159  -30.6597 H   0  0  0  0  0  0  0  0  0  0  0  0
   -3.2140   20.3525  -28.7386 H   0  0  0  0  0  0  0  0  0  0  0  0
   -4.3437   21.8242  -27.0685 H   0  0  0  0  0  0  0  0  0  0  0  0
   -4.1907   24.3074  -27.2843 H   0  0  0  0  0  0  0  0  0  0  0  0
   -2.9616   25.3218  -29.2056 H   0  0  0  0  0  0  0  0  0  0  0  0
   -1.8207   23.8579  -30.8754 H   0  0  0  0  0  0  0  0  0  0  0  0
   -1.6915   18.7979  -33.5569 H   0  0  0  0  0  0  0  0  0  0  0  0
   -7.9707   16.3160  -33.2637 H   0  0  0  0  0  0  0  0  0  0  0  0
   -8.7385   18.3888  -32.1214 H   0  0  0  0  0  0  0  0  0  0  0  0
   -7.1569   20.2639  -31.7244 H   0  0  0  0  0  0  0  0  0  0  0  0
   -6.0161   14.8694  -33.6599 H   0  0  0  0  0  0  0  0  0  0  0  0
   -5.6171   15.7588  -35.1733 H   0  0  0  0  0  0  0  0  0  0  0  0
   -3.8054   15.3439  -32.7381 H   0  0  0  0  0  0  0  0  0  0  0  0
   -3.6085   14.6373  -34.3883 H   0  0  0  0  0  0  0  0  0  0  0  0
   -3.2640   16.8070  -35.2720 H   0  0  0  0  0  0  0  0  0  0  0  0
   -2.1820   16.5200  -33.9930 H   0  0  0  0  0  0  0  0  0  0  0  0
  1  2  1  0
  2  3  1  0
  3  4  1  0
  4  5  1  0
  3  6  1  0
  6  7  1  0
  7  8  1  0
  8  9  1  0
  9 10  2  0
 10 11  1  0
 11 12  1  0
 12 13  1  0
 13 14  2  0
 14 15  1  0
 15 16  2  0
 16 17  1  0
 17 18  2  0
 10 19  1  0
 19 20  2  0
 20 21  1  0
 21 22  2  0
 22 23  1  0
 23 24  2  0
 24 25  1  0
 25 26  2  0
 22 27  1  0
 27 28  1  0
 28 29  1  0
 26  9  1  0
 18 13  1  0
 29 20  1  0
 26 21  1  0
  1 30  1  0
  1 31  1  0
  1 32  1  0
  2 33  1  0
  2 34  1  0
  4 35  1  0
  4 36  1  0
  5 37  1  0
  5 38  1  0
  5 39  1  0
  6 40  1  0
  6 41  1  0
  7 42  1  0
  7 43  1  0
  8 44  1  0
 12 45  1  0
 12 46  1  0
 14 47  1  0
 15 48  1  0
 16 49  1  0
 17 50  1  0
 18 51  1  0
 19 52  1  0
 23 53  1  0
 24 54  1  0
 25 55  1  0
 27 56  1  0
 27 57  1  0
 28 58  1  0
 28 59  1  0
 29 60  1  0
 29 61  1  0
M  CHG  1  29   1
M  END
>  <UniqueID>  (3) 
3

>  <SMILES>  (3) 
CCN(CC)CCNc1c(SCc2ccccc2)cc2c3c(cccc13)CC[NH2+]2

>  <Energy>  (3) 
73.47711173852704

>  <Genealogy>  (3) 
CCN(CC)CCNc1c(SCc2ccccc2)cc2c3c(cccc13)CC[NH2+]2 (protonated)
CCN(CC)CCNc1c(SCc2ccccc2)cc2c3c(cccc13)CC[NH2+]2 (3D coordinates assigned)
CCN(CC)CCNc1c(SCc2ccccc2)cc2c3c(cccc13)CC[NH2+]2 (nonaromatic ring conformer: 73.47711173852704 kcal/mol)

>  <smiles>  (3) 
CCN(CC)CCNc1c(SCc2ccccc2)cc2c3c(cccc13)CCN2

>  <score_type>  (3) 
oracle

>  <origin>  (3) 
adg

>  <m_score__min__energy>  (3) 
-9.1799999999999997

>  <m_primary>  (3) 
energy

$$$$
3:0
     RDKit          3D

 61 65  0  0  0  0  0  0  0  0999 V2000
   -0.9350   26.9480  -26.3180 C   0  0  0  0  0  0  0  0  0  0  0  0
   -0.7030   26.9950  -27.8280 C   0  0  0  0  0  0  0  0  0  0  0  0
   -1.4640   25.9980  -28.4780 O   0  0  0  0  0  0  0  0  0  0  0  0
   -1.1480   24.7090  -27.9900 C   0  0  0  0  0  0  0  0  0  0  0  0
   -2.3240   24.2080  -27.1480 C   0  0  0  0  0  0  0  0  0  0  0  0
   -3.6150   24.6910  -27.6760 N   0  0  0  0  0  0  0  0  0  0  0  0
   -4.1050   23.7780  -28.6810 C   0  0  0  0  0  0  0  0  0  0  0  0
   -3.5940   22.4670  -28.7520 C   0  0  0  0  0  0  0  0  0  0  0  0
   -3.9840   21.6150  -29.7880 C   0  0  0  0  0  0  0  0  0  0  0  0
   -4.8660   22.0680  -30.7780 C   0  0  0  0  0  0  0  0  0  0  0  0
   -5.3950   23.3600  -30.7120 C   0  0  0  0  0  0  0  0  0  0  0  0
   -5.0100   24.2180  -29.6650 C   0  0  0  0  0  0  0  0  0  0  0  0
   -6.3680   23.7910  -31.7710 C   0  0  0  0  0  0  0  0  0  0  0  0
   -7.7040   23.0560  -31.6020 C   0  0  0  0  0  0  0  0  0  0  0  0
   -7.7100   21.5480  -31.8360 C   0  0  0  0  0  0  0  0  0  0  0  0
   -8.9830   20.9420  -31.8670 C   0  0  0  0  0  0  0  0  0  0  0  0
   -9.1250   19.5640  -32.0320 C   0  0  0  0  0  0  0  0  0  0  0  0
   -7.9970   18.7590  -32.1750 C   0  0  0  0  0  0  0  0  0  0  0  0
   -8.1420   17.4200  -32.3430 F   0  0  0  0  0  0  0  0  0  0  0  0
   -6.7260   19.3260  -32.1360 C   0  0  0  0  0  0  0  0  0  0  0  0
   -6.5550   20.7130  -31.9660 C   0  0  0  0  0  0  0  0  0  0  0  0
   -5.2130   21.2240  -31.8830 N   0  0  0  0  0  0  0  0  0  0  0  0
   -4.2710   20.9900  -32.9550 C   0  0  0  0  0  0  0  0  0  0  0  0
   -3.9200   21.9500  -33.6990 O   0  0  0  0  0  0  0  0  0  0  0  0
   -3.5950   19.6500  -33.1310 C   0  0  0  0  0  0  0  0  0  0  0  0
   -4.4930   18.6890  -33.7680 N   0  0  0  0  0  0  0  0  0  0  0  0
   -5.4510   19.0090  -34.6400 N   0  0  0  0  0  0  0  0  0  0  0  0
   -6.1600   17.9340  -34.9890 N   0  0  0  0  0  0  0  0  0  0  0  0
   -5.6250   16.9070  -34.2960 C   0  0  0  0  0  0  0  0  0  0  0  0
   -6.0090   15.5690  -34.2860 C   0  0  0  0  0  0  0  0  0  0  0  0
   -5.2850   14.6970  -33.4460 C   0  0  0  0  0  0  0  0  0  0  0  0
   -4.2150   15.1800  -32.6480 C   0  0  0  0  0  0  0  0  0  0  0  0
   -3.8600   16.5430  -32.6820 C   0  0  0  0  0  0  0  0  0  0  0  0
   -4.5950   17.3720  -33.5350 C   0  0  0  0  0  0  0  0  0  0  0  0
    0.0135   27.1402  -25.7951 H   0  0  0  0  0  0  0  0  0  0  0  0
   -1.6711   27.7153  -26.0361 H   0  0  0  0  0  0  0  0  0  0  0  0
   -1.3144   25.9547  -26.0361 H   0  0  0  0  0  0  0  0  0  0  0  0
   -1.0004   27.9831  -28.2091 H   0  0  0  0  0  0  0  0  0  0  0  0
    0.3634   26.8155  -28.0293 H   0  0  0  0  0  0  0  0  0  0  0  0
   -0.9771   24.0242  -28.8337 H   0  0  0  0  0  0  0  0  0  0  0  0
   -0.2356   24.7508  -27.3769 H   0  0  0  0  0  0  0  0  0  0  0  0
   -2.3247   23.1080  -27.1545 H   0  0  0  0  0  0  0  0  0  0  0  0
   -2.2043   24.5947  -26.1252 H   0  0  0  0  0  0  0  0  0  0  0  0
   -3.4800   25.6410  -28.0970 H   0  0  0  0  0  0  0  0  0  0  0  0
   -4.3260   24.7760  -26.9100 H   0  0  0  0  0  0  0  0  0  0  0  0
   -2.8853   22.1130  -27.9888 H   0  0  0  0  0  0  0  0  0  0  0  0
   -3.5977   20.5858  -29.8267 H   0  0  0  0  0  0  0  0  0  0  0  0
   -5.4186   25.2381  -29.6154 H   0  0  0  0  0  0  0  0  0  0  0  0
   -6.5376   24.8747  -31.6878 H   0  0  0  0  0  0  0  0  0  0  0  0
   -5.9501   23.5482  -32.7591 H   0  0  0  0  0  0  0  0  0  0  0  0
   -8.0493   23.2316  -30.5725 H   0  0  0  0  0  0  0  0  0  0  0  0
   -8.3524   23.4658  -32.3905 H   0  0  0  0  0  0  0  0  0  0  0  0
   -9.8812   21.5678  -31.7590 H   0  0  0  0  0  0  0  0  0  0  0  0
  -10.1281   19.1129  -32.0492 H   0  0  0  0  0  0  0  0  0  0  0  0
   -5.8416   18.6801  -32.2396 H   0  0  0  0  0  0  0  0  0  0  0  0
   -2.7012   19.7780  -33.7593 H   0  0  0  0  0  0  0  0  0  0  0  0
   -3.3173   19.2650  -32.1387 H   0  0  0  0  0  0  0  0  0  0  0  0
   -6.8418   15.2069  -34.9068 H   0  0  0  0  0  0  0  0  0  0  0  0
   -5.5527   13.6307  -33.4090 H   0  0  0  0  0  0  0  0  0  0  0  0
   -3.6599   14.4863  -31.9995 H   0  0  0  0  0  0  0  0  0  0  0  0
   -3.0400   16.9379  -32.0642 H   0  0  0  0  0  0  0  0  0  0  0  0
  1  2  1  0
  2  3  1  0
  3  4  1  0
  4  5  1  0
  5  6  1  0
  6  7  1  0
  7  8  2  0
  8  9  1  0
  9 10  2  0
 10 11  1  0
 11 12  2  0
 11 13  1  0
 13 14  1  0
 14 15  1  0
 15 16  2  0
 16 17  1  0
 17 18  2  0
 18 19  1  0
 18 20  1  0
 20 21  2  0
 21 22  1  0
 22 23  1  0
 23 24  2  0
 23 25  1  0
 25 26  1  0
 26 27  1  0
 27 28  2  0
 28 29  1  0
 29 30  2  0
 30 31  1  0
 31 32  2  0
 32 33  1  0
 33 34  2  0
 12  7  1  0
 21 15  1  0
 34 26  1  0
 22 10  1  0
 34 29  1  0
  1 35  1  0
  1 36  1  0
  1 37  1  0
  2 38  1  0
  2 39  1  0
  4 40  1  0
  4 41  1  0
  5 42  1  0
  5 43  1  0
  6 44  1  0
  6 45  1  0
  8 46  1  0
  9 47  1  0
 12 48  1  0
 13 49  1  0
 13 50  1  0
 14 51  1  0
 14 52  1  0
 16 53  1  0
 17 54  1  0
 20 55  1  0
 25 56  1  0
 25 57  1  0
 30 58  1  0
 31 59  1  0
 32 60  1  0
 33 61  1  0
M  CHG  1   6   1
M  END
>  <UniqueID>  (4) 
4

>  <SMILES>  (4) 
CCOCC[NH2+]c1ccc2c(c1)CCc1ccc(F)cc1N2C(=O)Cn1nnc2ccccc21

>  <Energy>  (4) 
130.65234003854056

>  <Genealogy>  (4) 
CCOCC[NH2+]c1ccc2c(c1)CCc1ccc(F)cc1N2C(=O)Cn1nnc2ccccc21 (protonated)
CCOCC[NH2+]c1ccc2c(c1)CCc1ccc(F)cc1N2C(=O)Cn1nnc2ccccc21 (3D coordinates assigned)
CCOCC[NH2+]c1ccc2c(c1)CCc1ccc(F)cc1N2C(=O)Cn1nnc2ccccc21 (nonaromatic ring conformer: 130.65234003854056 kcal/mol)

>  <smiles>  (4) 
CCOCCNc1ccc2c(c1)CCc1ccc(F)cc1N2C(=O)Cn1nnc2ccccc21

>  <score_type>  (4) 
oracle

>  <origin>  (4) 
adg

>  <m_score__min__energy>  (4) 
-8.5500000000000007

>  <m_primary>  (4) 
energy

$$$$
4:0
     RDKit          3D

 65 67  0  0  0  0  0  0  0  0999 V2000
   -0.2130   18.4140  -27.8420 C   0  0  0  0  0  0  0  0  0  0  0  0
   -1.0060   19.4850  -27.0760 C   0  0  0  0  0  0  0  0  0  0  0  0
   -2.3210   19.8290  -27.6800 N   0  0  0  0  0  0  0  0  0  0  0  0
   -3.4760   19.2200  -26.9640 C   0  0  0  0  0  0  0  0  0  0  0  0
   -3.0810   18.5540  -25.6420 C   0  0  0  0  0  0  0  0  0  0  0  0
   -2.4880   21.3050  -27.7950 C   0  0  0  0  0  0  0  0  0  0  0  0
   -2.4670   21.7880  -29.2580 C   0  0  0  0  0  0  0  0  0  0  0  0
   -2.0260   20.7460  -30.1080 O   0  0  0  0  0  0  0  0  0  0  0  0
   -2.9800   20.4880  -31.1180 C   0  0  0  0  0  0  0  0  0  0  0  0
   -2.5450   21.1860  -32.4030 C   0  0  0  0  0  0  0  0  0  0  0  0
   -3.6580   21.2840  -33.3460 N   0  0  0  0  0  0  0  0  0  0  0  0
   -4.9390   20.7290  -33.0140 C   0  0  0  0  0  0  0  0  0  0  0  0
   -5.2880   19.4410  -33.4490 C   0  0  0  0  0  0  0  0  0  0  0  0
   -4.3610   18.6410  -34.1520 C   0  0  0  0  0  0  0  0  0  0  0  0
   -4.6970   17.3490  -34.5500 C   0  0  0  0  0  0  0  0  0  0  0  0
   -5.9450   16.8250  -34.2370 C   0  0  0  0  0  0  0  0  0  0  0  0
   -6.8740   17.5960  -33.5380 C   0  0  0  0  0  0  0  0  0  0  0  0
   -6.5790   18.9290  -33.1530 C   0  0  0  0  0  0  0  0  0  0  0  0
   -7.5020   19.7170  -32.4890 N   0  0  0  0  0  0  0  0  0  0  0  0
   -8.9210   19.3000  -32.4260 C   0  0  0  0  0  0  0  0  0  0  0  0
   -7.1020   20.9040  -31.9020 C   0  0  0  0  0  0  0  0  0  0  0  0
   -7.9290   21.6030  -30.9920 C   0  0  0  0  0  0  0  0  0  0  0  0
   -7.5420   22.8300  -30.4550 C   0  0  0  0  0  0  0  0  0  0  0  0
   -6.3090   23.4070  -30.7920 C   0  0  0  0  0  0  0  0  0  0  0  0
   -5.9150   24.6920  -30.2450 N   0  0  0  0  0  0  0  0  0  0  0  0
   -6.8560   25.4790  -29.4370 C   0  0  0  0  0  0  0  0  0  0  0  0
   -4.5690   25.2260  -30.4870 C   0  0  0  0  0  0  0  0  0  0  0  0
   -5.4570   22.7000  -31.6580 C   0  0  0  0  0  0  0  0  0  0  0  0
   -5.8260   21.4480  -32.1930 C   0  0  0  0  0  0  0  0  0  0  0  0
    0.2837   17.7432  -27.1256 H   0  0  0  0  0  0  0  0  0  0  0  0
   -0.8994   17.8317  -28.4743 H   0  0  0  0  0  0  0  0  0  0  0  0
    0.5442   18.9007  -28.4743 H   0  0  0  0  0  0  0  0  0  0  0  0
   -1.1829   19.1166  -26.0547 H   0  0  0  0  0  0  0  0  0  0  0  0
   -0.3997   20.4024  -27.1035 H   0  0  0  0  0  0  0  0  0  0  0  0
   -2.3040   19.4280  -28.6490 H   0  0  0  0  0  0  0  0  0  0  0  0
   -4.2120   20.0095  -26.7519 H   0  0  0  0  0  0  0  0  0  0  0  0
   -3.8889   18.4358  -27.6155 H   0  0  0  0  0  0  0  0  0  0  0  0
   -3.4430   19.1643  -24.8015 H   0  0  0  0  0  0  0  0  0  0  0  0
   -3.5307   17.5516  -25.5877 H   0  0  0  0  0  0  0  0  0  0  0  0
   -1.9857   18.4679  -25.5877 H   0  0  0  0  0  0  0  0  0  0  0  0
   -3.4506   21.5875  -27.3438 H   0  0  0  0  0  0  0  0  0  0  0  0
   -1.6431   21.7790  -27.2739 H   0  0  0  0  0  0  0  0  0  0  0  0
   -3.4809   22.0948  -29.5544 H   0  0  0  0  0  0  0  0  0  0  0  0
   -1.7773   22.6404  -29.3458 H   0  0  0  0  0  0  0  0  0  0  0  0
   -3.0485   19.4040  -31.2922 H   0  0  0  0  0  0  0  0  0  0  0  0
   -3.9642   20.8665  -30.8047 H   0  0  0  0  0  0  0  0  0  0  0  0
   -2.1885   22.1979  -32.1602 H   0  0  0  0  0  0  0  0  0  0  0  0
   -1.7411   20.5967  -32.8682 H   0  0  0  0  0  0  0  0  0  0  0  0
   -3.4950   21.6030  -34.3280 H   0  0  0  0  0  0  0  0  0  0  0  0
   -3.3641   19.0417  -34.3876 H   0  0  0  0  0  0  0  0  0  0  0  0
   -3.9726   16.7424  -35.1133 H   0  0  0  0  0  0  0  0  0  0  0  0
   -6.2013   15.7994  -34.5412 H   0  0  0  0  0  0  0  0  0  0  0  0
   -7.8519   17.1629  -33.2810 H   0  0  0  0  0  0  0  0  0  0  0  0
   -9.2301   19.2092  -31.3742 H   0  0  0  0  0  0  0  0  0  0  0  0
   -9.5469   20.0522  -32.9285 H   0  0  0  0  0  0  0  0  0  0  0  0
   -9.0404   18.3288  -32.9285 H   0  0  0  0  0  0  0  0  0  0  0  0
   -8.8975   21.1695  -30.7020 H   0  0  0  0  0  0  0  0  0  0  0  0
   -8.2130   23.3527  -29.7574 H   0  0  0  0  0  0  0  0  0  0  0  0
   -6.6533   25.3095  -28.3692 H   0  0  0  0  0  0  0  0  0  0  0  0
   -6.7335   26.5474  -29.6684 H   0  0  0  0  0  0  0  0  0  0  0  0
   -7.8859   25.1695  -29.6684 H   0  0  0  0  0  0  0  0  0  0  0  0
   -4.0739   25.4224  -29.5245 H   0  0  0  0  0  0  0  0  0  0  0  0
   -3.9811   24.4930  -31.0589 H   0  0  0  0  0  0  0  0  0  0  0  0
   -4.6435   26.1627  -31.0589 H   0  0  0  0  0  0  0  0  0  0  0  0
   -4.4813   23.1324  -31.9243 H   0  0  0  0  0  0  0  0  0  0  0  0
  1  2  1  0
  2  3  1  0
  3  4  1  0
  4  5  1  0
  3  6  1  0
  6  7  1  0
  7  8  1  0
  8  9  1  0
  9 10  1  0
 10 11  1  0
 11 12  1  0
 12 13  2  0
 13 14  1  0
 14 15  2  0
 15 16  1  0
 16 17  2  0
 17 18  1  0
 18 19  2  0
 19 20  1  0
 19 21  1  0
 21 22  2  0
 22 23  1  0
 23 24  2  0
 24 25  1  0
 25 26  1  0
 25 27  1  0
 24 28  1  0
 28 29  2  0
 29 12  1  0
 18 13  1  0
 29 21  1  0
  1 30  1  0
  1 31  1  0
  1 32  1  0
  2 33  1  0
  2 34  1  0
  3 35  1  0
  4 36  1  0
  4 37  1  0
  5 38  1  0
  5 39  1  0
  5 40  1  0
  6 41  1  0
  6 42  1  0
  7 43  1  0
  7 44  1  0
  9 45  1  0
  9 46  1  0
 10 47  1  0
 10 48  1  0
 11 49  1  0
 14 50  1  0
 15 51  1  0
 16 52  1  0
 17 53  1  0
 20 54  1  0
 20 55  1  0
 20 56  1  0
 22 57  1  0
 23 58  1  0
 26 59  1  0
 26 60  1  0
 26 61  1  0
 27 62  1  0
 27 63  1  0
 27 64  1  0
 28 65  1  0
M  CHG  2   3   1  19   1
M  END
>  <UniqueID>  (5) 
5

>  <SMILES>  (5) 
CC[NH+](CC)CCOCCNc1c2ccccc2[n+](C)c2ccc(N(C)C)cc12

>  <Energy>  (5) 
95.5213091904147

>  <Genealogy>  (5) 
CC[NH+](CC)CCOCCNc1c2ccccc2[n+](C)c2ccc(N(C)C)cc12 (protonated)
CC[NH+](CC)CCOCCNc1c2ccccc2[n+](C)c2ccc(N(C)C)cc12 (3D coordinates assigned)
CC[NH+](CC)CCOCCNc1c2ccccc2[n+](C)c2ccc(N(C)C)cc12 (optimized conformer: 95.5213091904147 kcal/mol)

>  <smiles>  (5) 
CCN(CC)CCOCCNc1c2ccccc2[n+](C)c2ccc(N(C)C)cc12

>  <score_type>  (5) 
oracle

>  <origin>  (5) 
adg

>  <m_score__min__energy>  (5) 
-7.3799999999999999

>  <m_primary>  (5) 
energy

$$$$
5:0
     RDKit          3D

 54 56  0  0  0  0  0  0  0  0999 V2000
   -8.3460   18.8720  -31.9120 C   0  0  0  0  0  0  0  0  0  0  0  0
   -9.1490   20.1140  -32.3070 C   0  0  0  0  0  0  0  0  0  0  0  0
   -8.7180   21.3160  -31.5700 N   0  0  0  0  0  0  0  0  0  0  0  0
   -7.6810   22.0900  -32.2680 C   0  0  0  0  0  0  0  0  0  0  0  0
   -6.6330   22.6210  -31.3210 C   0  0  0  0  0  0  0  0  0  0  0  0
   -5.4180   21.9410  -31.1510 C   0  0  0  0  0  0  0  0  0  0  0  0
   -4.4370   22.4530  -30.2970 C   0  0  0  0  0  0  0  0  0  0  0  0
   -4.6510   23.6550  -29.6000 C   0  0  0  0  0  0  0  0  0  0  0  0
   -3.6070   24.2020  -28.6970 C   0  0  0  0  0  0  0  0  0  0  0  0
   -2.3080   24.4490  -29.1730 C   0  0  0  0  0  0  0  0  0  0  0  0
   -1.3260   24.9650  -28.3240 C   0  0  0  0  0  0  0  0  0  0  0  0
   -1.6230   25.2550  -26.9810 C   0  0  0  0  0  0  0  0  0  0  0  0
   -0.6070   25.7780  -26.0990 N   0  0  0  0  0  0  0  0  0  0  0  0
    0.0460   27.0650  -26.3750 C   0  0  0  0  0  0  0  0  0  0  0  0
   -0.2220   28.0710  -25.2560 C   0  0  0  0  0  0  0  0  0  0  0  0
    0.8600   28.0700  -24.1600 C   0  0  0  0  0  0  0  0  0  0  0  0
    0.8470   26.8100  -23.3670 N   0  0  1  0  0  0  0  0  0  0  0  0
   -0.4270   26.6840  -22.6350 C   0  0  0  0  0  0  0  0  0  0  0  0
    1.0430   25.6030  -24.2070 C   0  0  0  0  0  0  0  0  0  0  0  0
   -0.2420   25.0590  -24.8720 C   0  0  0  0  0  0  0  0  0  0  0  0
   -2.9170   24.9940  -26.5010 C   0  0  0  0  0  0  0  0  0  0  0  0
   -3.8990   24.4780  -27.3510 C   0  0  0  0  0  0  0  0  0  0  0  0
   -5.8720   24.3320  -29.7740 C   0  0  0  0  0  0  0  0  0  0  0  0
   -6.8530   23.8200  -30.6270 C   0  0  0  0  0  0  0  0  0  0  0  0
   -8.2990   18.7992  -30.8154 H   0  0  0  0  0  0  0  0  0  0  0  0
   -8.8352   17.9745  -32.3184 H   0  0  0  0  0  0  0  0  0  0  0  0
   -7.3268   18.9498  -32.3184 H   0  0  0  0  0  0  0  0  0  0  0  0
   -9.0167   20.2930  -33.3842 H   0  0  0  0  0  0  0  0  0  0  0  0
  -10.2038   19.9264  -32.0578 H   0  0  0  0  0  0  0  0  0  0  0  0
   -9.5300   21.9340  -31.3280 H   0  0  0  0  0  0  0  0  0  0  0  0
   -7.1924   21.4403  -33.0091 H   0  0  0  0  0  0  0  0  0  0  0  0
   -8.1683   22.9504  -32.7499 H   0  0  0  0  0  0  0  0  0  0  0  0
   -5.2364   21.0007  -31.6921 H   0  0  0  0  0  0  0  0  0  0  0  0
   -3.4887   21.9104  -30.1691 H   0  0  0  0  0  0  0  0  0  0  0  0
   -2.0623   24.2341  -30.2235 H   0  0  0  0  0  0  0  0  0  0  0  0
   -0.3118   25.1459  -28.7096 H   0  0  0  0  0  0  0  0  0  0  0  0
    1.1309   26.9057  -26.4622 H   0  0  0  0  0  0  0  0  0  0  0  0
   -0.3628   27.4694  -27.3127 H   0  0  0  0  0  0  0  0  0  0  0  0
   -0.2709   29.0777  -25.6966 H   0  0  0  0  0  0  0  0  0  0  0  0
   -1.1688   27.7798  -24.7777 H   0  0  0  0  0  0  0  0  0  0  0  0
    1.8463   28.1815  -24.6341 H   0  0  0  0  0  0  0  0  0  0  0  0
    0.6519   28.9054  -23.4753 H   0  0  0  0  0  0  0  0  0  0  0  0
    1.5990   26.8330  -22.6370 H   0  0  0  0  0  0  0  0  0  0  0  0
   -0.2315   26.7033  -21.5527 H   0  0  0  0  0  0  0  0  0  0  0  0
   -1.0883   27.5211  -22.9032 H   0  0  0  0  0  0  0  0  0  0  0  0
   -0.9115   25.7336  -22.9032 H   0  0  0  0  0  0  0  0  0  0  0  0
    1.7603   25.8529  -25.0026 H   0  0  0  0  0  0  0  0  0  0  0  0
    1.4007   24.8114  -23.5321 H   0  0  0  0  0  0  0  0  0  0  0  0
   -0.0849   23.9992  -25.1214 H   0  0  0  0  0  0  0  0  0  0  0  0
   -1.0648   25.1971  -24.1551 H   0  0  0  0  0  0  0  0  0  0  0  0
   -3.1594   25.1974  -25.4475 H   0  0  0  0  0  0  0  0  0  0  0  0
   -4.9100   24.2862  -26.9624 H   0  0  0  0  0  0  0  0  0  0  0  0
   -6.0559   25.2724  -29.2339 H   0  0  0  0  0  0  0  0  0  0  0  0
   -7.8028   24.3599  -30.7550 H   0  0  0  0  0  0  0  0  0  0  0  0
  1  2  1  0
  2  3  1  0
  3  4  1  0
  4  5  1  0
  5  6  2  0
  6  7  1  0
  7  8  2  0
  8  9  1  0
  9 10  2  0
 10 11  1  0
 11 12  2  0
 12 13  1  0
 13 14  1  0
 14 15  1  0
 15 16  1  0
 16 17  1  0
 17 18  1  0
 17 19  1  0
 19 20  1  0
 12 21  1  0
 21 22  2  0
  8 23  1  0
 23 24  2  0
 24  5  1  0
 22  9  1  0
 20 13  1  0
  1 25  1  0
  1 26  1  0
  1 27  1  0
  2 28  1  0
  2 29  1  0
  3 30  1  0
  4 31  1  0
  4 32  1  0
  6 33  1  0
  7 34  1  0
 10 35  1  0
 11 36  1  0
 14 37  1  0
 14 38  1  0
 15 39  1  0
 15 40  1  0
 16 41  1  0
 16 42  1  0
 17 43  1  1
 18 44  1  0
 18 45  1  0
 18 46  1  0
 19 47  1  0
 19 48  1  0
 20 49  1  0
 20 50  1  0
 21 51  1  0
 22 52  1  0
 23 53  1  0
 24 54  1  0
M  CHG  1  17   1
M  END
>  <UniqueID>  (6) 
6

>  <SMILES>  (6) 
CCNCc1ccc(-c2ccc(N3CCC[N@@H+](C)CC3)cc2)cc1

>  <Energy>  (6) 
70.14636553421265

>  <Genealogy>  (6) 
CCNCc1ccc(-c2ccc(N3CCC[NH+](C)CC3)cc2)cc1 (protonated)
CCNCc1ccc(-c2ccc(N3CCC[N@@H+](C)CC3)cc2)cc1 (chirality)
CCNCc1ccc(-c2ccc(N3CCC[N@@H+](C)CC3)cc2)cc1 (3D coordinates assigned)
CCNCc1ccc(-c2ccc(N3CCC[N@@H+](C)CC3)cc2)cc1 (nonaromatic ring conformer: 70.14636553421265 kcal/mol)

>  <smiles>  (6) 
CCNCc1ccc(-c2ccc(N3CCCN(C)CC3)cc2)cc1

>  <score_type>  (6) 
oracle

>  <origin>  (6) 
adg

>  <m_score__min__energy>  (6) 
-6.1299999999999999

>  <m_primary>  (6) 
energy

$$$$
6:0
     RDKit          3D

 69 71  0  0  0  0  0  0  0  0999 V2000
   -0.5520   23.0050  -28.5640 C   0  0  0  0  0  0  0  0  0  0  0  0
   -0.9810   21.9780  -27.5070 C   0  0  0  0  0  0  0  0  0  0  0  0
   -1.3900   20.6540  -28.0440 N   0  0  2  0  0  0  0  0  0  0  0  0
   -2.8380   20.4190  -27.8680 C   0  0  0  0  0  0  0  0  0  0  0  0
   -0.6250   19.5100  -27.4870 C   0  0  0  0  0  0  0  0  0  0  0  0
    0.5810   19.0860  -28.3510 C   0  0  0  0  0  0  0  0  0  0  0  0
    0.7910   19.9490  -29.4560 O   0  0  0  0  0  0  0  0  0  0  0  0
    0.4330   19.3300  -30.6820 C   0  0  0  0  0  0  0  0  0  0  0  0
   -0.1950   20.3190  -31.6840 C   0  0  0  0  0  0  0  0  0  0  0  0
   -1.4160   20.8660  -31.2120 O   0  0  0  0  0  0  0  0  0  0  0  0
   -2.4650   20.7470  -32.1570 C   0  0  0  0  0  0  0  0  0  0  0  0
   -3.6330   21.7120  -31.9070 C   0  0  0  0  0  0  0  0  0  0  0  0
   -4.6400   21.6160  -32.9610 N   0  0  0  0  0  0  0  0  0  0  0  0
   -5.8160   20.7970  -32.8060 C   0  0  0  0  0  0  0  0  0  0  0  0
   -7.0410   21.3750  -32.4140 C   0  0  0  0  0  0  0  0  0  0  0  0
   -7.2030   22.7770  -32.3630 C   0  0  0  0  0  0  0  0  0  0  0  0
   -8.4110   23.3440  -31.9590 C   0  0  0  0  0  0  0  0  0  0  0  0
   -9.4810   22.5270  -31.6170 C   0  0  0  0  0  0  0  0  0  0  0  0
   -9.3540   21.1380  -31.6900 C   0  0  0  0  0  0  0  0  0  0  0  0
   -8.1300   20.5330  -32.0770 C   0  0  0  0  0  0  0  0  0  0  0  0
   -7.9880   19.1620  -32.1440 N   0  0  0  0  0  0  0  0  0  0  0  0
   -8.9820   18.2970  -31.4730 C   0  0  0  0  0  0  0  0  0  0  0  0
   -6.8920   18.6110  -32.7820 C   0  0  0  0  0  0  0  0  0  0  0  0
   -6.8740   17.2560  -33.1840 C   0  0  0  0  0  0  0  0  0  0  0  0
   -5.7460   16.6870  -33.7950 C   0  0  0  0  0  0  0  0  0  0  0  0
   -5.7730   15.3120  -34.2470 N   0  0  0  0  0  0  0  0  0  0  0  0
   -7.0530   14.6530  -34.5250 C   0  0  0  0  0  0  0  0  0  0  0  0
   -4.5220   14.6220  -34.5820 C   0  0  0  0  0  0  0  0  0  0  0  0
   -4.6070   17.4790  -33.9870 C   0  0  0  0  0  0  0  0  0  0  0  0
   -4.6090   18.8230  -33.6260 C   0  0  0  0  0  0  0  0  0  0  0  0
   -5.7610   19.4170  -33.0720 C   0  0  0  0  0  0  0  0  0  0  0  0
   -0.1742   23.9093  -28.0645 H   0  0  0  0  0  0  0  0  0  0  0  0
    0.2416   22.5747  -29.1925 H   0  0  0  0  0  0  0  0  0  0  0  0
   -1.4159   23.2670  -29.1925 H   0  0  0  0  0  0  0  0  0  0  0  0
   -0.1353   21.8211  -26.8213 H   0  0  0  0  0  0  0  0  0  0  0  0
   -1.8713   22.3976  -27.0157 H   0  0  0  0  0  0  0  0  0  0  0  0
   -1.2220   20.6840  -29.0770 H   0  0  0  0  0  0  0  0  0  0  0  0
   -3.0754   20.3805  -26.7946 H   0  0  0  0  0  0  0  0  0  0  0  0
   -3.4022   21.2373  -28.3392 H   0  0  0  0  0  0  0  0  0  0  0  0
   -3.1145   19.4642  -28.3392 H   0  0  0  0  0  0  0  0  0  0  0  0
   -0.2550   19.7928  -26.4905 H   0  0  0  0  0  0  0  0  0  0  0  0
   -1.3121   18.6517  -27.4537 H   0  0  0  0  0  0  0  0  0  0  0  0
    1.4839   19.0922  -27.7227 H   0  0  0  0  0  0  0  0  0  0  0  0
    0.3695   18.0822  -28.7481 H   0  0  0  0  0  0  0  0  0  0  0  0
    1.3367   18.8960  -31.1347 H   0  0  0  0  0  0  0  0  0  0  0  0
   -0.3192   18.5590  -30.4589 H   0  0  0  0  0  0  0  0  0  0  0  0
    0.5148   21.1405  -31.8613 H   0  0  0  0  0  0  0  0  0  0  0  0
   -0.4114   19.7658  -32.6099 H   0  0  0  0  0  0  0  0  0  0  0  0
   -2.0556   20.9491  -33.1577 H   0  0  0  0  0  0  0  0  0  0  0  0
   -2.8657   19.7266  -32.0659 H   0  0  0  0  0  0  0  0  0  0  0  0
   -4.1004   21.4655  -30.9422 H   0  0  0  0  0  0  0  0  0  0  0  0
   -3.2377   22.7385  -31.8989 H   0  0  0  0  0  0  0  0  0  0  0  0
   -4.4220   22.0180  -33.8960 H   0  0  0  0  0  0  0  0  0  0  0  0
   -6.3647   23.4306  -32.6459 H   0  0  0  0  0  0  0  0  0  0  0  0
   -8.5166   24.4379  -31.9111 H   0  0  0  0  0  0  0  0  0  0  0  0
  -10.4303   22.9748  -31.2880 H   0  0  0  0  0  0  0  0  0  0  0  0
  -10.2172   20.5023  -31.4434 H   0  0  0  0  0  0  0  0  0  0  0  0
   -8.8735   18.3915  -30.3824 H   0  0  0  0  0  0  0  0  0  0  0  0
   -9.9956   18.6056  -31.7687 H   0  0  0  0  0  0  0  0  0  0  0  0
   -8.8164   17.2505  -31.7687 H   0  0  0  0  0  0  0  0  0  0  0  0
   -7.7646   16.6332  -33.0140 H   0  0  0  0  0  0  0  0  0  0  0  0
   -7.5479   14.3982  -33.5762 H   0  0  0  0  0  0  0  0  0  0  0  0
   -7.6968   15.3317  -35.1037 H   0  0  0  0  0  0  0  0  0  0  0  0
   -6.8746   13.7347  -35.1037 H   0  0  0  0  0  0  0  0  0  0  0  0
   -4.0021   14.3352  -33.6560 H   0  0  0  0  0  0  0  0  0  0  0  0
   -4.7468   13.7203  -35.1706 H   0  0  0  0  0  0  0  0  0  0  0  0
   -3.8793   15.2932  -35.1706 H   0  0  0  0  0  0  0  0  0  0  0  0
   -3.7023   17.0345  -34.4273 H   0  0  0  0  0  0  0  0  0  0  0  0
   -3.7024   19.4279  -33.7745 H   0  0  0  0  0  0  0  0  0  0  0  0
  1  2  1  0
  2  3  1  0
  3  4  1  0
  3  5  1  0
  5  6  1  0
  6  7  1  0
  7  8  1  0
  8  9  1  0
  9 10  1  0
 10 11  1  0
 11 12  1  0
 12 13  1  0
 13 14  1  0
 14 15  2  0
 15 16  1  0
 16 17  2  0
 17 18  1  0
 18 19  2  0
 19 20  1  0
 20 21  2  0
 21 22  1  0
 21 23  1  0
 23 24  2  0
 24 25  1  0
 25 26  1  0
 26 27  1  0
 26 28  1  0
 25 29  2  0
 29 30  1  0
 30 31  2  0
 31 14  1  0
 20 15  1  0
 31 23  1  0
  1 32  1  0
  1 33  1  0
  1 34  1  0
  2 35  1  0
  2 36  1  0
  3 37  1  6
  4 38  1  0
  4 39  1  0
  4 40  1  0
  5 41  1  0
  5 42  1  0
  6 43  1  0
  6 44  1  0
  8 45  1  0
  8 46  1  0
  9 47  1  0
  9 48  1  0
 11 49  1  0
 11 50  1  0
 12 51  1  0
 12 52  1  0
 13 53  1  0
 16 54  1  0
 17 55  1  0
 18 56  1  0
 19 57  1  0
 22 58  1  0
 22 59  1  0
 22 60  1  0
 24 61  1  0
 27 62  1  0
 27 63  1  0
 27 64  1  0
 28 65  1  0
 28 66  1  0
 28 67  1  0
 29 68  1  0
 30 69  1  0
M  CHG  2   3   1  21   1
M  END
>  <UniqueID>  (7) 
7

>  <SMILES>  (7) 
CC[N@H+](C)CCOCCOCCNc1c2ccccc2[n+](C)c2cc(N(C)C)ccc12

>  <Energy>  (7) 
106.72863999810203

>  <Genealogy>  (7) 
CC[NH+](C)CCOCCOCCNc1c2ccccc2[n+](C)c2cc(N(C)C)ccc12 (protonated)
CC[N@H+](C)CCOCCOCCNc1c2ccccc2[n+](C)c2cc(N(C)C)ccc12 (chirality)
CC[N@H+](C)CCOCCOCCNc1c2ccccc2[n+](C)c2cc(N(C)C)ccc12 (3D coordinates assigned)
CC[N@H+](C)CCOCCOCCNc1c2ccccc2[n+](C)c2cc(N(C)C)ccc12 (optimized conformer: 106.72863999810203 kcal/mol)

>  <smiles>  (7) 
CCN(C)CCOCCOCCNc1c2ccccc2[n+](C)c2cc(N(C)C)ccc12

>  <score_type>  (7) 
oracle

>  <origin>  (7) 
adg

>  <m_score__min__energy>  (7) 
-9.2100000000000009

>  <m_primary>  (7) 
energy

$$$$
7:0
     RDKit          3D

 44 45  0  0  0  0  0  0  0  0999 V2000
   -4.7420   20.9890  -32.8780 C   0  0  0  0  0  0  0  0  0  0  0  0
   -3.5960   21.9010  -32.4230 C   0  0  0  0  0  0  0  0  0  0  0  0
   -2.2690   21.5180  -33.0910 C   0  0  0  0  0  0  0  0  0  0  0  0
   -3.4870   21.9890  -30.8980 C   0  0  0  0  0  0  0  0  0  0  0  0
   -3.2490   20.7980  -30.1900 C   0  0  0  0  0  0  0  0  0  0  0  0
   -3.0340   20.8110  -28.8140 C   0  0  0  0  0  0  0  0  0  0  0  0
   -3.0330   22.0150  -28.1160 C   0  0  0  0  0  0  0  0  0  0  0  0
   -3.3180   23.2290  -28.7700 C   0  0  0  0  0  0  0  0  0  0  0  0
   -3.1760   24.5550  -28.0200 C   0  0  0  0  0  0  0  0  0  0  0  0
   -4.0420   24.6400  -26.7490 C   0  0  0  0  0  0  0  0  0  0  0  0
   -1.7040   24.8060  -27.6790 C   0  0  0  0  0  0  0  0  0  0  0  0
   -3.5810   23.2100  -30.1700 C   0  0  0  0  0  0  0  0  0  0  0  0
   -3.8780   24.4370  -30.8500 N   0  0  0  0  0  0  0  0  0  0  0  0
   -5.1020   25.1660  -30.6950 C   0  0  0  0  0  0  0  0  0  0  0  0
   -5.0440   26.4000  -30.4460 O   0  0  0  0  0  0  0  0  0  0  0  0
   -6.4490   24.4960  -30.8070 C   0  0  1  0  0  0  0  0  0  0  0  0
   -6.6150   23.7700  -32.1340 C   0  0  0  0  0  0  0  0  0  0  0  0
   -7.4610   22.5930  -31.7610 C   0  0  0  0  0  0  0  0  0  0  0  0
   -7.1050   22.3690  -30.2990 C   0  0  0  0  0  0  0  0  0  0  0  0
   -6.6200   23.5740  -29.7460 O   0  0  0  0  0  0  0  0  0  0  0  0
   -5.2567   20.5794  -31.9964 H   0  0  0  0  0  0  0  0  0  0  0  0
   -5.4549   21.5695  -33.4820 H   0  0  0  0  0  0  0  0  0  0  0  0
   -4.3363   20.1640  -33.4820 H   0  0  0  0  0  0  0  0  0  0  0  0
   -3.8401   22.9180  -32.7639 H   0  0  0  0  0  0  0  0  0  0  0  0
   -1.5180   21.3013  -32.3170 H   0  0  0  0  0  0  0  0  0  0  0  0
   -2.4178   20.6262  -33.7175 H   0  0  0  0  0  0  0  0  0  0  0  0
   -1.9197   22.3520  -33.7175 H   0  0  0  0  0  0  0  0  0  0  0  0
   -3.2323   19.8406  -30.7314 H   0  0  0  0  0  0  0  0  0  0  0  0
   -2.8644   19.8661  -28.2769 H   0  0  0  0  0  0  0  0  0  0  0  0
   -2.8067   22.0183  -27.0395 H   0  0  0  0  0  0  0  0  0  0  0  0
   -3.5468   25.3398  -28.6957 H   0  0  0  0  0  0  0  0  0  0  0  0
   -3.3965   24.5766  -25.8606 H   0  0  0  0  0  0  0  0  0  0  0  0
   -4.5862   25.5959  -26.7394 H   0  0  0  0  0  0  0  0  0  0  0  0
   -4.7617   23.8082  -26.7394 H   0  0  0  0  0  0  0  0  0  0  0  0
   -1.5792   24.8273  -26.5863 H   0  0  0  0  0  0  0  0  0  0  0  0
   -1.0868   24.0001  -28.1029 H   0  0  0  0  0  0  0  0  0  0  0  0
   -1.3888   25.7709  -28.1029 H   0  0  0  0  0  0  0  0  0  0  0  0
   -7.2136   25.2849  -30.7511 H   0  0  0  0  0  0  0  0  0  0  0  0
   -7.1239   24.4060  -32.8732 H   0  0  0  0  0  0  0  0  0  0  0  0
   -5.6593   23.4903  -32.6013 H   0  0  0  0  0  0  0  0  0  0  0  0
   -8.5307   22.8216  -31.8774 H   0  0  0  0  0  0  0  0  0  0  0  0
   -7.2806   21.7105  -32.3924 H   0  0  0  0  0  0  0  0  0  0  0  0
   -8.0008   22.0465  -29.7481 H   0  0  0  0  0  0  0  0  0  0  0  0
   -6.3305   21.5915  -30.2237 H   0  0  0  0  0  0  0  0  0  0  0  0
  1  2  1  0
  2  3  1  0
  2  4  1  0
  4  5  2  0
  5  6  1  0
  6  7  2  0
  7  8  1  0
  8  9  1  0
  9 10  1  0
  9 11  1  0
  8 12  2  0
 12 13  1  0
 13 14  1  0
 14 15  2  0
 14 16  1  0
 16 17  1  0
 17 18  1  0
 18 19  1  0
 19 20  1  0
 12  4  1  0
 20 16  1  0
  1 21  1  0
  1 22  1  0
  1 23  1  0
  2 24  1  0
  3 25  1  0
  3 26  1  0
  3 27  1  0
  5 28  1  0
  6 29  1  0
  7 30  1  0
  9 31  1  0
 10 32  1  0
 10 33  1  0
 10 34  1  0
 11 35  1  0
 11 36  1  0
 11 37  1  0
 16 38  1  1
 17 39  1  0
 17 40  1  0
 18 41  1  0
 18 42  1  0
 19 43  1  0
 19 44  1  0
M  CHG  1  13  -1
M  END
>  <UniqueID>  (8) 
8

>  <SMILES>  (8) 
CC(C)c1cccc(C(C)C)c1[N-]C(=O)[C@H]1CCCO1

>  <Energy>  (8) 
47.029762894696034

>  <Genealogy>  (8) 
CC(C)c1cccc(C(C)C)c1[N-]C(=O)C1CCCO1 (protonated)
CC(C)c1cccc(C(C)C)c1[N-]C(=O)[C@H]1CCCO1 (chirality)
CC(C)c1cccc(C(C)C)c1[N-]C(=O)[C@H]1CCCO1 (3D coordinates assigned)
CC(C)c1cccc(C(C)C)c1[N-]C(=O)[C@H]1CCCO1 (nonaromatic ring conformer: 47.029762894696034 kcal/mol)

>  <smiles>  (8) 
CC(C)c1cccc(C(C)C)c1NC(=O)C1CCCO1

>  <score_type>  (8) 
oracle

>  <origin>  (8) 
adg

>  <m_score__min__energy>  (8) 
-8.2799999999999994

>  <m_primary>  (8) 
energy

$$$$
8:0
     RDKit          3D

 66 68  0  0  0  0  0  0  0  0999 V2000
   -0.0716   23.3499  -28.0535 H   0  0  0  0  0  0  0  0  0  0  0  0
   -1.0070   22.8810  -28.3930 C   0  0  0  0  0  0  0  0  0  0  0  0
   -1.2550   21.6700  -28.0180 N   0  0  0  0  0  0  0  0  0  0  0  0
   -0.3630   20.5460  -28.2120 C   0  0  0  0  0  0  0  0  0  0  0  0
    0.6456   20.9183  -28.4446 H   0  0  0  0  0  0  0  0  0  0  0  0
   -0.3378   19.9443  -27.2915 H   0  0  0  0  0  0  0  0  0  0  0  0
   -0.8580   19.6730  -29.3660 C   0  0  0  0  0  0  0  0  0  0  0  0
    0.0010   19.3721  -29.9837 H   0  0  0  0  0  0  0  0  0  0  0  0
   -1.3593   18.7882  -28.9465 H   0  0  0  0  0  0  0  0  0  0  0  0
   -1.8150   20.4000  -30.1990 N   0  0  0  0  0  0  0  0  0  0  0  0
   -1.6770   20.1130  -31.1950 H   0  0  0  0  0  0  0  0  0  0  0  0
   -1.5800   21.4190  -30.1410 H   0  0  0  0  0  0  0  0  0  0  0  0
   -1.9320   23.6870  -29.2720 C   0  0  0  0  0  0  0  0  0  0  0  0
   -1.4012   23.9742  -30.1916 H   0  0  0  0  0  0  0  0  0  0  0  0
   -2.2519   24.5875  -28.7272 H   0  0  0  0  0  0  0  0  0  0  0  0
   -3.1130   22.8940  -29.6220 N   0  0  0  0  0  0  0  0  0  0  0  0
   -3.1560   21.8930  -29.3380 H   0  0  0  0  0  0  0  0  0  0  0  0
   -4.3230   23.4800  -30.1340 C   0  0  0  0  0  0  0  0  0  0  0  0
   -4.6350   24.8000  -29.7850 C   0  0  0  0  0  0  0  0  0  0  0  0
   -3.8668   25.4379  -29.3236 H   0  0  0  0  0  0  0  0  0  0  0  0
   -5.9040   25.3100  -30.0160 C   0  0  0  0  0  0  0  0  0  0  0  0
   -6.1296   26.3551  -29.7574 H   0  0  0  0  0  0  0  0  0  0  0  0
   -6.8920   24.5060  -30.5730 C   0  0  0  0  0  0  0  0  0  0  0  0
   -7.9097   24.9053  -30.6945 H   0  0  0  0  0  0  0  0  0  0  0  0
   -6.6100   23.1830  -30.9860 C   0  0  0  0  0  0  0  0  0  0  0  0
   -5.2850   22.6860  -30.8200 C   0  0  0  0  0  0  0  0  0  0  0  0
   -4.9690   21.4180  -31.3800 C   0  0  0  0  0  0  0  0  0  0  0  0
   -3.6460   21.1330  -31.9300 N   0  0  0  0  0  0  0  0  0  0  0  0
   -2.9140   21.7510  -31.5170 H   0  0  0  0  0  0  0  0  0  0  0  0
   -3.3610   20.1560  -31.7120 H   0  0  0  0  0  0  0  0  0  0  0  0
   -3.6500   21.2380  -33.4030 C   0  0  0  0  0  0  0  0  0  0  0  0
   -3.5227   22.2941  -33.6832 H   0  0  0  0  0  0  0  0  0  0  0  0
   -4.6085   20.8399  -33.7673 H   0  0  0  0  0  0  0  0  0  0  0  0
   -2.5200   20.4140  -34.0480 C   0  0  0  0  0  0  0  0  0  0  0  0
   -1.9052   21.0767  -34.6748 H   0  0  0  0  0  0  0  0  0  0  0  0
   -2.9729   19.6166  -34.6555 H   0  0  0  0  0  0  0  0  0  0  0  0
   -1.6540   19.7840  -33.0110 N   0  0  0  0  0  0  0  0  0  0  0  0
   -1.6820   18.3010  -33.0950 C   0  0  0  0  0  0  0  0  0  0  0  0
   -1.4309   17.8858  -32.1078 H   0  0  0  0  0  0  0  0  0  0  0  0
   -0.9515   17.9929  -33.8576 H   0  0  0  0  0  0  0  0  0  0  0  0
   -3.0530   17.7700  -33.5180 C   0  0  0  0  0  0  0  0  0  0  0  0
   -3.6490   17.5392  -32.6227 H   0  0  0  0  0  0  0  0  0  0  0  0
   -3.5723   18.5320  -34.1177 H   0  0  0  0  0  0  0  0  0  0  0  0
   -2.9235   16.8570  -34.1177 H   0  0  0  0  0  0  0  0  0  0  0  0
   -0.2520   20.2570  -33.1200 C   0  0  0  0  0  0  0  0  0  0  0  0
    0.0009   20.8371  -32.2203 H   0  0  0  0  0  0  0  0  0  0  0  0
    0.4032   19.3786  -33.2151 H   0  0  0  0  0  0  0  0  0  0  0  0
   -0.0550   21.1400  -34.3530 C   0  0  0  0  0  0  0  0  0  0  0  0
    0.1743   22.1678  -34.0351 H   0  0  0  0  0  0  0  0  0  0  0  0
    0.7778   20.7481  -34.9554 H   0  0  0  0  0  0  0  0  0  0  0  0
   -0.9754   21.1392  -34.9554 H   0  0  0  0  0  0  0  0  0  0  0  0
   -6.0380   20.5180  -31.5980 C   0  0  0  0  0  0  0  0  0  0  0  0
   -5.8190   19.1270  -31.7260 C   0  0  0  0  0  0  0  0  0  0  0  0
   -4.7967   18.7286  -31.6473 H   0  0  0  0  0  0  0  0  0  0  0  0
   -6.8840   18.2530  -31.9510 C   0  0  0  0  0  0  0  0  0  0  0  0
   -6.6949   17.1759  -32.0699 H   0  0  0  0  0  0  0  0  0  0  0  0
   -8.1830   18.7420  -32.0250 C   0  0  0  0  0  0  0  0  0  0  0  0
   -9.0197   18.0513  -32.2064 H   0  0  0  0  0  0  0  0  0  0  0  0
   -8.4280   20.1050  -31.8700 C   0  0  0  0  0  0  0  0  0  0  0  0
   -9.4627   20.4763  -31.9094 H   0  0  0  0  0  0  0  0  0  0  0  0
   -7.3640   21.0230  -31.6620 C   0  0  0  0  0  0  0  0  0  0  0  0
   -7.5900   22.3780  -31.5350 N   0  0  0  0  0  0  0  0  0  0  0  0
   -8.8790   22.9610  -31.9620 C   0  0  0  0  0  0  0  0  0  0  0  0
   -9.4719   23.2291  -31.0751 H   0  0  0  0  0  0  0  0  0  0  0  0
   -8.6922   23.8622  -32.5644 H   0  0  0  0  0  0  0  0  0  0  0  0
   -9.4324   22.2256  -32.5644 H   0  0  0  0  0  0  0  0  0  0  0  0
  1  2  1  0
  2  3  2  0
  3  4  1  0
  4  5  1  0
  4  6  1  0
  4  7  1  0
  7  8  1  0
  7  9  1  0
  7 10  1  0
 10 11  1  0
 10 12  1  0
  2 13  1  0
 13 14  1  0
 13 15  1  0
 13 16  1  0
 16 17  1  0
 16 18  1  0
 18 19  2  0
 19 20  1  0
 19 21  1  0
 21 22  1  0
 21 23  2  0
 23 24  1  0
 23 25  1  0
 25 26  2  0
 26 27  1  0
 27 28  1  0
 28 29  1  0
 28 30  1  0
 28 31  1  0
 31 32  1  0
 31 33  1  0
 31 34  1  0
 34 35  1  0
 34 36  1  0
 34 37  1  0
 37 38  1  0
 38 39  1  0
 38 40  1  0
 38 41  1  0
 41 42  1  0
 41 43  1  0
 41 44  1  0
 37 45  1  0
 45 46  1  0
 45 47  1  0
 45 48  1  0
 48 49  1  0
 48 50  1  0
 48 51  1  0
 27 52  2  0
 52 53  1  0
 53 54  1  0
 53 55  2  0
 55 56  1  0
 55 57  1  0
 57 58  1  0
 57 59  2  0
 59 60  1  0
 59 61  1  0
 61 62  2  0
 62 63  1  0
 63 64  1  0
 63 65  1  0
 63 66  1  0
 26 18  1  0
 61 52  1  0
 62 25  1  0
M  CHG  2  28   1  62   1
M  END
>  <UniqueID>  (9) 
9

>  <SMILES>  (9) 
CCN(CC)CC[NH2+]c1c2ccccc2[n+](C)c2cccc(NC/C=N\CCN)c12

>  <Energy>  (9) 
103.35958300436754

>  <Genealogy>  (9) 
CCN(CC)CC[NH2+]c1c2ccccc2[n+](C)c2cccc(NCC=NCCN)c12 (protonated)
CCN(CC)CC[NH2+]c1c2ccccc2[n+](C)c2cccc(NC/C=N\CCN)c12 (cis-trans isomerization)
CCN(CC)CC[NH2+]c1c2ccccc2[n+](C)c2cccc(NC/C=N\CCN)c12 (3D coordinates assigned)
CCN(CC)CC[NH2+]c1c2ccccc2[n+](C)c2cccc(NC/C=N\CCN)c12 (optimized conformer: 103.35958300436754 kcal/mol)

>  <smiles>  (9) 
CCN(CC)CCNc1c2ccccc2[n+](C)c2cccc(NCC=NCCN)c12

>  <score_type>  (9) 
oracle

>  <origin>  (9) 
adg

>  <m_score__min__energy>  (9) 
-5.5099999999999998

>  <m_primary>  (9) 
energy

$$$$
9:0
     RDKit          3D

 64 68  0  0  0  0  0  0  0  0999 V2000
   -1.2830   20.0780  -34.3240 C   0  0  0  0  0  0  0  0  0  0  0  0
   -1.9500   20.7800  -33.1380 C   0  0  0  0  0  0  0  0  0  0  0  0
   -1.5700   20.1920  -31.8410 N   0  0  0  0  0  0  0  0  0  0  0  0
   -0.5260   20.9280  -31.0980 C   0  0  0  0  0  0  0  0  0  0  0  0
   -1.0000   21.5160  -29.7550 C   0  0  0  0  0  0  0  0  0  0  0  0
   -2.4270   21.5120  -29.6260 O   0  0  0  0  0  0  0  0  0  0  0  0
   -3.2810   22.5740  -29.9770 C   0  0  0  0  0  0  0  0  0  0  0  0
   -3.0930   23.8940  -29.4990 C   0  0  0  0  0  0  0  0  0  0  0  0
   -2.1250   24.2190  -28.4310 C   0  0  0  0  0  0  0  0  0  0  0  0
   -1.9480   23.3440  -27.3450 C   0  0  0  0  0  0  0  0  0  0  0  0
   -1.0390   23.6550  -26.3300 C   0  0  0  0  0  0  0  0  0  0  0  0
   -0.8700   22.8010  -25.2900 F   0  0  0  0  0  0  0  0  0  0  0  0
   -0.3090   24.8470  -26.3850 C   0  0  0  0  0  0  0  0  0  0  0  0
    0.5710   25.1500  -25.3990 F   0  0  0  0  0  0  0  0  0  0  0  0
   -0.4900   25.7300  -27.4560 C   0  0  0  0  0  0  0  0  0  0  0  0
    0.2140   26.8870  -27.5100 F   0  0  0  0  0  0  0  0  0  0  0  0
   -1.3980   25.4200  -28.4740 C   0  0  0  0  0  0  0  0  0  0  0  0
   -3.9240   24.9160  -29.9800 C   0  0  0  0  0  0  0  0  0  0  0  0
   -4.9270   24.6390  -30.8510 N   0  0  0  0  0  0  0  0  0  0  0  0
   -5.1700   23.3770  -31.2850 C   0  0  0  0  0  0  0  0  0  0  0  0
   -6.2230   23.1400  -32.1720 C   0  0  0  0  0  0  0  0  0  0  0  0
   -6.4810   21.8460  -32.6290 C   0  0  0  0  0  0  0  0  0  0  0  0
   -5.6900   20.7670  -32.2010 C   0  0  0  0  0  0  0  0  0  0  0  0
   -5.9580   19.3930  -32.6970 C   0  0  0  0  0  0  0  0  0  0  0  0
   -7.2210   18.8050  -32.5120 C   0  0  0  0  0  0  0  0  0  0  0  0
   -7.4800   17.5160  -32.9850 C   0  0  0  0  0  0  0  0  0  0  0  0
   -6.4780   16.7860  -33.6390 C   0  0  0  0  0  0  0  0  0  0  0  0
   -5.2130   17.3700  -33.8420 C   0  0  0  0  0  0  0  0  0  0  0  0
   -4.9590   18.6680  -33.3690 C   0  0  0  0  0  0  0  0  0  0  0  0
   -4.1720   16.5910  -34.5480 C   0  0  0  0  0  0  0  0  0  0  0  0
   -3.0900   17.1390  -34.8950 O   0  0  0  0  0  0  0  0  0  0  0  0
   -4.4130   15.2060  -34.8480 N   0  0  0  0  0  0  0  0  0  0  0  0
   -3.5110   14.4780  -35.7430 C   0  0  0  0  0  0  0  0  0  0  0  0
   -5.5430   14.5250  -34.2010 C   0  0  0  0  0  0  0  0  0  0  0  0
   -6.7870   15.4220  -34.2080 C   0  0  0  0  0  0  0  0  0  0  0  0
   -4.6320   21.0060  -31.3050 C   0  0  0  0  0  0  0  0  0  0  0  0
   -4.3610   22.3080  -30.8440 C   0  0  0  0  0  0  0  0  0  0  0  0
   -0.5699   19.3275  -33.9521 H   0  0  0  0  0  0  0  0  0  0  0  0
   -2.0510   19.5824  -34.9360 H   0  0  0  0  0  0  0  0  0  0  0  0
   -0.7488   20.8197  -34.9360 H   0  0  0  0  0  0  0  0  0  0  0  0
   -1.6537   21.8393  -33.1443 H   0  0  0  0  0  0  0  0  0  0  0  0
   -3.0377   20.6607  -33.2506 H   0  0  0  0  0  0  0  0  0  0  0  0
   -2.4220   20.1340  -31.2350 H   0  0  0  0  0  0  0  0  0  0  0  0
   -1.2520   19.2110  -32.0010 H   0  0  0  0  0  0  0  0  0  0  0  0
    0.3061   20.2371  -30.8972 H   0  0  0  0  0  0  0  0  0  0  0  0
   -0.2312   21.7797  -31.7287 H   0  0  0  0  0  0  0  0  0  0  0  0
   -0.5705   20.9185  -28.9374 H   0  0  0  0  0  0  0  0  0  0  0  0
   -0.6640   22.5625  -29.7118 H   0  0  0  0  0  0  0  0  0  0  0  0
   -2.5275   22.4104  -27.2939 H   0  0  0  0  0  0  0  0  0  0  0  0
   -1.5431   26.1190  -29.3108 H   0  0  0  0  0  0  0  0  0  0  0  0
   -3.7613   25.9520  -29.6481 H   0  0  0  0  0  0  0  0  0  0  0  0
   -6.8515   23.9763  -32.5118 H   0  0  0  0  0  0  0  0  0  0  0  0
   -7.3104   21.6702  -33.3299 H   0  0  0  0  0  0  0  0  0  0  0  0
   -8.0120   19.3640  -31.9906 H   0  0  0  0  0  0  0  0  0  0  0  0
   -8.4762   17.0715  -32.8433 H   0  0  0  0  0  0  0  0  0  0  0  0
   -3.9691   19.1212  -33.5260 H   0  0  0  0  0  0  0  0  0  0  0  0
   -2.7919   13.8977  -35.1462 H   0  0  0  0  0  0  0  0  0  0  0  0
   -4.0959   13.7959  -36.3775 H   0  0  0  0  0  0  0  0  0  0  0  0
   -2.9677   15.1937  -36.3775 H   0  0  0  0  0  0  0  0  0  0  0  0
   -5.7645   13.5949  -34.7449 H   0  0  0  0  0  0  0  0  0  0  0  0
   -5.2729   14.3000  -33.1587 H   0  0  0  0  0  0  0  0  0  0  0  0
   -7.1413   15.5366  -35.2431 H   0  0  0  0  0  0  0  0  0  0  0  0
   -7.5606   14.9507  -33.5840 H   0  0  0  0  0  0  0  0  0  0  0  0
   -4.0100   20.1665  -30.9611 H   0  0  0  0  0  0  0  0  0  0  0  0
  1  2  1  0
  2  3  1  0
  3  4  1  0
  4  5  1  0
  5  6  1  0
  6  7  1  0
  7  8  2  0
  8  9  1  0
  9 10  2  0
 10 11  1  0
 11 12  1  0
 11 13  2  0
 13 14  1  0
 13 15  1  0
 15 16  1  0
 15 17  2  0
  8 18  1  0
 18 19  2  0
 19 20  1  0
 20 21  2  0
 21 22  1  0
 22 23  2  0
 23 24  1  0
 24 25  2  0
 25 26  1  0
 26 27  2  0
 27 28  1  0
 28 29  2  0
 28 30  1  0
 30 31  2  0
 30 32  1  0
 32 33  1  0
 32 34  1  0
 34 35  1  0
 23 36  1  0
 36 37  2  0
 37  7  1  0
 17  9  1  0
 37 20  1  0
 29 24  1  0
 35 27  1  0
  1 38  1  0
  1 39  1  0
  1 40  1  0
  2 41  1  0
  2 42  1  0
  3 43  1  0
  3 44  1  0
  4 45  1  0
  4 46  1  0
  5 47  1  0
  5 48  1  0
 10 49  1  0
 17 50  1  0
 18 51  1  0
 21 52  1  0
 22 53  1  0
 25 54  1  0
 26 55  1  0
 29 56  1  0
 33 57  1  0
 33 58  1  0
 33 59  1  0
 34 60  1  0
 34 61  1  0
 35 62  1  0
 35 63  1  0
 36 64  1  0
M  CHG  1   3   1
M  END
>  <UniqueID>  (10) 
10

>  <SMILES>  (10) 
CC[NH2+]CCOc1c(-c2cc(F)c(F)c(F)c2)cnc2ccc(-c3ccc4c(c3)C(=O)N(C)CC4)cc12

>  <Energy>  (10) 
88.01032968382506

>  <Genealogy>  (10) 
CC[NH2+]CCOc1c(-c2cc(F)c(F)c(F)c2)cnc2ccc(-c3ccc4c(c3)C(=O)N(C)CC4)cc12 (protonated)
CC[NH2+]CCOc1c(-c2cc(F)c(F)c(F)c2)cnc2ccc(-c3ccc4c(c3)C(=O)N(C)CC4)cc12 (3D coordinates assigned)
CC[NH2+]CCOc1c(-c2cc(F)c(F)c(F)c2)cnc2ccc(-c3ccc4c(c3)C(=O)N(C)CC4)cc12 (nonaromatic ring conformer: 88.01032968382506 kcal/mol)

>  <smiles>  (10) 
CCNCCOc1c(-c2cc(F)c(F)c(F)c2)cnc2ccc(-c3ccc4c(c3)C(=O)N(C)CC4)cc12

>  <score_type>  (10) 
oracle

>  <origin>  (10) 
adg

>  <m_score__min__energy>  (10) 
-8.5800000000000001

>  <m_primary>  (10) 
energy

$$$$
10:0
     RDKit          3D

 52 54  0  0  0  0  0  0  0  0999 V2000
   -3.0580   24.3860  -28.4480 C   0  0  0  0  0  0  0  0  0  0  0  0
   -4.5100   23.8990  -28.4760 C   0  0  0  0  0  0  0  0  0  0  0  0
   -5.4100   24.8530  -29.1470 N   0  0  0  0  0  0  0  0  0  0  0  0
   -5.5720   24.5510  -30.5800 C   0  0  0  0  0  0  0  0  0  0  0  0
   -5.0090   23.1660  -30.9290 C   0  0  0  0  0  0  0  0  0  0  0  0
   -5.4430   22.7300  -32.2560 N   0  0  0  0  0  0  0  0  0  0  0  0
   -5.4040   21.3410  -32.6050 C   0  0  0  0  0  0  0  0  0  0  0  0
   -4.1920   20.7830  -33.0420 C   0  0  0  0  0  0  0  0  0  0  0  0
   -2.9930   21.5280  -32.9910 C   0  0  0  0  0  0  0  0  0  0  0  0
   -1.7840   20.9590  -33.3810 C   0  0  0  0  0  0  0  0  0  0  0  0
   -1.7440   19.6380  -33.8140 C   0  0  0  0  0  0  0  0  0  0  0  0
   -2.9170   18.8890  -33.8870 C   0  0  0  0  0  0  0  0  0  0  0  0
   -4.1710   19.4550  -33.5360 C   0  0  0  0  0  0  0  0  0  0  0  0
   -5.3490   18.7480  -33.6610 N   0  0  0  0  0  0  0  0  0  0  0  0
   -5.3820   17.5100  -34.4750 C   0  0  0  0  0  0  0  0  0  0  0  0
   -6.5020   19.2050  -33.0470 C   0  0  0  0  0  0  0  0  0  0  0  0
   -7.6410   18.3730  -32.9210 C   0  0  0  0  0  0  0  0  0  0  0  0
   -8.8160   18.8390  -32.3460 C   0  0  0  0  0  0  0  0  0  0  0  0
   -8.8840   20.1300  -31.8490 C   0  0  0  0  0  0  0  0  0  0  0  0
   -7.7740   20.9790  -31.9040 C   0  0  0  0  0  0  0  0  0  0  0  0
   -7.8810   22.2580  -31.2570 N   0  0  0  0  0  0  0  0  0  0  0  0
   -8.5140   23.3620  -31.9780 C   0  0  0  0  0  0  0  0  0  0  0  0
   -7.9000   22.2910  -29.7950 C   0  0  0  0  0  0  0  0  0  0  0  0
   -6.5600   20.5280  -32.5120 C   0  0  0  0  0  0  0  0  0  0  0  0
   -2.7284   24.4965  -27.4044 H   0  0  0  0  0  0  0  0  0  0  0  0
   -2.4158   23.6541  -28.9598 H   0  0  0  0  0  0  0  0  0  0  0  0
   -2.9870   25.3571  -28.9598 H   0  0  0  0  0  0  0  0  0  0  0  0
   -4.5502   22.9390  -29.0115 H   0  0  0  0  0  0  0  0  0  0  0  0
   -4.8486   23.7944  -27.4346 H   0  0  0  0  0  0  0  0  0  0  0  0
   -6.3480   24.7880  -28.6830 H   0  0  0  0  0  0  0  0  0  0  0  0
   -5.0520   25.8270  -29.0160 H   0  0  0  0  0  0  0  0  0  0  0  0
   -6.6425   24.5758  -30.8320 H   0  0  0  0  0  0  0  0  0  0  0  0
   -5.0169   25.3052  -31.1571 H   0  0  0  0  0  0  0  0  0  0  0  0
   -3.9101   23.2115  -30.9093 H   0  0  0  0  0  0  0  0  0  0  0  0
   -5.3843   22.4442  -30.1886 H   0  0  0  0  0  0  0  0  0  0  0  0
   -5.9210   23.3900  -32.9090 H   0  0  0  0  0  0  0  0  0  0  0  0
   -3.0150   22.5699  -32.6390 H   0  0  0  0  0  0  0  0  0  0  0  0
   -0.8598   21.5545  -33.3467 H   0  0  0  0  0  0  0  0  0  0  0  0
   -0.7840   19.1832  -34.0996 H   0  0  0  0  0  0  0  0  0  0  0  0
   -2.8706   17.8423  -34.2220 H   0  0  0  0  0  0  0  0  0  0  0  0
   -5.4053   16.6343  -33.8097 H   0  0  0  0  0  0  0  0  0  0  0  0
   -6.2804   17.5123  -35.1097 H   0  0  0  0  0  0  0  0  0  0  0  0
   -4.4847   17.4645  -35.1097 H   0  0  0  0  0  0  0  0  0  0  0  0
   -7.5940   17.3364  -33.2861 H   0  0  0  0  0  0  0  0  0  0  0  0
   -9.6953   18.1809  -32.2851 H   0  0  0  0  0  0  0  0  0  0  0  0
   -9.8231   20.4922  -31.4053 H   0  0  0  0  0  0  0  0  0  0  0  0
   -8.9270   24.0823  -31.2564 H   0  0  0  0  0  0  0  0  0  0  0  0
   -7.7664   23.8638  -32.6099 H   0  0  0  0  0  0  0  0  0  0  0  0
   -9.3247   22.9703  -32.6099 H   0  0  0  0  0  0  0  0  0  0  0  0
   -7.3875   21.4008  -29.4015 H   0  0  0  0  0  0  0  0  0  0  0  0
   -7.3850   23.1966  -29.4420 H   0  0  0  0  0  0  0  0  0  0  0  0
   -8.9418   22.3004  -29.4420 H   0  0  0  0  0  0  0  0  0  0  0  0
  1  2  1  0
  2  3  1  0
  3  4  1  0
  4  5  1  0
  5  6  1  0
  6  7  1  0
  7  8  2  0
  8  9  1  0
  9 10  2  0
 10 11  1  0
 11 12  2  0
 12 13  1  0
 13 14  2  0
 14 15  1  0
 14 16  1  0
 16 17  2  0
 17 18  1  0
 18 19  2  0
 19 20  1  0
 20 21  1  0
 21 22  1  0
 21 23  1  0
 20 24  2  0
 24  7  1  0
 13  8  1  0
 24 16  1  0
  1 25  1  0
  1 26  1  0
  1 27  1  0
  2 28  1  0
  2 29  1  0
  3 30  1  0
  3 31  1  0
  4 32  1  0
  4 33  1  0
  5 34  1  0
  5 35  1  0
  6 36  1  0
  9 37  1  0
 10 38  1  0
 11 39  1  0
 12 40  1  0
 15 41  1  0
 15 42  1  0
 15 43  1  0
 17 44  1  0
 18 45  1  0
 19 46  1  0
 22 47  1  0
 22 48  1  0
 22 49  1  0
 23 50  1  0
 23 51  1  0
 23 52  1  0
M  CHG  2   3   1  14   1
M  END
>  <UniqueID>  (11) 
11

>  <SMILES>  (11) 
CC[NH2+]CCNc1c2ccccc2[n+](C)c2cccc(N(C)C)c12

>  <Energy>  (11) 
82.69032438648495

>  <Genealogy>  (11) 
CC[NH2+]CCNc1c2ccccc2[n+](C)c2cccc(N(C)C)c12 (protonated)
CC[NH2+]CCNc1c2ccccc2[n+](C)c2cccc(N(C)C)c12 (3D coordinates assigned)
CC[NH2+]CCNc1c2ccccc2[n+](C)c2cccc(N(C)C)c12 (optimized conformer: 82.69032438648495 kcal/mol)

>  <smiles>  (11) 
CCNCCNc1c2ccccc2[n+](C)c2cccc(N(C)C)c12

>  <score_type>  (11) 
oracle

>  <origin>  (11) 
adg

>  <m_score__min__energy>  (11) 
-7.4500000000000002

>  <m_primary>  (11) 
energy

$$$$
11:0
     RDKit          3D

 64 66  0  0  0  0  0  0  0  0999 V2000
   -6.1420   25.2860  -29.6210 C   0  0  0  0  0  0  0  0  0  0  0  0
   -5.2350   25.5810  -30.8060 C   0  0  0  0  0  0  0  0  0  0  0  0
   -3.9100   25.2440  -30.4620 O   0  0  0  0  0  0  0  0  0  0  0  0
   -3.9010   24.5240  -29.2490 C   0  0  0  0  0  0  0  0  0  0  0  0
   -3.4400   23.0890  -29.5100 C   0  0  0  0  0  0  0  0  0  0  0  0
   -2.4150   23.0560  -30.4880 O   0  0  0  0  0  0  0  0  0  0  0  0
   -2.7940   22.2930  -31.6180 C   0  0  0  0  0  0  0  0  0  0  0  0
   -4.2240   22.6280  -32.0550 C   0  0  0  0  0  0  0  0  0  0  0  0
   -4.6570   21.7350  -33.1270 N   0  0  0  0  0  0  0  0  0  0  0  0
   -5.7570   20.8360  -32.9310 C   0  0  0  0  0  0  0  0  0  0  0  0
   -6.9920   21.3510  -32.4960 C   0  0  0  0  0  0  0  0  0  0  0  0
   -7.1720   22.7410  -32.3160 C   0  0  0  0  0  0  0  0  0  0  0  0
   -8.4050   23.2540  -31.9230 C   0  0  0  0  0  0  0  0  0  0  0  0
   -9.4820   22.4000  -31.7190 C   0  0  0  0  0  0  0  0  0  0  0  0
   -9.3280   21.0240  -31.8900 C   0  0  0  0  0  0  0  0  0  0  0  0
   -8.0740   20.4680  -32.2560 C   0  0  0  0  0  0  0  0  0  0  0  0
   -7.8990   19.1070  -32.4000 N   0  0  0  0  0  0  0  0  0  0  0  0
   -8.9150   18.1710  -31.8670 C   0  0  0  0  0  0  0  0  0  0  0  0
   -6.7680   18.6160  -33.0250 C   0  0  0  0  0  0  0  0  0  0  0  0
   -6.7010   17.2720  -33.4660 C   0  0  0  0  0  0  0  0  0  0  0  0
   -5.5450   16.7580  -34.0380 C   0  0  0  0  0  0  0  0  0  0  0  0
   -4.4290   17.5620  -34.2010 C   0  0  0  0  0  0  0  0  0  0  0  0
   -4.4600   18.9160  -33.8340 C   0  0  0  0  0  0  0  0  0  0  0  0
   -3.3080   19.6990  -33.9970 O   0  0  0  0  0  0  0  0  0  0  0  0
   -2.0230   19.3640  -33.4660 C   0  0  0  0  0  0  0  0  0  0  0  0
   -0.9330   19.5780  -34.5320 C   0  0  0  0  0  0  0  0  0  0  0  0
    0.1230   20.5470  -34.1550 N   0  0  0  0  0  0  0  0  0  0  0  0
    0.2510   21.6670  -35.0980 C   0  0  0  0  0  0  0  0  0  0  0  0
   -0.0060   21.0290  -32.7710 C   0  0  0  0  0  0  0  0  0  0  0  0
   -5.6440   19.4640  -33.2590 C   0  0  0  0  0  0  0  0  0  0  0  0
   -5.5923   25.4648  -28.6851 H   0  0  0  0  0  0  0  0  0  0  0  0
   -7.0226   25.9441  -29.6605 H   0  0  0  0  0  0  0  0  0  0  0  0
   -6.4670   24.2358  -29.6605 H   0  0  0  0  0  0  0  0  0  0  0  0
   -5.5545   24.9843  -31.6731 H   0  0  0  0  0  0  0  0  0  0  0  0
   -5.2932   26.6490  -31.0630 H   0  0  0  0  0  0  0  0  0  0  0  0
   -3.2117   25.0073  -28.5410 H   0  0  0  0  0  0  0  0  0  0  0  0
   -4.9152   24.5111  -28.8232 H   0  0  0  0  0  0  0  0  0  0  0  0
   -3.0576   22.6578  -28.5731 H   0  0  0  0  0  0  0  0  0  0  0  0
   -4.2969   22.5069  -29.8799 H   0  0  0  0  0  0  0  0  0  0  0  0
   -2.1045   22.5115  -32.4468 H   0  0  0  0  0  0  0  0  0  0  0  0
   -2.7510   21.2269  -31.3503 H   0  0  0  0  0  0  0  0  0  0  0  0
   -4.9006   22.5150  -31.1951 H   0  0  0  0  0  0  0  0  0  0  0  0
   -4.2482   23.6636  -32.4249 H   0  0  0  0  0  0  0  0  0  0  0  0
   -4.2050   21.7670  -34.0710 H   0  0  0  0  0  0  0  0  0  0  0  0
   -6.3283   23.4254  -32.4884 H   0  0  0  0  0  0  0  0  0  0  0  0
   -8.5269   24.3370  -31.7737 H   0  0  0  0  0  0  0  0  0  0  0  0
  -10.4586   22.8100  -31.4219 H   0  0  0  0  0  0  0  0  0  0  0  0
  -10.1915   20.3596  -31.7389 H   0  0  0  0  0  0  0  0  0  0  0  0
   -8.8920   18.1922  -30.7674 H   0  0  0  0  0  0  0  0  0  0  0  0
   -9.9124   18.4733  -32.2188 H   0  0  0  0  0  0  0  0  0  0  0  0
   -8.6953   17.1522  -32.2188 H   0  0  0  0  0  0  0  0  0  0  0  0
   -7.5818   16.6227  -33.3532 H   0  0  0  0  0  0  0  0  0  0  0  0
   -5.5153   15.7076  -34.3632 H   0  0  0  0  0  0  0  0  0  0  0  0
   -3.5077   17.1341  -34.6231 H   0  0  0  0  0  0  0  0  0  0  0  0
   -1.8113   20.0040  -32.5968 H   0  0  0  0  0  0  0  0  0  0  0  0
   -2.0252   18.3065  -33.1632 H   0  0  0  0  0  0  0  0  0  0  0  0
   -0.4528   18.6083  -34.7299 H   0  0  0  0  0  0  0  0  0  0  0  0
   -1.4397   19.9992  -35.4129 H   0  0  0  0  0  0  0  0  0  0  0  0
    0.3585   22.6075  -34.5378 H   0  0  0  0  0  0  0  0  0  0  0  0
    1.1375   21.5139  -35.7310 H   0  0  0  0  0  0  0  0  0  0  0  0
   -0.6472   21.7178  -35.7310 H   0  0  0  0  0  0  0  0  0  0  0  0
    0.2141   20.2067  -32.0743 H   0  0  0  0  0  0  0  0  0  0  0  0
    0.7033   21.8526  -32.6019 H   0  0  0  0  0  0  0  0  0  0  0  0
   -1.0319   21.3882  -32.6019 H   0  0  0  0  0  0  0  0  0  0  0  0
  1  2  1  0
  2  3  1  0
  3  4  1  0
  4  5  1  0
  5  6  1  0
  6  7  1  0
  7  8  1  0
  8  9  1  0
  9 10  1  0
 10 11  2  0
 11 12  1  0
 12 13  2  0
 13 14  1  0
 14 15  2  0
 15 16  1  0
 16 17  2  0
 17 18  1  0
 17 19  1  0
 19 20  2  0
 20 21  1  0
 21 22  2  0
 22 23  1  0
 23 24  1  0
 24 25  1  0
 25 26  1  0
 26 27  1  0
 27 28  1  0
 27 29  1  0
 23 30  2  0
 30 10  1  0
 16 11  1  0
 30 19  1  0
  1 31  1  0
  1 32  1  0
  1 33  1  0
  2 34  1  0
  2 35  1  0
  4 36  1  0
  4 37  1  0
  5 38  1  0
  5 39  1  0
  7 40  1  0
  7 41  1  0
  8 42  1  0
  8 43  1  0
  9 44  1  0
 12 45  1  0
 13 46  1  0
 14 47  1  0
 15 48  1  0
 18 49  1  0
 18 50  1  0
 18 51  1  0
 20 52  1  0
 21 53  1  0
 22 54  1  0
 25 55  1  0
 25 56  1  0
 26 57  1  0
 26 58  1  0
 28 59  1  0
 28 60  1  0
 28 61  1  0
 29 62  1  0
 29 63  1  0
 29 64  1  0
M  CHG  1  17   1
M  END
>  <UniqueID>  (12) 
12

>  <SMILES>  (12) 
CCOCCOCCNc1c2ccccc2[n+](C)c2cccc(OCCN(C)C)c12

>  <Energy>  (12) 
94.73393911427006

>  <Genealogy>  (12) 
CCOCCOCCNc1c2ccccc2[n+](C)c2cccc(OCCN(C)C)c12 (3D coordinates assigned)
CCOCCOCCNc1c2ccccc2[n+](C)c2cccc(OCCN(C)C)c12 (optimized conformer: 94.73393911427006 kcal/mol)

>  <smiles>  (12) 
CCOCCOCCNc1c2ccccc2[n+](C)c2cccc(OCCN(C)C)c12

>  <score_type>  (12) 
oracle

>  <origin>  (12) 
adg

>  <m_score__min__energy>  (12) 
-8.4800000000000004

>  <m_primary>  (12) 
energy

$$$$
12:0
     RDKit          3D

 57 59  0  0  0  0  0  0  0  0999 V2000
   -6.6840   24.5630  -30.3920 C   0  0  0  0  0  0  0  0  0  0  0  0
   -5.5470   25.5870  -30.3860 C   0  0  0  0  0  0  0  0  0  0  0  0
   -4.2750   25.0170  -30.8570 N   0  0  0  0  0  0  0  0  0  0  0  0
   -3.3700   24.6150  -29.7630 C   0  0  0  0  0  0  0  0  0  0  0  0
   -2.6740   23.2710  -30.0550 C   0  0  0  0  0  0  0  0  0  0  0  0
   -3.1810   22.5890  -31.3540 C   0  0  2  0  0  0  0  0  0  0  0  0
   -4.4870   21.7950  -31.0760 C   0  0  0  0  0  0  0  0  0  0  0  0
   -4.6970   20.7170  -32.0660 N   0  0  0  0  0  0  0  0  0  0  0  0
   -6.0700   20.1420  -32.0370 C   0  0  1  0  0  0  0  0  0  0  0  0
   -7.1480   21.1890  -32.4940 C   0  0  0  0  0  0  0  0  0  0  0  0
   -8.5810   20.8920  -32.0290 C   0  0  0  0  0  0  0  0  0  0  0  0
   -9.1270   19.5810  -32.6210 C   0  0  0  0  0  0  0  0  0  0  0  0
   -8.5180   18.3200  -31.9890 C   0  0  0  0  0  0  0  0  0  0  0  0
   -7.2490   17.9120  -32.6890 C   0  0  0  0  0  0  0  0  0  0  0  0
   -7.2170   16.6610  -33.3350 C   0  0  0  0  0  0  0  0  0  0  0  0
   -6.0600   16.2170  -33.9680 C   0  0  0  0  0  0  0  0  0  0  0  0
   -4.9160   17.0060  -33.9570 C   0  0  0  0  0  0  0  0  0  0  0  0
   -4.9300   18.2540  -33.3370 C   0  0  0  0  0  0  0  0  0  0  0  0
   -6.1050   18.7620  -32.7320 C   0  0  0  0  0  0  0  0  0  0  0  0
   -4.1970   21.0770  -33.4050 C   0  0  0  0  0  0  0  0  0  0  0  0
   -2.6670   21.2510  -33.3580 C   0  0  0  0  0  0  0  0  0  0  0  0
   -2.1620   21.7450  -32.0450 N   0  0  2  0  0  0  0  0  0  0  0  0
   -1.6640   20.6290  -31.2100 C   0  0  0  0  0  0  0  0  0  0  0  0
   -6.9595   24.3149  -29.3564 H   0  0  0  0  0  0  0  0  0  0  0  0
   -7.5560   24.9864  -30.9120 H   0  0  0  0  0  0  0  0  0  0  0  0
   -6.3539   23.6516  -30.9120 H   0  0  0  0  0  0  0  0  0  0  0  0
   -5.8231   26.4250  -31.0429 H   0  0  0  0  0  0  0  0  0  0  0  0
   -5.4010   25.9193  -29.3476 H   0  0  0  0  0  0  0  0  0  0  0  0
   -3.8130   25.6770  -31.5270 H   0  0  0  0  0  0  0  0  0  0  0  0
   -2.6022   25.3920  -29.6334 H   0  0  0  0  0  0  0  0  0  0  0  0
   -3.9720   24.4950  -28.8502 H   0  0  0  0  0  0  0  0  0  0  0  0
   -1.5933   23.4512  -30.1537 H   0  0  0  0  0  0  0  0  0  0  0  0
   -2.9057   22.5946  -29.2190 H   0  0  0  0  0  0  0  0  0  0  0  0
   -3.3966   23.4037  -32.0609 H   0  0  0  0  0  0  0  0  0  0  0  0
   -4.4256   21.3493  -30.0722 H   0  0  0  0  0  0  0  0  0  0  0  0
   -5.3333   22.4940  -31.1478 H   0  0  0  0  0  0  0  0  0  0  0  0
   -6.3612   19.9237  -30.9990 H   0  0  0  0  0  0  0  0  0  0  0  0
   -6.8576   22.1729  -32.0968 H   0  0  0  0  0  0  0  0  0  0  0  0
   -7.1676   21.1494  -33.5931 H   0  0  0  0  0  0  0  0  0  0  0  0
   -8.5880   20.8146  -30.9317 H   0  0  0  0  0  0  0  0  0  0  0  0
   -9.2250   21.7127  -32.3779 H   0  0  0  0  0  0  0  0  0  0  0  0
  -10.2158   19.5564  -32.4662 H   0  0  0  0  0  0  0  0  0  0  0  0
   -8.8556   19.5708  -33.6869 H   0  0  0  0  0  0  0  0  0  0  0  0
   -8.2939   18.5224  -30.9313 H   0  0  0  0  0  0  0  0  0  0  0  0
   -9.2447   17.4998  -32.0843 H   0  0  0  0  0  0  0  0  0  0  0  0
   -8.1165   16.0279  -33.3393 H   0  0  0  0  0  0  0  0  0  0  0  0
   -6.0509   15.2418  -34.4769 H   0  0  0  0  0  0  0  0  0  0  0  0
   -3.9961   16.6441  -34.4395 H   0  0  0  0  0  0  0  0  0  0  0  0
   -4.0098   18.8564  -33.3173 H   0  0  0  0  0  0  0  0  0  0  0  0
   -4.4526   20.2789  -34.1176 H   0  0  0  0  0  0  0  0  0  0  0  0
   -4.6615   22.0211  -33.7258 H   0  0  0  0  0  0  0  0  0  0  0  0
   -2.1998   20.2771  -33.5661 H   0  0  0  0  0  0  0  0  0  0  0  0
   -2.4056   22.0099  -34.1101 H   0  0  0  0  0  0  0  0  0  0  0  0
   -1.3320   22.3450  -32.2600 H   0  0  0  0  0  0  0  0  0  0  0  0
   -1.7791   20.8868  -30.1468 H   0  0  0  0  0  0  0  0  0  0  0  0
   -2.2416   19.7194  -31.4313 H   0  0  0  0  0  0  0  0  0  0  0  0
   -0.6012   20.4514  -31.4313 H   0  0  0  0  0  0  0  0  0  0  0  0
  1  2  1  0
  2  3  1  0
  3  4  1  0
  4  5  1  0
  5  6  1  0
  6  7  1  0
  7  8  1  0
  8  9  1  0
  9 10  1  0
 10 11  1  0
 11 12  1  0
 12 13  1  0
 13 14  1  0
 14 15  2  0
 15 16  1  0
 16 17  2  0
 17 18  1  0
 18 19  2  0
  8 20  1  0
 20 21  1  0
 21 22  1  0
 22 23  1  0
 22  6  1  0
 19  9  1  0
 19 14  1  0
  1 24  1  0
  1 25  1  0
  1 26  1  0
  2 27  1  0
  2 28  1  0
  3 29  1  0
  4 30  1  0
  4 31  1  0
  5 32  1  0
  5 33  1  0
  6 34  1  6
  7 35  1  0
  7 36  1  0
  9 37  1  1
 10 38  1  0
 10 39  1  0
 11 40  1  0
 11 41  1  0
 12 42  1  0
 12 43  1  0
 13 44  1  0
 13 45  1  0
 15 46  1  0
 16 47  1  0
 17 48  1  0
 18 49  1  0
 20 50  1  0
 20 51  1  0
 21 52  1  0
 21 53  1  0
 22 54  1  6
 23 55  1  0
 23 56  1  0
 23 57  1  0
M  CHG  1  22   1
M  END
>  <UniqueID>  (13) 
13

>  <SMILES>  (13) 
CCNCC[C@@H]1CN([C@H]2CCCCc3ccccc32)CC[NH+]1C

>  <Energy>  (13) 
85.18143033135016

>  <Genealogy>  (13) 
CCNCCC1CN(C2CCCCc3ccccc32)CC[NH+]1C (protonated)
CCNCC[C@@H]1CN([C@H]2CCCCc3ccccc32)CC[NH+]1C (chirality)
CCNCC[C@@H]1CN([C@H]2CCCCc3ccccc32)CC[NH+]1C (3D coordinates assigned)
CCNCC[C@@H]1CN([C@H]2CCCCc3ccccc32)CC[NH+]1C (nonaromatic ring conformer: 85.18143033135016 kcal/mol)

>  <smiles>  (13) 
CCNCCC1CN(C2CCCCc3ccccc32)CCN1C

>  <score_type>  (13) 
oracle

>  <origin>  (13) 
adg

>  <m_score__min__energy>  (13) 
-6.96

>  <m_primary>  (13) 
energy

$$$$
13:0
     RDKit          3D

 48 51  0  0  0  0  0  0  0  0999 V2000
   -2.6050   19.7590  -27.0930 C   0  0  0  0  0  0  0  0  0  0  0  0
   -1.3320   18.9230  -26.9870 C   0  0  0  0  0  0  0  0  0  0  0  0
   -0.2780   19.4000  -27.8930 N   0  0  0  0  0  0  0  0  0  0  0  0
    0.8440   18.5150  -28.2200 C   0  0  0  0  0  0  0  0  0  0  0  0
   -0.0950   20.8200  -28.0270 C   0  0  0  0  0  0  0  0  0  0  0  0
    0.2840   21.5400  -26.9370 N   0  0  0  0  0  0  0  0  0  0  0  0
    0.4660   22.8830  -27.0030 C   0  0  0  0  0  0  0  0  0  0  0  0
    0.2640   23.5400  -28.1710 N   0  0  0  0  0  0  0  0  0  0  0  0
   -0.1240   22.8730  -29.2870 C   0  0  0  0  0  0  0  0  0  0  0  0
   -0.3180   21.4830  -29.2540 C   0  0  0  0  0  0  0  0  0  0  0  0
   -0.8130   20.7690  -30.4910 C   0  0  0  0  0  0  0  0  0  0  0  0
   -2.2860   21.0000  -30.7210 C   0  0  0  0  0  0  0  0  0  0  0  0
   -3.0370   21.7680  -29.8160 C   0  0  0  0  0  0  0  0  0  0  0  0
   -4.3980   21.9920  -30.0390 C   0  0  0  0  0  0  0  0  0  0  0  0
   -5.0270   21.4580  -31.1750 C   0  0  0  0  0  0  0  0  0  0  0  0
   -6.4670   21.6960  -31.4120 C   0  0  0  0  0  0  0  0  0  0  0  0
   -7.2820   20.5860  -31.6950 C   0  0  0  0  0  0  0  0  0  0  0  0
   -8.6320   20.7550  -32.0070 C   0  0  0  0  0  0  0  0  0  0  0  0
   -9.1840   22.0330  -32.0430 C   0  0  0  0  0  0  0  0  0  0  0  0
   -8.3950   23.1470  -31.7510 C   0  0  0  0  0  0  0  0  0  0  0  0
   -7.0350   22.9990  -31.4160 C   0  0  0  0  0  0  0  0  0  0  0  0
   -6.2670   24.2120  -31.0380 C   0  0  0  0  0  0  0  0  0  0  0  0
   -5.0220   24.5010  -31.4630 N   0  0  0  0  0  0  0  0  0  0  0  0
   -4.7080   25.6330  -30.8550 N   0  0  0  0  0  0  0  0  0  0  0  0
   -5.7110   26.0170  -30.0830 N   0  0  0  0  0  0  0  0  0  0  0  0
   -6.7020   25.1440  -30.1710 N   0  0  0  0  0  0  0  0  0  0  0  0
   -4.2680   20.7300  -32.1030 C   0  0  0  0  0  0  0  0  0  0  0  0
   -2.9080   20.5010  -31.8770 C   0  0  0  0  0  0  0  0  0  0  0  0
   -2.9709   19.9993  -26.0839 H   0  0  0  0  0  0  0  0  0  0  0  0
   -2.3876   20.6908  -27.6358 H   0  0  0  0  0  0  0  0  0  0  0  0
   -3.3737   19.1893  -27.6358 H   0  0  0  0  0  0  0  0  0  0  0  0
   -0.9600   18.9735  -25.9530 H   0  0  0  0  0  0  0  0  0  0  0  0
   -1.5812   17.8904  -27.2727 H   0  0  0  0  0  0  0  0  0  0  0  0
    1.3063   18.1504  -27.2908 H   0  0  0  0  0  0  0  0  0  0  0  0
    0.4776   17.6601  -28.8073 H   0  0  0  0  0  0  0  0  0  0  0  0
    1.5900   19.0705  -28.8073 H   0  0  0  0  0  0  0  0  0  0  0  0
    0.7780   23.4395  -26.1069 H   0  0  0  0  0  0  0  0  0  0  0  0
   -0.2877   23.4252  -30.2242 H   0  0  0  0  0  0  0  0  0  0  0  0
   -0.2543   21.1394  -31.3632 H   0  0  0  0  0  0  0  0  0  0  0  0
   -0.6548   19.6898  -30.3485 H   0  0  0  0  0  0  0  0  0  0  0  0
   -2.5509   22.1955  -28.9267 H   0  0  0  0  0  0  0  0  0  0  0  0
   -4.9793   22.5894  -29.3213 H   0  0  0  0  0  0  0  0  0  0  0  0
   -6.8515   19.5741  -31.6703 H   0  0  0  0  0  0  0  0  0  0  0  0
   -9.2600   19.8785  -32.2245 H   0  0  0  0  0  0  0  0  0  0  0  0
  -10.2448   22.1651  -32.3023 H   0  0  0  0  0  0  0  0  0  0  0  0
   -8.8407   24.1522  -31.7829 H   0  0  0  0  0  0  0  0  0  0  0  0
   -4.7454   20.3375  -33.0129 H   0  0  0  0  0  0  0  0  0  0  0  0
   -2.3213   19.9265  -32.6089 H   0  0  0  0  0  0  0  0  0  0  0  0
  1  2  1  0
  2  3  1  0
  3  4  1  0
  3  5  1  0
  5  6  2  0
  6  7  1  0
  7  8  2  0
  8  9  1  0
  9 10  2  0
 10 11  1  0
 11 12  1  0
 12 13  2  0
 13 14  1  0
 14 15  2  0
 15 16  1  0
 16 17  2  0
 17 18  1  0
 18 19  2  0
 19 20  1  0
 20 21  2  0
 21 22  1  0
 22 23  1  0
 23 24  2  0
 24 25  1  0
 25 26  1  0
 15 27  1  0
 27 28  2  0
 10  5  1  0
 28 12  1  0
 21 16  1  0
 26 22  2  0
  1 29  1  0
  1 30  1  0
  1 31  1  0
  2 32  1  0
  2 33  1  0
  4 34  1  0
  4 35  1  0
  4 36  1  0
  7 37  1  0
  9 38  1  0
 11 39  1  0
 11 40  1  0
 13 41  1  0
 14 42  1  0
 17 43  1  0
 18 44  1  0
 19 45  1  0
 20 46  1  0
 27 47  1  0
 28 48  1  0
M  CHG  1  25  -1
M  END
>  <UniqueID>  (14) 
14

>  <SMILES>  (14) 
CCN(C)c1ncncc1Cc1ccc(-c2ccccc2-c2nn[n-]n2)cc1

>  <Energy>  (14) 
102.25100540682341

>  <Genealogy>  (14) 
CCN(C)c1ncncc1Cc1ccc(-c2ccccc2-c2nn[n-]n2)cc1 (protonated)
CCN(C)c1ncncc1Cc1ccc(-c2ccccc2-c2nn[n-]n2)cc1 (3D coordinates assigned)
CCN(C)c1ncncc1Cc1ccc(-c2ccccc2-c2nn[n-]n2)cc1 (optimized conformer: 102.25100540682341 kcal/mol)

>  <smiles>  (14) 
CCN(C)c1ncncc1Cc1ccc(-c2ccccc2-c2nn[nH]n2)cc1

>  <score_type>  (14) 
oracle

>  <origin>  (14) 
adg

>  <m_score__min__energy>  (14) 
-9.9900000000000002

>  <m_primary>  (14) 
energy

$$$$
14:0
     RDKit          3D

 76 78  0  0  0  0  0  0  0  0999 V2000
   -3.1180   21.4180  -28.2230 C   0  0  0  0  0  0  0  0  0  0  0  0
   -4.0680   22.5820  -27.9310 C   0  0  0  0  0  0  0  0  0  0  0  0
   -3.9460   23.6260  -28.9730 N   0  0  0  0  0  0  0  0  0  0  0  0
   -2.6970   24.4070  -28.8120 C   0  0  0  0  0  0  0  0  0  0  0  0
   -2.4820   24.7580  -27.3400 C   0  0  0  0  0  0  0  0  0  0  0  0
   -5.1280   24.5150  -28.9960 C   0  0  0  0  0  0  0  0  0  0  0  0
   -5.3210   25.0810  -30.4140 C   0  0  0  0  0  0  0  0  0  0  0  0
   -5.5920   23.9900  -31.4690 C   0  0  0  0  0  0  0  0  0  0  0  0
   -5.1670   22.6440  -31.0270 N   0  0  0  0  0  0  0  0  0  0  0  0
   -5.6410   21.5900  -31.9230 C   0  0  0  0  0  0  0  0  0  0  0  0
   -7.0380   21.2880  -32.0080 C   0  0  0  0  0  0  0  0  0  0  0  0
   -8.0530   22.1590  -31.5150 C   0  0  0  0  0  0  0  0  0  0  0  0
   -9.4020   21.8270  -31.5940 C   0  0  0  0  0  0  0  0  0  0  0  0
   -9.7910   20.6420  -32.1880 C   0  0  0  0  0  0  0  0  0  0  0  0
   -8.8310   19.7700  -32.7000 C   0  0  0  0  0  0  0  0  0  0  0  0
   -7.4450   20.0570  -32.5950 C   0  0  0  0  0  0  0  0  0  0  0  0
   -6.5080   19.1660  -33.0610 N   0  0  0  0  0  0  0  0  0  0  0  0
   -6.8980   17.7620  -33.3360 C   0  0  0  0  0  0  0  0  0  0  0  0
   -5.2050   19.5700  -33.2560 C   0  0  0  0  0  0  0  0  0  0  0  0
   -4.3340   18.7940  -34.0570 C   0  0  0  0  0  0  0  0  0  0  0  0
   -2.9820   19.0720  -34.1370 C   0  0  0  0  0  0  0  0  0  0  0  0
   -2.4430   20.1570  -33.4490 C   0  0  0  0  0  0  0  0  0  0  0  0
   -1.0100   20.3370  -33.3530 N   0  0  0  0  0  0  0  0  0  0  0  0
   -0.0120   19.4610  -33.9850 C   0  0  0  0  0  0  0  0  0  0  0  0
    0.5760   20.1080  -35.2550 C   0  0  0  0  0  0  0  0  0  0  0  0
   -0.0260   21.5080  -35.5390 C   0  0  0  0  0  0  0  0  0  0  0  0
    0.8910   22.6380  -35.2710 N   0  0  0  0  0  0  0  0  0  0  0  0
    2.3130   22.2530  -35.3560 C   0  0  0  0  0  0  0  0  0  0  0  0
    0.5990   23.8210  -36.0960 C   0  0  0  0  0  0  0  0  0  0  0  0
   -3.3160   21.0680  -32.8120 C   0  0  0  0  0  0  0  0  0  0  0  0
   -2.7640   22.2640  -32.3490 O   0  0  0  0  0  0  0  0  0  0  0  0
   -1.8930   22.2920  -31.2230 C   0  0  0  0  0  0  0  0  0  0  0  0
   -4.7160   20.7680  -32.6580 C   0  0  0  0  0  0  0  0  0  0  0  0
   -2.7653   20.9859  -27.2749 H   0  0  0  0  0  0  0  0  0  0  0  0
   -3.6488   20.6479  -28.8020 H   0  0  0  0  0  0  0  0  0  0  0  0
   -2.2571   21.7837  -28.8020 H   0  0  0  0  0  0  0  0  0  0  0  0
   -5.1025   22.2087  -27.9123 H   0  0  0  0  0  0  0  0  0  0  0  0
   -3.8046   23.0198  -26.9569 H   0  0  0  0  0  0  0  0  0  0  0  0
   -1.8459   23.8100  -29.1716 H   0  0  0  0  0  0  0  0  0  0  0  0
   -2.7761   25.3362  -29.3955 H   0  0  0  0  0  0  0  0  0  0  0  0
   -2.9521   23.9905  -26.7076 H   0  0  0  0  0  0  0  0  0  0  0  0
   -1.4037   24.7989  -27.1265 H   0  0  0  0  0  0  0  0  0  0  0  0
   -2.9355   25.7372  -27.1265 H   0  0  0  0  0  0  0  0  0  0  0  0
   -6.0217   23.9433  -28.7053 H   0  0  0  0  0  0  0  0  0  0  0  0
   -4.9752   25.3441  -28.2895 H   0  0  0  0  0  0  0  0  0  0  0  0
   -6.1744   25.7749  -30.4008 H   0  0  0  0  0  0  0  0  0  0  0  0
   -4.3848   25.5848  -30.6963 H   0  0  0  0  0  0  0  0  0  0  0  0
   -6.6714   23.9658  -31.6796 H   0  0  0  0  0  0  0  0  0  0  0  0
   -5.0059   24.2438  -32.3646 H   0  0  0  0  0  0  0  0  0  0  0  0
   -4.1440   22.6680  -30.8980 H   0  0  0  0  0  0  0  0  0  0  0  0
   -5.4740   22.4560  -30.0520 H   0  0  0  0  0  0  0  0  0  0  0  0
   -7.7625   23.1178  -31.0607 H   0  0  0  0  0  0  0  0  0  0  0  0
  -10.1602   22.5095  -31.1826 H   0  0  0  0  0  0  0  0  0  0  0  0
  -10.8586   20.3862  -32.2571 H   0  0  0  0  0  0  0  0  0  0  0  0
   -9.1539   18.8421  -33.1947 H   0  0  0  0  0  0  0  0  0  0  0  0
   -7.0459   17.2295  -32.3849 H   0  0  0  0  0  0  0  0  0  0  0  0
   -7.8341   17.7479  -33.9135 H   0  0  0  0  0  0  0  0  0  0  0  0
   -6.1033   17.2671  -33.9135 H   0  0  0  0  0  0  0  0  0  0  0  0
   -4.7427   17.9487  -34.6302 H   0  0  0  0  0  0  0  0  0  0  0  0
   -2.3278   18.4325  -34.7477 H   0  0  0  0  0  0  0  0  0  0  0  0
   -0.6330   21.0320  -32.6660 H   0  0  0  0  0  0  0  0  0  0  0  0
    0.8019   19.2706  -33.2700 H   0  0  0  0  0  0  0  0  0  0  0  0
   -0.5062   18.5208  -34.2709 H   0  0  0  0  0  0  0  0  0  0  0  0
    1.6638   20.2106  -35.1278 H   0  0  0  0  0  0  0  0  0  0  0  0
    0.3289   19.4579  -36.1073 H   0  0  0  0  0  0  0  0  0  0  0  0
   -0.3186   21.5473  -36.5986 H   0  0  0  0  0  0  0  0  0  0  0  0
   -0.8769   21.6270  -34.8521 H   0  0  0  0  0  0  0  0  0  0  0  0
    2.7240   22.1417  -34.3417 H   0  0  0  0  0  0  0  0  0  0  0  0
    2.4028   21.2982  -35.8948 H   0  0  0  0  0  0  0  0  0  0  0  0
    2.8722   23.0321  -35.8948 H   0  0  0  0  0  0  0  0  0  0  0  0
    0.3869   24.6803  -35.4428 H   0  0  0  0  0  0  0  0  0  0  0  0
    1.4679   24.0488  -36.7310 H   0  0  0  0  0  0  0  0  0  0  0  0
   -0.2761   23.6183  -36.7310 H   0  0  0  0  0  0  0  0  0  0  0  0
   -2.4884   22.2729  -30.2983 H   0  0  0  0  0  0  0  0  0  0  0  0
   -1.2300   21.4147  -31.2504 H   0  0  0  0  0  0  0  0  0  0  0  0
   -1.2877   23.2101  -31.2504 H   0  0  0  0  0  0  0  0  0  0  0  0
  1  2  1  0
  2  3  1  0
  3  4  1  0
  4  5  1  0
  3  6  1  0
  6  7  1  0
  7  8  1  0
  8  9  1  0
  9 10  1  0
 10 11  2  0
 11 12  1  0
 12 13  2  0
 13 14  1  0
 14 15  2  0
 15 16  1  0
 16 17  2  0
 17 18  1  0
 17 19  1  0
 19 20  2  0
 20 21  1  0
 21 22  2  0
 22 23  1  0
 23 24  1  0
 24 25  1  0
 25 26  1  0
 26 27  1  0
 27 28  1  0
 27 29  1  0
 22 30  1  0
 30 31  1  0
 31 32  1  0
 30 33  2  0
 33 10  1  0
 16 11  1  0
 33 19  1  0
  1 34  1  0
  1 35  1  0
  1 36  1  0
  2 37  1  0
  2 38  1  0
  4 39  1  0
  4 40  1  0
  5 41  1  0
  5 42  1  0
  5 43  1  0
  6 44  1  0
  6 45  1  0
  7 46  1  0
  7 47  1  0
  8 48  1  0
  8 49  1  0
  9 50  1  0
  9 51  1  0
 12 52  1  0
 13 53  1  0
 14 54  1  0
 15 55  1  0
 18 56  1  0
 18 57  1  0
 18 58  1  0
 20 59  1  0
 21 60  1  0
 23 61  1  0
 24 62  1  0
 24 63  1  0
 25 64  1  0
 25 65  1  0
 26 66  1  0
 26 67  1  0
 28 68  1  0
 28 69  1  0
 28 70  1  0
 29 71  1  0
 29 72  1  0
 29 73  1  0
 32 74  1  0
 32 75  1  0
 32 76  1  0
M  CHG  2   9   1  17   1
M  END
>  <UniqueID>  (15) 
15

>  <SMILES>  (15) 
CCN(CC)CCC[NH2+]c1c2ccccc2[n+](C)c2ccc(NCCCN(C)C)c(OC)c12

>  <Energy>  (15) 
119.43191023774885

>  <Genealogy>  (15) 
CCN(CC)CCC[NH2+]c1c2ccccc2[n+](C)c2ccc(NCCCN(C)C)c(OC)c12 (protonated)
CCN(CC)CCC[NH2+]c1c2ccccc2[n+](C)c2ccc(NCCCN(C)C)c(OC)c12 (3D coordinates assigned)
CCN(CC)CCC[NH2+]c1c2ccccc2[n+](C)c2ccc(NCCCN(C)C)c(OC)c12 (optimized conformer: 119.43191023774885 kcal/mol)

>  <smiles>  (15) 
CCN(CC)CCCNc1c2ccccc2[n+](C)c2ccc(NCCCN(C)C)c(OC)c12

>  <score_type>  (15) 
oracle

>  <origin>  (15) 
adg

>  <m_score__min__energy>  (15) 
-7.8200000000000003

>  <m_primary>  (15) 
energy

$$$$
15:0
     RDKit          3D

 64 66  0  0  0  0  0  0  0  0999 V2000
   -6.1340   17.5930  -31.2670 C   0  0  0  0  0  0  0  0  0  0  0  0
   -7.1650   17.4440  -32.3850 C   0  0  0  0  0  0  0  0  0  0  0  0
   -6.5260   17.1500  -33.7510 C   0  0  0  0  0  0  0  0  0  0  0  0
   -5.4930   18.2040  -34.1610 C   0  0  0  0  0  0  0  0  0  0  0  0
   -6.1140   19.5300  -34.2260 N   0  0  0  0  0  0  0  0  0  0  0  0
   -6.0150   20.4630  -33.1300 C   0  0  0  0  0  0  0  0  0  0  0  0
   -7.1750   20.8680  -32.4410 C   0  0  0  0  0  0  0  0  0  0  0  0
   -8.4480   20.3770  -32.8080 C   0  0  0  0  0  0  0  0  0  0  0  0
   -9.5870   20.7310  -32.0860 C   0  0  0  0  0  0  0  0  0  0  0  0
   -9.4730   21.5480  -30.9650 C   0  0  0  0  0  0  0  0  0  0  0  0
   -8.2290   22.0520  -30.5870 C   0  0  0  0  0  0  0  0  0  0  0  0
   -7.0610   21.7620  -31.3410 C   0  0  0  0  0  0  0  0  0  0  0  0
   -5.8340   22.3040  -31.0120 N   0  0  0  0  0  0  0  0  0  0  0  0
   -5.7610   23.4470  -30.0750 C   0  0  0  0  0  0  0  0  0  0  0  0
   -4.6780   21.8010  -31.5820 C   0  0  0  0  0  0  0  0  0  0  0  0
   -3.3940   22.1340  -31.0810 C   0  0  0  0  0  0  0  0  0  0  0  0
   -2.2220   21.6450  -31.6840 C   0  0  0  0  0  0  0  0  0  0  0  0
   -0.9430   21.9180  -31.1730 O   0  0  0  0  0  0  0  0  0  0  0  0
   -0.1320   21.0010  -30.4400 C   0  0  0  0  0  0  0  0  0  0  0  0
   -1.0350   19.9640  -29.7380 C   0  0  0  0  0  0  0  0  0  0  0  0
   -1.2560   20.1970  -28.2740 N   0  0  0  0  0  0  0  0  0  0  0  0
   -0.4240   21.3300  -27.7920 C   0  0  0  0  0  0  0  0  0  0  0  0
   -2.6820   20.4610  -27.9580 C   0  0  0  0  0  0  0  0  0  0  0  0
   -0.8380   18.9750  -27.5390 C   0  0  0  0  0  0  0  0  0  0  0  0
   -2.3110   20.8520  -32.8300 C   0  0  0  0  0  0  0  0  0  0  0  0
   -1.1200   20.3960  -33.4180 O   0  0  0  0  0  0  0  0  0  0  0  0
   -0.4370   21.0560  -34.4840 C   0  0  0  0  0  0  0  0  0  0  0  0
   -3.5730   20.5250  -33.3500 C   0  0  0  0  0  0  0  0  0  0  0  0
   -4.7560   20.9210  -32.6920 C   0  0  0  0  0  0  0  0  0  0  0  0
   -6.6376   17.5202  -30.2917 H   0  0  0  0  0  0  0  0  0  0  0  0
   -5.3827   16.7941  -31.3522 H   0  0  0  0  0  0  0  0  0  0  0  0
   -5.6396   18.5719  -31.3522 H   0  0  0  0  0  0  0  0  0  0  0  0
   -7.8433   16.6166  -32.1292 H   0  0  0  0  0  0  0  0  0  0  0  0
   -7.7011   18.4008  -32.4699 H   0  0  0  0  0  0  0  0  0  0  0  0
   -6.0285   16.1701  -33.7029 H   0  0  0  0  0  0  0  0  0  0  0  0
   -7.3292   17.1628  -34.5025 H   0  0  0  0  0  0  0  0  0  0  0  0
   -4.6791   18.2208  -33.4212 H   0  0  0  0  0  0  0  0  0  0  0  0
   -5.0959   17.9470  -35.1541 H   0  0  0  0  0  0  0  0  0  0  0  0
   -6.8750   19.6510  -34.9290 H   0  0  0  0  0  0  0  0  0  0  0  0
   -8.5417   19.7065  -33.6750 H   0  0  0  0  0  0  0  0  0  0  0  0
  -10.5749   20.3649  -32.4021 H   0  0  0  0  0  0  0  0  0  0  0  0
  -10.3674   21.7970  -30.3751 H   0  0  0  0  0  0  0  0  0  0  0  0
   -8.1511   22.6844  -29.6903 H   0  0  0  0  0  0  0  0  0  0  0  0
   -5.7848   23.0749  -29.0401 H   0  0  0  0  0  0  0  0  0  0  0  0
   -4.8257   24.0007  -30.2442 H   0  0  0  0  0  0  0  0  0  0  0  0
   -6.6183   24.1151  -30.2442 H   0  0  0  0  0  0  0  0  0  0  0  0
   -3.3132   22.7893  -30.2012 H   0  0  0  0  0  0  0  0  0  0  0  0
    0.5524   20.4846  -31.1292 H   0  0  0  0  0  0  0  0  0  0  0  0
    0.4521   21.5492  -29.6861 H   0  0  0  0  0  0  0  0  0  0  0  0
   -2.0157   19.9743  -30.2360 H   0  0  0  0  0  0  0  0  0  0  0  0
   -0.5116   18.9998  -29.8179 H   0  0  0  0  0  0  0  0  0  0  0  0
   -0.4178   21.3384  -26.6920 H   0  0  0  0  0  0  0  0  0  0  0  0
    0.6048   21.2135  -28.1636 H   0  0  0  0  0  0  0  0  0  0  0  0
   -0.8431   22.2767  -28.1636 H   0  0  0  0  0  0  0  0  0  0  0  0
   -2.8172   20.4860  -26.8666 H   0  0  0  0  0  0  0  0  0  0  0  0
   -2.9793   21.4295  -28.3866 H   0  0  0  0  0  0  0  0  0  0  0  0
   -3.3063   19.6632  -28.3866 H   0  0  0  0  0  0  0  0  0  0  0  0
   -0.9009   19.1588  -26.4563 H   0  0  0  0  0  0  0  0  0  0  0  0
   -1.5017   18.1401  -27.8083 H   0  0  0  0  0  0  0  0  0  0  0  0
    0.1980   18.7215  -27.8083 H   0  0  0  0  0  0  0  0  0  0  0  0
    0.2952   21.7636  -34.0679 H   0  0  0  0  0  0  0  0  0  0  0  0
    0.0841   20.3106  -35.1027 H   0  0  0  0  0  0  0  0  0  0  0  0
   -1.1641   21.6023  -35.1027 H   0  0  0  0  0  0  0  0  0  0  0  0
   -3.6405   19.9507  -34.2857 H   0  0  0  0  0  0  0  0  0  0  0  0
  1  2  1  0
  2  3  1  0
  3  4  1  0
  4  5  1  0
  5  6  1  0
  6  7  2  0
  7  8  1  0
  8  9  2  0
  9 10  1  0
 10 11  2  0
 11 12  1  0
 12 13  2  0
 13 14  1  0
 13 15  1  0
 15 16  2  0
 16 17  1  0
 17 18  1  0
 18 19  1  0
 19 20  1  0
 20 21  1  0
 21 22  1  0
 21 23  1  0
 21 24  1  0
 17 25  2  0
 25 26  1  0
 26 27  1  0
 25 28  1  0
 28 29  2  0
 29  6  1  0
 12  7  1  0
 29 15  1  0
  1 30  1  0
  1 31  1  0
  1 32  1  0
  2 33  1  0
  2 34  1  0
  3 35  1  0
  3 36  1  0
  4 37  1  0
  4 38  1  0
  5 39  1  0
  8 40  1  0
  9 41  1  0
 10 42  1  0
 11 43  1  0
 14 44  1  0
 14 45  1  0
 14 46  1  0
 16 47  1  0
 19 48  1  0
 19 49  1  0
 20 50  1  0
 20 51  1  0
 22 52  1  0
 22 53  1  0
 22 54  1  0
 23 55  1  0
 23 56  1  0
 23 57  1  0
 24 58  1  0
 24 59  1  0
 24 60  1  0
 27 61  1  0
 27 62  1  0
 27 63  1  0
 28 64  1  0
M  CHG  2  13   1  21   1
M  END
>  <UniqueID>  (16) 
16

>  <SMILES>  (16) 
CCCCNc1c2ccccc2[n+](C)c2cc(OCC[N+](C)(C)C)c(OC)cc12

>  <Energy>  (16) 
91.61248284911859

>  <Genealogy>  (16) 
CCCCNc1c2ccccc2[n+](C)c2cc(OCC[N+](C)(C)C)c(OC)cc12 (3D coordinates assigned)
CCCCNc1c2ccccc2[n+](C)c2cc(OCC[N+](C)(C)C)c(OC)cc12 (optimized conformer: 91.61248284911859 kcal/mol)

>  <smiles>  (16) 
CCCCNc1c2ccccc2[n+](C)c2cc(OCC[N+](C)(C)C)c(OC)cc12

>  <score_type>  (16) 
oracle

>  <origin>  (16) 
adg

>  <m_score__min__energy>  (16) 
-7.5700000000000003

>  <m_primary>  (16) 
energy

$$$$
16:0
     RDKit          3D

 44 46  0  0  0  0  0  0  0  0999 V2000
   -9.1080   20.8140  -30.8670 C   0  0  0  0  0  0  0  0  0  0  0  0
   -9.5390   20.8630  -32.3280 C   0  0  0  0  0  0  0  0  0  0  0  0
   -9.4760   19.5140  -32.9030 N   0  0  0  0  0  0  0  0  0  0  0  0
   -8.6660   18.5970  -32.0880 C   0  0  0  0  0  0  0  0  0  0  0  0
   -7.3930   18.1490  -32.8300 C   0  0  0  0  0  0  0  0  0  0  0  0
   -6.9090   19.1240  -33.8320 N   0  0  0  0  0  0  0  0  0  0  0  0
   -5.5810   19.6490  -33.5260 C   0  0  0  0  0  0  0  0  0  0  0  0
   -5.4410   20.9090  -32.8760 C   0  0  0  0  0  0  0  0  0  0  0  0
   -6.5680   21.6820  -32.4950 C   0  0  0  0  0  0  0  0  0  0  0  0
   -6.4230   22.8740  -31.7920 C   0  0  0  0  0  0  0  0  0  0  0  0
   -5.1580   23.3270  -31.4420 C   0  0  0  0  0  0  0  0  0  0  0  0
   -4.9690   24.9340  -30.4270 Br  0  0  0  0  0  0  0  0  0  0  0  0
   -4.0310   22.6100  -31.8320 C   0  0  0  0  0  0  0  0  0  0  0  0
   -4.1430   21.4180  -32.5950 C   0  0  0  0  0  0  0  0  0  0  0  0
   -3.0220   20.7550  -33.0480 N   0  0  0  0  0  0  0  0  0  0  0  0
   -1.7120   21.4450  -33.0570 C   0  0  0  0  0  0  0  0  0  0  0  0
   -3.1250   19.4650  -33.5250 C   0  0  0  0  0  0  0  0  0  0  0  0
   -1.9680   18.6640  -33.7090 C   0  0  0  0  0  0  0  0  0  0  0  0
   -2.0520   17.3840  -34.2460 C   0  0  0  0  0  0  0  0  0  0  0  0
   -0.4720   16.3370  -34.4840 Br  0  0  0  0  0  0  0  0  0  0  0  0
   -3.2880   16.8610  -34.5960 C   0  0  0  0  0  0  0  0  0  0  0  0
   -4.4470   17.6000  -34.3850 C   0  0  0  0  0  0  0  0  0  0  0  0
   -4.4000   18.9030  -33.8220 C   0  0  0  0  0  0  0  0  0  0  0  0
   -9.9921   20.9145  -30.2203 H   0  0  0  0  0  0  0  0  0  0  0  0
   -8.6118   19.8537  -30.6631 H   0  0  0  0  0  0  0  0  0  0  0  0
   -8.4089   21.6385  -30.6631 H   0  0  0  0  0  0  0  0  0  0  0  0
  -10.5697   21.2416  -32.3936 H   0  0  0  0  0  0  0  0  0  0  0  0
   -8.8664   21.5309  -32.8861 H   0  0  0  0  0  0  0  0  0  0  0  0
   -9.0220   19.5920  -33.8440 H   0  0  0  0  0  0  0  0  0  0  0  0
   -8.3755   19.1083  -31.1584 H   0  0  0  0  0  0  0  0  0  0  0  0
   -9.2706   17.7034  -31.8739 H   0  0  0  0  0  0  0  0  0  0  0  0
   -6.5968   17.9911  -32.0876 H   0  0  0  0  0  0  0  0  0  0  0  0
   -7.6489   17.2294  -33.3768 H   0  0  0  0  0  0  0  0  0  0  0  0
   -6.9880   18.7270  -34.7890 H   0  0  0  0  0  0  0  0  0  0  0  0
   -7.5830   19.9220  -33.8770 H   0  0  0  0  0  0  0  0  0  0  0  0
   -7.5765   21.3321  -32.7606 H   0  0  0  0  0  0  0  0  0  0  0  0
   -7.3121   23.4585  -31.5130 H   0  0  0  0  0  0  0  0  0  0  0  0
   -3.0338   22.9739  -31.5435 H   0  0  0  0  0  0  0  0  0  0  0  0
   -1.3820   21.6188  -32.0222 H   0  0  0  0  0  0  0  0  0  0  0  0
   -0.9718   20.8198  -33.5778 H   0  0  0  0  0  0  0  0  0  0  0  0
   -1.8089   22.4091  -33.5778 H   0  0  0  0  0  0  0  0  0  0  0  0
   -0.9846   19.0639  -33.4209 H   0  0  0  0  0  0  0  0  0  0  0  0
   -3.3518   15.8576  -35.0423 H   0  0  0  0  0  0  0  0  0  0  0  0
   -5.4199   17.1665  -34.6597 H   0  0  0  0  0  0  0  0  0  0  0  0
  1  2  1  0
  2  3  1  0
  3  4  1  0
  4  5  1  0
  5  6  1  0
  6  7  1  0
  7  8  2  0
  8  9  1  0
  9 10  2  0
 10 11  1  0
 11 12  1  0
 11 13  2  0
 13 14  1  0
 14 15  2  0
 15 16  1  0
 15 17  1  0
 17 18  2  0
 18 19  1  0
 19 20  1  0
 19 21  2  0
 21 22  1  0
 22 23  2  0
 23  7  1  0
 14  8  1  0
 23 17  1  0
  1 24  1  0
  1 25  1  0
  1 26  1  0
  2 27  1  0
  2 28  1  0
  3 29  1  0
  4 30  1  0
  4 31  1  0
  5 32  1  0
  5 33  1  0
  6 34  1  0
  6 35  1  0
  9 36  1  0
 10 37  1  0
 13 38  1  0
 16 39  1  0
 16 40  1  0
 16 41  1  0
 18 42  1  0
 21 43  1  0
 22 44  1  0
M  CHG  2   6   1  15   1
M  END
>  <UniqueID>  (17) 
17

>  <SMILES>  (17) 
CCNCC[NH2+]c1c2ccc(Br)cc2[n+](C)c2cc(Br)ccc12

>  <Energy>  (17) 
69.91234976834376

>  <Genealogy>  (17) 
CCNCC[NH2+]c1c2ccc(Br)cc2[n+](C)c2cc(Br)ccc12 (protonated)
CCNCC[NH2+]c1c2ccc(Br)cc2[n+](C)c2cc(Br)ccc12 (3D coordinates assigned)
CCNCC[NH2+]c1c2ccc(Br)cc2[n+](C)c2cc(Br)ccc12 (optimized conformer: 69.91234976834376 kcal/mol)

>  <smiles>  (17) 
CCNCCNc1c2ccc(Br)cc2[n+](C)c2cc(Br)ccc12

>  <score_type>  (17) 
oracle

>  <origin>  (17) 
adg

>  <m_score__min__energy>  (17) 
-7.5999999999999996

>  <m_primary>  (17) 
energy

$$$$
17:0
     RDKit          3D

 37 41  0  0  0  0  0  0  0  0999 V2000
   -4.6100   24.9250  -31.0990 O   0  0  0  0  0  0  0  0  0  0  0  0
   -5.4580   24.0110  -31.2880 C   0  0  0  0  0  0  0  0  0  0  0  0
   -6.7910   24.2180  -31.2130 N   0  0  0  0  0  0  0  0  0  0  0  0
   -7.3150   23.0160  -31.5040 C   0  0  0  0  0  0  0  0  0  0  0  0
   -8.6580   22.6750  -31.5890 C   0  0  0  0  0  0  0  0  0  0  0  0
   -8.9810   21.3940  -31.9200 N   0  0  0  0  0  0  0  0  0  0  0  0
   -8.0300   20.4420  -32.1690 C   0  0  0  0  0  0  0  0  0  0  0  0
   -8.4340   19.1360  -32.5030 C   0  0  0  0  0  0  0  0  0  0  0  0
   -7.4450   18.1900  -32.7440 C   0  0  0  0  0  0  0  0  0  0  0  0
   -6.1250   18.4880  -32.6650 C   0  0  0  0  0  0  0  0  0  0  0  0
   -5.6670   19.7610  -32.3410 C   0  0  0  0  0  0  0  0  0  0  0  0
   -6.6290   20.7690  -32.0880 C   0  0  0  0  0  0  0  0  0  0  0  0
   -6.3190   22.1020  -31.7460 C   0  0  0  0  0  0  0  0  0  0  0  0
   -5.1280   22.7330  -31.5960 N   0  0  0  0  0  0  0  0  0  0  0  0
   -3.7970   22.2470  -31.8210 C   0  0  0  0  0  0  0  0  0  0  0  0
   -3.4440   21.8140  -33.1070 C   0  0  0  0  0  0  0  0  0  0  0  0
   -2.1580   21.3390  -33.3640 C   0  0  0  0  0  0  0  0  0  0  0  0
   -1.2110   21.3000  -32.3400 C   0  0  0  0  0  0  0  0  0  0  0  0
   -1.5480   21.7340  -31.0550 C   0  0  0  0  0  0  0  0  0  0  0  0
   -2.8440   22.2130  -30.7750 C   0  0  0  0  0  0  0  0  0  0  0  0
   -3.2070   22.6810  -29.3820 C   0  0  0  0  0  0  0  0  0  0  0  0
   -4.5200   22.3750  -29.0630 F   0  0  0  0  0  0  0  0  0  0  0  0
   -3.0510   24.0520  -29.2920 F   0  0  0  0  0  0  0  0  0  0  0  0
   -2.3830   22.0700  -28.4570 F   0  0  0  0  0  0  0  0  0  0  0  0
   -5.3810   17.3590  -32.9510 O   0  0  0  0  0  0  0  0  0  0  0  0
   -6.2910   16.2860  -33.2250 C   0  0  0  0  0  0  0  0  0  0  0  0
   -7.5980   16.8590  -33.0820 O   0  0  0  0  0  0  0  0  0  0  0  0
   -7.2950   25.1070  -30.9980 H   0  0  0  0  0  0  0  0  0  0  0  0
   -9.4422   23.4213  -31.3938 H   0  0  0  0  0  0  0  0  0  0  0  0
   -9.4997   18.8721  -32.5712 H   0  0  0  0  0  0  0  0  0  0  0  0
   -4.5902   19.9781  -32.2831 H   0  0  0  0  0  0  0  0  0  0  0  0
   -4.1859   21.8491  -33.9184 H   0  0  0  0  0  0  0  0  0  0  0  0
   -1.8904   20.9951  -34.3740 H   0  0  0  0  0  0  0  0  0  0  0  0
   -0.1967   20.9267  -32.5446 H   0  0  0  0  0  0  0  0  0  0  0  0
   -0.7946   21.7015  -30.2542 H   0  0  0  0  0  0  0  0  0  0  0  0
   -6.1450   15.9074  -34.2474 H   0  0  0  0  0  0  0  0  0  0  0  0
   -6.1385   15.4330  -32.5474 H   0  0  0  0  0  0  0  0  0  0  0  0
  1  2  2  0
  2  3  1  0
  3  4  1  0
  4  5  2  0
  5  6  1  0
  6  7  2  0
  7  8  1  0
  8  9  2  0
  9 10  1  0
 10 11  2  0
 11 12  1  0
 12 13  2  0
 13 14  1  0
 14 15  1  0
 15 16  2  0
 16 17  1  0
 17 18  2  0
 18 19  1  0
 19 20  2  0
 20 21  1  0
 21 22  1  0
 21 23  1  0
 21 24  1  0
 10 25  1  0
 25 26  1  0
 26 27  1  0
 14  2  1  0
 20 15  1  0
 13  4  1  0
 12  7  1  0
 27  9  1  0
  3 28  1  0
  5 29  1  0
  8 30  1  0
 11 31  1  0
 16 32  1  0
 17 33  1  0
 18 34  1  0
 19 35  1  0
 26 36  1  0
 26 37  1  0
M  END
>  <UniqueID>  (18) 
18

>  <SMILES>  (18) 
O=c1[nH]c2cnc3cc4c(cc3c2n1-c1ccccc1C(F)(F)F)OCO4

>  <Energy>  (18) 
126.5490242570126

>  <Genealogy>  (18) 
O=c1[nH]c2cnc3cc4c(cc3c2n1-c1ccccc1C(F)(F)F)OCO4 (3D coordinates assigned)
O=c1[nH]c2cnc3cc4c(cc3c2n1-c1ccccc1C(F)(F)F)OCO4 (nonaromatic ring conformer: 126.5490242570126 kcal/mol)

>  <smiles>  (18) 
O=c1[nH]c2cnc3cc4c(cc3c2n1-c1ccccc1C(F)(F)F)OCO4

>  <score_type>  (18) 
oracle

>  <origin>  (18) 
adg

>  <m_score__min__energy>  (18) 
-8.0800000000000001

>  <m_primary>  (18) 
energy

$$$$
18:0
     RDKit          3D

 64 67  0  0  0  0  0  0  0  0999 V2000
   -0.4300   24.5810  -28.2380 C   0  0  0  0  0  0  0  0  0  0  0  0
   -0.1340   23.1550  -28.7080 C   0  0  0  0  0  0  0  0  0  0  0  0
   -1.3830   22.4440  -29.0480 N   0  0  0  0  0  0  0  0  0  0  0  0
   -1.2580   21.0100  -29.3650 C   0  0  0  0  0  0  0  0  0  0  0  0
   -1.8420   20.6810  -30.7470 C   0  0  0  0  0  0  0  0  0  0  0  0
   -1.2030   21.4530  -31.7490 O   0  0  0  0  0  0  0  0  0  0  0  0
   -1.9760   21.5120  -32.9340 C   0  0  0  0  0  0  0  0  0  0  0  0
   -3.2560   20.6710  -32.8150 C   0  0  0  0  0  0  0  0  0  0  0  0
   -4.4270   21.3870  -33.3590 N   0  0  0  0  0  0  0  0  0  0  0  0
   -5.6520   20.6390  -33.1390 C   0  0  0  0  0  0  0  0  0  0  0  0
   -6.7950   21.2670  -32.5760 C   0  0  0  0  0  0  0  0  0  0  0  0
   -6.8690   22.6720  -32.4120 C   0  0  0  0  0  0  0  0  0  0  0  0
   -8.0190   23.2760  -31.9060 C   0  0  0  0  0  0  0  0  0  0  0  0
   -9.1160   22.5040  -31.5570 C   0  0  0  0  0  0  0  0  0  0  0  0
   -9.0730   21.1210  -31.7030 C   0  0  0  0  0  0  0  0  0  0  0  0
   -7.9100   20.4690  -32.1900 C   0  0  0  0  0  0  0  0  0  0  0  0
   -7.8530   19.0940  -32.2970 N   0  0  0  0  0  0  0  0  0  0  0  0
   -8.8380   18.2520  -31.5770 C   0  0  0  0  0  0  0  0  0  0  0  0
   -6.8570   18.5040  -33.0530 C   0  0  0  0  0  0  0  0  0  0  0  0
   -6.9400   17.1420  -33.4460 C   0  0  0  0  0  0  0  0  0  0  0  0
   -5.9420   16.5490  -34.2120 C   0  0  0  0  0  0  0  0  0  0  0  0
   -4.8470   17.2930  -34.6290 C   0  0  0  0  0  0  0  0  0  0  0  0
   -4.7410   18.6360  -34.2760 C   0  0  0  0  0  0  0  0  0  0  0  0
   -5.7350   19.2660  -33.4880 C   0  0  0  0  0  0  0  0  0  0  0  0
   -2.6470   23.1630  -29.2090 C   0  0  0  0  0  0  0  0  0  0  0  0
   -3.1560   23.4760  -30.4930 C   0  0  0  0  0  0  0  0  0  0  0  0
   -4.3720   24.1510  -30.6430 C   0  0  0  0  0  0  0  0  0  0  0  0
   -5.1030   24.5540  -29.5180 C   0  0  0  0  0  0  0  0  0  0  0  0
   -6.3860   25.3170  -29.6930 C   0  0  0  0  0  0  0  0  0  0  0  0
   -4.6040   24.2760  -28.2420 C   0  0  0  0  0  0  0  0  0  0  0  0
   -3.4000   23.5820  -28.0880 C   0  0  0  0  0  0  0  0  0  0  0  0
   -0.4362   24.6108  -27.1384 H   0  0  0  0  0  0  0  0  0  0  0  0
    0.3461   25.2611  -28.6189 H   0  0  0  0  0  0  0  0  0  0  0  0
   -1.4127   24.8961  -28.6189 H   0  0  0  0  0  0  0  0  0  0  0  0
    0.5114   23.1954  -29.5978 H   0  0  0  0  0  0  0  0  0  0  0  0
    0.3692   22.6131  -27.8937 H   0  0  0  0  0  0  0  0  0  0  0  0
   -0.1933   20.7337  -29.3528 H   0  0  0  0  0  0  0  0  0  0  0  0
   -1.8213   20.4415  -28.6104 H   0  0  0  0  0  0  0  0  0  0  0  0
   -1.6896   19.6127  -30.9601 H   0  0  0  0  0  0  0  0  0  0  0  0
   -2.9166   20.9162  -30.7459 H   0  0  0  0  0  0  0  0  0  0  0  0
   -2.2530   22.5587  -33.1281 H   0  0  0  0  0  0  0  0  0  0  0  0
   -1.3727   21.1065  -33.7596 H   0  0  0  0  0  0  0  0  0  0  0  0
   -3.1202   19.7326  -33.3727 H   0  0  0  0  0  0  0  0  0  0  0  0
   -3.4390   20.4704  -31.7490 H   0  0  0  0  0  0  0  0  0  0  0  0
   -4.4970   22.3420  -32.9430 H   0  0  0  0  0  0  0  0  0  0  0  0
   -4.3070   21.5690  -34.3800 H   0  0  0  0  0  0  0  0  0  0  0  0
   -6.0061   23.2958  -32.6880 H   0  0  0  0  0  0  0  0  0  0  0  0
   -8.0560   24.3685  -31.7833 H   0  0  0  0  0  0  0  0  0  0  0  0
  -10.0231   22.9861  -31.1635 H   0  0  0  0  0  0  0  0  0  0  0  0
   -9.9562   20.5220  -31.4362 H   0  0  0  0  0  0  0  0  0  0  0  0
   -8.6987   18.3710  -30.4924 H   0  0  0  0  0  0  0  0  0  0  0  0
   -9.8567   18.5628  -31.8522 H   0  0  0  0  0  0  0  0  0  0  0  0
   -8.6895   17.1974  -31.8522 H   0  0  0  0  0  0  0  0  0  0  0  0
   -7.8107   16.5442  -33.1386 H   0  0  0  0  0  0  0  0  0  0  0  0
   -6.0207   15.4871  -34.4882 H   0  0  0  0  0  0  0  0  0  0  0  0
   -4.0623   16.8215  -35.2388 H   0  0  0  0  0  0  0  0  0  0  0  0
   -3.8707   19.2172  -34.6149 H   0  0  0  0  0  0  0  0  0  0  0  0
   -2.5858   23.1835  -31.3870 H   0  0  0  0  0  0  0  0  0  0  0  0
   -4.7566   24.3667  -31.6507 H   0  0  0  0  0  0  0  0  0  0  0  0
   -6.8028   25.5649  -28.7057 H   0  0  0  0  0  0  0  0  0  0  0  0
   -6.1880   26.2442  -30.2507 H   0  0  0  0  0  0  0  0  0  0  0  0
   -7.1062   24.7003  -30.2507 H   0  0  0  0  0  0  0  0  0  0  0  0
   -5.1623   24.6054  -27.3533 H   0  0  0  0  0  0  0  0  0  0  0  0
   -3.0318   23.3578  -27.0760 H   0  0  0  0  0  0  0  0  0  0  0  0
  1  2  1  0
  2  3  1  0
  3  4  1  0
  4  5  1  0
  5  6  1  0
  6  7  1  0
  7  8  1  0
  8  9  1  0
  9 10  1  0
 10 11  1  0
 11 12  2  0
 12 13  1  0
 13 14  2  0
 14 15  1  0
 15 16  2  0
 16 17  1  0
 17 18  1  0
 17 19  2  0
 19 20  1  0
 20 21  2  0
 21 22  1  0
 22 23  2  0
 23 24  1  0
  3 25  1  0
 25 26  2  0
 26 27  1  0
 27 28  2  0
 28 29  1  0
 28 30  1  0
 30 31  2  0
 24 10  2  0
 31 25  1  0
 16 11  1  0
 24 19  1  0
  1 32  1  0
  1 33  1  0
  1 34  1  0
  2 35  1  0
  2 36  1  0
  4 37  1  0
  4 38  1  0
  5 39  1  0
  5 40  1  0
  7 41  1  0
  7 42  1  0
  8 43  1  0
  8 44  1  0
  9 45  1  0
  9 46  1  0
 12 47  1  0
 13 48  1  0
 14 49  1  0
 15 50  1  0
 18 51  1  0
 18 52  1  0
 18 53  1  0
 20 54  1  0
 21 55  1  0
 22 56  1  0
 23 57  1  0
 26 58  1  0
 27 59  1  0
 29 60  1  0
 29 61  1  0
 29 62  1  0
 30 63  1  0
 31 64  1  0
M  CHG  2   9   1  17   1
M  END
>  <UniqueID>  (19) 
19

>  <SMILES>  (19) 
CCN(CCOCC[NH2+]c1c2ccccc2[n+](C)c2ccccc12)c1ccc(C)cc1

>  <Energy>  (19) 
96.4260187667252

>  <Genealogy>  (19) 
CCN(CCOCC[NH2+]c1c2ccccc2[n+](C)c2ccccc12)c1ccc(C)cc1 (protonated)
CCN(CCOCC[NH2+]c1c2ccccc2[n+](C)c2ccccc12)c1ccc(C)cc1 (3D coordinates assigned)
CCN(CCOCC[NH2+]c1c2ccccc2[n+](C)c2ccccc12)c1ccc(C)cc1 (optimized conformer: 96.4260187667252 kcal/mol)

>  <smiles>  (19) 
CCN(CCOCCNc1c2ccccc2[n+](C)c2ccccc12)c1ccc(C)cc1

>  <score_type>  (19) 
oracle

>  <origin>  (19) 
adg

>  <m_score__min__energy>  (19) 
-9.1500000000000004

>  <m_primary>  (19) 
energy

$$$$
19:0
     RDKit          3D

 54 56  0  0  0  0  0  0  0  0999 V2000
   -6.1950   25.3190  -29.4690 C   0  0  0  0  0  0  0  0  0  0  0  0
   -5.6110   25.6680  -30.8320 C   0  0  0  0  0  0  0  0  0  0  0  0
   -4.2850   25.0430  -30.9820 N   0  0  0  0  0  0  0  0  0  0  0  0
   -3.5680   24.9050  -29.7050 C   0  0  0  0  0  0  0  0  0  0  0  0
   -2.6290   23.6910  -29.7280 C   0  0  0  0  0  0  0  0  0  0  0  0
   -3.2500   22.4800  -29.0180 C   0  0  0  0  0  0  0  0  0  0  0  0
   -3.8860   21.4750  -30.0080 C   0  0  0  0  0  0  0  0  0  0  0  0
   -4.6400   22.1270  -31.1020 N   0  0  0  0  0  0  0  0  0  0  0  0
   -4.9880   21.2170  -32.1870 C   0  0  0  0  0  0  0  0  0  0  0  0
   -3.9560   20.6050  -32.9430 C   0  0  0  0  0  0  0  0  0  0  0  0
   -2.6660   21.1810  -33.0170 C   0  0  0  0  0  0  0  0  0  0  0  0
   -1.6220   20.5220  -33.6590 C   0  0  0  0  0  0  0  0  0  0  0  0
   -1.8340   19.2750  -34.2280 C   0  0  0  0  0  0  0  0  0  0  0  0
   -3.1030   18.7030  -34.2030 C   0  0  0  0  0  0  0  0  0  0  0  0
   -4.2040   19.3770  -33.6120 C   0  0  0  0  0  0  0  0  0  0  0  0
   -5.4770   18.8410  -33.6340 N   0  0  0  0  0  0  0  0  0  0  0  0
   -5.7640   17.6650  -34.4890 C   0  0  0  0  0  0  0  0  0  0  0  0
   -6.5000   19.4430  -32.9270 C   0  0  0  0  0  0  0  0  0  0  0  0
   -7.7510   18.8020  -32.7560 C   0  0  0  0  0  0  0  0  0  0  0  0
   -8.8420   19.4840  -32.2360 C   0  0  0  0  0  0  0  0  0  0  0  0
   -8.7260   20.8260  -31.9110 C   0  0  0  0  0  0  0  0  0  0  0  0
   -7.4840   21.4680  -31.9590 C   0  0  0  0  0  0  0  0  0  0  0  0
   -7.5300   23.2750  -31.8700 S   0  0  0  0  0  0  0  0  0  0  0  0
   -9.2880   23.4310  -32.3370 C   0  0  0  0  0  0  0  0  0  0  0  0
   -6.3180   20.7300  -32.3390 C   0  0  0  0  0  0  0  0  0  0  0  0
   -5.5390   25.7110  -28.6778 H   0  0  0  0  0  0  0  0  0  0  0  0
   -7.1946   25.7680  -29.3725 H   0  0  0  0  0  0  0  0  0  0  0  0
   -6.2731   24.2260  -29.3725 H   0  0  0  0  0  0  0  0  0  0  0  0
   -6.2808   25.2974  -31.6220 H   0  0  0  0  0  0  0  0  0  0  0  0
   -5.5091   26.7602  -30.9145 H   0  0  0  0  0  0  0  0  0  0  0  0
   -3.7020   25.6550  -31.6010 H   0  0  0  0  0  0  0  0  0  0  0  0
   -2.9756   25.8143  -29.5253 H   0  0  0  0  0  0  0  0  0  0  0  0
   -4.3068   24.7607  -28.9029 H   0  0  0  0  0  0  0  0  0  0  0  0
   -2.4192   23.4222  -30.7738 H   0  0  0  0  0  0  0  0  0  0  0  0
   -1.7042   23.9625  -29.1979 H   0  0  0  0  0  0  0  0  0  0  0  0
   -2.4636   21.9639  -28.4477 H   0  0  0  0  0  0  0  0  0  0  0  0
   -4.0489   22.8518  -28.3596 H   0  0  0  0  0  0  0  0  0  0  0  0
   -3.0838   20.8667  -30.4513 H   0  0  0  0  0  0  0  0  0  0  0  0
   -4.6022   20.8653  -29.4376 H   0  0  0  0  0  0  0  0  0  0  0  0
   -5.4700   22.5420  -30.6480 H   0  0  0  0  0  0  0  0  0  0  0  0
   -4.0950   22.9350  -31.4790 H   0  0  0  0  0  0  0  0  0  0  0  0
   -2.4854   22.1651  -32.5599 H   0  0  0  0  0  0  0  0  0  0  0  0
   -0.6282   20.9902  -33.7153 H   0  0  0  0  0  0  0  0  0  0  0  0
   -0.9983   18.7372  -34.6997 H   0  0  0  0  0  0  0  0  0  0  0  0
   -3.2556   17.7095  -34.6498 H   0  0  0  0  0  0  0  0  0  0  0  0
   -5.9769   16.7928  -33.8534 H   0  0  0  0  0  0  0  0  0  0  0  0
   -6.6366   17.8776  -35.1241 H   0  0  0  0  0  0  0  0  0  0  0  0
   -4.8915   17.4517  -35.1241 H   0  0  0  0  0  0  0  0  0  0  0  0
   -7.8599   17.7450  -33.0403 H   0  0  0  0  0  0  0  0  0  0  0  0
   -9.7970   18.9603  -32.0821 H   0  0  0  0  0  0  0  0  0  0  0  0
   -9.6202   21.3926  -31.6120 H   0  0  0  0  0  0  0  0  0  0  0  0
   -9.9053   23.4858  -31.4282 H   0  0  0  0  0  0  0  0  0  0  0  0
   -9.4296   24.3452  -32.9321 H   0  0  0  0  0  0  0  0  0  0  0  0
   -9.5883   22.5560  -32.9321 H   0  0  0  0  0  0  0  0  0  0  0  0
  1  2  1  0
  2  3  1  0
  3  4  1  0
  4  5  1  0
  5  6  1  0
  6  7  1  0
  7  8  1  0
  8  9  1  0
  9 10  2  0
 10 11  1  0
 11 12  2  0
 12 13  1  0
 13 14  2  0
 14 15  1  0
 15 16  2  0
 16 17  1  0
 16 18  1  0
 18 19  2  0
 19 20  1  0
 20 21  2  0
 21 22  1  0
 22 23  1  0
 23 24  1  0
 22 25  2  0
 25  9  1  0
 15 10  1  0
 25 18  1  0
  1 26  1  0
  1 27  1  0
  1 28  1  0
  2 29  1  0
  2 30  1  0
  3 31  1  0
  4 32  1  0
  4 33  1  0
  5 34  1  0
  5 35  1  0
  6 36  1  0
  6 37  1  0
  7 38  1  0
  7 39  1  0
  8 40  1  0
  8 41  1  0
 11 42  1  0
 12 43  1  0
 13 44  1  0
 14 45  1  0
 17 46  1  0
 17 47  1  0
 17 48  1  0
 19 49  1  0
 20 50  1  0
 21 51  1  0
 24 52  1  0
 24 53  1  0
 24 54  1  0
M  CHG  2   8   1  16   1
M  END
>  <UniqueID>  (20) 
20

>  <SMILES>  (20) 
CCNCCCC[NH2+]c1c2ccccc2[n+](C)c2cccc(SC)c12

>  <Energy>  (20) 
90.55264276559944

>  <Genealogy>  (20) 
CCNCCCC[NH2+]c1c2ccccc2[n+](C)c2cccc(SC)c12 (protonated)
CCNCCCC[NH2+]c1c2ccccc2[n+](C)c2cccc(SC)c12 (3D coordinates assigned)
CCNCCCC[NH2+]c1c2ccccc2[n+](C)c2cccc(SC)c12 (optimized conformer: 90.55264276559944 kcal/mol)

>  <smiles>  (20) 
CCNCCCCNc1c2ccccc2[n+](C)c2cccc(SC)c12

>  <score_type>  (20) 
oracle

>  <origin>  (20) 
adg

>  <m_score__min__energy>  (20) 
-8.4199999999999999

>  <m_primary>  (20) 
energy

$$$$
20:0
     RDKit          3D

 56 58  0  0  0  0  0  0  0  0999 V2000
   -8.0387   23.7495  -31.1812 H   0  0  0  0  0  0  0  0  0  0  0  0
   -8.0150   22.7250  -31.5810 C   0  0  0  0  0  0  0  0  0  0  0  0
   -9.2080   22.0350  -31.7940 C   0  0  0  0  0  0  0  0  0  0  0  0
  -10.1697   22.5153  -31.5608 H   0  0  0  0  0  0  0  0  0  0  0  0
   -9.1830   20.7350  -32.3030 C   0  0  0  0  0  0  0  0  0  0  0  0
  -10.1268   20.1954  -32.4709 H   0  0  0  0  0  0  0  0  0  0  0  0
   -7.9600   20.1120  -32.6020 C   0  0  0  0  0  0  0  0  0  0  0  0
   -6.7440   20.8070  -32.3910 C   0  0  0  0  0  0  0  0  0  0  0  0
   -6.7910   22.1210  -31.8730 C   0  0  0  0  0  0  0  0  0  0  0  0
   -5.8553   22.6723  -31.6985 H   0  0  0  0  0  0  0  0  0  0  0  0
   -5.5220   20.1630  -32.6960 C   0  0  0  0  0  0  0  0  0  0  0  0
   -4.2350   20.8590  -32.4760 C   0  0  0  0  0  0  0  0  0  0  0  0
   -3.5070   20.5170  -31.4520 N   0  0  0  0  0  0  0  0  0  0  0  0
   -3.5340   21.1760  -30.1500 C   0  0  0  0  0  0  0  0  0  0  0  0
   -3.1229   20.4983  -29.3873 H   0  0  0  0  0  0  0  0  0  0  0  0
   -4.5715   21.4334  -29.8905 H   0  0  0  0  0  0  0  0  0  0  0  0
   -2.6910   22.4510  -30.2070 C   0  0  0  0  0  0  0  0  0  0  0  0
   -1.8466   22.2899  -30.8933 H   0  0  0  0  0  0  0  0  0  0  0  0
   -2.3350   22.6729  -29.1901 H   0  0  0  0  0  0  0  0  0  0  0  0
   -3.5110   23.6510  -30.7000 C   0  0  0  0  0  0  0  0  0  0  0  0
   -4.4269   23.2872  -31.1886 H   0  0  0  0  0  0  0  0  0  0  0  0
   -2.9037   24.2276  -31.4133 H   0  0  0  0  0  0  0  0  0  0  0  0
   -3.8800   24.5300  -29.5650 N   0  0  0  0  0  0  0  0  0  0  0  0
   -5.3460   24.5500  -29.3580 C   0  0  0  0  0  0  0  0  0  0  0  0
   -5.5706   25.0423  -28.4003 H   0  0  0  0  0  0  0  0  0  0  0  0
   -5.7200   23.5156  -29.3467 H   0  0  0  0  0  0  0  0  0  0  0  0
   -6.0300   25.3130  -30.4890 C   0  0  0  0  0  0  0  0  0  0  0  0
   -6.7074   26.0686  -30.0644 H   0  0  0  0  0  0  0  0  0  0  0  0
   -5.2691   25.8097  -31.1089 H   0  0  0  0  0  0  0  0  0  0  0  0
   -6.6066   24.6107  -31.1089 H   0  0  0  0  0  0  0  0  0  0  0  0
   -3.1660   24.1400  -28.3280 C   0  0  0  0  0  0  0  0  0  0  0  0
   -2.9949   23.0534  -28.3347 H   0  0  0  0  0  0  0  0  0  0  0  0
   -2.2041   24.6721  -28.2866 H   0  0  0  0  0  0  0  0  0  0  0  0
   -3.9930   24.5120  -27.1010 C   0  0  0  0  0  0  0  0  0  0  0  0
   -3.4311   24.2593  -26.1897 H   0  0  0  0  0  0  0  0  0  0  0  0
   -4.2036   25.5916  -27.1143 H   0  0  0  0  0  0  0  0  0  0  0  0
   -4.9405   23.9534  -27.1143 H   0  0  0  0  0  0  0  0  0  0  0  0
   -3.8040   21.9330  -33.4400 C   0  0  0  0  0  0  0  0  0  0  0  0
   -3.4519   22.8105  -32.8778 H   0  0  0  0  0  0  0  0  0  0  0  0
   -2.9891   21.5520  -34.0731 H   0  0  0  0  0  0  0  0  0  0  0  0
   -4.6562   22.2209  -34.0731 H   0  0  0  0  0  0  0  0  0  0  0  0
   -5.5410   18.8420  -33.2060 C   0  0  0  0  0  0  0  0  0  0  0  0
   -4.3570   18.1520  -33.5480 C   0  0  0  0  0  0  0  0  0  0  0  0
   -3.3839   18.6512  -33.4302 H   0  0  0  0  0  0  0  0  0  0  0  0
   -4.4070   16.8380  -34.0360 C   0  0  0  0  0  0  0  0  0  0  0  0
   -3.1460   16.1280  -34.4300 C   0  0  0  0  0  0  0  0  0  0  0  0
   -2.6003   15.8208  -33.5257 H   0  0  0  0  0  0  0  0  0  0  0  0
   -3.3971   15.2386  -35.0267 H   0  0  0  0  0  0  0  0  0  0  0  0
   -2.5158   16.8039  -35.0267 H   0  0  0  0  0  0  0  0  0  0  0  0
   -5.6470   16.2160  -34.2190 C   0  0  0  0  0  0  0  0  0  0  0  0
   -5.6916   15.1923  -34.6190 H   0  0  0  0  0  0  0  0  0  0  0  0
   -6.8270   16.8870  -33.8970 C   0  0  0  0  0  0  0  0  0  0  0  0
   -7.7960   16.3864  -34.0400 H   0  0  0  0  0  0  0  0  0  0  0  0
   -6.7870   18.1960  -33.3920 C   0  0  0  0  0  0  0  0  0  0  0  0
   -7.9480   18.8400  -33.0900 N   0  0  0  0  0  0  0  0  0  0  0  0
   -8.8590   18.3450  -33.2380 H   0  0  0  0  0  0  0  0  0  0  0  0
  1  2  1  0
  2  3  2  0
  3  4  1  0
  3  5  1  0
  5  6  1  0
  5  7  2  0
  7  8  1  0
  8  9  2  0
  9 10  1  0
  8 11  1  0
 11 12  1  0
 12 13  2  0
 13 14  1  0
 14 15  1  0
 14 16  1  0
 14 17  1  0
 17 18  1  0
 17 19  1  0
 17 20  1  0
 20 21  1  0
 20 22  1  0
 20 23  1  0
 23 24  1  0
 24 25  1  0
 24 26  1  0
 24 27  1  0
 27 28  1  0
 27 29  1  0
 27 30  1  0
 23 31  1  0
 31 32  1  0
 31 33  1  0
 31 34  1  0
 34 35  1  0
 34 36  1  0
 34 37  1  0
 12 38  1  0
 38 39  1  0
 38 40  1  0
 38 41  1  0
 11 42  2  0
 42 43  1  0
 43 44  1  0
 43 45  2  0
 45 46  1  0
 46 47  1  0
 46 48  1  0
 46 49  1  0
 45 50  1  0
 50 51  1  0
 50 52  2  0
 52 53  1  0
 52 54  1  0
 54 55  2  0
 55 56  1  0
  9  2  1  0
 54 42  1  0
 55  7  1  0
M  CHG  1  55   1
M  END
>  <UniqueID>  (21) 
21

>  <SMILES>  (21) 
CCN(CC)CCC/N=C(\C)c1c2ccccc2[nH+]c2ccc(C)cc12

>  <Energy>  (21) 
65.92447763265528

>  <Genealogy>  (21) 
CCN(CC)CCCN=C(C)c1c2ccccc2[nH+]c2ccc(C)cc12 (protonated)
CCN(CC)CCC/N=C(\C)c1c2ccccc2[nH+]c2ccc(C)cc12 (cis-trans isomerization)
CCN(CC)CCC/N=C(\C)c1c2ccccc2[nH+]c2ccc(C)cc12 (3D coordinates assigned)
CCN(CC)CCC/N=C(\C)c1c2ccccc2[nH+]c2ccc(C)cc12 (optimized conformer: 65.92447763265528 kcal/mol)

>  <smiles>  (21) 
CCN(CC)CCCN=C(C)c1c2ccccc2nc2ccc(C)cc12

>  <score_type>  (21) 
oracle

>  <origin>  (21) 
adg

>  <m_score__min__energy>  (21) 
-8.0500000000000007

>  <m_primary>  (21) 
energy

$$$$
21:0
     RDKit          3D

 56 59  0  0  0  0  0  0  0  0999 V2000
   -6.6230   24.0390  -30.9860 C   0  0  0  0  0  0  0  0  0  0  0  0
   -5.1780   24.1420  -31.2400 N   0  0  0  0  0  0  0  0  0  0  0  0
   -4.6430   25.3470  -30.5880 C   0  0  0  0  0  0  0  0  0  0  0  0
   -4.4600   22.9250  -30.7930 C   0  0  0  0  0  0  0  0  0  0  0  0
   -3.8130   22.2190  -31.9900 C   0  0  0  0  0  0  0  0  0  0  0  0
   -4.7740   22.0230  -33.0900 N   0  0  0  0  0  0  0  0  0  0  0  0
   -5.3100   20.6780  -33.0620 C   0  0  0  0  0  0  0  0  0  0  0  0
   -6.6720   20.4250  -32.7170 C   0  0  0  0  0  0  0  0  0  0  0  0
   -7.5130   21.4540  -32.2320 C   0  0  0  0  0  0  0  0  0  0  0  0
   -8.8580   21.2160  -31.9600 C   0  0  0  0  0  0  0  0  0  0  0  0
   -9.4000   19.9560  -32.1670 C   0  0  0  0  0  0  0  0  0  0  0  0
   -8.5970   18.9120  -32.6150 C   0  0  0  0  0  0  0  0  0  0  0  0
   -7.2150   19.1020  -32.8650 C   0  0  0  0  0  0  0  0  0  0  0  0
   -6.4050   18.0490  -33.2570 N   0  0  0  0  0  0  0  0  0  0  0  0
   -6.9220   16.6670  -33.3140 C   0  0  0  0  0  0  0  0  0  0  0  0
   -5.1000   18.3110  -33.5820 C   0  0  0  0  0  0  0  0  0  0  0  0
   -4.2050   17.4150  -34.0640 N   0  0  0  0  0  0  0  0  0  0  0  0
   -3.0560   18.0980  -34.2010 C   0  0  0  0  0  0  0  0  0  0  0  0
   -1.8460   17.5790  -34.6450 C   0  0  0  0  0  0  0  0  0  0  0  0
   -0.7330   18.4280  -34.6890 C   0  0  0  0  0  0  0  0  0  0  0  0
   -0.8240   19.7860  -34.2710 C   0  0  0  0  0  0  0  0  0  0  0  0
    0.3490   20.6520  -34.2950 N   0  0  0  0  0  0  0  0  0  0  0  0
    0.3740   21.8590  -35.1320 C   0  0  0  0  0  0  0  0  0  0  0  0
    1.5290   20.3380  -33.4770 C   0  0  0  0  0  0  0  0  0  0  0  0
   -2.0820   20.2730  -33.8230 C   0  0  0  0  0  0  0  0  0  0  0  0
   -3.1920   19.4150  -33.8240 C   0  0  0  0  0  0  0  0  0  0  0  0
   -4.5330   19.5700  -33.4520 C   0  0  0  0  0  0  0  0  0  0  0  0
   -6.8046   24.0261  -29.9012 H   0  0  0  0  0  0  0  0  0  0  0  0
   -7.1364   24.9028  -31.4334 H   0  0  0  0  0  0  0  0  0  0  0  0
   -7.0087   23.1111  -31.4334 H   0  0  0  0  0  0  0  0  0  0  0  0
   -4.6962   25.2272  -29.4958 H   0  0  0  0  0  0  0  0  0  0  0  0
   -3.5955   25.4930  -30.8903 H   0  0  0  0  0  0  0  0  0  0  0  0
   -5.2372   26.2219  -30.8903 H   0  0  0  0  0  0  0  0  0  0  0  0
   -3.6782   23.2088  -30.0731 H   0  0  0  0  0  0  0  0  0  0  0  0
   -5.1781   22.2398  -30.3189 H   0  0  0  0  0  0  0  0  0  0  0  0
   -2.9740   22.8303  -32.3539 H   0  0  0  0  0  0  0  0  0  0  0  0
   -3.4643   21.2299  -31.6581 H   0  0  0  0  0  0  0  0  0  0  0  0
   -5.5440   22.7260  -33.0310 H   0  0  0  0  0  0  0  0  0  0  0  0
   -4.3380   22.2130  -34.0150 H   0  0  0  0  0  0  0  0  0  0  0  0
   -7.0976   22.4591  -32.0669 H   0  0  0  0  0  0  0  0  0  0  0  0
   -9.4927   22.0300  -31.5797 H   0  0  0  0  0  0  0  0  0  0  0  0
  -10.4692   19.7816  -31.9761 H   0  0  0  0  0  0  0  0  0  0  0  0
   -9.0433   17.9200  -32.7783 H   0  0  0  0  0  0  0  0  0  0  0  0
   -7.0644   16.2863  -32.2918 H   0  0  0  0  0  0  0  0  0  0  0  0
   -7.8846   16.6573  -33.8463 H   0  0  0  0  0  0  0  0  0  0  0  0
   -6.2022   16.0279  -33.8463 H   0  0  0  0  0  0  0  0  0  0  0  0
   -4.3410   16.4110  -34.3120 H   0  0  0  0  0  0  0  0  0  0  0  0
   -1.7642   16.5266  -34.9545 H   0  0  0  0  0  0  0  0  0  0  0  0
    0.2291   18.0385  -35.0532 H   0  0  0  0  0  0  0  0  0  0  0  0
    0.3925   22.7510  -34.4886 H   0  0  0  0  0  0  0  0  0  0  0  0
    1.2721   21.8463  -35.7671 H   0  0  0  0  0  0  0  0  0  0  0  0
   -0.5238   21.8835  -35.7671 H   0  0  0  0  0  0  0  0  0  0  0  0
    1.2656   20.4081  -32.4113 H   0  0  0  0  0  0  0  0  0  0  0  0
    1.8713   19.3175  -33.7037 H   0  0  0  0  0  0  0  0  0  0  0  0
    2.3332   21.0534  -33.7037 H   0  0  0  0  0  0  0  0  0  0  0  0
   -2.1843   21.3127  -33.4788 H   0  0  0  0  0  0  0  0  0  0  0  0
  1  2  1  0
  2  3  1  0
  2  4  1  0
  4  5  1  0
  5  6  1  0
  6  7  1  0
  7  8  2  0
  8  9  1  0
  9 10  2  0
 10 11  1  0
 11 12  2  0
 12 13  1  0
 13 14  2  0
 14 15  1  0
 14 16  1  0
 16 17  1  0
 17 18  1  0
 18 19  2  0
 19 20  1  0
 20 21  2  0
 21 22  1  0
 22 23  1  0
 22 24  1  0
 21 25  1  0
 25 26  2  0
 26 27  1  0
 27  7  1  0
 13  8  1  0
 27 16  2  0
 26 18  1  0
  1 28  1  0
  1 29  1  0
  1 30  1  0
  3 31  1  0
  3 32  1  0
  3 33  1  0
  4 34  1  0
  4 35  1  0
  5 36  1  0
  5 37  1  0
  6 38  1  0
  6 39  1  0
  9 40  1  0
 10 41  1  0
 11 42  1  0
 12 43  1  0
 15 44  1  0
 15 45  1  0
 15 46  1  0
 17 47  1  0
 19 48  1  0
 20 49  1  0
 23 50  1  0
 23 51  1  0
 23 52  1  0
 24 53  1  0
 24 54  1  0
 24 55  1  0
 25 56  1  0
M  CHG  2   6   1  14   1
M  END
>  <UniqueID>  (22) 
22

>  <SMILES>  (22) 
CN(C)CC[NH2+]c1c2ccccc2[n+](C)c2[nH]c3ccc(N(C)C)cc3c12

>  <Energy>  (22) 
117.96182000340276

>  <Genealogy>  (22) 
CN(C)CC[NH2+]c1c2ccccc2[n+](C)c2[nH]c3ccc(N(C)C)cc3c12 (protonated)
CN(C)CC[NH2+]c1c2ccccc2[n+](C)c2[nH]c3ccc(N(C)C)cc3c12 (3D coordinates assigned)
CN(C)CC[NH2+]c1c2ccccc2[n+](C)c2[nH]c3ccc(N(C)C)cc3c12 (optimized conformer: 117.96182000340276 kcal/mol)

>  <smiles>  (22) 
CN(C)CCNc1c2ccccc2[n+](C)c2[nH]c3ccc(N(C)C)cc3c12

>  <score_type>  (22) 
oracle

>  <origin>  (22) 
adg

>  <m_score__min__energy>  (22) 
-8.1400000000000006

>  <m_primary>  (22) 
energy

$$$$
22:0
     RDKit          3D

 28 28  0  0  0  0  0  0  0  0999 V2000
   -2.3710   22.4930  -30.1180 C   0  0  0  0  0  0  0  0  0  0  0  0
   -3.4340   21.9090  -29.1910 C   0  0  0  0  0  0  0  0  0  0  0  0
   -3.5210   22.6440  -27.8410 C   0  0  0  0  0  0  0  0  0  0  0  0
   -3.6870   24.1650  -27.9700 C   0  0  0  0  0  0  0  0  0  0  0  0
   -4.9170   24.4940  -28.6890 N   0  0  0  0  0  0  0  0  0  0  0  0
   -4.9280   24.9350  -30.0550 C   0  0  0  0  0  0  0  0  0  0  0  0
   -3.8600   25.2970  -30.6190 O   0  0  0  0  0  0  0  0  0  0  0  0
   -6.2050   24.9150  -30.8360 C   0  0  0  0  0  0  0  0  0  0  0  0
   -6.4870   23.5200  -31.3020 C   0  0  0  0  0  0  0  0  0  0  0  0
   -5.5330   22.7150  -31.9450 C   0  0  0  0  0  0  0  0  0  0  0  0
   -6.0310   21.4880  -32.3610 C   0  0  0  0  0  0  0  0  0  0  0  0
   -7.6580   21.4170  -31.9450 S   0  0  0  0  0  0  0  0  0  0  0  0
   -7.7470   22.9350  -31.2270 C   0  0  0  0  0  0  0  0  0  0  0  0
   -1.5637   22.9365  -29.5167 H   0  0  0  0  0  0  0  0  0  0  0  0
   -1.9592   21.6945  -30.7526 H   0  0  0  0  0  0  0  0  0  0  0  0
   -2.8241   23.2688  -30.7526 H   0  0  0  0  0  0  0  0  0  0  0  0
   -4.4114   21.9768  -29.6911 H   0  0  0  0  0  0  0  0  0  0  0  0
   -3.1526   20.8664  -28.9816 H   0  0  0  0  0  0  0  0  0  0  0  0
   -4.3837   22.2473  -27.2857 H   0  0  0  0  0  0  0  0  0  0  0  0
   -2.5675   22.4700  -27.3208 H   0  0  0  0  0  0  0  0  0  0  0  0
   -3.7269   24.6100  -26.9648 H   0  0  0  0  0  0  0  0  0  0  0  0
   -2.8315   24.5666  -28.5328 H   0  0  0  0  0  0  0  0  0  0  0  0
   -5.8290   24.2850  -28.2220 H   0  0  0  0  0  0  0  0  0  0  0  0
   -7.0305   25.2614  -30.1968 H   0  0  0  0  0  0  0  0  0  0  0  0
   -6.1106   25.5793  -31.7077 H   0  0  0  0  0  0  0  0  0  0  0  0
   -4.4902   23.0271  -32.1039 H   0  0  0  0  0  0  0  0  0  0  0  0
   -5.4604   20.6995  -32.8736 H   0  0  0  0  0  0  0  0  0  0  0  0
   -8.6437   23.3861  -30.7772 H   0  0  0  0  0  0  0  0  0  0  0  0
  1  2  1  0
  2  3  1  0
  3  4  1  0
  4  5  1  0
  5  6  1  0
  6  7  2  0
  6  8  1  0
  8  9  1  0
  9 10  1  0
 10 11  2  0
 11 12  1  0
 12 13  1  0
 13  9  2  0
  1 14  1  0
  1 15  1  0
  1 16  1  0
  2 17  1  0
  2 18  1  0
  3 19  1  0
  3 20  1  0
  4 21  1  0
  4 22  1  0
  5 23  1  0
  8 24  1  0
  8 25  1  0
 10 26  1  0
 11 27  1  0
 13 28  1  0
M  END
>  <UniqueID>  (23) 
23

>  <SMILES>  (23) 
CCCCNC(=O)Cc1ccsc1

>  <Energy>  (23) 
39.97304096938275

>  <Genealogy>  (23) 
CCCCNC(=O)Cc1ccsc1 (3D coordinates assigned)
CCCCNC(=O)Cc1ccsc1 (optimized conformer: 39.97304096938275 kcal/mol)

>  <smiles>  (23) 
CCCCNC(=O)Cc1ccsc1

>  <score_type>  (23) 
oracle

>  <origin>  (23) 
adg

>  <m_score__min__energy>  (23) 
-5.8300000000000001

>  <m_primary>  (23) 
energy

$$$$
23:0
     RDKit          3D

 42 43  0  0  0  0  0  0  0  0999 V2000
   -5.4740   16.9960  -34.2590 C   0  0  0  0  0  0  0  0  0  0  0  0
   -5.9200   18.2450  -33.5570 C   0  0  0  0  0  0  0  0  0  0  0  0
   -5.0510   19.3320  -33.4390 C   0  0  0  0  0  0  0  0  0  0  0  0
   -5.4610   20.5200  -32.8120 C   0  0  0  0  0  0  0  0  0  0  0  0
   -4.4720   21.6570  -32.7220 C   0  0  0  0  0  0  0  0  0  0  0  0
   -6.7810   20.6240  -32.2920 C   0  0  0  0  0  0  0  0  0  0  0  0
   -7.2440   21.8760  -31.5610 C   0  0  0  0  0  0  0  0  0  0  0  0
   -7.2670   23.0370  -32.4650 N   0  0  0  0  0  0  0  0  0  0  0  0
   -6.4700   24.1760  -31.9720 C   0  0  0  0  0  0  0  0  0  0  0  0
   -6.8660   24.5760  -30.5420 C   0  0  0  0  0  0  0  0  0  0  0  0
   -5.7380   25.2680  -29.7630 C   0  0  0  0  0  0  0  0  0  0  0  0
   -4.5640   24.4060  -29.6550 N   0  0  0  0  0  0  0  0  0  0  0  0
   -4.3980   23.4030  -28.7740 C   0  0  0  0  0  0  0  0  0  0  0  0
   -3.1830   22.8110  -29.0320 C   0  0  0  0  0  0  0  0  0  0  0  0
   -2.4000   21.3320  -28.1180 Br  0  0  0  0  0  0  0  0  0  0  0  0
   -2.6560   23.5080  -30.1000 C   0  0  0  0  0  0  0  0  0  0  0  0
   -3.5190   24.4750  -30.4670 N   0  0  0  0  0  0  0  0  0  0  0  0
   -7.6760   19.5310  -32.4620 C   0  0  0  0  0  0  0  0  0  0  0  0
   -9.1140   19.6000  -32.0040 C   0  0  0  0  0  0  0  0  0  0  0  0
   -7.2320   18.3580  -33.0900 C   0  0  0  0  0  0  0  0  0  0  0  0
   -5.2019   16.2339  -33.5139 H   0  0  0  0  0  0  0  0  0  0  0  0
   -6.2924   16.6172  -34.8888 H   0  0  0  0  0  0  0  0  0  0  0  0
   -4.6008   17.2213  -34.8888 H   0  0  0  0  0  0  0  0  0  0  0  0
   -4.0307   19.2566  -33.8430 H   0  0  0  0  0  0  0  0  0  0  0  0
   -4.2724   21.8865  -31.6649 H   0  0  0  0  0  0  0  0  0  0  0  0
   -3.5338   21.3670  -33.2178 H   0  0  0  0  0  0  0  0  0  0  0  0
   -4.8892   22.5459  -33.2178 H   0  0  0  0  0  0  0  0  0  0  0  0
   -8.2567   21.7079  -31.1657 H   0  0  0  0  0  0  0  0  0  0  0  0
   -6.5399   22.0838  -30.7418 H   0  0  0  0  0  0  0  0  0  0  0  0
   -6.8450   22.7310  -33.3740 H   0  0  0  0  0  0  0  0  0  0  0  0
   -5.4062   23.8963  -31.9814 H   0  0  0  0  0  0  0  0  0  0  0  0
   -6.6597   25.0357  -32.6315 H   0  0  0  0  0  0  0  0  0  0  0  0
   -7.7228   25.2636  -30.5978 H   0  0  0  0  0  0  0  0  0  0  0  0
   -7.1087   23.6484  -30.0029 H   0  0  0  0  0  0  0  0  0  0  0  0
   -5.4564   26.1938  -30.2861 H   0  0  0  0  0  0  0  0  0  0  0  0
   -6.1010   25.4904  -28.7487 H   0  0  0  0  0  0  0  0  0  0  0  0
   -5.1077   23.1084  -27.9869 H   0  0  0  0  0  0  0  0  0  0  0  0
   -1.6852   23.3060  -30.5761 H   0  0  0  0  0  0  0  0  0  0  0  0
   -9.1490   19.6017  -30.9046 H   0  0  0  0  0  0  0  0  0  0  0  0
   -9.5770   20.5214  -32.3870 H   0  0  0  0  0  0  0  0  0  0  0  0
   -9.6631   18.7272  -32.3870 H   0  0  0  0  0  0  0  0  0  0  0  0
   -7.9269   17.5147  -33.2167 H   0  0  0  0  0  0  0  0  0  0  0  0
  1  2  1  0
  2  3  2  0
  3  4  1  0
  4  5  1  0
  4  6  2  0
  6  7  1  0
  7  8  1  0
  8  9  1  0
  9 10  1  0
 10 11  1  0
 11 12  1  0
 12 13  1  0
 13 14  2  0
 14 15  1  0
 14 16  1  0
 16 17  2  0
  6 18  1  0
 18 19  1  0
 18 20  2  0
 20  2  1  0
 17 12  1  0
  1 21  1  0
  1 22  1  0
  1 23  1  0
  3 24  1  0
  5 25  1  0
  5 26  1  0
  5 27  1  0
  7 28  1  0
  7 29  1  0
  8 30  1  0
  9 31  1  0
  9 32  1  0
 10 33  1  0
 10 34  1  0
 11 35  1  0
 11 36  1  0
 13 37  1  0
 16 38  1  0
 19 39  1  0
 19 40  1  0
 19 41  1  0
 20 42  1  0
M  END
>  <UniqueID>  (24) 
24

>  <SMILES>  (24) 
Cc1cc(C)c(CNCCCn2cc(Br)cn2)c(C)c1

>  <Energy>  (24) 
68.86418721370406

>  <Genealogy>  (24) 
Cc1cc(C)c(CNCCCn2cc(Br)cn2)c(C)c1 (3D coordinates assigned)
Cc1cc(C)c(CNCCCn2cc(Br)cn2)c(C)c1 (optimized conformer: 68.86418721370406 kcal/mol)

>  <smiles>  (24) 
Cc1cc(C)c(CNCCCn2cc(Br)cn2)c(C)c1

>  <score_type>  (24) 
oracle

>  <origin>  (24) 
adg

>  <m_score__min__energy>  (24) 
-7.7999999999999998

>  <m_primary>  (24) 
energy

$$$$
24:0
     RDKit          3D

 75 78  0  0  0  0  0  0  0  0999 V2000
   -2.5650   16.5340  -33.7960 C   0  0  0  0  0  0  0  0  0  0  0  0
   -2.1340   17.9550  -33.4110 C   0  0  0  0  0  0  0  0  0  0  0  0
   -3.2120   18.9690  -33.5240 N   0  0  0  0  0  0  0  0  0  0  0  0
   -2.7460   20.3240  -33.9080 C   0  0  0  0  0  0  0  0  0  0  0  0
   -1.2470   20.5240  -33.6580 C   0  0  0  0  0  0  0  0  0  0  0  0
   -4.3320   18.5100  -34.3820 C   0  0  0  0  0  0  0  0  0  0  0  0
   -5.5930   18.2910  -33.5410 C   0  0  0  0  0  0  0  0  0  0  0  0
   -5.3600   18.6250  -32.1260 N   0  0  0  0  0  0  0  0  0  0  0  0
   -5.7530   19.9930  -31.8620 C   0  0  0  0  0  0  0  0  0  0  0  0
   -7.0990   20.4520  -31.9340 C   0  0  0  0  0  0  0  0  0  0  0  0
   -8.1620   19.5760  -32.2480 C   0  0  0  0  0  0  0  0  0  0  0  0
   -9.4760   20.0310  -32.2760 C   0  0  0  0  0  0  0  0  0  0  0  0
   -9.7670   21.3560  -31.9810 C   0  0  0  0  0  0  0  0  0  0  0  0
   -8.7440   22.2490  -31.6660 C   0  0  0  0  0  0  0  0  0  0  0  0
   -7.3900   21.8360  -31.6540 C   0  0  0  0  0  0  0  0  0  0  0  0
   -6.3680   22.7220  -31.3440 N   0  0  0  0  0  0  0  0  0  0  0  0
   -6.5850   24.1770  -31.3060 C   0  0  0  0  0  0  0  0  0  0  0  0
   -5.1200   22.2070  -31.1240 C   0  0  0  0  0  0  0  0  0  0  0  0
   -4.8040   20.8990  -31.4000 C   0  0  0  0  0  0  0  0  0  0  0  0
   -3.5410   20.6460  -31.1340 O   0  0  0  0  0  0  0  0  0  0  0  0
   -3.0180   21.7540  -30.6530 C   0  0  0  0  0  0  0  0  0  0  0  0
   -1.7160   21.9320  -30.1810 C   0  0  0  0  0  0  0  0  0  0  0  0
   -0.6890   20.8450  -30.2920 C   0  0  0  0  0  0  0  0  0  0  0  0
   -1.3800   23.1870  -29.6340 C   0  0  0  0  0  0  0  0  0  0  0  0
   -2.3510   24.2190  -29.5350 C   0  0  0  0  0  0  0  0  0  0  0  0
   -2.0700   25.4640  -28.9520 O   0  0  0  0  0  0  0  0  0  0  0  0
   -0.8540   25.8140  -28.2850 C   0  0  0  0  0  0  0  0  0  0  0  0
   -0.7190   25.0840  -26.9260 C   0  0  0  0  0  0  0  0  0  0  0  0
   -1.2990   25.7930  -25.7400 N   0  0  0  0  0  0  0  0  0  0  0  0
   -2.7750   25.6770  -25.6940 C   0  0  0  0  0  0  0  0  0  0  0  0
   -0.9170   27.2270  -25.7350 C   0  0  0  0  0  0  0  0  0  0  0  0
   -0.7510   25.1620  -24.5140 C   0  0  0  0  0  0  0  0  0  0  0  0
   -3.6520   24.0060  -30.0280 C   0  0  0  0  0  0  0  0  0  0  0  0
   -3.9540   22.7700  -30.6120 C   0  0  0  0  0  0  0  0  0  0  0  0
   -2.7436   15.9453  -32.8841 H   0  0  0  0  0  0  0  0  0  0  0  0
   -3.4897   16.5796  -34.3900 H   0  0  0  0  0  0  0  0  0  0  0  0
   -1.7708   16.0582  -34.3900 H   0  0  0  0  0  0  0  0  0  0  0  0
   -1.7835   17.9387  -32.3685 H   0  0  0  0  0  0  0  0  0  0  0  0
   -1.3468   18.2499  -34.1205 H   0  0  0  0  0  0  0  0  0  0  0  0
   -2.9481   20.4759  -34.9786 H   0  0  0  0  0  0  0  0  0  0  0  0
   -3.2878   21.0517  -33.2859 H   0  0  0  0  0  0  0  0  0  0  0  0
   -1.0561   20.5495  -32.5750 H   0  0  0  0  0  0  0  0  0  0  0  0
   -0.6858   19.6928  -34.1098 H   0  0  0  0  0  0  0  0  0  0  0  0
   -0.9234   21.4733  -34.1098 H   0  0  0  0  0  0  0  0  0  0  0  0
   -4.5359   19.2709  -35.1498 H   0  0  0  0  0  0  0  0  0  0  0  0
   -4.0506   17.5590  -34.8579 H   0  0  0  0  0  0  0  0  0  0  0  0
   -6.3989   18.9298  -33.9314 H   0  0  0  0  0  0  0  0  0  0  0  0
   -5.8712   17.2287  -33.6046 H   0  0  0  0  0  0  0  0  0  0  0  0
   -5.9270   17.9860  -31.5180 H   0  0  0  0  0  0  0  0  0  0  0  0
   -4.3630   18.4690  -31.8610 H   0  0  0  0  0  0  0  0  0  0  0  0
   -7.9477   18.5208  -32.4732 H   0  0  0  0  0  0  0  0  0  0  0  0
  -10.2895   19.3368  -32.5334 H   0  0  0  0  0  0  0  0  0  0  0  0
  -10.8107   21.7031  -31.9959 H   0  0  0  0  0  0  0  0  0  0  0  0
   -8.9931   23.2924  -31.4226 H   0  0  0  0  0  0  0  0  0  0  0  0
   -6.6351   24.5130  -30.2598 H   0  0  0  0  0  0  0  0  0  0  0  0
   -5.7527   24.6853  -31.8149 H   0  0  0  0  0  0  0  0  0  0  0  0
   -7.5294   24.4203  -31.8149 H   0  0  0  0  0  0  0  0  0  0  0  0
   -0.3852   20.5234  -29.2849 H   0  0  0  0  0  0  0  0  0  0  0  0
   -1.1171   19.9903  -30.8363 H   0  0  0  0  0  0  0  0  0  0  0  0
    0.1886   21.2239  -30.8363 H   0  0  0  0  0  0  0  0  0  0  0  0
   -0.3546   23.3691  -29.2799 H   0  0  0  0  0  0  0  0  0  0  0  0
   -0.0033   25.5371  -28.9250 H   0  0  0  0  0  0  0  0  0  0  0  0
   -0.8657   26.8972  -28.0941 H   0  0  0  0  0  0  0  0  0  0  0  0
   -1.2225   24.1101  -27.0155 H   0  0  0  0  0  0  0  0  0  0  0  0
    0.3615   25.0154  -26.7318 H   0  0  0  0  0  0  0  0  0  0  0  0
   -3.1083   25.6508  -24.6460 H   0  0  0  0  0  0  0  0  0  0  0  0
   -3.2268   26.5424  -26.2009 H   0  0  0  0  0  0  0  0  0  0  0  0
   -3.0861   24.7516  -26.2009 H   0  0  0  0  0  0  0  0  0  0  0  0
   -0.8235   27.5779  -24.6967 H   0  0  0  0  0  0  0  0  0  0  0  0
    0.0457   27.3518  -26.2523 H   0  0  0  0  0  0  0  0  0  0  0  0
   -1.6900   27.8142  -26.2523 H   0  0  0  0  0  0  0  0  0  0  0  0
   -1.1775   25.6531  -23.6269 H   0  0  0  0  0  0  0  0  0  0  0  0
   -1.0127   24.0937  -24.5031 H   0  0  0  0  0  0  0  0  0  0  0  0
    0.3435   25.2715  -24.5031 H   0  0  0  0  0  0  0  0  0  0  0  0
   -4.4157   24.7944  -29.9559 H   0  0  0  0  0  0  0  0  0  0  0  0
  1  2  1  0
  2  3  1  0
  3  4  1  0
  4  5  1  0
  3  6  1  0
  6  7  1  0
  7  8  1  0
  8  9  1  0
  9 10  2  0
 10 11  1  0
 11 12  2  0
 12 13  1  0
 13 14  2  0
 14 15  1  0
 15 16  2  0
 16 17  1  0
 16 18  1  0
 18 19  2  0
 19 20  1  0
 20 21  1  0
 21 22  2  0
 22 23  1  0
 22 24  1  0
 24 25  2  0
 25 26  1  0
 26 27  1  0
 27 28  1  0
 28 29  1  0
 29 30  1  0
 29 31  1  0
 29 32  1  0
 25 33  1  0
 33 34  2  0
 19  9  1  0
 34 21  1  0
 15 10  1  0
 34 18  1  0
  1 35  1  0
  1 36  1  0
  1 37  1  0
  2 38  1  0
  2 39  1  0
  4 40  1  0
  4 41  1  0
  5 42  1  0
  5 43  1  0
  5 44  1  0
  6 45  1  0
  6 46  1  0
  7 47  1  0
  7 48  1  0
  8 49  1  0
  8 50  1  0
 11 51  1  0
 12 52  1  0
 13 53  1  0
 14 54  1  0
 17 55  1  0
 17 56  1  0
 17 57  1  0
 23 58  1  0
 23 59  1  0
 23 60  1  0
 24 61  1  0
 27 62  1  0
 27 63  1  0
 28 64  1  0
 28 65  1  0
 30 66  1  0
 30 67  1  0
 30 68  1  0
 31 69  1  0
 31 70  1  0
 31 71  1  0
 32 72  1  0
 32 73  1  0
 32 74  1  0
 33 75  1  0
M  CHG  3   8   1  16   1  29   1
M  END
>  <UniqueID>  (25) 
25

>  <SMILES>  (25) 
CCN(CC)CC[NH2+]c1c2ccccc2[n+](C)c2c1oc1c(C)cc(OCC[N+](C)(C)C)cc12

>  <Energy>  (25) 
144.14962461145174

>  <Genealogy>  (25) 
CCN(CC)CC[NH2+]c1c2ccccc2[n+](C)c2c1oc1c(C)cc(OCC[N+](C)(C)C)cc12 (protonated)
CCN(CC)CC[NH2+]c1c2ccccc2[n+](C)c2c1oc1c(C)cc(OCC[N+](C)(C)C)cc12 (3D coordinates assigned)
CCN(CC)CC[NH2+]c1c2ccccc2[n+](C)c2c1oc1c(C)cc(OCC[N+](C)(C)C)cc12 (optimized conformer: 144.14962461145174 kcal/mol)

>  <smiles>  (25) 
CCN(CC)CCNc1c2ccccc2[n+](C)c2c1oc1c(C)cc(OCC[N+](C)(C)C)cc12

>  <score_type>  (25) 
oracle

>  <origin>  (25) 
adg

>  <m_score__min__energy>  (25) 
-7.0899999999999999

>  <m_primary>  (25) 
energy

$$$$
25:0
     RDKit          3D

 77 81  0  0  0  0  0  0  0  0999 V2000
   -5.7670   16.6820  -31.1430 C   0  0  0  0  0  0  0  0  0  0  0  0
   -6.2070   18.1540  -31.1450 C   0  0  0  0  0  0  0  0  0  0  0  0
   -7.2880   18.5050  -32.1100 N   0  0  0  0  0  0  0  0  0  0  0  0
   -8.5000   19.1270  -31.5100 C   0  0  0  0  0  0  0  0  0  0  0  0
   -8.8970   20.4280  -32.2200 C   0  0  0  0  0  0  0  0  0  0  0  0
   -7.6120   17.4180  -33.0750 C   0  0  0  0  0  0  0  0  0  0  0  0
   -6.6110   17.2190  -34.2370 C   0  0  0  0  0  0  0  0  0  0  0  0
   -6.0560   18.4890  -34.7150 N   0  0  0  0  0  0  0  0  0  0  0  0
   -4.7970   18.9640  -34.2180 C   0  0  0  0  0  0  0  0  0  0  0  0
   -3.5710   18.2880  -34.4390 C   0  0  0  0  0  0  0  0  0  0  0  0
   -3.5400   17.0290  -35.0710 C   0  0  0  0  0  0  0  0  0  0  0  0
   -2.3350   16.3560  -35.2620 C   0  0  0  0  0  0  0  0  0  0  0  0
   -1.1460   16.9080  -34.7990 C   0  0  0  0  0  0  0  0  0  0  0  0
   -1.1440   18.1420  -34.1500 C   0  0  0  0  0  0  0  0  0  0  0  0
   -2.3440   18.8740  -33.9700 C   0  0  0  0  0  0  0  0  0  0  0  0
   -2.3550   20.1100  -33.3350 N   0  0  0  0  0  0  0  0  0  0  0  0
   -1.1180   20.8660  -33.0770 C   0  0  0  0  0  0  0  0  0  0  0  0
   -3.5710   20.6500  -33.0100 C   0  0  0  0  0  0  0  0  0  0  0  0
   -4.7570   20.1250  -33.4650 C   0  0  0  0  0  0  0  0  0  0  0  0
   -5.7840   20.8630  -33.1000 O   0  0  0  0  0  0  0  0  0  0  0  0
   -5.3020   21.8560  -32.3850 C   0  0  0  0  0  0  0  0  0  0  0  0
   -6.0290   22.8720  -31.7760 C   0  0  0  0  0  0  0  0  0  0  0  0
   -5.3300   23.8170  -31.0080 C   0  0  0  0  0  0  0  0  0  0  0  0
   -3.9310   23.7200  -30.8350 C   0  0  0  0  0  0  0  0  0  0  0  0
   -3.2980   24.6760  -30.0280 O   0  0  0  0  0  0  0  0  0  0  0  0
   -3.0920   24.5330  -28.6240 C   0  0  0  0  0  0  0  0  0  0  0  0
   -1.8420   23.6640  -28.3810 C   0  0  0  0  0  0  0  0  0  0  0  0
   -2.1210   22.2310  -28.0430 N   0  0  0  0  0  0  0  0  0  0  0  0
   -3.5920   22.0350  -27.9030 C   0  0  0  0  0  0  0  0  0  0  0  0
   -1.4630   21.9480  -26.7330 C   0  0  0  0  0  0  0  0  0  0  0  0
   -1.5290   20.4500  -26.3350 C   0  0  0  0  0  0  0  0  0  0  0  0
   -1.8450   19.5930  -27.4150 O   0  0  0  0  0  0  0  0  0  0  0  0
   -1.1010   19.9570  -28.5540 C   0  0  0  0  0  0  0  0  0  0  0  0
   -1.5590   21.3250  -29.0980 C   0  0  0  0  0  0  0  0  0  0  0  0
   -3.2160   22.6730  -31.4680 C   0  0  0  0  0  0  0  0  0  0  0  0
   -3.9270   21.7770  -32.2740 C   0  0  0  0  0  0  0  0  0  0  0  0
   -5.6624   16.3320  -30.1054 H   0  0  0  0  0  0  0  0  0  0  0  0
   -6.5223   16.0728  -31.6611 H   0  0  0  0  0  0  0  0  0  0  0  0
   -4.8013   16.5873  -31.6611 H   0  0  0  0  0  0  0  0  0  0  0  0
   -6.5631   18.4015  -30.1341 H   0  0  0  0  0  0  0  0  0  0  0  0
   -5.3247   18.7299  -31.4610 H   0  0  0  0  0  0  0  0  0  0  0  0
   -6.8650   19.2450  -32.7230 H   0  0  0  0  0  0  0  0  0  0  0  0
   -9.3356   18.4153  -31.5818 H   0  0  0  0  0  0  0  0  0  0  0  0
   -8.2702   19.3711  -30.4623 H   0  0  0  0  0  0  0  0  0  0  0  0
   -9.1319   21.1979  -31.4703 H   0  0  0  0  0  0  0  0  0  0  0  0
   -8.0628   20.7715  -32.8494 H   0  0  0  0  0  0  0  0  0  0  0  0
   -9.7809   20.2473  -32.8494 H   0  0  0  0  0  0  0  0  0  0  0  0
   -7.6659   16.4742  -32.5125 H   0  0  0  0  0  0  0  0  0  0  0  0
   -8.5590   17.7160  -33.5486 H   0  0  0  0  0  0  0  0  0  0  0  0
   -5.7857   16.5810  -33.8880 H   0  0  0  0  0  0  0  0  0  0  0  0
   -7.1529   16.7521  -35.0726 H   0  0  0  0  0  0  0  0  0  0  0  0
   -6.3660   18.8640  -35.6390 H   0  0  0  0  0  0  0  0  0  0  0  0
   -4.4785   16.5719  -35.4178 H   0  0  0  0  0  0  0  0  0  0  0  0
   -2.3244   15.3858  -35.7803 H   0  0  0  0  0  0  0  0  0  0  0  0
   -0.1995   16.3670  -34.9458 H   0  0  0  0  0  0  0  0  0  0  0  0
   -0.1966   18.5536  -33.7720 H   0  0  0  0  0  0  0  0  0  0  0  0
   -0.9650   20.9595  -31.9917 H   0  0  0  0  0  0  0  0  0  0  0  0
   -0.2641   20.3353  -33.5233 H   0  0  0  0  0  0  0  0  0  0  0  0
   -1.2008   21.8680  -33.5233 H   0  0  0  0  0  0  0  0  0  0  0  0
   -7.1211   22.9340  -31.8924 H   0  0  0  0  0  0  0  0  0  0  0  0
   -5.8791   24.6442  -30.5345 H   0  0  0  0  0  0  0  0  0  0  0  0
   -2.9446   25.5245  -28.1709 H   0  0  0  0  0  0  0  0  0  0  0  0
   -3.9704   24.0524  -28.1686 H   0  0  0  0  0  0  0  0  0  0  0  0
   -1.2289   23.6858  -29.2940 H   0  0  0  0  0  0  0  0  0  0  0  0
   -1.3359   24.0932  -27.5037 H   0  0  0  0  0  0  0  0  0  0  0  0
   -3.8573   21.9997  -26.8361 H   0  0  0  0  0  0  0  0  0  0  0  0
   -4.1207   22.8706  -28.3848 H   0  0  0  0  0  0  0  0  0  0  0  0
   -3.8835   21.0901  -28.3848 H   0  0  0  0  0  0  0  0  0  0  0  0
   -0.4066   22.2473  -26.7990 H   0  0  0  0  0  0  0  0  0  0  0  0
   -2.0028   22.5182  -25.9626 H   0  0  0  0  0  0  0  0  0  0  0  0
   -0.5500   20.1537  -25.9303 H   0  0  0  0  0  0  0  0  0  0  0  0
   -2.3351   20.3472  -25.5936 H   0  0  0  0  0  0  0  0  0  0  0  0
   -0.0360   20.0150  -28.2848 H   0  0  0  0  0  0  0  0  0  0  0  0
   -1.2600   19.1981  -29.3342 H   0  0  0  0  0  0  0  0  0  0  0  0
   -0.6939   21.8232  -29.5600 H   0  0  0  0  0  0  0  0  0  0  0  0
   -2.3649   21.1320  -29.8214 H   0  0  0  0  0  0  0  0  0  0  0  0
   -2.1299   22.5673  -31.3293 H   0  0  0  0  0  0  0  0  0  0  0  0
  1  2  1  0
  2  3  1  0
  3  4  1  0
  4  5  1  0
  3  6  1  0
  6  7  1  0
  7  8  1  0
  8  9  1  0
  9 10  2  0
 10 11  1  0
 11 12  2  0
 12 13  1  0
 13 14  2  0
 14 15  1  0
 15 16  2  0
 16 17  1  0
 16 18  1  0
 18 19  2  0
 19 20  1  0
 20 21  1  0
 21 22  2  0
 22 23  1  0
 23 24  2  0
 24 25  1  0
 25 26  1  0
 26 27  1  0
 27 28  1  0
 28 29  1  0
 28 30  1  0
 30 31  1  0
 31 32  1  0
 32 33  1  0
 33 34  1  0
 24 35  1  0
 35 36  2  0
 19  9  1  0
 36 21  1  0
 15 10  1  0
 36 18  1  0
 34 28  1  0
  1 37  1  0
  1 38  1  0
  1 39  1  0
  2 40  1  0
  2 41  1  0
  3 42  1  0
  4 43  1  0
  4 44  1  0
  5 45  1  0
  5 46  1  0
  5 47  1  0
  6 48  1  0
  6 49  1  0
  7 50  1  0
  7 51  1  0
  8 52  1  0
 11 53  1  0
 12 54  1  0
 13 55  1  0
 14 56  1  0
 17 57  1  0
 17 58  1  0
 17 59  1  0
 22 60  1  0
 23 61  1  0
 26 62  1  0
 26 63  1  0
 27 64  1  0
 27 65  1  0
 29 66  1  0
 29 67  1  0
 29 68  1  0
 30 69  1  0
 30 70  1  0
 31 71  1  0
 31 72  1  0
 33 73  1  0
 33 74  1  0
 34 75  1  0
 34 76  1  0
 35 77  1  0
M  CHG  3   3   1  16   1  28   1
M  END
>  <UniqueID>  (26) 
26

>  <SMILES>  (26) 
CC[NH+](CC)CCNc1c2ccccc2[n+](C)c2c1oc1ccc(OCC[N+]3(C)CCOCC3)cc12

>  <Energy>  (26) 
169.81871232861857

>  <Genealogy>  (26) 
CC[NH+](CC)CCNc1c2ccccc2[n+](C)c2c1oc1ccc(OCC[N+]3(C)CCOCC3)cc12 (protonated)
CC[NH+](CC)CCNc1c2ccccc2[n+](C)c2c1oc1ccc(OCC[N+]3(C)CCOCC3)cc12 (3D coordinates assigned)
CC[NH+](CC)CCNc1c2ccccc2[n+](C)c2c1oc1ccc(OCC[N+]3(C)CCOCC3)cc12 (nonaromatic ring conformer: 169.81871232861857 kcal/mol)

>  <smiles>  (26) 
CCN(CC)CCNc1c2ccccc2[n+](C)c2c1oc1ccc(OCC[N+]3(C)CCOCC3)cc12

>  <score_type>  (26) 
oracle

>  <origin>  (26) 
adg

>  <m_score__min__energy>  (26) 
-7.9299999999999997

>  <m_primary>  (26) 
energy

$$$$
26:0
     RDKit          3D

 60 63  0  0  0  0  0  0  0  0999 V2000
   -8.4340   21.5500  -30.9050 C   0  0  0  0  0  0  0  0  0  0  0  0
   -8.5950   20.5170  -32.0140 C   0  0  0  0  0  0  0  0  0  0  0  0
   -7.2940   19.8610  -32.2770 N   0  0  0  0  0  0  0  0  0  0  0  0
   -7.3920   18.3850  -32.2590 C   0  0  0  0  0  0  0  0  0  0  0  0
   -6.1790   17.7370  -31.5890 C   0  0  0  0  0  0  0  0  0  0  0  0
   -6.5980   20.4310  -33.4600 C   0  0  0  0  0  0  0  0  0  0  0  0
   -5.0770   20.1620  -33.4960 C   0  0  0  0  0  0  0  0  0  0  0  0
   -4.3260   21.4270  -33.4550 N   0  0  0  0  0  0  0  0  0  0  0  0
   -3.9060   21.7290  -32.0960 C   0  0  0  0  0  0  0  0  0  0  0  0
   -2.8610   20.9930  -31.4750 C   0  0  0  0  0  0  0  0  0  0  0  0
   -2.5110   21.2850  -30.1380 C   0  0  0  0  0  0  0  0  0  0  0  0
   -2.9560   22.4470  -29.5480 N   0  0  0  0  0  0  0  0  0  0  0  0
   -2.2020   23.0470  -28.4280 C   0  0  0  0  0  0  0  0  0  0  0  0
   -4.0550   23.0990  -30.0640 C   0  0  0  0  0  0  0  0  0  0  0  0
   -4.7020   24.1300  -29.3360 C   0  0  0  0  0  0  0  0  0  0  0  0
   -5.8400   24.7660  -29.8360 C   0  0  0  0  0  0  0  0  0  0  0  0
   -6.4790   25.8000  -29.0810 N   0  0  0  0  0  0  0  0  0  0  0  0
   -6.3620   24.3760  -31.0670 C   0  0  0  0  0  0  0  0  0  0  0  0
   -5.7480   23.3680  -31.8040 C   0  0  0  0  0  0  0  0  0  0  0  0
   -4.5770   22.7250  -31.3330 C   0  0  0  0  0  0  0  0  0  0  0  0
   -1.6380   20.2990  -29.4210 C   0  0  0  0  0  0  0  0  0  0  0  0
   -1.7910   20.0590  -28.0420 C   0  0  0  0  0  0  0  0  0  0  0  0
   -0.9790   19.1220  -27.4080 C   0  0  0  0  0  0  0  0  0  0  0  0
   -0.0450   18.4030  -28.1470 C   0  0  0  0  0  0  0  0  0  0  0  0
    0.0360   18.6030  -29.5240 C   0  0  0  0  0  0  0  0  0  0  0  0
   -0.7820   19.5080  -30.1440 N   0  0  0  0  0  0  0  0  0  0  0  0
   -0.7390   19.6440  -31.6030 C   0  0  0  0  0  0  0  0  0  0  0  0
   -2.1570   19.8250  -32.1560 C   0  0  0  0  0  0  0  0  0  0  0  0
   -8.5115   21.0529  -29.9268 H   0  0  0  0  0  0  0  0  0  0  0  0
   -7.4497   22.0330  -30.9939 H   0  0  0  0  0  0  0  0  0  0  0  0
   -9.2246   22.3096  -30.9939 H   0  0  0  0  0  0  0  0  0  0  0  0
   -9.3305   19.7598  -31.7046 H   0  0  0  0  0  0  0  0  0  0  0  0
   -8.9429   21.0169  -32.9300 H   0  0  0  0  0  0  0  0  0  0  0  0
   -8.2987   18.0962  -31.7071 H   0  0  0  0  0  0  0  0  0  0  0  0
   -7.4312   18.0349  -33.3011 H   0  0  0  0  0  0  0  0  0  0  0  0
   -6.2889   17.7957  -30.4961 H   0  0  0  0  0  0  0  0  0  0  0  0
   -6.1111   16.6825  -31.8946 H   0  0  0  0  0  0  0  0  0  0  0  0
   -5.2647   18.2669  -31.8946 H   0  0  0  0  0  0  0  0  0  0  0  0
   -7.0459   19.9959  -34.3655 H   0  0  0  0  0  0  0  0  0  0  0  0
   -6.7227   21.5224  -33.4022 H   0  0  0  0  0  0  0  0  0  0  0  0
   -4.7979   19.5476  -32.6273 H   0  0  0  0  0  0  0  0  0  0  0  0
   -4.8322   19.6344  -34.4297 H   0  0  0  0  0  0  0  0  0  0  0  0
   -4.8990   22.2060  -33.8480 H   0  0  0  0  0  0  0  0  0  0  0  0
   -3.5140   21.3820  -34.1040 H   0  0  0  0  0  0  0  0  0  0  0  0
   -2.6300   22.7064  -27.4737 H   0  0  0  0  0  0  0  0  0  0  0  0
   -1.1480   22.7379  -28.4882 H   0  0  0  0  0  0  0  0  0  0  0  0
   -2.2665   24.1435  -28.4882 H   0  0  0  0  0  0  0  0  0  0  0  0
   -4.2995   24.4344  -28.3586 H   0  0  0  0  0  0  0  0  0  0  0  0
   -6.5330   26.7770  -29.4470 H   0  0  0  0  0  0  0  0  0  0  0  0
   -6.9110   25.5960  -28.1520 H   0  0  0  0  0  0  0  0  0  0  0  0
   -7.2647   24.8676  -31.4588 H   0  0  0  0  0  0  0  0  0  0  0  0
   -6.1796   23.0651  -32.7694 H   0  0  0  0  0  0  0  0  0  0  0  0
   -2.5498   20.6101  -27.4671 H   0  0  0  0  0  0  0  0  0  0  0  0
   -1.0758   18.9508  -26.3257 H   0  0  0  0  0  0  0  0  0  0  0  0
    0.6227   17.6841  -27.6497 H   0  0  0  0  0  0  0  0  0  0  0  0
    0.7632   18.0289  -30.1170 H   0  0  0  0  0  0  0  0  0  0  0  0
   -0.1299   20.5204  -31.8691 H   0  0  0  0  0  0  0  0  0  0  0  0
   -0.2961   18.7354  -32.0369 H   0  0  0  0  0  0  0  0  0  0  0  0
   -2.0999   20.0197  -33.2371 H   0  0  0  0  0  0  0  0  0  0  0  0
   -2.7304   18.9068  -31.9609 H   0  0  0  0  0  0  0  0  0  0  0  0
  1  2  1  0
  2  3  1  0
  3  4  1  0
  4  5  1  0
  3  6  1  0
  6  7  1  0
  7  8  1  0
  8  9  1  0
  9 10  2  0
 10 11  1  0
 11 12  2  0
 12 13  1  0
 12 14  1  0
 14 15  2  0
 15 16  1  0
 16 17  1  0
 16 18  2  0
 18 19  1  0
 19 20  2  0
 11 21  1  0
 21 22  2  0
 22 23  1  0
 23 24  2  0
 24 25  1  0
 25 26  2  0
 26 27  1  0
 27 28  1  0
 20  9  1  0
 26 21  1  0
 28 10  1  0
 20 14  1  0
  1 29  1  0
  1 30  1  0
  1 31  1  0
  2 32  1  0
  2 33  1  0
  4 34  1  0
  4 35  1  0
  5 36  1  0
  5 37  1  0
  5 38  1  0
  6 39  1  0
  6 40  1  0
  7 41  1  0
  7 42  1  0
  8 43  1  0
  8 44  1  0
 13 45  1  0
 13 46  1  0
 13 47  1  0
 15 48  1  0
 17 49  1  0
 17 50  1  0
 18 51  1  0
 19 52  1  0
 22 53  1  0
 23 54  1  0
 24 55  1  0
 25 56  1  0
 27 57  1  0
 27 58  1  0
 28 59  1  0
 28 60  1  0
M  CHG  3   8   1  12   1  26   1
M  END
>  <UniqueID>  (27) 
27

>  <SMILES>  (27) 
CCN(CC)CC[NH2+]c1c2c([n+](C)c3cc(N)ccc13)-c1cccc[n+]1CC2

>  <Energy>  (27) 
95.26410011140071

>  <Genealogy>  (27) 
CCN(CC)CC[NH2+]c1c2c([n+](C)c3cc(N)ccc13)-c1cccc[n+]1CC2 (protonated)
CCN(CC)CC[NH2+]c1c2c([n+](C)c3cc(N)ccc13)-c1cccc[n+]1CC2 (3D coordinates assigned)
CCN(CC)CC[NH2+]c1c2c([n+](C)c3cc(N)ccc13)-c1cccc[n+]1CC2 (nonaromatic ring conformer: 95.26410011140071 kcal/mol)

>  <smiles>  (27) 
CCN(CC)CCNc1c2c([n+](C)c3cc(N)ccc13)-c1cccc[n+]1CC2

>  <score_type>  (27) 
oracle

>  <origin>  (27) 
adg

>  <m_score__min__energy>  (27) 
-7.4699999999999998

>  <m_primary>  (27) 
energy

$$$$
27:0
     RDKit          3D

 42 43  0  0  0  0  0  0  0  0999 V2000
   -7.6110   22.6640  -30.2270 C   0  0  0  0  0  0  0  0  0  0  0  0
   -8.3960   22.3940  -31.5110 C   0  0  0  0  0  0  0  0  0  0  0  0
   -8.0870   21.0580  -32.0650 N   0  0  0  0  0  0  0  0  0  0  0  0
   -9.0860   20.0020  -31.7690 C   0  0  0  0  0  0  0  0  0  0  0  0
   -8.5740   18.5640  -31.9600 C   0  0  0  0  0  0  0  0  0  0  0  0
   -6.6740   20.6240  -31.9530 C   0  0  0  0  0  0  0  0  0  0  0  0
   -5.6840   21.5000  -32.7350 C   0  0  0  0  0  0  0  0  0  0  0  0
   -3.9610   21.1400  -32.2450 S   0  0  0  0  0  0  0  0  0  0  0  0
   -3.7770   22.5920  -31.1990 C   0  0  0  0  0  0  0  0  0  0  0  0
   -4.3750   23.7660  -31.4700 N   0  0  0  0  0  0  0  0  0  0  0  0
   -4.0450   24.6000  -30.4970 N   0  0  0  0  0  0  0  0  0  0  0  0
   -3.2650   23.9200  -29.6350 C   0  0  0  0  0  0  0  0  0  0  0  0
   -2.6930   24.5510  -28.4320 C   0  0  0  0  0  0  0  0  0  0  0  0
   -3.2150   24.5450  -27.1430 C   0  0  0  0  0  0  0  0  0  0  0  0
   -2.4580   25.2960  -26.2360 C   0  0  0  0  0  0  0  0  0  0  0  0
   -1.3510   25.9110  -26.8040 C   0  0  0  0  0  0  0  0  0  0  0  0
   -1.3210   25.5220  -28.4390 S   0  0  0  0  0  0  0  0  0  0  0  0
   -3.0680   22.6450  -30.0510 N   0  0  0  0  0  0  0  0  0  0  0  0
   -2.2000   21.6020  -29.4910 C   0  0  0  0  0  0  0  0  0  0  0  0
   -2.7560   21.0660  -28.1740 C   0  0  0  0  0  0  0  0  0  0  0  0
   -8.2463   22.4455  -29.3560 H   0  0  0  0  0  0  0  0  0  0  0  0
   -6.7188   22.0211  -30.2006 H   0  0  0  0  0  0  0  0  0  0  0  0
   -7.3031   23.7197  -30.2006 H   0  0  0  0  0  0  0  0  0  0  0  0
   -9.4722   22.4491  -31.2901 H   0  0  0  0  0  0  0  0  0  0  0  0
   -8.1096   23.1510  -32.2560 H   0  0  0  0  0  0  0  0  0  0  0  0
   -9.4060   20.1161  -30.7228 H   0  0  0  0  0  0  0  0  0  0  0  0
   -9.9066   20.1388  -32.4887 H   0  0  0  0  0  0  0  0  0  0  0  0
   -8.4088   18.0999  -30.9765 H   0  0  0  0  0  0  0  0  0  0  0  0
   -9.3197   17.9806  -32.5201 H   0  0  0  0  0  0  0  0  0  0  0  0
   -7.6274   18.5832  -32.5201 H   0  0  0  0  0  0  0  0  0  0  0  0
   -6.3894   20.6454  -30.8907 H   0  0  0  0  0  0  0  0  0  0  0  0
   -6.6170   19.6155  -32.3884 H   0  0  0  0  0  0  0  0  0  0  0  0
   -5.8007   21.3021  -33.8107 H   0  0  0  0  0  0  0  0  0  0  0  0
   -5.8983   22.5555  -32.5115 H   0  0  0  0  0  0  0  0  0  0  0  0
   -4.1313   24.0041  -26.8640 H   0  0  0  0  0  0  0  0  0  0  0  0
   -2.7167   25.3900  -25.1710 H   0  0  0  0  0  0  0  0  0  0  0  0
   -0.6210   26.5425  -26.2765 H   0  0  0  0  0  0  0  0  0  0  0  0
   -2.1240   20.7741  -30.2113 H   0  0  0  0  0  0  0  0  0  0  0  0
   -1.2102   22.0410  -29.2971 H   0  0  0  0  0  0  0  0  0  0  0  0
   -2.2455   21.5582  -27.3331 H   0  0  0  0  0  0  0  0  0  0  0  0
   -3.8349   21.2734  -28.1200 H   0  0  0  0  0  0  0  0  0  0  0  0
   -2.5882   19.9802  -28.1200 H   0  0  0  0  0  0  0  0  0  0  0  0
  1  2  1  0
  2  3  1  0
  3  4  1  0
  4  5  1  0
  3  6  1  0
  6  7  1  0
  7  8  1  0
  8  9  1  0
  9 10  2  0
 10 11  1  0
 11 12  2  0
 12 13  1  0
 13 14  2  0
 14 15  1  0
 15 16  2  0
 16 17  1  0
 12 18  1  0
 18 19  1  0
 19 20  1  0
 18  9  1  0
 17 13  1  0
  1 21  1  0
  1 22  1  0
  1 23  1  0
  2 24  1  0
  2 25  1  0
  4 26  1  0
  4 27  1  0
  5 28  1  0
  5 29  1  0
  5 30  1  0
  6 31  1  0
  6 32  1  0
  7 33  1  0
  7 34  1  0
 14 35  1  0
 15 36  1  0
 16 37  1  0
 19 38  1  0
 19 39  1  0
 20 40  1  0
 20 41  1  0
 20 42  1  0
M  END
>  <UniqueID>  (28) 
28

>  <SMILES>  (28) 
CCN(CC)CCSc1nnc(-c2cccs2)n1CC

>  <Energy>  (28) 
104.32785350642965

>  <Genealogy>  (28) 
CCN(CC)CCSc1nnc(-c2cccs2)n1CC (3D coordinates assigned)
CCN(CC)CCSc1nnc(-c2cccs2)n1CC (optimized conformer: 104.32785350642965 kcal/mol)

>  <smiles>  (28) 
CCN(CC)CCSc1nnc(-c2cccs2)n1CC

>  <score_type>  (28) 
oracle

>  <origin>  (28) 
adg

>  <m_score__min__energy>  (28) 
-7.0899999999999999

>  <m_primary>  (28) 
energy

$$$$
28:0
     RDKit          3D

 52 54  0  0  0  0  0  0  0  0999 V2000
   -8.5640   23.1960  -32.0080 C   0  0  0  0  0  0  0  0  0  0  0  0
   -8.5390   22.3290  -30.7510 C   0  0  0  0  0  0  0  0  0  0  0  0
   -9.0780   20.9080  -30.9930 C   0  0  0  0  0  0  0  0  0  0  0  0
   -9.4590   20.6330  -32.4550 C   0  0  0  0  0  0  0  0  0  0  0  0
   -9.3520   19.2020  -32.7600 N   0  0  0  0  0  0  0  0  0  0  0  0
   -8.7230   18.4870  -31.6440 C   0  0  0  0  0  0  0  0  0  0  0  0
   -7.2250   18.3060  -31.9170 C   0  0  0  0  0  0  0  0  0  0  0  0
   -6.8070   19.0910  -33.0890 N   0  0  0  0  0  0  0  0  0  0  0  0
   -5.3840   19.3880  -33.0200 C   0  0  0  0  0  0  0  0  0  0  0  0
   -4.4390   18.5600  -33.6850 C   0  0  0  0  0  0  0  0  0  0  0  0
   -4.8240   17.3550  -34.3250 C   0  0  0  0  0  0  0  0  0  0  0  0
   -3.9080   16.6040  -35.0560 C   0  0  0  0  0  0  0  0  0  0  0  0
   -2.5950   17.0320  -35.1740 C   0  0  0  0  0  0  0  0  0  0  0  0
   -2.1750   18.1840  -34.5140 C   0  0  0  0  0  0  0  0  0  0  0  0
   -3.0680   18.9400  -33.7110 C   0  0  0  0  0  0  0  0  0  0  0  0
   -2.6300   20.0250  -32.9780 N   0  0  0  0  0  0  0  0  0  0  0  0
   -1.1780   20.2260  -32.7590 C   0  0  0  0  0  0  0  0  0  0  0  0
   -3.5390   20.8870  -32.3970 C   0  0  0  0  0  0  0  0  0  0  0  0
   -3.1290   22.1330  -31.8550 C   0  0  0  0  0  0  0  0  0  0  0  0
   -4.0220   22.9660  -31.1650 C   0  0  0  0  0  0  0  0  0  0  0  0
   -3.5820   24.2200  -30.6070 N   0  0  0  0  0  0  0  0  0  0  0  0
   -4.1550   25.2880  -30.9060 O   0  0  0  0  0  0  0  0  0  0  0  0
   -2.5190   24.2610  -29.7340 O   0  0  0  0  0  0  0  0  0  0  0  0
   -5.3480   22.5570  -31.0180 C   0  0  0  0  0  0  0  0  0  0  0  0
   -5.7920   21.3720  -31.5960 C   0  0  0  0  0  0  0  0  0  0  0  0
   -4.9170   20.5450  -32.3400 C   0  0  0  0  0  0  0  0  0  0  0  0
   -8.5946   24.2574  -31.7208 H   0  0  0  0  0  0  0  0  0  0  0  0
   -7.6599   23.0034  -32.6043 H   0  0  0  0  0  0  0  0  0  0  0  0
   -9.4555   22.9516  -32.6043 H   0  0  0  0  0  0  0  0  0  0  0  0
   -7.5004   22.2548  -30.3964 H   0  0  0  0  0  0  0  0  0  0  0  0
   -9.1924   22.8077  -30.0067 H   0  0  0  0  0  0  0  0  0  0  0  0
   -8.3027   20.1870  -30.6947 H   0  0  0  0  0  0  0  0  0  0  0  0
   -9.9969   20.8069  -30.3968 H   0  0  0  0  0  0  0  0  0  0  0  0
  -10.4947   20.9619  -32.6259 H   0  0  0  0  0  0  0  0  0  0  0  0
   -8.7692   21.1859  -33.1095 H   0  0  0  0  0  0  0  0  0  0  0  0
   -8.7330   19.0990  -33.5990 H   0  0  0  0  0  0  0  0  0  0  0  0
   -8.8575   19.0656  -30.7182 H   0  0  0  0  0  0  0  0  0  0  0  0
   -9.1932   17.4984  -31.5368 H   0  0  0  0  0  0  0  0  0  0  0  0
   -6.6555   18.6407  -31.0374 H   0  0  0  0  0  0  0  0  0  0  0  0
   -7.0302   17.2423  -32.1184 H   0  0  0  0  0  0  0  0  0  0  0  0
   -7.0450   18.5860  -33.9700 H   0  0  0  0  0  0  0  0  0  0  0  0
   -7.3720   19.9660  -33.1640 H   0  0  0  0  0  0  0  0  0  0  0  0
   -5.8644   17.0076  -34.2425 H   0  0  0  0  0  0  0  0  0  0  0  0
   -4.2266   15.6694  -35.5408 H   0  0  0  0  0  0  0  0  0  0  0  0
   -1.8841   16.4612  -35.7895 H   0  0  0  0  0  0  0  0  0  0  0  0
   -1.1309   18.5144  -34.6171 H   0  0  0  0  0  0  0  0  0  0  0  0
   -0.9706   20.2547  -31.6791 H   0  0  0  0  0  0  0  0  0  0  0  0
   -0.6197   19.3966  -33.2177 H   0  0  0  0  0  0  0  0  0  0  0  0
   -0.8660   21.1759  -33.2177 H   0  0  0  0  0  0  0  0  0  0  0  0
   -2.0841   22.4537  -31.9792 H   0  0  0  0  0  0  0  0  0  0  0  0
   -6.0487   23.1773  -30.4398 H   0  0  0  0  0  0  0  0  0  0  0  0
   -6.8431   21.0721  -31.4724 H   0  0  0  0  0  0  0  0  0  0  0  0
  1  2  1  0
  2  3  1  0
  3  4  1  0
  4  5  1  0
  5  6  1  0
  6  7  1  0
  7  8  1  0
  8  9  1  0
  9 10  2  0
 10 11  1  0
 11 12  2  0
 12 13  1  0
 13 14  2  0
 14 15  1  0
 15 16  2  0
 16 17  1  0
 16 18  1  0
 18 19  2  0
 19 20  1  0
 20 21  1  0
 21 22  2  0
 21 23  1  0
 20 24  2  0
 24 25  1  0
 25 26  2  0
 26  9  1  0
 15 10  1  0
 26 18  1  0
  1 27  1  0
  1 28  1  0
  1 29  1  0
  2 30  1  0
  2 31  1  0
  3 32  1  0
  3 33  1  0
  4 34  1  0
  4 35  1  0
  5 36  1  0
  6 37  1  0
  6 38  1  0
  7 39  1  0
  7 40  1  0
  8 41  1  0
  8 42  1  0
 11 43  1  0
 12 44  1  0
 13 45  1  0
 14 46  1  0
 17 47  1  0
 17 48  1  0
 17 49  1  0
 19 50  1  0
 24 51  1  0
 25 52  1  0
M  CHG  4   8   1  16   1  21   1  23  -1
M  END
>  <UniqueID>  (29) 
29

>  <SMILES>  (29) 
CCCCNCC[NH2+]c1c2ccccc2[n+](C)c2cc([N+](=O)[O-])ccc12

>  <Energy>  (29) 
74.35702394029009

>  <Genealogy>  (29) 
CCCCNCC[NH2+]c1c2ccccc2[n+](C)c2cc([N+](=O)[O-])ccc12 (protonated)
CCCCNCC[NH2+]c1c2ccccc2[n+](C)c2cc([N+](=O)[O-])ccc12 (3D coordinates assigned)
CCCCNCC[NH2+]c1c2ccccc2[n+](C)c2cc([N+](=O)[O-])ccc12 (optimized conformer: 74.35702394029009 kcal/mol)

>  <smiles>  (29) 
CCCCNCCNc1c2ccccc2[n+](C)c2cc([N+](=O)[O-])ccc12

>  <score_type>  (29) 
oracle

>  <origin>  (29) 
adg

>  <m_score__min__energy>  (29) 
-8.3300000000000001

>  <m_primary>  (29) 
energy

$$$$
