0:0
     RDKit          3D

 54 56  0  0  0  0  0  0  0  0999 V2000
   -3.2620   24.9190  -26.7030 C   0  0  0  0  0  0  0  0  0  0  0  0
   -4.1710   23.9220  -27.4300 C   0  0  0  0  0  0  0  0  0  0  0  0
   -4.9910   24.5670  -28.4720 N   0  0  0  0  0  0  0  0  0  0  0  0
   -4.8580   23.8900  -29.7740 C   0  0  0  0  0  0  0  0  0  0  0  0
   -3.9730   22.6340  -29.6900 C   0  0  0  0  0  0  0  0  0  0  0  0
   -4.1540   21.6620  -30.8750 C   0  0  0  0  0  0  0  0  0  0  0  0
   -3.8530   22.3070  -32.2370 C   0  0  0  0  0  0  0  0  0  0  0  0
   -4.5680   21.6280  -33.3200 N   0  0  0  0  0  0  0  0  0  0  0  0
   -5.6890   20.7800  -33.0320 C   0  0  0  0  0  0  0  0  0  0  0  0
   -6.8760   21.3560  -32.5480 C   0  0  0  0  0  0  0  0  0  0  0  0
   -6.9610   22.7470  -32.3120 C   0  0  0  0  0  0  0  0  0  0  0  0
   -8.1550   23.3280  -31.8940 C   0  0  0  0  0  0  0  0  0  0  0  0
   -9.2840   22.5390  -31.7120 C   0  0  0  0  0  0  0  0  0  0  0  0
   -9.2170   21.1610  -31.9110 C   0  0  0  0  0  0  0  0  0  0  0  0
   -8.0020   20.5330  -32.2930 C   0  0  0  0  0  0  0  0  0  0  0  0
   -7.9040   19.1640  -32.4330 N   0  0  0  0  0  0  0  0  0  0  0  0
   -8.9700   18.2910  -31.8890 C   0  0  0  0  0  0  0  0  0  0  0  0
   -6.7990   18.6040  -33.0460 C   0  0  0  0  0  0  0  0  0  0  0  0
   -6.7960   17.2480  -33.4540 C   0  0  0  0  0  0  0  0  0  0  0  0
   -5.6650   16.6640  -34.0070 C   0  0  0  0  0  0  0  0  0  0  0  0
   -4.5070   17.4040  -34.1770 C   0  0  0  0  0  0  0  0  0  0  0  0
   -4.4690   18.7660  -33.8340 C   0  0  0  0  0  0  0  0  0  0  0  0
   -3.2860   19.5060  -34.0070 O   0  0  0  0  0  0  0  0  0  0  0  0
   -2.0120   19.1590  -33.4700 C   0  0  0  0  0  0  0  0  0  0  0  0
   -5.6370   19.3910  -33.3030 C   0  0  0  0  0  0  0  0  0  0  0  0
   -3.3760   24.7940  -25.6161 H   0  0  0  0  0  0  0  0  0  0  0  0
   -2.2151   24.7342  -26.9856 H   0  0  0  0  0  0  0  0  0  0  0  0
   -3.5425   25.9444  -26.9856 H   0  0  0  0  0  0  0  0  0  0  0  0
   -3.5441   23.1504  -27.9008 H   0  0  0  0  0  0  0  0  0  0  0  0
   -4.8546   23.4866  -26.6863 H   0  0  0  0  0  0  0  0  0  0  0  0
   -4.6510   25.5510  -28.5730 H   0  0  0  0  0  0  0  0  0  0  0  0
   -5.9940   24.5910  -28.1730 H   0  0  0  0  0  0  0  0  0  0  0  0
   -5.8585   23.5953  -30.1236 H   0  0  0  0  0  0  0  0  0  0  0  0
   -4.3801   24.5930  -30.4722 H   0  0  0  0  0  0  0  0  0  0  0  0
   -2.9207   22.9529  -29.6611 H   0  0  0  0  0  0  0  0  0  0  0  0
   -4.2743   22.0908  -28.7822 H   0  0  0  0  0  0  0  0  0  0  0  0
   -3.4745   20.8085  -30.7343 H   0  0  0  0  0  0  0  0  0  0  0  0
   -5.2093   21.3518  -30.8857 H   0  0  0  0  0  0  0  0  0  0  0  0
   -4.1633   23.3620  -32.2097 H   0  0  0  0  0  0  0  0  0  0  0  0
   -2.7732   22.2223  -32.4289 H   0  0  0  0  0  0  0  0  0  0  0  0
   -4.3030   21.7780  -34.3200 H   0  0  0  0  0  0  0  0  0  0  0  0
   -6.0726   23.3784  -32.4605 H   0  0  0  0  0  0  0  0  0  0  0  0
   -8.2046   24.4110  -31.7079 H   0  0  0  0  0  0  0  0  0  0  0  0
  -10.2342   23.0035  -31.4098 H   0  0  0  0  0  0  0  0  0  0  0  0
  -10.1205   20.5497  -31.7698 H   0  0  0  0  0  0  0  0  0  0  0  0
   -8.9392   18.3162  -30.7897 H   0  0  0  0  0  0  0  0  0  0  0  0
   -9.9502   18.6491  -32.2367 H   0  0  0  0  0  0  0  0  0  0  0  0
   -8.8121   17.2594  -32.2367 H   0  0  0  0  0  0  0  0  0  0  0  0
   -7.7081   16.6457  -33.3302 H   0  0  0  0  0  0  0  0  0  0  0  0
   -5.6886   15.6074  -34.3120 H   0  0  0  0  0  0  0  0  0  0  0  0
   -3.6072   16.9203  -34.5850 H   0  0  0  0  0  0  0  0  0  0  0  0
   -2.0613   19.1724  -32.3712 H   0  0  0  0  0  0  0  0  0  0  0  0
   -1.7318   18.1518  -33.8122 H   0  0  0  0  0  0  0  0  0  0  0  0
   -1.2598   19.8850  -33.8122 H   0  0  0  0  0  0  0  0  0  0  0  0
  1  2  1  0
  2  3  1  0
  3  4  1  0
  4  5  1  0
  5  6  1  0
  6  7  1  0
  7  8  1  0
  8  9  1  0
  9 10  2  0
 10 11  1  0
 11 12  2  0
 12 13  1  0
 13 14  2  0
 14 15  1  0
 15 16  2  0
 16 17  1  0
 16 18  1  0
 18 19  2  0
 19 20  1  0
 20 21  2  0
 21 22  1  0
 22 23  1  0
 23 24  1  0
 22 25  2  0
 25  9  1  0
 15 10  1  0
 25 18  1  0
  1 26  1  0
  1 27  1  0
  1 28  1  0
  2 29  1  0
  2 30  1  0
  3 31  1  0
  3 32  1  0
  4 33  1  0
  4 34  1  0
  5 35  1  0
  5 36  1  0
  6 37  1  0
  6 38  1  0
  7 39  1  0
  7 40  1  0
  8 41  1  0
 11 42  1  0
 12 43  1  0
 13 44  1  0
 14 45  1  0
 17 46  1  0
 17 47  1  0
 17 48  1  0
 19 49  1  0
 20 50  1  0
 21 51  1  0
 24 52  1  0
 24 53  1  0
 24 54  1  0
M  CHG  2   3   1  16   1
M  END
>  <UniqueID>  (1) 
1

>  <SMILES>  (1) 
CC[NH2+]CCCCNc1c2ccccc2[n+](C)c2cccc(OC)c12

>  <Energy>  (1) 
79.35716055466051

>  <Genealogy>  (1) 
CC[NH2+]CCCCNc1c2ccccc2[n+](C)c2cccc(OC)c12 (protonated)
CC[NH2+]CCCCNc1c2ccccc2[n+](C)c2cccc(OC)c12 (3D coordinates assigned)
CC[NH2+]CCCCNc1c2ccccc2[n+](C)c2cccc(OC)c12 (optimized conformer: 79.35716055466051 kcal/mol)

>  <smiles>  (1) 
CCNCCCCNc1c2ccccc2[n+](C)c2cccc(OC)c12

>  <score_type>  (1) 
oracle

>  <origin>  (1) 
adg

>  <m_score__min__energy>  (1) 
-7.54

>  <m_primary>  (1) 
energy

$$$$
1:0
     RDKit          3D

 48 51  0  0  0  0  0  0  0  0999 V2000
   -6.5280   16.0890  -34.1780 C   0  0  0  0  0  0  0  0  0  0  0  0
   -6.1070   16.7410  -32.8490 C   0  0  0  0  0  0  0  0  0  0  0  0
   -6.6080   18.1310  -32.6240 N   0  0  1  0  0  0  0  0  0  0  0  0
   -6.4850   18.9730  -33.8470 C   0  0  0  0  0  0  0  0  0  0  0  0
   -6.9060   20.4340  -33.5440 C   0  0  0  0  0  0  0  0  0  0  0  0
   -7.3780   20.5630  -32.1390 N   0  0  1  0  0  0  0  0  0  0  0  0
   -7.8900   21.9360  -31.8370 C   0  0  0  0  0  0  0  0  0  0  0  0
   -7.0270   23.1200  -32.3520 C   0  0  0  0  0  0  0  0  0  0  0  0
   -6.1410   23.6980  -31.2820 C   0  0  0  0  0  0  0  0  0  0  0  0
   -6.4530   24.7390  -30.4100 C   0  0  0  0  0  0  0  0  0  0  0  0
   -5.4060   25.0070  -29.5990 N   0  0  0  0  0  0  0  0  0  0  0  0
   -4.4300   24.1550  -29.9560 C   0  0  0  0  0  0  0  0  0  0  0  0
   -3.1480   24.0630  -29.4150 C   0  0  0  0  0  0  0  0  0  0  0  0
   -2.2720   23.1060  -29.9580 C   0  0  0  0  0  0  0  0  0  0  0  0
   -2.6890   22.2760  -31.0220 C   0  0  0  0  0  0  0  0  0  0  0  0
   -3.9870   22.3930  -31.5500 C   0  0  0  0  0  0  0  0  0  0  0  0
   -4.8380   23.3440  -30.9850 C   0  0  0  0  0  0  0  0  0  0  0  0
   -8.4950   19.5950  -31.9230 C   0  0  0  0  0  0  0  0  0  0  0  0
   -8.0280   18.1420  -32.1840 C   0  0  0  0  0  0  0  0  0  0  0  0
   -6.2680   20.1820  -31.2240 C   0  0  0  0  0  0  0  0  0  0  0  0
   -5.7840   18.7450  -31.5420 C   0  0  0  0  0  0  0  0  0  0  0  0
   -7.1141   15.1813  -33.9716 H   0  0  0  0  0  0  0  0  0  0  0  0
   -7.1399   16.7970  -34.7561 H   0  0  0  0  0  0  0  0  0  0  0  0
   -5.6309   15.8226  -34.7561 H   0  0  0  0  0  0  0  0  0  0  0  0
   -6.4806   16.1098  -32.0292 H   0  0  0  0  0  0  0  0  0  0  0  0
   -5.0104   16.8189  -32.8863 H   0  0  0  0  0  0  0  0  0  0  0  0
   -5.4403   18.9611  -34.1913 H   0  0  0  0  0  0  0  0  0  0  0  0
   -7.1456   18.5666  -34.6270 H   0  0  0  0  0  0  0  0  0  0  0  0
   -6.0427   21.0981  -33.6976 H   0  0  0  0  0  0  0  0  0  0  0  0
   -7.7269   20.7138  -34.2207 H   0  0  0  0  0  0  0  0  0  0  0  0
   -8.8890   22.0281  -32.2882 H   0  0  0  0  0  0  0  0  0  0  0  0
   -7.8781   22.0192  -30.7402 H   0  0  0  0  0  0  0  0  0  0  0  0
   -6.3946   22.7621  -33.1778 H   0  0  0  0  0  0  0  0  0  0  0  0
   -7.7132   23.9141  -32.6815 H   0  0  0  0  0  0  0  0  0  0  0  0
   -7.4168   25.2686  -30.3853 H   0  0  0  0  0  0  0  0  0  0  0  0
   -5.3630   25.7380  -28.8550 H   0  0  0  0  0  0  0  0  0  0  0  0
   -2.8319   24.7181  -28.5898 H   0  0  0  0  0  0  0  0  0  0  0  0
   -1.2551   23.0032  -29.5513 H   0  0  0  0  0  0  0  0  0  0  0  0
   -1.9938   21.5332  -31.4403 H   0  0  0  0  0  0  0  0  0  0  0  0
   -4.3210   21.7554  -32.3818 H   0  0  0  0  0  0  0  0  0  0  0  0
   -8.8476   19.6785  -30.8844 H   0  0  0  0  0  0  0  0  0  0  0  0
   -9.3068   19.8339  -32.6258 H   0  0  0  0  0  0  0  0  0  0  0  0
   -8.1261   17.5568  -31.2578 H   0  0  0  0  0  0  0  0  0  0  0  0
   -8.6525   17.7005  -32.9747 H   0  0  0  0  0  0  0  0  0  0  0  0
   -5.4317   20.8846  -31.3545 H   0  0  0  0  0  0  0  0  0  0  0  0
   -6.6294   20.2182  -30.1857 H   0  0  0  0  0  0  0  0  0  0  0  0
   -4.7338   18.7827  -31.8669 H   0  0  0  0  0  0  0  0  0  0  0  0
   -5.8844   18.1321  -30.6341 H   0  0  0  0  0  0  0  0  0  0  0  0
  1  2  1  0
  3  2  1  6
  3  4  1  0
  4  5  1  0
  5  6  1  0
  6  7  1  1
  7  8  1  0
  8  9  1  0
  9 10  2  0
 10 11  1  0
 11 12  1  0
 12 13  2  0
 13 14  1  0
 14 15  2  0
 15 16  1  0
 16 17  2  0
  6 18  1  0
 18 19  1  0
  6 20  1  0
 20 21  1  0
 19  3  1  0
 21  3  1  0
 17  9  1  0
 17 12  1  0
  1 22  1  0
  1 23  1  0
  1 24  1  0
  2 25  1  0
  2 26  1  0
  4 27  1  0
  4 28  1  0
  5 29  1  0
  5 30  1  0
  7 31  1  0
  7 32  1  0
  8 33  1  0
  8 34  1  0
 10 35  1  0
 11 36  1  0
 13 37  1  0
 14 38  1  0
 15 39  1  0
 16 40  1  0
 18 41  1  0
 18 42  1  0
 19 43  1  0
 19 44  1  0
 20 45  1  0
 20 46  1  0
 21 47  1  0
 21 48  1  0
M  CHG  2   3   1   6   1
M  END
>  <UniqueID>  (2) 
2

>  <SMILES>  (2) 
CC[N+]12CC[N+](CCc3c[nH]c4ccccc34)(CC1)CC2

>  <Energy>  (2) 
111.60509733527981

>  <Genealogy>  (2) 
CC[N+]12CC[N+](CCc3c[nH]c4ccccc34)(CC1)CC2 (3D coordinates assigned)
CC[N+]12CC[N+](CCc3c[nH]c4ccccc34)(CC1)CC2 (nonaromatic ring conformer: 111.60509733527981 kcal/mol)

>  <smiles>  (2) 
CC[N+]12CC[N+](CCc3c[nH]c4ccccc34)(CC1)CC2

>  <score_type>  (2) 
oracle

>  <origin>  (2) 
adg

>  <m_score__min__energy>  (2) 
-6.5800000000000001

>  <m_primary>  (2) 
energy

$$$$
2:0
     RDKit          3D

 72 75  0  0  0  0  0  0  0  0999 V2000
    0.0920   21.4090  -35.0220 C   0  0  0  0  0  0  0  0  0  0  0  0
   -0.8100   20.4700  -34.2300 C   0  0  0  0  0  0  0  0  0  0  0  0
   -2.0730   21.1470  -33.9030 N   0  0  0  0  0  0  0  0  0  0  0  0
   -2.1450   21.5300  -32.4830 C   0  0  0  0  0  0  0  0  0  0  0  0
   -3.5910   21.7550  -32.0050 C   0  0  0  0  0  0  0  0  0  0  0  0
   -4.5300   21.5740  -33.1120 N   0  0  0  0  0  0  0  0  0  0  0  0
   -5.7000   20.7610  -32.9360 C   0  0  0  0  0  0  0  0  0  0  0  0
   -5.6740   19.4310  -33.3960 C   0  0  0  0  0  0  0  0  0  0  0  0
   -4.5710   18.9440  -34.1320 C   0  0  0  0  0  0  0  0  0  0  0  0
   -4.5180   17.6140  -34.5440 C   0  0  0  0  0  0  0  0  0  0  0  0
   -5.5510   16.7440  -34.2170 C   0  0  0  0  0  0  0  0  0  0  0  0
   -6.6530   17.2060  -33.4990 C   0  0  0  0  0  0  0  0  0  0  0  0
   -6.7550   18.5640  -33.1020 C   0  0  0  0  0  0  0  0  0  0  0  0
   -7.8510   19.0370  -32.4100 N   0  0  0  0  0  0  0  0  0  0  0  0
   -9.0830   18.2220  -32.3340 C   0  0  0  0  0  0  0  0  0  0  0  0
   -7.8160   20.2880  -31.8210 C   0  0  0  0  0  0  0  0  0  0  0  0
   -8.7730   20.6610  -30.8480 C   0  0  0  0  0  0  0  0  0  0  0  0
   -8.7860   21.9380  -30.3080 C   0  0  0  0  0  0  0  0  0  0  0  0
   -7.8870   22.8940  -30.7510 C   0  0  0  0  0  0  0  0  0  0  0  0
   -6.9020   22.5730  -31.7010 C   0  0  0  0  0  0  0  0  0  0  0  0
   -6.1170   23.6390  -32.2800 N   0  0  0  0  0  0  0  0  0  0  0  0
   -5.7550   24.8790  -31.5860 C   0  0  0  0  0  0  0  0  0  0  0  0
   -4.6410   24.6310  -30.5670 C   0  0  0  0  0  0  0  0  0  0  0  0
   -5.1920   24.0570  -29.2570 C   0  0  0  0  0  0  0  0  0  0  0  0
   -4.3670   22.8680  -28.7400 C   0  0  0  0  0  0  0  0  0  0  0  0
   -3.3170   23.3240  -27.7960 N   0  0  0  0  0  0  0  0  0  0  0  0
   -1.9750   23.4480  -28.4370 C   0  0  0  0  0  0  0  0  0  0  0  0
   -1.5620   24.9040  -28.6840 C   0  0  0  0  0  0  0  0  0  0  0  0
   -1.5010   25.6810  -27.3570 C   0  0  0  0  0  0  0  0  0  0  0  0
   -2.5720   25.2180  -26.3500 C   0  0  0  0  0  0  0  0  0  0  0  0
   -3.7490   24.5360  -27.0550 C   0  0  0  0  0  0  0  0  0  0  0  0
   -6.7960   21.2230  -32.1680 C   0  0  0  0  0  0  0  0  0  0  0  0
    0.6824   22.0236  -34.3265 H   0  0  0  0  0  0  0  0  0  0  0  0
    0.7701   20.8184  -35.6556 H   0  0  0  0  0  0  0  0  0  0  0  0
   -0.5254   22.0628  -35.6556 H   0  0  0  0  0  0  0  0  0  0  0  0
   -1.0217   19.5739  -34.8318 H   0  0  0  0  0  0  0  0  0  0  0  0
   -0.3023   20.1807  -33.2980 H   0  0  0  0  0  0  0  0  0  0  0  0
   -2.1730   22.0010  -34.5090 H   0  0  0  0  0  0  0  0  0  0  0  0
   -1.6943   20.7291  -31.8785 H   0  0  0  0  0  0  0  0  0  0  0  0
   -1.6028   22.4798  -32.3654 H   0  0  0  0  0  0  0  0  0  0  0  0
   -3.8258   21.0328  -31.2092 H   0  0  0  0  0  0  0  0  0  0  0  0
   -3.6841   22.7826  -31.6237 H   0  0  0  0  0  0  0  0  0  0  0  0
   -4.2330   21.8090  -34.0870 H   0  0  0  0  0  0  0  0  0  0  0  0
   -3.7432   19.6235  -34.3831 H   0  0  0  0  0  0  0  0  0  0  0  0
   -3.6586   17.2528  -35.1280 H   0  0  0  0  0  0  0  0  0  0  0  0
   -5.4991   15.6893  -34.5251 H   0  0  0  0  0  0  0  0  0  0  0  0
   -7.4583   16.5045  -33.2355 H   0  0  0  0  0  0  0  0  0  0  0  0
   -9.3440   18.0494  -31.2794 H   0  0  0  0  0  0  0  0  0  0  0  0
   -9.9062   18.7543  -32.8330 H   0  0  0  0  0  0  0  0  0  0  0  0
   -8.9151   17.2562  -32.8330 H   0  0  0  0  0  0  0  0  0  0  0  0
   -9.5195   19.9253  -30.5142 H   0  0  0  0  0  0  0  0  0  0  0  0
   -9.5140   22.1931  -29.5238 H   0  0  0  0  0  0  0  0  0  0  0  0
   -7.9446   23.9183  -30.3540 H   0  0  0  0  0  0  0  0  0  0  0  0
   -5.9170   23.6050  -33.3040 H   0  0  0  0  0  0  0  0  0  0  0  0
   -5.4092   25.6170  -32.3247 H   0  0  0  0  0  0  0  0  0  0  0  0
   -6.6410   25.2540  -31.0528 H   0  0  0  0  0  0  0  0  0  0  0  0
   -3.9194   23.9186  -30.9933 H   0  0  0  0  0  0  0  0  0  0  0  0
   -4.1578   25.5938  -30.3444 H   0  0  0  0  0  0  0  0  0  0  0  0
   -5.1842   24.8495  -28.4942 H   0  0  0  0  0  0  0  0  0  0  0  0
   -6.2115   23.6944  -29.4547 H   0  0  0  0  0  0  0  0  0  0  0  0
   -5.0351   22.1635  -28.2229 H   0  0  0  0  0  0  0  0  0  0  0  0
   -3.8813   22.3778  -29.5966 H   0  0  0  0  0  0  0  0  0  0  0  0
   -1.2280   22.9782  -27.7803 H   0  0  0  0  0  0  0  0  0  0  0  0
   -2.0307   22.9507  -29.4166 H   0  0  0  0  0  0  0  0  0  0  0  0
   -0.5706   24.9230  -29.1602 H   0  0  0  0  0  0  0  0  0  0  0  0
   -2.3074   25.3783  -29.3393 H   0  0  0  0  0  0  0  0  0  0  0  0
   -0.5078   25.5338  -26.9077 H   0  0  0  0  0  0  0  0  0  0  0  0
   -1.6910   26.7408  -27.5821 H   0  0  0  0  0  0  0  0  0  0  0  0
   -2.1164   24.5064  -25.6457 H   0  0  0  0  0  0  0  0  0  0  0  0
   -2.9533   26.1036  -25.8206 H   0  0  0  0  0  0  0  0  0  0  0  0
   -4.4963   24.2460  -26.3017 H   0  0  0  0  0  0  0  0  0  0  0  0
   -4.1744   25.2471  -27.7785 H   0  0  0  0  0  0  0  0  0  0  0  0
  1  2  1  0
  2  3  1  0
  3  4  1  0
  4  5  1  0
  5  6  1  0
  6  7  1  0
  7  8  2  0
  8  9  1  0
  9 10  2  0
 10 11  1  0
 11 12  2  0
 12 13  1  0
 13 14  2  0
 14 15  1  0
 14 16  1  0
 16 17  2  0
 17 18  1  0
 18 19  2  0
 19 20  1  0
 20 21  1  0
 21 22  1  0
 22 23  1  0
 23 24  1  0
 24 25  1  0
 25 26  1  0
 26 27  1  0
 27 28  1  0
 28 29  1  0
 29 30  1  0
 30 31  1  0
 20 32  2  0
 32  7  1  0
 13  8  1  0
 32 16  1  0
 31 26  1  0
  1 33  1  0
  1 34  1  0
  1 35  1  0
  2 36  1  0
  2 37  1  0
  3 38  1  0
  4 39  1  0
  4 40  1  0
  5 41  1  0
  5 42  1  0
  6 43  1  0
  9 44  1  0
 10 45  1  0
 11 46  1  0
 12 47  1  0
 15 48  1  0
 15 49  1  0
 15 50  1  0
 17 51  1  0
 18 52  1  0
 19 53  1  0
 21 54  1  0
 22 55  1  0
 22 56  1  0
 23 57  1  0
 23 58  1  0
 24 59  1  0
 24 60  1  0
 25 61  1  0
 25 62  1  0
 27 63  1  0
 27 64  1  0
 28 65  1  0
 28 66  1  0
 29 67  1  0
 29 68  1  0
 30 69  1  0
 30 70  1  0
 31 71  1  0
 31 72  1  0
M  CHG  1  14   1
M  END
>  <UniqueID>  (3) 
3

>  <SMILES>  (3) 
CCNCCNc1c2ccccc2[n+](C)c2cccc(NCCCCN3CCCCC3)c12

>  <Energy>  (3) 
104.94038465846593

>  <Genealogy>  (3) 
CCNCCNc1c2ccccc2[n+](C)c2cccc(NCCCCN3CCCCC3)c12 (3D coordinates assigned)
CCNCCNc1c2ccccc2[n+](C)c2cccc(NCCCCN3CCCCC3)c12 (nonaromatic ring conformer: 104.94038465846593 kcal/mol)

>  <smiles>  (3) 
CCNCCNc1c2ccccc2[n+](C)c2cccc(NCCCCN3CCCCC3)c12

>  <score_type>  (3) 
oracle

>  <origin>  (3) 
adg

>  <m_score__min__energy>  (3) 
-10.16

>  <m_primary>  (3) 
energy

$$$$
3:0
     RDKit          3D

 41 41  0  0  0  0  0  0  0  0999 V2000
   -5.3820   25.2300  -30.8540 C   0  0  0  0  0  0  0  0  0  0  0  0
   -3.9380   25.1130  -30.6350 N   0  0  0  0  0  0  0  0  0  0  0  0
   -3.6190   24.6280  -29.2820 C   0  0  0  0  0  0  0  0  0  0  0  0
   -2.7600   23.3530  -29.3030 C   0  0  0  0  0  0  0  0  0  0  0  0
   -2.8070   22.7310  -30.6300 C   0  0  0  0  0  0  0  0  0  0  0  0
   -2.8460   22.2200  -31.7210 C   0  0  0  0  0  0  0  0  0  0  0  0
   -2.8900   21.5980  -33.0540 C   0  0  0  0  0  0  0  0  0  0  0  0
   -4.2740   21.3270  -33.4780 N   0  0  0  0  0  0  0  0  0  0  0  0
   -4.5660   19.8820  -33.5050 C   0  0  0  0  0  0  0  0  0  0  0  0
   -5.1280   19.3880  -32.1630 C   0  0  0  0  0  0  0  0  0  0  0  0
   -6.6380   19.4390  -32.1290 C   0  0  0  0  0  0  0  0  0  0  0  0
   -7.3590   18.2420  -31.9860 C   0  0  0  0  0  0  0  0  0  0  0  0
   -8.7560   18.2540  -31.9740 C   0  0  0  0  0  0  0  0  0  0  0  0
   -9.4450   19.4580  -32.1140 C   0  0  0  0  0  0  0  0  0  0  0  0
   -8.7420   20.6560  -32.2660 C   0  0  0  0  0  0  0  0  0  0  0  0
   -7.3320   20.6600  -32.2790 C   0  0  0  0  0  0  0  0  0  0  0  0
   -6.6000   21.8470  -32.4450 O   0  0  0  0  0  0  0  0  0  0  0  0
   -7.1470   23.1570  -32.3360 C   0  0  0  0  0  0  0  0  0  0  0  0
   -5.8979   25.2718  -29.8834 H   0  0  0  0  0  0  0  0  0  0  0  0
   -5.5936   26.1482  -31.4215 H   0  0  0  0  0  0  0  0  0  0  0  0
   -5.7386   24.3578  -31.4215 H   0  0  0  0  0  0  0  0  0  0  0  0
   -3.4950   26.0490  -30.7910 H   0  0  0  0  0  0  0  0  0  0  0  0
   -3.0694   25.4152  -28.7451 H   0  0  0  0  0  0  0  0  0  0  0  0
   -4.5676   24.3847  -28.7809 H   0  0  0  0  0  0  0  0  0  0  0  0
   -1.7190   23.6125  -29.0603 H   0  0  0  0  0  0  0  0  0  0  0  0
   -3.1537   22.6434  -28.5605 H   0  0  0  0  0  0  0  0  0  0  0  0
   -2.4200   22.2768  -33.7808 H   0  0  0  0  0  0  0  0  0  0  0  0
   -2.3502   20.6408  -33.0061 H   0  0  0  0  0  0  0  0  0  0  0  0
   -4.3900   21.7160  -34.4430 H   0  0  0  0  0  0  0  0  0  0  0  0
   -4.9430   21.8210  -32.8400 H   0  0  0  0  0  0  0  0  0  0  0  0
   -5.3047   19.6828  -34.2953 H   0  0  0  0  0  0  0  0  0  0  0  0
   -3.6249   19.3467  -33.6993 H   0  0  0  0  0  0  0  0  0  0  0  0
   -4.8040   18.3491  -32.0030 H   0  0  0  0  0  0  0  0  0  0  0  0
   -4.7475   20.0496  -31.3708 H   0  0  0  0  0  0  0  0  0  0  0  0
   -6.8200   17.2887  -31.8828 H   0  0  0  0  0  0  0  0  0  0  0  0
   -9.3127   17.3129  -31.8540 H   0  0  0  0  0  0  0  0  0  0  0  0
  -10.5449   19.4648  -32.1048 H   0  0  0  0  0  0  0  0  0  0  0  0
   -9.2921   21.6022  -32.3762 H   0  0  0  0  0  0  0  0  0  0  0  0
   -7.2573   23.4211  -31.2739 H   0  0  0  0  0  0  0  0  0  0  0  0
   -6.4744   23.8771  -32.8250 H   0  0  0  0  0  0  0  0  0  0  0  0
   -8.1320   23.1849  -32.8250 H   0  0  0  0  0  0  0  0  0  0  0  0
  1  2  1  0
  2  3  1  0
  3  4  1  0
  4  5  1  0
  5  6  3  0
  6  7  1  0
  7  8  1  0
  8  9  1  0
  9 10  1  0
 10 11  1  0
 11 12  2  0
 12 13  1  0
 13 14  2  0
 14 15  1  0
 15 16  2  0
 16 17  1  0
 17 18  1  0
 16 11  1  0
  1 19  1  0
  1 20  1  0
  1 21  1  0
  2 22  1  0
  3 23  1  0
  3 24  1  0
  4 25  1  0
  4 26  1  0
  7 27  1  0
  7 28  1  0
  8 29  1  0
  8 30  1  0
  9 31  1  0
  9 32  1  0
 10 33  1  0
 10 34  1  0
 12 35  1  0
 13 36  1  0
 14 37  1  0
 15 38  1  0
 18 39  1  0
 18 40  1  0
 18 41  1  0
M  CHG  1   8   1
M  END
>  <UniqueID>  (4) 
4

>  <SMILES>  (4) 
CNCCC#CC[NH2+]CCc1ccccc1OC

>  <Energy>  (4) 
29.022943686131992

>  <Genealogy>  (4) 
CNCCC#CC[NH2+]CCc1ccccc1OC (protonated)
CNCCC#CC[NH2+]CCc1ccccc1OC (3D coordinates assigned)
CNCCC#CC[NH2+]CCc1ccccc1OC (optimized conformer: 29.022943686131992 kcal/mol)

>  <smiles>  (4) 
CNCCC#CCNCCc1ccccc1OC

>  <score_type>  (4) 
oracle

>  <origin>  (4) 
adg

>  <m_score__min__energy>  (4) 
-5.8499999999999996

>  <m_primary>  (4) 
energy

$$$$
4:0
     RDKit          3D

 58 61  0  0  0  0  0  0  0  0999 V2000
   -6.4360   25.5980  -29.6430 C   0  0  0  0  0  0  0  0  0  0  0  0
   -5.3840   25.1690  -30.6610 C   0  0  0  0  0  0  0  0  0  0  0  0
   -5.0370   23.6620  -30.6120 C   0  0  0  0  0  0  0  0  0  0  0  0
   -3.5970   23.3170  -30.7390 N   0  0  0  0  0  0  0  0  0  0  0  0
   -2.7260   23.8040  -29.6450 C   0  0  0  0  0  0  0  0  0  0  0  0
   -3.1060   23.1770  -28.2960 C   0  0  0  0  0  0  0  0  0  0  0  0
   -3.8780   24.1640  -27.4230 C   0  0  0  0  0  0  0  0  0  0  0  0
   -3.3540   21.8930  -31.0550 C   0  0  0  0  0  0  0  0  0  0  0  0
   -2.4190   21.7730  -32.2620 C   0  0  0  0  0  0  0  0  0  0  0  0
   -3.1730   21.3920  -33.4540 N   0  0  0  0  0  0  0  0  0  0  0  0
   -4.1900   20.3820  -33.3850 C   0  0  0  0  0  0  0  0  0  0  0  0
   -3.9440   19.0260  -33.6970 C   0  0  0  0  0  0  0  0  0  0  0  0
   -2.7000   18.6220  -34.2190 C   0  0  0  0  0  0  0  0  0  0  0  0
   -2.4690   17.2900  -34.5540 C   0  0  0  0  0  0  0  0  0  0  0  0
   -3.4790   16.3450  -34.4010 C   0  0  0  0  0  0  0  0  0  0  0  0
   -4.7280   16.7180  -33.9010 C   0  0  0  0  0  0  0  0  0  0  0  0
   -4.9880   18.0550  -33.5120 C   0  0  0  0  0  0  0  0  0  0  0  0
   -6.2170   18.4390  -32.9900 N   0  0  0  0  0  0  0  0  0  0  0  0
   -7.2180   17.4550  -32.5440 C   0  0  0  0  0  0  0  0  0  0  0  0
   -6.4590   19.7820  -32.8410 C   0  0  0  0  0  0  0  0  0  0  0  0
   -5.4730   20.7290  -32.9970 C   0  0  0  0  0  0  0  0  0  0  0  0
   -5.9150   21.9370  -32.7180 O   0  0  0  0  0  0  0  0  0  0  0  0
   -7.1850   21.8120  -32.4020 C   0  0  0  0  0  0  0  0  0  0  0  0
   -8.0600   22.8380  -32.0550 C   0  0  0  0  0  0  0  0  0  0  0  0
   -9.3990   22.5040  -31.7960 C   0  0  0  0  0  0  0  0  0  0  0  0
   -9.8370   21.1680  -31.9090 C   0  0  0  0  0  0  0  0  0  0  0  0
   -8.9370   20.1460  -32.2620 C   0  0  0  0  0  0  0  0  0  0  0  0
   -7.5970   20.4940  -32.4720 C   0  0  0  0  0  0  0  0  0  0  0  0
   -6.0480   25.4398  -28.6259 H   0  0  0  0  0  0  0  0  0  0  0  0
   -6.6701   26.6634  -29.7845 H   0  0  0  0  0  0  0  0  0  0  0  0
   -7.3484   25.0001  -29.7845 H   0  0  0  0  0  0  0  0  0  0  0  0
   -5.7605   25.4045  -31.6674 H   0  0  0  0  0  0  0  0  0  0  0  0
   -4.4618   25.7156  -30.4145 H   0  0  0  0  0  0  0  0  0  0  0  0
   -5.3935   23.2664  -29.6495 H   0  0  0  0  0  0  0  0  0  0  0  0
   -5.5253   23.2181  -31.4921 H   0  0  0  0  0  0  0  0  0  0  0  0
   -1.6826   23.5447  -29.8775 H   0  0  0  0  0  0  0  0  0  0  0  0
   -2.8524   24.8938  -29.5648 H   0  0  0  0  0  0  0  0  0  0  0  0
   -3.7333   22.2916  -28.4764 H   0  0  0  0  0  0  0  0  0  0  0  0
   -2.1810   22.8981  -27.7700 H   0  0  0  0  0  0  0  0  0  0  0  0
   -3.6981   23.9340  -26.3625 H   0  0  0  0  0  0  0  0  0  0  0  0
   -3.5385   25.1878  -27.6389 H   0  0  0  0  0  0  0  0  0  0  0  0
   -4.9534   24.0811  -27.6389 H   0  0  0  0  0  0  0  0  0  0  0  0
   -2.8914   21.4015  -30.1864 H   0  0  0  0  0  0  0  0  0  0  0  0
   -4.3126   21.4088  -31.2930 H   0  0  0  0  0  0  0  0  0  0  0  0
   -1.9279   22.7415  -32.4379 H   0  0  0  0  0  0  0  0  0  0  0  0
   -1.6651   20.9994  -32.0541 H   0  0  0  0  0  0  0  0  0  0  0  0
   -3.2430   22.0990  -34.2190 H   0  0  0  0  0  0  0  0  0  0  0  0
   -1.9027   19.3659  -34.3636 H   0  0  0  0  0  0  0  0  0  0  0  0
   -1.4856   16.9842  -34.9405 H   0  0  0  0  0  0  0  0  0  0  0  0
   -3.2919   15.2965  -34.6760 H   0  0  0  0  0  0  0  0  0  0  0  0
   -5.5220   15.9624  -33.8077 H   0  0  0  0  0  0  0  0  0  0  0  0
   -7.2432   17.4302  -31.4446 H   0  0  0  0  0  0  0  0  0  0  0  0
   -8.2088   17.7404  -32.9272 H   0  0  0  0  0  0  0  0  0  0  0  0
   -6.9496   16.4594  -32.9272 H   0  0  0  0  0  0  0  0  0  0  0  0
   -7.7126   23.8794  -31.9858 H   0  0  0  0  0  0  0  0  0  0  0  0
  -10.1112   23.2895  -31.5030 H   0  0  0  0  0  0  0  0  0  0  0  0
  -10.8924   20.9229  -31.7193 H   0  0  0  0  0  0  0  0  0  0  0  0
   -9.2757   19.1050  -32.3698 H   0  0  0  0  0  0  0  0  0  0  0  0
  1  2  1  0
  2  3  1  0
  3  4  1  0
  4  5  1  0
  5  6  1  0
  6  7  1  0
  4  8  1  0
  8  9  1  0
  9 10  1  0
 10 11  1  0
 11 12  2  0
 12 13  1  0
 13 14  2  0
 14 15  1  0
 15 16  2  0
 16 17  1  0
 17 18  2  0
 18 19  1  0
 18 20  1  0
 20 21  2  0
 21 22  1  0
 22 23  1  0
 23 24  2  0
 24 25  1  0
 25 26  2  0
 26 27  1  0
 27 28  2  0
 21 11  1  0
 28 23  1  0
 17 12  1  0
 28 20  1  0
  1 29  1  0
  1 30  1  0
  1 31  1  0
  2 32  1  0
  2 33  1  0
  3 34  1  0
  3 35  1  0
  5 36  1  0
  5 37  1  0
  6 38  1  0
  6 39  1  0
  7 40  1  0
  7 41  1  0
  7 42  1  0
  8 43  1  0
  8 44  1  0
  9 45  1  0
  9 46  1  0
 10 47  1  0
 13 48  1  0
 14 49  1  0
 15 50  1  0
 16 51  1  0
 19 52  1  0
 19 53  1  0
 19 54  1  0
 24 55  1  0
 25 56  1  0
 26 57  1  0
 27 58  1  0
M  CHG  1  18   1
M  END
>  <UniqueID>  (5) 
5

>  <SMILES>  (5) 
CCCN(CCC)CCNc1c2ccccc2[n+](C)c2c1oc1ccccc12

>  <Energy>  (5) 
120.83480054404265

>  <Genealogy>  (5) 
CCCN(CCC)CCNc1c2ccccc2[n+](C)c2c1oc1ccccc12 (3D coordinates assigned)
CCCN(CCC)CCNc1c2ccccc2[n+](C)c2c1oc1ccccc12 (optimized conformer: 120.83480054404265 kcal/mol)

>  <smiles>  (5) 
CCCN(CCC)CCNc1c2ccccc2[n+](C)c2c1oc1ccccc12

>  <score_type>  (5) 
oracle

>  <origin>  (5) 
adg

>  <m_score__min__energy>  (5) 
-8.3800000000000008

>  <m_primary>  (5) 
energy

$$$$
5:0
     RDKit          3D

 60 62  0  0  0  0  0  0  0  0999 V2000
   -3.3560   21.6850  -33.1930 C   0  0  0  0  0  0  0  0  0  0  0  0
   -3.3960   22.1540  -31.7430 C   0  0  0  0  0  0  0  0  0  0  0  0
   -4.7200   22.8130  -31.4280 C   0  0  0  0  0  0  0  0  0  0  0  0
   -4.7540   24.0740  -30.7920 C   0  0  0  0  0  0  0  0  0  0  0  0
   -3.5350   24.6990  -30.4680 O   0  0  0  0  0  0  0  0  0  0  0  0
   -2.5850   24.2330  -29.5090 C   0  0  0  0  0  0  0  0  0  0  0  0
   -3.2590   24.0000  -28.1520 C   0  0  0  0  0  0  0  0  0  0  0  0
   -2.5460   22.8910  -27.3630 C   0  0  0  0  0  0  0  0  0  0  0  0
   -2.3150   21.6850  -28.1880 N   0  0  0  0  0  0  0  0  0  0  0  0
   -2.9350   20.5040  -27.5630 C   0  0  0  0  0  0  0  0  0  0  0  0
   -0.8950   21.4360  -28.5480 C   0  0  0  0  0  0  0  0  0  0  0  0
   -0.6330   21.3010  -30.0550 C   0  0  0  0  0  0  0  0  0  0  0  0
   -5.9970   24.6630  -30.4890 C   0  0  0  0  0  0  0  0  0  0  0  0
   -7.1900   24.0110  -30.8010 C   0  0  0  0  0  0  0  0  0  0  0  0
   -7.1660   22.7480  -31.4110 C   0  0  0  0  0  0  0  0  0  0  0  0
   -8.3450   22.0520  -31.7240 C   0  0  0  0  0  0  0  0  0  0  0  0
   -9.4800   22.5460  -31.4770 O   0  0  0  0  0  0  0  0  0  0  0  0
   -8.2600   20.7940  -32.3190 C   0  0  0  0  0  0  0  0  0  0  0  0
   -6.9960   20.2490  -32.5930 C   0  0  0  0  0  0  0  0  0  0  0  0
   -6.8420   18.8910  -33.2350 C   0  0  0  0  0  0  0  0  0  0  0  0
   -6.4360   17.8300  -32.1870 C   0  0  0  0  0  0  0  0  0  0  0  0
   -5.9790   16.5400  -32.8740 C   0  0  0  0  0  0  0  0  0  0  0  0
   -4.7450   16.7630  -33.7740 C   0  0  0  0  0  0  0  0  0  0  0  0
   -4.5560   18.2270  -34.2150 C   0  0  0  0  0  0  0  0  0  0  0  0
   -5.8970   18.9260  -34.4700 C   0  0  0  0  0  0  0  0  0  0  0  0
   -5.9000   20.9400  -32.2870 O   0  0  0  0  0  0  0  0  0  0  0  0
   -5.9270   22.1450  -31.7200 C   0  0  0  0  0  0  0  0  0  0  0  0
   -3.2626   20.5893  -33.2215 H   0  0  0  0  0  0  0  0  0  0  0  0
   -4.2832   21.9873  -33.7019 H   0  0  0  0  0  0  0  0  0  0  0  0
   -2.4934   22.1399  -33.7019 H   0  0  0  0  0  0  0  0  0  0  0  0
   -3.2577   21.2874  -31.0798 H   0  0  0  0  0  0  0  0  0  0  0  0
   -2.5912   22.8876  -31.5874 H   0  0  0  0  0  0  0  0  0  0  0  0
   -2.1480   23.2876  -29.8628 H   0  0  0  0  0  0  0  0  0  0  0  0
   -1.7994   24.9936  -29.3891 H   0  0  0  0  0  0  0  0  0  0  0  0
   -3.2264   24.9328  -27.5699 H   0  0  0  0  0  0  0  0  0  0  0  0
   -4.2997   23.6898  -28.3276 H   0  0  0  0  0  0  0  0  0  0  0  0
   -1.5758   23.2724  -27.0120 H   0  0  0  0  0  0  0  0  0  0  0  0
   -3.1907   22.6066  -26.5184 H   0  0  0  0  0  0  0  0  0  0  0  0
   -2.8848   20.5996  -26.4683 H   0  0  0  0  0  0  0  0  0  0  0  0
   -3.9868   20.4327  -27.8770 H   0  0  0  0  0  0  0  0  0  0  0  0
   -2.3964   19.5977  -27.8770 H   0  0  0  0  0  0  0  0  0  0  0  0
   -0.2925   22.2745  -28.1685 H   0  0  0  0  0  0  0  0  0  0  0  0
   -0.6229   20.4707  -28.0961 H   0  0  0  0  0  0  0  0  0  0  0  0
    0.3343   20.8026  -30.2158 H   0  0  0  0  0  0  0  0  0  0  0  0
   -1.4342   20.7035  -30.5144 H   0  0  0  0  0  0  0  0  0  0  0  0
   -0.6114   22.3003  -30.5144 H   0  0  0  0  0  0  0  0  0  0  0  0
   -6.0273   25.6483  -30.0008 H   0  0  0  0  0  0  0  0  0  0  0  0
   -8.1530   24.4889  -30.5679 H   0  0  0  0  0  0  0  0  0  0  0  0
   -9.1733   20.2349  -32.5708 H   0  0  0  0  0  0  0  0  0  0  0  0
   -7.8235   18.5903  -33.6301 H   0  0  0  0  0  0  0  0  0  0  0  0
   -5.6122   18.2243  -31.5740 H   0  0  0  0  0  0  0  0  0  0  0  0
   -7.3075   17.6050  -31.5546 H   0  0  0  0  0  0  0  0  0  0  0  0
   -5.7249   15.7987  -32.1021 H   0  0  0  0  0  0  0  0  0  0  0  0
   -6.8027   16.1879  -33.5123 H   0  0  0  0  0  0  0  0  0  0  0  0
   -3.8489   16.4493  -33.2185 H   0  0  0  0  0  0  0  0  0  0  0  0
   -4.9020   16.1701  -34.6871 H   0  0  0  0  0  0  0  0  0  0  0  0
   -4.0170   18.7696  -33.4244 H   0  0  0  0  0  0  0  0  0  0  0  0
   -3.9869   18.2283  -35.1563 H   0  0  0  0  0  0  0  0  0  0  0  0
   -5.7012   19.9761  -34.7325 H   0  0  0  0  0  0  0  0  0  0  0  0
   -6.4003   18.3871  -35.2863 H   0  0  0  0  0  0  0  0  0  0  0  0
  1  2  1  0
  2  3  1  0
  3  4  2  0
  4  5  1  0
  5  6  1  0
  6  7  1  0
  7  8  1  0
  8  9  1  0
  9 10  1  0
  9 11  1  0
 11 12  1  0
  4 13  1  0
 13 14  2  0
 14 15  1  0
 15 16  1  0
 16 17  2  0
 16 18  1  0
 18 19  2  0
 19 20  1  0
 20 21  1  0
 21 22  1  0
 22 23  1  0
 23 24  1  0
 24 25  1  0
 19 26  1  0
 26 27  1  0
 27  3  1  0
 27 15  2  0
 25 20  1  0
  1 28  1  0
  1 29  1  0
  1 30  1  0
  2 31  1  0
  2 32  1  0
  6 33  1  0
  6 34  1  0
  7 35  1  0
  7 36  1  0
  8 37  1  0
  8 38  1  0
 10 39  1  0
 10 40  1  0
 10 41  1  0
 11 42  1  0
 11 43  1  0
 12 44  1  0
 12 45  1  0
 12 46  1  0
 13 47  1  0
 14 48  1  0
 18 49  1  0
 20 50  1  0
 21 51  1  0
 21 52  1  0
 22 53  1  0
 22 54  1  0
 23 55  1  0
 23 56  1  0
 24 57  1  0
 24 58  1  0
 25 59  1  0
 25 60  1  0
M  END
>  <UniqueID>  (6) 
6

>  <SMILES>  (6) 
CCc1c(OCCCN(C)CC)ccc2c(=O)cc(C3CCCCC3)oc12

>  <Energy>  (6) 
64.85783363694487

>  <Genealogy>  (6) 
CCc1c(OCCCN(C)CC)ccc2c(=O)cc(C3CCCCC3)oc12 (3D coordinates assigned)
CCc1c(OCCCN(C)CC)ccc2c(=O)cc(C3CCCCC3)oc12 (nonaromatic ring conformer: 64.85783363694487 kcal/mol)

>  <smiles>  (6) 
CCc1c(OCCCN(C)CC)ccc2c(=O)cc(C3CCCCC3)oc12

>  <score_type>  (6) 
oracle

>  <origin>  (6) 
adg

>  <m_score__min__energy>  (6) 
-9.4399999999999995

>  <m_primary>  (6) 
energy

$$$$
6:0
     RDKit          3D

 42 44  0  0  0  0  0  0  0  0999 V2000
   -6.1380   18.5820  -34.0000 C   0  0  0  0  0  0  0  0  0  0  0  0
   -5.6450   19.9930  -33.6830 C   0  0  0  0  0  0  0  0  0  0  0  0
   -6.6900   20.7730  -32.9980 N   0  0  0  0  0  0  0  0  0  0  0  0
   -7.9610   20.0340  -32.8730 C   0  0  0  0  0  0  0  0  0  0  0  0
   -8.9400   20.6240  -31.8380 C   0  0  0  0  0  0  0  0  0  0  0  0
   -8.9990   22.1530  -31.8610 C   0  0  0  0  0  0  0  0  0  0  0  0
   -7.6870   22.6630  -31.7370 O   0  0  0  0  0  0  0  0  0  0  0  0
   -7.2310   22.5340  -30.4040 C   0  0  0  0  0  0  0  0  0  0  0  0
   -5.8510   23.1260  -30.2590 C   0  0  0  0  0  0  0  0  0  0  0  0
   -5.4130   23.5520  -28.9880 C   0  0  0  0  0  0  0  0  0  0  0  0
   -4.1290   24.0680  -28.9010 C   0  0  0  0  0  0  0  0  0  0  0  0
   -3.3240   24.1510  -30.0100 C   0  0  0  0  0  0  0  0  0  0  0  0
   -3.7310   23.7470  -31.2030 O   0  0  0  0  0  0  0  0  0  0  0  0
   -4.9570   23.2370  -31.3660 C   0  0  0  0  0  0  0  0  0  0  0  0
   -5.3120   22.8550  -32.5120 O   0  0  0  0  0  0  0  0  0  0  0  0
   -2.1470   24.6660  -29.7170 O   0  0  0  0  0  0  0  0  0  0  0  0
   -2.1700   24.9220  -28.4220 C   0  0  0  0  0  0  0  0  0  0  0  0
   -1.1520   25.4730  -27.6470 C   0  0  0  0  0  0  0  0  0  0  0  0
   -1.3970   25.6590  -26.2730 C   0  0  0  0  0  0  0  0  0  0  0  0
   -2.6400   25.2950  -25.7080 C   0  0  0  0  0  0  0  0  0  0  0  0
   -3.6550   24.7390  -26.5090 C   0  0  0  0  0  0  0  0  0  0  0  0
   -3.3820   24.5680  -27.8640 C   0  0  0  0  0  0  0  0  0  0  0  0
   -6.3273   18.0403  -33.0615 H   0  0  0  0  0  0  0  0  0  0  0  0
   -7.0687   18.6412  -34.5833 H   0  0  0  0  0  0  0  0  0  0  0  0
   -5.3729   18.0487  -34.5833 H   0  0  0  0  0  0  0  0  0  0  0  0
   -4.7599   19.9278  -33.0331 H   0  0  0  0  0  0  0  0  0  0  0  0
   -5.3918   20.4974  -34.6272 H   0  0  0  0  0  0  0  0  0  0  0  0
   -6.3630   20.9940  -32.0290 H   0  0  0  0  0  0  0  0  0  0  0  0
   -6.8440   21.6820  -33.4920 H   0  0  0  0  0  0  0  0  0  0  0  0
   -8.4570   20.0335  -33.8548 H   0  0  0  0  0  0  0  0  0  0  0  0
   -7.7042   19.0234  -32.5227 H   0  0  0  0  0  0  0  0  0  0  0  0
   -9.9466   20.2329  -32.0475 H   0  0  0  0  0  0  0  0  0  0  0  0
   -8.5781   20.3276  -30.8424 H   0  0  0  0  0  0  0  0  0  0  0  0
   -9.4386   22.4914  -32.8108 H   0  0  0  0  0  0  0  0  0  0  0  0
   -9.6201   22.5148  -31.0283 H   0  0  0  0  0  0  0  0  0  0  0  0
   -7.9237   23.0613  -29.7316 H   0  0  0  0  0  0  0  0  0  0  0  0
   -7.1896   21.4661  -30.1435 H   0  0  0  0  0  0  0  0  0  0  0  0
   -6.0624   23.4781  -28.1032 H   0  0  0  0  0  0  0  0  0  0  0  0
   -0.1871   25.7539  -28.0944 H   0  0  0  0  0  0  0  0  0  0  0  0
   -0.6135   26.0917  -25.6335 H   0  0  0  0  0  0  0  0  0  0  0  0
   -2.8159   25.4475  -24.6329 H   0  0  0  0  0  0  0  0  0  0  0  0
   -4.6265   24.4506  -26.0813 H   0  0  0  0  0  0  0  0  0  0  0  0
  1  2  1  0
  2  3  1  0
  3  4  1  0
  4  5  1  0
  5  6  1  0
  6  7  1  0
  7  8  1  0
  8  9  1  0
  9 10  2  0
 10 11  1  0
 11 12  2  0
 12 13  1  0
 13 14  1  0
 14 15  2  0
 12 16  1  0
 16 17  1  0
 17 18  2  0
 18 19  1  0
 19 20  2  0
 20 21  1  0
 21 22  2  0
 14  9  1  0
 22 17  1  0
 22 11  1  0
  1 23  1  0
  1 24  1  0
  1 25  1  0
  2 26  1  0
  2 27  1  0
  3 28  1  0
  3 29  1  0
  4 30  1  0
  4 31  1  0
  5 32  1  0
  5 33  1  0
  6 34  1  0
  6 35  1  0
  8 36  1  0
  8 37  1  0
 10 38  1  0
 18 39  1  0
 19 40  1  0
 20 41  1  0
 21 42  1  0
M  CHG  1   3   1
M  END
>  <UniqueID>  (7) 
7

>  <SMILES>  (7) 
CC[NH2+]CCCOCc1cc2c(oc1=O)oc1ccccc12

>  <Energy>  (7) 
86.17660696768809

>  <Genealogy>  (7) 
CC[NH2+]CCCOCc1cc2c(oc1=O)oc1ccccc12 (protonated)
CC[NH2+]CCCOCc1cc2c(oc1=O)oc1ccccc12 (3D coordinates assigned)
CC[NH2+]CCCOCc1cc2c(oc1=O)oc1ccccc12 (optimized conformer: 86.17660696768809 kcal/mol)

>  <smiles>  (7) 
CCNCCCOCc1cc2c(oc1=O)oc1ccccc12

>  <score_type>  (7) 
oracle

>  <origin>  (7) 
adg

>  <m_score__min__energy>  (7) 
-7.7599999999999998

>  <m_primary>  (7) 
energy

$$$$
7:0
     RDKit          3D

 39 41  0  0  0  0  0  0  0  0999 V2000
   -2.9590   22.1060  -29.2440 C   0  0  0  0  0  0  0  0  0  0  0  0
   -2.7820   23.4010  -28.4640 C   0  0  0  0  0  0  0  0  0  0  0  0
   -2.9300   24.5100  -29.3450 O   0  0  0  0  0  0  0  0  0  0  0  0
   -4.1620   24.8730  -29.8990 C   0  0  0  0  0  0  0  0  0  0  0  0
   -4.2210   25.6450  -30.8950 O   0  0  0  0  0  0  0  0  0  0  0  0
   -5.4180   24.2980  -29.3330 C   0  0  0  0  0  0  0  0  0  0  0  0
   -6.8460   24.7190  -30.3930 S   0  0  0  0  0  0  0  0  0  0  0  0
   -7.0760   23.0490  -31.0100 C   0  0  0  0  0  0  0  0  0  0  0  0
   -8.2540   22.3840  -30.8080 N   0  0  0  0  0  0  0  0  0  0  0  0
   -8.4550   21.1190  -31.3040 C   0  0  0  0  0  0  0  0  0  0  0  0
   -7.4740   20.4880  -32.0200 N   0  0  0  0  0  0  0  0  0  0  0  0
   -6.2940   21.1380  -32.1810 C   0  0  0  0  0  0  0  0  0  0  0  0
   -6.0850   22.3890  -31.7190 C   0  0  0  0  0  0  0  0  0  0  0  0
   -4.8850   22.8220  -32.1480 N   0  0  0  0  0  0  0  0  0  0  0  0
   -4.3790   21.8140  -32.8620 N   0  0  0  0  0  0  0  0  0  0  0  0
   -5.2140   20.7770  -32.8950 N   0  0  0  0  0  0  0  0  0  0  0  0
   -4.9440   19.5410  -33.5750 C   0  0  0  0  0  0  0  0  0  0  0  0
   -5.9810   18.8650  -34.2340 C   0  0  0  0  0  0  0  0  0  0  0  0
   -5.7260   17.6720  -34.9120 C   0  0  0  0  0  0  0  0  0  0  0  0
   -4.4300   17.1530  -34.9550 C   0  0  0  0  0  0  0  0  0  0  0  0
   -3.3700   17.8390  -34.3400 C   0  0  0  0  0  0  0  0  0  0  0  0
   -1.9700   17.2820  -34.3580 C   0  0  0  0  0  0  0  0  0  0  0  0
   -1.0800   18.2990  -34.6420 F   0  0  0  0  0  0  0  0  0  0  0  0
   -1.8610   16.3060  -35.3290 F   0  0  0  0  0  0  0  0  0  0  0  0
   -1.6370   16.7160  -33.1380 F   0  0  0  0  0  0  0  0  0  0  0  0
   -3.6390   19.0300  -33.6430 C   0  0  0  0  0  0  0  0  0  0  0  0
   -3.0736   21.2675  -28.5413 H   0  0  0  0  0  0  0  0  0  0  0  0
   -3.8555   22.1789  -29.8772 H   0  0  0  0  0  0  0  0  0  0  0  0
   -2.0758   21.9357  -29.8772 H   0  0  0  0  0  0  0  0  0  0  0  0
   -3.5425   23.4584  -27.6713 H   0  0  0  0  0  0  0  0  0  0  0  0
   -1.7792   23.4228  -28.0124 H   0  0  0  0  0  0  0  0  0  0  0  0
   -5.3210   23.2039  -29.2734 H   0  0  0  0  0  0  0  0  0  0  0  0
   -5.5823   24.7182  -28.3298 H   0  0  0  0  0  0  0  0  0  0  0  0
   -9.4127   20.6087  -31.1242 H   0  0  0  0  0  0  0  0  0  0  0  0
   -7.6510   19.5520  -32.4440 H   0  0  0  0  0  0  0  0  0  0  0  0
   -7.0007   19.2772  -34.2165 H   0  0  0  0  0  0  0  0  0  0  0  0
   -6.5474   17.1394  -35.4135 H   0  0  0  0  0  0  0  0  0  0  0  0
   -4.2385   16.2019  -35.4733 H   0  0  0  0  0  0  0  0  0  0  0  0
   -2.8177   19.5669  -33.1457 H   0  0  0  0  0  0  0  0  0  0  0  0
  1  2  1  0
  2  3  1  0
  3  4  1  0
  4  5  2  0
  4  6  1  0
  6  7  1  0
  7  8  1  0
  8  9  2  0
  9 10  1  0
 10 11  2  0
 11 12  1  0
 12 13  2  0
 13 14  1  0
 14 15  2  0
 15 16  1  0
 16 17  1  0
 17 18  2  0
 18 19  1  0
 19 20  2  0
 20 21  1  0
 21 22  1  0
 22 23  1  0
 22 24  1  0
 22 25  1  0
 21 26  2  0
 13  8  1  0
 26 17  1  0
 16 12  1  0
  1 27  1  0
  1 28  1  0
  1 29  1  0
  2 30  1  0
  2 31  1  0
  6 32  1  0
  6 33  1  0
 10 34  1  0
 11 35  1  0
 18 36  1  0
 19 37  1  0
 20 38  1  0
 26 39  1  0
M  CHG  1  11   1
M  END
>  <UniqueID>  (8) 
8

>  <SMILES>  (8) 
CCOC(=O)CSc1nc[nH+]c2c1nnn2-c1cccc(C(F)(F)F)c1

>  <Energy>  (8) 
83.92872434899202

>  <Genealogy>  (8) 
CCOC(=O)CSc1nc[nH+]c2c1nnn2-c1cccc(C(F)(F)F)c1 (protonated)
CCOC(=O)CSc1nc[nH+]c2c1nnn2-c1cccc(C(F)(F)F)c1 (3D coordinates assigned)
CCOC(=O)CSc1nc[nH+]c2c1nnn2-c1cccc(C(F)(F)F)c1 (optimized conformer: 83.92872434899202 kcal/mol)

>  <smiles>  (8) 
CCOC(=O)CSc1ncnc2c1nnn2-c1cccc(C(F)(F)F)c1

>  <score_type>  (8) 
oracle

>  <origin>  (8) 
adg

>  <m_score__min__energy>  (8) 
-7.5199999999999996

>  <m_primary>  (8) 
energy

$$$$
8:0
     RDKit          3D

 39 41  0  0  0  0  0  0  0  0999 V2000
   -5.9350   25.3240  -29.8750 C   0  0  0  0  0  0  0  0  0  0  0  0
   -4.8110   24.2640  -30.8340 S   0  0  0  0  0  0  0  0  0  0  0  0
   -6.1130   23.1220  -31.3060 C   0  0  0  0  0  0  0  0  0  0  0  0
   -7.4250   23.4180  -31.1360 N   0  0  0  0  0  0  0  0  0  0  0  0
   -8.0450   22.3160  -31.5910 C   0  0  0  0  0  0  0  0  0  0  0  0
   -9.4180   22.0900  -31.6400 C   0  0  0  0  0  0  0  0  0  0  0  0
   -9.8640   20.8590  -32.1460 C   0  0  0  0  0  0  0  0  0  0  0  0
   -8.9370   19.8890  -32.5820 C   0  0  0  0  0  0  0  0  0  0  0  0
   -7.5500   20.1390  -32.5220 C   0  0  0  0  0  0  0  0  0  0  0  0
   -6.6250   19.1310  -32.9490 N   0  0  0  0  0  0  0  0  0  0  0  0
   -6.6670   17.8150  -32.3120 C   0  0  0  0  0  0  0  0  0  0  0  0
   -5.3540   17.0780  -32.5890 C   0  0  0  0  0  0  0  0  0  0  0  0
   -5.0830   16.9230  -34.0400 N   0  0  0  0  0  0  0  0  0  0  0  0
   -3.6350   16.8560  -34.2940 C   0  0  0  0  0  0  0  0  0  0  0  0
   -5.7380   17.9290  -34.9140 C   0  0  0  0  0  0  0  0  0  0  0  0
   -5.9270   19.2910  -34.2300 C   0  0  0  0  0  0  0  0  0  0  0  0
   -7.1360   21.3850  -32.0160 C   0  0  0  0  0  0  0  0  0  0  0  0
   -5.8970   21.8940  -31.8510 N   0  0  0  0  0  0  0  0  0  0  0  0
   -4.6050   21.2640  -32.1190 C   0  0  0  0  0  0  0  0  0  0  0  0
   -5.7637   25.1625  -28.8005 H   0  0  0  0  0  0  0  0  0  0  0  0
   -5.7444   26.3788  -30.1222 H   0  0  0  0  0  0  0  0  0  0  0  0
   -6.9768   25.0720  -30.1222 H   0  0  0  0  0  0  0  0  0  0  0  0
  -10.1310   22.8524  -31.2930 H   0  0  0  0  0  0  0  0  0  0  0  0
  -10.9424   20.6495  -32.2029 H   0  0  0  0  0  0  0  0  0  0  0  0
   -9.2998   18.9270  -32.9731 H   0  0  0  0  0  0  0  0  0  0  0  0
   -6.7988   17.9359  -31.2266 H   0  0  0  0  0  0  0  0  0  0  0  0
   -7.5086   17.2350  -32.7185 H   0  0  0  0  0  0  0  0  0  0  0  0
   -4.5285   17.6457  -32.1349 H   0  0  0  0  0  0  0  0  0  0  0  0
   -5.4391   16.0704  -32.1559 H   0  0  0  0  0  0  0  0  0  0  0  0
   -3.0954   16.8310  -33.3358 H   0  0  0  0  0  0  0  0  0  0  0  0
   -3.4051   15.9463  -34.8680 H   0  0  0  0  0  0  0  0  0  0  0  0
   -3.3221   17.7406  -34.8680 H   0  0  0  0  0  0  0  0  0  0  0  0
   -5.1168   18.0710  -35.8106 H   0  0  0  0  0  0  0  0  0  0  0  0
   -6.7387   17.5454  -35.1621 H   0  0  0  0  0  0  0  0  0  0  0  0
   -4.9416   19.7458  -34.0508 H   0  0  0  0  0  0  0  0  0  0  0  0
   -6.5298   19.9372  -34.8850 H   0  0  0  0  0  0  0  0  0  0  0  0
   -4.1102   21.0227  -31.1667 H   0  0  0  0  0  0  0  0  0  0  0  0
   -4.7601   20.3404  -32.6960 H   0  0  0  0  0  0  0  0  0  0  0  0
   -3.9728   21.9550  -32.6960 H   0  0  0  0  0  0  0  0  0  0  0  0
  1  2  1  0
  2  3  1  0
  3  4  2  0
  4  5  1  0
  5  6  2  0
  6  7  1  0
  7  8  2  0
  8  9  1  0
  9 10  1  0
 10 11  1  0
 11 12  1  0
 12 13  1  0
 13 14  1  0
 13 15  1  0
 15 16  1  0
  9 17  2  0
 17 18  1  0
 18 19  1  0
 18  3  1  0
 17  5  1  0
 16 10  1  0
  1 20  1  0
  1 21  1  0
  1 22  1  0
  6 23  1  0
  7 24  1  0
  8 25  1  0
 11 26  1  0
 11 27  1  0
 12 28  1  0
 12 29  1  0
 14 30  1  0
 14 31  1  0
 14 32  1  0
 15 33  1  0
 15 34  1  0
 16 35  1  0
 16 36  1  0
 19 37  1  0
 19 38  1  0
 19 39  1  0
M  END
>  <UniqueID>  (9) 
9

>  <SMILES>  (9) 
CSc1nc2cccc(N3CCN(C)CC3)c2n1C

>  <Energy>  (9) 
86.05738553116777

>  <Genealogy>  (9) 
CSc1nc2cccc(N3CCN(C)CC3)c2n1C (3D coordinates assigned)
CSc1nc2cccc(N3CCN(C)CC3)c2n1C (nonaromatic ring conformer: 86.05738553116777 kcal/mol)

>  <smiles>  (9) 
CSc1nc2cccc(N3CCN(C)CC3)c2n1C

>  <score_type>  (9) 
oracle

>  <origin>  (9) 
adg

>  <m_score__min__energy>  (9) 
-7.4400000000000004

>  <m_primary>  (9) 
energy

$$$$
9:0
     RDKit          3D

 24 24  0  0  0  0  0  0  0  0999 V2000
   -2.4470   25.2620  -26.3260 C   0  0  0  0  0  0  0  0  0  0  0  0
   -2.8640   24.0620  -27.1600 C   0  0  0  0  0  0  0  0  0  0  0  0
   -3.2720   24.5010  -28.4310 O   0  0  0  0  0  0  0  0  0  0  0  0
   -4.6310   24.4990  -28.4150 N   0  0  0  0  0  0  0  0  0  0  0  0
   -5.1580   24.8960  -30.0160 S   0  0  0  0  0  0  0  0  0  0  0  0
   -3.9710   25.2390  -30.8720 O   0  0  0  0  0  0  0  0  0  0  0  0
   -6.0700   26.0900  -29.9590 O   0  0  0  0  0  0  0  0  0  0  0  0
   -6.0160   23.5220  -30.7080 C   0  0  0  0  0  0  0  0  0  0  0  0
   -5.5170   22.8800  -31.8500 C   0  0  0  0  0  0  0  0  0  0  0  0
   -6.2190   21.8120  -32.4170 C   0  0  0  0  0  0  0  0  0  0  0  0
   -7.4240   21.3840  -31.8510 C   0  0  0  0  0  0  0  0  0  0  0  0
   -8.3060   20.0470  -32.5660 Cl  0  0  0  0  0  0  0  0  0  0  0  0
   -7.9280   22.0290  -30.7160 C   0  0  0  0  0  0  0  0  0  0  0  0
   -7.2290   23.0960  -30.1470 C   0  0  0  0  0  0  0  0  0  0  0  0
   -2.5332   25.0139  -25.2578 H   0  0  0  0  0  0  0  0  0  0  0  0
   -1.4046   25.5255  -26.5583 H   0  0  0  0  0  0  0  0  0  0  0  0
   -3.1014   26.1152  -26.5583 H   0  0  0  0  0  0  0  0  0  0  0  0
   -2.0128   23.3732  -27.2646 H   0  0  0  0  0  0  0  0  0  0  0  0
   -3.6960   23.5396  -26.6651 H   0  0  0  0  0  0  0  0  0  0  0  0
   -4.9260   25.2860  -27.7940 H   0  0  0  0  0  0  0  0  0  0  0  0
   -4.5718   23.2170  -32.3006 H   0  0  0  0  0  0  0  0  0  0  0  0
   -5.8225   21.3073  -33.3103 H   0  0  0  0  0  0  0  0  0  0  0  0
   -8.8768   21.6949  -30.2709 H   0  0  0  0  0  0  0  0  0  0  0  0
   -7.6305   23.6032  -29.2573 H   0  0  0  0  0  0  0  0  0  0  0  0
  1  2  1  0
  2  3  1  0
  3  4  1  0
  4  5  1  0
  5  6  2  0
  5  7  2  0
  5  8  1  0
  8  9  2  0
  9 10  1  0
 10 11  2  0
 11 12  1  0
 11 13  1  0
 13 14  2  0
 14  8  1  0
  1 15  1  0
  1 16  1  0
  1 17  1  0
  2 18  1  0
  2 19  1  0
  4 20  1  0
  9 21  1  0
 10 22  1  0
 13 23  1  0
 14 24  1  0
M  END
>  <UniqueID>  (10) 
10

>  <SMILES>  (10) 
CCONS(=O)(=O)c1ccc(Cl)cc1

>  <Energy>  (10) 
14.567415268380298

>  <Genealogy>  (10) 
CCONS(=O)(=O)c1ccc(Cl)cc1 (3D coordinates assigned)
CCONS(=O)(=O)c1ccc(Cl)cc1 (optimized conformer: 14.567415268380298 kcal/mol)

>  <smiles>  (10) 
CCONS(=O)(=O)c1ccc(Cl)cc1

>  <score_type>  (10) 
oracle

>  <origin>  (10) 
adg

>  <m_score__min__energy>  (10) 
-7.0599999999999996

>  <m_primary>  (10) 
energy

$$$$
10:0
     RDKit          3D

 50 52  0  0  0  0  0  0  0  0999 V2000
   -2.8160   20.6520  -27.8020 C   0  0  0  0  0  0  0  0  0  0  0  0
   -2.6450   22.1620  -27.9470 C   0  0  0  0  0  0  0  0  0  0  0  0
   -3.9730   22.9300  -27.8380 C   0  0  0  0  0  0  0  0  0  0  0  0
   -4.0110   24.2250  -28.6800 C   0  0  0  0  0  0  0  0  0  0  0  0
   -5.3200   24.8930  -28.5860 N   0  0  0  0  0  0  0  0  0  0  0  0
   -5.7290   25.4210  -29.8970 C   0  0  0  0  0  0  0  0  0  0  0  0
   -6.4930   24.3720  -30.7250 C   0  0  0  0  0  0  0  0  0  0  0  0
   -6.1630   23.0050  -30.3120 N   0  0  0  0  0  0  0  0  0  0  0  0
   -6.0470   21.9190  -31.2480 C   0  0  0  0  0  0  0  0  0  0  0  0
   -4.7830   21.5440  -31.7360 C   0  0  0  0  0  0  0  0  0  0  0  0
   -3.6280   22.2790  -31.3960 C   0  0  0  0  0  0  0  0  0  0  0  0
   -2.3820   21.9210  -31.9030 C   0  0  0  0  0  0  0  0  0  0  0  0
   -2.2670   20.8370  -32.7650 C   0  0  0  0  0  0  0  0  0  0  0  0
   -3.3920   20.0850  -33.1030 C   0  0  0  0  0  0  0  0  0  0  0  0
   -4.6680   20.3980  -32.5670 C   0  0  0  0  0  0  0  0  0  0  0  0
   -5.7790   19.6210  -32.8330 N   0  0  0  0  0  0  0  0  0  0  0  0
   -5.6170   18.2720  -33.4210 C   0  0  0  0  0  0  0  0  0  0  0  0
   -7.0420   20.0970  -32.5310 C   0  0  0  0  0  0  0  0  0  0  0  0
   -8.2130   19.4780  -33.0370 C   0  0  0  0  0  0  0  0  0  0  0  0
   -9.4800   19.9620  -32.7140 C   0  0  0  0  0  0  0  0  0  0  0  0
   -9.6150   21.0830  -31.9040 C   0  0  0  0  0  0  0  0  0  0  0  0
   -8.4830   21.7320  -31.4170 C   0  0  0  0  0  0  0  0  0  0  0  0
   -7.1910   21.2500  -31.7160 C   0  0  0  0  0  0  0  0  0  0  0  0
   -2.8460   20.3872  -26.7348 H   0  0  0  0  0  0  0  0  0  0  0  0
   -3.7551   20.3414  -28.2834 H   0  0  0  0  0  0  0  0  0  0  0  0
   -1.9702   20.1393  -28.2834 H   0  0  0  0  0  0  0  0  0  0  0  0
   -1.9692   22.5160  -27.1545 H   0  0  0  0  0  0  0  0  0  0  0  0
   -2.2362   22.3522  -28.9503 H   0  0  0  0  0  0  0  0  0  0  0  0
   -4.7849   22.2703  -28.1782 H   0  0  0  0  0  0  0  0  0  0  0  0
   -4.0878   23.2270  -26.7851 H   0  0  0  0  0  0  0  0  0  0  0  0
   -3.2327   24.9113  -28.3151 H   0  0  0  0  0  0  0  0  0  0  0  0
   -3.8356   23.9571  -29.7324 H   0  0  0  0  0  0  0  0  0  0  0  0
   -6.0310   24.2120  -28.2420 H   0  0  0  0  0  0  0  0  0  0  0  0
   -5.2470   25.6840  -27.9040 H   0  0  0  0  0  0  0  0  0  0  0  0
   -6.3797   26.2941  -29.7415 H   0  0  0  0  0  0  0  0  0  0  0  0
   -4.8203   25.6976  -30.4518 H   0  0  0  0  0  0  0  0  0  0  0  0
   -7.5732   24.5325  -30.5932 H   0  0  0  0  0  0  0  0  0  0  0  0
   -6.2007   24.4901  -31.7789 H   0  0  0  0  0  0  0  0  0  0  0  0
   -6.0550   22.8000  -29.2930 H   0  0  0  0  0  0  0  0  0  0  0  0
   -3.7129   23.1447  -30.7227 H   0  0  0  0  0  0  0  0  0  0  0  0
   -1.4879   22.4965  -31.6212 H   0  0  0  0  0  0  0  0  0  0  0  0
   -1.2847   20.5710  -33.1824 H   0  0  0  0  0  0  0  0  0  0  0  0
   -3.2885   19.2366  -33.7954 H   0  0  0  0  0  0  0  0  0  0  0  0
   -5.5278   17.5289  -32.6148 H   0  0  0  0  0  0  0  0  0  0  0  0
   -6.4932   18.0353  -34.0425 H   0  0  0  0  0  0  0  0  0  0  0  0
   -4.7097   18.2495  -34.0425 H   0  0  0  0  0  0  0  0  0  0  0  0
   -8.1203   18.6015  -33.6952 H   0  0  0  0  0  0  0  0  0  0  0  0
  -10.3758   19.4548  -33.1017 H   0  0  0  0  0  0  0  0  0  0  0  0
  -10.6167   21.4581  -31.6472 H   0  0  0  0  0  0  0  0  0  0  0  0
   -8.5974   22.6302  -30.7924 H   0  0  0  0  0  0  0  0  0  0  0  0
  1  2  1  0
  2  3  1  0
  3  4  1  0
  4  5  1  0
  5  6  1  0
  6  7  1  0
  7  8  1  0
  8  9  1  0
  9 10  2  0
 10 11  1  0
 11 12  2  0
 12 13  1  0
 13 14  2  0
 14 15  1  0
 15 16  2  0
 16 17  1  0
 16 18  1  0
 18 19  2  0
 19 20  1  0
 20 21  2  0
 21 22  1  0
 22 23  2  0
 23  9  1  0
 15 10  1  0
 23 18  1  0
  1 24  1  0
  1 25  1  0
  1 26  1  0
  2 27  1  0
  2 28  1  0
  3 29  1  0
  3 30  1  0
  4 31  1  0
  4 32  1  0
  5 33  1  0
  5 34  1  0
  6 35  1  0
  6 36  1  0
  7 37  1  0
  7 38  1  0
  8 39  1  0
 11 40  1  0
 12 41  1  0
 13 42  1  0
 14 43  1  0
 17 44  1  0
 17 45  1  0
 17 46  1  0
 19 47  1  0
 20 48  1  0
 21 49  1  0
 22 50  1  0
M  CHG  2   5   1  16   1
M  END
>  <UniqueID>  (11) 
11

>  <SMILES>  (11) 
CCCC[NH2+]CCNc1c2ccccc2[n+](C)c2ccccc12

>  <Energy>  (11) 
68.7576950843835

>  <Genealogy>  (11) 
CCCC[NH2+]CCNc1c2ccccc2[n+](C)c2ccccc12 (protonated)
CCCC[NH2+]CCNc1c2ccccc2[n+](C)c2ccccc12 (3D coordinates assigned)
CCCC[NH2+]CCNc1c2ccccc2[n+](C)c2ccccc12 (optimized conformer: 68.7576950843835 kcal/mol)

>  <smiles>  (11) 
CCCCNCCNc1c2ccccc2[n+](C)c2ccccc12

>  <score_type>  (11) 
oracle

>  <origin>  (11) 
adg

>  <m_score__min__energy>  (11) 
-7.4900000000000002

>  <m_primary>  (11) 
energy

$$$$
11:0
     RDKit          3D

 55 57  0  0  0  0  0  0  0  0999 V2000
   -6.9410   23.4230  -29.7310 C   0  0  0  0  0  0  0  0  0  0  0  0
   -6.6790   24.9320  -29.7350 C   0  0  0  0  0  0  0  0  0  0  0  0
   -5.4420   25.2900  -29.0170 N   0  0  0  0  0  0  0  0  0  0  0  0
   -4.7680   24.1100  -28.4480 C   0  0  0  0  0  0  0  0  0  0  0  0
   -3.4160   23.8620  -29.1230 C   0  0  0  0  0  0  0  0  0  0  0  0
   -3.4870   24.2340  -30.4830 O   0  0  0  0  0  0  0  0  0  0  0  0
   -3.4560   23.0780  -31.2920 C   0  0  0  0  0  0  0  0  0  0  0  0
   -4.8370   22.8420  -31.9070 C   0  0  0  0  0  0  0  0  0  0  0  0
   -4.7660   21.9920  -33.1000 N   0  0  0  0  0  0  0  0  0  0  0  0
   -5.1760   20.6110  -33.0870 C   0  0  0  0  0  0  0  0  0  0  0  0
   -6.4980   20.2580  -32.7630 C   0  0  0  0  0  0  0  0  0  0  0  0
   -7.3950   21.2140  -32.2420 C   0  0  0  0  0  0  0  0  0  0  0  0
   -8.6960   20.8570  -31.9020 C   0  0  0  0  0  0  0  0  0  0  0  0
   -9.1170   19.5410  -32.0470 C   0  0  0  0  0  0  0  0  0  0  0  0
   -8.2420   18.5740  -32.5380 C   0  0  0  0  0  0  0  0  0  0  0  0
   -6.9200   18.9110  -32.9240 C   0  0  0  0  0  0  0  0  0  0  0  0
   -6.0430   17.9650  -33.4230 N   0  0  0  0  0  0  0  0  0  0  0  0
   -6.5490   16.6480  -33.8660 C   0  0  0  0  0  0  0  0  0  0  0  0
   -4.6950   18.2570  -33.5200 C   0  0  0  0  0  0  0  0  0  0  0  0
   -3.7280   17.2460  -33.7450 C   0  0  0  0  0  0  0  0  0  0  0  0
   -2.3730   17.5510  -33.8990 C   0  0  0  0  0  0  0  0  0  0  0  0
   -1.4750   16.4960  -34.1270 O   0  0  0  0  0  0  0  0  0  0  0  0
   -0.8750   16.2070  -35.3860 C   0  0  0  0  0  0  0  0  0  0  0  0
   -1.9570   18.8850  -33.8180 C   0  0  0  0  0  0  0  0  0  0  0  0
   -2.8800   19.8940  -33.5620 C   0  0  0  0  0  0  0  0  0  0  0  0
   -4.2470   19.5970  -33.3860 C   0  0  0  0  0  0  0  0  0  0  0  0
   -7.0033   23.0644  -28.6930 H   0  0  0  0  0  0  0  0  0  0  0  0
   -7.8889   23.2140  -30.2486 H   0  0  0  0  0  0  0  0  0  0  0  0
   -6.1190   22.9068  -30.2486 H   0  0  0  0  0  0  0  0  0  0  0  0
   -6.5936   25.2729  -30.7774 H   0  0  0  0  0  0  0  0  0  0  0  0
   -7.5192   25.4195  -29.2188 H   0  0  0  0  0  0  0  0  0  0  0  0
   -5.7020   25.9410  -28.2390 H   0  0  0  0  0  0  0  0  0  0  0  0
   -4.7940   25.7960  -29.6660 H   0  0  0  0  0  0  0  0  0  0  0  0
   -4.6068   24.2735  -27.3722 H   0  0  0  0  0  0  0  0  0  0  0  0
   -5.4067   23.2304  -28.6166 H   0  0  0  0  0  0  0  0  0  0  0  0
   -2.6414   24.4599  -28.6205 H   0  0  0  0  0  0  0  0  0  0  0  0
   -3.1635   22.7938  -29.0506 H   0  0  0  0  0  0  0  0  0  0  0  0
   -2.7164   23.2133  -32.0949 H   0  0  0  0  0  0  0  0  0  0  0  0
   -3.1781   22.2098  -30.6764 H   0  0  0  0  0  0  0  0  0  0  0  0
   -5.4802   22.3537  -31.1601 H   0  0  0  0  0  0  0  0  0  0  0  0
   -5.2479   23.8173  -32.2071 H   0  0  0  0  0  0  0  0  0  0  0  0
   -4.5480   22.4420  -34.0170 H   0  0  0  0  0  0  0  0  0  0  0  0
   -7.0622   22.2532  -32.1030 H   0  0  0  0  0  0  0  0  0  0  0  0
   -9.3919   21.6174  -31.5180 H   0  0  0  0  0  0  0  0  0  0  0  0
  -10.1450   19.2613  -31.7732 H   0  0  0  0  0  0  0  0  0  0  0  0
   -8.5826   17.5319  -32.6276 H   0  0  0  0  0  0  0  0  0  0  0  0
   -6.7859   16.0314  -32.9864 H   0  0  0  0  0  0  0  0  0  0  0  0
   -7.4571   16.7886  -34.4706 H   0  0  0  0  0  0  0  0  0  0  0  0
   -5.7804   16.1443  -34.4706 H   0  0  0  0  0  0  0  0  0  0  0  0
   -4.0516   16.1961  -33.7997 H   0  0  0  0  0  0  0  0  0  0  0  0
    0.1054   15.7348  -35.2252 H   0  0  0  0  0  0  0  0  0  0  0  0
   -1.5232   15.5223  -35.9526 H   0  0  0  0  0  0  0  0  0  0  0  0
   -0.7437   17.1407  -35.9526 H   0  0  0  0  0  0  0  0  0  0  0  0
   -0.8953   19.1368  -33.9574 H   0  0  0  0  0  0  0  0  0  0  0  0
   -2.5386   20.9376  -33.4960 H   0  0  0  0  0  0  0  0  0  0  0  0
  1  2  1  0
  2  3  1  0
  3  4  1  0
  4  5  1  0
  5  6  1  0
  6  7  1  0
  7  8  1  0
  8  9  1  0
  9 10  1  0
 10 11  2  0
 11 12  1  0
 12 13  2  0
 13 14  1  0
 14 15  2  0
 15 16  1  0
 16 17  2  0
 17 18  1  0
 17 19  1  0
 19 20  2  0
 20 21  1  0
 21 22  1  0
 22 23  1  0
 21 24  2  0
 24 25  1  0
 25 26  2  0
 26 10  1  0
 16 11  1  0
 26 19  1  0
  1 27  1  0
  1 28  1  0
  1 29  1  0
  2 30  1  0
  2 31  1  0
  3 32  1  0
  3 33  1  0
  4 34  1  0
  4 35  1  0
  5 36  1  0
  5 37  1  0
  7 38  1  0
  7 39  1  0
  8 40  1  0
  8 41  1  0
  9 42  1  0
 12 43  1  0
 13 44  1  0
 14 45  1  0
 15 46  1  0
 18 47  1  0
 18 48  1  0
 18 49  1  0
 20 50  1  0
 23 51  1  0
 23 52  1  0
 23 53  1  0
 24 54  1  0
 25 55  1  0
M  CHG  2   3   1  17   1
M  END
>  <UniqueID>  (12) 
12

>  <SMILES>  (12) 
CC[NH2+]CCOCCNc1c2ccccc2[n+](C)c2cc(OC)ccc12

>  <Energy>  (12) 
73.90527171230225

>  <Genealogy>  (12) 
CC[NH2+]CCOCCNc1c2ccccc2[n+](C)c2cc(OC)ccc12 (protonated)
CC[NH2+]CCOCCNc1c2ccccc2[n+](C)c2cc(OC)ccc12 (3D coordinates assigned)
CC[NH2+]CCOCCNc1c2ccccc2[n+](C)c2cc(OC)ccc12 (optimized conformer: 73.90527171230225 kcal/mol)

>  <smiles>  (12) 
CCNCCOCCNc1c2ccccc2[n+](C)c2cc(OC)ccc12

>  <score_type>  (12) 
oracle

>  <origin>  (12) 
adg

>  <m_score__min__energy>  (12) 
-8.1300000000000008

>  <m_primary>  (12) 
energy

$$$$
12:0
     RDKit          3D

122128  0  0  0  0  0  0  0  0999 V2000
   -2.7520   19.6360  -26.3980 C   0  0  0  0  0  0  0  0  0  0  0  0
   -1.7970   20.7150  -26.8410 C   0  0  0  0  0  0  0  0  0  0  0  0
   -1.0880   21.3820  -25.8380 C   0  0  0  0  0  0  0  0  0  0  0  0
   -0.1800   22.3830  -26.1580 C   0  0  0  0  0  0  0  0  0  0  0  0
    0.5140   23.0340  -25.1260 C   0  0  0  0  0  0  0  0  0  0  0  0
    1.4400   24.0360  -25.4080 C   0  0  0  0  0  0  0  0  0  0  0  0
    2.1300   24.6720  -24.3180 N   0  0  0  0  0  0  0  0  0  0  0  0
    3.3460   25.4630  -24.4920 C   0  0  0  0  0  0  0  0  0  0  0  0
    3.0560   26.7040  -25.3400 C   0  0  0  0  0  0  0  0  0  0  0  0
    3.9500   27.8930  -24.9880 C   0  0  0  0  0  0  0  0  0  0  0  0
    3.3650   28.7090  -23.8920 N   0  0  0  0  0  0  0  0  0  0  0  0
    2.5980   29.8690  -24.4010 C   0  0  0  0  0  0  0  0  0  0  0  0
    1.2130   29.4380  -24.9500 C   0  0  0  0  0  0  0  0  0  0  0  0
    0.4610   28.5040  -24.0580 N   0  0  0  0  0  0  0  0  0  0  0  0
    0.1750   27.1880  -24.7020 C   0  0  0  0  0  0  0  0  0  0  0  0
   -1.3050   26.7940  -24.5950 C   0  0  0  0  0  0  0  0  0  0  0  0
   -1.5900   25.4110  -25.2090 C   0  0  0  0  0  0  0  0  0  0  0  0
   -2.4050   25.5230  -26.3730 O   0  0  0  0  0  0  0  0  0  0  0  0
   -1.8300   25.6520  -27.6420 C   0  0  0  0  0  0  0  0  0  0  0  0
   -0.5070   26.6040  -27.8220 S   0  0  0  0  0  0  0  0  0  0  0  0
   -2.3530   24.9120  -28.7680 N   0  0  0  0  0  0  0  0  0  0  0  0
   -3.6130   24.1650  -28.7050 C   0  0  0  0  0  0  0  0  0  0  0  0
   -4.0780   23.7230  -30.1160 C   0  0  0  0  0  0  0  0  0  0  0  0
   -4.6060   22.4050  -30.1380 O   0  0  0  0  0  0  0  0  0  0  0  0
   -5.9030   22.3750  -30.7240 C   0  0  0  0  0  0  0  0  0  0  0  0
   -6.1400   23.5150  -31.7570 C   0  0  0  0  0  0  0  0  0  0  0  0
   -7.2520   23.1980  -32.6830 N   0  0  0  0  0  0  0  0  0  0  0  0
   -8.5660   23.3810  -32.0420 C   0  0  0  0  0  0  0  0  0  0  0  0
   -9.1810   22.0160  -31.7010 C   0  0  0  0  0  0  0  0  0  0  0  0
   -8.3780   20.8960  -32.2250 N   0  0  0  0  0  0  0  0  0  0  0  0
   -8.7000   19.6200  -31.5550 C   0  0  0  0  0  0  0  0  0  0  0  0
   -7.8480   18.4950  -32.1390 C   0  0  0  0  0  0  0  0  0  0  0  0
   -7.2010   18.9280  -33.3770 N   0  0  0  0  0  0  0  0  0  0  0  0
   -5.8960   18.4320  -33.7070 C   0  0  0  0  0  0  0  0  0  0  0  0
   -4.7950   19.3030  -33.7070 C   0  0  0  0  0  0  0  0  0  0  0  0
   -4.9610   20.6690  -33.3840 C   0  0  0  0  0  0  0  0  0  0  0  0
   -3.8660   21.5220  -33.3470 C   0  0  0  0  0  0  0  0  0  0  0  0
   -2.5910   21.0420  -33.6310 C   0  0  0  0  0  0  0  0  0  0  0  0
   -2.4020   19.6940  -33.9380 C   0  0  0  0  0  0  0  0  0  0  0  0
   -3.5040   18.8000  -34.0150 C   0  0  0  0  0  0  0  0  0  0  0  0
   -3.3490   17.4660  -34.3830 N   0  0  0  0  0  0  0  0  0  0  0  0
   -2.0350   17.0040  -34.8920 C   0  0  0  0  0  0  0  0  0  0  0  0
   -4.4120   16.5810  -34.2730 C   0  0  0  0  0  0  0  0  0  0  0  0
   -4.2470   15.1750  -34.4200 C   0  0  0  0  0  0  0  0  0  0  0  0
   -5.3460   14.3150  -34.3820 C   0  0  0  0  0  0  0  0  0  0  0  0
   -6.6250   14.8210  -34.1850 C   0  0  0  0  0  0  0  0  0  0  0  0
   -6.8150   16.1800  -33.9780 C   0  0  0  0  0  0  0  0  0  0  0  0
   -5.7160   17.0640  -33.9840 C   0  0  0  0  0  0  0  0  0  0  0  0
    1.1160   28.3430  -22.7480 C   0  0  0  0  0  0  0  0  0  0  0  0
    2.5880   27.8970  -22.9090 C   0  0  0  0  0  0  0  0  0  0  0  0
    1.6720   24.4010  -26.7410 C   0  0  0  0  0  0  0  0  0  0  0  0
    0.9840   23.7650  -27.7810 C   0  0  0  0  0  0  0  0  0  0  0  0
    0.0400   22.7420  -27.5060 C   0  0  0  0  0  0  0  0  0  0  0  0
   -0.6920   22.0370  -28.5240 C   0  0  0  0  0  0  0  0  0  0  0  0
   -0.5270   22.3480  -29.8940 C   0  0  0  0  0  0  0  0  0  0  0  0
   -1.2180   21.6350  -30.8640 C   0  0  0  0  0  0  0  0  0  0  0  0
   -2.0760   20.6200  -30.4940 C   0  0  0  0  0  0  0  0  0  0  0  0
   -2.2580   20.3310  -29.1530 C   0  0  0  0  0  0  0  0  0  0  0  0
   -1.5800   21.0290  -28.1670 N   0  0  0  0  0  0  0  0  0  0  0  0
   -2.7823   19.6018  -25.2990 H   0  0  0  0  0  0  0  0  0  0  0  0
   -3.7578   19.8547  -26.7859 H   0  0  0  0  0  0  0  0  0  0  0  0
   -2.4127   18.6642  -26.7859 H   0  0  0  0  0  0  0  0  0  0  0  0
   -1.2509   21.1113  -24.7843 H   0  0  0  0  0  0  0  0  0  0  0  0
    0.3242   22.7492  -24.0806 H   0  0  0  0  0  0  0  0  0  0  0  0
    1.7420   24.5370  -23.3580 H   0  0  0  0  0  0  0  0  0  0  0  0
    3.7191   25.7765  -23.5058 H   0  0  0  0  0  0  0  0  0  0  0  0
    4.1020   24.8490  -25.0033 H   0  0  0  0  0  0  0  0  0  0  0  0
    3.2130   26.4492  -26.3985 H   0  0  0  0  0  0  0  0  0  0  0  0
    2.0170   27.0037  -25.1382 H   0  0  0  0  0  0  0  0  0  0  0  0
    4.9337   27.5183  -24.6687 H   0  0  0  0  0  0  0  0  0  0  0  0
    4.0441   28.5299  -25.8799 H   0  0  0  0  0  0  0  0  0  0  0  0
    2.4498   30.5871  -23.5810 H   0  0  0  0  0  0  0  0  0  0  0  0
    3.1682   30.3258  -25.2233 H   0  0  0  0  0  0  0  0  0  0  0  0
    0.6032   30.3421  -25.0945 H   0  0  0  0  0  0  0  0  0  0  0  0
    1.4012   28.8947  -25.8877 H   0  0  0  0  0  0  0  0  0  0  0  0
    0.4486   27.2483  -25.7657 H   0  0  0  0  0  0  0  0  0  0  0  0
    0.7650   26.4222  -24.1771 H   0  0  0  0  0  0  0  0  0  0  0  0
   -1.5894   26.7743  -23.5326 H   0  0  0  0  0  0  0  0  0  0  0  0
   -1.8913   27.5371  -25.1554 H   0  0  0  0  0  0  0  0  0  0  0  0
   -0.6362   24.9363  -25.4829 H   0  0  0  0  0  0  0  0  0  0  0  0
   -2.1258   24.8029  -24.4653 H   0  0  0  0  0  0  0  0  0  0  0  0
   -1.8360   24.9530  -29.6840 H   0  0  0  0  0  0  0  0  0  0  0  0
   -3.4689   23.2719  -28.0793 H   0  0  0  0  0  0  0  0  0  0  0  0
   -4.3842   24.8214  -28.2755 H   0  0  0  0  0  0  0  0  0  0  0  0
   -4.8566   24.4185  -30.4624 H   0  0  0  0  0  0  0  0  0  0  0  0
   -3.1954   23.7352  -30.7724 H   0  0  0  0  0  0  0  0  0  0  0  0
   -6.0330   21.4092  -31.2343 H   0  0  0  0  0  0  0  0  0  0  0  0
   -6.6305   22.5164  -29.9111 H   0  0  0  0  0  0  0  0  0  0  0  0
   -6.3813   24.4415  -31.2153 H   0  0  0  0  0  0  0  0  0  0  0  0
   -5.2227   23.6318  -32.3527 H   0  0  0  0  0  0  0  0  0  0  0  0
   -7.1640   22.2060  -32.9960 H   0  0  0  0  0  0  0  0  0  0  0  0
   -8.4421   23.9653  -31.1183 H   0  0  0  0  0  0  0  0  0  0  0  0
   -9.2337   23.9139  -32.7350 H   0  0  0  0  0  0  0  0  0  0  0  0
   -9.2491   21.9216  -30.6072 H   0  0  0  0  0  0  0  0  0  0  0  0
  -10.1748   21.9671  -32.1701 H   0  0  0  0  0  0  0  0  0  0  0  0
   -7.3590   21.1050  -32.1010 H   0  0  0  0  0  0  0  0  0  0  0  0
   -8.4943   19.7116  -30.4783 H   0  0  0  0  0  0  0  0  0  0  0  0
   -9.7635   19.3872  -31.7126 H   0  0  0  0  0  0  0  0  0  0  0  0
   -7.0765   18.2096  -31.4087 H   0  0  0  0  0  0  0  0  0  0  0  0
   -8.4987   17.6363  -32.3608 H   0  0  0  0  0  0  0  0  0  0  0  0
   -7.6030   19.7010  -33.9680 H   0  0  0  0  0  0  0  0  0  0  0  0
   -5.9649   21.0591  -33.1603 H   0  0  0  0  0  0  0  0  0  0  0  0
   -4.0071   22.5827  -33.0919 H   0  0  0  0  0  0  0  0  0  0  0  0
   -1.7303   21.7268  -33.6134 H   0  0  0  0  0  0  0  0  0  0  0  0
   -1.3850   19.3178  -34.1231 H   0  0  0  0  0  0  0  0  0  0  0  0
   -1.3743   16.7717  -34.0438 H   0  0  0  0  0  0  0  0  0  0  0  0
   -2.1759   16.1015  -35.5049 H   0  0  0  0  0  0  0  0  0  0  0  0
   -1.5801   17.7961  -35.5049 H   0  0  0  0  0  0  0  0  0  0  0  0
   -3.2388   14.7599  -34.5657 H   0  0  0  0  0  0  0  0  0  0  0  0
   -5.1988   13.2323  -34.5085 H   0  0  0  0  0  0  0  0  0  0  0  0
   -7.4902   14.1418  -34.1932 H   0  0  0  0  0  0  0  0  0  0  0  0
   -7.8293   16.5703  -33.8081 H   0  0  0  0  0  0  0  0  0  0  0  0
    1.0888   29.3037  -22.2129 H   0  0  0  0  0  0  0  0  0  0  0  0
    0.5775   27.5683  -22.1825 H   0  0  0  0  0  0  0  0  0  0  0  0
    3.0820   27.9746  -21.9292 H   0  0  0  0  0  0  0  0  0  0  0  0
    2.5679   26.8664  -23.2931 H   0  0  0  0  0  0  0  0  0  0  0  0
    2.3999   25.1928  -26.9717 H   0  0  0  0  0  0  0  0  0  0  0  0
    1.1772   24.0614  -28.8225 H   0  0  0  0  0  0  0  0  0  0  0  0
    0.1529   23.1596  -30.1924 H   0  0  0  0  0  0  0  0  0  0  0  0
   -1.0815   21.8793  -31.9278 H   0  0  0  0  0  0  0  0  0  0  0  0
   -2.6129   20.0431  -31.2614 H   0  0  0  0  0  0  0  0  0  0  0  0
   -2.9552   19.5307  -28.8641 H   0  0  0  0  0  0  0  0  0  0  0  0
  1  2  1  0
  2  3  2  0
  3  4  1  0
  4  5  2  0
  5  6  1  0
  6  7  1  0
  7  8  1  0
  8  9  1  0
  9 10  1  0
 10 11  1  0
 11 12  1  0
 12 13  1  0
 13 14  1  0
 14 15  1  0
 15 16  1  0
 16 17  1  0
 17 18  1  0
 18 19  1  0
 19 20  2  0
 19 21  1  0
 21 22  1  0
 22 23  1  0
 23 24  1  0
 24 25  1  0
 25 26  1  0
 26 27  1  0
 27 28  1  0
 28 29  1  0
 29 30  1  0
 30 31  1  0
 31 32  1  0
 32 33  1  0
 33 34  1  0
 34 35  1  0
 35 36  2  0
 36 37  1  0
 37 38  2  0
 38 39  1  0
 39 40  2  0
 40 41  1  0
 41 42  1  0
 41 43  2  0
 43 44  1  0
 44 45  2  0
 45 46  1  0
 46 47  2  0
 47 48  1  0
 14 49  1  0
 49 50  1  0
  6 51  2  0
 51 52  1  0
 52 53  2  0
 53 54  1  0
 54 55  2  0
 55 56  1  0
 56 57  2  0
 57 58  1  0
 58 59  2  0
 59  2  1  0
 53  4  1  0
 59 54  1  0
 50 11  1  0
 48 34  2  0
 40 35  1  0
 48 43  1  0
  1 60  1  0
  1 61  1  0
  1 62  1  0
  3 63  1  0
  5 64  1  0
  7 65  1  0
  8 66  1  0
  8 67  1  0
  9 68  1  0
  9 69  1  0
 10 70  1  0
 10 71  1  0
 12 72  1  0
 12 73  1  0
 13 74  1  0
 13 75  1  0
 15 76  1  0
 15 77  1  0
 16 78  1  0
 16 79  1  0
 17 80  1  0
 17 81  1  0
 21 82  1  0
 22 83  1  0
 22 84  1  0
 23 85  1  0
 23 86  1  0
 25 87  1  0
 25 88  1  0
 26 89  1  0
 26 90  1  0
 27 91  1  0
 28 92  1  0
 28 93  1  0
 29 94  1  0
 29 95  1  0
 30 96  1  0
 31 97  1  0
 31 98  1  0
 32 99  1  0
 32100  1  0
 33101  1  0
 36102  1  0
 37103  1  0
 38104  1  0
 39105  1  0
 42106  1  0
 42107  1  0
 42108  1  0
 44109  1  0
 45110  1  0
 46111  1  0
 47112  1  0
 49113  1  0
 49114  1  0
 50115  1  0
 50116  1  0
 51117  1  0
 52118  1  0
 55119  1  0
 56120  1  0
 57121  1  0
 58122  1  0
M  CHG  2  41   1  59   1
M  END
>  <UniqueID>  (13) 
13

>  <SMILES>  (13) 
Cc1cc2cc(NCCCN3CCN(CCCOC(=S)NCCOCCNCCNCCNc4c5ccccc5[n+](C)c5ccccc45)CC3)ccc2c2cccc[n+]12

>  <Energy>  (13) 
188.49772209252038

>  <Genealogy>  (13) 
Cc1cc2cc(NCCCN3CCN(CCCOC(=S)NCCOCCNCCNCCNc4c5ccccc5[n+](C)c5ccccc45)CC3)ccc2c2cccc[n+]12 (3D coordinates assigned)
Cc1cc2cc(NCCCN3CCN(CCCOC(=S)NCCOCCNCCNCCNc4c5ccccc5[n+](C)c5ccccc45)CC3)ccc2c2cccc[n+]12 (nonaromatic ring conformer: 188.49772209252038 kcal/mol)

>  <smiles>  (13) 
Cc1cc2cc(NCCCN3CCN(CCCOC(=S)NCCOCCNCCNCCNc4c5ccccc5[n+](C)c5ccccc45)CC3)ccc2c2cccc[n+]12

>  <score_type>  (13) 
oracle

>  <origin>  (13) 
adg

>  <m_score__min__energy>  (13) 
-8.8900000000000006

>  <m_primary>  (13) 
energy

$$$$
13:0
     RDKit          3D

 81 84  0  0  0  0  0  0  0  0999 V2000
   -6.4060   25.2630  -29.7260 C   0  0  0  0  0  0  0  0  0  0  0  0
   -5.4220   25.5110  -30.8650 C   0  0  0  0  0  0  0  0  0  0  0  0
   -4.0650   25.1180  -30.4620 N   0  0  0  0  0  0  0  0  0  0  0  0
   -4.0630   23.8870  -29.6550 C   0  0  0  0  0  0  0  0  0  0  0  0
   -4.1630   22.6440  -30.5520 C   0  0  0  0  0  0  0  0  0  0  0  0
   -3.0240   22.5350  -31.5850 C   0  0  0  0  0  0  0  0  0  0  0  0
   -3.2100   21.3460  -32.5370 C   0  0  0  0  0  0  0  0  0  0  0  0
   -4.4550   21.4710  -33.2930 N   0  0  0  0  0  0  0  0  0  0  0  0
   -5.6110   20.7180  -32.8970 C   0  0  0  0  0  0  0  0  0  0  0  0
   -6.7820   21.3840  -32.5040 C   0  0  0  0  0  0  0  0  0  0  0  0
   -6.8170   22.7920  -32.4170 C   0  0  0  0  0  0  0  0  0  0  0  0
   -7.9660   23.4490  -31.9800 C   0  0  0  0  0  0  0  0  0  0  0  0
   -9.0890   22.7180  -31.6090 C   0  0  0  0  0  0  0  0  0  0  0  0
   -9.0820   21.3250  -31.7060 C   0  0  0  0  0  0  0  0  0  0  0  0
   -7.9460   20.6290  -32.1950 C   0  0  0  0  0  0  0  0  0  0  0  0
   -7.9470   19.2570  -32.3710 N   0  0  0  0  0  0  0  0  0  0  0  0
   -9.2220   18.5040  -32.3500 C   0  0  0  0  0  0  0  0  0  0  0  0
   -6.7570   18.5880  -32.5960 C   0  0  0  0  0  0  0  0  0  0  0  0
   -6.6720   17.1750  -32.5340 C   0  0  0  0  0  0  0  0  0  0  0  0
   -5.4740   16.5130  -32.7910 C   0  0  0  0  0  0  0  0  0  0  0  0
   -4.3150   17.2240  -33.0870 C   0  0  0  0  0  0  0  0  0  0  0  0
   -3.1410   16.4920  -33.3310 O   0  0  0  0  0  0  0  0  0  0  0  0
   -2.1190   16.8290  -34.2680 C   0  0  0  0  0  0  0  0  0  0  0  0
   -1.9410   15.7820  -35.3990 C   0  0  0  0  0  0  0  0  0  0  0  0
   -1.7250   14.3430  -35.0100 N   0  0  0  0  0  0  0  0  0  0  0  0
   -0.5790   13.7750  -35.7690 C   0  0  0  0  0  0  0  0  0  0  0  0
   -1.3640   14.3270  -33.5450 C   0  0  0  0  0  0  0  0  0  0  0  0
   -1.8890   13.0810  -32.8000 C   0  0  0  0  0  0  0  0  0  0  0  0
   -3.3830   12.9790  -32.8470 N   0  0  0  0  0  0  0  0  0  0  0  0
   -3.7670   11.5490  -32.7470 C   0  0  0  0  0  0  0  0  0  0  0  0
   -3.9710   13.6900  -31.6820 C   0  0  0  0  0  0  0  0  0  0  0  0
   -3.9440   13.5610  -34.1080 C   0  0  0  0  0  0  0  0  0  0  0  0
   -2.9360   13.4950  -35.2670 C   0  0  0  0  0  0  0  0  0  0  0  0
   -4.3640   18.6270  -33.1190 C   0  0  0  0  0  0  0  0  0  0  0  0
   -5.5710   19.3150  -32.8790 C   0  0  0  0  0  0  0  0  0  0  0  0
   -5.8916   25.3926  -28.7623 H   0  0  0  0  0  0  0  0  0  0  0  0
   -7.2374   25.9797  -29.7972 H   0  0  0  0  0  0  0  0  0  0  0  0
   -6.7985   24.2379  -29.7972 H   0  0  0  0  0  0  0  0  0  0  0  0
   -5.7255   24.9200  -31.7417 H   0  0  0  0  0  0  0  0  0  0  0  0
   -5.4250   26.5827  -31.1131 H   0  0  0  0  0  0  0  0  0  0  0  0
   -3.5310   24.9120  -31.3400 H   0  0  0  0  0  0  0  0  0  0  0  0
   -3.1299   23.8383  -29.0746 H   0  0  0  0  0  0  0  0  0  0  0  0
   -4.9331   23.9061  -28.9822 H   0  0  0  0  0  0  0  0  0  0  0  0
   -4.1383   21.7501  -29.9115 H   0  0  0  0  0  0  0  0  0  0  0  0
   -5.1033   22.7284  -31.1165 H   0  0  0  0  0  0  0  0  0  0  0  0
   -2.9949   23.4611  -32.1779 H   0  0  0  0  0  0  0  0  0  0  0  0
   -2.0848   22.3798  -31.0338 H   0  0  0  0  0  0  0  0  0  0  0  0
   -2.3643   21.3118  -33.2395 H   0  0  0  0  0  0  0  0  0  0  0  0
   -3.2528   20.4226  -31.9408 H   0  0  0  0  0  0  0  0  0  0  0  0
   -4.4710   21.9590  -34.2170 H   0  0  0  0  0  0  0  0  0  0  0  0
   -5.9285   23.3770  -32.6969 H   0  0  0  0  0  0  0  0  0  0  0  0
   -7.9843   24.5476  -31.9286 H   0  0  0  0  0  0  0  0  0  0  0  0
   -9.9847   23.2380  -31.2384 H   0  0  0  0  0  0  0  0  0  0  0  0
   -9.9724   20.7573  -31.3980 H   0  0  0  0  0  0  0  0  0  0  0  0
   -9.5250   18.3250  -31.3078 H   0  0  0  0  0  0  0  0  0  0  0  0
  -10.0007   19.0872  -32.8633 H   0  0  0  0  0  0  0  0  0  0  0  0
   -9.0873   17.5405  -32.8633 H   0  0  0  0  0  0  0  0  0  0  0  0
   -7.5681   16.5906  -32.2783 H   0  0  0  0  0  0  0  0  0  0  0  0
   -5.4435   15.4139  -32.7596 H   0  0  0  0  0  0  0  0  0  0  0  0
   -2.3733   17.7960  -34.7266 H   0  0  0  0  0  0  0  0  0  0  0  0
   -1.1711   16.8654  -33.7111 H   0  0  0  0  0  0  0  0  0  0  0  0
   -2.8463   15.8188  -36.0227 H   0  0  0  0  0  0  0  0  0  0  0  0
   -1.0035   16.0737  -35.8950 H   0  0  0  0  0  0  0  0  0  0  0  0
    0.1777   13.3999  -35.0642 H   0  0  0  0  0  0  0  0  0  0  0  0
   -0.9324   12.9478  -36.4021 H   0  0  0  0  0  0  0  0  0  0  0  0
   -0.1347   14.5572  -36.4021 H   0  0  0  0  0  0  0  0  0  0  0  0
   -0.2679   14.3513  -33.4553 H   0  0  0  0  0  0  0  0  0  0  0  0
   -1.8374   15.2060  -33.0833 H   0  0  0  0  0  0  0  0  0  0  0  0
   -1.4581   12.1825  -33.2658 H   0  0  0  0  0  0  0  0  0  0  0  0
   -1.5903   13.1686  -31.7450 H   0  0  0  0  0  0  0  0  0  0  0  0
   -3.8438   11.2632  -31.6876 H   0  0  0  0  0  0  0  0  0  0  0  0
   -4.7384   11.3949  -33.2397 H   0  0  0  0  0  0  0  0  0  0  0  0
   -3.0035   10.9290  -33.2397 H   0  0  0  0  0  0  0  0  0  0  0  0
   -3.5979   13.2389  -30.7507 H   0  0  0  0  0  0  0  0  0  0  0  0
   -3.6830   14.7511  -31.7165 H   0  0  0  0  0  0  0  0  0  0  0  0
   -5.0673   13.6063  -31.7165 H   0  0  0  0  0  0  0  0  0  0  0  0
   -4.8464   12.9982  -34.3889 H   0  0  0  0  0  0  0  0  0  0  0  0
   -4.1794   14.6190  -33.9203 H   0  0  0  0  0  0  0  0  0  0  0  0
   -2.6163   12.4509  -35.4002 H   0  0  0  0  0  0  0  0  0  0  0  0
   -3.4327   13.8783  -36.1705 H   0  0  0  0  0  0  0  0  0  0  0  0
   -3.4482   19.1970  -33.3342 H   0  0  0  0  0  0  0  0  0  0  0  0
  1  2  1  0
  2  3  1  0
  3  4  1  0
  4  5  1  0
  5  6  1  0
  6  7  1  0
  7  8  1  0
  8  9  1  0
  9 10  2  0
 10 11  1  0
 11 12  2  0
 12 13  1  0
 13 14  2  0
 14 15  1  0
 15 16  2  0
 16 17  1  0
 16 18  1  0
 18 19  2  0
 19 20  1  0
 20 21  2  0
 21 22  1  0
 22 23  1  0
 23 24  1  0
 24 25  1  0
 25 26  1  0
 25 27  1  0
 27 28  1  0
 28 29  1  0
 29 30  1  0
 29 31  1  0
 29 32  1  0
 32 33  1  0
 21 34  1  0
 34 35  2  0
 35  9  1  0
 15 10  1  0
 35 18  1  0
 33 25  1  0
  1 36  1  0
  1 37  1  0
  1 38  1  0
  2 39  1  0
  2 40  1  0
  3 41  1  0
  4 42  1  0
  4 43  1  0
  5 44  1  0
  5 45  1  0
  6 46  1  0
  6 47  1  0
  7 48  1  0
  7 49  1  0
  8 50  1  0
 11 51  1  0
 12 52  1  0
 13 53  1  0
 14 54  1  0
 17 55  1  0
 17 56  1  0
 17 57  1  0
 19 58  1  0
 20 59  1  0
 23 60  1  0
 23 61  1  0
 24 62  1  0
 24 63  1  0
 26 64  1  0
 26 65  1  0
 26 66  1  0
 27 67  1  0
 27 68  1  0
 28 69  1  0
 28 70  1  0
 30 71  1  0
 30 72  1  0
 30 73  1  0
 31 74  1  0
 31 75  1  0
 31 76  1  0
 32 77  1  0
 32 78  1  0
 33 79  1  0
 33 80  1  0
 34 81  1  0
M  CHG  3  16   1  25   1  29   1
M  END
>  <UniqueID>  (14) 
14

>  <SMILES>  (14) 
CCNCCCCNc1c2ccccc2[n+](C)c2ccc(OCC[N+]3(C)CC[N+](C)(C)CC3)cc12

>  <Energy>  (14) 
131.86943410193103

>  <Genealogy>  (14) 
CCNCCCCNc1c2ccccc2[n+](C)c2ccc(OCC[N+]3(C)CC[N+](C)(C)CC3)cc12 (3D coordinates assigned)
CCNCCCCNc1c2ccccc2[n+](C)c2ccc(OCC[N+]3(C)CC[N+](C)(C)CC3)cc12 (nonaromatic ring conformer: 131.86943410193103 kcal/mol)

>  <smiles>  (14) 
CCNCCCCNc1c2ccccc2[n+](C)c2ccc(OCC[N+]3(C)CC[N+](C)(C)CC3)cc12

>  <score_type>  (14) 
oracle

>  <origin>  (14) 
adg

>  <m_score__min__energy>  (14) 
-8.8200000000000003

>  <m_primary>  (14) 
energy

$$$$
14:0
     RDKit          3D

 54 53  0  0  0  0  0  0  0  0999 V2000
   -7.0007   24.8388  -31.6616 H   0  0  0  0  0  0  0  0  0  0  0  0
   -5.9900   24.4390  -31.4920 C   0  0  0  0  0  0  0  0  0  0  0  0
   -5.6110   23.3220  -32.1280 C   0  0  0  0  0  0  0  0  0  0  0  0
   -5.1907   23.3964  -33.1418 H   0  0  0  0  0  0  0  0  0  0  0  0
   -5.7480   21.9670  -31.4850 C   0  0  0  0  0  0  0  0  0  0  0  0
   -4.9939   21.8675  -30.6904 H   0  0  0  0  0  0  0  0  0  0  0  0
   -6.7613   21.8774  -31.0664 H   0  0  0  0  0  0  0  0  0  0  0  0
   -5.5510   20.8950  -32.4730 N   0  0  0  0  0  0  0  0  0  0  0  0
   -5.8360   19.9860  -32.0420 H   0  0  0  0  0  0  0  0  0  0  0  0
   -6.1490   21.0800  -33.3120 H   0  0  0  0  0  0  0  0  0  0  0  0
   -4.1410   20.8360  -32.8960 C   0  0  0  0  0  0  0  0  0  0  0  0
   -3.9597   21.6248  -33.6409 H   0  0  0  0  0  0  0  0  0  0  0  0
   -3.5112   20.9798  -32.0057 H   0  0  0  0  0  0  0  0  0  0  0  0
   -3.7860   19.4740  -33.5170 C   0  0  0  0  0  0  0  0  0  0  0  0
   -2.8359   19.5815  -34.0609 H   0  0  0  0  0  0  0  0  0  0  0  0
   -3.7264   18.7567  -32.6852 H   0  0  0  0  0  0  0  0  0  0  0  0
   -4.8450   18.9220  -34.4990 C   0  0  0  0  0  0  0  0  0  0  0  0
   -4.8686   19.5677  -35.3893 H   0  0  0  0  0  0  0  0  0  0  0  0
   -4.5573   17.8903  -34.7494 H   0  0  0  0  0  0  0  0  0  0  0  0
   -6.2000   18.8750  -33.9150 N   0  0  0  0  0  0  0  0  0  0  0  0
   -6.8960   19.3640  -34.5310 H   0  0  0  0  0  0  0  0  0  0  0  0
   -6.6650   17.5120  -33.6100 C   0  0  0  0  0  0  0  0  0  0  0  0
   -7.7211   17.4163  -33.9022 H   0  0  0  0  0  0  0  0  0  0  0  0
   -6.0491   16.7930  -34.1701 H   0  0  0  0  0  0  0  0  0  0  0  0
   -6.5280   17.2190  -32.1110 C   0  0  0  0  0  0  0  0  0  0  0  0
   -6.8693   16.1901  -31.9245 H   0  0  0  0  0  0  0  0  0  0  0  0
   -5.4692   17.3606  -31.8485 H   0  0  0  0  0  0  0  0  0  0  0  0
   -7.3480   18.1740  -31.2220 C   0  0  0  0  0  0  0  0  0  0  0  0
   -7.7767   17.5967  -30.3895 H   0  0  0  0  0  0  0  0  0  0  0  0
   -6.6659   18.9608  -30.8676 H   0  0  0  0  0  0  0  0  0  0  0  0
   -8.4980   18.8680  -31.9830 C   0  0  0  0  0  0  0  0  0  0  0  0
   -8.9069   18.1670  -32.7255 H   0  0  0  0  0  0  0  0  0  0  0  0
   -9.2639   19.1608  -31.2497 H   0  0  0  0  0  0  0  0  0  0  0  0
   -8.0420   20.0860  -32.6780 N   0  0  0  0  0  0  0  0  0  0  0  0
   -8.0940   19.9420  -33.7180 H   0  0  0  0  0  0  0  0  0  0  0  0
   -8.8280   21.2780  -32.3130 C   0  0  0  0  0  0  0  0  0  0  0  0
   -8.2924   22.1814  -32.6403 H   0  0  0  0  0  0  0  0  0  0  0  0
   -9.8103   21.2266  -32.8055 H   0  0  0  0  0  0  0  0  0  0  0  0
   -9.0290   21.3300  -30.8000 C   0  0  0  0  0  0  0  0  0  0  0  0
   -8.0825   21.0851  -30.2957 H   0  0  0  0  0  0  0  0  0  0  0  0
   -9.3497   22.3407  -30.5072 H   0  0  0  0  0  0  0  0  0  0  0  0
   -9.7996   20.6016  -30.5072 H   0  0  0  0  0  0  0  0  0  0  0  0
   -5.0640   25.1560  -30.5530 C   0  0  0  0  0  0  0  0  0  0  0  0
   -5.3139   24.8819  -29.5174 H   0  0  0  0  0  0  0  0  0  0  0  0
   -5.1806   26.2406  -30.6949 H   0  0  0  0  0  0  0  0  0  0  0  0
   -3.6740   24.7870  -30.8280 N   0  0  0  0  0  0  0  0  0  0  0  0
   -3.1090   25.6720  -30.8470 H   0  0  0  0  0  0  0  0  0  0  0  0
   -3.1520   23.9410  -29.7490 C   0  0  0  0  0  0  0  0  0  0  0  0
   -2.0960   24.1912  -29.5694 H   0  0  0  0  0  0  0  0  0  0  0  0
   -3.2422   22.8852  -30.0444 H   0  0  0  0  0  0  0  0  0  0  0  0
   -3.9480   24.1700  -28.4710 C   0  0  0  0  0  0  0  0  0  0  0  0
   -3.3033   23.9845  -27.5993 H   0  0  0  0  0  0  0  0  0  0  0  0
   -4.3095   25.2086  -28.4453 H   0  0  0  0  0  0  0  0  0  0  0  0
   -4.8061   23.4823  -28.4453 H   0  0  0  0  0  0  0  0  0  0  0  0
  1  2  1  0
  2  3  2  0
  3  4  1  0
  3  5  1  0
  5  6  1  0
  5  7  1  0
  5  8  1  0
  8  9  1  0
  8 10  1  0
  8 11  1  0
 11 12  1  0
 11 13  1  0
 11 14  1  0
 14 15  1  0
 14 16  1  0
 14 17  1  0
 17 18  1  0
 17 19  1  0
 17 20  1  0
 20 21  1  0
 20 22  1  0
 22 23  1  0
 22 24  1  0
 22 25  1  0
 25 26  1  0
 25 27  1  0
 25 28  1  0
 28 29  1  0
 28 30  1  0
 28 31  1  0
 31 32  1  0
 31 33  1  0
 31 34  1  0
 34 35  1  0
 34 36  1  0
 36 37  1  0
 36 38  1  0
 36 39  1  0
 39 40  1  0
 39 41  1  0
 39 42  1  0
  2 43  1  0
 43 44  1  0
 43 45  1  0
 43 46  1  0
 46 47  1  0
 46 48  1  0
 48 49  1  0
 48 50  1  0
 48 51  1  0
 51 52  1  0
 51 53  1  0
 51 54  1  0
M  CHG  1   8   1
M  END
>  <UniqueID>  (15) 
15

>  <SMILES>  (15) 
CCNC/C=C/C[NH2+]CCCNCCCCNCC

>  <Energy>  (15) 
34.45437009577715

>  <Genealogy>  (15) 
CCNCC=CC[NH2+]CCCNCCCCNCC (protonated)
CCNC/C=C/C[NH2+]CCCNCCCCNCC (cis-trans isomerization)
CCNC/C=C/C[NH2+]CCCNCCCCNCC (3D coordinates assigned)
CCNC/C=C/C[NH2+]CCCNCCCCNCC (optimized conformer: 34.45437009577715 kcal/mol)

>  <smiles>  (15) 
CCNCC=CCNCCCNCCCCNCC

>  <score_type>  (15) 
oracle

>  <origin>  (15) 
adg

>  <m_score__min__energy>  (15) 
-4.6399999999999997

>  <m_primary>  (15) 
energy

$$$$
15:0
     RDKit          3D

 45 47  0  0  0  0  0  0  0  0999 V2000
   -1.5790   19.1120  -34.0670 C   0  0  0  0  0  0  0  0  0  0  0  0
   -2.3270   20.4360  -33.9790 C   0  0  0  0  0  0  0  0  0  0  0  0
   -3.0790   20.5240  -32.7170 N   0  0  0  0  0  0  0  0  0  0  0  0
   -2.3710   20.4150  -31.4330 C   0  0  0  0  0  0  0  0  0  0  0  0
   -1.2590   21.4560  -31.3020 C   0  0  0  0  0  0  0  0  0  0  0  0
   -4.4930   20.2360  -32.7230 C   0  0  0  0  0  0  0  0  0  0  0  0
   -4.8840   18.8950  -32.7910 C   0  0  0  0  0  0  0  0  0  0  0  0
   -6.2200   18.5500  -32.6790 C   0  0  0  0  0  0  0  0  0  0  0  0
   -7.1740   19.5390  -32.4550 C   0  0  0  0  0  0  0  0  0  0  0  0
   -8.5240   19.1850  -32.3020 C   0  0  0  0  0  0  0  0  0  0  0  0
   -9.4830   20.1650  -32.0540 C   0  0  0  0  0  0  0  0  0  0  0  0
   -9.1040   21.5010  -31.9520 C   0  0  0  0  0  0  0  0  0  0  0  0
   -7.7660   21.8690  -32.1050 C   0  0  0  0  0  0  0  0  0  0  0  0
   -6.7690   20.8970  -32.3750 C   0  0  0  0  0  0  0  0  0  0  0  0
   -5.4350   21.2330  -32.5580 N   0  0  0  0  0  0  0  0  0  0  0  0
   -5.0120   22.6540  -32.6120 C   0  0  0  0  0  0  0  0  0  0  0  0
   -5.0380   23.3150  -31.2490 C   0  0  0  0  0  0  0  0  0  0  0  0
   -5.7550   24.5060  -31.0210 C   0  0  0  0  0  0  0  0  0  0  0  0
   -5.7340   25.1120  -29.7610 C   0  0  0  0  0  0  0  0  0  0  0  0
   -4.9890   24.5460  -28.7240 C   0  0  0  0  0  0  0  0  0  0  0  0
   -4.2600   23.3750  -28.9450 C   0  0  0  0  0  0  0  0  0  0  0  0
   -4.2780   22.7650  -30.2030 C   0  0  0  0  0  0  0  0  0  0  0  0
   -1.3695   18.7411  -33.0528 H   0  0  0  0  0  0  0  0  0  0  0  0
   -2.1957   18.3776  -34.6059 H   0  0  0  0  0  0  0  0  0  0  0  0
   -0.6317   19.2612  -34.6059 H   0  0  0  0  0  0  0  0  0  0  0  0
   -1.6039   21.2635  -34.0272 H   0  0  0  0  0  0  0  0  0  0  0  0
   -3.0350   20.4995  -34.8185 H   0  0  0  0  0  0  0  0  0  0  0  0
   -3.0927   20.5616  -30.6159 H   0  0  0  0  0  0  0  0  0  0  0  0
   -1.9102   19.4174  -31.3827 H   0  0  0  0  0  0  0  0  0  0  0  0
   -1.0572   21.6449  -30.2373 H   0  0  0  0  0  0  0  0  0  0  0  0
   -0.3461   21.0804  -31.7872 H   0  0  0  0  0  0  0  0  0  0  0  0
   -1.5737   22.3917  -31.7872 H   0  0  0  0  0  0  0  0  0  0  0  0
   -4.1263   18.1105  -32.9342 H   0  0  0  0  0  0  0  0  0  0  0  0
   -6.5270   17.4974  -32.7667 H   0  0  0  0  0  0  0  0  0  0  0  0
   -8.8258   18.1300  -32.3782 H   0  0  0  0  0  0  0  0  0  0  0  0
  -10.5400   19.8831  -31.9387 H   0  0  0  0  0  0  0  0  0  0  0  0
   -9.8632   22.2709  -31.7497 H   0  0  0  0  0  0  0  0  0  0  0  0
   -7.4810   22.9276  -32.0149 H   0  0  0  0  0  0  0  0  0  0  0  0
   -3.9874   22.7030  -33.0092 H   0  0  0  0  0  0  0  0  0  0  0  0
   -5.7206   23.1912  -33.2595 H   0  0  0  0  0  0  0  0  0  0  0  0
   -6.3340   24.9614  -31.8379 H   0  0  0  0  0  0  0  0  0  0  0  0
   -6.3050   26.0358  -29.5863 H   0  0  0  0  0  0  0  0  0  0  0  0
   -4.9763   25.0226  -27.7327 H   0  0  0  0  0  0  0  0  0  0  0  0
   -3.6710   22.9322  -28.1282 H   0  0  0  0  0  0  0  0  0  0  0  0
   -3.6937   21.8490  -30.3748 H   0  0  0  0  0  0  0  0  0  0  0  0
  1  2  1  0
  2  3  1  0
  3  4  1  0
  4  5  1  0
  3  6  1  0
  6  7  2  0
  7  8  1  0
  8  9  2  0
  9 10  1  0
 10 11  2  0
 11 12  1  0
 12 13  2  0
 13 14  1  0
 14 15  2  0
 15 16  1  0
 16 17  1  0
 17 18  2  0
 18 19  1  0
 19 20  2  0
 20 21  1  0
 21 22  2  0
 15  6  1  0
 22 17  1  0
 14  9  1  0
  1 23  1  0
  1 24  1  0
  1 25  1  0
  2 26  1  0
  2 27  1  0
  4 28  1  0
  4 29  1  0
  5 30  1  0
  5 31  1  0
  5 32  1  0
  7 33  1  0
  8 34  1  0
 10 35  1  0
 11 36  1  0
 12 37  1  0
 13 38  1  0
 16 39  1  0
 16 40  1  0
 18 41  1  0
 19 42  1  0
 20 43  1  0
 21 44  1  0
 22 45  1  0
M  CHG  1  15   1
M  END
>  <UniqueID>  (16) 
16

>  <SMILES>  (16) 
CCN(CC)c1ccc2ccccc2[n+]1Cc1ccccc1

>  <Energy>  (16) 
57.571847908705934

>  <Genealogy>  (16) 
CCN(CC)c1ccc2ccccc2[n+]1Cc1ccccc1 (3D coordinates assigned)
CCN(CC)c1ccc2ccccc2[n+]1Cc1ccccc1 (optimized conformer: 57.571847908705934 kcal/mol)

>  <smiles>  (16) 
CCN(CC)c1ccc2ccccc2[n+]1Cc1ccccc1

>  <score_type>  (16) 
oracle

>  <origin>  (16) 
adg

>  <m_score__min__energy>  (16) 
-6.79

>  <m_primary>  (16) 
energy

$$$$
16:0
     RDKit          3D

 67 69  0  0  0  0  0  0  0  0999 V2000
   -0.9440   26.8470  -24.1660 C   0  0  0  0  0  0  0  0  0  0  0  0
   -0.9230   26.9770  -25.6950 C   0  0  0  0  0  0  0  0  0  0  0  0
   -1.3300   25.7450  -26.4120 N   0  0  0  0  0  0  0  0  0  0  0  0
   -2.6770   25.2940  -26.0140 C   0  0  0  0  0  0  0  0  0  0  0  0
   -1.1960   25.8800  -27.8800 C   0  0  0  0  0  0  0  0  0  0  0  0
   -1.6810   24.6230  -28.6040 C   0  0  0  0  0  0  0  0  0  0  0  0
   -2.7840   24.9400  -29.4270 O   0  0  0  0  0  0  0  0  0  0  0  0
   -3.9270   24.2500  -28.9630 C   0  0  0  0  0  0  0  0  0  0  0  0
   -3.8980   22.8120  -29.4650 C   0  0  0  0  0  0  0  0  0  0  0  0
   -4.2490   22.7870  -30.8370 O   0  0  0  0  0  0  0  0  0  0  0  0
   -3.1500   23.0840  -31.6040 N   0  0  0  0  0  0  0  0  0  0  0  0
   -2.4180   21.8610  -31.9580 C   0  0  0  0  0  0  0  0  0  0  0  0
   -3.2040   21.0510  -33.0010 C   0  0  0  0  0  0  0  0  0  0  0  0
   -4.4610   21.7000  -33.4330 N   0  0  0  0  0  0  0  0  0  0  0  0
   -5.6470   20.9200  -33.1060 C   0  0  0  0  0  0  0  0  0  0  0  0
   -6.7330   21.5300  -32.4220 C   0  0  0  0  0  0  0  0  0  0  0  0
   -7.8620   20.7650  -32.0710 C   0  0  0  0  0  0  0  0  0  0  0  0
   -8.0000   19.4730  -32.5170 N   0  0  0  0  0  0  0  0  0  0  0  0
   -9.3170   18.8050  -32.4290 C   0  0  0  0  0  0  0  0  0  0  0  0
   -6.9180   18.8090  -33.0580 C   0  0  0  0  0  0  0  0  0  0  0  0
   -6.9520   17.4060  -33.2650 C   0  0  0  0  0  0  0  0  0  0  0  0
   -5.8810   16.7360  -33.8460 C   0  0  0  0  0  0  0  0  0  0  0  0
   -4.7520   17.4390  -34.2310 C   0  0  0  0  0  0  0  0  0  0  0  0
   -4.6690   18.8100  -34.0110 C   0  0  0  0  0  0  0  0  0  0  0  0
   -5.7310   19.5250  -33.3970 C   0  0  0  0  0  0  0  0  0  0  0  0
   -8.9200   21.4380  -31.2060 C   0  0  0  0  0  0  0  0  0  0  0  0
   -8.2610   22.2870  -30.1130 C   0  0  0  0  0  0  0  0  0  0  0  0
   -7.2100   23.2780  -30.6540 C   0  0  0  0  0  0  0  0  0  0  0  0
   -6.8020   23.0190  -32.1130 C   0  0  0  0  0  0  0  0  0  0  0  0
   -0.7842   27.8360  -23.7117 H   0  0  0  0  0  0  0  0  0  0  0  0
   -1.9181   26.4491  -23.8452 H   0  0  0  0  0  0  0  0  0  0  0  0
   -0.1448   26.1627  -23.8452 H   0  0  0  0  0  0  0  0  0  0  0  0
   -1.6096   27.7869  -25.9824 H   0  0  0  0  0  0  0  0  0  0  0  0
    0.1189   27.1819  -25.9820 H   0  0  0  0  0  0  0  0  0  0  0  0
   -2.7465   25.2707  -24.9164 H   0  0  0  0  0  0  0  0  0  0  0  0
   -3.4296   25.9892  -26.4144 H   0  0  0  0  0  0  0  0  0  0  0  0
   -2.8593   24.2858  -26.4144 H   0  0  0  0  0  0  0  0  0  0  0  0
   -1.7943   26.7397  -28.2162 H   0  0  0  0  0  0  0  0  0  0  0  0
   -0.1321   26.0270  -28.1179 H   0  0  0  0  0  0  0  0  0  0  0  0
   -0.8661   24.2216  -29.2243 H   0  0  0  0  0  0  0  0  0  0  0  0
   -1.9865   23.8713  -27.8612 H   0  0  0  0  0  0  0  0  0  0  0  0
   -3.9345   24.2532  -27.8630 H   0  0  0  0  0  0  0  0  0  0  0  0
   -4.8318   24.7492  -29.3401 H   0  0  0  0  0  0  0  0  0  0  0  0
   -2.8867   22.3986  -29.3370 H   0  0  0  0  0  0  0  0  0  0  0  0
   -4.6150   22.2071  -28.8906 H   0  0  0  0  0  0  0  0  0  0  0  0
   -2.5180   23.7970  -31.1660 H   0  0  0  0  0  0  0  0  0  0  0  0
   -1.4369   22.1332  -32.3743 H   0  0  0  0  0  0  0  0  0  0  0  0
   -2.2873   21.2482  -31.0539 H   0  0  0  0  0  0  0  0  0  0  0  0
   -2.5646   20.9094  -33.8848 H   0  0  0  0  0  0  0  0  0  0  0  0
   -3.4806   20.0979  -32.5265 H   0  0  0  0  0  0  0  0  0  0  0  0
   -4.5310   22.6390  -32.9790 H   0  0  0  0  0  0  0  0  0  0  0  0
   -4.3980   21.9540  -34.4400 H   0  0  0  0  0  0  0  0  0  0  0  0
   -9.5884   18.6673  -31.3719 H   0  0  0  0  0  0  0  0  0  0  0  0
  -10.0772   19.4265  -32.9248 H   0  0  0  0  0  0  0  0  0  0  0  0
   -9.2647   17.8245  -32.9248 H   0  0  0  0  0  0  0  0  0  0  0  0
   -7.8427   16.8372  -32.9600 H   0  0  0  0  0  0  0  0  0  0  0  0
   -5.9307   15.6479  -33.9997 H   0  0  0  0  0  0  0  0  0  0  0  0
   -3.9164   16.9106  -34.7133 H   0  0  0  0  0  0  0  0  0  0  0  0
   -3.7622   19.3512  -34.3190 H   0  0  0  0  0  0  0  0  0  0  0  0
   -9.5463   22.0847  -31.8381 H   0  0  0  0  0  0  0  0  0  0  0  0
   -9.5360   20.6612  -30.7294 H   0  0  0  0  0  0  0  0  0  0  0  0
   -9.0455   22.8591  -29.5961 H   0  0  0  0  0  0  0  0  0  0  0  0
   -7.7361   21.5950  -29.4380 H   0  0  0  0  0  0  0  0  0  0  0  0
   -7.6251   24.2944  -30.5858 H   0  0  0  0  0  0  0  0  0  0  0  0
   -6.3051   23.1491  -30.0420 H   0  0  0  0  0  0  0  0  0  0  0  0
   -7.5419   23.4874  -32.7787 H   0  0  0  0  0  0  0  0  0  0  0  0
   -5.8019   23.4489  -32.2711 H   0  0  0  0  0  0  0  0  0  0  0  0
  1  2  1  0
  2  3  1  0
  3  4  1  0
  3  5  1  0
  5  6  1  0
  6  7  1  0
  7  8  1  0
  8  9  1  0
  9 10  1  0
 10 11  1  0
 11 12  1  0
 12 13  1  0
 13 14  1  0
 14 15  1  0
 15 16  2  0
 16 17  1  0
 17 18  2  0
 18 19  1  0
 18 20  1  0
 20 21  2  0
 21 22  1  0
 22 23  2  0
 23 24  1  0
 24 25  2  0
 17 26  1  0
 26 27  1  0
 27 28  1  0
 28 29  1  0
 25 15  1  0
 29 16  1  0
 25 20  1  0
  1 30  1  0
  1 31  1  0
  1 32  1  0
  2 33  1  0
  2 34  1  0
  4 35  1  0
  4 36  1  0
  4 37  1  0
  5 38  1  0
  5 39  1  0
  6 40  1  0
  6 41  1  0
  8 42  1  0
  8 43  1  0
  9 44  1  0
  9 45  1  0
 11 46  1  0
 12 47  1  0
 12 48  1  0
 13 49  1  0
 13 50  1  0
 14 51  1  0
 14 52  1  0
 19 53  1  0
 19 54  1  0
 19 55  1  0
 21 56  1  0
 22 57  1  0
 23 58  1  0
 24 59  1  0
 26 60  1  0
 26 61  1  0
 27 62  1  0
 27 63  1  0
 28 64  1  0
 28 65  1  0
 29 66  1  0
 29 67  1  0
M  CHG  2  14   1  18   1
M  END
>  <UniqueID>  (17) 
17

>  <SMILES>  (17) 
CCN(C)CCOCCONCC[NH2+]c1c2c([n+](C)c3ccccc13)CCCC2

>  <Energy>  (17) 
95.5357124974467

>  <Genealogy>  (17) 
CCN(C)CCOCCONCC[NH2+]c1c2c([n+](C)c3ccccc13)CCCC2 (protonated)
CCN(C)CCOCCONCC[NH2+]c1c2c([n+](C)c3ccccc13)CCCC2 (3D coordinates assigned)
CCN(C)CCOCCONCC[NH2+]c1c2c([n+](C)c3ccccc13)CCCC2 (nonaromatic ring conformer: 95.5357124974467 kcal/mol)

>  <smiles>  (17) 
CCN(C)CCOCCONCCNc1c2c([n+](C)c3ccccc13)CCCC2

>  <score_type>  (17) 
oracle

>  <origin>  (17) 
adg

>  <m_score__min__energy>  (17) 
-8.4600000000000009

>  <m_primary>  (17) 
energy

$$$$
17:0
     RDKit          3D

 71 73  0  0  0  0  0  0  0  0999 V2000
   -2.1020   25.0650  -26.9330 C   0  0  0  0  0  0  0  0  0  0  0  0
   -1.3490   25.4340  -28.2060 C   0  0  0  0  0  0  0  0  0  0  0  0
   -2.1850   25.2760  -29.3360 O   0  0  0  0  0  0  0  0  0  0  0  0
   -3.0900   24.2080  -29.1380 C   0  0  0  0  0  0  0  0  0  0  0  0
   -3.6790   23.7880  -30.4780 C   0  0  0  0  0  0  0  0  0  0  0  0
   -4.6050   24.7640  -30.9100 O   0  0  0  0  0  0  0  0  0  0  0  0
   -5.5900   24.9910  -29.9150 C   0  0  0  0  0  0  0  0  0  0  0  0
   -6.8260   24.1310  -30.1990 C   0  0  0  0  0  0  0  0  0  0  0  0
   -6.7460   23.5110  -31.5330 N   0  0  0  0  0  0  0  0  0  0  0  0
   -8.0420   22.9530  -31.9600 C   0  0  0  0  0  0  0  0  0  0  0  0
   -8.6590   22.0280  -30.8990 C   0  0  0  0  0  0  0  0  0  0  0  0
   -8.8990   20.7330  -31.4480 O   0  0  0  0  0  0  0  0  0  0  0  0
   -7.9340   19.9270  -32.0740 C   0  0  0  0  0  0  0  0  0  0  0  0
   -8.2090   18.6030  -32.5020 C   0  0  0  0  0  0  0  0  0  0  0  0
   -7.2120   17.8270  -33.1150 C   0  0  0  0  0  0  0  0  0  0  0  0
   -5.9400   18.3870  -33.2830 C   0  0  0  0  0  0  0  0  0  0  0  0
   -5.6710   19.6720  -32.8750 C   0  0  0  0  0  0  0  0  0  0  0  0
   -6.6530   20.4710  -32.2810 C   0  0  0  0  0  0  0  0  0  0  0  0
   -4.3530   19.9440  -33.2090 C   0  0  0  0  0  0  0  0  0  0  0  0
   -3.6220   21.2130  -33.0040 C   0  0  0  0  0  0  0  0  0  0  0  0
   -4.2550   22.2650  -32.7180 O   0  0  0  0  0  0  0  0  0  0  0  0
   -2.2270   21.2440  -33.1190 O   0  0  0  0  0  0  0  0  0  0  0  0
   -1.3410   20.9260  -32.0480 C   0  0  0  0  0  0  0  0  0  0  0  0
   -2.1030   20.8290  -30.7310 C   0  0  0  0  0  0  0  0  0  0  0  0
   -3.8710   18.7720  -33.8050 C   0  0  0  0  0  0  0  0  0  0  0  0
   -2.4870   18.5980  -34.3690 C   0  0  0  0  0  0  0  0  0  0  0  0
   -4.8500   17.8270  -33.8540 N   0  0  0  0  0  0  0  0  0  0  0  0
   -4.7580   16.4960  -34.4720 C   0  0  0  0  0  0  0  0  0  0  0  0
   -4.1730   15.5020  -33.5030 C   0  0  0  0  0  0  0  0  0  0  0  0
   -2.8090   15.1670  -33.5600 C   0  0  0  0  0  0  0  0  0  0  0  0
   -2.2740   14.2420  -32.6580 C   0  0  0  0  0  0  0  0  0  0  0  0
   -3.0940   13.6480  -31.6950 C   0  0  0  0  0  0  0  0  0  0  0  0
   -4.4490   13.9790  -31.6290 C   0  0  0  0  0  0  0  0  0  0  0  0
   -4.9880   14.9060  -32.5270 C   0  0  0  0  0  0  0  0  0  0  0  0
   -1.5054   25.3574  -26.0563 H   0  0  0  0  0  0  0  0  0  0  0  0
   -3.0672   25.5922  -26.9120 H   0  0  0  0  0  0  0  0  0  0  0  0
   -2.2768   23.9792  -26.9120 H   0  0  0  0  0  0  0  0  0  0  0  0
   -1.0202   26.4817  -28.1419 H   0  0  0  0  0  0  0  0  0  0  0  0
   -0.4779   24.7705  -28.3107 H   0  0  0  0  0  0  0  0  0  0  0  0
   -2.5594   23.3563  -28.6874 H   0  0  0  0  0  0  0  0  0  0  0  0
   -3.8990   24.5320  -28.4668 H   0  0  0  0  0  0  0  0  0  0  0  0
   -2.8725   23.6934  -31.2200 H   0  0  0  0  0  0  0  0  0  0  0  0
   -4.1898   22.8201  -30.3677 H   0  0  0  0  0  0  0  0  0  0  0  0
   -5.1802   24.7264  -28.9291 H   0  0  0  0  0  0  0  0  0  0  0  0
   -5.8774   26.0527  -29.9254 H   0  0  0  0  0  0  0  0  0  0  0  0
   -6.8952   23.3393  -29.4385 H   0  0  0  0  0  0  0  0  0  0  0  0
   -7.7158   24.7770  -30.1669 H   0  0  0  0  0  0  0  0  0  0  0  0
   -6.0560   22.7250  -31.4980 H   0  0  0  0  0  0  0  0  0  0  0  0
   -6.4100   24.2080  -32.2380 H   0  0  0  0  0  0  0  0  0  0  0  0
   -8.7377   23.7829  -32.1529 H   0  0  0  0  0  0  0  0  0  0  0  0
   -7.8676   22.3547  -32.8664 H   0  0  0  0  0  0  0  0  0  0  0  0
   -7.9666   21.9388  -30.0489 H   0  0  0  0  0  0  0  0  0  0  0  0
   -9.6151   22.4566  -30.5640 H   0  0  0  0  0  0  0  0  0  0  0  0
   -9.2132   18.1798  -32.3523 H   0  0  0  0  0  0  0  0  0  0  0  0
   -7.4255   16.8030  -33.4553 H   0  0  0  0  0  0  0  0  0  0  0  0
   -6.4282   21.5052  -31.9812 H   0  0  0  0  0  0  0  0  0  0  0  0
   -0.8544   19.9616  -32.2558 H   0  0  0  0  0  0  0  0  0  0  0  0
   -0.5872   21.7226  -31.9634 H   0  0  0  0  0  0  0  0  0  0  0  0
   -1.3976   20.9188  -29.8918 H   0  0  0  0  0  0  0  0  0  0  0  0
   -2.8440   21.6401  -30.6755 H   0  0  0  0  0  0  0  0  0  0  0  0
   -2.6172   19.8582  -30.6755 H   0  0  0  0  0  0  0  0  0  0  0  0
   -1.7640   18.5071  -33.5450 H   0  0  0  0  0  0  0  0  0  0  0  0
   -2.4546   17.6887  -34.9872 H   0  0  0  0  0  0  0  0  0  0  0  0
   -2.2305   19.4710  -34.9872 H   0  0  0  0  0  0  0  0  0  0  0  0
   -5.7643   16.1640  -34.7674 H   0  0  0  0  0  0  0  0  0  0  0  0
   -4.1043   16.5586  -35.3544 H   0  0  0  0  0  0  0  0  0  0  0  0
   -2.1607   15.6338  -34.3162 H   0  0  0  0  0  0  0  0  0  0  0  0
   -1.2064   13.9817  -32.7066 H   0  0  0  0  0  0  0  0  0  0  0  0
   -2.6716   12.9188  -30.9880 H   0  0  0  0  0  0  0  0  0  0  0  0
   -5.0929   13.5104  -30.8702 H   0  0  0  0  0  0  0  0  0  0  0  0
   -6.0544   15.1692  -32.4685 H   0  0  0  0  0  0  0  0  0  0  0  0
  1  2  1  0
  2  3  1  0
  3  4  1  0
  4  5  1  0
  5  6  1  0
  6  7  1  0
  7  8  1  0
  8  9  1  0
  9 10  1  0
 10 11  1  0
 11 12  1  0
 12 13  1  0
 13 14  2  0
 14 15  1  0
 15 16  2  0
 16 17  1  0
 17 18  2  0
 17 19  1  0
 19 20  1  0
 20 21  2  0
 20 22  1  0
 22 23  1  0
 23 24  1  0
 19 25  2  0
 25 26  1  0
 25 27  1  0
 27 28  1  0
 28 29  1  0
 29 30  2  0
 30 31  1  0
 31 32  2  0
 32 33  1  0
 33 34  2  0
 18 13  1  0
 34 29  1  0
 27 16  1  0
  1 35  1  0
  1 36  1  0
  1 37  1  0
  2 38  1  0
  2 39  1  0
  4 40  1  0
  4 41  1  0
  5 42  1  0
  5 43  1  0
  7 44  1  0
  7 45  1  0
  8 46  1  0
  8 47  1  0
  9 48  1  0
  9 49  1  0
 10 50  1  0
 10 51  1  0
 11 52  1  0
 11 53  1  0
 14 54  1  0
 15 55  1  0
 18 56  1  0
 23 57  1  0
 23 58  1  0
 24 59  1  0
 24 60  1  0
 24 61  1  0
 26 62  1  0
 26 63  1  0
 26 64  1  0
 28 65  1  0
 28 66  1  0
 30 67  1  0
 31 68  1  0
 32 69  1  0
 33 70  1  0
 34 71  1  0
M  CHG  1   9   1
M  END
>  <UniqueID>  (18) 
18

>  <SMILES>  (18) 
CCOCCOCC[NH2+]CCOc1ccc2c(c1)c(C(=O)OCC)c(C)n2Cc1ccccc1

>  <Energy>  (18) 
99.5925996342293

>  <Genealogy>  (18) 
CCOCCOCC[NH2+]CCOc1ccc2c(c1)c(C(=O)OCC)c(C)n2Cc1ccccc1 (protonated)
CCOCCOCC[NH2+]CCOc1ccc2c(c1)c(C(=O)OCC)c(C)n2Cc1ccccc1 (3D coordinates assigned)
CCOCCOCC[NH2+]CCOc1ccc2c(c1)c(C(=O)OCC)c(C)n2Cc1ccccc1 (optimized conformer: 99.5925996342293 kcal/mol)

>  <smiles>  (18) 
CCOCCOCCNCCOc1ccc2c(c1)c(C(=O)OCC)c(C)n2Cc1ccccc1

>  <score_type>  (18) 
oracle

>  <origin>  (18) 
adg

>  <m_score__min__energy>  (18) 
-7.6799999999999997

>  <m_primary>  (18) 
energy

$$$$
18:0
     RDKit          3D

 36 36  0  0  0  0  0  0  0  0999 V2000
   -6.1100   25.6150  -29.3320 C   0  0  0  0  0  0  0  0  0  0  0  0
   -5.6210   25.6740  -30.7710 C   0  0  0  0  0  0  0  0  0  0  0  0
   -4.2810   25.2140  -30.8360 O   0  0  0  0  0  0  0  0  0  0  0  0
   -3.9390   23.9960  -30.2940 N   0  0  0  0  0  0  0  0  0  0  0  0
   -3.4950   23.0440  -31.0500 C   0  0  0  0  0  0  0  0  0  0  0  0
   -4.4350   22.2330  -31.9040 C   0  0  2  0  0  0  0  0  0  0  0  0
   -3.6730   21.5980  -33.0690 C   0  0  0  0  0  0  0  0  0  0  0  0
   -5.5470   23.0440  -32.4280 N   0  0  0  0  0  0  0  0  0  0  0  0
   -7.0770   22.5830  -31.7300 S   0  0  0  0  0  0  0  0  0  0  0  0
   -7.0320   22.8260  -30.2470 O   0  0  0  0  0  0  0  0  0  0  0  0
   -8.1810   23.4220  -32.3150 O   0  0  0  0  0  0  0  0  0  0  0  0
   -7.3930   20.8710  -32.0110 C   0  0  0  0  0  0  0  0  0  0  0  0
   -8.4610   20.2260  -31.3710 C   0  0  0  0  0  0  0  0  0  0  0  0
   -8.7320   18.8810  -31.6410 C   0  0  0  0  0  0  0  0  0  0  0  0
   -7.9390   18.1740  -32.5480 C   0  0  0  0  0  0  0  0  0  0  0  0
   -6.8700   18.8100  -33.1970 C   0  0  0  0  0  0  0  0  0  0  0  0
   -6.0180   18.0370  -34.1600 C   0  0  0  0  0  0  0  0  0  0  0  0
   -6.5980   20.1590  -32.9190 C   0  0  0  0  0  0  0  0  0  0  0  0
   -5.2537   25.7183  -28.6492 H   0  0  0  0  0  0  0  0  0  0  0  0
   -6.8225   26.4337  -29.1530 H   0  0  0  0  0  0  0  0  0  0  0  0
   -6.6074   24.6503  -29.1530 H   0  0  0  0  0  0  0  0  0  0  0  0
   -6.2583   25.0360  -31.4009 H   0  0  0  0  0  0  0  0  0  0  0  0
   -5.6694   26.7121  -31.1316 H   0  0  0  0  0  0  0  0  0  0  0  0
   -2.4174   22.8240  -31.0694 H   0  0  0  0  0  0  0  0  0  0  0  0
   -4.8622   21.4480  -31.2627 H   0  0  0  0  0  0  0  0  0  0  0  0
   -2.8838   20.9403  -32.6759 H   0  0  0  0  0  0  0  0  0  0  0  0
   -4.3687   21.0086  -33.6843 H   0  0  0  0  0  0  0  0  0  0  0  0
   -3.2187   22.3886  -33.6843 H   0  0  0  0  0  0  0  0  0  0  0  0
   -5.3860   24.0560  -32.2170 H   0  0  0  0  0  0  0  0  0  0  0  0
   -9.0868   20.7791  -30.6552 H   0  0  0  0  0  0  0  0  0  0  0  0
   -9.5715   18.3786  -31.1381 H   0  0  0  0  0  0  0  0  0  0  0  0
   -8.1534   17.1150  -32.7541 H   0  0  0  0  0  0  0  0  0  0  0  0
   -5.3168   17.4008  -33.6001 H   0  0  0  0  0  0  0  0  0  0  0  0
   -6.6598   17.4066  -34.7930 H   0  0  0  0  0  0  0  0  0  0  0  0
   -5.4528   18.7369  -34.7930 H   0  0  0  0  0  0  0  0  0  0  0  0
   -5.7552   20.6603  -33.4173 H   0  0  0  0  0  0  0  0  0  0  0  0
  1  2  1  0
  2  3  1  0
  3  4  1  0
  4  5  2  3
  5  6  1  0
  6  7  1  0
  6  8  1  0
  8  9  1  0
  9 10  2  0
  9 11  2  0
  9 12  1  0
 12 13  2  0
 13 14  1  0
 14 15  2  0
 15 16  1  0
 16 17  1  0
 16 18  2  0
 18 12  1  0
  1 19  1  0
  1 20  1  0
  1 21  1  0
  2 22  1  0
  2 23  1  0
  5 24  1  0
  6 25  1  1
  7 26  1  0
  7 27  1  0
  7 28  1  0
  8 29  1  0
 13 30  1  0
 14 31  1  0
 15 32  1  0
 17 33  1  0
 17 34  1  0
 17 35  1  0
 18 36  1  0
M  END
>  <UniqueID>  (19) 
19

>  <SMILES>  (19) 
CCON=C[C@H](C)NS(=O)(=O)c1cccc(C)c1

>  <Energy>  (19) 
18.465089280138837

>  <Genealogy>  (19) 
CCON=C[C@H](C)NS(=O)(=O)c1cccc(C)c1 (chirality)
CCON=C[C@H](C)NS(=O)(=O)c1cccc(C)c1 (3D coordinates assigned)
CCON=C[C@H](C)NS(=O)(=O)c1cccc(C)c1 (optimized conformer: 18.465089280138837 kcal/mol)

>  <smiles>  (19) 
CCON=CC(C)NS(=O)(=O)c1cccc(C)c1

>  <score_type>  (19) 
oracle

>  <origin>  (19) 
adg

>  <m_score__min__energy>  (19) 
-7.5599999999999996

>  <m_primary>  (19) 
energy

$$$$
19:0
     RDKit          3D

 65 68  0  0  0  0  0  0  0  0999 V2000
   -3.9340   22.8090  -28.2130 C   0  0  0  0  0  0  0  0  0  0  0  0
   -3.4840   21.6820  -29.1480 C   0  0  0  0  0  0  0  0  0  0  0  0
   -2.4990   20.7860  -28.5120 N   0  0  0  0  0  0  0  0  0  0  0  0
   -2.8310   20.5130  -27.1020 C   0  0  0  0  0  0  0  0  0  0  0  0
   -2.6150   19.0320  -26.7330 C   0  0  0  0  0  0  0  0  0  0  0  0
   -1.2290   18.4990  -27.1100 C   0  0  0  0  0  0  0  0  0  0  0  0
   -0.5840   19.4120  -27.9740 O   0  0  0  0  0  0  0  0  0  0  0  0
    0.3420   18.7230  -28.7860 C   0  0  0  0  0  0  0  0  0  0  0  0
    0.3100   19.3200  -30.1900 C   0  0  0  0  0  0  0  0  0  0  0  0
   -0.7010   20.3060  -30.2850 O   0  0  0  0  0  0  0  0  0  0  0  0
   -1.5490   20.0550  -31.3870 C   0  0  0  0  0  0  0  0  0  0  0  0
   -1.7270   21.3390  -32.1980 C   0  0  0  0  0  0  0  0  0  0  0  0
   -2.6050   21.1150  -33.3460 N   0  0  0  0  0  0  0  0  0  0  0  0
   -3.6880   20.1750  -33.2950 C   0  0  0  0  0  0  0  0  0  0  0  0
   -4.9390   20.5620  -32.8280 C   0  0  0  0  0  0  0  0  0  0  0  0
   -5.9810   19.6560  -32.7260 C   0  0  0  0  0  0  0  0  0  0  0  0
   -5.7990   18.3200  -32.9790 N   0  0  0  0  0  0  0  0  0  0  0  0
   -6.8210   17.3460  -32.5590 C   0  0  0  0  0  0  0  0  0  0  0  0
   -4.6150   17.9150  -33.5750 C   0  0  0  0  0  0  0  0  0  0  0  0
   -4.4380   16.5980  -34.0630 C   0  0  0  0  0  0  0  0  0  0  0  0
   -3.2260   16.1950  -34.6230 C   0  0  0  0  0  0  0  0  0  0  0  0
   -2.1660   17.0910  -34.7270 C   0  0  0  0  0  0  0  0  0  0  0  0
   -2.3150   18.4060  -34.2920 C   0  0  0  0  0  0  0  0  0  0  0  0
   -3.5310   18.8420  -33.7290 C   0  0  0  0  0  0  0  0  0  0  0  0
   -7.1940   20.3990  -32.3010 C   0  0  0  0  0  0  0  0  0  0  0  0
   -8.5450   20.0230  -32.2360 C   0  0  0  0  0  0  0  0  0  0  0  0
   -9.4990   20.9920  -31.8810 C   0  0  0  0  0  0  0  0  0  0  0  0
   -9.1110   22.3240  -31.6440 C   0  0  0  0  0  0  0  0  0  0  0  0
   -7.7690   22.7050  -31.7770 C   0  0  0  0  0  0  0  0  0  0  0  0
   -6.8340   21.7260  -32.1100 C   0  0  0  0  0  0  0  0  0  0  0  0
   -5.4270   21.8820  -32.4370 C   0  0  0  0  0  0  0  0  0  0  0  0
   -4.7810   22.9630  -32.4580 O   0  0  0  0  0  0  0  0  0  0  0  0
   -3.8070   22.4909  -27.1677 H   0  0  0  0  0  0  0  0  0  0  0  0
   -3.3250   23.7057  -28.4000 H   0  0  0  0  0  0  0  0  0  0  0  0
   -4.9932   23.0396  -28.4000 H   0  0  0  0  0  0  0  0  0  0  0  0
   -4.3647   21.0903  -29.4382 H   0  0  0  0  0  0  0  0  0  0  0  0
   -3.0033   22.1430  -30.0235 H   0  0  0  0  0  0  0  0  0  0  0  0
   -1.5690   21.2660  -28.5520 H   0  0  0  0  0  0  0  0  0  0  0  0
   -2.4280   19.8890  -29.0500 H   0  0  0  0  0  0  0  0  0  0  0  0
   -2.1910   21.1358  -26.4597 H   0  0  0  0  0  0  0  0  0  0  0  0
   -3.8951   20.7482  -26.9523 H   0  0  0  0  0  0  0  0  0  0  0  0
   -2.7454   18.9223  -25.6463 H   0  0  0  0  0  0  0  0  0  0  0  0
   -3.3506   18.4476  -27.3052 H   0  0  0  0  0  0  0  0  0  0  0  0
   -0.6267   18.3709  -26.1985 H   0  0  0  0  0  0  0  0  0  0  0  0
   -1.3387   17.5310  -27.6208 H   0  0  0  0  0  0  0  0  0  0  0  0
    1.3523   18.8272  -28.3636 H   0  0  0  0  0  0  0  0  0  0  0  0
    0.0777   17.6561  -28.8291 H   0  0  0  0  0  0  0  0  0  0  0  0
    1.2851   19.7786  -30.4110 H   0  0  0  0  0  0  0  0  0  0  0  0
    0.0958   18.5191  -30.9130 H   0  0  0  0  0  0  0  0  0  0  0  0
   -1.1013   19.2782  -32.0243 H   0  0  0  0  0  0  0  0  0  0  0  0
   -2.5293   19.7125  -31.0240 H   0  0  0  0  0  0  0  0  0  0  0  0
   -2.1679   22.1137  -31.5534 H   0  0  0  0  0  0  0  0  0  0  0  0
   -0.7419   21.6604  -32.5671 H   0  0  0  0  0  0  0  0  0  0  0  0
   -2.3740   21.5690  -34.2590 H   0  0  0  0  0  0  0  0  0  0  0  0
   -6.8613   17.3076  -31.4604 H   0  0  0  0  0  0  0  0  0  0  0  0
   -7.8021   17.6517  -32.9515 H   0  0  0  0  0  0  0  0  0  0  0  0
   -6.5628   16.3514  -32.9515 H   0  0  0  0  0  0  0  0  0  0  0  0
   -5.2698   15.8810  -33.9995 H   0  0  0  0  0  0  0  0  0  0  0  0
   -3.1071   15.1630  -34.9846 H   0  0  0  0  0  0  0  0  0  0  0  0
   -1.2078   16.7598  -35.1539 H   0  0  0  0  0  0  0  0  0  0  0  0
   -1.4757   19.1105  -34.3889 H   0  0  0  0  0  0  0  0  0  0  0  0
   -8.8509   18.9901  -32.4586 H   0  0  0  0  0  0  0  0  0  0  0  0
  -10.5574   20.7071  -31.7876 H   0  0  0  0  0  0  0  0  0  0  0  0
   -9.8652   23.0699  -31.3528 H   0  0  0  0  0  0  0  0  0  0  0  0
   -7.4612   23.7497  -31.6226 H   0  0  0  0  0  0  0  0  0  0  0  0
  1  2  1  0
  2  3  1  0
  3  4  1  0
  4  5  1  0
  5  6  1  0
  6  7  1  0
  7  8  1  0
  8  9  1  0
  9 10  1  0
 10 11  1  0
 11 12  1  0
 12 13  1  0
 13 14  1  0
 14 15  2  0
 15 16  1  0
 16 17  2  0
 17 18  1  0
 17 19  1  0
 19 20  2  0
 20 21  1  0
 21 22  2  0
 22 23  1  0
 23 24  2  0
 16 25  1  0
 25 26  2  0
 26 27  1  0
 27 28  2  0
 28 29  1  0
 29 30  2  0
 30 31  1  0
 31 32  2  0
 24 14  1  0
 30 25  1  0
 31 15  1  0
 24 19  1  0
  1 33  1  0
  1 34  1  0
  1 35  1  0
  2 36  1  0
  2 37  1  0
  3 38  1  0
  3 39  1  0
  4 40  1  0
  4 41  1  0
  5 42  1  0
  5 43  1  0
  6 44  1  0
  6 45  1  0
  8 46  1  0
  8 47  1  0
  9 48  1  0
  9 49  1  0
 11 50  1  0
 11 51  1  0
 12 52  1  0
 12 53  1  0
 13 54  1  0
 18 55  1  0
 18 56  1  0
 18 57  1  0
 20 58  1  0
 21 59  1  0
 22 60  1  0
 23 61  1  0
 26 62  1  0
 27 63  1  0
 28 64  1  0
 29 65  1  0
M  CHG  2   3   1  17   1
M  END
>  <UniqueID>  (20) 
20

>  <SMILES>  (20) 
CC[NH2+]CCCOCCOCCNc1c2c([n+](C)c3ccccc13)-c1ccccc1C2=O

>  <Energy>  (20) 
115.19094035361078

>  <Genealogy>  (20) 
CC[NH2+]CCCOCCOCCNc1c2c([n+](C)c3ccccc13)-c1ccccc1C2=O (protonated)
CC[NH2+]CCCOCCOCCNc1c2c([n+](C)c3ccccc13)-c1ccccc1C2=O (3D coordinates assigned)
CC[NH2+]CCCOCCOCCNc1c2c([n+](C)c3ccccc13)-c1ccccc1C2=O (nonaromatic ring conformer: 115.19094035361078 kcal/mol)

>  <smiles>  (20) 
CCNCCCOCCOCCNc1c2c([n+](C)c3ccccc13)-c1ccccc1C2=O

>  <score_type>  (20) 
oracle

>  <origin>  (20) 
adg

>  <m_score__min__energy>  (20) 
-10.15

>  <m_primary>  (20) 
energy

$$$$
