0:0
     RDKit          3D

 60 62  0  0  0  0  0  0  0  0999 V2000
   -2.7380   19.9850  -27.3940 C   0  0  0  0  0  0  0  0  0  0  0  0
   -2.8760   20.8520  -28.6510 C   0  0  0  0  0  0  0  0  0  0  0  0
   -1.6130   20.9710  -29.3950 N   0  0  0  0  0  0  0  0  0  0  0  0
   -0.4390   20.9440  -28.5150 C   0  0  0  0  0  0  0  0  0  0  0  0
    0.3290   19.6340  -28.7220 C   0  0  0  0  0  0  0  0  0  0  0  0
   -0.1900   18.9240  -29.8350 O   0  0  0  0  0  0  0  0  0  0  0  0
    0.7350   18.8930  -30.9060 C   0  0  0  0  0  0  0  0  0  0  0  0
    0.2690   19.8070  -32.0460 C   0  0  0  0  0  0  0  0  0  0  0  0
   -1.1400   19.7860  -32.1670 O   0  0  0  0  0  0  0  0  0  0  0  0
   -1.5840   20.3700  -33.3790 C   0  0  0  0  0  0  0  0  0  0  0  0
   -2.7200   21.3530  -33.0800 C   0  0  0  0  0  0  0  0  0  0  0  0
   -3.3780   21.0570  -31.8030 N   0  0  0  0  0  0  0  0  0  0  0  0
   -4.7920   21.2340  -31.5930 C   0  0  0  0  0  0  0  0  0  0  0  0
   -5.3050   22.4670  -31.1480 C   0  0  0  0  0  0  0  0  0  0  0  0
   -4.4510   23.5410  -30.8200 C   0  0  0  0  0  0  0  0  0  0  0  0
   -4.9740   24.7680  -30.4130 C   0  0  0  0  0  0  0  0  0  0  0  0
   -6.3500   24.9400  -30.3120 C   0  0  0  0  0  0  0  0  0  0  0  0
   -7.2100   23.8770  -30.5800 C   0  0  0  0  0  0  0  0  0  0  0  0
   -6.7050   22.6110  -30.9710 C   0  0  0  0  0  0  0  0  0  0  0  0
   -7.5450   21.5310  -31.1580 N   0  0  0  0  0  0  0  0  0  0  0  0
   -8.8480   21.5230  -30.4590 C   0  0  0  0  0  0  0  0  0  0  0  0
   -7.0840   20.3950  -31.7990 C   0  0  0  0  0  0  0  0  0  0  0  0
   -7.9560   19.4120  -32.3750 C   0  0  0  0  0  0  0  0  0  0  0  0
   -9.4040   19.6770  -32.7170 C   0  0  0  0  0  0  0  0  0  0  0  0
   -7.4330   18.1770  -32.7850 C   0  0  0  0  0  0  0  0  0  0  0  0
   -6.0650   17.9370  -32.7510 C   0  0  0  0  0  0  0  0  0  0  0  0
   -5.1930   18.9440  -32.3570 C   0  0  0  0  0  0  0  0  0  0  0  0
   -5.6820   20.1870  -31.9100 C   0  0  0  0  0  0  0  0  0  0  0  0
   -2.8386   20.6173  -26.4996 H   0  0  0  0  0  0  0  0  0  0  0  0
   -3.5252   19.2166  -27.3903 H   0  0  0  0  0  0  0  0  0  0  0  0
   -1.7512   19.4990  -27.3903 H   0  0  0  0  0  0  0  0  0  0  0  0
   -3.6322   20.4002  -29.3098 H   0  0  0  0  0  0  0  0  0  0  0  0
   -3.1708   21.8618  -28.3296 H   0  0  0  0  0  0  0  0  0  0  0  0
   -1.5410   20.1890  -30.0900 H   0  0  0  0  0  0  0  0  0  0  0  0
    0.2168   21.7944  -28.7534 H   0  0  0  0  0  0  0  0  0  0  0  0
   -0.7664   21.0137  -27.4672 H   0  0  0  0  0  0  0  0  0  0  0  0
    1.3904   19.8610  -28.9005 H   0  0  0  0  0  0  0  0  0  0  0  0
    0.2204   19.0120  -27.8213 H   0  0  0  0  0  0  0  0  0  0  0  0
    1.7167   19.2350  -30.5463 H   0  0  0  0  0  0  0  0  0  0  0  0
    0.8070   17.8624  -31.2836 H   0  0  0  0  0  0  0  0  0  0  0  0
    0.5972   20.8363  -31.8392 H   0  0  0  0  0  0  0  0  0  0  0  0
    0.7076   19.4452  -32.9877 H   0  0  0  0  0  0  0  0  0  0  0  0
   -0.7501   20.9059  -33.8559 H   0  0  0  0  0  0  0  0  0  0  0  0
   -1.9462   19.5829  -34.0567 H   0  0  0  0  0  0  0  0  0  0  0  0
   -2.3072   22.3718  -33.0395 H   0  0  0  0  0  0  0  0  0  0  0  0
   -3.4700   21.2603  -33.8793 H   0  0  0  0  0  0  0  0  0  0  0  0
   -2.8370   20.5340  -31.0800 H   0  0  0  0  0  0  0  0  0  0  0  0
   -3.3609   23.4091  -30.8860 H   0  0  0  0  0  0  0  0  0  0  0  0
   -4.2971   25.6008  -30.1716 H   0  0  0  0  0  0  0  0  0  0  0  0
   -6.7607   25.9177  -30.0198 H   0  0  0  0  0  0  0  0  0  0  0  0
   -8.2964   24.0220  -30.4869 H   0  0  0  0  0  0  0  0  0  0  0  0
   -8.6809   21.5240  -29.3718 H   0  0  0  0  0  0  0  0  0  0  0  0
   -9.4217   22.4176  -30.7426 H   0  0  0  0  0  0  0  0  0  0  0  0
   -9.4107   20.6214  -30.7426 H   0  0  0  0  0  0  0  0  0  0  0  0
   -9.9862   19.7835  -31.7898 H   0  0  0  0  0  0  0  0  0  0  0  0
   -9.4782   20.6036  -33.3051 H   0  0  0  0  0  0  0  0  0  0  0  0
   -9.8016   18.8367  -33.3051 H   0  0  0  0  0  0  0  0  0  0  0  0
   -8.1143   17.3887  -33.1378 H   0  0  0  0  0  0  0  0  0  0  0  0
   -5.6724   16.9497  -33.0360 H   0  0  0  0  0  0  0  0  0  0  0  0
   -4.1077   18.7686  -32.3945 H   0  0  0  0  0  0  0  0  0  0  0  0
  1  2  1  0
  2  3  1  0
  3  4  1  0
  4  5  1  0
  5  6  1  0
  6  7  1  0
  7  8  1  0
  8  9  1  0
  9 10  1  0
 10 11  1  0
 11 12  1  0
 12 13  1  0
 13 14  2  0
 14 15  1  0
 15 16  2  0
 16 17  1  0
 17 18  2  0
 18 19  1  0
 19 20  2  0
 20 21  1  0
 20 22  1  0
 22 23  2  0
 23 24  1  0
 23 25  1  0
 25 26  2  0
 26 27  1  0
 27 28  2  0
 28 13  1  0
 19 14  1  0
 28 22  1  0
  1 29  1  0
  1 30  1  0
  1 31  1  0
  2 32  1  0
  2 33  1  0
  3 34  1  0
  4 35  1  0
  4 36  1  0
  5 37  1  0
  5 38  1  0
  7 39  1  0
  7 40  1  0
  8 41  1  0
  8 42  1  0
 10 43  1  0
 10 44  1  0
 11 45  1  0
 11 46  1  0
 12 47  1  0
 15 48  1  0
 16 49  1  0
 17 50  1  0
 18 51  1  0
 21 52  1  0
 21 53  1  0
 21 54  1  0
 24 55  1  0
 24 56  1  0
 24 57  1  0
 25 58  1  0
 26 59  1  0
 27 60  1  0
M  CHG  1  20   1
M  END
>  <UniqueID>  (1) 
1

>  <SMILES>  (1) 
CCNCCOCCOCCNc1c2ccccc2[n+](C)c2c(C)cccc12

>  <Energy>  (1) 
96.59540624773012

>  <Genealogy>  (1) 
CCNCCOCCOCCNc1c2ccccc2[n+](C)c2c(C)cccc12 (3D coordinates assigned)
CCNCCOCCOCCNc1c2ccccc2[n+](C)c2c(C)cccc12 (optimized conformer: 96.59540624773012 kcal/mol)

>  <smiles>  (1) 
CCNCCOCCOCCNc1c2ccccc2[n+](C)c2c(C)cccc12

>  <score_type>  (1) 
oracle

>  <origin>  (1) 
adg

>  <m_score__min__energy>  (1) 
-9.7200000000000006

>  <m_primary>  (1) 
energy

$$$$
1:0
     RDKit          3D

 41 43  0  0  0  0  0  0  0  0999 V2000
   -3.6283   22.4090  -27.1611 H   0  0  0  0  0  0  0  0  0  0  0  0
   -3.5220   22.6170  -28.2360 C   0  0  0  0  0  0  0  0  0  0  0  0
   -3.8100   23.8500  -28.7190 N   0  0  0  0  0  0  0  0  0  0  0  0
   -3.6970   24.1260  -30.0470 C   0  0  0  0  0  0  0  0  0  0  0  0
   -3.9890   25.3030  -30.5150 N   0  0  0  0  0  0  0  0  0  0  0  0
   -5.3170   25.9130  -30.4790 C   0  0  0  0  0  0  0  0  0  0  0  0
   -5.5524   26.3237  -31.4719 H   0  0  0  0  0  0  0  0  0  0  0  0
   -5.3174   26.7131  -29.7242 H   0  0  0  0  0  0  0  0  0  0  0  0
   -6.3760   24.8820  -30.1000 C   0  0  0  0  0  0  0  0  0  0  0  0
   -6.4459   24.8139  -29.0043 H   0  0  0  0  0  0  0  0  0  0  0  0
   -7.3493   25.1879  -30.5112 H   0  0  0  0  0  0  0  0  0  0  0  0
   -6.0963   23.9009  -30.5112 H   0  0  0  0  0  0  0  0  0  0  0  0
   -3.2760   23.1570  -30.9000 N   0  0  0  0  0  0  0  0  0  0  0  0
   -2.9100   21.9180  -30.4620 C   0  0  0  0  0  0  0  0  0  0  0  0
   -2.5700   20.8870  -31.4270 N   0  0  2  0  0  0  0  0  0  0  0  0
   -2.3090   19.9990  -30.9350 H   0  0  0  0  0  0  0  0  0  0  0  0
   -1.5480   21.2500  -32.4270 C   0  0  0  0  0  0  0  0  0  0  0  0
   -1.2557   22.3097  -32.3868 H   0  0  0  0  0  0  0  0  0  0  0  0
   -0.5609   20.7680  -32.3705 H   0  0  0  0  0  0  0  0  0  0  0  0
   -2.4540   20.9190  -33.6020 C   0  0  0  0  0  0  0  0  0  0  0  0
   -2.6851   21.7648  -34.2662 H   0  0  0  0  0  0  0  0  0  0  0  0
   -2.1754   20.2004  -34.3868 H   0  0  0  0  0  0  0  0  0  0  0  0
   -3.5100   20.6200  -32.5430 C   0  0  2  0  0  0  0  0  0  0  0  0
   -4.0288   19.6500  -32.5378 H   0  0  0  0  0  0  0  0  0  0  0  0
   -4.7650   21.4800  -32.6390 C   0  0  0  0  0  0  0  0  0  0  0  0
   -4.6350   22.6730  -33.0230 O   0  0  0  0  0  0  0  0  0  0  0  0
   -6.0670   21.0160  -32.2440 N   0  0  0  0  0  0  0  0  0  0  0  0
   -6.9270   21.8060  -31.3830 C   0  0  0  0  0  0  0  0  0  0  0  0
   -6.4522   21.9596  -30.4027 H   0  0  0  0  0  0  0  0  0  0  0  0
   -7.1214   22.8026  -31.8060 H   0  0  0  0  0  0  0  0  0  0  0  0
   -8.2080   20.9990  -31.2320 C   0  0  0  0  0  0  0  0  0  0  0  0
   -8.2093   20.4565  -30.2751 H   0  0  0  0  0  0  0  0  0  0  0  0
   -9.0985   21.6448  -31.2373 H   0  0  0  0  0  0  0  0  0  0  0  0
   -8.2160   20.0180  -32.4000 C   0  0  0  0  0  0  0  0  0  0  0  0
   -8.5955   19.0384  -32.0738 H   0  0  0  0  0  0  0  0  0  0  0  0
   -8.8689   20.3659  -33.2141 H   0  0  0  0  0  0  0  0  0  0  0  0
   -6.7680   19.8990  -32.8580 C   0  0  0  0  0  0  0  0  0  0  0  0
   -6.3368   18.9444  -32.5220 H   0  0  0  0  0  0  0  0  0  0  0  0
   -6.6862   19.9223  -33.9547 H   0  0  0  0  0  0  0  0  0  0  0  0
   -3.0910   21.6120  -29.1010 C   0  0  0  0  0  0  0  0  0  0  0  0
   -2.8958   20.5967  -28.7254 H   0  0  0  0  0  0  0  0  0  0  0  0
  1  2  1  0
  2  3  1  0
  3  4  1  0
  4  5  2  0
  5  6  1  0
  6  7  1  0
  6  8  1  0
  6  9  1  0
  9 10  1  0
  9 11  1  0
  9 12  1  0
  4 13  1  0
 13 14  2  0
 14 15  1  0
 15 16  1  1
 15 17  1  0
 17 18  1  0
 17 19  1  0
 17 20  1  0
 20 21  1  0
 20 22  1  0
 20 23  1  0
 23 24  1  1
 23 25  1  0
 25 26  2  0
 25 27  1  0
 27 28  1  0
 28 29  1  0
 28 30  1  0
 28 31  1  0
 31 32  1  0
 31 33  1  0
 31 34  1  0
 34 35  1  0
 34 36  1  0
 34 37  1  0
 37 38  1  0
 37 39  1  0
 14 40  1  0
 40 41  1  0
 40  2  2  0
 23 15  1  0
 37 27  1  0
M  CHG  2   3  -1  15   1
M  END
>  <UniqueID>  (2) 
2

>  <SMILES>  (2) 
CC/N=c1/nc([N@@H+]2CC[C@@H]2C(=O)N2CCCC2)cc[n-]1

>  <Energy>  (2) 
126.46690480427641

>  <Genealogy>  (2) 
CCN=c1nc([NH+]2CCC2C(=O)N2CCCC2)cc[n-]1 (protonated)
CCN=c1nc([N@@H+]2CC[C@@H]2C(=O)N2CCCC2)cc[n-]1 (chirality)
CC/N=c1/nc([N@@H+]2CC[C@@H]2C(=O)N2CCCC2)cc[n-]1 (cis-trans isomerization)
CC/N=c1/nc([N@@H+]2CC[C@@H]2C(=O)N2CCCC2)cc[n-]1 (3D coordinates assigned)
CC/N=c1/nc([N@@H+]2CC[C@@H]2C(=O)N2CCCC2)cc[n-]1 (nonaromatic ring conformer: 126.46690480427641 kcal/mol)

>  <smiles>  (2) 
CCN=c1nc(N2CCC2C(=O)N2CCCC2)cc[nH]1

>  <score_type>  (2) 
oracle

>  <origin>  (2) 
adg

>  <m_score__min__energy>  (2) 
-7.2400000000000002

>  <m_primary>  (2) 
energy

$$$$
2:0
     RDKit          3D

 47 50  0  0  0  0  0  0  0  0999 V2000
   -3.5330   20.6690  -30.2600 C   0  0  0  0  0  0  0  0  0  0  0  0
   -3.5340   21.1600  -31.6380 N   0  0  0  0  0  0  0  0  0  0  0  0
   -4.1670   22.2350  -32.1690 C   0  0  0  0  0  0  0  0  0  0  0  0
   -5.0210   23.1940  -31.4410 C   0  0  0  0  0  0  0  0  0  0  0  0
   -6.3800   22.9420  -31.1990 C   0  0  0  0  0  0  0  0  0  0  0  0
   -7.1340   23.8730  -30.4790 C   0  0  0  0  0  0  0  0  0  0  0  0
   -6.5290   25.0320  -29.9950 C   0  0  0  0  0  0  0  0  0  0  0  0
   -5.1680   25.2400  -30.2300 C   0  0  0  0  0  0  0  0  0  0  0  0
   -4.4520   24.3250  -30.9360 N   0  0  0  0  0  0  0  0  0  0  0  0
   -3.9570   22.3200  -33.5000 N   0  0  0  0  0  0  0  0  0  0  0  0
   -3.1640   21.3110  -33.8180 N   0  0  0  0  0  0  0  0  0  0  0  0
   -2.9080   20.6140  -32.7000 C   0  0  0  0  0  0  0  0  0  0  0  0
   -1.8760   19.1460  -32.6580 S   0  0  0  0  0  0  0  0  0  0  0  0
   -3.2690   18.0130  -32.9940 C   0  0  0  0  0  0  0  0  0  0  0  0
   -4.0110   18.4040  -34.2780 C   0  0  0  0  0  0  0  0  0  0  0  0
   -5.2450   17.5250  -34.5460 C   0  0  0  0  0  0  0  0  0  0  0  0
   -6.4730   18.1250  -33.9880 N   0  0  0  0  0  0  0  0  0  0  0  0
   -6.8750   17.5100  -32.6770 C   0  0  0  0  0  0  0  0  0  0  0  0
   -7.6670   18.5100  -31.7970 C   0  0  1  0  0  0  0  0  0  0  0  0
   -6.7600   19.7140  -31.5740 C   0  0  0  0  0  0  0  0  0  0  0  0
   -7.2960   20.2470  -32.8970 C   0  0  2  0  0  0  0  0  0  0  0  0
   -8.5340   19.3690  -32.7180 C   0  0  0  0  0  0  0  0  0  0  0  0
   -6.4210   19.6240  -34.0150 C   0  0  0  0  0  0  0  0  0  0  0  0
   -3.5347   21.5229  -29.5665 H   0  0  0  0  0  0  0  0  0  0  0  0
   -4.4299   20.0556  -30.0886 H   0  0  0  0  0  0  0  0  0  0  0  0
   -2.6336   20.0593  -30.0886 H   0  0  0  0  0  0  0  0  0  0  0  0
   -6.8481   22.0194  -31.5728 H   0  0  0  0  0  0  0  0  0  0  0  0
   -8.2031   23.6915  -30.2945 H   0  0  0  0  0  0  0  0  0  0  0  0
   -7.1167   25.7740  -29.4346 H   0  0  0  0  0  0  0  0  0  0  0  0
   -4.6753   26.1444  -29.8437 H   0  0  0  0  0  0  0  0  0  0  0  0
   -2.8160   21.1050  -34.7800 H   0  0  0  0  0  0  0  0  0  0  0  0
   -2.8799   16.9899  -33.1029 H   0  0  0  0  0  0  0  0  0  0  0  0
   -3.9758   18.0744  -32.1533 H   0  0  0  0  0  0  0  0  0  0  0  0
   -4.3377   19.4507  -34.1900 H   0  0  0  0  0  0  0  0  0  0  0  0
   -3.3153   18.2624  -35.1182 H   0  0  0  0  0  0  0  0  0  0  0  0
   -5.3684   17.4052  -35.6325 H   0  0  0  0  0  0  0  0  0  0  0  0
   -5.0860   16.5520  -34.0582 H   0  0  0  0  0  0  0  0  0  0  0  0
   -7.5056   16.6304  -32.8737 H   0  0  0  0  0  0  0  0  0  0  0  0
   -5.9607   17.2247  -32.1360 H   0  0  0  0  0  0  0  0  0  0  0  0
   -8.1045   17.9367  -30.9664 H   0  0  0  0  0  0  0  0  0  0  0  0
   -7.0103   20.3247  -30.6940 H   0  0  0  0  0  0  0  0  0  0  0  0
   -5.6829   19.6086  -31.3772 H   0  0  0  0  0  0  0  0  0  0  0  0
   -7.3820   21.3225  -33.1113 H   0  0  0  0  0  0  0  0  0  0  0  0
   -9.3852   19.8625  -32.2262 H   0  0  0  0  0  0  0  0  0  0  0  0
   -9.0858   18.9470  -33.5709 H   0  0  0  0  0  0  0  0  0  0  0  0
   -6.7856   19.9761  -34.9913 H   0  0  0  0  0  0  0  0  0  0  0  0
   -5.3789   19.9346  -33.8488 H   0  0  0  0  0  0  0  0  0  0  0  0
  1  2  1  0
  2  3  1  0
  3  4  1  0
  4  5  2  0
  5  6  1  0
  6  7  2  0
  7  8  1  0
  8  9  2  0
  3 10  2  0
 10 11  1  0
 11 12  2  0
 12 13  1  0
 13 14  1  0
 14 15  1  0
 15 16  1  0
 16 17  1  0
 17 18  1  0
 18 19  1  0
 19 20  1  0
 20 21  1  0
 21 22  1  0
 21 23  1  0
 12  2  1  0
 23 17  1  0
  9  4  1  0
 22 19  1  0
  1 24  1  0
  1 25  1  0
  1 26  1  0
  5 27  1  0
  6 28  1  0
  7 29  1  0
  8 30  1  0
 11 31  1  0
 14 32  1  0
 14 33  1  0
 15 34  1  0
 15 35  1  0
 16 36  1  0
 16 37  1  0
 18 38  1  0
 18 39  1  0
 19 40  1  1
 20 41  1  0
 20 42  1  0
 21 43  1  1
 22 44  1  0
 22 45  1  0
 23 46  1  0
 23 47  1  0
M  CHG  1  11   1
M  END
>  <UniqueID>  (3) 
3

>  <SMILES>  (3) 
Cn1c(-c2ccccn2)n[nH+]c1SCCCN1CC2CC(C2)C1

>  <Energy>  (3) 
174.01986130249185

>  <Genealogy>  (3) 
Cn1c(-c2ccccn2)n[nH+]c1SCCCN1CC2CC(C2)C1 (protonated)
Cn1c(-c2ccccn2)n[nH+]c1SCCCN1CC2CC(C2)C1 (3D coordinates assigned)
Cn1c(-c2ccccn2)n[nH+]c1SCCCN1CC2CC(C2)C1 (nonaromatic ring conformer: 174.01986130249185 kcal/mol)

>  <smiles>  (3) 
Cn1c(SCCCN2CC3CC(C3)C2)nnc1-c1ccccn1

>  <score_type>  (3) 
oracle

>  <origin>  (3) 
adg

>  <m_score__min__energy>  (3) 
-8.3800000000000008

>  <m_primary>  (3) 
energy

$$$$
3:0
     RDKit          3D

 64 66  0  0  0  0  0  0  0  0999 V2000
   -6.1280   24.2520  -29.7240 C   0  0  0  0  0  0  0  0  0  0  0  0
   -5.3790   25.0710  -30.7630 C   0  0  0  0  0  0  0  0  0  0  0  0
   -4.2150   24.3730  -31.1470 O   0  0  0  0  0  0  0  0  0  0  0  0
   -4.4510   22.9820  -31.0810 C   0  0  0  0  0  0  0  0  0  0  0  0
   -3.6060   22.2710  -32.1470 C   0  0  0  0  0  0  0  0  0  0  0  0
   -2.8560   21.2040  -31.5990 O   0  0  0  0  0  0  0  0  0  0  0  0
   -3.3790   20.7780  -30.3540 C   0  0  0  0  0  0  0  0  0  0  0  0
   -2.3300   20.8630  -29.2370 C   0  0  0  0  0  0  0  0  0  0  0  0
   -1.1150   21.3560  -29.7640 O   0  0  0  0  0  0  0  0  0  0  0  0
   -0.1220   20.3520  -29.6940 C   0  0  0  0  0  0  0  0  0  0  0  0
    0.3810   20.0070  -31.1040 C   0  0  0  0  0  0  0  0  0  0  0  0
   -0.4540   20.5780  -32.1770 N   0  0  0  0  0  0  0  0  0  0  0  0
    0.3270   20.9500  -33.3690 C   0  0  0  0  0  0  0  0  0  0  0  0
   -0.3010   20.3500  -34.6330 C   0  0  0  0  0  0  0  0  0  0  0  0
   -0.7040   18.9980  -34.4110 O   0  0  0  0  0  0  0  0  0  0  0  0
   -2.0230   18.5650  -34.1980 C   0  0  0  0  0  0  0  0  0  0  0  0
   -2.3210   17.2190  -34.4450 C   0  0  0  0  0  0  0  0  0  0  0  0
   -3.6140   16.7270  -34.2570 C   0  0  0  0  0  0  0  0  0  0  0  0
   -4.6370   17.5840  -33.8170 C   0  0  0  0  0  0  0  0  0  0  0  0
   -5.9590   17.1490  -33.6450 C   0  0  0  0  0  0  0  0  0  0  0  0
   -6.2850   15.9540  -33.8740 O   0  0  0  0  0  0  0  0  0  0  0  0
   -6.9290   18.0590  -33.2210 C   0  0  0  0  0  0  0  0  0  0  0  0
   -6.5620   19.3930  -32.9690 C   0  0  0  0  0  0  0  0  0  0  0  0
   -7.5490   20.4100  -32.5260 C   0  0  0  0  0  0  0  0  0  0  0  0
   -8.8970   20.0390  -32.3600 C   0  0  0  0  0  0  0  0  0  0  0  0
   -9.8470   20.9770  -31.9480 C   0  0  0  0  0  0  0  0  0  0  0  0
   -9.4670   22.2980  -31.7040 C   0  0  0  0  0  0  0  0  0  0  0  0
   -8.1370   22.6840  -31.8770 C   0  0  0  0  0  0  0  0  0  0  0  0
   -7.1810   21.7500  -32.2890 C   0  0  0  0  0  0  0  0  0  0  0  0
   -5.2970   19.7700  -33.1510 O   0  0  0  0  0  0  0  0  0  0  0  0
   -4.3420   18.9400  -33.5590 C   0  0  0  0  0  0  0  0  0  0  0  0
   -3.0430   19.4230  -33.7430 C   0  0  0  0  0  0  0  0  0  0  0  0
   -5.8303   24.5775  -28.7163 H   0  0  0  0  0  0  0  0  0  0  0  0
   -7.2106   24.3991  -29.8520 H   0  0  0  0  0  0  0  0  0  0  0  0
   -5.8850   23.1868  -29.8520 H   0  0  0  0  0  0  0  0  0  0  0  0
   -6.0216   25.2280  -31.6419 H   0  0  0  0  0  0  0  0  0  0  0  0
   -5.1033   26.0474  -30.3379 H   0  0  0  0  0  0  0  0  0  0  0  0
   -4.1734   22.6095  -30.0839 H   0  0  0  0  0  0  0  0  0  0  0  0
   -5.5171   22.7809  -31.2626 H   0  0  0  0  0  0  0  0  0  0  0  0
   -4.2750   21.8733  -32.9243 H   0  0  0  0  0  0  0  0  0  0  0  0
   -2.9010   23.0030  -32.5679 H   0  0  0  0  0  0  0  0  0  0  0  0
   -4.2339   21.4175  -30.0892 H   0  0  0  0  0  0  0  0  0  0  0  0
   -3.6880   19.7270  -30.4541 H   0  0  0  0  0  0  0  0  0  0  0  0
   -2.6889   21.5410  -28.4486 H   0  0  0  0  0  0  0  0  0  0  0  0
   -2.1648   19.8611  -28.8141 H   0  0  0  0  0  0  0  0  0  0  0  0
    0.7199   20.7149  -29.0861 H   0  0  0  0  0  0  0  0  0  0  0  0
   -0.5538   19.4502  -29.2354 H   0  0  0  0  0  0  0  0  0  0  0  0
    1.4045   20.3948  -31.2142 H   0  0  0  0  0  0  0  0  0  0  0  0
    0.3393   18.9125  -31.2061 H   0  0  0  0  0  0  0  0  0  0  0  0
   -0.9800   21.4110  -31.8210 H   0  0  0  0  0  0  0  0  0  0  0  0
   -1.1550   19.8490  -32.4490 H   0  0  0  0  0  0  0  0  0  0  0  0
    0.3475   22.0460  -33.4605 H   0  0  0  0  0  0  0  0  0  0  0  0
    1.3493   20.5587  -33.2602 H   0  0  0  0  0  0  0  0  0  0  0  0
   -1.1813   20.9462  -34.9153 H   0  0  0  0  0  0  0  0  0  0  0  0
    0.4484   20.3650  -35.4381 H   0  0  0  0  0  0  0  0  0  0  0  0
   -1.5268   16.5413  -34.7913 H   0  0  0  0  0  0  0  0  0  0  0  0
   -3.8322   15.6669  -34.4536 H   0  0  0  0  0  0  0  0  0  0  0  0
   -7.9715   17.7354  -33.0852 H   0  0  0  0  0  0  0  0  0  0  0  0
   -9.2050   19.0014  -32.5564 H   0  0  0  0  0  0  0  0  0  0  0  0
  -10.8962   20.6741  -31.8157 H   0  0  0  0  0  0  0  0  0  0  0  0
  -10.2154   23.0342  -31.3756 H   0  0  0  0  0  0  0  0  0  0  0  0
   -7.8397   23.7262  -31.6887 H   0  0  0  0  0  0  0  0  0  0  0  0
   -6.1358   22.0629  -32.4289 H   0  0  0  0  0  0  0  0  0  0  0  0
   -2.8165   20.4784  -33.5314 H   0  0  0  0  0  0  0  0  0  0  0  0
  1  2  1  0
  2  3  1  0
  3  4  1  0
  4  5  1  0
  5  6  1  0
  6  7  1  0
  7  8  1  0
  8  9  1  0
  9 10  1  0
 10 11  1  0
 11 12  1  0
 12 13  1  0
 13 14  1  0
 14 15  1  0
 15 16  1  0
 16 17  2  0
 17 18  1  0
 18 19  2  0
 19 20  1  0
 20 21  2  0
 20 22  1  0
 22 23  2  0
 23 24  1  0
 24 25  2  0
 25 26  1  0
 26 27  2  0
 27 28  1  0
 28 29  2  0
 23 30  1  0
 30 31  1  0
 31 32  2  0
 32 16  1  0
 31 19  1  0
 29 24  1  0
  1 33  1  0
  1 34  1  0
  1 35  1  0
  2 36  1  0
  2 37  1  0
  4 38  1  0
  4 39  1  0
  5 40  1  0
  5 41  1  0
  7 42  1  0
  7 43  1  0
  8 44  1  0
  8 45  1  0
 10 46  1  0
 10 47  1  0
 11 48  1  0
 11 49  1  0
 12 50  1  0
 12 51  1  0
 13 52  1  0
 13 53  1  0
 14 54  1  0
 14 55  1  0
 17 56  1  0
 18 57  1  0
 22 58  1  0
 25 59  1  0
 26 60  1  0
 27 61  1  0
 28 62  1  0
 29 63  1  0
 32 64  1  0
M  CHG  1  12   1
M  END
>  <UniqueID>  (4) 
4

>  <SMILES>  (4) 
CCOCCOCCOCC[NH2+]CCOc1ccc2c(=O)cc(-c3ccccc3)oc2c1

>  <Energy>  (4) 
66.34466323211268

>  <Genealogy>  (4) 
CCOCCOCCOCC[NH2+]CCOc1ccc2c(=O)cc(-c3ccccc3)oc2c1 (protonated)
CCOCCOCCOCC[NH2+]CCOc1ccc2c(=O)cc(-c3ccccc3)oc2c1 (3D coordinates assigned)
CCOCCOCCOCC[NH2+]CCOc1ccc2c(=O)cc(-c3ccccc3)oc2c1 (optimized conformer: 66.34466323211268 kcal/mol)

>  <smiles>  (4) 
CCOCCOCCOCCNCCOc1ccc2c(=O)cc(-c3ccccc3)oc2c1

>  <score_type>  (4) 
oracle

>  <origin>  (4) 
adg

>  <m_score__min__energy>  (4) 
-6.6500000000000004

>  <m_primary>  (4) 
energy

$$$$
4:0
     RDKit          3D

 41 41  0  0  0  0  0  0  0  0999 V2000
   -4.2230   24.8990  -26.5870 C   0  0  0  0  0  0  0  0  0  0  0  0
   -3.8530   24.2480  -27.9140 C   0  0  0  0  0  0  0  0  0  0  0  0
   -5.0000   24.2180  -28.8220 N   0  0  0  0  0  0  0  0  0  0  0  0
   -4.9040   24.7220  -30.1610 C   0  0  0  0  0  0  0  0  0  0  0  0
   -3.8480   25.2890  -30.5510 O   0  0  0  0  0  0  0  0  0  0  0  0
   -6.0640   24.5950  -31.1060 C   0  0  0  0  0  0  0  0  0  0  0  0
   -7.1570   23.8060  -30.5160 N   0  0  0  0  0  0  0  0  0  0  0  0
   -8.0930   23.2880  -31.5290 C   0  0  0  0  0  0  0  0  0  0  0  0
   -7.6370   21.9410  -32.0230 C   0  0  0  0  0  0  0  0  0  0  0  0
   -8.5400   20.8730  -32.1270 C   0  0  0  0  0  0  0  0  0  0  0  0
   -8.1230   19.6430  -32.6430 C   0  0  0  0  0  0  0  0  0  0  0  0
   -6.7930   19.4570  -33.0610 C   0  0  0  0  0  0  0  0  0  0  0  0
   -6.3710   18.1930  -33.6190 N   0  0  0  0  0  0  0  0  0  0  0  0
   -5.7170   18.1740  -34.9320 C   0  0  0  0  0  0  0  0  0  0  0  0
   -6.5750   16.9360  -32.8800 C   0  0  0  0  0  0  0  0  0  0  0  0
   -6.1050   17.0750  -31.4350 C   0  0  0  0  0  0  0  0  0  0  0  0
   -5.8860   20.5260  -32.9380 C   0  0  0  0  0  0  0  0  0  0  0  0
   -6.3060   21.7550  -32.4250 C   0  0  0  0  0  0  0  0  0  0  0  0
   -3.8657   24.2704  -25.7580 H   0  0  0  0  0  0  0  0  0  0  0  0
   -3.7543   25.8921  -26.5225 H   0  0  0  0  0  0  0  0  0  0  0  0
   -5.3160   25.0045  -26.5225 H   0  0  0  0  0  0  0  0  0  0  0  0
   -3.0392   24.8218  -28.3815 H   0  0  0  0  0  0  0  0  0  0  0  0
   -3.5333   23.2136  -27.7194 H   0  0  0  0  0  0  0  0  0  0  0  0
   -5.9000   23.7850  -28.5120 H   0  0  0  0  0  0  0  0  0  0  0  0
   -6.4393   25.6002  -31.3482 H   0  0  0  0  0  0  0  0  0  0  0  0
   -5.7156   24.0779  -32.0122 H   0  0  0  0  0  0  0  0  0  0  0  0
   -7.6960   24.4500  -29.8910 H   0  0  0  0  0  0  0  0  0  0  0  0
   -9.0935   23.1908  -31.0823 H   0  0  0  0  0  0  0  0  0  0  0  0
   -8.1248   23.9877  -32.3772 H   0  0  0  0  0  0  0  0  0  0  0  0
   -9.5822   21.0042  -31.8006 H   0  0  0  0  0  0  0  0  0  0  0  0
   -8.8409   18.8134  -32.7229 H   0  0  0  0  0  0  0  0  0  0  0  0
   -4.6257   18.1423  -34.7976 H   0  0  0  0  0  0  0  0  0  0  0  0
   -6.0435   17.2850  -35.4915 H   0  0  0  0  0  0  0  0  0  0  0  0
   -5.9914   19.0805  -35.4915 H   0  0  0  0  0  0  0  0  0  0  0  0
   -7.6453   16.6823  -32.8883 H   0  0  0  0  0  0  0  0  0  0  0  0
   -5.9896   16.1418  -33.3665 H   0  0  0  0  0  0  0  0  0  0  0  0
   -6.9339   16.8299  -30.7546 H   0  0  0  0  0  0  0  0  0  0  0  0
   -5.2664   16.3864  -31.2543 H   0  0  0  0  0  0  0  0  0  0  0  0
   -5.7759   18.1089  -31.2543 H   0  0  0  0  0  0  0  0  0  0  0  0
   -4.8391   20.3925  -33.2481 H   0  0  0  0  0  0  0  0  0  0  0  0
   -5.5878   22.5834  -32.3355 H   0  0  0  0  0  0  0  0  0  0  0  0
  1  2  1  0
  2  3  1  0
  3  4  1  0
  4  5  2  0
  4  6  1  0
  6  7  1  0
  7  8  1  0
  8  9  1  0
  9 10  2  0
 10 11  1  0
 11 12  2  0
 12 13  1  0
 13 14  1  0
 13 15  1  0
 15 16  1  0
 12 17  1  0
 17 18  2  0
 18  9  1  0
  1 19  1  0
  1 20  1  0
  1 21  1  0
  2 22  1  0
  2 23  1  0
  3 24  1  0
  6 25  1  0
  6 26  1  0
  7 27  1  0
  8 28  1  0
  8 29  1  0
 10 30  1  0
 11 31  1  0
 14 32  1  0
 14 33  1  0
 14 34  1  0
 15 35  1  0
 15 36  1  0
 16 37  1  0
 16 38  1  0
 16 39  1  0
 17 40  1  0
 18 41  1  0
M  END
>  <UniqueID>  (5) 
5

>  <SMILES>  (5) 
CCNC(=O)CNCc1ccc(N(C)CC)cc1

>  <Energy>  (5) 
28.349434591482414

>  <Genealogy>  (5) 
CCNC(=O)CNCc1ccc(N(C)CC)cc1 (3D coordinates assigned)
CCNC(=O)CNCc1ccc(N(C)CC)cc1 (optimized conformer: 28.349434591482414 kcal/mol)

>  <smiles>  (5) 
CCNC(=O)CNCc1ccc(N(C)CC)cc1

>  <score_type>  (5) 
oracle

>  <origin>  (5) 
adg

>  <m_score__min__energy>  (5) 
-7.3200000000000003

>  <m_primary>  (5) 
energy

$$$$
5:0
     RDKit          3D

 46 48  0  0  0  0  0  0  0  0999 V2000
   -5.0200   14.4110  -33.4230 C   0  0  0  0  0  0  0  0  0  0  0  0
   -4.7100   15.4150  -32.3170 C   0  0  0  0  0  0  0  0  0  0  0  0
   -5.4440   16.6660  -32.5420 N   0  0  0  0  0  0  0  0  0  0  0  0
   -6.2190   17.1860  -31.5430 C   0  0  0  0  0  0  0  0  0  0  0  0
   -6.9470   18.3590  -31.7470 C   0  0  0  0  0  0  0  0  0  0  0  0
   -6.8870   19.0100  -32.9870 C   0  0  0  0  0  0  0  0  0  0  0  0
   -7.6610   20.2010  -33.2290 N   0  0  0  0  0  0  0  0  0  0  0  0
   -7.0210   21.3300  -32.6020 C   0  0  0  0  0  0  0  0  0  0  0  0
   -7.7830   22.2930  -31.9210 C   0  0  0  0  0  0  0  0  0  0  0  0
   -7.1670   23.4060  -31.3430 C   0  0  0  0  0  0  0  0  0  0  0  0
   -5.7750   23.5820  -31.4370 C   0  0  0  0  0  0  0  0  0  0  0  0
   -5.1230   24.7630  -30.8250 C   0  0  0  0  0  0  0  0  0  0  0  0
   -5.8220   25.7430  -30.4500 O   0  0  0  0  0  0  0  0  0  0  0  0
   -3.7040   24.7690  -30.6120 N   0  0  0  0  0  0  0  0  0  0  0  0
   -2.9740   23.9730  -29.6650 C   0  0  0  0  0  0  0  0  0  0  0  0
   -1.8350   23.2390  -30.0500 C   0  0  0  0  0  0  0  0  0  0  0  0
   -1.1530   22.4520  -29.1190 C   0  0  0  0  0  0  0  0  0  0  0  0
   -1.6040   22.3760  -27.8010 C   0  0  0  0  0  0  0  0  0  0  0  0
   -2.7460   23.0800  -27.4110 C   0  0  0  0  0  0  0  0  0  0  0  0
   -3.4430   23.8740  -28.3370 C   0  0  0  0  0  0  0  0  0  0  0  0
   -4.6150   24.5810  -27.9160 N   0  0  0  0  0  0  0  0  0  0  0  0
   -5.0140   22.6210  -32.1260 C   0  0  0  0  0  0  0  0  0  0  0  0
   -5.6320   21.5080  -32.7050 C   0  0  0  0  0  0  0  0  0  0  0  0
   -6.1030   18.4500  -34.0060 C   0  0  0  0  0  0  0  0  0  0  0  0
   -5.3880   17.2750  -33.7650 C   0  0  0  0  0  0  0  0  0  0  0  0
   -5.3163   13.4513  -32.9745 H   0  0  0  0  0  0  0  0  0  0  0  0
   -5.8418   14.7939  -34.0460 H   0  0  0  0  0  0  0  0  0  0  0  0
   -4.1254   14.2639  -34.0460 H   0  0  0  0  0  0  0  0  0  0  0  0
   -5.0075   14.9895  -31.3472 H   0  0  0  0  0  0  0  0  0  0  0  0
   -3.6309   15.6285  -32.3207 H   0  0  0  0  0  0  0  0  0  0  0  0
   -6.2692   16.6754  -30.5700 H   0  0  0  0  0  0  0  0  0  0  0  0
   -7.5663   18.7716  -30.9369 H   0  0  0  0  0  0  0  0  0  0  0  0
   -8.6310   20.0820  -32.8540 H   0  0  0  0  0  0  0  0  0  0  0  0
   -7.7550   20.3670  -34.2600 H   0  0  0  0  0  0  0  0  0  0  0  0
   -8.8733   22.1702  -31.8420 H   0  0  0  0  0  0  0  0  0  0  0  0
   -7.7761   24.1509  -30.8099 H   0  0  0  0  0  0  0  0  0  0  0  0
   -1.4804   23.2859  -31.0902 H   0  0  0  0  0  0  0  0  0  0  0  0
   -0.2581   21.8908  -29.4258 H   0  0  0  0  0  0  0  0  0  0  0  0
   -1.0602   21.7615  -27.0685 H   0  0  0  0  0  0  0  0  0  0  0  0
   -3.1017   23.0122  -26.3723 H   0  0  0  0  0  0  0  0  0  0  0  0
   -5.1330   24.3150  -27.0490 H   0  0  0  0  0  0  0  0  0  0  0  0
   -4.9810   25.3850  -28.4740 H   0  0  0  0  0  0  0  0  0  0  0  0
   -3.9243   22.7456  -32.2102 H   0  0  0  0  0  0  0  0  0  0  0  0
   -5.0253   20.7663  -33.2452 H   0  0  0  0  0  0  0  0  0  0  0  0
   -6.0514   18.9348  -34.9921 H   0  0  0  0  0  0  0  0  0  0  0  0
   -4.7747   16.8357  -34.5656 H   0  0  0  0  0  0  0  0  0  0  0  0
  1  2  1  0
  2  3  1  0
  3  4  2  0
  4  5  1  0
  5  6  2  0
  6  7  1  0
  7  8  1  0
  8  9  2  0
  9 10  1  0
 10 11  2  0
 11 12  1  0
 12 13  2  0
 12 14  1  0
 14 15  1  0
 15 16  2  0
 16 17  1  0
 17 18  2  0
 18 19  1  0
 19 20  2  0
 20 21  1  0
 11 22  1  0
 22 23  2  0
  6 24  1  0
 24 25  2  0
 25  3  1  0
 23  8  1  0
 20 15  1  0
  1 26  1  0
  1 27  1  0
  1 28  1  0
  2 29  1  0
  2 30  1  0
  4 31  1  0
  5 32  1  0
  7 33  1  0
  7 34  1  0
  9 35  1  0
 10 36  1  0
 16 37  1  0
 17 38  1  0
 18 39  1  0
 19 40  1  0
 21 41  1  0
 21 42  1  0
 22 43  1  0
 23 44  1  0
 24 45  1  0
 25 46  1  0
M  CHG  3   3   1   7   1  14  -1
M  END
>  <UniqueID>  (6) 
6

>  <SMILES>  (6) 
CC[n+]1ccc([NH2+]c2ccc(C(=O)[N-]c3ccccc3N)cc2)cc1

>  <Energy>  (6) 
52.072744507221955

>  <Genealogy>  (6) 
CC[n+]1ccc([NH2+]c2ccc(C(=O)[N-]c3ccccc3N)cc2)cc1 (protonated)
CC[n+]1ccc([NH2+]c2ccc(C(=O)[N-]c3ccccc3N)cc2)cc1 (3D coordinates assigned)
CC[n+]1ccc([NH2+]c2ccc(C(=O)[N-]c3ccccc3N)cc2)cc1 (optimized conformer: 52.072744507221955 kcal/mol)

>  <smiles>  (6) 
CC[n+]1ccc(Nc2ccc(C(=O)Nc3ccccc3N)cc2)cc1

>  <score_type>  (6) 
oracle

>  <origin>  (6) 
adg

>  <m_score__min__energy>  (6) 
-9.0899999999999999

>  <m_primary>  (6) 
energy

$$$$
6:0
     RDKit          3D

 56 58  0  0  0  0  0  0  0  0999 V2000
   -1.1920   18.0170  -33.0740 C   0  0  0  0  0  0  0  0  0  0  0  0
   -0.3430   19.0030  -33.8700 C   0  0  0  0  0  0  0  0  0  0  0  0
   -1.2230   20.0470  -34.5830 C   0  0  0  0  0  0  0  0  0  0  0  0
   -1.6070   21.1620  -33.7010 N   0  0  0  0  0  0  0  0  0  0  0  0
   -0.5320   21.5050  -32.7590 C   0  0  0  0  0  0  0  0  0  0  0  0
   -1.0770   21.7360  -31.3410 C   0  0  0  0  0  0  0  0  0  0  0  0
   -1.9720   20.6110  -30.7860 C   0  0  0  0  0  0  0  0  0  0  0  0
   -3.4840   20.7560  -31.0730 C   0  0  0  0  0  0  0  0  0  0  0  0
   -3.8330   20.6310  -32.5100 N   0  0  0  0  0  0  0  0  0  0  0  0
   -5.2300   20.2600  -32.7130 C   0  0  0  0  0  0  0  0  0  0  0  0
   -5.5900   18.9520  -33.1230 C   0  0  0  0  0  0  0  0  0  0  0  0
   -6.9040   18.4830  -32.8680 C   0  0  0  0  0  0  0  0  0  0  0  0
   -7.8370   19.3270  -32.3010 N   0  0  0  0  0  0  0  0  0  0  0  0
   -9.1140   18.7830  -31.7890 C   0  0  0  0  0  0  0  0  0  0  0  0
   -7.5930   20.6830  -32.2400 C   0  0  0  0  0  0  0  0  0  0  0  0
   -8.6280   21.6130  -31.9700 C   0  0  0  0  0  0  0  0  0  0  0  0
   -8.3600   22.9750  -31.8570 C   0  0  0  0  0  0  0  0  0  0  0  0
   -7.0630   23.4470  -32.0170 C   0  0  0  0  0  0  0  0  0  0  0  0
   -6.0280   22.5600  -32.3050 C   0  0  0  0  0  0  0  0  0  0  0  0
   -6.2730   21.1740  -32.4270 C   0  0  0  0  0  0  0  0  0  0  0  0
   -7.2410   17.0130  -33.1270 C   0  0  0  0  0  0  0  0  0  0  0  0
   -6.3550   16.3470  -34.1850 C   0  0  0  0  0  0  0  0  0  0  0  0
   -4.8840   16.5980  -33.8860 C   0  0  0  0  0  0  0  0  0  0  0  0
   -4.6530   18.0720  -33.8740 C   0  0  0  0  0  0  0  0  0  0  0  0
   -3.7450   18.5560  -34.6030 O   0  0  0  0  0  0  0  0  0  0  0  0
   -1.0429   18.1901  -31.9980 H   0  0  0  0  0  0  0  0  0  0  0  0
   -2.2533   18.1610  -33.3250 H   0  0  0  0  0  0  0  0  0  0  0  0
   -0.8921   16.9889  -33.3250 H   0  0  0  0  0  0  0  0  0  0  0  0
    0.3435   19.5208  -33.1840 H   0  0  0  0  0  0  0  0  0  0  0  0
    0.2192   18.4428  -34.6317 H   0  0  0  0  0  0  0  0  0  0  0  0
   -0.6647   20.4520  -35.4399 H   0  0  0  0  0  0  0  0  0  0  0  0
   -2.1465   19.5418  -34.9022 H   0  0  0  0  0  0  0  0  0  0  0  0
   -1.8260   21.9940  -34.2950 H   0  0  0  0  0  0  0  0  0  0  0  0
    0.1959   20.6807  -32.7321 H   0  0  0  0  0  0  0  0  0  0  0  0
   -0.0573   22.4362  -33.1018 H   0  0  0  0  0  0  0  0  0  0  0  0
   -0.2191   21.8532  -30.6625 H   0  0  0  0  0  0  0  0  0  0  0  0
   -1.7161   22.6291  -31.4035 H   0  0  0  0  0  0  0  0  0  0  0  0
   -1.6337   19.6614  -31.2262 H   0  0  0  0  0  0  0  0  0  0  0  0
   -1.8681   20.6566  -29.6919 H   0  0  0  0  0  0  0  0  0  0  0  0
   -4.0198   19.9732  -30.5161 H   0  0  0  0  0  0  0  0  0  0  0  0
   -3.7753   21.7690  -30.7583 H   0  0  0  0  0  0  0  0  0  0  0  0
   -3.1710   19.9510  -32.9380 H   0  0  0  0  0  0  0  0  0  0  0  0
   -3.6530   21.5360  -33.0010 H   0  0  0  0  0  0  0  0  0  0  0  0
   -9.1003   18.7888  -30.6891 H   0  0  0  0  0  0  0  0  0  0  0  0
   -9.9476   19.4041  -32.1486 H   0  0  0  0  0  0  0  0  0  0  0  0
   -9.2436   17.7516  -32.1486 H   0  0  0  0  0  0  0  0  0  0  0  0
   -9.6602   21.2530  -31.8477 H   0  0  0  0  0  0  0  0  0  0  0  0
   -9.1772   23.6788  -31.6405 H   0  0  0  0  0  0  0  0  0  0  0  0
   -6.8532   24.5221  -31.9162 H   0  0  0  0  0  0  0  0  0  0  0  0
   -5.0060   22.9441  -32.4392 H   0  0  0  0  0  0  0  0  0  0  0  0
   -7.1268   16.4605  -32.1827 H   0  0  0  0  0  0  0  0  0  0  0  0
   -8.2711   16.9859  -33.5120 H   0  0  0  0  0  0  0  0  0  0  0  0
   -6.5442   15.2634  -34.1851 H   0  0  0  0  0  0  0  0  0  0  0  0
   -6.5951   16.7750  -35.1695 H   0  0  0  0  0  0  0  0  0  0  0  0
   -4.6262   16.1732  -32.9047 H   0  0  0  0  0  0  0  0  0  0  0  0
   -4.2550   16.1221  -34.6527 H   0  0  0  0  0  0  0  0  0  0  0  0
  1  2  1  0
  2  3  1  0
  3  4  1  0
  4  5  1  0
  5  6  1  0
  6  7  1  0
  7  8  1  0
  8  9  1  0
  9 10  1  0
 10 11  2  0
 11 12  1  0
 12 13  2  0
 13 14  1  0
 13 15  1  0
 15 16  2  0
 16 17  1  0
 17 18  2  0
 18 19  1  0
 19 20  2  0
 12 21  1  0
 21 22  1  0
 22 23  1  0
 23 24  1  0
 24 25  2  0
 20 10  1  0
 24 11  1  0
 20 15  1  0
  1 26  1  0
  1 27  1  0
  1 28  1  0
  2 29  1  0
  2 30  1  0
  3 31  1  0
  3 32  1  0
  4 33  1  0
  5 34  1  0
  5 35  1  0
  6 36  1  0
  6 37  1  0
  7 38  1  0
  7 39  1  0
  8 40  1  0
  8 41  1  0
  9 42  1  0
  9 43  1  0
 14 44  1  0
 14 45  1  0
 14 46  1  0
 16 47  1  0
 17 48  1  0
 18 49  1  0
 19 50  1  0
 21 51  1  0
 21 52  1  0
 22 53  1  0
 22 54  1  0
 23 55  1  0
 23 56  1  0
M  CHG  2   9   1  13   1
M  END
>  <UniqueID>  (7) 
7

>  <SMILES>  (7) 
CCCNCCCC[NH2+]c1c2c([n+](C)c3ccccc13)CCCC2=O

>  <Energy>  (7) 
75.66982524495614

>  <Genealogy>  (7) 
CCCNCCCC[NH2+]c1c2c([n+](C)c3ccccc13)CCCC2=O (protonated)
CCCNCCCC[NH2+]c1c2c([n+](C)c3ccccc13)CCCC2=O (3D coordinates assigned)
CCCNCCCC[NH2+]c1c2c([n+](C)c3ccccc13)CCCC2=O (nonaromatic ring conformer: 75.66982524495614 kcal/mol)

>  <smiles>  (7) 
CCCNCCCCNc1c2c([n+](C)c3ccccc13)CCCC2=O

>  <score_type>  (7) 
oracle

>  <origin>  (7) 
adg

>  <m_score__min__energy>  (7) 
-8.0800000000000001

>  <m_primary>  (7) 
energy

$$$$
7:0
     RDKit          2D

 43 45  0  0  0  0  0  0  0  0999 V2000
    3.7500   -6.4952    0.0000 C   0  0  0  0  0  0  0  0  0  0  0  0
    4.5000   -5.1962    0.0000 C   0  0  0  0  0  0  0  0  0  0  0  0
    5.2500   -3.8971    0.0000 N   0  0  0  0  0  0  0  0  0  0  0  0
    4.5000   -2.5981    0.0000 C   0  0  0  0  0  0  0  0  0  0  0  0
    3.7500   -1.2990    0.0000 C   0  0  0  0  0  0  0  0  0  0  0  0
    3.0000    0.0000    0.0000 N   0  0  0  0  0  0  0  0  0  0  0  0
    1.5000    0.0000    0.0000 C   0  0  0  0  0  0  0  0  0  0  0  0
    0.7500   -1.2990    0.0000 C   0  0  0  0  0  0  0  0  0  0  0  0
   -0.7500   -1.2990    0.0000 C   0  0  0  0  0  0  0  0  0  0  0  0
   -1.5000   -2.5981    0.0000 C   0  0  0  0  0  0  0  0  0  0  0  0
   -3.0000   -2.5981    0.0000 C   0  0  0  0  0  0  0  0  0  0  0  0
   -3.7500   -1.2990    0.0000 C   0  0  0  0  0  0  0  0  0  0  0  0
   -3.0000    0.0000    0.0000 C   0  0  0  0  0  0  0  0  0  0  0  0
   -1.5000    0.0000    0.0000 C   0  0  0  0  0  0  0  0  0  0  0  0
   -0.7500    1.2990    0.0000 N   0  0  0  0  0  0  0  0  0  0  0  0
   -1.5000    2.5981    0.0000 C   0  0  0  0  0  0  0  0  0  0  0  0
    0.7500    1.2990    0.0000 C   0  0  0  0  0  0  0  0  0  0  0  0
    2.2124    1.6328    0.0000 C   0  0  0  0  0  0  0  0  0  0  0  0
    3.3851    0.6976    0.0000 C   0  0  0  0  0  0  0  0  0  0  0  0
    3.3851   -0.8024    0.0000 C   0  0  0  0  0  0  0  0  0  0  0  0
    2.2124   -1.7376    0.0000 C   0  0  0  0  0  0  0  0  0  0  0  0
    3.0000   -7.7942    0.0000 H   0  0  0  0  0  0  0  0  0  0  0  0
    2.4510   -5.7452    0.0000 H   0  0  0  0  0  0  0  0  0  0  0  0
    5.0490   -7.2452    0.0000 H   0  0  0  0  0  0  0  0  0  0  0  0
    3.2010   -4.4462    0.0000 H   0  0  0  0  0  0  0  0  0  0  0  0
    5.7990   -5.9462    0.0000 H   0  0  0  0  0  0  0  0  0  0  0  0
    6.7500   -3.8971    0.0000 H   0  0  0  0  0  0  0  0  0  0  0  0
    5.7990   -1.8481    0.0000 H   0  0  0  0  0  0  0  0  0  0  0  0
    3.3021   -3.5008    0.0000 H   0  0  0  0  0  0  0  0  0  0  0  0
    2.6710   -2.3411    0.0000 H   0  0  0  0  0  0  0  0  0  0  0  0
    5.0490   -0.5490    0.0000 H   0  0  0  0  0  0  0  0  0  0  0  0
    4.0420    1.0790    0.0000 H   0  0  0  0  0  0  0  0  0  0  0  0
   -0.7500   -3.8971    0.0000 H   0  0  0  0  0  0  0  0  0  0  0  0
   -3.7500   -3.8971    0.0000 H   0  0  0  0  0  0  0  0  0  0  0  0
   -5.2500   -1.2990    0.0000 H   0  0  0  0  0  0  0  0  0  0  0  0
   -3.7500    1.2990    0.0000 H   0  0  0  0  0  0  0  0  0  0  0  0
   -2.2500    3.8971    0.0000 H   0  0  0  0  0  0  0  0  0  0  0  0
   -0.2010    3.3481    0.0000 H   0  0  0  0  0  0  0  0  0  0  0  0
   -2.7990    1.8481    0.0000 H   0  0  0  0  0  0  0  0  0  0  0  0
    2.5462    3.0952    0.0000 H   0  0  0  0  0  0  0  0  0  0  0  0
    4.7366    1.3484    0.0000 H   0  0  0  0  0  0  0  0  0  0  0  0
    4.7366   -1.4532    0.0000 H   0  0  0  0  0  0  0  0  0  0  0  0
    2.3654   -3.2298    0.0000 H   0  0  0  0  0  0  0  0  0  0  0  0
  1  2  1  0
  2  3  1  0
  3  4  1  0
  4  5  1  0
  5  6  1  0
  6  7  1  0
  7  8  2  0
  8  9  1  0
  9 10  2  0
 10 11  1  0
 11 12  2  0
 12 13  1  0
 13 14  2  0
 14 15  1  0
 15 16  1  0
 15 17  2  0
 17 18  1  0
 18 19  2  0
 19 20  1  0
 20 21  2  0
 17  7  1  0
 21  8  1  0
 14  9  1  0
  1 22  1  0
  1 23  1  0
  1 24  1  0
  2 25  1  0
  2 26  1  0
  3 27  1  0
  4 28  1  0
  4 29  1  0
  5 30  1  0
  5 31  1  0
  6 32  1  0
 10 33  1  0
 11 34  1  0
 12 35  1  0
 13 36  1  0
 16 37  1  0
 16 38  1  0
 16 39  1  0
 18 40  1  0
 19 41  1  0
 20 42  1  0
 21 43  1  0
M  CHG  1  15   1
M  END
>  <smiles>  (8) 
CCNCCNc1c2c3ccccc3[n+](C)c1C=CC=C2

>  <m_score__min__energy>  (8) 
nan

>  <m_primary>  (8) 
energy

$$$$
8:0
     RDKit          3D

 51 53  0  0  0  0  0  0  0  0999 V2000
   -9.0990   18.6390  -31.2090 C   0  0  0  0  0  0  0  0  0  0  0  0
   -9.1510   18.8980  -32.7110 C   0  0  0  0  0  0  0  0  0  0  0  0
   -7.8810   18.6450  -33.3130 O   0  0  0  0  0  0  0  0  0  0  0  0
   -6.6960   19.3640  -33.0730 C   0  0  0  0  0  0  0  0  0  0  0  0
   -6.6600   20.5070  -32.2600 C   0  0  0  0  0  0  0  0  0  0  0  0
   -5.4570   21.2040  -32.0420 C   0  0  0  0  0  0  0  0  0  0  0  0
   -5.4270   22.3410  -31.2170 C   0  0  0  0  0  0  0  0  0  0  0  0
   -6.4840   22.7650  -30.6700 O   0  0  0  0  0  0  0  0  0  0  0  0
   -4.2200   23.0090  -30.9980 C   0  0  0  0  0  0  0  0  0  0  0  0
   -4.1540   24.4440  -29.9680 S   0  0  0  0  0  0  0  0  0  0  0  0
   -3.9250   25.6610  -30.8200 O   0  0  0  0  0  0  0  0  0  0  0  0
   -5.4490   24.6270  -29.2290 O   0  0  0  0  0  0  0  0  0  0  0  0
   -2.8480   24.2510  -28.8040 C   0  0  0  0  0  0  0  0  0  0  0  0
   -3.0850   24.5040  -27.4460 C   0  0  0  0  0  0  0  0  0  0  0  0
   -2.0610   24.3350  -26.5100 C   0  0  0  0  0  0  0  0  0  0  0  0
   -0.7950   23.9090  -26.9250 C   0  0  0  0  0  0  0  0  0  0  0  0
    0.6040   23.6770  -25.6460 Br  0  0  0  0  0  0  0  0  0  0  0  0
   -0.5560   23.6500  -28.2790 C   0  0  0  0  0  0  0  0  0  0  0  0
   -1.5800   23.8190  -29.2170 C   0  0  0  0  0  0  0  0  0  0  0  0
   -3.0640   22.5500  -31.6290 C   0  0  0  0  0  0  0  0  0  0  0  0
   -3.0830   21.4600  -32.4560 N   0  0  0  0  0  0  0  0  0  0  0  0
   -1.8010   21.0740  -33.0820 C   0  0  0  0  0  0  0  0  0  0  0  0
   -0.7170   20.8890  -32.0250 C   0  0  0  0  0  0  0  0  0  0  0  0
   -4.2570   20.7570  -32.6550 C   0  0  0  0  0  0  0  0  0  0  0  0
   -4.3090   19.5890  -33.4530 C   0  0  0  0  0  0  0  0  0  0  0  0
   -5.5180   18.9000  -33.6660 C   0  0  0  0  0  0  0  0  0  0  0  0
   -5.5960   17.7410  -34.4610 O   0  0  0  0  0  0  0  0  0  0  0  0
   -6.0130   16.4490  -34.0220 C   0  0  0  0  0  0  0  0  0  0  0  0
   -5.3620   16.0900  -32.6900 C   0  0  0  0  0  0  0  0  0  0  0  0
   -9.2876   19.5782  -30.6682 H   0  0  0  0  0  0  0  0  0  0  0  0
   -9.8665   17.8992  -30.9377 H   0  0  0  0  0  0  0  0  0  0  0  0
   -8.1054   18.2528  -30.9377 H   0  0  0  0  0  0  0  0  0  0  0  0
   -9.9036   18.2368  -33.1652 H   0  0  0  0  0  0  0  0  0  0  0  0
   -9.4170   19.9522  -32.8782 H   0  0  0  0  0  0  0  0  0  0  0  0
   -7.5862   20.8637  -31.7858 H   0  0  0  0  0  0  0  0  0  0  0  0
   -4.0802   24.8366  -27.1158 H   0  0  0  0  0  0  0  0  0  0  0  0
   -2.2509   24.5373  -25.4456 H   0  0  0  0  0  0  0  0  0  0  0  0
    0.4386   23.3130  -28.6065 H   0  0  0  0  0  0  0  0  0  0  0  0
   -1.3898   23.6125  -30.2806 H   0  0  0  0  0  0  0  0  0  0  0  0
   -2.1138   23.0771  -31.4577 H   0  0  0  0  0  0  0  0  0  0  0  0
   -1.9366   20.1293  -33.6289 H   0  0  0  0  0  0  0  0  0  0  0  0
   -1.4897   21.8733  -33.7706 H   0  0  0  0  0  0  0  0  0  0  0  0
   -1.1649   20.9654  -31.0232 H   0  0  0  0  0  0  0  0  0  0  0  0
   -0.2533   19.8987  -32.1448 H   0  0  0  0  0  0  0  0  0  0  0  0
    0.0489   21.6694  -32.1448 H   0  0  0  0  0  0  0  0  0  0  0  0
   -3.3854   19.2118  -33.9164 H   0  0  0  0  0  0  0  0  0  0  0  0
   -7.1063   16.4453  -33.9010 H   0  0  0  0  0  0  0  0  0  0  0  0
   -5.7070   15.7067  -34.7739 H   0  0  0  0  0  0  0  0  0  0  0  0
   -5.9985   16.4410  -31.8644 H   0  0  0  0  0  0  0  0  0  0  0  0
   -5.2427   14.9986  -32.6225 H   0  0  0  0  0  0  0  0  0  0  0  0
   -4.3753   16.5715  -32.6225 H   0  0  0  0  0  0  0  0  0  0  0  0
  1  2  1  0
  2  3  1  0
  3  4  1  0
  4  5  2  0
  5  6  1  0
  6  7  1  0
  7  8  2  0
  7  9  1  0
  9 10  1  0
 10 11  2  0
 10 12  2  0
 10 13  1  0
 13 14  2  0
 14 15  1  0
 15 16  2  0
 16 17  1  0
 16 18  1  0
 18 19  2  0
  9 20  2  0
 20 21  1  0
 21 22  1  0
 22 23  1  0
 21 24  1  0
 24 25  1  0
 25 26  2  0
 26 27  1  0
 27 28  1  0
 28 29  1  0
 26  4  1  0
 24  6  2  0
 19 13  1  0
  1 30  1  0
  1 31  1  0
  1 32  1  0
  2 33  1  0
  2 34  1  0
  5 35  1  0
 14 36  1  0
 15 37  1  0
 18 38  1  0
 19 39  1  0
 20 40  1  0
 22 41  1  0
 22 42  1  0
 23 43  1  0
 23 44  1  0
 23 45  1  0
 25 46  1  0
 28 47  1  0
 28 48  1  0
 29 49  1  0
 29 50  1  0
 29 51  1  0
M  END
>  <UniqueID>  (9) 
8

>  <SMILES>  (9) 
CCOc1cc2c(=O)c(S(=O)(=O)c3ccc(Br)cc3)cn(CC)c2cc1OCC

>  <Energy>  (9) 
58.90464645428439

>  <Genealogy>  (9) 
CCOc1cc2c(=O)c(S(=O)(=O)c3ccc(Br)cc3)cn(CC)c2cc1OCC (3D coordinates assigned)
CCOc1cc2c(=O)c(S(=O)(=O)c3ccc(Br)cc3)cn(CC)c2cc1OCC (optimized conformer: 58.90464645428439 kcal/mol)

>  <smiles>  (9) 
CCOc1cc2c(=O)c(S(=O)(=O)c3ccc(Br)cc3)cn(CC)c2cc1OCC

>  <score_type>  (9) 
oracle

>  <origin>  (9) 
adg

>  <m_score__min__energy>  (9) 
-8.9800000000000004

>  <m_primary>  (9) 
energy

$$$$
9:0
     RDKit          3D

 66 68  0  0  0  0  0  0  0  0999 V2000
    0.2720   20.2740  -31.5390 C   0  0  0  0  0  0  0  0  0  0  0  0
   -0.9860   19.5950  -32.0920 C   0  0  0  0  0  0  0  0  0  0  0  0
   -1.7640   20.4820  -32.9920 N   0  0  1  0  0  0  0  0  0  0  0  0
   -0.8870   21.3380  -33.8150 C   0  0  0  0  0  0  0  0  0  0  0  0
   -2.7260   19.7220  -33.8310 C   0  0  0  0  0  0  0  0  0  0  0  0
   -3.9650   19.2000  -33.0730 C   0  0  0  0  0  0  0  0  0  0  0  0
   -4.1670   19.9490  -31.8300 N   0  0  0  0  0  0  0  0  0  0  0  0
   -5.3570   20.7310  -31.6500 C   0  0  0  0  0  0  0  0  0  0  0  0
   -6.6080   20.1450  -31.9170 C   0  0  0  0  0  0  0  0  0  0  0  0
   -6.7110   18.7700  -32.2290 C   0  0  0  0  0  0  0  0  0  0  0  0
   -7.9550   18.1790  -32.4360 C   0  0  0  0  0  0  0  0  0  0  0  0
   -9.1130   18.9400  -32.3260 C   0  0  0  0  0  0  0  0  0  0  0  0
   -9.0320   20.3040  -32.0480 C   0  0  0  0  0  0  0  0  0  0  0  0
   -7.7770   20.9450  -31.8810 C   0  0  0  0  0  0  0  0  0  0  0  0
   -7.6740   22.3080  -31.6900 N   0  0  0  0  0  0  0  0  0  0  0  0
   -8.8340   23.1830  -31.9810 C   0  0  0  0  0  0  0  0  0  0  0  0
   -6.4840   22.8610  -31.2520 C   0  0  0  0  0  0  0  0  0  0  0  0
   -6.4180   24.2050  -30.8100 C   0  0  0  0  0  0  0  0  0  0  0  0
   -5.2150   24.7740  -30.4120 C   0  0  0  0  0  0  0  0  0  0  0  0
   -4.0540   24.0200  -30.3970 C   0  0  0  0  0  0  0  0  0  0  0  0
   -4.0750   22.6640  -30.7640 C   0  0  0  0  0  0  0  0  0  0  0  0
   -2.9160   21.8800  -30.6420 O   0  0  0  0  0  0  0  0  0  0  0  0
   -2.0960   21.7910  -29.4760 C   0  0  0  0  0  0  0  0  0  0  0  0
   -2.8030   20.9320  -28.4060 C   0  0  0  0  0  0  0  0  0  0  0  0
   -1.8970   20.1900  -27.4730 N   0  0  0  0  0  0  0  0  0  0  0  0
   -0.8640   19.4360  -28.2260 C   0  0  0  0  0  0  0  0  0  0  0  0
   -1.2410   21.0990  -26.5010 C   0  0  0  0  0  0  0  0  0  0  0  0
   -2.7190   19.2180  -26.7140 C   0  0  0  0  0  0  0  0  0  0  0  0
   -5.2910   22.0780  -31.2240 C   0  0  0  0  0  0  0  0  0  0  0  0
    0.2437   20.2587  -30.4395 H   0  0  0  0  0  0  0  0  0  0  0  0
    1.1642   19.7349  -31.8903 H   0  0  0  0  0  0  0  0  0  0  0  0
    0.3110   21.3157  -31.8903 H   0  0  0  0  0  0  0  0  0  0  0  0
   -0.6845   18.6991  -32.6546 H   0  0  0  0  0  0  0  0  0  0  0  0
   -1.6299   19.3396  -31.2375 H   0  0  0  0  0  0  0  0  0  0  0  0
   -2.3430   21.1220  -32.3990 H   0  0  0  0  0  0  0  0  0  0  0  0
   -0.2554   21.9545  -33.1585 H   0  0  0  0  0  0  0  0  0  0  0  0
   -0.2487   20.7060  -34.4499 H   0  0  0  0  0  0  0  0  0  0  0  0
   -1.5034   21.9914  -34.4499 H   0  0  0  0  0  0  0  0  0  0  0  0
   -3.0715   20.3818  -34.6405 H   0  0  0  0  0  0  0  0  0  0  0  0
   -2.1879   18.8355  -34.1979 H   0  0  0  0  0  0  0  0  0  0  0  0
   -4.8533   19.3143  -33.7116 H   0  0  0  0  0  0  0  0  0  0  0  0
   -3.8064   18.1402  -32.8248 H   0  0  0  0  0  0  0  0  0  0  0  0
   -3.5940   19.7260  -30.9850 H   0  0  0  0  0  0  0  0  0  0  0  0
   -5.7989   18.1604  -32.3091 H   0  0  0  0  0  0  0  0  0  0  0  0
   -8.0212   17.1100  -32.6866 H   0  0  0  0  0  0  0  0  0  0  0  0
  -10.0962   18.4648  -32.4586 H   0  0  0  0  0  0  0  0  0  0  0  0
   -9.9565   20.8931  -31.9566 H   0  0  0  0  0  0  0  0  0  0  0  0
   -9.2836   23.5221  -31.0361 H   0  0  0  0  0  0  0  0  0  0  0  0
   -8.4989   24.0552  -32.5615 H   0  0  0  0  0  0  0  0  0  0  0  0
   -9.5806   22.6212  -32.5615 H   0  0  0  0  0  0  0  0  0  0  0  0
   -7.3366   24.8095  -30.7814 H   0  0  0  0  0  0  0  0  0  0  0  0
   -5.1846   25.8304  -30.1068 H   0  0  0  0  0  0  0  0  0  0  0  0
   -3.1053   24.4874  -30.0946 H   0  0  0  0  0  0  0  0  0  0  0  0
   -1.1342   21.3271  -29.7401 H   0  0  0  0  0  0  0  0  0  0  0  0
   -1.9221   22.8006  -29.0755 H   0  0  0  0  0  0  0  0  0  0  0  0
   -3.4389   21.5971  -27.8033 H   0  0  0  0  0  0  0  0  0  0  0  0
   -3.3633   20.1630  -28.9580 H   0  0  0  0  0  0  0  0  0  0  0  0
   -0.1838   18.9395  -27.5183 H   0  0  0  0  0  0  0  0  0  0  0  0
   -1.3508   18.6794  -28.8589 H   0  0  0  0  0  0  0  0  0  0  0  0
   -0.2918   20.1303  -28.8589 H   0  0  0  0  0  0  0  0  0  0  0  0
   -1.4765   20.7727  -25.4772 H   0  0  0  0  0  0  0  0  0  0  0  0
   -0.1518   21.0735  -26.6526 H   0  0  0  0  0  0  0  0  0  0  0  0
   -1.6084   22.1247  -26.6526 H   0  0  0  0  0  0  0  0  0  0  0  0
   -2.5794   19.3831  -25.6355 H   0  0  0  0  0  0  0  0  0  0  0  0
   -3.7796   19.3547  -26.9716 H   0  0  0  0  0  0  0  0  0  0  0  0
   -2.4081   18.1948  -26.9716 H   0  0  0  0  0  0  0  0  0  0  0  0
  1  2  1  0
  2  3  1  0
  3  4  1  0
  3  5  1  0
  5  6  1  0
  6  7  1  0
  7  8  1  0
  8  9  2  0
  9 10  1  0
 10 11  2  0
 11 12  1  0
 12 13  2  0
 13 14  1  0
 14 15  2  0
 15 16  1  0
 15 17  1  0
 17 18  2  0
 18 19  1  0
 19 20  2  0
 20 21  1  0
 21 22  1  0
 22 23  1  0
 23 24  1  0
 24 25  1  0
 25 26  1  0
 25 27  1  0
 25 28  1  0
 21 29  2  0
 29  8  1  0
 14  9  1  0
 29 17  1  0
  1 30  1  0
  1 31  1  0
  1 32  1  0
  2 33  1  0
  2 34  1  0
  3 35  1  1
  4 36  1  0
  4 37  1  0
  4 38  1  0
  5 39  1  0
  5 40  1  0
  6 41  1  0
  6 42  1  0
  7 43  1  0
 10 44  1  0
 11 45  1  0
 12 46  1  0
 13 47  1  0
 16 48  1  0
 16 49  1  0
 16 50  1  0
 18 51  1  0
 19 52  1  0
 20 53  1  0
 23 54  1  0
 23 55  1  0
 24 56  1  0
 24 57  1  0
 26 58  1  0
 26 59  1  0
 26 60  1  0
 27 61  1  0
 27 62  1  0
 27 63  1  0
 28 64  1  0
 28 65  1  0
 28 66  1  0
M  CHG  3   3   1  15   1  25   1
M  END
>  <UniqueID>  (10) 
9

>  <SMILES>  (10) 
CC[N@@H+](C)CCNc1c2ccccc2[n+](C)c2cccc(OCC[N+](C)(C)C)c12

>  <Energy>  (10) 
101.14678961120956

>  <Genealogy>  (10) 
CC[NH+](C)CCNc1c2ccccc2[n+](C)c2cccc(OCC[N+](C)(C)C)c12 (protonated)
CC[N@@H+](C)CCNc1c2ccccc2[n+](C)c2cccc(OCC[N+](C)(C)C)c12 (chirality)
CC[N@@H+](C)CCNc1c2ccccc2[n+](C)c2cccc(OCC[N+](C)(C)C)c12 (3D coordinates assigned)
CC[N@@H+](C)CCNc1c2ccccc2[n+](C)c2cccc(OCC[N+](C)(C)C)c12 (optimized conformer: 101.14678961120956 kcal/mol)

>  <smiles>  (10) 
CCN(C)CCNc1c2ccccc2[n+](C)c2cccc(OCC[N+](C)(C)C)c12

>  <score_type>  (10) 
oracle

>  <origin>  (10) 
adg

>  <m_score__min__energy>  (10) 
-6.1100000000000003

>  <m_primary>  (10) 
energy

$$$$
10:0
     RDKit          3D

 67 71  0  0  0  0  0  0  0  0999 V2000
   -1.4618   16.2801  -35.1114 H   0  0  0  0  0  0  0  0  0  0  0  0
   -1.7260   17.2520  -34.6690 C   0  0  0  0  0  0  0  0  0  0  0  0
   -3.0290   17.5310  -34.3740 N   0  0  0  0  0  0  0  0  0  0  0  0
   -3.3610   18.7390  -33.8510 C   0  0  0  0  0  0  0  0  0  0  0  0
   -2.3990   19.6870  -33.5610 C   0  0  0  0  0  0  0  0  0  0  0  0
   -1.0540   19.4360  -33.8420 C   0  0  0  0  0  0  0  0  0  0  0  0
   -0.2803   20.1867  -33.6233 H   0  0  0  0  0  0  0  0  0  0  0  0
   -0.7190   18.1990  -34.4110 C   0  0  0  0  0  0  0  0  0  0  0  0
    0.3289   17.9700  -34.6549 H   0  0  0  0  0  0  0  0  0  0  0  0
   -3.0680   20.8150  -32.9040 C   0  0  0  0  0  0  0  0  0  0  0  0
   -2.5400   21.9280  -32.4980 N   0  0  0  0  0  0  0  0  0  0  0  0
   -2.3960   22.2300  -31.1650 O   0  0  0  0  0  0  0  0  0  0  0  0
   -1.1290   22.1220  -30.5360 C   0  0  0  0  0  0  0  0  0  0  0  0
   -0.3603   22.5770  -31.1779 H   0  0  0  0  0  0  0  0  0  0  0  0
   -1.1526   22.6446  -29.5684 H   0  0  0  0  0  0  0  0  0  0  0  0
   -0.8000   20.6500  -30.3130 C   0  0  0  0  0  0  0  0  0  0  0  0
   -1.2258   20.0551  -31.1344 H   0  0  0  0  0  0  0  0  0  0  0  0
    0.2930   20.5291  -30.2855 H   0  0  0  0  0  0  0  0  0  0  0  0
   -1.3620   20.1870  -29.0390 N   0  0  0  0  0  0  0  0  0  0  0  0
   -0.6980   19.2380  -28.3100 C   0  0  0  0  0  0  0  0  0  0  0  0
    0.2528   18.8296  -28.6832 H   0  0  0  0  0  0  0  0  0  0  0  0
   -1.2180   18.7840  -27.0960 C   0  0  0  0  0  0  0  0  0  0  0  0
   -0.6773   18.0274  -26.5085 H   0  0  0  0  0  0  0  0  0  0  0  0
   -2.4290   19.2990  -26.6360 C   0  0  0  0  0  0  0  0  0  0  0  0
   -2.8472   18.9543  -25.6788 H   0  0  0  0  0  0  0  0  0  0  0  0
   -3.1080   20.2520  -27.3930 C   0  0  0  0  0  0  0  0  0  0  0  0
   -4.0670   20.6597  -27.0409 H   0  0  0  0  0  0  0  0  0  0  0  0
   -2.5600   20.6850  -28.6030 C   0  0  0  0  0  0  0  0  0  0  0  0
   -3.0948   21.4310  -29.2092 H   0  0  0  0  0  0  0  0  0  0  0  0
   -4.4900   20.4550  -32.8060 C   0  0  0  0  0  0  0  0  0  0  0  0
   -5.5330   21.1050  -32.1530 C   0  0  0  0  0  0  0  0  0  0  0  0
   -5.2890   22.3210  -31.4280 N   0  0  0  0  0  0  0  0  0  0  0  0
   -4.4270   22.8670  -31.6530 H   0  0  0  0  0  0  0  0  0  0  0  0
   -5.9260   22.5620  -30.1350 C   0  0  0  0  0  0  0  0  0  0  0  0
   -6.2377   21.6015  -29.6987 H   0  0  0  0  0  0  0  0  0  0  0  0
   -6.8030   23.2096  -30.2817 H   0  0  0  0  0  0  0  0  0  0  0  0
   -4.9390   23.2600  -29.1780 C   0  0  0  0  0  0  0  0  0  0  0  0
   -4.3785   22.4855  -28.6340 H   0  0  0  0  0  0  0  0  0  0  0  0
   -5.5390   23.8962  -28.5107 H   0  0  0  0  0  0  0  0  0  0  0  0
   -3.9670   24.1480  -29.8570 N   0  0  0  0  0  0  0  0  0  0  0  0
   -4.6160   25.3210  -30.4680 C   0  0  0  0  0  0  0  0  0  0  0  0
   -4.9858   25.9893  -29.6764 H   0  0  0  0  0  0  0  0  0  0  0  0
   -3.8875   25.8596  -31.0919 H   0  0  0  0  0  0  0  0  0  0  0  0
   -5.4593   24.9900  -31.0919 H   0  0  0  0  0  0  0  0  0  0  0  0
   -2.8370   24.5310  -28.9810 C   0  0  0  0  0  0  0  0  0  0  0  0
   -2.7005   25.6217  -29.0230 H   0  0  0  0  0  0  0  0  0  0  0  0
   -1.9278   24.0202  -29.3310 H   0  0  0  0  0  0  0  0  0  0  0  0
   -3.1110   24.1150  -27.5390 C   0  0  0  0  0  0  0  0  0  0  0  0
   -2.6377   24.8337  -26.8538 H   0  0  0  0  0  0  0  0  0  0  0  0
   -4.1965   24.0997  -27.3617 H   0  0  0  0  0  0  0  0  0  0  0  0
   -2.6964   23.1117  -27.3617 H   0  0  0  0  0  0  0  0  0  0  0  0
   -6.8020   20.4840  -32.1570 C   0  0  0  0  0  0  0  0  0  0  0  0
   -7.9110   21.1080  -31.5500 C   0  0  0  0  0  0  0  0  0  0  0  0
   -7.7947   22.1042  -31.0983 H   0  0  0  0  0  0  0  0  0  0  0  0
   -9.1520   20.4770  -31.5160 C   0  0  0  0  0  0  0  0  0  0  0  0
  -10.0090   20.9777  -31.0419 H   0  0  0  0  0  0  0  0  0  0  0  0
   -9.3110   19.2150  -32.0800 C   0  0  0  0  0  0  0  0  0  0  0  0
  -10.2884   18.7128  -32.0294 H   0  0  0  0  0  0  0  0  0  0  0  0
   -8.2390   18.5830  -32.7090 C   0  0  0  0  0  0  0  0  0  0  0  0
   -8.3800   17.5828  -33.1445 H   0  0  0  0  0  0  0  0  0  0  0  0
   -6.9710   19.2090  -32.7960 C   0  0  0  0  0  0  0  0  0  0  0  0
   -5.9080   18.6150  -33.4630 N   0  0  0  0  0  0  0  0  0  0  0  0
   -6.0760   17.3670  -34.2260 C   0  0  0  0  0  0  0  0  0  0  0  0
   -6.1895   16.5236  -33.5290 H   0  0  0  0  0  0  0  0  0  0  0  0
   -6.9721   17.4423  -34.8595 H   0  0  0  0  0  0  0  0  0  0  0  0
   -5.1919   17.2027  -34.8595 H   0  0  0  0  0  0  0  0  0  0  0  0
   -4.6790   19.2210  -33.4000 C   0  0  0  0  0  0  0  0  0  0  0  0
  1  2  1  0
  2  3  2  0
  3  4  1  0
  4  5  2  0
  5  6  1  0
  6  7  1  0
  6  8  2  0
  8  9  1  0
  5 10  1  0
 10 11  2  0
 11 12  1  0
 12 13  1  0
 13 14  1  0
 13 15  1  0
 13 16  1  0
 16 17  1  0
 16 18  1  0
 16 19  1  0
 19 20  2  0
 20 21  1  0
 20 22  1  0
 22 23  1  0
 22 24  2  0
 24 25  1  0
 24 26  1  0
 26 27  1  0
 26 28  2  0
 28 29  1  0
 10 30  1  0
 30 31  2  0
 31 32  1  0
 32 33  1  0
 32 34  1  0
 34 35  1  0
 34 36  1  0
 34 37  1  0
 37 38  1  0
 37 39  1  0
 37 40  1  0
 40 41  1  0
 41 42  1  0
 41 43  1  0
 41 44  1  0
 40 45  1  0
 45 46  1  0
 45 47  1  0
 45 48  1  0
 48 49  1  0
 48 50  1  0
 48 51  1  0
 31 52  1  0
 52 53  2  0
 53 54  1  0
 53 55  1  0
 55 56  1  0
 55 57  2  0
 57 58  1  0
 57 59  1  0
 59 60  1  0
 59 61  2  0
 61 62  1  0
 62 63  1  0
 63 64  1  0
 63 65  1  0
 63 66  1  0
 62 67  2  0
  8  2  1  0
 28 19  1  0
 67 30  1  0
 67  4  1  0
 61 52  1  0
M  CHG  2  19   1  62   1
M  END
>  <UniqueID>  (11) 
10

>  <SMILES>  (11) 
CCN(C)CCNc1c2c([n+](C)c3ccccc13)-c1ncccc1/C2=N\OCC[n+]1ccccc1

>  <Energy>  (11) 
120.11955465732649

>  <Genealogy>  (11) 
CCN(C)CCNc1c2c([n+](C)c3ccccc13)-c1ncccc1/C2=N\OCC[n+]1ccccc1 (cis-trans isomerization)
CCN(C)CCNc1c2c([n+](C)c3ccccc13)-c1ncccc1/C2=N\OCC[n+]1ccccc1 (3D coordinates assigned)
CCN(C)CCNc1c2c([n+](C)c3ccccc13)-c1ncccc1/C2=N\OCC[n+]1ccccc1 (nonaromatic ring conformer: 120.11955465732649 kcal/mol)

>  <smiles>  (11) 
CCN(C)CCNc1c2c([n+](C)c3ccccc13)-c1ncccc1C2=NOCC[n+]1ccccc1

>  <score_type>  (11) 
oracle

>  <origin>  (11) 
adg

>  <m_score__min__energy>  (11) 
-8.5800000000000001

>  <m_primary>  (11) 
energy

$$$$
11:0
     RDKit          3D

 82 85  0  0  0  0  0  0  0  0999 V2000
    0.6710   23.1430  -36.0470 C   0  0  0  0  0  0  0  0  0  0  0  0
    0.4510   21.6540  -35.7850 C   0  0  0  0  0  0  0  0  0  0  0  0
    1.0540   21.2140  -34.4510 C   0  0  0  0  0  0  0  0  0  0  0  0
    0.0120   20.6130  -33.5820 N   0  0  0  0  0  0  0  0  0  0  0  0
    0.2210   20.7990  -32.1240 C   0  0  0  0  0  0  0  0  0  0  0  0
    0.7090   19.5230  -31.4170 C   0  0  0  0  0  0  0  0  0  0  0  0
   -0.3620   18.4350  -31.3990 C   0  0  0  0  0  0  0  0  0  0  0  0
   -1.3980   20.6960  -34.0310 C   0  0  0  0  0  0  0  0  0  0  0  0
   -2.4410   20.8390  -32.8930 C   0  0  0  0  0  0  0  0  0  0  0  0
   -3.5280   21.7860  -33.2220 N   0  0  0  0  0  0  0  0  0  0  0  0
   -4.8060   21.4480  -32.5930 C   0  0  0  0  0  0  0  0  0  0  0  0
   -5.4950   20.2330  -32.9240 C   0  0  0  0  0  0  0  0  0  0  0  0
   -4.8670   19.1420  -33.6030 C   0  0  0  0  0  0  0  0  0  0  0  0
   -5.5550   17.9590  -33.8600 C   0  0  0  0  0  0  0  0  0  0  0  0
   -6.8610   17.7970  -33.4230 C   0  0  0  0  0  0  0  0  0  0  0  0
   -7.5120   18.8400  -32.7680 C   0  0  0  0  0  0  0  0  0  0  0  0
   -6.8700   20.0960  -32.5610 C   0  0  0  0  0  0  0  0  0  0  0  0
   -7.5570   21.1640  -32.0300 N   0  0  0  0  0  0  0  0  0  0  0  0
   -9.0400   21.1830  -32.0560 C   0  0  0  0  0  0  0  0  0  0  0  0
   -6.8610   22.2260  -31.4860 C   0  0  0  0  0  0  0  0  0  0  0  0
   -7.5340   23.1850  -30.6880 C   0  0  0  0  0  0  0  0  0  0  0  0
   -6.8580   24.2450  -30.1190 C   0  0  0  0  0  0  0  0  0  0  0  0
   -5.4900   24.3650  -30.2790 C   0  0  0  0  0  0  0  0  0  0  0  0
   -4.7600   23.4250  -31.0300 C   0  0  0  0  0  0  0  0  0  0  0  0
   -3.3570   23.5120  -31.0790 O   0  0  0  0  0  0  0  0  0  0  0  0
   -2.4350   23.0000  -30.1040 C   0  0  0  0  0  0  0  0  0  0  0  0
   -3.1150   21.9500  -29.1860 C   0  0  0  0  0  0  0  0  0  0  0  0
   -2.2280   21.3070  -28.1600 N   0  0  0  0  0  0  0  0  0  0  0  0
   -1.8020   22.3400  -27.1720 C   0  0  0  0  0  0  0  0  0  0  0  0
   -3.0480   20.2590  -27.4770 C   0  0  0  0  0  0  0  0  0  0  0  0
   -2.2540   19.3400  -26.5350 C   0  0  0  0  0  0  0  0  0  0  0  0
   -1.0680   18.7100  -27.2590 C   0  0  0  0  0  0  0  0  0  0  0  0
   -0.2070   19.8030  -27.8800 C   0  0  0  0  0  0  0  0  0  0  0  0
   -1.0420   20.6850  -28.8200 C   0  0  0  0  0  0  0  0  0  0  0  0
   -5.4550   22.3690  -31.7080 C   0  0  0  0  0  0  0  0  0  0  0  0
    0.7498   23.6763  -35.0882 H   0  0  0  0  0  0  0  0  0  0  0  0
    1.5993   23.2811  -36.6207 H   0  0  0  0  0  0  0  0  0  0  0  0
   -0.1777   23.5437  -36.6207 H   0  0  0  0  0  0  0  0  0  0  0  0
   -0.6301   21.4515  -35.7704 H   0  0  0  0  0  0  0  0  0  0  0  0
    0.9497   21.0898  -36.5868 H   0  0  0  0  0  0  0  0  0  0  0  0
    1.8424   20.4701  -34.6381 H   0  0  0  0  0  0  0  0  0  0  0  0
    1.4755   22.0944  -33.9438 H   0  0  0  0  0  0  0  0  0  0  0  0
    0.9710   21.5900  -31.9759 H   0  0  0  0  0  0  0  0  0  0  0  0
   -0.7514   21.0661  -31.6846 H   0  0  0  0  0  0  0  0  0  0  0  0
    1.5949   19.1408  -31.9453 H   0  0  0  0  0  0  0  0  0  0  0  0
    0.9485   19.7818  -30.3751 H   0  0  0  0  0  0  0  0  0  0  0  0
   -0.6106   18.1824  -30.3577 H   0  0  0  0  0  0  0  0  0  0  0  0
   -1.2636   18.7994  -31.9132 H   0  0  0  0  0  0  0  0  0  0  0  0
    0.0166   17.5393  -31.9132 H   0  0  0  0  0  0  0  0  0  0  0  0
   -1.4942   21.5687  -34.6936 H   0  0  0  0  0  0  0  0  0  0  0  0
   -1.6179   19.7413  -34.5312 H   0  0  0  0  0  0  0  0  0  0  0  0
   -2.8838   19.8513  -32.6970 H   0  0  0  0  0  0  0  0  0  0  0  0
   -1.9148   21.2349  -32.0119 H   0  0  0  0  0  0  0  0  0  0  0  0
   -3.6290   21.9030  -34.2560 H   0  0  0  0  0  0  0  0  0  0  0  0
   -3.1650   22.7180  -32.9440 H   0  0  0  0  0  0  0  0  0  0  0  0
   -3.8207   19.2393  -33.9283 H   0  0  0  0  0  0  0  0  0  0  0  0
   -5.0593   17.1477  -34.4133 H   0  0  0  0  0  0  0  0  0  0  0  0
   -7.3834   16.8441  -33.5937 H   0  0  0  0  0  0  0  0  0  0  0  0
   -8.5394   18.6919  -32.4041 H   0  0  0  0  0  0  0  0  0  0  0  0
   -9.4248   21.1879  -31.0255 H   0  0  0  0  0  0  0  0  0  0  0  0
   -9.3860   22.0857  -32.5809 H   0  0  0  0  0  0  0  0  0  0  0  0
   -9.4090   20.2895  -32.5809 H   0  0  0  0  0  0  0  0  0  0  0  0
   -8.6161   23.0822  -30.5190 H   0  0  0  0  0  0  0  0  0  0  0  0
   -7.4096   24.9972  -29.5360 H   0  0  0  0  0  0  0  0  0  0  0  0
   -4.9631   25.2097  -29.8112 H   0  0  0  0  0  0  0  0  0  0  0  0
   -1.5886   22.5275  -30.6239 H   0  0  0  0  0  0  0  0  0  0  0  0
   -2.0884   23.8365  -29.4794 H   0  0  0  0  0  0  0  0  0  0  0  0
   -3.9387   22.4493  -28.6547 H   0  0  0  0  0  0  0  0  0  0  0  0
   -3.4397   21.1368  -29.8518 H   0  0  0  0  0  0  0  0  0  0  0  0
   -1.9592   21.9589  -26.1522 H   0  0  0  0  0  0  0  0  0  0  0  0
   -0.7360   22.5691  -27.3176 H   0  0  0  0  0  0  0  0  0  0  0  0
   -2.3966   23.2539  -27.3176 H   0  0  0  0  0  0  0  0  0  0  0  0
   -3.8279   20.7634  -26.8877 H   0  0  0  0  0  0  0  0  0  0  0  0
   -3.4559   19.6155  -28.2704 H   0  0  0  0  0  0  0  0  0  0  0  0
   -1.8838   19.9303  -25.6838 H   0  0  0  0  0  0  0  0  0  0  0  0
   -2.9191   18.5364  -26.1858 H   0  0  0  0  0  0  0  0  0  0  0  0
   -0.4658   18.1333  -26.5415 H   0  0  0  0  0  0  0  0  0  0  0  0
   -1.4373   18.0423  -28.0514 H   0  0  0  0  0  0  0  0  0  0  0  0
    0.2157   20.4279  -27.0795 H   0  0  0  0  0  0  0  0  0  0  0  0
    0.5983   19.3305  -28.4616 H   0  0  0  0  0  0  0  0  0  0  0  0
   -0.3978   21.4886  -29.2063 H   0  0  0  0  0  0  0  0  0  0  0  0
   -1.4231   20.0331  -29.6199 H   0  0  0  0  0  0  0  0  0  0  0  0
  1  2  1  0
  2  3  1  0
  3  4  1  0
  4  5  1  0
  5  6  1  0
  6  7  1  0
  4  8  1  0
  8  9  1  0
  9 10  1  0
 10 11  1  0
 11 12  2  0
 12 13  1  0
 13 14  2  0
 14 15  1  0
 15 16  2  0
 16 17  1  0
 17 18  2  0
 18 19  1  0
 18 20  1  0
 20 21  2  0
 21 22  1  0
 22 23  2  0
 23 24  1  0
 24 25  1  0
 25 26  1  0
 26 27  1  0
 27 28  1  0
 28 29  1  0
 28 30  1  0
 30 31  1  0
 31 32  1  0
 32 33  1  0
 33 34  1  0
 24 35  2  0
 35 11  1  0
 17 12  1  0
 35 20  1  0
 34 28  1  0
  1 36  1  0
  1 37  1  0
  1 38  1  0
  2 39  1  0
  2 40  1  0
  3 41  1  0
  3 42  1  0
  5 43  1  0
  5 44  1  0
  6 45  1  0
  6 46  1  0
  7 47  1  0
  7 48  1  0
  7 49  1  0
  8 50  1  0
  8 51  1  0
  9 52  1  0
  9 53  1  0
 10 54  1  0
 10 55  1  0
 13 56  1  0
 14 57  1  0
 15 58  1  0
 16 59  1  0
 19 60  1  0
 19 61  1  0
 19 62  1  0
 21 63  1  0
 22 64  1  0
 23 65  1  0
 26 66  1  0
 26 67  1  0
 27 68  1  0
 27 69  1  0
 29 70  1  0
 29 71  1  0
 29 72  1  0
 30 73  1  0
 30 74  1  0
 31 75  1  0
 31 76  1  0
 32 77  1  0
 32 78  1  0
 33 79  1  0
 33 80  1  0
 34 81  1  0
 34 82  1  0
M  CHG  3  10   1  18   1  28   1
M  END
>  <UniqueID>  (12) 
11

>  <SMILES>  (12) 
CCCN(CCC)CC[NH2+]c1c2ccccc2[n+](C)c2cccc(OCC[N+]3(C)CCCCC3)c12

>  <Energy>  (12) 
135.93422002587772

>  <Genealogy>  (12) 
CCCN(CCC)CC[NH2+]c1c2ccccc2[n+](C)c2cccc(OCC[N+]3(C)CCCCC3)c12 (protonated)
CCCN(CCC)CC[NH2+]c1c2ccccc2[n+](C)c2cccc(OCC[N+]3(C)CCCCC3)c12 (3D coordinates assigned)
CCCN(CCC)CC[NH2+]c1c2ccccc2[n+](C)c2cccc(OCC[N+]3(C)CCCCC3)c12 (nonaromatic ring conformer: 135.93422002587772 kcal/mol)

>  <smiles>  (12) 
CCCN(CCC)CCNc1c2ccccc2[n+](C)c2cccc(OCC[N+]3(C)CCCCC3)c12

>  <score_type>  (12) 
oracle

>  <origin>  (12) 
adg

>  <m_score__min__energy>  (12) 
-7.8700000000000001

>  <m_primary>  (12) 
energy

$$$$
12:0
     RDKit          3D

 40 41  0  0  0  0  0  0  0  0999 V2000
   -5.7800   19.1290  -32.5410 C   0  0  0  0  0  0  0  0  0  0  0  0
   -6.1240   20.4580  -33.2040 C   0  0  0  0  0  0  0  0  0  0  0  0
   -6.3190   21.5000  -32.1940 N   0  0  0  0  0  0  0  0  0  0  0  0
   -5.3370   22.3050  -31.7370 C   0  0  0  0  0  0  0  0  0  0  0  0
   -5.8620   23.2080  -30.8390 C   0  0  0  0  0  0  0  0  0  0  0  0
   -4.9800   24.4700  -29.9970 S   0  0  0  0  0  0  0  0  0  0  0  0
   -4.2960   25.3410  -31.0120 O   0  0  0  0  0  0  0  0  0  0  0  0
   -5.9410   25.3030  -29.1930 O   0  0  0  0  0  0  0  0  0  0  0  0
   -3.7970   23.7470  -28.9340 N   0  0  0  0  0  0  0  0  0  0  0  0
   -4.2380   23.8160  -27.5170 C   0  0  0  0  0  0  0  0  0  0  0  0
   -3.5300   24.9240  -26.7210 C   0  0  0  0  0  0  0  0  0  0  0  0
   -2.0040   24.7310  -26.7370 C   0  0  0  0  0  0  0  0  0  0  0  0
   -1.5010   24.0720  -28.0330 C   0  0  0  0  0  0  0  0  0  0  0  0
   -2.4650   24.3330  -29.1950 C   0  0  0  0  0  0  0  0  0  0  0  0
   -7.2130   22.9650  -30.7440 C   0  0  0  0  0  0  0  0  0  0  0  0
   -7.4730   21.9060  -31.5990 C   0  0  0  0  0  0  0  0  0  0  0  0
   -8.8230   21.3450  -31.8160 C   0  0  0  0  0  0  0  0  0  0  0  0
   -9.8430   21.9110  -31.3380 O   0  0  0  0  0  0  0  0  0  0  0  0
   -8.9580   20.1690  -32.5610 O   0  0  0  0  0  0  0  0  0  0  0  0
   -9.1270   18.8920  -31.9560 C   0  0  0  0  0  0  0  0  0  0  0  0
   -5.8103   19.2460  -31.4477 H   0  0  0  0  0  0  0  0  0  0  0  0
   -6.5102   18.3660  -32.8485 H   0  0  0  0  0  0  0  0  0  0  0  0
   -4.7713   18.8161  -32.8485 H   0  0  0  0  0  0  0  0  0  0  0  0
   -5.3021   20.7520  -33.8733 H   0  0  0  0  0  0  0  0  0  0  0  0
   -7.0556   20.3391  -33.7767 H   0  0  0  0  0  0  0  0  0  0  0  0
   -4.2798   22.2487  -32.0357 H   0  0  0  0  0  0  0  0  0  0  0  0
   -5.3211   24.0067  -27.4959 H   0  0  0  0  0  0  0  0  0  0  0  0
   -3.9807   22.8562  -27.0452 H   0  0  0  0  0  0  0  0  0  0  0  0
   -3.7732   25.8989  -27.1686 H   0  0  0  0  0  0  0  0  0  0  0  0
   -3.8761   24.8794  -25.6778 H   0  0  0  0  0  0  0  0  0  0  0  0
   -1.5240   25.7153  -26.6338 H   0  0  0  0  0  0  0  0  0  0  0  0
   -1.7456   24.0621  -25.9029 H   0  0  0  0  0  0  0  0  0  0  0  0
   -0.5133   24.4849  -28.2860 H   0  0  0  0  0  0  0  0  0  0  0  0
   -1.4361   22.9860  -27.8702 H   0  0  0  0  0  0  0  0  0  0  0  0
   -2.5728   25.4189  -29.3334 H   0  0  0  0  0  0  0  0  0  0  0  0
   -2.0516   23.8629  -30.0995 H   0  0  0  0  0  0  0  0  0  0  0  0
   -7.9393   23.5024  -30.1166 H   0  0  0  0  0  0  0  0  0  0  0  0
   -9.1127   19.0001  -30.8614 H   0  0  0  0  0  0  0  0  0  0  0  0
  -10.0898   18.4623  -32.2695 H   0  0  0  0  0  0  0  0  0  0  0  0
   -8.3091   18.2266  -32.2695 H   0  0  0  0  0  0  0  0  0  0  0  0
  1  2  1  0
  2  3  1  0
  3  4  1  0
  4  5  2  0
  5  6  1  0
  6  7  2  0
  6  8  2  0
  6  9  1  0
  9 10  1  0
 10 11  1  0
 11 12  1  0
 12 13  1  0
 13 14  1  0
  5 15  1  0
 15 16  2  0
 16 17  1  0
 17 18  2  0
 17 19  1  0
 19 20  1  0
 16  3  1  0
 14  9  1  0
  1 21  1  0
  1 22  1  0
  1 23  1  0
  2 24  1  0
  2 25  1  0
  4 26  1  0
 10 27  1  0
 10 28  1  0
 11 29  1  0
 11 30  1  0
 12 31  1  0
 12 32  1  0
 13 33  1  0
 13 34  1  0
 14 35  1  0
 14 36  1  0
 15 37  1  0
 20 38  1  0
 20 39  1  0
 20 40  1  0
M  END
>  <UniqueID>  (13) 
12

>  <SMILES>  (13) 
CCn1cc(S(=O)(=O)N2CCCCC2)cc1C(=O)OC

>  <Energy>  (13) 
65.18251930758767

>  <Genealogy>  (13) 
CCn1cc(S(=O)(=O)N2CCCCC2)cc1C(=O)OC (3D coordinates assigned)
CCn1cc(S(=O)(=O)N2CCCCC2)cc1C(=O)OC (nonaromatic ring conformer: 65.18251930758767 kcal/mol)

>  <smiles>  (13) 
CCn1cc(S(=O)(=O)N2CCCCC2)cc1C(=O)OC

>  <score_type>  (13) 
oracle

>  <origin>  (13) 
adg

>  <m_score__min__energy>  (13) 
-7.8099999999999996

>  <m_primary>  (13) 
energy

$$$$
13:0
     RDKit          3D

 62 65  0  0  0  0  0  0  0  0999 V2000
   -0.9270   26.3670  -37.2570 C   0  0  0  0  0  0  0  0  0  0  0  0
   -0.1170   25.6790  -36.1620 C   0  0  0  0  0  0  0  0  0  0  0  0
   -0.0210   24.2350  -36.4210 N   0  0  0  0  0  0  0  0  0  0  0  0
    1.3130   23.7190  -36.0860 C   0  0  0  0  0  0  0  0  0  0  0  0
    1.2010   22.2960  -35.5410 C   0  0  0  0  0  0  0  0  0  0  0  0
   -0.0740   22.1530  -34.8140 N   0  0  0  0  0  0  0  0  0  0  0  0
   -0.3290   20.7740  -34.3740 C   0  0  0  0  0  0  0  0  0  0  0  0
   -0.4120   20.6700  -32.8420 C   0  0  0  0  0  0  0  0  0  0  0  0
   -1.8350   20.8510  -32.2910 C   0  0  0  0  0  0  0  0  0  0  0  0
   -2.8310   20.8950  -33.3630 N   0  0  0  0  0  0  0  0  0  0  0  0
   -3.9380   19.9880  -33.3440 C   0  0  0  0  0  0  0  0  0  0  0  0
   -3.8400   18.7030  -33.9260 C   0  0  0  0  0  0  0  0  0  0  0  0
   -2.6530   18.2950  -34.5660 C   0  0  0  0  0  0  0  0  0  0  0  0
   -2.5670   17.0420  -35.1690 C   0  0  0  0  0  0  0  0  0  0  0  0
   -3.6580   16.1800  -35.1530 C   0  0  0  0  0  0  0  0  0  0  0  0
   -4.8430   16.5530  -34.5190 C   0  0  0  0  0  0  0  0  0  0  0  0
   -4.9610   17.8070  -33.8700 C   0  0  0  0  0  0  0  0  0  0  0  0
   -6.1220   18.1780  -33.2070 N   0  0  0  0  0  0  0  0  0  0  0  0
   -7.2460   17.2370  -33.0440 C   0  0  0  0  0  0  0  0  0  0  0  0
   -6.2110   19.4550  -32.7150 C   0  0  0  0  0  0  0  0  0  0  0  0
   -7.3060   20.0290  -32.1580 N   0  0  0  0  0  0  0  0  0  0  0  0
   -6.9260   21.2860  -31.8550 C   0  0  0  0  0  0  0  0  0  0  0  0
   -7.7220   22.2780  -31.2890 C   0  0  0  0  0  0  0  0  0  0  0  0
   -7.1520   23.5440  -31.0810 C   0  0  0  0  0  0  0  0  0  0  0  0
   -5.8130   23.8070  -31.4450 C   0  0  0  0  0  0  0  0  0  0  0  0
   -5.3100   25.0940  -31.2090 O   0  0  0  0  0  0  0  0  0  0  0  0
   -5.7330   25.9390  -30.1460 C   0  0  0  0  0  0  0  0  0  0  0  0
   -5.0290   22.7800  -32.0300 C   0  0  0  0  0  0  0  0  0  0  0  0
   -5.6170   21.5250  -32.2110 C   0  0  0  0  0  0  0  0  0  0  0  0
   -5.1540   20.3430  -32.7680 C   0  0  0  0  0  0  0  0  0  0  0  0
   -1.6888   27.0141  -36.7978 H   0  0  0  0  0  0  0  0  0  0  0  0
   -0.2566   26.9760  -37.8813 H   0  0  0  0  0  0  0  0  0  0  0  0
   -1.4195   25.6069  -37.8813 H   0  0  0  0  0  0  0  0  0  0  0  0
    0.8948   26.1098  -36.1356 H   0  0  0  0  0  0  0  0  0  0  0  0
   -0.6212   25.8340  -35.1967 H   0  0  0  0  0  0  0  0  0  0  0  0
   -0.7110   23.7540  -35.7950 H   0  0  0  0  0  0  0  0  0  0  0  0
    1.9395   23.7146  -36.9901 H   0  0  0  0  0  0  0  0  0  0  0  0
    1.7680   24.3643  -35.3201 H   0  0  0  0  0  0  0  0  0  0  0  0
    1.2311   21.5794  -36.3750 H   0  0  0  0  0  0  0  0  0  0  0  0
    2.0397   22.0952  -34.8582 H   0  0  0  0  0  0  0  0  0  0  0  0
   -0.8500   22.4200  -35.4650 H   0  0  0  0  0  0  0  0  0  0  0  0
   -1.2811   20.4326  -34.8062 H   0  0  0  0  0  0  0  0  0  0  0  0
    0.5074   20.1460  -34.7147 H   0  0  0  0  0  0  0  0  0  0  0  0
   -0.0454   19.6778  -32.5401 H   0  0  0  0  0  0  0  0  0  0  0  0
    0.2007   21.4849  -32.4290 H   0  0  0  0  0  0  0  0  0  0  0  0
   -2.0680   20.0089  -31.6227 H   0  0  0  0  0  0  0  0  0  0  0  0
   -1.8730   21.8075  -31.7492 H   0  0  0  0  0  0  0  0  0  0  0  0
   -2.5990   21.3450  -34.2780 H   0  0  0  0  0  0  0  0  0  0  0  0
   -1.7863   18.9719  -34.5898 H   0  0  0  0  0  0  0  0  0  0  0  0
   -1.6322   16.7333  -35.6598 H   0  0  0  0  0  0  0  0  0  0  0  0
   -3.5860   15.1980  -35.6433 H   0  0  0  0  0  0  0  0  0  0  0  0
   -5.6995   15.8628  -34.5229 H   0  0  0  0  0  0  0  0  0  0  0  0
   -7.4375   17.0766  -31.9727 H   0  0  0  0  0  0  0  0  0  0  0  0
   -8.1459   17.6549  -33.5188 H   0  0  0  0  0  0  0  0  0  0  0  0
   -6.9928   16.2776  -33.5188 H   0  0  0  0  0  0  0  0  0  0  0  0
   -8.2620   19.6340  -32.0240 H   0  0  0  0  0  0  0  0  0  0  0  0
   -8.7674   22.0757  -31.0127 H   0  0  0  0  0  0  0  0  0  0  0  0
   -7.7572   24.3429  -30.6278 H   0  0  0  0  0  0  0  0  0  0  0  0
   -5.4951   25.4637  -29.1829 H   0  0  0  0  0  0  0  0  0  0  0  0
   -5.2124   26.9054  -30.2165 H   0  0  0  0  0  0  0  0  0  0  0  0
   -6.8187   26.1014  -30.2165 H   0  0  0  0  0  0  0  0  0  0  0  0
   -3.9879   22.9659  -32.3326 H   0  0  0  0  0  0  0  0  0  0  0  0
  1  2  1  0
  2  3  1  0
  3  4  1  0
  4  5  1  0
  5  6  1  0
  6  7  1  0
  7  8  1  0
  8  9  1  0
  9 10  1  0
 10 11  1  0
 11 12  2  0
 12 13  1  0
 13 14  2  0
 14 15  1  0
 15 16  2  0
 16 17  1  0
 17 18  2  0
 18 19  1  0
 18 20  1  0
 20 21  1  0
 21 22  1  0
 22 23  2  0
 23 24  1  0
 24 25  2  0
 25 26  1  0
 26 27  1  0
 25 28  1  0
 28 29  2  0
 29 30  1  0
 30 11  1  0
 17 12  1  0
 30 20  2  0
 29 22  1  0
  1 31  1  0
  1 32  1  0
  1 33  1  0
  2 34  1  0
  2 35  1  0
  3 36  1  0
  4 37  1  0
  4 38  1  0
  5 39  1  0
  5 40  1  0
  6 41  1  0
  7 42  1  0
  7 43  1  0
  8 44  1  0
  8 45  1  0
  9 46  1  0
  9 47  1  0
 10 48  1  0
 13 49  1  0
 14 50  1  0
 15 51  1  0
 16 52  1  0
 19 53  1  0
 19 54  1  0
 19 55  1  0
 21 56  1  0
 23 57  1  0
 24 58  1  0
 27 59  1  0
 27 60  1  0
 27 61  1  0
 28 62  1  0
M  CHG  1  18   1
M  END
>  <UniqueID>  (14) 
13

>  <SMILES>  (14) 
CCNCCNCCCNc1c2ccccc2[n+](C)c2[nH]c3ccc(OC)cc3c12

>  <Energy>  (14) 
113.03311810204987

>  <Genealogy>  (14) 
CCNCCNCCCNc1c2ccccc2[n+](C)c2[nH]c3ccc(OC)cc3c12 (3D coordinates assigned)
CCNCCNCCCNc1c2ccccc2[n+](C)c2[nH]c3ccc(OC)cc3c12 (optimized conformer: 113.03311810204987 kcal/mol)

>  <smiles>  (14) 
CCNCCNCCCNc1c2ccccc2[n+](C)c2[nH]c3ccc(OC)cc3c12

>  <score_type>  (14) 
oracle

>  <origin>  (14) 
adg

>  <m_score__min__energy>  (14) 
-8.8699999999999992

>  <m_primary>  (14) 
energy

$$$$
14:0
     RDKit          3D

 47 49  0  0  0  0  0  0  0  0999 V2000
   -6.8510   25.3190  -29.7210 C   0  0  0  0  0  0  0  0  0  0  0  0
   -5.3700   25.3370  -30.0890 C   0  0  0  0  0  0  0  0  0  0  0  0
   -5.0870   24.3200  -31.1110 N   0  0  0  0  0  0  0  0  0  0  0  0
   -3.8180   23.6300  -30.8440 C   0  0  0  0  0  0  0  0  0  0  0  0
   -3.6440   22.4700  -31.8310 C   0  0  0  0  0  0  0  0  0  0  0  0
   -4.8270   22.2710  -32.6980 N   0  0  0  0  0  0  0  0  0  0  0  0
   -5.2920   20.8890  -32.7000 C   0  0  0  0  0  0  0  0  0  0  0  0
   -6.6200   20.5480  -32.3030 C   0  0  0  0  0  0  0  0  0  0  0  0
   -7.0450   19.1990  -32.3980 C   0  0  0  0  0  0  0  0  0  0  0  0
   -6.1350   18.1960  -32.6400 N   0  0  0  0  0  0  0  0  0  0  0  0
   -6.5070   16.7900  -32.3740 C   0  0  0  0  0  0  0  0  0  0  0  0
   -4.8910   18.4990  -33.1460 C   0  0  0  0  0  0  0  0  0  0  0  0
   -4.0410   17.4850  -33.6580 C   0  0  0  0  0  0  0  0  0  0  0  0
   -2.7870   17.7880  -34.1790 C   0  0  0  0  0  0  0  0  0  0  0  0
   -2.3510   19.1030  -34.2190 C   0  0  0  0  0  0  0  0  0  0  0  0
   -3.1680   20.1250  -33.7440 C   0  0  0  0  0  0  0  0  0  0  0  0
   -4.4470   19.8510  -33.1950 C   0  0  0  0  0  0  0  0  0  0  0  0
   -8.5210   18.8780  -32.2030 C   0  0  0  0  0  0  0  0  0  0  0  0
   -9.4020   20.0200  -32.7060 C   0  0  0  0  0  0  0  0  0  0  0  0
   -9.1020   21.2960  -31.9290 C   0  0  0  0  0  0  0  0  0  0  0  0
   -7.6260   21.5460  -31.8030 C   0  0  0  0  0  0  0  0  0  0  0  0
   -7.2740   22.5650  -31.1550 O   0  0  0  0  0  0  0  0  0  0  0  0
   -6.9568   25.3177  -28.6261 H   0  0  0  0  0  0  0  0  0  0  0  0
   -7.3428   26.2112  -30.1358 H   0  0  0  0  0  0  0  0  0  0  0  0
   -7.3209   24.4151  -30.1358 H   0  0  0  0  0  0  0  0  0  0  0  0
   -5.1056   26.3299  -30.4818 H   0  0  0  0  0  0  0  0  0  0  0  0
   -4.7749   25.1171  -29.1904 H   0  0  0  0  0  0  0  0  0  0  0  0
   -5.8500   23.6030  -31.0700 H   0  0  0  0  0  0  0  0  0  0  0  0
   -2.9847   24.3384  -30.9615 H   0  0  0  0  0  0  0  0  0  0  0  0
   -3.8259   23.2367  -29.8168 H   0  0  0  0  0  0  0  0  0  0  0  0
   -2.7724   22.6791  -32.4686 H   0  0  0  0  0  0  0  0  0  0  0  0
   -3.5079   21.5515  -31.2412 H   0  0  0  0  0  0  0  0  0  0  0  0
   -4.5830   22.5490  -33.6750 H   0  0  0  0  0  0  0  0  0  0  0  0
   -5.5690   22.9580  -32.4540 H   0  0  0  0  0  0  0  0  0  0  0  0
   -6.5515   16.6217  -31.2879 H   0  0  0  0  0  0  0  0  0  0  0  0
   -7.4914   16.5809  -32.8181 H   0  0  0  0  0  0  0  0  0  0  0  0
   -5.7548   16.1214  -32.8181 H   0  0  0  0  0  0  0  0  0  0  0  0
   -4.3801   16.4387  -33.6428 H   0  0  0  0  0  0  0  0  0  0  0  0
   -2.1410   16.9831  -34.5595 H   0  0  0  0  0  0  0  0  0  0  0  0
   -1.3572   19.3395  -34.6270 H   0  0  0  0  0  0  0  0  0  0  0  0
   -2.8149   21.1655  -33.7954 H   0  0  0  0  0  0  0  0  0  0  0  0
   -8.7664   17.9622  -32.7607 H   0  0  0  0  0  0  0  0  0  0  0  0
   -8.7096   18.7378  -31.1284 H   0  0  0  0  0  0  0  0  0  0  0  0
   -9.2026   20.1895  -33.7744 H   0  0  0  0  0  0  0  0  0  0  0  0
  -10.4583   19.7502  -32.5599 H   0  0  0  0  0  0  0  0  0  0  0  0
   -9.5626   22.1468  -32.4524 H   0  0  0  0  0  0  0  0  0  0  0  0
   -9.5142   21.1809  -30.9157 H   0  0  0  0  0  0  0  0  0  0  0  0
  1  2  1  0
  2  3  1  0
  3  4  1  0
  4  5  1  0
  5  6  1  0
  6  7  1  0
  7  8  2  0
  8  9  1  0
  9 10  2  0
 10 11  1  0
 10 12  1  0
 12 13  2  0
 13 14  1  0
 14 15  2  0
 15 16  1  0
 16 17  2  0
  9 18  1  0
 18 19  1  0
 19 20  1  0
 20 21  1  0
 21 22  2  0
 17  7  1  0
 21  8  1  0
 17 12  1  0
  1 23  1  0
  1 24  1  0
  1 25  1  0
  2 26  1  0
  2 27  1  0
  3 28  1  0
  4 29  1  0
  4 30  1  0
  5 31  1  0
  5 32  1  0
  6 33  1  0
  6 34  1  0
 11 35  1  0
 11 36  1  0
 11 37  1  0
 13 38  1  0
 14 39  1  0
 15 40  1  0
 16 41  1  0
 18 42  1  0
 18 43  1  0
 19 44  1  0
 19 45  1  0
 20 46  1  0
 20 47  1  0
M  CHG  2   6   1  10   1
M  END
>  <UniqueID>  (15) 
14

>  <SMILES>  (15) 
CCNCC[NH2+]c1c2c([n+](C)c3ccccc13)CCCC2=O

>  <Energy>  (15) 
72.37213340275096

>  <Genealogy>  (15) 
CCNCC[NH2+]c1c2c([n+](C)c3ccccc13)CCCC2=O (protonated)
CCNCC[NH2+]c1c2c([n+](C)c3ccccc13)CCCC2=O (3D coordinates assigned)
CCNCC[NH2+]c1c2c([n+](C)c3ccccc13)CCCC2=O (nonaromatic ring conformer: 72.37213340275096 kcal/mol)

>  <smiles>  (15) 
CCNCCNc1c2c([n+](C)c3ccccc13)CCCC2=O

>  <score_type>  (15) 
oracle

>  <origin>  (15) 
adg

>  <m_score__min__energy>  (15) 
-7.7699999999999996

>  <m_primary>  (15) 
energy

$$$$
15:0
     RDKit          3D

 76 79  0  0  0  0  0  0  0  0999 V2000
   -6.3590   25.2320  -29.6480 C   0  0  0  0  0  0  0  0  0  0  0  0
   -5.4400   25.4000  -30.8620 C   0  0  0  0  0  0  0  0  0  0  0  0
   -4.2330   24.5600  -30.7780 N   0  0  0  0  0  0  0  0  0  0  0  0
   -3.7260   24.4690  -29.4030 C   0  0  0  0  0  0  0  0  0  0  0  0
   -3.0740   23.1030  -29.1710 C   0  0  0  0  0  0  0  0  0  0  0  0
   -4.0260   21.9220  -29.4330 C   0  0  0  0  0  0  0  0  0  0  0  0
   -3.7280   21.1560  -30.7470 C   0  0  0  0  0  0  0  0  0  0  0  0
   -4.4240   21.7160  -31.9410 N   0  0  0  0  0  0  0  0  0  0  0  0
   -5.5970   20.9470  -32.3450 C   0  0  0  0  0  0  0  0  0  0  0  0
   -6.8950   21.4940  -32.2180 C   0  0  0  0  0  0  0  0  0  0  0  0
   -7.1040   22.8890  -32.1690 C   0  0  0  0  0  0  0  0  0  0  0  0
   -8.3880   23.4120  -32.0230 C   0  0  0  0  0  0  0  0  0  0  0  0
   -9.4820   22.5590  -31.9380 C   0  0  0  0  0  0  0  0  0  0  0  0
   -9.3000   21.1780  -31.9940 C   0  0  0  0  0  0  0  0  0  0  0  0
   -8.0040   20.6180  -32.1240 C   0  0  0  0  0  0  0  0  0  0  0  0
   -7.8040   19.2550  -32.1610 N   0  0  0  0  0  0  0  0  0  0  0  0
   -8.8640   18.3360  -31.6950 C   0  0  0  0  0  0  0  0  0  0  0  0
   -6.6240   18.7570  -32.6770 C   0  0  0  0  0  0  0  0  0  0  0  0
   -6.5230   17.4120  -33.0980 C   0  0  0  0  0  0  0  0  0  0  0  0
   -5.3660   16.9310  -33.6920 C   0  0  0  0  0  0  0  0  0  0  0  0
   -4.2970   17.7800  -33.9290 C   0  0  0  0  0  0  0  0  0  0  0  0
   -4.3480   19.1290  -33.5390 C   0  0  0  0  0  0  0  0  0  0  0  0
   -3.3160   20.0110  -33.9070 O   0  0  0  0  0  0  0  0  0  0  0  0
   -1.9720   19.6580  -34.2360 C   0  0  0  0  0  0  0  0  0  0  0  0
   -1.1230   19.1300  -33.0450 C   0  0  0  0  0  0  0  0  0  0  0  0
    0.0220   19.9790  -32.5560 N   0  0  0  0  0  0  0  0  0  0  0  0
    0.8220   20.4220  -33.7290 C   0  0  0  0  0  0  0  0  0  0  0  0
    0.9310   19.2480  -31.6230 C   0  0  0  0  0  0  0  0  0  0  0  0
    0.2530   18.8270  -30.2990 C   0  0  0  0  0  0  0  0  0  0  0  0
   -0.7630   19.8540  -29.7830 C   0  0  0  0  0  0  0  0  0  0  0  0
   -0.4950   21.2360  -30.3630 C   0  0  0  0  0  0  0  0  0  0  0  0
   -0.5330   21.2270  -31.9060 C   0  0  0  0  0  0  0  0  0  0  0  0
   -5.4920   19.6130  -32.8330 C   0  0  0  0  0  0  0  0  0  0  0  0
   -5.7705   25.3396  -28.7249 H   0  0  0  0  0  0  0  0  0  0  0  0
   -7.1447   26.0014  -29.6737 H   0  0  0  0  0  0  0  0  0  0  0  0
   -6.8217   24.2344  -29.6737 H   0  0  0  0  0  0  0  0  0  0  0  0
   -5.9991   25.1241  -31.7682 H   0  0  0  0  0  0  0  0  0  0  0  0
   -5.1142   26.4502  -30.8910 H   0  0  0  0  0  0  0  0  0  0  0  0
   -3.4880   24.9620  -31.3940 H   0  0  0  0  0  0  0  0  0  0  0  0
   -2.9805   25.2607  -29.2371 H   0  0  0  0  0  0  0  0  0  0  0  0
   -4.5646   24.5911  -28.7016 H   0  0  0  0  0  0  0  0  0  0  0  0
   -2.2089   23.0101  -29.8440 H   0  0  0  0  0  0  0  0  0  0  0  0
   -2.7815   23.0571  -28.1116 H   0  0  0  0  0  0  0  0  0  0  0  0
   -3.9416   21.2161  -28.5936 H   0  0  0  0  0  0  0  0  0  0  0  0
   -5.0378   22.3425  -29.5305 H   0  0  0  0  0  0  0  0  0  0  0  0
   -2.6438   21.1898  -30.9299 H   0  0  0  0  0  0  0  0  0  0  0  0
   -4.1002   20.1298  -30.6112 H   0  0  0  0  0  0  0  0  0  0  0  0
   -3.7350   21.7540  -32.7120 H   0  0  0  0  0  0  0  0  0  0  0  0
   -4.7200   22.7020  -31.7570 H   0  0  0  0  0  0  0  0  0  0  0  0
   -6.2444   23.5709  -32.2469 H   0  0  0  0  0  0  0  0  0  0  0  0
   -8.5354   24.5010  -31.9750 H   0  0  0  0  0  0  0  0  0  0  0  0
  -10.4943   22.9747  -31.8262 H   0  0  0  0  0  0  0  0  0  0  0  0
  -10.1745   20.5132  -31.9365 H   0  0  0  0  0  0  0  0  0  0  0  0
   -8.8799   18.3222  -30.5952 H   0  0  0  0  0  0  0  0  0  0  0  0
   -9.8388   18.6796  -32.0715 H   0  0  0  0  0  0  0  0  0  0  0  0
   -8.6621   17.3224  -32.0715 H   0  0  0  0  0  0  0  0  0  0  0  0
   -7.3772   16.7345  -32.9520 H   0  0  0  0  0  0  0  0  0  0  0  0
   -5.2966   15.8707  -33.9763 H   0  0  0  0  0  0  0  0  0  0  0  0
   -3.3968   17.3930  -34.4289 H   0  0  0  0  0  0  0  0  0  0  0  0
   -2.0037   18.8741  -35.0070 H   0  0  0  0  0  0  0  0  0  0  0  0
   -1.4845   20.5837  -34.5757 H   0  0  0  0  0  0  0  0  0  0  0  0
   -1.8070   18.9843  -32.1960 H   0  0  0  0  0  0  0  0  0  0  0  0
   -0.6416   18.2210  -33.4348 H   0  0  0  0  0  0  0  0  0  0  0  0
    1.7347   20.9274  -33.3805 H   0  0  0  0  0  0  0  0  0  0  0  0
    1.0966   19.5474  -34.3370 H   0  0  0  0  0  0  0  0  0  0  0  0
    0.2264   21.1188  -34.3370 H   0  0  0  0  0  0  0  0  0  0  0  0
    1.2946   18.3423  -32.1305 H   0  0  0  0  0  0  0  0  0  0  0  0
    1.7467   19.9381  -31.3617 H   0  0  0  0  0  0  0  0  0  0  0  0
   -0.2682   17.8721  -30.4621 H   0  0  0  0  0  0  0  0  0  0  0  0
    1.0450   18.7433  -29.5402 H   0  0  0  0  0  0  0  0  0  0  0  0
   -1.7748   19.5339  -30.0725 H   0  0  0  0  0  0  0  0  0  0  0  0
   -0.6720   19.9130  -28.6884 H   0  0  0  0  0  0  0  0  0  0  0  0
   -1.2612   21.9326  -29.9920 H   0  0  0  0  0  0  0  0  0  0  0  0
    0.5109   21.5502  -30.0475 H   0  0  0  0  0  0  0  0  0  0  0  0
   -1.5810   21.3378  -32.2214 H   0  0  0  0  0  0  0  0  0  0  0  0
    0.1136   22.0549  -32.2324 H   0  0  0  0  0  0  0  0  0  0  0  0
  1  2  1  0
  2  3  1  0
  3  4  1  0
  4  5  1  0
  5  6  1  0
  6  7  1  0
  7  8  1  0
  8  9  1  0
  9 10  2  0
 10 11  1  0
 11 12  2  0
 12 13  1  0
 13 14  2  0
 14 15  1  0
 15 16  2  0
 16 17  1  0
 16 18  1  0
 18 19  2  0
 19 20  1  0
 20 21  2  0
 21 22  1  0
 22 23  1  0
 23 24  1  0
 24 25  1  0
 25 26  1  0
 26 27  1  0
 26 28  1  0
 28 29  1  0
 29 30  1  0
 30 31  1  0
 31 32  1  0
 22 33  2  0
 33  9  1  0
 15 10  1  0
 33 18  1  0
 32 26  1  0
  1 34  1  0
  1 35  1  0
  1 36  1  0
  2 37  1  0
  2 38  1  0
  3 39  1  0
  4 40  1  0
  4 41  1  0
  5 42  1  0
  5 43  1  0
  6 44  1  0
  6 45  1  0
  7 46  1  0
  7 47  1  0
  8 48  1  0
  8 49  1  0
 11 50  1  0
 12 51  1  0
 13 52  1  0
 14 53  1  0
 17 54  1  0
 17 55  1  0
 17 56  1  0
 19 57  1  0
 20 58  1  0
 21 59  1  0
 24 60  1  0
 24 61  1  0
 25 62  1  0
 25 63  1  0
 27 64  1  0
 27 65  1  0
 27 66  1  0
 28 67  1  0
 28 68  1  0
 29 69  1  0
 29 70  1  0
 30 71  1  0
 30 72  1  0
 31 73  1  0
 31 74  1  0
 32 75  1  0
 32 76  1  0
M  CHG  3   8   1  16   1  26   1
M  END
>  <UniqueID>  (16) 
15

>  <SMILES>  (16) 
CCNCCCC[NH2+]c1c2ccccc2[n+](C)c2cccc(OCC[N+]3(C)CCCCC3)c12

>  <Energy>  (16) 
130.79349038565326

>  <Genealogy>  (16) 
CCNCCCC[NH2+]c1c2ccccc2[n+](C)c2cccc(OCC[N+]3(C)CCCCC3)c12 (protonated)
CCNCCCC[NH2+]c1c2ccccc2[n+](C)c2cccc(OCC[N+]3(C)CCCCC3)c12 (3D coordinates assigned)
CCNCCCC[NH2+]c1c2ccccc2[n+](C)c2cccc(OCC[N+]3(C)CCCCC3)c12 (nonaromatic ring conformer: 130.79349038565326 kcal/mol)

>  <smiles>  (16) 
CCNCCCCNc1c2ccccc2[n+](C)c2cccc(OCC[N+]3(C)CCCCC3)c12

>  <score_type>  (16) 
oracle

>  <origin>  (16) 
adg

>  <m_score__min__energy>  (16) 
-8.6999999999999993

>  <m_primary>  (16) 
energy

$$$$
16:0
     RDKit          3D

 61 63  0  0  0  0  0  0  0  0999 V2000
   -0.9090   22.8610  -28.5730 C   0  0  0  0  0  0  0  0  0  0  0  0
   -1.1910   24.1620  -29.3270 C   0  0  0  0  0  0  0  0  0  0  0  0
   -2.3160   24.9060  -28.7140 N   0  0  0  0  0  0  0  0  0  0  0  0
   -2.0120   25.3180  -27.3180 C   0  0  0  0  0  0  0  0  0  0  0  0
   -3.1880   24.9670  -26.4130 C   0  0  0  0  0  0  0  0  0  0  0  0
   -3.5640   24.1090  -28.7900 C   0  0  0  0  0  0  0  0  0  0  0  0
   -4.4150   24.5390  -29.9920 C   0  0  0  0  0  0  0  0  0  0  0  0
   -3.9100   23.9510  -31.1760 O   0  0  0  0  0  0  0  0  0  0  0  0
   -3.4530   22.6370  -30.9250 C   0  0  0  0  0  0  0  0  0  0  0  0
   -3.2770   21.9090  -32.2580 C   0  0  0  0  0  0  0  0  0  0  0  0
   -4.5100   21.9370  -33.0470 N   0  0  0  0  0  0  0  0  0  0  0  0
   -5.6140   21.0410  -32.8300 C   0  0  0  0  0  0  0  0  0  0  0  0
   -6.7810   21.4840  -32.1720 C   0  0  0  0  0  0  0  0  0  0  0  0
   -7.8210   20.5650  -31.8860 C   0  0  0  0  0  0  0  0  0  0  0  0
   -7.7070   19.2390  -32.2560 N   0  0  0  0  0  0  0  0  0  0  0  0
   -8.7910   18.2840  -31.9670 C   0  0  0  0  0  0  0  0  0  0  0  0
   -6.5690   18.8270  -32.9060 C   0  0  0  0  0  0  0  0  0  0  0  0
   -5.5440   19.6940  -33.2030 C   0  0  0  0  0  0  0  0  0  0  0  0
   -4.4170   19.0050  -33.8820 C   0  0  0  0  0  0  0  0  0  0  0  0
   -4.7830   17.5170  -33.8080 C   0  0  0  0  0  0  0  0  0  0  0  0
   -6.2410   17.4370  -33.3360 C   0  0  0  0  0  0  0  0  0  0  0  0
   -8.9950   21.0960  -31.0790 C   0  0  0  0  0  0  0  0  0  0  0  0
   -9.4980   22.4450  -31.6240 C   0  0  0  0  0  0  0  0  0  0  0  0
   -8.3820   23.4010  -32.1050 C   0  0  0  0  0  0  0  0  0  0  0  0
   -6.9650   22.9260  -31.7560 C   0  0  0  0  0  0  0  0  0  0  0  0
   -0.9497   23.0487  -27.4899 H   0  0  0  0  0  0  0  0  0  0  0  0
   -1.6650   22.1092  -28.8435 H   0  0  0  0  0  0  0  0  0  0  0  0
    0.0905   22.4897  -28.8435 H   0  0  0  0  0  0  0  0  0  0  0  0
   -0.2897   24.7922  -29.3039 H   0  0  0  0  0  0  0  0  0  0  0  0
   -1.4638   23.9111  -30.3627 H   0  0  0  0  0  0  0  0  0  0  0  0
   -1.1116   24.7914  -26.9688 H   0  0  0  0  0  0  0  0  0  0  0  0
   -1.8390   26.4039  -27.2872 H   0  0  0  0  0  0  0  0  0  0  0  0
   -2.8810   25.0586  -25.3607 H   0  0  0  0  0  0  0  0  0  0  0  0
   -4.0226   25.6552  -26.6127 H   0  0  0  0  0  0  0  0  0  0  0  0
   -3.5088   23.9339  -26.6127 H   0  0  0  0  0  0  0  0  0  0  0  0
   -3.3060   23.0447  -28.8935 H   0  0  0  0  0  0  0  0  0  0  0  0
   -4.1443   24.2756  -27.8705 H   0  0  0  0  0  0  0  0  0  0  0  0
   -5.4543   24.2134  -29.8379 H   0  0  0  0  0  0  0  0  0  0  0  0
   -4.3782   25.6342  -30.0879 H   0  0  0  0  0  0  0  0  0  0  0  0
   -2.4894   22.6763  -30.3960 H   0  0  0  0  0  0  0  0  0  0  0  0
   -4.1846   22.1013  -30.3023 H   0  0  0  0  0  0  0  0  0  0  0  0
   -2.4746   22.3979  -32.8299 H   0  0  0  0  0  0  0  0  0  0  0  0
   -3.0226   20.8594  -32.0491 H   0  0  0  0  0  0  0  0  0  0  0  0
   -4.5130   22.5200  -33.9130 H   0  0  0  0  0  0  0  0  0  0  0  0
   -8.9081   18.1808  -30.8781 H   0  0  0  0  0  0  0  0  0  0  0  0
   -9.7308   18.6530  -32.4035 H   0  0  0  0  0  0  0  0  0  0  0  0
   -8.5434   17.3052  -32.4035 H   0  0  0  0  0  0  0  0  0  0  0  0
   -4.3326   19.3340  -34.9282 H   0  0  0  0  0  0  0  0  0  0  0  0
   -3.4466   19.2231  -33.4122 H   0  0  0  0  0  0  0  0  0  0  0  0
   -4.6810   17.0530  -34.8001 H   0  0  0  0  0  0  0  0  0  0  0  0
   -4.1161   16.9825  -33.1155 H   0  0  0  0  0  0  0  0  0  0  0  0
   -6.8991   17.1183  -34.1578 H   0  0  0  0  0  0  0  0  0  0  0  0
   -6.3801   16.7043  -32.5274 H   0  0  0  0  0  0  0  0  0  0  0  0
   -9.8164   20.3657  -31.1222 H   0  0  0  0  0  0  0  0  0  0  0  0
   -8.6573   21.2494  -30.0434 H   0  0  0  0  0  0  0  0  0  0  0  0
  -10.1673   22.2438  -32.4735 H   0  0  0  0  0  0  0  0  0  0  0  0
  -10.0027   22.9506  -30.7876 H   0  0  0  0  0  0  0  0  0  0  0  0
   -8.4557   23.4976  -33.1983 H   0  0  0  0  0  0  0  0  0  0  0  0
   -8.5353   24.3586  -31.5858 H   0  0  0  0  0  0  0  0  0  0  0  0
   -6.2312   23.5530  -32.2837 H   0  0  0  0  0  0  0  0  0  0  0  0
   -6.8161   23.0081  -30.6692 H   0  0  0  0  0  0  0  0  0  0  0  0
  1  2  1  0
  2  3  1  0
  3  4  1  0
  4  5  1  0
  3  6  1  0
  6  7  1  0
  7  8  1  0
  8  9  1  0
  9 10  1  0
 10 11  1  0
 11 12  1  0
 12 13  2  0
 13 14  1  0
 14 15  2  0
 15 16  1  0
 15 17  1  0
 17 18  2  0
 18 19  1  0
 19 20  1  0
 20 21  1  0
 14 22  1  0
 22 23  1  0
 23 24  1  0
 24 25  1  0
 18 12  1  0
 25 13  1  0
 21 17  1  0
  1 26  1  0
  1 27  1  0
  1 28  1  0
  2 29  1  0
  2 30  1  0
  4 31  1  0
  4 32  1  0
  5 33  1  0
  5 34  1  0
  5 35  1  0
  6 36  1  0
  6 37  1  0
  7 38  1  0
  7 39  1  0
  9 40  1  0
  9 41  1  0
 10 42  1  0
 10 43  1  0
 11 44  1  0
 16 45  1  0
 16 46  1  0
 16 47  1  0
 19 48  1  0
 19 49  1  0
 20 50  1  0
 20 51  1  0
 21 52  1  0
 21 53  1  0
 22 54  1  0
 22 55  1  0
 23 56  1  0
 23 57  1  0
 24 58  1  0
 24 59  1  0
 25 60  1  0
 25 61  1  0
M  CHG  1  15   1
M  END
>  <UniqueID>  (17) 
16

>  <SMILES>  (17) 
CCN(CC)CCOCCNc1c2c([n+](C)c3c1CCC3)CCCC2

>  <Energy>  (17) 
80.15146732707768

>  <Genealogy>  (17) 
CCN(CC)CCOCCNc1c2c([n+](C)c3c1CCC3)CCCC2 (3D coordinates assigned)
CCN(CC)CCOCCNc1c2c([n+](C)c3c1CCC3)CCCC2 (nonaromatic ring conformer: 80.15146732707768 kcal/mol)

>  <smiles>  (17) 
CCN(CC)CCOCCNc1c2c([n+](C)c3c1CCC3)CCCC2

>  <score_type>  (17) 
oracle

>  <origin>  (17) 
adg

>  <m_score__min__energy>  (17) 
-8.6899999999999995

>  <m_primary>  (17) 
energy

$$$$
17:0
     RDKit          3D

 37 38  0  0  0  0  0  0  0  0999 V2000
   -8.9601   21.1545  -30.3124 H   0  0  0  0  0  0  0  0  0  0  0  0
   -8.3240   21.3510  -31.1880 C   0  0  0  0  0  0  0  0  0  0  0  0
   -8.0980   22.6400  -31.5200 C   0  0  0  0  0  0  0  0  0  0  0  0
   -6.8400   23.3040  -31.0850 C   0  0  0  0  0  0  0  0  0  0  0  0
   -6.8850   24.5580  -30.4530 C   0  0  0  0  0  0  0  0  0  0  0  0
   -7.8546   25.0501  -30.2863 H   0  0  0  0  0  0  0  0  0  0  0  0
   -5.7080   25.1860  -30.0340 C   0  0  0  0  0  0  0  0  0  0  0  0
   -5.7569   26.1701  -29.5449 H   0  0  0  0  0  0  0  0  0  0  0  0
   -4.4610   24.5650  -30.2350 C   0  0  0  0  0  0  0  0  0  0  0  0
   -3.2530   25.1540  -29.8330 O   0  0  0  0  0  0  0  0  0  0  0  0
   -2.3130   24.5400  -28.9570 C   0  0  0  0  0  0  0  0  0  0  0  0
   -2.6051   24.7308  -27.9138 H   0  0  0  0  0  0  0  0  0  0  0  0
   -2.2951   23.4555  -29.1403 H   0  0  0  0  0  0  0  0  0  0  0  0
   -1.3128   24.9594  -29.1403 H   0  0  0  0  0  0  0  0  0  0  0  0
   -4.4160   23.3120  -30.8570 C   0  0  0  0  0  0  0  0  0  0  0  0
   -3.4467   22.8171  -31.0167 H   0  0  0  0  0  0  0  0  0  0  0  0
   -5.5920   22.6840  -31.2770 C   0  0  0  0  0  0  0  0  0  0  0  0
   -5.5412   21.6976  -31.7613 H   0  0  0  0  0  0  0  0  0  0  0  0
   -9.0800   23.4380  -32.3430 C   0  0  0  0  0  0  0  0  0  0  0  0
   -9.7574   23.9884  -31.6735 H   0  0  0  0  0  0  0  0  0  0  0  0
   -8.5327   24.1506  -32.9776 H   0  0  0  0  0  0  0  0  0  0  0  0
   -9.6655   22.7565  -32.9776 H   0  0  0  0  0  0  0  0  0  0  0  0
   -7.7800   20.1850  -31.9140 C   0  0  0  0  0  0  0  0  0  0  0  0
   -8.1640   18.8730  -31.5860 C   0  0  0  0  0  0  0  0  0  0  0  0
   -8.8644   18.6984  -30.7559 H   0  0  0  0  0  0  0  0  0  0  0  0
   -7.6590   17.7890  -32.3110 C   0  0  0  0  0  0  0  0  0  0  0  0
   -7.9533   16.7638  -32.0420 H   0  0  0  0  0  0  0  0  0  0  0  0
   -6.7800   18.0060  -33.3780 C   0  0  0  0  0  0  0  0  0  0  0  0
   -6.1350   16.6150  -34.3080 S   0  0  0  0  0  0  0  0  0  0  0  0
   -4.7400   17.5630  -34.9920 C   0  0  0  0  0  0  0  0  0  0  0  0
   -4.1366   17.9730  -34.1687 H   0  0  0  0  0  0  0  0  0  0  0  0
   -4.1153   16.9016  -35.6103 H   0  0  0  0  0  0  0  0  0  0  0  0
   -5.1250   18.3873  -35.6103 H   0  0  0  0  0  0  0  0  0  0  0  0
   -6.4210   19.3130  -33.7310 C   0  0  0  0  0  0  0  0  0  0  0  0
   -5.7414   19.4866  -34.5783 H   0  0  0  0  0  0  0  0  0  0  0  0
   -6.9260   20.3970  -33.0070 C   0  0  0  0  0  0  0  0  0  0  0  0
   -6.6522   21.4225  -33.2959 H   0  0  0  0  0  0  0  0  0  0  0  0
  1  2  1  0
  2  3  2  0
  3  4  1  0
  4  5  2  0
  5  6  1  0
  5  7  1  0
  7  8  1  0
  7  9  2  0
  9 10  1  0
 10 11  1  0
 11 12  1  0
 11 13  1  0
 11 14  1  0
  9 15  1  0
 15 16  1  0
 15 17  2  0
 17 18  1  0
  3 19  1  0
 19 20  1  0
 19 21  1  0
 19 22  1  0
  2 23  1  0
 23 24  2  0
 24 25  1  0
 24 26  1  0
 26 27  1  0
 26 28  2  0
 28 29  1  0
 29 30  1  0
 30 31  1  0
 30 32  1  0
 30 33  1  0
 28 34  1  0
 34 35  1  0
 34 36  2  0
 36 37  1  0
 17  4  1  0
 36 23  1  0
M  END
>  <UniqueID>  (18) 
17

>  <SMILES>  (18) 
COc1ccc(/C(C)=C/c2ccc(SC)cc2)cc1

>  <Energy>  (18) 
42.90287108382367

>  <Genealogy>  (18) 
COc1ccc(/C(C)=C/c2ccc(SC)cc2)cc1 (cis-trans isomerization)
COc1ccc(/C(C)=C/c2ccc(SC)cc2)cc1 (3D coordinates assigned)
COc1ccc(/C(C)=C/c2ccc(SC)cc2)cc1 (optimized conformer: 42.90287108382367 kcal/mol)

>  <smiles>  (18) 
COc1ccc(C(C)=Cc2ccc(SC)cc2)cc1

>  <score_type>  (18) 
oracle

>  <origin>  (18) 
adg

>  <m_score__min__energy>  (18) 
-8.6899999999999995

>  <m_primary>  (18) 
energy

$$$$
18:0
     RDKit          3D

 55 55  0  0  0  0  0  0  0  0999 V2000
   -6.5000   18.3050  -33.3110 C   0  0  0  0  0  0  0  0  0  0  0  0
   -7.2140   19.6580  -33.1550 C   0  0  0  0  0  0  0  0  0  0  0  0
   -8.0620   19.7660  -31.9440 N   0  0  0  0  0  0  0  0  0  0  0  0
   -8.7580   18.5120  -31.6140 C   0  0  0  0  0  0  0  0  0  0  0  0
   -8.9750   20.9280  -31.9670 C   0  0  0  0  0  0  0  0  0  0  0  0
   -8.6060   21.8980  -30.8420 C   0  0  0  0  0  0  0  0  0  0  0  0
   -8.1870   23.1400  -31.3790 O   0  0  0  0  0  0  0  0  0  0  0  0
   -7.1750   22.9490  -32.3450 C   0  0  0  0  0  0  0  0  0  0  0  0
   -5.8750   22.5860  -31.6390 C   0  0  0  0  0  0  0  0  0  0  0  0
   -4.7880   22.9150  -32.4700 O   0  0  0  0  0  0  0  0  0  0  0  0
   -3.9580   21.8400  -32.4680 N   0  0  0  0  0  0  0  0  0  0  0  0
   -4.0080   20.7500  -33.4210 C   0  0  0  0  0  0  0  0  0  0  0  0
   -2.6990   19.9850  -33.1540 C   0  0  0  0  0  0  0  0  0  0  0  0
   -1.9880   20.7720  -32.1480 N   0  0  0  0  0  0  0  0  0  0  0  0
   -2.7130   21.7780  -31.8020 C   0  0  0  0  0  0  0  0  0  0  0  0
   -2.2890   22.7580  -30.8460 N   0  0  0  0  0  0  0  0  0  0  0  0
   -0.9990   22.6880  -30.1640 C   0  0  0  0  0  0  0  0  0  0  0  0
   -0.8520   23.8460  -29.1720 C   0  0  0  0  0  0  0  0  0  0  0  0
   -1.9030   24.7790  -29.3410 O   0  0  0  0  0  0  0  0  0  0  0  0
   -2.9730   24.5280  -28.4480 C   0  0  0  0  0  0  0  0  0  0  0  0
   -4.2990   24.5060  -29.2030 C   0  0  0  0  0  0  0  0  0  0  0  0
   -4.1560   25.1850  -30.4320 O   0  0  0  0  0  0  0  0  0  0  0  0
   -5.4120   25.6710  -30.8470 C   0  0  0  0  0  0  0  0  0  0  0  0
   -6.2807   17.8893  -32.3165 H   0  0  0  0  0  0  0  0  0  0  0  0
   -7.1486   17.6097  -33.8641 H   0  0  0  0  0  0  0  0  0  0  0  0
   -5.5600   18.4481  -33.8641 H   0  0  0  0  0  0  0  0  0  0  0  0
   -6.4494   20.4476  -33.1113 H   0  0  0  0  0  0  0  0  0  0  0  0
   -7.8864   19.7601  -34.0196 H   0  0  0  0  0  0  0  0  0  0  0  0
   -8.8186   18.4029  -30.5211 H   0  0  0  0  0  0  0  0  0  0  0  0
   -9.7731   18.5338  -32.0371 H   0  0  0  0  0  0  0  0  0  0  0  0
   -8.2025   17.6620  -32.0371 H   0  0  0  0  0  0  0  0  0  0  0  0
   -8.8881   21.4419  -32.9357 H   0  0  0  0  0  0  0  0  0  0  0  0
  -10.0090   20.5811  -31.8236 H   0  0  0  0  0  0  0  0  0  0  0  0
   -9.4841   22.0587  -30.1993 H   0  0  0  0  0  0  0  0  0  0  0  0
   -7.7819   21.4667  -30.2548 H   0  0  0  0  0  0  0  0  0  0  0  0
   -7.4644   22.1348  -33.0257 H   0  0  0  0  0  0  0  0  0  0  0  0
   -7.0365   23.8735  -32.9248 H   0  0  0  0  0  0  0  0  0  0  0  0
   -5.7998   23.1471  -30.6959 H   0  0  0  0  0  0  0  0  0  0  0  0
   -5.8611   21.5075  -31.4231 H   0  0  0  0  0  0  0  0  0  0  0  0
   -4.8831   20.1085  -33.2402 H   0  0  0  0  0  0  0  0  0  0  0  0
   -4.1013   21.0927  -34.4621 H   0  0  0  0  0  0  0  0  0  0  0  0
   -2.9139   18.9760  -32.7721 H   0  0  0  0  0  0  0  0  0  0  0  0
   -2.1042   19.8594  -34.0707 H   0  0  0  0  0  0  0  0  0  0  0  0
   -2.9530   23.5180  -30.5780 H   0  0  0  0  0  0  0  0  0  0  0  0
   -0.9285   21.7345  -29.6201 H   0  0  0  0  0  0  0  0  0  0  0  0
   -0.1967   22.7579  -30.9132 H   0  0  0  0  0  0  0  0  0  0  0  0
   -0.8808   23.4499  -28.1462 H   0  0  0  0  0  0  0  0  0  0  0  0
    0.1069   24.3527  -29.3557 H   0  0  0  0  0  0  0  0  0  0  0  0
   -2.8173   23.5547  -27.9596 H   0  0  0  0  0  0  0  0  0  0  0  0
   -3.0042   25.3277  -27.6933 H   0  0  0  0  0  0  0  0  0  0  0  0
   -4.5947   23.4637  -29.3930 H   0  0  0  0  0  0  0  0  0  0  0  0
   -5.0715   25.0039  -28.5986 H   0  0  0  0  0  0  0  0  0  0  0  0
   -6.0236   25.9077  -29.9639 H   0  0  0  0  0  0  0  0  0  0  0  0
   -5.2723   26.5800  -31.4505 H   0  0  0  0  0  0  0  0  0  0  0  0
   -5.9205   24.9047  -31.4505 H   0  0  0  0  0  0  0  0  0  0  0  0
  1  2  1  0
  2  3  1  0
  3  4  1  0
  3  5  1  0
  5  6  1  0
  6  7  1  0
  7  8  1  0
  8  9  1  0
  9 10  1  0
 10 11  1  0
 11 12  1  0
 12 13  1  0
 13 14  1  0
 14 15  2  0
 15 16  1  0
 16 17  1  0
 17 18  1  0
 18 19  1  0
 19 20  1  0
 20 21  1  0
 21 22  1  0
 22 23  1  0
 15 11  1  0
  1 24  1  0
  1 25  1  0
  1 26  1  0
  2 27  1  0
  2 28  1  0
  4 29  1  0
  4 30  1  0
  4 31  1  0
  5 32  1  0
  5 33  1  0
  6 34  1  0
  6 35  1  0
  8 36  1  0
  8 37  1  0
  9 38  1  0
  9 39  1  0
 12 40  1  0
 12 41  1  0
 13 42  1  0
 13 43  1  0
 16 44  1  0
 17 45  1  0
 17 46  1  0
 18 47  1  0
 18 48  1  0
 20 49  1  0
 20 50  1  0
 21 51  1  0
 21 52  1  0
 23 53  1  0
 23 54  1  0
 23 55  1  0
M  END
>  <UniqueID>  (19) 
18

>  <SMILES>  (19) 
CCN(C)CCOCCON1CCN=C1NCCOCCOC

>  <Energy>  (19) 
61.04441486454554

>  <Genealogy>  (19) 
CCN(C)CCOCCON1CCN=C1NCCOCCOC (3D coordinates assigned)
CCN(C)CCOCCON1CCN=C1NCCOCCOC (nonaromatic ring conformer: 61.04441486454554 kcal/mol)

>  <smiles>  (19) 
CCN(C)CCOCCON1CCN=C1NCCOCCOC

>  <score_type>  (19) 
oracle

>  <origin>  (19) 
adg

>  <m_score__min__energy>  (19) 
-5.3899999999999997

>  <m_primary>  (19) 
energy

$$$$
19:0
     RDKit          3D

 66 68  0  0  0  0  0  0  0  0999 V2000
   -1.5290   20.4210  -30.4960 C   0  0  0  0  0  0  0  0  0  0  0  0
   -1.6780   21.9020  -30.8650 C   0  0  0  0  0  0  0  0  0  0  0  0
   -1.8410   22.7640  -29.6830 N   0  0  0  0  0  0  0  0  0  0  0  0
   -0.5490   23.1590  -29.1020 C   0  0  0  0  0  0  0  0  0  0  0  0
   -0.6270   24.5930  -28.5850 C   0  0  0  0  0  0  0  0  0  0  0  0
   -1.9670   25.0440  -28.6450 O   0  0  0  0  0  0  0  0  0  0  0  0
   -2.5930   24.9160  -27.3820 C   0  0  0  0  0  0  0  0  0  0  0  0
   -4.0080   24.3320  -27.5440 C   0  0  0  0  0  0  0  0  0  0  0  0
   -4.3030   23.9480  -28.9340 N   0  0  0  0  0  0  0  0  0  0  0  0
   -5.4460   24.6900  -29.4810 C   0  0  0  0  0  0  0  0  0  0  0  0
   -6.0900   23.8950  -30.6200 C   0  0  0  0  0  0  0  0  0  0  0  0
   -5.0210   23.2300  -31.5040 C   0  0  0  0  0  0  0  0  0  0  0  0
   -5.5870   22.6440  -32.7330 N   0  0  0  0  0  0  0  0  0  0  0  0
   -5.6980   21.1930  -32.6530 C   0  0  0  0  0  0  0  0  0  0  0  0
   -6.8950   20.5680  -32.2040 C   0  0  0  0  0  0  0  0  0  0  0  0
   -6.9770   19.1610  -32.1630 C   0  0  0  0  0  0  0  0  0  0  0  0
   -5.8610   18.3850  -32.3770 N   0  0  0  0  0  0  0  0  0  0  0  0
   -5.8780   16.9570  -31.9930 C   0  0  0  0  0  0  0  0  0  0  0  0
   -4.7270   18.9450  -32.9260 C   0  0  0  0  0  0  0  0  0  0  0  0
   -3.6600   18.1310  -33.3930 C   0  0  0  0  0  0  0  0  0  0  0  0
   -2.4960   18.6940  -33.9070 C   0  0  0  0  0  0  0  0  0  0  0  0
   -2.3630   20.0720  -33.9790 C   0  0  0  0  0  0  0  0  0  0  0  0
   -3.4040   20.8990  -33.5620 C   0  0  0  0  0  0  0  0  0  0  0  0
   -4.6120   20.3590  -33.0510 C   0  0  0  0  0  0  0  0  0  0  0  0
   -8.3350   18.5460  -31.8470 C   0  0  0  0  0  0  0  0  0  0  0  0
   -9.4560   19.3130  -32.5640 C   0  0  0  0  0  0  0  0  0  0  0  0
   -9.4050   20.8370  -32.3310 C   0  0  0  0  0  0  0  0  0  0  0  0
   -8.1070   21.3160  -31.6630 C   0  0  0  0  0  0  0  0  0  0  0  0
   -1.5184   20.3152  -29.4012 H   0  0  0  0  0  0  0  0  0  0  0  0
   -2.3745   19.8528  -30.9111 H   0  0  0  0  0  0  0  0  0  0  0  0
   -0.5873   20.0327  -30.9111 H   0  0  0  0  0  0  0  0  0  0  0  0
   -0.7792   22.2211  -31.4130 H   0  0  0  0  0  0  0  0  0  0  0  0
   -2.5842   22.0035  -31.4801 H   0  0  0  0  0  0  0  0  0  0  0  0
   -2.3720   23.6230  -29.9560 H   0  0  0  0  0  0  0  0  0  0  0  0
   -0.3024   22.4842  -28.2691 H   0  0  0  0  0  0  0  0  0  0  0  0
    0.2300   23.0956  -29.8760 H   0  0  0  0  0  0  0  0  0  0  0  0
   -0.2751   24.6269  -27.5434 H   0  0  0  0  0  0  0  0  0  0  0  0
    0.0065   25.2421  -29.2074 H   0  0  0  0  0  0  0  0  0  0  0  0
   -1.9946   24.2465  -26.7466 H   0  0  0  0  0  0  0  0  0  0  0  0
   -2.6672   25.9101  -26.9170 H   0  0  0  0  0  0  0  0  0  0  0  0
   -4.0972   23.4409  -26.9052 H   0  0  0  0  0  0  0  0  0  0  0  0
   -4.7271   25.1118  -27.2526 H   0  0  0  0  0  0  0  0  0  0  0  0
   -3.4590   24.1200  -29.5300 H   0  0  0  0  0  0  0  0  0  0  0  0
   -6.1883   24.8535  -28.6859 H   0  0  0  0  0  0  0  0  0  0  0  0
   -5.0957   25.6577  -29.8693 H   0  0  0  0  0  0  0  0  0  0  0  0
   -6.7384   23.1159  -30.1927 H   0  0  0  0  0  0  0  0  0  0  0  0
   -6.6764   24.5875  -31.2417 H   0  0  0  0  0  0  0  0  0  0  0  0
   -4.2754   23.9880  -31.7859 H   0  0  0  0  0  0  0  0  0  0  0  0
   -4.5686   22.4131  -30.9227 H   0  0  0  0  0  0  0  0  0  0  0  0
   -6.4810   23.1150  -32.9740 H   0  0  0  0  0  0  0  0  0  0  0  0
   -4.9840   22.9040  -33.5440 H   0  0  0  0  0  0  0  0  0  0  0  0
   -5.8790   16.8722  -30.8963 H   0  0  0  0  0  0  0  0  0  0  0  0
   -6.7819   16.4790  -32.3985 H   0  0  0  0  0  0  0  0  0  0  0  0
   -4.9857   16.4576  -32.3985 H   0  0  0  0  0  0  0  0  0  0  0  0
   -3.7559   17.0361  -33.3474 H   0  0  0  0  0  0  0  0  0  0  0  0
   -1.6800   18.0446  -34.2568 H   0  0  0  0  0  0  0  0  0  0  0  0
   -1.4331   20.5138  -34.3664 H   0  0  0  0  0  0  0  0  0  0  0  0
   -3.2869   21.9906  -33.6303 H   0  0  0  0  0  0  0  0  0  0  0  0
   -8.3436   17.4978  -32.1806 H   0  0  0  0  0  0  0  0  0  0  0  0
   -8.5054   18.6014  -30.7617 H   0  0  0  0  0  0  0  0  0  0  0  0
   -9.3723   19.1229  -33.6442 H   0  0  0  0  0  0  0  0  0  0  0  0
  -10.4098   18.9540  -32.1500 H   0  0  0  0  0  0  0  0  0  0  0  0
   -9.5012   21.3406  -33.3042 H   0  0  0  0  0  0  0  0  0  0  0  0
  -10.2297   21.0856  -31.6468 H   0  0  0  0  0  0  0  0  0  0  0  0
   -7.9801   22.3912  -31.8573 H   0  0  0  0  0  0  0  0  0  0  0  0
   -8.1808   21.1207  -30.5830 H   0  0  0  0  0  0  0  0  0  0  0  0
  1  2  1  0
  2  3  1  0
  3  4  1  0
  4  5  1  0
  5  6  1  0
  6  7  1  0
  7  8  1  0
  8  9  1  0
  9 10  1  0
 10 11  1  0
 11 12  1  0
 12 13  1  0
 13 14  1  0
 14 15  2  0
 15 16  1  0
 16 17  2  0
 17 18  1  0
 17 19  1  0
 19 20  2  0
 20 21  1  0
 21 22  2  0
 22 23  1  0
 23 24  2  0
 16 25  1  0
 25 26  1  0
 26 27  1  0
 27 28  1  0
 24 14  1  0
 28 15  1  0
 24 19  1  0
  1 29  1  0
  1 30  1  0
  1 31  1  0
  2 32  1  0
  2 33  1  0
  3 34  1  0
  4 35  1  0
  4 36  1  0
  5 37  1  0
  5 38  1  0
  7 39  1  0
  7 40  1  0
  8 41  1  0
  8 42  1  0
  9 43  1  0
 10 44  1  0
 10 45  1  0
 11 46  1  0
 11 47  1  0
 12 48  1  0
 12 49  1  0
 13 50  1  0
 13 51  1  0
 18 52  1  0
 18 53  1  0
 18 54  1  0
 20 55  1  0
 21 56  1  0
 22 57  1  0
 23 58  1  0
 25 59  1  0
 25 60  1  0
 26 61  1  0
 26 62  1  0
 27 63  1  0
 27 64  1  0
 28 65  1  0
 28 66  1  0
M  CHG  2  13   1  17   1
M  END
>  <UniqueID>  (20) 
19

>  <SMILES>  (20) 
CCNCCOCCNCCC[NH2+]c1c2c([n+](C)c3ccccc13)CCCC2

>  <Energy>  (20) 
88.14679061180962

>  <Genealogy>  (20) 
CCNCCOCCNCCC[NH2+]c1c2c([n+](C)c3ccccc13)CCCC2 (protonated)
CCNCCOCCNCCC[NH2+]c1c2c([n+](C)c3ccccc13)CCCC2 (3D coordinates assigned)
CCNCCOCCNCCC[NH2+]c1c2c([n+](C)c3ccccc13)CCCC2 (nonaromatic ring conformer: 88.14679061180962 kcal/mol)

>  <smiles>  (20) 
CCNCCOCCNCCCNc1c2c([n+](C)c3ccccc13)CCCC2

>  <score_type>  (20) 
oracle

>  <origin>  (20) 
adg

>  <m_score__min__energy>  (20) 
-8.4600000000000009

>  <m_primary>  (20) 
energy

$$$$
20:0
     RDKit          3D

 46 47  0  0  0  0  0  0  0  0999 V2000
   -2.8360   21.8710  -32.0180 C   0  0  0  0  0  0  0  0  0  0  0  0
   -1.6590   21.9150  -31.0420 C   0  0  0  0  0  0  0  0  0  0  0  0
   -2.0510   22.4390  -29.7120 N   0  0  0  0  0  0  0  0  0  0  0  0
   -2.2350   21.3900  -28.6780 C   0  0  0  0  0  0  0  0  0  0  0  0
   -1.5420   21.6950  -27.3440 C   0  0  0  0  0  0  0  0  0  0  0  0
   -1.1290   23.5080  -29.2610 C   0  0  0  0  0  0  0  0  0  0  0  0
   -1.8940   24.8000  -28.9680 C   0  0  0  0  0  0  0  0  0  0  0  0
   -3.3330   24.5470  -28.9510 N   0  0  0  0  0  0  0  0  0  0  0  0
   -4.2630   24.9090  -29.9790 C   0  0  0  0  0  0  0  0  0  0  0  0
   -3.8700   25.6520  -30.9180 O   0  0  0  0  0  0  0  0  0  0  0  0
   -5.6760   24.4020  -29.9910 C   0  0  0  0  0  0  0  0  0  0  0  0
   -6.0270   23.9170  -31.2860 O   0  0  0  0  0  0  0  0  0  0  0  0
   -6.8600   22.8170  -31.5470 C   0  0  0  0  0  0  0  0  0  0  0  0
   -8.2680   22.9320  -31.6520 C   0  0  0  0  0  0  0  0  0  0  0  0
   -9.0540   21.8000  -31.9150 C   0  0  0  0  0  0  0  0  0  0  0  0
   -8.4260   20.5650  -32.0700 C   0  0  0  0  0  0  0  0  0  0  0  0
   -7.0640   20.4450  -31.9650 C   0  0  0  0  0  0  0  0  0  0  0  0
   -6.2600   21.5570  -31.7040 C   0  0  0  0  0  0  0  0  0  0  0  0
   -6.6100   19.0490  -32.1620 C   0  0  0  0  0  0  0  0  0  0  0  0
   -7.9110   18.2650  -32.4180 C   0  0  0  0  0  0  0  0  0  0  0  0
   -9.0810   19.2670  -32.3500 C   0  0  0  0  0  0  0  0  0  0  0  0
   -3.7794   21.8357  -31.4534 H   0  0  0  0  0  0  0  0  0  0  0  0
   -2.8211   22.7703  -32.6512 H   0  0  0  0  0  0  0  0  0  0  0  0
   -2.7540   20.9753  -32.6512 H   0  0  0  0  0  0  0  0  0  0  0  0
   -1.2636   20.8960  -30.9183 H   0  0  0  0  0  0  0  0  0  0  0  0
   -0.8998   22.5922  -31.4603 H   0  0  0  0  0  0  0  0  0  0  0  0
   -3.3127   21.2768  -28.4891 H   0  0  0  0  0  0  0  0  0  0  0  0
   -1.7733   20.4727  -29.0721 H   0  0  0  0  0  0  0  0  0  0  0  0
   -2.2019   21.4046  -26.5132 H   0  0  0  0  0  0  0  0  0  0  0  0
   -0.6018   21.1275  -27.2811 H   0  0  0  0  0  0  0  0  0  0  0  0
   -1.3254   22.7716  -27.2811 H   0  0  0  0  0  0  0  0  0  0  0  0
   -0.6151   23.1782  -28.3460 H   0  0  0  0  0  0  0  0  0  0  0  0
   -0.4001   23.7045  -30.0611 H   0  0  0  0  0  0  0  0  0  0  0  0
   -1.5831   25.1910  -27.9880 H   0  0  0  0  0  0  0  0  0  0  0  0
   -1.6700   25.5340  -29.7561 H   0  0  0  0  0  0  0  0  0  0  0  0
   -5.7726   23.5848  -29.2610 H   0  0  0  0  0  0  0  0  0  0  0  0
   -6.3510   25.2300  -29.7287 H   0  0  0  0  0  0  0  0  0  0  0  0
   -8.7476   23.9140  -31.5267 H   0  0  0  0  0  0  0  0  0  0  0  0
  -10.1476   21.8855  -31.9975 H   0  0  0  0  0  0  0  0  0  0  0  0
   -5.1686   21.4470  -31.6223 H   0  0  0  0  0  0  0  0  0  0  0  0
   -5.9335   18.9764  -33.0264 H   0  0  0  0  0  0  0  0  0  0  0  0
   -6.0460   18.6623  -31.3004 H   0  0  0  0  0  0  0  0  0  0  0  0
   -7.8765   17.7957  -33.4123 H   0  0  0  0  0  0  0  0  0  0  0  0
   -8.0379   17.4718  -31.6666 H   0  0  0  0  0  0  0  0  0  0  0  0
   -9.6227   19.3009  -33.3067 H   0  0  0  0  0  0  0  0  0  0  0  0
   -9.8263   18.9961  -31.5877 H   0  0  0  0  0  0  0  0  0  0  0  0
  1  2  1  0
  2  3  1  0
  3  4  1  0
  4  5  1  0
  3  6  1  0
  6  7  1  0
  7  8  1  0
  8  9  1  0
  9 10  2  0
  9 11  1  0
 11 12  1  0
 12 13  1  0
 13 14  2  0
 14 15  1  0
 15 16  2  0
 16 17  1  0
 17 18  2  0
 17 19  1  0
 19 20  1  0
 20 21  1  0
 18 13  1  0
 21 16  1  0
  1 22  1  0
  1 23  1  0
  1 24  1  0
  2 25  1  0
  2 26  1  0
  4 27  1  0
  4 28  1  0
  5 29  1  0
  5 30  1  0
  5 31  1  0
  6 32  1  0
  6 33  1  0
  7 34  1  0
  7 35  1  0
 11 36  1  0
 11 37  1  0
 14 38  1  0
 15 39  1  0
 18 40  1  0
 19 41  1  0
 19 42  1  0
 20 43  1  0
 20 44  1  0
 21 45  1  0
 21 46  1  0
M  CHG  1   8  -1
M  END
>  <UniqueID>  (21) 
20

>  <SMILES>  (21) 
CCN(CC)CC[N-]C(=O)COc1ccc2c(c1)CCC2

>  <Energy>  (21) 
50.77792253910719

>  <Genealogy>  (21) 
CCN(CC)CC[N-]C(=O)COc1ccc2c(c1)CCC2 (protonated)
CCN(CC)CC[N-]C(=O)COc1ccc2c(c1)CCC2 (3D coordinates assigned)
CCN(CC)CC[N-]C(=O)COc1ccc2c(c1)CCC2 (nonaromatic ring conformer: 50.77792253910719 kcal/mol)

>  <smiles>  (21) 
CCN(CC)CCNC(=O)COc1ccc2c(c1)CCC2

>  <score_type>  (21) 
oracle

>  <origin>  (21) 
adg

>  <m_score__min__energy>  (21) 
-9.1899999999999995

>  <m_primary>  (21) 
energy

$$$$
21:0
     RDKit          3D

 49 52  0  0  0  0  0  0  0  0999 V2000
   -4.1910   24.1660  -28.4090 C   0  0  0  0  0  0  0  0  0  0  0  0
   -3.6030   24.5200  -29.7820 C   0  0  0  0  0  0  0  0  0  0  0  0
   -4.6200   24.7260  -30.8390 N   0  0  0  0  0  0  0  0  0  0  0  0
   -5.6080   25.7540  -30.4630 C   0  0  0  0  0  0  0  0  0  0  0  0
   -5.2630   23.4630  -31.2600 C   0  0  0  0  0  0  0  0  0  0  0  0
   -4.2280   22.4950  -31.8410 C   0  0  0  0  0  0  0  0  0  0  0  0
   -4.7120   21.9170  -33.0930 N   0  0  0  0  0  0  0  0  0  0  0  0
   -5.1960   20.5690  -33.1570 C   0  0  0  0  0  0  0  0  0  0  0  0
   -4.3620   19.5360  -33.5690 C   0  0  0  0  0  0  0  0  0  0  0  0
   -4.8310   18.2370  -33.6750 C   0  0  0  0  0  0  0  0  0  0  0  0
   -6.1350   17.9040  -33.4140 N   0  0  0  0  0  0  0  0  0  0  0  0
   -6.6120   16.5360  -33.6800 C   0  0  0  0  0  0  0  0  0  0  0  0
   -6.9720   18.8810  -32.8930 C   0  0  0  0  0  0  0  0  0  0  0  0
   -8.2800   18.5770  -32.4440 C   0  0  0  0  0  0  0  0  0  0  0  0
   -9.1210   19.5760  -31.9540 C   0  0  0  0  0  0  0  0  0  0  0  0
   -8.6840   20.8950  -31.8860 C   0  0  0  0  0  0  0  0  0  0  0  0
   -7.3920   21.2260  -32.2880 C   0  0  0  0  0  0  0  0  0  0  0  0
   -6.5170   20.2370  -32.7780 C   0  0  0  0  0  0  0  0  0  0  0  0
   -3.6870   17.3810  -34.0400 C   0  0  0  0  0  0  0  0  0  0  0  0
   -3.6230   16.0290  -34.1540 N   0  0  0  0  0  0  0  0  0  0  0  0
   -2.4290   15.4290  -34.4340 C   0  0  0  0  0  0  0  0  0  0  0  0
   -1.2560   16.2000  -34.5770 C   0  0  0  0  0  0  0  0  0  0  0  0
   -1.3160   17.5940  -34.4250 C   0  0  0  0  0  0  0  0  0  0  0  0
   -2.5570   18.1640  -34.1560 C   0  0  0  0  0  0  0  0  0  0  0  0
   -2.9250   19.5400  -33.8630 C   0  0  0  0  0  0  0  0  0  0  0  0
   -2.1400   20.5210  -33.7940 O   0  0  0  0  0  0  0  0  0  0  0  0
   -3.5367   24.5599  -27.6173 H   0  0  0  0  0  0  0  0  0  0  0  0
   -5.1921   24.6117  -28.3129 H   0  0  0  0  0  0  0  0  0  0  0  0
   -4.2656   23.0727  -28.3129 H   0  0  0  0  0  0  0  0  0  0  0  0
   -3.0185   25.4462  -29.6794 H   0  0  0  0  0  0  0  0  0  0  0  0
   -2.9883   23.6631  -30.0950 H   0  0  0  0  0  0  0  0  0  0  0  0
   -5.6704   25.8190  -29.3667 H   0  0  0  0  0  0  0  0  0  0  0  0
   -5.2977   26.7273  -30.8709 H   0  0  0  0  0  0  0  0  0  0  0  0
   -6.5929   25.4826  -30.8709 H   0  0  0  0  0  0  0  0  0  0  0  0
   -5.7452   22.9956  -30.3888 H   0  0  0  0  0  0  0  0  0  0  0  0
   -6.0102   23.6883  -32.0352 H   0  0  0  0  0  0  0  0  0  0  0  0
   -3.2912   23.0390  -32.0320 H   0  0  0  0  0  0  0  0  0  0  0  0
   -4.0556   21.6837  -31.1185 H   0  0  0  0  0  0  0  0  0  0  0  0
   -4.5810   22.4510  -33.9820 H   0  0  0  0  0  0  0  0  0  0  0  0
   -6.7924   16.0186  -32.7262 H   0  0  0  0  0  0  0  0  0  0  0  0
   -7.5480   16.5796  -34.2562 H   0  0  0  0  0  0  0  0  0  0  0  0
   -5.8518   15.9882  -34.2562 H   0  0  0  0  0  0  0  0  0  0  0  0
   -8.6382   17.5376  -32.4822 H   0  0  0  0  0  0  0  0  0  0  0  0
  -10.1368   19.3192  -31.6190 H   0  0  0  0  0  0  0  0  0  0  0  0
   -9.3604   21.6785  -31.5138 H   0  0  0  0  0  0  0  0  0  0  0  0
   -7.0518   22.2700  -32.2221 H   0  0  0  0  0  0  0  0  0  0  0  0
   -2.3811   14.3361  -34.5490 H   0  0  0  0  0  0  0  0  0  0  0  0
   -0.2981   15.7104  -34.8067 H   0  0  0  0  0  0  0  0  0  0  0  0
   -0.4127   18.2151  -34.5154 H   0  0  0  0  0  0  0  0  0  0  0  0
  1  2  1  0
  2  3  1  0
  3  4  1  0
  3  5  1  0
  5  6  1  0
  6  7  1  0
  7  8  1  0
  8  9  2  0
  9 10  1  0
 10 11  2  0
 11 12  1  0
 11 13  1  0
 13 14  2  0
 14 15  1  0
 15 16  2  0
 16 17  1  0
 17 18  2  0
 10 19  1  0
 19 20  2  0
 20 21  1  0
 21 22  2  0
 22 23  1  0
 23 24  2  0
 24 25  1  0
 25 26  2  0
 18  8  1  0
 24 19  1  0
 25  9  1  0
 18 13  1  0
  1 27  1  0
  1 28  1  0
  1 29  1  0
  2 30  1  0
  2 31  1  0
  4 32  1  0
  4 33  1  0
  4 34  1  0
  5 35  1  0
  5 36  1  0
  6 37  1  0
  6 38  1  0
  7 39  1  0
 12 40  1  0
 12 41  1  0
 12 42  1  0
 14 43  1  0
 15 44  1  0
 16 45  1  0
 17 46  1  0
 21 47  1  0
 22 48  1  0
 23 49  1  0
M  CHG  1  11   1
M  END
>  <UniqueID>  (22) 
21

>  <SMILES>  (22) 
CCN(C)CCNc1c2c([n+](C)c3ccccc13)-c1ncccc1C2=O

>  <Energy>  (22) 
105.43728062618278

>  <Genealogy>  (22) 
CCN(C)CCNc1c2c([n+](C)c3ccccc13)-c1ncccc1C2=O (3D coordinates assigned)
CCN(C)CCNc1c2c([n+](C)c3ccccc13)-c1ncccc1C2=O (nonaromatic ring conformer: 105.43728062618278 kcal/mol)

>  <smiles>  (22) 
CCN(C)CCNc1c2c([n+](C)c3ccccc13)-c1ncccc1C2=O

>  <score_type>  (22) 
oracle

>  <origin>  (22) 
adg

>  <m_score__min__energy>  (22) 
-8.5299999999999994

>  <m_primary>  (22) 
energy

$$$$
22:0
     RDKit          3D

 56 58  0  0  0  0  0  0  0  0999 V2000
   -2.7190   19.7170  -27.3850 C   0  0  0  0  0  0  0  0  0  0  0  0
   -3.1120   21.0560  -28.0010 C   0  0  0  0  0  0  0  0  0  0  0  0
   -2.8560   21.0410  -29.4510 N   0  0  0  0  0  0  0  0  0  0  0  0
   -1.5710   21.6780  -29.8030 C   0  0  0  0  0  0  0  0  0  0  0  0
   -0.3840   20.6880  -29.7830 C   0  0  0  0  0  0  0  0  0  0  0  0
   -0.5290   19.5560  -30.8070 C   0  0  0  0  0  0  0  0  0  0  0  0
   -1.7080   19.7390  -31.5640 O   0  0  0  0  0  0  0  0  0  0  0  0
   -1.4470   19.5940  -32.9490 C   0  0  0  0  0  0  0  0  0  0  0  0
   -2.7450   19.6210  -33.7810 C   0  0  0  0  0  0  0  0  0  0  0  0
   -3.6180   20.8360  -33.4440 C   0  0  0  0  0  0  0  0  0  0  0  0
   -4.2240   20.6840  -32.1230 N   0  0  0  0  0  0  0  0  0  0  0  0
   -5.5070   21.2550  -31.8250 C   0  0  0  0  0  0  0  0  0  0  0  0
   -5.5740   22.5630  -31.3140 C   0  0  0  0  0  0  0  0  0  0  0  0
   -4.4090   23.2330  -30.8810 C   0  0  0  0  0  0  0  0  0  0  0  0
   -4.4860   24.5130  -30.3360 C   0  0  0  0  0  0  0  0  0  0  0  0
   -5.7190   25.1420  -30.2050 C   0  0  0  0  0  0  0  0  0  0  0  0
   -6.8790   24.5080  -30.6490 C   0  0  0  0  0  0  0  0  0  0  0  0
   -6.8270   23.2230  -31.2460 C   0  0  0  0  0  0  0  0  0  0  0  0
   -7.9530   22.6130  -31.7580 N   0  0  0  0  0  0  0  0  0  0  0  0
   -9.1740   23.4140  -32.0100 C   0  0  0  0  0  0  0  0  0  0  0  0
   -7.9380   21.2610  -32.0470 C   0  0  0  0  0  0  0  0  0  0  0  0
   -9.1400   20.5520  -32.2950 C   0  0  0  0  0  0  0  0  0  0  0  0
   -9.1300   19.1960  -32.5970 C   0  0  0  0  0  0  0  0  0  0  0  0
   -7.9350   18.4950  -32.6150 C   0  0  0  0  0  0  0  0  0  0  0  0
   -6.7270   19.1360  -32.3360 C   0  0  0  0  0  0  0  0  0  0  0  0
   -5.3310   18.0660  -32.1830 Cl  0  0  0  0  0  0  0  0  0  0  0  0
   -6.7040   20.5420  -32.0790 C   0  0  0  0  0  0  0  0  0  0  0  0
   -2.7425   19.7970  -26.2882 H   0  0  0  0  0  0  0  0  0  0  0  0
   -3.4274   18.9413  -27.7113 H   0  0  0  0  0  0  0  0  0  0  0  0
   -1.7038   19.4471  -27.7113 H   0  0  0  0  0  0  0  0  0  0  0  0
   -4.1820   21.2385  -27.8224 H   0  0  0  0  0  0  0  0  0  0  0  0
   -2.5135   21.8545  -27.5382 H   0  0  0  0  0  0  0  0  0  0  0  0
   -2.8710   20.0490  -29.7890 H   0  0  0  0  0  0  0  0  0  0  0  0
   -1.6556   22.1043  -30.8135 H   0  0  0  0  0  0  0  0  0  0  0  0
   -1.3683   22.4520  -29.0481 H   0  0  0  0  0  0  0  0  0  0  0  0
    0.5393   21.2437  -30.0035 H   0  0  0  0  0  0  0  0  0  0  0  0
   -0.3579   20.2266  -28.7848 H   0  0  0  0  0  0  0  0  0  0  0  0
    0.3408   19.5599  -31.4803 H   0  0  0  0  0  0  0  0  0  0  0  0
   -0.5852   18.5938  -30.2769 H   0  0  0  0  0  0  0  0  0  0  0  0
   -0.7963   20.4180  -33.2771 H   0  0  0  0  0  0  0  0  0  0  0  0
   -0.9601   18.6201  -33.1056 H   0  0  0  0  0  0  0  0  0  0  0  0
   -2.4820   19.6578  -34.8484 H   0  0  0  0  0  0  0  0  0  0  0  0
   -3.3196   18.7134  -33.5439 H   0  0  0  0  0  0  0  0  0  0  0  0
   -2.9950   21.7425  -33.4537 H   0  0  0  0  0  0  0  0  0  0  0  0
   -4.4186   20.9161  -34.1941 H   0  0  0  0  0  0  0  0  0  0  0  0
   -3.6500   20.2830  -31.3460 H   0  0  0  0  0  0  0  0  0  0  0  0
   -3.4305   22.7393  -30.9749 H   0  0  0  0  0  0  0  0  0  0  0  0
   -3.5699   25.0266  -30.0089 H   0  0  0  0  0  0  0  0  0  0  0  0
   -5.7796   26.1417  -29.7502 H   0  0  0  0  0  0  0  0  0  0  0  0
   -7.8496   25.0128  -30.5343 H   0  0  0  0  0  0  0  0  0  0  0  0
   -9.6236   23.7089  -31.0504 H   0  0  0  0  0  0  0  0  0  0  0  0
   -8.9097   24.3148  -32.5833 H   0  0  0  0  0  0  0  0  0  0  0  0
   -9.8950   22.8129  -32.5833 H   0  0  0  0  0  0  0  0  0  0  0  0
  -10.1003   21.0863  -32.2474 H   0  0  0  0  0  0  0  0  0  0  0  0
  -10.0735   18.6774  -32.8225 H   0  0  0  0  0  0  0  0  0  0  0  0
   -7.9384   17.4208  -32.8519 H   0  0  0  0  0  0  0  0  0  0  0  0
  1  2  1  0
  2  3  1  0
  3  4  1  0
  4  5  1  0
  5  6  1  0
  6  7  1  0
  7  8  1  0
  8  9  1  0
  9 10  1  0
 10 11  1  0
 11 12  1  0
 12 13  2  0
 13 14  1  0
 14 15  2  0
 15 16  1  0
 16 17  2  0
 17 18  1  0
 18 19  2  0
 19 20  1  0
 19 21  1  0
 21 22  2  0
 22 23  1  0
 23 24  2  0
 24 25  1  0
 25 26  1  0
 25 27  2  0
 27 12  1  0
 18 13  1  0
 27 21  1  0
  1 28  1  0
  1 29  1  0
  1 30  1  0
  2 31  1  0
  2 32  1  0
  3 33  1  0
  4 34  1  0
  4 35  1  0
  5 36  1  0
  5 37  1  0
  6 38  1  0
  6 39  1  0
  8 40  1  0
  8 41  1  0
  9 42  1  0
  9 43  1  0
 10 44  1  0
 10 45  1  0
 11 46  1  0
 14 47  1  0
 15 48  1  0
 16 49  1  0
 17 50  1  0
 20 51  1  0
 20 52  1  0
 20 53  1  0
 22 54  1  0
 23 55  1  0
 24 56  1  0
M  CHG  1  19   1
M  END
>  <UniqueID>  (23) 
22

>  <SMILES>  (23) 
CCNCCCOCCCNc1c2ccccc2[n+](C)c2cccc(Cl)c12

>  <Energy>  (23) 
88.62924111421405

>  <Genealogy>  (23) 
CCNCCCOCCCNc1c2ccccc2[n+](C)c2cccc(Cl)c12 (3D coordinates assigned)
CCNCCCOCCCNc1c2ccccc2[n+](C)c2cccc(Cl)c12 (optimized conformer: 88.62924111421405 kcal/mol)

>  <smiles>  (23) 
CCNCCCOCCCNc1c2ccccc2[n+](C)c2cccc(Cl)c12

>  <score_type>  (23) 
oracle

>  <origin>  (23) 
adg

>  <m_score__min__energy>  (23) 
-9.5299999999999994

>  <m_primary>  (23) 
energy

$$$$
23:0
     RDKit          3D

 70 73  0  0  0  0  0  0  0  0999 V2000
   -8.3190   21.9320  -31.5630 C   0  0  0  0  0  0  0  0  0  0  0  0
   -7.6870   21.0790  -32.6700 C   0  0  0  0  0  0  0  0  0  0  0  0
   -8.4830   19.8830  -32.9930 N   0  0  0  0  0  0  0  0  0  0  0  0
   -8.8750   19.1320  -31.7940 C   0  0  0  0  0  0  0  0  0  0  0  0
   -7.7010   18.2870  -31.2850 C   0  0  0  0  0  0  0  0  0  0  0  0
   -7.1610   17.4900  -32.3230 O   0  0  0  0  0  0  0  0  0  0  0  0
   -6.1200   16.6660  -31.8420 C   0  0  0  0  0  0  0  0  0  0  0  0
   -5.5300   15.8510  -32.9940 C   0  0  0  0  0  0  0  0  0  0  0  0
   -6.2390   16.1070  -34.3320 C   0  0  0  0  0  0  0  0  0  0  0  0
   -5.7250   17.2660  -34.9940 O   0  0  0  0  0  0  0  0  0  0  0  0
   -4.8160   18.1860  -34.4430 C   0  0  0  0  0  0  0  0  0  0  0  0
   -3.4550   18.0220  -34.7280 C   0  0  0  0  0  0  0  0  0  0  0  0
   -2.5020   18.8930  -34.1920 C   0  0  0  0  0  0  0  0  0  0  0  0
   -2.9040   19.9470  -33.3540 C   0  0  0  0  0  0  0  0  0  0  0  0
   -1.9890   20.8400  -32.7740 C   0  0  0  0  0  0  0  0  0  0  0  0
   -0.7510   20.7290  -32.9880 O   0  0  0  0  0  0  0  0  0  0  0  0
   -2.4570   21.8600  -31.9440 C   0  0  0  0  0  0  0  0  0  0  0  0
   -3.8380   21.9780  -31.7110 C   0  0  0  0  0  0  0  0  0  0  0  0
   -4.3970   23.0380  -30.8380 C   0  0  0  0  0  0  0  0  0  0  0  0
   -5.4530   23.8620  -31.2640 C   0  0  0  0  0  0  0  0  0  0  0  0
   -5.9840   24.8260  -30.4050 C   0  0  0  0  0  0  0  0  0  0  0  0
   -5.4850   24.9680  -29.1090 C   0  0  0  0  0  0  0  0  0  0  0  0
   -4.4510   24.1360  -28.6530 C   0  0  0  0  0  0  0  0  0  0  0  0
   -3.9180   24.2670  -27.2400 C   0  0  0  0  0  0  0  0  0  0  0  0
   -2.7400   25.1580  -27.1280 N   0  0  0  0  0  0  0  0  0  0  0  0
   -1.5340   24.6380  -27.8160 C   0  0  0  0  0  0  0  0  0  0  0  0
   -0.3080   25.5010  -27.5020 C   0  0  0  0  0  0  0  0  0  0  0  0
    0.0050   25.4970  -25.9930 C   0  0  0  0  0  0  0  0  0  0  0  0
   -1.2240   25.1700  -25.1250 C   0  0  0  0  0  0  0  0  0  0  0  0
   -2.5100   25.7080  -25.7670 C   0  0  0  0  0  0  0  0  0  0  0  0
   -3.8980   23.1900  -29.5320 C   0  0  0  0  0  0  0  0  0  0  0  0
   -4.6760   21.1110  -32.2770 O   0  0  0  0  0  0  0  0  0  0  0  0
   -4.2750   20.1240  -33.0720 C   0  0  0  0  0  0  0  0  0  0  0  0
   -5.2230   19.2560  -33.6230 C   0  0  0  0  0  0  0  0  0  0  0  0
   -8.0245   21.5345  -30.5805 H   0  0  0  0  0  0  0  0  0  0  0  0
   -7.9712   22.9713  -31.6573 H   0  0  0  0  0  0  0  0  0  0  0  0
   -9.4145   21.9019  -31.6573 H   0  0  0  0  0  0  0  0  0  0  0  0
   -7.5927   21.6940  -33.5771 H   0  0  0  0  0  0  0  0  0  0  0  0
   -6.7072   20.7365  -32.3058 H   0  0  0  0  0  0  0  0  0  0  0  0
   -7.9250   19.2580  -33.6220 H   0  0  0  0  0  0  0  0  0  0  0  0
   -9.1810   19.8381  -31.0080 H   0  0  0  0  0  0  0  0  0  0  0  0
   -9.7112   18.4643  -32.0487 H   0  0  0  0  0  0  0  0  0  0  0  0
   -6.9169   18.9557  -30.9001 H   0  0  0  0  0  0  0  0  0  0  0  0
   -8.0671   17.6230  -30.4881 H   0  0  0  0  0  0  0  0  0  0  0  0
   -5.3331   17.2935  -31.3981 H   0  0  0  0  0  0  0  0  0  0  0  0
   -6.5214   15.9809  -31.0807 H   0  0  0  0  0  0  0  0  0  0  0  0
   -4.4679   16.1158  -33.1033 H   0  0  0  0  0  0  0  0  0  0  0  0
   -5.6636   14.7872  -32.7480 H   0  0  0  0  0  0  0  0  0  0  0  0
   -6.0959   15.2323  -34.9835 H   0  0  0  0  0  0  0  0  0  0  0  0
   -7.3060   16.2770  -34.1257 H   0  0  0  0  0  0  0  0  0  0  0  0
   -3.1319   17.1981  -35.3813 H   0  0  0  0  0  0  0  0  0  0  0  0
   -1.4364   18.7532  -34.4264 H   0  0  0  0  0  0  0  0  0  0  0  0
   -1.7524   22.5640  -31.4772 H   0  0  0  0  0  0  0  0  0  0  0  0
   -5.8627   23.7469  -32.2783 H   0  0  0  0  0  0  0  0  0  0  0  0
   -6.8001   25.4772  -30.7513 H   0  0  0  0  0  0  0  0  0  0  0  0
   -5.9043   25.7357  -28.4421 H   0  0  0  0  0  0  0  0  0  0  0  0
   -4.7193   24.6689  -26.6025 H   0  0  0  0  0  0  0  0  0  0  0  0
   -3.5937   23.2643  -26.9246 H   0  0  0  0  0  0  0  0  0  0  0  0
   -1.3443   23.6078  -27.4801 H   0  0  0  0  0  0  0  0  0  0  0  0
   -1.7115   24.6629  -28.9013 H   0  0  0  0  0  0  0  0  0  0  0  0
    0.5597   25.1043  -28.0494 H   0  0  0  0  0  0  0  0  0  0  0  0
   -0.5218   26.5350  -27.8105 H   0  0  0  0  0  0  0  0  0  0  0  0
    0.7824   24.7435  -25.7982 H   0  0  0  0  0  0  0  0  0  0  0  0
    0.3385   26.5099  -25.7232 H   0  0  0  0  0  0  0  0  0  0  0  0
   -1.3064   24.0786  -25.0148 H   0  0  0  0  0  0  0  0  0  0  0  0
   -1.0963   25.6482  -24.1426 H   0  0  0  0  0  0  0  0  0  0  0  0
   -3.3634   25.4367  -25.1281 H   0  0  0  0  0  0  0  0  0  0  0  0
   -2.4055   26.7990  -25.8608 H   0  0  0  0  0  0  0  0  0  0  0  0
   -3.0627   22.5591  -29.1939 H   0  0  0  0  0  0  0  0  0  0  0  0
   -6.2921   19.4099  -33.4148 H   0  0  0  0  0  0  0  0  0  0  0  0
  1  2  1  0
  2  3  1  0
  3  4  1  0
  4  5  1  0
  5  6  1  0
  6  7  1  0
  7  8  1  0
  8  9  1  0
  9 10  1  0
 10 11  1  0
 11 12  2  0
 12 13  1  0
 13 14  2  0
 14 15  1  0
 15 16  2  0
 15 17  1  0
 17 18  2  0
 18 19  1  0
 19 20  2  0
 20 21  1  0
 21 22  2  0
 22 23  1  0
 23 24  1  0
 24 25  1  0
 25 26  1  0
 26 27  1  0
 27 28  1  0
 28 29  1  0
 29 30  1  0
 23 31  2  0
 18 32  1  0
 32 33  1  0
 33 34  2  0
 34 11  1  0
 33 14  1  0
 31 19  1  0
 30 25  1  0
  1 35  1  0
  1 36  1  0
  1 37  1  0
  2 38  1  0
  2 39  1  0
  3 40  1  0
  4 41  1  0
  4 42  1  0
  5 43  1  0
  5 44  1  0
  7 45  1  0
  7 46  1  0
  8 47  1  0
  8 48  1  0
  9 49  1  0
  9 50  1  0
 12 51  1  0
 13 52  1  0
 17 53  1  0
 20 54  1  0
 21 55  1  0
 22 56  1  0
 24 57  1  0
 24 58  1  0
 26 59  1  0
 26 60  1  0
 27 61  1  0
 27 62  1  0
 28 63  1  0
 28 64  1  0
 29 65  1  0
 29 66  1  0
 30 67  1  0
 30 68  1  0
 31 69  1  0
 34 70  1  0
M  END
>  <UniqueID>  (24) 
23

>  <SMILES>  (24) 
CCNCCOCCCOc1ccc2c(=O)cc(-c3cccc(CN4CCCCC4)c3)oc2c1

>  <Energy>  (24) 
85.63647923003742

>  <Genealogy>  (24) 
CCNCCOCCCOc1ccc2c(=O)cc(-c3cccc(CN4CCCCC4)c3)oc2c1 (3D coordinates assigned)
CCNCCOCCCOc1ccc2c(=O)cc(-c3cccc(CN4CCCCC4)c3)oc2c1 (nonaromatic ring conformer: 85.63647923003742 kcal/mol)

>  <smiles>  (24) 
CCNCCOCCCOc1ccc2c(=O)cc(-c3cccc(CN4CCCCC4)c3)oc2c1

>  <score_type>  (24) 
oracle

>  <origin>  (24) 
adg

>  <m_score__min__energy>  (24) 
-9.1600000000000001

>  <m_primary>  (24) 
energy

$$$$
