0:0
     RDKit          3D

 50 51  0  0  0  0  0  0  0  0999 V2000
   -8.1590   22.2390  -31.1860 C   0  0  0  0  0  0  0  0  0  0  0  0
   -7.0710   23.0070  -30.4350 C   0  0  0  0  0  0  0  0  0  0  0  0
   -6.4130   24.1010  -31.2930 C   0  0  0  0  0  0  0  0  0  0  0  0
   -5.7410   25.2110  -30.4710 C   0  0  0  0  0  0  0  0  0  0  0  0
   -4.3020   25.2580  -30.7130 N   0  0  0  0  0  0  0  0  0  0  0  0
   -3.3520   24.4390  -30.0250 C   0  0  0  0  0  0  0  0  0  0  0  0
   -2.9330   24.7780  -28.8850 O   0  0  0  0  0  0  0  0  0  0  0  0
   -2.8670   23.2470  -30.6560 N   0  0  0  0  0  0  0  0  0  0  0  0
   -2.0010   22.3070  -29.9940 C   0  0  0  0  0  0  0  0  0  0  0  0
   -1.0300   22.7840  -29.0950 C   0  0  0  0  0  0  0  0  0  0  0  0
   -0.1490   21.9040  -28.4640 C   0  0  0  0  0  0  0  0  0  0  0  0
   -0.2190   20.5390  -28.7300 C   0  0  0  0  0  0  0  0  0  0  0  0
   -1.1820   20.0460  -29.6110 C   0  0  0  0  0  0  0  0  0  0  0  0
   -2.1080   20.9080  -30.2270 C   0  0  0  0  0  0  0  0  0  0  0  0
   -3.1380   20.3230  -31.1880 C   0  0  0  0  0  0  0  0  0  0  0  0
   -3.2820   21.0750  -32.4600 N   0  0  0  0  0  0  0  0  0  0  0  0
   -2.8080   20.3160  -33.6420 C   0  0  0  0  0  0  0  0  0  0  0  0
   -2.9710   18.8060  -33.4430 C   0  0  0  0  0  0  0  0  0  0  0  0
   -4.4300   18.3570  -33.2700 C   0  0  0  0  0  0  0  0  0  0  0  0
   -5.4230   19.4210  -33.7670 C   0  0  0  0  0  0  0  0  0  0  0  0
   -5.7030   20.5380  -32.7490 C   0  0  0  0  0  0  0  0  0  0  0  0
   -4.6370   21.6400  -32.6680 C   0  0  0  0  0  0  0  0  0  0  0  0
   -8.8361   21.7610  -30.4628 H   0  0  0  0  0  0  0  0  0  0  0  0
   -8.7298   22.9355  -31.8178 H   0  0  0  0  0  0  0  0  0  0  0  0
   -7.6939   21.4679  -31.8178 H   0  0  0  0  0  0  0  0  0  0  0  0
   -7.5215   23.4786  -29.5492 H   0  0  0  0  0  0  0  0  0  0  0  0
   -6.2871   22.2862  -30.1595 H   0  0  0  0  0  0  0  0  0  0  0  0
   -5.6497   23.6303  -31.9300 H   0  0  0  0  0  0  0  0  0  0  0  0
   -7.2145   24.5754  -31.8783 H   0  0  0  0  0  0  0  0  0  0  0  0
   -6.1823   26.1793  -30.7495 H   0  0  0  0  0  0  0  0  0  0  0  0
   -5.9053   24.9987  -29.4043 H   0  0  0  0  0  0  0  0  0  0  0  0
   -3.1340   23.0930  -31.6520 H   0  0  0  0  0  0  0  0  0  0  0  0
   -0.9642   23.8621  -28.8869 H   0  0  0  0  0  0  0  0  0  0  0  0
    0.6004   22.2889  -27.7567 H   0  0  0  0  0  0  0  0  0  0  0  0
    0.4862   19.8482  -28.2447 H   0  0  0  0  0  0  0  0  0  0  0  0
   -1.2179   18.9680  -29.8271 H   0  0  0  0  0  0  0  0  0  0  0  0
   -2.8383   19.2924  -31.4289 H   0  0  0  0  0  0  0  0  0  0  0  0
   -4.1112   20.3766  -30.6781 H   0  0  0  0  0  0  0  0  0  0  0  0
   -3.3906   20.6253  -34.5223 H   0  0  0  0  0  0  0  0  0  0  0  0
   -1.7387   20.5316  -33.7840 H   0  0  0  0  0  0  0  0  0  0  0  0
   -2.5523   18.2933  -34.3215 H   0  0  0  0  0  0  0  0  0  0  0  0
   -2.4438   18.5468  -32.5130 H   0  0  0  0  0  0  0  0  0  0  0  0
   -4.5866   17.4304  -33.8418 H   0  0  0  0  0  0  0  0  0  0  0  0
   -4.6115   18.1978  -32.1968 H   0  0  0  0  0  0  0  0  0  0  0  0
   -5.0119   19.8789  -34.6788 H   0  0  0  0  0  0  0  0  0  0  0  0
   -6.3785   18.9061  -33.9457 H   0  0  0  0  0  0  0  0  0  0  0  0
   -6.6592   21.0104  -33.0185 H   0  0  0  0  0  0  0  0  0  0  0  0
   -5.7114   20.0524  -31.7620 H   0  0  0  0  0  0  0  0  0  0  0  0
   -4.6444   22.2134  -33.6067 H   0  0  0  0  0  0  0  0  0  0  0  0
   -4.8753   22.2866  -31.8106 H   0  0  0  0  0  0  0  0  0  0  0  0
  1  2  1  0
  2  3  1  0
  3  4  1  0
  4  5  1  0
  5  6  1  0
  6  7  2  0
  6  8  1  0
  8  9  1  0
  9 10  2  0
 10 11  1  0
 11 12  2  0
 12 13  1  0
 13 14  2  0
 14 15  1  0
 15 16  1  0
 16 17  1  0
 17 18  1  0
 18 19  1  0
 19 20  1  0
 20 21  1  0
 21 22  1  0
 14  9  1  0
 22 16  1  0
  1 23  1  0
  1 24  1  0
  1 25  1  0
  2 26  1  0
  2 27  1  0
  3 28  1  0
  3 29  1  0
  4 30  1  0
  4 31  1  0
  8 32  1  0
 10 33  1  0
 11 34  1  0
 12 35  1  0
 13 36  1  0
 15 37  1  0
 15 38  1  0
 17 39  1  0
 17 40  1  0
 18 41  1  0
 18 42  1  0
 19 43  1  0
 19 44  1  0
 20 45  1  0
 20 46  1  0
 21 47  1  0
 21 48  1  0
 22 49  1  0
 22 50  1  0
M  CHG  1   5  -1
M  END
>  <UniqueID>  (1) 
1

>  <SMILES>  (1) 
CCCC[N-]C(=O)Nc1ccccc1CN1CCCCCC1

>  <Energy>  (1) 
55.044307685640064

>  <Genealogy>  (1) 
CCCC[N-]C(=O)Nc1ccccc1CN1CCCCCC1 (protonated)
CCCC[N-]C(=O)Nc1ccccc1CN1CCCCCC1 (3D coordinates assigned)
CCCC[N-]C(=O)Nc1ccccc1CN1CCCCCC1 (nonaromatic ring conformer: 55.044307685640064 kcal/mol)

>  <smiles>  (1) 
CCCCNC(=O)Nc1ccccc1CN1CCCCCC1

>  <score_type>  (1) 
oracle

>  <origin>  (1) 
adg

>  <m_score__min__energy>  (1) 
-6.4500000000000002

>  <m_primary>  (1) 
energy

$$$$
1:0
     RDKit          3D

 57 60  0  0  0  0  0  0  0  0999 V2000
   -1.9040   23.1520  -28.0230 C   0  0  0  0  0  0  0  0  0  0  0  0
   -1.7760   24.6670  -28.2580 C   0  0  0  0  0  0  0  0  0  0  0  0
   -2.5940   25.0820  -29.3530 O   0  0  0  0  0  0  0  0  0  0  0  0
   -3.7910   24.4640  -29.7600 C   0  0  0  0  0  0  0  0  0  0  0  0
   -4.9910   24.5590  -29.0230 C   0  0  0  0  0  0  0  0  0  0  0  0
   -6.1480   23.9260  -29.4800 C   0  0  0  0  0  0  0  0  0  0  0  0
   -6.1270   23.1750  -30.6660 C   0  0  0  0  0  0  0  0  0  0  0  0
   -7.3720   22.5250  -31.1080 C   0  0  0  0  0  0  0  0  0  0  0  0
   -8.2970   23.2270  -31.9000 C   0  0  0  0  0  0  0  0  0  0  0  0
   -9.4600   22.5820  -32.3310 C   0  0  0  0  0  0  0  0  0  0  0  0
   -9.6910   21.2540  -31.9580 C   0  0  0  0  0  0  0  0  0  0  0  0
   -8.7470   20.5870  -31.1690 C   0  0  0  0  0  0  0  0  0  0  0  0
   -7.6140   21.2280  -30.7710 N   0  0  0  0  0  0  0  0  0  0  0  0
   -4.9260   23.0700  -31.4140 C   0  0  0  0  0  0  0  0  0  0  0  0
   -4.8600   22.2890  -32.7110 C   0  0  0  0  0  0  0  0  0  0  0  0
   -5.2340   20.8780  -32.4890 N   0  0  0  0  0  0  0  0  0  0  0  0
   -6.1960   20.4030  -33.5000 C   0  0  0  0  0  0  0  0  0  0  0  0
   -6.7980   19.0540  -33.0550 C   0  0  0  0  0  0  0  0  0  0  0  0
   -5.8440   18.2580  -32.1350 C   0  0  0  0  0  0  0  0  0  0  0  0
   -6.1240   16.8600  -32.2140 O   0  0  0  0  0  0  0  0  0  0  0  0
   -5.2870   15.8990  -32.8030 C   0  0  0  0  0  0  0  0  0  0  0  0
   -4.6840   14.9500  -31.9730 C   0  0  0  0  0  0  0  0  0  0  0  0
   -3.8400   13.9860  -32.5240 C   0  0  0  0  0  0  0  0  0  0  0  0
   -3.6080   13.9750  -33.8990 C   0  0  0  0  0  0  0  0  0  0  0  0
   -2.5440   12.7760  -34.6090 Cl  0  0  0  0  0  0  0  0  0  0  0  0
   -4.2300   14.9290  -34.7050 C   0  0  0  0  0  0  0  0  0  0  0  0
   -5.0520   15.8610  -34.1510 N   0  0  0  0  0  0  0  0  0  0  0  0
   -4.3860   18.5080  -32.5380 C   0  0  0  0  0  0  0  0  0  0  0  0
   -4.0320   20.0110  -32.4520 C   0  0  0  0  0  0  0  0  0  0  0  0
   -3.7690   23.7200  -30.9470 C   0  0  0  0  0  0  0  0  0  0  0  0
   -1.9212   22.9488  -26.9421 H   0  0  0  0  0  0  0  0  0  0  0  0
   -2.8361   22.7876  -28.4795 H   0  0  0  0  0  0  0  0  0  0  0  0
   -1.0462   22.6364  -28.4795 H   0  0  0  0  0  0  0  0  0  0  0  0
   -2.0919   25.2007  -27.3495 H   0  0  0  0  0  0  0  0  0  0  0  0
   -0.7271   24.8995  -28.4939 H   0  0  0  0  0  0  0  0  0  0  0  0
   -5.0145   25.1338  -28.0854 H   0  0  0  0  0  0  0  0  0  0  0  0
   -7.0826   24.0162  -28.9070 H   0  0  0  0  0  0  0  0  0  0  0  0
   -8.1075   24.2743  -32.1781 H   0  0  0  0  0  0  0  0  0  0  0  0
  -10.1885   23.1154  -32.9593 H   0  0  0  0  0  0  0  0  0  0  0  0
  -10.6069   20.7382  -32.2820 H   0  0  0  0  0  0  0  0  0  0  0  0
   -8.9209   19.5428  -30.8699 H   0  0  0  0  0  0  0  0  0  0  0  0
   -5.5537   22.7366  -33.4379 H   0  0  0  0  0  0  0  0  0  0  0  0
   -3.8297   22.3261  -33.0946 H   0  0  0  0  0  0  0  0  0  0  0  0
   -7.0020   21.1430  -33.6133 H   0  0  0  0  0  0  0  0  0  0  0  0
   -5.6773   20.2701  -34.4609 H   0  0  0  0  0  0  0  0  0  0  0  0
   -7.7342   19.2473  -32.5107 H   0  0  0  0  0  0  0  0  0  0  0  0
   -6.9740   18.4510  -33.9580 H   0  0  0  0  0  0  0  0  0  0  0  0
   -6.0000   18.5989  -31.1009 H   0  0  0  0  0  0  0  0  0  0  0  0
   -4.8742   14.9633  -30.8897 H   0  0  0  0  0  0  0  0  0  0  0  0
   -3.3594   13.2376  -31.8767 H   0  0  0  0  0  0  0  0  0  0  0  0
   -4.0554   14.9276  -35.7911 H   0  0  0  0  0  0  0  0  0  0  0  0
   -5.5020   16.5420  -34.7970 H   0  0  0  0  0  0  0  0  0  0  0  0
   -3.7254   17.9445  -31.8626 H   0  0  0  0  0  0  0  0  0  0  0  0
   -4.2505   18.1771  -33.5783 H   0  0  0  0  0  0  0  0  0  0  0  0
   -3.4935   20.1937  -31.5104 H   0  0  0  0  0  0  0  0  0  0  0  0
   -3.4120   20.2600  -33.3259 H   0  0  0  0  0  0  0  0  0  0  0  0
   -2.8342   23.6430  -31.5217 H   0  0  0  0  0  0  0  0  0  0  0  0
  1  2  1  0
  2  3  1  0
  3  4  1  0
  4  5  2  0
  5  6  1  0
  6  7  2  0
  7  8  1  0
  8  9  2  0
  9 10  1  0
 10 11  2  0
 11 12  1  0
 12 13  2  0
  7 14  1  0
 14 15  1  0
 15 16  1  0
 16 17  1  0
 17 18  1  0
 18 19  1  0
 19 20  1  0
 20 21  1  0
 21 22  2  0
 22 23  1  0
 23 24  2  0
 24 25  1  0
 24 26  1  0
 26 27  2  0
 19 28  1  0
 28 29  1  0
 14 30  2  0
 30  4  1  0
 13  8  1  0
 29 16  1  0
 27 21  1  0
  1 31  1  0
  1 32  1  0
  1 33  1  0
  2 34  1  0
  2 35  1  0
  5 36  1  0
  6 37  1  0
  9 38  1  0
 10 39  1  0
 11 40  1  0
 12 41  1  0
 15 42  1  0
 15 43  1  0
 17 44  1  0
 17 45  1  0
 18 46  1  0
 18 47  1  0
 19 48  1  0
 22 49  1  0
 23 50  1  0
 26 51  1  0
 27 52  1  0
 28 53  1  0
 28 54  1  0
 29 55  1  0
 29 56  1  0
 30 57  1  0
M  CHG  1  27   1
M  END
>  <UniqueID>  (2) 
2

>  <SMILES>  (2) 
CCOc1ccc(-c2ccccn2)c(CN2CCC(Oc3ccc(Cl)c[nH+]3)CC2)c1

>  <Energy>  (2) 
69.3329827343601

>  <Genealogy>  (2) 
CCOc1ccc(-c2ccccn2)c(CN2CCC(Oc3ccc(Cl)c[nH+]3)CC2)c1 (protonated)
CCOc1ccc(-c2ccccn2)c(CN2CCC(Oc3ccc(Cl)c[nH+]3)CC2)c1 (3D coordinates assigned)
CCOc1ccc(-c2ccccn2)c(CN2CCC(Oc3ccc(Cl)c[nH+]3)CC2)c1 (nonaromatic ring conformer: 69.3329827343601 kcal/mol)

>  <smiles>  (2) 
CCOc1ccc(-c2ccccn2)c(CN2CCC(Oc3ccc(Cl)cn3)CC2)c1

>  <score_type>  (2) 
oracle

>  <origin>  (2) 
adg

>  <m_score__min__energy>  (2) 
-8.8900000000000006

>  <m_primary>  (2) 
energy

$$$$
2:0
     RDKit          3D

 44 47  0  0  0  0  0  0  0  0999 V2000
   -1.2160   26.9670  -29.3610 H   0  0  0  0  0  0  0  0  0  0  0  0
   -1.2220   26.1900  -28.6620 N   0  0  0  0  0  0  0  0  0  0  0  0
   -1.1820   24.8260  -29.0790 C   0  0  0  0  0  0  0  0  0  0  0  0
   -0.1090   24.1790  -28.9420 O   0  0  0  0  0  0  0  0  0  0  0  0
   -2.3980   24.1740  -29.6450 C   0  0  0  0  0  0  0  0  0  0  0  0
   -3.5800   24.9240  -29.7420 C   0  0  0  0  0  0  0  0  0  0  0  0
   -3.5909   25.9678  -29.3952 H   0  0  0  0  0  0  0  0  0  0  0  0
   -4.7070   24.3790  -30.2570 N   0  0  0  0  0  0  0  0  0  0  0  0
   -4.7680   23.0820  -30.6460 C   0  0  0  0  0  0  0  0  0  0  0  0
   -5.9890   22.5680  -31.0970 C   0  0  0  0  0  0  0  0  0  0  0  0
   -6.8500   23.2410  -31.2223 H   0  0  0  0  0  0  0  0  0  0  0  0
   -6.1260   21.2030  -31.3910 C   0  0  0  0  0  0  0  0  0  0  0  0
   -7.4220   20.6550  -31.8690 C   0  0  0  0  0  0  0  0  0  0  0  0
   -7.5190   19.3160  -32.2860 C   0  0  0  0  0  0  0  0  0  0  0  0
   -6.6337   18.6636  -32.2604 H   0  0  0  0  0  0  0  0  0  0  0  0
   -8.7450   18.8180  -32.7330 C   0  0  0  0  0  0  0  0  0  0  0  0
   -8.8247   17.7713  -33.0617 H   0  0  0  0  0  0  0  0  0  0  0  0
   -9.8400   19.6230  -32.7630 N   0  0  0  0  0  0  0  0  0  0  0  0
   -9.7790   20.9200  -32.3640 C   0  0  0  0  0  0  0  0  0  0  0  0
  -10.6821   21.5471  -32.3977 H   0  0  0  0  0  0  0  0  0  0  0  0
   -8.5730   21.4600  -31.9110 C   0  0  0  0  0  0  0  0  0  0  0  0
   -8.5245   22.5106  -31.5886 H   0  0  0  0  0  0  0  0  0  0  0  0
   -5.0290   20.3550  -31.1830 C   0  0  0  0  0  0  0  0  0  0  0  0
   -5.1333   19.2757  -31.3678 H   0  0  0  0  0  0  0  0  0  0  0  0
   -3.8060   20.8650  -30.7440 C   0  0  0  0  0  0  0  0  0  0  0  0
   -2.9710   20.1762  -30.5484 H   0  0  0  0  0  0  0  0  0  0  0  0
   -3.6240   22.2520  -30.5470 C   0  0  0  0  0  0  0  0  0  0  0  0
   -2.3830   22.8480  -30.1520 C   0  0  0  0  0  0  0  0  0  0  0  0
   -1.2160   22.2670  -30.2900 N   0  0  0  0  0  0  0  0  0  0  0  0
   -0.7070   21.0550  -29.7140 C   0  0  0  0  0  0  0  0  0  0  0  0
    0.2310   20.3010  -30.4260 C   0  0  0  0  0  0  0  0  0  0  0  0
    0.5999   20.6604  -31.3980 H   0  0  0  0  0  0  0  0  0  0  0  0
    0.7010   19.0920  -29.9060 C   0  0  0  0  0  0  0  0  0  0  0  0
    1.4538   18.5121  -30.4601 H   0  0  0  0  0  0  0  0  0  0  0  0
    0.2170   18.6180  -28.6840 C   0  0  0  0  0  0  0  0  0  0  0  0
    0.5981   17.6713  -28.2736 H   0  0  0  0  0  0  0  0  0  0  0  0
   -0.7570   19.3480  -27.9760 C   0  0  0  0  0  0  0  0  0  0  0  0
   -1.2850   18.9090  -26.7530 O   0  0  0  0  0  0  0  0  0  0  0  0
   -2.6690   18.9380  -26.4180 C   0  0  0  0  0  0  0  0  0  0  0  0
   -2.7814   18.9404  -25.3238 H   0  0  0  0  0  0  0  0  0  0  0  0
   -3.1284   19.8460  -26.8358 H   0  0  0  0  0  0  0  0  0  0  0  0
   -3.1661   18.0501  -26.8358 H   0  0  0  0  0  0  0  0  0  0  0  0
   -1.2240   20.5570  -28.5060 C   0  0  0  0  0  0  0  0  0  0  0  0
   -2.0024   21.1218  -27.9721 H   0  0  0  0  0  0  0  0  0  0  0  0
  1  2  1  0
  2  3  1  0
  3  4  2  0
  3  5  1  0
  5  6  2  0
  6  7  1  0
  6  8  1  0
  8  9  1  0
  9 10  2  0
 10 11  1  0
 10 12  1  0
 12 13  1  0
 13 14  2  0
 14 15  1  0
 14 16  1  0
 16 17  1  0
 16 18  2  0
 18 19  1  0
 19 20  1  0
 19 21  2  0
 21 22  1  0
 12 23  2  0
 23 24  1  0
 23 25  1  0
 25 26  1  0
 25 27  2  0
 27 28  1  0
 28 29  2  0
 29 30  1  0
 30 31  2  0
 31 32  1  0
 31 33  1  0
 33 34  1  0
 33 35  2  0
 35 36  1  0
 35 37  1  0
 37 38  1  0
 38 39  1  0
 39 40  1  0
 39 41  1  0
 39 42  1  0
 37 43  2  0
 43 44  1  0
 28  5  1  0
 43 30  1  0
 27  9  1  0
 21 13  1  0
M  CHG  2   2  -1   8  -1
M  END
>  <UniqueID>  (3) 
3

>  <SMILES>  (3) 
COc1cccc(/N=c2/c(C([NH-])=O)c[n-]c3cc(-c4ccncc4)ccc23)c1

>  <Energy>  (3) 
81.512291811832

>  <Genealogy>  (3) 
COc1cccc(N=c2c(C([NH-])=O)c[n-]c3cc(-c4ccncc4)ccc23)c1 (protonated)
COc1cccc(/N=c2/c(C([NH-])=O)c[n-]c3cc(-c4ccncc4)ccc23)c1 (cis-trans isomerization)
COc1cccc(/N=c2/c(C([NH-])=O)c[n-]c3cc(-c4ccncc4)ccc23)c1 (3D coordinates assigned)
COc1cccc(/N=c2/c(C([NH-])=O)c[n-]c3cc(-c4ccncc4)ccc23)c1 (optimized conformer: 81.512291811832 kcal/mol)

>  <smiles>  (3) 
COc1cccc(N=c2c(C(N)=O)c[nH]c3cc(-c4ccncc4)ccc23)c1

>  <score_type>  (3) 
oracle

>  <origin>  (3) 
adg

>  <m_score__min__energy>  (3) 
-10.85

>  <m_primary>  (3) 
energy

$$$$
3:0
     RDKit          3D

 59 62  0  0  0  0  0  0  0  0999 V2000
    1.0490   17.1300  -33.1200 C   0  0  0  0  0  0  0  0  0  0  0  0
    1.5920   17.8080  -34.3740 C   0  0  0  0  0  0  0  0  0  0  0  0
    0.5550   17.8020  -35.5020 C   0  0  0  0  0  0  0  0  0  0  0  0
   -0.7780   18.1610  -34.9750 N   0  0  0  0  0  0  0  0  0  0  0  0
   -1.7610   17.2090  -34.8990 C   0  0  0  0  0  0  0  0  0  0  0  0
   -1.5400   16.0300  -35.2980 O   0  0  0  0  0  0  0  0  0  0  0  0
   -3.0140   17.5360  -34.3690 C   0  0  0  0  0  0  0  0  0  0  0  0
   -4.0600   16.6060  -34.2690 C   0  0  0  0  0  0  0  0  0  0  0  0
   -5.2490   16.9790  -33.7320 N   0  0  0  0  0  0  0  0  0  0  0  0
   -5.4490   18.2460  -33.2820 C   0  0  0  0  0  0  0  0  0  0  0  0
   -6.7110   18.6230  -32.7220 N   0  0  0  0  0  0  0  0  0  0  0  0
   -7.3120   19.8260  -32.8140 C   0  0  0  0  0  0  0  0  0  0  0  0
   -8.4940   19.7250  -32.1050 C   0  0  0  0  0  0  0  0  0  0  0  0
   -9.5550   20.7370  -31.9410 C   0  0  0  0  0  0  0  0  0  0  0  0
   -9.3660   22.0070  -31.5500 C   0  0  0  0  0  0  0  0  0  0  0  0
   -8.0530   22.6610  -31.3650 C   0  0  0  0  0  0  0  0  0  0  0  0
   -7.3360   23.1850  -32.4540 C   0  0  0  0  0  0  0  0  0  0  0  0
   -6.0820   23.7710  -32.2570 C   0  0  0  0  0  0  0  0  0  0  0  0
   -5.5120   23.8190  -30.9800 C   0  0  0  0  0  0  0  0  0  0  0  0
   -4.2530   24.4200  -30.8320 O   0  0  0  0  0  0  0  0  0  0  0  0
   -3.3350   24.1150  -29.7890 C   0  0  0  0  0  0  0  0  0  0  0  0
   -6.2140   23.2610  -29.8940 C   0  0  0  0  0  0  0  0  0  0  0  0
   -7.4700   22.6780  -30.0900 C   0  0  0  0  0  0  0  0  0  0  0  0
   -8.5780   18.4640  -31.6410 N   0  0  0  0  0  0  0  0  0  0  0  0
   -7.4870   17.8150  -32.0150 N   0  0  0  0  0  0  0  0  0  0  0  0
   -4.4470   19.1590  -33.3730 N   0  0  0  0  0  0  0  0  0  0  0  0
   -3.2340   18.8420  -33.9090 C   0  0  0  0  0  0  0  0  0  0  0  0
   -2.2380   19.7800  -33.9920 N   0  0  0  0  0  0  0  0  0  0  0  0
   -2.4610   21.1460  -33.4740 C   0  0  0  0  0  0  0  0  0  0  0  0
   -2.1620   21.2000  -31.9720 C   0  0  0  0  0  0  0  0  0  0  0  0
   -3.4280   21.0040  -31.1460 C   0  0  0  0  0  0  0  0  0  0  0  0
   -1.0090   19.4310  -34.5020 C   0  0  0  0  0  0  0  0  0  0  0  0
   -0.0800   20.2870  -34.5310 O   0  0  0  0  0  0  0  0  0  0  0  0
    1.4514   17.6325  -32.2280 H   0  0  0  0  0  0  0  0  0  0  0  0
   -0.0490   17.1958  -33.1139 H   0  0  0  0  0  0  0  0  0  0  0  0
    1.3530   16.0729  -33.1139 H   0  0  0  0  0  0  0  0  0  0  0  0
    1.8544   18.8489  -34.1338 H   0  0  0  0  0  0  0  0  0  0  0  0
    2.4785   17.2523  -34.7136 H   0  0  0  0  0  0  0  0  0  0  0  0
    0.8502   18.5319  -36.2702 H   0  0  0  0  0  0  0  0  0  0  0  0
    0.5074   16.7936  -35.9389 H   0  0  0  0  0  0  0  0  0  0  0  0
   -3.9162   15.5754  -34.6257 H   0  0  0  0  0  0  0  0  0  0  0  0
   -6.9364   20.7118  -33.3472 H   0  0  0  0  0  0  0  0  0  0  0  0
  -10.5873   20.4246  -32.1573 H   0  0  0  0  0  0  0  0  0  0  0  0
  -10.2629   22.6118  -31.3505 H   0  0  0  0  0  0  0  0  0  0  0  0
   -7.7634   23.1339  -33.4663 H   0  0  0  0  0  0  0  0  0  0  0  0
   -5.5389   24.1979  -33.1131 H   0  0  0  0  0  0  0  0  0  0  0  0
   -3.8200   24.2761  -28.8149 H   0  0  0  0  0  0  0  0  0  0  0  0
   -3.0208   23.0642  -29.8728 H   0  0  0  0  0  0  0  0  0  0  0  0
   -2.4544   24.7688  -29.8728 H   0  0  0  0  0  0  0  0  0  0  0  0
   -5.7723   23.2838  -28.8868 H   0  0  0  0  0  0  0  0  0  0  0  0
   -8.0037   22.2301  -29.2388 H   0  0  0  0  0  0  0  0  0  0  0  0
   -9.3540   18.0480  -31.0790 H   0  0  0  0  0  0  0  0  0  0  0  0
   -1.7976   21.8471  -34.0016 H   0  0  0  0  0  0  0  0  0  0  0  0
   -3.5120   21.4248  -33.6401 H   0  0  0  0  0  0  0  0  0  0  0  0
   -1.4442   20.4051  -31.7211 H   0  0  0  0  0  0  0  0  0  0  0  0
   -1.7451   22.1905  -31.7372 H   0  0  0  0  0  0  0  0  0  0  0  0
   -3.1772   21.0428  -30.0757 H   0  0  0  0  0  0  0  0  0  0  0  0
   -4.1476   21.8014  -31.3831 H   0  0  0  0  0  0  0  0  0  0  0  0
   -3.8728   20.0263  -31.3831 H   0  0  0  0  0  0  0  0  0  0  0  0
  1  2  1  0
  2  3  1  0
  3  4  1  0
  4  5  1  0
  5  6  2  0
  5  7  1  0
  7  8  2  0
  8  9  1  0
  9 10  2  0
 10 11  1  0
 11 12  1  0
 12 13  2  0
 13 14  1  0
 14 15  2  3
 15 16  1  0
 16 17  2  0
 17 18  1  0
 18 19  2  0
 19 20  1  0
 20 21  1  0
 19 22  1  0
 22 23  2  0
 13 24  1  0
 24 25  2  0
 10 26  1  0
 26 27  2  0
 27 28  1  0
 28 29  1  0
 29 30  1  0
 30 31  1  0
 28 32  1  0
 32 33  2  0
 32  4  1  0
 27  7  1  0
 25 11  1  0
 23 16  1  0
  1 34  1  0
  1 35  1  0
  1 36  1  0
  2 37  1  0
  2 38  1  0
  3 39  1  0
  3 40  1  0
  8 41  1  0
 12 42  1  0
 14 43  1  0
 15 44  1  0
 17 45  1  0
 18 46  1  0
 21 47  1  0
 21 48  1  0
 21 49  1  0
 22 50  1  0
 23 51  1  0
 24 52  1  0
 29 53  1  0
 29 54  1  0
 30 55  1  0
 30 56  1  0
 31 57  1  0
 31 58  1  0
 31 59  1  0
M  CHG  1  24   1
M  END
>  <UniqueID>  (4) 
4

>  <SMILES>  (4) 
CCCn1c(=O)c2cnc(-n3cc(C=Cc4ccc(OC)cc4)[nH+]n3)nc2n(CCC)c1=O

>  <Energy>  (4) 
107.73152479573943

>  <Genealogy>  (4) 
CCCn1c(=O)c2cnc(-n3cc(C=Cc4ccc(OC)cc4)[nH+]n3)nc2n(CCC)c1=O (protonated)
CCCn1c(=O)c2cnc(-n3cc(C=Cc4ccc(OC)cc4)[nH+]n3)nc2n(CCC)c1=O (3D coordinates assigned)
CCCn1c(=O)c2cnc(-n3cc(C=Cc4ccc(OC)cc4)[nH+]n3)nc2n(CCC)c1=O (optimized conformer: 107.73152479573943 kcal/mol)

>  <smiles>  (4) 
CCCn1c(=O)c2cnc(-n3cc(C=Cc4ccc(OC)cc4)nn3)nc2n(CCC)c1=O

>  <score_type>  (4) 
oracle

>  <origin>  (4) 
adg

>  <m_score__min__energy>  (4) 
-8.4800000000000004

>  <m_primary>  (4) 
energy

$$$$
4:0
     RDKit          3D

 37 39  0  0  0  0  0  0  0  0999 V2000
   -9.2020   20.2060  -32.4090 C   0  0  0  0  0  0  0  0  0  0  0  0
   -8.1100   21.1400  -31.9660 C   0  0  0  0  0  0  0  0  0  0  0  0
   -8.4400   22.4440  -31.5590 C   0  0  0  0  0  0  0  0  0  0  0  0
   -7.4420   23.3350  -31.1590 C   0  0  0  0  0  0  0  0  0  0  0  0
   -6.0980   22.9440  -31.1770 C   0  0  0  0  0  0  0  0  0  0  0  0
   -4.8400   24.0600  -30.6600 S   0  0  0  0  0  0  0  0  0  0  0  0
   -4.8110   24.1340  -28.8840 C   0  0  0  0  0  0  0  0  0  0  0  0
   -5.1110   25.4310  -31.2140 O   0  0  0  0  0  0  0  0  0  0  0  0
   -3.5050   23.5910  -31.1670 O   0  0  0  0  0  0  0  0  0  0  0  0
   -5.7600   21.6500  -31.5920 C   0  0  0  0  0  0  0  0  0  0  0  0
   -6.7550   20.7490  -31.9960 C   0  0  0  0  0  0  0  0  0  0  0  0
   -6.3800   19.4410  -32.4380 N   0  0  0  0  0  0  0  0  0  0  0  0
   -6.4000   18.2670  -31.5570 C   0  0  0  0  0  0  0  0  0  0  0  0
   -5.5730   17.2000  -32.2300 C   0  0  0  0  0  0  0  0  0  0  0  0
   -5.3610   15.9130  -31.7230 C   0  0  0  0  0  0  0  0  0  0  0  0
   -4.5620   15.0160  -32.4490 C   0  0  0  0  0  0  0  0  0  0  0  0
   -3.9830   15.4080  -33.6690 C   0  0  0  0  0  0  0  0  0  0  0  0
   -4.1990   16.6980  -34.1700 C   0  0  0  0  0  0  0  0  0  0  0  0
   -4.9950   17.5740  -33.4330 C   0  0  0  0  0  0  0  0  0  0  0  0
   -5.4080   19.1950  -33.8400 S   0  0  0  0  0  0  0  0  0  0  0  0
   -6.2150   19.2830  -35.1050 O   0  0  0  0  0  0  0  0  0  0  0  0
   -4.2130   20.1040  -33.8560 O   0  0  0  0  0  0  0  0  0  0  0  0
   -9.7005   19.7797  -31.5260 H   0  0  0  0  0  0  0  0  0  0  0  0
   -9.9360   20.7601  -33.0126 H   0  0  0  0  0  0  0  0  0  0  0  0
   -8.7684   19.3950  -33.0126 H   0  0  0  0  0  0  0  0  0  0  0  0
   -9.4921   22.7651  -31.5555 H   0  0  0  0  0  0  0  0  0  0  0  0
   -7.7131   24.3485  -30.8283 H   0  0  0  0  0  0  0  0  0  0  0  0
   -5.1830   23.1846  -28.4713 H   0  0  0  0  0  0  0  0  0  0  0  0
   -3.7798   24.3039  -28.5409 H   0  0  0  0  0  0  0  0  0  0  0  0
   -5.4522   24.9593  -28.5409 H   0  0  0  0  0  0  0  0  0  0  0  0
   -4.7052   21.3380  -31.6010 H   0  0  0  0  0  0  0  0  0  0  0  0
   -5.9662   18.5209  -30.5786 H   0  0  0  0  0  0  0  0  0  0  0  0
   -7.4297   17.9190  -31.3881 H   0  0  0  0  0  0  0  0  0  0  0  0
   -5.8145   15.6084  -30.7682 H   0  0  0  0  0  0  0  0  0  0  0  0
   -4.3879   14.0013  -32.0617 H   0  0  0  0  0  0  0  0  0  0  0  0
   -3.3582   14.6990  -34.2319 H   0  0  0  0  0  0  0  0  0  0  0  0
   -3.7506   17.0131  -35.1238 H   0  0  0  0  0  0  0  0  0  0  0  0
  1  2  1  0
  2  3  2  0
  3  4  1  0
  4  5  2  0
  5  6  1  0
  6  7  1  0
  6  8  2  0
  6  9  2  0
  5 10  1  0
 10 11  2  0
 11 12  1  0
 12 13  1  0
 13 14  1  0
 14 15  2  0
 15 16  1  0
 16 17  2  0
 17 18  1  0
 18 19  2  0
 19 20  1  0
 20 21  2  0
 20 22  2  0
 11  2  1  0
 20 12  1  0
 19 14  1  0
  1 23  1  0
  1 24  1  0
  1 25  1  0
  3 26  1  0
  4 27  1  0
  7 28  1  0
  7 29  1  0
  7 30  1  0
 10 31  1  0
 13 32  1  0
 13 33  1  0
 15 34  1  0
 16 35  1  0
 17 36  1  0
 18 37  1  0
M  END
>  <UniqueID>  (5) 
5

>  <SMILES>  (5) 
Cc1ccc(S(C)(=O)=O)cc1N1Cc2ccccc2S1(=O)=O

>  <Energy>  (5) 
58.24073425858434

>  <Genealogy>  (5) 
Cc1ccc(S(C)(=O)=O)cc1N1Cc2ccccc2S1(=O)=O (3D coordinates assigned)
Cc1ccc(S(C)(=O)=O)cc1N1Cc2ccccc2S1(=O)=O (nonaromatic ring conformer: 58.24073425858434 kcal/mol)

>  <smiles>  (5) 
Cc1ccc(S(C)(=O)=O)cc1N1Cc2ccccc2S1(=O)=O

>  <score_type>  (5) 
oracle

>  <origin>  (5) 
adg

>  <m_score__min__energy>  (5) 
-9.1799999999999997

>  <m_primary>  (5) 
energy

$$$$
5:0
     RDKit          3D

 45 49  0  0  0  0  0  0  0  0999 V2000
   -2.8260   20.9470  -27.8410 C   0  0  0  0  0  0  0  0  0  0  0  0
   -3.1790   21.7200  -28.9830 O   0  0  0  0  0  0  0  0  0  0  0  0
   -2.6900   21.4980  -30.2810 C   0  0  0  0  0  0  0  0  0  0  0  0
   -1.5920   20.6500  -30.5230 C   0  0  0  0  0  0  0  0  0  0  0  0
   -1.1450   20.4170  -31.8310 C   0  0  0  0  0  0  0  0  0  0  0  0
   -0.0520   19.5700  -32.0730 C   0  0  0  0  0  0  0  0  0  0  0  0
    0.3820   19.3400  -33.3820 C   0  0  0  0  0  0  0  0  0  0  0  0
   -0.2690   19.9520  -34.4550 C   0  0  0  0  0  0  0  0  0  0  0  0
   -1.3600   20.7960  -34.2290 C   0  0  0  0  0  0  0  0  0  0  0  0
   -1.8050   21.0340  -32.9190 C   0  0  0  0  0  0  0  0  0  0  0  0
   -2.8930   21.8830  -32.6790 C   0  0  0  0  0  0  0  0  0  0  0  0
   -3.3260   22.1360  -31.3690 C   0  0  0  0  0  0  0  0  0  0  0  0
   -4.4610   23.0630  -31.1570 C   0  0  0  0  0  0  0  0  0  0  0  0
   -4.1890   24.3220  -30.7170 N   0  0  0  0  0  0  0  0  0  0  0  0
   -5.1650   25.2510  -30.5570 C   0  0  0  0  0  0  0  0  0  0  0  0
   -6.4840   24.9180  -30.8590 C   0  0  0  0  0  0  0  0  0  0  0  0
   -6.7730   23.6600  -31.2800 N   0  0  0  0  0  0  0  0  0  0  0  0
   -5.8090   22.7100  -31.4200 C   0  0  0  0  0  0  0  0  0  0  0  0
   -6.2240   21.3550  -31.8390 C   0  0  0  0  0  0  0  0  0  0  0  0
   -7.3650   20.7380  -31.3020 C   0  0  0  0  0  0  0  0  0  0  0  0
   -7.7100   19.4480  -31.7100 C   0  0  0  0  0  0  0  0  0  0  0  0
   -6.9270   18.7860  -32.6630 C   0  0  0  0  0  0  0  0  0  0  0  0
   -7.2420   17.4880  -33.0920 C   0  0  0  0  0  0  0  0  0  0  0  0
   -6.4420   16.8560  -34.0490 C   0  0  0  0  0  0  0  0  0  0  0  0
   -5.3270   17.5140  -34.5800 C   0  0  0  0  0  0  0  0  0  0  0  0
   -5.0060   18.8080  -34.1580 C   0  0  0  0  0  0  0  0  0  0  0  0
   -5.8010   19.4480  -33.2010 C   0  0  0  0  0  0  0  0  0  0  0  0
   -5.4880   20.7030  -32.7810 N   0  0  0  0  0  0  0  0  0  0  0  0
   -3.0807   21.5047  -26.9277 H   0  0  0  0  0  0  0  0  0  0  0  0
   -3.3793   19.9964  -27.8564 H   0  0  0  0  0  0  0  0  0  0  0  0
   -1.7453   20.7426  -27.8564 H   0  0  0  0  0  0  0  0  0  0  0  0
   -1.0805   20.1661  -29.6779 H   0  0  0  0  0  0  0  0  0  0  0  0
    0.4642   19.0861  -31.2308 H   0  0  0  0  0  0  0  0  0  0  0  0
    1.2386   18.6752  -33.5671 H   0  0  0  0  0  0  0  0  0  0  0  0
    0.0782   19.7691  -35.4826 H   0  0  0  0  0  0  0  0  0  0  0  0
   -1.8703   21.2740  -35.0782 H   0  0  0  0  0  0  0  0  0  0  0  0
   -3.4126   22.3556  -33.5256 H   0  0  0  0  0  0  0  0  0  0  0  0
   -4.9171   26.2586  -30.1919 H   0  0  0  0  0  0  0  0  0  0  0  0
   -7.2832   25.6670  -30.7573 H   0  0  0  0  0  0  0  0  0  0  0  0
   -7.9842   21.2682  -30.5634 H   0  0  0  0  0  0  0  0  0  0  0  0
   -8.5950   18.9531  -31.2836 H   0  0  0  0  0  0  0  0  0  0  0  0
   -8.1175   16.9679  -32.6760 H   0  0  0  0  0  0  0  0  0  0  0  0
   -6.6899   15.8385  -34.3855 H   0  0  0  0  0  0  0  0  0  0  0  0
   -4.7008   17.0116  -35.3320 H   0  0  0  0  0  0  0  0  0  0  0  0
   -4.1291   19.3223  -34.5782 H   0  0  0  0  0  0  0  0  0  0  0  0
  1  2  1  0
  2  3  1  0
  3  4  2  0
  4  5  1  0
  5  6  2  0
  6  7  1  0
  7  8  2  0
  8  9  1  0
  9 10  2  0
 10 11  1  0
 11 12  2  0
 12 13  1  0
 13 14  2  0
 14 15  1  0
 15 16  2  0
 16 17  1  0
 17 18  2  0
 18 19  1  0
 19 20  2  0
 20 21  1  0
 21 22  2  0
 22 23  1  0
 23 24  2  0
 24 25  1  0
 25 26  2  0
 26 27  1  0
 27 28  2  0
 12  3  1  0
 18 13  1  0
 28 19  1  0
 10  5  1  0
 27 22  1  0
  1 29  1  0
  1 30  1  0
  1 31  1  0
  4 32  1  0
  6 33  1  0
  7 34  1  0
  8 35  1  0
  9 36  1  0
 11 37  1  0
 15 38  1  0
 16 39  1  0
 20 40  1  0
 21 41  1  0
 23 42  1  0
 24 43  1  0
 25 44  1  0
 26 45  1  0
M  END
>  <UniqueID>  (6) 
6

>  <SMILES>  (6) 
COc1cc2ccccc2cc1-c1nccnc1-c1ccc2ccccc2n1

>  <Energy>  (6) 
70.22344657550506

>  <Genealogy>  (6) 
COc1cc2ccccc2cc1-c1nccnc1-c1ccc2ccccc2n1 (3D coordinates assigned)
COc1cc2ccccc2cc1-c1nccnc1-c1ccc2ccccc2n1 (optimized conformer: 70.22344657550506 kcal/mol)

>  <smiles>  (6) 
COc1cc2ccccc2cc1-c1nccnc1-c1ccc2ccccc2n1

>  <score_type>  (6) 
oracle

>  <origin>  (6) 
adg

>  <m_score__min__energy>  (6) 
-9.0999999999999996

>  <m_primary>  (6) 
energy

$$$$
6:0
     RDKit          3D

 47 49  0  0  0  0  0  0  0  0999 V2000
   -6.9324   24.3770  -30.9848 H   0  0  0  0  0  0  0  0  0  0  0  0
   -6.6660   23.3110  -31.0370 C   0  0  0  0  0  0  0  0  0  0  0  0
   -5.4180   22.9750  -31.4110 C   0  0  0  0  0  0  0  0  0  0  0  0
   -5.1340   22.6180  -32.7350 O   0  0  0  0  0  0  0  0  0  0  0  0
   -3.9540   21.9030  -33.0890 C   0  0  0  0  0  0  0  0  0  0  0  0
   -3.4298   21.5854  -32.1756 H   0  0  0  0  0  0  0  0  0  0  0  0
   -4.2259   21.0176  -33.6824 H   0  0  0  0  0  0  0  0  0  0  0  0
   -3.2950   22.5539  -33.6824 H   0  0  0  0  0  0  0  0  0  0  0  0
   -4.2980   22.9930  -30.4320 C   0  0  0  0  0  0  0  0  0  0  0  0
   -3.8800   21.7970  -29.8220 C   0  0  0  0  0  0  0  0  0  0  0  0
   -4.3972   20.8563  -30.0618 H   0  0  0  0  0  0  0  0  0  0  0  0
   -2.8210   21.7870  -28.9190 C   0  0  0  0  0  0  0  0  0  0  0  0
   -2.5214   20.8454  -28.4356 H   0  0  0  0  0  0  0  0  0  0  0  0
   -2.1380   22.9680  -28.6250 C   0  0  0  0  0  0  0  0  0  0  0  0
   -1.0640   22.9680  -27.7260 C   0  0  0  0  0  0  0  0  0  0  0  0
   -0.7533   22.0310  -27.2408 H   0  0  0  0  0  0  0  0  0  0  0  0
   -0.3890   24.1540  -27.4460 C   0  0  0  0  0  0  0  0  0  0  0  0
    0.4517   24.1610  -26.7366 H   0  0  0  0  0  0  0  0  0  0  0  0
   -0.7900   25.3310  -28.0740 C   0  0  0  0  0  0  0  0  0  0  0  0
   -0.2579   26.2716  -27.8689 H   0  0  0  0  0  0  0  0  0  0  0  0
   -1.8380   25.3190  -28.9400 N   0  0  0  0  0  0  0  0  0  0  0  0
   -2.5300   24.1850  -29.2360 C   0  0  0  0  0  0  0  0  0  0  0  0
   -3.6310   24.2050  -30.1350 C   0  0  0  0  0  0  0  0  0  0  0  0
   -4.1210   25.3810  -30.7410 O   0  0  0  0  0  0  0  0  0  0  0  0
   -5.3610   26.0330  -30.4790 C   0  0  0  0  0  0  0  0  0  0  0  0
   -5.5113   26.1120  -29.3922 H   0  0  0  0  0  0  0  0  0  0  0  0
   -5.3464   27.0401  -30.9213 H   0  0  0  0  0  0  0  0  0  0  0  0
   -6.1824   25.4501  -30.9213 H   0  0  0  0  0  0  0  0  0  0  0  0
   -7.6920   22.3070  -30.6940 C   0  0  0  0  0  0  0  0  0  0  0  0
   -7.9444   22.1260  -29.6388 H   0  0  0  0  0  0  0  0  0  0  0  0
   -8.3190   21.6140  -31.6530 C   0  0  0  0  0  0  0  0  0  0  0  0
   -9.2257   22.0499  -32.0978 H   0  0  0  0  0  0  0  0  0  0  0  0
   -7.8630   20.2930  -32.1510 C   0  0  0  0  0  0  0  0  0  0  0  0
   -8.3870   19.0760  -31.6710 C   0  0  0  0  0  0  0  0  0  0  0  0
   -9.1591   19.0854  -30.8875 H   0  0  0  0  0  0  0  0  0  0  0  0
   -7.9330   17.8570  -32.1830 C   0  0  0  0  0  0  0  0  0  0  0  0
   -8.3352   16.9134  -31.7858 H   0  0  0  0  0  0  0  0  0  0  0  0
   -6.9650   17.8300  -33.2030 C   0  0  0  0  0  0  0  0  0  0  0  0
   -6.4810   16.6320  -33.7500 O   0  0  0  0  0  0  0  0  0  0  0  0
   -5.1610   16.4580  -34.2540 C   0  0  0  0  0  0  0  0  0  0  0  0
   -4.4570   16.3652  -33.4139 H   0  0  0  0  0  0  0  0  0  0  0  0
   -5.1204   15.5467  -34.8688 H   0  0  0  0  0  0  0  0  0  0  0  0
   -4.8856   17.3276  -34.8688 H   0  0  0  0  0  0  0  0  0  0  0  0
   -6.4650   19.0390  -33.6990 C   0  0  0  0  0  0  0  0  0  0  0  0
   -5.7188   19.0299  -34.5072 H   0  0  0  0  0  0  0  0  0  0  0  0
   -6.9050   20.2570  -33.1770 C   0  0  0  0  0  0  0  0  0  0  0  0
   -6.4968   21.1983  -33.5737 H   0  0  0  0  0  0  0  0  0  0  0  0
  1  2  1  0
  2  3  2  0
  3  4  1  0
  4  5  1  0
  5  6  1  0
  5  7  1  0
  5  8  1  0
  3  9  1  0
  9 10  2  0
 10 11  1  0
 10 12  1  0
 12 13  1  0
 12 14  2  0
 14 15  1  0
 15 16  1  0
 15 17  2  0
 17 18  1  0
 17 19  1  0
 19 20  1  0
 19 21  2  0
 21 22  1  0
 22 23  2  0
 23 24  1  0
 24 25  1  0
 25 26  1  0
 25 27  1  0
 25 28  1  0
  2 29  1  0
 29 30  1  0
 29 31  2  0
 31 32  1  0
 31 33  1  0
 33 34  2  0
 34 35  1  0
 34 36  1  0
 36 37  1  0
 36 38  2  0
 38 39  1  0
 39 40  1  0
 40 41  1  0
 40 42  1  0
 40 43  1  0
 38 44  1  0
 44 45  1  0
 44 46  2  0
 46 47  1  0
 23  9  1  0
 46 33  1  0
 22 14  1  0
M  END
>  <UniqueID>  (7) 
7

>  <SMILES>  (7) 
CO/C(=C\C=C\c1ccc(OC)cc1)c1ccc2cccnc2c1OC

>  <Energy>  (7) 
67.69593196598478

>  <Genealogy>  (7) 
CO/C(=C\C=C\c1ccc(OC)cc1)c1ccc2cccnc2c1OC (cis-trans isomerization)
CO/C(=C\C=C\c1ccc(OC)cc1)c1ccc2cccnc2c1OC (3D coordinates assigned)
CO/C(=C\C=C\c1ccc(OC)cc1)c1ccc2cccnc2c1OC (optimized conformer: 67.69593196598478 kcal/mol)

>  <smiles>  (7) 
COC(=CC=Cc1ccc(OC)cc1)c1ccc2cccnc2c1OC

>  <score_type>  (7) 
oracle

>  <origin>  (7) 
adg

>  <m_score__min__energy>  (7) 
-9.1199999999999992

>  <m_primary>  (7) 
energy

$$$$
7:0
     RDKit          3D

 49 52  0  0  0  0  0  0  0  0999 V2000
   -0.7250   21.1960  -27.2270 C   0  0  0  0  0  0  0  0  0  0  0  0
   -1.5260   22.4720  -27.1910 C   0  0  0  0  0  0  0  0  0  0  0  0
   -1.0470   23.5400  -26.4170 C   0  0  0  0  0  0  0  0  0  0  0  0
   -1.7440   24.7440  -26.3630 C   0  0  0  0  0  0  0  0  0  0  0  0
   -2.9220   24.9060  -27.0840 C   0  0  0  0  0  0  0  0  0  0  0  0
   -3.4370   23.8560  -27.8640 C   0  0  0  0  0  0  0  0  0  0  0  0
   -4.6250   24.0620  -28.6520 N   0  0  0  0  0  0  0  0  0  0  0  0
   -4.6160   24.1220  -30.3860 S   0  0  0  0  0  0  0  0  0  0  0  0
   -3.3680   23.4530  -30.8930 O   0  0  0  0  0  0  0  0  0  0  0  0
   -4.6120   25.5550  -30.8340 O   0  0  0  0  0  0  0  0  0  0  0  0
   -6.0500   23.3220  -31.0210 C   0  0  0  0  0  0  0  0  0  0  0  0
   -7.2290   24.0510  -31.2070 C   0  0  0  0  0  0  0  0  0  0  0  0
   -8.3740   23.4210  -31.6960 C   0  0  0  0  0  0  0  0  0  0  0  0
   -8.3490   22.0580  -32.0030 C   0  0  0  0  0  0  0  0  0  0  0  0
   -7.1720   21.3100  -31.8240 C   0  0  0  0  0  0  0  0  0  0  0  0
   -7.1330   19.8620  -32.1360 C   0  0  0  0  0  0  0  0  0  0  0  0
   -6.1440   19.2780  -32.8480 N   0  0  0  0  0  0  0  0  0  0  0  0
   -6.3200   17.9350  -33.0010 C   0  0  0  0  0  0  0  0  0  0  0  0
   -5.3340   17.1080  -33.7450 C   0  0  0  0  0  0  0  0  0  0  0  0
   -5.3420   15.7070  -33.5950 C   0  0  0  0  0  0  0  0  0  0  0  0
   -4.4220   14.9120  -34.2860 C   0  0  0  0  0  0  0  0  0  0  0  0
   -3.4810   15.5030  -35.1300 C   0  0  0  0  0  0  0  0  0  0  0  0
   -3.4560   16.8890  -35.2860 C   0  0  0  0  0  0  0  0  0  0  0  0
   -4.3740   17.6900  -34.5980 C   0  0  0  0  0  0  0  0  0  0  0  0
   -7.4760   17.4350  -32.3930 C   0  0  0  0  0  0  0  0  0  0  0  0
   -8.2750   18.7190  -31.6610 S   0  0  0  0  0  0  0  0  0  0  0  0
   -6.0220   21.9540  -31.3340 C   0  0  0  0  0  0  0  0  0  0  0  0
   -2.7540   22.6110  -27.8950 C   0  0  0  0  0  0  0  0  0  0  0  0
   -3.3250   21.4600  -28.6940 C   0  0  0  0  0  0  0  0  0  0  0  0
   -0.5169   20.8646  -26.1990 H   0  0  0  0  0  0  0  0  0  0  0  0
   -1.2974   20.4185  -27.7542 H   0  0  0  0  0  0  0  0  0  0  0  0
    0.2240   21.3735  -27.7542 H   0  0  0  0  0  0  0  0  0  0  0  0
   -0.1127   23.4249  -25.8480 H   0  0  0  0  0  0  0  0  0  0  0  0
   -1.3611   25.5710  -25.7471 H   0  0  0  0  0  0  0  0  0  0  0  0
   -3.4568   25.8664  -27.0435 H   0  0  0  0  0  0  0  0  0  0  0  0
   -5.5440   24.2220  -28.1830 H   0  0  0  0  0  0  0  0  0  0  0  0
   -7.2537   25.1242  -30.9671 H   0  0  0  0  0  0  0  0  0  0  0  0
   -9.2988   23.9989  -31.8402 H   0  0  0  0  0  0  0  0  0  0  0  0
   -9.2555   21.5673  -32.3870 H   0  0  0  0  0  0  0  0  0  0  0  0
   -6.0784   15.2343  -32.9285 H   0  0  0  0  0  0  0  0  0  0  0  0
   -4.4402   13.8189  -34.1639 H   0  0  0  0  0  0  0  0  0  0  0  0
   -2.7585   14.8756  -35.6726 H   0  0  0  0  0  0  0  0  0  0  0  0
   -2.7130   17.3531  -35.9513 H   0  0  0  0  0  0  0  0  0  0  0  0
   -4.3465   18.7825  -34.7236 H   0  0  0  0  0  0  0  0  0  0  0  0
   -7.8045   16.3852  -32.3939 H   0  0  0  0  0  0  0  0  0  0  0  0
   -5.0932   21.3812  -31.1949 H   0  0  0  0  0  0  0  0  0  0  0  0
   -3.7068   20.6905  -28.0069 H   0  0  0  0  0  0  0  0  0  0  0  0
   -4.1463   21.8255  -29.3280 H   0  0  0  0  0  0  0  0  0  0  0  0
   -2.5371   21.0272  -29.3280 H   0  0  0  0  0  0  0  0  0  0  0  0
  1  2  1  0
  2  3  2  0
  3  4  1  0
  4  5  2  0
  5  6  1  0
  6  7  1  0
  7  8  1  0
  8  9  2  0
  8 10  2  0
  8 11  1  0
 11 12  2  0
 12 13  1  0
 13 14  2  0
 14 15  1  0
 15 16  1  0
 16 17  2  0
 17 18  1  0
 18 19  1  0
 19 20  2  0
 20 21  1  0
 21 22  2  0
 22 23  1  0
 23 24  2  0
 18 25  2  0
 25 26  1  0
 15 27  2  0
  6 28  2  0
 28 29  1  0
 28  2  1  0
 27 11  1  0
 26 16  1  0
 24 19  1  0
  1 30  1  0
  1 31  1  0
  1 32  1  0
  3 33  1  0
  4 34  1  0
  5 35  1  0
  7 36  1  0
 12 37  1  0
 13 38  1  0
 14 39  1  0
 20 40  1  0
 21 41  1  0
 22 42  1  0
 23 43  1  0
 24 44  1  0
 25 45  1  0
 27 46  1  0
 29 47  1  0
 29 48  1  0
 29 49  1  0
M  END
>  <UniqueID>  (8) 
8

>  <SMILES>  (8) 
Cc1cccc(NS(=O)(=O)c2cccc(-c3nc(-c4ccccc4)cs3)c2)c1C

>  <Energy>  (8) 
92.94191738191907

>  <Genealogy>  (8) 
Cc1cccc(NS(=O)(=O)c2cccc(-c3nc(-c4ccccc4)cs3)c2)c1C (3D coordinates assigned)
Cc1cccc(NS(=O)(=O)c2cccc(-c3nc(-c4ccccc4)cs3)c2)c1C (optimized conformer: 92.94191738191907 kcal/mol)

>  <smiles>  (8) 
Cc1cccc(NS(=O)(=O)c2cccc(-c3nc(-c4ccccc4)cs3)c2)c1C

>  <score_type>  (8) 
oracle

>  <origin>  (8) 
adg

>  <m_score__min__energy>  (8) 
-10.609999999999999

>  <m_primary>  (8) 
energy

$$$$
8:0
     RDKit          3D

 27 28  0  0  0  0  0  0  0  0999 V2000
   -6.1070   24.0380  -31.9470 C   0  0  0  0  0  0  0  0  0  0  0  0
   -4.9950   24.4570  -31.0750 N   0  0  0  0  0  0  0  0  0  0  0  0
   -5.5300   24.9280  -29.7880 C   0  0  0  0  0  0  0  0  0  0  0  0
   -4.0540   23.3410  -30.8510 C   0  0  0  0  0  0  0  0  0  0  0  0
   -3.0930   23.6760  -29.7500 C   0  0  0  0  0  0  0  0  0  0  0  0
   -2.7750   22.7360  -28.8210 N   0  0  0  0  0  0  0  0  0  0  0  0
   -1.9220   23.0190  -27.8020 C   0  0  0  0  0  0  0  0  0  0  0  0
   -1.6060   22.0350  -26.8570 C   0  0  0  0  0  0  0  0  0  0  0  0
   -0.7290   22.3280  -25.8090 C   0  0  0  0  0  0  0  0  0  0  0  0
   -0.1630   23.6020  -25.7000 C   0  0  0  0  0  0  0  0  0  0  0  0
   -0.4730   24.5920  -26.6380 C   0  0  0  0  0  0  0  0  0  0  0  0
   -1.3550   24.3070  -27.6960 C   0  0  0  0  0  0  0  0  0  0  0  0
   -1.7040   25.2610  -28.6670 C   0  0  0  0  0  0  0  0  0  0  0  0
   -1.2320   26.4300  -28.6270 O   0  0  0  0  0  0  0  0  0  0  0  0
   -2.5610   24.9230  -29.6640 N   0  0  0  0  0  0  0  0  0  0  0  0
   -6.9578   23.7174  -31.3278 H   0  0  0  0  0  0  0  0  0  0  0  0
   -6.4132   24.8824  -32.5820 H   0  0  0  0  0  0  0  0  0  0  0  0
   -5.7799   23.2015  -32.5820 H   0  0  0  0  0  0  0  0  0  0  0  0
   -4.9824   24.4459  -28.9648 H   0  0  0  0  0  0  0  0  0  0  0  0
   -5.4103   26.0193  -29.7185 H   0  0  0  0  0  0  0  0  0  0  0  0
   -6.5973   24.6710  -29.7185 H   0  0  0  0  0  0  0  0  0  0  0  0
   -4.6209   22.4397  -30.5747 H   0  0  0  0  0  0  0  0  0  0  0  0
   -3.4863   23.1637  -31.7764 H   0  0  0  0  0  0  0  0  0  0  0  0
   -2.0482   21.0312  -26.9396 H   0  0  0  0  0  0  0  0  0  0  0  0
   -0.4831   21.5537  -25.0673 H   0  0  0  0  0  0  0  0  0  0  0  0
    0.5281   23.8262  -24.8741 H   0  0  0  0  0  0  0  0  0  0  0  0
   -0.0271   25.5935  -26.5484 H   0  0  0  0  0  0  0  0  0  0  0  0
  1  2  1  0
  2  3  1  0
  2  4  1  0
  4  5  1  0
  5  6  2  0
  6  7  1  0
  7  8  2  0
  8  9  1  0
  9 10  2  0
 10 11  1  0
 11 12  2  0
 12 13  1  0
 13 14  2  0
 13 15  1  0
 15  5  1  0
 12  7  1  0
  1 16  1  0
  1 17  1  0
  1 18  1  0
  3 19  1  0
  3 20  1  0
  3 21  1  0
  4 22  1  0
  4 23  1  0
  8 24  1  0
  9 25  1  0
 10 26  1  0
 11 27  1  0
M  CHG  1  15  -1
M  END
>  <UniqueID>  (9) 
9

>  <SMILES>  (9) 
CN(C)Cc1nc2ccccc2c(=O)[n-]1

>  <Energy>  (9) 
30.953513705905333

>  <Genealogy>  (9) 
CN(C)Cc1nc2ccccc2c(=O)[n-]1 (protonated)
CN(C)Cc1nc2ccccc2c(=O)[n-]1 (3D coordinates assigned)
CN(C)Cc1nc2ccccc2c(=O)[n-]1 (optimized conformer: 30.953513705905333 kcal/mol)

>  <smiles>  (9) 
CN(C)Cc1nc2ccccc2c(=O)[nH]1

>  <score_type>  (9) 
oracle

>  <origin>  (9) 
adg

>  <m_score__min__energy>  (9) 
-6.54

>  <m_primary>  (9) 
energy

$$$$
9:0
     RDKit          3D

 54 56  0  0  0  0  0  0  0  0999 V2000
   -4.9065   22.7512  -29.2229 H   0  0  0  0  0  0  0  0  0  0  0  0
   -4.9000   23.1450  -30.2500 C   0  0  0  0  0  0  0  0  0  0  0  0
   -4.3170   24.4890  -30.4570 C   0  0  0  0  0  0  0  0  0  0  0  0
   -4.9320   25.2980  -31.1990 O   0  0  0  0  0  0  0  0  0  0  0  0
   -3.0890   24.9140  -29.8470 N   0  0  0  0  0  0  0  0  0  0  0  0
   -2.0450   24.0820  -29.3170 C   0  0  0  0  0  0  0  0  0  0  0  0
   -2.0570   22.6850  -29.4890 C   0  0  0  0  0  0  0  0  0  0  0  0
   -2.8908   22.2064  -30.0235 H   0  0  0  0  0  0  0  0  0  0  0  0
   -1.0170   21.9050  -28.9850 C   0  0  0  0  0  0  0  0  0  0  0  0
   -1.0225   20.8161  -29.1408 H   0  0  0  0  0  0  0  0  0  0  0  0
    0.0300   22.5020  -28.2840 C   0  0  0  0  0  0  0  0  0  0  0  0
    0.8560   21.8855  -27.8998 H   0  0  0  0  0  0  0  0  0  0  0  0
    0.0310   23.8830  -28.0690 C   0  0  0  0  0  0  0  0  0  0  0  0
    0.8509   24.3479  -27.5019 H   0  0  0  0  0  0  0  0  0  0  0  0
   -1.0130   24.6830  -28.5750 C   0  0  0  0  0  0  0  0  0  0  0  0
   -1.0680   26.0720  -28.3610 O   0  0  0  0  0  0  0  0  0  0  0  0
   -1.0610   26.7200  -27.0890 C   0  0  0  0  0  0  0  0  0  0  0  0
   -0.5348   26.0827  -26.3631 H   0  0  0  0  0  0  0  0  0  0  0  0
   -2.1016   26.8844  -26.7726 H   0  0  0  0  0  0  0  0  0  0  0  0
   -0.3580   28.0690  -27.1700 C   0  0  0  0  0  0  0  0  0  0  0  0
   -0.1633   28.4426  -26.1539 H   0  0  0  0  0  0  0  0  0  0  0  0
    0.5950   27.9542  -27.7073 H   0  0  0  0  0  0  0  0  0  0  0  0
   -0.9980   28.7843  -27.7073 H   0  0  0  0  0  0  0  0  0  0  0  0
   -5.4250   22.3610  -31.2170 C   0  0  0  0  0  0  0  0  0  0  0  0
   -6.8910   22.2280  -31.4260 C   0  0  0  0  0  0  0  0  0  0  0  0
   -7.5470   21.0070  -31.1880 C   0  0  0  0  0  0  0  0  0  0  0  0
   -6.9789   20.1446  -30.8091 H   0  0  0  0  0  0  0  0  0  0  0  0
   -8.9180   20.8850  -31.4310 C   0  0  0  0  0  0  0  0  0  0  0  0
   -9.4276   19.9303  -31.2340 H   0  0  0  0  0  0  0  0  0  0  0  0
   -9.6430   21.9740  -31.9240 C   0  0  0  0  0  0  0  0  0  0  0  0
  -10.7205   21.8736  -32.1212 H   0  0  0  0  0  0  0  0  0  0  0  0
   -8.9990   23.1890  -32.1660 C   0  0  0  0  0  0  0  0  0  0  0  0
   -9.5714   24.0480  -32.5460 H   0  0  0  0  0  0  0  0  0  0  0  0
   -7.6280   23.3150  -31.9260 C   0  0  0  0  0  0  0  0  0  0  0  0
   -7.1228   24.2707  -32.1297 H   0  0  0  0  0  0  0  0  0  0  0  0
   -4.5150   21.5630  -32.0820 C   0  0  0  0  0  0  0  0  0  0  0  0
   -4.9570   20.3730  -32.6830 C   0  0  0  0  0  0  0  0  0  0  0  0
   -5.9916   20.0340  -32.5259 H   0  0  0  0  0  0  0  0  0  0  0  0
   -4.0940   19.6170  -33.4780 C   0  0  0  0  0  0  0  0  0  0  0  0
   -4.4552   18.6901  -33.9475 H   0  0  0  0  0  0  0  0  0  0  0  0
   -2.7660   20.0320  -33.6830 C   0  0  0  0  0  0  0  0  0  0  0  0
   -1.8680   19.2980  -34.4740 O   0  0  0  0  0  0  0  0  0  0  0  0
   -1.6070   17.9060  -34.3160 C   0  0  0  0  0  0  0  0  0  0  0  0
   -1.5610   17.6609  -33.2447 H   0  0  0  0  0  0  0  0  0  0  0  0
   -2.4120   17.3258  -34.7907 H   0  0  0  0  0  0  0  0  0  0  0  0
   -0.6465   17.6568  -34.7907 H   0  0  0  0  0  0  0  0  0  0  0  0
   -2.3100   21.2150  -33.0820 C   0  0  0  0  0  0  0  0  0  0  0  0
   -0.9790   21.6040  -33.3010 O   0  0  0  0  0  0  0  0  0  0  0  0
    0.1590   20.9070  -32.8020 C   0  0  0  0  0  0  0  0  0  0  0  0
    0.1421   20.9173  -31.7022 H   0  0  0  0  0  0  0  0  0  0  0  0
    0.1377   19.8669  -33.1593 H   0  0  0  0  0  0  0  0  0  0  0  0
    1.0759   21.3987  -33.1593 H   0  0  0  0  0  0  0  0  0  0  0  0
   -3.1870   21.9750  -32.2830 C   0  0  0  0  0  0  0  0  0  0  0  0
   -2.8278   22.9015  -31.8112 H   0  0  0  0  0  0  0  0  0  0  0  0
  1  2  1  0
  2  3  1  0
  3  4  2  0
  3  5  1  0
  5  6  1  0
  6  7  2  0
  7  8  1  0
  7  9  1  0
  9 10  1  0
  9 11  2  0
 11 12  1  0
 11 13  1  0
 13 14  1  0
 13 15  2  0
 15 16  1  0
 16 17  1  0
 17 18  1  0
 17 19  1  0
 17 20  1  0
 20 21  1  0
 20 22  1  0
 20 23  1  0
  2 24  2  0
 24 25  1  0
 25 26  2  0
 26 27  1  0
 26 28  1  0
 28 29  1  0
 28 30  2  0
 30 31  1  0
 30 32  1  0
 32 33  1  0
 32 34  2  0
 34 35  1  0
 24 36  1  0
 36 37  2  0
 37 38  1  0
 37 39  1  0
 39 40  1  0
 39 41  2  0
 41 42  1  0
 42 43  1  0
 43 44  1  0
 43 45  1  0
 43 46  1  0
 41 47  1  0
 47 48  1  0
 48 49  1  0
 49 50  1  0
 49 51  1  0
 49 52  1  0
 47 53  2  0
 53 54  1  0
 15  6  1  0
 34 25  1  0
 53 36  1  0
M  CHG  1   5  -1
M  END
>  <UniqueID>  (10) 
10

>  <SMILES>  (10) 
CCOc1ccccc1[N-]C(=O)/C=C(\c1ccccc1)c1ccc(OC)c(OC)c1

>  <Energy>  (10) 
67.37800659472713

>  <Genealogy>  (10) 
CCOc1ccccc1[N-]C(=O)C=C(c1ccccc1)c1ccc(OC)c(OC)c1 (protonated)
CCOc1ccccc1[N-]C(=O)/C=C(\c1ccccc1)c1ccc(OC)c(OC)c1 (cis-trans isomerization)
CCOc1ccccc1[N-]C(=O)/C=C(\c1ccccc1)c1ccc(OC)c(OC)c1 (3D coordinates assigned)
CCOc1ccccc1[N-]C(=O)/C=C(\c1ccccc1)c1ccc(OC)c(OC)c1 (optimized conformer: 67.37800659472713 kcal/mol)

>  <smiles>  (10) 
CCOc1ccccc1NC(=O)C=C(c1ccccc1)c1ccc(OC)c(OC)c1

>  <score_type>  (10) 
oracle

>  <origin>  (10) 
adg

>  <m_score__min__energy>  (10) 
-10.83

>  <m_primary>  (10) 
energy

$$$$
10:0
     RDKit          3D

 24 25  0  0  0  0  0  0  0  0999 V2000
   -7.6398   24.1071  -31.6876 H   0  0  0  0  0  0  0  0  0  0  0  0
   -7.8450   23.0440  -31.8820 C   0  0  0  0  0  0  0  0  0  0  0  0
   -9.1310   22.5340  -31.6870 C   0  0  0  0  0  0  0  0  0  0  0  0
   -9.9378   23.1965  -31.3402 H   0  0  0  0  0  0  0  0  0  0  0  0
   -9.3940   21.1830  -31.9320 C   0  0  0  0  0  0  0  0  0  0  0  0
  -10.4079   20.7858  -31.7764 H   0  0  0  0  0  0  0  0  0  0  0  0
   -8.3720   20.3320  -32.3750 C   0  0  0  0  0  0  0  0  0  0  0  0
   -8.6740   18.9520  -32.6180 N   0  0  0  0  0  0  0  0  0  0  0  0
   -7.9000   18.0140  -32.2450 N   0  0  0  0  0  0  0  0  0  0  0  0
   -6.7480   17.6350  -33.0030 C   0  0  0  0  0  0  0  0  0  0  0  0
   -5.8810   16.6660  -32.4850 C   0  0  0  0  0  0  0  0  0  0  0  0
   -6.0868   16.2046  -31.5079 H   0  0  0  0  0  0  0  0  0  0  0  0
   -4.7540   16.2890  -33.2160 C   0  0  0  0  0  0  0  0  0  0  0  0
   -4.0669   15.5283  -32.8171 H   0  0  0  0  0  0  0  0  0  0  0  0
   -4.5010   16.8800  -34.4550 C   0  0  0  0  0  0  0  0  0  0  0  0
   -3.6152   16.5897  -35.0390 H   0  0  0  0  0  0  0  0  0  0  0  0
   -5.3850   17.8440  -34.9450 C   0  0  0  0  0  0  0  0  0  0  0  0
   -5.1960   18.3156  -35.9206 H   0  0  0  0  0  0  0  0  0  0  0  0
   -6.4800   18.2020  -34.2190 N   0  0  0  0  0  0  0  0  0  0  0  0
   -7.1200   18.9270  -34.6160 H   0  0  0  0  0  0  0  0  0  0  0  0
   -7.0780   20.8520  -32.5710 C   0  0  0  0  0  0  0  0  0  0  0  0
   -6.2689   20.1931  -32.9192 H   0  0  0  0  0  0  0  0  0  0  0  0
   -6.8190   22.2040  -32.3240 C   0  0  0  0  0  0  0  0  0  0  0  0
   -5.8070   22.6067  -32.4777 H   0  0  0  0  0  0  0  0  0  0  0  0
  1  2  1  0
  2  3  2  0
  3  4  1  0
  3  5  1  0
  5  6  1  0
  5  7  2  0
  7  8  1  0
  8  9  2  0
  9 10  1  0
 10 11  2  0
 11 12  1  0
 11 13  1  0
 13 14  1  0
 13 15  2  0
 15 16  1  0
 15 17  1  0
 17 18  1  0
 17 19  2  0
 19 20  1  0
  7 21  1  0
 21 22  1  0
 21 23  2  0
 23 24  1  0
 23  2  1  0
 19 10  1  0
M  CHG  1  19   1
M  END
>  <UniqueID>  (11) 
11

>  <SMILES>  (11) 
c1ccc(/N=N/c2cccc[nH+]2)cc1

>  <Energy>  (11) 
24.57103204822293

>  <Genealogy>  (11) 
c1ccc(N=Nc2cccc[nH+]2)cc1 (protonated)
c1ccc(/N=N/c2cccc[nH+]2)cc1 (cis-trans isomerization)
c1ccc(/N=N/c2cccc[nH+]2)cc1 (3D coordinates assigned)
c1ccc(/N=N/c2cccc[nH+]2)cc1 (optimized conformer: 24.57103204822293 kcal/mol)

>  <smiles>  (11) 
c1ccc(N=Nc2ccccn2)cc1

>  <score_type>  (11) 
oracle

>  <origin>  (11) 
adg

>  <m_score__min__energy>  (11) 
-5.5800000000000001

>  <m_primary>  (11) 
energy

$$$$
11:0
     RDKit          3D

 34 36  0  0  0  0  0  0  0  0999 V2000
   -6.0940   13.7200  -34.2160 C   0  0  0  0  0  0  0  0  0  0  0  0
   -5.1330   14.7290  -33.9290 O   0  0  0  0  0  0  0  0  0  0  0  0
   -5.4400   16.0250  -33.4810 C   0  0  0  0  0  0  0  0  0  0  0  0
   -5.6080   16.2900  -32.2150 N   0  0  0  0  0  0  0  0  0  0  0  0
   -5.9160   17.6060  -31.7320 C   0  0  0  0  0  0  0  0  0  0  0  0
   -6.1850   17.7570  -30.5090 O   0  0  0  0  0  0  0  0  0  0  0  0
   -5.8420   18.8310  -32.6330 C   0  0  2  0  0  0  0  0  0  0  0  0
   -4.4880   19.5320  -32.3420 C   0  0  0  0  0  0  0  0  0  0  0  0
   -4.4680   20.9830  -32.8200 C   0  0  0  0  0  0  0  0  0  0  0  0
   -5.5340   21.7910  -32.0850 C   0  0  0  0  0  0  0  0  0  0  0  0
   -6.8930   21.1410  -32.1600 C   0  0  0  0  0  0  0  0  0  0  0  0
   -8.0300   21.9390  -31.9440 C   0  0  0  0  0  0  0  0  0  0  0  0
   -9.3070   21.3770  -31.9700 C   0  0  0  0  0  0  0  0  0  0  0  0
   -9.4650   20.0140  -32.2060 C   0  0  0  0  0  0  0  0  0  0  0  0
   -8.3470   19.2030  -32.4050 C   0  0  0  0  0  0  0  0  0  0  0  0
   -7.0440   19.7430  -32.3620 C   0  0  0  0  0  0  0  0  0  0  0  0
   -5.8760   18.4040  -34.0880 C   0  0  0  0  0  0  0  0  0  0  0  0
   -6.1210   19.2490  -34.9920 O   0  0  0  0  0  0  0  0  0  0  0  0
   -5.5830   17.0570  -34.4590 N   0  0  0  0  0  0  0  0  0  0  0  0
   -6.4860   13.3085  -33.2742 H   0  0  0  0  0  0  0  0  0  0  0  0
   -6.9199   14.1551  -34.7979 H   0  0  0  0  0  0  0  0  0  0  0  0
   -5.6192   12.9163  -34.7979 H   0  0  0  0  0  0  0  0  0  0  0  0
   -5.5360   15.5320  -31.5010 H   0  0  0  0  0  0  0  0  0  0  0  0
   -4.3076   19.5151  -31.2570 H   0  0  0  0  0  0  0  0  0  0  0  0
   -3.7045   18.9879  -32.8898 H   0  0  0  0  0  0  0  0  0  0  0  0
   -3.4781   21.4188  -32.6193 H   0  0  0  0  0  0  0  0  0  0  0  0
   -4.6762   21.0097  -33.8998 H   0  0  0  0  0  0  0  0  0  0  0  0
   -5.2430   21.8830  -31.0282 H   0  0  0  0  0  0  0  0  0  0  0  0
   -5.6037   22.7769  -32.5679 H   0  0  0  0  0  0  0  0  0  0  0  0
   -7.9120   23.0158  -31.7528 H   0  0  0  0  0  0  0  0  0  0  0  0
  -10.1899   22.0117  -31.8038 H   0  0  0  0  0  0  0  0  0  0  0  0
  -10.4734   19.5755  -32.2357 H   0  0  0  0  0  0  0  0  0  0  0  0
   -8.4832   18.1286  -32.5979 H   0  0  0  0  0  0  0  0  0  0  0  0
   -5.5080   16.8100  -35.4710 H   0  0  0  0  0  0  0  0  0  0  0  0
  1  2  1  0
  2  3  1  0
  3  4  2  0
  4  5  1  0
  5  6  2  0
  5  7  1  0
  7  8  1  6
  8  9  1  0
  9 10  1  0
 10 11  1  0
 11 12  2  0
 12 13  1  0
 13 14  2  0
 14 15  1  0
 15 16  2  0
  7 17  1  0
 17 18  2  0
 17 19  1  0
 19  3  1  0
 16  7  1  0
 16 11  1  0
  1 20  1  0
  1 21  1  0
  1 22  1  0
  4 23  1  0
  8 24  1  0
  8 25  1  0
  9 26  1  0
  9 27  1  0
 10 28  1  0
 10 29  1  0
 12 30  1  0
 13 31  1  0
 14 32  1  0
 15 33  1  0
 19 34  1  0
M  CHG  1   4   1
M  END
>  <UniqueID>  (12) 
12

>  <SMILES>  (12) 
COC1=[NH+]C(=O)[C@@]2(CCCc3ccccc32)C(=O)N1

>  <Energy>  (12) 
37.84462727644211

>  <Genealogy>  (12) 
COC1=[NH+]C(=O)C2(CCCc3ccccc32)C(=O)N1 (protonated)
COC1=[NH+]C(=O)[C@@]2(CCCc3ccccc32)C(=O)N1 (chirality)
COC1=[NH+]C(=O)[C@@]2(CCCc3ccccc32)C(=O)N1 (3D coordinates assigned)
COC1=[NH+]C(=O)[C@@]2(CCCc3ccccc32)C(=O)N1 (nonaromatic ring conformer: 37.84462727644211 kcal/mol)

>  <smiles>  (12) 
COC1=NC(=O)C2(CCCc3ccccc32)C(=O)N1

>  <score_type>  (12) 
oracle

>  <origin>  (12) 
adg

>  <m_score__min__energy>  (12) 
-6.5899999999999999

>  <m_primary>  (12) 
energy

$$$$
12:0
     RDKit          3D

 57 60  0  0  0  0  0  0  0  0999 V2000
    1.7140   20.6970  -33.9420 C   0  0  0  0  0  0  0  0  0  0  0  0
    1.2960   21.1380  -35.2840 N   0  0  0  0  0  0  0  0  0  0  0  0
    1.3740   22.6040  -35.3750 C   0  0  0  0  0  0  0  0  0  0  0  0
   -0.0630   20.6460  -35.6140 C   0  0  0  0  0  0  0  0  0  0  0  0
   -0.4440   19.4760  -34.6950 C   0  0  0  0  0  0  0  0  0  0  0  0
   -1.7540   19.7010  -34.0370 N   0  0  0  0  0  0  0  0  0  0  0  0
   -1.9120   20.8430  -33.2760 C   0  0  0  0  0  0  0  0  0  0  0  0
   -0.9650   21.6590  -33.1050 O   0  0  0  0  0  0  0  0  0  0  0  0
   -3.1430   21.0910  -32.6960 C   0  0  0  0  0  0  0  0  0  0  0  0
   -3.5760   22.1300  -31.9020 C   0  0  0  0  0  0  0  0  0  0  0  0
   -4.8770   21.9260  -31.5730 N   0  0  0  0  0  0  0  0  0  0  0  0
   -5.7210   22.8100  -30.7460 C   0  0  0  0  0  0  0  0  0  0  0  0
   -5.0760   23.0470  -29.3680 C   0  0  0  0  0  0  0  0  0  0  0  0
   -3.9570   24.1150  -29.4000 C   0  0  0  0  0  0  0  0  0  0  0  0
   -3.9960   24.9830  -30.5230 O   0  0  0  0  0  0  0  0  0  0  0  0
   -5.3230   25.3360  -30.8420 C   0  0  0  0  0  0  0  0  0  0  0  0
   -6.0500   24.1400  -31.4700 C   0  0  0  0  0  0  0  0  0  0  0  0
   -5.2510   20.7530  -32.1550 C   0  0  0  0  0  0  0  0  0  0  0  0
   -6.5980   20.1570  -32.0700 C   0  0  0  0  0  0  0  0  0  0  0  0
   -6.7540   18.8280  -31.6460 C   0  0  0  0  0  0  0  0  0  0  0  0
   -8.0290   18.2600  -31.5700 C   0  0  0  0  0  0  0  0  0  0  0  0
   -9.1540   19.0140  -31.9160 C   0  0  0  0  0  0  0  0  0  0  0  0
   -9.0040   20.3390  -32.3380 C   0  0  0  0  0  0  0  0  0  0  0  0
   -7.7300   20.9100  -32.4150 C   0  0  0  0  0  0  0  0  0  0  0  0
   -4.1770   20.2310  -32.8600 C   0  0  0  0  0  0  0  0  0  0  0  0
   -4.0110   19.0670  -33.5990 C   0  0  0  0  0  0  0  0  0  0  0  0
   -4.9640   18.2460  -33.6980 O   0  0  0  0  0  0  0  0  0  0  0  0
   -2.7890   18.8270  -34.1980 N   0  0  0  0  0  0  0  0  0  0  0  0
   -2.6060   17.5660  -34.9450 C   0  0  0  0  0  0  0  0  0  0  0  0
    1.1681   21.2729  -33.1802 H   0  0  0  0  0  0  0  0  0  0  0  0
    1.4911   19.6265  -33.8219 H   0  0  0  0  0  0  0  0  0  0  0  0
    2.7949   20.8622  -33.8219 H   0  0  0  0  0  0  0  0  0  0  0  0
    1.3969   23.0335  -34.3626 H   0  0  0  0  0  0  0  0  0  0  0  0
    2.2886   22.8897  -35.9152 H   0  0  0  0  0  0  0  0  0  0  0  0
    0.4949   22.9851  -35.9152 H   0  0  0  0  0  0  0  0  0  0  0  0
   -0.7872   21.4631  -35.4803 H   0  0  0  0  0  0  0  0  0  0  0  0
   -0.0744   20.2994  -36.6579 H   0  0  0  0  0  0  0  0  0  0  0  0
   -0.4992   18.5551  -35.2941 H   0  0  0  0  0  0  0  0  0  0  0  0
    0.3236   19.3904  -33.9117 H   0  0  0  0  0  0  0  0  0  0  0  0
   -2.9650   22.9881  -31.5851 H   0  0  0  0  0  0  0  0  0  0  0  0
   -6.6818   22.3001  -30.5822 H   0  0  0  0  0  0  0  0  0  0  0  0
   -5.8569   23.3784  -28.6678 H   0  0  0  0  0  0  0  0  0  0  0  0
   -4.6168   22.0986  -29.0521 H   0  0  0  0  0  0  0  0  0  0  0  0
   -4.0423   24.7277  -28.4904 H   0  0  0  0  0  0  0  0  0  0  0  0
   -3.0060   23.5661  -29.4650 H   0  0  0  0  0  0  0  0  0  0  0  0
   -5.8488   25.6409  -29.9252 H   0  0  0  0  0  0  0  0  0  0  0  0
   -5.3113   26.1683  -31.5611 H   0  0  0  0  0  0  0  0  0  0  0  0
   -7.1345   24.3152  -31.4138 H   0  0  0  0  0  0  0  0  0  0  0  0
   -5.7130   24.0493  -32.5132 H   0  0  0  0  0  0  0  0  0  0  0  0
   -5.8707   18.2320  -31.3729 H   0  0  0  0  0  0  0  0  0  0  0  0
   -8.1472   17.2182  -31.2374 H   0  0  0  0  0  0  0  0  0  0  0  0
  -10.1567   18.5656  -31.8564 H   0  0  0  0  0  0  0  0  0  0  0  0
   -9.8894   20.9326  -32.6096 H   0  0  0  0  0  0  0  0  0  0  0  0
   -7.6152   21.9524  -32.7470 H   0  0  0  0  0  0  0  0  0  0  0  0
   -2.4852   16.7339  -34.2358 H   0  0  0  0  0  0  0  0  0  0  0  0
   -3.4871   17.3835  -35.5778 H   0  0  0  0  0  0  0  0  0  0  0  0
   -1.7094   17.6415  -35.5778 H   0  0  0  0  0  0  0  0  0  0  0  0
  1  2  1  0
  2  3  1  0
  2  4  1  0
  4  5  1  0
  5  6  1  0
  6  7  1  0
  7  8  2  0
  7  9  1  0
  9 10  2  0
 10 11  1  0
 11 12  1  0
 12 13  1  0
 13 14  1  0
 14 15  1  0
 15 16  1  0
 16 17  1  0
 11 18  1  0
 18 19  1  0
 19 20  2  0
 20 21  1  0
 21 22  2  0
 22 23  1  0
 23 24  2  0
 18 25  2  0
 25 26  1  0
 26 27  2  0
 26 28  1  0
 28 29  1  0
 28  6  1  0
 25  9  1  0
 17 12  1  0
 24 19  1  0
  1 30  1  0
  1 31  1  0
  1 32  1  0
  3 33  1  0
  3 34  1  0
  3 35  1  0
  4 36  1  0
  4 37  1  0
  5 38  1  0
  5 39  1  0
 10 40  1  0
 12 41  1  0
 13 42  1  0
 13 43  1  0
 14 44  1  0
 14 45  1  0
 16 46  1  0
 16 47  1  0
 17 48  1  0
 17 49  1  0
 20 50  1  0
 21 51  1  0
 22 52  1  0
 23 53  1  0
 24 54  1  0
 29 55  1  0
 29 56  1  0
 29 57  1  0
M  END
>  <UniqueID>  (13) 
13

>  <SMILES>  (13) 
CN(C)CCn1c(=O)c2cn(C3CCOCC3)c(-c3ccccc3)c2c(=O)n1C

>  <Energy>  (13) 
119.55806823213291

>  <Genealogy>  (13) 
CN(C)CCn1c(=O)c2cn(C3CCOCC3)c(-c3ccccc3)c2c(=O)n1C (3D coordinates assigned)
CN(C)CCn1c(=O)c2cn(C3CCOCC3)c(-c3ccccc3)c2c(=O)n1C (nonaromatic ring conformer: 119.55806823213291 kcal/mol)

>  <smiles>  (13) 
CN(C)CCn1c(=O)c2cn(C3CCOCC3)c(-c3ccccc3)c2c(=O)n1C

>  <score_type>  (13) 
oracle

>  <origin>  (13) 
adg

>  <m_score__min__energy>  (13) 
-9.9499999999999993

>  <m_primary>  (13) 
energy

$$$$
13:0
     RDKit          3D

 50 54  0  0  0  0  0  0  0  0999 V2000
   -0.8420   27.3180  -24.8860 C   0  0  0  0  0  0  0  0  0  0  0  0
   -1.3350   26.4380  -25.9950 C   0  0  0  0  0  0  0  0  0  0  0  0
   -2.4390   25.5970  -25.7920 C   0  0  0  0  0  0  0  0  0  0  0  0
   -2.8790   24.7510  -26.8130 C   0  0  0  0  0  0  0  0  0  0  0  0
   -2.2090   24.7130  -28.0470 C   0  0  0  0  0  0  0  0  0  0  0  0
   -2.6830   23.8400  -29.0900 N   0  0  0  0  0  0  0  0  0  0  0  0
   -2.0310   22.7540  -29.4960 N   0  0  0  0  0  0  0  0  0  0  0  0
   -2.7410   22.1670  -30.4910 C   0  0  0  0  0  0  0  0  0  0  0  0
   -3.8680   22.9280  -30.7240 C   0  0  0  0  0  0  0  0  0  0  0  0
   -4.9470   22.8340  -31.6030 C   0  0  0  0  0  0  0  0  0  0  0  0
   -5.0710   21.7640  -32.5530 N   0  0  0  0  0  0  0  0  0  0  0  0
   -6.3850   21.1330  -32.7410 C   0  0  0  0  0  0  0  0  0  0  0  0
   -6.3410   20.0680  -33.8420 C   0  0  0  0  0  0  0  0  0  0  0  0
   -5.1280   19.2530  -33.6970 N   0  0  0  0  0  0  0  0  0  0  0  0
   -5.2140   17.8180  -33.6060 C   0  0  0  0  0  0  0  0  0  0  0  0
   -6.4180   17.1560  -33.8980 C   0  0  0  0  0  0  0  0  0  0  0  0
   -6.4960   15.7620  -33.8200 C   0  0  0  0  0  0  0  0  0  0  0  0
   -5.3720   15.0170  -33.4560 C   0  0  0  0  0  0  0  0  0  0  0  0
   -4.1650   15.6640  -33.1700 C   0  0  0  0  0  0  0  0  0  0  0  0
   -2.7510   14.7270  -32.7230 Cl  0  0  0  0  0  0  0  0  0  0  0  0
   -4.0860   17.0590  -33.2460 C   0  0  0  0  0  0  0  0  0  0  0  0
   -3.8170   19.9100  -33.5740 C   0  0  0  0  0  0  0  0  0  0  0  0
   -3.9580   21.4330  -33.4540 C   0  0  0  0  0  0  0  0  0  0  0  0
   -5.9140   23.7960  -31.5120 N   0  0  0  0  0  0  0  0  0  0  0  0
   -5.8200   24.8280  -30.6160 C   0  0  0  0  0  0  0  0  0  0  0  0
   -4.7510   24.9160  -29.7690 N   0  0  0  0  0  0  0  0  0  0  0  0
   -3.8020   23.9500  -29.8330 C   0  0  0  0  0  0  0  0  0  0  0  0
   -1.1000   25.5540  -28.2470 C   0  0  0  0  0  0  0  0  0  0  0  0
   -0.6620   26.4020  -27.2240 C   0  0  0  0  0  0  0  0  0  0  0  0
   -1.0964   26.8639  -23.9169 H   0  0  0  0  0  0  0  0  0  0  0  0
    0.2496   27.4289  -24.9637 H   0  0  0  0  0  0  0  0  0  0  0  0
   -1.3175   28.3069  -24.9637 H   0  0  0  0  0  0  0  0  0  0  0  0
   -2.9611   25.6036  -24.8238 H   0  0  0  0  0  0  0  0  0  0  0  0
   -3.7573   24.1094  -26.6492 H   0  0  0  0  0  0  0  0  0  0  0  0
   -2.4658   21.2432  -31.0211 H   0  0  0  0  0  0  0  0  0  0  0  0
   -6.6931   20.6596  -31.7971 H   0  0  0  0  0  0  0  0  0  0  0  0
   -7.1031   21.9108  -33.0399 H   0  0  0  0  0  0  0  0  0  0  0  0
   -7.2273   19.4216  -33.7605 H   0  0  0  0  0  0  0  0  0  0  0  0
   -6.3317   20.5617  -34.8249 H   0  0  0  0  0  0  0  0  0  0  0  0
   -7.3049   17.7377  -34.1898 H   0  0  0  0  0  0  0  0  0  0  0  0
   -7.4439   15.2514  -34.0456 H   0  0  0  0  0  0  0  0  0  0  0  0
   -5.4359   13.9206  -33.3942 H   0  0  0  0  0  0  0  0  0  0  0  0
   -3.1353   17.5654  -33.0227 H   0  0  0  0  0  0  0  0  0  0  0  0
   -3.3083   19.5268  -32.6771 H   0  0  0  0  0  0  0  0  0  0  0  0
   -3.2346   19.6886  -34.4805 H   0  0  0  0  0  0  0  0  0  0  0  0
   -3.0253   21.8548  -33.0514 H   0  0  0  0  0  0  0  0  0  0  0  0
   -4.1596   21.8570  -34.4488 H   0  0  0  0  0  0  0  0  0  0  0  0
   -6.6109   25.5916  -30.5780 H   0  0  0  0  0  0  0  0  0  0  0  0
   -0.5739   25.5451  -29.2130 H   0  0  0  0  0  0  0  0  0  0  0  0
    0.2161   27.0446  -27.3852 H   0  0  0  0  0  0  0  0  0  0  0  0
  1  2  1  0
  2  3  2  0
  3  4  1  0
  4  5  2  0
  5  6  1  0
  6  7  1  0
  7  8  2  0
  8  9  1  0
  9 10  2  0
 10 11  1  0
 11 12  1  0
 12 13  1  0
 13 14  1  0
 14 15  1  0
 15 16  2  0
 16 17  1  0
 17 18  2  0
 18 19  1  0
 19 20  1  0
 19 21  2  0
 14 22  1  0
 22 23  1  0
 10 24  1  0
 24 25  2  0
 25 26  1  0
 26 27  2  0
  5 28  1  0
 28 29  2  0
 29  2  1  0
 27  6  1  0
 27  9  1  0
 23 11  1  0
 21 15  1  0
  1 30  1  0
  1 31  1  0
  1 32  1  0
  3 33  1  0
  4 34  1  0
  8 35  1  0
 12 36  1  0
 12 37  1  0
 13 38  1  0
 13 39  1  0
 16 40  1  0
 17 41  1  0
 18 42  1  0
 21 43  1  0
 22 44  1  0
 22 45  1  0
 23 46  1  0
 23 47  1  0
 25 48  1  0
 28 49  1  0
 29 50  1  0
M  END
>  <UniqueID>  (14) 
14

>  <SMILES>  (14) 
Cc1ccc(-n2ncc3c(N4CCN(c5cccc(Cl)c5)CC4)ncnc32)cc1

>  <Energy>  (14) 
109.92969462617907

>  <Genealogy>  (14) 
Cc1ccc(-n2ncc3c(N4CCN(c5cccc(Cl)c5)CC4)ncnc32)cc1 (3D coordinates assigned)
Cc1ccc(-n2ncc3c(N4CCN(c5cccc(Cl)c5)CC4)ncnc32)cc1 (nonaromatic ring conformer: 109.92969462617907 kcal/mol)

>  <smiles>  (14) 
Cc1ccc(-n2ncc3c(N4CCN(c5cccc(Cl)c5)CC4)ncnc32)cc1

>  <score_type>  (14) 
oracle

>  <origin>  (14) 
adg

>  <m_score__min__energy>  (14) 
-8.6699999999999999

>  <m_primary>  (14) 
energy

$$$$
14:0
     RDKit          3D

 53 56  0  0  0  0  0  0  0  0999 V2000
   -6.4820   25.7380  -29.3460 C   0  0  0  0  0  0  0  0  0  0  0  0
   -5.5290   25.2440  -30.4330 C   0  0  0  0  0  0  0  0  0  0  0  0
   -5.7570   23.8250  -30.7490 N   0  0  0  0  0  0  0  0  0  0  0  0
   -4.7670   22.8780  -30.2990 C   0  0  0  0  0  0  0  0  0  0  0  0
   -4.5280   22.7530  -28.9670 N   0  0  0  0  0  0  0  0  0  0  0  0
   -3.5730   21.9160  -28.4880 C   0  0  0  0  0  0  0  0  0  0  0  0
   -2.8070   21.1910  -29.3430 N   0  0  0  0  0  0  0  0  0  0  0  0
   -2.9860   21.2840  -30.6910 C   0  0  0  0  0  0  0  0  0  0  0  0
   -2.1850   20.5350  -31.5670 C   0  0  0  0  0  0  0  0  0  0  0  0
   -2.3760   20.6270  -32.9480 C   0  0  0  0  0  0  0  0  0  0  0  0
   -3.3680   21.4620  -33.4640 C   0  0  0  0  0  0  0  0  0  0  0  0
   -4.1730   22.2140  -32.6030 C   0  0  0  0  0  0  0  0  0  0  0  0
   -3.9870   22.1380  -31.2110 C   0  0  0  0  0  0  0  0  0  0  0  0
   -7.1220   23.3760  -31.1030 C   0  0  0  0  0  0  0  0  0  0  0  0
   -7.6120   22.2940  -30.1130 C   0  0  0  0  0  0  0  0  0  0  0  0
   -8.8510   21.5560  -30.6390 C   0  0  0  0  0  0  0  0  0  0  0  0
   -8.6790   21.0260  -32.0150 N   0  0  0  0  0  0  0  0  0  0  0  0
   -9.1070   19.6240  -32.2150 C   0  0  0  0  0  0  0  0  0  0  0  0
   -8.1900   18.5570  -31.5820 C   0  0  0  0  0  0  0  0  0  0  0  0
   -6.9540   18.2800  -32.3830 C   0  0  0  0  0  0  0  0  0  0  0  0
   -6.8750   17.4490  -33.4930 C   0  0  0  0  0  0  0  0  0  0  0  0
   -5.5830   17.3600  -34.0250 C   0  0  0  0  0  0  0  0  0  0  0  0
   -4.6400   18.1020  -33.3260 C   0  0  0  0  0  0  0  0  0  0  0  0
   -5.4150   18.8680  -32.0440 S   0  0  0  0  0  0  0  0  0  0  0  0
   -7.4400   21.4170  -32.7150 C   0  0  0  0  0  0  0  0  0  0  0  0
   -7.2300   22.9270  -32.5870 C   0  0  0  0  0  0  0  0  0  0  0  0
   -6.0556   25.5170  -28.3564 H   0  0  0  0  0  0  0  0  0  0  0  0
   -6.6250   26.8238  -29.4495 H   0  0  0  0  0  0  0  0  0  0  0  0
   -7.4516   25.2290  -29.4495 H   0  0  0  0  0  0  0  0  0  0  0  0
   -5.6848   25.8419  -31.3431 H   0  0  0  0  0  0  0  0  0  0  0  0
   -4.4988   25.3530  -30.0630 H   0  0  0  0  0  0  0  0  0  0  0  0
   -3.4190   21.8246  -27.4027 H   0  0  0  0  0  0  0  0  0  0  0  0
   -2.0750   20.5570  -28.9480 H   0  0  0  0  0  0  0  0  0  0  0  0
   -1.4039   19.8731  -31.1648 H   0  0  0  0  0  0  0  0  0  0  0  0
   -1.7432   20.0401  -33.6299 H   0  0  0  0  0  0  0  0  0  0  0  0
   -3.5171   21.5288  -34.5518 H   0  0  0  0  0  0  0  0  0  0  0  0
   -4.9552   22.8679  -33.0161 H   0  0  0  0  0  0  0  0  0  0  0  0
   -7.7972   24.2392  -31.0080 H   0  0  0  0  0  0  0  0  0  0  0  0
   -6.8040   21.5645  -29.9549 H   0  0  0  0  0  0  0  0  0  0  0  0
   -7.8861   22.7924  -29.1715 H   0  0  0  0  0  0  0  0  0  0  0  0
   -9.0681   20.7140  -29.9652 H   0  0  0  0  0  0  0  0  0  0  0  0
   -9.6747   22.2843  -30.6711 H   0  0  0  0  0  0  0  0  0  0  0  0
  -10.1110   19.5101  -31.7803 H   0  0  0  0  0  0  0  0  0  0  0  0
   -9.0735   19.4481  -33.3003 H   0  0  0  0  0  0  0  0  0  0  0  0
   -7.8871   18.9060  -30.5838 H   0  0  0  0  0  0  0  0  0  0  0  0
   -8.7649   17.6201  -31.5396 H   0  0  0  0  0  0  0  0  0  0  0  0
   -7.7404   16.9146  -33.9120 H   0  0  0  0  0  0  0  0  0  0  0  0
   -5.3380   16.7589  -34.9131 H   0  0  0  0  0  0  0  0  0  0  0  0
   -3.5697   18.1762  -33.5688 H   0  0  0  0  0  0  0  0  0  0  0  0
   -6.5849   20.8896  -32.2670 H   0  0  0  0  0  0  0  0  0  0  0  0
   -7.5227   21.1496  -33.7788 H   0  0  0  0  0  0  0  0  0  0  0  0
   -6.3020   23.2021  -33.1097 H   0  0  0  0  0  0  0  0  0  0  0  0
   -8.1013   23.4301  -33.0317 H   0  0  0  0  0  0  0  0  0  0  0  0
  1  2  1  0
  2  3  1  0
  3  4  1  0
  4  5  2  0
  5  6  1  0
  6  7  2  0
  7  8  1  0
  8  9  2  0
  9 10  1  0
 10 11  2  0
 11 12  1  0
 12 13  2  0
  3 14  1  0
 14 15  1  0
 15 16  1  0
 16 17  1  0
 17 18  1  0
 18 19  1  0
 19 20  1  0
 20 21  2  0
 21 22  1  0
 22 23  2  0
 23 24  1  0
 17 25  1  0
 25 26  1  0
 13  4  1  0
 26 14  1  0
 13  8  1  0
 24 20  1  0
  1 27  1  0
  1 28  1  0
  1 29  1  0
  2 30  1  0
  2 31  1  0
  6 32  1  0
  7 33  1  0
  9 34  1  0
 10 35  1  0
 11 36  1  0
 12 37  1  0
 14 38  1  0
 15 39  1  0
 15 40  1  0
 16 41  1  0
 16 42  1  0
 18 43  1  0
 18 44  1  0
 19 45  1  0
 19 46  1  0
 21 47  1  0
 22 48  1  0
 23 49  1  0
 25 50  1  0
 25 51  1  0
 26 52  1  0
 26 53  1  0
M  CHG  1   7   1
M  END
>  <UniqueID>  (15) 
15

>  <SMILES>  (15) 
CCN(c1nc[nH+]c2ccccc12)C1CCN(CCc2cccs2)CC1

>  <Energy>  (15) 
98.89927230787936

>  <Genealogy>  (15) 
CCN(c1nc[nH+]c2ccccc12)C1CCN(CCc2cccs2)CC1 (protonated)
CCN(c1nc[nH+]c2ccccc12)C1CCN(CCc2cccs2)CC1 (3D coordinates assigned)
CCN(c1nc[nH+]c2ccccc12)C1CCN(CCc2cccs2)CC1 (nonaromatic ring conformer: 98.89927230787936 kcal/mol)

>  <smiles>  (15) 
CCN(c1ncnc2ccccc12)C1CCN(CCc2cccs2)CC1

>  <score_type>  (15) 
oracle

>  <origin>  (15) 
adg

>  <m_score__min__energy>  (15) 
-8.0099999999999998

>  <m_primary>  (15) 
energy

$$$$
15:0
     RDKit          3D

 43 45  0  0  0  0  0  0  0  0999 V2000
   -6.4800   16.8030  -33.3920 C   0  0  0  0  0  0  0  0  0  0  0  0
   -7.0480   17.5260  -32.3040 O   0  0  0  0  0  0  0  0  0  0  0  0
   -7.2210   18.9180  -32.2860 C   0  0  0  0  0  0  0  0  0  0  0  0
   -6.2000   19.8130  -32.6580 C   0  0  0  0  0  0  0  0  0  0  0  0
   -6.4240   21.1920  -32.6220 C   0  0  0  0  0  0  0  0  0  0  0  0
   -7.6690   21.6990  -32.2200 C   0  0  0  0  0  0  0  0  0  0  0  0
   -7.8910   23.1850  -32.1500 C   0  0  0  0  0  0  0  0  0  0  0  0
   -6.9480   23.7920  -31.2100 N   0  0  0  0  0  0  0  0  0  0  0  0
   -6.0790   24.9100  -31.5260 C   0  0  0  0  0  0  0  0  0  0  0  0
   -5.2920   25.2160  -30.2280 C   0  0  2  0  0  0  0  0  0  0  0  0
   -3.8570   25.2990  -30.4880 N   0  0  0  0  0  0  0  0  0  0  0  0
   -2.8790   24.5410  -29.7660 C   0  0  0  0  0  0  0  0  0  0  0  0
   -2.2170   25.0900  -28.8450 O   0  0  0  0  0  0  0  0  0  0  0  0
   -2.6440   23.1170  -30.1020 C   0  0  0  0  0  0  0  0  0  0  0  0
   -3.3090   22.5190  -31.1900 C   0  0  0  0  0  0  0  0  0  0  0  0
   -3.0860   21.1750  -31.5040 C   0  0  0  0  0  0  0  0  0  0  0  0
   -2.2010   20.4120  -30.7390 C   0  0  0  0  0  0  0  0  0  0  0  0
   -1.5360   20.9940  -29.6580 C   0  0  0  0  0  0  0  0  0  0  0  0
   -1.7530   22.3380  -29.3380 C   0  0  0  0  0  0  0  0  0  0  0  0
   -5.5920   24.0730  -29.2380 C   0  0  0  0  0  0  0  0  0  0  0  0
   -6.6680   23.3160  -29.9090 C   0  0  0  0  0  0  0  0  0  0  0  0
   -7.2680   22.3410  -29.3850 O   0  0  0  0  0  0  0  0  0  0  0  0
   -8.6840   20.8080  -31.8430 C   0  0  0  0  0  0  0  0  0  0  0  0
   -8.4600   19.4280  -31.8790 C   0  0  0  0  0  0  0  0  0  0  0  0
   -5.8444   15.9940  -33.0027 H   0  0  0  0  0  0  0  0  0  0  0  0
   -7.2847   16.3735  -34.0068 H   0  0  0  0  0  0  0  0  0  0  0  0
   -5.8722   17.4832  -34.0068 H   0  0  0  0  0  0  0  0  0  0  0  0
   -5.2217   19.4253  -32.9784 H   0  0  0  0  0  0  0  0  0  0  0  0
   -5.6193   21.8842  -32.9106 H   0  0  0  0  0  0  0  0  0  0  0  0
   -7.7416   23.6223  -33.1482 H   0  0  0  0  0  0  0  0  0  0  0  0
   -8.9174   23.3792  -31.8053 H   0  0  0  0  0  0  0  0  0  0  0  0
   -5.3877   24.6397  -32.3379 H   0  0  0  0  0  0  0  0  0  0  0  0
   -6.6534   25.7845  -31.8657 H   0  0  0  0  0  0  0  0  0  0  0  0
   -5.6001   26.1882  -29.8158 H   0  0  0  0  0  0  0  0  0  0  0  0
   -4.0083   23.1132  -31.7966 H   0  0  0  0  0  0  0  0  0  0  0  0
   -3.6093   20.7170  -32.3563 H   0  0  0  0  0  0  0  0  0  0  0  0
   -2.0282   19.3545  -30.9877 H   0  0  0  0  0  0  0  0  0  0  0  0
   -0.8387   20.3931  -29.0557 H   0  0  0  0  0  0  0  0  0  0  0  0
   -1.2250   22.7893  -28.4850 H   0  0  0  0  0  0  0  0  0  0  0  0
   -4.7040   23.4425  -29.0833 H   0  0  0  0  0  0  0  0  0  0  0  0
   -5.8777   24.4330  -28.2386 H   0  0  0  0  0  0  0  0  0  0  0  0
   -9.6605   21.1961  -31.5176 H   0  0  0  0  0  0  0  0  0  0  0  0
   -9.2640   18.7372  -31.5851 H   0  0  0  0  0  0  0  0  0  0  0  0
  1  2  1  0
  2  3  1  0
  3  4  2  0
  4  5  1  0
  5  6  2  0
  6  7  1  0
  7  8  1  0
  8  9  1  0
  9 10  1  0
 10 11  1  0
 11 12  1  0
 12 13  2  0
 12 14  1  0
 14 15  2  0
 15 16  1  0
 16 17  2  0
 17 18  1  0
 18 19  2  0
 10 20  1  0
 20 21  1  0
 21 22  2  0
  6 23  1  0
 23 24  2  0
 24  3  1  0
 21  8  1  0
 19 14  1  0
  1 25  1  0
  1 26  1  0
  1 27  1  0
  4 28  1  0
  5 29  1  0
  7 30  1  0
  7 31  1  0
  9 32  1  0
  9 33  1  0
 10 34  1  1
 15 35  1  0
 16 36  1  0
 17 37  1  0
 18 38  1  0
 19 39  1  0
 20 40  1  0
 20 41  1  0
 23 42  1  0
 24 43  1  0
M  CHG  1  11  -1
M  END
>  <UniqueID>  (16) 
16

>  <SMILES>  (16) 
COc1ccc(CN2C[C@H]([N-]C(=O)c3ccccc3)CC2=O)cc1

>  <Energy>  (16) 
47.374578934231884

>  <Genealogy>  (16) 
COc1ccc(CN2CC([N-]C(=O)c3ccccc3)CC2=O)cc1 (protonated)
COc1ccc(CN2C[C@H]([N-]C(=O)c3ccccc3)CC2=O)cc1 (chirality)
COc1ccc(CN2C[C@H]([N-]C(=O)c3ccccc3)CC2=O)cc1 (3D coordinates assigned)
COc1ccc(CN2C[C@H]([N-]C(=O)c3ccccc3)CC2=O)cc1 (nonaromatic ring conformer: 47.374578934231884 kcal/mol)

>  <smiles>  (16) 
COc1ccc(CN2CC(NC(=O)c3ccccc3)CC2=O)cc1

>  <score_type>  (16) 
oracle

>  <origin>  (16) 
adg

>  <m_score__min__energy>  (16) 
-9.8300000000000001

>  <m_primary>  (16) 
energy

$$$$
16:0
     RDKit          3D

 56 59  0  0  0  0  0  0  0  0999 V2000
    0.1770   20.1480  -27.8530 C   0  0  0  0  0  0  0  0  0  0  0  0
    0.0480   18.7300  -27.4810 N   0  0  0  0  0  0  0  0  0  0  0  0
    0.2620   17.8860  -28.6690 C   0  0  0  0  0  0  0  0  0  0  0  0
   -1.2810   18.4760  -26.8810 C   0  0  0  0  0  0  0  0  0  0  0  0
   -1.9750   19.7890  -26.4910 C   0  0  0  0  0  0  0  0  0  0  0  0
   -2.7330   20.3380  -27.6160 N   0  0  0  0  0  0  0  0  0  0  0  0
   -2.8670   21.7520  -27.8380 C   0  0  0  0  0  0  0  0  0  0  0  0
   -2.2870   22.5640  -27.0660 O   0  0  0  0  0  0  0  0  0  0  0  0
   -3.7020   22.2750  -28.9430 C   0  0  0  0  0  0  0  0  0  0  0  0
   -4.5420   23.3870  -28.7580 C   0  0  0  0  0  0  0  0  0  0  0  0
   -5.3320   23.8580  -29.8090 C   0  0  0  0  0  0  0  0  0  0  0  0
   -5.2760   23.2390  -31.0610 C   0  0  0  0  0  0  0  0  0  0  0  0
   -4.4420   22.1300  -31.2640 C   0  0  0  0  0  0  0  0  0  0  0  0
   -3.6770   21.6390  -30.1960 C   0  0  0  0  0  0  0  0  0  0  0  0
   -4.4120   21.4780  -32.5480 N   0  0  0  0  0  0  0  0  0  0  0  0
   -3.2100   21.6180  -33.3850 C   0  0  0  0  0  0  0  0  0  0  0  0
   -2.1360   20.6460  -32.9690 C   0  0  0  0  0  0  0  0  0  0  0  0
   -2.1410   19.3380  -33.4820 C   0  0  0  0  0  0  0  0  0  0  0  0
   -1.1720   18.4160  -33.0790 C   0  0  0  0  0  0  0  0  0  0  0  0
   -0.1880   18.7920  -32.1620 C   0  0  0  0  0  0  0  0  0  0  0  0
   -0.1720   20.0890  -31.6450 C   0  0  0  0  0  0  0  0  0  0  0  0
   -1.1410   21.0170  -32.0420 C   0  0  0  0  0  0  0  0  0  0  0  0
   -1.1150   22.2660  -31.5100 F   0  0  0  0  0  0  0  0  0  0  0  0
   -5.5810   20.7920  -33.0570 C   0  0  0  0  0  0  0  0  0  0  0  0
   -5.4440   19.9280  -33.9650 O   0  0  0  0  0  0  0  0  0  0  0  0
   -6.9470   21.0490  -32.5280 C   0  0  0  0  0  0  0  0  0  0  0  0
   -7.8360   19.9680  -32.3790 C   0  0  0  0  0  0  0  0  0  0  0  0
   -9.1120   20.1650  -31.8460 C   0  0  0  0  0  0  0  0  0  0  0  0
   -9.5200   21.4410  -31.4580 C   0  0  0  0  0  0  0  0  0  0  0  0
   -8.6590   22.5280  -31.6160 C   0  0  0  0  0  0  0  0  0  0  0  0
   -7.3840   22.3470  -32.1650 C   0  0  0  0  0  0  0  0  0  0  0  0
   -6.3330   23.7860  -32.3920 S   0  0  0  0  0  0  0  0  0  0  0  0
    0.2329   20.7624  -26.9423 H   0  0  0  0  0  0  0  0  0  0  0  0
    1.0917   20.2894  -28.4474 H   0  0  0  0  0  0  0  0  0  0  0  0
   -0.6972   20.4521  -28.4474 H   0  0  0  0  0  0  0  0  0  0  0  0
    0.5209   16.8651  -28.3517 H   0  0  0  0  0  0  0  0  0  0  0  0
   -0.6581   17.8606  -29.2713 H   0  0  0  0  0  0  0  0  0  0  0  0
    1.0831   18.3020  -29.2713 H   0  0  0  0  0  0  0  0  0  0  0  0
   -1.9077   17.9419  -27.6104 H   0  0  0  0  0  0  0  0  0  0  0  0
   -1.1428   17.8720  -25.9721 H   0  0  0  0  0  0  0  0  0  0  0  0
   -2.6624   19.5973  -25.6539 H   0  0  0  0  0  0  0  0  0  0  0  0
   -1.2049   20.5182  -26.1992 H   0  0  0  0  0  0  0  0  0  0  0  0
   -3.2230   19.6620  -28.2420 H   0  0  0  0  0  0  0  0  0  0  0  0
   -4.5772   23.8890  -27.7799 H   0  0  0  0  0  0  0  0  0  0  0  0
   -5.9996   24.7178  -29.6512 H   0  0  0  0  0  0  0  0  0  0  0  0
   -3.0506   20.7464  -30.3406 H   0  0  0  0  0  0  0  0  0  0  0  0
   -3.4797   21.4264  -34.4341 H   0  0  0  0  0  0  0  0  0  0  0  0
   -2.8197   22.6392  -33.2635 H   0  0  0  0  0  0  0  0  0  0  0  0
   -2.9131   19.0380  -34.2058 H   0  0  0  0  0  0  0  0  0  0  0  0
   -1.1840   17.3934  -33.4841 H   0  0  0  0  0  0  0  0  0  0  0  0
    0.5754   18.0655  -31.8466 H   0  0  0  0  0  0  0  0  0  0  0  0
    0.6048   20.3821  -30.9234 H   0  0  0  0  0  0  0  0  0  0  0  0
   -7.5231   18.9589  -32.6851 H   0  0  0  0  0  0  0  0  0  0  0  0
   -9.7967   19.3117  -31.7320 H   0  0  0  0  0  0  0  0  0  0  0  0
  -10.5210   21.5907  -31.0272 H   0  0  0  0  0  0  0  0  0  0  0  0
   -8.9840   23.5326  -31.3074 H   0  0  0  0  0  0  0  0  0  0  0  0
  1  2  1  0
  2  3  1  0
  2  4  1  0
  4  5  1  0
  5  6  1  0
  6  7  1  0
  7  8  2  0
  7  9  1  0
  9 10  2  0
 10 11  1  0
 11 12  2  0
 12 13  1  0
 13 14  2  0
 13 15  1  0
 15 16  1  0
 16 17  1  0
 17 18  2  0
 18 19  1  0
 19 20  2  0
 20 21  1  0
 21 22  2  0
 22 23  1  0
 15 24  1  0
 24 25  2  0
 24 26  1  0
 26 27  2  0
 27 28  1  0
 28 29  2  0
 29 30  1  0
 30 31  2  0
 31 32  1  0
 14  9  1  0
 22 17  1  0
 31 26  1  0
 32 12  1  0
  1 33  1  0
  1 34  1  0
  1 35  1  0
  3 36  1  0
  3 37  1  0
  3 38  1  0
  4 39  1  0
  4 40  1  0
  5 41  1  0
  5 42  1  0
  6 43  1  0
 10 44  1  0
 11 45  1  0
 14 46  1  0
 16 47  1  0
 16 48  1  0
 18 49  1  0
 19 50  1  0
 20 51  1  0
 21 52  1  0
 27 53  1  0
 28 54  1  0
 29 55  1  0
 30 56  1  0
M  END
>  <UniqueID>  (17) 
17

>  <SMILES>  (17) 
CN(C)CCNC(=O)c1ccc2c(c1)N(Cc1ccccc1F)C(=O)c1ccccc1S2

>  <Energy>  (17) 
72.25560436297256

>  <Genealogy>  (17) 
CN(C)CCNC(=O)c1ccc2c(c1)N(Cc1ccccc1F)C(=O)c1ccccc1S2 (3D coordinates assigned)
CN(C)CCNC(=O)c1ccc2c(c1)N(Cc1ccccc1F)C(=O)c1ccccc1S2 (nonaromatic ring conformer: 72.25560436297256 kcal/mol)

>  <smiles>  (17) 
CN(C)CCNC(=O)c1ccc2c(c1)N(Cc1ccccc1F)C(=O)c1ccccc1S2

>  <score_type>  (17) 
oracle

>  <origin>  (17) 
adg

>  <m_score__min__energy>  (17) 
-9.0099999999999998

>  <m_primary>  (17) 
energy

$$$$
17:0
     RDKit          3D

 34 35  0  0  0  0  0  0  0  0999 V2000
   -5.6580   25.1790  -30.5880 C   0  0  0  0  0  0  0  0  0  0  0  0
   -4.7550   24.0640  -30.9220 N   0  0  0  0  0  0  0  0  0  0  0  0
   -5.1530   23.0750  -31.7860 C   0  0  0  0  0  0  0  0  0  0  0  0
   -6.4850   23.0650  -32.3290 N   0  0  0  0  0  0  0  0  0  0  0  0
   -7.6200   22.6440  -31.5120 C   0  0  0  0  0  0  0  0  0  0  0  0
   -7.9370   21.2000  -31.7870 C   0  0  0  0  0  0  0  0  0  0  0  0
   -9.1730   20.8420  -32.3520 C   0  0  0  0  0  0  0  0  0  0  0  0
   -9.4920   19.4960  -32.5500 C   0  0  0  0  0  0  0  0  0  0  0  0
   -8.5870   18.4990  -32.1790 C   0  0  0  0  0  0  0  0  0  0  0  0
   -7.3610   18.8470  -31.6040 C   0  0  0  0  0  0  0  0  0  0  0  0
   -7.0380   20.1920  -31.4020 C   0  0  0  0  0  0  0  0  0  0  0  0
   -4.2550   22.0630  -32.1500 C   0  0  0  0  0  0  0  0  0  0  0  0
   -4.6430   21.0290  -33.0850 C   0  0  0  0  0  0  0  0  0  0  0  0
   -4.9560   20.2030  -33.8320 N   0  0  0  0  0  0  0  0  0  0  0  0
   -2.9860   22.0460  -31.5680 C   0  0  0  0  0  0  0  0  0  0  0  0
   -2.1620   21.1460  -31.9000 O   0  0  0  0  0  0  0  0  0  0  0  0
   -2.6400   22.9940  -30.6430 N   0  0  0  0  0  0  0  0  0  0  0  0
   -1.2970   22.9710  -30.0340 C   0  0  0  0  0  0  0  0  0  0  0  0
   -3.5120   24.0080  -30.3380 C   0  0  0  0  0  0  0  0  0  0  0  0
   -3.1680   24.9030  -29.5150 O   0  0  0  0  0  0  0  0  0  0  0  0
   -5.7348   25.2738  -29.4948 H   0  0  0  0  0  0  0  0  0  0  0  0
   -5.2588   26.1131  -31.0099 H   0  0  0  0  0  0  0  0  0  0  0  0
   -6.6547   24.9826  -31.0099 H   0  0  0  0  0  0  0  0  0  0  0  0
   -6.5900   22.9880  -33.3670 H   0  0  0  0  0  0  0  0  0  0  0  0
   -7.3696   22.7668  -30.4479 H   0  0  0  0  0  0  0  0  0  0  0  0
   -8.4955   23.2620  -31.7602 H   0  0  0  0  0  0  0  0  0  0  0  0
   -9.8915   21.6238  -32.6393 H   0  0  0  0  0  0  0  0  0  0  0  0
  -10.4578   19.2211  -32.9990 H   0  0  0  0  0  0  0  0  0  0  0  0
   -8.8387   17.4402  -32.3392 H   0  0  0  0  0  0  0  0  0  0  0  0
   -6.6495   18.0612  -31.3101 H   0  0  0  0  0  0  0  0  0  0  0  0
   -6.0768   20.4617  -30.9401 H   0  0  0  0  0  0  0  0  0  0  0  0
   -1.3913   22.9726  -28.9381 H   0  0  0  0  0  0  0  0  0  0  0  0
   -0.7644   22.0636  -30.3549 H   0  0  0  0  0  0  0  0  0  0  0  0
   -0.7336   23.8596  -30.3549 H   0  0  0  0  0  0  0  0  0  0  0  0
  1  2  1  0
  2  3  1  0
  3  4  1  0
  4  5  1  0
  5  6  1  0
  6  7  2  0
  7  8  1  0
  8  9  2  0
  9 10  1  0
 10 11  2  0
  3 12  2  0
 12 13  1  0
 13 14  3  0
 12 15  1  0
 15 16  2  0
 15 17  1  0
 17 18  1  0
 17 19  1  0
 19 20  2  0
 19  2  1  0
 11  6  1  0
  1 21  1  0
  1 22  1  0
  1 23  1  0
  4 24  1  0
  5 25  1  0
  5 26  1  0
  7 27  1  0
  8 28  1  0
  9 29  1  0
 10 30  1  0
 11 31  1  0
 18 32  1  0
 18 33  1  0
 18 34  1  0
M  END
>  <UniqueID>  (18) 
18

>  <SMILES>  (18) 
Cn1c(NCc2ccccc2)c(C#N)c(=O)n(C)c1=O

>  <Energy>  (18) 
45.2653123128227

>  <Genealogy>  (18) 
Cn1c(NCc2ccccc2)c(C#N)c(=O)n(C)c1=O (3D coordinates assigned)
Cn1c(NCc2ccccc2)c(C#N)c(=O)n(C)c1=O (optimized conformer: 45.2653123128227 kcal/mol)

>  <smiles>  (18) 
Cn1c(NCc2ccccc2)c(C#N)c(=O)n(C)c1=O

>  <score_type>  (18) 
oracle

>  <origin>  (18) 
adg

>  <m_score__min__energy>  (18) 
-6.7599999999999998

>  <m_primary>  (18) 
energy

$$$$
18:0
     RDKit          3D

 49 51  0  0  0  0  0  0  0  0999 V2000
   -2.4560   21.0010  -33.4510 C   0  0  0  0  0  0  0  0  0  0  0  0
   -3.2090   21.5690  -32.2540 C   0  0  0  0  0  0  0  0  0  0  0  0
   -4.5730   21.8240  -32.5900 O   0  0  0  0  0  0  0  0  0  0  0  0
   -5.6190   20.8890  -32.5540 C   0  0  0  0  0  0  0  0  0  0  0  0
   -5.4120   19.5100  -32.7950 C   0  0  0  0  0  0  0  0  0  0  0  0
   -6.4940   18.5970  -32.7720 C   0  0  0  0  0  0  0  0  0  0  0  0
   -6.2700   17.1490  -33.0200 C   0  0  0  0  0  0  0  0  0  0  0  0
   -6.8580   16.5240  -34.0520 C   0  0  0  0  0  0  0  0  0  0  0  0
   -6.6340   15.0570  -34.2610 C   0  0  0  0  0  0  0  0  0  0  0  0
   -5.1450   14.7320  -34.1010 C   0  0  0  0  0  0  0  0  0  0  0  0
   -4.5340   15.3120  -32.8010 C   0  0  0  0  0  0  0  0  0  0  0  0
   -5.4370   16.3250  -32.0620 C   0  0  0  0  0  0  0  0  0  0  0  0
   -7.7920   19.0730  -32.5020 C   0  0  0  0  0  0  0  0  0  0  0  0
   -7.9760   20.4320  -32.2670 C   0  0  0  0  0  0  0  0  0  0  0  0
   -6.9300   21.3150  -32.2830 C   0  0  0  0  0  0  0  0  0  0  0  0
   -7.3870   22.6360  -32.0060 N   0  0  0  0  0  0  0  0  0  0  0  0
   -6.5800   23.8470  -31.8580 C   0  0  0  0  0  0  0  0  0  0  0  0
   -6.0620   23.9710  -30.4190 C   0  0  0  0  0  0  0  0  0  0  0  0
   -5.3270   25.2950  -30.1930 C   0  0  0  0  0  0  0  0  0  0  0  0
   -4.0550   25.2680  -30.7840 O   0  0  0  0  0  0  0  0  0  0  0  0
   -8.8380   22.6080  -31.8210 C   0  0  0  0  0  0  0  0  0  0  0  0
   -9.2590   21.1310  -31.9810 C   0  0  0  0  0  0  0  0  0  0  0  0
   -1.6245   20.3738  -33.0971 H   0  0  0  0  0  0  0  0  0  0  0  0
   -3.1409   20.3926  -34.0599 H   0  0  0  0  0  0  0  0  0  0  0  0
   -2.0591   21.8266  -34.0599 H   0  0  0  0  0  0  0  0  0  0  0  0
   -3.1703   20.8452  -31.4266 H   0  0  0  0  0  0  0  0  0  0  0  0
   -2.7355   22.5160  -31.9555 H   0  0  0  0  0  0  0  0  0  0  0  0
   -4.3964   19.1423  -33.0031 H   0  0  0  0  0  0  0  0  0  0  0  0
   -7.5028   17.0872  -34.7427 H   0  0  0  0  0  0  0  0  0  0  0  0
   -7.2137   14.4895  -33.5181 H   0  0  0  0  0  0  0  0  0  0  0  0
   -6.9595   14.7804  -35.2747 H   0  0  0  0  0  0  0  0  0  0  0  0
   -5.0246   13.6387  -34.0873 H   0  0  0  0  0  0  0  0  0  0  0  0
   -4.6152   15.1935  -34.9474 H   0  0  0  0  0  0  0  0  0  0  0  0
   -4.3252   14.4760  -32.1173 H   0  0  0  0  0  0  0  0  0  0  0  0
   -3.6290   15.8612  -33.0999 H   0  0  0  0  0  0  0  0  0  0  0  0
   -6.1109   15.7745  -31.3890 H   0  0  0  0  0  0  0  0  0  0  0  0
   -4.7868   17.0122  -31.5008 H   0  0  0  0  0  0  0  0  0  0  0  0
   -8.6468   18.3811  -32.4773 H   0  0  0  0  0  0  0  0  0  0  0  0
   -5.7249   23.7995  -32.5484 H   0  0  0  0  0  0  0  0  0  0  0  0
   -7.2041   24.7227  -32.0896 H   0  0  0  0  0  0  0  0  0  0  0  0
   -6.9152   23.9145  -29.7270 H   0  0  0  0  0  0  0  0  0  0  0  0
   -5.3524   23.1501  -30.2384 H   0  0  0  0  0  0  0  0  0  0  0  0
   -5.9133   26.1129  -30.6371 H   0  0  0  0  0  0  0  0  0  0  0  0
   -5.2087   25.4513  -29.1106 H   0  0  0  0  0  0  0  0  0  0  0  0
   -4.1490   25.6830  -31.6800 H   0  0  0  0  0  0  0  0  0  0  0  0
   -9.1026   22.9744  -30.8181 H   0  0  0  0  0  0  0  0  0  0  0  0
   -9.3496   23.2540  -32.5496 H   0  0  0  0  0  0  0  0  0  0  0  0
   -9.7163   20.7502  -31.0558 H   0  0  0  0  0  0  0  0  0  0  0  0
  -10.0119   20.9835  -32.7693 H   0  0  0  0  0  0  0  0  0  0  0  0
  1  2  1  0
  2  3  1  0
  3  4  1  0
  4  5  2  0
  5  6  1  0
  6  7  1  0
  7  8  2  0
  8  9  1  0
  9 10  1  0
 10 11  1  0
 11 12  1  0
  6 13  2  0
 13 14  1  0
 14 15  2  0
 15 16  1  0
 16 17  1  0
 17 18  1  0
 18 19  1  0
 19 20  1  0
 16 21  1  0
 21 22  1  0
 15  4  1  0
 12  7  1  0
 22 14  1  0
  1 23  1  0
  1 24  1  0
  1 25  1  0
  2 26  1  0
  2 27  1  0
  5 28  1  0
  8 29  1  0
  9 30  1  0
  9 31  1  0
 10 32  1  0
 10 33  1  0
 11 34  1  0
 11 35  1  0
 12 36  1  0
 12 37  1  0
 13 38  1  0
 17 39  1  0
 17 40  1  0
 18 41  1  0
 18 42  1  0
 19 43  1  0
 19 44  1  0
 20 45  1  0
 21 46  1  0
 21 47  1  0
 22 48  1  0
 22 49  1  0
M  END
>  <UniqueID>  (19) 
19

>  <SMILES>  (19) 
CCOc1cc(C2=CCCCC2)cc2c1N(CCCO)CC2

>  <Energy>  (19) 
61.16925468530578

>  <Genealogy>  (19) 
CCOc1cc(C2=CCCCC2)cc2c1N(CCCO)CC2 (3D coordinates assigned)
CCOc1cc(C2=CCCCC2)cc2c1N(CCCO)CC2 (nonaromatic ring conformer: 61.16925468530578 kcal/mol)

>  <smiles>  (19) 
CCOc1cc(C2=CCCCC2)cc2c1N(CCCO)CC2

>  <score_type>  (19) 
oracle

>  <origin>  (19) 
adg

>  <m_score__min__energy>  (19) 
-9.0299999999999994

>  <m_primary>  (19) 
energy

$$$$
19:0
     RDKit          3D

 61 64  0  0  0  0  0  0  0  0999 V2000
   -1.2070   23.8150  -29.9660 H   0  0  0  0  0  0  0  0  0  0  0  0
   -1.5550   22.8570  -30.1680 N   0  0  0  0  0  0  0  0  0  0  0  0
   -2.7720   22.4870  -30.4510 C   0  0  0  0  0  0  0  0  0  0  0  0
   -3.7780   23.4810  -30.4430 C   0  0  0  0  0  0  0  0  0  0  0  0
   -3.4950   24.9140  -30.1440 C   0  0  0  0  0  0  0  0  0  0  0  0
   -4.2350   25.8140  -30.6310 O   0  0  0  0  0  0  0  0  0  0  0  0
   -2.3710   25.2880  -29.3390 N   0  0  0  0  0  0  0  0  0  0  0  0
   -2.2480   24.9670  -27.9230 C   0  0  0  0  0  0  0  0  0  0  0  0
   -2.5175   25.8504  -27.3256 H   0  0  0  0  0  0  0  0  0  0  0  0
   -2.9230   24.1318  -27.6847 H   0  0  0  0  0  0  0  0  0  0  0  0
   -0.8440   24.5650  -27.6040 C   0  0  0  0  0  0  0  0  0  0  0  0
    0.1440   24.5960  -28.4660 O   0  0  0  0  0  0  0  0  0  0  0  0
    1.2330   24.1660  -27.8700 C   0  0  0  0  0  0  0  0  0  0  0  0
    2.2223   24.0797  -28.3431 H   0  0  0  0  0  0  0  0  0  0  0  0
    0.9470   23.8390  -26.5600 C   0  0  0  0  0  0  0  0  0  0  0  0
    1.6492   23.4507  -25.8076 H   0  0  0  0  0  0  0  0  0  0  0  0
   -0.3960   24.0970  -26.3840 C   0  0  0  0  0  0  0  0  0  0  0  0
   -0.9861   23.9592  -25.4659 H   0  0  0  0  0  0  0  0  0  0  0  0
   -5.0860   23.1170  -30.7550 C   0  0  0  0  0  0  0  0  0  0  0  0
   -5.8860   23.8703  -30.7051 H   0  0  0  0  0  0  0  0  0  0  0  0
   -5.3940   21.8090  -31.1300 C   0  0  0  0  0  0  0  0  0  0  0  0
   -6.7020   21.4520  -31.4990 C   0  0  0  0  0  0  0  0  0  0  0  0
   -7.6160   22.3270  -31.4680 O   0  0  0  0  0  0  0  0  0  0  0  0
   -6.9880   20.1710  -31.8930 N   0  0  0  0  0  0  0  0  0  0  0  0
   -8.2710   19.8350  -32.2480 C   0  0  0  0  0  0  0  0  0  0  0  0
   -9.0615   20.5985  -32.2023 H   0  0  0  0  0  0  0  0  0  0  0  0
   -8.5890   18.5480  -32.6640 C   0  0  0  0  0  0  0  0  0  0  0  0
   -9.6226   18.2962  -32.9439 H   0  0  0  0  0  0  0  0  0  0  0  0
   -7.5950   17.5830  -32.7240 C   0  0  0  0  0  0  0  0  0  0  0  0
   -7.8414   16.5629  -33.0537 H   0  0  0  0  0  0  0  0  0  0  0  0
   -6.2800   17.9010  -32.3670 C   0  0  0  0  0  0  0  0  0  0  0  0
   -5.2310   16.8220  -32.4490 C   0  0  0  0  0  0  0  0  0  0  0  0
   -4.9365   16.5190  -31.4334 H   0  0  0  0  0  0  0  0  0  0  0  0
   -5.6394   15.9536  -32.9867 H   0  0  0  0  0  0  0  0  0  0  0  0
   -4.3515   17.2058  -32.9867 H   0  0  0  0  0  0  0  0  0  0  0  0
   -5.9820   19.2270  -31.9420 C   0  0  0  0  0  0  0  0  0  0  0  0
   -4.7070   19.5740  -31.5840 N   0  0  0  0  0  0  0  0  0  0  0  0
   -3.9710   18.8510  -31.6760 H   0  0  0  0  0  0  0  0  0  0  0  0
   -4.3790   20.8360  -31.1540 C   0  0  0  0  0  0  0  0  0  0  0  0
   -3.0870   21.1680  -30.7620 N   0  0  0  0  0  0  0  0  0  0  0  0
   -2.0490   20.1090  -30.6450 C   0  0  0  0  0  0  0  0  0  0  0  0
   -1.2849   20.4423  -29.9273 H   0  0  0  0  0  0  0  0  0  0  0  0
   -2.5482   19.1887  -30.3076 H   0  0  0  0  0  0  0  0  0  0  0  0
   -1.3630   19.8020  -31.9890 C   0  0  0  0  0  0  0  0  0  0  0  0
   -0.7945   20.6870  -32.3109 H   0  0  0  0  0  0  0  0  0  0  0  0
   -0.6956   18.9391  -31.8475 H   0  0  0  0  0  0  0  0  0  0  0  0
   -2.3570   19.4570  -33.0400 N   0  0  0  0  0  0  0  0  0  0  0  0
   -2.1840   18.0580  -33.4990 C   0  0  0  0  0  0  0  0  0  0  0  0
   -1.1467   17.9162  -33.8366 H   0  0  0  0  0  0  0  0  0  0  0  0
   -2.4128   17.3840  -32.6603 H   0  0  0  0  0  0  0  0  0  0  0  0
   -3.1330   17.7370  -34.6530 C   0  0  0  0  0  0  0  0  0  0  0  0
   -4.1026   17.4090  -34.2500 H   0  0  0  0  0  0  0  0  0  0  0  0
   -3.2776   18.6362  -35.2698 H   0  0  0  0  0  0  0  0  0  0  0  0
   -2.7020   16.9347  -35.2698 H   0  0  0  0  0  0  0  0  0  0  0  0
   -2.2850   20.4020  -34.1790 C   0  0  0  0  0  0  0  0  0  0  0  0
   -2.3722   19.8414  -35.1214 H   0  0  0  0  0  0  0  0  0  0  0  0
   -3.1075   21.1275  -34.0938 H   0  0  0  0  0  0  0  0  0  0  0  0
   -0.9570   21.1540  -34.1620 C   0  0  0  0  0  0  0  0  0  0  0  0
   -0.6480   21.3290  -33.1209 H   0  0  0  0  0  0  0  0  0  0  0  0
   -0.1904   20.5560  -34.6764 H   0  0  0  0  0  0  0  0  0  0  0  0
   -1.0755   22.1191  -34.6764 H   0  0  0  0  0  0  0  0  0  0  0  0
  1  2  1  0
  2  3  2  0
  3  4  1  0
  4  5  1  0
  5  6  2  0
  5  7  1  0
  7  8  1  0
  8  9  1  0
  8 10  1  0
  8 11  1  0
 11 12  1  0
 12 13  1  0
 13 14  1  0
 13 15  2  0
 15 16  1  0
 15 17  1  0
 17 18  1  0
  4 19  2  0
 19 20  1  0
 19 21  1  0
 21 22  1  0
 22 23  2  0
 22 24  1  0
 24 25  1  0
 25 26  1  0
 25 27  2  0
 27 28  1  0
 27 29  1  0
 29 30  1  0
 29 31  2  0
 31 32  1  0
 32 33  1  0
 32 34  1  0
 32 35  1  0
 31 36  1  0
 36 37  2  0
 37 38  1  0
 37 39  1  0
 39 40  1  0
 40 41  1  0
 41 42  1  0
 41 43  1  0
 41 44  1  0
 44 45  1  0
 44 46  1  0
 44 47  1  0
 47 48  1  0
 48 49  1  0
 48 50  1  0
 48 51  1  0
 51 52  1  0
 51 53  1  0
 51 54  1  0
 47 55  1  0
 55 56  1  0
 55 57  1  0
 55 58  1  0
 58 59  1  0
 58 60  1  0
 58 61  1  0
 40  3  1  0
 17 11  2  0
 39 21  2  0
 36 24  1  0
M  CHG  2   7  -1  37   1
M  END
>  <UniqueID>  (20) 
20

>  <SMILES>  (20) 
[H]/N=c1/c(C(=O)[N-]Cc2ccco2)cc2c(=O)n3cccc(C)c3[nH+]c2n1CCN(CC)CC

>  <Energy>  (20) 
113.57763107691332

>  <Genealogy>  (20) 
CCN(CC)CCn1c(=N)c(C(=O)[N-]Cc2ccco2)cc2c(=O)n3cccc(C)c3[nH+]c21 (protonated)
[H]/N=c1/c(C(=O)[N-]Cc2ccco2)cc2c(=O)n3cccc(C)c3[nH+]c2n1CCN(CC)CC (cis-trans isomerization)
[H]/N=c1/c(C(=O)[N-]Cc2ccco2)cc2c(=O)n3cccc(C)c3[nH+]c2n1CCN(CC)CC (3D coordinates assigned)
[H]/N=c1/c(C(=O)[N-]Cc2ccco2)cc2c(=O)n3cccc(C)c3[nH+]c2n1CCN(CC)CC (optimized conformer: 113.57763107691332 kcal/mol)

>  <smiles>  (20) 
CCN(CC)CCn1c(=N)c(C(=O)NCc2ccco2)cc2c(=O)n3cccc(C)c3nc21

>  <score_type>  (20) 
oracle

>  <origin>  (20) 
adg

>  <m_score__min__energy>  (20) 
-9.6300000000000008

>  <m_primary>  (20) 
energy

$$$$
20:0
     RDKit          3D

 43 46  0  0  0  0  0  0  0  0999 V2000
   -5.3580   26.0040  -30.4460 C   0  0  0  0  0  0  0  0  0  0  0  0
   -4.7610   24.8190  -30.9670 O   0  0  0  0  0  0  0  0  0  0  0  0
   -5.4790   23.7200  -31.4630 C   0  0  0  0  0  0  0  0  0  0  0  0
   -6.8840   23.6880  -31.4750 C   0  0  0  0  0  0  0  0  0  0  0  0
   -7.5640   22.5680  -31.9710 C   0  0  0  0  0  0  0  0  0  0  0  0
   -6.8570   21.4650  -32.4730 C   0  0  0  0  0  0  0  0  0  0  0  0
   -5.4480   21.5070  -32.4690 C   0  0  0  0  0  0  0  0  0  0  0  0
   -4.7580   22.6250  -31.9590 C   0  0  0  0  0  0  0  0  0  0  0  0
   -3.3550   22.6850  -31.9310 O   0  0  0  0  0  0  0  0  0  0  0  0
   -2.4920   21.5780  -32.1680 C   0  0  0  0  0  0  0  0  0  0  0  0
   -7.6660   20.3290  -33.1110 C   0  0  1  0  0  0  0  0  0  0  0  0
   -6.8320   19.0780  -33.3510 C   0  0  0  0  0  0  0  0  0  0  0  0
   -6.0410   18.9450  -34.5060 C   0  0  0  0  0  0  0  0  0  0  0  0
   -5.2100   17.8310  -34.6650 C   0  0  0  0  0  0  0  0  0  0  0  0
   -5.1640   16.8440  -33.6750 C   0  0  0  0  0  0  0  0  0  0  0  0
   -5.9600   16.9600  -32.5320 C   0  0  0  0  0  0  0  0  0  0  0  0
   -6.8020   18.0710  -32.3750 C   0  0  0  0  0  0  0  0  0  0  0  0
   -7.7350   18.1880  -31.2130 C   0  0  0  0  0  0  0  0  0  0  0  0
   -9.0750   18.7060  -31.7390 C   0  0  0  0  0  0  0  0  0  0  0  0
   -8.9490   20.0420  -32.3740 N   0  0  0  0  0  0  0  0  0  0  0  0
   -9.4630   21.1100  -31.4820 C   0  0  0  0  0  0  0  0  0  0  0  0
   -9.0580   22.5050  -31.9530 C   0  0  0  0  0  0  0  0  0  0  0  0
   -5.3410   25.9703  -29.3466 H   0  0  0  0  0  0  0  0  0  0  0  0
   -4.7947   26.8822  -30.7947 H   0  0  0  0  0  0  0  0  0  0  0  0
   -6.3989   26.0740  -30.7947 H   0  0  0  0  0  0  0  0  0  0  0  0
   -7.4535   24.5479  -31.0925 H   0  0  0  0  0  0  0  0  0  0  0  0
   -4.8790   20.6551  -32.8696 H   0  0  0  0  0  0  0  0  0  0  0  0
   -2.1636   21.1567  -31.2064 H   0  0  0  0  0  0  0  0  0  0  0  0
   -3.0311   20.8087  -32.7404 H   0  0  0  0  0  0  0  0  0  0  0  0
   -1.6145   21.9131  -32.7404 H   0  0  0  0  0  0  0  0  0  0  0  0
   -7.9643   20.6903  -34.1062 H   0  0  0  0  0  0  0  0  0  0  0  0
   -6.0758   19.7192  -35.2867 H   0  0  0  0  0  0  0  0  0  0  0  0
   -4.5921   17.7311  -35.5695 H   0  0  0  0  0  0  0  0  0  0  0  0
   -4.5003   15.9752  -33.7962 H   0  0  0  0  0  0  0  0  0  0  0  0
   -5.9263   16.1808  -31.7563 H   0  0  0  0  0  0  0  0  0  0  0  0
   -7.8730   17.2029  -30.7433 H   0  0  0  0  0  0  0  0  0  0  0  0
   -7.3257   18.8773  -30.4597 H   0  0  0  0  0  0  0  0  0  0  0  0
   -9.4622   17.9949  -32.4836 H   0  0  0  0  0  0  0  0  0  0  0  0
   -9.7596   18.8018  -30.8834 H   0  0  0  0  0  0  0  0  0  0  0  0
  -10.5611   21.0507  -31.4558 H   0  0  0  0  0  0  0  0  0  0  0  0
   -9.0276   20.9527  -30.4841 H   0  0  0  0  0  0  0  0  0  0  0  0
   -9.4520   22.6873  -32.9637 H   0  0  0  0  0  0  0  0  0  0  0  0
   -9.4658   23.2711  -31.2772 H   0  0  0  0  0  0  0  0  0  0  0  0
  1  2  1  0
  2  3  1  0
  3  4  2  0
  4  5  1  0
  5  6  2  0
  6  7  1  0
  7  8  2  0
  8  9  1  0
  9 10  1  0
  6 11  1  0
 11 12  1  0
 12 13  2  0
 13 14  1  0
 14 15  2  0
 15 16  1  0
 16 17  2  0
 17 18  1  0
 18 19  1  0
 19 20  1  0
 20 21  1  0
 21 22  1  0
  8  3  1  0
 20 11  1  0
 22  5  1  0
 17 12  1  0
  1 23  1  0
  1 24  1  0
  1 25  1  0
  4 26  1  0
  7 27  1  0
 10 28  1  0
 10 29  1  0
 10 30  1  0
 11 31  1  6
 13 32  1  0
 14 33  1  0
 15 34  1  0
 16 35  1  0
 18 36  1  0
 18 37  1  0
 19 38  1  0
 19 39  1  0
 21 40  1  0
 21 41  1  0
 22 42  1  0
 22 43  1  0
M  END
>  <UniqueID>  (21) 
21

>  <SMILES>  (21) 
COc1cc2c(cc1OC)[C@H]1c3ccccc3CCN1CC2

>  <Energy>  (21) 
67.12889299091472

>  <Genealogy>  (21) 
COc1cc2c(cc1OC)[C@H]1c3ccccc3CCN1CC2 (chirality)
COc1cc2c(cc1OC)[C@H]1c3ccccc3CCN1CC2 (3D coordinates assigned)
COc1cc2c(cc1OC)[C@H]1c3ccccc3CCN1CC2 (nonaromatic ring conformer: 67.12889299091472 kcal/mol)

>  <smiles>  (21) 
COc1cc2c(cc1OC)C1c3ccccc3CCN1CC2

>  <score_type>  (21) 
oracle

>  <origin>  (21) 
adg

>  <m_score__min__energy>  (21) 
-9.5800000000000001

>  <m_primary>  (21) 
energy

$$$$
21:0
     RDKit          3D

 47 49  0  0  0  0  0  0  0  0999 V2000
   -6.8340   15.3360  -34.2170 C   0  0  0  0  0  0  0  0  0  0  0  0
   -6.8960   16.6980  -33.8070 O   0  0  0  0  0  0  0  0  0  0  0  0
   -5.7750   17.5170  -33.6060 C   0  0  0  0  0  0  0  0  0  0  0  0
   -4.4700   17.0000  -33.5200 C   0  0  0  0  0  0  0  0  0  0  0  0
   -3.3850   17.8570  -33.3290 C   0  0  0  0  0  0  0  0  0  0  0  0
   -3.5810   19.2380  -33.2140 C   0  0  0  0  0  0  0  0  0  0  0  0
   -2.1740   20.2730  -33.0120 S   0  0  0  0  0  0  0  0  0  0  0  0
   -2.5560   21.8840  -33.2920 O   0  0  0  0  0  0  0  0  0  0  0  0
   -1.3970   20.0440  -31.4270 C   0  0  0  0  0  0  0  0  0  0  0  0
   -1.8860   21.0930  -30.4700 C   0  0  0  0  0  0  0  0  0  0  0  0
   -3.0280   20.8570  -29.6870 C   0  0  0  0  0  0  0  0  0  0  0  0
   -3.5120   21.8510  -28.8300 C   0  0  0  0  0  0  0  0  0  0  0  0
   -2.8650   23.0880  -28.7590 C   0  0  0  0  0  0  0  0  0  0  0  0
   -1.7340   23.3350  -29.5430 C   0  0  0  0  0  0  0  0  0  0  0  0
   -1.1150   24.5380  -29.4790 F   0  0  0  0  0  0  0  0  0  0  0  0
   -1.2460   22.3410  -30.3970 C   0  0  0  0  0  0  0  0  0  0  0  0
   -4.8900   19.7720  -33.2830 C   0  0  0  0  0  0  0  0  0  0  0  0
   -5.1310   21.1950  -33.1930 N   0  0  0  0  0  0  0  0  0  0  0  0
   -6.2510   21.4650  -32.2810 C   0  0  0  0  0  0  0  0  0  0  0  0
   -6.0410   22.7690  -31.5570 C   0  0  0  0  0  0  0  0  0  0  0  0
   -7.0760   23.3520  -30.8130 C   0  0  0  0  0  0  0  0  0  0  0  0
   -6.8530   24.5470  -30.1260 C   0  0  0  0  0  0  0  0  0  0  0  0
   -5.5910   25.1430  -30.1800 C   0  0  0  0  0  0  0  0  0  0  0  0
   -4.5910   24.5560  -30.8910 N   0  0  0  0  0  0  0  0  0  0  0  0
   -4.7850   23.3940  -31.5700 C   0  0  0  0  0  0  0  0  0  0  0  0
   -5.9730   18.8970  -33.4920 C   0  0  0  0  0  0  0  0  0  0  0  0
   -6.8045   14.6869  -33.3294 H   0  0  0  0  0  0  0  0  0  0  0  0
   -7.7220   15.0936  -34.8192 H   0  0  0  0  0  0  0  0  0  0  0  0
   -5.9276   15.1752  -34.8192 H   0  0  0  0  0  0  0  0  0  0  0  0
   -4.3037   15.9159  -33.6036 H   0  0  0  0  0  0  0  0  0  0  0  0
   -2.3675   17.4436  -33.2684 H   0  0  0  0  0  0  0  0  0  0  0  0
   -2.3220   22.0320  -34.2420 H   0  0  0  0  0  0  0  0  0  0  0  0
   -1.6483   19.0467  -31.0368 H   0  0  0  0  0  0  0  0  0  0  0  0
   -0.3062   20.1315  -31.5388 H   0  0  0  0  0  0  0  0  0  0  0  0
   -3.5435   19.8872  -29.7479 H   0  0  0  0  0  0  0  0  0  0  0  0
   -4.4016   21.6592  -28.2121 H   0  0  0  0  0  0  0  0  0  0  0  0
   -3.2465   23.8689  -28.0848 H   0  0  0  0  0  0  0  0  0  0  0  0
   -0.3570   22.5374  -31.0143 H   0  0  0  0  0  0  0  0  0  0  0  0
   -4.2730   21.6780  -32.8350 H   0  0  0  0  0  0  0  0  0  0  0  0
   -5.3270   21.5870  -34.1420 H   0  0  0  0  0  0  0  0  0  0  0  0
   -7.1844   21.5192  -32.8605 H   0  0  0  0  0  0  0  0  0  0  0  0
   -6.3100   20.6533  -31.5409 H   0  0  0  0  0  0  0  0  0  0  0  0
   -8.0631   22.8685  -30.7704 H   0  0  0  0  0  0  0  0  0  0  0  0
   -7.6636   25.0146  -29.5477 H   0  0  0  0  0  0  0  0  0  0  0  0
   -5.4057   26.0874  -29.6473 H   0  0  0  0  0  0  0  0  0  0  0  0
   -3.9540   22.9423  -32.1316 H   0  0  0  0  0  0  0  0  0  0  0  0
   -6.9917   19.3053  -33.5669 H   0  0  0  0  0  0  0  0  0  0  0  0
  1  2  1  0
  2  3  1  0
  3  4  2  0
  4  5  1  0
  5  6  2  0
  6  7  1  0
  7  8  1  1
  7  9  1  0
  9 10  1  0
 10 11  2  0
 11 12  1  0
 12 13  2  0
 13 14  1  0
 14 15  1  0
 14 16  2  0
  6 17  1  0
 17 18  1  0
 18 19  1  0
 19 20  1  0
 20 21  2  0
 21 22  1  0
 22 23  2  0
 23 24  1  0
 24 25  2  0
 17 26  2  0
 26  3  1  0
 16 10  1  0
 25 20  1  0
  1 27  1  0
  1 28  1  0
  1 29  1  0
  4 30  1  0
  5 31  1  0
  8 32  1  0
  9 33  1  0
  9 34  1  0
 11 35  1  0
 12 36  1  0
 13 37  1  0
 16 38  1  0
 18 39  1  0
 18 40  1  0
 19 41  1  0
 19 42  1  0
 21 43  1  0
 22 44  1  0
 23 45  1  0
 25 46  1  0
 26 47  1  0
M  CHG  2   7   1  18   1
M  END
>  <UniqueID>  (22) 
22

>  <SMILES>  (22) 
COc1ccc([S@@+](O)Cc2cccc(F)c2)c([NH2+]Cc2cccnc2)c1

>  <Energy>  (22) 
43.61535658660218

>  <Genealogy>  (22) 
COc1ccc([S+](O)Cc2cccc(F)c2)c([NH2+]Cc2cccnc2)c1 (protonated)
COc1ccc([S@@+](O)Cc2cccc(F)c2)c([NH2+]Cc2cccnc2)c1 (chirality)
COc1ccc([S@@+](O)Cc2cccc(F)c2)c([NH2+]Cc2cccnc2)c1 (3D coordinates assigned)
COc1ccc([S@@+](O)Cc2cccc(F)c2)c([NH2+]Cc2cccnc2)c1 (optimized conformer: 43.61535658660218 kcal/mol)

>  <smiles>  (22) 
COc1ccc([S+]([O-])Cc2cccc(F)c2)c(NCc2cccnc2)c1

>  <score_type>  (22) 
oracle

>  <origin>  (22) 
adg

>  <m_score__min__energy>  (22) 
-7.8899999999999997

>  <m_primary>  (22) 
energy

$$$$
22:0
     RDKit          3D

 28 29  0  0  0  0  0  0  0  0999 V2000
   -0.7110   22.1160  -29.1280 C   0  0  0  0  0  0  0  0  0  0  0  0
   -2.0540   22.2500  -28.5690 N   0  0  0  0  0  0  0  0  0  0  0  0
   -2.7170   21.3280  -27.8430 C   0  0  0  0  0  0  0  0  0  0  0  0
   -3.9410   21.7690  -27.4890 N   0  0  0  0  0  0  0  0  0  0  0  0
   -4.0590   22.9870  -27.9960 N   0  0  0  0  0  0  0  0  0  0  0  0
   -2.9210   23.2830  -28.6500 C   0  0  0  0  0  0  0  0  0  0  0  0
   -2.6910   24.5650  -29.3460 C   0  0  0  0  0  0  0  0  0  0  0  0
   -1.7670   25.3270  -28.9500 O   0  0  0  0  0  0  0  0  0  0  0  0
   -3.5000   24.9470  -30.4590 N   0  0  0  0  0  0  0  0  0  0  0  0
   -5.2300   24.9580  -30.4000 S   0  0  0  0  0  0  0  0  0  0  0  0
   -5.7360   26.1710  -31.1290 O   0  0  0  0  0  0  0  0  0  0  0  0
   -5.6900   24.9910  -28.9700 O   0  0  0  0  0  0  0  0  0  0  0  0
   -5.8490   23.5040  -31.1740 C   0  0  0  0  0  0  0  0  0  0  0  0
   -7.2240   23.2300  -31.1630 C   0  0  0  0  0  0  0  0  0  0  0  0
   -7.7150   22.0710  -31.7730 C   0  0  0  0  0  0  0  0  0  0  0  0
   -6.8340   21.1800  -32.3930 C   0  0  0  0  0  0  0  0  0  0  0  0
   -5.4620   21.4460  -32.4010 C   0  0  0  0  0  0  0  0  0  0  0  0
   -4.9690   22.6030  -31.7910 C   0  0  0  0  0  0  0  0  0  0  0  0
    0.0210   22.0430  -28.3101 H   0  0  0  0  0  0  0  0  0  0  0  0
   -0.6605   21.2084  -29.7474 H   0  0  0  0  0  0  0  0  0  0  0  0
   -0.4822   22.9958  -29.7474 H   0  0  0  0  0  0  0  0  0  0  0  0
   -2.3113   20.3417  -27.5737 H   0  0  0  0  0  0  0  0  0  0  0  0
   -4.9040   23.5910  -27.8890 H   0  0  0  0  0  0  0  0  0  0  0  0
   -7.9185   23.9284  -30.6733 H   0  0  0  0  0  0  0  0  0  0  0  0
   -8.7946   21.8605  -31.7649 H   0  0  0  0  0  0  0  0  0  0  0  0
   -7.2206   20.2697  -32.8745 H   0  0  0  0  0  0  0  0  0  0  0  0
   -4.7692   20.7439  -32.8880 H   0  0  0  0  0  0  0  0  0  0  0  0
   -3.8882   22.8073  -31.7949 H   0  0  0  0  0  0  0  0  0  0  0  0
  1  2  1  0
  2  3  1  0
  3  4  2  0
  4  5  1  0
  5  6  2  0
  6  7  1  0
  7  8  2  0
  7  9  1  0
  9 10  1  0
 10 11  2  0
 10 12  2  0
 10 13  1  0
 13 14  2  0
 14 15  1  0
 15 16  2  0
 16 17  1  0
 17 18  2  0
  6  2  1  0
 18 13  1  0
  1 19  1  0
  1 20  1  0
  1 21  1  0
  3 22  1  0
  5 23  1  0
 14 24  1  0
 15 25  1  0
 16 26  1  0
 17 27  1  0
 18 28  1  0
M  CHG  2   5   1   9  -1
M  END
>  <UniqueID>  (23) 
23

>  <SMILES>  (23) 
Cn1cn[nH+]c1C(=O)[N-]S(=O)(=O)c1ccccc1

>  <Energy>  (23) 
65.23613705510868

>  <Genealogy>  (23) 
Cn1cn[nH+]c1C(=O)[N-]S(=O)(=O)c1ccccc1 (protonated)
Cn1cn[nH+]c1C(=O)[N-]S(=O)(=O)c1ccccc1 (3D coordinates assigned)
Cn1cn[nH+]c1C(=O)[N-]S(=O)(=O)c1ccccc1 (optimized conformer: 65.23613705510868 kcal/mol)

>  <smiles>  (23) 
Cn1cnnc1C(=O)NS(=O)(=O)c1ccccc1

>  <score_type>  (23) 
oracle

>  <origin>  (23) 
adg

>  <m_score__min__energy>  (23) 
-7.1900000000000004

>  <m_primary>  (23) 
energy

$$$$
23:0
     RDKit          3D

 19 20  0  0  0  0  0  0  0  0999 V2000
   -6.1480   25.8440  -29.3550 C   0  0  0  0  0  0  0  0  0  0  0  0
   -5.8260   24.7240  -30.2820 C   0  0  0  0  0  0  0  0  0  0  0  0
   -4.6130   24.5440  -30.8480 N   0  0  0  0  0  0  0  0  0  0  0  0
   -4.5340   23.4390  -31.5870 N   0  0  0  0  0  0  0  0  0  0  0  0
   -5.6790   22.7160  -31.6090 C   0  0  0  0  0  0  0  0  0  0  0  0
   -5.8320   21.4470  -32.3570 C   0  0  0  0  0  0  0  0  0  0  0  0
   -7.0710   20.7850  -32.3880 C   0  0  0  0  0  0  0  0  0  0  0  0
   -7.2090   19.5890  -33.0940 C   0  0  0  0  0  0  0  0  0  0  0  0
   -6.1070   19.0600  -33.7660 C   0  0  0  0  0  0  0  0  0  0  0  0
   -4.9140   19.7070  -33.7300 N   0  0  0  0  0  0  0  0  0  0  0  0
   -4.7510   20.8740  -33.0500 C   0  0  0  0  0  0  0  0  0  0  0  0
   -6.8680   23.4600  -30.6670 S   0  0  0  0  0  0  0  0  0  0  0  0
   -6.0489   25.4993  -28.3151 H   0  0  0  0  0  0  0  0  0  0  0  0
   -5.4533   26.6782  -29.5326 H   0  0  0  0  0  0  0  0  0  0  0  0
   -7.1797   26.1819  -29.5326 H   0  0  0  0  0  0  0  0  0  0  0  0
   -7.9340   21.2103  -31.8547 H   0  0  0  0  0  0  0  0  0  0  0  0
   -8.1777   19.0684  -33.1203 H   0  0  0  0  0  0  0  0  0  0  0  0
   -6.2047   18.1180  -34.3255 H   0  0  0  0  0  0  0  0  0  0  0  0
   -3.7698   21.3712  -33.0423 H   0  0  0  0  0  0  0  0  0  0  0  0
  1  2  1  0
  2  3  2  0
  3  4  1  0
  4  5  2  0
  5  6  1  0
  6  7  2  0
  7  8  1  0
  8  9  2  0
  9 10  1  0
 10 11  2  0
  5 12  1  0
 12  2  1  0
 11  6  1  0
  1 13  1  0
  1 14  1  0
  1 15  1  0
  7 16  1  0
  8 17  1  0
  9 18  1  0
 11 19  1  0
M  END
>  <UniqueID>  (24) 
24

>  <SMILES>  (24) 
Cc1nnc(-c2cccnc2)s1

>  <Energy>  (24) 
53.53193371224944

>  <Genealogy>  (24) 
Cc1nnc(-c2cccnc2)s1 (3D coordinates assigned)
Cc1nnc(-c2cccnc2)s1 (optimized conformer: 53.53193371224944 kcal/mol)

>  <smiles>  (24) 
Cc1nnc(-c2cccnc2)s1

>  <score_type>  (24) 
oracle

>  <origin>  (24) 
adg

>  <m_score__min__energy>  (24) 
-6

>  <m_primary>  (24) 
energy

$$$$
24:0
     RDKit          3D

 58 61  0  0  0  0  0  0  0  0999 V2000
   -8.8710   18.4890  -31.8140 C   0  0  0  0  0  0  0  0  0  0  0  0
   -7.8510   19.5750  -31.9920 C   0  0  0  0  0  0  0  0  0  0  0  0
   -8.2590   20.9080  -32.1460 C   0  0  0  0  0  0  0  0  0  0  0  0
   -7.3080   21.9260  -32.2730 C   0  0  0  0  0  0  0  0  0  0  0  0
   -5.9370   21.6250  -32.2380 C   0  0  0  0  0  0  0  0  0  0  0  0
   -4.9060   22.7140  -32.3910 C   0  0  0  0  0  0  0  0  0  0  0  0
   -5.0970   23.7460  -31.3680 N   0  0  0  0  0  0  0  0  0  0  0  0
   -6.1690   24.5590  -31.2700 C   0  0  0  0  0  0  0  0  0  0  0  0
   -6.1510   25.3150  -30.1530 N   0  0  0  0  0  0  0  0  0  0  0  0
   -5.0140   24.9580  -29.5230 C   0  0  0  0  0  0  0  0  0  0  0  0
   -4.3580   23.9980  -30.2660 C   0  0  0  0  0  0  0  0  0  0  0  0
   -3.0660   23.3090  -29.8810 C   0  0  0  0  0  0  0  0  0  0  0  0
   -2.9020   23.1220  -28.4200 N   0  0  0  0  0  0  0  0  0  0  0  0
   -2.1060   21.9200  -28.0800 C   0  0  0  0  0  0  0  0  0  0  0  0
   -0.6070   22.1650  -28.2970 C   0  0  0  0  0  0  0  0  0  0  0  0
   -0.0170   23.2930  -27.4410 C   0  0  0  0  0  0  0  0  0  0  0  0
    0.0570   24.5600  -28.2080 N   0  0  0  0  0  0  0  0  0  0  0  0
    0.7800   25.6010  -27.4450 C   0  0  0  0  0  0  0  0  0  0  0  0
   -0.0720   26.1100  -26.3140 C   0  0  0  0  0  0  0  0  0  0  0  0
   -0.4530   25.3770  -25.2080 C   0  0  0  0  0  0  0  0  0  0  0  0
   -1.2040   26.2560  -24.4520 C   0  0  0  0  0  0  0  0  0  0  0  0
   -1.2710   27.4490  -25.0750 N   0  0  0  0  0  0  0  0  0  0  0  0
   -0.5840   27.3540  -26.2030 N   0  0  0  0  0  0  0  0  0  0  0  0
   -0.4270   28.4560  -27.1450 C   0  0  0  0  0  0  0  0  0  0  0  0
   -1.3020   25.0290  -28.5780 C   0  0  0  0  0  0  0  0  0  0  0  0
   -2.3860   24.3360  -27.7460 C   0  0  0  0  0  0  0  0  0  0  0  0
   -5.5310   20.2920  -32.0600 C   0  0  0  0  0  0  0  0  0  0  0  0
   -6.4810   19.2750  -31.9310 C   0  0  0  0  0  0  0  0  0  0  0  0
   -9.0360   18.3133  -30.7407 H   0  0  0  0  0  0  0  0  0  0  0  0
   -9.8170   18.7937  -32.2854 H   0  0  0  0  0  0  0  0  0  0  0  0
   -8.5077   17.5639  -32.2854 H   0  0  0  0  0  0  0  0  0  0  0  0
   -9.3310   21.1539  -32.1670 H   0  0  0  0  0  0  0  0  0  0  0  0
   -7.6361   22.9681  -32.4010 H   0  0  0  0  0  0  0  0  0  0  0  0
   -3.9012   22.2794  -32.2841 H   0  0  0  0  0  0  0  0  0  0  0  0
   -5.0160   23.1723  -33.3849 H   0  0  0  0  0  0  0  0  0  0  0  0
   -6.9719   24.6010  -32.0207 H   0  0  0  0  0  0  0  0  0  0  0  0
   -4.6633   25.3686  -28.5646 H   0  0  0  0  0  0  0  0  0  0  0  0
   -3.0432   22.3201  -30.3622 H   0  0  0  0  0  0  0  0  0  0  0  0
   -2.2437   23.9583  -30.2159 H   0  0  0  0  0  0  0  0  0  0  0  0
   -2.2780   21.6630  -27.0244 H   0  0  0  0  0  0  0  0  0  0  0  0
   -2.4222   21.0966  -28.7373 H   0  0  0  0  0  0  0  0  0  0  0  0
   -0.0689   21.2356  -28.0591 H   0  0  0  0  0  0  0  0  0  0  0  0
   -0.4888   22.4735  -29.3462 H   0  0  0  0  0  0  0  0  0  0  0  0
   -0.6540   23.4444  -26.5571 H   0  0  0  0  0  0  0  0  0  0  0  0
    1.0011   23.0070  -27.1383 H   0  0  0  0  0  0  0  0  0  0  0  0
    1.7068   25.1724  -27.0360 H   0  0  0  0  0  0  0  0  0  0  0  0
    1.0154   26.4380  -28.1187 H   0  0  0  0  0  0  0  0  0  0  0  0
   -0.2125   24.3281  -24.9799 H   0  0  0  0  0  0  0  0  0  0  0  0
   -1.6760   26.0181  -23.4873 H   0  0  0  0  0  0  0  0  0  0  0  0
   -0.2930   29.3963  -26.5902 H   0  0  0  0  0  0  0  0  0  0  0  0
    0.4544   28.2748  -27.7777 H   0  0  0  0  0  0  0  0  0  0  0  0
   -1.3239   28.5281  -27.7777 H   0  0  0  0  0  0  0  0  0  0  0  0
   -1.3628   26.1144  -28.4098 H   0  0  0  0  0  0  0  0  0  0  0  0
   -1.4731   24.7843  -29.6367 H   0  0  0  0  0  0  0  0  0  0  0  0
   -1.9600   24.0497  -26.7731 H   0  0  0  0  0  0  0  0  0  0  0  0
   -3.2223   25.0391  -27.6188 H   0  0  0  0  0  0  0  0  0  0  0  0
   -4.4593   20.0472  -32.0219 H   0  0  0  0  0  0  0  0  0  0  0  0
   -6.1539   18.2355  -31.7811 H   0  0  0  0  0  0  0  0  0  0  0  0
  1  2  1  0
  2  3  2  0
  3  4  1  0
  4  5  2  0
  5  6  1  0
  6  7  1  0
  7  8  1  0
  8  9  2  0
  9 10  1  0
 10 11  2  0
 11 12  1  0
 12 13  1  0
 13 14  1  0
 14 15  1  0
 15 16  1  0
 16 17  1  0
 17 18  1  0
 18 19  1  0
 19 20  2  0
 20 21  1  0
 21 22  2  0
 22 23  1  0
 23 24  1  0
 17 25  1  0
 25 26  1  0
  5 27  1  0
 27 28  2  0
 28  2  1  0
 11  7  1  0
 26 13  1  0
 23 19  1  0
  1 29  1  0
  1 30  1  0
  1 31  1  0
  3 32  1  0
  4 33  1  0
  6 34  1  0
  6 35  1  0
  8 36  1  0
 10 37  1  0
 12 38  1  0
 12 39  1  0
 14 40  1  0
 14 41  1  0
 15 42  1  0
 15 43  1  0
 16 44  1  0
 16 45  1  0
 18 46  1  0
 18 47  1  0
 20 48  1  0
 21 49  1  0
 24 50  1  0
 24 51  1  0
 24 52  1  0
 25 53  1  0
 25 54  1  0
 26 55  1  0
 26 56  1  0
 27 57  1  0
 28 58  1  0
M  END
>  <UniqueID>  (25) 
25

>  <SMILES>  (25) 
Cc1ccc(Cn2cncc2CN2CCCN(Cc3ccnn3C)CC2)cc1

>  <Energy>  (25) 
128.22971353656928

>  <Genealogy>  (25) 
Cc1ccc(Cn2cncc2CN2CCCN(Cc3ccnn3C)CC2)cc1 (3D coordinates assigned)
Cc1ccc(Cn2cncc2CN2CCCN(Cc3ccnn3C)CC2)cc1 (nonaromatic ring conformer: 128.22971353656928 kcal/mol)

>  <smiles>  (25) 
Cc1ccc(Cn2cncc2CN2CCCN(Cc3ccnn3C)CC2)cc1

>  <score_type>  (25) 
oracle

>  <origin>  (25) 
adg

>  <m_score__min__energy>  (25) 
-6.0099999999999998

>  <m_primary>  (25) 
energy

$$$$
25:0
     RDKit          3D

 40 42  0  0  1  0  0  0  0  0999 V2000
   -5.0310   22.8190  -32.3520 C   0  0  0  0  0  0  0  0  0  0  0  0
   -5.5620   23.6990  -31.3700 N   0  0  0  0  0  0  0  0  0  0  0  0
   -6.8610   23.9210  -31.1470 C   0  0  0  0  0  0  0  0  0  0  0  0
   -8.3430   23.3050  -31.7960 S   0  0  0  0  0  0  0  0  0  0  0  0
   -9.0350   21.7980  -31.3050 C   0  0  0  0  0  0  0  0  0  0  0  0
   -8.4460   20.5500  -31.8410 C   0  0  0  0  0  0  0  0  0  0  0  0
   -7.3760   20.7120  -32.7390 C   0  0  0  0  0  0  0  0  0  0  0  0
   -6.7230   19.6300  -33.2850 C   0  0  0  0  0  0  0  0  0  0  0  0
   -7.0990   18.3330  -32.9680 C   0  0  0  0  0  0  0  0  0  0  0  0
   -8.1530   18.1700  -32.0820 C   0  0  0  0  0  0  0  0  0  0  0  0
   -8.7990   19.2840  -31.5420 C   0  0  0  0  0  0  0  0  0  0  0  0
   -6.8540   24.8570  -30.1260 N   0  0  0  0  0  0  0  0  0  0  0  0
   -5.6230   25.1400  -29.7970 N   0  0  0  0  0  0  0  0  0  0  0  0
   -4.7890   24.4430  -30.5440 C   0  0  0  0  0  0  0  0  0  0  0  0
   -3.5000   24.4960  -30.4660 N   0  0  0  0  0  0  0  0  0  0  0  0
   -2.7120   23.7280  -29.5550 C   0  0  0  0  0  0  0  0  0  0  0  0
   -2.4760   24.5170  -28.3150 C   0  0  0  0  0  0  0  0  0  0  0  0
   -1.3380   25.3080  -28.2260 C   0  0  0  0  0  0  0  0  0  0  0  0
   -1.0970   26.0470  -27.0880 C   0  0  0  0  0  0  0  0  0  0  0  0
   -1.9560   26.0390  -25.9980 C   0  0  0  0  0  0  0  0  0  0  0  0
   -3.0810   25.2550  -26.0900 C   0  0  0  0  0  0  0  0  0  0  0  0
   -3.3150   24.5160  -27.2360 C   0  0  0  0  0  0  0  0  0  0  0  0
   -4.5239   21.9786  -31.8554 H   0  0  0  0  0  0  0  0  0  0  0  0
   -5.8481   22.4347  -32.9802 H   0  0  0  0  0  0  0  0  0  0  0  0
   -4.3101   23.3627  -32.9802 H   0  0  0  0  0  0  0  0  0  0  0  0
   -8.9630   21.7479  -30.2085 H   0  0  0  0  0  0  0  0  0  0  0  0
  -10.0539   21.8182  -31.7190 H   0  0  0  0  0  0  0  0  0  0  0  0
   -7.0531   21.7276  -33.0117 H   0  0  0  0  0  0  0  0  0  0  0  0
   -5.8899   19.7966  -33.9837 H   0  0  0  0  0  0  0  0  0  0  0  0
   -6.5803   17.4661  -33.4033 H   0  0  0  0  0  0  0  0  0  0  0  0
   -8.4819   17.1581  -31.8031 H   0  0  0  0  0  0  0  0  0  0  0  0
   -9.6320   19.1213  -30.8423 H   0  0  0  0  0  0  0  0  0  0  0  0
   -5.3730   25.8190  -29.0510 H   0  0  0  0  0  0  0  0  0  0  0  0
   -3.2445   22.7991  -29.3027 H   0  0  0  0  0  0  0  0  0  0  0  0
   -1.7469   23.4824  -30.0223 H   0  0  0  0  0  0  0  0  0  0  0  0
   -0.6278   25.3447  -29.0652 H   0  0  0  0  0  0  0  0  0  0  0  0
   -0.1893   26.6667  -27.0419 H   0  0  0  0  0  0  0  0  0  0  0  0
   -1.7452   26.6353  -25.0980 H   0  0  0  0  0  0  0  0  0  0  0  0
   -3.7944   25.2151  -25.2537 H   0  0  0  0  0  0  0  0  0  0  0  0
   -4.2225   23.8960  -27.2811 H   0  0  0  0  0  0  0  0  0  0  0  0
  1  2  1  0
  2  3  1  0
  3  4  1  0
  4  5  1  0
  5  6  1  0
  6  7  2  0
  7  8  1  0
  8  9  2  0
  9 10  1  0
 10 11  2  0
  3 12  2  0
 12 13  1  0
 13 14  1  0
 14 15  2  0
 15 16  1  0
 16 17  1  0
 17 18  2  0
 18 19  1  0
 19 20  2  0
 20 21  1  0
 21 22  2  0
 14  2  1  0
 22 17  1  0
 11  6  1  0
  1 23  1  0
  1 24  1  0
  1 25  1  0
  5 26  1  0
  5 27  1  0
  7 28  1  0
  8 29  1  0
  9 30  1  0
 10 31  1  0
 11 32  1  0
 13 33  1  0
 16 34  1  0
 16 35  1  0
 18 36  1  0
 19 37  1  0
 20 38  1  0
 21 39  1  0
 22 40  1  0
M  END
>  <smiles>  (26) 
Cn1c(SCc2ccccc2)n[nH]c1=NCc1ccccc1

>  <score_type>  (26) 
oracle

>  <origin>  (26) 
adg

>  <m_score__min__energy>  (26) 
-8.9499999999999993

>  <m_primary>  (26) 
energy

$$$$
26:0
     RDKit          3D

 48 50  0  0  0  0  0  0  0  0999 V2000
   -3.6680   20.0040  -33.3360 C   0  0  0  0  0  0  0  0  0  0  0  0
   -5.0760   20.1420  -33.1770 O   0  0  0  0  0  0  0  0  0  0  0  0
   -5.6980   21.1110  -32.3730 C   0  0  0  0  0  0  0  0  0  0  0  0
   -4.9480   22.0130  -31.5910 C   0  0  0  0  0  0  0  0  0  0  0  0
   -5.5860   22.9880  -30.8170 C   0  0  0  0  0  0  0  0  0  0  0  0
   -4.6310   24.1440  -29.8870 S   0  0  0  0  0  0  0  0  0  0  0  0
   -5.5590   24.9560  -29.0270 O   0  0  0  0  0  0  0  0  0  0  0  0
   -3.9400   25.0880  -30.8330 O   0  0  0  0  0  0  0  0  0  0  0  0
   -3.4350   23.3650  -28.8720 N   0  0  0  0  0  0  0  0  0  0  0  0
   -2.1950   23.0250  -29.6030 C   0  0  0  0  0  0  0  0  0  0  0  0
   -1.0480   24.0110  -29.3280 C   0  0  0  0  0  0  0  0  0  0  0  0
   -1.5560   25.2910  -29.0370 O   0  0  0  0  0  0  0  0  0  0  0  0
   -2.2020   25.2730  -27.7790 C   0  0  0  0  0  0  0  0  0  0  0  0
   -3.1950   24.0980  -27.6150 C   0  0  0  0  0  0  0  0  0  0  0  0
   -6.9820   23.0490  -30.7980 C   0  0  0  0  0  0  0  0  0  0  0  0
   -7.7370   22.1590  -31.5600 C   0  0  0  0  0  0  0  0  0  0  0  0
   -7.1070   21.1860  -32.3620 C   0  0  0  0  0  0  0  0  0  0  0  0
   -7.8770   20.2660  -33.1650 N   0  0  0  0  0  0  0  0  0  0  0  0
   -8.7500   19.2220  -32.6260 C   0  0  0  0  0  0  0  0  0  0  0  0
   -7.9730   17.9140  -32.4150 C   0  0  2  0  0  0  0  0  0  0  0  0
   -6.9810   18.0270  -31.2700 C   0  0  0  0  0  0  0  0  0  0  0  0
   -5.8970   17.0840  -31.6880 C   0  0  0  0  0  0  0  0  0  0  0  0
   -6.0040   17.0840  -33.2020 C   0  0  0  0  0  0  0  0  0  0  0  0
   -7.2680   17.5740  -33.5890 O   0  0  0  0  0  0  0  0  0  0  0  0
   -3.1901   19.9572  -32.3463 H   0  0  0  0  0  0  0  0  0  0  0  0
   -3.4506   19.0802  -33.8923 H   0  0  0  0  0  0  0  0  0  0  0  0
   -3.2754   20.8680  -33.8923 H   0  0  0  0  0  0  0  0  0  0  0  0
   -3.8498   21.9494  -31.5895 H   0  0  0  0  0  0  0  0  0  0  0  0
   -1.8729   22.0183  -29.2983 H   0  0  0  0  0  0  0  0  0  0  0  0
   -2.4219   23.0747  -30.6782 H   0  0  0  0  0  0  0  0  0  0  0  0
   -0.4598   23.6517  -28.4707 H   0  0  0  0  0  0  0  0  0  0  0  0
   -0.4129   24.0760  -30.2238 H   0  0  0  0  0  0  0  0  0  0  0  0
   -1.4352   25.1936  -26.9944 H   0  0  0  0  0  0  0  0  0  0  0  0
   -2.7836   26.2032  -27.6993 H   0  0  0  0  0  0  0  0  0  0  0  0
   -2.7875   23.3961  -26.8725 H   0  0  0  0  0  0  0  0  0  0  0  0
   -4.1572   24.5235  -27.2940 H   0  0  0  0  0  0  0  0  0  0  0  0
   -7.4880   23.8038  -30.1781 H   0  0  0  0  0  0  0  0  0  0  0  0
   -8.8352   22.2165  -31.5352 H   0  0  0  0  0  0  0  0  0  0  0  0
   -7.8390   20.3510  -34.2060 H   0  0  0  0  0  0  0  0  0  0  0  0
   -9.1597   19.5573  -31.6618 H   0  0  0  0  0  0  0  0  0  0  0  0
   -9.5621   19.0368  -33.3445 H   0  0  0  0  0  0  0  0  0  0  0  0
   -8.7091   17.1343  -32.1695 H   0  0  0  0  0  0  0  0  0  0  0  0
   -6.5995   19.0543  -31.1743 H   0  0  0  0  0  0  0  0  0  0  0  0
   -7.4153   17.7890  -30.2878 H   0  0  0  0  0  0  0  0  0  0  0  0
   -4.9110   17.4467  -31.3620 H   0  0  0  0  0  0  0  0  0  0  0  0
   -6.0029   16.0816  -31.2475 H   0  0  0  0  0  0  0  0  0  0  0  0
   -5.2177   17.7270  -33.6241 H   0  0  0  0  0  0  0  0  0  0  0  0
   -5.8814   16.0568  -33.5759 H   0  0  0  0  0  0  0  0  0  0  0  0
  1  2  1  0
  2  3  1  0
  3  4  2  0
  4  5  1  0
  5  6  1  0
  6  7  2  0
  6  8  2  0
  6  9  1  0
  9 10  1  0
 10 11  1  0
 11 12  1  0
 12 13  1  0
 13 14  1  0
  5 15  2  0
 15 16  1  0
 16 17  2  0
 17 18  1  0
 18 19  1  0
 19 20  1  0
 20 21  1  0
 21 22  1  0
 22 23  1  0
 23 24  1  0
 17  3  1  0
 24 20  1  0
 14  9  1  0
  1 25  1  0
  1 26  1  0
  1 27  1  0
  4 28  1  0
 10 29  1  0
 10 30  1  0
 11 31  1  0
 11 32  1  0
 13 33  1  0
 13 34  1  0
 14 35  1  0
 14 36  1  0
 15 37  1  0
 16 38  1  0
 18 39  1  0
 19 40  1  0
 19 41  1  0
 20 42  1  1
 21 43  1  0
 21 44  1  0
 22 45  1  0
 22 46  1  0
 23 47  1  0
 23 48  1  0
M  END
>  <UniqueID>  (27) 
26

>  <SMILES>  (27) 
COc1cc(S(=O)(=O)N2CCOCC2)ccc1NC[C@@H]1CCCO1

>  <Energy>  (27) 
55.86103090937895

>  <Genealogy>  (27) 
COc1cc(S(=O)(=O)N2CCOCC2)ccc1NC[C@@H]1CCCO1 (chirality)
COc1cc(S(=O)(=O)N2CCOCC2)ccc1NC[C@@H]1CCCO1 (3D coordinates assigned)
COc1cc(S(=O)(=O)N2CCOCC2)ccc1NC[C@@H]1CCCO1 (nonaromatic ring conformer: 55.86103090937895 kcal/mol)

>  <smiles>  (27) 
COc1cc(S(=O)(=O)N2CCOCC2)ccc1NCC1CCCO1

>  <score_type>  (27) 
oracle

>  <origin>  (27) 
adg

>  <m_score__min__energy>  (27) 
-8.7599999999999998

>  <m_primary>  (27) 
energy

$$$$
27:0
     RDKit          3D

 66 68  0  0  0  0  0  0  0  0999 V2000
   -1.7510   21.1600  -33.6210 C   0  0  0  0  0  0  0  0  0  0  0  0
   -1.9670   20.5960  -32.4210 C   0  0  0  0  0  0  0  0  0  0  0  0
   -2.7060   19.2800  -32.3250 C   0  0  0  0  0  0  0  0  0  0  0  0
   -2.8840   18.7160  -33.6100 O   0  0  0  0  0  0  0  0  0  0  0  0
   -4.1080   19.1340  -34.2000 C   0  0  1  0  0  0  0  0  0  0  0  0
   -4.8000   17.9000  -34.8160 C   0  0  1  0  0  0  0  0  0  0  0  0
   -3.8800   17.2070  -35.6210 O   0  0  0  0  0  0  0  0  0  0  0  0
   -5.3450   16.9610  -33.7110 C   0  0  2  0  0  0  0  0  0  0  0  0
   -5.9770   15.8440  -34.2890 O   0  0  0  0  0  0  0  0  0  0  0  0
   -6.2710   17.6880  -32.6800 C   0  0  2  0  0  0  0  0  0  0  0  0
   -7.5580   17.1190  -32.6660 O   0  0  0  0  0  0  0  0  0  0  0  0
   -6.3970   19.2100  -32.9470 C   0  0  1  0  0  0  0  0  0  0  0  0
   -7.1930   19.9120  -31.8260 C   0  0  0  0  0  0  0  0  0  0  0  0
   -7.3010   21.2960  -32.0990 O   0  0  0  0  0  0  0  0  0  0  0  0
   -7.3400   22.0430  -30.8970 C   0  0  2  0  0  0  0  0  0  0  0  0
   -8.1180   23.2160  -31.0790 O   0  0  0  0  0  0  0  0  0  0  0  0
   -7.2810   24.3380  -30.9050 C   0  0  0  0  0  0  0  0  0  0  0  0
   -5.8180   23.8930  -30.9800 C   0  0  1  0  0  0  0  0  0  0  0  0
   -5.3460   23.9660  -32.3090 O   0  0  0  0  0  0  0  0  0  0  0  0
   -4.9110   24.7630  -30.0840 C   0  0  0  0  0  0  0  0  0  0  0  0
   -3.8290   25.2720  -30.8170 O   0  0  0  0  0  0  0  0  0  0  0  0
   -5.9250   22.4590  -30.4790 C   0  0  2  0  0  0  0  0  0  0  0  0
   -4.9040   21.6040  -30.9470 O   0  0  0  0  0  0  0  0  0  0  0  0
   -4.9930   19.8510  -33.1310 C   0  0  2  0  0  0  0  0  0  0  0  0
   -5.1060   21.2210  -33.4320 O   0  0  0  0  0  0  0  0  0  0  0  0
   -1.4200   21.2350  -31.1620 C   0  0  2  0  0  0  0  0  0  0  0  0
   -0.5400   20.2620  -30.3610 C   0  0  0  0  0  0  0  0  0  0  0  0
   -0.0880   20.9350  -29.0570 C   0  0  0  0  0  0  0  0  0  0  0  0
   -1.2370   21.5910  -28.3340 C   0  0  0  0  0  0  0  0  0  0  0  0
   -2.3490   21.9690  -28.9830 C   0  0  0  0  0  0  0  0  0  0  0  0
   -3.4660   22.6420  -28.2500 C   0  0  0  0  0  0  0  0  0  0  0  0
   -2.5000   21.7000  -30.3490 O   0  0  0  0  0  0  0  0  0  0  0  0
   -1.2134   22.1172  -33.6901 H   0  0  0  0  0  0  0  0  0  0  0  0
   -2.1117   20.6646  -34.5345 H   0  0  0  0  0  0  0  0  0  0  0  0
   -2.1258   18.5839  -31.7015 H   0  0  0  0  0  0  0  0  0  0  0  0
   -3.6939   19.4591  -31.8755 H   0  0  0  0  0  0  0  0  0  0  0  0
   -3.9311   19.8632  -35.0044 H   0  0  0  0  0  0  0  0  0  0  0  0
   -5.6500   18.2389  -35.4265 H   0  0  0  0  0  0  0  0  0  0  0  0
   -3.0100   17.2110  -35.1420 H   0  0  0  0  0  0  0  0  0  0  0  0
   -4.4801   16.6131  -33.1271 H   0  0  0  0  0  0  0  0  0  0  0  0
   -6.9260   16.0840  -34.4550 H   0  0  0  0  0  0  0  0  0  0  0  0
   -5.7889   17.5534  -31.7005 H   0  0  0  0  0  0  0  0  0  0  0  0
   -7.4460   16.1510  -32.8620 H   0  0  0  0  0  0  0  0  0  0  0  0
   -6.9593   19.3474  -33.8824 H   0  0  0  0  0  0  0  0  0  0  0  0
   -8.2000   19.4735  -31.7656 H   0  0  0  0  0  0  0  0  0  0  0  0
   -6.6664   19.7739  -30.8702 H   0  0  0  0  0  0  0  0  0  0  0  0
   -7.7864   21.4105  -30.1155 H   0  0  0  0  0  0  0  0  0  0  0  0
   -7.4826   25.0735  -31.6977 H   0  0  0  0  0  0  0  0  0  0  0  0
   -7.4774   24.7963  -29.9245 H   0  0  0  0  0  0  0  0  0  0  0  0
   -5.2960   23.0470  -32.6800 H   0  0  0  0  0  0  0  0  0  0  0  0
   -5.4991   25.6004  -29.6802 H   0  0  0  0  0  0  0  0  0  0  0  0
   -4.5210   24.1399  -29.2657 H   0  0  0  0  0  0  0  0  0  0  0  0
   -4.2020   25.6630  -31.6500 H   0  0  0  0  0  0  0  0  0  0  0  0
   -5.7742   22.3837  -29.3920 H   0  0  0  0  0  0  0  0  0  0  0  0
   -4.3300   22.0970  -31.5900 H   0  0  0  0  0  0  0  0  0  0  0  0
   -4.4777   19.7248  -32.1674 H   0  0  0  0  0  0  0  0  0  0  0  0
   -5.5000   21.6660  -32.6360 H   0  0  0  0  0  0  0  0  0  0  0  0
   -0.7873   22.0833  -31.4623 H   0  0  0  0  0  0  0  0  0  0  0  0
   -1.1168   19.3556  -30.1249 H   0  0  0  0  0  0  0  0  0  0  0  0
    0.3428   19.9899  -30.9581 H   0  0  0  0  0  0  0  0  0  0  0  0
    0.3572   20.1735  -28.3998 H   0  0  0  0  0  0  0  0  0  0  0  0
    0.6436   21.7157  -29.3126 H   0  0  0  0  0  0  0  0  0  0  0  0
   -1.1620   21.7636  -27.2502 H   0  0  0  0  0  0  0  0  0  0  0  0
   -3.3045   22.5447  -27.1663 H   0  0  0  0  0  0  0  0  0  0  0  0
   -3.4939   23.7074  -28.5224 H   0  0  0  0  0  0  0  0  0  0  0  0
   -4.4209   22.1688  -28.5224 H   0  0  0  0  0  0  0  0  0  0  0  0
  1  2  2  0
  2  3  1  0
  3  4  1  0
  4  5  1  0
  5  6  1  0
  6  7  1  0
  6  8  1  0
  8  9  1  0
  8 10  1  0
 10 11  1  0
 10 12  1  0
 12 13  1  0
 13 14  1  0
 14 15  1  0
 15 16  1  0
 16 17  1  0
 17 18  1  0
 18 19  1  6
 18 20  1  0
 20 21  1  0
 18 22  1  0
 22 23  1  0
 12 24  1  0
 24 25  1  0
  2 26  1  0
 26 27  1  0
 27 28  1  0
 28 29  1  0
 29 30  2  0
 30 31  1  0
 30 32  1  0
 24  5  1  0
 32 26  1  0
 22 15  1  0
  1 33  1  0
  1 34  1  0
  3 35  1  0
  3 36  1  0
  5 37  1  6
  6 38  1  6
  7 39  1  0
  8 40  1  1
  9 41  1  0
 10 42  1  1
 11 43  1  0
 12 44  1  6
 13 45  1  0
 13 46  1  0
 15 47  1  1
 17 48  1  0
 17 49  1  0
 19 50  1  0
 20 51  1  0
 20 52  1  0
 21 53  1  0
 22 54  1  1
 23 55  1  0
 24 56  1  1
 25 57  1  0
 26 58  1  6
 27 59  1  0
 27 60  1  0
 28 61  1  0
 28 62  1  0
 29 63  1  0
 31 64  1  0
 31 65  1  0
 31 66  1  0
M  END
>  <UniqueID>  (28) 
27

>  <SMILES>  (28) 
C=C(CO[C@@H]1C(O)C(COC2OCC(O)(CO)C2O)C(O)C(O)[C@@H]1O)C1CCC=C(C)O1

>  <Energy>  (28) 
79.99289464680089

>  <Genealogy>  (28) 
C=C(CO[C@@H]1C(O)C(COC2OCC(O)(CO)C2O)C(O)C(O)[C@@H]1O)C1CCC=C(C)O1 (chirality)
C=C(CO[C@@H]1C(O)C(COC2OCC(O)(CO)C2O)C(O)C(O)[C@@H]1O)C1CCC=C(C)O1 (3D coordinates assigned)
C=C(CO[C@@H]1C(O)C(COC2OCC(O)(CO)C2O)C(O)C(O)[C@@H]1O)C1CCC=C(C)O1 (nonaromatic ring conformer: 79.99289464680089 kcal/mol)

>  <smiles>  (28) 
C=C(COC1C(O)C(O)C(O)C(COC2OCC(O)(CO)C2O)C1O)C1CCC=C(C)O1

>  <score_type>  (28) 
oracle

>  <origin>  (28) 
adg

>  <m_score__min__energy>  (28) 
-8.4000000000000004

>  <m_primary>  (28) 
energy

$$$$
28:0
     RDKit          3D

 44 44  0  0  0  0  0  0  0  0999 V2000
   -5.7340   18.1850  -34.9250 C   0  0  0  0  0  0  0  0  0  0  0  0
   -6.3160   18.9400  -33.8870 O   0  0  0  0  0  0  0  0  0  0  0  0
   -5.7950   18.5120  -32.6460 C   0  0  0  0  0  0  0  0  0  0  0  0
   -6.8700   17.7510  -31.8650 C   0  0  0  0  0  0  0  0  0  0  0  0
   -8.1970   18.5250  -31.7090 C   0  0  0  0  0  0  0  0  0  0  0  0
   -8.3470   19.6740  -32.6270 N   0  0  0  0  0  0  0  0  0  0  0  0
   -9.4980   20.5580  -32.3500 C   0  0  0  0  0  0  0  0  0  0  0  0
   -9.2160   21.6740  -31.3240 C   0  0  0  0  0  0  0  0  0  0  0  0
   -9.0280   23.0510  -31.9730 C   0  0  0  0  0  0  0  0  0  0  0  0
   -7.5650   23.2800  -32.3650 C   0  0  0  0  0  0  0  0  0  0  0  0
   -6.8040   22.0850  -32.1850 O   0  0  0  0  0  0  0  0  0  0  0  0
   -5.4040   22.0140  -32.0500 C   0  0  0  0  0  0  0  0  0  0  0  0
   -4.5780   21.4700  -33.0550 C   0  0  0  0  0  0  0  0  0  0  0  0
   -3.1930   21.4200  -32.8810 C   0  0  0  0  0  0  0  0  0  0  0  0
   -2.6150   21.9110  -31.7100 C   0  0  0  0  0  0  0  0  0  0  0  0
   -3.4200   22.4570  -30.7090 C   0  0  0  0  0  0  0  0  0  0  0  0
   -4.8150   22.5140  -30.8710 C   0  0  0  0  0  0  0  0  0  0  0  0
   -5.6750   23.1000  -29.7860 C   0  0  0  0  0  0  0  0  0  0  0  0
   -5.1162   17.3836  -34.4936 H   0  0  0  0  0  0  0  0  0  0  0  0
   -6.5271   17.7427  -35.5458 H   0  0  0  0  0  0  0  0  0  0  0  0
   -5.1044   18.8394  -35.5458 H   0  0  0  0  0  0  0  0  0  0  0  0
   -4.9337   17.8504  -32.8205 H   0  0  0  0  0  0  0  0  0  0  0  0
   -5.4773   19.3898  -32.0641 H   0  0  0  0  0  0  0  0  0  0  0  0
   -7.0789   16.8085  -32.3922 H   0  0  0  0  0  0  0  0  0  0  0  0
   -6.4738   17.5897  -30.8516 H   0  0  0  0  0  0  0  0  0  0  0  0
   -9.0262   17.8264  -31.8943 H   0  0  0  0  0  0  0  0  0  0  0  0
   -8.2016   18.9364  -30.6888 H   0  0  0  0  0  0  0  0  0  0  0  0
   -8.4290   19.3200  -33.6080 H   0  0  0  0  0  0  0  0  0  0  0  0
   -7.4670   20.2380  -32.5990 H   0  0  0  0  0  0  0  0  0  0  0  0
   -9.8038   21.0300  -33.2954 H   0  0  0  0  0  0  0  0  0  0  0  0
  -10.2820   19.9223  -31.9126 H   0  0  0  0  0  0  0  0  0  0  0  0
  -10.0629   21.7290  -30.6242 H   0  0  0  0  0  0  0  0  0  0  0  0
   -8.2761   21.4204  -30.8119 H   0  0  0  0  0  0  0  0  0  0  0  0
   -9.6554   23.1121  -32.8745 H   0  0  0  0  0  0  0  0  0  0  0  0
   -9.3202   23.8231  -31.2460 H   0  0  0  0  0  0  0  0  0  0  0  0
   -7.5169   23.5837  -33.4211 H   0  0  0  0  0  0  0  0  0  0  0  0
   -7.1448   24.0684  -31.7232 H   0  0  0  0  0  0  0  0  0  0  0  0
   -5.0270   21.0827  -33.9815 H   0  0  0  0  0  0  0  0  0  0  0  0
   -2.5562   20.9923  -33.6694 H   0  0  0  0  0  0  0  0  0  0  0  0
   -1.5241   21.8678  -31.5755 H   0  0  0  0  0  0  0  0  0  0  0  0
   -2.9601   22.8449  -29.7881 H   0  0  0  0  0  0  0  0  0  0  0  0
   -5.2662   22.8215  -28.8035 H   0  0  0  0  0  0  0  0  0  0  0  0
   -5.6883   24.1959  -29.8803 H   0  0  0  0  0  0  0  0  0  0  0  0
   -6.6998   22.7114  -29.8803 H   0  0  0  0  0  0  0  0  0  0  0  0
  1  2  1  0
  2  3  1  0
  3  4  1  0
  4  5  1  0
  5  6  1  0
  6  7  1  0
  7  8  1  0
  8  9  1  0
  9 10  1  0
 10 11  1  0
 11 12  1  0
 12 13  2  0
 13 14  1  0
 14 15  2  0
 15 16  1  0
 16 17  2  0
 17 18  1  0
 17 12  1  0
  1 19  1  0
  1 20  1  0
  1 21  1  0
  3 22  1  0
  3 23  1  0
  4 24  1  0
  4 25  1  0
  5 26  1  0
  5 27  1  0
  6 28  1  0
  6 29  1  0
  7 30  1  0
  7 31  1  0
  8 32  1  0
  8 33  1  0
  9 34  1  0
  9 35  1  0
 10 36  1  0
 10 37  1  0
 13 38  1  0
 14 39  1  0
 15 40  1  0
 16 41  1  0
 18 42  1  0
 18 43  1  0
 18 44  1  0
M  CHG  1   6   1
M  END
>  <UniqueID>  (29) 
28

>  <SMILES>  (29) 
COCCC[NH2+]CCCCOc1ccccc1C

>  <Energy>  (29) 
36.90635224178485

>  <Genealogy>  (29) 
COCCC[NH2+]CCCCOc1ccccc1C (protonated)
COCCC[NH2+]CCCCOc1ccccc1C (3D coordinates assigned)
COCCC[NH2+]CCCCOc1ccccc1C (optimized conformer: 36.90635224178485 kcal/mol)

>  <smiles>  (29) 
COCCCNCCCCOc1ccccc1C

>  <score_type>  (29) 
oracle

>  <origin>  (29) 
adg

>  <m_score__min__energy>  (29) 
-5.4299999999999997

>  <m_primary>  (29) 
energy

$$$$
29:0
     RDKit          3D

 40 42  0  0  0  0  0  0  0  0999 V2000
   -4.5850   22.5690  -28.5340 C   0  0  0  0  0  0  0  0  0  0  0  0
   -4.7320   23.6050  -29.5510 N   0  0  0  0  0  0  0  0  0  0  0  0
   -3.7820   24.4690  -29.9590 C   0  0  0  0  0  0  0  0  0  0  0  0
   -4.2470   25.3610  -30.8610 N   0  0  0  0  0  0  0  0  0  0  0  0
   -5.5490   25.0440  -31.0100 C   0  0  0  0  0  0  0  0  0  0  0  0
   -5.8520   23.9700  -30.2010 C   0  0  0  0  0  0  0  0  0  0  0  0
   -7.1930   23.3120  -30.0650 C   0  0  0  0  0  0  0  0  0  0  0  0
   -7.8400   23.2060  -31.3830 N   0  0  0  0  0  0  0  0  0  0  0  0
   -7.0660   22.3890  -32.3300 C   0  0  0  0  0  0  0  0  0  0  0  0
   -7.4020   20.9180  -32.1970 C   0  0  0  0  0  0  0  0  0  0  0  0
   -8.7300   20.5540  -31.9060 C   0  0  0  0  0  0  0  0  0  0  0  0
   -9.1010   19.2110  -31.8340 C   0  0  0  0  0  0  0  0  0  0  0  0
   -8.1550   18.2110  -32.0520 C   0  0  0  0  0  0  0  0  0  0  0  0
   -6.8310   18.5500  -32.3310 C   0  0  0  0  0  0  0  0  0  0  0  0
   -6.4340   19.8970  -32.3940 C   0  0  0  0  0  0  0  0  0  0  0  0
   -5.0170   20.1990  -32.6960 C   0  0  0  0  0  0  0  0  0  0  0  0
   -4.3240   19.4340  -33.6480 C   0  0  0  0  0  0  0  0  0  0  0  0
   -2.9880   19.7160  -33.9430 C   0  0  0  0  0  0  0  0  0  0  0  0
   -2.3260   20.7520  -33.2760 C   0  0  0  0  0  0  0  0  0  0  0  0
   -0.5010   21.1380  -33.6820 Br  0  0  0  0  0  0  0  0  0  0  0  0
   -3.0010   21.4970  -32.3040 C   0  0  0  0  0  0  0  0  0  0  0  0
   -4.3380   21.2170  -32.0080 C   0  0  0  0  0  0  0  0  0  0  0  0
   -4.6496   23.0243  -27.5347 H   0  0  0  0  0  0  0  0  0  0  0  0
   -5.3865   21.8247  -28.6503 H   0  0  0  0  0  0  0  0  0  0  0  0
   -3.6081   22.0770  -28.6503 H   0  0  0  0  0  0  0  0  0  0  0  0
   -2.7432   24.4502  -29.5978 H   0  0  0  0  0  0  0  0  0  0  0  0
   -6.2581   25.5613  -31.6731 H   0  0  0  0  0  0  0  0  0  0  0  0
   -7.0630   22.3052  -29.6414 H   0  0  0  0  0  0  0  0  0  0  0  0
   -7.8261   23.9185  -29.4007 H   0  0  0  0  0  0  0  0  0  0  0  0
   -7.9010   24.1700  -31.7880 H   0  0  0  0  0  0  0  0  0  0  0  0
   -7.2946   22.7167  -33.3549 H   0  0  0  0  0  0  0  0  0  0  0  0
   -5.9971   22.5207  -32.1063 H   0  0  0  0  0  0  0  0  0  0  0  0
   -9.4834   21.3367  -31.7335 H   0  0  0  0  0  0  0  0  0  0  0  0
  -10.1424   18.9408  -31.6047 H   0  0  0  0  0  0  0  0  0  0  0  0
   -8.4528   17.1532  -32.0040 H   0  0  0  0  0  0  0  0  0  0  0  0
   -6.0902   17.7553  -32.5034 H   0  0  0  0  0  0  0  0  0  0  0  0
   -4.8358   18.6084  -34.1641 H   0  0  0  0  0  0  0  0  0  0  0  0
   -2.4558   19.1224  -34.7010 H   0  0  0  0  0  0  0  0  0  0  0  0
   -2.4786   22.3052  -31.7712 H   0  0  0  0  0  0  0  0  0  0  0  0
   -4.8603   21.7967  -31.2327 H   0  0  0  0  0  0  0  0  0  0  0  0
  1  2  1  0
  2  3  1  0
  3  4  2  0
  4  5  1  0
  5  6  2  0
  6  7  1  0
  7  8  1  0
  8  9  1  0
  9 10  1  0
 10 11  2  0
 11 12  1  0
 12 13  2  0
 13 14  1  0
 14 15  2  0
 15 16  1  0
 16 17  2  0
 17 18  1  0
 18 19  2  0
 19 20  1  0
 19 21  1  0
 21 22  2  0
  6  2  1  0
 15 10  1  0
 22 16  1  0
  1 23  1  0
  1 24  1  0
  1 25  1  0
  3 26  1  0
  5 27  1  0
  7 28  1  0
  7 29  1  0
  8 30  1  0
  9 31  1  0
  9 32  1  0
 11 33  1  0
 12 34  1  0
 13 35  1  0
 14 36  1  0
 17 37  1  0
 18 38  1  0
 21 39  1  0
 22 40  1  0
M  END
>  <UniqueID>  (30) 
29

>  <SMILES>  (30) 
Cn1cncc1CNCc1ccccc1-c1ccc(Br)cc1

>  <Energy>  (30) 
74.09562829404061

>  <Genealogy>  (30) 
Cn1cncc1CNCc1ccccc1-c1ccc(Br)cc1 (3D coordinates assigned)
Cn1cncc1CNCc1ccccc1-c1ccc(Br)cc1 (optimized conformer: 74.09562829404061 kcal/mol)

>  <smiles>  (30) 
Cn1cncc1CNCc1ccccc1-c1ccc(Br)cc1

>  <score_type>  (30) 
oracle

>  <origin>  (30) 
adg

>  <m_score__min__energy>  (30) 
-8.1899999999999995

>  <m_primary>  (30) 
energy

$$$$
30:0
     RDKit          3D

 43 45  0  0  0  0  0  0  0  0999 V2000
   -5.2810   25.7230  -30.4830 C   0  0  0  0  0  0  0  0  0  0  0  0
   -3.9140   25.3270  -30.5310 O   0  0  0  0  0  0  0  0  0  0  0  0
   -3.4060   24.1450  -29.9680 C   0  0  0  0  0  0  0  0  0  0  0  0
   -2.4190   24.1670  -28.9620 C   0  0  0  0  0  0  0  0  0  0  0  0
   -1.8980   22.9720  -28.4580 C   0  0  0  0  0  0  0  0  0  0  0  0
   -2.3460   21.7470  -28.9540 C   0  0  0  0  0  0  0  0  0  0  0  0
   -3.3270   21.7140  -29.9470 C   0  0  0  0  0  0  0  0  0  0  0  0
   -3.8800   22.9040  -30.4400 C   0  0  0  0  0  0  0  0  0  0  0  0
   -4.8970   22.8320  -31.4510 N   0  0  0  0  0  0  0  0  0  0  0  0
   -6.2980   22.7870  -31.1390 C   0  0  0  0  0  0  0  0  0  0  0  0
   -6.6940   22.9090  -29.9480 O   0  0  0  0  0  0  0  0  0  0  0  0
   -7.3050   22.5490  -32.2270 C   0  0  0  0  0  0  0  0  0  0  0  0
   -7.7640   21.1570  -32.2060 N   0  0  0  0  0  0  0  0  0  0  0  0
   -8.9750   20.7430  -31.7830 C   0  0  0  0  0  0  0  0  0  0  0  0
   -9.1040   19.3820  -31.9800 C   0  0  0  0  0  0  0  0  0  0  0  0
   -7.9240   18.9500  -32.5510 C   0  0  0  0  0  0  0  0  0  0  0  0
   -7.1180   20.0660  -32.6780 C   0  0  0  0  0  0  0  0  0  0  0  0
   -5.7570   20.0690  -33.2530 C   0  0  0  0  0  0  0  0  0  0  0  0
   -5.1920   21.1750  -33.4670 O   0  0  0  0  0  0  0  0  0  0  0  0
   -5.0470   18.8090  -33.5850 C   0  0  0  0  0  0  0  0  0  0  0  0
   -3.7370   18.5720  -33.1240 C   0  0  0  0  0  0  0  0  0  0  0  0
   -3.0920   17.3660  -33.4140 C   0  0  0  0  0  0  0  0  0  0  0  0
   -3.7450   16.3840  -34.1610 C   0  0  0  0  0  0  0  0  0  0  0  0
   -5.0470   16.6030  -34.6170 C   0  0  0  0  0  0  0  0  0  0  0  0
   -5.6990   17.8060  -34.3270 C   0  0  0  0  0  0  0  0  0  0  0  0
   -5.5994   25.8152  -29.4341 H   0  0  0  0  0  0  0  0  0  0  0  0
   -5.3999   26.6925  -30.9889 H   0  0  0  0  0  0  0  0  0  0  0  0
   -5.8997   24.9672  -30.9889 H   0  0  0  0  0  0  0  0  0  0  0  0
   -2.0569   25.1295  -28.5716 H   0  0  0  0  0  0  0  0  0  0  0  0
   -1.1327   22.9972  -27.6682 H   0  0  0  0  0  0  0  0  0  0  0  0
   -1.9267   20.8082  -28.5630 H   0  0  0  0  0  0  0  0  0  0  0  0
   -3.6684   20.7472  -30.3453 H   0  0  0  0  0  0  0  0  0  0  0  0
   -4.6010   22.5820  -32.4210 H   0  0  0  0  0  0  0  0  0  0  0  0
   -8.1661   23.2165  -32.0756 H   0  0  0  0  0  0  0  0  0  0  0  0
   -6.8332   22.7535  -33.1994 H   0  0  0  0  0  0  0  0  0  0  0  0
   -9.7468   21.3932  -31.3454 H   0  0  0  0  0  0  0  0  0  0  0  0
   -9.9779   18.7624  -31.7302 H   0  0  0  0  0  0  0  0  0  0  0  0
   -7.6741   17.9204  -32.8468 H   0  0  0  0  0  0  0  0  0  0  0  0
   -3.2184   19.3406  -32.5322 H   0  0  0  0  0  0  0  0  0  0  0  0
   -2.0679   17.1906  -33.0528 H   0  0  0  0  0  0  0  0  0  0  0  0
   -3.2340   15.4373  -34.3906 H   0  0  0  0  0  0  0  0  0  0  0  0
   -5.5604   15.8281  -35.2051 H   0  0  0  0  0  0  0  0  0  0  0  0
   -6.7276   17.9693  -34.6809 H   0  0  0  0  0  0  0  0  0  0  0  0
  1  2  1  0
  2  3  1  0
  3  4  2  0
  4  5  1  0
  5  6  2  0
  6  7  1  0
  7  8  2  0
  8  9  1  0
  9 10  1  0
 10 11  2  0
 10 12  1  0
 12 13  1  0
 13 14  1  0
 14 15  2  0
 15 16  1  0
 16 17  2  0
 17 18  1  0
 18 19  2  0
 18 20  1  0
 20 21  2  0
 21 22  1  0
 22 23  2  0
 23 24  1  0
 24 25  2  0
  8  3  1  0
 17 13  1  0
 25 20  1  0
  1 26  1  0
  1 27  1  0
  1 28  1  0
  4 29  1  0
  5 30  1  0
  6 31  1  0
  7 32  1  0
  9 33  1  0
 12 34  1  0
 12 35  1  0
 14 36  1  0
 15 37  1  0
 16 38  1  0
 21 39  1  0
 22 40  1  0
 23 41  1  0
 24 42  1  0
 25 43  1  0
M  END
>  <UniqueID>  (31) 
30

>  <SMILES>  (31) 
COc1ccccc1NC(=O)Cn1cccc1C(=O)c1ccccc1

>  <Energy>  (31) 
78.2974551520901

>  <Genealogy>  (31) 
COc1ccccc1NC(=O)Cn1cccc1C(=O)c1ccccc1 (3D coordinates assigned)
COc1ccccc1NC(=O)Cn1cccc1C(=O)c1ccccc1 (optimized conformer: 78.2974551520901 kcal/mol)

>  <smiles>  (31) 
COc1ccccc1NC(=O)Cn1cccc1C(=O)c1ccccc1

>  <score_type>  (31) 
oracle

>  <origin>  (31) 
adg

>  <m_score__min__energy>  (31) 
-8.5399999999999991

>  <m_primary>  (31) 
energy

$$$$
31:0
     RDKit          3D

 50 53  0  0  0  0  0  0  0  0999 V2000
   -6.0220   15.9310  -33.7830 C   0  0  0  0  0  0  0  0  0  0  0  0
   -5.7410   16.6610  -32.4680 C   0  0  0  0  0  0  0  0  0  0  0  0
   -6.0620   18.1190  -32.5580 N   0  0  2  0  0  0  0  0  0  0  0  0
   -7.4880   18.3400  -32.9090 C   0  0  0  0  0  0  0  0  0  0  0  0
   -8.0280   19.5990  -32.2960 C   0  0  0  0  0  0  0  0  0  0  0  0
   -9.3280   20.0540  -32.3910 C   0  0  0  0  0  0  0  0  0  0  0  0
   -9.3600   21.2400  -31.6880 C   0  0  0  0  0  0  0  0  0  0  0  0
   -8.0800   21.4220  -31.2000 C   0  0  0  0  0  0  0  0  0  0  0  0
   -7.6150   22.5650  -30.3420 C   0  0  0  0  0  0  0  0  0  0  0  0
   -6.8750   23.6100  -31.0880 N   0  0  0  0  0  0  0  0  0  0  0  0
   -6.7970   24.9320  -30.4220 C   0  0  0  0  0  0  0  0  0  0  0  0
   -5.7070   25.0120  -29.3350 C   0  0  0  0  0  0  0  0  0  0  0  0
   -4.4820   24.2650  -29.7450 C   0  0  0  0  0  0  0  0  0  0  0  0
   -3.0190   24.2160  -28.9220 S   0  0  0  0  0  0  0  0  0  0  0  0
   -2.2910   23.0790  -29.9320 C   0  0  0  0  0  0  0  0  0  0  0  0
   -3.2020   22.7150  -30.9180 C   0  0  0  0  0  0  0  0  0  0  0  0
   -4.4350   23.3690  -30.7960 C   0  0  0  0  0  0  0  0  0  0  0  0
   -5.6060   23.1640  -31.7110 C   0  0  0  0  0  0  0  0  0  0  0  0
   -7.3050   20.4370  -31.5910 O   0  0  0  0  0  0  0  0  0  0  0  0
   -5.2030   18.7960  -33.5610 C   0  0  0  0  0  0  0  0  0  0  0  0
   -4.0120   19.5120  -32.8920 C   0  0  0  0  0  0  0  0  0  0  0  0
   -3.7170   20.8870  -33.4710 C   0  0  0  0  0  0  0  0  0  0  0  0
   -2.7730   19.7310  -33.7500 C   0  0  0  0  0  0  0  0  0  0  0  0
   -6.4095   14.9242  -33.5679 H   0  0  0  0  0  0  0  0  0  0  0  0
   -6.7674   16.4946  -34.3632 H   0  0  0  0  0  0  0  0  0  0  0  0
   -5.0911   15.8493  -34.3632 H   0  0  0  0  0  0  0  0  0  0  0  0
   -6.3541   16.2106  -31.6735 H   0  0  0  0  0  0  0  0  0  0  0  0
   -4.6681   16.5619  -32.2464 H   0  0  0  0  0  0  0  0  0  0  0  0
   -5.8930   18.5920  -31.6370 H   0  0  0  0  0  0  0  0  0  0  0  0
   -7.5779   18.4105  -34.0031 H   0  0  0  0  0  0  0  0  0  0  0  0
   -8.0703   17.4934  -32.5163 H   0  0  0  0  0  0  0  0  0  0  0  0
  -10.1642   19.5710  -32.9178 H   0  0  0  0  0  0  0  0  0  0  0  0
  -10.2254   21.9038  -31.5452 H   0  0  0  0  0  0  0  0  0  0  0  0
   -8.4963   23.0299  -29.8760 H   0  0  0  0  0  0  0  0  0  0  0  0
   -6.9185   22.1465  -29.6006 H   0  0  0  0  0  0  0  0  0  0  0  0
   -6.5830   25.6941  -31.1858 H   0  0  0  0  0  0  0  0  0  0  0  0
   -7.7630   25.0994  -29.9231 H   0  0  0  0  0  0  0  0  0  0  0  0
   -5.4447   26.0669  -29.1665 H   0  0  0  0  0  0  0  0  0  0  0  0
   -6.0998   24.5586  -28.4130 H   0  0  0  0  0  0  0  0  0  0  0  0
   -1.2672   22.6903  -29.8285 H   0  0  0  0  0  0  0  0  0  0  0  0
   -2.9774   21.9880  -31.7123 H   0  0  0  0  0  0  0  0  0  0  0  0
   -5.4413   23.7385  -32.6345 H   0  0  0  0  0  0  0  0  0  0  0  0
   -5.6892   22.0882  -31.9247 H   0  0  0  0  0  0  0  0  0  0  0  0
   -4.8183   18.0455  -34.2673 H   0  0  0  0  0  0  0  0  0  0  0  0
   -5.8102   19.5497  -34.0837 H   0  0  0  0  0  0  0  0  0  0  0  0
   -4.1829   19.0881  -31.8914 H   0  0  0  0  0  0  0  0  0  0  0  0
   -4.3462   21.2899  -34.2783 H   0  0  0  0  0  0  0  0  0  0  0  0
   -3.6047   21.8983  -33.0530 H   0  0  0  0  0  0  0  0  0  0  0  0
   -2.7189   19.2963  -34.7590 H   0  0  0  0  0  0  0  0  0  0  0  0
   -1.6948   19.5580  -33.6176 H   0  0  0  0  0  0  0  0  0  0  0  0
  1  2  1  0
  2  3  1  0
  3  4  1  0
  4  5  1  0
  5  6  2  0
  6  7  1  0
  7  8  2  0
  8  9  1  0
  9 10  1  0
 10 11  1  0
 11 12  1  0
 12 13  1  0
 13 14  1  0
 14 15  1  0
 15 16  2  0
 16 17  1  0
 17 18  1  0
  8 19  1  0
  3 20  1  0
 20 21  1  0
 21 22  1  0
 22 23  1  0
 19  5  1  0
 23 21  1  0
 18 10  1  0
 17 13  2  0
  1 24  1  0
  1 25  1  0
  1 26  1  0
  2 27  1  0
  2 28  1  0
  3 29  1  1
  4 30  1  0
  4 31  1  0
  6 32  1  0
  7 33  1  0
  9 34  1  0
  9 35  1  0
 11 36  1  0
 11 37  1  0
 12 38  1  0
 12 39  1  0
 15 40  1  0
 16 41  1  0
 18 42  1  0
 18 43  1  0
 20 44  1  0
 20 45  1  0
 21 46  1  0
 22 47  1  0
 22 48  1  0
 23 49  1  0
 23 50  1  0
M  CHG  1   3   1
M  END
>  <UniqueID>  (32) 
31

>  <SMILES>  (32) 
CC[N@H+](Cc1ccc(CN2CCc3sccc3C2)o1)CC1CC1

>  <Energy>  (32) 
375.89007500348197

>  <Genealogy>  (32) 
CC[NH+](Cc1ccc(CN2CCc3sccc3C2)o1)CC1CC1 (protonated)
CC[N@H+](Cc1ccc(CN2CCc3sccc3C2)o1)CC1CC1 (chirality)
CC[N@H+](Cc1ccc(CN2CCc3sccc3C2)o1)CC1CC1 (3D coordinates assigned)
CC[N@H+](Cc1ccc(CN2CCc3sccc3C2)o1)CC1CC1 (nonaromatic ring conformer: 375.89007500348197 kcal/mol)

>  <smiles>  (32) 
CCN(Cc1ccc(CN2CCc3sccc3C2)o1)CC1CC1

>  <score_type>  (32) 
oracle

>  <origin>  (32) 
adg

>  <m_score__min__energy>  (32) 
-6.9699999999999998

>  <m_primary>  (32) 
energy

$$$$
32:0
     RDKit          3D

 52 54  0  0  0  0  0  0  0  0999 V2000
   -6.2390   15.1340  -34.1800 C   0  0  0  0  0  0  0  0  0  0  0  0
   -5.0080   15.6490  -34.2190 C   0  0  0  0  0  0  0  0  0  0  0  0
   -4.4980   16.5730  -33.1450 C   0  0  0  0  0  0  0  0  0  0  0  0
   -4.7260   17.9850  -33.4990 N   0  0  0  0  0  0  0  0  0  0  0  0
   -6.0960   18.4230  -33.8040 C   0  0  0  0  0  0  0  0  0  0  0  0
   -7.0190   18.2260  -32.6000 C   0  0  0  0  0  0  0  0  0  0  0  0
   -8.2240   19.0600  -32.7650 N   0  0  0  0  0  0  0  0  0  0  0  0
   -8.0310   20.5080  -32.5500 C   0  0  1  0  0  0  0  0  0  0  0  0
   -9.1440   21.1290  -31.6710 C   0  0  0  0  0  0  0  0  0  0  0  0
   -9.0250   22.6630  -31.6300 C   0  0  0  0  0  0  0  0  0  0  0  0
   -7.6020   23.0680  -31.3930 C   0  0  0  0  0  0  0  0  0  0  0  0
   -7.1940   24.2900  -31.0140 N   0  0  0  0  0  0  0  0  0  0  0  0
   -5.8480   24.1700  -31.0220 C   0  0  0  0  0  0  0  0  0  0  0  0
   -4.9500   25.2260  -30.6730 N   0  0  0  0  0  0  0  0  0  0  0  0
   -5.3820   26.3790  -30.4660 O   0  0  0  0  0  0  0  0  0  0  0  0
   -3.6020   24.9760  -30.5630 O   0  0  0  0  0  0  0  0  0  0  0  0
   -5.4390   22.9380  -31.3970 N   0  0  0  0  0  0  0  0  0  0  0  0
   -6.5520   22.2670  -31.6440 N   0  0  0  0  0  0  0  0  0  0  0  0
   -6.6180   20.8540  -32.0130 C   0  0  0  0  0  0  0  0  0  0  0  0
   -3.6160   18.9060  -33.6510 C   0  0  0  0  0  0  0  0  0  0  0  0
   -2.3680   18.4580  -34.1240 C   0  0  0  0  0  0  0  0  0  0  0  0
   -1.2970   19.3450  -34.2600 C   0  0  0  0  0  0  0  0  0  0  0  0
   -1.4520   20.7030  -33.9240 C   0  0  0  0  0  0  0  0  0  0  0  0
   -0.4080   21.6320  -34.0420 O   0  0  0  0  0  0  0  0  0  0  0  0
    0.5560   21.6290  -35.0910 C   0  0  0  0  0  0  0  0  0  0  0  0
   -2.6910   21.1500  -33.4530 C   0  0  0  0  0  0  0  0  0  0  0  0
   -3.7620   20.2640  -33.3170 C   0  0  0  0  0  0  0  0  0  0  0  0
   -6.5797   14.4620  -34.9815 H   0  0  0  0  0  0  0  0  0  0  0  0
   -6.9126   15.3817  -33.3464 H   0  0  0  0  0  0  0  0  0  0  0  0
   -4.3473   15.3910  -35.0598 H   0  0  0  0  0  0  0  0  0  0  0  0
   -5.0214   16.3509  -32.2034 H   0  0  0  0  0  0  0  0  0  0  0  0
   -3.4151   16.4135  -33.0361 H   0  0  0  0  0  0  0  0  0  0  0  0
   -6.0804   19.4893  -34.0739 H   0  0  0  0  0  0  0  0  0  0  0  0
   -6.4781   17.8179  -34.6394 H   0  0  0  0  0  0  0  0  0  0  0  0
   -7.3116   17.1679  -32.5311 H   0  0  0  0  0  0  0  0  0  0  0  0
   -6.4916   18.5202  -31.6806 H   0  0  0  0  0  0  0  0  0  0  0  0
   -8.6130   18.9150  -33.7260 H   0  0  0  0  0  0  0  0  0  0  0  0
   -8.1108   20.9697  -33.5452 H   0  0  0  0  0  0  0  0  0  0  0  0
  -10.1250   20.8555  -32.0868 H   0  0  0  0  0  0  0  0  0  0  0  0
   -9.0375   20.7423  -30.6467 H   0  0  0  0  0  0  0  0  0  0  0  0
   -9.3657   23.0792  -32.5895 H   0  0  0  0  0  0  0  0  0  0  0  0
   -9.6481   23.0484  -30.8096 H   0  0  0  0  0  0  0  0  0  0  0  0
   -7.7760   25.1260  -30.7810 H   0  0  0  0  0  0  0  0  0  0  0  0
   -5.8714   20.6468  -32.7938 H   0  0  0  0  0  0  0  0  0  0  0  0
   -6.4108   20.2401  -31.1241 H   0  0  0  0  0  0  0  0  0  0  0  0
   -2.2347   17.3988  -34.3892 H   0  0  0  0  0  0  0  0  0  0  0  0
   -0.3280   18.9802  -34.6315 H   0  0  0  0  0  0  0  0  0  0  0  0
    1.5677   21.6259  -34.6592 H   0  0  0  0  0  0  0  0  0  0  0  0
    0.4195   20.7313  -35.7119 H   0  0  0  0  0  0  0  0  0  0  0  0
    0.4251   22.5276  -35.7119 H   0  0  0  0  0  0  0  0  0  0  0  0
   -2.8230   22.2092  -33.1873 H   0  0  0  0  0  0  0  0  0  0  0  0
   -4.7294   20.6322  -32.9449 H   0  0  0  0  0  0  0  0  0  0  0  0
  1  2  2  0
  2  3  1  0
  3  4  1  0
  4  5  1  0
  5  6  1  0
  6  7  1  0
  7  8  1  0
  8  9  1  0
  9 10  1  0
 10 11  1  0
 11 12  2  0
 12 13  1  0
 13 14  1  0
 14 15  2  0
 14 16  1  0
 13 17  2  0
 17 18  1  0
 18 19  1  0
  4 20  1  0
 20 21  2  0
 21 22  1  0
 22 23  2  0
 23 24  1  0
 24 25  1  0
 23 26  1  0
 26 27  2  0
 19  8  1  0
 27 20  1  0
 18 11  1  0
  1 28  1  0
  1 29  1  0
  2 30  1  0
  3 31  1  0
  3 32  1  0
  5 33  1  0
  5 34  1  0
  6 35  1  0
  6 36  1  0
  7 37  1  0
  8 38  1  6
  9 39  1  0
  9 40  1  0
 10 41  1  0
 10 42  1  0
 12 43  1  0
 19 44  1  0
 19 45  1  0
 21 46  1  0
 22 47  1  0
 25 48  1  0
 25 49  1  0
 25 50  1  0
 26 51  1  0
 27 52  1  0
M  CHG  3  12   1  14   1  16  -1
M  END
>  <UniqueID>  (33) 
32

>  <SMILES>  (33) 
C=CCN(CCN[C@H]1CCc2[nH+]c([N+](=O)[O-])nn2C1)c1ccc(OC)cc1

>  <Energy>  (33) 
88.35740717021386

>  <Genealogy>  (33) 
C=CCN(CCNC1CCc2[nH+]c([N+](=O)[O-])nn2C1)c1ccc(OC)cc1 (protonated)
C=CCN(CCN[C@H]1CCc2[nH+]c([N+](=O)[O-])nn2C1)c1ccc(OC)cc1 (chirality)
C=CCN(CCN[C@H]1CCc2[nH+]c([N+](=O)[O-])nn2C1)c1ccc(OC)cc1 (3D coordinates assigned)
C=CCN(CCN[C@H]1CCc2[nH+]c([N+](=O)[O-])nn2C1)c1ccc(OC)cc1 (nonaromatic ring conformer: 88.35740717021386 kcal/mol)

>  <smiles>  (33) 
C=CCN(CCNC1CCc2nc([N+](=O)[O-])nn2C1)c1ccc(OC)cc1

>  <score_type>  (33) 
oracle

>  <origin>  (33) 
adg

>  <m_score__min__energy>  (33) 
-8.6699999999999999

>  <m_primary>  (33) 
energy

$$$$
33:0
     RDKit          3D

 37 38  0  0  0  0  0  0  0  0999 V2000
   -5.7420   16.4180  -33.9160 C   0  0  0  0  0  0  0  0  0  0  0  0
   -6.7430   16.6870  -32.9390 O   0  0  0  0  0  0  0  0  0  0  0  0
   -7.2730   17.9600  -32.6790 C   0  0  0  0  0  0  0  0  0  0  0  0
   -8.3630   18.1610  -31.8130 C   0  0  0  0  0  0  0  0  0  0  0  0
   -8.8550   19.4510  -31.5870 C   0  0  0  0  0  0  0  0  0  0  0  0
   -8.2690   20.5610  -32.2170 C   0  0  0  0  0  0  0  0  0  0  0  0
   -8.7990   21.8750  -31.9630 N   0  0  0  0  0  0  0  0  0  0  0  0
   -7.9770   22.9940  -31.4960 C   0  0  0  0  0  0  0  0  0  0  0  0
   -6.8680   23.3220  -32.5040 C   0  0  0  0  0  0  0  0  0  0  0  0
   -5.7520   24.0460  -31.8570 N   0  0  0  0  0  0  0  0  0  0  0  0
   -6.2570   24.8620  -30.7360 C   0  0  0  0  0  0  0  0  0  0  0  0
   -5.1020   25.6610  -30.0950 C   0  0  0  0  0  0  0  0  0  0  0  0
   -3.8270   25.2120  -30.5190 O   0  0  0  0  0  0  0  0  0  0  0  0
   -3.7460   23.8090  -30.3870 C   0  0  0  0  0  0  0  0  0  0  0  0
   -4.7040   23.1160  -31.3770 C   0  0  0  0  0  0  0  0  0  0  0  0
   -7.1790   20.3540  -33.0830 C   0  0  0  0  0  0  0  0  0  0  0  0
   -6.6890   19.0650  -33.3090 C   0  0  0  0  0  0  0  0  0  0  0  0
   -4.7974   16.1641  -33.4128 H   0  0  0  0  0  0  0  0  0  0  0  0
   -6.0609   15.5737  -34.5448 H   0  0  0  0  0  0  0  0  0  0  0  0
   -5.5947   17.3084  -34.5448 H   0  0  0  0  0  0  0  0  0  0  0  0
   -8.8303   17.3007  -31.3116 H   0  0  0  0  0  0  0  0  0  0  0  0
   -9.7090   19.5973  -30.9093 H   0  0  0  0  0  0  0  0  0  0  0  0
   -9.8220   22.0310  -32.1160 H   0  0  0  0  0  0  0  0  0  0  0  0
   -8.6164   23.8793  -31.3644 H   0  0  0  0  0  0  0  0  0  0  0  0
   -7.5094   22.7101  -30.5417 H   0  0  0  0  0  0  0  0  0  0  0  0
   -6.4857   22.3845  -32.9341 H   0  0  0  0  0  0  0  0  0  0  0  0
   -7.2912   23.9657  -33.2892 H   0  0  0  0  0  0  0  0  0  0  0  0
   -7.0189   25.5616  -31.1103 H   0  0  0  0  0  0  0  0  0  0  0  0
   -6.6973   24.1973  -29.9782 H   0  0  0  0  0  0  0  0  0  0  0  0
   -5.2116   26.7204  -30.3699 H   0  0  0  0  0  0  0  0  0  0  0  0
   -5.1609   25.5158  -29.0062 H   0  0  0  0  0  0  0  0  0  0  0  0
   -2.7154   23.4850  -30.5940 H   0  0  0  0  0  0  0  0  0  0  0  0
   -4.0327   23.5315  -29.3619 H   0  0  0  0  0  0  0  0  0  0  0  0
   -4.1258   22.7527  -32.2394 H   0  0  0  0  0  0  0  0  0  0  0  0
   -5.1950   22.2809  -30.8559 H   0  0  0  0  0  0  0  0  0  0  0  0
   -6.7096   21.2127  -33.5853 H   0  0  0  0  0  0  0  0  0  0  0  0
   -5.8365   18.9174  -33.9883 H   0  0  0  0  0  0  0  0  0  0  0  0
  1  2  1  0
  2  3  1  0
  3  4  2  0
  4  5  1  0
  5  6  2  0
  6  7  1  0
  7  8  1  0
  8  9  1  0
  9 10  1  0
 10 11  1  0
 11 12  1  0
 12 13  1  0
 13 14  1  0
 14 15  1  0
  6 16  1  0
 16 17  2  0
 17  3  1  0
 15 10  1  0
  1 18  1  0
  1 19  1  0
  1 20  1  0
  4 21  1  0
  5 22  1  0
  7 23  1  0
  8 24  1  0
  8 25  1  0
  9 26  1  0
  9 27  1  0
 11 28  1  0
 11 29  1  0
 12 30  1  0
 12 31  1  0
 14 32  1  0
 14 33  1  0
 15 34  1  0
 15 35  1  0
 16 36  1  0
 17 37  1  0
M  END
>  <UniqueID>  (34) 
33

>  <SMILES>  (34) 
COc1ccc(NCCN2CCOCC2)cc1

>  <Energy>  (34) 
42.91030435676669

>  <Genealogy>  (34) 
COc1ccc(NCCN2CCOCC2)cc1 (3D coordinates assigned)
COc1ccc(NCCN2CCOCC2)cc1 (nonaromatic ring conformer: 42.91030435676669 kcal/mol)

>  <smiles>  (34) 
COc1ccc(NCCN2CCOCC2)cc1

>  <score_type>  (34) 
oracle

>  <origin>  (34) 
adg

>  <m_score__min__energy>  (34) 
-6.8099999999999996

>  <m_primary>  (34) 
energy

$$$$
34:0
     RDKit          3D

 40 42  0  0  0  0  0  0  0  0999 V2000
   -0.2820   22.7848  -26.2724 H   0  0  0  0  0  0  0  0  0  0  0  0
   -0.9390   23.2090  -27.0460 C   0  0  0  0  0  0  0  0  0  0  0  0
   -2.1370   22.5680  -27.3740 C   0  0  0  0  0  0  0  0  0  0  0  0
   -2.4271   21.6447  -26.8511 H   0  0  0  0  0  0  0  0  0  0  0  0
   -2.9670   23.0990  -28.3660 C   0  0  0  0  0  0  0  0  0  0  0  0
   -3.9171   22.6010  -28.6094 H   0  0  0  0  0  0  0  0  0  0  0  0
   -2.5940   24.2620  -29.0510 C   0  0  0  0  0  0  0  0  0  0  0  0
   -3.4830   24.8050  -30.0370 N   0  0  0  0  0  0  0  0  0  0  0  0
   -4.7370   24.4840  -30.1890 C   0  0  0  0  0  0  0  0  0  0  0  0
   -5.7740   25.2460  -29.7780 N   0  0  0  0  0  0  0  0  0  0  0  0
   -5.7520   26.1780  -29.3090 H   0  0  0  0  0  0  0  0  0  0  0  0
   -6.8770   24.5570  -30.1240 C   0  0  0  0  0  0  0  0  0  0  0  0
   -7.9140   24.8691  -29.9311 H   0  0  0  0  0  0  0  0  0  0  0  0
   -6.4920   23.3920  -30.7620 C   0  0  0  0  0  0  0  0  0  0  0  0
   -7.4200   22.3550  -31.2610 C   0  0  0  0  0  0  0  0  0  0  0  0
   -8.7510   22.6690  -31.5790 C   0  0  0  0  0  0  0  0  0  0  0  0
   -9.1119   23.7019  -31.4654 H   0  0  0  0  0  0  0  0  0  0  0  0
   -9.6190   21.6760  -32.0390 C   0  0  0  0  0  0  0  0  0  0  0  0
  -10.6563   21.9328  -32.2998 H   0  0  0  0  0  0  0  0  0  0  0  0
   -9.1750   20.3590  -32.1690 C   0  0  0  0  0  0  0  0  0  0  0  0
   -9.8585   19.5844  -32.5470 H   0  0  0  0  0  0  0  0  0  0  0  0
   -7.8600   20.0210  -31.8190 C   0  0  0  0  0  0  0  0  0  0  0  0
   -7.3710   18.6120  -31.9870 C   0  0  0  0  0  0  0  0  0  0  0  0
   -7.2135   18.1581  -30.9975 H   0  0  0  0  0  0  0  0  0  0  0  0
   -8.1191   18.0281  -32.5433 H   0  0  0  0  0  0  0  0  0  0  0  0
   -6.4221   18.6171  -32.5433 H   0  0  0  0  0  0  0  0  0  0  0  0
   -6.9830   21.0230  -31.3750 C   0  0  0  0  0  0  0  0  0  0  0  0
   -5.9461   20.7645  -31.1142 H   0  0  0  0  0  0  0  0  0  0  0  0
   -5.1370   23.3490  -30.8040 N   0  0  0  0  0  0  0  0  0  0  0  0
   -4.2690   22.2720  -31.2920 C   0  0  0  0  0  0  0  0  0  0  0  0
   -4.6436   21.3086  -30.9158 H   0  0  0  0  0  0  0  0  0  0  0  0
   -3.2459   22.4528  -30.9305 H   0  0  0  0  0  0  0  0  0  0  0  0
   -4.2500   22.2400  -32.8190 C   0  0  0  0  0  0  0  0  0  0  0  0
   -3.7161   21.3408  -33.1603 H   0  0  0  0  0  0  0  0  0  0  0  0
   -5.2824   22.2195  -33.1982 H   0  0  0  0  0  0  0  0  0  0  0  0
   -3.7378   23.1366  -33.1982 H   0  0  0  0  0  0  0  0  0  0  0  0
   -1.4040   24.9240  -28.6940 C   0  0  0  0  0  0  0  0  0  0  0  0
   -1.0630   26.1010  -29.2780 F   0  0  0  0  0  0  0  0  0  0  0  0
   -0.5760   24.3890  -27.7010 C   0  0  0  0  0  0  0  0  0  0  0  0
    0.3623   24.8981  -27.4354 H   0  0  0  0  0  0  0  0  0  0  0  0
  1  2  1  0
  2  3  2  0
  3  4  1  0
  3  5  1  0
  5  6  1  0
  5  7  2  0
  7  8  1  0
  8  9  2  0
  9 10  1  0
 10 11  1  0
 10 12  1  0
 12 13  1  0
 12 14  2  0
 14 15  1  0
 15 16  2  0
 16 17  1  0
 16 18  1  0
 18 19  1  0
 18 20  2  0
 20 21  1  0
 20 22  1  0
 22 23  1  0
 23 24  1  0
 23 25  1  0
 23 26  1  0
 22 27  2  0
 27 28  1  0
 14 29  1  0
 29 30  1  0
 30 31  1  0
 30 32  1  0
 30 33  1  0
 33 34  1  0
 33 35  1  0
 33 36  1  0
  7 37  1  0
 37 38  1  0
 37 39  2  0
 39 40  1  0
 39  2  1  0
 29  9  1  0
 27 15  1  0
M  END
>  <UniqueID>  (35) 
34

>  <SMILES>  (35) 
CCn1c(-c2cccc(C)c2)c[nH]/c1=N\c1ccccc1F

>  <Energy>  (35) 
83.5823454997607

>  <Genealogy>  (35) 
CCn1c(-c2cccc(C)c2)c[nH]/c1=N\c1ccccc1F (cis-trans isomerization)
CCn1c(-c2cccc(C)c2)c[nH]/c1=N\c1ccccc1F (3D coordinates assigned)
CCn1c(-c2cccc(C)c2)c[nH]/c1=N\c1ccccc1F (optimized conformer: 83.5823454997607 kcal/mol)

>  <smiles>  (35) 
CCn1c(-c2cccc(C)c2)c[nH]c1=Nc1ccccc1F

>  <score_type>  (35) 
oracle

>  <origin>  (35) 
adg

>  <m_score__min__energy>  (35) 
-8.4299999999999997

>  <m_primary>  (35) 
energy

$$$$
35:0
     RDKit          3D

 29 32  0  0  0  0  0  0  0  0999 V2000
   -6.4860   25.7790  -29.3540 C   0  0  0  0  0  0  0  0  0  0  0  0
   -6.2140   24.5680  -30.1200 N   0  0  0  0  0  0  0  0  0  0  0  0
   -7.1210   24.0280  -30.9360 N   0  0  0  0  0  0  0  0  0  0  0  0
   -6.5530   22.9260  -31.4480 C   0  0  0  0  0  0  0  0  0  0  0  0
   -7.1030   22.0540  -32.3270 N   0  0  0  0  0  0  0  0  0  0  0  0
   -6.3480   20.9840  -32.7260 C   0  0  0  0  0  0  0  0  0  0  0  0
   -6.8660   20.0520  -33.6330 C   0  0  0  0  0  0  0  0  0  0  0  0
   -6.0870   18.9620  -34.0350 C   0  0  0  0  0  0  0  0  0  0  0  0
   -4.7890   18.7950  -33.5350 C   0  0  0  0  0  0  0  0  0  0  0  0
   -4.2560   19.7180  -32.6290 C   0  0  0  0  0  0  0  0  0  0  0  0
   -5.0210   20.8140  -32.2160 C   0  0  0  0  0  0  0  0  0  0  0  0
   -4.5090   21.7210  -31.3300 N   0  0  0  0  0  0  0  0  0  0  0  0
   -5.2960   22.7610  -30.9650 C   0  0  0  0  0  0  0  0  0  0  0  0
   -5.0700   23.8200  -30.1180 C   0  0  0  0  0  0  0  0  0  0  0  0
   -3.8270   24.0510  -29.3510 C   0  0  0  0  0  0  0  0  0  0  0  0
   -3.4260   23.4370  -28.1760 C   0  0  0  0  0  0  0  0  0  0  0  0
   -2.2140   24.0050  -27.8510 C   0  0  0  0  0  0  0  0  0  0  0  0
   -1.9470   24.9310  -28.8370 C   0  0  0  0  0  0  0  0  0  0  0  0
   -2.9260   24.9370  -29.7110 O   0  0  0  0  0  0  0  0  0  0  0  0
   -6.4350   25.5520  -28.2789 H   0  0  0  0  0  0  0  0  0  0  0  0
   -5.7378   26.5460  -29.6027 H   0  0  0  0  0  0  0  0  0  0  0  0
   -7.4904   26.1523  -29.6027 H   0  0  0  0  0  0  0  0  0  0  0  0
   -7.8846   20.1767  -34.0292 H   0  0  0  0  0  0  0  0  0  0  0  0
   -6.4961   18.2313  -34.7482 H   0  0  0  0  0  0  0  0  0  0  0  0
   -4.1856   17.9333  -33.8566 H   0  0  0  0  0  0  0  0  0  0  0  0
   -3.2356   19.5820  -32.2414 H   0  0  0  0  0  0  0  0  0  0  0  0
   -3.9643   22.6569  -27.6177 H   0  0  0  0  0  0  0  0  0  0  0  0
   -1.5855   23.7676  -26.9800 H   0  0  0  0  0  0  0  0  0  0  0  0
   -1.0509   25.5672  -28.8839 H   0  0  0  0  0  0  0  0  0  0  0  0
  1  2  1  0
  2  3  1  0
  3  4  2  0
  4  5  1  0
  5  6  2  0
  6  7  1  0
  7  8  2  0
  8  9  1  0
  9 10  2  0
 10 11  1  0
 11 12  2  0
 12 13  1  0
 13 14  2  0
 14 15  1  0
 15 16  2  0
 16 17  1  0
 17 18  2  0
 18 19  1  0
 14  2  1  0
 19 15  1  0
 13  4  1  0
 11  6  1  0
  1 20  1  0
  1 21  1  0
  1 22  1  0
  7 23  1  0
  8 24  1  0
  9 25  1  0
 10 26  1  0
 16 27  1  0
 17 28  1  0
 18 29  1  0
M  END
>  <UniqueID>  (36) 
35

>  <SMILES>  (36) 
Cn1nc2nc3ccccc3nc2c1-c1ccco1

>  <Energy>  (36) 
107.24539399301099

>  <Genealogy>  (36) 
Cn1nc2nc3ccccc3nc2c1-c1ccco1 (3D coordinates assigned)
Cn1nc2nc3ccccc3nc2c1-c1ccco1 (optimized conformer: 107.24539399301099 kcal/mol)

>  <smiles>  (36) 
Cn1nc2nc3ccccc3nc2c1-c1ccco1

>  <score_type>  (36) 
oracle

>  <origin>  (36) 
adg

>  <m_score__min__energy>  (36) 
-7.1100000000000003

>  <m_primary>  (36) 
energy

$$$$
36:0
     RDKit          3D

 48 51  0  0  0  0  0  0  0  0999 V2000
   -6.5070   14.8120  -34.2120 C   0  0  0  0  0  0  0  0  0  0  0  0
   -7.2310   16.0140  -33.9720 O   0  0  0  0  0  0  0  0  0  0  0  0
   -6.6740   17.1860  -33.4320 C   0  0  0  0  0  0  0  0  0  0  0  0
   -5.3010   17.3390  -33.2270 C   0  0  0  0  0  0  0  0  0  0  0  0
   -4.7920   18.5240  -32.6950 C   0  0  0  0  0  0  0  0  0  0  0  0
   -5.6460   19.5980  -32.3370 C   0  0  0  0  0  0  0  0  0  0  0  0
   -7.0410   19.4470  -32.5480 C   0  0  0  0  0  0  0  0  0  0  0  0
   -7.5300   18.2340  -33.1000 C   0  0  0  0  0  0  0  0  0  0  0  0
   -7.9190   20.5160  -32.2320 C   0  0  0  0  0  0  0  0  0  0  0  0
   -9.4250   20.2960  -32.2600 C   0  0  0  0  0  0  0  0  0  0  0  0
   -7.4000   21.7520  -31.9100 N   0  0  0  0  0  0  0  0  0  0  0  0
   -8.2740   22.9450  -31.9680 C   0  0  0  0  0  0  0  0  0  0  0  0
   -6.0750   21.8780  -31.5390 C   0  0  0  0  0  0  0  0  0  0  0  0
   -5.6070   23.0530  -30.8980 C   0  0  0  0  0  0  0  0  0  0  0  0
   -4.2700   23.1990  -30.5210 C   0  0  0  0  0  0  0  0  0  0  0  0
   -3.8370   24.3650  -29.8700 C   0  0  0  0  0  0  0  0  0  0  0  0
   -2.4940   24.5080  -29.4690 C   0  0  0  0  0  0  0  0  0  0  0  0
   -2.0360   25.6760  -28.8370 O   0  0  0  0  0  0  0  0  0  0  0  0
   -1.5860   25.7490  -27.4880 C   0  0  0  0  0  0  0  0  0  0  0  0
   -1.5810   23.4670  -29.7290 C   0  0  0  0  0  0  0  0  0  0  0  0
   -0.2370   23.5340  -29.3330 O   0  0  0  0  0  0  0  0  0  0  0  0
    0.2450   22.9950  -28.1070 C   0  0  0  0  0  0  0  0  0  0  0  0
   -2.0130   22.3150  -30.4040 C   0  0  0  0  0  0  0  0  0  0  0  0
   -3.3560   22.1670  -30.7850 C   0  0  0  0  0  0  0  0  0  0  0  0
   -3.8000   20.9870  -31.3930 C   0  0  0  0  0  0  0  0  0  0  0  0
   -5.1600   20.8090  -31.7630 C   0  0  0  0  0  0  0  0  0  0  0  0
   -6.2303   14.3526  -33.2516 H   0  0  0  0  0  0  0  0  0  0  0  0
   -7.1350   14.1139  -34.7849 H   0  0  0  0  0  0  0  0  0  0  0  0
   -5.5963   15.0407  -34.7849 H   0  0  0  0  0  0  0  0  0  0  0  0
   -4.6156   16.5188  -33.4870 H   0  0  0  0  0  0  0  0  0  0  0  0
   -3.7065   18.6273  -32.5503 H   0  0  0  0  0  0  0  0  0  0  0  0
   -8.6107   18.1187  -33.2697 H   0  0  0  0  0  0  0  0  0  0  0  0
   -9.8066   20.2403  -31.2298 H   0  0  0  0  0  0  0  0  0  0  0  0
   -9.9081   21.1331  -32.7852 H   0  0  0  0  0  0  0  0  0  0  0  0
   -9.6485   19.3557  -32.7852 H   0  0  0  0  0  0  0  0  0  0  0  0
   -8.5145   23.2733  -30.9461 H   0  0  0  0  0  0  0  0  0  0  0  0
   -7.7540   23.7550  -32.5005 H   0  0  0  0  0  0  0  0  0  0  0  0
   -9.2030   22.6934  -32.5005 H   0  0  0  0  0  0  0  0  0  0  0  0
   -6.3144   23.8699  -30.6925 H   0  0  0  0  0  0  0  0  0  0  0  0
   -4.5537   25.1754  -29.6709 H   0  0  0  0  0  0  0  0  0  0  0  0
   -2.4400   25.6105  -26.8086 H   0  0  0  0  0  0  0  0  0  0  0  0
   -0.8414   24.9599  -27.3066 H   0  0  0  0  0  0  0  0  0  0  0  0
   -1.1290   26.7330  -27.3066 H   0  0  0  0  0  0  0  0  0  0  0  0
   -0.2263   23.5220  -27.2643 H   0  0  0  0  0  0  0  0  0  0  0  0
   -0.0026   21.9245  -28.0546 H   0  0  0  0  0  0  0  0  0  0  0  0
    1.3364   23.1219  -28.0546 H   0  0  0  0  0  0  0  0  0  0  0  0
   -1.2909   21.5187  -30.6373 H   0  0  0  0  0  0  0  0  0  0  0  0
   -3.0795   20.1792  -31.5888 H   0  0  0  0  0  0  0  0  0  0  0  0
  1  2  1  0
  2  3  1  0
  3  4  2  0
  4  5  1  0
  5  6  2  0
  6  7  1  0
  7  8  2  0
  7  9  1  0
  9 10  1  0
  9 11  2  0
 11 12  1  0
 11 13  1  0
 13 14  2  0
 14 15  1  0
 15 16  2  0
 16 17  1  0
 17 18  1  0
 18 19  1  0
 17 20  2  0
 20 21  1  0
 21 22  1  0
 20 23  1  0
 23 24  2  0
 24 25  1  0
 25 26  2  0
  8  3  1  0
 26 13  1  0
 26  6  1  0
 24 15  1  0
  1 27  1  0
  1 28  1  0
  1 29  1  0
  4 30  1  0
  5 31  1  0
  8 32  1  0
 10 33  1  0
 10 34  1  0
 10 35  1  0
 12 36  1  0
 12 37  1  0
 12 38  1  0
 14 39  1  0
 16 40  1  0
 19 41  1  0
 19 42  1  0
 19 43  1  0
 22 44  1  0
 22 45  1  0
 22 46  1  0
 23 47  1  0
 25 48  1  0
M  CHG  1  11   1
M  END
>  <UniqueID>  (37) 
36

>  <SMILES>  (37) 
COc1ccc2c(c1)c(C)[n+](C)c1cc3cc(OC)c(OC)cc3cc21

>  <Energy>  (37) 
85.92511291050167

>  <Genealogy>  (37) 
COc1ccc2c(c1)c(C)[n+](C)c1cc3cc(OC)c(OC)cc3cc21 (3D coordinates assigned)
COc1ccc2c(c1)c(C)[n+](C)c1cc3cc(OC)c(OC)cc3cc21 (optimized conformer: 85.92511291050167 kcal/mol)

>  <smiles>  (37) 
COc1ccc2c(c1)c(C)[n+](C)c1cc3cc(OC)c(OC)cc3cc21

>  <score_type>  (37) 
oracle

>  <origin>  (37) 
adg

>  <m_score__min__energy>  (37) 
-8.1799999999999997

>  <m_primary>  (37) 
energy

$$$$
37:0
     RDKit          3D

 55 58  0  0  1  0  0  0  0  0999 V2000
   -8.0310   18.3660  -32.3720 C   0  0  0  0  0  0  0  0  0  0  0  0
   -7.7550   19.6640  -33.0540 C   0  0  0  0  0  0  0  0  0  0  0  0
   -7.5250   20.7780  -32.0940 C   0  0  0  0  0  0  0  0  0  0  0  0
   -8.1930   20.7610  -31.0380 O   0  0  0  0  0  0  0  0  0  0  0  0
   -6.5900   21.7930  -32.3820 N   0  0  0  0  0  0  0  0  0  0  0  0
   -6.2690   22.8930  -31.5810 C   0  0  0  0  0  0  0  0  0  0  0  0
   -7.3070   23.5290  -30.8850 C   0  0  0  0  0  0  0  0  0  0  0  0
   -7.0780   24.6050  -30.0860 C   0  0  0  0  0  0  0  0  0  0  0  0
   -5.8200   25.1330  -29.9160 C   0  0  0  0  0  0  0  0  0  0  0  0
   -4.7860   24.5310  -30.5850 C   0  0  0  0  0  0  0  0  0  0  0  0
   -3.4940   25.0250  -30.4460 O   0  0  0  0  0  0  0  0  0  0  0  0
   -2.6330   24.4610  -29.5360 C   0  0  0  0  0  0  0  0  0  0  0  0
   -1.6990   25.2520  -28.9600 N   0  0  0  0  0  0  0  0  0  0  0  0
   -0.8450   24.7210  -28.0650 C   0  0  0  0  0  0  0  0  0  0  0  0
    0.0760   25.4320  -27.4750 N   0  0  0  0  0  0  0  0  0  0  0  0
   -0.2280   26.0680  -26.2270 C   0  0  0  0  0  0  0  0  0  0  0  0
   -0.2280   25.2910  -25.0870 C   0  0  0  0  0  0  0  0  0  0  0  0
   -0.5180   25.8680  -23.8510 C   0  0  0  0  0  0  0  0  0  0  0  0
   -0.8020   27.2100  -23.7870 C   0  0  0  0  0  0  0  0  0  0  0  0
   -0.7970   27.9730  -24.9380 C   0  0  0  0  0  0  0  0  0  0  0  0
   -1.0860   29.3060  -24.8260 F   0  0  0  0  0  0  0  0  0  0  0  0
   -0.5120   27.4180  -26.1690 C   0  0  0  0  0  0  0  0  0  0  0  0
   -0.8980   23.4280  -27.7320 N   0  0  0  0  0  0  0  0  0  0  0  0
   -1.8170   22.6170  -28.2900 C   0  0  0  0  0  0  0  0  0  0  0  0
   -1.8670   21.2460  -27.9310 N   0  0  0  0  0  0  0  0  0  0  0  0
   -3.0860   20.4640  -27.8970 C   0  0  0  0  0  0  0  0  0  0  0  0
   -3.0010   19.4910  -26.7350 C   0  0  0  0  0  0  0  0  0  0  0  0
   -1.8930   18.6810  -26.7670 O   0  0  0  0  0  0  0  0  0  0  0  0
   -0.9370   19.0740  -27.6980 C   0  0  0  0  0  0  0  0  0  0  0  0
   -0.6380   20.5540  -27.5730 C   0  0  0  0  0  0  0  0  0  0  0  0
   -2.6670   23.1500  -29.1820 N   0  0  0  0  0  0  0  0  0  0  0  0
   -5.0250   23.4350  -31.3960 C   0  0  0  0  0  0  0  0  0  0  0  0
   -8.0002   18.5107  -31.2820 H   0  0  0  0  0  0  0  0  0  0  0  0
   -9.0266   18.0020  -32.6656 H   0  0  0  0  0  0  0  0  0  0  0  0
   -7.2696   17.6284  -32.6656 H   0  0  0  0  0  0  0  0  0  0  0  0
   -6.8586   19.5488  -33.6811 H   0  0  0  0  0  0  0  0  0  0  0  0
   -8.6405   19.9195  -33.6545 H   0  0  0  0  0  0  0  0  0  0  0  0
   -6.0870   21.6910  -33.3150 H   0  0  0  0  0  0  0  0  0  0  0  0
   -8.3335   23.1473  -30.9882 H   0  0  0  0  0  0  0  0  0  0  0  0
   -7.9257   25.0675  -29.5592 H   0  0  0  0  0  0  0  0  0  0  0  0
   -5.6497   26.0053  -29.2678 H   0  0  0  0  0  0  0  0  0  0  0  0
    0.0006   24.2170  -25.1530 H   0  0  0  0  0  0  0  0  0  0  0  0
   -0.5192   25.2550  -22.9376 H   0  0  0  0  0  0  0  0  0  0  0  0
   -1.0336   27.6774  -22.8185 H   0  0  0  0  0  0  0  0  0  0  0  0
   -0.5111   28.0348  -27.0798 H   0  0  0  0  0  0  0  0  0  0  0  0
   -3.9507   21.1302  -27.7608 H   0  0  0  0  0  0  0  0  0  0  0  0
   -3.2075   19.9137  -28.8416 H   0  0  0  0  0  0  0  0  0  0  0  0
   -2.9800   20.0696  -25.7997 H   0  0  0  0  0  0  0  0  0  0  0  0
   -3.8795   18.8328  -26.8051 H   0  0  0  0  0  0  0  0  0  0  0  0
   -0.0119   18.5039  -27.5271 H   0  0  0  0  0  0  0  0  0  0  0  0
   -1.3277   18.8781  -28.7075 H   0  0  0  0  0  0  0  0  0  0  0  0
   -0.3489   20.7991  -26.5404 H   0  0  0  0  0  0  0  0  0  0  0  0
    0.1956   20.8520  -28.2259 H   0  0  0  0  0  0  0  0  0  0  0  0
   -3.4010   22.5820  -29.6520 H   0  0  0  0  0  0  0  0  0  0  0  0
   -4.1726   22.9762  -31.9183 H   0  0  0  0  0  0  0  0  0  0  0  0
  1  2  1  0
  2  3  1  0
  3  4  2  0
  3  5  1  0
  5  6  1  0
  6  7  2  0
  7  8  1  0
  8  9  2  0
  9 10  1  0
 10 11  1  0
 11 12  1  0
 12 13  2  0
 13 14  1  0
 14 15  2  0
 15 16  1  0
 16 17  2  0
 17 18  1  0
 18 19  2  0
 19 20  1  0
 20 21  1  0
 20 22  2  0
 14 23  1  0
 23 24  2  0
 24 25  1  0
 25 26  1  0
 26 27  1  0
 27 28  1  0
 28 29  1  0
 29 30  1  0
 24 31  1  0
 10 32  2  0
 32  6  1  0
 31 12  1  0
 22 16  1  0
 30 25  1  0
  1 33  1  0
  1 34  1  0
  1 35  1  0
  2 36  1  0
  2 37  1  0
  5 38  1  0
  7 39  1  0
  8 40  1  0
  9 41  1  0
 17 42  1  0
 18 43  1  0
 19 44  1  0
 22 45  1  0
 26 46  1  0
 26 47  1  0
 27 48  1  0
 27 49  1  0
 29 50  1  0
 29 51  1  0
 30 52  1  0
 30 53  1  0
 31 54  1  0
 32 55  1  0
M  END
>  <smiles>  (38) 
CCC(=O)Nc1cccc(Oc2nc(=Nc3cccc(F)c3)nc(N3CCOCC3)[nH]2)c1

>  <score_type>  (38) 
oracle

>  <origin>  (38) 
adg

>  <m_score__min__energy>  (38) 
-9.5700000000000003

>  <m_primary>  (38) 
energy

$$$$
38:0
     RDKit          3D

 37 39  0  0  0  0  0  0  0  0999 V2000
   -2.0330   25.6800  -28.7880 O   0  0  0  0  0  0  0  0  0  0  0  0
   -2.6010   24.7230  -29.3770 C   0  0  0  0  0  0  0  0  0  0  0  0
   -3.4890   25.0180  -30.4640 N   0  0  0  0  0  0  0  0  0  0  0  0
   -4.9440   24.8720  -30.4640 C   0  0  0  0  0  0  0  0  0  0  0  0
   -5.3550   23.4320  -30.1470 C   0  0  0  0  0  0  0  0  0  0  0  0
   -4.8360   22.4620  -31.1720 C   0  0  0  0  0  0  0  0  0  0  0  0
   -3.5280   22.3520  -31.4840 N   0  0  0  0  0  0  0  0  0  0  0  0
   -3.4290   21.4470  -32.4470 N   0  0  0  0  0  0  0  0  0  0  0  0
   -4.6790   21.0240  -32.7120 C   0  0  0  0  0  0  0  0  0  0  0  0
   -5.0180   19.8730  -33.8270 S   0  0  0  0  0  0  0  0  0  0  0  0
   -5.5900   21.6350  -31.9280 N   0  0  0  0  0  0  0  0  0  0  0  0
   -7.0110   21.4330  -31.8930 C   0  0  0  0  0  0  0  0  0  0  0  0
   -7.5340   20.1410  -31.7310 C   0  0  0  0  0  0  0  0  0  0  0  0
   -8.9170   19.9390  -31.6960 C   0  0  0  0  0  0  0  0  0  0  0  0
   -9.7860   21.0280  -31.8140 C   0  0  0  0  0  0  0  0  0  0  0  0
   -9.2730   22.3190  -31.9620 C   0  0  0  0  0  0  0  0  0  0  0  0
   -7.8900   22.5250  -31.9980 C   0  0  0  0  0  0  0  0  0  0  0  0
   -7.4050   23.7870  -32.1160 F   0  0  0  0  0  0  0  0  0  0  0  0
   -2.3470   23.3430  -28.9100 C   0  0  0  0  0  0  0  0  0  0  0  0
   -3.2050   22.7550  -27.9640 C   0  0  0  0  0  0  0  0  0  0  0  0
   -2.9790   21.4490  -27.5210 C   0  0  0  0  0  0  0  0  0  0  0  0
   -1.9120   20.7100  -28.0370 C   0  0  0  0  0  0  0  0  0  0  0  0
   -1.0770   21.2710  -29.0070 C   0  0  0  0  0  0  0  0  0  0  0  0
   -1.2990   22.5790  -29.4500 C   0  0  0  0  0  0  0  0  0  0  0  0
   -5.3721   25.5429  -29.7046 H   0  0  0  0  0  0  0  0  0  0  0  0
   -5.3203   25.1297  -31.4650 H   0  0  0  0  0  0  0  0  0  0  0  0
   -4.9529   23.1563  -29.1609 H   0  0  0  0  0  0  0  0  0  0  0  0
   -6.4538   23.3815  -30.1556 H   0  0  0  0  0  0  0  0  0  0  0  0
   -6.8527   19.2832  -31.6311 H   0  0  0  0  0  0  0  0  0  0  0  0
   -9.3215   18.9232  -31.5756 H   0  0  0  0  0  0  0  0  0  0  0  0
  -10.8741   20.8682  -31.7903 H   0  0  0  0  0  0  0  0  0  0  0  0
   -9.9580   23.1751  -32.0504 H   0  0  0  0  0  0  0  0  0  0  0  0
   -4.0588   23.3261  -27.5704 H   0  0  0  0  0  0  0  0  0  0  0  0
   -3.6420   21.0026  -26.7653 H   0  0  0  0  0  0  0  0  0  0  0  0
   -1.7289   19.6859  -27.6797 H   0  0  0  0  0  0  0  0  0  0  0  0
   -0.2448   20.6837  -29.4223 H   0  0  0  0  0  0  0  0  0  0  0  0
   -0.6496   23.0117  -30.2253 H   0  0  0  0  0  0  0  0  0  0  0  0
  1  2  2  0
  2  3  1  0
  3  4  1  0
  4  5  1  0
  5  6  1  0
  6  7  2  0
  7  8  1  0
  8  9  1  0
  9 10  2  0
  9 11  1  0
 11 12  1  0
 12 13  2  0
 13 14  1  0
 14 15  2  0
 15 16  1  0
 16 17  2  0
 17 18  1  0
  2 19  1  0
 19 20  2  0
 20 21  1  0
 21 22  2  0
 22 23  1  0
 23 24  2  0
 11  6  1  0
 17 12  1  0
 24 19  1  0
  4 25  1  0
  4 26  1  0
  5 27  1  0
  5 28  1  0
 13 29  1  0
 14 30  1  0
 15 31  1  0
 16 32  1  0
 20 33  1  0
 21 34  1  0
 22 35  1  0
 23 36  1  0
 24 37  1  0
M  CHG  2   3  -1   8  -1
M  END
>  <UniqueID>  (39) 
37

>  <SMILES>  (39) 
O=C([N-]CCc1n[n-]c(=S)n1-c1ccccc1F)c1ccccc1

>  <Energy>  (39) 
81.27456707100697

>  <Genealogy>  (39) 
O=C([N-]CCc1n[n-]c(=S)n1-c1ccccc1F)c1ccccc1 (protonated)
O=C([N-]CCc1n[n-]c(=S)n1-c1ccccc1F)c1ccccc1 (3D coordinates assigned)
O=C([N-]CCc1n[n-]c(=S)n1-c1ccccc1F)c1ccccc1 (optimized conformer: 81.27456707100697 kcal/mol)

>  <smiles>  (39) 
O=C(NCCc1n[nH]c(=S)n1-c1ccccc1F)c1ccccc1

>  <score_type>  (39) 
oracle

>  <origin>  (39) 
adg

>  <m_score__min__energy>  (39) 
-10.130000000000001

>  <m_primary>  (39) 
energy

$$$$
39:0
     RDKit          3D

 37 39  0  0  0  0  0  0  0  0999 V2000
   -4.1950   25.6620  -30.8340 O   0  0  0  0  0  0  0  0  0  0  0  0
   -4.2490   24.6590  -30.0730 C   0  0  0  0  0  0  0  0  0  0  0  0
   -5.5740   24.1650  -29.5890 C   0  0  0  0  0  0  0  0  0  0  0  0
   -6.4180   23.8180  -30.7250 N   0  0  0  0  0  0  0  0  0  0  0  0
   -6.1180   23.9130  -32.0310 C   0  0  0  0  0  0  0  0  0  0  0  0
   -7.1430   23.4180  -32.7440 N   0  0  0  0  0  0  0  0  0  0  0  0
   -8.0540   23.0160  -31.8700 N   0  0  0  0  0  0  0  0  0  0  0  0
   -7.6120   23.2530  -30.6430 N   0  0  0  0  0  0  0  0  0  0  0  0
   -3.0570   23.9540  -29.7110 N   0  0  0  0  0  0  0  0  0  0  0  0
   -2.9470   22.5000  -29.7110 C   0  0  0  0  0  0  0  0  0  0  0  0
   -3.5270   21.9350  -30.9730 C   0  0  0  0  0  0  0  0  0  0  0  0
   -4.6430   21.0900  -30.9400 C   0  0  0  0  0  0  0  0  0  0  0  0
   -5.1690   20.6130  -32.1510 C   0  0  0  0  0  0  0  0  0  0  0  0
   -6.3160   19.7420  -32.1810 N   0  0  0  0  0  0  0  0  0  0  0  0
   -7.6100   20.0600  -31.6000 C   0  0  0  0  0  0  0  0  0  0  0  0
   -8.5410   18.9310  -32.0220 C   0  0  0  0  0  0  0  0  0  0  0  0
   -7.6360   17.7950  -32.4880 C   0  0  0  0  0  0  0  0  0  0  0  0
   -6.2970   18.4380  -32.8210 C   0  0  0  0  0  0  0  0  0  0  0  0
   -4.5780   20.9860  -33.3190 N   0  0  0  0  0  0  0  0  0  0  0  0
   -3.5000   21.8100  -33.3360 C   0  0  0  0  0  0  0  0  0  0  0  0
   -2.9850   22.2820  -32.1710 N   0  0  0  0  0  0  0  0  0  0  0  0
   -5.4241   23.2748  -28.9604 H   0  0  0  0  0  0  0  0  0  0  0  0
   -6.0635   24.9561  -29.0020 H   0  0  0  0  0  0  0  0  0  0  0  0
   -5.1878   24.3272  -32.4472 H   0  0  0  0  0  0  0  0  0  0  0  0
   -7.2250   23.3460  -33.7820 H   0  0  0  0  0  0  0  0  0  0  0  0
   -1.8866   22.2162  -29.6400 H   0  0  0  0  0  0  0  0  0  0  0  0
   -3.5026   22.0988  -28.8505 H   0  0  0  0  0  0  0  0  0  0  0  0
   -5.1000   20.8046  -29.9810 H   0  0  0  0  0  0  0  0  0  0  0  0
   -7.5368   20.1069  -30.5034 H   0  0  0  0  0  0  0  0  0  0  0  0
   -7.9785   21.0386  -31.9414 H   0  0  0  0  0  0  0  0  0  0  0  0
   -9.1571   18.6049  -31.1711 H   0  0  0  0  0  0  0  0  0  0  0  0
   -9.2294   19.2514  -32.8179 H   0  0  0  0  0  0  0  0  0  0  0  0
   -7.5142   17.0500  -31.6879 H   0  0  0  0  0  0  0  0  0  0  0  0
   -8.0601   17.2717  -33.3577 H   0  0  0  0  0  0  0  0  0  0  0  0
   -5.4705   17.8291  -32.4259 H   0  0  0  0  0  0  0  0  0  0  0  0
   -6.1462   18.5216  -33.9074 H   0  0  0  0  0  0  0  0  0  0  0  0
   -3.0425   22.0962  -34.2946 H   0  0  0  0  0  0  0  0  0  0  0  0
  1  2  2  0
  2  3  1  0
  3  4  1  0
  4  5  1  0
  5  6  2  0
  6  7  1  0
  7  8  2  0
  2  9  1  0
  9 10  1  0
 10 11  1  0
 11 12  2  0
 12 13  1  0
 13 14  1  0
 14 15  1  0
 15 16  1  0
 16 17  1  0
 17 18  1  0
 13 19  2  0
 19 20  1  0
 20 21  2  0
  8  4  1  0
 21 11  1  0
 18 14  1  0
  3 22  1  0
  3 23  1  0
  5 24  1  0
  6 25  1  0
 10 26  1  0
 10 27  1  0
 12 28  1  0
 15 29  1  0
 15 30  1  0
 16 31  1  0
 16 32  1  0
 17 33  1  0
 17 34  1  0
 18 35  1  0
 18 36  1  0
 20 37  1  0
M  CHG  2   6   1   9  -1
M  END
>  <UniqueID>  (40) 
38

>  <SMILES>  (40) 
O=C(Cn1c[nH+]nn1)[N-]Cc1cc(N2CCCC2)ncn1

>  <Energy>  (40) 
74.55955782837923

>  <Genealogy>  (40) 
O=C(Cn1c[nH+]nn1)[N-]Cc1cc(N2CCCC2)ncn1 (protonated)
O=C(Cn1c[nH+]nn1)[N-]Cc1cc(N2CCCC2)ncn1 (3D coordinates assigned)
O=C(Cn1c[nH+]nn1)[N-]Cc1cc(N2CCCC2)ncn1 (nonaromatic ring conformer: 74.55955782837923 kcal/mol)

>  <smiles>  (40) 
O=C(Cn1cnnn1)NCc1cc(N2CCCC2)ncn1

>  <score_type>  (40) 
oracle

>  <origin>  (40) 
adg

>  <m_score__min__energy>  (40) 
-9.7699999999999996

>  <m_primary>  (40) 
energy

$$$$
40:0
     RDKit          3D

 48 50  0  0  0  0  0  0  0  0999 V2000
   -0.8700   25.8440  -29.7570 H   0  0  0  0  0  0  0  0  0  0  0  0
   -1.6070   25.4320  -29.1490 N   0  0  0  0  0  0  0  0  0  0  0  0
   -2.5950   24.6870  -29.5440 C   0  0  0  0  0  0  0  0  0  0  0  0
   -3.6430   25.2990  -30.1520 N   0  0  0  0  0  0  0  0  0  0  0  0
   -4.7320   24.6250  -30.6030 C   0  0  0  0  0  0  0  0  0  0  0  0
   -5.5491   25.1736  -31.0944 H   0  0  0  0  0  0  0  0  0  0  0  0
   -4.8220   23.2380  -30.4470 C   0  0  0  0  0  0  0  0  0  0  0  0
   -6.0270   22.5250  -30.9340 C   0  0  0  0  0  0  0  0  0  0  0  0
   -7.1630   22.4020  -30.1180 C   0  0  0  0  0  0  0  0  0  0  0  0
   -7.1633   22.8434  -29.1104 H   0  0  0  0  0  0  0  0  0  0  0  0
   -8.2930   21.7220  -30.5790 C   0  0  0  0  0  0  0  0  0  0  0  0
   -9.1784   21.6354  -29.9321 H   0  0  0  0  0  0  0  0  0  0  0  0
   -8.3090   21.1500  -31.8560 C   0  0  0  0  0  0  0  0  0  0  0  0
   -9.4570   20.4480  -32.2520 O   0  0  0  0  0  0  0  0  0  0  0  0
   -9.4760   19.1100  -32.7560 C   0  0  0  0  0  0  0  0  0  0  0  0
  -10.4993   18.7131  -32.6834 H   0  0  0  0  0  0  0  0  0  0  0  0
   -9.1414   19.1262  -33.8038 H   0  0  0  0  0  0  0  0  0  0  0  0
   -8.5300   18.2060  -31.9560 C   0  0  0  0  0  0  0  0  0  0  0  0
   -8.4901   18.5558  -30.9139 H   0  0  0  0  0  0  0  0  0  0  0  0
   -8.9068   17.1733  -31.9950 H   0  0  0  0  0  0  0  0  0  0  0  0
   -7.1660   18.2410  -32.5350 N   0  0  0  0  0  0  0  0  0  0  0  0
   -6.1370   18.3550  -31.4760 C   0  0  0  0  0  0  0  0  0  0  0  0
   -6.5272   18.9750  -30.6554 H   0  0  0  0  0  0  0  0  0  0  0  0
   -5.8925   17.3494  -31.1033 H   0  0  0  0  0  0  0  0  0  0  0  0
   -4.8730   18.9990  -32.0370 C   0  0  0  0  0  0  0  0  0  0  0  0
   -4.2294   19.3269  -31.2074 H   0  0  0  0  0  0  0  0  0  0  0  0
   -4.3314   18.2670  -32.6540 H   0  0  0  0  0  0  0  0  0  0  0  0
   -5.1468   19.8675  -32.6540 H   0  0  0  0  0  0  0  0  0  0  0  0
   -6.9190   17.0670  -33.4010 C   0  0  0  0  0  0  0  0  0  0  0  0
   -6.4118   16.2855  -32.8162 H   0  0  0  0  0  0  0  0  0  0  0  0
   -7.8822   16.6920  -33.7774 H   0  0  0  0  0  0  0  0  0  0  0  0
   -6.0410   17.4570  -34.5880 C   0  0  0  0  0  0  0  0  0  0  0  0
   -5.0935   17.8779  -34.2205 H   0  0  0  0  0  0  0  0  0  0  0  0
   -5.8339   16.5662  -35.1992 H   0  0  0  0  0  0  0  0  0  0  0  0
   -6.5631   18.2078  -35.1992 H   0  0  0  0  0  0  0  0  0  0  0  0
   -7.1820   21.2980  -32.6870 C   0  0  0  0  0  0  0  0  0  0  0  0
   -7.1914   20.8753  -33.7025 H   0  0  0  0  0  0  0  0  0  0  0  0
   -6.0520   21.9790  -32.2280 C   0  0  0  0  0  0  0  0  0  0  0  0
   -5.1760   22.0884  -32.8842 H   0  0  0  0  0  0  0  0  0  0  0  0
   -3.7530   22.5570  -29.8330 C   0  0  0  0  0  0  0  0  0  0  0  0
   -3.7920   21.2010  -29.7060 N   0  0  0  0  0  0  0  0  0  0  0  0
   -2.7860   20.4950  -29.1300 C   0  0  0  0  0  0  0  0  0  0  0  0
   -2.8601   19.4008  -29.0451 H   0  0  0  0  0  0  0  0  0  0  0  0
   -1.6610   21.1560  -28.6470 C   0  0  0  0  0  0  0  0  0  0  0  0
   -0.8460   20.5883  -28.1742 H   0  0  0  0  0  0  0  0  0  0  0  0
   -1.5730   22.5430  -28.7660 C   0  0  0  0  0  0  0  0  0  0  0  0
   -0.6836   23.0688  -28.3887 H   0  0  0  0  0  0  0  0  0  0  0  0
   -2.6190   23.2760  -29.3680 C   0  0  0  0  0  0  0  0  0  0  0  0
  1  2  1  0
  2  3  2  0
  3  4  1  0
  4  5  1  0
  5  6  1  0
  5  7  2  0
  7  8  1  0
  8  9  2  0
  9 10  1  0
  9 11  1  0
 11 12  1  0
 11 13  2  0
 13 14  1  0
 14 15  1  0
 15 16  1  0
 15 17  1  0
 15 18  1  0
 18 19  1  0
 18 20  1  0
 18 21  1  0
 21 22  1  0
 22 23  1  0
 22 24  1  0
 22 25  1  0
 25 26  1  0
 25 27  1  0
 25 28  1  0
 21 29  1  0
 29 30  1  0
 29 31  1  0
 29 32  1  0
 32 33  1  0
 32 34  1  0
 32 35  1  0
 13 36  1  0
 36 37  1  0
 36 38  2  0
 38 39  1  0
  7 40  1  0
 40 41  2  0
 41 42  1  0
 42 43  1  0
 42 44  2  0
 44 45  1  0
 44 46  1  0
 46 47  1  0
 46 48  2  0
 48  3  1  0
 38  8  1  0
 48 40  1  0
M  CHG  1   4  -1
M  END
>  <UniqueID>  (41) 
39

>  <SMILES>  (41) 
[H]/N=c1/[n-]cc(-c2ccc(OCCN(CC)CC)cc2)c2ncccc12

>  <Energy>  (41) 
61.78962759149984

>  <Genealogy>  (41) 
CCN(CC)CCOc1ccc(-c2c[n-]c(=N)c3cccnc23)cc1 (protonated)
[H]/N=c1/[n-]cc(-c2ccc(OCCN(CC)CC)cc2)c2ncccc12 (cis-trans isomerization)
[H]/N=c1/[n-]cc(-c2ccc(OCCN(CC)CC)cc2)c2ncccc12 (3D coordinates assigned)
[H]/N=c1/[n-]cc(-c2ccc(OCCN(CC)CC)cc2)c2ncccc12 (optimized conformer: 61.78962759149984 kcal/mol)

>  <smiles>  (41) 
CCN(CC)CCOc1ccc(-c2c[nH]c(=N)c3cccnc23)cc1

>  <score_type>  (41) 
oracle

>  <origin>  (41) 
adg

>  <m_score__min__energy>  (41) 
-9.5099999999999998

>  <m_primary>  (41) 
energy

$$$$
41:0
     RDKit          3D

 31 32  0  0  0  0  0  0  0  0999 V2000
   -1.0260   25.1580  -28.3460 C   0  0  0  0  0  0  0  0  0  0  0  0
   -2.0270   25.3010  -29.3490 O   0  0  0  0  0  0  0  0  0  0  0  0
   -3.2110   24.5520  -29.3990 C   0  0  0  0  0  0  0  0  0  0  0  0
   -3.3950   23.5350  -28.4560 C   0  0  0  0  0  0  0  0  0  0  0  0
   -4.5590   22.7620  -28.4630 C   0  0  0  0  0  0  0  0  0  0  0  0
   -5.5540   23.0010  -29.4130 C   0  0  0  0  0  0  0  0  0  0  0  0
   -5.3920   24.0200  -30.3640 C   0  0  0  0  0  0  0  0  0  0  0  0
   -6.4630   24.2920  -31.3870 C   0  0  0  0  0  0  0  0  0  0  0  0
   -6.4800   23.2420  -32.4070 N   0  0  0  0  0  0  0  0  0  0  0  0
   -7.3160   22.0680  -32.3410 C   0  0  0  0  0  0  0  0  0  0  0  0
   -8.6760   22.1660  -31.9810 C   0  0  0  0  0  0  0  0  0  0  0  0
   -9.4790   21.0260  -31.9180 C   0  0  0  0  0  0  0  0  0  0  0  0
   -8.9400   19.7720  -32.2080 C   0  0  0  0  0  0  0  0  0  0  0  0
   -7.5960   19.6560  -32.5620 C   0  0  0  0  0  0  0  0  0  0  0  0
   -6.7800   20.7920  -32.6290 C   0  0  0  0  0  0  0  0  0  0  0  0
   -5.1020   20.5810  -33.1160 Cl  0  0  0  0  0  0  0  0  0  0  0  0
   -4.2150   24.7890  -30.3590 C   0  0  0  0  0  0  0  0  0  0  0  0
   -1.4913   25.2245  -27.3515 H   0  0  0  0  0  0  0  0  0  0  0  0
   -0.5338   24.1804  -28.4559 H   0  0  0  0  0  0  0  0  0  0  0  0
   -0.2798   25.9587  -28.4559 H   0  0  0  0  0  0  0  0  0  0  0  0
   -2.6168   23.3423  -27.7028 H   0  0  0  0  0  0  0  0  0  0  0  0
   -4.6918   21.9633  -27.7184 H   0  0  0  0  0  0  0  0  0  0  0  0
   -6.4677   22.3885  -29.4159 H   0  0  0  0  0  0  0  0  0  0  0  0
   -7.4416   24.3250  -30.8858 H   0  0  0  0  0  0  0  0  0  0  0  0
   -6.2520   25.2557  -31.8736 H   0  0  0  0  0  0  0  0  0  0  0  0
   -5.8930   23.4060  -33.2550 H   0  0  0  0  0  0  0  0  0  0  0  0
   -9.1081   23.1503  -31.7476 H   0  0  0  0  0  0  0  0  0  0  0  0
  -10.5392   21.1164  -31.6391 H   0  0  0  0  0  0  0  0  0  0  0  0
   -9.5750   18.8752  -32.1574 H   0  0  0  0  0  0  0  0  0  0  0  0
   -7.1743   18.6659  -32.7900 H   0  0  0  0  0  0  0  0  0  0  0  0
   -4.0769   25.5811  -31.1096 H   0  0  0  0  0  0  0  0  0  0  0  0
  1  2  1  0
  2  3  1  0
  3  4  2  0
  4  5  1  0
  5  6  2  0
  6  7  1  0
  7  8  1  0
  8  9  1  0
  9 10  1  0
 10 11  2  0
 11 12  1  0
 12 13  2  0
 13 14  1  0
 14 15  2  0
 15 16  1  0
  7 17  2  0
 17  3  1  0
 15 10  1  0
  1 18  1  0
  1 19  1  0
  1 20  1  0
  4 21  1  0
  5 22  1  0
  6 23  1  0
  8 24  1  0
  8 25  1  0
  9 26  1  0
 11 27  1  0
 12 28  1  0
 13 29  1  0
 14 30  1  0
 17 31  1  0
M  END
>  <UniqueID>  (42) 
40

>  <SMILES>  (42) 
COc1cccc(CNc2ccccc2Cl)c1

>  <Energy>  (42) 
31.376752318230224

>  <Genealogy>  (42) 
COc1cccc(CNc2ccccc2Cl)c1 (3D coordinates assigned)
COc1cccc(CNc2ccccc2Cl)c1 (optimized conformer: 31.376752318230224 kcal/mol)

>  <smiles>  (42) 
COc1cccc(CNc2ccccc2Cl)c1

>  <score_type>  (42) 
oracle

>  <origin>  (42) 
adg

>  <m_score__min__energy>  (42) 
-7.6299999999999999

>  <m_primary>  (42) 
energy

$$$$
42:0
     RDKit          3D

 41 44  0  0  0  0  0  0  0  0999 V2000
    0.7450   27.6200  -23.2950 C   0  0  0  0  0  0  0  0  0  0  0  0
    0.2560   26.2870  -23.6930 N   0  0  0  0  0  0  0  0  0  0  0  0
    1.1720   25.6950  -24.7020 C   0  0  0  0  0  0  0  0  0  0  0  0
    0.4990   24.5770  -25.5070 C   0  0  0  0  0  0  0  0  0  0  0  0
   -0.7000   25.0930  -26.1810 N   0  0  0  0  0  0  0  0  0  0  0  0
   -1.2020   24.4510  -27.3750 C   0  0  0  0  0  0  0  0  0  0  0  0
   -0.3900   23.5420  -28.1010 C   0  0  0  0  0  0  0  0  0  0  0  0
   -0.8700   22.9130  -29.2610 C   0  0  0  0  0  0  0  0  0  0  0  0
   -2.1640   23.1970  -29.6890 C   0  0  0  0  0  0  0  0  0  0  0  0
   -2.9610   24.0800  -28.9870 C   0  0  0  0  0  0  0  0  0  0  0  0
   -2.5120   24.7190  -27.8320 C   0  0  0  0  0  0  0  0  0  0  0  0
   -4.2360   24.1750  -29.6660 C   0  0  0  0  0  0  0  0  0  0  0  0
   -5.3670   24.9280  -29.3520 C   0  0  0  0  0  0  0  0  0  0  0  0
   -6.4850   24.8290  -30.1950 C   0  0  0  0  0  0  0  0  0  0  0  0
   -6.4520   23.9870  -31.3250 C   0  0  0  0  0  0  0  0  0  0  0  0
   -5.3020   23.2370  -31.6200 C   0  0  0  0  0  0  0  0  0  0  0  0
   -4.1980   23.3470  -30.7720 C   0  0  0  0  0  0  0  0  0  0  0  0
   -2.8750   22.6450  -30.8910 C   0  0  0  0  0  0  0  0  0  0  0  0
   -1.3520   26.2940  -25.6440 C   0  0  0  0  0  0  0  0  0  0  0  0
   -1.1720   26.3510  -24.1210 C   0  0  0  0  0  0  0  0  0  0  0  0
    0.7702   27.6887  -22.1974 H   0  0  0  0  0  0  0  0  0  0  0  0
    1.7580   27.7735  -23.6953 H   0  0  0  0  0  0  0  0  0  0  0  0
    0.0716   28.3922  -23.6953 H   0  0  0  0  0  0  0  0  0  0  0  0
    0.3020   25.6830  -22.8380 H   0  0  0  0  0  0  0  0  0  0  0  0
    1.4950   26.4859  -25.3950 H   0  0  0  0  0  0  0  0  0  0  0  0
    2.0284   25.2586  -24.1670 H   0  0  0  0  0  0  0  0  0  0  0  0
    1.2042   24.1956  -26.2601 H   0  0  0  0  0  0  0  0  0  0  0  0
    0.2073   23.7660  -24.8234 H   0  0  0  0  0  0  0  0  0  0  0  0
    0.6301   23.3269  -27.7502 H   0  0  0  0  0  0  0  0  0  0  0  0
   -0.2360   22.2096  -29.8207 H   0  0  0  0  0  0  0  0  0  0  0  0
   -3.1643   25.4176  -27.2875 H   0  0  0  0  0  0  0  0  0  0  0  0
   -5.3826   25.5819  -28.4676 H   0  0  0  0  0  0  0  0  0  0  0  0
   -7.3913   25.4114  -29.9727 H   0  0  0  0  0  0  0  0  0  0  0  0
   -7.3329   23.9170  -31.9801 H   0  0  0  0  0  0  0  0  0  0  0  0
   -5.2715   22.5774  -32.4997 H   0  0  0  0  0  0  0  0  0  0  0  0
   -2.9879   21.5525  -30.8300 H   0  0  0  0  0  0  0  0  0  0  0  0
   -2.3542   22.8068  -31.8463 H   0  0  0  0  0  0  0  0  0  0  0  0
   -0.8999   27.1881  -26.0982 H   0  0  0  0  0  0  0  0  0  0  0  0
   -2.4258   26.2587  -25.8801 H   0  0  0  0  0  0  0  0  0  0  0  0
   -1.6049   27.2930  -23.7532 H   0  0  0  0  0  0  0  0  0  0  0  0
   -1.6783   25.4700  -23.6997 H   0  0  0  0  0  0  0  0  0  0  0  0
  1  2  1  0
  2  3  1  0
  3  4  1  0
  4  5  1  0
  5  6  1  0
  6  7  2  0
  7  8  1  0
  8  9  2  0
  9 10  1  0
 10 11  2  0
 10 12  1  0
 12 13  2  0
 13 14  1  0
 14 15  2  0
 15 16  1  0
 16 17  2  0
 17 18  1  0
  5 19  1  0
 19 20  1  0
 20  2  1  0
 11  6  1  0
 17 12  1  0
 18  9  1  0
  1 21  1  0
  1 22  1  0
  1 23  1  0
  2 24  1  0
  3 25  1  0
  3 26  1  0
  4 27  1  0
  4 28  1  0
  7 29  1  0
  8 30  1  0
 11 31  1  0
 13 32  1  0
 14 33  1  0
 15 34  1  0
 16 35  1  0
 18 36  1  0
 18 37  1  0
 19 38  1  0
 19 39  1  0
 20 40  1  0
 20 41  1  0
M  CHG  1   2   1
M  END
>  <UniqueID>  (43) 
41

>  <SMILES>  (43) 
C[NH+]1CCN(c2ccc3c(c2)-c2ccccc2C3)CC1

>  <Energy>  (43) 
75.81863294790088

>  <Genealogy>  (43) 
C[NH+]1CCN(c2ccc3c(c2)-c2ccccc2C3)CC1 (protonated)
C[NH+]1CCN(c2ccc3c(c2)-c2ccccc2C3)CC1 (3D coordinates assigned)
C[NH+]1CCN(c2ccc3c(c2)-c2ccccc2C3)CC1 (nonaromatic ring conformer: 75.81863294790088 kcal/mol)

>  <smiles>  (43) 
CN1CCN(c2ccc3c(c2)-c2ccccc2C3)CC1

>  <score_type>  (43) 
oracle

>  <origin>  (43) 
adg

>  <m_score__min__energy>  (43) 
-7.4400000000000004

>  <m_primary>  (43) 
energy

$$$$
43:0
     RDKit          3D

 45 48  0  0  0  0  0  0  0  0999 V2000
   -5.6850   14.8500  -34.1670 C   0  0  0  0  0  0  0  0  0  0  0  0
   -6.6850   15.8280  -33.8990 O   0  0  0  0  0  0  0  0  0  0  0  0
   -6.4220   17.1180  -33.4130 C   0  0  0  0  0  0  0  0  0  0  0  0
   -6.1170   18.1260  -34.3350 C   0  0  0  0  0  0  0  0  0  0  0  0
   -5.8490   19.4270  -33.9010 C   0  0  0  0  0  0  0  0  0  0  0  0
   -5.8890   19.7380  -32.5350 C   0  0  0  0  0  0  0  0  0  0  0  0
   -5.6140   21.0800  -32.0880 N   0  0  0  0  0  0  0  0  0  0  0  0
   -4.4070   21.6710  -32.3710 C   0  0  0  0  0  0  0  0  0  0  0  0
   -3.0920   20.7920  -33.2370 S   0  0  0  0  0  0  0  0  0  0  0  0
   -2.3300   20.1050  -31.7230 C   0  0  0  0  0  0  0  0  0  0  0  0
   -2.3100   21.1190  -30.6120 C   0  0  0  0  0  0  0  0  0  0  0  0
   -1.4650   22.2380  -30.6910 C   0  0  0  0  0  0  0  0  0  0  0  0
   -1.4860   23.2080  -29.6840 C   0  0  0  0  0  0  0  0  0  0  0  0
   -2.3510   23.0720  -28.5960 C   0  0  0  0  0  0  0  0  0  0  0  0
   -2.3730   24.0160  -27.6240 F   0  0  0  0  0  0  0  0  0  0  0  0
   -3.1970   21.9620  -28.5110 C   0  0  0  0  0  0  0  0  0  0  0  0
   -3.1760   20.9870  -29.5130 C   0  0  0  0  0  0  0  0  0  0  0  0
   -4.1530   22.9380  -31.9560 N   0  0  0  0  0  0  0  0  0  0  0  0
   -5.0610   23.6470  -31.2440 C   0  0  0  0  0  0  0  0  0  0  0  0
   -4.7550   24.9440  -30.8170 C   0  0  0  0  0  0  0  0  0  0  0  0
   -5.6860   25.6730  -30.0730 C   0  0  0  0  0  0  0  0  0  0  0  0
   -6.9240   25.1080  -29.7530 C   0  0  0  0  0  0  0  0  0  0  0  0
   -7.2360   23.8110  -30.1750 C   0  0  0  0  0  0  0  0  0  0  0  0
   -6.3030   23.0700  -30.9230 C   0  0  0  0  0  0  0  0  0  0  0  0
   -6.5620   21.7620  -31.3690 C   0  0  0  0  0  0  0  0  0  0  0  0
   -7.6750   21.2200  -31.1120 O   0  0  0  0  0  0  0  0  0  0  0  0
   -6.1860   18.7310  -31.6060 C   0  0  0  0  0  0  0  0  0  0  0  0
   -6.4540   17.4290  -32.0400 C   0  0  0  0  0  0  0  0  0  0  0  0
   -5.2880   14.4618  -33.2174 H   0  0  0  0  0  0  0  0  0  0  0  0
   -6.1253   14.0243  -34.7453 H   0  0  0  0  0  0  0  0  0  0  0  0
   -4.8693   15.3085  -34.7453 H   0  0  0  0  0  0  0  0  0  0  0  0
   -6.0880   17.8923  -35.4095 H   0  0  0  0  0  0  0  0  0  0  0  0
   -5.6057   20.2100  -34.6343 H   0  0  0  0  0  0  0  0  0  0  0  0
   -2.9084   19.2279  -31.3971 H   0  0  0  0  0  0  0  0  0  0  0  0
   -1.2922   19.8231  -31.9542 H   0  0  0  0  0  0  0  0  0  0  0  0
   -0.7845   22.3518  -31.5477 H   0  0  0  0  0  0  0  0  0  0  0  0
   -0.8194   24.0806  -29.7490 H   0  0  0  0  0  0  0  0  0  0  0  0
   -3.8797   21.8557  -27.6551 H   0  0  0  0  0  0  0  0  0  0  0  0
   -3.8400   20.1130  -29.4408 H   0  0  0  0  0  0  0  0  0  0  0  0
   -3.7810   25.3897  -31.0673 H   0  0  0  0  0  0  0  0  0  0  0  0
   -5.4446   26.6928  -29.7386 H   0  0  0  0  0  0  0  0  0  0  0  0
   -7.6551   25.6849  -29.1676 H   0  0  0  0  0  0  0  0  0  0  0  0
   -8.2116   23.3704  -29.9217 H   0  0  0  0  0  0  0  0  0  0  0  0
   -6.2083   18.9659  -30.5316 H   0  0  0  0  0  0  0  0  0  0  0  0
   -6.6907   16.6447  -31.3060 H   0  0  0  0  0  0  0  0  0  0  0  0
  1  2  1  0
  2  3  1  0
  3  4  2  0
  4  5  1  0
  5  6  2  0
  6  7  1  0
  7  8  1  0
  8  9  1  0
  9 10  1  0
 10 11  1  0
 11 12  2  0
 12 13  1  0
 13 14  2  0
 14 15  1  0
 14 16  1  0
 16 17  2  0
  8 18  2  0
 18 19  1  0
 19 20  2  0
 20 21  1  0
 21 22  2  0
 22 23  1  0
 23 24  2  0
 24 25  1  0
 25 26  2  0
  6 27  1  0
 27 28  2  0
 28  3  1  0
 25  7  1  0
 17 11  1  0
 24 19  1  0
  1 29  1  0
  1 30  1  0
  1 31  1  0
  4 32  1  0
  5 33  1  0
 10 34  1  0
 10 35  1  0
 12 36  1  0
 13 37  1  0
 16 38  1  0
 17 39  1  0
 20 40  1  0
 21 41  1  0
 22 42  1  0
 23 43  1  0
 27 44  1  0
 28 45  1  0
M  END
>  <UniqueID>  (44) 
42

>  <SMILES>  (44) 
COc1ccc(-n2c(SCc3ccc(F)cc3)nc3ccccc3c2=O)cc1

>  <Energy>  (44) 
57.338509325373046

>  <Genealogy>  (44) 
COc1ccc(-n2c(SCc3ccc(F)cc3)nc3ccccc3c2=O)cc1 (3D coordinates assigned)
COc1ccc(-n2c(SCc3ccc(F)cc3)nc3ccccc3c2=O)cc1 (optimized conformer: 57.338509325373046 kcal/mol)

>  <smiles>  (44) 
COc1ccc(-n2c(SCc3ccc(F)cc3)nc3ccccc3c2=O)cc1

>  <score_type>  (44) 
oracle

>  <origin>  (44) 
adg

>  <m_score__min__energy>  (44) 
-8.2599999999999998

>  <m_primary>  (44) 
energy

$$$$
44:0
     RDKit          3D

 46 48  0  0  0  0  0  0  0  0999 V2000
   -8.2470   18.2680  -31.6810 C   0  0  0  0  0  0  0  0  0  0  0  0
   -8.9190   19.4320  -31.2070 O   0  0  0  0  0  0  0  0  0  0  0  0
   -8.4950   20.7440  -31.4570 C   0  0  0  0  0  0  0  0  0  0  0  0
   -9.4700   21.7160  -31.7150 C   0  0  0  0  0  0  0  0  0  0  0  0
   -9.0990   23.0360  -31.9700 C   0  0  0  0  0  0  0  0  0  0  0  0
   -7.7510   23.4010  -31.9560 C   0  0  0  0  0  0  0  0  0  0  0  0
   -6.7550   22.4480  -31.6800 C   0  0  0  0  0  0  0  0  0  0  0  0
   -5.3320   22.8620  -31.6230 C   0  0  0  0  0  0  0  0  0  0  0  0
   -5.0360   24.0900  -31.6080 O   0  0  0  0  0  0  0  0  0  0  0  0
   -4.2700   21.8920  -31.6140 N   0  0  0  0  0  0  0  0  0  0  0  0
   -3.7240   21.4590  -32.9090 C   0  0  0  0  0  0  0  0  0  0  0  0
   -4.2750   20.1080  -33.2860 C   0  0  0  0  0  0  0  0  0  0  0  0
   -3.4880   18.9540  -33.1320 C   0  0  0  0  0  0  0  0  0  0  0  0
   -3.9920   17.7040  -33.5050 C   0  0  0  0  0  0  0  0  0  0  0  0
   -5.2830   17.5960  -34.0270 C   0  0  0  0  0  0  0  0  0  0  0  0
   -6.0740   18.7350  -34.1820 C   0  0  0  0  0  0  0  0  0  0  0  0
   -5.5690   19.9900  -33.8220 C   0  0  0  0  0  0  0  0  0  0  0  0
   -3.5990   21.4900  -30.3560 C   0  0  1  0  0  0  0  0  0  0  0  0
   -2.0720   21.3190  -30.5380 C   0  0  0  0  0  0  0  0  0  0  0  0
   -1.3600   22.6410  -30.2420 C   0  0  0  0  0  0  0  0  0  0  0  0
   -2.4180   23.5160  -29.1310 S   0  0  0  0  0  0  0  0  0  0  0  0
   -1.8600   23.5350  -27.7350 O   0  0  0  0  0  0  0  0  0  0  0  0
   -2.6940   24.9140  -29.6080 O   0  0  0  0  0  0  0  0  0  0  0  0
   -3.8600   22.5000  -29.2290 C   0  0  0  0  0  0  0  0  0  0  0  0
   -7.1340   21.1120  -31.4550 C   0  0  0  0  0  0  0  0  0  0  0  0
   -7.9017   17.6698  -30.8249 H   0  0  0  0  0  0  0  0  0  0  0  0
   -8.9382   17.6688  -32.2920 H   0  0  0  0  0  0  0  0  0  0  0  0
   -7.3825   18.5669  -32.2920 H   0  0  0  0  0  0  0  0  0  0  0  0
  -10.5340   21.4367  -31.7165 H   0  0  0  0  0  0  0  0  0  0  0  0
   -9.8699   23.7914  -32.1826 H   0  0  0  0  0  0  0  0  0  0  0  0
   -7.4661   24.4432  -32.1627 H   0  0  0  0  0  0  0  0  0  0  0  0
   -3.9999   22.1915  -33.6819 H   0  0  0  0  0  0  0  0  0  0  0  0
   -2.6292   21.3882  -32.8290 H   0  0  0  0  0  0  0  0  0  0  0  0
   -2.4725   19.0342  -32.7168 H   0  0  0  0  0  0  0  0  0  0  0  0
   -3.3705   16.8041  -33.3871 H   0  0  0  0  0  0  0  0  0  0  0  0
   -5.6771   16.6107  -34.3166 H   0  0  0  0  0  0  0  0  0  0  0  0
   -7.0931   18.6469  -34.5866 H   0  0  0  0  0  0  0  0  0  0  0  0
   -6.1882   20.8887  -33.9593 H   0  0  0  0  0  0  0  0  0  0  0  0
   -4.0315   20.5172  -30.0791 H   0  0  0  0  0  0  0  0  0  0  0  0
   -1.7068   20.5454  -29.8465 H   0  0  0  0  0  0  0  0  0  0  0  0
   -1.8626   21.0197  -31.5756 H   0  0  0  0  0  0  0  0  0  0  0  0
   -0.3827   22.4536  -29.7733 H   0  0  0  0  0  0  0  0  0  0  0  0
   -1.1725   23.2156  -31.1611 H   0  0  0  0  0  0  0  0  0  0  0  0
   -4.0213   21.9745  -28.2762 H   0  0  0  0  0  0  0  0  0  0  0  0
   -4.7595   23.1004  -29.4302 H   0  0  0  0  0  0  0  0  0  0  0  0
   -6.3625   20.3486  -31.2761 H   0  0  0  0  0  0  0  0  0  0  0  0
  1  2  1  0
  2  3  1  0
  3  4  2  0
  4  5  1  0
  5  6  2  0
  6  7  1  0
  7  8  1  0
  8  9  2  0
  8 10  1  0
 10 11  1  0
 11 12  1  0
 12 13  2  0
 13 14  1  0
 14 15  2  0
 15 16  1  0
 16 17  2  0
 10 18  1  0
 18 19  1  0
 19 20  1  0
 20 21  1  0
 21 22  2  0
 21 23  2  0
 21 24  1  0
  7 25  2  0
 25  3  1  0
 17 12  1  0
 24 18  1  0
  1 26  1  0
  1 27  1  0
  1 28  1  0
  4 29  1  0
  5 30  1  0
  6 31  1  0
 11 32  1  0
 11 33  1  0
 13 34  1  0
 14 35  1  0
 15 36  1  0
 16 37  1  0
 17 38  1  0
 18 39  1  1
 19 40  1  0
 19 41  1  0
 20 42  1  0
 20 43  1  0
 24 44  1  0
 24 45  1  0
 25 46  1  0
M  END
>  <UniqueID>  (45) 
43

>  <SMILES>  (45) 
COc1cccc(C(=O)N(Cc2ccccc2)[C@H]2CCS(=O)(=O)C2)c1

>  <Energy>  (45) 
49.44813813317324

>  <Genealogy>  (45) 
COc1cccc(C(=O)N(Cc2ccccc2)[C@H]2CCS(=O)(=O)C2)c1 (chirality)
COc1cccc(C(=O)N(Cc2ccccc2)[C@H]2CCS(=O)(=O)C2)c1 (3D coordinates assigned)
COc1cccc(C(=O)N(Cc2ccccc2)[C@H]2CCS(=O)(=O)C2)c1 (nonaromatic ring conformer: 49.44813813317324 kcal/mol)

>  <smiles>  (45) 
COc1cccc(C(=O)N(Cc2ccccc2)C2CCS(=O)(=O)C2)c1

>  <score_type>  (45) 
oracle

>  <origin>  (45) 
adg

>  <m_score__min__energy>  (45) 
-8.5999999999999996

>  <m_primary>  (45) 
energy

$$$$
45:0
     RDKit          3D

 40 41  0  0  0  0  0  0  0  0999 V2000
   -4.5790   17.7110  -33.9460 C   0  0  0  0  0  0  0  0  0  0  0  0
   -5.8540   17.0150  -34.4070 C   0  0  0  0  0  0  0  0  0  0  0  0
   -6.6850   16.6980  -33.2930 O   0  0  0  0  0  0  0  0  0  0  0  0
   -6.4900   17.2250  -32.0120 C   0  0  0  0  0  0  0  0  0  0  0  0
   -5.8110   16.6000  -31.1530 O   0  0  0  0  0  0  0  0  0  0  0  0
   -7.1180   18.5430  -31.6550 C   0  0  0  0  0  0  0  0  0  0  0  0
   -7.9050   19.1000  -32.7850 N   0  0  0  0  0  0  0  0  0  0  0  0
   -7.1030   20.0670  -33.5700 C   0  0  0  0  0  0  0  0  0  0  0  0
   -6.7450   21.3180  -32.7460 C   0  0  0  0  0  0  0  0  0  0  0  0
   -7.8640   21.7060  -31.8790 N   0  0  0  0  0  0  0  0  0  0  0  0
   -7.6340   22.3910  -30.6300 C   0  0  0  0  0  0  0  0  0  0  0  0
   -8.3820   22.1450  -29.6440 O   0  0  0  0  0  0  0  0  0  0  0  0
   -6.5400   23.3790  -30.4730 C   0  0  0  0  0  0  0  0  0  0  0  0
   -6.8260   24.7340  -30.2300 C   0  0  0  0  0  0  0  0  0  0  0  0
   -5.7750   25.6460  -30.1050 C   0  0  0  0  0  0  0  0  0  0  0  0
   -4.4560   25.2090  -30.2260 C   0  0  0  0  0  0  0  0  0  0  0  0
   -4.2060   23.8580  -30.4750 C   0  0  0  0  0  0  0  0  0  0  0  0
   -5.2420   22.9850  -30.5940 N   0  0  0  0  0  0  0  0  0  0  0  0
   -9.2030   21.2190  -32.2240 C   0  0  0  0  0  0  0  0  0  0  0  0
   -9.2050   19.6810  -32.3320 C   0  0  0  0  0  0  0  0  0  0  0  0
   -4.5476   17.7281  -32.8466 H   0  0  0  0  0  0  0  0  0  0  0  0
   -3.7042   17.1653  -34.3293 H   0  0  0  0  0  0  0  0  0  0  0  0
   -4.5649   18.7419  -34.3293 H   0  0  0  0  0  0  0  0  0  0  0  0
   -6.4028   17.6810  -35.0891 H   0  0  0  0  0  0  0  0  0  0  0  0
   -5.5816   16.0821  -34.9223 H   0  0  0  0  0  0  0  0  0  0  0  0
   -7.7855   18.3980  -30.7928 H   0  0  0  0  0  0  0  0  0  0  0  0
   -6.3128   19.2529  -31.4148 H   0  0  0  0  0  0  0  0  0  0  0  0
   -8.1220   18.3090  -33.4400 H   0  0  0  0  0  0  0  0  0  0  0  0
   -6.1733   19.5771  -33.8950 H   0  0  0  0  0  0  0  0  0  0  0  0
   -7.7046   20.3878  -34.4332 H   0  0  0  0  0  0  0  0  0  0  0  0
   -5.8645   21.1006  -32.1235 H   0  0  0  0  0  0  0  0  0  0  0  0
   -6.5290   22.1465  -33.4367 H   0  0  0  0  0  0  0  0  0  0  0  0
   -7.8684   25.0732  -30.1391 H   0  0  0  0  0  0  0  0  0  0  0  0
   -5.9876   26.7077  -29.9113 H   0  0  0  0  0  0  0  0  0  0  0  0
   -3.6227   25.9201  -30.1265 H   0  0  0  0  0  0  0  0  0  0  0  0
   -3.1708   23.4997  -30.5749 H   0  0  0  0  0  0  0  0  0  0  0  0
   -9.9134   21.5283  -31.4432 H   0  0  0  0  0  0  0  0  0  0  0  0
   -9.4982   21.6449  -33.1943 H   0  0  0  0  0  0  0  0  0  0  0  0
   -9.4428   19.2654  -31.3417 H   0  0  0  0  0  0  0  0  0  0  0  0
   -9.9532   19.4173  -33.0940 H   0  0  0  0  0  0  0  0  0  0  0  0
  1  2  1  0
  2  3  1  0
  3  4  1  0
  4  5  2  0
  4  6  1  0
  6  7  1  0
  7  8  1  0
  8  9  1  0
  9 10  1  0
 10 11  1  0
 11 12  2  0
 11 13  1  0
 13 14  2  0
 14 15  1  0
 15 16  2  0
 16 17  1  0
 17 18  2  0
 10 19  1  0
 19 20  1  0
 20  7  1  0
 18 13  1  0
  1 21  1  0
  1 22  1  0
  1 23  1  0
  2 24  1  0
  2 25  1  0
  6 26  1  0
  6 27  1  0
  7 28  1  0
  8 29  1  0
  8 30  1  0
  9 31  1  0
  9 32  1  0
 14 33  1  0
 15 34  1  0
 16 35  1  0
 17 36  1  0
 19 37  1  0
 19 38  1  0
 20 39  1  0
 20 40  1  0
M  CHG  1   7   1
M  END
>  <UniqueID>  (46) 
44

>  <SMILES>  (46) 
CCOC(=O)C[NH+]1CCN(C(=O)c2ccccn2)CC1

>  <Energy>  (46) 
47.80025306845359

>  <Genealogy>  (46) 
CCOC(=O)C[NH+]1CCN(C(=O)c2ccccn2)CC1 (protonated)
CCOC(=O)C[NH+]1CCN(C(=O)c2ccccn2)CC1 (3D coordinates assigned)
CCOC(=O)C[NH+]1CCN(C(=O)c2ccccn2)CC1 (nonaromatic ring conformer: 47.80025306845359 kcal/mol)

>  <smiles>  (46) 
CCOC(=O)CN1CCN(C(=O)c2ccccn2)CC1

>  <score_type>  (46) 
oracle

>  <origin>  (46) 
adg

>  <m_score__min__energy>  (46) 
-5.7800000000000002

>  <m_primary>  (46) 
energy

$$$$
46:0
     RDKit          3D

 46 48  0  0  0  0  0  0  0  0999 V2000
   -1.4860   21.6980  -31.2560 C   0  0  0  0  0  0  0  0  0  0  0  0
   -2.0240   22.6640  -30.3550 O   0  0  0  0  0  0  0  0  0  0  0  0
   -3.3180   23.1970  -30.4390 C   0  0  0  0  0  0  0  0  0  0  0  0
   -4.4170   22.4360  -30.8840 C   0  0  0  0  0  0  0  0  0  0  0  0
   -5.7070   23.0010  -30.9400 C   0  0  0  0  0  0  0  0  0  0  0  0
   -6.8640   22.1830  -31.3820 C   0  0  0  0  0  0  0  0  0  0  0  0
   -8.1370   22.7530  -31.4900 C   0  0  0  0  0  0  0  0  0  0  0  0
   -9.2170   21.9890  -31.9310 C   0  0  0  0  0  0  0  0  0  0  0  0
   -9.0520   20.6500  -32.3050 C   0  0  0  0  0  0  0  0  0  0  0  0
  -10.2110   19.9780  -32.7090 O   0  0  0  0  0  0  0  0  0  0  0  0
   -7.7520   20.0610  -32.2540 C   0  0  0  0  0  0  0  0  0  0  0  0
   -7.4410   18.6700  -32.7210 C   0  0  0  0  0  0  0  0  0  0  0  0
   -8.3010   17.7530  -32.6540 O   0  0  0  0  0  0  0  0  0  0  0  0
   -6.1340   18.3340  -33.2190 N   0  0  0  0  0  0  0  0  0  0  0  0
   -5.6580   18.9220  -34.4780 C   0  0  0  0  0  0  0  0  0  0  0  0
   -4.1290   18.8100  -34.5910 C   0  0  0  0  0  0  0  0  0  0  0  0
   -3.5340   18.6220  -33.2520 N   0  0  0  0  0  0  0  0  0  0  0  0
   -2.0700   18.7300  -33.3200 C   0  0  0  0  0  0  0  0  0  0  0  0
   -3.9300   17.3170  -32.6930 C   0  0  0  0  0  0  0  0  0  0  0  0
   -5.4630   17.1320  -32.7070 C   0  0  0  0  0  0  0  0  0  0  0  0
   -6.6880   20.8390  -31.7440 C   0  0  0  0  0  0  0  0  0  0  0  0
   -5.8850   24.3380  -30.5440 C   0  0  0  0  0  0  0  0  0  0  0  0
   -4.7970   25.0960  -30.1070 C   0  0  0  0  0  0  0  0  0  0  0  0
   -3.5200   24.5300  -30.0550 C   0  0  0  0  0  0  0  0  0  0  0  0
   -2.4460   25.2930  -29.6130 O   0  0  0  0  0  0  0  0  0  0  0  0
   -1.0289   20.8773  -30.6836 H   0  0  0  0  0  0  0  0  0  0  0  0
   -2.2917   21.2988  -31.8896 H   0  0  0  0  0  0  0  0  0  0  0  0
   -0.7224   22.1728  -31.8896 H   0  0  0  0  0  0  0  0  0  0  0  0
   -4.2668   21.3904  -31.1908 H   0  0  0  0  0  0  0  0  0  0  0  0
   -8.2869   23.8101  -31.2255 H   0  0  0  0  0  0  0  0  0  0  0  0
  -10.2159   22.4463  -31.9860 H   0  0  0  0  0  0  0  0  0  0  0  0
  -10.2600   19.0120  -32.9680 H   0  0  0  0  0  0  0  0  0  0  0  0
   -6.1216   18.3903  -35.3220 H   0  0  0  0  0  0  0  0  0  0  0  0
   -5.9352   19.9864  -34.4962 H   0  0  0  0  0  0  0  0  0  0  0  0
   -3.8731   17.9497  -35.2270 H   0  0  0  0  0  0  0  0  0  0  0  0
   -3.7319   19.7347  -35.0351 H   0  0  0  0  0  0  0  0  0  0  0  0
   -1.6569   18.7605  -32.3010 H   0  0  0  0  0  0  0  0  0  0  0  0
   -1.6626   17.8595  -33.8550 H   0  0  0  0  0  0  0  0  0  0  0  0
   -1.7947   19.6509  -33.8550 H   0  0  0  0  0  0  0  0  0  0  0  0
   -3.4689   16.5178  -33.2918 H   0  0  0  0  0  0  0  0  0  0  0  0
   -3.5885   17.2733  -31.6483 H   0  0  0  0  0  0  0  0  0  0  0  0
   -5.7162   16.2769  -33.3510 H   0  0  0  0  0  0  0  0  0  0  0  0
   -5.8036   16.9528  -31.6765 H   0  0  0  0  0  0  0  0  0  0  0  0
   -5.6957   20.3786  -31.6278 H   0  0  0  0  0  0  0  0  0  0  0  0
   -6.8874   24.7897  -30.5786 H   0  0  0  0  0  0  0  0  0  0  0  0
   -4.9453   26.1426  -29.8025 H   0  0  0  0  0  0  0  0  0  0  0  0
  1  2  1  0
  2  3  1  0
  3  4  2  0
  4  5  1  0
  5  6  1  0
  6  7  2  0
  7  8  1  0
  8  9  2  0
  9 10  1  0
  9 11  1  0
 11 12  1  0
 12 13  2  0
 12 14  1  0
 14 15  1  0
 15 16  1  0
 16 17  1  0
 17 18  1  0
 17 19  1  0
 19 20  1  0
 11 21  2  0
  5 22  2  0
 22 23  1  0
 23 24  2  0
 24 25  1  0
 24  3  1  0
 21  6  1  0
 20 14  1  0
  1 26  1  0
  1 27  1  0
  1 28  1  0
  4 29  1  0
  7 30  1  0
  8 31  1  0
 10 32  1  0
 15 33  1  0
 15 34  1  0
 16 35  1  0
 16 36  1  0
 18 37  1  0
 18 38  1  0
 18 39  1  0
 19 40  1  0
 19 41  1  0
 20 42  1  0
 20 43  1  0
 21 44  1  0
 22 45  1  0
 23 46  1  0
M  CHG  1  25  -1
M  END
>  <UniqueID>  (47) 
45

>  <SMILES>  (47) 
COc1cc(-c2ccc(O)c(C(=O)N3CCN(C)CC3)c2)ccc1[O-]

>  <Energy>  (47) 
69.35343359337925

>  <Genealogy>  (47) 
COc1cc(-c2ccc(O)c(C(=O)N3CCN(C)CC3)c2)ccc1[O-] (protonated)
COc1cc(-c2ccc(O)c(C(=O)N3CCN(C)CC3)c2)ccc1[O-] (3D coordinates assigned)
COc1cc(-c2ccc(O)c(C(=O)N3CCN(C)CC3)c2)ccc1[O-] (nonaromatic ring conformer: 69.35343359337925 kcal/mol)

>  <smiles>  (47) 
COc1cc(-c2ccc(O)c(C(=O)N3CCN(C)CC3)c2)ccc1O

>  <score_type>  (47) 
oracle

>  <origin>  (47) 
adg

>  <m_score__min__energy>  (47) 
-10.869999999999999

>  <m_primary>  (47) 
energy

$$$$
47:0
     RDKit          3D

 27 29  0  0  0  0  0  0  0  0999 V2000
   -6.8280   25.6910  -29.3410 C   0  0  0  0  0  0  0  0  0  0  0  0
   -5.9370   24.8240  -30.1020 N   0  0  0  0  0  0  0  0  0  0  0  0
   -4.6100   24.9940  -30.3280 C   0  0  0  0  0  0  0  0  0  0  0  0
   -4.0410   23.9510  -30.9930 N   0  0  0  0  0  0  0  0  0  0  0  0
   -5.0730   23.1030  -31.1650 C   0  0  0  0  0  0  0  0  0  0  0  0
   -5.0750   21.8540  -31.7720 C   0  0  0  0  0  0  0  0  0  0  0  0
   -6.2990   21.1420  -31.8060 C   0  0  0  0  0  0  0  0  0  0  0  0
   -6.3760   19.8020  -32.4410 C   0  0  0  0  0  0  0  0  0  0  0  0
   -6.4190   18.6360  -31.6580 C   0  0  0  0  0  0  0  0  0  0  0  0
   -6.4920   17.3840  -32.2690 C   0  0  0  0  0  0  0  0  0  0  0  0
   -6.5190   17.3010  -33.6610 C   0  0  0  0  0  0  0  0  0  0  0  0
   -6.4770   18.4330  -34.4130 N   0  0  0  0  0  0  0  0  0  0  0  0
   -6.4060   19.6670  -33.8410 C   0  0  0  0  0  0  0  0  0  0  0  0
   -7.4540   21.7340  -31.2180 C   0  0  0  0  0  0  0  0  0  0  0  0
   -7.3880   22.9680  -30.6320 N   0  0  0  0  0  0  0  0  0  0  0  0
   -6.2020   23.6220  -30.6250 C   0  0  0  0  0  0  0  0  0  0  0  0
   -6.6641   25.5315  -28.2650 H   0  0  0  0  0  0  0  0  0  0  0  0
   -6.6198   26.7416  -29.5918 H   0  0  0  0  0  0  0  0  0  0  0  0
   -7.8725   25.4542  -29.5918 H   0  0  0  0  0  0  0  0  0  0  0  0
   -4.0503   25.8847  -30.0064 H   0  0  0  0  0  0  0  0  0  0  0  0
   -4.1586   21.4326  -32.2108 H   0  0  0  0  0  0  0  0  0  0  0  0
   -6.3950   18.7106  -30.5608 H   0  0  0  0  0  0  0  0  0  0  0  0
   -6.5280   16.4700  -31.6581 H   0  0  0  0  0  0  0  0  0  0  0  0
   -6.5744   16.3179  -34.1514 H   0  0  0  0  0  0  0  0  0  0  0  0
   -6.4940   18.3550  -35.4550 H   0  0  0  0  0  0  0  0  0  0  0  0
   -6.3719   20.5635  -34.4775 H   0  0  0  0  0  0  0  0  0  0  0  0
   -8.4109   21.1917  -31.2356 H   0  0  0  0  0  0  0  0  0  0  0  0
  1  2  1  0
  2  3  1  0
  3  4  2  0
  4  5  1  0
  5  6  2  0
  6  7  1  0
  7  8  1  0
  8  9  2  0
  9 10  1  0
 10 11  2  0
 11 12  1  0
 12 13  2  0
  7 14  2  0
 14 15  1  0
 15 16  2  0
 16  2  1  0
 16  5  1  0
 13  8  1  0
  1 17  1  0
  1 18  1  0
  1 19  1  0
  3 20  1  0
  6 21  1  0
  9 22  1  0
 10 23  1  0
 11 24  1  0
 12 25  1  0
 13 26  1  0
 14 27  1  0
M  CHG  1  12   1
M  END
>  <UniqueID>  (48) 
46

>  <SMILES>  (48) 
Cn1cnc2cc(-c3ccc[nH+]c3)cnc21

>  <Energy>  (48) 
73.60083505676131

>  <Genealogy>  (48) 
Cn1cnc2cc(-c3ccc[nH+]c3)cnc21 (protonated)
Cn1cnc2cc(-c3ccc[nH+]c3)cnc21 (3D coordinates assigned)
Cn1cnc2cc(-c3ccc[nH+]c3)cnc21 (optimized conformer: 73.60083505676131 kcal/mol)

>  <smiles>  (48) 
Cn1cnc2cc(-c3cccnc3)cnc21

>  <score_type>  (48) 
oracle

>  <origin>  (48) 
adg

>  <m_score__min__energy>  (48) 
-5.9100000000000001

>  <m_primary>  (48) 
energy

$$$$
48:0
     RDKit          3D

 39 41  0  0  0  0  0  0  0  0999 V2000
   -3.5110   25.2870  -30.3890 O   0  0  0  0  0  0  0  0  0  0  0  0
   -4.7110   24.8620  -29.8020 C   0  0  0  0  0  0  0  0  0  0  0  0
   -5.8770   25.0750  -30.7690 C   0  0  0  0  0  0  0  0  0  0  0  0
   -6.0160   23.8990  -31.7400 C   0  0  0  0  0  0  0  0  0  0  0  0
   -4.7550   23.2930  -31.9530 O   0  0  0  0  0  0  0  0  0  0  0  0
   -4.6860   22.0280  -31.3230 C   0  0  0  0  0  0  0  0  0  0  0  0
   -4.2520   20.9950  -32.2740 N   0  0  0  0  0  0  0  0  0  0  0  0
   -4.9800   19.9670  -32.7990 C   0  0  0  0  0  0  0  0  0  0  0  0
   -6.4120   19.7220  -32.5360 C   0  0  0  0  0  0  0  0  0  0  0  0
   -7.3580   20.7550  -32.6550 C   0  0  0  0  0  0  0  0  0  0  0  0
   -8.7110   20.5020  -32.4090 C   0  0  0  0  0  0  0  0  0  0  0  0
   -9.1310   19.2170  -32.0560 C   0  0  0  0  0  0  0  0  0  0  0  0
   -8.2010   18.1800  -31.9580 C   0  0  0  0  0  0  0  0  0  0  0  0
   -6.8460   18.4280  -32.2020 C   0  0  0  0  0  0  0  0  0  0  0  0
   -4.2440   19.1290  -33.5770 N   0  0  0  0  0  0  0  0  0  0  0  0
   -3.0180   19.6780  -33.5450 C   0  0  0  0  0  0  0  0  0  0  0  0
   -1.8680   19.2150  -34.1800 C   0  0  0  0  0  0  0  0  0  0  0  0
   -0.6790   19.9450  -33.9980 C   0  0  0  0  0  0  0  0  0  0  0  0
   -0.6700   21.1060  -33.1940 C   0  0  0  0  0  0  0  0  0  0  0  0
   -1.8480   21.5470  -32.5640 C   0  0  0  0  0  0  0  0  0  0  0  0
   -3.0130   20.8000  -32.7670 C   0  0  0  0  0  0  0  0  0  0  0  0
   -3.5040   24.9270  -31.3140 H   0  0  0  0  0  0  0  0  0  0  0  0
   -4.6354   23.7930  -29.5539 H   0  0  0  0  0  0  0  0  0  0  0  0
   -4.8908   25.4479  -28.8886 H   0  0  0  0  0  0  0  0  0  0  0  0
   -6.8079   25.1749  -30.1915 H   0  0  0  0  0  0  0  0  0  0  0  0
   -5.6819   25.9865  -31.3530 H   0  0  0  0  0  0  0  0  0  0  0  0
   -6.7092   23.1574  -31.3165 H   0  0  0  0  0  0  0  0  0  0  0  0
   -6.4047   24.2688  -32.7003 H   0  0  0  0  0  0  0  0  0  0  0  0
   -3.9674   22.0778  -30.4916 H   0  0  0  0  0  0  0  0  0  0  0  0
   -5.6864   21.7652  -30.9488 H   0  0  0  0  0  0  0  0  0  0  0  0
   -7.0328   21.7657  -32.9426 H   0  0  0  0  0  0  0  0  0  0  0  0
   -9.4460   21.3160  -32.4935 H   0  0  0  0  0  0  0  0  0  0  0  0
  -10.1948   19.0221  -31.8552 H   0  0  0  0  0  0  0  0  0  0  0  0
   -8.5342   17.1669  -31.6886 H   0  0  0  0  0  0  0  0  0  0  0  0
   -6.1175   17.6068  -32.1321 H   0  0  0  0  0  0  0  0  0  0  0  0
   -1.8887   18.3087  -34.8031 H   0  0  0  0  0  0  0  0  0  0  0  0
    0.2487   19.6095  -34.4847 H   0  0  0  0  0  0  0  0  0  0  0  0
    0.2650   21.6696  -33.0594 H   0  0  0  0  0  0  0  0  0  0  0  0
   -1.8528   22.4483  -31.9334 H   0  0  0  0  0  0  0  0  0  0  0  0
  1  2  1  0
  2  3  1  0
  3  4  1  0
  4  5  1  0
  5  6  1  0
  6  7  1  0
  7  8  1  0
  8  9  1  0
  9 10  2  0
 10 11  1  0
 11 12  2  0
 12 13  1  0
 13 14  2  0
  8 15  2  0
 15 16  1  0
 16 17  2  0
 17 18  1  0
 18 19  2  0
 19 20  1  0
 20 21  2  0
 21  7  1  0
 14  9  1  0
 21 16  1  0
  1 22  1  0
  2 23  1  0
  2 24  1  0
  3 25  1  0
  3 26  1  0
  4 27  1  0
  4 28  1  0
  6 29  1  0
  6 30  1  0
 10 31  1  0
 11 32  1  0
 12 33  1  0
 13 34  1  0
 14 35  1  0
 17 36  1  0
 18 37  1  0
 19 38  1  0
 20 39  1  0
M  END
>  <UniqueID>  (49) 
47

>  <SMILES>  (49) 
OCCCOCn1c(-c2ccccc2)nc2ccccc21

>  <Energy>  (49) 
82.26712928699078

>  <Genealogy>  (49) 
OCCCOCn1c(-c2ccccc2)nc2ccccc21 (3D coordinates assigned)
OCCCOCn1c(-c2ccccc2)nc2ccccc21 (optimized conformer: 82.26712928699078 kcal/mol)

>  <smiles>  (49) 
OCCCOCn1c(-c2ccccc2)nc2ccccc21

>  <score_type>  (49) 
oracle

>  <origin>  (49) 
adg

>  <m_score__min__energy>  (49) 
-8.1999999999999993

>  <m_primary>  (49) 
energy

$$$$
