0:0
     RDKit          3D

 51 53  0  0  0  0  0  0  0  0999 V2000
   -5.3700   14.9320  -33.5370 C   0  0  0  0  0  0  0  0  0  0  0  0
   -5.7840   16.2780  -33.1290 C   0  0  0  0  0  0  0  0  0  0  0  0
   -5.5130   16.6850  -31.9580 O   0  0  0  0  0  0  0  0  0  0  0  0
   -6.4840   17.1920  -33.9650 N   0  0  0  0  0  0  0  0  0  0  0  0
   -6.8080   18.4620  -33.4110 C   0  0  0  0  0  0  0  0  0  0  0  0
   -7.9610   18.6110  -32.6390 C   0  0  0  0  0  0  0  0  0  0  0  0
   -8.2660   19.8500  -32.1050 C   0  0  0  0  0  0  0  0  0  0  0  0
   -7.4400   20.9490  -32.3260 C   0  0  0  0  0  0  0  0  0  0  0  0
   -7.9150   22.4810  -31.6030 S   0  0  0  0  0  0  0  0  0  0  0  0
   -8.3610   23.4200  -32.7170 O   0  0  0  0  0  0  0  0  0  0  0  0
   -9.0610   22.2980  -30.6690 O   0  0  0  0  0  0  0  0  0  0  0  0
   -6.5300   23.1720  -30.8920 N   0  0  0  0  0  0  0  0  0  0  0  0
   -5.6910   22.1850  -30.2900 C   0  0  0  0  0  0  0  0  0  0  0  0
   -4.9340   22.7970  -29.1360 C   0  0  0  0  0  0  0  0  0  0  0  0
   -4.3750   24.1100  -29.6610 C   0  0  0  0  0  0  0  0  0  0  0  0
   -3.2220   24.5230  -28.8830 C   0  0  0  0  0  0  0  0  0  0  0  0
   -2.3000   25.2900  -29.3290 O   0  0  0  0  0  0  0  0  0  0  0  0
   -3.0300   24.0920  -27.5290 N   0  0  0  0  0  0  0  0  0  0  0  0
   -1.8300   24.5940  -26.9000 C   0  0  0  0  0  0  0  0  0  0  0  0
   -0.6090   24.1600  -27.3760 C   0  0  0  0  0  0  0  0  0  0  0  0
    0.5400   24.6560  -26.7550 C   0  0  0  0  0  0  0  0  0  0  0  0
    0.4300   25.5500  -25.7050 C   0  0  0  0  0  0  0  0  0  0  0  0
    2.0180   26.2210  -24.8650 Br  0  0  0  0  0  0  0  0  0  0  0  0
   -0.8110   25.9690  -25.2480 C   0  0  0  0  0  0  0  0  0  0  0  0
   -1.9520   25.4880  -25.8500 C   0  0  0  0  0  0  0  0  0  0  0  0
   -3.1430   25.9020  -25.3980 F   0  0  0  0  0  0  0  0  0  0  0  0
   -5.5200   25.0430  -29.7870 C   0  0  0  0  0  0  0  0  0  0  0  0
   -6.8200   24.3030  -30.0360 C   0  0  0  0  0  0  0  0  0  0  0  0
   -6.2980   20.8150  -33.0860 C   0  0  0  0  0  0  0  0  0  0  0  0
   -5.9820   19.5690  -33.6290 C   0  0  0  0  0  0  0  0  0  0  0  0
   -5.1816   14.3195  -32.6429 H   0  0  0  0  0  0  0  0  0  0  0  0
   -6.1673   14.4693  -34.1371 H   0  0  0  0  0  0  0  0  0  0  0  0
   -4.4504   14.9973  -34.1371 H   0  0  0  0  0  0  0  0  0  0  0  0
   -6.7180   16.8950  -34.9200 H   0  0  0  0  0  0  0  0  0  0  0  0
   -8.6216   17.7505  -32.4567 H   0  0  0  0  0  0  0  0  0  0  0  0
   -9.1747   19.9689  -31.4966 H   0  0  0  0  0  0  0  0  0  0  0  0
   -6.3103   21.3539  -29.9215 H   0  0  0  0  0  0  0  0  0  0  0  0
   -4.9760   21.8095  -31.0369 H   0  0  0  0  0  0  0  0  0  0  0  0
   -5.6100   22.9798  -28.2877 H   0  0  0  0  0  0  0  0  0  0  0  0
   -4.1361   22.1313  -28.7751 H   0  0  0  0  0  0  0  0  0  0  0  0
   -3.9381   24.0461  -30.6685 H   0  0  0  0  0  0  0  0  0  0  0  0
   -3.6970   23.4750  -27.0510 H   0  0  0  0  0  0  0  0  0  0  0  0
   -0.5432   23.4498  -28.2134 H   0  0  0  0  0  0  0  0  0  0  0  0
    1.5335   24.3352  -27.1014 H   0  0  0  0  0  0  0  0  0  0  0  0
   -0.8828   26.6797  -24.4115 H   0  0  0  0  0  0  0  0  0  0  0  0
   -5.6120   25.6225  -28.8566 H   0  0  0  0  0  0  0  0  0  0  0  0
   -5.3313   25.7043  -30.6455 H   0  0  0  0  0  0  0  0  0  0  0  0
   -7.2391   23.9518  -29.0815 H   0  0  0  0  0  0  0  0  0  0  0  0
   -7.5544   24.9678  -30.5143 H   0  0  0  0  0  0  0  0  0  0  0  0
   -5.6429   21.6808  -33.2626 H   0  0  0  0  0  0  0  0  0  0  0  0
   -5.0717   19.4562  -34.2362 H   0  0  0  0  0  0  0  0  0  0  0  0
  1  2  1  0
  2  3  2  0
  2  4  1  0
  4  5  1  0
  5  6  2  0
  6  7  1  0
  7  8  2  0
  8  9  1  0
  9 10  2  0
  9 11  2  0
  9 12  1  0
 12 13  1  0
 13 14  1  0
 14 15  1  0
 15 16  1  0
 16 17  2  0
 16 18  1  0
 18 19  1  0
 19 20  2  0
 20 21  1  0
 21 22  2  0
 22 23  1  0
 22 24  1  0
 24 25  2  0
 25 26  1  0
 15 27  1  0
 27 28  1  0
  8 29  1  0
 29 30  2  0
 30  5  1  0
 28 12  1  0
 25 19  1  0
  1 31  1  0
  1 32  1  0
  1 33  1  0
  4 34  1  0
  6 35  1  0
  7 36  1  0
 13 37  1  0
 13 38  1  0
 14 39  1  0
 14 40  1  0
 15 41  1  0
 18 42  1  0
 20 43  1  0
 21 44  1  0
 24 45  1  0
 27 46  1  0
 27 47  1  0
 28 48  1  0
 28 49  1  0
 29 50  1  0
 30 51  1  0
M  END
>  <smiles>  (1) 
CC(=O)Nc1ccc(S(=O)(=O)N2CCC(C(=O)Nc3ccc(Br)cc3F)CC2)cc1

>  <score_type>  (1) 
oracle

>  <origin>  (1) 
adg

>  <m_score__min__energy>  (1) 
-9.8900000000000006

>  <m_primary>  (1) 
energy

$$$$
1:0
     RDKit          3D

 76 79  0  0  0  0  0  0  0  0999 V2000
   -6.6100   24.9520  -30.0720 C   0  0  0  0  0  0  0  0  0  0  0  0
   -5.3070   25.6420  -30.4690 C   0  0  0  0  0  0  0  0  0  0  0  0
   -4.2690   24.6470  -30.7360 N   0  0  0  0  0  0  0  0  0  0  0  0
   -3.4840   24.5310  -29.5080 C   0  0  0  0  0  0  0  0  0  0  0  0
   -4.9120   23.3870  -31.0540 C   0  0  0  0  0  0  0  0  0  0  0  0
   -4.0080   22.4410  -31.7760 C   0  0  0  0  0  0  0  0  0  0  0  0
   -4.5980   22.0080  -33.0540 N   0  0  0  0  0  0  0  0  0  0  0  0
   -5.0910   20.6880  -33.0850 C   0  0  0  0  0  0  0  0  0  0  0  0
   -6.4450   20.5700  -32.7240 C   0  0  0  0  0  0  0  0  0  0  0  0
   -7.1670   21.6810  -32.3330 C   0  0  0  0  0  0  0  0  0  0  0  0
   -8.4920   21.6500  -31.9660 C   0  0  0  0  0  0  0  0  0  0  0  0
   -9.1240   20.4310  -31.9940 C   0  0  0  0  0  0  0  0  0  0  0  0
   -8.4260   19.3120  -32.3790 C   0  0  0  0  0  0  0  0  0  0  0  0
   -7.0870   19.3610  -32.7470 C   0  0  0  0  0  0  0  0  0  0  0  0
   -6.4220   18.2230  -33.1250 N   0  0  0  0  0  0  0  0  0  0  0  0
   -7.2060   17.0270  -33.1020 C   0  0  0  0  0  0  0  0  0  0  0  0
   -5.1400   18.3330  -33.4660 C   0  0  0  0  0  0  0  0  0  0  0  0
   -4.4920   17.1730  -33.8500 C   0  0  0  0  0  0  0  0  0  0  0  0
   -3.1710   17.2290  -34.2150 C   0  0  0  0  0  0  0  0  0  0  0  0
   -2.5130   18.4430  -34.1900 C   0  0  0  0  0  0  0  0  0  0  0  0
   -3.1150   19.6290  -33.8120 C   0  0  0  0  0  0  0  0  0  0  0  0
   -2.3090   20.7840  -33.7870 N   0  0  0  0  0  0  0  0  0  0  0  0
   -1.1260   20.8940  -32.9170 C   0  0  0  0  0  0  0  0  0  0  0  0
   -1.3770   20.5270  -31.5050 C   0  0  0  0  0  0  0  0  0  0  0  0
   -0.9790   21.4540  -30.4240 C   0  0  0  0  0  0  0  0  0  0  0  0
   -1.2110   20.9050  -29.0750 N   0  0  0  0  0  0  0  0  0  0  0  0
   -0.6360   21.7880  -28.1160 C   0  0  0  0  0  0  0  0  0  0  0  0
   -2.6340   20.8730  -28.8650 C   0  0  0  0  0  0  0  0  0  0  0  0
   -3.0370   20.2950  -27.5450 C   0  0  0  0  0  0  0  0  0  0  0  0
   -2.1410   19.2710  -26.9710 C   0  0  0  0  0  0  0  0  0  0  0  0
   -0.8160   19.0730  -27.6090 C   0  0  0  0  0  0  0  0  0  0  0  0
   -0.6700   19.5880  -29.0000 C   0  0  0  0  0  0  0  0  0  0  0  0
   -4.4400   19.5550  -33.4540 C   0  0  0  0  0  0  0  0  0  0  0  0
   -6.6846   24.9125  -28.9752 H   0  0  0  0  0  0  0  0  0  0  0  0
   -7.4624   25.5169  -30.4774 H   0  0  0  0  0  0  0  0  0  0  0  0
   -6.6217   23.9295  -30.4774 H   0  0  0  0  0  0  0  0  0  0  0  0
   -5.4756   26.2431  -31.3747 H   0  0  0  0  0  0  0  0  0  0  0  0
   -4.9785   26.2904  -29.6434 H   0  0  0  0  0  0  0  0  0  0  0  0
   -4.1488   24.6292  -28.6372 H   0  0  0  0  0  0  0  0  0  0  0  0
   -2.9876   23.5497  -29.4815 H   0  0  0  0  0  0  0  0  0  0  0  0
   -2.7250   25.3267  -29.4815 H   0  0  0  0  0  0  0  0  0  0  0  0
   -5.2399   22.9135  -30.1168 H   0  0  0  0  0  0  0  0  0  0  0  0
   -5.7602   23.6068  -31.7190 H   0  0  0  0  0  0  0  0  0  0  0  0
   -3.0497   22.9428  -31.9754 H   0  0  0  0  0  0  0  0  0  0  0  0
   -3.8581   21.5532  -31.1441 H   0  0  0  0  0  0  0  0  0  0  0  0
   -4.6040   22.6570  -33.8980 H   0  0  0  0  0  0  0  0  0  0  0  0
   -6.6495   22.6515  -32.3140 H   0  0  0  0  0  0  0  0  0  0  0  0
   -9.0237   22.5639  -31.6625 H   0  0  0  0  0  0  0  0  0  0  0  0
  -10.1836   20.3510  -31.7096 H   0  0  0  0  0  0  0  0  0  0  0  0
   -8.9457   18.3427  -32.3966 H   0  0  0  0  0  0  0  0  0  0  0  0
   -7.3978   16.7343  -32.0591 H   0  0  0  0  0  0  0  0  0  0  0  0
   -8.1627   17.2058  -33.6146 H   0  0  0  0  0  0  0  0  0  0  0  0
   -6.6604   16.2210  -33.6146 H   0  0  0  0  0  0  0  0  0  0  0  0
   -5.0311   16.2143  -33.8626 H   0  0  0  0  0  0  0  0  0  0  0  0
   -2.6410   16.3161  -34.5245 H   0  0  0  0  0  0  0  0  0  0  0  0
   -1.4540   18.4677  -34.4865 H   0  0  0  0  0  0  0  0  0  0  0  0
   -2.4400   21.6640  -34.3080 H   0  0  0  0  0  0  0  0  0  0  0  0
   -0.3435   20.2297  -33.3126 H   0  0  0  0  0  0  0  0  0  0  0  0
   -0.8271   21.9526  -32.9209 H   0  0  0  0  0  0  0  0  0  0  0  0
   -2.4607   20.3673  -31.4050 H   0  0  0  0  0  0  0  0  0  0  0  0
   -0.7244   19.6556  -31.3476 H   0  0  0  0  0  0  0  0  0  0  0  0
    0.0928   21.6771  -30.5314 H   0  0  0  0  0  0  0  0  0  0  0  0
   -1.6000   22.3567  -30.5215 H   0  0  0  0  0  0  0  0  0  0  0  0
   -0.8689   21.4303  -27.1022 H   0  0  0  0  0  0  0  0  0  0  0  0
    0.4551   21.8176  -28.2527 H   0  0  0  0  0  0  0  0  0  0  0  0
   -1.0502   22.7978  -28.2527 H   0  0  0  0  0  0  0  0  0  0  0  0
   -3.0165   21.9027  -28.9240 H   0  0  0  0  0  0  0  0  0  0  0  0
   -3.0580   20.2211  -29.6430 H   0  0  0  0  0  0  0  0  0  0  0  0
   -3.1027   21.1231  -26.8240 H   0  0  0  0  0  0  0  0  0  0  0  0
   -3.9881   19.7757  -27.7337 H   0  0  0  0  0  0  0  0  0  0  0  0
   -1.9615   19.5440  -25.9206 H   0  0  0  0  0  0  0  0  0  0  0  0
   -2.6698   18.3199  -27.1313 H   0  0  0  0  0  0  0  0  0  0  0  0
   -0.0643   19.5774  -26.9841 H   0  0  0  0  0  0  0  0  0  0  0  0
   -0.6863   17.9833  -27.6843 H   0  0  0  0  0  0  0  0  0  0  0  0
    0.3954   19.6125  -29.2726 H   0  0  0  0  0  0  0  0  0  0  0  0
   -1.2096   18.9282  -29.6953 H   0  0  0  0  0  0  0  0  0  0  0  0
  1  2  1  0
  2  3  1  0
  3  4  1  0
  3  5  1  0
  5  6  1  0
  6  7  1  0
  7  8  1  0
  8  9  2  0
  9 10  1  0
 10 11  2  0
 11 12  1  0
 12 13  2  0
 13 14  1  0
 14 15  2  0
 15 16  1  0
 15 17  1  0
 17 18  2  0
 18 19  1  0
 19 20  2  0
 20 21  1  0
 21 22  1  0
 22 23  1  0
 23 24  1  0
 24 25  1  0
 25 26  1  0
 26 27  1  0
 26 28  1  0
 28 29  1  0
 29 30  1  0
 30 31  1  0
 31 32  1  0
 21 33  2  0
 33  8  1  0
 14  9  1  0
 33 17  1  0
 32 26  1  0
  1 34  1  0
  1 35  1  0
  1 36  1  0
  2 37  1  0
  2 38  1  0
  4 39  1  0
  4 40  1  0
  4 41  1  0
  5 42  1  0
  5 43  1  0
  6 44  1  0
  6 45  1  0
  7 46  1  0
 10 47  1  0
 11 48  1  0
 12 49  1  0
 13 50  1  0
 16 51  1  0
 16 52  1  0
 16 53  1  0
 18 54  1  0
 19 55  1  0
 20 56  1  0
 22 57  1  0
 23 58  1  0
 23 59  1  0
 24 60  1  0
 24 61  1  0
 25 62  1  0
 25 63  1  0
 27 64  1  0
 27 65  1  0
 27 66  1  0
 28 67  1  0
 28 68  1  0
 29 69  1  0
 29 70  1  0
 30 71  1  0
 30 72  1  0
 31 73  1  0
 31 74  1  0
 32 75  1  0
 32 76  1  0
M  CHG  2  15   1  26   1
M  END
>  <smiles>  (2) 
CCN(C)CCNc1c2ccccc2[n+](C)c2cccc(NCCC[N+]3(C)CCCCC3)c12

>  <score_type>  (2) 
oracle

>  <origin>  (2) 
adg

>  <m_score__min__energy>  (2) 
-9.9100000000000001

>  <m_primary>  (2) 
energy

$$$$
2:0
     RDKit          3D

 42 44  0  0  0  0  0  0  0  0999 V2000
   -1.1120   22.6170  -28.5080 C   0  0  0  0  0  0  0  0  0  0  0  0
   -2.4140   23.2980  -28.4600 N   0  0  0  0  0  0  0  0  0  0  0  0
   -3.1100   23.7650  -29.5120 C   0  0  0  0  0  0  0  0  0  0  0  0
   -4.2800   24.3350  -29.0390 C   0  0  0  0  0  0  0  0  0  0  0  0
   -5.5190   25.0820  -30.0310 S   0  0  0  0  0  0  0  0  0  0  0  0
   -4.8150   25.6760  -31.2090 O   0  0  0  0  0  0  0  0  0  0  0  0
   -6.1760   26.1500  -29.1970 O   0  0  0  0  0  0  0  0  0  0  0  0
   -6.6520   23.8830  -30.5210 N   0  0  0  0  0  0  0  0  0  0  0  0
   -6.2980   22.6410  -29.8670 C   0  0  0  0  0  0  0  0  0  0  0  0
   -5.3310   21.8990  -30.7600 C   0  0  0  0  0  0  0  0  0  0  0  0
   -6.0610   21.5230  -31.9560 N   0  0  0  0  0  0  0  0  0  0  0  0
   -5.6590   20.3930  -32.7180 C   0  0  0  0  0  0  0  0  0  0  0  0
   -4.3450   20.2430  -33.0910 C   0  0  0  0  0  0  0  0  0  0  0  0
   -3.9360   19.1340  -33.8400 C   0  0  0  0  0  0  0  0  0  0  0  0
   -4.8230   18.1540  -34.2330 C   0  0  0  0  0  0  0  0  0  0  0  0
   -4.3490   16.9900  -35.0270 C   0  0  0  0  0  0  0  0  0  0  0  0
   -5.1840   15.9230  -34.7200 F   0  0  0  0  0  0  0  0  0  0  0  0
   -4.5410   17.2780  -36.3850 F   0  0  0  0  0  0  0  0  0  0  0  0
   -3.0330   16.7450  -34.7590 F   0  0  0  0  0  0  0  0  0  0  0  0
   -6.1410   18.3030  -33.8580 C   0  0  0  0  0  0  0  0  0  0  0  0
   -6.5430   19.4130  -33.1110 C   0  0  0  0  0  0  0  0  0  0  0  0
   -7.1940   22.3540  -32.3170 C   0  0  0  0  0  0  0  0  0  0  0  0
   -6.8170   23.7900  -31.9340 C   0  0  0  0  0  0  0  0  0  0  0  0
   -4.2540   24.1890  -27.6700 C   0  0  0  0  0  0  0  0  0  0  0  0
   -3.1050   23.5550  -27.3670 N   0  0  0  0  0  0  0  0  0  0  0  0
   -0.7573   22.4315  -27.4834 H   0  0  0  0  0  0  0  0  0  0  0  0
   -1.2185   21.6591  -29.0382 H   0  0  0  0  0  0  0  0  0  0  0  0
   -0.3860   23.2509  -29.0382 H   0  0  0  0  0  0  0  0  0  0  0  0
   -2.8027   23.7045  -30.5665 H   0  0  0  0  0  0  0  0  0  0  0  0
   -5.8231   22.8523  -28.8975 H   0  0  0  0  0  0  0  0  0  0  0  0
   -7.1977   22.0330  -29.6914 H   0  0  0  0  0  0  0  0  0  0  0  0
   -4.4843   22.5500  -31.0233 H   0  0  0  0  0  0  0  0  0  0  0  0
   -4.9285   21.0111  -30.2505 H   0  0  0  0  0  0  0  0  0  0  0  0
   -3.6062   21.0033  -32.7975 H   0  0  0  0  0  0  0  0  0  0  0  0
   -2.8771   19.0414  -34.1233 H   0  0  0  0  0  0  0  0  0  0  0  0
   -6.8811   17.5430  -34.1488 H   0  0  0  0  0  0  0  0  0  0  0  0
   -7.6015   19.5074  -32.8271 H   0  0  0  0  0  0  0  0  0  0  0  0
   -7.3862   22.2865  -33.3980 H   0  0  0  0  0  0  0  0  0  0  0  0
   -8.1079   22.0297  -31.7978 H   0  0  0  0  0  0  0  0  0  0  0  0
   -5.8752   24.0657  -32.4310 H   0  0  0  0  0  0  0  0  0  0  0  0
   -7.6172   24.4741  -32.2531 H   0  0  0  0  0  0  0  0  0  0  0  0
   -5.0239   24.5256  -26.9601 H   0  0  0  0  0  0  0  0  0  0  0  0
  1  2  1  0
  2  3  1  0
  3  4  2  0
  4  5  1  0
  5  6  2  0
  5  7  2  0
  5  8  1  0
  8  9  1  0
  9 10  1  0
 10 11  1  0
 11 12  1  0
 12 13  2  0
 13 14  1  0
 14 15  2  0
 15 16  1  0
 16 17  1  0
 16 18  1  0
 16 19  1  0
 15 20  1  0
 20 21  2  0
 11 22  1  0
 22 23  1  0
  4 24  1  0
 24 25  2  0
 25  2  1  0
 23  8  1  0
 21 12  1  0
  1 26  1  0
  1 27  1  0
  1 28  1  0
  3 29  1  0
  9 30  1  0
  9 31  1  0
 10 32  1  0
 10 33  1  0
 13 34  1  0
 14 35  1  0
 20 36  1  0
 21 37  1  0
 22 38  1  0
 22 39  1  0
 23 40  1  0
 23 41  1  0
 24 42  1  0
M  END
>  <smiles>  (3) 
Cn1cc(S(=O)(=O)N2CCN(c3ccc(C(F)(F)F)cc3)CC2)cn1

>  <score_type>  (3) 
oracle

>  <origin>  (3) 
adg

>  <m_score__min__energy>  (3) 
-7.3899999999999997

>  <m_primary>  (3) 
energy

$$$$
3:0
     RDKit          3D

 56 59  0  0  0  0  0  0  0  0999 V2000
   -0.0690   29.1080  -26.9550 C   0  0  0  0  0  0  0  0  0  0  0  0
   -0.3460   29.1550  -25.5280 N   0  0  0  0  0  0  0  0  0  0  0  0
   -1.1160   30.3420  -25.1990 C   0  0  0  0  0  0  0  0  0  0  0  0
   -1.0670   27.9530  -25.1400 C   0  0  0  0  0  0  0  0  0  0  0  0
   -0.0640   27.0030  -24.5020 C   0  0  0  0  0  0  0  0  0  0  0  0
    0.2990   26.0710  -25.5050 O   0  0  0  0  0  0  0  0  0  0  0  0
   -0.6700   25.6200  -26.3930 C   0  0  0  0  0  0  0  0  0  0  0  0
   -0.4240   25.8140  -27.7370 C   0  0  0  0  0  0  0  0  0  0  0  0
   -1.3810   25.3690  -28.6280 C   0  0  0  0  0  0  0  0  0  0  0  0
   -2.5440   24.7530  -28.2120 C   0  0  0  0  0  0  0  0  0  0  0  0
   -3.5420   24.2880  -29.1680 C   0  0  0  0  0  0  0  0  0  0  0  0
   -3.8940   22.9620  -29.3590 C   0  0  0  0  0  0  0  0  0  0  0  0
   -4.8410   22.8960  -30.3130 N   0  0  0  0  0  0  0  0  0  0  0  0
   -5.4990   21.8630  -30.8520 N   0  0  0  0  0  0  0  0  0  0  0  0
   -6.4370   22.0370  -31.8280 C   0  0  0  0  0  0  0  0  0  0  0  0
   -7.1320   20.9140  -32.3890 N   0  0  0  0  0  0  0  0  0  0  0  0
   -6.3230   19.9400  -33.0790 C   0  0  0  0  0  0  0  0  0  0  0  0
   -6.3740   18.6400  -32.2700 C   0  0  0  0  0  0  0  0  0  0  0  0
   -7.6260   17.8490  -32.6220 C   0  0  0  0  0  0  0  0  0  0  0  0
   -8.7880   18.6580  -32.8280 N   0  0  0  0  0  0  0  0  0  0  0  0
   -8.9570   19.5360  -31.6860 C   0  0  0  0  0  0  0  0  0  0  0  0
   -8.5830   20.9440  -32.1620 C   0  0  0  0  0  0  0  0  0  0  0  0
   -6.7330   23.3130  -32.2920 C   0  0  0  0  0  0  0  0  0  0  0  0
   -6.0470   24.3730  -31.7290 C   0  0  0  0  0  0  0  0  0  0  0  0
   -5.0890   24.1720  -30.7310 C   0  0  0  0  0  0  0  0  0  0  0  0
   -4.2950   25.0200  -30.0300 N   0  0  0  0  0  0  0  0  0  0  0  0
   -2.7600   24.5730  -26.8600 C   0  0  0  0  0  0  0  0  0  0  0  0
   -1.8260   25.0040  -25.9260 C   0  0  0  0  0  0  0  0  0  0  0  0
    1.0041   28.9259  -27.1144 H   0  0  0  0  0  0  0  0  0  0  0  0
   -0.6510   28.2958  -27.4149 H   0  0  0  0  0  0  0  0  0  0  0  0
   -0.3505   30.0668  -27.4149 H   0  0  0  0  0  0  0  0  0  0  0  0
   -1.1825   30.4446  -24.1058 H   0  0  0  0  0  0  0  0  0  0  0  0
   -0.6208   31.2289  -25.6210 H   0  0  0  0  0  0  0  0  0  0  0  0
   -2.1278   30.2514  -25.6210 H   0  0  0  0  0  0  0  0  0  0  0  0
   -1.8568   28.2058  -24.4173 H   0  0  0  0  0  0  0  0  0  0  0  0
   -1.5399   27.4854  -26.0162 H   0  0  0  0  0  0  0  0  0  0  0  0
    0.8219   27.5585  -24.1605 H   0  0  0  0  0  0  0  0  0  0  0  0
   -0.4958   26.4974  -23.6257 H   0  0  0  0  0  0  0  0  0  0  0  0
    0.4976   26.3036  -28.0849 H   0  0  0  0  0  0  0  0  0  0  0  0
   -1.2105   25.5103  -29.7055 H   0  0  0  0  0  0  0  0  0  0  0  0
   -3.4689   22.1031  -28.8191 H   0  0  0  0  0  0  0  0  0  0  0  0
   -6.7221   19.7689  -34.0897 H   0  0  0  0  0  0  0  0  0  0  0  0
   -5.2865   20.2958  -33.1741 H   0  0  0  0  0  0  0  0  0  0  0  0
   -5.4851   18.0342  -32.4999 H   0  0  0  0  0  0  0  0  0  0  0  0
   -6.3949   18.8856  -31.1980 H   0  0  0  0  0  0  0  0  0  0  0  0
   -7.4299   17.2842  -33.5453 H   0  0  0  0  0  0  0  0  0  0  0  0
   -7.8414   17.1963  -31.7632 H   0  0  0  0  0  0  0  0  0  0  0  0
   -8.7820   19.2250  -33.6900 H   0  0  0  0  0  0  0  0  0  0  0  0
  -10.0017   19.5159  -31.3422 H   0  0  0  0  0  0  0  0  0  0  0  0
   -8.3248   19.2195  -30.8433 H   0  0  0  0  0  0  0  0  0  0  0  0
   -9.1123   21.1867  -33.0952 H   0  0  0  0  0  0  0  0  0  0  0  0
   -8.8629   21.7100  -31.4239 H   0  0  0  0  0  0  0  0  0  0  0  0
   -7.4854   23.4737  -33.0782 H   0  0  0  0  0  0  0  0  0  0  0  0
   -6.2594   25.3958  -32.0735 H   0  0  0  0  0  0  0  0  0  0  0  0
   -3.6832   24.0822  -26.5182 H   0  0  0  0  0  0  0  0  0  0  0  0
   -1.9960   24.8621  -24.8485 H   0  0  0  0  0  0  0  0  0  0  0  0
  1  2  1  0
  2  3  1  0
  2  4  1  0
  4  5  1  0
  5  6  1  0
  6  7  1  0
  7  8  2  0
  8  9  1  0
  9 10  2  0
 10 11  1  0
 11 12  2  0
 12 13  1  0
 13 14  1  0
 14 15  2  0
 15 16  1  0
 16 17  1  0
 17 18  1  0
 18 19  1  0
 19 20  1  0
 20 21  1  0
 21 22  1  0
 15 23  1  0
 23 24  2  0
 24 25  1  0
 25 26  2  0
 10 27  1  0
 27 28  2  0
 28  7  1  0
 26 11  1  0
 25 13  1  0
 22 16  1  0
  1 29  1  0
  1 30  1  0
  1 31  1  0
  3 32  1  0
  3 33  1  0
  3 34  1  0
  4 35  1  0
  4 36  1  0
  5 37  1  0
  5 38  1  0
  8 39  1  0
  9 40  1  0
 12 41  1  0
 17 42  1  0
 17 43  1  0
 18 44  1  0
 18 45  1  0
 19 46  1  0
 19 47  1  0
 20 48  1  0
 21 49  1  0
 21 50  1  0
 22 51  1  0
 22 52  1  0
 23 53  1  0
 24 54  1  0
 27 55  1  0
 28 56  1  0
M  END
>  <smiles>  (4) 
CN(C)CCOc1ccc(-c2cn3nc(N4CCCNCC4)ccc3n2)cc1

>  <score_type>  (4) 
oracle

>  <origin>  (4) 
adg

>  <m_score__min__energy>  (4) 
-6

>  <m_primary>  (4) 
energy

$$$$
4:0
     RDKit          3D

 52 55  0  0  0  0  0  0  0  0999 V2000
   -3.7690   23.7760  -28.1910 C   0  0  0  0  0  0  0  0  0  0  0  0
   -4.7210   23.0650  -29.0900 C   0  0  0  0  0  0  0  0  0  0  0  0
   -4.6780   23.4390  -30.4820 N   0  0  0  0  0  0  0  0  0  0  0  0
   -4.7970   24.9310  -30.4560 C   0  0  0  0  0  0  0  0  0  0  0  0
   -6.1490   25.3650  -29.9960 C   0  0  0  0  0  0  0  0  0  0  0  0
   -3.4630   23.0970  -31.1150 C   0  0  0  0  0  0  0  0  0  0  0  0
   -3.4070   22.0950  -32.1960 C   0  0  0  0  0  0  0  0  0  0  0  0
   -4.5570   22.0500  -33.0730 N   0  0  0  0  0  0  0  0  0  0  0  0
   -5.5200   21.0440  -32.9400 C   0  0  0  0  0  0  0  0  0  0  0  0
   -5.3840   19.7180  -33.2210 C   0  0  0  0  0  0  0  0  0  0  0  0
   -6.4440   18.8310  -33.0160 C   0  0  0  0  0  0  0  0  0  0  0  0
   -7.6360   19.2410  -32.5400 N   0  0  0  0  0  0  0  0  0  0  0  0
   -8.7500   18.3450  -32.3210 C   0  0  0  0  0  0  0  0  0  0  0  0
   -7.7940   20.5300  -32.2580 C   0  0  0  0  0  0  0  0  0  0  0  0
   -9.0290   20.9630  -31.7640 C   0  0  0  0  0  0  0  0  0  0  0  0
   -9.2450   22.2770  -31.4600 C   0  0  0  0  0  0  0  0  0  0  0  0
   -8.2340   23.2060  -31.6390 C   0  0  0  0  0  0  0  0  0  0  0  0
   -7.0150   22.7740  -32.1280 C   0  0  0  0  0  0  0  0  0  0  0  0
   -6.7750   21.4410  -32.4430 C   0  0  0  0  0  0  0  0  0  0  0  0
   -6.0210   17.4790  -33.4040 C   0  0  0  0  0  0  0  0  0  0  0  0
   -6.6060   16.2690  -33.4250 N   0  0  0  0  0  0  0  0  0  0  0  0
   -5.9880   15.1470  -33.8420 C   0  0  0  0  0  0  0  0  0  0  0  0
   -4.6680   15.2100  -34.2850 C   0  0  0  0  0  0  0  0  0  0  0  0
   -4.0330   16.4350  -34.2770 C   0  0  0  0  0  0  0  0  0  0  0  0
   -4.7180   17.5580  -33.8370 C   0  0  0  0  0  0  0  0  0  0  0  0
   -4.2930   18.9410  -33.7350 C   0  0  0  0  0  0  0  0  0  0  0  0
   -3.1740   19.3640  -34.0420 O   0  0  0  0  0  0  0  0  0  0  0  0
   -4.0361   23.5765  -27.1427 H   0  0  0  0  0  0  0  0  0  0  0  0
   -2.7466   23.4186  -28.3833 H   0  0  0  0  0  0  0  0  0  0  0  0
   -3.8215   24.8578  -28.3833 H   0  0  0  0  0  0  0  0  0  0  0  0
   -4.5051   21.9884  -29.0243 H   0  0  0  0  0  0  0  0  0  0  0  0
   -5.7250   23.3461  -28.7392 H   0  0  0  0  0  0  0  0  0  0  0  0
   -4.0388   25.3380  -29.7708 H   0  0  0  0  0  0  0  0  0  0  0  0
   -4.6437   25.3069  -31.4784 H   0  0  0  0  0  0  0  0  0  0  0  0
   -6.1768   25.3739  -28.8964 H   0  0  0  0  0  0  0  0  0  0  0  0
   -6.3588   26.3756  -30.3763 H   0  0  0  0  0  0  0  0  0  0  0  0
   -6.9078   24.6653  -30.3763 H   0  0  0  0  0  0  0  0  0  0  0  0
   -3.0608   24.0299  -31.5369 H   0  0  0  0  0  0  0  0  0  0  0  0
   -2.9094   22.5990  -30.3054 H   0  0  0  0  0  0  0  0  0  0  0  0
   -2.5214   22.3117  -32.8115 H   0  0  0  0  0  0  0  0  0  0  0  0
   -3.3749   21.1163  -31.6949 H   0  0  0  0  0  0  0  0  0  0  0  0
   -4.6430   22.7870  -33.7990 H   0  0  0  0  0  0  0  0  0  0  0  0
   -8.9101   18.2163  -31.2403 H   0  0  0  0  0  0  0  0  0  0  0  0
   -9.6565   18.7685  -32.7780 H   0  0  0  0  0  0  0  0  0  0  0  0
   -8.5307   17.3688  -32.7780 H   0  0  0  0  0  0  0  0  0  0  0  0
   -9.8393   20.2335  -31.6180 H   0  0  0  0  0  0  0  0  0  0  0  0
  -10.2233   22.5976  -31.0725 H   0  0  0  0  0  0  0  0  0  0  0  0
   -8.3974   24.2665  -31.3970 H   0  0  0  0  0  0  0  0  0  0  0  0
   -6.2090   23.5085  -32.2725 H   0  0  0  0  0  0  0  0  0  0  0  0
   -6.5226   14.1857  -33.8329 H   0  0  0  0  0  0  0  0  0  0  0  0
   -4.1458   14.3062  -34.6321 H   0  0  0  0  0  0  0  0  0  0  0  0
   -2.9905   16.5204  -34.6173 H   0  0  0  0  0  0  0  0  0  0  0  0
  1  2  1  0
  2  3  1  0
  3  4  1  0
  4  5  1  0
  3  6  1  0
  6  7  1  0
  7  8  1  0
  8  9  1  0
  9 10  2  0
 10 11  1  0
 11 12  2  0
 12 13  1  0
 12 14  1  0
 14 15  2  0
 15 16  1  0
 16 17  2  0
 17 18  1  0
 18 19  2  0
 11 20  1  0
 20 21  2  0
 21 22  1  0
 22 23  2  0
 23 24  1  0
 24 25  2  0
 25 26  1  0
 26 27  2  0
 19  9  1  0
 25 20  1  0
 26 10  1  0
 19 14  1  0
  1 28  1  0
  1 29  1  0
  1 30  1  0
  2 31  1  0
  2 32  1  0
  4 33  1  0
  4 34  1  0
  5 35  1  0
  5 36  1  0
  5 37  1  0
  6 38  1  0
  6 39  1  0
  7 40  1  0
  7 41  1  0
  8 42  1  0
 13 43  1  0
 13 44  1  0
 13 45  1  0
 15 46  1  0
 16 47  1  0
 17 48  1  0
 18 49  1  0
 22 50  1  0
 23 51  1  0
 24 52  1  0
M  CHG  1  12   1
M  END
>  <smiles>  (5) 
CCN(CC)CCNc1c2c([n+](C)c3ccccc13)-c1ncccc1C2=O

>  <score_type>  (5) 
oracle

>  <origin>  (5) 
adg

>  <m_score__min__energy>  (5) 
-9.3100000000000005

>  <m_primary>  (5) 
energy

$$$$
5:0
     RDKit          3D

 56 58  0  0  0  0  0  0  0  0999 V2000
   -5.3780   25.4150  -30.4560 C   0  0  0  0  0  0  0  0  0  0  0  0
   -4.3530   24.5500  -29.8090 C   0  0  0  0  0  0  0  0  0  0  0  0
   -3.0930   24.9730  -29.7160 O   0  0  0  0  0  0  0  0  0  0  0  0
   -2.3330   24.8990  -28.6130 C   0  0  0  0  0  0  0  0  0  0  0  0
   -1.9200   23.5380  -28.1590 C   0  0  0  0  0  0  0  0  0  0  0  0
   -1.1590   22.7750  -29.2210 C   0  0  0  0  0  0  0  0  0  0  0  0
   -2.0120   22.5880  -30.3570 N   0  0  0  0  0  0  0  0  0  0  0  0
   -1.6250   21.5490  -31.2680 C   0  0  0  0  0  0  0  0  0  0  0  0
   -2.9130   20.8980  -31.7290 C   0  0  0  0  0  0  0  0  0  0  0  0
   -3.0870   20.8520  -33.2080 C   0  0  0  0  0  0  0  0  0  0  0  0
   -4.4140   21.1800  -33.6050 N   0  0  0  0  0  0  0  0  0  0  0  0
   -5.5250   20.4070  -33.1830 C   0  0  0  0  0  0  0  0  0  0  0  0
   -5.6910   19.0720  -33.4820 C   0  0  0  0  0  0  0  0  0  0  0  0
   -4.7030   18.4750  -34.2350 C   0  0  0  0  0  0  0  0  0  0  0  0
   -4.7780   17.1430  -34.5810 C   0  0  0  0  0  0  0  0  0  0  0  0
   -5.8660   16.4090  -34.1580 C   0  0  0  0  0  0  0  0  0  0  0  0
   -6.8570   17.0360  -33.3950 C   0  0  0  0  0  0  0  0  0  0  0  0
   -6.8060   18.3510  -33.0400 C   0  0  0  0  0  0  0  0  0  0  0  0
   -7.7740   18.9530  -32.2930 N   0  0  0  0  0  0  0  0  0  0  0  0
   -8.9200   18.2140  -31.8580 C   0  0  0  0  0  0  0  0  0  0  0  0
   -7.6230   20.2560  -31.9950 C   0  0  0  0  0  0  0  0  0  0  0  0
   -8.5430   20.9550  -31.2370 C   0  0  0  0  0  0  0  0  0  0  0  0
   -8.3880   22.2940  -30.9230 C   0  0  0  0  0  0  0  0  0  0  0  0
   -7.3030   23.0010  -31.3520 C   0  0  0  0  0  0  0  0  0  0  0  0
   -6.3640   22.3260  -32.1130 C   0  0  0  0  0  0  0  0  0  0  0  0
   -6.5180   20.9960  -32.4240 C   0  0  0  0  0  0  0  0  0  0  0  0
   -5.9747   25.9186  -29.6812 H   0  0  0  0  0  0  0  0  0  0  0  0
   -4.8790   26.1691  -31.0824 H   0  0  0  0  0  0  0  0  0  0  0  0
   -6.0375   24.7963  -31.0824 H   0  0  0  0  0  0  0  0  0  0  0  0
   -4.7007   24.3568  -28.7834 H   0  0  0  0  0  0  0  0  0  0  0  0
   -4.2829   23.6867  -30.4871 H   0  0  0  0  0  0  0  0  0  0  0  0
   -1.4164   25.4766  -28.8033 H   0  0  0  0  0  0  0  0  0  0  0  0
   -2.9692   25.2869  -27.8038 H   0  0  0  0  0  0  0  0  0  0  0  0
   -1.2776   23.6426  -27.2722 H   0  0  0  0  0  0  0  0  0  0  0  0
   -2.8350   22.9708  -27.9333 H   0  0  0  0  0  0  0  0  0  0  0  0
   -0.2671   23.3460  -29.5186 H   0  0  0  0  0  0  0  0  0  0  0  0
   -0.8444   21.7980  -28.8255 H   0  0  0  0  0  0  0  0  0  0  0  0
   -2.1290   23.4750  -30.9040 H   0  0  0  0  0  0  0  0  0  0  0  0
   -1.0834   21.9746  -32.1256 H   0  0  0  0  0  0  0  0  0  0  0  0
   -0.9544   20.8210  -30.7881 H   0  0  0  0  0  0  0  0  0  0  0  0
   -2.9317   19.8660  -31.3486 H   0  0  0  0  0  0  0  0  0  0  0  0
   -3.7339   21.5160  -31.3364 H   0  0  0  0  0  0  0  0  0  0  0  0
   -2.3921   21.5696  -33.6687 H   0  0  0  0  0  0  0  0  0  0  0  0
   -2.8802   19.8239  -33.5399 H   0  0  0  0  0  0  0  0  0  0  0  0
   -4.5800   22.0140  -34.2270 H   0  0  0  0  0  0  0  0  0  0  0  0
   -3.8400   19.0717  -34.5654 H   0  0  0  0  0  0  0  0  0  0  0  0
   -3.9853   16.6745  -35.1829 H   0  0  0  0  0  0  0  0  0  0  0  0
   -5.9537   15.3436  -34.4173 H   0  0  0  0  0  0  0  0  0  0  0  0
   -7.7197   16.4384  -33.0654 H   0  0  0  0  0  0  0  0  0  0  0  0
   -8.9487   18.1955  -30.7585 H   0  0  0  0  0  0  0  0  0  0  0  0
   -9.8328   18.6941  -32.2406 H   0  0  0  0  0  0  0  0  0  0  0  0
   -8.8593   17.1845  -32.2406 H   0  0  0  0  0  0  0  0  0  0  0  0
   -9.4342   20.4260  -30.8684 H   0  0  0  0  0  0  0  0  0  0  0  0
   -9.1545   22.7979  -30.3158 H   0  0  0  0  0  0  0  0  0  0  0  0
   -7.1792   24.0653  -31.1031 H   0  0  0  0  0  0  0  0  0  0  0  0
   -5.4766   22.8650  -32.4762 H   0  0  0  0  0  0  0  0  0  0  0  0
  1  2  1  0
  2  3  1  0
  3  4  1  0
  4  5  1  0
  5  6  1  0
  6  7  1  0
  7  8  1  0
  8  9  1  0
  9 10  1  0
 10 11  1  0
 11 12  1  0
 12 13  2  0
 13 14  1  0
 14 15  2  0
 15 16  1  0
 16 17  2  0
 17 18  1  0
 18 19  2  0
 19 20  1  0
 19 21  1  0
 21 22  2  0
 22 23  1  0
 23 24  2  0
 24 25  1  0
 25 26  2  0
 26 12  1  0
 18 13  1  0
 26 21  1  0
  1 27  1  0
  1 28  1  0
  1 29  1  0
  2 30  1  0
  2 31  1  0
  4 32  1  0
  4 33  1  0
  5 34  1  0
  5 35  1  0
  6 36  1  0
  6 37  1  0
  7 38  1  0
  8 39  1  0
  8 40  1  0
  9 41  1  0
  9 42  1  0
 10 43  1  0
 10 44  1  0
 11 45  1  0
 14 46  1  0
 15 47  1  0
 16 48  1  0
 17 49  1  0
 20 50  1  0
 20 51  1  0
 20 52  1  0
 22 53  1  0
 23 54  1  0
 24 55  1  0
 25 56  1  0
M  CHG  1  19   1
M  END
>  <smiles>  (6) 
CCOCCCNCCCNc1c2ccccc2[n+](C)c2ccccc12

>  <score_type>  (6) 
oracle

>  <origin>  (6) 
adg

>  <m_score__min__energy>  (6) 
-8.8200000000000003

>  <m_primary>  (6) 
energy

$$$$
6:0
     RDKit          3D

 93 98  0  0  0  0  0  0  0  0999 V2000
   -0.5550   25.5560  -27.8140 C   0  0  0  0  0  0  0  0  0  0  0  0
   -1.4240   24.3820  -28.2950 C   0  0  0  0  0  0  0  0  0  0  0  0
   -2.4070   24.8970  -29.1920 N   0  0  0  0  0  0  0  0  0  0  0  0
   -3.7830   24.5500  -28.8090 C   0  0  0  0  0  0  0  0  0  0  0  0
   -4.6720   24.4160  -29.9890 C   0  0  0  0  0  0  0  0  0  0  0  0
   -4.2070   23.7770  -31.0450 O   0  0  0  0  0  0  0  0  0  0  0  0
   -3.8630   22.4860  -31.1910 C   0  0  0  0  0  0  0  0  0  0  0  0
   -3.4700   21.9760  -32.5130 C   0  0  0  0  0  0  0  0  0  0  0  0
   -4.5670   21.6240  -33.4510 N   0  0  0  0  0  0  0  0  0  0  0  0
   -5.5870   20.7260  -33.0670 C   0  0  0  0  0  0  0  0  0  0  0  0
   -6.7300   21.3410  -32.5210 C   0  0  0  0  0  0  0  0  0  0  0  0
   -6.7590   22.7030  -32.3090 C   0  0  0  0  0  0  0  0  0  0  0  0
   -7.8280   23.3810  -31.7640 C   0  0  0  0  0  0  0  0  0  0  0  0
   -8.9300   22.6410  -31.4120 C   0  0  0  0  0  0  0  0  0  0  0  0
   -8.9270   21.2580  -31.6130 C   0  0  0  0  0  0  0  0  0  0  0  0
   -7.8410   20.6110  -32.1600 C   0  0  0  0  0  0  0  0  0  0  0  0
   -7.8710   19.2780  -32.3190 N   0  0  0  0  0  0  0  0  0  0  0  0
   -8.9800   18.4460  -31.9910 C   0  0  0  0  0  0  0  0  0  0  0  0
   -6.7680   18.6640  -32.8430 C   0  0  0  0  0  0  0  0  0  0  0  0
   -6.8110   17.2890  -32.9610 C   0  0  0  0  0  0  0  0  0  0  0  0
   -5.7200   16.6090  -33.4450 C   0  0  0  0  0  0  0  0  0  0  0  0
   -4.6150   17.3470  -33.7950 C   0  0  0  0  0  0  0  0  0  0  0  0
   -4.5300   18.7260  -33.6930 C   0  0  0  0  0  0  0  0  0  0  0  0
   -3.2900   19.3180  -33.9940 N   0  0  0  0  0  0  0  0  0  0  0  0
   -2.0920   18.4200  -34.0380 C   0  0  0  0  0  0  0  0  0  0  0  0
   -0.8940   19.1330  -34.5600 C   0  0  0  0  0  0  0  0  0  0  0  0
   -0.6150   20.3650  -33.7400 C   0  0  0  0  0  0  0  0  0  0  0  0
   -0.2760   19.9700  -32.3390 C   0  0  0  0  0  0  0  0  0  0  0  0
   -1.0780   20.7330  -31.3400 C   0  0  0  0  0  0  0  0  0  0  0  0
   -0.1530   21.5610  -30.4450 C   0  0  0  0  0  0  0  0  0  0  0  0
    0.3620   20.7480  -29.4540 N   0  0  0  0  0  0  0  0  0  0  0  0
    0.0820   19.8450  -28.6880 C   0  0  0  0  0  0  0  0  0  0  0  0
   -1.0390   19.6450  -27.9100 C   0  0  0  0  0  0  0  0  0  0  0  0
   -2.0550   20.5600  -27.9360 C   0  0  0  0  0  0  0  0  0  0  0  0
   -3.1740   20.3720  -27.1680 C   0  0  0  0  0  0  0  0  0  0  0  0
   -3.3540   19.2870  -26.3410 C   0  0  0  0  0  0  0  0  0  0  0  0
   -2.3340   18.3560  -26.3080 C   0  0  0  0  0  0  0  0  0  0  0  0
   -1.2070   18.5470  -27.0840 C   0  0  0  0  0  0  0  0  0  0  0  0
   -0.2540   17.6160  -27.0100 N   0  0  0  0  0  0  0  0  0  0  0  0
    0.8660   17.7400  -27.7350 C   0  0  0  0  0  0  0  0  0  0  0  0
    1.8350   16.7620  -27.6370 C   0  0  0  0  0  0  0  0  0  0  0  0
    3.0070   16.8400  -28.3600 C   0  0  0  0  0  0  0  0  0  0  0  0
    3.2110   17.9160  -29.1950 C   0  0  0  0  0  0  0  0  0  0  0  0
    2.2350   18.8900  -29.2850 C   0  0  0  0  0  0  0  0  0  0  0  0
    1.0490   18.8170  -28.5570 C   0  0  0  0  0  0  0  0  0  0  0  0
   -5.6340   19.3830  -33.2120 C   0  0  0  0  0  0  0  0  0  0  0  0
   -0.5408   25.5752  -26.7143 H   0  0  0  0  0  0  0  0  0  0  0  0
    0.4706   25.4319  -28.1918 H   0  0  0  0  0  0  0  0  0  0  0  0
   -0.9732   26.5006  -28.1918 H   0  0  0  0  0  0  0  0  0  0  0  0
   -0.7970   23.6419  -28.8138 H   0  0  0  0  0  0  0  0  0  0  0  0
   -1.9093   23.8909  -27.4386 H   0  0  0  0  0  0  0  0  0  0  0  0
   -2.2820   24.5750  -30.1730 H   0  0  0  0  0  0  0  0  0  0  0  0
   -3.7696   23.5944  -28.2643 H   0  0  0  0  0  0  0  0  0  0  0  0
   -4.1751   25.3621  -28.1791 H   0  0  0  0  0  0  0  0  0  0  0  0
   -5.5772   23.8857  -29.6581 H   0  0  0  0  0  0  0  0  0  0  0  0
   -4.8239   25.4483  -30.3373 H   0  0  0  0  0  0  0  0  0  0  0  0
   -3.0141   22.3050  -30.5153 H   0  0  0  0  0  0  0  0  0  0  0  0
   -4.7995   21.9488  -30.9803 H   0  0  0  0  0  0  0  0  0  0  0  0
   -2.8537   22.7478  -32.9971 H   0  0  0  0  0  0  0  0  0  0  0  0
   -2.9498   21.0280  -32.3115 H   0  0  0  0  0  0  0  0  0  0  0  0
   -4.5600   22.0090  -34.4400 H   0  0  0  0  0  0  0  0  0  0  0  0
   -5.8710   23.2866  -32.5934 H   0  0  0  0  0  0  0  0  0  0  0  0
   -7.7997   24.4708  -31.6169 H   0  0  0  0  0  0  0  0  0  0  0  0
   -9.8104   23.1342  -30.9742 H   0  0  0  0  0  0  0  0  0  0  0  0
   -9.8131   20.6721  -31.3275 H   0  0  0  0  0  0  0  0  0  0  0  0
   -9.0744   18.3752  -30.8974 H   0  0  0  0  0  0  0  0  0  0  0  0
   -9.8999   18.8787  -32.4112 H   0  0  0  0  0  0  0  0  0  0  0  0
   -8.8219   17.4418  -32.4112 H   0  0  0  0  0  0  0  0  0  0  0  0
   -7.7174   16.7390  -32.6679 H   0  0  0  0  0  0  0  0  0  0  0  0
   -5.7305   15.5139  -33.5486 H   0  0  0  0  0  0  0  0  0  0  0  0
   -3.7388   16.8064  -34.1823 H   0  0  0  0  0  0  0  0  0  0  0  0
   -3.0320   20.2730  -34.1860 H   0  0  0  0  0  0  0  0  0  0  0  0
   -1.8782   18.0593  -33.0210 H   0  0  0  0  0  0  0  0  0  0  0  0
   -2.3149   17.5804  -34.7128 H   0  0  0  0  0  0  0  0  0  0  0  0
   -0.0239   18.4617  -34.5125 H   0  0  0  0  0  0  0  0  0  0  0  0
   -1.0843   19.4338  -35.6008 H   0  0  0  0  0  0  0  0  0  0  0  0
    0.2306   20.9137  -34.1802 H   0  0  0  0  0  0  0  0  0  0  0  0
   -1.5076   21.0078  -33.7320 H   0  0  0  0  0  0  0  0  0  0  0  0
   -0.4782   18.8961  -32.2128 H   0  0  0  0  0  0  0  0  0  0  0  0
    0.7872   20.1945  -32.1678 H   0  0  0  0  0  0  0  0  0  0  0  0
   -1.7716   21.4048  -31.8669 H   0  0  0  0  0  0  0  0  0  0  0  0
   -1.6438   20.0253  -30.7163 H   0  0  0  0  0  0  0  0  0  0  0  0
    0.6696   21.9742  -31.0472 H   0  0  0  0  0  0  0  0  0  0  0  0
   -0.7188   22.3874  -29.9902 H   0  0  0  0  0  0  0  0  0  0  0  0
   -1.9735   21.4508  -28.5762 H   0  0  0  0  0  0  0  0  0  0  0  0
   -3.9710   21.1287  -27.2150 H   0  0  0  0  0  0  0  0  0  0  0  0
   -4.2649   19.1670  -25.7362 H   0  0  0  0  0  0  0  0  0  0  0  0
   -2.4187   17.4664  -25.6666 H   0  0  0  0  0  0  0  0  0  0  0  0
   -0.3760   16.7890  -26.3880 H   0  0  0  0  0  0  0  0  0  0  0  0
    1.6693   15.9037  -26.9693 H   0  0  0  0  0  0  0  0  0  0  0  0
    3.7696   16.0523  -28.2707 H   0  0  0  0  0  0  0  0  0  0  0  0
    4.1376   17.9989  -29.7819 H   0  0  0  0  0  0  0  0  0  0  0  0
    2.3993   19.7493  -29.9517 H   0  0  0  0  0  0  0  0  0  0  0  0
  1  2  1  0
  2  3  1  0
  3  4  1  0
  4  5  1  0
  5  6  1  0
  6  7  1  0
  7  8  1  0
  8  9  1  0
  9 10  1  0
 10 11  2  0
 11 12  1  0
 12 13  2  0
 13 14  1  0
 14 15  2  0
 15 16  1  0
 16 17  2  0
 17 18  1  0
 17 19  1  0
 19 20  2  0
 20 21  1  0
 21 22  2  0
 22 23  1  0
 23 24  1  0
 24 25  1  0
 25 26  1  0
 26 27  1  0
 27 28  1  0
 28 29  1  0
 29 30  1  0
 30 31  1  0
 31 32  2  3
 32 33  1  0
 33 34  2  0
 34 35  1  0
 35 36  2  0
 36 37  1  0
 37 38  2  0
 38 39  1  0
 39 40  1  0
 40 41  2  0
 41 42  1  0
 42 43  2  0
 43 44  1  0
 44 45  2  0
 23 46  2  0
 46 10  1  0
 16 11  1  0
 46 19  1  0
 45 32  1  0
 38 33  1  0
 45 40  1  0
  1 47  1  0
  1 48  1  0
  1 49  1  0
  2 50  1  0
  2 51  1  0
  3 52  1  0
  4 53  1  0
  4 54  1  0
  5 55  1  0
  5 56  1  0
  7 57  1  0
  7 58  1  0
  8 59  1  0
  8 60  1  0
  9 61  1  0
 12 62  1  0
 13 63  1  0
 14 64  1  0
 15 65  1  0
 18 66  1  0
 18 67  1  0
 18 68  1  0
 20 69  1  0
 21 70  1  0
 22 71  1  0
 24 72  1  0
 25 73  1  0
 25 74  1  0
 26 75  1  0
 26 76  1  0
 27 77  1  0
 27 78  1  0
 28 79  1  0
 28 80  1  0
 29 81  1  0
 29 82  1  0
 30 83  1  0
 30 84  1  0
 34 85  1  0
 35 86  1  0
 36 87  1  0
 37 88  1  0
 39 89  1  0
 41 90  1  0
 42 91  1  0
 43 92  1  0
 44 93  1  0
M  CHG  1  17   1
M  END
>  <smiles>  (7) 
CCNCCOCCNc1c2ccccc2[n+](C)c2cccc(NCCCCCCN=c3c4ccccc4[nH]c4ccccc34)c12

>  <score_type>  (7) 
oracle

>  <origin>  (7) 
adg

>  <m_score__min__energy>  (7) 
-11.449999999999999

>  <m_primary>  (7) 
energy

$$$$
7:0
     RDKit          3D

 66 69  0  0  0  0  0  0  0  0999 V2000
    0.8530   18.6380  -28.1410 C   0  0  0  0  0  0  0  0  0  0  0  0
    0.7340   20.0710  -28.5730 C   0  0  0  0  0  0  0  0  0  0  0  0
   -0.5010   20.3770  -29.2570 N   0  0  0  0  0  0  0  0  0  0  0  0
   -0.8670   19.5750  -30.4160 C   0  0  0  0  0  0  0  0  0  0  0  0
   -0.3080   20.1360  -31.6890 C   0  0  0  0  0  0  0  0  0  0  0  0
   -1.0910   21.2660  -32.0280 O   0  0  0  0  0  0  0  0  0  0  0  0
   -1.5190   21.1810  -33.3490 C   0  0  0  0  0  0  0  0  0  0  0  0
   -3.0190   21.2510  -33.4450 C   0  0  0  0  0  0  0  0  0  0  0  0
   -3.6440   20.9890  -32.1470 N   0  0  0  0  0  0  0  0  0  0  0  0
   -5.0310   21.1970  -31.9150 C   0  0  0  0  0  0  0  0  0  0  0  0
   -5.9560   20.2060  -32.1650 C   0  0  0  0  0  0  0  0  0  0  0  0
   -5.4610   19.0100  -32.6560 C   0  0  0  0  0  0  0  0  0  0  0  0
   -6.3180   17.9690  -32.9390 C   0  0  0  0  0  0  0  0  0  0  0  0
   -7.6620   18.1930  -32.7060 C   0  0  0  0  0  0  0  0  0  0  0  0
   -8.1540   19.3860  -32.2160 C   0  0  0  0  0  0  0  0  0  0  0  0
   -7.2980   20.4280  -31.9330 C   0  0  0  0  0  0  0  0  0  0  0  0
   -7.7840   21.5950  -31.4590 N   0  0  0  0  0  0  0  0  0  0  0  0
   -9.1640   21.8400  -31.1980 C   0  0  0  0  0  0  0  0  0  0  0  0
   -6.8850   22.5800  -31.2080 C   0  0  0  0  0  0  0  0  0  0  0  0
   -7.2460   23.8190  -30.7300 C   0  0  0  0  0  0  0  0  0  0  0  0
   -6.3140   24.8260  -30.4820 C   0  0  0  0  0  0  0  0  0  0  0  0
   -4.9720   24.6110  -30.7100 C   0  0  0  0  0  0  0  0  0  0  0  0
   -4.5930   23.3860  -31.1870 C   0  0  0  0  0  0  0  0  0  0  0  0
   -5.5190   22.3920  -31.4310 C   0  0  0  0  0  0  0  0  0  0  0  0
   -1.3900   21.4150  -28.8790 C   0  0  0  0  0  0  0  0  0  0  0  0
   -1.0850   22.6880  -29.3330 C   0  0  0  0  0  0  0  0  0  0  0  0
   -1.8800   23.7800  -29.0380 C   0  0  0  0  0  0  0  0  0  0  0  0
   -3.0100   23.5660  -28.2620 C   0  0  0  0  0  0  0  0  0  0  0  0
   -3.2710   22.2820  -27.8340 C   0  0  0  0  0  0  0  0  0  0  0  0
   -2.4880   21.2280  -28.1280 N   0  0  0  0  0  0  0  0  0  0  0  0
   -2.8380   19.9320  -27.6370 C   0  0  0  0  0  0  0  0  0  0  0  0
   -2.0400   19.6710  -26.3690 C   0  0  0  0  0  0  0  0  0  0  0  0
    0.8574   18.5854  -27.0423 H   0  0  0  0  0  0  0  0  0  0  0  0
   -0.0007   18.0650  -28.5321 H   0  0  0  0  0  0  0  0  0  0  0  0
    1.7895   18.2137  -28.5321 H   0  0  0  0  0  0  0  0  0  0  0  0
    0.8018   20.7086  -27.6792 H   0  0  0  0  0  0  0  0  0  0  0  0
    1.5488   20.2569  -29.2882 H   0  0  0  0  0  0  0  0  0  0  0  0
   -0.4799   18.5547  -30.2779 H   0  0  0  0  0  0  0  0  0  0  0  0
   -1.9640   19.5780  -30.4973 H   0  0  0  0  0  0  0  0  0  0  0  0
    0.7403   20.4346  -31.5409 H   0  0  0  0  0  0  0  0  0  0  0  0
   -0.3373   19.3854  -32.4925 H   0  0  0  0  0  0  0  0  0  0  0  0
   -1.0844   22.0144  -33.9205 H   0  0  0  0  0  0  0  0  0  0  0  0
   -1.1904   20.2143  -33.7582 H   0  0  0  0  0  0  0  0  0  0  0  0
   -3.3104   22.2548  -33.7878 H   0  0  0  0  0  0  0  0  0  0  0  0
   -3.3592   20.4848  -34.1572 H   0  0  0  0  0  0  0  0  0  0  0  0
   -3.0610   20.6420  -31.3800 H   0  0  0  0  0  0  0  0  0  0  0  0
   -4.3800   18.8904  -32.8207 H   0  0  0  0  0  0  0  0  0  0  0  0
   -5.9514   17.0086  -33.3304 H   0  0  0  0  0  0  0  0  0  0  0  0
   -8.3733   17.3820  -32.9213 H   0  0  0  0  0  0  0  0  0  0  0  0
   -9.2349   19.5054  -32.0506 H   0  0  0  0  0  0  0  0  0  0  0  0
   -9.3320   21.8698  -30.1113 H   0  0  0  0  0  0  0  0  0  0  0  0
   -9.4554   22.8039  -31.6407 H   0  0  0  0  0  0  0  0  0  0  0  0
   -9.7694   21.0353  -31.6407 H   0  0  0  0  0  0  0  0  0  0  0  0
   -8.3095   24.0225  -30.5363 H   0  0  0  0  0  0  0  0  0  0  0  0
   -6.6529   25.8007  -30.1010 H   0  0  0  0  0  0  0  0  0  0  0  0
   -4.2296   25.3988  -30.5148 H   0  0  0  0  0  0  0  0  0  0  0  0
   -3.5281   23.1892  -31.3801 H   0  0  0  0  0  0  0  0  0  0  0  0
   -0.1836   22.8342  -29.9463 H   0  0  0  0  0  0  0  0  0  0  0  0
   -1.6252   24.7847  -29.4062 H   0  0  0  0  0  0  0  0  0  0  0  0
   -3.6789   24.3977  -27.9958 H   0  0  0  0  0  0  0  0  0  0  0  0
   -4.1670   22.1099  -27.2195 H   0  0  0  0  0  0  0  0  0  0  0  0
   -3.9144   19.8972  -27.4130 H   0  0  0  0  0  0  0  0  0  0  0  0
   -2.6104   19.1659  -28.3928 H   0  0  0  0  0  0  0  0  0  0  0  0
   -2.6695   19.8769  -25.4907 H   0  0  0  0  0  0  0  0  0  0  0  0
   -1.7159   18.6200  -26.3496 H   0  0  0  0  0  0  0  0  0  0  0  0
   -1.1575   20.3273  -26.3496 H   0  0  0  0  0  0  0  0  0  0  0  0
  1  2  1  0
  2  3  1  0
  3  4  1  0
  4  5  1  0
  5  6  1  0
  6  7  1  0
  7  8  1  0
  8  9  1  0
  9 10  1  0
 10 11  1  0
 11 12  2  0
 12 13  1  0
 13 14  2  0
 14 15  1  0
 15 16  2  0
 16 17  1  0
 17 18  1  0
 17 19  2  0
 19 20  1  0
 20 21  2  0
 21 22  1  0
 22 23  2  0
 23 24  1  0
  3 25  1  0
 25 26  2  0
 26 27  1  0
 27 28  2  0
 28 29  1  0
 29 30  2  0
 30 31  1  0
 31 32  1  0
 24 10  2  0
 30 25  1  0
 16 11  1  0
 24 19  1  0
  1 33  1  0
  1 34  1  0
  1 35  1  0
  2 36  1  0
  2 37  1  0
  4 38  1  0
  4 39  1  0
  5 40  1  0
  5 41  1  0
  7 42  1  0
  7 43  1  0
  8 44  1  0
  8 45  1  0
  9 46  1  0
 12 47  1  0
 13 48  1  0
 14 49  1  0
 15 50  1  0
 18 51  1  0
 18 52  1  0
 18 53  1  0
 20 54  1  0
 21 55  1  0
 22 56  1  0
 23 57  1  0
 26 58  1  0
 27 59  1  0
 28 60  1  0
 29 61  1  0
 31 62  1  0
 31 63  1  0
 32 64  1  0
 32 65  1  0
 32 66  1  0
M  CHG  2  17   1  30   1
M  END
>  <smiles>  (8) 
CCN(CCOCCNc1c2ccccc2[n+](C)c2ccccc12)c1cccc[n+]1CC

>  <score_type>  (8) 
oracle

>  <origin>  (8) 
adg

>  <m_score__min__energy>  (8) 
-8.7400000000000002

>  <m_primary>  (8) 
energy

$$$$
8:0
     RDKit          3D

 45 47  0  0  1  0  0  0  0  0999 V2000
   -0.6220   27.4290  -26.3860 C   0  0  0  0  0  0  0  0  0  0  0  0
   -1.5540   26.4710  -25.7050 C   0  0  0  0  0  0  0  0  0  0  0  0
   -1.8640   25.3940  -26.5950 N   0  0  0  0  0  0  0  0  0  0  0  0
   -3.2000   24.9150  -26.4750 C   0  0  0  0  0  0  0  0  0  0  0  0
   -1.4170   25.6440  -27.9200 C   0  0  0  0  0  0  0  0  0  0  0  0
   -1.9300   24.6590  -28.9390 C   0  0  0  0  0  0  0  0  0  0  0  0
   -3.0110   25.2070  -29.6230 O   0  0  0  0  0  0  0  0  0  0  0  0
   -4.1210   24.4770  -30.0460 C   0  0  0  0  0  0  0  0  0  0  0  0
   -5.3770   24.8970  -29.6560 C   0  0  0  0  0  0  0  0  0  0  0  0
   -6.4770   24.1750  -30.0730 C   0  0  0  0  0  0  0  0  0  0  0  0
   -6.3040   23.0570  -30.8660 C   0  0  0  0  0  0  0  0  0  0  0  0
   -5.0400   22.6550  -31.2440 C   0  0  0  0  0  0  0  0  0  0  0  0
   -3.9070   23.3660  -30.8360 C   0  0  0  0  0  0  0  0  0  0  0  0
   -5.1310   21.4210  -32.0960 C   0  0  1  0  0  0  0  0  0  0  0  0
   -4.5570   21.7670  -33.3090 O   0  0  0  0  0  0  0  0  0  0  0  0
   -4.3600   20.3090  -31.4240 C   0  0  0  0  0  0  0  0  0  0  0  0
   -3.9000   20.6640  -30.1860 F   0  0  0  0  0  0  0  0  0  0  0  0
   -5.1100   19.1560  -31.4420 F   0  0  0  0  0  0  0  0  0  0  0  0
   -3.2420   20.0670  -32.2040 F   0  0  0  0  0  0  0  0  0  0  0  0
   -6.5800   21.1830  -32.1490 C   0  0  0  0  0  0  0  0  0  0  0  0
   -7.3100   20.1950  -32.7800 C   0  0  0  0  0  0  0  0  0  0  0  0
   -8.7010   20.1440  -32.7090 C   0  0  0  0  0  0  0  0  0  0  0  0
   -9.3870   21.1030  -31.9870 C   0  0  0  0  0  0  0  0  0  0  0  0
   -8.6720   22.1070  -31.3430 C   0  0  0  0  0  0  0  0  0  0  0  0
   -7.2810   22.1320  -31.4340 C   0  0  0  0  0  0  0  0  0  0  0  0
   -0.0659   28.0006  -25.6284 H   0  0  0  0  0  0  0  0  0  0  0  0
    0.0854   26.8681  -27.0145 H   0  0  0  0  0  0  0  0  0  0  0  0
   -1.2021   28.1207  -27.0145 H   0  0  0  0  0  0  0  0  0  0  0  0
   -1.0728   26.0719  -24.7999 H   0  0  0  0  0  0  0  0  0  0  0  0
   -2.4801   26.9952  -25.4267 H   0  0  0  0  0  0  0  0  0  0  0  0
   -3.4617   24.8212  -25.4107 H   0  0  0  0  0  0  0  0  0  0  0  0
   -3.8882   25.6224  -26.9608 H   0  0  0  0  0  0  0  0  0  0  0  0
   -3.2819   23.9315  -26.9608 H   0  0  0  0  0  0  0  0  0  0  0  0
   -1.7514   26.6501  -28.2133 H   0  0  0  0  0  0  0  0  0  0  0  0
   -0.3214   25.5468  -27.9086 H   0  0  0  0  0  0  0  0  0  0  0  0
   -1.1280   24.4221  -29.6536 H   0  0  0  0  0  0  0  0  0  0  0  0
   -2.2529   23.7412  -28.4259 H   0  0  0  0  0  0  0  0  0  0  0  0
   -5.4987   25.7898  -29.0251 H   0  0  0  0  0  0  0  0  0  0  0  0
   -7.4883   24.4888  -29.7749 H   0  0  0  0  0  0  0  0  0  0  0  0
   -2.8940   23.0546  -31.1306 H   0  0  0  0  0  0  0  0  0  0  0  0
   -4.9880   22.5310  -33.7650 H   0  0  0  0  0  0  0  0  0  0  0  0
   -6.7771   19.4245  -33.3565 H   0  0  0  0  0  0  0  0  0  0  0  0
   -9.2511   19.3436  -33.2255 H   0  0  0  0  0  0  0  0  0  0  0  0
  -10.4847   21.0722  -31.9228 H   0  0  0  0  0  0  0  0  0  0  0  0
   -9.2016   22.8781  -30.7643 H   0  0  0  0  0  0  0  0  0  0  0  0
  1  2  1  0
  2  3  1  0
  3  4  1  0
  3  5  1  0
  5  6  1  0
  6  7  1  0
  7  8  1  0
  8  9  2  0
  9 10  1  0
 10 11  2  0
 11 12  1  0
 12 13  2  0
 12 14  1  0
 14 15  1  6
 14 16  1  0
 16 17  1  0
 16 18  1  0
 16 19  1  0
 14 20  1  0
 20 21  2  0
 21 22  1  0
 22 23  2  0
 23 24  1  0
 24 25  2  0
 13  8  1  0
 25 20  1  0
 25 11  1  0
  1 26  1  0
  1 27  1  0
  1 28  1  0
  2 29  1  0
  2 30  1  0
  4 31  1  0
  4 32  1  0
  4 33  1  0
  5 34  1  0
  5 35  1  0
  6 36  1  0
  6 37  1  0
  9 38  1  0
 10 39  1  0
 13 40  1  0
 15 41  1  0
 21 42  1  0
 22 43  1  0
 23 44  1  0
 24 45  1  0
M  END
>  <smiles>  (9) 
CCN(C)CCOc1ccc2c(c1)C(O)(C(F)(F)F)c1ccccc1-2

>  <score_type>  (9) 
oracle

>  <origin>  (9) 
adg

>  <m_score__min__energy>  (9) 
-8.1300000000000008

>  <m_primary>  (9) 
energy

$$$$
9:0
     RDKit          3D

 72 75  0  0  0  0  0  0  0  0999 V2000
   -3.9430   23.5960  -28.3350 C   0  0  0  0  0  0  0  0  0  0  0  0
   -3.4220   24.5380  -29.3810 C   0  0  0  0  0  0  0  0  0  0  0  0
   -4.2390   24.5400  -30.5840 N   0  0  0  0  0  0  0  0  0  0  0  0
   -5.1830   25.6010  -30.4560 C   0  0  0  0  0  0  0  0  0  0  0  0
   -6.4530   25.2740  -29.7510 C   0  0  0  0  0  0  0  0  0  0  0  0
   -4.8420   23.2700  -30.7870 C   0  0  0  0  0  0  0  0  0  0  0  0
   -5.5420   23.1840  -32.1810 C   0  0  0  0  0  0  0  0  0  0  0  0
   -5.1160   22.0290  -32.8960 N   0  0  0  0  0  0  0  0  0  0  0  0
   -5.3610   20.6680  -32.8400 C   0  0  0  0  0  0  0  0  0  0  0  0
   -6.5830   20.0930  -32.5690 C   0  0  0  0  0  0  0  0  0  0  0  0
   -7.6690   20.8320  -32.1570 C   0  0  0  0  0  0  0  0  0  0  0  0
   -8.9000   20.3300  -31.8610 C   0  0  0  0  0  0  0  0  0  0  0  0
   -9.1100   18.9880  -31.9680 C   0  0  0  0  0  0  0  0  0  0  0  0
   -8.0480   18.1740  -32.3810 C   0  0  0  0  0  0  0  0  0  0  0  0
   -6.8100   18.7170  -32.6750 C   0  0  0  0  0  0  0  0  0  0  0  0
   -5.8240   17.8960  -33.0510 N   0  0  0  0  0  0  0  0  0  0  0  0
   -5.9520   16.4800  -33.2110 C   0  0  0  0  0  0  0  0  0  0  0  0
   -4.5850   18.4170  -33.3220 C   0  0  0  0  0  0  0  0  0  0  0  0
   -3.5760   17.5470  -33.6740 C   0  0  0  0  0  0  0  0  0  0  0  0
   -2.2770   17.9590  -33.9300 C   0  0  0  0  0  0  0  0  0  0  0  0
   -2.0340   19.3070  -33.8090 C   0  0  0  0  0  0  0  0  0  0  0  0
   -3.0640   20.1950  -33.4490 C   0  0  0  0  0  0  0  0  0  0  0  0
   -2.5560   21.4590  -32.9850 N   0  0  0  0  0  0  0  0  0  0  0  0
   -1.3410   21.5280  -32.1640 C   0  0  0  0  0  0  0  0  0  0  0  0
   -1.6340   21.9680  -30.7520 C   0  0  0  0  0  0  0  0  0  0  0  0
   -2.3030   20.8350  -30.0090 C   0  0  0  0  0  0  0  0  0  0  0  0
   -1.8360   20.7720  -28.6360 N   0  0  0  0  0  0  0  0  0  0  0  0
   -2.9450   20.3800  -27.7950 C   0  0  0  0  0  0  0  0  0  0  0  0
   -2.4130   19.5430  -26.6750 C   0  0  0  0  0  0  0  0  0  0  0  0
   -1.0590   19.0990  -27.1530 C   0  0  0  0  0  0  0  0  0  0  0  0
   -0.9180   19.6270  -28.5650 C   0  0  0  0  0  0  0  0  0  0  0  0
   -4.3510   19.7750  -33.2150 C   0  0  0  0  0  0  0  0  0  0  0  0
   -3.7205   23.9983  -27.3357 H   0  0  0  0  0  0  0  0  0  0  0  0
   -5.0311   23.4844  -28.4514 H   0  0  0  0  0  0  0  0  0  0  0  0
   -3.4592   22.6150  -28.4514 H   0  0  0  0  0  0  0  0  0  0  0  0
   -3.4063   25.5555  -28.9633 H   0  0  0  0  0  0  0  0  0  0  0  0
   -2.4133   24.2011  -29.6621 H   0  0  0  0  0  0  0  0  0  0  0  0
   -4.6952   26.4187  -29.9052 H   0  0  0  0  0  0  0  0  0  0  0  0
   -5.4767   25.8572  -31.4846 H   0  0  0  0  0  0  0  0  0  0  0  0
   -6.2902   25.3159  -28.6639 H   0  0  0  0  0  0  0  0  0  0  0  0
   -7.2275   26.0020  -30.0341 H   0  0  0  0  0  0  0  0  0  0  0  0
   -6.7796   24.2625  -30.0341 H   0  0  0  0  0  0  0  0  0  0  0  0
   -4.0660   22.4925  -30.7283 H   0  0  0  0  0  0  0  0  0  0  0  0
   -5.6048   23.1221  -30.0084 H   0  0  0  0  0  0  0  0  0  0  0  0
   -6.6310   23.1347  -32.0341 H   0  0  0  0  0  0  0  0  0  0  0  0
   -5.2716   24.0765  -32.7643 H   0  0  0  0  0  0  0  0  0  0  0  0
   -4.5900   22.3370  -33.8260 H   0  0  0  0  0  0  0  0  0  0  0  0
   -7.5310   21.9189  -32.0586 H   0  0  0  0  0  0  0  0  0  0  0  0
   -9.7128   20.9982  -31.5402 H   0  0  0  0  0  0  0  0  0  0  0  0
  -10.0931   18.5531  -31.7349 H   0  0  0  0  0  0  0  0  0  0  0  0
   -8.2002   17.0885  -32.4729 H   0  0  0  0  0  0  0  0  0  0  0  0
   -5.9952   16.0016  -32.2214 H   0  0  0  0  0  0  0  0  0  0  0  0
   -6.8741   16.2557  -33.7673 H   0  0  0  0  0  0  0  0  0  0  0  0
   -5.0851   16.0940  -33.7673 H   0  0  0  0  0  0  0  0  0  0  0  0
   -3.8121   16.4757  -33.7557 H   0  0  0  0  0  0  0  0  0  0  0  0
   -1.4865   17.2485  -34.2135 H   0  0  0  0  0  0  0  0  0  0  0  0
   -1.0221   19.6957  -33.9959 H   0  0  0  0  0  0  0  0  0  0  0  0
   -3.0420   22.3720  -33.0890 H   0  0  0  0  0  0  0  0  0  0  0  0
   -0.8753   20.5319  -32.1355 H   0  0  0  0  0  0  0  0  0  0  0  0
   -0.6681   22.2708  -32.6172 H   0  0  0  0  0  0  0  0  0  0  0  0
   -0.6940   22.2352  -30.2470 H   0  0  0  0  0  0  0  0  0  0  0  0
   -2.2989   22.8442  -30.7676 H   0  0  0  0  0  0  0  0  0  0  0  0
   -3.3914   20.9943  -30.0127 H   0  0  0  0  0  0  0  0  0  0  0  0
   -2.0528   19.8884  -30.5103 H   0  0  0  0  0  0  0  0  0  0  0  0
   -3.4380   21.2754  -27.3884 H   0  0  0  0  0  0  0  0  0  0  0  0
   -3.6799   19.8073  -28.3798 H   0  0  0  0  0  0  0  0  0  0  0  0
   -2.3253   20.1363  -25.7529 H   0  0  0  0  0  0  0  0  0  0  0  0
   -3.0720   18.6958  -26.4341 H   0  0  0  0  0  0  0  0  0  0  0  0
   -0.2710   19.5164  -26.5089 H   0  0  0  0  0  0  0  0  0  0  0  0
   -0.9612   18.0038  -27.1220 H   0  0  0  0  0  0  0  0  0  0  0  0
    0.1165   19.9484  -28.7561 H   0  0  0  0  0  0  0  0  0  0  0  0
   -1.1539   18.8608  -29.3182 H   0  0  0  0  0  0  0  0  0  0  0  0
  1  2  1  0
  2  3  1  0
  3  4  1  0
  4  5  1  0
  3  6  1  0
  6  7  1  0
  7  8  1  0
  8  9  1  0
  9 10  2  0
 10 11  1  0
 11 12  2  0
 12 13  1  0
 13 14  2  0
 14 15  1  0
 15 16  2  0
 16 17  1  0
 16 18  1  0
 18 19  2  0
 19 20  1  0
 20 21  2  0
 21 22  1  0
 22 23  1  0
 23 24  1  0
 24 25  1  0
 25 26  1  0
 26 27  1  0
 27 28  1  0
 28 29  1  0
 29 30  1  0
 30 31  1  0
 22 32  2  0
 32  9  1  0
 15 10  1  0
 32 18  1  0
 31 27  1  0
  1 33  1  0
  1 34  1  0
  1 35  1  0
  2 36  1  0
  2 37  1  0
  4 38  1  0
  4 39  1  0
  5 40  1  0
  5 41  1  0
  5 42  1  0
  6 43  1  0
  6 44  1  0
  7 45  1  0
  7 46  1  0
  8 47  1  0
 11 48  1  0
 12 49  1  0
 13 50  1  0
 14 51  1  0
 17 52  1  0
 17 53  1  0
 17 54  1  0
 19 55  1  0
 20 56  1  0
 21 57  1  0
 23 58  1  0
 24 59  1  0
 24 60  1  0
 25 61  1  0
 25 62  1  0
 26 63  1  0
 26 64  1  0
 28 65  1  0
 28 66  1  0
 29 67  1  0
 29 68  1  0
 30 69  1  0
 30 70  1  0
 31 71  1  0
 31 72  1  0
M  CHG  1  16   1
M  END
>  <smiles>  (10) 
CCN(CC)CCNc1c2ccccc2[n+](C)c2cccc(NCCCN3CCCC3)c12

>  <score_type>  (10) 
oracle

>  <origin>  (10) 
adg

>  <m_score__min__energy>  (10) 
-9.8399999999999999

>  <m_primary>  (10) 
energy

$$$$
10:0
     RDKit          3D

 34 35  0  0  0  0  0  0  0  0999 V2000
   -6.1290   19.1080  -33.0430 C   0  0  0  0  0  0  0  0  0  0  0  0
   -7.4150   19.7040  -32.6940 N   0  0  0  0  0  0  0  0  0  0  0  0
   -8.5640   19.0720  -32.6700 N   0  0  0  0  0  0  0  0  0  0  0  0
   -9.4940   19.9450  -32.3090 N   0  0  0  0  0  0  0  0  0  0  0  0
   -8.9430   21.1160  -32.1070 N   0  0  0  0  0  0  0  0  0  0  0  0
   -7.6290   20.9930  -32.3430 C   0  0  0  0  0  0  0  0  0  0  0  0
   -6.3210   22.1940  -32.2490 S   0  0  0  0  0  0  0  0  0  0  0  0
   -7.0340   23.7850  -31.6690 C   0  0  0  0  0  0  0  0  0  0  0  0
   -6.7950   23.9090  -30.1870 C   0  0  0  0  0  0  0  0  0  0  0  0
   -6.2210   25.2630  -29.8040 C   0  0  0  0  0  0  0  0  0  0  0  0
   -5.1720   25.6770  -30.7860 C   0  0  0  0  0  0  0  0  0  0  0  0
   -3.8940   25.2560  -30.4710 O   0  0  0  0  0  0  0  0  0  0  0  0
   -3.4410   24.1390  -29.8770 C   0  0  0  0  0  0  0  0  0  0  0  0
   -3.3650   24.1450  -28.4760 C   0  0  0  0  0  0  0  0  0  0  0  0
   -2.9230   23.0680  -27.7500 C   0  0  0  0  0  0  0  0  0  0  0  0
   -2.5320   21.9200  -28.3980 C   0  0  0  0  0  0  0  0  0  0  0  0
   -1.9280   20.4600  -27.3320 Br  0  0  0  0  0  0  0  0  0  0  0  0
   -2.5940   21.8810  -29.7640 C   0  0  0  0  0  0  0  0  0  0  0  0
   -3.0420   22.9710  -30.4920 C   0  0  0  0  0  0  0  0  0  0  0  0
   -5.5810   18.8540  -32.1236 H   0  0  0  0  0  0  0  0  0  0  0  0
   -6.2961   18.1955  -33.6342 H   0  0  0  0  0  0  0  0  0  0  0  0
   -5.5408   19.8253  -33.6342 H   0  0  0  0  0  0  0  0  0  0  0  0
   -6.5487   24.6213  -32.1935 H   0  0  0  0  0  0  0  0  0  0  0  0
   -8.1136   23.8105  -31.8782 H   0  0  0  0  0  0  0  0  0  0  0  0
   -7.7515   23.7695  -29.6620 H   0  0  0  0  0  0  0  0  0  0  0  0
   -6.0620   23.1407  -29.9001 H   0  0  0  0  0  0  0  0  0  0  0  0
   -7.0277   26.0108  -29.7976 H   0  0  0  0  0  0  0  0  0  0  0  0
   -5.7675   25.1903  -28.8045 H   0  0  0  0  0  0  0  0  0  0  0  0
   -5.4382   25.2611  -31.7689 H   0  0  0  0  0  0  0  0  0  0  0  0
   -5.1505   26.7767  -30.7758 H   0  0  0  0  0  0  0  0  0  0  0  0
   -3.6732   25.0526  -27.9363 H   0  0  0  0  0  0  0  0  0  0  0  0
   -2.8815   23.1228  -26.6521 H   0  0  0  0  0  0  0  0  0  0  0  0
   -2.2828   20.9684  -30.2934 H   0  0  0  0  0  0  0  0  0  0  0  0
   -3.0805   22.9031  -31.5892 H   0  0  0  0  0  0  0  0  0  0  0  0
  1  2  1  0
  2  3  1  0
  3  4  2  0
  4  5  1  0
  5  6  2  0
  6  7  1  0
  7  8  1  0
  8  9  1  0
  9 10  1  0
 10 11  1  0
 11 12  1  0
 12 13  1  0
 13 14  2  0
 14 15  1  0
 15 16  2  0
 16 17  1  0
 16 18  1  0
 18 19  2  0
  6  2  1  0
 19 13  1  0
  1 20  1  0
  1 21  1  0
  1 22  1  0
  8 23  1  0
  8 24  1  0
  9 25  1  0
  9 26  1  0
 10 27  1  0
 10 28  1  0
 11 29  1  0
 11 30  1  0
 14 31  1  0
 15 32  1  0
 18 33  1  0
 19 34  1  0
M  END
>  <smiles>  (11) 
Cn1nnnc1SCCCCOc1ccc(Br)cc1

>  <score_type>  (11) 
oracle

>  <origin>  (11) 
adg

>  <m_score__min__energy>  (11) 
-7.96

>  <m_primary>  (11) 
energy

$$$$
11:0
     RDKit          3D

 57 58  0  0  0  0  0  0  0  0999 V2000
   -4.2450   20.3390  -31.3240 C   0  0  0  0  0  0  0  0  0  0  0  0
   -4.3470   21.5150  -32.2360 C   0  0  0  0  0  0  0  0  0  0  0  0
   -3.4100   22.6010  -31.8980 N   0  0  0  0  0  0  0  0  0  0  0  0
   -2.0880   21.9030  -31.9280 C   0  0  0  0  0  0  0  0  0  0  0  0
   -1.3520   22.0400  -30.6460 C   0  0  0  0  0  0  0  0  0  0  0  0
   -1.6740   23.1180  -29.9190 O   0  0  0  0  0  0  0  0  0  0  0  0
   -1.3490   23.3600  -28.6500 C   0  0  0  0  0  0  0  0  0  0  0  0
   -2.3880   23.3340  -27.5910 C   0  0  0  0  0  0  0  0  0  0  0  0
   -3.3190   24.5430  -27.7870 C   0  0  0  0  0  0  0  0  0  0  0  0
   -4.2520   24.3070  -29.3020 S   0  0  0  0  0  0  0  0  0  0  0  0
   -3.5300   24.9110  -30.4610 O   0  0  0  0  0  0  0  0  0  0  0  0
   -4.4880   22.8390  -29.4680 O   0  0  0  0  0  0  0  0  0  0  0  0
   -5.8350   25.1040  -29.1740 C   0  0  0  0  0  0  0  0  0  0  0  0
   -6.6980   24.8760  -30.3620 C   0  0  0  0  0  0  0  0  0  0  0  0
   -6.3620   23.7910  -31.2160 N   0  0  0  0  0  0  0  0  0  0  0  0
   -7.0690   22.5560  -30.9270 C   0  0  0  0  0  0  0  0  0  0  0  0
   -7.7940   22.0390  -32.1460 C   0  0  0  0  0  0  0  0  0  0  0  0
   -7.8620   20.5680  -32.1260 C   0  0  0  0  0  0  0  0  0  0  0  0
   -8.7200   19.8810  -31.2550 C   0  0  0  0  0  0  0  0  0  0  0  0
   -8.5880   18.5610  -31.4180 N   0  0  0  0  0  0  0  0  0  0  0  0
   -7.6680   18.3710  -32.3750 C   0  0  0  0  0  0  0  0  0  0  0  0
   -7.2010   17.1820  -32.8950 C   0  0  0  0  0  0  0  0  0  0  0  0
   -6.2420   17.2830  -33.8930 C   0  0  0  0  0  0  0  0  0  0  0  0
   -5.7780   18.5050  -34.3460 C   0  0  0  0  0  0  0  0  0  0  0  0
   -6.2470   19.6960  -33.8250 C   0  0  0  0  0  0  0  0  0  0  0  0
   -7.1970   19.6030  -32.8350 C   0  0  0  0  0  0  0  0  0  0  0  0
   -4.2747   20.6816  -30.2791 H   0  0  0  0  0  0  0  0  0  0  0  0
   -5.0873   19.6565  -31.5102 H   0  0  0  0  0  0  0  0  0  0  0  0
   -3.2977   19.8117  -31.5102 H   0  0  0  0  0  0  0  0  0  0  0  0
   -4.1364   21.1796  -33.2622 H   0  0  0  0  0  0  0  0  0  0  0  0
   -5.3645   21.9198  -32.1313 H   0  0  0  0  0  0  0  0  0  0  0  0
   -3.6130   22.9140  -30.9020 H   0  0  0  0  0  0  0  0  0  0  0  0
   -2.2561   20.8344  -32.1274 H   0  0  0  0  0  0  0  0  0  0  0  0
   -1.4792   22.3669  -32.7180 H   0  0  0  0  0  0  0  0  0  0  0  0
   -1.5559   21.1459  -30.0386 H   0  0  0  0  0  0  0  0  0  0  0  0
   -0.2910   22.1555  -30.9124 H   0  0  0  0  0  0  0  0  0  0  0  0
   -0.5934   22.6114  -28.3694 H   0  0  0  0  0  0  0  0  0  0  0  0
   -1.0402   24.4156  -28.6694 H   0  0  0  0  0  0  0  0  0  0  0  0
   -2.9691   22.4030  -27.6648 H   0  0  0  0  0  0  0  0  0  0  0  0
   -1.9148   23.3810  -26.5991 H   0  0  0  0  0  0  0  0  0  0  0  0
   -4.0099   24.6208  -26.9346 H   0  0  0  0  0  0  0  0  0  0  0  0
   -2.7263   25.4675  -27.8506 H   0  0  0  0  0  0  0  0  0  0  0  0
   -6.3526   24.7146  -28.2849 H   0  0  0  0  0  0  0  0  0  0  0  0
   -5.6533   26.1865  -29.1024 H   0  0  0  0  0  0  0  0  0  0  0  0
   -7.7218   24.7046  -29.9980 H   0  0  0  0  0  0  0  0  0  0  0  0
   -6.5649   25.7742  -30.9829 H   0  0  0  0  0  0  0  0  0  0  0  0
   -5.3650   23.5670  -31.3190 H   0  0  0  0  0  0  0  0  0  0  0  0
   -6.3446   21.7985  -30.5932 H   0  0  0  0  0  0  0  0  0  0  0  0
   -7.8121   22.7578  -30.1415 H   0  0  0  0  0  0  0  0  0  0  0  0
   -8.8152   22.4476  -32.1591 H   0  0  0  0  0  0  0  0  0  0  0  0
   -7.2448   22.3556  -33.0450 H   0  0  0  0  0  0  0  0  0  0  0  0
   -9.4043   20.3603  -30.5395 H   0  0  0  0  0  0  0  0  0  0  0  0
   -9.1120   17.8180  -30.8940 H   0  0  0  0  0  0  0  0  0  0  0  0
   -7.5681   16.2082  -32.5386 H   0  0  0  0  0  0  0  0  0  0  0  0
   -5.8378   16.3619  -34.3381 H   0  0  0  0  0  0  0  0  0  0  0  0
   -5.0173   18.5293  -35.1402 H   0  0  0  0  0  0  0  0  0  0  0  0
   -5.8792   20.6686  -34.1838 H   0  0  0  0  0  0  0  0  0  0  0  0
  1  2  1  0
  2  3  1  0
  3  4  1  0
  4  5  1  0
  5  6  1  0
  6  7  1  0
  7  8  1  0
  8  9  1  0
  9 10  1  0
 10 11  2  0
 10 12  2  0
 10 13  1  0
 13 14  1  0
 14 15  1  0
 15 16  1  0
 16 17  1  0
 17 18  1  0
 18 19  2  0
 19 20  1  0
 20 21  1  0
 21 22  2  0
 22 23  1  0
 23 24  2  0
 24 25  1  0
 25 26  2  0
 26 18  1  0
 26 21  1  0
  1 27  1  0
  1 28  1  0
  1 29  1  0
  2 30  1  0
  2 31  1  0
  3 32  1  0
  4 33  1  0
  4 34  1  0
  5 35  1  0
  5 36  1  0
  7 37  1  0
  7 38  1  0
  8 39  1  0
  8 40  1  0
  9 41  1  0
  9 42  1  0
 13 43  1  0
 13 44  1  0
 14 45  1  0
 14 46  1  0
 15 47  1  0
 16 48  1  0
 16 49  1  0
 17 50  1  0
 17 51  1  0
 19 52  1  0
 20 53  1  0
 22 54  1  0
 23 55  1  0
 24 56  1  0
 25 57  1  0
M  END
>  <smiles>  (12) 
CCNCCOCCCS(=O)(=O)CCNCCc1c[nH]c2ccccc12

>  <score_type>  (12) 
oracle

>  <origin>  (12) 
adg

>  <m_score__min__energy>  (12) 
-8.0099999999999998

>  <m_primary>  (12) 
energy

$$$$
12:0
     RDKit          3D

 69 72  0  0  0  0  0  0  0  0999 V2000
   -0.8460   19.7190  -30.7180 C   0  0  0  0  0  0  0  0  0  0  0  0
   -0.5640   21.0260  -31.4400 C   0  0  0  0  0  0  0  0  0  0  0  0
   -0.9170   20.8740  -32.8130 N   0  0  0  0  0  0  0  0  0  0  0  0
    0.1820   20.7260  -33.7000 C   0  0  0  0  0  0  0  0  0  0  0  0
   -2.0920   21.4900  -33.2660 C   0  0  0  0  0  0  0  0  0  0  0  0
   -3.2880   21.5460  -32.3950 C   0  0  0  0  0  0  0  0  0  0  0  0
   -4.5200   21.5920  -33.2020 N   0  0  0  0  0  0  0  0  0  0  0  0
   -5.6380   20.8040  -32.8300 C   0  0  0  0  0  0  0  0  0  0  0  0
   -5.5630   19.4610  -33.2010 C   0  0  0  0  0  0  0  0  0  0  0  0
   -4.4320   19.0090  -33.8620 C   0  0  0  0  0  0  0  0  0  0  0  0
   -4.2560   17.7050  -34.2730 C   0  0  0  0  0  0  0  0  0  0  0  0
   -5.2630   16.8200  -34.0080 C   0  0  0  0  0  0  0  0  0  0  0  0
   -6.4080   17.2530  -33.3450 C   0  0  0  0  0  0  0  0  0  0  0  0
   -6.5750   18.5620  -32.9370 C   0  0  0  0  0  0  0  0  0  0  0  0
   -7.6590   18.9880  -32.3060 N   0  0  0  0  0  0  0  0  0  0  0  0
   -8.7460   18.1180  -31.9920 C   0  0  0  0  0  0  0  0  0  0  0  0
   -7.7730   20.2890  -31.9250 C   0  0  0  0  0  0  0  0  0  0  0  0
   -8.9270   20.6750  -31.2730 C   0  0  0  0  0  0  0  0  0  0  0  0
   -9.0550   21.9690  -30.8880 C   0  0  0  0  0  0  0  0  0  0  0  0
   -8.0490   22.8720  -31.1440 C   0  0  0  0  0  0  0  0  0  0  0  0
   -6.8680   22.5270  -31.7980 C   0  0  0  0  0  0  0  0  0  0  0  0
   -5.9040   23.5330  -31.9590 N   0  0  0  0  0  0  0  0  0  0  0  0
   -6.0760   24.8420  -31.2840 C   0  0  0  0  0  0  0  0  0  0  0  0
   -5.1480   24.9490  -30.1020 C   0  0  0  0  0  0  0  0  0  0  0  0
   -3.8680   24.2050  -30.3680 C   0  0  0  0  0  0  0  0  0  0  0  0
   -2.9040   24.4340  -29.3340 N   0  0  0  0  0  0  0  0  0  0  0  0
   -1.8920   23.3710  -29.3730 C   0  0  0  0  0  0  0  0  0  0  0  0
   -2.6940   22.1520  -28.9850 C   0  0  0  0  0  0  0  0  0  0  0  0
   -3.7030   22.7090  -28.0110 C   0  0  0  0  0  0  0  0  0  0  0  0
   -3.4430   24.2060  -27.9850 C   0  0  0  0  0  0  0  0  0  0  0  0
   -6.7550   21.2160  -32.1840 C   0  0  0  0  0  0  0  0  0  0  0  0
   -0.8101   19.8853  -29.6312 H   0  0  0  0  0  0  0  0  0  0  0  0
   -1.8440   19.3522  -31.0001 H   0  0  0  0  0  0  0  0  0  0  0  0
   -0.0881   18.9734  -31.0001 H   0  0  0  0  0  0  0  0  0  0  0  0
   -1.1613   21.8334  -30.9912 H   0  0  0  0  0  0  0  0  0  0  0  0
    0.5026   21.2803  -31.3527 H   0  0  0  0  0  0  0  0  0  0  0  0
    1.1078   20.6013  -33.1192 H   0  0  0  0  0  0  0  0  0  0  0  0
    0.0249   19.8409  -34.3340 H   0  0  0  0  0  0  0  0  0  0  0  0
    0.2646   21.6211  -34.3340 H   0  0  0  0  0  0  0  0  0  0  0  0
   -1.8299   22.5299  -33.5109 H   0  0  0  0  0  0  0  0  0  0  0  0
   -2.4140   20.8383  -34.0916 H   0  0  0  0  0  0  0  0  0  0  0  0
   -3.3097   20.6524  -31.7540 H   0  0  0  0  0  0  0  0  0  0  0  0
   -3.2346   22.4565  -31.7800 H   0  0  0  0  0  0  0  0  0  0  0  0
   -4.6410   22.2010  -34.0330 H   0  0  0  0  0  0  0  0  0  0  0  0
   -3.6293   19.7316  -34.0705 H   0  0  0  0  0  0  0  0  0  0  0  0
   -3.3403   17.3890  -34.7942 H   0  0  0  0  0  0  0  0  0  0  0  0
   -5.1691   15.7687  -34.3176 H   0  0  0  0  0  0  0  0  0  0  0  0
   -7.2081   16.5269  -33.1387 H   0  0  0  0  0  0  0  0  0  0  0  0
   -8.8471   18.0371  -30.8997 H   0  0  0  0  0  0  0  0  0  0  0  0
   -9.6755   18.5244  -32.4172 H   0  0  0  0  0  0  0  0  0  0  0  0
   -8.5531   17.1220  -32.4172 H   0  0  0  0  0  0  0  0  0  0  0  0
   -9.7267   19.9475  -31.0698 H   0  0  0  0  0  0  0  0  0  0  0  0
   -9.9672   22.2981  -30.3687 H   0  0  0  0  0  0  0  0  0  0  0  0
   -8.1832   23.9138  -30.8175 H   0  0  0  0  0  0  0  0  0  0  0  0
   -5.0160   23.5160  -32.4750 H   0  0  0  0  0  0  0  0  0  0  0  0
   -5.8505   25.6495  -31.9961 H   0  0  0  0  0  0  0  0  0  0  0  0
   -7.1144   24.9281  -30.9315 H   0  0  0  0  0  0  0  0  0  0  0  0
   -4.9189   26.0087  -29.9165 H   0  0  0  0  0  0  0  0  0  0  0  0
   -5.6398   24.5077  -29.2226 H   0  0  0  0  0  0  0  0  0  0  0  0
   -4.0851   23.1280  -30.4223 H   0  0  0  0  0  0  0  0  0  0  0  0
   -3.4485   24.5679  -31.3179 H   0  0  0  0  0  0  0  0  0  0  0  0
   -1.4654   23.2633  -30.3812 H   0  0  0  0  0  0  0  0  0  0  0  0
   -1.0292   23.5588  -28.7171 H   0  0  0  0  0  0  0  0  0  0  0  0
   -3.1915   21.7102  -29.8610 H   0  0  0  0  0  0  0  0  0  0  0  0
   -2.0795   21.3447  -28.5601 H   0  0  0  0  0  0  0  0  0  0  0  0
   -4.7271   22.5007  -28.3544 H   0  0  0  0  0  0  0  0  0  0  0  0
   -3.6062   22.2563  -27.0131 H   0  0  0  0  0  0  0  0  0  0  0  0
   -4.3719   24.7723  -27.8225 H   0  0  0  0  0  0  0  0  0  0  0  0
   -2.7743   24.5308  -27.1743 H   0  0  0  0  0  0  0  0  0  0  0  0
  1  2  1  0
  2  3  1  0
  3  4  1  0
  3  5  1  0
  5  6  1  0
  6  7  1  0
  7  8  1  0
  8  9  2  0
  9 10  1  0
 10 11  2  0
 11 12  1  0
 12 13  2  0
 13 14  1  0
 14 15  2  0
 15 16  1  0
 15 17  1  0
 17 18  2  0
 18 19  1  0
 19 20  2  0
 20 21  1  0
 21 22  1  0
 22 23  1  0
 23 24  1  0
 24 25  1  0
 25 26  1  0
 26 27  1  0
 27 28  1  0
 28 29  1  0
 29 30  1  0
 21 31  2  0
 31  8  1  0
 14  9  1  0
 31 17  1  0
 30 26  1  0
  1 32  1  0
  1 33  1  0
  1 34  1  0
  2 35  1  0
  2 36  1  0
  4 37  1  0
  4 38  1  0
  4 39  1  0
  5 40  1  0
  5 41  1  0
  6 42  1  0
  6 43  1  0
  7 44  1  0
 10 45  1  0
 11 46  1  0
 12 47  1  0
 13 48  1  0
 16 49  1  0
 16 50  1  0
 16 51  1  0
 18 52  1  0
 19 53  1  0
 20 54  1  0
 22 55  1  0
 23 56  1  0
 23 57  1  0
 24 58  1  0
 24 59  1  0
 25 60  1  0
 25 61  1  0
 27 62  1  0
 27 63  1  0
 28 64  1  0
 28 65  1  0
 29 66  1  0
 29 67  1  0
 30 68  1  0
 30 69  1  0
M  CHG  1  15   1
M  END
>  <smiles>  (13) 
CCN(C)CCNc1c2ccccc2[n+](C)c2cccc(NCCCN3CCCC3)c12

>  <score_type>  (13) 
oracle

>  <origin>  (13) 
adg

>  <m_score__min__energy>  (13) 
-9.6300000000000008

>  <m_primary>  (13) 
energy

$$$$
13:0
     RDKit          3D

 82 85  0  0  0  0  0  0  0  0999 V2000
   -9.4230   21.1530  -31.9860 C   0  0  0  0  0  0  0  0  0  0  0  0
   -9.0890   19.7500  -31.5840 C   0  0  0  0  0  0  0  0  0  0  0  0
   -8.6770   18.9600  -32.7070 N   0  0  0  0  0  0  0  0  0  0  0  0
   -7.2440   18.8640  -32.7670 C   0  0  0  0  0  0  0  0  0  0  0  0
   -6.5910   19.9500  -33.5640 C   0  0  0  0  0  0  0  0  0  0  0  0
   -5.8980   20.9940  -32.7560 C   0  0  0  0  0  0  0  0  0  0  0  0
   -4.6140   21.3700  -33.2780 N   0  0  0  0  0  0  0  0  0  0  0  0
   -3.4530   20.9920  -32.5590 C   0  0  0  0  0  0  0  0  0  0  0  0
   -2.7650   19.8340  -32.7270 C   0  0  0  0  0  0  0  0  0  0  0  0
   -3.2250   18.9390  -33.6760 C   0  0  0  0  0  0  0  0  0  0  0  0
   -2.5850   17.7520  -33.9020 C   0  0  0  0  0  0  0  0  0  0  0  0
   -1.4630   17.4640  -33.1570 C   0  0  0  0  0  0  0  0  0  0  0  0
   -1.0070   18.3660  -32.2070 C   0  0  0  0  0  0  0  0  0  0  0  0
   -1.6590   19.5770  -31.9760 C   0  0  0  0  0  0  0  0  0  0  0  0
   -1.1770   20.4400  -31.0300 N   0  0  0  0  0  0  0  0  0  0  0  0
   -0.0070   20.0240  -30.3320 C   0  0  0  0  0  0  0  0  0  0  0  0
   -1.8390   21.5920  -30.8460 C   0  0  0  0  0  0  0  0  0  0  0  0
   -1.4170   22.5110  -29.9140 C   0  0  0  0  0  0  0  0  0  0  0  0
   -2.0370   23.7100  -29.6680 C   0  0  0  0  0  0  0  0  0  0  0  0
   -1.6920   24.6610  -28.7860 O   0  0  0  0  0  0  0  0  0  0  0  0
   -0.8800   24.7110  -27.6720 C   0  0  0  0  0  0  0  0  0  0  0  0
   -1.5390   25.3520  -26.5020 C   0  0  0  0  0  0  0  0  0  0  0  0
   -0.6380   25.5520  -25.3770 N   0  0  0  0  0  0  0  0  0  0  0  0
   -0.5140   24.2230  -24.7560 C   0  0  0  0  0  0  0  0  0  0  0  0
   -1.2590   26.4130  -24.4250 C   0  0  0  0  0  0  0  0  0  0  0  0
   -0.2910   27.0330  -23.4500 C   0  0  0  0  0  0  0  0  0  0  0  0
    0.9120   27.5460  -24.0620 N   0  0  0  0  0  0  0  0  0  0  0  0
    1.1090   28.9620  -23.7730 C   0  0  0  0  0  0  0  0  0  0  0  0
    2.0200   26.8290  -23.4510 C   0  0  0  0  0  0  0  0  0  0  0  0
    0.9840   27.3760  -25.4810 C   0  0  0  0  0  0  0  0  0  0  0  0
    0.6740   25.9320  -25.8020 C   0  0  0  0  0  0  0  0  0  0  0  0
   -3.1820   23.9610  -30.4540 C   0  0  0  0  0  0  0  0  0  0  0  0
   -3.8790   25.1650  -30.2680 O   0  0  0  0  0  0  0  0  0  0  0  0
   -5.2840   25.0650  -30.1330 C   0  0  0  0  0  0  0  0  0  0  0  0
   -3.6190   23.0530  -31.3900 C   0  0  0  0  0  0  0  0  0  0  0  0
   -2.9590   21.8760  -31.5890 C   0  0  0  0  0  0  0  0  0  0  0  0
   -9.5693   21.7675  -31.0854 H   0  0  0  0  0  0  0  0  0  0  0  0
   -8.5988   21.5692  -32.5840 H   0  0  0  0  0  0  0  0  0  0  0  0
  -10.3463   21.1532  -32.5840 H   0  0  0  0  0  0  0  0  0  0  0  0
   -8.2726   19.7752  -30.8472 H   0  0  0  0  0  0  0  0  0  0  0  0
   -9.9928   19.2918  -31.1558 H   0  0  0  0  0  0  0  0  0  0  0  0
   -9.1230   19.1840  -33.6080 H   0  0  0  0  0  0  0  0  0  0  0  0
   -6.8518   18.9057  -31.7401 H   0  0  0  0  0  0  0  0  0  0  0  0
   -7.0108   17.9155  -33.2730 H   0  0  0  0  0  0  0  0  0  0  0  0
   -5.8490   19.4855  -34.2301 H   0  0  0  0  0  0  0  0  0  0  0  0
   -7.3998   20.4648  -34.1032 H   0  0  0  0  0  0  0  0  0  0  0  0
   -6.5361   21.8895  -32.7249 H   0  0  0  0  0  0  0  0  0  0  0  0
   -5.7263   20.5662  -31.7572 H   0  0  0  0  0  0  0  0  0  0  0  0
   -4.5130   21.9170  -34.1760 H   0  0  0  0  0  0  0  0  0  0  0  0
   -4.1233   19.1870  -34.2604 H   0  0  0  0  0  0  0  0  0  0  0  0
   -2.9565   17.0456  -34.6590 H   0  0  0  0  0  0  0  0  0  0  0  0
   -0.9273   16.5165  -33.3157 H   0  0  0  0  0  0  0  0  0  0  0  0
   -0.1089   18.1201  -31.6214 H   0  0  0  0  0  0  0  0  0  0  0  0
   -0.1847   20.0872  -29.2483 H   0  0  0  0  0  0  0  0  0  0  0  0
    0.2327   18.9856  -30.6044 H   0  0  0  0  0  0  0  0  0  0  0  0
    0.8345   20.6780  -30.6044 H   0  0  0  0  0  0  0  0  0  0  0  0
   -0.5203   22.2680  -29.3250 H   0  0  0  0  0  0  0  0  0  0  0  0
   -0.5984   23.6839  -27.3968 H   0  0  0  0  0  0  0  0  0  0  0  0
   -0.0022   25.3213  -27.9311 H   0  0  0  0  0  0  0  0  0  0  0  0
   -1.9314   26.3310  -26.8144 H   0  0  0  0  0  0  0  0  0  0  0  0
   -2.3385   24.6757  -26.1652 H   0  0  0  0  0  0  0  0  0  0  0  0
   -0.5238   24.3276  -23.6610 H   0  0  0  0  0  0  0  0  0  0  0  0
   -1.3571   23.5908  -25.0715 H   0  0  0  0  0  0  0  0  0  0  0  0
    0.4315   23.7576  -25.0715 H   0  0  0  0  0  0  0  0  0  0  0  0
   -1.7704   27.2210  -24.9686 H   0  0  0  0  0  0  0  0  0  0  0  0
   -1.9562   25.7962  -23.8390 H   0  0  0  0  0  0  0  0  0  0  0  0
   -0.7997   27.8632  -22.9382 H   0  0  0  0  0  0  0  0  0  0  0  0
    0.0190   26.2354  -22.7588 H   0  0  0  0  0  0  0  0  0  0  0  0
    1.1302   29.1144  -22.6838 H   0  0  0  0  0  0  0  0  0  0  0  0
    2.0623   29.2960  -24.2086 H   0  0  0  0  0  0  0  0  0  0  0  0
    0.2831   29.5435  -24.2086 H   0  0  0  0  0  0  0  0  0  0  0  0
    1.9335   26.8849  -22.3558 H   0  0  0  0  0  0  0  0  0  0  0  0
    1.9943   25.7758  -23.7675 H   0  0  0  0  0  0  0  0  0  0  0  0
    2.9702   27.2839  -23.7675 H   0  0  0  0  0  0  0  0  0  0  0  0
    0.2501   28.0320  -25.9720 H   0  0  0  0  0  0  0  0  0  0  0  0
    1.9890   27.6377  -25.8437 H   0  0  0  0  0  0  0  0  0  0  0  0
    0.7495   25.7872  -26.8898 H   0  0  0  0  0  0  0  0  0  0  0  0
    1.3981   25.3039  -25.2624 H   0  0  0  0  0  0  0  0  0  0  0  0
   -5.5494   25.0461  -29.0657 H   0  0  0  0  0  0  0  0  0  0  0  0
   -5.7612   25.9315  -30.6142 H   0  0  0  0  0  0  0  0  0  0  0  0
   -5.6337   24.1397  -30.6142 H   0  0  0  0  0  0  0  0  0  0  0  0
   -4.5145   23.2794  -31.9873 H   0  0  0  0  0  0  0  0  0  0  0  0
  1  2  1  0
  2  3  1  0
  3  4  1  0
  4  5  1  0
  5  6  1  0
  6  7  1  0
  7  8  1  0
  8  9  2  0
  9 10  1  0
 10 11  2  0
 11 12  1  0
 12 13  2  0
 13 14  1  0
 14 15  2  0
 15 16  1  0
 15 17  1  0
 17 18  2  0
 18 19  1  0
 19 20  1  0
 20 21  1  0
 21 22  1  0
 22 23  1  0
 23 24  1  0
 23 25  1  0
 25 26  1  0
 26 27  1  0
 27 28  1  0
 27 29  1  0
 27 30  1  0
 30 31  1  0
 19 32  2  0
 32 33  1  0
 33 34  1  0
 32 35  1  0
 35 36  2  0
 36  8  1  0
 14  9  1  0
 36 17  1  0
 31 23  1  0
  1 37  1  0
  1 38  1  0
  1 39  1  0
  2 40  1  0
  2 41  1  0
  3 42  1  0
  4 43  1  0
  4 44  1  0
  5 45  1  0
  5 46  1  0
  6 47  1  0
  6 48  1  0
  7 49  1  0
 10 50  1  0
 11 51  1  0
 12 52  1  0
 13 53  1  0
 16 54  1  0
 16 55  1  0
 16 56  1  0
 18 57  1  0
 21 58  1  0
 21 59  1  0
 22 60  1  0
 22 61  1  0
 24 62  1  0
 24 63  1  0
 24 64  1  0
 25 65  1  0
 25 66  1  0
 26 67  1  0
 26 68  1  0
 28 69  1  0
 28 70  1  0
 28 71  1  0
 29 72  1  0
 29 73  1  0
 29 74  1  0
 30 75  1  0
 30 76  1  0
 31 77  1  0
 31 78  1  0
 34 79  1  0
 34 80  1  0
 34 81  1  0
 35 82  1  0
M  CHG  3  15   1  23   1  27   1
M  END
>  <smiles>  (14) 
CCNCCCNc1c2ccccc2[n+](C)c2cc(OCC[N+]3(C)CC[N+](C)(C)CC3)c(OC)cc12

>  <score_type>  (14) 
oracle

>  <origin>  (14) 
adg

>  <m_score__min__energy>  (14) 
-9.4000000000000004

>  <m_primary>  (14) 
energy

$$$$
14:0
     RDKit          3D

 48 49  0  0  1  0  0  0  0  0999 V2000
   -2.9530   21.3130  -31.3150 C   0  0  0  0  0  0  0  0  0  0  0  0
   -3.1570   21.1230  -29.8410 C   0  0  0  0  0  0  0  0  0  0  0  0
   -2.0530   21.5110  -29.0220 N   0  0  0  0  0  0  0  0  0  0  0  0
   -1.5960   20.4500  -28.1590 C   0  0  0  0  0  0  0  0  0  0  0  0
   -2.7610   19.9990  -27.2830 C   0  0  0  0  0  0  0  0  0  0  0  0
   -2.2010   22.7640  -28.3580 C   0  0  0  0  0  0  0  0  0  0  0  0
   -2.0500   23.9090  -29.3490 C   0  0  0  0  0  0  0  0  0  0  0  0
   -3.1840   24.6710  -29.4410 O   0  0  0  0  0  0  0  0  0  0  0  0
   -4.1820   24.1740  -28.6430 C   0  0  0  0  0  0  0  0  0  0  0  0
   -5.5060   24.1930  -29.3280 C   0  0  1  0  0  0  0  0  0  0  0  0
   -5.5020   25.2500  -30.3750 C   0  0  0  0  0  0  0  0  0  0  0  0
   -5.0130   24.8540  -31.5910 O   0  0  0  0  0  0  0  0  0  0  0  0
   -5.4620   23.6080  -32.0320 C   0  0  0  0  0  0  0  0  0  0  0  0
   -6.4980   23.1360  -31.0460 C   0  0  1  0  0  0  0  0  0  0  0  0
   -7.2770   21.9710  -31.4850 C   0  0  0  0  0  0  0  0  0  0  0  0
   -6.7530   20.7530  -31.8450 C   0  0  0  0  0  0  0  0  0  0  0  0
   -7.5710   19.6990  -32.2570 C   0  0  0  0  0  0  0  0  0  0  0  0
   -8.9610   19.8560  -32.3150 C   0  0  0  0  0  0  0  0  0  0  0  0
   -9.4730   21.0940  -31.9470 C   0  0  0  0  0  0  0  0  0  0  0  0
   -8.6580   22.1210  -31.5450 C   0  0  0  0  0  0  0  0  0  0  0  0
   -5.8590   22.9310  -29.8330 O   0  0  0  0  0  0  0  0  0  0  0  0
   -2.1574   22.0540  -31.4825 H   0  0  0  0  0  0  0  0  0  0  0  0
   -2.6639   20.3549  -31.7716 H   0  0  0  0  0  0  0  0  0  0  0  0
   -3.8881   21.6694  -31.7716 H   0  0  0  0  0  0  0  0  0  0  0  0
   -4.0315   21.7178  -29.5385 H   0  0  0  0  0  0  0  0  0  0  0  0
   -3.2882   20.0418  -29.6865 H   0  0  0  0  0  0  0  0  0  0  0  0
   -1.2407   19.6049  -28.7669 H   0  0  0  0  0  0  0  0  0  0  0  0
   -0.7687   20.8083  -27.5288 H   0  0  0  0  0  0  0  0  0  0  0  0
   -2.4857   20.1056  -26.2234 H   0  0  0  0  0  0  0  0  0  0  0  0
   -3.6428   20.6207  -27.4971 H   0  0  0  0  0  0  0  0  0  0  0  0
   -2.9944   18.9456  -27.4971 H   0  0  0  0  0  0  0  0  0  0  0  0
   -3.1977   22.8138  -27.8953 H   0  0  0  0  0  0  0  0  0  0  0  0
   -1.4220   22.8539  -27.5865 H   0  0  0  0  0  0  0  0  0  0  0  0
   -1.2182   24.5509  -29.0235 H   0  0  0  0  0  0  0  0  0  0  0  0
   -1.8572   23.4724  -30.3401 H   0  0  0  0  0  0  0  0  0  0  0  0
   -3.9369   23.1363  -28.3725 H   0  0  0  0  0  0  0  0  0  0  0  0
   -4.2523   24.8119  -27.7496 H   0  0  0  0  0  0  0  0  0  0  0  0
   -6.2857   24.4380  -28.5917 H   0  0  0  0  0  0  0  0  0  0  0  0
   -6.5372   25.5933  -30.5182 H   0  0  0  0  0  0  0  0  0  0  0  0
   -4.8277   26.0403  -30.0134 H   0  0  0  0  0  0  0  0  0  0  0  0
   -5.9084   23.7005  -33.0331 H   0  0  0  0  0  0  0  0  0  0  0  0
   -4.6291   22.8924  -32.0973 H   0  0  0  0  0  0  0  0  0  0  0  0
   -7.2669   23.9165  -30.9483 H   0  0  0  0  0  0  0  0  0  0  0  0
   -5.6637   20.6047  -31.8078 H   0  0  0  0  0  0  0  0  0  0  0  0
   -7.1191   18.7364  -32.5386 H   0  0  0  0  0  0  0  0  0  0  0  0
   -9.6187   19.0354  -32.6377 H   0  0  0  0  0  0  0  0  0  0  0  0
  -10.5607   21.2546  -31.9789 H   0  0  0  0  0  0  0  0  0  0  0  0
   -9.1069   23.0851  -31.2637 H   0  0  0  0  0  0  0  0  0  0  0  0
  1  2  1  0
  2  3  1  0
  3  4  1  0
  4  5  1  0
  3  6  1  0
  6  7  1  0
  7  8  1  0
  8  9  1  0
  9 10  1  0
 10 11  1  0
 11 12  1  0
 12 13  1  0
 13 14  1  0
 14 15  1  0
 15 16  2  0
 16 17  1  0
 17 18  2  0
 18 19  1  0
 19 20  2  0
 14 21  1  0
 21 10  1  0
 20 15  1  0
  1 22  1  0
  1 23  1  0
  1 24  1  0
  2 25  1  0
  2 26  1  0
  4 27  1  0
  4 28  1  0
  5 29  1  0
  5 30  1  0
  5 31  1  0
  6 32  1  0
  6 33  1  0
  7 34  1  0
  7 35  1  0
  9 36  1  0
  9 37  1  0
 10 38  1  1
 11 39  1  0
 11 40  1  0
 13 41  1  0
 13 42  1  0
 14 43  1  1
 16 44  1  0
 17 45  1  0
 18 46  1  0
 19 47  1  0
 20 48  1  0
M  END
>  <smiles>  (15) 
CCN(CC)CCOCC1COCC(c2ccccc2)O1

>  <score_type>  (15) 
oracle

>  <origin>  (15) 
adg

>  <m_score__min__energy>  (15) 
-7.2699999999999996

>  <m_primary>  (15) 
energy

$$$$
15:0
     RDKit          3D

 66 68  0  0  0  0  0  0  0  0999 V2000
   -2.0540   20.9290  -31.2410 C   0  0  0  0  0  0  0  0  0  0  0  0
   -1.8410   21.5490  -32.5990 C   0  0  0  0  0  0  0  0  0  0  0  0
   -2.8620   21.1550  -33.4570 O   0  0  0  0  0  0  0  0  0  0  0  0
   -3.3550   19.8680  -33.5450 C   0  0  0  0  0  0  0  0  0  0  0  0
   -2.5740   18.7950  -33.9180 C   0  0  0  0  0  0  0  0  0  0  0  0
   -3.0630   17.5060  -34.0090 C   0  0  0  0  0  0  0  0  0  0  0  0
   -4.3940   17.3070  -33.7090 C   0  0  0  0  0  0  0  0  0  0  0  0
   -5.2330   18.3590  -33.3240 C   0  0  0  0  0  0  0  0  0  0  0  0
   -4.7080   19.6440  -33.2430 C   0  0  0  0  0  0  0  0  0  0  0  0
   -5.5270   20.7170  -32.8710 C   0  0  0  0  0  0  0  0  0  0  0  0
   -5.0230   22.0420  -32.7440 N   0  0  0  0  0  0  0  0  0  0  0  0
   -5.1310   22.7100  -31.4670 C   0  0  0  0  0  0  0  0  0  0  0  0
   -5.6050   24.1510  -31.5880 C   0  0  0  0  0  0  0  0  0  0  0  0
   -5.0920   24.9090  -30.4160 C   0  0  0  0  0  0  0  0  0  0  0  0
   -3.7120   24.9340  -30.4390 O   0  0  0  0  0  0  0  0  0  0  0  0
   -3.1010   24.4400  -29.2820 C   0  0  0  0  0  0  0  0  0  0  0  0
   -1.7920   23.8190  -29.5560 C   0  0  0  0  0  0  0  0  0  0  0  0
   -0.6680   24.5630  -28.9340 N   0  0  0  0  0  0  0  0  0  0  0  0
    0.1990   23.6640  -28.2630 C   0  0  0  0  0  0  0  0  0  0  0  0
   -0.3070   22.2840  -27.9750 C   0  0  0  0  0  0  0  0  0  0  0  0
   -1.1620   25.6900  -28.2250 C   0  0  0  0  0  0  0  0  0  0  0  0
   -1.1770   25.6370  -26.7430 C   0  0  0  0  0  0  0  0  0  0  0  0
   -6.8710   20.4440  -32.5940 C   0  0  0  0  0  0  0  0  0  0  0  0
   -7.6930   21.4850  -32.2370 C   0  0  0  0  0  0  0  0  0  0  0  0
   -9.0480   21.2690  -31.9540 C   0  0  0  0  0  0  0  0  0  0  0  0
   -9.4840   19.9680  -32.0590 C   0  0  0  0  0  0  0  0  0  0  0  0
   -8.6500   18.9190  -32.4220 C   0  0  0  0  0  0  0  0  0  0  0  0
   -7.3220   19.1360  -32.6980 C   0  0  0  0  0  0  0  0  0  0  0  0
   -6.5490   18.1140  -33.0480 N   0  0  0  0  0  0  0  0  0  0  0  0
   -6.9660   16.7400  -33.1600 C   0  0  0  0  0  0  0  0  0  0  0  0
   -1.8023   21.6615  -30.4599 H   0  0  0  0  0  0  0  0  0  0  0  0
   -3.1069   20.6284  -31.1362 H   0  0  0  0  0  0  0  0  0  0  0  0
   -1.4081   20.0448  -31.1362 H   0  0  0  0  0  0  0  0  0  0  0  0
   -1.8438   22.6450  -32.5056 H   0  0  0  0  0  0  0  0  0  0  0  0
   -0.8741   21.2166  -33.0048 H   0  0  0  0  0  0  0  0  0  0  0  0
   -1.5144   18.9730  -34.1537 H   0  0  0  0  0  0  0  0  0  0  0  0
   -2.4147   16.6697  -34.3096 H   0  0  0  0  0  0  0  0  0  0  0  0
   -4.8091   16.2904  -33.7742 H   0  0  0  0  0  0  0  0  0  0  0  0
   -4.5810   22.5160  -33.5780 H   0  0  0  0  0  0  0  0  0  0  0  0
   -5.8470   22.1568  -30.8415 H   0  0  0  0  0  0  0  0  0  0  0  0
   -4.1260   22.7306  -31.0204 H   0  0  0  0  0  0  0  0  0  0  0  0
   -5.2166   24.5940  -32.5169 H   0  0  0  0  0  0  0  0  0  0  0  0
   -6.7041   24.1885  -31.6132 H   0  0  0  0  0  0  0  0  0  0  0  0
   -5.4759   25.9392  -30.4517 H   0  0  0  0  0  0  0  0  0  0  0  0
   -5.4296   24.4177  -29.4915 H   0  0  0  0  0  0  0  0  0  0  0  0
   -2.9562   25.2718  -28.5769 H   0  0  0  0  0  0  0  0  0  0  0  0
   -3.7579   23.6639  -28.8624 H   0  0  0  0  0  0  0  0  0  0  0  0
   -1.7983   22.7931  -29.1591 H   0  0  0  0  0  0  0  0  0  0  0  0
   -1.6382   23.8306  -30.6451 H   0  0  0  0  0  0  0  0  0  0  0  0
    1.1032   23.5589  -28.8805 H   0  0  0  0  0  0  0  0  0  0  0  0
    0.3490   24.1149  -27.2709 H   0  0  0  0  0  0  0  0  0  0  0  0
   -0.3622   22.1334  -26.8868 H   0  0  0  0  0  0  0  0  0  0  0  0
   -1.3084   22.1617  -28.4134 H   0  0  0  0  0  0  0  0  0  0  0  0
    0.3781   21.5434  -28.4134 H   0  0  0  0  0  0  0  0  0  0  0  0
   -0.5440   26.5530  -28.5138 H   0  0  0  0  0  0  0  0  0  0  0  0
   -2.2243   25.7429  -28.5055 H   0  0  0  0  0  0  0  0  0  0  0  0
   -0.8985   26.6211  -26.3381 H   0  0  0  0  0  0  0  0  0  0  0  0
   -2.1860   25.3699  -26.3958 H   0  0  0  0  0  0  0  0  0  0  0  0
   -0.4576   24.8807  -26.3958 H   0  0  0  0  0  0  0  0  0  0  0  0
   -7.2814   22.5030  -32.1724 H   0  0  0  0  0  0  0  0  0  0  0  0
   -9.7220   22.0891  -31.6656 H   0  0  0  0  0  0  0  0  0  0  0  0
  -10.5407   19.7493  -31.8458 H   0  0  0  0  0  0  0  0  0  0  0  0
   -9.0584   17.8999  -32.4895 H   0  0  0  0  0  0  0  0  0  0  0  0
   -7.0956   16.3130  -32.1546 H   0  0  0  0  0  0  0  0  0  0  0  0
   -7.9199   16.6896  -33.7055 H   0  0  0  0  0  0  0  0  0  0  0  0
   -6.2010   16.1679  -33.7055 H   0  0  0  0  0  0  0  0  0  0  0  0
  1  2  1  0
  2  3  1  0
  3  4  1  0
  4  5  2  0
  5  6  1  0
  6  7  2  0
  7  8  1  0
  8  9  2  0
  9 10  1  0
 10 11  1  0
 11 12  1  0
 12 13  1  0
 13 14  1  0
 14 15  1  0
 15 16  1  0
 16 17  1  0
 17 18  1  0
 18 19  1  0
 19 20  1  0
 18 21  1  0
 21 22  1  0
 10 23  2  0
 23 24  1  0
 24 25  2  0
 25 26  1  0
 26 27  2  0
 27 28  1  0
 28 29  2  0
 29 30  1  0
  9  4  1  0
 28 23  1  0
 29  8  1  0
  1 31  1  0
  1 32  1  0
  1 33  1  0
  2 34  1  0
  2 35  1  0
  5 36  1  0
  6 37  1  0
  7 38  1  0
 11 39  1  0
 12 40  1  0
 12 41  1  0
 13 42  1  0
 13 43  1  0
 14 44  1  0
 14 45  1  0
 16 46  1  0
 16 47  1  0
 17 48  1  0
 17 49  1  0
 19 50  1  0
 19 51  1  0
 20 52  1  0
 20 53  1  0
 20 54  1  0
 21 55  1  0
 21 56  1  0
 22 57  1  0
 22 58  1  0
 22 59  1  0
 24 60  1  0
 25 61  1  0
 26 62  1  0
 27 63  1  0
 30 64  1  0
 30 65  1  0
 30 66  1  0
M  CHG  1  29   1
M  END
>  <smiles>  (16) 
CCOc1cccc2c1c(NCCCOCCN(CC)CC)c1ccccc1[n+]2C

>  <score_type>  (16) 
oracle

>  <origin>  (16) 
adg

>  <m_score__min__energy>  (16) 
-8.5800000000000001

>  <m_primary>  (16) 
energy

$$$$
16:0
     RDKit          3D

 51 55  0  0  0  0  0  0  0  0999 V2000
   -2.2350   24.1530  -29.2110 C   0  0  0  0  0  0  0  0  0  0  0  0
   -3.3460   23.7830  -30.1340 C   0  0  0  0  0  0  0  0  0  0  0  0
   -3.8940   24.9540  -30.8300 N   0  0  0  0  0  0  0  0  0  0  0  0
   -5.0750   25.3920  -30.1670 C   0  0  0  0  0  0  0  0  0  0  0  0
   -6.3240   24.6870  -30.5360 C   0  0  0  0  0  0  0  0  0  0  0  0
   -6.1880   23.5970  -31.4680 N   0  0  0  0  0  0  0  0  0  0  0  0
   -7.1870   22.6450  -31.7770 C   0  0  0  0  0  0  0  0  0  0  0  0
   -8.5220   22.9140  -31.6150 C   0  0  0  0  0  0  0  0  0  0  0  0
   -9.5310   21.9940  -31.8620 C   0  0  0  0  0  0  0  0  0  0  0  0
   -9.2050   20.7320  -32.2960 C   0  0  0  0  0  0  0  0  0  0  0  0
   -7.8660   20.4330  -32.4670 C   0  0  0  0  0  0  0  0  0  0  0  0
   -7.5120   19.1560  -32.9070 C   0  0  0  0  0  0  0  0  0  0  0  0
   -6.1920   18.8520  -33.0810 C   0  0  0  0  0  0  0  0  0  0  0  0
   -5.2190   19.7190  -32.8510 N   0  0  0  0  0  0  0  0  0  0  0  0
   -5.5760   20.9530  -32.4240 C   0  0  0  0  0  0  0  0  0  0  0  0
   -6.8650   21.3570  -32.2190 C   0  0  0  0  0  0  0  0  0  0  0  0
   -3.8110   19.4970  -33.0390 C   0  0  0  0  0  0  0  0  0  0  0  0
   -3.3980   18.1010  -33.3400 C   0  0  0  0  0  0  0  0  0  0  0  0
   -4.5190   17.2010  -33.6320 C   0  0  0  0  0  0  0  0  0  0  0  0
   -4.1790   15.9070  -34.0590 C   0  0  0  0  0  0  0  0  0  0  0  0
   -5.1050   14.9520  -34.3450 C   0  0  0  0  0  0  0  0  0  0  0  0
   -6.4290   15.2500  -34.2130 C   0  0  0  0  0  0  0  0  0  0  0  0
   -6.7760   16.5310  -33.7900 C   0  0  0  0  0  0  0  0  0  0  0  0
   -5.8500   17.5020  -33.5010 C   0  0  0  0  0  0  0  0  0  0  0  0
   -7.2010   14.1350  -34.5540 O   0  0  0  0  0  0  0  0  0  0  0  0
   -6.3000   13.0610  -34.6760 C   0  0  0  0  0  0  0  0  0  0  0  0
   -4.9980   13.6500  -34.7680 O   0  0  0  0  0  0  0  0  0  0  0  0
   -2.5709   24.0411  -28.1695 H   0  0  0  0  0  0  0  0  0  0  0  0
   -1.3734   23.4933  -29.3913 H   0  0  0  0  0  0  0  0  0  0  0  0
   -1.9410   25.1975  -29.3913 H   0  0  0  0  0  0  0  0  0  0  0  0
   -2.9651   23.0714  -30.8814 H   0  0  0  0  0  0  0  0  0  0  0  0
   -4.1521   23.3354  -29.5342 H   0  0  0  0  0  0  0  0  0  0  0  0
   -3.1240   25.6740  -30.8150 H   0  0  0  0  0  0  0  0  0  0  0  0
   -4.9219   25.2624  -29.0854 H   0  0  0  0  0  0  0  0  0  0  0  0
   -5.2204   26.4371  -30.4780 H   0  0  0  0  0  0  0  0  0  0  0  0
   -6.7681   24.2858  -29.6130 H   0  0  0  0  0  0  0  0  0  0  0  0
   -6.9445   25.4367  -31.0487 H   0  0  0  0  0  0  0  0  0  0  0  0
   -5.2320   23.5440  -31.9380 H   0  0  0  0  0  0  0  0  0  0  0  0
   -8.8097   23.9177  -31.2690 H   0  0  0  0  0  0  0  0  0  0  0  0
  -10.5843   22.2732  -31.7114 H   0  0  0  0  0  0  0  0  0  0  0  0
   -9.9844   19.9833  -32.5009 H   0  0  0  0  0  0  0  0  0  0  0  0
   -8.2877   18.4032  -33.1112 H   0  0  0  0  0  0  0  0  0  0  0  0
   -4.7738   21.6799  -32.2288 H   0  0  0  0  0  0  0  0  0  0  0  0
   -3.4804   20.1317  -33.8744 H   0  0  0  0  0  0  0  0  0  0  0  0
   -3.3447   19.7385  -32.0724 H   0  0  0  0  0  0  0  0  0  0  0  0
   -2.7302   18.1178  -34.2140 H   0  0  0  0  0  0  0  0  0  0  0  0
   -2.9022   17.7125  -32.4382 H   0  0  0  0  0  0  0  0  0  0  0  0
   -3.1141   15.6537  -34.1673 H   0  0  0  0  0  0  0  0  0  0  0  0
   -7.8429   16.7761  -33.6825 H   0  0  0  0  0  0  0  0  0  0  0  0
   -6.3626   12.4068  -33.7939 H   0  0  0  0  0  0  0  0  0  0  0  0
   -6.5264   12.4417  -35.5565 H   0  0  0  0  0  0  0  0  0  0  0  0
  1  2  1  0
  2  3  1  0
  3  4  1  0
  4  5  1  0
  5  6  1  0
  6  7  1  0
  7  8  2  0
  8  9  1  0
  9 10  2  0
 10 11  1  0
 11 12  2  0
 12 13  1  0
 13 14  2  0
 14 15  1  0
 15 16  2  0
 14 17  1  0
 17 18  1  0
 18 19  1  0
 19 20  2  0
 20 21  1  0
 21 22  2  0
 22 23  1  0
 23 24  2  0
 22 25  1  0
 25 26  1  0
 26 27  1  0
 16  7  1  0
 24 19  1  0
 16 11  1  0
 27 21  1  0
 24 13  1  0
  1 28  1  0
  1 29  1  0
  1 30  1  0
  2 31  1  0
  2 32  1  0
  3 33  1  0
  4 34  1  0
  4 35  1  0
  5 36  1  0
  5 37  1  0
  6 38  1  0
  8 39  1  0
  9 40  1  0
 10 41  1  0
 12 42  1  0
 15 43  1  0
 17 44  1  0
 17 45  1  0
 18 46  1  0
 18 47  1  0
 20 48  1  0
 23 49  1  0
 26 50  1  0
 26 51  1  0
M  CHG  1  14   1
M  END
>  <smiles>  (17) 
CCNCCNc1cccc2cc3[n+](cc12)CCc1cc2c(cc1-3)OCO2

>  <score_type>  (17) 
oracle

>  <origin>  (17) 
adg

>  <m_score__min__energy>  (17) 
-9.1600000000000001

>  <m_primary>  (17) 
energy

$$$$
17:0
     RDKit          3D

 47 48  0  0  0  0  0  0  0  0999 V2000
   -3.0600   20.8330  -33.4040 C   0  0  0  0  0  0  0  0  0  0  0  0
   -3.0190   19.3250  -33.5500 C   0  0  0  0  0  0  0  0  0  0  0  0
   -4.0510   18.9790  -34.4600 O   0  0  0  0  0  0  0  0  0  0  0  0
   -4.7830   17.8130  -34.2820 C   0  0  0  0  0  0  0  0  0  0  0  0
   -4.3130   16.5590  -34.5660 C   0  0  0  0  0  0  0  0  0  0  0  0
   -5.1020   15.4470  -34.3610 C   0  0  0  0  0  0  0  0  0  0  0  0
   -6.3990   15.5370  -33.8600 C   0  0  0  0  0  0  0  0  0  0  0  0
   -6.8580   16.8170  -33.5790 C   0  0  0  0  0  0  0  0  0  0  0  0
   -6.0830   17.9400  -33.7770 C   0  0  0  0  0  0  0  0  0  0  0  0
   -6.5820   19.2510  -33.4760 N   0  0  0  0  0  0  0  0  0  0  0  0
   -6.1810   19.8960  -32.2780 C   0  0  0  0  0  0  0  0  0  0  0  0
   -5.3970   19.2890  -31.5230 O   0  0  0  0  0  0  0  0  0  0  0  0
   -6.6420   21.2300  -31.8940 C   0  0  0  0  0  0  0  0  0  0  0  0
   -7.9960   21.4800  -32.0440 C   0  0  0  0  0  0  0  0  0  0  0  0
   -8.4600   22.7470  -31.6840 C   0  0  0  0  0  0  0  0  0  0  0  0
   -7.6080   23.7190  -31.1960 C   0  0  0  0  0  0  0  0  0  0  0  0
   -6.2530   23.4650  -31.0480 C   0  0  0  0  0  0  0  0  0  0  0  0
   -5.1410   24.6700  -30.4340 S   0  0  0  0  0  0  0  0  0  0  0  0
   -5.4870   26.0140  -30.9650 O   0  0  0  0  0  0  0  0  0  0  0  0
   -3.7410   24.3200  -30.8620 O   0  0  0  0  0  0  0  0  0  0  0  0
   -5.1490   24.7340  -28.7180 N   0  0  0  0  0  0  0  0  0  0  0  0
   -4.0100   24.1520  -28.0890 C   0  0  0  0  0  0  0  0  0  0  0  0
   -4.0710   22.6530  -28.0230 C   0  0  0  0  0  0  0  0  0  0  0  0
   -3.9140   24.6940  -26.6560 C   0  0  0  0  0  0  0  0  0  0  0  0
   -5.8090   22.2020  -31.4100 C   0  0  0  0  0  0  0  0  0  0  0  0
   -3.0672   21.0980  -32.3364 H   0  0  0  0  0  0  0  0  0  0  0  0
   -2.1735   21.2722  -33.8848 H   0  0  0  0  0  0  0  0  0  0  0  0
   -3.9691   21.2234  -33.8848 H   0  0  0  0  0  0  0  0  0  0  0  0
   -2.0425   19.0081  -33.9449 H   0  0  0  0  0  0  0  0  0  0  0  0
   -3.1622   18.8278  -32.5793 H   0  0  0  0  0  0  0  0  0  0  0  0
   -3.2941   16.4371  -34.9623 H   0  0  0  0  0  0  0  0  0  0  0  0
   -4.6933   14.4544  -34.6013 H   0  0  0  0  0  0  0  0  0  0  0  0
   -7.0230   14.6460  -33.6966 H   0  0  0  0  0  0  0  0  0  0  0  0
   -7.8773   16.9395  -33.1839 H   0  0  0  0  0  0  0  0  0  0  0  0
   -7.2390   19.7320  -34.1310 H   0  0  0  0  0  0  0  0  0  0  0  0
   -8.6795   20.7103  -32.4317 H   0  0  0  0  0  0  0  0  0  0  0  0
   -9.5303   22.9768  -31.7916 H   0  0  0  0  0  0  0  0  0  0  0  0
   -8.0093   24.7058  -30.9217 H   0  0  0  0  0  0  0  0  0  0  0  0
   -5.3520   25.6790  -28.3790 H   0  0  0  0  0  0  0  0  0  0  0  0
   -3.1318   24.4196  -28.6949 H   0  0  0  0  0  0  0  0  0  0  0  0
   -4.0840   22.3325  -26.9708 H   0  0  0  0  0  0  0  0  0  0  0  0
   -4.9842   22.3007  -28.5249 H   0  0  0  0  0  0  0  0  0  0  0  0
   -3.1894   22.2277  -28.5249 H   0  0  0  0  0  0  0  0  0  0  0  0
   -4.0599   23.8702  -25.9418 H   0  0  0  0  0  0  0  0  0  0  0  0
   -2.9223   25.1435  -26.4996 H   0  0  0  0  0  0  0  0  0  0  0  0
   -4.6910   25.4567  -26.4996 H   0  0  0  0  0  0  0  0  0  0  0  0
   -4.7388   21.9710  -31.3033 H   0  0  0  0  0  0  0  0  0  0  0  0
  1  2  1  0
  2  3  1  0
  3  4  1  0
  4  5  2  0
  5  6  1  0
  6  7  2  0
  7  8  1  0
  8  9  2  0
  9 10  1  0
 10 11  1  0
 11 12  2  0
 11 13  1  0
 13 14  2  0
 14 15  1  0
 15 16  2  0
 16 17  1  0
 17 18  1  0
 18 19  2  0
 18 20  2  0
 18 21  1  0
 21 22  1  0
 22 23  1  0
 22 24  1  0
 17 25  2  0
  9  4  1  0
 25 13  1  0
  1 26  1  0
  1 27  1  0
  1 28  1  0
  2 29  1  0
  2 30  1  0
  5 31  1  0
  6 32  1  0
  7 33  1  0
  8 34  1  0
 10 35  1  0
 14 36  1  0
 15 37  1  0
 16 38  1  0
 21 39  1  0
 22 40  1  0
 23 41  1  0
 23 42  1  0
 23 43  1  0
 24 44  1  0
 24 45  1  0
 24 46  1  0
 25 47  1  0
M  END
>  <smiles>  (18) 
CCOc1ccccc1NC(=O)c1cccc(S(=O)(=O)NC(C)C)c1

>  <score_type>  (18) 
oracle

>  <origin>  (18) 
adg

>  <m_score__min__energy>  (18) 
-9.4100000000000001

>  <m_primary>  (18) 
energy

$$$$
19:0
     RDKit          3D

 49 49  0  0  1  0  0  0  0  0999 V2000
   -3.0580   18.9930  -26.2850 C   0  0  0  0  0  0  0  0  0  0  0  0
   -1.6580   19.5230  -26.4550 C   0  0  0  0  0  0  0  0  0  0  0  0
   -1.6430   20.9170  -26.8590 N   0  0  0  0  0  0  0  0  0  0  0  0
   -0.4980   21.5890  -26.3140 C   0  0  0  0  0  0  0  0  0  0  0  0
   -0.7690   23.0220  -25.9100 C   0  0  0  0  0  0  0  0  0  0  0  0
   -1.6280   21.0790  -28.2810 C   0  0  0  0  0  0  0  0  0  0  0  0
   -2.9930   20.9000  -28.8970 C   0  0  0  0  0  0  0  0  0  0  0  0
   -3.7660   22.0270  -28.6220 O   0  0  0  0  0  0  0  0  0  0  0  0
   -2.8910   23.1020  -28.4910 C   0  0  0  0  0  0  0  0  0  0  0  0
   -3.6110   24.3920  -28.2300 C   0  0  2  0  0  0  0  0  0  0  0  0
   -3.7790   24.5580  -26.7330 C   0  0  0  0  0  0  0  0  0  0  0  0
   -4.8620   24.3880  -28.9240 N   0  0  0  0  0  0  0  0  0  0  0  0
   -4.9990   24.8800  -30.2280 C   0  0  0  0  0  0  0  0  0  0  0  0
   -3.9880   25.3560  -30.8490 O   0  0  0  0  0  0  0  0  0  0  0  0
   -6.2760   24.9020  -30.9920 C   0  0  0  0  0  0  0  0  0  0  0  0
   -6.5040   23.5150  -31.4750 C   0  0  0  0  0  0  0  0  0  0  0  0
   -5.3950   22.8190  -31.9380 C   0  0  0  0  0  0  0  0  0  0  0  0
   -5.4850   21.5200  -32.4160 C   0  0  0  0  0  0  0  0  0  0  0  0
   -4.0490   20.6990  -32.9840 Cl  0  0  0  0  0  0  0  0  0  0  0  0
   -6.7340   20.9410  -32.4120 C   0  0  0  0  0  0  0  0  0  0  0  0
   -7.8520   21.6190  -31.9560 C   0  0  0  0  0  0  0  0  0  0  0  0
   -9.3970   20.7810  -31.9970 Cl  0  0  0  0  0  0  0  0  0  0  0  0
   -7.7670   22.9250  -31.4750 C   0  0  0  0  0  0  0  0  0  0  0  0
   -3.2893   18.9054  -25.2132 H   0  0  0  0  0  0  0  0  0  0  0  0
   -3.7714   19.6833  -26.7589 H   0  0  0  0  0  0  0  0  0  0  0  0
   -3.1355   18.0033  -26.7589 H   0  0  0  0  0  0  0  0  0  0  0  0
   -1.1242   19.4261  -25.4981 H   0  0  0  0  0  0  0  0  0  0  0  0
   -1.1699   18.9372  -27.2478 H   0  0  0  0  0  0  0  0  0  0  0  0
   -0.1608   21.0354  -25.4252 H   0  0  0  0  0  0  0  0  0  0  0  0
    0.2653   21.6170  -27.1055 H   0  0  0  0  0  0  0  0  0  0  0  0
   -0.7832   23.0972  -24.8127 H   0  0  0  0  0  0  0  0  0  0  0  0
    0.0221   23.6721  -26.3118 H   0  0  0  0  0  0  0  0  0  0  0  0
   -1.7429   23.3383  -26.3118 H   0  0  0  0  0  0  0  0  0  0  0  0
   -1.2642   22.0899  -28.5171 H   0  0  0  0  0  0  0  0  0  0  0  0
   -0.9685   20.3041  -28.6988 H   0  0  0  0  0  0  0  0  0  0  0  0
   -2.8933   20.7778  -29.9856 H   0  0  0  0  0  0  0  0  0  0  0  0
   -3.4764   20.0059  -28.4763 H   0  0  0  0  0  0  0  0  0  0  0  0
   -2.2077   22.9021  -27.6525 H   0  0  0  0  0  0  0  0  0  0  0  0
   -2.3427   23.2078  -29.4387 H   0  0  0  0  0  0  0  0  0  0  0  0
   -3.0348   25.2508  -28.6048 H   0  0  0  0  0  0  0  0  0  0  0  0
   -3.0909   23.8781  -26.2092 H   0  0  0  0  0  0  0  0  0  0  0  0
   -3.5527   25.5971  -26.4516 H   0  0  0  0  0  0  0  0  0  0  0  0
   -4.8153   24.3193  -26.4516 H   0  0  0  0  0  0  0  0  0  0  0  0
   -5.6990   24.0050  -28.4420 H   0  0  0  0  0  0  0  0  0  0  0  0
   -7.1035   25.2179  -30.3397 H   0  0  0  0  0  0  0  0  0  0  0  0
   -6.2249   25.6115  -31.8310 H   0  0  0  0  0  0  0  0  0  0  0  0
   -4.4128   23.3142  -31.9252 H   0  0  0  0  0  0  0  0  0  0  0  0
   -6.8470   19.9110  -32.7813 H   0  0  0  0  0  0  0  0  0  0  0  0
   -8.6546   23.4643  -31.1127 H   0  0  0  0  0  0  0  0  0  0  0  0
  1  2  1  0
  2  3  1  0
  3  4  1  0
  4  5  1  0
  3  6  1  0
  6  7  1  0
  7  8  1  0
  8  9  1  0
  9 10  1  0
 10 11  1  0
 10 12  1  0
 12 13  1  0
 13 14  2  0
 13 15  1  0
 15 16  1  0
 16 17  2  0
 17 18  1  0
 18 19  1  0
 18 20  2  0
 20 21  1  0
 21 22  1  0
 21 23  2  0
 23 16  1  0
  1 24  1  0
  1 25  1  0
  1 26  1  0
  2 27  1  0
  2 28  1  0
  4 29  1  0
  4 30  1  0
  5 31  1  0
  5 32  1  0
  5 33  1  0
  6 34  1  0
  6 35  1  0
  7 36  1  0
  7 37  1  0
  9 38  1  0
  9 39  1  0
 10 40  1  6
 11 41  1  0
 11 42  1  0
 11 43  1  0
 12 44  1  0
 15 45  1  0
 15 46  1  0
 17 47  1  0
 20 48  1  0
 23 49  1  0
M  END
>  <smiles>  (19) 
CCN(CC)CCOCC(C)NC(=O)Cc1cc(Cl)cc(Cl)c1

>  <score_type>  (19) 
oracle

>  <origin>  (19) 
adg

>  <m_score__min__energy>  (19) 
-8.2699999999999996

>  <m_primary>  (19) 
energy

$$$$
20:0
     RDKit          3D

 54 57  0  0  0  0  0  0  0  0999 V2000
   -4.2680   24.5760  -26.8280 C   0  0  0  0  0  0  0  0  0  0  0  0
   -4.2300   24.0940  -28.1850 N   0  0  0  0  0  0  0  0  0  0  0  0
   -5.0260   24.6280  -29.1310 N   0  0  0  0  0  0  0  0  0  0  0  0
   -4.7730   24.0560  -30.3150 C   0  0  0  0  0  0  0  0  0  0  0  0
   -5.4220   24.3850  -31.4820 O   0  0  0  0  0  0  0  0  0  0  0  0
   -5.6780   23.4470  -32.5160 C   0  0  0  0  0  0  0  0  0  0  0  0
   -6.6200   22.3980  -32.0540 C   0  0  0  0  0  0  0  0  0  0  0  0
   -7.6930   22.6890  -31.2200 C   0  0  0  0  0  0  0  0  0  0  0  0
   -8.5240   21.6490  -30.8350 C   0  0  0  0  0  0  0  0  0  0  0  0
   -8.2880   20.3450  -31.2760 C   0  0  0  0  0  0  0  0  0  0  0  0
   -9.1070   19.3160  -30.8970 F   0  0  0  0  0  0  0  0  0  0  0  0
   -7.2220   20.0560  -32.1030 C   0  0  0  0  0  0  0  0  0  0  0  0
   -6.3910   21.1050  -32.4860 C   0  0  0  0  0  0  0  0  0  0  0  0
   -3.7800   23.1330  -30.0770 C   0  0  0  0  0  0  0  0  0  0  0  0
   -3.0350   22.0260  -31.4380 Br  0  0  0  0  0  0  0  0  0  0  0  0
   -3.4390   23.1620  -28.7170 C   0  0  0  0  0  0  0  0  0  0  0  0
   -2.3720   22.3450  -28.1860 C   0  0  0  0  0  0  0  0  0  0  0  0
   -2.7000   21.0040  -27.9530 C   0  0  0  0  0  0  0  0  0  0  0  0
   -1.8260   20.1060  -27.3990 C   0  0  0  0  0  0  0  0  0  0  0  0
   -0.5720   20.5680  -27.0650 C   0  0  0  0  0  0  0  0  0  0  0  0
   -0.2480   21.8860  -27.2930 C   0  0  0  0  0  0  0  0  0  0  0  0
   -1.1200   22.8080  -27.8510 C   0  0  0  0  0  0  0  0  0  0  0  0
   -0.5990   24.4360  -28.0110 S   0  0  0  0  0  0  0  0  0  0  0  0
    0.8460   24.5370  -28.4590 O   0  0  0  0  0  0  0  0  0  0  0  0
   -1.3820   25.0850  -29.1540 O   0  0  0  0  0  0  0  0  0  0  0  0
   -0.7640   25.4310  -26.6770 N   0  0  0  0  0  0  0  0  0  0  0  0
   -1.3790   24.9440  -25.5010 C   0  0  0  0  0  0  0  0  0  0  0  0
   -0.4750   25.4260  -24.3450 C   0  0  0  0  0  0  0  0  0  0  0  0
   -0.5320   26.9340  -24.3710 C   0  0  0  0  0  0  0  0  0  0  0  0
   -1.2190   27.5280  -25.5510 C   0  0  0  0  0  0  0  0  0  0  0  0
   -0.8500   26.8340  -26.8740 C   0  0  0  0  0  0  0  0  0  0  0  0
   -4.2009   23.7248  -26.1345 H   0  0  0  0  0  0  0  0  0  0  0  0
   -3.4207   25.2562  -26.6566 H   0  0  0  0  0  0  0  0  0  0  0  0
   -5.2114   25.1151  -26.6566 H   0  0  0  0  0  0  0  0  0  0  0  0
   -6.1164   23.9711  -33.3780 H   0  0  0  0  0  0  0  0  0  0  0  0
   -4.7294   22.9685  -32.8009 H   0  0  0  0  0  0  0  0  0  0  0  0
   -7.8776   23.7170  -30.8749 H   0  0  0  0  0  0  0  0  0  0  0  0
   -9.3795   21.8529  -30.1743 H   0  0  0  0  0  0  0  0  0  0  0  0
   -7.0347   19.0287  -32.4489 H   0  0  0  0  0  0  0  0  0  0  0  0
   -5.5348   20.9009  -33.1457 H   0  0  0  0  0  0  0  0  0  0  0  0
   -3.7064   20.6551  -28.2275 H   0  0  0  0  0  0  0  0  0  0  0  0
   -2.1141   19.0583  -27.2278 H   0  0  0  0  0  0  0  0  0  0  0  0
    0.1670   19.8867  -26.6181 H   0  0  0  0  0  0  0  0  0  0  0  0
    0.7605   22.2274  -27.0167 H   0  0  0  0  0  0  0  0  0  0  0  0
   -2.3931   25.3569  -25.3961 H   0  0  0  0  0  0  0  0  0  0  0  0
   -1.4834   23.8490  -25.5136 H   0  0  0  0  0  0  0  0  0  0  0  0
   -0.8499   25.0462  -23.3831 H   0  0  0  0  0  0  0  0  0  0  0  0
    0.5559   25.0604  -24.4614 H   0  0  0  0  0  0  0  0  0  0  0  0
   -1.0608   27.2690  -23.4665 H   0  0  0  0  0  0  0  0  0  0  0  0
    0.5123   27.2754  -24.4253 H   0  0  0  0  0  0  0  0  0  0  0  0
   -2.3057   27.4445  -25.4026 H   0  0  0  0  0  0  0  0  0  0  0  0
   -0.8943   28.5762  -25.6276 H   0  0  0  0  0  0  0  0  0  0  0  0
   -1.6226   27.0498  -27.6267 H   0  0  0  0  0  0  0  0  0  0  0  0
    0.1234   27.2109  -27.2210 H   0  0  0  0  0  0  0  0  0  0  0  0
  1  2  1  0
  2  3  1  0
  3  4  2  0
  4  5  1  0
  5  6  1  0
  6  7  1  0
  7  8  2  0
  8  9  1  0
  9 10  2  0
 10 11  1  0
 10 12  1  0
 12 13  2  0
  4 14  1  0
 14 15  1  0
 14 16  2  0
 16 17  1  0
 17 18  2  0
 18 19  1  0
 19 20  2  0
 20 21  1  0
 21 22  2  0
 22 23  1  0
 23 24  2  0
 23 25  2  0
 23 26  1  0
 26 27  1  0
 27 28  1  0
 28 29  1  0
 29 30  1  0
 30 31  1  0
 16  2  1  0
 22 17  1  0
 31 26  1  0
 13  7  1  0
  1 32  1  0
  1 33  1  0
  1 34  1  0
  6 35  1  0
  6 36  1  0
  8 37  1  0
  9 38  1  0
 12 39  1  0
 13 40  1  0
 18 41  1  0
 19 42  1  0
 20 43  1  0
 21 44  1  0
 27 45  1  0
 27 46  1  0
 28 47  1  0
 28 48  1  0
 29 49  1  0
 29 50  1  0
 30 51  1  0
 30 52  1  0
 31 53  1  0
 31 54  1  0
M  END
>  <smiles>  (20) 
Cn1nc(OCc2ccc(F)cc2)c(Br)c1-c1ccccc1S(=O)(=O)N1CCCCC1

>  <score_type>  (20) 
oracle

>  <origin>  (20) 
adg

>  <m_score__min__energy>  (20) 
-10.789999999999999

>  <m_primary>  (20) 
energy

$$$$
21:0
     RDKit          3D

 51 51  0  0  1  0  0  0  0  0999 V2000
   -3.9640   24.5560  -27.1310 C   0  0  0  0  0  0  0  0  0  0  0  0
   -3.7480   23.0850  -27.4640 C   0  0  0  0  0  0  0  0  0  0  0  0
   -4.1000   22.8340  -28.8670 N   0  0  0  0  0  0  0  0  0  0  0  0
   -5.4590   23.2440  -29.0110 C   0  0  0  0  0  0  0  0  0  0  0  0
   -5.7220   24.3370  -29.9910 C   0  0  2  0  0  0  0  0  0  0  0  0
   -6.8380   24.0880  -30.9410 C   0  0  0  0  0  0  0  0  0  0  0  0
   -7.5950   22.9340  -30.6370 O   0  0  0  0  0  0  0  0  0  0  0  0
   -7.4580   21.7050  -31.2130 C   0  0  0  0  0  0  0  0  0  0  0  0
   -8.4550   20.7570  -31.2190 C   0  0  0  0  0  0  0  0  0  0  0  0
   -8.2910   19.5150  -31.8120 C   0  0  0  0  0  0  0  0  0  0  0  0
   -7.1030   19.1790  -32.4280 C   0  0  0  0  0  0  0  0  0  0  0  0
   -6.8060   17.4930  -33.2610 Br  0  0  0  0  0  0  0  0  0  0  0  0
   -6.1020   20.1280  -32.4220 C   0  0  0  0  0  0  0  0  0  0  0  0
   -6.2680   21.3710  -31.8280 C   0  0  0  0  0  0  0  0  0  0  0  0
   -4.5150   24.4580  -30.8050 N   0  0  0  0  0  0  0  0  0  0  0  0
   -3.8720   25.6740  -30.7880 O   0  0  0  0  0  0  0  0  0  0  0  0
   -4.0630   23.4990  -31.5050 N   0  0  0  0  0  0  0  0  0  0  0  0
   -2.7500   23.1440  -31.3100 O   0  0  0  0  0  0  0  0  0  0  0  0
   -2.4950   21.7700  -31.1640 C   0  0  0  0  0  0  0  0  0  0  0  0
   -1.4840   21.5240  -30.0290 C   0  0  0  0  0  0  0  0  0  0  0  0
   -1.3300   22.7190  -29.3990 O   0  0  0  0  0  0  0  0  0  0  0  0
   -0.1870   22.9480  -28.6890 C   0  0  0  0  0  0  0  0  0  0  0  0
   -0.2750   24.2510  -27.9550 C   0  0  0  0  0  0  0  0  0  0  0  0
   -0.7980   25.3060  -28.6600 O   0  0  0  0  0  0  0  0  0  0  0  0
   -0.8610   26.4370  -27.8710 C   0  0  0  0  0  0  0  0  0  0  0  0
   -3.9831   24.6857  -26.0388 H   0  0  0  0  0  0  0  0  0  0  0  0
   -3.1438   25.1526  -27.5569 H   0  0  0  0  0  0  0  0  0  0  0  0
   -4.9211   24.8917  -27.5569 H   0  0  0  0  0  0  0  0  0  0  0  0
   -2.6916   22.8253  -27.3008 H   0  0  0  0  0  0  0  0  0  0  0  0
   -4.3868   22.4687  -26.8143 H   0  0  0  0  0  0  0  0  0  0  0  0
   -3.4000   23.3500  -29.4250 H   0  0  0  0  0  0  0  0  0  0  0  0
   -6.0420   22.3656  -29.3250 H   0  0  0  0  0  0  0  0  0  0  0  0
   -5.7454   23.6548  -28.0316 H   0  0  0  0  0  0  0  0  0  0  0  0
   -5.9960   25.2264  -29.4045 H   0  0  0  0  0  0  0  0  0  0  0  0
   -7.5099   24.9588  -30.9236 H   0  0  0  0  0  0  0  0  0  0  0  0
   -6.3875   23.9257  -31.9313 H   0  0  0  0  0  0  0  0  0  0  0  0
   -9.4151   20.9928  -30.7367 H   0  0  0  0  0  0  0  0  0  0  0  0
   -9.1172   18.7891  -31.7913 H   0  0  0  0  0  0  0  0  0  0  0  0
   -5.1415   19.8919  -32.9034 H   0  0  0  0  0  0  0  0  0  0  0  0
   -5.4427   22.0979  -31.8473 H   0  0  0  0  0  0  0  0  0  0  0  0
   -3.4358   21.2507  -30.9290 H   0  0  0  0  0  0  0  0  0  0  0  0
   -2.0729   21.3858  -32.1043 H   0  0  0  0  0  0  0  0  0  0  0  0
   -1.8718   20.7698  -29.3285 H   0  0  0  0  0  0  0  0  0  0  0  0
   -0.5264   21.1467  -30.4171 H   0  0  0  0  0  0  0  0  0  0  0  0
   -0.0424   22.1336  -27.9639 H   0  0  0  0  0  0  0  0  0  0  0  0
    0.6619   22.9906  -29.3872 H   0  0  0  0  0  0  0  0  0  0  0  0
   -0.9049   24.0948  -27.0669 H   0  0  0  0  0  0  0  0  0  0  0  0
    0.7635   24.5331  -27.7273 H   0  0  0  0  0  0  0  0  0  0  0  0
   -0.8448   26.1456  -26.8104 H   0  0  0  0  0  0  0  0  0  0  0  0
    0.0025   27.0833  -28.0869 H   0  0  0  0  0  0  0  0  0  0  0  0
   -1.7910   26.9834  -28.0869 H   0  0  0  0  0  0  0  0  0  0  0  0
  1  2  1  0
  2  3  1  0
  3  4  1  0
  4  5  1  0
  5  6  1  0
  6  7  1  0
  7  8  1  0
  8  9  2  0
  9 10  1  0
 10 11  2  0
 11 12  1  0
 11 13  1  0
 13 14  2  0
  5 15  1  0
 15 16  1  0
 15 17  2  0
 17 18  1  0
 18 19  1  0
 19 20  1  0
 20 21  1  0
 21 22  1  0
 22 23  1  0
 23 24  1  0
 24 25  1  0
 14  8  1  0
  1 26  1  0
  1 27  1  0
  1 28  1  0
  2 29  1  0
  2 30  1  0
  3 31  1  0
  4 32  1  0
  4 33  1  0
  5 34  1  1
  6 35  1  0
  6 36  1  0
  9 37  1  0
 10 38  1  0
 13 39  1  0
 14 40  1  0
 19 41  1  0
 19 42  1  0
 20 43  1  0
 20 44  1  0
 22 45  1  0
 22 46  1  0
 23 47  1  0
 23 48  1  0
 25 49  1  0
 25 50  1  0
 25 51  1  0
M  CHG  2  15   1  16  -1
M  END
>  <smiles>  (21) 
CCNCC(COc1ccc(Br)cc1)[N+]([O-])=NOCCOCCOC

>  <score_type>  (21) 
oracle

>  <origin>  (21) 
adg

>  <m_score__min__energy>  (21) 
-8.1500000000000004

>  <m_primary>  (21) 
energy

$$$$
22:0
     RDKit          3D

 53 55  0  0  0  0  0  0  0  0999 V2000
   -6.2720   25.5120  -29.5810 C   0  0  0  0  0  0  0  0  0  0  0  0
   -5.4660   25.3440  -30.8440 C   0  0  0  0  0  0  0  0  0  0  0  0
   -4.0990   25.0240  -30.5140 N   0  0  0  0  0  0  0  0  0  0  0  0
   -3.9790   23.8320  -29.6930 C   0  0  0  0  0  0  0  0  0  0  0  0
   -4.6160   22.7090  -30.5190 C   0  0  0  0  0  0  0  0  0  0  0  0
   -3.8500   22.5340  -31.8280 C   0  0  0  0  0  0  0  0  0  0  0  0
   -4.7960   22.0780  -32.8140 N   0  0  0  0  0  0  0  0  0  0  0  0
   -5.0360   20.7020  -32.9650 C   0  0  0  0  0  0  0  0  0  0  0  0
   -3.9410   19.9160  -33.3470 C   0  0  0  0  0  0  0  0  0  0  0  0
   -2.7160   20.5290  -33.5470 C   0  0  0  0  0  0  0  0  0  0  0  0
   -1.5870   19.8400  -33.9170 C   0  0  0  0  0  0  0  0  0  0  0  0
   -1.7060   18.4790  -34.0900 C   0  0  0  0  0  0  0  0  0  0  0  0
   -2.9410   17.8520  -33.8900 C   0  0  0  0  0  0  0  0  0  0  0  0
   -4.0660   18.5450  -33.5210 C   0  0  0  0  0  0  0  0  0  0  0  0
   -5.2710   17.9430  -33.3200 N   0  0  0  0  0  0  0  0  0  0  0  0
   -5.3930   16.5160  -33.5250 C   0  0  0  0  0  0  0  0  0  0  0  0
   -6.3290   18.6970  -32.9510 C   0  0  0  0  0  0  0  0  0  0  0  0
   -7.5810   18.1290  -32.7300 C   0  0  0  0  0  0  0  0  0  0  0  0
   -8.6740   18.8930  -32.3520 C   0  0  0  0  0  0  0  0  0  0  0  0
   -8.5620   20.2530  -32.1790 C   0  0  0  0  0  0  0  0  0  0  0  0
   -7.3300   20.8360  -32.3930 C   0  0  0  0  0  0  0  0  0  0  0  0
   -7.2010   22.1840  -32.2290 O   0  0  0  0  0  0  0  0  0  0  0  0
   -8.0640   23.0640  -31.5880 C   0  0  0  0  0  0  0  0  0  0  0  0
   -9.2990   23.4220  -32.3430 C   0  0  0  0  0  0  0  0  0  0  0  0
   -6.2410   20.0720  -32.7680 C   0  0  0  0  0  0  0  0  0  0  0  0
   -5.6175   25.3756  -28.7075 H   0  0  0  0  0  0  0  0  0  0  0  0
   -6.7100   26.5207  -29.5570 H   0  0  0  0  0  0  0  0  0  0  0  0
   -7.0765   24.7622  -29.5570 H   0  0  0  0  0  0  0  0  0  0  0  0
   -5.8962   24.5300  -31.4459 H   0  0  0  0  0  0  0  0  0  0  0  0
   -5.4904   26.2825  -31.4172 H   0  0  0  0  0  0  0  0  0  0  0  0
   -3.4810   24.8840  -31.3440 H   0  0  0  0  0  0  0  0  0  0  0  0
   -2.9213   23.6087  -29.4895 H   0  0  0  0  0  0  0  0  0  0  0  0
   -4.4711   23.9540  -28.7168 H   0  0  0  0  0  0  0  0  0  0  0  0
   -4.5817   21.7700  -29.9471 H   0  0  0  0  0  0  0  0  0  0  0  0
   -5.6616   22.9687  -30.7411 H   0  0  0  0  0  0  0  0  0  0  0  0
   -3.4123   23.4936  -32.1403 H   0  0  0  0  0  0  0  0  0  0  0  0
   -3.0298   21.8109  -31.7082 H   0  0  0  0  0  0  0  0  0  0  0  0
   -5.3340   22.7400  -33.4470 H   0  0  0  0  0  0  0  0  0  0  0  0
   -2.6436   21.6171  -33.4031 H   0  0  0  0  0  0  0  0  0  0  0  0
   -0.6267   20.3544  -34.0690 H   0  0  0  0  0  0  0  0  0  0  0  0
   -0.8293   17.8840  -34.3857 H   0  0  0  0  0  0  0  0  0  0  0  0
   -3.0123   16.7638  -34.0339 H   0  0  0  0  0  0  0  0  0  0  0  0
   -5.4364   16.0079  -32.5503 H   0  0  0  0  0  0  0  0  0  0  0  0
   -6.3125   16.3041  -34.0903 H   0  0  0  0  0  0  0  0  0  0  0  0
   -4.5228   16.1511  -34.0903 H   0  0  0  0  0  0  0  0  0  0  0  0
   -7.7061   17.0438  -32.8590 H   0  0  0  0  0  0  0  0  0  0  0  0
   -9.6457   18.4043  -32.1879 H   0  0  0  0  0  0  0  0  0  0  0  0
   -9.4299   20.8584  -31.8786 H   0  0  0  0  0  0  0  0  0  0  0  0
   -8.3705   22.6044  -30.6368 H   0  0  0  0  0  0  0  0  0  0  0  0
   -7.5023   24.0022  -31.4689 H   0  0  0  0  0  0  0  0  0  0  0  0
  -10.1070   23.6562  -31.6343 H   0  0  0  0  0  0  0  0  0  0  0  0
   -9.1005   24.2996  -32.9758 H   0  0  0  0  0  0  0  0  0  0  0  0
   -9.6006   22.5743  -32.9758 H   0  0  0  0  0  0  0  0  0  0  0  0
  1  2  1  0
  2  3  1  0
  3  4  1  0
  4  5  1  0
  5  6  1  0
  6  7  1  0
  7  8  1  0
  8  9  2  0
  9 10  1  0
 10 11  2  0
 11 12  1  0
 12 13  2  0
 13 14  1  0
 14 15  2  0
 15 16  1  0
 15 17  1  0
 17 18  2  0
 18 19  1  0
 19 20  2  0
 20 21  1  0
 21 22  1  0
 22 23  1  0
 23 24  1  0
 21 25  2  0
 25  8  1  0
 14  9  1  0
 25 17  1  0
  1 26  1  0
  1 27  1  0
  1 28  1  0
  2 29  1  0
  2 30  1  0
  3 31  1  0
  4 32  1  0
  4 33  1  0
  5 34  1  0
  5 35  1  0
  6 36  1  0
  6 37  1  0
  7 38  1  0
 10 39  1  0
 11 40  1  0
 12 41  1  0
 13 42  1  0
 16 43  1  0
 16 44  1  0
 16 45  1  0
 18 46  1  0
 19 47  1  0
 20 48  1  0
 23 49  1  0
 23 50  1  0
 24 51  1  0
 24 52  1  0
 24 53  1  0
M  CHG  1  15   1
M  END
>  <smiles>  (22) 
CCNCCCNc1c2ccccc2[n+](C)c2cccc(OCC)c12

>  <score_type>  (22) 
oracle

>  <origin>  (22) 
adg

>  <m_score__min__energy>  (22) 
-9.1600000000000001

>  <m_primary>  (22) 
energy

$$$$
23:0
     RDKit          3D

 63 65  0  0  0  0  0  0  0  0999 V2000
   -5.9690   24.9630  -29.6630 C   0  0  0  0  0  0  0  0  0  0  0  0
   -5.3180   24.8450  -31.0470 C   0  0  0  0  0  0  0  0  0  0  0  0
   -4.0500   24.1480  -30.8400 N   0  0  0  0  0  0  0  0  0  0  0  0
   -3.4570   24.5230  -29.5750 C   0  0  0  0  0  0  0  0  0  0  0  0
   -2.1190   23.8580  -29.3500 C   0  0  0  0  0  0  0  0  0  0  0  0
   -4.1440   22.7680  -31.0900 C   0  0  0  0  0  0  0  0  0  0  0  0
   -3.7360   22.3180  -32.5200 C   0  0  0  0  0  0  0  0  0  0  0  0
   -4.7090   21.4820  -33.1290 N   0  0  0  0  0  0  0  0  0  0  0  0
   -5.7520   20.6640  -32.6990 C   0  0  0  0  0  0  0  0  0  0  0  0
   -6.9830   21.1500  -32.2980 C   0  0  0  0  0  0  0  0  0  0  0  0
   -7.2420   22.4830  -32.0810 C   0  0  0  0  0  0  0  0  0  0  0  0
   -8.4410   22.9980  -31.6780 C   0  0  0  0  0  0  0  0  0  0  0  0
   -9.5020   22.1620  -31.4580 C   0  0  0  0  0  0  0  0  0  0  0  0
   -9.3020   20.8130  -31.6580 C   0  0  0  0  0  0  0  0  0  0  0  0
   -8.0710   20.3000  -32.0690 C   0  0  0  0  0  0  0  0  0  0  0  0
   -7.9350   18.9520  -32.2370 N   0  0  0  0  0  0  0  0  0  0  0  0
   -9.1270   18.1810  -31.9710 C   0  0  0  0  0  0  0  0  0  0  0  0
   -6.7550   18.4490  -32.6160 C   0  0  0  0  0  0  0  0  0  0  0  0
   -6.6410   17.0960  -32.7580 C   0  0  0  0  0  0  0  0  0  0  0  0
   -5.4580   16.4550  -33.1180 C   0  0  0  0  0  0  0  0  0  0  0  0
   -4.3680   17.2620  -33.3260 C   0  0  0  0  0  0  0  0  0  0  0  0
   -4.4880   18.6440  -33.1780 C   0  0  0  0  0  0  0  0  0  0  0  0
   -3.2220   19.3060  -33.0270 N   0  0  0  0  0  0  0  0  0  0  0  0
   -2.3350   19.5610  -34.1650 C   0  0  0  0  0  0  0  0  0  0  0  0
   -1.1870   20.4090  -33.7290 C   0  0  0  0  0  0  0  0  0  0  0  0
   -1.0490   20.8300  -32.5940 O   0  0  0  0  0  0  0  0  0  0  0  0
   -0.1720   20.7530  -34.7280 C   0  0  0  0  0  0  0  0  0  0  0  0
    0.1520   22.1020  -34.7470 O   0  0  0  0  0  0  0  0  0  0  0  0
    1.1340   22.3000  -35.7280 C   0  0  0  0  0  0  0  0  0  0  0  0
   -5.6600   19.2780  -32.8420 C   0  0  0  0  0  0  0  0  0  0  0  0
   -5.2039   24.8243  -28.8849 H   0  0  0  0  0  0  0  0  0  0  0  0
   -6.4248   25.9584  -29.5558 H   0  0  0  0  0  0  0  0  0  0  0  0
   -6.7451   24.1909  -29.5558 H   0  0  0  0  0  0  0  0  0  0  0  0
   -5.9644   24.2685  -31.7251 H   0  0  0  0  0  0  0  0  0  0  0  0
   -5.1634   25.8335  -31.5042 H   0  0  0  0  0  0  0  0  0  0  0  0
   -3.3170   25.6139  -29.5594 H   0  0  0  0  0  0  0  0  0  0  0  0
   -4.1356   24.1938  -28.7742 H   0  0  0  0  0  0  0  0  0  0  0  0
   -1.9326   23.7654  -28.2699 H   0  0  0  0  0  0  0  0  0  0  0  0
   -2.1249   22.8580  -29.8082 H   0  0  0  0  0  0  0  0  0  0  0  0
   -1.3254   24.4665  -29.8082 H   0  0  0  0  0  0  0  0  0  0  0  0
   -3.4921   22.2484  -30.3723 H   0  0  0  0  0  0  0  0  0  0  0  0
   -5.2092   22.5141  -30.9859 H   0  0  0  0  0  0  0  0  0  0  0  0
   -3.5996   23.2127  -33.1452 H   0  0  0  0  0  0  0  0  0  0  0  0
   -2.8058   21.7373  -32.4333 H   0  0  0  0  0  0  0  0  0  0  0  0
   -4.7350   21.6740  -34.2180 H   0  0  0  0  0  0  0  0  0  0  0  0
   -6.4169   23.1917  -32.2453 H   0  0  0  0  0  0  0  0  0  0  0  0
   -8.5537   24.0822  -31.5306 H   0  0  0  0  0  0  0  0  0  0  0  0
  -10.4780   22.5521  -31.1337 H   0  0  0  0  0  0  0  0  0  0  0  0
  -10.1386   20.1193  -31.4884 H   0  0  0  0  0  0  0  0  0  0  0  0
   -9.2692   18.0890  -30.8841 H   0  0  0  0  0  0  0  0  0  0  0  0
   -9.9976   18.6875  -32.4131 H   0  0  0  0  0  0  0  0  0  0  0  0
   -9.0220   17.1793  -32.4131 H   0  0  0  0  0  0  0  0  0  0  0  0
   -7.5329   16.4778  -32.5781 H   0  0  0  0  0  0  0  0  0  0  0  0
   -5.4007   15.3622  -33.2294 H   0  0  0  0  0  0  0  0  0  0  0  0
   -3.4012   16.8201  -33.6089 H   0  0  0  0  0  0  0  0  0  0  0  0
   -2.7770   19.5370  -32.1150 H   0  0  0  0  0  0  0  0  0  0  0  0
   -1.9558   18.6046  -34.5543 H   0  0  0  0  0  0  0  0  0  0  0  0
   -2.8957   20.0849  -34.9531 H   0  0  0  0  0  0  0  0  0  0  0  0
    0.7404   20.1790  -34.5090 H   0  0  0  0  0  0  0  0  0  0  0  0
   -0.5930   20.5078  -35.7142 H   0  0  0  0  0  0  0  0  0  0  0  0
    2.1021   22.4952  -35.2436 H   0  0  0  0  0  0  0  0  0  0  0  0
    1.2127   21.3996  -36.3550 H   0  0  0  0  0  0  0  0  0  0  0  0
    0.8576   23.1605  -36.3550 H   0  0  0  0  0  0  0  0  0  0  0  0
  1  2  1  0
  2  3  1  0
  3  4  1  0
  4  5  1  0
  3  6  1  0
  6  7  1  0
  7  8  1  0
  8  9  1  0
  9 10  2  0
 10 11  1  0
 11 12  2  0
 12 13  1  0
 13 14  2  0
 14 15  1  0
 15 16  2  0
 16 17  1  0
 16 18  1  0
 18 19  2  0
 19 20  1  0
 20 21  2  0
 21 22  1  0
 22 23  1  0
 23 24  1  0
 24 25  1  0
 25 26  2  0
 25 27  1  0
 27 28  1  0
 28 29  1  0
 22 30  2  0
 30  9  1  0
 15 10  1  0
 30 18  1  0
  1 31  1  0
  1 32  1  0
  1 33  1  0
  2 34  1  0
  2 35  1  0
  4 36  1  0
  4 37  1  0
  5 38  1  0
  5 39  1  0
  5 40  1  0
  6 41  1  0
  6 42  1  0
  7 43  1  0
  7 44  1  0
  8 45  1  0
 11 46  1  0
 12 47  1  0
 13 48  1  0
 14 49  1  0
 17 50  1  0
 17 51  1  0
 17 52  1  0
 19 53  1  0
 20 54  1  0
 21 55  1  0
 23 56  1  0
 24 57  1  0
 24 58  1  0
 27 59  1  0
 27 60  1  0
 29 61  1  0
 29 62  1  0
 29 63  1  0
M  CHG  1  16   1
M  END
>  <smiles>  (23) 
CCN(CC)CCNc1c2ccccc2[n+](C)c2cccc(NCC(=O)COC)c12

>  <score_type>  (23) 
oracle

>  <origin>  (23) 
adg

>  <m_score__min__energy>  (23) 
-8.8499999999999996

>  <m_primary>  (23) 
energy

$$$$
24:0
     RDKit          3D

 54 56  0  0  0  0  0  0  0  0999 V2000
   -2.9470   18.9090  -26.4000 C   0  0  0  0  0  0  0  0  0  0  0  0
   -2.7230   19.9710  -27.4280 C   0  0  0  0  0  0  0  0  0  0  0  0
   -2.4290   21.2310  -26.8770 O   0  0  0  0  0  0  0  0  0  0  0  0
   -2.3490   22.4180  -27.5840 C   0  0  0  0  0  0  0  0  0  0  0  0
   -3.3920   22.9770  -28.2780 C   0  0  0  0  0  0  0  0  0  0  0  0
   -3.2770   24.1760  -28.9800 C   0  0  0  0  0  0  0  0  0  0  0  0
   -4.4630   24.7070  -29.7060 C   0  0  0  0  0  0  0  0  0  0  0  0
   -4.6020   24.0850  -30.9930 N   0  0  0  0  0  0  0  0  0  0  0  0
   -3.7290   22.9860  -31.2320 C   0  0  0  0  0  0  0  0  0  0  0  0
   -4.3000   21.9680  -32.1980 C   0  0  0  0  0  0  0  0  0  0  0  0
   -5.6110   21.5260  -31.7510 N   0  0  0  0  0  0  0  0  0  0  0  0
   -6.1830   20.3140  -32.2270 C   0  0  0  0  0  0  0  0  0  0  0  0
   -7.3940   19.8220  -31.8020 C   0  0  0  0  0  0  0  0  0  0  0  0
   -7.9430   18.6410  -32.2750 C   0  0  0  0  0  0  0  0  0  0  0  0
   -7.2540   17.8980  -33.2260 C   0  0  0  0  0  0  0  0  0  0  0  0
   -6.0400   18.3850  -33.6560 C   0  0  0  0  0  0  0  0  0  0  0  0
   -5.5010   19.5790  -33.1680 C   0  0  0  0  0  0  0  0  0  0  0  0
   -6.2890   22.3980  -30.7980 C   0  0  0  0  0  0  0  0  0  0  0  0
   -5.9760   23.8160  -31.2880 C   0  0  0  0  0  0  0  0  0  0  0  0
   -2.0570   24.7950  -28.9530 C   0  0  0  0  0  0  0  0  0  0  0  0
   -0.9770   24.2630  -28.2610 C   0  0  0  0  0  0  0  0  0  0  0  0
    0.2590   24.8650  -28.2180 O   0  0  0  0  0  0  0  0  0  0  0  0
    0.7780   25.5630  -27.1150 C   0  0  0  0  0  0  0  0  0  0  0  0
   -1.1260   23.0670  -27.5730 C   0  0  0  0  0  0  0  0  0  0  0  0
   -0.0430   22.5230  -26.8730 O   0  0  0  0  0  0  0  0  0  0  0  0
   -0.1100   22.6680  -25.4550 C   0  0  0  0  0  0  0  0  0  0  0  0
   -2.8548   19.3463  -25.3949 H   0  0  0  0  0  0  0  0  0  0  0  0
   -3.9543   18.4850  -26.5243 H   0  0  0  0  0  0  0  0  0  0  0  0
   -2.1967   18.1143  -26.5243 H   0  0  0  0  0  0  0  0  0  0  0  0
   -1.8814   19.6653  -28.0670 H   0  0  0  0  0  0  0  0  0  0  0  0
   -3.6599   20.0760  -27.9947 H   0  0  0  0  0  0  0  0  0  0  0  0
   -4.3611   22.4566  -28.2807 H   0  0  0  0  0  0  0  0  0  0  0  0
   -5.3669   24.5084  -29.1114 H   0  0  0  0  0  0  0  0  0  0  0  0
   -4.3273   25.7886  -29.8533 H   0  0  0  0  0  0  0  0  0  0  0  0
   -2.7868   23.3723  -31.6480 H   0  0  0  0  0  0  0  0  0  0  0  0
   -3.5776   22.4742  -30.2702 H   0  0  0  0  0  0  0  0  0  0  0  0
   -4.3917   22.4252  -33.1943 H   0  0  0  0  0  0  0  0  0  0  0  0
   -3.6260   21.0997  -32.2416 H   0  0  0  0  0  0  0  0  0  0  0  0
   -7.9553   20.3944  -31.0488 H   0  0  0  0  0  0  0  0  0  0  0  0
   -8.9173   18.2940  -31.9004 H   0  0  0  0  0  0  0  0  0  0  0  0
   -7.6631   16.9562  -33.6204 H   0  0  0  0  0  0  0  0  0  0  0  0
   -5.4753   17.8154  -34.4088 H   0  0  0  0  0  0  0  0  0  0  0  0
   -4.5272   19.9320  -33.5383 H   0  0  0  0  0  0  0  0  0  0  0  0
   -7.3735   22.2142  -30.8057 H   0  0  0  0  0  0  0  0  0  0  0  0
   -5.9545   22.2287  -29.7638 H   0  0  0  0  0  0  0  0  0  0  0  0
   -6.1465   23.8837  -32.3726 H   0  0  0  0  0  0  0  0  0  0  0  0
   -6.6276   24.5485  -30.7892 H   0  0  0  0  0  0  0  0  0  0  0  0
   -1.9278   25.7429  -29.4960 H   0  0  0  0  0  0  0  0  0  0  0  0
    0.4276   25.0917  -26.1849 H   0  0  0  0  0  0  0  0  0  0  0  0
    1.8772   25.5360  -27.1482 H   0  0  0  0  0  0  0  0  0  0  0  0
    0.4357   26.6079  -27.1482 H   0  0  0  0  0  0  0  0  0  0  0  0
    0.3051   21.7697  -24.9746 H   0  0  0  0  0  0  0  0  0  0  0  0
    0.4720   23.5498  -25.1487 H   0  0  0  0  0  0  0  0  0  0  0  0
   -1.1587   22.7963  -25.1487 H   0  0  0  0  0  0  0  0  0  0  0  0
  1  2  1  0
  2  3  1  0
  3  4  1  0
  4  5  2  0
  5  6  1  0
  6  7  1  0
  7  8  1  0
  8  9  1  0
  9 10  1  0
 10 11  1  0
 11 12  1  0
 12 13  2  0
 13 14  1  0
 14 15  2  0
 15 16  1  0
 16 17  2  0
 11 18  1  0
 18 19  1  0
  6 20  2  0
 20 21  1  0
 21 22  1  0
 22 23  1  0
 21 24  2  0
 24 25  1  0
 25 26  1  0
 24  4  1  0
 19  8  1  0
 17 12  1  0
  1 27  1  0
  1 28  1  0
  1 29  1  0
  2 30  1  0
  2 31  1  0
  5 32  1  0
  7 33  1  0
  7 34  1  0
  9 35  1  0
  9 36  1  0
 10 37  1  0
 10 38  1  0
 13 39  1  0
 14 40  1  0
 15 41  1  0
 16 42  1  0
 17 43  1  0
 18 44  1  0
 18 45  1  0
 19 46  1  0
 19 47  1  0
 20 48  1  0
 23 49  1  0
 23 50  1  0
 23 51  1  0
 26 52  1  0
 26 53  1  0
 26 54  1  0
M  END
>  <smiles>  (24) 
CCOc1cc(CN2CCN(c3ccccc3)CC2)cc(OC)c1OC

>  <score_type>  (24) 
oracle

>  <origin>  (24) 
adg

>  <m_score__min__energy>  (24) 
-7.79

>  <m_primary>  (24) 
energy

$$$$
25:0
     RDKit          3D

 32 34  0  0  0  0  0  0  0  0999 V2000
   -6.3930   17.4110  -31.5710 C   0  0  0  0  0  0  0  0  0  0  0  0
   -6.7450   17.1970  -33.0150 C   0  0  0  0  0  0  0  0  0  0  0  0
   -6.8600   18.4730  -33.7310 N   0  0  0  0  0  0  0  0  0  0  0  0
   -7.3810   19.5630  -33.0190 C   0  0  0  0  0  0  0  0  0  0  0  0
   -8.7480   19.5800  -32.7060 C   0  0  0  0  0  0  0  0  0  0  0  0
   -9.3530   20.6110  -32.0450 C   0  0  0  0  0  0  0  0  0  0  0  0
   -8.6560   21.7120  -31.6400 C   0  0  0  0  0  0  0  0  0  0  0  0
   -7.2930   21.7320  -31.9350 C   0  0  0  0  0  0  0  0  0  0  0  0
   -6.6820   20.6750  -32.6090 C   0  0  0  0  0  0  0  0  0  0  0  0
   -5.3370   20.7780  -32.8510 C   0  0  0  0  0  0  0  0  0  0  0  0
   -4.3880   19.5660  -33.6600 Cl  0  0  0  0  0  0  0  0  0  0  0  0
   -4.6700   21.9030  -32.4210 C   0  0  0  0  0  0  0  0  0  0  0  0
   -5.2710   22.9490  -31.7560 C   0  0  0  0  0  0  0  0  0  0  0  0
   -4.8340   24.1220  -31.2520 N   0  0  0  0  0  0  0  0  0  0  0  0
   -5.8610   24.7550  -30.7040 N   0  0  0  0  0  0  0  0  0  0  0  0
   -5.7440   26.0540  -30.0670 C   0  0  0  0  0  0  0  0  0  0  0  0
   -6.9770   23.9920  -30.8500 C   0  0  0  0  0  0  0  0  0  0  0  0
   -6.6130   22.8480  -31.5140 C   0  0  0  0  0  0  0  0  0  0  0  0
   -7.1592   16.9452  -30.9339 H   0  0  0  0  0  0  0  0  0  0  0  0
   -5.4144   16.9548  -31.3607 H   0  0  0  0  0  0  0  0  0  0  0  0
   -6.3475   18.4897  -31.3607 H   0  0  0  0  0  0  0  0  0  0  0  0
   -5.9598   16.5898  -33.4890 H   0  0  0  0  0  0  0  0  0  0  0  0
   -7.7166   16.6834  -33.0629 H   0  0  0  0  0  0  0  0  0  0  0  0
   -6.5410   18.4160  -34.7040 H   0  0  0  0  0  0  0  0  0  0  0  0
   -9.3638   18.7200  -33.0079 H   0  0  0  0  0  0  0  0  0  0  0  0
  -10.4309   20.5521  -31.8335 H   0  0  0  0  0  0  0  0  0  0  0  0
   -9.1444   22.5417  -31.1079 H   0  0  0  0  0  0  0  0  0  0  0  0
   -3.5904   21.9708  -32.6208 H   0  0  0  0  0  0  0  0  0  0  0  0
   -5.7553   25.9288  -28.9742 H   0  0  0  0  0  0  0  0  0  0  0  0
   -4.7995   26.5282  -30.3720 H   0  0  0  0  0  0  0  0  0  0  0  0
   -6.5886   26.6894  -30.3720 H   0  0  0  0  0  0  0  0  0  0  0  0
   -7.9882   24.2460  -30.4993 H   0  0  0  0  0  0  0  0  0  0  0  0
  1  2  1  0
  2  3  1  0
  3  4  1  0
  4  5  2  0
  5  6  1  0
  6  7  2  0
  7  8  1  0
  8  9  2  0
  9 10  1  0
 10 11  1  0
 10 12  2  0
 12 13  1  0
 13 14  2  0
 14 15  1  0
 15 16  1  0
 15 17  1  0
 17 18  2  0
  9  4  1  0
 18 13  1  0
 18  8  1  0
  1 19  1  0
  1 20  1  0
  1 21  1  0
  2 22  1  0
  2 23  1  0
  3 24  1  0
  5 25  1  0
  6 26  1  0
  7 27  1  0
 12 28  1  0
 16 29  1  0
 16 30  1  0
 16 31  1  0
 17 32  1  0
M  END
>  <smiles>  (25) 
CCNc1cccc2c1c(Cl)cc1nn(C)cc12

>  <score_type>  (25) 
oracle

>  <origin>  (25) 
adg

>  <m_score__min__energy>  (25) 
-8.1799999999999997

>  <m_primary>  (25) 
energy

$$$$
26:0
     RDKit          3D

 42 44  0  0  0  0  0  0  0  0999 V2000
   -3.9600   23.2050  -29.2920 C   0  0  0  0  0  0  0  0  0  0  0  0
   -3.4780   24.2850  -30.2270 C   0  0  0  0  0  0  0  0  0  0  0  0
   -4.4660   25.0510  -30.8580 N   0  0  0  0  0  0  0  0  0  0  0  0
   -5.8410   24.6870  -30.6730 C   0  0  0  0  0  0  0  0  0  0  0  0
   -6.3240   24.1770  -32.0050 C   0  0  0  0  0  0  0  0  0  0  0  0
   -6.1000   22.7690  -32.2790 C   0  0  0  0  0  0  0  0  0  0  0  0
   -4.8520   22.2840  -32.6450 C   0  0  0  0  0  0  0  0  0  0  0  0
   -4.6000   20.9660  -32.9210 C   0  0  0  0  0  0  0  0  0  0  0  0
   -3.2770   20.4530  -33.2790 C   0  0  0  0  0  0  0  0  0  0  0  0
   -3.0940   19.2070  -33.8330 C   0  0  0  0  0  0  0  0  0  0  0  0
   -1.8070   18.7490  -34.1560 C   0  0  0  0  0  0  0  0  0  0  0  0
   -0.6880   19.5550  -33.9190 C   0  0  0  0  0  0  0  0  0  0  0  0
   -0.8840   20.8090  -33.3590 C   0  0  0  0  0  0  0  0  0  0  0  0
    0.2060   21.5580  -33.1380 F   0  0  0  0  0  0  0  0  0  0  0  0
   -2.1750   21.2410  -33.0480 C   0  0  0  0  0  0  0  0  0  0  0  0
   -5.6540   20.0710  -32.8280 C   0  0  0  0  0  0  0  0  0  0  0  0
   -6.9110   20.5030  -32.4690 C   0  0  0  0  0  0  0  0  0  0  0  0
   -7.9520   19.5680  -32.3880 C   0  0  0  0  0  0  0  0  0  0  0  0
   -9.2150   19.9830  -32.0310 C   0  0  0  0  0  0  0  0  0  0  0  0
   -9.4590   21.3250  -31.7530 C   0  0  0  0  0  0  0  0  0  0  0  0
   -8.3990   22.2400  -31.8430 C   0  0  0  0  0  0  0  0  0  0  0  0
   -7.1260   21.8420  -32.1970 C   0  0  0  0  0  0  0  0  0  0  0  0
   -3.8151   23.5297  -28.2510 H   0  0  0  0  0  0  0  0  0  0  0  0
   -5.0285   23.0147  -29.4714 H   0  0  0  0  0  0  0  0  0  0  0  0
   -3.3881   22.2826  -29.4714 H   0  0  0  0  0  0  0  0  0  0  0  0
   -2.8431   24.9707  -29.6467 H   0  0  0  0  0  0  0  0  0  0  0  0
   -2.9564   23.7565  -31.0385 H   0  0  0  0  0  0  0  0  0  0  0  0
   -4.2110   25.6690  -31.6020 H   0  0  0  0  0  0  0  0  0  0  0  0
   -5.9276   23.9001  -29.9093 H   0  0  0  0  0  0  0  0  0  0  0  0
   -6.4398   25.5441  -30.3311 H   0  0  0  0  0  0  0  0  0  0  0  0
   -7.4073   24.3601  -32.0602 H   0  0  0  0  0  0  0  0  0  0  0  0
   -5.7305   24.7181  -32.7567 H   0  0  0  0  0  0  0  0  0  0  0  0
   -4.0184   22.9981  -32.7175 H   0  0  0  0  0  0  0  0  0  0  0  0
   -3.9650   18.5632  -34.0248 H   0  0  0  0  0  0  0  0  0  0  0  0
   -1.6773   17.7502  -34.5982 H   0  0  0  0  0  0  0  0  0  0  0  0
    0.3232   19.2026  -34.1708 H   0  0  0  0  0  0  0  0  0  0  0  0
   -2.3136   22.2388  -32.6063 H   0  0  0  0  0  0  0  0  0  0  0  0
   -5.4847   19.0056  -33.0430 H   0  0  0  0  0  0  0  0  0  0  0  0
   -7.7606   18.5075  -32.6087 H   0  0  0  0  0  0  0  0  0  0  0  0
  -10.0341   19.2518  -31.9652 H   0  0  0  0  0  0  0  0  0  0  0  0
  -10.4662   21.6626  -31.4675 H   0  0  0  0  0  0  0  0  0  0  0  0
   -8.5876   23.3017  -31.6258 H   0  0  0  0  0  0  0  0  0  0  0  0
  1  2  1  0
  2  3  1  0
  3  4  1  0
  4  5  1  0
  5  6  1  0
  6  7  2  0
  7  8  1  0
  8  9  1  0
  9 10  2  0
 10 11  1  0
 11 12  2  0
 12 13  1  0
 13 14  1  0
 13 15  2  0
  8 16  2  0
 16 17  1  0
 17 18  2  0
 18 19  1  0
 19 20  2  0
 20 21  1  0
 21 22  2  0
 22  6  1  0
 15  9  1  0
 22 17  1  0
  1 23  1  0
  1 24  1  0
  1 25  1  0
  2 26  1  0
  2 27  1  0
  3 28  1  0
  4 29  1  0
  4 30  1  0
  5 31  1  0
  5 32  1  0
  7 33  1  0
 10 34  1  0
 11 35  1  0
 12 36  1  0
 15 37  1  0
 16 38  1  0
 18 39  1  0
 19 40  1  0
 20 41  1  0
 21 42  1  0
M  END
>  <smiles>  (26) 
CCNCCc1cc(-c2cccc(F)c2)cc2ccccc12

>  <score_type>  (26) 
oracle

>  <origin>  (26) 
adg

>  <m_score__min__energy>  (26) 
-9.0500000000000007

>  <m_primary>  (26) 
energy

$$$$
27:0
     RDKit          3D

 42 43  0  0  1  0  0  0  0  0999 V2000
   -5.2210   25.6450  -30.4510 C   0  0  0  0  0  0  0  0  0  0  0  0
   -3.8600   25.3260  -30.5590 O   0  0  0  0  0  0  0  0  0  0  0  0
   -3.5770   24.1390  -29.8680 C   0  0  0  0  0  0  0  0  0  0  0  0
   -4.6070   23.1310  -30.2840 C   0  0  0  0  0  0  0  0  0  0  0  0
   -4.6050   22.7760  -31.6600 N   0  0  0  0  0  0  0  0  0  0  0  0
   -3.4460   22.1580  -32.1800 C   0  0  0  0  0  0  0  0  0  0  0  0
   -5.8670   22.4020  -32.1780 C   0  0  2  0  0  0  0  0  0  0  0  0
   -6.8690   23.4800  -32.3360 C   0  0  0  0  0  0  0  0  0  0  0  0
   -7.9730   23.1140  -31.3910 C   0  0  0  0  0  0  0  0  0  0  0  0
   -7.9390   21.7000  -31.2810 N   0  0  0  0  0  0  0  0  0  0  0  0
   -8.4830   20.9470  -32.3590 C   0  0  0  0  0  0  0  0  0  0  0  0
   -7.7210   19.7370  -32.7010 C   0  0  0  0  0  0  0  0  0  0  0  0
   -7.7920   18.5470  -32.0100 C   0  0  0  0  0  0  0  0  0  0  0  0
   -7.0560   17.4270  -32.3560 C   0  0  0  0  0  0  0  0  0  0  0  0
   -6.2180   17.5490  -33.4590 C   0  0  0  0  0  0  0  0  0  0  0  0
   -5.2310   16.1790  -33.9890 Cl  0  0  0  0  0  0  0  0  0  0  0  0
   -6.1110   18.7130  -34.1810 C   0  0  0  0  0  0  0  0  0  0  0  0
   -6.8700   19.8190  -33.8010 C   0  0  0  0  0  0  0  0  0  0  0  0
   -6.5210   21.4000  -31.2140 C   0  0  0  0  0  0  0  0  0  0  0  0
   -5.4991   25.7102  -29.3887 H   0  0  0  0  0  0  0  0  0  0  0  0
   -5.4109   26.6120  -30.9398 H   0  0  0  0  0  0  0  0  0  0  0  0
   -5.8208   24.8631  -30.9398 H   0  0  0  0  0  0  0  0  0  0  0  0
   -2.5706   23.7805  -30.1300 H   0  0  0  0  0  0  0  0  0  0  0  0
   -3.6055   24.3024  -28.7806 H   0  0  0  0  0  0  0  0  0  0  0  0
   -4.4382   22.2149  -29.6989 H   0  0  0  0  0  0  0  0  0  0  0  0
   -5.5816   23.6066  -30.0998 H   0  0  0  0  0  0  0  0  0  0  0  0
   -2.8083   21.8180  -31.3507 H   0  0  0  0  0  0  0  0  0  0  0  0
   -3.7362   21.2949  -32.7971 H   0  0  0  0  0  0  0  0  0  0  0  0
   -2.8910   22.8799  -32.7971 H   0  0  0  0  0  0  0  0  0  0  0  0
   -5.6292   22.0170  -33.1806 H   0  0  0  0  0  0  0  0  0  0  0  0
   -6.4357   24.4548  -32.0676 H   0  0  0  0  0  0  0  0  0  0  0  0
   -7.2223   23.5713  -33.3737 H   0  0  0  0  0  0  0  0  0  0  0  0
   -7.8047   23.5782  -30.4081 H   0  0  0  0  0  0  0  0  0  0  0  0
   -8.9492   23.4671  -31.7548 H   0  0  0  0  0  0  0  0  0  0  0  0
   -9.5047   20.6443  -32.0860 H   0  0  0  0  0  0  0  0  0  0  0  0
   -8.4507   21.5987  -33.2446 H   0  0  0  0  0  0  0  0  0  0  0  0
   -8.4654   18.4841  -31.1425 H   0  0  0  0  0  0  0  0  0  0  0  0
   -7.1302   16.4883  -31.7874 H   0  0  0  0  0  0  0  0  0  0  0  0
   -5.4356   18.7715  -35.0472 H   0  0  0  0  0  0  0  0  0  0  0  0
   -6.7969   20.7574  -34.3703 H   0  0  0  0  0  0  0  0  0  0  0  0
   -6.1421   21.5413  -30.1910 H   0  0  0  0  0  0  0  0  0  0  0  0
   -6.3020   20.3566  -31.4850 H   0  0  0  0  0  0  0  0  0  0  0  0
  1  2  1  0
  2  3  1  0
  3  4  1  0
  4  5  1  0
  5  6  1  0
  5  7  1  0
  7  8  1  0
  8  9  1  0
  9 10  1  0
 10 11  1  0
 11 12  1  0
 12 13  2  0
 13 14  1  0
 14 15  2  0
 15 16  1  0
 15 17  1  0
 17 18  2  0
 10 19  1  0
 19  7  1  0
 18 12  1  0
  1 20  1  0
  1 21  1  0
  1 22  1  0
  3 23  1  0
  3 24  1  0
  4 25  1  0
  4 26  1  0
  6 27  1  0
  6 28  1  0
  6 29  1  0
  7 30  1  6
  8 31  1  0
  8 32  1  0
  9 33  1  0
  9 34  1  0
 11 35  1  0
 11 36  1  0
 13 37  1  0
 14 38  1  0
 17 39  1  0
 18 40  1  0
 19 41  1  0
 19 42  1  0
M  END
>  <smiles>  (27) 
COCCN(C)C1CCN(Cc2ccc(Cl)cc2)C1

>  <score_type>  (27) 
oracle

>  <origin>  (27) 
adg

>  <m_score__min__energy>  (27) 
-7.96

>  <m_primary>  (27) 
energy

$$$$
