0:0
     RDKit          3D

 66 68  0  0  0  0  0  0  0  0999 V2000
   -6.9300   17.0480  -32.7710 C   0  0  0  0  0  0  0  0  0  0  0  0
   -5.4590   17.0520  -32.7510 N   0  0  0  0  0  0  0  0  0  0  0  0
   -4.9580   15.7330  -32.3310 C   0  0  0  0  0  0  0  0  0  0  0  0
   -4.8990   17.4490  -34.0660 C   0  0  0  0  0  0  0  0  0  0  0  0
   -4.9030   18.9790  -34.2020 C   0  0  0  0  0  0  0  0  0  0  0  0
   -4.0190   19.7040  -33.1670 C   0  0  0  0  0  0  0  0  0  0  0  0
   -4.5750   19.7030  -31.7940 N   0  0  0  0  0  0  0  0  0  0  0  0
   -5.2060   20.9710  -31.4440 C   0  0  0  0  0  0  0  0  0  0  0  0
   -6.5930   21.1690  -31.6940 C   0  0  0  0  0  0  0  0  0  0  0  0
   -7.3740   20.1990  -32.3750 C   0  0  0  0  0  0  0  0  0  0  0  0
   -8.7180   20.4240  -32.6570 C   0  0  0  0  0  0  0  0  0  0  0  0
   -9.3190   21.6150  -32.2790 C   0  0  0  0  0  0  0  0  0  0  0  0
   -8.5860   22.5800  -31.5960 C   0  0  0  0  0  0  0  0  0  0  0  0
   -7.2230   22.3680  -31.2580 C   0  0  0  0  0  0  0  0  0  0  0  0
   -6.5130   23.3010  -30.5320 N   0  0  0  0  0  0  0  0  0  0  0  0
   -7.2350   24.3640  -29.7940 C   0  0  0  0  0  0  0  0  0  0  0  0
   -5.1370   23.2260  -30.4640 C   0  0  0  0  0  0  0  0  0  0  0  0
   -4.3700   24.3250  -29.9980 C   0  0  0  0  0  0  0  0  0  0  0  0
   -2.9800   24.2330  -29.8370 C   0  0  0  0  0  0  0  0  0  0  0  0
   -2.1940   25.2900  -29.3480 O   0  0  0  0  0  0  0  0  0  0  0  0
   -1.0650   25.1660  -28.4810 C   0  0  0  0  0  0  0  0  0  0  0  0
   -1.1210   26.1770  -27.3080 C   0  0  0  0  0  0  0  0  0  0  0  0
   -1.6540   25.6490  -26.0130 N   0  0  0  0  0  0  0  0  0  0  0  0
   -3.0910   25.3010  -26.1260 C   0  0  0  0  0  0  0  0  0  0  0  0
   -0.9040   24.4100  -25.6850 C   0  0  0  0  0  0  0  0  0  0  0  0
   -1.4630   26.6140  -24.9040 C   0  0  0  0  0  0  0  0  0  0  0  0
   -2.3400   23.0500  -30.1770 C   0  0  0  0  0  0  0  0  0  0  0  0
   -3.0580   21.9740  -30.6880 C   0  0  0  0  0  0  0  0  0  0  0  0
   -4.4610   22.0410  -30.8710 C   0  0  0  0  0  0  0  0  0  0  0  0
   -7.3107   17.0470  -31.7390 H   0  0  0  0  0  0  0  0  0  0  0  0
   -7.2920   17.9452  -33.2945 H   0  0  0  0  0  0  0  0  0  0  0  0
   -7.2871   16.1489  -33.2945 H   0  0  0  0  0  0  0  0  0  0  0  0
   -4.9383   15.6811  -31.2324 H   0  0  0  0  0  0  0  0  0  0  0  0
   -5.6203   14.9473  -32.7234 H   0  0  0  0  0  0  0  0  0  0  0  0
   -3.9411   15.5851  -32.7234 H   0  0  0  0  0  0  0  0  0  0  0  0
   -3.8663   17.0793  -34.1481 H   0  0  0  0  0  0  0  0  0  0  0  0
   -5.5169   17.0151  -34.8659 H   0  0  0  0  0  0  0  0  0  0  0  0
   -4.5405   19.2376  -35.2079 H   0  0  0  0  0  0  0  0  0  0  0  0
   -5.9367   19.3111  -34.0253 H   0  0  0  0  0  0  0  0  0  0  0  0
   -3.0372   19.2085  -33.1430 H   0  0  0  0  0  0  0  0  0  0  0  0
   -3.9551   20.7555  -33.4838 H   0  0  0  0  0  0  0  0  0  0  0  0
   -5.2890   18.9440  -31.7210 H   0  0  0  0  0  0  0  0  0  0  0  0
   -3.8750   19.3940  -31.0910 H   0  0  0  0  0  0  0  0  0  0  0  0
   -6.9083   19.2520  -32.6855 H   0  0  0  0  0  0  0  0  0  0  0  0
   -9.3049   19.6553  -33.1810 H   0  0  0  0  0  0  0  0  0  0  0  0
  -10.3768   21.7970  -32.5195 H   0  0  0  0  0  0  0  0  0  0  0  0
   -9.0714   23.5255  -31.3122 H   0  0  0  0  0  0  0  0  0  0  0  0
   -7.1234   24.1998  -28.7121 H   0  0  0  0  0  0  0  0  0  0  0  0
   -6.8158   25.3453  -30.0611 H   0  0  0  0  0  0  0  0  0  0  0  0
   -8.3017   24.3360  -30.0611 H   0  0  0  0  0  0  0  0  0  0  0  0
   -4.8774   25.2709  -29.7575 H   0  0  0  0  0  0  0  0  0  0  0  0
   -1.0430   24.1459  -28.0700 H   0  0  0  0  0  0  0  0  0  0  0  0
   -0.1597   25.3773  -29.0691 H   0  0  0  0  0  0  0  0  0  0  0  0
   -0.0987   26.5409  -27.1280 H   0  0  0  0  0  0  0  0  0  0  0  0
   -1.8276   26.9589  -27.6233 H   0  0  0  0  0  0  0  0  0  0  0  0
   -3.5231   25.1963  -25.1199 H   0  0  0  0  0  0  0  0  0  0  0  0
   -3.6193   26.0972  -26.6710 H   0  0  0  0  0  0  0  0  0  0  0  0
   -3.1965   24.3513  -26.6710 H   0  0  0  0  0  0  0  0  0  0  0  0
   -0.8374   24.3000  -24.5925 H   0  0  0  0  0  0  0  0  0  0  0  0
   -1.4278   23.5410  -26.1097 H   0  0  0  0  0  0  0  0  0  0  0  0
    0.1088   24.4712  -26.1097 H   0  0  0  0  0  0  0  0  0  0  0  0
   -1.5664   26.0916  -23.9415 H   0  0  0  0  0  0  0  0  0  0  0  0
   -0.4594   27.0588  -24.9738 H   0  0  0  0  0  0  0  0  0  0  0  0
   -2.2215   27.4076  -24.9738 H   0  0  0  0  0  0  0  0  0  0  0  0
   -1.2520   22.9620  -30.0408 H   0  0  0  0  0  0  0  0  0  0  0  0
   -2.5243   21.0502  -30.9561 H   0  0  0  0  0  0  0  0  0  0  0  0
  1  2  1  0
  2  3  1  0
  2  4  1  0
  4  5  1  0
  5  6  1  0
  6  7  1  0
  7  8  1  0
  8  9  2  0
  9 10  1  0
 10 11  2  0
 11 12  1  0
 12 13  2  0
 13 14  1  0
 14 15  2  0
 15 16  1  0
 15 17  1  0
 17 18  2  0
 18 19  1  0
 19 20  1  0
 20 21  1  0
 21 22  1  0
 22 23  1  0
 23 24  1  0
 23 25  1  0
 23 26  1  0
 19 27  2  0
 27 28  1  0
 28 29  2  0
 29  8  1  0
 14  9  1  0
 29 17  1  0
  1 30  1  0
  1 31  1  0
  1 32  1  0
  3 33  1  0
  3 34  1  0
  3 35  1  0
  4 36  1  0
  4 37  1  0
  5 38  1  0
  5 39  1  0
  6 40  1  0
  6 41  1  0
  7 42  1  0
  7 43  1  0
 10 44  1  0
 11 45  1  0
 12 46  1  0
 13 47  1  0
 16 48  1  0
 16 49  1  0
 16 50  1  0
 18 51  1  0
 21 52  1  0
 21 53  1  0
 22 54  1  0
 22 55  1  0
 24 56  1  0
 24 57  1  0
 24 58  1  0
 25 59  1  0
 25 60  1  0
 25 61  1  0
 26 62  1  0
 26 63  1  0
 26 64  1  0
 27 65  1  0
 28 66  1  0
M  CHG  3   7   1  15   1  23   1
M  END
>  <UniqueID>  (1) 
1

>  <SMILES>  (1) 
CN(C)CCC[NH2+]c1c2ccccc2[n+](C)c2cc(OCC[N+](C)(C)C)ccc12

>  <Energy>  (1) 
103.99397237878594

>  <Genealogy>  (1) 
CN(C)CCC[NH2+]c1c2ccccc2[n+](C)c2cc(OCC[N+](C)(C)C)ccc12 (protonated)
CN(C)CCC[NH2+]c1c2ccccc2[n+](C)c2cc(OCC[N+](C)(C)C)ccc12 (3D coordinates assigned)
CN(C)CCC[NH2+]c1c2ccccc2[n+](C)c2cc(OCC[N+](C)(C)C)ccc12 (optimized conformer: 103.99397237878594 kcal/mol)

>  <smiles>  (1) 
CN(C)CCCNc1c2ccccc2[n+](C)c2cc(OCC[N+](C)(C)C)ccc12

>  <score_type>  (1) 
oracle

>  <origin>  (1) 
adg

>  <m_score__min__energy>  (1) 
-6.6699999999999999

>  <m_primary>  (1) 
energy

$$$$
1:0
     RDKit          3D

 55 57  0  0  0  0  0  0  0  0999 V2000
   -0.6100   15.7560  -34.7900 C   0  0  0  0  0  0  0  0  0  0  0  0
   -1.2650   15.8120  -33.5250 O   0  0  0  0  0  0  0  0  0  0  0  0
   -2.6430   15.6440  -33.3260 C   0  0  0  0  0  0  0  0  0  0  0  0
   -3.1370   14.5500  -32.5880 C   0  0  0  0  0  0  0  0  0  0  0  0
   -4.5030   14.3870  -32.3820 C   0  0  0  0  0  0  0  0  0  0  0  0
   -5.4050   15.3090  -32.9110 C   0  0  0  0  0  0  0  0  0  0  0  0
   -4.9440   16.4140  -33.6430 C   0  0  0  0  0  0  0  0  0  0  0  0
   -5.9440   17.3790  -34.2320 C   0  0  0  0  0  0  0  0  0  0  0  0
   -5.3500   18.7130  -34.3220 N   0  0  0  0  0  0  0  0  0  0  0  0
   -5.7370   19.8030  -33.4750 C   0  0  0  0  0  0  0  0  0  0  0  0
   -4.9820   20.9600  -33.2900 C   0  0  0  0  0  0  0  0  0  0  0  0
   -5.5870   21.8440  -32.3900 C   0  0  0  0  0  0  0  0  0  0  0  0
   -5.0680   23.0700  -31.9680 C   0  0  0  0  0  0  0  0  0  0  0  0
   -5.7950   23.8410  -31.0310 C   0  0  0  0  0  0  0  0  0  0  0  0
   -5.2460   25.1220  -30.5300 C   0  0  0  0  0  0  0  0  0  0  0  0
   -6.0250   26.0500  -30.1810 O   0  0  0  0  0  0  0  0  0  0  0  0
   -3.8300   25.3010  -30.4120 N   0  0  0  0  0  0  0  0  0  0  0  0
   -2.9440   24.3480  -29.7510 C   0  0  0  0  0  0  0  0  0  0  0  0
   -3.6560   23.6690  -28.5720 C   0  0  0  0  0  0  0  0  0  0  0  0
   -3.5290   22.1960  -28.6510 N   0  0  0  0  0  0  0  0  0  0  0  0
   -2.8920   21.7840  -29.9120 C   0  0  0  0  0  0  0  0  0  0  0  0
   -2.7490   21.6870  -27.5110 C   0  0  0  0  0  0  0  0  0  0  0  0
   -7.0390   23.3590  -30.5500 C   0  0  0  0  0  0  0  0  0  0  0  0
   -7.5470   22.1250  -30.9830 C   0  0  0  0  0  0  0  0  0  0  0  0
   -6.8020   21.3890  -31.8970 C   0  0  0  0  0  0  0  0  0  0  0  0
   -7.1550   19.8820  -32.5480 S   0  0  0  0  0  0  0  0  0  0  0  0
   -3.5590   16.5850  -33.8680 C   0  0  0  0  0  0  0  0  0  0  0  0
   -3.1620   17.7020  -34.6270 O   0  0  0  0  0  0  0  0  0  0  0  0
   -2.2980   18.7540  -34.2110 C   0  0  0  0  0  0  0  0  0  0  0  0
    0.4754   15.6632  -34.6371 H   0  0  0  0  0  0  0  0  0  0  0  0
   -0.9765   14.8859  -35.3545 H   0  0  0  0  0  0  0  0  0  0  0  0
   -0.8235   16.6757  -35.3545 H   0  0  0  0  0  0  0  0  0  0  0  0
   -2.4334   13.8154  -32.1694 H   0  0  0  0  0  0  0  0  0  0  0  0
   -4.8721   13.5292  -31.8007 H   0  0  0  0  0  0  0  0  0  0  0  0
   -6.4847   15.1695  -32.7537 H   0  0  0  0  0  0  0  0  0  0  0  0
   -6.2317   17.0385  -35.2376 H   0  0  0  0  0  0  0  0  0  0  0  0
   -6.8337   17.4199  -33.5865 H   0  0  0  0  0  0  0  0  0  0  0  0
   -4.5170   18.8350  -34.9430 H   0  0  0  0  0  0  0  0  0  0  0  0
   -4.0232   21.1551  -33.7926 H   0  0  0  0  0  0  0  0  0  0  0  0
   -4.1057   23.4316  -32.3595 H   0  0  0  0  0  0  0  0  0  0  0  0
   -2.6345   23.5806  -30.4758 H   0  0  0  0  0  0  0  0  0  0  0  0
   -2.0662   24.8894  -29.3684 H   0  0  0  0  0  0  0  0  0  0  0  0
   -3.2064   24.0186  -27.6309 H   0  0  0  0  0  0  0  0  0  0  0  0
   -4.7237   23.9307  -28.6103 H   0  0  0  0  0  0  0  0  0  0  0  0
   -1.9871   21.1987  -29.6916 H   0  0  0  0  0  0  0  0  0  0  0  0
   -3.5942   21.1685  -30.4935 H   0  0  0  0  0  0  0  0  0  0  0  0
   -2.6186   22.6768  -30.4935 H   0  0  0  0  0  0  0  0  0  0  0  0
   -3.2273   21.9991  -26.5709 H   0  0  0  0  0  0  0  0  0  0  0  0
   -2.7093   20.5886  -27.5551 H   0  0  0  0  0  0  0  0  0  0  0  0
   -1.7276   22.0929  -27.5551 H   0  0  0  0  0  0  0  0  0  0  0  0
   -7.6125   23.9598  -29.8288 H   0  0  0  0  0  0  0  0  0  0  0  0
   -8.5107   21.7493  -30.6086 H   0  0  0  0  0  0  0  0  0  0  0  0
   -2.2678   18.7908  -33.1120 H   0  0  0  0  0  0  0  0  0  0  0  0
   -1.2852   18.5721  -34.5997 H   0  0  0  0  0  0  0  0  0  0  0  0
   -2.6733   19.7121  -34.5997 H   0  0  0  0  0  0  0  0  0  0  0  0
  1  2  1  0
  2  3  1  0
  3  4  2  0
  4  5  1  0
  5  6  2  0
  6  7  1  0
  7  8  1  0
  8  9  1  0
  9 10  1  0
 10 11  2  0
 11 12  1  0
 12 13  2  0
 13 14  1  0
 14 15  1  0
 15 16  2  0
 15 17  1  0
 17 18  1  0
 18 19  1  0
 19 20  1  0
 20 21  1  0
 20 22  1  0
 14 23  2  0
 23 24  1  0
 24 25  2  0
 25 26  1  0
  7 27  2  0
 27 28  1  0
 28 29  1  0
 27  3  1  0
 26 10  1  0
 25 12  1  0
  1 30  1  0
  1 31  1  0
  1 32  1  0
  4 33  1  0
  5 34  1  0
  6 35  1  0
  8 36  1  0
  8 37  1  0
  9 38  1  0
 11 39  1  0
 13 40  1  0
 18 41  1  0
 18 42  1  0
 19 43  1  0
 19 44  1  0
 21 45  1  0
 21 46  1  0
 21 47  1  0
 22 48  1  0
 22 49  1  0
 22 50  1  0
 23 51  1  0
 24 52  1  0
 29 53  1  0
 29 54  1  0
 29 55  1  0
M  CHG  1  17  -1
M  END
>  <UniqueID>  (2) 
2

>  <SMILES>  (2) 
COc1cccc(CNc2cc3cc(C(=O)[N-]CCN(C)C)ccc3s2)c1OC

>  <Energy>  (2) 
86.31566338493631

>  <Genealogy>  (2) 
COc1cccc(CNc2cc3cc(C(=O)[N-]CCN(C)C)ccc3s2)c1OC (protonated)
COc1cccc(CNc2cc3cc(C(=O)[N-]CCN(C)C)ccc3s2)c1OC (3D coordinates assigned)
COc1cccc(CNc2cc3cc(C(=O)[N-]CCN(C)C)ccc3s2)c1OC (optimized conformer: 86.31566338493631 kcal/mol)

>  <smiles>  (2) 
COc1cccc(CNc2cc3cc(C(=O)NCCN(C)C)ccc3s2)c1OC

>  <score_type>  (2) 
oracle

>  <origin>  (2) 
adg

>  <m_score__min__energy>  (2) 
-9.9399999999999995

>  <m_primary>  (2) 
energy

$$$$
2:0
     RDKit          3D

 57 60  0  0  0  0  0  0  0  0999 V2000
   -4.0580   24.1230  -28.3680 C   0  0  0  0  0  0  0  0  0  0  0  0
   -3.4020   24.4120  -29.7170 C   0  0  0  0  0  0  0  0  0  0  0  0
   -4.4020   24.6060  -30.7920 N   0  0  0  0  0  0  0  0  0  0  0  0
   -5.4860   25.5680  -30.4580 C   0  0  0  0  0  0  0  0  0  0  0  0
   -6.8300   24.9240  -30.0810 C   0  0  0  0  0  0  0  0  0  0  0  0
   -4.9180   23.3110  -31.2920 C   0  0  0  0  0  0  0  0  0  0  0  0
   -3.8660   22.1880  -31.1410 C   0  0  0  0  0  0  0  0  0  0  0  0
   -3.2580   21.7380  -32.4800 C   0  0  0  0  0  0  0  0  0  0  0  0
   -4.2970   21.3720  -33.4470 N   0  0  0  0  0  0  0  0  0  0  0  0
   -4.9430   20.0890  -33.4520 C   0  0  0  0  0  0  0  0  0  0  0  0
   -4.2360   18.9420  -33.8080 C   0  0  0  0  0  0  0  0  0  0  0  0
   -4.8450   17.7020  -33.7830 C   0  0  0  0  0  0  0  0  0  0  0  0
   -6.1840   17.5530  -33.5230 N   0  0  0  0  0  0  0  0  0  0  0  0
   -6.8600   16.2860  -33.8370 C   0  0  0  0  0  0  0  0  0  0  0  0
   -6.8860   18.6430  -33.0380 C   0  0  0  0  0  0  0  0  0  0  0  0
   -8.2050   18.5170  -32.5410 C   0  0  0  0  0  0  0  0  0  0  0  0
   -8.9190   19.6320  -32.1040 C   0  0  0  0  0  0  0  0  0  0  0  0
   -8.3360   20.8960  -32.1340 C   0  0  0  0  0  0  0  0  0  0  0  0
   -9.2480   22.2930  -31.5920 Cl  0  0  0  0  0  0  0  0  0  0  0  0
   -7.0230   21.0510  -32.5760 C   0  0  0  0  0  0  0  0  0  0  0  0
   -6.2780   19.9390  -33.0160 C   0  0  0  0  0  0  0  0  0  0  0  0
   -3.8170   16.6920  -34.0660 C   0  0  0  0  0  0  0  0  0  0  0  0
   -3.8330   15.2930  -33.9660 C   0  0  0  0  0  0  0  0  0  0  0  0
   -2.6470   14.5840  -34.2150 C   0  0  0  0  0  0  0  0  0  0  0  0
   -1.4570   15.2710  -34.5160 C   0  0  0  0  0  0  0  0  0  0  0  0
   -1.4390   16.6720  -34.5480 C   0  0  0  0  0  0  0  0  0  0  0  0
   -2.6290   17.3630  -34.3100 C   0  0  0  0  0  0  0  0  0  0  0  0
   -2.7890   18.8440  -34.1960 C   0  0  0  0  0  0  0  0  0  0  0  0
   -3.3774   24.4229  -27.5576 H   0  0  0  0  0  0  0  0  0  0  0  0
   -4.9966   24.6909  -28.2875 H   0  0  0  0  0  0  0  0  0  0  0  0
   -4.2724   23.0471  -28.2875 H   0  0  0  0  0  0  0  0  0  0  0  0
   -2.7951   25.3251  -29.6280 H   0  0  0  0  0  0  0  0  0  0  0  0
   -2.7807   23.5446  -29.9845 H   0  0  0  0  0  0  0  0  0  0  0  0
   -5.1499   26.1797  -29.6078 H   0  0  0  0  0  0  0  0  0  0  0  0
   -5.6701   26.1540  -31.3705 H   0  0  0  0  0  0  0  0  0  0  0  0
   -6.9212   24.8803  -28.9857 H   0  0  0  0  0  0  0  0  0  0  0  0
   -7.6534   25.5254  -30.4938 H   0  0  0  0  0  0  0  0  0  0  0  0
   -6.8771   23.9055  -30.4938 H   0  0  0  0  0  0  0  0  0  0  0  0
   -5.8168   23.0387  -30.7192 H   0  0  0  0  0  0  0  0  0  0  0  0
   -5.1547   23.4221  -32.3605 H   0  0  0  0  0  0  0  0  0  0  0  0
   -3.0546   22.5546  -30.4951 H   0  0  0  0  0  0  0  0  0  0  0  0
   -4.3799   21.3171  -30.7082 H   0  0  0  0  0  0  0  0  0  0  0  0
   -2.6582   22.5616  -32.8947 H   0  0  0  0  0  0  0  0  0  0  0  0
   -2.6327   20.8523  -32.2942 H   0  0  0  0  0  0  0  0  0  0  0  0
   -4.4760   22.0160  -34.2510 H   0  0  0  0  0  0  0  0  0  0  0  0
   -7.1329   15.7745  -32.9022 H   0  0  0  0  0  0  0  0  0  0  0  0
   -7.7689   16.4905  -34.4219 H   0  0  0  0  0  0  0  0  0  0  0  0
   -6.1841   15.6449  -34.4219 H   0  0  0  0  0  0  0  0  0  0  0  0
   -8.6746   17.5232  -32.4988 H   0  0  0  0  0  0  0  0  0  0  0  0
   -9.9479   19.5125  -31.7337 H   0  0  0  0  0  0  0  0  0  0  0  0
   -6.5643   22.0508  -32.5813 H   0  0  0  0  0  0  0  0  0  0  0  0
   -4.7577   14.7612  -33.6974 H   0  0  0  0  0  0  0  0  0  0  0  0
   -2.6484   13.4847  -34.1745 H   0  0  0  0  0  0  0  0  0  0  0  0
   -0.5369   14.7064  -34.7271 H   0  0  0  0  0  0  0  0  0  0  0  0
   -0.5062   17.2164  -34.7564 H   0  0  0  0  0  0  0  0  0  0  0  0
   -2.1324   19.2635  -33.4195 H   0  0  0  0  0  0  0  0  0  0  0  0
   -2.5228   19.4020  -35.1058 H   0  0  0  0  0  0  0  0  0  0  0  0
  1  2  1  0
  2  3  1  0
  3  4  1  0
  4  5  1  0
  3  6  1  0
  6  7  1  0
  7  8  1  0
  8  9  1  0
  9 10  1  0
 10 11  2  0
 11 12  1  0
 12 13  2  0
 13 14  1  0
 13 15  1  0
 15 16  2  0
 16 17  1  0
 17 18  2  0
 18 19  1  0
 18 20  1  0
 20 21  2  0
 12 22  1  0
 22 23  2  0
 23 24  1  0
 24 25  2  0
 25 26  1  0
 26 27  2  0
 27 28  1  0
 21 10  1  0
 27 22  1  0
 28 11  1  0
 21 15  1  0
  1 29  1  0
  1 30  1  0
  1 31  1  0
  2 32  1  0
  2 33  1  0
  4 34  1  0
  4 35  1  0
  5 36  1  0
  5 37  1  0
  5 38  1  0
  6 39  1  0
  6 40  1  0
  7 41  1  0
  7 42  1  0
  8 43  1  0
  8 44  1  0
  9 45  1  0
 14 46  1  0
 14 47  1  0
 14 48  1  0
 16 49  1  0
 17 50  1  0
 20 51  1  0
 23 52  1  0
 24 53  1  0
 25 54  1  0
 26 55  1  0
 28 56  1  0
 28 57  1  0
M  CHG  1  13   1
M  END
>  <UniqueID>  (3) 
3

>  <SMILES>  (3) 
CCN(CC)CCCNc1c2c([n+](C)c3ccc(Cl)cc13)-c1ccccc1C2

>  <Energy>  (3) 
100.50418707408417

>  <Genealogy>  (3) 
CCN(CC)CCCNc1c2c([n+](C)c3ccc(Cl)cc13)-c1ccccc1C2 (3D coordinates assigned)
CCN(CC)CCCNc1c2c([n+](C)c3ccc(Cl)cc13)-c1ccccc1C2 (nonaromatic ring conformer: 100.50418707408417 kcal/mol)

>  <smiles>  (3) 
CCN(CC)CCCNc1c2c([n+](C)c3ccc(Cl)cc13)-c1ccccc1C2

>  <score_type>  (3) 
oracle

>  <origin>  (3) 
adg

>  <m_score__min__energy>  (3) 
-9.3499999999999996

>  <m_primary>  (3) 
energy

$$$$
3:0
     RDKit          3D

 74 77  0  0  0  0  0  0  0  0999 V2000
   -0.1280   18.5850  -30.2110 C   0  0  0  0  0  0  0  0  0  0  0  0
   -0.5230   19.7420  -31.1240 C   0  0  0  0  0  0  0  0  0  0  0  0
   -1.5700   19.3100  -32.0760 N   0  0  0  0  0  0  0  0  0  0  0  0
   -1.4610   17.8620  -32.3710 C   0  0  0  0  0  0  0  0  0  0  0  0
   -0.9680   17.6470  -33.8000 C   0  0  0  0  0  0  0  0  0  0  0  0
   -1.5270   20.1140  -33.3200 C   0  0  0  0  0  0  0  0  0  0  0  0
   -1.8650   21.5780  -33.0120 C   0  0  0  0  0  0  0  0  0  0  0  0
   -3.3860   21.8210  -33.0600 C   0  0  0  0  0  0  0  0  0  0  0  0
   -4.0970   21.1080  -31.9790 N   0  0  0  0  0  0  0  0  0  0  0  0
   -5.3540   20.5230  -32.4320 C   0  0  0  0  0  0  0  0  0  0  0  0
   -5.3580   19.3130  -33.1630 C   0  0  0  0  0  0  0  0  0  0  0  0
   -4.2490   18.9190  -33.9430 C   0  0  0  0  0  0  0  0  0  0  0  0
   -4.2710   17.7270  -34.6660 C   0  0  0  0  0  0  0  0  0  0  0  0
   -5.4000   16.9180  -34.6380 C   0  0  0  0  0  0  0  0  0  0  0  0
   -6.5090   17.2860  -33.8760 C   0  0  0  0  0  0  0  0  0  0  0  0
   -6.5010   18.4750  -33.1030 C   0  0  0  0  0  0  0  0  0  0  0  0
   -7.5630   18.8210  -32.2910 N   0  0  0  0  0  0  0  0  0  0  0  0
   -8.5700   17.8060  -31.9100 C   0  0  0  0  0  0  0  0  0  0  0  0
   -7.6890   20.1260  -31.8510 C   0  0  0  0  0  0  0  0  0  0  0  0
   -8.8900   20.5950  -31.2680 C   0  0  0  0  0  0  0  0  0  0  0  0
   -9.0230   21.9160  -30.8600 C   0  0  0  0  0  0  0  0  0  0  0  0
   -8.0030   22.8260  -31.0970 C   0  0  0  0  0  0  0  0  0  0  0  0
   -6.8080   22.4180  -31.7060 C   0  0  0  0  0  0  0  0  0  0  0  0
   -5.9060   23.4210  -32.2080 N   0  0  0  0  0  0  0  0  0  0  0  0
   -5.7410   24.7340  -31.5800 C   0  0  0  0  0  0  0  0  0  0  0  0
   -5.1260   24.5870  -30.1830 C   0  0  0  0  0  0  0  0  0  0  0  0
   -4.2330   23.4110  -30.1200 N   0  0  0  0  0  0  0  0  0  0  0  0
   -2.8150   23.8100  -30.0270 C   0  0  0  0  0  0  0  0  0  0  0  0
   -1.9150   22.5550  -30.0250 C   0  0  0  0  0  0  0  0  0  0  0  0
   -2.6460   21.3590  -29.8030 O   0  0  0  0  0  0  0  0  0  0  0  0
   -3.4920   21.5120  -28.6820 C   0  0  0  0  0  0  0  0  0  0  0  0
   -4.5860   22.5590  -28.9640 C   0  0  0  0  0  0  0  0  0  0  0  0
   -6.6030   21.0370  -31.9940 C   0  0  0  0  0  0  0  0  0  0  0  0
   -0.2336   18.8942  -29.1607 H   0  0  0  0  0  0  0  0  0  0  0  0
   -0.7828   17.7232  -30.4071 H   0  0  0  0  0  0  0  0  0  0  0  0
    0.9171   18.3035  -30.4071 H   0  0  0  0  0  0  0  0  0  0  0  0
   -0.9081   20.5715  -30.5128 H   0  0  0  0  0  0  0  0  0  0  0  0
    0.3617   20.0700  -31.6894 H   0  0  0  0  0  0  0  0  0  0  0  0
   -0.7504   17.4013  -31.6690 H   0  0  0  0  0  0  0  0  0  0  0  0
   -2.4530   17.3993  -32.2617 H   0  0  0  0  0  0  0  0  0  0  0  0
    0.0401   17.2074  -33.7778 H   0  0  0  0  0  0  0  0  0  0  0  0
   -1.6535   16.9661  -34.3258 H   0  0  0  0  0  0  0  0  0  0  0  0
   -0.9354   18.6126  -34.3258 H   0  0  0  0  0  0  0  0  0  0  0  0
   -0.5185   20.0571  -33.7555 H   0  0  0  0  0  0  0  0  0  0  0  0
   -2.2647   19.7159  -34.0322 H   0  0  0  0  0  0  0  0  0  0  0  0
   -1.4932   21.8284  -32.0075 H   0  0  0  0  0  0  0  0  0  0  0  0
   -1.3867   22.2132  -33.7721 H   0  0  0  0  0  0  0  0  0  0  0  0
   -3.5763   22.8996  -32.9584 H   0  0  0  0  0  0  0  0  0  0  0  0
   -3.7600   21.4386  -34.0212 H   0  0  0  0  0  0  0  0  0  0  0  0
   -3.4230   20.3920  -31.6390 H   0  0  0  0  0  0  0  0  0  0  0  0
   -4.2710   21.7580  -31.1790 H   0  0  0  0  0  0  0  0  0  0  0  0
   -3.3563   19.5606  -33.9808 H   0  0  0  0  0  0  0  0  0  0  0  0
   -3.3942   17.4271  -35.2587 H   0  0  0  0  0  0  0  0  0  0  0  0
   -5.4195   15.9840  -35.2187 H   0  0  0  0  0  0  0  0  0  0  0  0
   -7.4027   16.6446  -33.8747 H   0  0  0  0  0  0  0  0  0  0  0  0
   -8.6315   17.7441  -30.8135 H   0  0  0  0  0  0  0  0  0  0  0  0
   -9.5512   18.0923  -32.3166 H   0  0  0  0  0  0  0  0  0  0  0  0
   -8.2760   16.8271  -32.3166 H   0  0  0  0  0  0  0  0  0  0  0  0
   -9.7332   19.9011  -31.1356 H   0  0  0  0  0  0  0  0  0  0  0  0
   -9.9401   22.2417  -30.3473 H   0  0  0  0  0  0  0  0  0  0  0  0
   -8.1332   23.8783  -30.8041 H   0  0  0  0  0  0  0  0  0  0  0  0
   -5.3860   23.2200  -33.0930 H   0  0  0  0  0  0  0  0  0  0  0  0
   -5.0793   25.3531  -32.2036 H   0  0  0  0  0  0  0  0  0  0  0  0
   -6.7281   25.2103  -31.4861 H   0  0  0  0  0  0  0  0  0  0  0  0
   -4.5466   25.4920  -29.9477 H   0  0  0  0  0  0  0  0  0  0  0  0
   -5.9386   24.4502  -29.4543 H   0  0  0  0  0  0  0  0  0  0  0  0
   -2.5568   24.4426  -30.8890 H   0  0  0  0  0  0  0  0  0  0  0  0
   -2.6569   24.3706  -29.0938 H   0  0  0  0  0  0  0  0  0  0  0  0
   -1.4090   22.4829  -30.9991 H   0  0  0  0  0  0  0  0  0  0  0  0
   -1.1949   22.6630  -29.2005 H   0  0  0  0  0  0  0  0  0  0  0  0
   -3.9667   20.5464  -28.4535 H   0  0  0  0  0  0  0  0  0  0  0  0
   -2.8886   21.8525  -27.8276 H   0  0  0  0  0  0  0  0  0  0  0  0
   -5.5317   22.0396  -29.1779 H   0  0  0  0  0  0  0  0  0  0  0  0
   -4.6857   23.2026  -28.0775 H   0  0  0  0  0  0  0  0  0  0  0  0
  1  2  1  0
  2  3  1  0
  3  4  1  0
  4  5  1  0
  3  6  1  0
  6  7  1  0
  7  8  1  0
  8  9  1  0
  9 10  1  0
 10 11  2  0
 11 12  1  0
 12 13  2  0
 13 14  1  0
 14 15  2  0
 15 16  1  0
 16 17  2  0
 17 18  1  0
 17 19  1  0
 19 20  2  0
 20 21  1  0
 21 22  2  0
 22 23  1  0
 23 24  1  0
 24 25  1  0
 25 26  1  0
 26 27  1  0
 27 28  1  0
 28 29  1  0
 29 30  1  0
 30 31  1  0
 31 32  1  0
 23 33  2  0
 33 10  1  0
 16 11  1  0
 33 19  1  0
 32 27  1  0
  1 34  1  0
  1 35  1  0
  1 36  1  0
  2 37  1  0
  2 38  1  0
  4 39  1  0
  4 40  1  0
  5 41  1  0
  5 42  1  0
  5 43  1  0
  6 44  1  0
  6 45  1  0
  7 46  1  0
  7 47  1  0
  8 48  1  0
  8 49  1  0
  9 50  1  0
  9 51  1  0
 12 52  1  0
 13 53  1  0
 14 54  1  0
 15 55  1  0
 18 56  1  0
 18 57  1  0
 18 58  1  0
 20 59  1  0
 21 60  1  0
 22 61  1  0
 24 62  1  0
 25 63  1  0
 25 64  1  0
 26 65  1  0
 26 66  1  0
 28 67  1  0
 28 68  1  0
 29 69  1  0
 29 70  1  0
 31 71  1  0
 31 72  1  0
 32 73  1  0
 32 74  1  0
M  CHG  2   9   1  17   1
M  END
>  <UniqueID>  (4) 
4

>  <SMILES>  (4) 
CCN(CC)CCC[NH2+]c1c2ccccc2[n+](C)c2cccc(NCCN3CCOCC3)c12

>  <Energy>  (4) 
119.46720401902628

>  <Genealogy>  (4) 
CCN(CC)CCC[NH2+]c1c2ccccc2[n+](C)c2cccc(NCCN3CCOCC3)c12 (protonated)
CCN(CC)CCC[NH2+]c1c2ccccc2[n+](C)c2cccc(NCCN3CCOCC3)c12 (3D coordinates assigned)
CCN(CC)CCC[NH2+]c1c2ccccc2[n+](C)c2cccc(NCCN3CCOCC3)c12 (nonaromatic ring conformer: 119.46720401902628 kcal/mol)

>  <smiles>  (4) 
CCN(CC)CCCNc1c2ccccc2[n+](C)c2cccc(NCCN3CCOCC3)c12

>  <score_type>  (4) 
oracle

>  <origin>  (4) 
adg

>  <m_score__min__energy>  (4) 
-7.8499999999999996

>  <m_primary>  (4) 
energy

$$$$
4:0
     RDKit          3D

 47 49  0  0  0  0  0  0  0  0999 V2000
   -6.7380   17.9510  -31.2200 C   0  0  0  0  0  0  0  0  0  0  0  0
   -8.0680   18.2030  -31.9440 C   0  0  0  0  0  0  0  0  0  0  0  0
   -8.7360   19.4860  -31.5950 N   0  0  2  0  0  0  0  0  0  0  0  0
   -9.5540   19.9860  -32.7160 C   0  0  0  0  0  0  0  0  0  0  0  0
   -7.8190   20.5560  -31.1240 C   0  0  0  0  0  0  0  0  0  0  0  0
   -8.1020   21.9390  -31.7380 C   0  0  0  0  0  0  0  0  0  0  0  0
   -7.0210   22.3590  -32.6280 N   0  0  0  0  0  0  0  0  0  0  0  0
   -5.6760   21.8810  -32.4430 C   0  0  0  0  0  0  0  0  0  0  0  0
   -5.2460   20.7090  -33.0920 C   0  0  0  0  0  0  0  0  0  0  0  0
   -6.1500   19.9260  -33.8420 C   0  0  0  0  0  0  0  0  0  0  0  0
   -5.7340   18.7430  -34.4490 C   0  0  0  0  0  0  0  0  0  0  0  0
   -4.4220   18.3100  -34.3010 C   0  0  0  0  0  0  0  0  0  0  0  0
   -4.0300   17.1390  -34.8640 F   0  0  0  0  0  0  0  0  0  0  0  0
   -3.5120   19.0650  -33.5610 C   0  0  0  0  0  0  0  0  0  0  0  0
   -3.8950   20.2920  -32.9630 C   0  0  0  0  0  0  0  0  0  0  0  0
   -2.9960   21.0660  -32.2510 N   0  0  0  0  0  0  0  0  0  0  0  0
   -1.5440   20.8000  -32.3560 C   0  0  0  0  0  0  0  0  0  0  0  0
   -3.4540   22.1010  -31.4570 C   0  0  0  0  0  0  0  0  0  0  0  0
   -2.6140   22.7400  -30.5070 C   0  0  0  0  0  0  0  0  0  0  0  0
   -3.0700   23.8240  -29.7550 C   0  0  0  0  0  0  0  0  0  0  0  0
   -2.0060   24.5970  -28.5950 Cl  0  0  0  0  0  0  0  0  0  0  0  0
   -4.3700   24.2880  -29.9190 C   0  0  0  0  0  0  0  0  0  0  0  0
   -5.2310   23.6550  -30.8110 C   0  0  0  0  0  0  0  0  0  0  0  0
   -4.7970   22.5480  -31.5710 C   0  0  0  0  0  0  0  0  0  0  0  0
   -6.9009   17.9819  -30.1326 H   0  0  0  0  0  0  0  0  0  0  0  0
   -6.3472   16.9628  -31.5043 H   0  0  0  0  0  0  0  0  0  0  0  0
   -6.0128   18.7277  -31.5043 H   0  0  0  0  0  0  0  0  0  0  0  0
   -7.8736   18.2020  -33.0267 H   0  0  0  0  0  0  0  0  0  0  0  0
   -8.7507   17.4019  -31.6245 H   0  0  0  0  0  0  0  0  0  0  0  0
   -9.4100   19.2710  -30.8250 H   0  0  0  0  0  0  0  0  0  0  0  0
  -10.4298   20.5213  -32.3206 H   0  0  0  0  0  0  0  0  0  0  0  0
   -8.9527   20.6711  -33.3317 H   0  0  0  0  0  0  0  0  0  0  0  0
   -9.8895   19.1384  -33.3317 H   0  0  0  0  0  0  0  0  0  0  0  0
   -7.9143   20.6368  -30.0311 H   0  0  0  0  0  0  0  0  0  0  0  0
   -6.8056   20.2687  -31.4410 H   0  0  0  0  0  0  0  0  0  0  0  0
   -9.0394   21.8909  -32.3115 H   0  0  0  0  0  0  0  0  0  0  0  0
   -8.1815   22.6709  -30.9206 H   0  0  0  0  0  0  0  0  0  0  0  0
   -7.2530   22.8910  -33.4960 H   0  0  0  0  0  0  0  0  0  0  0  0
   -7.1947   20.2536  -33.9484 H   0  0  0  0  0  0  0  0  0  0  0  0
   -6.4443   18.1517  -35.0455 H   0  0  0  0  0  0  0  0  0  0  0  0
   -2.4806   18.7025  -33.4395 H   0  0  0  0  0  0  0  0  0  0  0  0
   -1.1119   20.7208  -31.3475 H   0  0  0  0  0  0  0  0  0  0  0  0
   -1.3823   19.8573  -32.8993 H   0  0  0  0  0  0  0  0  0  0  0  0
   -1.0586   21.6242  -32.8993 H   0  0  0  0  0  0  0  0  0  0  0  0
   -1.5867   22.3746  -30.3612 H   0  0  0  0  0  0  0  0  0  0  0  0
   -4.7192   25.1574  -29.3426 H   0  0  0  0  0  0  0  0  0  0  0  0
   -6.2617   24.0220  -30.9248 H   0  0  0  0  0  0  0  0  0  0  0  0
  1  2  1  0
  2  3  1  0
  3  4  1  0
  3  5  1  0
  5  6  1  0
  6  7  1  0
  7  8  1  0
  8  9  2  0
  9 10  1  0
 10 11  2  0
 11 12  1  0
 12 13  1  0
 12 14  2  0
 14 15  1  0
 15 16  2  0
 16 17  1  0
 16 18  1  0
 18 19  2  0
 19 20  1  0
 20 21  1  0
 20 22  2  0
 22 23  1  0
 23 24  2  0
 24  8  1  0
 15  9  1  0
 24 18  1  0
  1 25  1  0
  1 26  1  0
  1 27  1  0
  2 28  1  0
  2 29  1  0
  3 30  1  1
  4 31  1  0
  4 32  1  0
  4 33  1  0
  5 34  1  0
  5 35  1  0
  6 36  1  0
  6 37  1  0
  7 38  1  0
 10 39  1  0
 11 40  1  0
 14 41  1  0
 17 42  1  0
 17 43  1  0
 17 44  1  0
 19 45  1  0
 22 46  1  0
 23 47  1  0
M  CHG  2   3   1  16   1
M  END
>  <UniqueID>  (5) 
5

>  <SMILES>  (5) 
CC[N@H+](C)CCNc1c2ccc(F)cc2[n+](C)c2cc(Cl)ccc12

>  <Energy>  (5) 
76.58569217573516

>  <Genealogy>  (5) 
CC[NH+](C)CCNc1c2ccc(F)cc2[n+](C)c2cc(Cl)ccc12 (protonated)
CC[N@H+](C)CCNc1c2ccc(F)cc2[n+](C)c2cc(Cl)ccc12 (chirality)
CC[N@H+](C)CCNc1c2ccc(F)cc2[n+](C)c2cc(Cl)ccc12 (3D coordinates assigned)
CC[N@H+](C)CCNc1c2ccc(F)cc2[n+](C)c2cc(Cl)ccc12 (optimized conformer: 76.58569217573516 kcal/mol)

>  <smiles>  (5) 
CCN(C)CCNc1c2ccc(F)cc2[n+](C)c2cc(Cl)ccc12

>  <score_type>  (5) 
oracle

>  <origin>  (5) 
adg

>  <m_score__min__energy>  (5) 
-6.6900000000000004

>  <m_primary>  (5) 
energy

$$$$
5:0
     RDKit          3D

 59 61  0  0  0  0  0  0  0  0999 V2000
   -2.3600   19.8180  -27.0160 C   0  0  0  0  0  0  0  0  0  0  0  0
   -1.9780   21.2430  -27.4340 C   0  0  0  0  0  0  0  0  0  0  0  0
   -2.9100   21.7990  -28.4340 N   0  0  0  0  0  0  0  0  0  0  0  0
   -4.1020   22.3960  -27.8020 C   0  0  0  0  0  0  0  0  0  0  0  0
   -3.8620   23.8820  -27.4820 C   0  0  0  0  0  0  0  0  0  0  0  0
   -2.9040   24.5570  -28.4930 C   0  0  0  0  0  0  0  0  0  0  0  0
   -3.2770   24.3100  -29.8960 N   0  0  0  0  0  0  0  0  0  0  0  0
   -4.6050   24.8520  -30.2220 C   0  0  0  0  0  0  0  0  0  0  0  0
   -5.4420   23.8170  -30.9770 C   0  0  0  0  0  0  0  0  0  0  0  0
   -5.0570   22.4520  -30.6140 N   0  0  0  0  0  0  0  0  0  0  0  0
   -5.3930   21.3630  -31.4870 C   0  0  0  0  0  0  0  0  0  0  0  0
   -6.7470   21.1110  -31.7800 C   0  0  0  0  0  0  0  0  0  0  0  0
   -7.7650   21.9460  -31.2660 C   0  0  0  0  0  0  0  0  0  0  0  0
   -9.1080   21.6620  -31.5020 C   0  0  0  0  0  0  0  0  0  0  0  0
   -9.4630   20.5370  -32.2360 C   0  0  0  0  0  0  0  0  0  0  0  0
   -8.4750   19.7060  -32.7650 C   0  0  0  0  0  0  0  0  0  0  0  0
   -7.0960   19.9960  -32.5830 C   0  0  0  0  0  0  0  0  0  0  0  0
   -6.1100   19.2100  -33.1430 N   0  0  0  0  0  0  0  0  0  0  0  0
   -6.4570   18.2370  -34.2040 C   0  0  0  0  0  0  0  0  0  0  0  0
   -4.7940   19.3550  -32.7440 C   0  0  0  0  0  0  0  0  0  0  0  0
   -3.8160   18.3900  -33.0840 C   0  0  0  0  0  0  0  0  0  0  0  0
   -2.4800   18.5700  -32.7510 C   0  0  0  0  0  0  0  0  0  0  0  0
   -2.0740   19.7150  -32.0830 C   0  0  0  0  0  0  0  0  0  0  0  0
   -3.0090   20.6870  -31.6900 C   0  0  0  0  0  0  0  0  0  0  0  0
   -2.5800   21.8650  -31.0520 O   0  0  0  0  0  0  0  0  0  0  0  0
   -1.2230   22.2830  -30.9280 C   0  0  0  0  0  0  0  0  0  0  0  0
   -4.3950   20.4810  -31.9640 C   0  0  0  0  0  0  0  0  0  0  0  0
   -2.3781   19.7503  -25.9182 H   0  0  0  0  0  0  0  0  0  0  0  0
   -3.3555   19.5733  -27.4150 H   0  0  0  0  0  0  0  0  0  0  0  0
   -1.6204   19.1082  -27.4150 H   0  0  0  0  0  0  0  0  0  0  0  0
   -1.9879   21.8882  -26.5432 H   0  0  0  0  0  0  0  0  0  0  0  0
   -0.9774   21.2047  -27.8893 H   0  0  0  0  0  0  0  0  0  0  0  0
   -2.4060   22.5490  -28.9660 H   0  0  0  0  0  0  0  0  0  0  0  0
   -3.1940   21.0530  -29.1150 H   0  0  0  0  0  0  0  0  0  0  0  0
   -4.9569   22.3081  -28.4886 H   0  0  0  0  0  0  0  0  0  0  0  0
   -4.3095   21.8614  -26.8633 H   0  0  0  0  0  0  0  0  0  0  0  0
   -4.8275   24.4085  -27.5049 H   0  0  0  0  0  0  0  0  0  0  0  0
   -3.3945   23.9393  -26.4879 H   0  0  0  0  0  0  0  0  0  0  0  0
   -2.9142   25.6423  -28.3139 H   0  0  0  0  0  0  0  0  0  0  0  0
   -1.9051   24.1233  -28.3380 H   0  0  0  0  0  0  0  0  0  0  0  0
   -3.2670   23.2780  -30.0710 H   0  0  0  0  0  0  0  0  0  0  0  0
   -5.1224   25.1244  -29.2903 H   0  0  0  0  0  0  0  0  0  0  0  0
   -4.4778   25.7380  -30.8614 H   0  0  0  0  0  0  0  0  0  0  0  0
   -6.5037   23.9669  -30.7312 H   0  0  0  0  0  0  0  0  0  0  0  0
   -5.2686   23.9508  -32.0550 H   0  0  0  0  0  0  0  0  0  0  0  0
   -4.2510   22.3080  -29.9670 H   0  0  0  0  0  0  0  0  0  0  0  0
   -7.4932   22.8312  -30.6722 H   0  0  0  0  0  0  0  0  0  0  0  0
   -9.8883   22.3290  -31.1069 H   0  0  0  0  0  0  0  0  0  0  0  0
  -10.5248   20.3011  -32.4003 H   0  0  0  0  0  0  0  0  0  0  0  0
   -8.7687   18.8108  -33.3328 H   0  0  0  0  0  0  0  0  0  0  0  0
   -6.7925   17.2962  -33.7432 H   0  0  0  0  0  0  0  0  0  0  0  0
   -7.2641   18.6477  -34.8284 H   0  0  0  0  0  0  0  0  0  0  0  0
   -5.5722   18.0443  -34.8284 H   0  0  0  0  0  0  0  0  0  0  0  0
   -4.1200   17.4801  -33.6223 H   0  0  0  0  0  0  0  0  0  0  0  0
   -1.7406   17.8008  -33.0184 H   0  0  0  0  0  0  0  0  0  0  0  0
   -1.0076   19.8641  -31.8582 H   0  0  0  0  0  0  0  0  0  0  0  0
   -0.9601   22.3640  -29.8629 H   0  0  0  0  0  0  0  0  0  0  0  0
   -0.5664   21.5455  -31.4127 H   0  0  0  0  0  0  0  0  0  0  0  0
   -1.0952   23.2622  -31.4127 H   0  0  0  0  0  0  0  0  0  0  0  0
  1  2  1  0
  2  3  1  0
  3  4  1  0
  4  5  1  0
  5  6  1  0
  6  7  1  0
  7  8  1  0
  8  9  1  0
  9 10  1  0
 10 11  1  0
 11 12  2  0
 12 13  1  0
 13 14  2  0
 14 15  1  0
 15 16  2  0
 16 17  1  0
 17 18  2  0
 18 19  1  0
 18 20  1  0
 20 21  2  0
 21 22  1  0
 22 23  2  0
 23 24  1  0
 24 25  1  0
 25 26  1  0
 24 27  2  0
 27 11  1  0
 17 12  1  0
 27 20  1  0
  1 28  1  0
  1 29  1  0
  1 30  1  0
  2 31  1  0
  2 32  1  0
  3 33  1  0
  3 34  1  0
  4 35  1  0
  4 36  1  0
  5 37  1  0
  5 38  1  0
  6 39  1  0
  6 40  1  0
  7 41  1  0
  8 42  1  0
  8 43  1  0
  9 44  1  0
  9 45  1  0
 10 46  1  0
 13 47  1  0
 14 48  1  0
 15 49  1  0
 16 50  1  0
 19 51  1  0
 19 52  1  0
 19 53  1  0
 21 54  1  0
 22 55  1  0
 23 56  1  0
 26 57  1  0
 26 58  1  0
 26 59  1  0
M  CHG  2   3   1  18   1
M  END
>  <UniqueID>  (6) 
6

>  <SMILES>  (6) 
CC[NH2+]CCCNCCNc1c2ccccc2[n+](C)c2cccc(OC)c12

>  <Energy>  (6) 
84.14340756414028

>  <Genealogy>  (6) 
CC[NH2+]CCCNCCNc1c2ccccc2[n+](C)c2cccc(OC)c12 (protonated)
CC[NH2+]CCCNCCNc1c2ccccc2[n+](C)c2cccc(OC)c12 (3D coordinates assigned)
CC[NH2+]CCCNCCNc1c2ccccc2[n+](C)c2cccc(OC)c12 (optimized conformer: 84.14340756414028 kcal/mol)

>  <smiles>  (6) 
CCNCCCNCCNc1c2ccccc2[n+](C)c2cccc(OC)c12

>  <score_type>  (6) 
oracle

>  <origin>  (6) 
adg

>  <m_score__min__energy>  (6) 
-7.0099999999999998

>  <m_primary>  (6) 
energy

$$$$
6:0
     RDKit          3D

 66 70  0  0  0  0  0  0  0  0999 V2000
   -8.3980   19.4000  -31.4290 C   0  0  0  0  0  0  0  0  0  0  0  0
   -8.3810   18.4830  -32.6520 C   0  0  0  0  0  0  0  0  0  0  0  0
   -7.0750   17.8020  -32.7850 N   0  0  0  0  0  0  0  0  0  0  0  0
   -6.4360   17.6670  -31.4650 C   0  0  0  0  0  0  0  0  0  0  0  0
   -7.1890   16.4830  -33.4570 C   0  0  0  0  0  0  0  0  0  0  0  0
   -6.0540   16.3350  -34.4750 C   0  0  0  0  0  0  0  0  0  0  0  0
   -5.7220   17.6320  -35.0840 N   0  0  0  0  0  0  0  0  0  0  0  0
   -4.5770   18.2260  -34.4230 C   0  0  0  0  0  0  0  0  0  0  0  0
   -4.7250   19.4200  -33.7120 C   0  0  0  0  0  0  0  0  0  0  0  0
   -3.6550   20.0180  -33.0870 C   0  0  0  0  0  0  0  0  0  0  0  0
   -2.3760   19.5490  -33.2290 N   0  0  0  0  0  0  0  0  0  0  0  0
   -1.2280   20.4010  -32.8740 C   0  0  0  0  0  0  0  0  0  0  0  0
   -2.1950   18.2920  -33.7820 C   0  0  0  0  0  0  0  0  0  0  0  0
   -0.9400   17.6390  -33.7280 C   0  0  0  0  0  0  0  0  0  0  0  0
   -0.7570   16.3810  -34.3030 C   0  0  0  0  0  0  0  0  0  0  0  0
    0.8110   15.5960  -34.2140 Cl  0  0  0  0  0  0  0  0  0  0  0  0
   -1.8180   15.7400  -34.9310 C   0  0  0  0  0  0  0  0  0  0  0  0
   -3.0730   16.3400  -34.9810 C   0  0  0  0  0  0  0  0  0  0  0  0
   -3.2940   17.6100  -34.4050 C   0  0  0  0  0  0  0  0  0  0  0  0
   -4.1840   21.1940  -32.3820 C   0  0  0  0  0  0  0  0  0  0  0  0
   -3.5690   22.0240  -31.4370 C   0  0  0  0  0  0  0  0  0  0  0  0
   -4.3170   23.0660  -30.8400 C   0  0  0  0  0  0  0  0  0  0  0  0
   -5.6930   23.1890  -31.1760 C   0  0  0  0  0  0  0  0  0  0  0  0
   -6.2750   22.2890  -32.0900 C   0  0  0  0  0  0  0  0  0  0  0  0
   -7.4980   22.3700  -32.3880 O   0  0  0  0  0  0  0  0  0  0  0  0
   -5.5020   21.3190  -32.6450 N   0  0  0  0  0  0  0  0  0  0  0  0
   -5.9670   20.2380  -33.5130 C   0  0  0  0  0  0  0  0  0  0  0  0
   -6.5040   24.2860  -30.5340 C   0  0  0  0  0  0  0  0  0  0  0  0
   -6.0820   24.4710  -29.1870 O   0  0  0  0  0  0  0  0  0  0  0  0
   -4.7320   24.4240  -28.8320 C   0  0  0  0  0  0  0  0  0  0  0  0
   -4.4150   24.6490  -27.6350 O   0  0  0  0  0  0  0  0  0  0  0  0
   -3.6910   24.1220  -29.9020 C   0  0  2  0  0  0  0  0  0  0  0  0
   -3.4930   25.3050  -30.6380 O   0  0  0  0  0  0  0  0  0  0  0  0
   -2.3260   23.6700  -29.2830 C   0  0  0  0  0  0  0  0  0  0  0  0
   -1.4570   24.8080  -28.7290 C   0  0  0  0  0  0  0  0  0  0  0  0
   -8.3867   18.7904  -30.5134 H   0  0  0  0  0  0  0  0  0  0  0  0
   -7.5118   20.0514  -31.4468 H   0  0  0  0  0  0  0  0  0  0  0  0
   -9.3078   20.0181  -31.4468 H   0  0  0  0  0  0  0  0  0  0  0  0
   -9.1722   17.7263  -32.5454 H   0  0  0  0  0  0  0  0  0  0  0  0
   -8.5511   19.0939  -33.5508 H   0  0  0  0  0  0  0  0  0  0  0  0
   -7.1864   17.8255  -30.6765 H   0  0  0  0  0  0  0  0  0  0  0  0
   -6.0078   16.6586  -31.3663 H   0  0  0  0  0  0  0  0  0  0  0  0
   -5.6365   18.4161  -31.3663 H   0  0  0  0  0  0  0  0  0  0  0  0
   -7.1175   15.6811  -32.7074 H   0  0  0  0  0  0  0  0  0  0  0  0
   -8.1583   16.4141  -33.9725 H   0  0  0  0  0  0  0  0  0  0  0  0
   -5.1634   15.9377  -33.9661 H   0  0  0  0  0  0  0  0  0  0  0  0
   -6.3817   15.6478  -35.2690 H   0  0  0  0  0  0  0  0  0  0  0  0
   -6.5470   18.2690  -35.0030 H   0  0  0  0  0  0  0  0  0  0  0  0
   -5.5440   17.5270  -36.1080 H   0  0  0  0  0  0  0  0  0  0  0  0
   -1.1429   20.4641  -31.7791 H   0  0  0  0  0  0  0  0  0  0  0  0
   -0.3066   19.9663  -33.2889 H   0  0  0  0  0  0  0  0  0  0  0  0
   -1.3771   21.4088  -33.2889 H   0  0  0  0  0  0  0  0  0  0  0  0
   -0.0952   18.1316  -33.2244 H   0  0  0  0  0  0  0  0  0  0  0  0
   -1.6652   14.7527  -35.3913 H   0  0  0  0  0  0  0  0  0  0  0  0
   -3.9045   15.8172  -35.4763 H   0  0  0  0  0  0  0  0  0  0  0  0
   -2.5156   21.8677  -31.1616 H   0  0  0  0  0  0  0  0  0  0  0  0
   -6.7567   19.6483  -33.0244 H   0  0  0  0  0  0  0  0  0  0  0  0
   -6.4119   20.5935  -34.4541 H   0  0  0  0  0  0  0  0  0  0  0  0
   -6.3603   25.2220  -31.0937 H   0  0  0  0  0  0  0  0  0  0  0  0
   -7.5679   24.0068  -30.5467 H   0  0  0  0  0  0  0  0  0  0  0  0
   -3.2930   25.0470  -31.5770 H   0  0  0  0  0  0  0  0  0  0  0  0
   -2.5389   22.9715  -28.4603 H   0  0  0  0  0  0  0  0  0  0  0  0
   -1.7514   23.2156  -30.1036 H   0  0  0  0  0  0  0  0  0  0  0  0
   -1.4766   24.7824  -27.6295 H   0  0  0  0  0  0  0  0  0  0  0  0
   -0.4221   24.6834  -29.0803 H   0  0  0  0  0  0  0  0  0  0  0  0
   -1.8497   25.7736  -29.0803 H   0  0  0  0  0  0  0  0  0  0  0  0
  1  2  1  0
  2  3  1  0
  3  4  1  0
  3  5  1  0
  5  6  1  0
  6  7  1  0
  7  8  1  0
  8  9  2  0
  9 10  1  0
 10 11  2  0
 11 12  1  0
 11 13  1  0
 13 14  2  0
 14 15  1  0
 15 16  1  0
 15 17  2  0
 17 18  1  0
 18 19  2  0
 10 20  1  0
 20 21  2  0
 21 22  1  0
 22 23  2  0
 23 24  1  0
 24 25  2  0
 24 26  1  0
 26 27  1  0
 23 28  1  0
 28 29  1  0
 29 30  1  0
 30 31  2  0
 30 32  1  0
 32 33  1  6
 32 34  1  0
 34 35  1  0
 19  8  1  0
 26 20  1  0
 27  9  1  0
 19 13  1  0
 32 22  1  0
  1 36  1  0
  1 37  1  0
  1 38  1  0
  2 39  1  0
  2 40  1  0
  4 41  1  0
  4 42  1  0
  4 43  1  0
  5 44  1  0
  5 45  1  0
  6 46  1  0
  6 47  1  0
  7 48  1  0
  7 49  1  0
 12 50  1  0
 12 51  1  0
 12 52  1  0
 14 53  1  0
 17 54  1  0
 18 55  1  0
 21 56  1  0
 27 57  1  0
 27 58  1  0
 28 59  1  0
 28 60  1  0
 33 61  1  0
 34 62  1  0
 34 63  1  0
 35 64  1  0
 35 65  1  0
 35 66  1  0
M  CHG  2   7   1  11   1
M  END
>  <UniqueID>  (7) 
7

>  <SMILES>  (7) 
CCN(C)CC[NH2+]c1c2c([n+](C)c3cc(Cl)ccc13)-c1cc3c(c(=O)n1C2)COC(=O)[C@@]3(O)CC

>  <Energy>  (7) 
123.4249585424081

>  <Genealogy>  (7) 
CCN(C)CC[NH2+]c1c2c([n+](C)c3cc(Cl)ccc13)-c1cc3c(c(=O)n1C2)COC(=O)C3(O)CC (protonated)
CCN(C)CC[NH2+]c1c2c([n+](C)c3cc(Cl)ccc13)-c1cc3c(c(=O)n1C2)COC(=O)[C@@]3(O)CC (chirality)
CCN(C)CC[NH2+]c1c2c([n+](C)c3cc(Cl)ccc13)-c1cc3c(c(=O)n1C2)COC(=O)[C@@]3(O)CC (3D coordinates assigned)
CCN(C)CC[NH2+]c1c2c([n+](C)c3cc(Cl)ccc13)-c1cc3c(c(=O)n1C2)COC(=O)[C@@]3(O)CC (nonaromatic ring conformer: 123.4249585424081 kcal/mol)

>  <smiles>  (7) 
CCN(C)CCNc1c2c([n+](C)c3cc(Cl)ccc13)-c1cc3c(c(=O)n1C2)COC(=O)C3(O)CC

>  <score_type>  (7) 
oracle

>  <origin>  (7) 
adg

>  <m_score__min__energy>  (7) 
-8.7599999999999998

>  <m_primary>  (7) 
energy

$$$$
7:0
     RDKit          3D

 65 67  0  0  0  0  0  0  0  0999 V2000
   -3.5980   23.8550  -29.1690 C   0  0  0  0  0  0  0  0  0  0  0  0
   -3.8650   22.3530  -29.1640 C   0  0  0  0  0  0  0  0  0  0  0  0
   -2.6360   21.6170  -28.8320 N   0  0  0  0  0  0  0  0  0  0  0  0
   -2.5640   21.2390  -27.4080 C   0  0  0  0  0  0  0  0  0  0  0  0
   -2.3360   19.7290  -27.1930 C   0  0  0  0  0  0  0  0  0  0  0  0
   -0.9260   19.2780  -27.5990 C   0  0  0  0  0  0  0  0  0  0  0  0
   -0.5300   19.9630  -28.8380 N   0  0  0  0  0  0  0  0  0  0  0  0
    0.0250   19.0430  -29.8470 C   0  0  0  0  0  0  0  0  0  0  0  0
   -0.6690   19.1130  -31.2300 C   0  0  0  0  0  0  0  0  0  0  0  0
   -1.7830   20.0760  -31.3200 N   0  0  0  0  0  0  0  0  0  0  0  0
   -1.8570   20.8220  -32.5850 C   0  0  0  0  0  0  0  0  0  0  0  0
   -2.9230   21.9270  -32.5310 C   0  0  0  0  0  0  0  0  0  0  0  0
   -3.9170   21.7520  -33.6020 N   0  0  0  0  0  0  0  0  0  0  0  0
   -5.0760   21.0250  -33.1110 C   0  0  0  0  0  0  0  0  0  0  0  0
   -6.0550   21.6780  -32.3190 C   0  0  0  0  0  0  0  0  0  0  0  0
   -7.2360   20.9860  -31.9570 C   0  0  0  0  0  0  0  0  0  0  0  0
   -7.4750   19.7180  -32.4380 N   0  0  0  0  0  0  0  0  0  0  0  0
   -8.8270   19.1290  -32.3210 C   0  0  0  0  0  0  0  0  0  0  0  0
   -6.4490   18.9930  -33.0090 C   0  0  0  0  0  0  0  0  0  0  0  0
   -6.5710   17.5990  -33.2390 C   0  0  0  0  0  0  0  0  0  0  0  0
   -5.5370   16.8710  -33.8210 C   0  0  0  0  0  0  0  0  0  0  0  0
   -4.3520   17.5020  -34.1710 C   0  0  0  0  0  0  0  0  0  0  0  0
   -4.1900   18.8640  -33.9400 C   0  0  0  0  0  0  0  0  0  0  0  0
   -5.2280   19.6360  -33.3610 C   0  0  0  0  0  0  0  0  0  0  0  0
   -8.2670   21.7140  -31.0990 C   0  0  0  0  0  0  0  0  0  0  0  0
   -7.6060   22.7020  -30.1350 C   0  0  0  0  0  0  0  0  0  0  0  0
   -6.6330   23.5750  -30.8590 C   0  0  0  0  0  0  0  0  0  0  0  0
   -5.8750   23.0810  -31.8390 C   0  0  0  0  0  0  0  0  0  0  0  0
   -3.5332   24.2193  -28.1331 H   0  0  0  0  0  0  0  0  0  0  0  0
   -2.6498   24.0571  -29.6887 H   0  0  0  0  0  0  0  0  0  0  0  0
   -4.4184   24.3715  -29.6887 H   0  0  0  0  0  0  0  0  0  0  0  0
   -4.6382   22.1244  -28.4157 H   0  0  0  0  0  0  0  0  0  0  0  0
   -4.2061   22.0470  -30.1640 H   0  0  0  0  0  0  0  0  0  0  0  0
   -2.5720   20.7660  -29.4370 H   0  0  0  0  0  0  0  0  0  0  0  0
   -1.7328   21.7883  -26.9417 H   0  0  0  0  0  0  0  0  0  0  0  0
   -3.5326   21.4923  -26.9523 H   0  0  0  0  0  0  0  0  0  0  0  0
   -2.4858   19.4988  -26.1278 H   0  0  0  0  0  0  0  0  0  0  0  0
   -3.0529   19.1911  -27.8307 H   0  0  0  0  0  0  0  0  0  0  0  0
   -0.2156   19.5297  -26.7978 H   0  0  0  0  0  0  0  0  0  0  0  0
   -0.9223   18.1905  -27.7641 H   0  0  0  0  0  0  0  0  0  0  0  0
   -1.3470   20.4800  -29.2360 H   0  0  0  0  0  0  0  0  0  0  0  0
    1.0894   19.2847  -29.9839 H   0  0  0  0  0  0  0  0  0  0  0  0
   -0.1389   18.0243  -29.4657 H   0  0  0  0  0  0  0  0  0  0  0  0
    0.0872   19.3950  -31.9775 H   0  0  0  0  0  0  0  0  0  0  0  0
   -1.1066   18.1191  -31.4053 H   0  0  0  0  0  0  0  0  0  0  0  0
   -1.7320   20.7540  -30.5250 H   0  0  0  0  0  0  0  0  0  0  0  0
   -0.8777   21.2808  -32.7862 H   0  0  0  0  0  0  0  0  0  0  0  0
   -2.1334   20.1174  -33.3832 H   0  0  0  0  0  0  0  0  0  0  0  0
   -3.4327   21.8881  -31.5570 H   0  0  0  0  0  0  0  0  0  0  0  0
   -2.4276   22.8996  -32.6674 H   0  0  0  0  0  0  0  0  0  0  0  0
   -3.4900   21.2670  -34.4210 H   0  0  0  0  0  0  0  0  0  0  0  0
   -4.2040   22.6770  -33.9900 H   0  0  0  0  0  0  0  0  0  0  0  0
   -9.0869   19.0158  -31.2582 H   0  0  0  0  0  0  0  0  0  0  0  0
   -9.5584   19.7900  -32.8089 H   0  0  0  0  0  0  0  0  0  0  0  0
   -8.8410   18.1432  -32.8089 H   0  0  0  0  0  0  0  0  0  0  0  0
   -7.4995   17.0836  -32.9523 H   0  0  0  0  0  0  0  0  0  0  0  0
   -5.6597   15.7933  -34.0038 H   0  0  0  0  0  0  0  0  0  0  0  0
   -3.5382   16.9235  -34.6325 H   0  0  0  0  0  0  0  0  0  0  0  0
   -3.2410   19.3498  -34.2110 H   0  0  0  0  0  0  0  0  0  0  0  0
   -8.9541   22.2648  -31.7582 H   0  0  0  0  0  0  0  0  0  0  0  0
   -8.8080   20.9640  -30.5033 H   0  0  0  0  0  0  0  0  0  0  0  0
   -8.3819   23.3309  -29.6741 H   0  0  0  0  0  0  0  0  0  0  0  0
   -7.0659   22.1350  -29.3625 H   0  0  0  0  0  0  0  0  0  0  0  0
   -6.5410   24.6353  -30.5810 H   0  0  0  0  0  0  0  0  0  0  0  0
   -5.1053   23.7167  -32.3010 H   0  0  0  0  0  0  0  0  0  0  0  0
  1  2  1  0
  2  3  1  0
  3  4  1  0
  4  5  1  0
  5  6  1  0
  6  7  1  0
  7  8  1  0
  8  9  1  0
  9 10  1  0
 10 11  1  0
 11 12  1  0
 12 13  1  0
 13 14  1  0
 14 15  2  0
 15 16  1  0
 16 17  2  0
 17 18  1  0
 17 19  1  0
 19 20  2  0
 20 21  1  0
 21 22  2  0
 22 23  1  0
 23 24  2  0
 16 25  1  0
 25 26  1  0
 26 27  1  0
 27 28  2  0
 24 14  1  0
 28 15  1  0
 24 19  1  0
  1 29  1  0
  1 30  1  0
  1 31  1  0
  2 32  1  0
  2 33  1  0
  3 34  1  0
  4 35  1  0
  4 36  1  0
  5 37  1  0
  5 38  1  0
  6 39  1  0
  6 40  1  0
  7 41  1  0
  8 42  1  0
  8 43  1  0
  9 44  1  0
  9 45  1  0
 10 46  1  0
 11 47  1  0
 11 48  1  0
 12 49  1  0
 12 50  1  0
 13 51  1  0
 13 52  1  0
 18 53  1  0
 18 54  1  0
 18 55  1  0
 20 56  1  0
 21 57  1  0
 22 58  1  0
 23 59  1  0
 25 60  1  0
 25 61  1  0
 26 62  1  0
 26 63  1  0
 27 64  1  0
 28 65  1  0
M  CHG  2  13   1  17   1
M  END
>  <UniqueID>  (8) 
8

>  <SMILES>  (8) 
CCNCCCNCCNCC[NH2+]c1c2c([n+](C)c3ccccc13)CCC=C2

>  <Energy>  (8) 
85.17110731295072

>  <Genealogy>  (8) 
CCNCCCNCCNCC[NH2+]c1c2c([n+](C)c3ccccc13)CCC=C2 (protonated)
CCNCCCNCCNCC[NH2+]c1c2c([n+](C)c3ccccc13)CCC=C2 (3D coordinates assigned)
CCNCCCNCCNCC[NH2+]c1c2c([n+](C)c3ccccc13)CCC=C2 (nonaromatic ring conformer: 85.17110731295072 kcal/mol)

>  <smiles>  (8) 
CCNCCCNCCNCCNc1c2c([n+](C)c3ccccc13)CCC=C2

>  <score_type>  (8) 
oracle

>  <origin>  (8) 
adg

>  <m_score__min__energy>  (8) 
-8.6799999999999997

>  <m_primary>  (8) 
energy

$$$$
8:0
     RDKit          3D

 34 34  0  0  0  0  0  0  0  0999 V2000
   -3.4890   21.5450  -33.4380 C   0  0  0  0  0  0  0  0  0  0  0  0
   -3.1740   21.6950  -31.9560 C   0  0  0  0  0  0  0  0  0  0  0  0
   -3.4360   23.0220  -31.5390 O   0  0  0  0  0  0  0  0  0  0  0  0
   -3.2630   23.1470  -30.1430 C   0  0  0  0  0  0  0  0  0  0  0  0
   -3.7380   24.5260  -29.6940 C   0  0  0  0  0  0  0  0  0  0  0  0
   -4.3900   25.2350  -30.8060 N   0  0  0  0  0  0  0  0  0  0  0  0
   -5.7340   25.6940  -30.4330 C   0  0  0  0  0  0  0  0  0  0  0  0
   -6.7290   24.5310  -30.4320 C   0  0  0  0  0  0  0  0  0  0  0  0
   -6.4550   23.6190  -31.4970 O   0  0  0  0  0  0  0  0  0  0  0  0
   -7.1960   22.4700  -31.8220 C   0  0  0  0  0  0  0  0  0  0  0  0
   -8.5790   22.4980  -31.5950 C   0  0  0  0  0  0  0  0  0  0  0  0
   -9.3700   21.3820  -31.8830 C   0  0  0  0  0  0  0  0  0  0  0  0
   -8.7850   20.2260  -32.4050 C   0  0  0  0  0  0  0  0  0  0  0  0
   -7.4080   20.1850  -32.6330 C   0  0  0  0  0  0  0  0  0  0  0  0
   -6.6110   21.2970  -32.3400 C   0  0  0  0  0  0  0  0  0  0  0  0
   -4.4763   21.0749  -33.5573 H   0  0  0  0  0  0  0  0  0  0  0  0
   -3.4953   22.5368  -33.9137 H   0  0  0  0  0  0  0  0  0  0  0  0
   -2.7230   20.9150  -33.9137 H   0  0  0  0  0  0  0  0  0  0  0  0
   -3.8013   21.0006  -31.3778 H   0  0  0  0  0  0  0  0  0  0  0  0
   -2.1115   21.4657  -31.7869 H   0  0  0  0  0  0  0  0  0  0  0  0
   -3.8505   22.3715  -29.6297 H   0  0  0  0  0  0  0  0  0  0  0  0
   -2.1987   23.0259  -29.8927 H   0  0  0  0  0  0  0  0  0  0  0  0
   -4.4556   24.4103  -28.8684 H   0  0  0  0  0  0  0  0  0  0  0  0
   -2.8676   25.1107  -29.3616 H   0  0  0  0  0  0  0  0  0  0  0  0
   -4.5010   24.5530  -31.5940 H   0  0  0  0  0  0  0  0  0  0  0  0
   -5.6968   26.1367  -29.4267 H   0  0  0  0  0  0  0  0  0  0  0  0
   -6.0670   26.4401  -31.1695 H   0  0  0  0  0  0  0  0  0  0  0  0
   -6.6559   23.9964  -29.4734 H   0  0  0  0  0  0  0  0  0  0  0  0
   -7.7416   24.9373  -30.5717 H   0  0  0  0  0  0  0  0  0  0  0  0
   -9.0460   23.4063  -31.1866 H   0  0  0  0  0  0  0  0  0  0  0  0
  -10.4539   21.4142  -31.6984 H   0  0  0  0  0  0  0  0  0  0  0  0
   -9.4080   19.3494  -32.6361 H   0  0  0  0  0  0  0  0  0  0  0  0
   -6.9479   19.2746  -33.0447 H   0  0  0  0  0  0  0  0  0  0  0  0
   -5.5257   21.2557  -32.5143 H   0  0  0  0  0  0  0  0  0  0  0  0
  1  2  1  0
  2  3  1  0
  3  4  1  0
  4  5  1  0
  5  6  1  0
  6  7  1  0
  7  8  1  0
  8  9  1  0
  9 10  1  0
 10 11  2  0
 11 12  1  0
 12 13  2  0
 13 14  1  0
 14 15  2  0
 15 10  1  0
  1 16  1  0
  1 17  1  0
  1 18  1  0
  2 19  1  0
  2 20  1  0
  4 21  1  0
  4 22  1  0
  5 23  1  0
  5 24  1  0
  6 25  1  0
  7 26  1  0
  7 27  1  0
  8 28  1  0
  8 29  1  0
 11 30  1  0
 12 31  1  0
 13 32  1  0
 14 33  1  0
 15 34  1  0
M  END
>  <UniqueID>  (9) 
9

>  <SMILES>  (9) 
CCOCCNCCOc1ccccc1

>  <Energy>  (9) 
26.033623281246953

>  <Genealogy>  (9) 
CCOCCNCCOc1ccccc1 (3D coordinates assigned)
CCOCCNCCOc1ccccc1 (optimized conformer: 26.033623281246953 kcal/mol)

>  <smiles>  (9) 
CCOCCNCCOc1ccccc1

>  <score_type>  (9) 
oracle

>  <origin>  (9) 
adg

>  <m_score__min__energy>  (9) 
-6.04

>  <m_primary>  (9) 
energy

$$$$
9:0
     RDKit          3D

 53 55  0  0  0  0  0  0  0  0999 V2000
   -3.0850   21.3570  -28.5960 C   0  0  0  0  0  0  0  0  0  0  0  0
   -2.5140   21.3860  -30.0110 C   0  0  0  0  0  0  0  0  0  0  0  0
   -2.3470   22.7720  -30.4630 N   0  0  0  0  0  0  0  0  0  0  0  0
   -2.2500   23.7170  -29.3400 C   0  0  0  0  0  0  0  0  0  0  0  0
   -3.5480   24.5270  -29.2210 C   0  0  0  0  0  0  0  0  0  0  0  0
   -4.0630   24.8450  -30.5040 O   0  0  0  0  0  0  0  0  0  0  0  0
   -5.2870   25.5520  -30.4120 C   0  0  0  0  0  0  0  0  0  0  0  0
   -6.4540   24.6470  -30.8290 C   0  0  0  0  0  0  0  0  0  0  0  0
   -6.1170   23.7910  -32.0630 C   0  0  0  0  0  0  0  0  0  0  0  0
   -5.2810   22.6320  -31.7310 N   0  0  0  0  0  0  0  0  0  0  0  0
   -5.4170   21.3470  -32.3660 C   0  0  0  0  0  0  0  0  0  0  0  0
   -6.6380   20.6530  -32.2830 C   0  0  0  0  0  0  0  0  0  0  0  0
   -7.7510   21.2280  -31.6320 C   0  0  0  0  0  0  0  0  0  0  0  0
   -8.9330   20.5080  -31.4710 C   0  0  0  0  0  0  0  0  0  0  0  0
   -9.0240   19.2060  -31.9480 C   0  0  0  0  0  0  0  0  0  0  0  0
   -7.9470   18.6260  -32.6160 C   0  0  0  0  0  0  0  0  0  0  0  0
   -6.7450   19.3490  -32.8350 C   0  0  0  0  0  0  0  0  0  0  0  0
   -5.6870   18.8030  -33.5390 N   0  0  0  0  0  0  0  0  0  0  0  0
   -5.8890   17.5730  -34.3390 C   0  0  0  0  0  0  0  0  0  0  0  0
   -4.4530   19.4270  -33.5310 C   0  0  0  0  0  0  0  0  0  0  0  0
   -3.2910   18.7880  -34.0350 C   0  0  0  0  0  0  0  0  0  0  0  0
   -2.0720   19.4620  -34.1050 C   0  0  0  0  0  0  0  0  0  0  0  0
   -1.9790   20.7820  -33.6820 C   0  0  0  0  0  0  0  0  0  0  0  0
   -3.0910   21.4210  -33.1380 C   0  0  0  0  0  0  0  0  0  0  0  0
   -4.3190   20.7400  -33.0030 C   0  0  0  0  0  0  0  0  0  0  0  0
   -2.2619   21.3988  -27.8675 H   0  0  0  0  0  0  0  0  0  0  0  0
   -3.7479   22.2226  -28.4503 H   0  0  0  0  0  0  0  0  0  0  0  0
   -3.6568   20.4287  -28.4503 H   0  0  0  0  0  0  0  0  0  0  0  0
   -1.5366   20.8813  -30.0186 H   0  0  0  0  0  0  0  0  0  0  0  0
   -3.2094   20.8693  -30.6888 H   0  0  0  0  0  0  0  0  0  0  0  0
   -3.1910   23.0320  -31.0240 H   0  0  0  0  0  0  0  0  0  0  0  0
   -2.0826   23.1583  -28.4074 H   0  0  0  0  0  0  0  0  0  0  0  0
   -1.4106   24.4050  -29.5189 H   0  0  0  0  0  0  0  0  0  0  0  0
   -4.2934   23.9348  -28.6699 H   0  0  0  0  0  0  0  0  0  0  0  0
   -3.3313   25.4635  -28.6861 H   0  0  0  0  0  0  0  0  0  0  0  0
   -5.4376   25.8843  -29.3743 H   0  0  0  0  0  0  0  0  0  0  0  0
   -5.2501   26.4226  -31.0833 H   0  0  0  0  0  0  0  0  0  0  0  0
   -6.7000   23.9782  -29.9910 H   0  0  0  0  0  0  0  0  0  0  0  0
   -7.3048   25.2936  -31.0900 H   0  0  0  0  0  0  0  0  0  0  0  0
   -7.0556   23.4324  -32.5107 H   0  0  0  0  0  0  0  0  0  0  0  0
   -5.5505   24.4223  -32.7633 H   0  0  0  0  0  0  0  0  0  0  0  0
   -4.4650   22.7780  -31.0930 H   0  0  0  0  0  0  0  0  0  0  0  0
   -7.6843   22.2564  -31.2474 H   0  0  0  0  0  0  0  0  0  0  0  0
   -9.7941   20.9703  -30.9663 H   0  0  0  0  0  0  0  0  0  0  0  0
   -9.9496   18.6309  -31.7978 H   0  0  0  0  0  0  0  0  0  0  0  0
   -8.0297   17.5911  -32.9795 H   0  0  0  0  0  0  0  0  0  0  0  0
   -6.0298   16.7157  -33.6643 H   0  0  0  0  0  0  0  0  0  0  0  0
   -6.7799   17.6904  -34.9734 H   0  0  0  0  0  0  0  0  0  0  0  0
   -5.0073   17.3993  -34.9734 H   0  0  0  0  0  0  0  0  0  0  0  0
   -3.3524   17.7440  -34.3761 H   0  0  0  0  0  0  0  0  0  0  0  0
   -1.1821   18.9472  -34.4961 H   0  0  0  0  0  0  0  0  0  0  0  0
   -1.0261   21.3233  -33.7767 H   0  0  0  0  0  0  0  0  0  0  0  0
   -3.0106   22.4679  -32.8102 H   0  0  0  0  0  0  0  0  0  0  0  0
  1  2  1  0
  2  3  1  0
  3  4  1  0
  4  5  1  0
  5  6  1  0
  6  7  1  0
  7  8  1  0
  8  9  1  0
  9 10  1  0
 10 11  1  0
 11 12  2  0
 12 13  1  0
 13 14  2  0
 14 15  1  0
 15 16  2  0
 16 17  1  0
 17 18  2  0
 18 19  1  0
 18 20  1  0
 20 21  2  0
 21 22  1  0
 22 23  2  0
 23 24  1  0
 24 25  2  0
 25 11  1  0
 17 12  1  0
 25 20  1  0
  1 26  1  0
  1 27  1  0
  1 28  1  0
  2 29  1  0
  2 30  1  0
  3 31  1  0
  4 32  1  0
  4 33  1  0
  5 34  1  0
  5 35  1  0
  7 36  1  0
  7 37  1  0
  8 38  1  0
  8 39  1  0
  9 40  1  0
  9 41  1  0
 10 42  1  0
 13 43  1  0
 14 44  1  0
 15 45  1  0
 16 46  1  0
 19 47  1  0
 19 48  1  0
 19 49  1  0
 21 50  1  0
 22 51  1  0
 23 52  1  0
 24 53  1  0
M  CHG  1  18   1
M  END
>  <UniqueID>  (10) 
10

>  <SMILES>  (10) 
CCNCCOCCCNc1c2ccccc2[n+](C)c2ccccc12

>  <Energy>  (10) 
72.09146208150625

>  <Genealogy>  (10) 
CCNCCOCCCNc1c2ccccc2[n+](C)c2ccccc12 (3D coordinates assigned)
CCNCCOCCCNc1c2ccccc2[n+](C)c2ccccc12 (optimized conformer: 72.09146208150625 kcal/mol)

>  <smiles>  (10) 
CCNCCOCCCNc1c2ccccc2[n+](C)c2ccccc12

>  <score_type>  (10) 
oracle

>  <origin>  (10) 
adg

>  <m_score__min__energy>  (10) 
-9.4299999999999997

>  <m_primary>  (10) 
energy

$$$$
10:0
     RDKit          3D

 90 93  0  0  0  0  0  0  0  0999 V2000
    0.1200   27.1830  -23.2550 C   0  0  0  0  0  0  0  0  0  0  0  0
    0.7430   26.0620  -24.0900 C   0  0  0  0  0  0  0  0  0  0  0  0
   -0.2970   25.2350  -24.7800 N   0  0  0  0  0  0  0  0  0  0  0  0
   -0.4900   23.9300  -24.0980 C   0  0  0  0  0  0  0  0  0  0  0  0
   -0.4460   22.7470  -25.0740 C   0  0  0  0  0  0  0  0  0  0  0  0
   -1.5980   25.9540  -24.8470 C   0  0  0  0  0  0  0  0  0  0  0  0
   -2.3600   25.6990  -26.1590 C   0  0  0  0  0  0  0  0  0  0  0  0
   -1.5630   24.9110  -27.0260 O   0  0  0  0  0  0  0  0  0  0  0  0
   -2.3610   24.3070  -28.0270 C   0  0  0  0  0  0  0  0  0  0  0  0
   -3.8430   24.4580  -27.6850 C   0  0  0  0  0  0  0  0  0  0  0  0
   -4.6060   23.6720  -28.5790 O   0  0  0  0  0  0  0  0  0  0  0  0
   -5.2160   24.4860  -29.5630 C   0  0  0  0  0  0  0  0  0  0  0  0
   -5.4210   23.6770  -30.8520 C   0  0  0  0  0  0  0  0  0  0  0  0
   -4.9460   22.2940  -30.7370 N   0  0  0  0  0  0  0  0  0  0  0  0
   -5.3530   21.2310  -31.6170 C   0  0  0  0  0  0  0  0  0  0  0  0
   -6.7220   20.9500  -31.7840 C   0  0  0  0  0  0  0  0  0  0  0  0
   -7.7090   21.7560  -31.1750 C   0  0  0  0  0  0  0  0  0  0  0  0
   -9.0620   21.4880  -31.3600 C   0  0  0  0  0  0  0  0  0  0  0  0
   -9.4580   20.4260  -32.1620 C   0  0  0  0  0  0  0  0  0  0  0  0
   -8.5030   19.6210  -32.7820 C   0  0  0  0  0  0  0  0  0  0  0  0
   -7.1160   19.8540  -32.5930 C   0  0  0  0  0  0  0  0  0  0  0  0
   -6.1600   19.0630  -33.1980 N   0  0  0  0  0  0  0  0  0  0  0  0
   -6.5470   17.7600  -33.7850 C   0  0  0  0  0  0  0  0  0  0  0  0
   -4.8420   19.4770  -33.2340 C   0  0  0  0  0  0  0  0  0  0  0  0
   -3.9110   18.8880  -34.1220 C   0  0  0  0  0  0  0  0  0  0  0  0
   -2.5720   19.2610  -34.1150 C   0  0  0  0  0  0  0  0  0  0  0  0
   -2.1190   20.2170  -33.2200 C   0  0  0  0  0  0  0  0  0  0  0  0
   -3.0080   20.8520  -32.3450 C   0  0  0  0  0  0  0  0  0  0  0  0
   -2.5130   21.7620  -31.4010 O   0  0  0  0  0  0  0  0  0  0  0  0
   -1.1390   21.8760  -31.0310 C   0  0  0  0  0  0  0  0  0  0  0  0
   -0.6520   20.6010  -30.3010 C   0  0  0  0  0  0  0  0  0  0  0  0
   -0.9370   20.5390  -28.8240 N   0  0  0  0  0  0  0  0  0  0  0  0
   -0.3260   21.7280  -28.1610 C   0  0  0  0  0  0  0  0  0  0  0  0
   -0.3940   19.2570  -28.2450 C   0  0  0  0  0  0  0  0  0  0  0  0
   -1.2940   18.5680  -27.1940 C   0  0  0  0  0  0  0  0  0  0  0  0
   -2.0460   19.5800  -26.3390 C   0  0  0  0  0  0  0  0  0  0  0  0
   -2.9140   20.5010  -27.2070 C   0  0  0  0  0  0  0  0  0  0  0  0
   -2.4230   20.6040  -28.6730 C   0  0  0  0  0  0  0  0  0  0  0  0
   -4.3950   20.5270  -32.3820 C   0  0  0  0  0  0  0  0  0  0  0  0
    0.2456   26.9570  -22.1858 H   0  0  0  0  0  0  0  0  0  0  0  0
    0.6183   28.1352  -23.4895 H   0  0  0  0  0  0  0  0  0  0  0  0
   -0.9518   27.2626  -23.4895 H   0  0  0  0  0  0  0  0  0  0  0  0
    1.4030   26.5084  -24.8484 H   0  0  0  0  0  0  0  0  0  0  0  0
    1.3061   25.4044  -23.4114 H   0  0  0  0  0  0  0  0  0  0  0  0
   -0.0090   25.0210  -25.7640 H   0  0  0  0  0  0  0  0  0  0  0  0
    0.3067   23.8010  -23.3506 H   0  0  0  0  0  0  0  0  0  0  0  0
   -1.4851   23.9408  -23.6293 H   0  0  0  0  0  0  0  0  0  0  0  0
   -0.4110   21.8050  -24.5070 H   0  0  0  0  0  0  0  0  0  0  0  0
   -1.3453   22.7605  -25.7073 H   0  0  0  0  0  0  0  0  0  0  0  0
    0.4498   22.8273  -25.7073 H   0  0  0  0  0  0  0  0  0  0  0  0
   -2.2257   25.6216  -24.0070 H   0  0  0  0  0  0  0  0  0  0  0  0
   -1.3811   27.0312  -24.7970 H   0  0  0  0  0  0  0  0  0  0  0  0
   -3.2981   25.1678  -25.9402 H   0  0  0  0  0  0  0  0  0  0  0  0
   -2.5857   26.6605  -26.6433 H   0  0  0  0  0  0  0  0  0  0  0  0
   -2.1601   24.7924  -28.9935 H   0  0  0  0  0  0  0  0  0  0  0  0
   -2.1139   23.2367  -28.0849 H   0  0  0  0  0  0  0  0  0  0  0  0
   -4.0195   24.1190  -26.6535 H   0  0  0  0  0  0  0  0  0  0  0  0
   -4.1385   25.5138  -27.7745 H   0  0  0  0  0  0  0  0  0  0  0  0
   -6.1906   24.8376  -29.1934 H   0  0  0  0  0  0  0  0  0  0  0  0
   -4.5671   25.3487  -29.7745 H   0  0  0  0  0  0  0  0  0  0  0  0
   -6.4949   23.6611  -31.0899 H   0  0  0  0  0  0  0  0  0  0  0  0
   -4.8344   24.1637  -31.6451 H   0  0  0  0  0  0  0  0  0  0  0  0
   -4.1780   22.0940  -30.0600 H   0  0  0  0  0  0  0  0  0  0  0  0
   -7.4045   22.6060  -30.5467 H   0  0  0  0  0  0  0  0  0  0  0  0
   -9.8188   22.1184  -30.8702 H   0  0  0  0  0  0  0  0  0  0  0  0
  -10.5283   20.2190  -32.3087 H   0  0  0  0  0  0  0  0  0  0  0  0
   -8.8299   18.7925  -33.4276 H   0  0  0  0  0  0  0  0  0  0  0  0
   -6.7599   17.0432  -32.9783 H   0  0  0  0  0  0  0  0  0  0  0  0
   -7.4453   17.8901  -34.4064 H   0  0  0  0  0  0  0  0  0  0  0  0
   -5.7233   17.3787  -34.4064 H   0  0  0  0  0  0  0  0  0  0  0  0
   -4.2534   18.1203  -34.8314 H   0  0  0  0  0  0  0  0  0  0  0  0
   -1.8696   18.7957  -34.8223 H   0  0  0  0  0  0  0  0  0  0  0  0
   -1.0510   20.4793  -33.1970 H   0  0  0  0  0  0  0  0  0  0  0  0
   -0.5338   22.0245  -31.9374 H   0  0  0  0  0  0  0  0  0  0  0  0
   -1.0301   22.7325  -30.3494 H   0  0  0  0  0  0  0  0  0  0  0  0
   -1.1380   19.7352  -30.7746 H   0  0  0  0  0  0  0  0  0  0  0  0
    0.4442   20.6062  -30.3925 H   0  0  0  0  0  0  0  0  0  0  0  0
   -0.3865   21.6103  -27.0690 H   0  0  0  0  0  0  0  0  0  0  0  0
    0.7283   21.8146  -28.4626 H   0  0  0  0  0  0  0  0  0  0  0  0
   -0.8694   22.6356  -28.4626 H   0  0  0  0  0  0  0  0  0  0  0  0
   -0.2382   18.5502  -29.0734 H   0  0  0  0  0  0  0  0  0  0  0  0
    0.5310   19.5320  -27.7169 H   0  0  0  0  0  0  0  0  0  0  0  0
   -2.0236   17.9299  -27.7141 H   0  0  0  0  0  0  0  0  0  0  0  0
   -0.6491   17.9733  -26.5303 H   0  0  0  0  0  0  0  0  0  0  0  0
   -2.6917   19.0415  -25.6297 H   0  0  0  0  0  0  0  0  0  0  0  0
   -1.3112   20.1974  -25.8015 H   0  0  0  0  0  0  0  0  0  0  0  0
   -3.9424   20.1107  -27.2099 H   0  0  0  0  0  0  0  0  0  0  0  0
   -2.8545   21.5096  -26.7720 H   0  0  0  0  0  0  0  0  0  0  0  0
   -2.8651   19.7747  -29.2447 H   0  0  0  0  0  0  0  0  0  0  0  0
   -2.7372   21.5905  -29.0446 H   0  0  0  0  0  0  0  0  0  0  0  0
  1  2  1  0
  2  3  1  0
  3  4  1  0
  4  5  1  0
  3  6  1  0
  6  7  1  0
  7  8  1  0
  8  9  1  0
  9 10  1  0
 10 11  1  0
 11 12  1  0
 12 13  1  0
 13 14  1  0
 14 15  1  0
 15 16  2  0
 16 17  1  0
 17 18  2  0
 18 19  1  0
 19 20  2  0
 20 21  1  0
 21 22  2  0
 22 23  1  0
 22 24  1  0
 24 25  2  0
 25 26  1  0
 26 27  2  0
 27 28  1  0
 28 29  1  0
 29 30  1  0
 30 31  1  0
 31 32  1  0
 32 33  1  0
 32 34  1  0
 34 35  1  0
 35 36  1  0
 36 37  1  0
 37 38  1  0
 28 39  2  0
 39 15  1  0
 21 16  1  0
 39 24  1  0
 38 32  1  0
  1 40  1  0
  1 41  1  0
  1 42  1  0
  2 43  1  0
  2 44  1  0
  3 45  1  0
  4 46  1  0
  4 47  1  0
  5 48  1  0
  5 49  1  0
  5 50  1  0
  6 51  1  0
  6 52  1  0
  7 53  1  0
  7 54  1  0
  9 55  1  0
  9 56  1  0
 10 57  1  0
 10 58  1  0
 12 59  1  0
 12 60  1  0
 13 61  1  0
 13 62  1  0
 14 63  1  0
 17 64  1  0
 18 65  1  0
 19 66  1  0
 20 67  1  0
 23 68  1  0
 23 69  1  0
 23 70  1  0
 25 71  1  0
 26 72  1  0
 27 73  1  0
 30 74  1  0
 30 75  1  0
 31 76  1  0
 31 77  1  0
 33 78  1  0
 33 79  1  0
 33 80  1  0
 34 81  1  0
 34 82  1  0
 35 83  1  0
 35 84  1  0
 36 85  1  0
 36 86  1  0
 37 87  1  0
 37 88  1  0
 38 89  1  0
 38 90  1  0
M  CHG  3   3   1  22   1  32   1
M  END
>  <UniqueID>  (11) 
11

>  <SMILES>  (11) 
CC[NH+](CC)CCOCCOCCNc1c2ccccc2[n+](C)c2cccc(OCC[N+]3(C)CCCCC3)c12

>  <Energy>  (11) 
144.19422351850565

>  <Genealogy>  (11) 
CC[NH+](CC)CCOCCOCCNc1c2ccccc2[n+](C)c2cccc(OCC[N+]3(C)CCCCC3)c12 (protonated)
CC[NH+](CC)CCOCCOCCNc1c2ccccc2[n+](C)c2cccc(OCC[N+]3(C)CCCCC3)c12 (3D coordinates assigned)
CC[NH+](CC)CCOCCOCCNc1c2ccccc2[n+](C)c2cccc(OCC[N+]3(C)CCCCC3)c12 (nonaromatic ring conformer: 144.19422351850565 kcal/mol)

>  <smiles>  (11) 
CCN(CC)CCOCCOCCNc1c2ccccc2[n+](C)c2cccc(OCC[N+]3(C)CCCCC3)c12

>  <score_type>  (11) 
oracle

>  <origin>  (11) 
adg

>  <m_score__min__energy>  (11) 
-7.7800000000000002

>  <m_primary>  (11) 
energy

$$$$
11:0
     RDKit          3D

 50 50  0  0  0  0  0  0  0  0999 V2000
   -8.4980   21.9200  -30.1900 C   0  0  0  0  0  0  0  0  0  0  0  0
   -9.1080   22.4630  -31.4720 C   0  0  0  0  0  0  0  0  0  0  0  0
   -8.0660   22.8710  -32.3530 O   0  0  0  0  0  0  0  0  0  0  0  0
   -6.6920   22.7490  -32.0970 C   0  0  0  0  0  0  0  0  0  0  0  0
   -5.9950   23.7660  -31.4170 C   0  0  0  0  0  0  0  0  0  0  0  0
   -4.6190   23.6650  -31.1840 C   0  0  0  0  0  0  0  0  0  0  0  0
   -3.8810   24.6800  -30.4900 N   0  0  0  0  0  0  0  0  0  0  0  0
   -2.7420   24.4160  -29.2090 S   0  0  0  0  0  0  0  0  0  0  0  0
   -3.5900   23.9170  -27.7250 C   0  0  0  0  0  0  0  0  0  0  0  0
   -1.9450   25.6660  -28.9630 O   0  0  0  0  0  0  0  0  0  0  0  0
   -1.8020   23.3180  -29.6180 O   0  0  0  0  0  0  0  0  0  0  0  0
   -3.9290   22.5510  -31.6560 C   0  0  0  0  0  0  0  0  0  0  0  0
   -4.5890   21.5250  -32.3490 C   0  0  0  0  0  0  0  0  0  0  0  0
   -3.7750   20.3770  -32.8380 C   0  0  0  0  0  0  0  0  0  0  0  0
   -2.8940   20.5930  -33.7150 O   0  0  0  0  0  0  0  0  0  0  0  0
   -3.9590   18.9570  -32.3500 C   0  0  0  0  0  0  0  0  0  0  0  0
   -5.1990   18.3150  -32.8660 N   0  0  2  0  0  0  0  0  0  0  0  0
   -5.7220   17.3800  -31.8510 C   0  0  0  0  0  0  0  0  0  0  0  0
   -4.9710   17.5740  -34.1320 C   0  0  0  0  0  0  0  0  0  0  0  0
   -5.7520   18.1570  -35.3160 C   0  0  0  0  0  0  0  0  0  0  0  0
   -5.9890   21.5990  -32.5430 C   0  0  0  0  0  0  0  0  0  0  0  0
   -6.6210   20.5100  -33.1770 O   0  0  0  0  0  0  0  0  0  0  0  0
   -7.9930   20.1190  -33.1020 C   0  0  0  0  0  0  0  0  0  0  0  0
   -8.2370   19.1890  -31.9170 C   0  0  0  0  0  0  0  0  0  0  0  0
   -9.0042   22.3706  -29.3236 H   0  0  0  0  0  0  0  0  0  0  0  0
   -8.6214   20.8274  -30.1594 H   0  0  0  0  0  0  0  0  0  0  0  0
   -7.4270   22.1691  -30.1594 H   0  0  0  0  0  0  0  0  0  0  0  0
   -9.7101   21.6784  -31.9535 H   0  0  0  0  0  0  0  0  0  0  0  0
   -9.7512   23.3242  -31.2381 H   0  0  0  0  0  0  0  0  0  0  0  0
   -6.5405   24.6534  -31.0636 H   0  0  0  0  0  0  0  0  0  0  0  0
   -3.0197   24.2526  -26.8463 H   0  0  0  0  0  0  0  0  0  0  0  0
   -4.5926   24.3691  -27.7059 H   0  0  0  0  0  0  0  0  0  0  0  0
   -3.6816   22.8210  -27.7059 H   0  0  0  0  0  0  0  0  0  0  0  0
   -2.8456   22.4741  -31.4821 H   0  0  0  0  0  0  0  0  0  0  0  0
   -3.0946   18.3604  -32.6768 H   0  0  0  0  0  0  0  0  0  0  0  0
   -4.0435   18.9967  -31.2540 H   0  0  0  0  0  0  0  0  0  0  0  0
   -5.9490   19.0280  -33.0220 H   0  0  0  0  0  0  0  0  0  0  0  0
   -5.5037   17.7702  -30.8460 H   0  0  0  0  0  0  0  0  0  0  0  0
   -6.8099   17.2749  -31.9752 H   0  0  0  0  0  0  0  0  0  0  0  0
   -5.2422   16.3980  -31.9752 H   0  0  0  0  0  0  0  0  0  0  0  0
   -3.8975   17.6076  -34.3695 H   0  0  0  0  0  0  0  0  0  0  0  0
   -5.3254   16.5440  -33.9790 H   0  0  0  0  0  0  0  0  0  0  0  0
   -6.5804   18.7754  -34.9400 H   0  0  0  0  0  0  0  0  0  0  0  0
   -5.0806   18.7766  -35.9286 H   0  0  0  0  0  0  0  0  0  0  0  0
   -6.1552   17.3372  -35.9286 H   0  0  0  0  0  0  0  0  0  0  0  0
   -8.6166   21.0178  -32.9872 H   0  0  0  0  0  0  0  0  0  0  0  0
   -8.2535   19.5820  -34.0260 H   0  0  0  0  0  0  0  0  0  0  0  0
   -8.0913   19.7445  -30.9788 H   0  0  0  0  0  0  0  0  0  0  0  0
   -9.2666   18.8040  -31.9590 H   0  0  0  0  0  0  0  0  0  0  0  0
   -7.5291   18.3481  -31.9590 H   0  0  0  0  0  0  0  0  0  0  0  0
  1  2  1  0
  2  3  1  0
  3  4  1  0
  4  5  2  0
  5  6  1  0
  6  7  1  0
  7  8  1  0
  8  9  1  0
  8 10  2  0
  8 11  2  0
  6 12  2  0
 12 13  1  0
 13 14  1  0
 14 15  2  0
 14 16  1  0
 16 17  1  0
 17 18  1  0
 17 19  1  0
 19 20  1  0
 13 21  2  0
 21 22  1  0
 22 23  1  0
 23 24  1  0
 21  4  1  0
  1 25  1  0
  1 26  1  0
  1 27  1  0
  2 28  1  0
  2 29  1  0
  5 30  1  0
  9 31  1  0
  9 32  1  0
  9 33  1  0
 12 34  1  0
 16 35  1  0
 16 36  1  0
 17 37  1  6
 18 38  1  0
 18 39  1  0
 18 40  1  0
 19 41  1  0
 19 42  1  0
 20 43  1  0
 20 44  1  0
 20 45  1  0
 23 46  1  0
 23 47  1  0
 24 48  1  0
 24 49  1  0
 24 50  1  0
M  CHG  2   7  -1  17   1
M  END
>  <UniqueID>  (12) 
12

>  <SMILES>  (12) 
CCOc1cc([N-]S(C)(=O)=O)cc(C(=O)C[N@H+](C)CC)c1OCC

>  <Energy>  (12) 
49.86543403913553

>  <Genealogy>  (12) 
CCOc1cc([N-]S(C)(=O)=O)cc(C(=O)C[NH+](C)CC)c1OCC (protonated)
CCOc1cc([N-]S(C)(=O)=O)cc(C(=O)C[N@H+](C)CC)c1OCC (chirality)
CCOc1cc([N-]S(C)(=O)=O)cc(C(=O)C[N@H+](C)CC)c1OCC (3D coordinates assigned)
CCOc1cc([N-]S(C)(=O)=O)cc(C(=O)C[N@H+](C)CC)c1OCC (optimized conformer: 49.86543403913553 kcal/mol)

>  <smiles>  (12) 
CCOc1cc(NS(C)(=O)=O)cc(C(=O)CN(C)CC)c1OCC

>  <score_type>  (12) 
oracle

>  <origin>  (12) 
adg

>  <m_score__min__energy>  (12) 
-7.5199999999999996

>  <m_primary>  (12) 
energy

$$$$
12:0
     RDKit          3D

 51 54  0  0  0  0  0  0  0  0999 V2000
   -4.1060   18.9340  -33.7800 C   0  0  0  0  0  0  0  0  0  0  0  0
   -4.9950   19.9290  -33.1880 N   0  0  0  0  0  0  0  0  0  0  0  0
   -4.7590   21.2590  -33.0950 C   0  0  0  0  0  0  0  0  0  0  0  0
   -5.8500   21.8980  -32.5140 C   0  0  0  0  0  0  0  0  0  0  0  0
   -6.0070   23.3730  -32.2830 C   0  0  0  0  0  0  0  0  0  0  0  0
   -4.8380   23.9230  -31.5610 N   0  0  0  0  0  0  0  0  0  0  0  0
   -5.1910   25.1670  -30.8300 C   0  0  0  0  0  0  0  0  0  0  0  0
   -5.7690   24.9430  -29.4210 C   0  0  0  0  0  0  0  0  0  0  0  0
   -4.6850   24.5370  -28.4110 C   0  0  0  0  0  0  0  0  0  0  0  0
   -4.5310   23.0710  -28.3260 N   0  0  0  0  0  0  0  0  0  0  0  0
   -3.1660   22.6780  -27.9030 C   0  0  0  0  0  0  0  0  0  0  0  0
   -2.2210   23.8510  -27.7340 C   0  0  0  0  0  0  0  0  0  0  0  0
   -2.2100   24.5950  -26.5440 C   0  0  0  0  0  0  0  0  0  0  0  0
   -1.3420   25.6780  -26.4030 C   0  0  0  0  0  0  0  0  0  0  0  0
   -0.4820   26.0060  -27.4520 C   0  0  0  0  0  0  0  0  0  0  0  0
   -0.4940   25.2720  -28.5960 N   0  0  0  0  0  0  0  0  0  0  0  0
   -1.3310   24.2140  -28.7580 C   0  0  0  0  0  0  0  0  0  0  0  0
   -4.9710   22.3730  -29.5520 C   0  0  0  0  0  0  0  0  0  0  0  0
   -4.1600   22.8710  -30.7600 C   0  0  0  0  0  0  0  0  0  0  0  0
   -6.7810   20.9080  -32.2660 C   0  0  0  0  0  0  0  0  0  0  0  0
   -8.0650   20.9730  -31.7260 C   0  0  0  0  0  0  0  0  0  0  0  0
   -8.7920   19.7740  -31.6180 C   0  0  0  0  0  0  0  0  0  0  0  0
   -8.2290   18.5540  -32.0500 C   0  0  0  0  0  0  0  0  0  0  0  0
   -6.9330   18.5190  -32.5960 C   0  0  0  0  0  0  0  0  0  0  0  0
   -6.2300   19.7240  -32.6890 C   0  0  0  0  0  0  0  0  0  0  0  0
   -3.6025   18.3704  -32.9807 H   0  0  0  0  0  0  0  0  0  0  0  0
   -4.6926   18.2425  -34.4027 H   0  0  0  0  0  0  0  0  0  0  0  0
   -3.3531   19.4393  -34.4027 H   0  0  0  0  0  0  0  0  0  0  0  0
   -3.8393   21.7610  -33.4298 H   0  0  0  0  0  0  0  0  0  0  0  0
   -6.1022   23.8812  -33.2539 H   0  0  0  0  0  0  0  0  0  0  0  0
   -6.9066   23.5388  -31.6721 H   0  0  0  0  0  0  0  0  0  0  0  0
   -4.2813   25.7779  -30.7340 H   0  0  0  0  0  0  0  0  0  0  0  0
   -5.9821   25.6578  -31.4159 H   0  0  0  0  0  0  0  0  0  0  0  0
   -6.2416   25.8755  -29.0788 H   0  0  0  0  0  0  0  0  0  0  0  0
   -6.5009   24.1240  -29.4808 H   0  0  0  0  0  0  0  0  0  0  0  0
   -3.7264   24.9776  -28.7223 H   0  0  0  0  0  0  0  0  0  0  0  0
   -4.9883   24.9053  -27.4199 H   0  0  0  0  0  0  0  0  0  0  0  0
   -3.2389   22.1490  -26.9413 H   0  0  0  0  0  0  0  0  0  0  0  0
   -2.7520   22.0429  -28.7000 H   0  0  0  0  0  0  0  0  0  0  0  0
   -2.8872   24.3236  -25.7208 H   0  0  0  0  0  0  0  0  0  0  0  0
   -1.3355   26.2675  -25.4743 H   0  0  0  0  0  0  0  0  0  0  0  0
    0.2058   26.8588  -27.3530 H   0  0  0  0  0  0  0  0  0  0  0  0
   -1.3114   23.6391  -29.6956 H   0  0  0  0  0  0  0  0  0  0  0  0
   -4.8164   21.2907  -29.4305 H   0  0  0  0  0  0  0  0  0  0  0  0
   -6.0377   22.5804  -29.7227 H   0  0  0  0  0  0  0  0  0  0  0  0
   -3.2078   23.2795  -30.3907 H   0  0  0  0  0  0  0  0  0  0  0  0
   -4.0250   22.0063  -31.4263 H   0  0  0  0  0  0  0  0  0  0  0  0
   -8.4949   21.9301  -31.3956 H   0  0  0  0  0  0  0  0  0  0  0  0
   -9.8068   19.7871  -31.1937 H   0  0  0  0  0  0  0  0  0  0  0  0
   -8.8081   17.6232  -31.9590 H   0  0  0  0  0  0  0  0  0  0  0  0
   -6.4869   17.5738  -32.9388 H   0  0  0  0  0  0  0  0  0  0  0  0
  1  2  1  0
  2  3  1  0
  3  4  2  0
  4  5  1  0
  5  6  1  0
  6  7  1  0
  7  8  1  0
  8  9  1  0
  9 10  1  0
 10 11  1  0
 11 12  1  0
 12 13  2  0
 13 14  1  0
 14 15  2  0
 15 16  1  0
 16 17  2  0
 10 18  1  0
 18 19  1  0
  4 20  1  0
 20 21  2  0
 21 22  1  0
 22 23  2  0
 23 24  1  0
 24 25  2  0
 25  2  1  0
 19  6  1  0
 25 20  1  0
 17 12  1  0
  1 26  1  0
  1 27  1  0
  1 28  1  0
  3 29  1  0
  5 30  1  0
  5 31  1  0
  7 32  1  0
  7 33  1  0
  8 34  1  0
  8 35  1  0
  9 36  1  0
  9 37  1  0
 11 38  1  0
 11 39  1  0
 13 40  1  0
 14 41  1  0
 15 42  1  0
 17 43  1  0
 18 44  1  0
 18 45  1  0
 19 46  1  0
 19 47  1  0
 21 48  1  0
 22 49  1  0
 23 50  1  0
 24 51  1  0
M  END
>  <UniqueID>  (13) 
13

>  <SMILES>  (13) 
Cn1cc(CN2CCCN(Cc3cccnc3)CC2)c2ccccc21

>  <Energy>  (13) 
101.84489152222324

>  <Genealogy>  (13) 
Cn1cc(CN2CCCN(Cc3cccnc3)CC2)c2ccccc21 (3D coordinates assigned)
Cn1cc(CN2CCCN(Cc3cccnc3)CC2)c2ccccc21 (nonaromatic ring conformer: 101.84489152222324 kcal/mol)

>  <smiles>  (13) 
Cn1cc(CN2CCCN(Cc3cccnc3)CC2)c2ccccc21

>  <score_type>  (13) 
oracle

>  <origin>  (13) 
adg

>  <m_score__min__energy>  (13) 
-6.3899999999999997

>  <m_primary>  (13) 
energy

$$$$
13:0
     RDKit          3D

 56 59  0  0  0  0  0  0  0  0999 V2000
   -6.1870   25.2210  -29.5840 C   0  0  0  0  0  0  0  0  0  0  0  0
   -5.1510   25.8010  -30.5390 C   0  0  0  0  0  0  0  0  0  0  0  0
   -3.9080   25.0240  -30.4490 N   0  0  0  0  0  0  0  0  0  0  0  0
   -3.9400   24.0340  -29.3600 C   0  0  0  0  0  0  0  0  0  0  0  0
   -2.5360   23.5580  -28.9340 C   0  0  0  0  0  0  0  0  0  0  0  0
   -1.7910   22.3790  -30.1200 S   0  0  0  0  0  0  0  0  0  0  0  0
   -2.9460   22.6580  -31.5220 C   0  0  0  0  0  0  0  0  0  0  0  0
   -2.8430   21.5180  -32.5580 C   0  0  0  0  0  0  0  0  0  0  0  0
   -3.9040   21.5370  -33.5870 N   0  0  0  0  0  0  0  0  0  0  0  0
   -5.0850   20.7760  -33.2100 C   0  0  0  0  0  0  0  0  0  0  0  0
   -5.1140   19.3890  -33.4300 C   0  0  0  0  0  0  0  0  0  0  0  0
   -6.2310   18.6360  -33.1210 C   0  0  0  0  0  0  0  0  0  0  0  0
   -7.3120   19.1710  -32.4730 N   0  0  0  0  0  0  0  0  0  0  0  0
   -8.3170   18.2840  -31.8600 C   0  0  0  0  0  0  0  0  0  0  0  0
   -7.3840   20.5460  -32.3240 C   0  0  0  0  0  0  0  0  0  0  0  0
   -8.5780   21.1700  -31.8840 C   0  0  0  0  0  0  0  0  0  0  0  0
   -8.6320   22.5420  -31.6580 C   0  0  0  0  0  0  0  0  0  0  0  0
   -7.5080   23.3270  -31.8640 C   0  0  0  0  0  0  0  0  0  0  0  0
   -6.3300   22.7590  -32.3400 C   0  0  0  0  0  0  0  0  0  0  0  0
   -6.2490   21.3730  -32.6290 C   0  0  0  0  0  0  0  0  0  0  0  0
   -5.9550   17.2410  -33.4920 C   0  0  0  0  0  0  0  0  0  0  0  0
   -6.8050   16.1310  -33.6220 C   0  0  0  0  0  0  0  0  0  0  0  0
   -6.2640   14.9180  -34.0820 C   0  0  0  0  0  0  0  0  0  0  0  0
   -4.9090   14.8370  -34.4500 C   0  0  0  0  0  0  0  0  0  0  0  0
   -4.0920   15.9750  -34.3850 C   0  0  0  0  0  0  0  0  0  0  0  0
   -4.6400   17.1700  -33.9150 C   0  0  0  0  0  0  0  0  0  0  0  0
   -3.9840   18.5100  -33.9060 C   0  0  0  0  0  0  0  0  0  0  0  0
   -5.8691   25.3990  -28.5461 H   0  0  0  0  0  0  0  0  0  0  0  0
   -7.1586   25.7064  -29.7582 H   0  0  0  0  0  0  0  0  0  0  0  0
   -6.2811   24.1390  -29.7582 H   0  0  0  0  0  0  0  0  0  0  0  0
   -5.5366   25.7567  -31.5682 H   0  0  0  0  0  0  0  0  0  0  0  0
   -4.9482   26.8472  -30.2663 H   0  0  0  0  0  0  0  0  0  0  0  0
   -3.0980   25.6760  -30.3150 H   0  0  0  0  0  0  0  0  0  0  0  0
   -4.4352   24.4877  -28.4888 H   0  0  0  0  0  0  0  0  0  0  0  0
   -4.4858   23.1544  -29.7321 H   0  0  0  0  0  0  0  0  0  0  0  0
   -1.8781   24.4357  -28.8519 H   0  0  0  0  0  0  0  0  0  0  0  0
   -2.6434   23.0345  -27.9726 H   0  0  0  0  0  0  0  0  0  0  0  0
   -3.9754   22.7023  -31.1368 H   0  0  0  0  0  0  0  0  0  0  0  0
   -2.6780   23.6045  -32.0142 H   0  0  0  0  0  0  0  0  0  0  0  0
   -1.8698   21.5988  -33.0643 H   0  0  0  0  0  0  0  0  0  0  0  0
   -2.9576   20.5752  -32.0031 H   0  0  0  0  0  0  0  0  0  0  0  0
   -3.5100   21.2570  -34.5090 H   0  0  0  0  0  0  0  0  0  0  0  0
   -4.1890   22.5330  -33.7260 H   0  0  0  0  0  0  0  0  0  0  0  0
   -8.2436   18.3488  -30.7644 H   0  0  0  0  0  0  0  0  0  0  0  0
   -9.3230   18.5940  -32.1791 H   0  0  0  0  0  0  0  0  0  0  0  0
   -8.1344   17.2473  -32.1791 H   0  0  0  0  0  0  0  0  0  0  0  0
   -9.4777   20.5591  -31.7183 H   0  0  0  0  0  0  0  0  0  0  0  0
   -9.5690   23.0050  -31.3150 H   0  0  0  0  0  0  0  0  0  0  0  0
   -7.5475   24.4052  -31.6499 H   0  0  0  0  0  0  0  0  0  0  0  0
   -5.4467   23.3960  -32.4947 H   0  0  0  0  0  0  0  0  0  0  0  0
   -7.8727   16.2091  -33.3690 H   0  0  0  0  0  0  0  0  0  0  0  0
   -6.9044   14.0266  -34.1546 H   0  0  0  0  0  0  0  0  0  0  0  0
   -4.4890   13.8787  -34.7896 H   0  0  0  0  0  0  0  0  0  0  0  0
   -3.0387   15.9270  -34.6986 H   0  0  0  0  0  0  0  0  0  0  0  0
   -3.1324   18.5368  -33.2102 H   0  0  0  0  0  0  0  0  0  0  0  0
   -3.5577   18.8094  -34.8748 H   0  0  0  0  0  0  0  0  0  0  0  0
  1  2  1  0
  2  3  1  0
  3  4  1  0
  4  5  1  0
  5  6  1  0
  6  7  1  0
  7  8  1  0
  8  9  1  0
  9 10  1  0
 10 11  2  0
 11 12  1  0
 12 13  2  0
 13 14  1  0
 13 15  1  0
 15 16  2  0
 16 17  1  0
 17 18  2  0
 18 19  1  0
 19 20  2  0
 12 21  1  0
 21 22  2  0
 22 23  1  0
 23 24  2  0
 24 25  1  0
 25 26  2  0
 26 27  1  0
 20 10  1  0
 26 21  1  0
 27 11  1  0
 20 15  1  0
  1 28  1  0
  1 29  1  0
  1 30  1  0
  2 31  1  0
  2 32  1  0
  3 33  1  0
  4 34  1  0
  4 35  1  0
  5 36  1  0
  5 37  1  0
  7 38  1  0
  7 39  1  0
  8 40  1  0
  8 41  1  0
  9 42  1  0
  9 43  1  0
 14 44  1  0
 14 45  1  0
 14 46  1  0
 16 47  1  0
 17 48  1  0
 18 49  1  0
 19 50  1  0
 22 51  1  0
 23 52  1  0
 24 53  1  0
 25 54  1  0
 27 55  1  0
 27 56  1  0
M  CHG  2   9   1  13   1
M  END
>  <UniqueID>  (14) 
14

>  <SMILES>  (14) 
CCNCCSCC[NH2+]c1c2c([n+](C)c3ccccc13)-c1ccccc1C2

>  <Energy>  (14) 
100.63772445883609

>  <Genealogy>  (14) 
CCNCCSCC[NH2+]c1c2c([n+](C)c3ccccc13)-c1ccccc1C2 (protonated)
CCNCCSCC[NH2+]c1c2c([n+](C)c3ccccc13)-c1ccccc1C2 (3D coordinates assigned)
CCNCCSCC[NH2+]c1c2c([n+](C)c3ccccc13)-c1ccccc1C2 (nonaromatic ring conformer: 100.63772445883609 kcal/mol)

>  <smiles>  (14) 
CCNCCSCCNc1c2c([n+](C)c3ccccc13)-c1ccccc1C2

>  <score_type>  (14) 
oracle

>  <origin>  (14) 
adg

>  <m_score__min__energy>  (14) 
-9.4399999999999995

>  <m_primary>  (14) 
energy

$$$$
14:0
     RDKit          3D

 36 37  0  0  0  0  0  0  0  0999 V2000
   -8.3390   19.7580  -31.5790 C   0  0  0  0  0  0  0  0  0  0  0  0
   -8.3780   18.5920  -32.5650 C   0  0  0  0  0  0  0  0  0  0  0  0
   -7.2470   17.5740  -32.3360 C   0  0  0  0  0  0  0  0  0  0  0  0
   -6.8320   16.7740  -33.5860 C   0  0  0  0  0  0  0  0  0  0  0  0
   -6.3800   17.6510  -34.6820 N   0  0  0  0  0  0  0  0  0  0  0  0
   -4.9170   17.8140  -34.6840 C   0  0  0  0  0  0  0  0  0  0  0  0
   -4.4950   19.0660  -33.9700 C   0  0  0  0  0  0  0  0  0  0  0  0
   -3.2060   19.5250  -33.8260 C   0  0  0  0  0  0  0  0  0  0  0  0
   -3.2600   20.6230  -33.1150 O   0  0  0  0  0  0  0  0  0  0  0  0
   -4.5250   20.8400  -32.8230 C   0  0  0  0  0  0  0  0  0  0  0  0
   -4.9950   21.9890  -32.0250 C   0  0  0  0  0  0  0  0  0  0  0  0
   -4.1140   22.6530  -31.1540 C   0  0  0  0  0  0  0  0  0  0  0  0
   -4.5570   23.7430  -30.3960 C   0  0  0  0  0  0  0  0  0  0  0  0
   -5.8820   24.1790  -30.5010 C   0  0  0  0  0  0  0  0  0  0  0  0
   -6.4820   25.6660  -29.4650 Br  0  0  0  0  0  0  0  0  0  0  0  0
   -6.7640   23.5240  -31.3640 C   0  0  0  0  0  0  0  0  0  0  0  0
   -6.3260   22.4340  -32.1240 C   0  0  0  0  0  0  0  0  0  0  0  0
   -5.3450   19.8920  -33.3310 N   0  0  0  0  0  0  0  0  0  0  0  0
   -8.3520   19.3688  -30.5502 H   0  0  0  0  0  0  0  0  0  0  0  0
   -7.4208   20.3424  -31.7384 H   0  0  0  0  0  0  0  0  0  0  0  0
   -9.2161   20.4024  -31.7384 H   0  0  0  0  0  0  0  0  0  0  0  0
   -9.3427   18.0744  -32.4580 H   0  0  0  0  0  0  0  0  0  0  0  0
   -8.2462   19.0094  -33.5742 H   0  0  0  0  0  0  0  0  0  0  0  0
   -6.3645   18.1199  -31.9710 H   0  0  0  0  0  0  0  0  0  0  0  0
   -7.6339   16.8399  -31.6140 H   0  0  0  0  0  0  0  0  0  0  0  0
   -6.0114   16.0934  -33.3151 H   0  0  0  0  0  0  0  0  0  0  0  0
   -7.7125   16.2173  -33.9393 H   0  0  0  0  0  0  0  0  0  0  0  0
   -6.8420   18.5870  -34.6140 H   0  0  0  0  0  0  0  0  0  0  0  0
   -6.6470   17.2150  -35.5960 H   0  0  0  0  0  0  0  0  0  0  0  0
   -4.4614   16.9473  -34.1827 H   0  0  0  0  0  0  0  0  0  0  0  0
   -4.5822   17.8868  -35.7293 H   0  0  0  0  0  0  0  0  0  0  0  0
   -2.2980   19.0561  -34.2330 H   0  0  0  0  0  0  0  0  0  0  0  0
   -3.0710   22.3142  -31.0677 H   0  0  0  0  0  0  0  0  0  0  0  0
   -3.8619   24.2578  -29.7164 H   0  0  0  0  0  0  0  0  0  0  0  0
   -7.8061   23.8663  -31.4463 H   0  0  0  0  0  0  0  0  0  0  0  0
   -7.0253   21.9227  -32.8019 H   0  0  0  0  0  0  0  0  0  0  0  0
  1  2  1  0
  2  3  1  0
  3  4  1  0
  4  5  1  0
  5  6  1  0
  6  7  1  0
  7  8  2  0
  8  9  1  0
  9 10  1  0
 10 11  1  0
 11 12  2  0
 12 13  1  0
 13 14  2  0
 14 15  1  0
 14 16  1  0
 16 17  2  0
 10 18  2  0
 18  7  1  0
 17 11  1  0
  1 19  1  0
  1 20  1  0
  1 21  1  0
  2 22  1  0
  2 23  1  0
  3 24  1  0
  3 25  1  0
  4 26  1  0
  4 27  1  0
  5 28  1  0
  5 29  1  0
  6 30  1  0
  6 31  1  0
  8 32  1  0
 12 33  1  0
 13 34  1  0
 16 35  1  0
 17 36  1  0
M  CHG  1   5   1
M  END
>  <UniqueID>  (15) 
15

>  <SMILES>  (15) 
CCCC[NH2+]Cc1coc(-c2ccc(Br)cc2)n1

>  <Energy>  (15) 
59.53697442321962

>  <Genealogy>  (15) 
CCCC[NH2+]Cc1coc(-c2ccc(Br)cc2)n1 (protonated)
CCCC[NH2+]Cc1coc(-c2ccc(Br)cc2)n1 (3D coordinates assigned)
CCCC[NH2+]Cc1coc(-c2ccc(Br)cc2)n1 (optimized conformer: 59.53697442321962 kcal/mol)

>  <smiles>  (15) 
CCCCNCc1coc(-c2ccc(Br)cc2)n1

>  <score_type>  (15) 
oracle

>  <origin>  (15) 
adg

>  <m_score__min__energy>  (15) 
-5.96

>  <m_primary>  (15) 
energy

$$$$
15:0
     RDKit          3D

 65 66  0  0  0  0  0  0  0  0999 V2000
   -6.5380   17.1730  -32.5300 C   0  0  0  0  0  0  0  0  0  0  0  0
   -6.0530   18.3710  -31.6990 C   0  0  0  0  0  0  0  0  0  0  0  0
   -5.5670   19.5060  -32.5170 N   0  0  0  0  0  0  0  0  0  0  0  0
   -6.6300   20.1000  -33.3610 C   0  0  0  0  0  0  0  0  0  0  0  0
   -7.8680   20.3670  -32.5140 C   0  0  0  0  0  0  0  0  0  0  0  0
   -4.3390   19.1700  -33.2710 C   0  0  0  0  0  0  0  0  0  0  0  0
   -3.2370   20.2140  -33.0310 C   0  0  0  0  0  0  0  0  0  0  0  0
   -2.9200   20.3450  -31.6070 N   0  0  0  0  0  0  0  0  0  0  0  0
   -2.6800   21.6130  -30.9710 C   0  0  0  0  0  0  0  0  0  0  0  0
   -1.3660   22.0290  -30.6640 C   0  0  0  0  0  0  0  0  0  0  0  0
   -0.1540   21.1920  -31.0100 C   0  0  0  0  0  0  0  0  0  0  0  0
    0.2220   20.3350  -29.9320 O   0  0  0  0  0  0  0  0  0  0  0  0
   -0.1830   19.0000  -29.8060 C   0  0  0  0  0  0  0  0  0  0  0  0
   -0.7980   18.4260  -30.7450 O   0  0  0  0  0  0  0  0  0  0  0  0
    0.1080   18.2790  -28.5950 N   0  0  0  0  0  0  0  0  0  0  0  0
    1.2850   17.4070  -28.5520 C   0  0  0  0  0  0  0  0  0  0  0  0
   -0.7240   18.4760  -27.4000 C   0  0  0  0  0  0  0  0  0  0  0  0
   -0.9660   19.9730  -27.1590 C   0  0  0  0  0  0  0  0  0  0  0  0
   -2.3520   20.2140  -26.7040 N   0  0  0  0  0  0  0  0  0  0  0  0
   -3.1000   21.0160  -27.6880 C   0  0  0  0  0  0  0  0  0  0  0  0
   -3.0460   18.9320  -26.4940 C   0  0  0  0  0  0  0  0  0  0  0  0
   -1.1750   23.2800  -30.0610 C   0  0  0  0  0  0  0  0  0  0  0  0
   -2.2260   24.0870  -29.7650 N   0  0  0  0  0  0  0  0  0  0  0  0
   -1.9660   25.2990  -29.1620 O   0  0  0  0  0  0  0  0  0  0  0  0
   -3.5090   23.7250  -30.0680 C   0  0  0  0  0  0  0  0  0  0  0  0
   -4.5870   24.5820  -29.7710 C   0  0  0  0  0  0  0  0  0  0  0  0
   -5.8960   24.2170  -30.0970 C   0  0  0  0  0  0  0  0  0  0  0  0
   -7.2280   25.2940  -29.7210 Cl  0  0  0  0  0  0  0  0  0  0  0  0
   -6.1430   22.9970  -30.7260 C   0  0  0  0  0  0  0  0  0  0  0  0
   -5.0870   22.1340  -31.0280 C   0  0  0  0  0  0  0  0  0  0  0  0
   -3.7620   22.4800  -30.6970 C   0  0  0  0  0  0  0  0  0  0  0  0
   -6.8642   16.3672  -31.8560 H   0  0  0  0  0  0  0  0  0  0  0  0
   -7.3810   17.4841  -33.1645 H   0  0  0  0  0  0  0  0  0  0  0  0
   -5.7160   16.8100  -33.1645 H   0  0  0  0  0  0  0  0  0  0  0  0
   -6.8893   18.7239  -31.0777 H   0  0  0  0  0  0  0  0  0  0  0  0
   -5.2013   18.0208  -31.0973 H   0  0  0  0  0  0  0  0  0  0  0  0
   -6.2698   21.0463  -33.7908 H   0  0  0  0  0  0  0  0  0  0  0  0
   -6.8860   19.4008  -34.1707 H   0  0  0  0  0  0  0  0  0  0  0  0
   -7.6023   20.3097  -31.4481 H   0  0  0  0  0  0  0  0  0  0  0  0
   -8.2584   21.3700  -32.7412 H   0  0  0  0  0  0  0  0  0  0  0  0
   -8.6371   19.6141  -32.7412 H   0  0  0  0  0  0  0  0  0  0  0  0
   -3.9763   18.1839  -32.9452 H   0  0  0  0  0  0  0  0  0  0  0  0
   -4.5809   19.1589  -34.3440 H   0  0  0  0  0  0  0  0  0  0  0  0
   -2.3299   19.9065  -33.5719 H   0  0  0  0  0  0  0  0  0  0  0  0
   -3.5996   21.1870  -33.3939 H   0  0  0  0  0  0  0  0  0  0  0  0
   -2.6580   19.4800  -31.0820 H   0  0  0  0  0  0  0  0  0  0  0  0
   -0.3864   20.5755  -31.8909 H   0  0  0  0  0  0  0  0  0  0  0  0
    0.6853   21.8729  -31.2151 H   0  0  0  0  0  0  0  0  0  0  0  0
    1.5550   17.2069  -27.5046 H   0  0  0  0  0  0  0  0  0  0  0  0
    1.0571   16.4581  -29.0596 H   0  0  0  0  0  0  0  0  0  0  0  0
    2.1264   17.9014  -29.0596 H   0  0  0  0  0  0  0  0  0  0  0  0
   -1.6905   17.9708  -27.5436 H   0  0  0  0  0  0  0  0  0  0  0  0
   -0.2032   18.0532  -26.5282 H   0  0  0  0  0  0  0  0  0  0  0  0
   -0.2663   20.3322  -26.3900 H   0  0  0  0  0  0  0  0  0  0  0  0
   -0.8062   20.5127  -28.1041 H   0  0  0  0  0  0  0  0  0  0  0  0
   -3.7585   21.7221  -27.1610 H   0  0  0  0  0  0  0  0  0  0  0  0
   -2.3931   21.5749  -28.3188 H   0  0  0  0  0  0  0  0  0  0  0  0
   -3.7068   20.3497  -28.3188 H   0  0  0  0  0  0  0  0  0  0  0  0
   -3.1484   18.7429  -25.4152 H   0  0  0  0  0  0  0  0  0  0  0  0
   -4.0438   18.9754  -26.9550 H   0  0  0  0  0  0  0  0  0  0  0  0
   -2.4641   18.1202  -26.9550 H   0  0  0  0  0  0  0  0  0  0  0  0
   -0.1543   23.6142  -29.8231 H   0  0  0  0  0  0  0  0  0  0  0  0
   -4.3967   25.5469  -29.2782 H   0  0  0  0  0  0  0  0  0  0  0  0
   -7.1736   22.7132  -30.9853 H   0  0  0  0  0  0  0  0  0  0  0  0
   -5.2917   21.1761  -31.5285 H   0  0  0  0  0  0  0  0  0  0  0  0
  1  2  1  0
  2  3  1  0
  3  4  1  0
  4  5  1  0
  3  6  1  0
  6  7  1  0
  7  8  1  0
  8  9  1  0
  9 10  2  0
 10 11  1  0
 11 12  1  0
 12 13  1  0
 13 14  2  0
 13 15  1  0
 15 16  1  0
 15 17  1  0
 17 18  1  0
 18 19  1  0
 19 20  1  0
 19 21  1  0
 10 22  1  0
 22 23  2  0
 23 24  1  0
 23 25  1  0
 25 26  2  0
 26 27  1  0
 27 28  1  0
 27 29  2  0
 29 30  1  0
 30 31  2  0
 31  9  1  0
 31 25  1  0
  1 32  1  0
  1 33  1  0
  1 34  1  0
  2 35  1  0
  2 36  1  0
  4 37  1  0
  4 38  1  0
  5 39  1  0
  5 40  1  0
  5 41  1  0
  6 42  1  0
  6 43  1  0
  7 44  1  0
  7 45  1  0
  8 46  1  0
 11 47  1  0
 11 48  1  0
 16 49  1  0
 16 50  1  0
 16 51  1  0
 17 52  1  0
 17 53  1  0
 18 54  1  0
 18 55  1  0
 20 56  1  0
 20 57  1  0
 20 58  1  0
 21 59  1  0
 21 60  1  0
 21 61  1  0
 22 62  1  0
 26 63  1  0
 29 64  1  0
 30 65  1  0
M  CHG  2  23   1  24  -1
M  END
>  <UniqueID>  (16) 
16

>  <SMILES>  (16) 
CCN(CC)CCNc1c(COC(=O)N(C)CCN(C)C)c[n+]([O-])c2cc(Cl)ccc12

>  <Energy>  (16) 
65.6704371743099

>  <Genealogy>  (16) 
CCN(CC)CCNc1c(COC(=O)N(C)CCN(C)C)c[n+]([O-])c2cc(Cl)ccc12 (3D coordinates assigned)
CCN(CC)CCNc1c(COC(=O)N(C)CCN(C)C)c[n+]([O-])c2cc(Cl)ccc12 (optimized conformer: 65.6704371743099 kcal/mol)

>  <smiles>  (16) 
CCN(CC)CCNc1c(COC(=O)N(C)CCN(C)C)c[n+]([O-])c2cc(Cl)ccc12

>  <score_type>  (16) 
oracle

>  <origin>  (16) 
adg

>  <m_score__min__energy>  (16) 
-7.6200000000000001

>  <m_primary>  (16) 
energy

$$$$
16:0
     RDKit          3D

 67 70  0  0  0  0  0  0  0  0999 V2000
   -6.0460   17.7540  -31.9050 C   0  0  0  0  0  0  0  0  0  0  0  0
   -5.9640   19.1910  -32.2530 N   0  0  0  0  0  0  0  0  0  0  0  0
   -7.0970   19.9750  -32.2040 C   0  0  0  0  0  0  0  0  0  0  0  0
   -8.3900   19.3900  -32.1610 C   0  0  0  0  0  0  0  0  0  0  0  0
   -9.5330   20.1740  -32.0410 C   0  0  0  0  0  0  0  0  0  0  0  0
   -9.4230   21.5540  -31.9670 C   0  0  0  0  0  0  0  0  0  0  0  0
   -8.1730   22.1610  -32.0530 C   0  0  0  0  0  0  0  0  0  0  0  0
   -6.9900   21.3930  -32.2080 C   0  0  0  0  0  0  0  0  0  0  0  0
   -5.7130   22.0050  -32.3660 C   0  0  0  0  0  0  0  0  0  0  0  0
   -5.5990   23.4600  -32.3820 N   0  0  0  0  0  0  0  0  0  0  0  0
   -6.2550   24.0780  -31.2120 C   0  0  0  0  0  0  0  0  0  0  0  0
   -5.3440   25.0720  -30.4740 C   0  0  0  0  0  0  0  0  0  0  0  0
   -3.9780   24.7740  -30.7100 O   0  0  0  0  0  0  0  0  0  0  0  0
   -3.2820   24.5430  -29.5000 C   0  0  0  0  0  0  0  0  0  0  0  0
   -3.3190   23.0620  -29.1410 C   0  0  0  0  0  0  0  0  0  0  0  0
   -4.2570   22.4130  -29.9270 F   0  0  0  0  0  0  0  0  0  0  0  0
   -4.5780   21.1670  -32.5660 C   0  0  0  0  0  0  0  0  0  0  0  0
   -3.2720   21.6850  -32.7610 C   0  0  0  0  0  0  0  0  0  0  0  0
   -2.1910   20.8480  -33.0250 C   0  0  0  0  0  0  0  0  0  0  0  0
   -2.3640   19.4750  -33.1280 C   0  0  0  0  0  0  0  0  0  0  0  0
   -1.2430   18.6830  -33.4300 O   0  0  0  0  0  0  0  0  0  0  0  0
   -0.8240   18.2930  -34.7400 C   0  0  0  0  0  0  0  0  0  0  0  0
   -0.5420   16.7710  -34.7890 C   0  0  0  0  0  0  0  0  0  0  0  0
   -1.7370   15.9120  -35.0790 N   0  0  0  0  0  0  0  0  0  0  0  0
   -1.4800   15.0860  -36.2880 C   0  0  0  0  0  0  0  0  0  0  0  0
   -1.9440   14.9830  -33.9170 C   0  0  0  0  0  0  0  0  0  0  0  0
   -2.9200   15.5700  -32.8780 C   0  0  0  0  0  0  0  0  0  0  0  0
   -4.2230   15.8060  -33.3960 O   0  0  0  0  0  0  0  0  0  0  0  0
   -4.2380   16.0740  -34.7920 C   0  0  0  0  0  0  0  0  0  0  0  0
   -2.9550   16.7590  -35.2960 C   0  0  0  0  0  0  0  0  0  0  0  0
   -3.6420   18.9380  -32.9260 C   0  0  0  0  0  0  0  0  0  0  0  0
   -4.7460   19.7530  -32.5730 C   0  0  0  0  0  0  0  0  0  0  0  0
   -6.0524   17.6415  -30.8108 H   0  0  0  0  0  0  0  0  0  0  0  0
   -6.9699   17.3277  -32.3229 H   0  0  0  0  0  0  0  0  0  0  0  0
   -5.1766   17.2253  -32.3229 H   0  0  0  0  0  0  0  0  0  0  0  0
   -8.4899   18.2963  -32.2237 H   0  0  0  0  0  0  0  0  0  0  0  0
  -10.5244   19.6988  -32.0048 H   0  0  0  0  0  0  0  0  0  0  0  0
  -10.3251   22.1706  -31.8401 H   0  0  0  0  0  0  0  0  0  0  0  0
   -8.1011   23.2574  -31.9998 H   0  0  0  0  0  0  0  0  0  0  0  0
   -4.6210   23.8000  -32.4790 H   0  0  0  0  0  0  0  0  0  0  0  0
   -6.0320   23.8330  -33.2550 H   0  0  0  0  0  0  0  0  0  0  0  0
   -7.1535   24.6123  -31.5544 H   0  0  0  0  0  0  0  0  0  0  0  0
   -6.5038   23.2709  -30.5073 H   0  0  0  0  0  0  0  0  0  0  0  0
   -5.5578   26.0904  -30.8307 H   0  0  0  0  0  0  0  0  0  0  0  0
   -5.5401   24.9953  -29.3943 H   0  0  0  0  0  0  0  0  0  0  0  0
   -2.2357   24.8617  -29.6170 H   0  0  0  0  0  0  0  0  0  0  0  0
   -3.7640   25.1177  -28.6954 H   0  0  0  0  0  0  0  0  0  0  0  0
   -2.3273   22.6190  -29.3148 H   0  0  0  0  0  0  0  0  0  0  0  0
   -3.5932   22.9514  -28.0815 H   0  0  0  0  0  0  0  0  0  0  0  0
   -3.1097   22.7714  -32.7024 H   0  0  0  0  0  0  0  0  0  0  0  0
   -1.1877   21.2804  -33.1535 H   0  0  0  0  0  0  0  0  0  0  0  0
   -1.6175   18.5375  -35.4615 H   0  0  0  0  0  0  0  0  0  0  0  0
    0.0995   18.8341  -34.9938 H   0  0  0  0  0  0  0  0  0  0  0  0
    0.2075   16.5883  -35.5731 H   0  0  0  0  0  0  0  0  0  0  0  0
   -0.1996   16.4901  -33.7821 H   0  0  0  0  0  0  0  0  0  0  0  0
   -1.1660   14.0769  -35.9827 H   0  0  0  0  0  0  0  0  0  0  0  0
   -2.3995   15.0181  -36.8879 H   0  0  0  0  0  0  0  0  0  0  0  0
   -0.6843   15.5518  -36.8879 H   0  0  0  0  0  0  0  0  0  0  0  0
   -2.3518   14.0320  -34.2903 H   0  0  0  0  0  0  0  0  0  0  0  0
   -0.9722   14.8318  -33.4243 H   0  0  0  0  0  0  0  0  0  0  0  0
   -3.0014   14.8639  -32.0384 H   0  0  0  0  0  0  0  0  0  0  0  0
   -2.5141   16.5434  -32.5655 H   0  0  0  0  0  0  0  0  0  0  0  0
   -4.3588   15.1215  -35.3288 H   0  0  0  0  0  0  0  0  0  0  0  0
   -5.0718   16.7661  -34.9812 H   0  0  0  0  0  0  0  0  0  0  0  0
   -3.0599   16.9591  -36.3725 H   0  0  0  0  0  0  0  0  0  0  0  0
   -2.8239   17.6907  -34.7261 H   0  0  0  0  0  0  0  0  0  0  0  0
   -3.7924   17.8548  -33.0446 H   0  0  0  0  0  0  0  0  0  0  0  0
  1  2  1  0
  2  3  2  0
  3  4  1  0
  4  5  2  0
  5  6  1  0
  6  7  2  0
  7  8  1  0
  8  9  2  0
  9 10  1  0
 10 11  1  0
 11 12  1  0
 12 13  1  0
 13 14  1  0
 14 15  1  0
 15 16  1  0
  9 17  1  0
 17 18  2  0
 18 19  1  0
 19 20  2  0
 20 21  1  0
 21 22  1  0
 22 23  1  0
 23 24  1  0
 24 25  1  0
 24 26  1  0
 26 27  1  0
 27 28  1  0
 28 29  1  0
 29 30  1  0
 20 31  1  0
 31 32  2  0
 32  2  1  0
  8  3  1  0
 32 17  1  0
 30 24  1  0
  1 33  1  0
  1 34  1  0
  1 35  1  0
  4 36  1  0
  5 37  1  0
  6 38  1  0
  7 39  1  0
 10 40  1  0
 10 41  1  0
 11 42  1  0
 11 43  1  0
 12 44  1  0
 12 45  1  0
 14 46  1  0
 14 47  1  0
 15 48  1  0
 15 49  1  0
 18 50  1  0
 19 51  1  0
 22 52  1  0
 22 53  1  0
 23 54  1  0
 23 55  1  0
 25 56  1  0
 25 57  1  0
 25 58  1  0
 26 59  1  0
 26 60  1  0
 27 61  1  0
 27 62  1  0
 29 63  1  0
 29 64  1  0
 30 65  1  0
 30 66  1  0
 31 67  1  0
M  CHG  3   2   1  10   1  24   1
M  END
>  <UniqueID>  (17) 
17

>  <SMILES>  (17) 
C[n+]1c2ccccc2c([NH2+]CCOCCF)c2ccc(OCC[N+]3(C)CCOCC3)cc21

>  <Energy>  (17) 
120.43110575022176

>  <Genealogy>  (17) 
C[n+]1c2ccccc2c([NH2+]CCOCCF)c2ccc(OCC[N+]3(C)CCOCC3)cc21 (protonated)
C[n+]1c2ccccc2c([NH2+]CCOCCF)c2ccc(OCC[N+]3(C)CCOCC3)cc21 (3D coordinates assigned)
C[n+]1c2ccccc2c([NH2+]CCOCCF)c2ccc(OCC[N+]3(C)CCOCC3)cc21 (nonaromatic ring conformer: 120.43110575022176 kcal/mol)

>  <smiles>  (17) 
C[n+]1c2ccccc2c(NCCOCCF)c2ccc(OCC[N+]3(C)CCOCC3)cc21

>  <score_type>  (17) 
oracle

>  <origin>  (17) 
adg

>  <m_score__min__energy>  (17) 
-7.6799999999999997

>  <m_primary>  (17) 
energy

$$$$
17:0
     RDKit          3D

 39 41  0  0  0  0  0  0  0  0999 V2000
   -2.7010   20.5560  -33.4310 C   0  0  0  0  0  0  0  0  0  0  0  0
   -2.3870   21.2850  -32.1590 C   0  0  0  0  0  0  0  0  0  0  0  0
   -1.3180   20.8640  -31.3540 C   0  0  0  0  0  0  0  0  0  0  0  0
   -1.0430   21.5200  -30.1520 C   0  0  0  0  0  0  0  0  0  0  0  0
   -1.8340   22.5960  -29.7420 C   0  0  0  0  0  0  0  0  0  0  0  0
   -2.9060   23.0310  -30.5380 C   0  0  0  0  0  0  0  0  0  0  0  0
   -3.7280   24.2210  -30.1130 C   0  0  0  0  0  0  0  0  0  0  0  0
   -4.5860   24.6960  -31.2140 N   0  0  0  0  0  0  0  0  0  0  0  0
   -6.0090   24.7610  -30.8400 C   0  0  0  0  0  0  0  0  0  0  0  0
   -6.7320   23.5330  -31.2970 C   0  0  0  0  0  0  0  0  0  0  0  0
   -8.0540   23.4610  -31.6710 C   0  0  0  0  0  0  0  0  0  0  0  0
   -8.2680   22.2510  -32.1230 O   0  0  0  0  0  0  0  0  0  0  0  0
   -7.1290   21.5960  -32.0410 C   0  0  0  0  0  0  0  0  0  0  0  0
   -6.9490   20.2040  -32.4970 C   0  0  0  0  0  0  0  0  0  0  0  0
   -7.7200   19.1710  -31.9370 C   0  0  0  0  0  0  0  0  0  0  0  0
   -7.5740   17.8560  -32.3890 C   0  0  0  0  0  0  0  0  0  0  0  0
   -6.6590   17.5610  -33.4050 C   0  0  0  0  0  0  0  0  0  0  0  0
   -6.4830   15.9120  -33.9750 Cl  0  0  0  0  0  0  0  0  0  0  0  0
   -5.8870   18.5830  -33.9670 C   0  0  0  0  0  0  0  0  0  0  0  0
   -6.0290   19.8980  -33.5150 C   0  0  0  0  0  0  0  0  0  0  0  0
   -6.1330   22.3490  -31.5270 N   0  0  0  0  0  0  0  0  0  0  0  0
   -3.1930   22.3550  -31.7360 C   0  0  0  0  0  0  0  0  0  0  0  0
   -3.1258   19.5697  -33.1930 H   0  0  0  0  0  0  0  0  0  0  0  0
   -3.4286   21.1371  -34.0166 H   0  0  0  0  0  0  0  0  0  0  0  0
   -1.7789   20.4265  -34.0166 H   0  0  0  0  0  0  0  0  0  0  0  0
   -0.6945   20.0148  -31.6704 H   0  0  0  0  0  0  0  0  0  0  0  0
   -0.2012   21.1884  -29.5264 H   0  0  0  0  0  0  0  0  0  0  0  0
   -1.6162   23.1048  -28.7914 H   0  0  0  0  0  0  0  0  0  0  0  0
   -4.3626   23.9333  -29.2618 H   0  0  0  0  0  0  0  0  0  0  0  0
   -3.0436   25.0339  -29.8287 H   0  0  0  0  0  0  0  0  0  0  0  0
   -4.2820   25.6720  -31.4420 H   0  0  0  0  0  0  0  0  0  0  0  0
   -6.0916   24.8428  -29.7462 H   0  0  0  0  0  0  0  0  0  0  0  0
   -6.4622   25.6390  -31.3233 H   0  0  0  0  0  0  0  0  0  0  0  0
   -8.7950   24.2711  -31.6028 H   0  0  0  0  0  0  0  0  0  0  0  0
   -8.4421   19.3982  -31.1389 H   0  0  0  0  0  0  0  0  0  0  0  0
   -8.1796   17.0522  -31.9450 H   0  0  0  0  0  0  0  0  0  0  0  0
   -5.1671   18.3515  -34.7658 H   0  0  0  0  0  0  0  0  0  0  0  0
   -5.4176   20.6978  -33.9582 H   0  0  0  0  0  0  0  0  0  0  0  0
   -4.0539   22.6655  -32.3462 H   0  0  0  0  0  0  0  0  0  0  0  0
  1  2  1  0
  2  3  2  0
  3  4  1  0
  4  5  2  0
  5  6  1  0
  6  7  1  0
  7  8  1  0
  8  9  1  0
  9 10  1  0
 10 11  2  0
 11 12  1  0
 12 13  1  0
 13 14  1  0
 14 15  2  0
 15 16  1  0
 16 17  2  0
 17 18  1  0
 17 19  1  0
 19 20  2  0
 13 21  2  0
  6 22  2  0
 22  2  1  0
 21 10  1  0
 20 14  1  0
  1 23  1  0
  1 24  1  0
  1 25  1  0
  3 26  1  0
  4 27  1  0
  5 28  1  0
  7 29  1  0
  7 30  1  0
  8 31  1  0
  9 32  1  0
  9 33  1  0
 11 34  1  0
 15 35  1  0
 16 36  1  0
 19 37  1  0
 20 38  1  0
 22 39  1  0
M  END
>  <UniqueID>  (18) 
18

>  <SMILES>  (18) 
Cc1cccc(CNCc2coc(-c3ccc(Cl)cc3)n2)c1

>  <Energy>  (18) 
64.60361813958099

>  <Genealogy>  (18) 
Cc1cccc(CNCc2coc(-c3ccc(Cl)cc3)n2)c1 (3D coordinates assigned)
Cc1cccc(CNCc2coc(-c3ccc(Cl)cc3)n2)c1 (optimized conformer: 64.60361813958099 kcal/mol)

>  <smiles>  (18) 
Cc1cccc(CNCc2coc(-c3ccc(Cl)cc3)n2)c1

>  <score_type>  (18) 
oracle

>  <origin>  (18) 
adg

>  <m_score__min__energy>  (18) 
-8.4700000000000006

>  <m_primary>  (18) 
energy

$$$$
18:0
     RDKit          3D

 80 83  0  0  0  0  0  0  0  0999 V2000
   -1.2270   17.5620  -34.1550 C   0  0  0  0  0  0  0  0  0  0  0  0
   -0.0490   18.3140  -33.5210 C   0  0  0  0  0  0  0  0  0  0  0  0
   -0.2720   18.6460  -32.0910 N   0  0  1  0  0  0  0  0  0  0  0  0
   -0.1200   17.4330  -31.2600 C   0  0  0  0  0  0  0  0  0  0  0  0
    0.5420   19.7810  -31.5700 C   0  0  0  0  0  0  0  0  0  0  0  0
   -0.1970   21.1260  -31.4330 C   0  0  0  0  0  0  0  0  0  0  0  0
   -1.5570   20.9790  -31.7810 O   0  0  0  0  0  0  0  0  0  0  0  0
   -1.7200   21.1860  -33.1670 C   0  0  0  0  0  0  0  0  0  0  0  0
   -3.2070   21.1790  -33.4960 C   0  0  0  0  0  0  0  0  0  0  0  0
   -4.0060   21.1640  -32.2680 N   0  0  0  0  0  0  0  0  0  0  0  0
   -5.3050   20.5470  -32.2240 C   0  0  0  0  0  0  0  0  0  0  0  0
   -5.4200   19.1760  -32.5230 C   0  0  0  0  0  0  0  0  0  0  0  0
   -4.2690   18.3870  -32.7620 C   0  0  0  0  0  0  0  0  0  0  0  0
   -4.3830   17.0480  -33.1230 C   0  0  0  0  0  0  0  0  0  0  0  0
   -5.6370   16.4690  -33.2570 C   0  0  0  0  0  0  0  0  0  0  0  0
   -6.7840   17.2160  -32.9900 C   0  0  0  0  0  0  0  0  0  0  0  0
   -6.7000   18.5690  -32.5720 C   0  0  0  0  0  0  0  0  0  0  0  0
   -7.8220   19.2930  -32.2290 N   0  0  0  0  0  0  0  0  0  0  0  0
   -9.1050   18.5900  -31.9930 C   0  0  0  0  0  0  0  0  0  0  0  0
   -7.7430   20.6640  -32.0560 C   0  0  0  0  0  0  0  0  0  0  0  0
   -8.9140   21.4560  -31.9720 C   0  0  0  0  0  0  0  0  0  0  0  0
   -8.8470   22.8140  -31.6990 C   0  0  0  0  0  0  0  0  0  0  0  0
   -7.6210   23.4280  -31.5120 C   0  0  0  0  0  0  0  0  0  0  0  0
   -6.4230   22.7070  -31.6510 C   0  0  0  0  0  0  0  0  0  0  0  0
   -5.1850   23.3420  -31.4470 O   0  0  0  0  0  0  0  0  0  0  0  0
   -4.9610   24.5920  -30.7920 C   0  0  0  0  0  0  0  0  0  0  0  0
   -5.1560   24.4560  -29.2620 C   0  0  0  0  0  0  0  0  0  0  0  0
   -4.0210   23.8050  -28.5290 N   0  0  0  0  0  0  0  0  0  0  0  0
   -4.0790   24.1980  -27.0920 C   0  0  0  0  0  0  0  0  0  0  0  0
   -4.2320   22.3280  -28.6330 C   0  0  0  0  0  0  0  0  0  0  0  0
   -3.1090   21.4850  -27.9860 C   0  0  0  0  0  0  0  0  0  0  0  0
   -1.7130   22.1020  -28.1560 C   0  0  0  0  0  0  0  0  0  0  0  0
   -1.6820   23.0760  -29.3270 C   0  0  0  0  0  0  0  0  0  0  0  0
   -2.7050   24.2160  -29.1420 C   0  0  0  0  0  0  0  0  0  0  0  0
   -6.4740   21.3140  -31.9750 C   0  0  0  0  0  0  0  0  0  0  0  0
   -1.8696   17.1518  -33.3620 H   0  0  0  0  0  0  0  0  0  0  0  0
   -1.8112   18.2546  -34.7787 H   0  0  0  0  0  0  0  0  0  0  0  0
   -0.8446   16.7406  -34.7787 H   0  0  0  0  0  0  0  0  0  0  0  0
    0.8502   17.6851  -33.5983 H   0  0  0  0  0  0  0  0  0  0  0  0
    0.0647   19.2636  -34.0644 H   0  0  0  0  0  0  0  0  0  0  0  0
   -1.2750   18.9360  -31.9950 H   0  0  0  0  0  0  0  0  0  0  0  0
   -0.1548   17.7106  -30.1962 H   0  0  0  0  0  0  0  0  0  0  0  0
   -0.9372   16.7312  -31.4827 H   0  0  0  0  0  0  0  0  0  0  0  0
    0.8451   16.9545  -31.4827 H   0  0  0  0  0  0  0  0  0  0  0  0
    0.9175   19.4989  -30.5753 H   0  0  0  0  0  0  0  0  0  0  0  0
    1.3339   19.9486  -32.3149 H   0  0  0  0  0  0  0  0  0  0  0  0
   -0.1250   21.4745  -30.3921 H   0  0  0  0  0  0  0  0  0  0  0  0
    0.2670   21.8581  -32.1102 H   0  0  0  0  0  0  0  0  0  0  0  0
   -1.2841   22.1557  -33.4492 H   0  0  0  0  0  0  0  0  0  0  0  0
   -1.2113   20.3863  -33.7253 H   0  0  0  0  0  0  0  0  0  0  0  0
   -3.4532   22.0802  -34.0767 H   0  0  0  0  0  0  0  0  0  0  0  0
   -3.4370   20.2758  -34.0802 H   0  0  0  0  0  0  0  0  0  0  0  0
   -3.6500   21.6730  -31.4280 H   0  0  0  0  0  0  0  0  0  0  0  0
   -3.2711   18.8386  -32.6609 H   0  0  0  0  0  0  0  0  0  0  0  0
   -3.4786   16.4481  -33.3023 H   0  0  0  0  0  0  0  0  0  0  0  0
   -5.7264   15.4195  -33.5742 H   0  0  0  0  0  0  0  0  0  0  0  0
   -7.7724   16.7473  -33.1057 H   0  0  0  0  0  0  0  0  0  0  0  0
   -9.2776   18.4954  -30.9108 H   0  0  0  0  0  0  0  0  0  0  0  0
   -9.9265   19.1640  -32.4465 H   0  0  0  0  0  0  0  0  0  0  0  0
   -9.0633   17.5887  -32.4465 H   0  0  0  0  0  0  0  0  0  0  0  0
   -9.8959   20.9848  -32.1263 H   0  0  0  0  0  0  0  0  0  0  0  0
   -9.7720   23.4054  -31.6308 H   0  0  0  0  0  0  0  0  0  0  0  0
   -7.5838   24.4959  -31.2508 H   0  0  0  0  0  0  0  0  0  0  0  0
   -3.9331   24.9265  -30.9959 H   0  0  0  0  0  0  0  0  0  0  0  0
   -5.6863   25.3249  -31.1753 H   0  0  0  0  0  0  0  0  0  0  0  0
   -5.2960   25.4646  -28.8458 H   0  0  0  0  0  0  0  0  0  0  0  0
   -6.0267   23.7984  -29.1225 H   0  0  0  0  0  0  0  0  0  0  0  0
   -3.9473   23.3058  -26.4623 H   0  0  0  0  0  0  0  0  0  0  0  0
   -3.2777   24.9202  -26.8768 H   0  0  0  0  0  0  0  0  0  0  0  0
   -5.0548   24.6580  -26.8768 H   0  0  0  0  0  0  0  0  0  0  0  0
   -5.1814   22.0785  -28.1367 H   0  0  0  0  0  0  0  0  0  0  0  0
   -4.2369   22.0820  -29.7051 H   0  0  0  0  0  0  0  0  0  0  0  0
   -3.3198   21.3888  -26.9107 H   0  0  0  0  0  0  0  0  0  0  0  0
   -3.0988   20.5098  -28.4947 H   0  0  0  0  0  0  0  0  0  0  0  0
   -1.4432   22.6392  -27.2348 H   0  0  0  0  0  0  0  0  0  0  0  0
   -0.9956   21.2925  -28.3562 H   0  0  0  0  0  0  0  0  0  0  0  0
   -0.6740   23.5095  -29.4047 H   0  0  0  0  0  0  0  0  0  0  0  0
   -1.9426   22.5238  -30.2420 H   0  0  0  0  0  0  0  0  0  0  0  0
   -2.2507   24.9789  -28.4927 H   0  0  0  0  0  0  0  0  0  0  0  0
   -2.9400   24.5822  -30.1523 H   0  0  0  0  0  0  0  0  0  0  0  0
  1  2  1  0
  2  3  1  0
  3  4  1  0
  3  5  1  0
  5  6  1  0
  6  7  1  0
  7  8  1  0
  8  9  1  0
  9 10  1  0
 10 11  1  0
 11 12  2  0
 12 13  1  0
 13 14  2  0
 14 15  1  0
 15 16  2  0
 16 17  1  0
 17 18  2  0
 18 19  1  0
 18 20  1  0
 20 21  2  0
 21 22  1  0
 22 23  2  0
 23 24  1  0
 24 25  1  0
 25 26  1  0
 26 27  1  0
 27 28  1  0
 28 29  1  0
 28 30  1  0
 30 31  1  0
 31 32  1  0
 32 33  1  0
 33 34  1  0
 24 35  2  0
 35 11  1  0
 17 12  1  0
 35 20  1  0
 34 28  1  0
  1 36  1  0
  1 37  1  0
  1 38  1  0
  2 39  1  0
  2 40  1  0
  3 41  1  6
  4 42  1  0
  4 43  1  0
  4 44  1  0
  5 45  1  0
  5 46  1  0
  6 47  1  0
  6 48  1  0
  8 49  1  0
  8 50  1  0
  9 51  1  0
  9 52  1  0
 10 53  1  0
 13 54  1  0
 14 55  1  0
 15 56  1  0
 16 57  1  0
 19 58  1  0
 19 59  1  0
 19 60  1  0
 21 61  1  0
 22 62  1  0
 23 63  1  0
 26 64  1  0
 26 65  1  0
 27 66  1  0
 27 67  1  0
 29 68  1  0
 29 69  1  0
 29 70  1  0
 30 71  1  0
 30 72  1  0
 31 73  1  0
 31 74  1  0
 32 75  1  0
 32 76  1  0
 33 77  1  0
 33 78  1  0
 34 79  1  0
 34 80  1  0
M  CHG  3   3   1  18   1  28   1
M  END
>  <UniqueID>  (19) 
19

>  <SMILES>  (19) 
CC[N@@H+](C)CCOCCNc1c2ccccc2[n+](C)c2cccc(OCC[N+]3(C)CCCCC3)c12

>  <Energy>  (19) 
128.71709106988015

>  <Genealogy>  (19) 
CC[NH+](C)CCOCCNc1c2ccccc2[n+](C)c2cccc(OCC[N+]3(C)CCCCC3)c12 (protonated)
CC[N@@H+](C)CCOCCNc1c2ccccc2[n+](C)c2cccc(OCC[N+]3(C)CCCCC3)c12 (chirality)
CC[N@@H+](C)CCOCCNc1c2ccccc2[n+](C)c2cccc(OCC[N+]3(C)CCCCC3)c12 (3D coordinates assigned)
CC[N@@H+](C)CCOCCNc1c2ccccc2[n+](C)c2cccc(OCC[N+]3(C)CCCCC3)c12 (nonaromatic ring conformer: 128.71709106988015 kcal/mol)

>  <smiles>  (19) 
CCN(C)CCOCCNc1c2ccccc2[n+](C)c2cccc(OCC[N+]3(C)CCCCC3)c12

>  <score_type>  (19) 
oracle

>  <origin>  (19) 
adg

>  <m_score__min__energy>  (19) 
-7.2000000000000002

>  <m_primary>  (19) 
energy

$$$$
19:0
     RDKit          3D

 44 47  0  0  0  0  0  0  0  0999 V2000
   -4.8450   19.3180  -32.0550 C   0  0  0  0  0  0  0  0  0  0  0  0
   -5.4010   20.6700  -32.0980 N   0  0  0  0  0  0  0  0  0  0  0  0
   -4.7300   21.8570  -32.0720 C   0  0  0  0  0  0  0  0  0  0  0  0
   -3.2360   22.0140  -32.0180 C   0  0  0  0  0  0  0  0  0  0  0  0
   -2.7970   22.0430  -30.6060 N   0  0  0  0  0  0  0  0  0  0  0  0
   -2.5050   23.4070  -30.1250 C   0  0  0  0  0  0  0  0  0  0  0  0
   -3.7700   24.2030  -30.0340 C   0  0  0  0  0  0  0  0  0  0  0  0
   -4.8110   23.9620  -29.1600 C   0  0  0  0  0  0  0  0  0  0  0  0
   -5.7620   24.9170  -29.4470 C   0  0  0  0  0  0  0  0  0  0  0  0
   -5.2430   25.6780  -30.4750 C   0  0  0  0  0  0  0  0  0  0  0  0
   -4.0540   25.2270  -30.8040 O   0  0  0  0  0  0  0  0  0  0  0  0
   -1.7090   21.0810  -30.3180 C   0  0  0  0  0  0  0  0  0  0  0  0
   -1.8040   20.4450  -28.9540 C   0  0  0  0  0  0  0  0  0  0  0  0
   -0.9050   19.5370  -28.4030 C   0  0  0  0  0  0  0  0  0  0  0  0
   -1.2690   19.1030  -27.1240 C   0  0  0  0  0  0  0  0  0  0  0  0
   -2.4560   19.6570  -26.6620 C   0  0  0  0  0  0  0  0  0  0  0  0
   -3.0520   20.6870  -27.8500 S   0  0  0  0  0  0  0  0  0  0  0  0
   -5.5660   22.9240  -32.0410 N   0  0  0  0  0  0  0  0  0  0  0  0
   -6.7950   22.3870  -32.0270 C   0  0  0  0  0  0  0  0  0  0  0  0
   -8.0200   23.0480  -31.9620 C   0  0  0  0  0  0  0  0  0  0  0  0
   -9.1840   22.2600  -31.9230 C   0  0  0  0  0  0  0  0  0  0  0  0
   -9.0950   20.8490  -31.9420 C   0  0  0  0  0  0  0  0  0  0  0  0
   -7.8410   20.2130  -32.0040 C   0  0  0  0  0  0  0  0  0  0  0  0
   -6.7020   21.0240  -32.0520 C   0  0  0  0  0  0  0  0  0  0  0  0
   -4.7172   19.0072  -31.0076 H   0  0  0  0  0  0  0  0  0  0  0  0
   -5.5305   18.6233  -32.5625 H   0  0  0  0  0  0  0  0  0  0  0  0
   -3.8692   19.3065  -32.5625 H   0  0  0  0  0  0  0  0  0  0  0  0
   -2.7589   21.1675  -32.5336 H   0  0  0  0  0  0  0  0  0  0  0  0
   -2.9466   22.9529  -32.5126 H   0  0  0  0  0  0  0  0  0  0  0  0
   -2.0389   23.3499  -29.1303 H   0  0  0  0  0  0  0  0  0  0  0  0
   -1.8205   23.8989  -30.8318 H   0  0  0  0  0  0  0  0  0  0  0  0
   -4.8691   23.1734  -28.3953 H   0  0  0  0  0  0  0  0  0  0  0  0
   -6.7378   25.0467  -28.9560 H   0  0  0  0  0  0  0  0  0  0  0  0
   -5.7487   26.5330  -30.9474 H   0  0  0  0  0  0  0  0  0  0  0  0
   -1.7414   20.2839  -31.0753 H   0  0  0  0  0  0  0  0  0  0  0  0
   -0.7661   21.6470  -30.3425 H   0  0  0  0  0  0  0  0  0  0  0  0
    0.0023   19.1943  -28.9220 H   0  0  0  0  0  0  0  0  0  0  0  0
   -0.6708   18.3893  -26.5385 H   0  0  0  0  0  0  0  0  0  0  0  0
   -2.9251   19.4566  -25.6874 H   0  0  0  0  0  0  0  0  0  0  0  0
   -5.3110   23.9380  -32.0040 H   0  0  0  0  0  0  0  0  0  0  0  0
   -8.0745   24.1465  -31.9419 H   0  0  0  0  0  0  0  0  0  0  0  0
  -10.1705   22.7446  -31.8774 H   0  0  0  0  0  0  0  0  0  0  0  0
  -10.0129   20.2437  -31.9081 H   0  0  0  0  0  0  0  0  0  0  0  0
   -7.7593   19.1161  -32.0144 H   0  0  0  0  0  0  0  0  0  0  0  0
  1  2  1  0
  2  3  1  0
  3  4  1  0
  4  5  1  0
  5  6  1  0
  6  7  1  0
  7  8  2  0
  8  9  1  0
  9 10  2  0
 10 11  1  0
  5 12  1  0
 12 13  1  0
 13 14  2  0
 14 15  1  0
 15 16  2  0
 16 17  1  0
  3 18  2  0
 18 19  1  0
 19 20  2  0
 20 21  1  0
 21 22  2  0
 22 23  1  0
 23 24  2  0
 24  2  1  0
 11  7  1  0
 17 13  1  0
 24 19  1  0
  1 25  1  0
  1 26  1  0
  1 27  1  0
  4 28  1  0
  4 29  1  0
  6 30  1  0
  6 31  1  0
  8 32  1  0
  9 33  1  0
 10 34  1  0
 12 35  1  0
 12 36  1  0
 14 37  1  0
 15 38  1  0
 16 39  1  0
 18 40  1  0
 20 41  1  0
 21 42  1  0
 22 43  1  0
 23 44  1  0
M  CHG  1  18   1
M  END
>  <UniqueID>  (20) 
20

>  <SMILES>  (20) 
Cn1c(CN(Cc2ccco2)Cc2cccs2)[nH+]c2ccccc21

>  <Energy>  (20) 
140.17189568237765

>  <Genealogy>  (20) 
Cn1c(CN(Cc2ccco2)Cc2cccs2)[nH+]c2ccccc21 (protonated)
Cn1c(CN(Cc2ccco2)Cc2cccs2)[nH+]c2ccccc21 (3D coordinates assigned)
Cn1c(CN(Cc2ccco2)Cc2cccs2)[nH+]c2ccccc21 (optimized conformer: 140.17189568237765 kcal/mol)

>  <smiles>  (20) 
Cn1c(CN(Cc2ccco2)Cc2cccs2)nc2ccccc21

>  <score_type>  (20) 
oracle

>  <origin>  (20) 
adg

>  <m_score__min__energy>  (20) 
-7.5599999999999996

>  <m_primary>  (20) 
energy

$$$$
20:0
     RDKit          3D

 47 49  0  0  0  0  0  0  0  0999 V2000
   -9.4750   23.4000  -32.3390 C   0  0  0  0  0  0  0  0  0  0  0  0
   -9.3190   22.2550  -31.6700 C   0  0  0  0  0  0  0  0  0  0  0  0
   -8.4090   21.1620  -32.0930 C   0  0  0  0  0  0  0  0  0  0  0  0
   -8.8620   19.8600  -32.3450 C   0  0  0  0  0  0  0  0  0  0  0  0
   -7.9690   18.8590  -32.7220 C   0  0  0  0  0  0  0  0  0  0  0  0
   -6.5840   19.1230  -32.8650 C   0  0  0  0  0  0  0  0  0  0  0  0
   -6.1430   20.4640  -32.7180 C   0  0  0  0  0  0  0  0  0  0  0  0
   -7.0550   21.4560  -32.2940 C   0  0  0  0  0  0  0  0  0  0  0  0
   -4.7980   20.7850  -32.9810 C   0  0  0  0  0  0  0  0  0  0  0  0
   -4.3440   22.1470  -32.8830 N   0  0  0  0  0  0  0  0  0  0  0  0
   -3.4760   22.5860  -31.7890 C   0  0  0  0  0  0  0  0  0  0  0  0
   -4.2960   23.2050  -30.6530 C   0  0  0  0  0  0  0  0  0  0  0  0
   -4.1150   24.6640  -30.6030 N   0  0  0  0  0  0  0  0  0  0  0  0
   -5.3940   25.3710  -30.7490 C   0  0  0  0  0  0  0  0  0  0  0  0
   -6.5460   24.4380  -30.4010 C   0  0  0  0  0  0  0  0  0  0  0  0
   -3.9140   19.7730  -33.3990 C   0  0  0  0  0  0  0  0  0  0  0  0
   -2.5710   20.0710  -33.7160 C   0  0  0  0  0  0  0  0  0  0  0  0
   -1.7160   19.0830  -34.1990 C   0  0  0  0  0  0  0  0  0  0  0  0
   -2.1850   17.7890  -34.3850 C   0  0  0  0  0  0  0  0  0  0  0  0
   -3.5020   17.4660  -34.0620 C   0  0  0  0  0  0  0  0  0  0  0  0
   -4.3860   18.4390  -33.5270 C   0  0  0  0  0  0  0  0  0  0  0  0
   -5.6790   18.1200  -33.1540 N   0  0  0  0  0  0  0  0  0  0  0  0
   -6.0810   16.7010  -33.0240 C   0  0  0  0  0  0  0  0  0  0  0  0
  -10.1694   24.1661  -31.9636 H   0  0  0  0  0  0  0  0  0  0  0  0
   -8.9091   23.5772  -33.2655 H   0  0  0  0  0  0  0  0  0  0  0  0
   -9.9015   22.1132  -30.7477 H   0  0  0  0  0  0  0  0  0  0  0  0
   -9.9321   19.6261  -32.2443 H   0  0  0  0  0  0  0  0  0  0  0  0
   -8.3466   17.8435  -32.9124 H   0  0  0  0  0  0  0  0  0  0  0  0
   -6.6941   22.4801  -32.1182 H   0  0  0  0  0  0  0  0  0  0  0  0
   -4.8220   22.8760  -33.4590 H   0  0  0  0  0  0  0  0  0  0  0  0
   -2.9202   21.7197  -31.4009 H   0  0  0  0  0  0  0  0  0  0  0  0
   -2.7822   23.3470  -32.1756 H   0  0  0  0  0  0  0  0  0  0  0  0
   -5.3606   22.9804  -30.8148 H   0  0  0  0  0  0  0  0  0  0  0  0
   -3.9510   22.7774  -29.7000 H   0  0  0  0  0  0  0  0  0  0  0  0
   -3.5090   24.9360  -31.4140 H   0  0  0  0  0  0  0  0  0  0  0  0
   -5.4103   26.2383  -30.0726 H   0  0  0  0  0  0  0  0  0  0  0  0
   -5.5038   25.7085  -31.7902 H   0  0  0  0  0  0  0  0  0  0  0  0
   -6.6392   24.3625  -29.3076 H   0  0  0  0  0  0  0  0  0  0  0  0
   -7.4808   24.8367  -30.8220 H   0  0  0  0  0  0  0  0  0  0  0  0
   -6.3502   23.4408  -30.8220 H   0  0  0  0  0  0  0  0  0  0  0  0
   -2.1951   21.0958  -33.5799 H   0  0  0  0  0  0  0  0  0  0  0  0
   -0.6694   19.3277  -34.4331 H   0  0  0  0  0  0  0  0  0  0  0  0
   -1.5146   17.0160  -34.7888 H   0  0  0  0  0  0  0  0  0  0  0  0
   -3.8623   16.4395  -34.2245 H   0  0  0  0  0  0  0  0  0  0  0  0
   -6.1557   16.4372  -31.9587 H   0  0  0  0  0  0  0  0  0  0  0  0
   -7.0571   16.5506  -33.5083 H   0  0  0  0  0  0  0  0  0  0  0  0
   -5.3288   16.0610  -33.5083 H   0  0  0  0  0  0  0  0  0  0  0  0
  1  2  2  0
  2  3  1  0
  3  4  2  0
  4  5  1  0
  5  6  2  0
  6  7  1  0
  7  8  2  0
  7  9  1  0
  9 10  1  0
 10 11  1  0
 11 12  1  0
 12 13  1  0
 13 14  1  0
 14 15  1  0
  9 16  2  0
 16 17  1  0
 17 18  2  0
 18 19  1  0
 19 20  2  0
 20 21  1  0
 21 22  2  0
 22 23  1  0
  8  3  1  0
 21 16  1  0
 22  6  1  0
  1 24  1  0
  1 25  1  0
  2 26  1  0
  4 27  1  0
  5 28  1  0
  8 29  1  0
 10 30  1  0
 11 31  1  0
 11 32  1  0
 12 33  1  0
 12 34  1  0
 13 35  1  0
 14 36  1  0
 14 37  1  0
 15 38  1  0
 15 39  1  0
 15 40  1  0
 17 41  1  0
 18 42  1  0
 19 43  1  0
 20 44  1  0
 23 45  1  0
 23 46  1  0
 23 47  1  0
M  CHG  1  22   1
M  END
>  <UniqueID>  (21) 
21

>  <SMILES>  (21) 
C=Cc1ccc2c(c1)c(NCCNCC)c1ccccc1[n+]2C

>  <Energy>  (21) 
70.99416994939982

>  <Genealogy>  (21) 
C=Cc1ccc2c(c1)c(NCCNCC)c1ccccc1[n+]2C (3D coordinates assigned)
C=Cc1ccc2c(c1)c(NCCNCC)c1ccccc1[n+]2C (optimized conformer: 70.99416994939982 kcal/mol)

>  <smiles>  (21) 
C=Cc1ccc2c(c1)c(NCCNCC)c1ccccc1[n+]2C

>  <score_type>  (21) 
oracle

>  <origin>  (21) 
adg

>  <m_score__min__energy>  (21) 
-9.1799999999999997

>  <m_primary>  (21) 
energy

$$$$
21:0
     RDKit          3D

 69 72  0  0  0  0  0  0  0  0999 V2000
   -3.4780   23.6050  -28.7680 C   0  0  0  0  0  0  0  0  0  0  0  0
   -3.5100   23.1640  -30.2340 C   0  0  0  0  0  0  0  0  0  0  0  0
   -4.3800   23.9930  -31.1050 N   0  0  0  0  0  0  0  0  0  0  0  0
   -4.9530   25.1950  -30.4520 C   0  0  0  0  0  0  0  0  0  0  0  0
   -6.4290   25.0550  -30.0390 C   0  0  0  0  0  0  0  0  0  0  0  0
   -5.3030   23.2350  -31.9790 C   0  0  0  0  0  0  0  0  0  0  0  0
   -4.9700   21.7340  -31.9490 C   0  0  0  0  0  0  0  0  0  0  0  0
   -4.9130   21.1350  -33.2980 N   0  0  0  0  0  0  0  0  0  0  0  0
   -4.4330   19.7660  -33.2740 C   0  0  0  0  0  0  0  0  0  0  0  0
   -3.0590   19.4730  -33.3780 C   0  0  0  0  0  0  0  0  0  0  0  0
   -1.9520   20.4440  -33.3370 C   0  0  0  0  0  0  0  0  0  0  0  0
   -1.8990   21.3390  -34.2260 O   0  0  0  0  0  0  0  0  0  0  0  0
   -0.9460   20.3960  -32.3070 N   0  0  0  0  0  0  0  0  0  0  0  0
   -0.6280   19.1870  -31.5580 C   0  0  0  0  0  0  0  0  0  0  0  0
   -0.8740   19.4230  -30.0680 C   0  0  0  0  0  0  0  0  0  0  0  0
   -0.5750   20.8000  -29.5900 N   0  0  0  0  0  0  0  0  0  0  0  0
   -0.7060   21.0800  -28.1570 C   0  0  0  0  0  0  0  0  0  0  0  0
   -1.4950   20.2590  -27.3110 C   0  0  0  0  0  0  0  0  0  0  0  0
   -1.6170   20.5330  -25.9450 C   0  0  0  0  0  0  0  0  0  0  0  0
   -0.9570   21.6250  -25.3850 C   0  0  0  0  0  0  0  0  0  0  0  0
   -0.1690   22.4440  -26.1900 C   0  0  0  0  0  0  0  0  0  0  0  0
   -0.0390   22.1800  -27.5560 C   0  0  0  0  0  0  0  0  0  0  0  0
   -0.3240   21.9360  -30.5160 C   0  0  0  0  0  0  0  0  0  0  0  0
   -0.1130   21.5440  -31.9790 C   0  0  0  0  0  0  0  0  0  0  0  0
   -2.8380   17.8300  -33.6690 S   0  0  0  0  0  0  0  0  0  0  0  0
   -4.4650   17.4680  -33.6610 C   0  0  0  0  0  0  0  0  0  0  0  0
   -4.9850   16.2480  -33.9250 N   0  0  0  0  0  0  0  0  0  0  0  0
   -6.3290   16.0680  -33.9340 C   0  0  0  0  0  0  0  0  0  0  0  0
   -6.8880   14.7070  -34.2100 C   0  0  0  0  0  0  0  0  0  0  0  0
   -7.1800   17.1370  -33.6050 C   0  0  0  0  0  0  0  0  0  0  0  0
   -6.6540   18.4110  -33.3050 C   0  0  0  0  0  0  0  0  0  0  0  0
   -7.6140   19.4550  -32.8040 C   0  0  0  0  0  0  0  0  0  0  0  0
   -5.2450   18.5930  -33.4010 C   0  0  0  0  0  0  0  0  0  0  0  0
   -3.5422   22.7203  -28.1175 H   0  0  0  0  0  0  0  0  0  0  0  0
   -2.5386   24.1408  -28.5667 H   0  0  0  0  0  0  0  0  0  0  0  0
   -4.3302   24.2708  -28.5667 H   0  0  0  0  0  0  0  0  0  0  0  0
   -2.4845   23.2091  -30.6293 H   0  0  0  0  0  0  0  0  0  0  0  0
   -3.9303   22.1475  -30.2468 H   0  0  0  0  0  0  0  0  0  0  0  0
   -4.3626   25.4098  -29.5491 H   0  0  0  0  0  0  0  0  0  0  0  0
   -4.9119   26.0044  -31.1957 H   0  0  0  0  0  0  0  0  0  0  0  0
   -6.5036   25.0479  -28.9416 H   0  0  0  0  0  0  0  0  0  0  0  0
   -7.0040   25.9026  -30.4401 H   0  0  0  0  0  0  0  0  0  0  0  0
   -6.8344   24.1144  -30.4401 H   0  0  0  0  0  0  0  0  0  0  0  0
   -6.3352   23.3830  -31.6288 H   0  0  0  0  0  0  0  0  0  0  0  0
   -5.1939   23.6010  -33.0106 H   0  0  0  0  0  0  0  0  0  0  0  0
   -3.9922   21.6002  -31.4631 H   0  0  0  0  0  0  0  0  0  0  0  0
   -5.7731   21.2268  -31.3943 H   0  0  0  0  0  0  0  0  0  0  0  0
   -5.8780   21.1420  -33.6990 H   0  0  0  0  0  0  0  0  0  0  0  0
   -4.3590   21.7530  -33.9150 H   0  0  0  0  0  0  0  0  0  0  0  0
   -1.2662   18.3621  -31.9076 H   0  0  0  0  0  0  0  0  0  0  0  0
    0.4296   18.9290  -31.7157 H   0  0  0  0  0  0  0  0  0  0  0  0
   -1.9334   19.2124  -29.8598 H   0  0  0  0  0  0  0  0  0  0  0  0
   -0.1819   18.7558  -29.5334 H   0  0  0  0  0  0  0  0  0  0  0  0
   -2.0202   19.3914  -27.7370 H   0  0  0  0  0  0  0  0  0  0  0  0
   -2.2369   19.8834  -25.3096 H   0  0  0  0  0  0  0  0  0  0  0  0
   -1.0580   21.8394  -24.3108 H   0  0  0  0  0  0  0  0  0  0  0  0
    0.3545   23.3044  -25.7475 H   0  0  0  0  0  0  0  0  0  0  0  0
    0.5905   22.8352  -28.1760 H   0  0  0  0  0  0  0  0  0  0  0  0
   -1.1886   22.6142  -30.4659 H   0  0  0  0  0  0  0  0  0  0  0  0
    0.6161   22.4007  -30.1840 H   0  0  0  0  0  0  0  0  0  0  0  0
   -0.3858   22.3901  -32.6268 H   0  0  0  0  0  0  0  0  0  0  0  0
    0.9439   21.2826  -32.1362 H   0  0  0  0  0  0  0  0  0  0  0  0
   -7.0976   14.1968  -33.2583 H   0  0  0  0  0  0  0  0  0  0  0  0
   -7.8194   14.8033  -34.7873 H   0  0  0  0  0  0  0  0  0  0  0  0
   -6.1578   14.1208  -34.7873 H   0  0  0  0  0  0  0  0  0  0  0  0
   -8.2683   16.9785  -33.5812 H   0  0  0  0  0  0  0  0  0  0  0  0
   -7.6142   19.4552  -31.7040 H   0  0  0  0  0  0  0  0  0  0  0  0
   -7.3038   20.4446  -33.1708 H   0  0  0  0  0  0  0  0  0  0  0  0
   -8.6260   19.2287  -33.1708 H   0  0  0  0  0  0  0  0  0  0  0  0
  1  2  1  0
  2  3  1  0
  3  4  1  0
  4  5  1  0
  3  6  1  0
  6  7  1  0
  7  8  1  0
  8  9  1  0
  9 10  2  0
 10 11  1  0
 11 12  2  0
 11 13  1  0
 13 14  1  0
 14 15  1  0
 15 16  1  0
 16 17  1  0
 17 18  2  0
 18 19  1  0
 19 20  2  0
 20 21  1  0
 21 22  2  0
 16 23  1  0
 23 24  1  0
 10 25  1  0
 25 26  1  0
 26 27  2  0
 27 28  1  0
 28 29  1  0
 28 30  2  0
 30 31  1  0
 31 32  1  0
 31 33  2  0
 33  9  1  0
 24 13  1  0
 33 26  1  0
 22 17  1  0
  1 34  1  0
  1 35  1  0
  1 36  1  0
  2 37  1  0
  2 38  1  0
  4 39  1  0
  4 40  1  0
  5 41  1  0
  5 42  1  0
  5 43  1  0
  6 44  1  0
  6 45  1  0
  7 46  1  0
  7 47  1  0
  8 48  1  0
  8 49  1  0
 14 50  1  0
 14 51  1  0
 15 52  1  0
 15 53  1  0
 18 54  1  0
 19 55  1  0
 20 56  1  0
 21 57  1  0
 22 58  1  0
 23 59  1  0
 23 60  1  0
 24 61  1  0
 24 62  1  0
 29 63  1  0
 29 64  1  0
 29 65  1  0
 30 66  1  0
 32 67  1  0
 32 68  1  0
 32 69  1  0
M  CHG  1   8   1
M  END
>  <UniqueID>  (22) 
22

>  <SMILES>  (22) 
CCN(CC)CC[NH2+]c1c(C(=O)N2CCN(c3ccccc3)CC2)sc2nc(C)cc(C)c12

>  <Energy>  (22) 
132.03333279600258

>  <Genealogy>  (22) 
CCN(CC)CC[NH2+]c1c(C(=O)N2CCN(c3ccccc3)CC2)sc2nc(C)cc(C)c12 (protonated)
CCN(CC)CC[NH2+]c1c(C(=O)N2CCN(c3ccccc3)CC2)sc2nc(C)cc(C)c12 (3D coordinates assigned)
CCN(CC)CC[NH2+]c1c(C(=O)N2CCN(c3ccccc3)CC2)sc2nc(C)cc(C)c12 (nonaromatic ring conformer: 132.03333279600258 kcal/mol)

>  <smiles>  (22) 
CCN(CC)CCNc1c(C(=O)N2CCN(c3ccccc3)CC2)sc2nc(C)cc(C)c12

>  <score_type>  (22) 
oracle

>  <origin>  (22) 
adg

>  <m_score__min__energy>  (22) 
-8.2400000000000002

>  <m_primary>  (22) 
energy

$$$$
22:0
     RDKit          3D

 44 47  0  0  0  0  0  0  0  0999 V2000
   -6.6950   24.6960  -29.7180 C   0  0  0  0  0  0  0  0  0  0  0  0
   -5.6920   25.6710  -30.3270 C   0  0  0  0  0  0  0  0  0  0  0  0
   -4.7250   24.9580  -31.1740 N   0  0  0  0  0  0  0  0  0  0  0  0
   -3.9180   24.0150  -30.3870 C   0  0  0  0  0  0  0  0  0  0  0  0
   -3.7160   22.7190  -31.1740 C   0  0  0  0  0  0  0  0  0  0  0  0
   -4.6470   22.6430  -32.2980 N   0  0  0  0  0  0  0  0  0  0  0  0
   -5.3600   21.4290  -32.5650 C   0  0  0  0  0  0  0  0  0  0  0  0
   -6.7650   21.3490  -32.3320 C   0  0  0  0  0  0  0  0  0  0  0  0
   -7.4950   22.4470  -31.8370 C   0  0  0  0  0  0  0  0  0  0  0  0
   -8.8700   22.3380  -31.6140 C   0  0  0  0  0  0  0  0  0  0  0  0
   -9.5360   21.1400  -31.8770 C   0  0  0  0  0  0  0  0  0  0  0  0
   -8.8350   20.0350  -32.3650 C   0  0  0  0  0  0  0  0  0  0  0  0
   -7.4520   20.1260  -32.5950 C   0  0  0  0  0  0  0  0  0  0  0  0
   -6.7340   19.0670  -33.0650 N   0  0  0  0  0  0  0  0  0  0  0  0
   -5.4200   19.1510  -33.2900 C   0  0  0  0  0  0  0  0  0  0  0  0
   -4.8960   17.9900  -33.7770 C   0  0  0  0  0  0  0  0  0  0  0  0
   -3.5310   17.8960  -34.0950 C   0  0  0  0  0  0  0  0  0  0  0  0
   -2.9120   16.6670  -34.6270 C   0  0  0  0  0  0  0  0  0  0  0  0
   -3.4910   15.9630  -35.4950 O   0  0  0  0  0  0  0  0  0  0  0  0
   -2.7380   19.0520  -33.8900 C   0  0  0  0  0  0  0  0  0  0  0  0
   -3.3030   20.2470  -33.3830 C   0  0  0  0  0  0  0  0  0  0  0  0
   -4.6760   20.3000  -33.0680 C   0  0  0  0  0  0  0  0  0  0  0  0
   -6.0310   17.0600  -33.8630 C   0  0  0  0  0  0  0  0  0  0  0  0
   -7.1050   17.7350  -33.4320 C   0  0  0  0  0  0  0  0  0  0  0  0
   -6.6392   24.7502  -28.6208 H   0  0  0  0  0  0  0  0  0  0  0  0
   -7.7105   24.9614  -30.0471 H   0  0  0  0  0  0  0  0  0  0  0  0
   -6.4585   23.6734  -30.0471 H   0  0  0  0  0  0  0  0  0  0  0  0
   -6.2315   26.4099  -30.9377 H   0  0  0  0  0  0  0  0  0  0  0  0
   -5.1478   26.1734  -29.5138 H   0  0  0  0  0  0  0  0  0  0  0  0
   -4.0720   25.6700  -31.5780 H   0  0  0  0  0  0  0  0  0  0  0  0
   -2.9386   24.4661  -30.1698 H   0  0  0  0  0  0  0  0  0  0  0  0
   -4.4406   23.7892  -29.4458 H   0  0  0  0  0  0  0  0  0  0  0  0
   -2.6853   22.6867  -31.5568 H   0  0  0  0  0  0  0  0  0  0  0  0
   -3.9028   21.8671  -30.5037 H   0  0  0  0  0  0  0  0  0  0  0  0
   -4.9380   23.5100  -32.8060 H   0  0  0  0  0  0  0  0  0  0  0  0
   -6.9799   23.3955  -31.6248 H   0  0  0  0  0  0  0  0  0  0  0  0
   -9.4312   23.2020  -31.2286 H   0  0  0  0  0  0  0  0  0  0  0  0
  -10.6189   21.0657  -31.6990 H   0  0  0  0  0  0  0  0  0  0  0  0
   -9.3657   19.0934  -32.5693 H   0  0  0  0  0  0  0  0  0  0  0  0
   -1.9229   16.3592  -34.2570 H   0  0  0  0  0  0  0  0  0  0  0  0
   -1.6647   19.0205  -34.1289 H   0  0  0  0  0  0  0  0  0  0  0  0
   -2.6703   21.1346  -33.2348 H   0  0  0  0  0  0  0  0  0  0  0  0
   -6.0039   16.0171  -34.2119 H   0  0  0  0  0  0  0  0  0  0  0  0
   -8.1237   17.3248  -33.3694 H   0  0  0  0  0  0  0  0  0  0  0  0
  1  2  1  0
  2  3  1  0
  3  4  1  0
  4  5  1  0
  5  6  1  0
  6  7  1  0
  7  8  2  0
  8  9  1  0
  9 10  2  0
 10 11  1  0
 11 12  2  0
 12 13  1  0
 13 14  2  0
 14 15  1  0
 15 16  2  0
 16 17  1  0
 17 18  1  0
 18 19  2  0
 17 20  2  0
 20 21  1  0
 21 22  2  0
 16 23  1  0
 23 24  2  0
 22  7  1  0
 13  8  1  0
 24 14  1  0
 22 15  1  0
  1 25  1  0
  1 26  1  0
  1 27  1  0
  2 28  1  0
  2 29  1  0
  3 30  1  0
  4 31  1  0
  4 32  1  0
  5 33  1  0
  5 34  1  0
  6 35  1  0
  9 36  1  0
 10 37  1  0
 11 38  1  0
 12 39  1  0
 18 40  1  0
 20 41  1  0
 21 42  1  0
 23 43  1  0
 24 44  1  0
M  CHG  1  14   1
M  END
>  <UniqueID>  (23) 
23

>  <SMILES>  (23) 
CCNCCNc1c2ccccc2[n+]2c3c(c(C=O)ccc13)C=C2

>  <Energy>  (23) 
93.59316240908981

>  <Genealogy>  (23) 
CCNCCNc1c2ccccc2[n+]2c3c(c(C=O)ccc13)C=C2 (3D coordinates assigned)
CCNCCNc1c2ccccc2[n+]2c3c(c(C=O)ccc13)C=C2 (nonaromatic ring conformer: 93.59316240908981 kcal/mol)

>  <smiles>  (23) 
CCNCCNc1c2ccccc2[n+]2c3c(c(C=O)ccc13)C=C2

>  <score_type>  (23) 
oracle

>  <origin>  (23) 
adg

>  <m_score__min__energy>  (23) 
-8.7899999999999991

>  <m_primary>  (23) 
energy

$$$$
23:0
     RDKit          3D

 43 45  0  0  0  0  0  0  0  0999 V2000
   -3.8310   25.3130  -30.5830 N   0  0  0  0  0  0  0  0  0  0  0  0
   -5.2260   25.0610  -30.4490 C   0  0  0  0  0  0  0  0  0  0  0  0
   -6.0060   25.9970  -30.1330 O   0  0  0  0  0  0  0  0  0  0  0  0
   -5.7620   23.6810  -30.6690 C   0  0  0  0  0  0  0  0  0  0  0  0
   -4.6630   22.7400  -30.8830 N   0  0  0  0  0  0  0  0  0  0  0  0
   -4.3250   22.1780  -32.0660 C   0  0  0  0  0  0  0  0  0  0  0  0
   -3.2410   21.3220  -31.9030 C   0  0  0  0  0  0  0  0  0  0  0  0
   -2.5090   20.6140  -33.0040 C   0  0  0  0  0  0  0  0  0  0  0  0
   -3.0120   19.2410  -33.1290 N   0  0  0  0  0  0  0  0  0  0  0  0
   -4.2910   19.1760  -33.8580 C   0  0  0  0  0  0  0  0  0  0  0  0
   -5.2670   18.2600  -33.1210 C   0  0  0  0  0  0  0  0  0  0  0  0
   -6.4790   19.0220  -32.6500 C   0  0  0  0  0  0  0  0  0  0  0  0
   -7.5220   18.3540  -31.9840 C   0  0  0  0  0  0  0  0  0  0  0  0
   -8.6540   19.0580  -31.5610 C   0  0  0  0  0  0  0  0  0  0  0  0
   -8.7580   20.4310  -31.8070 C   0  0  0  0  0  0  0  0  0  0  0  0
   -9.8510   21.1150  -31.3870 F   0  0  0  0  0  0  0  0  0  0  0  0
   -7.7350   21.0960  -32.4890 C   0  0  0  0  0  0  0  0  0  0  0  0
   -6.6000   20.3970  -32.9130 C   0  0  0  0  0  0  0  0  0  0  0  0
   -2.9170   21.3760  -30.5580 C   0  0  0  0  0  0  0  0  0  0  0  0
   -1.9060   20.7490  -29.8290 C   0  0  0  0  0  0  0  0  0  0  0  0
   -1.8120   21.0310  -28.4550 C   0  0  0  0  0  0  0  0  0  0  0  0
   -2.7210   21.9230  -27.8460 C   0  0  0  0  0  0  0  0  0  0  0  0
   -3.7330   22.5380  -28.6020 C   0  0  0  0  0  0  0  0  0  0  0  0
   -3.8050   22.2420  -29.9660 C   0  0  0  0  0  0  0  0  0  0  0  0
   -3.4820   26.0540  -31.2300 H   0  0  0  0  0  0  0  0  0  0  0  0
   -6.3394   23.3704  -29.7857 H   0  0  0  0  0  0  0  0  0  0  0  0
   -6.4091   23.6851  -31.5585 H   0  0  0  0  0  0  0  0  0  0  0  0
   -4.8351   22.3706  -33.0214 H   0  0  0  0  0  0  0  0  0  0  0  0
   -2.6676   21.1493  -33.9518 H   0  0  0  0  0  0  0  0  0  0  0  0
   -1.4346   20.5885  -32.7696 H   0  0  0  0  0  0  0  0  0  0  0  0
   -2.3050   18.6750  -33.6540 H   0  0  0  0  0  0  0  0  0  0  0  0
   -4.7217   20.1857  -33.9286 H   0  0  0  0  0  0  0  0  0  0  0  0
   -4.1116   18.7754  -34.8666 H   0  0  0  0  0  0  0  0  0  0  0  0
   -5.5894   17.4577  -33.8010 H   0  0  0  0  0  0  0  0  0  0  0  0
   -4.7555   17.8409  -32.2420 H   0  0  0  0  0  0  0  0  0  0  0  0
   -7.4472   17.2730  -31.7949 H   0  0  0  0  0  0  0  0  0  0  0  0
   -9.4634   18.5314  -31.0343 H   0  0  0  0  0  0  0  0  0  0  0  0
   -7.8229   22.1733  -32.6931 H   0  0  0  0  0  0  0  0  0  0  0  0
   -5.8005   20.9248  -33.4535 H   0  0  0  0  0  0  0  0  0  0  0  0
   -1.2039   20.0552  -30.3146 H   0  0  0  0  0  0  0  0  0  0  0  0
   -1.0259   20.5540  -27.8512 H   0  0  0  0  0  0  0  0  0  0  0  0
   -2.6363   22.1383  -26.7706 H   0  0  0  0  0  0  0  0  0  0  0  0
   -4.4472   23.2317  -28.1344 H   0  0  0  0  0  0  0  0  0  0  0  0
  1  2  1  0
  2  3  2  0
  2  4  1  0
  4  5  1  0
  5  6  1  0
  6  7  2  0
  7  8  1  0
  8  9  1  0
  9 10  1  0
 10 11  1  0
 11 12  1  0
 12 13  2  0
 13 14  1  0
 14 15  2  0
 15 16  1  0
 15 17  1  0
 17 18  2  0
  7 19  1  0
 19 20  2  0
 20 21  1  0
 21 22  2  0
 22 23  1  0
 23 24  2  0
 24  5  1  0
 18 12  1  0
 24 19  1  0
  1 25  1  0
  4 26  1  0
  4 27  1  0
  6 28  1  0
  8 29  1  0
  8 30  1  0
  9 31  1  0
 10 32  1  0
 10 33  1  0
 11 34  1  0
 11 35  1  0
 13 36  1  0
 14 37  1  0
 17 38  1  0
 18 39  1  0
 20 40  1  0
 21 41  1  0
 22 42  1  0
 23 43  1  0
M  CHG  1   1  -1
M  END
>  <UniqueID>  (24) 
24

>  <SMILES>  (24) 
[NH-]C(=O)Cn1cc(CNCCc2ccc(F)cc2)c2ccccc21

>  <Energy>  (24) 
67.90151565095671

>  <Genealogy>  (24) 
[NH-]C(=O)Cn1cc(CNCCc2ccc(F)cc2)c2ccccc21 (protonated)
[NH-]C(=O)Cn1cc(CNCCc2ccc(F)cc2)c2ccccc21 (3D coordinates assigned)
[NH-]C(=O)Cn1cc(CNCCc2ccc(F)cc2)c2ccccc21 (optimized conformer: 67.90151565095671 kcal/mol)

>  <smiles>  (24) 
NC(=O)Cn1cc(CNCCc2ccc(F)cc2)c2ccccc21

>  <score_type>  (24) 
oracle

>  <origin>  (24) 
adg

>  <m_score__min__energy>  (24) 
-11.199999999999999

>  <m_primary>  (24) 
energy

$$$$
24:0
     RDKit          3D

 62 64  0  0  0  0  0  0  0  0999 V2000
   -5.7300   25.5260  -30.4670 C   0  0  0  0  0  0  0  0  0  0  0  0
   -5.7630   24.1820  -29.7330 C   0  0  0  0  0  0  0  0  0  0  0  0
   -4.4290   23.7760  -29.2530 N   0  0  0  0  0  0  0  0  0  0  0  0
   -4.1920   24.1200  -27.8320 C   0  0  0  0  0  0  0  0  0  0  0  0
   -2.7510   24.5740  -27.5740 C   0  0  0  0  0  0  0  0  0  0  0  0
   -2.1250   24.8730  -28.8040 O   0  0  0  0  0  0  0  0  0  0  0  0
   -0.8340   24.3020  -28.8400 C   0  0  0  0  0  0  0  0  0  0  0  0
   -0.8550   23.0500  -29.7250 C   0  0  0  0  0  0  0  0  0  0  0  0
   -2.2220   22.5860  -30.0030 N   0  0  0  0  0  0  0  0  0  0  0  0
   -2.2720   21.1450  -30.2970 C   0  0  0  0  0  0  0  0  0  0  0  0
   -3.4720   20.7960  -31.1940 C   0  0  0  0  0  0  0  0  0  0  0  0
   -3.2490   21.1200  -32.6800 C   0  0  0  0  0  0  0  0  0  0  0  0
   -4.5170   21.3260  -33.3830 N   0  0  0  0  0  0  0  0  0  0  0  0
   -5.6990   20.5550  -33.0920 C   0  0  0  0  0  0  0  0  0  0  0  0
   -5.7580   19.1850  -33.4130 C   0  0  0  0  0  0  0  0  0  0  0  0
   -4.7490   18.5750  -34.1900 C   0  0  0  0  0  0  0  0  0  0  0  0
   -4.8240   17.2250  -34.5270 C   0  0  0  0  0  0  0  0  0  0  0  0
   -5.9070   16.4640  -34.1080 C   0  0  0  0  0  0  0  0  0  0  0  0
   -6.9280   17.0490  -33.3610 C   0  0  0  0  0  0  0  0  0  0  0  0
   -6.8800   18.4200  -32.9970 C   0  0  0  0  0  0  0  0  0  0  0  0
   -7.9100   19.0190  -32.2960 N   0  0  0  0  0  0  0  0  0  0  0  0
   -8.9390   18.1810  -31.6410 C   0  0  0  0  0  0  0  0  0  0  0  0
   -7.9690   20.3970  -32.2040 C   0  0  0  0  0  0  0  0  0  0  0  0
   -9.1480   21.0670  -31.7870 C   0  0  0  0  0  0  0  0  0  0  0  0
   -9.1790   22.4530  -31.6540 C   0  0  0  0  0  0  0  0  0  0  0  0
   -8.0420   23.2080  -31.9240 C   0  0  0  0  0  0  0  0  0  0  0  0
   -6.8820   22.5830  -32.3730 C   0  0  0  0  0  0  0  0  0  0  0  0
   -6.8400   21.1840  -32.5570 C   0  0  0  0  0  0  0  0  0  0  0  0
   -5.7099   26.3445  -29.7324 H   0  0  0  0  0  0  0  0  0  0  0  0
   -4.8303   25.5773  -31.0978 H   0  0  0  0  0  0  0  0  0  0  0  0
   -6.6261   25.6214  -31.0978 H   0  0  0  0  0  0  0  0  0  0  0  0
   -6.4394   24.2665  -28.8697 H   0  0  0  0  0  0  0  0  0  0  0  0
   -6.1131   23.4182  -30.4430 H   0  0  0  0  0  0  0  0  0  0  0  0
   -4.3680   22.7360  -29.3520 H   0  0  0  0  0  0  0  0  0  0  0  0
   -3.6970   24.1800  -29.8810 H   0  0  0  0  0  0  0  0  0  0  0  0
   -4.8753   24.9335  -27.5466 H   0  0  0  0  0  0  0  0  0  0  0  0
   -4.3711   23.2149  -27.2331 H   0  0  0  0  0  0  0  0  0  0  0  0
   -2.7575   25.4715  -26.9380 H   0  0  0  0  0  0  0  0  0  0  0  0
   -2.1981   23.7696  -27.0668 H   0  0  0  0  0  0  0  0  0  0  0  0
   -0.1216   25.0313  -29.2529 H   0  0  0  0  0  0  0  0  0  0  0  0
   -0.5258   24.0262  -27.8207 H   0  0  0  0  0  0  0  0  0  0  0  0
   -0.3596   23.2829  -30.6791 H   0  0  0  0  0  0  0  0  0  0  0  0
   -0.3306   22.2477  -29.1854 H   0  0  0  0  0  0  0  0  0  0  0  0
   -2.7780   22.7560  -29.1320 H   0  0  0  0  0  0  0  0  0  0  0  0
   -1.3443   20.8522  -30.8105 H   0  0  0  0  0  0  0  0  0  0  0  0
   -2.3807   20.6016  -29.3468 H   0  0  0  0  0  0  0  0  0  0  0  0
   -3.6738   19.7187  -31.1001 H   0  0  0  0  0  0  0  0  0  0  0  0
   -4.3169   21.4130  -30.8542 H   0  0  0  0  0  0  0  0  0  0  0  0
   -2.6443   22.0355  -32.7589 H   0  0  0  0  0  0  0  0  0  0  0  0
   -2.7328   20.2669  -33.1444 H   0  0  0  0  0  0  0  0  0  0  0  0
   -4.5890   22.1330  -34.0440 H   0  0  0  0  0  0  0  0  0  0  0  0
   -3.8924   19.1734  -34.5338 H   0  0  0  0  0  0  0  0  0  0  0  0
   -4.0251   16.7622  -35.1250 H   0  0  0  0  0  0  0  0  0  0  0  0
   -5.9594   15.3961  -34.3664 H   0  0  0  0  0  0  0  0  0  0  0  0
   -7.7867   16.4369  -33.0478 H   0  0  0  0  0  0  0  0  0  0  0  0
   -8.8380   18.2632  -30.5487 H   0  0  0  0  0  0  0  0  0  0  0  0
   -9.9391   18.5249  -31.9437 H   0  0  0  0  0  0  0  0  0  0  0  0
   -8.8048   17.1320  -31.9437 H   0  0  0  0  0  0  0  0  0  0  0  0
  -10.0527   20.4820  -31.5650 H   0  0  0  0  0  0  0  0  0  0  0  0
  -10.1055   22.9524  -31.3344 H   0  0  0  0  0  0  0  0  0  0  0  0
   -8.0597   24.2987  -31.7827 H   0  0  0  0  0  0  0  0  0  0  0  0
   -5.9875   23.1864  -32.5870 H   0  0  0  0  0  0  0  0  0  0  0  0
  1  2  1  0
  2  3  1  0
  3  4  1  0
  4  5  1  0
  5  6  1  0
  6  7  1  0
  7  8  1  0
  8  9  1  0
  9 10  1  0
 10 11  1  0
 11 12  1  0
 12 13  1  0
 13 14  1  0
 14 15  2  0
 15 16  1  0
 16 17  2  0
 17 18  1  0
 18 19  2  0
 19 20  1  0
 20 21  2  0
 21 22  1  0
 21 23  1  0
 23 24  2  0
 24 25  1  0
 25 26  2  0
 26 27  1  0
 27 28  2  0
 28 14  1  0
 20 15  1  0
 28 23  1  0
  1 29  1  0
  1 30  1  0
  1 31  1  0
  2 32  1  0
  2 33  1  0
  3 34  1  0
  3 35  1  0
  4 36  1  0
  4 37  1  0
  5 38  1  0
  5 39  1  0
  7 40  1  0
  7 41  1  0
  8 42  1  0
  8 43  1  0
  9 44  1  0
 10 45  1  0
 10 46  1  0
 11 47  1  0
 11 48  1  0
 12 49  1  0
 12 50  1  0
 13 51  1  0
 16 52  1  0
 17 53  1  0
 18 54  1  0
 19 55  1  0
 22 56  1  0
 22 57  1  0
 22 58  1  0
 24 59  1  0
 25 60  1  0
 26 61  1  0
 27 62  1  0
M  CHG  2   3   1  21   1
M  END
>  <UniqueID>  (25) 
25

>  <SMILES>  (25) 
CC[NH2+]CCOCCNCCCNc1c2ccccc2[n+](C)c2ccccc12

>  <Energy>  (25) 
79.75786472856876

>  <Genealogy>  (25) 
CC[NH2+]CCOCCNCCCNc1c2ccccc2[n+](C)c2ccccc12 (protonated)
CC[NH2+]CCOCCNCCCNc1c2ccccc2[n+](C)c2ccccc12 (3D coordinates assigned)
CC[NH2+]CCOCCNCCCNc1c2ccccc2[n+](C)c2ccccc12 (optimized conformer: 79.75786472856876 kcal/mol)

>  <smiles>  (25) 
CCNCCOCCNCCCNc1c2ccccc2[n+](C)c2ccccc12

>  <score_type>  (25) 
oracle

>  <origin>  (25) 
adg

>  <m_score__min__energy>  (25) 
-9.5800000000000001

>  <m_primary>  (25) 
energy

$$$$
25:0
     RDKit          3D

 58 60  0  0  0  0  0  0  0  0999 V2000
   -0.8470   22.3730  -30.0570 C   0  0  0  0  0  0  0  0  0  0  0  0
   -1.3420   21.3090  -31.0320 C   0  0  0  0  0  0  0  0  0  0  0  0
   -0.4100   21.1970  -32.2460 C   0  0  0  0  0  0  0  0  0  0  0  0
   -1.1770   21.0340  -33.5700 C   0  0  0  0  0  0  0  0  0  0  0  0
   -2.6680   21.4140  -33.4910 C   0  0  0  0  0  0  0  0  0  0  0  0
   -3.5610   20.2600  -33.0540 C   0  0  0  0  0  0  0  0  0  0  0  0
   -3.1340   18.9650  -33.3880 C   0  0  0  0  0  0  0  0  0  0  0  0
   -3.9840   17.8770  -33.2540 C   0  0  0  0  0  0  0  0  0  0  0  0
   -5.2870   18.0550  -32.8070 C   0  0  0  0  0  0  0  0  0  0  0  0
   -5.7580   19.3320  -32.4220 C   0  0  0  0  0  0  0  0  0  0  0  0
   -4.8690   20.4410  -32.5000 C   0  0  0  0  0  0  0  0  0  0  0  0
   -5.3230   21.6920  -32.0300 C   0  0  0  0  0  0  0  0  0  0  0  0
   -4.4030   22.5000  -31.2520 N   0  0  0  0  0  0  0  0  0  0  0  0
   -4.3770   22.6460  -29.7940 C   0  0  0  0  0  0  0  0  0  0  0  0
   -3.8900   24.0350  -29.3610 C   0  0  0  0  0  0  0  0  0  0  0  0
   -3.7600   24.9250  -30.5220 N   0  0  0  0  0  0  0  0  0  0  0  0
   -5.0390   25.5880  -30.8040 C   0  0  0  0  0  0  0  0  0  0  0  0
   -6.0050   25.3800  -29.6440 C   0  0  0  0  0  0  0  0  0  0  0  0
   -6.7200   21.9160  -32.0140 C   0  0  0  0  0  0  0  0  0  0  0  0
   -7.2810   23.2070  -32.1020 C   0  0  0  0  0  0  0  0  0  0  0  0
   -8.6610   23.3950  -32.0560 C   0  0  0  0  0  0  0  0  0  0  0  0
   -9.5100   22.3010  -31.9630 C   0  0  0  0  0  0  0  0  0  0  0  0
   -8.9860   21.0100  -31.9420 C   0  0  0  0  0  0  0  0  0  0  0  0
   -7.5870   20.7910  -31.9750 C   0  0  0  0  0  0  0  0  0  0  0  0
   -7.0570   19.5170  -31.9930 N   0  0  0  0  0  0  0  0  0  0  0  0
   -7.8890   18.3600  -31.6030 C   0  0  0  0  0  0  0  0  0  0  0  0
   -1.0076   22.0278  -29.0250 H   0  0  0  0  0  0  0  0  0  0  0  0
    0.2261   22.5503  -30.2215 H   0  0  0  0  0  0  0  0  0  0  0  0
   -1.4026   23.3080  -30.2215 H   0  0  0  0  0  0  0  0  0  0  0  0
   -1.3787   20.3381  -30.5163 H   0  0  0  0  0  0  0  0  0  0  0  0
   -2.3432   21.5968  -31.3851 H   0  0  0  0  0  0  0  0  0  0  0  0
    0.2031   22.1084  -32.3043 H   0  0  0  0  0  0  0  0  0  0  0  0
    0.2093   20.2985  -32.1078 H   0  0  0  0  0  0  0  0  0  0  0  0
   -0.6983   21.6735  -34.3262 H   0  0  0  0  0  0  0  0  0  0  0  0
   -1.1380   19.9651  -33.8266 H   0  0  0  0  0  0  0  0  0  0  0  0
   -2.7811   22.2360  -32.7688 H   0  0  0  0  0  0  0  0  0  0  0  0
   -2.9842   21.7056  -34.5034 H   0  0  0  0  0  0  0  0  0  0  0  0
   -2.1108   18.8109  -33.7613 H   0  0  0  0  0  0  0  0  0  0  0  0
   -3.6242   16.8678  -33.5031 H   0  0  0  0  0  0  0  0  0  0  0  0
   -5.9633   17.1892  -32.7515 H   0  0  0  0  0  0  0  0  0  0  0  0
   -3.6240   22.9460  -31.7880 H   0  0  0  0  0  0  0  0  0  0  0  0
   -5.3934   22.4891  -29.4038 H   0  0  0  0  0  0  0  0  0  0  0  0
   -3.6751   21.9007  -29.3917 H   0  0  0  0  0  0  0  0  0  0  0  0
   -4.6135   24.4671  -28.6541 H   0  0  0  0  0  0  0  0  0  0  0  0
   -2.9047   23.9311  -28.8831 H   0  0  0  0  0  0  0  0  0  0  0  0
   -3.0730   25.6730  -30.2740 H   0  0  0  0  0  0  0  0  0  0  0  0
   -4.8668   26.6652  -30.9451 H   0  0  0  0  0  0  0  0  0  0  0  0
   -5.4747   25.1553  -31.7167 H   0  0  0  0  0  0  0  0  0  0  0  0
   -5.4656   25.4961  -28.6924 H   0  0  0  0  0  0  0  0  0  0  0  0
   -6.8124   26.1249  -29.7011 H   0  0  0  0  0  0  0  0  0  0  0  0
   -6.4343   24.3688  -29.7011 H   0  0  0  0  0  0  0  0  0  0  0  0
   -6.6190   24.0790  -32.2086 H   0  0  0  0  0  0  0  0  0  0  0  0
   -9.0781   24.4121  -32.0935 H   0  0  0  0  0  0  0  0  0  0  0  0
  -10.5979   22.4533  -31.9058 H   0  0  0  0  0  0  0  0  0  0  0  0
   -9.6687   20.1485  -31.8992 H   0  0  0  0  0  0  0  0  0  0  0  0
   -7.9357   18.2951  -30.5059 H   0  0  0  0  0  0  0  0  0  0  0  0
   -8.9046   18.4861  -32.0064 H   0  0  0  0  0  0  0  0  0  0  0  0
   -7.4462   17.4374  -32.0064 H   0  0  0  0  0  0  0  0  0  0  0  0
  1  2  1  0
  2  3  1  0
  3  4  1  0
  4  5  1  0
  5  6  1  0
  6  7  2  0
  7  8  1  0
  8  9  2  0
  9 10  1  0
 10 11  2  0
 11 12  1  0
 12 13  1  0
 13 14  1  0
 14 15  1  0
 15 16  1  0
 16 17  1  0
 17 18  1  0
 12 19  2  0
 19 20  1  0
 20 21  2  0
 21 22  1  0
 22 23  2  0
 23 24  1  0
 24 25  2  0
 25 26  1  0
 11  6  1  0
 24 19  1  0
 25 10  1  0
  1 27  1  0
  1 28  1  0
  1 29  1  0
  2 30  1  0
  2 31  1  0
  3 32  1  0
  3 33  1  0
  4 34  1  0
  4 35  1  0
  5 36  1  0
  5 37  1  0
  7 38  1  0
  8 39  1  0
  9 40  1  0
 13 41  1  0
 14 42  1  0
 14 43  1  0
 15 44  1  0
 15 45  1  0
 16 46  1  0
 17 47  1  0
 17 48  1  0
 18 49  1  0
 18 50  1  0
 18 51  1  0
 20 52  1  0
 21 53  1  0
 22 54  1  0
 23 55  1  0
 26 56  1  0
 26 57  1  0
 26 58  1  0
M  CHG  1  25   1
M  END
>  <UniqueID>  (26) 
26

>  <SMILES>  (26) 
CCCCCc1cccc2c1c(NCCNCC)c1ccccc1[n+]2C

>  <Energy>  (26) 
91.92595819160218

>  <Genealogy>  (26) 
CCCCCc1cccc2c1c(NCCNCC)c1ccccc1[n+]2C (3D coordinates assigned)
CCCCCc1cccc2c1c(NCCNCC)c1ccccc1[n+]2C (optimized conformer: 91.92595819160218 kcal/mol)

>  <smiles>  (26) 
CCCCCc1cccc2c1c(NCCNCC)c1ccccc1[n+]2C

>  <score_type>  (26) 
oracle

>  <origin>  (26) 
adg

>  <m_score__min__energy>  (26) 
-8.3800000000000008

>  <m_primary>  (26) 
energy

$$$$
26:0
     RDKit          3D

 54 58  0  0  0  0  0  0  0  0999 V2000
   -2.1500   21.5520  -30.4280 C   0  0  0  0  0  0  0  0  0  0  0  0
   -3.1170   21.8270  -31.4900 N   0  0  0  0  0  0  0  0  0  0  0  0
   -4.0890   22.7610  -31.4940 C   0  0  0  0  0  0  0  0  0  0  0  0
   -4.4270   23.8990  -30.1470 S   0  0  0  0  0  0  0  0  0  0  0  0
   -6.0730   23.2010  -29.7560 C   0  0  0  0  0  0  0  0  0  0  0  0
   -7.2050   23.8970  -30.5270 C   0  0  0  0  0  0  0  0  0  0  0  0
   -7.6830   23.1280  -31.7750 C   0  0  0  0  0  0  0  0  0  0  0  0
   -8.0600   21.7380  -31.4420 N   0  0  0  0  0  0  0  0  0  0  0  0
   -9.1720   21.2250  -32.2600 C   0  0  0  0  0  0  0  0  0  0  0  0
   -8.9460   19.7380  -32.4850 C   0  0  2  0  0  0  0  0  0  0  0  0
   -8.6750   18.8920  -31.2470 C   0  0  0  0  0  0  0  0  0  0  0  0
   -7.5220   19.4720  -32.0610 C   0  0  1  0  0  0  0  0  0  0  0  0
   -6.7410   18.5500  -32.9610 C   0  0  0  0  0  0  0  0  0  0  0  0
   -6.1060   19.0440  -34.1130 C   0  0  0  0  0  0  0  0  0  0  0  0
   -5.3550   18.1870  -34.9240 C   0  0  0  0  0  0  0  0  0  0  0  0
   -5.2220   16.8380  -34.5840 C   0  0  0  0  0  0  0  0  0  0  0  0
   -5.8350   16.3440  -33.4280 C   0  0  0  0  0  0  0  0  0  0  0  0
   -5.6970   15.0370  -33.0940 F   0  0  0  0  0  0  0  0  0  0  0  0
   -6.5860   17.1980  -32.6150 C   0  0  0  0  0  0  0  0  0  0  0  0
   -6.9370   20.8100  -31.6410 C   0  0  0  0  0  0  0  0  0  0  0  0
   -4.7710   22.7620  -32.6530 N   0  0  0  0  0  0  0  0  0  0  0  0
   -4.2490   21.8070  -33.4080 N   0  0  0  0  0  0  0  0  0  0  0  0
   -3.2580   21.2320  -32.6960 C   0  0  0  0  0  0  0  0  0  0  0  0
   -2.4420   20.1140  -33.2160 C   0  0  0  0  0  0  0  0  0  0  0  0
   -2.7850   18.7760  -32.9480 C   0  0  0  0  0  0  0  0  0  0  0  0
   -2.0080   17.7330  -33.4620 C   0  0  0  0  0  0  0  0  0  0  0  0
   -0.8940   18.0150  -34.2560 C   0  0  0  0  0  0  0  0  0  0  0  0
   -0.5600   19.3400  -34.5480 C   0  0  0  0  0  0  0  0  0  0  0  0
   -1.3340   20.3850  -34.0360 C   0  0  0  0  0  0  0  0  0  0  0  0
   -2.6320   21.6891  -29.4488 H   0  0  0  0  0  0  0  0  0  0  0  0
   -1.7910   20.5161  -30.5182 H   0  0  0  0  0  0  0  0  0  0  0  0
   -1.2997   22.2439  -30.5182 H   0  0  0  0  0  0  0  0  0  0  0  0
   -6.0739   22.1323  -30.0163 H   0  0  0  0  0  0  0  0  0  0  0  0
   -6.2553   23.3557  -28.6823 H   0  0  0  0  0  0  0  0  0  0  0  0
   -8.0614   24.0190  -29.8475 H   0  0  0  0  0  0  0  0  0  0  0  0
   -6.8031   24.8577  -30.8813 H   0  0  0  0  0  0  0  0  0  0  0  0
   -8.5569   23.6436  -32.1999 H   0  0  0  0  0  0  0  0  0  0  0  0
   -6.8563   23.0977  -32.5000 H   0  0  0  0  0  0  0  0  0  0  0  0
  -10.1252   21.3819  -31.7339 H   0  0  0  0  0  0  0  0  0  0  0  0
   -9.2124   21.7544  -33.2234 H   0  0  0  0  0  0  0  0  0  0  0  0
   -9.6163   19.5682  -33.3405 H   0  0  0  0  0  0  0  0  0  0  0  0
   -8.8993   19.2903  -30.2465 H   0  0  0  0  0  0  0  0  0  0  0  0
   -8.9648   17.8862  -30.9087 H   0  0  0  0  0  0  0  0  0  0  0  0
   -6.1998   20.1075  -34.3777 H   0  0  0  0  0  0  0  0  0  0  0  0
   -4.8683   18.5754  -35.8308 H   0  0  0  0  0  0  0  0  0  0  0  0
   -4.6350   16.1645  -35.2258 H   0  0  0  0  0  0  0  0  0  0  0  0
   -7.0575   16.8092  -31.7004 H   0  0  0  0  0  0  0  0  0  0  0  0
   -6.3728   20.6960  -30.7036 H   0  0  0  0  0  0  0  0  0  0  0  0
   -6.2493   21.1918  -32.4100 H   0  0  0  0  0  0  0  0  0  0  0  0
   -3.6676   18.5495  -32.3319 H   0  0  0  0  0  0  0  0  0  0  0  0
   -2.2745   16.6890  -33.2407 H   0  0  0  0  0  0  0  0  0  0  0  0
   -0.2791   17.1933  -34.6518 H   0  0  0  0  0  0  0  0  0  0  0  0
    0.3122   19.5606  -35.1809 H   0  0  0  0  0  0  0  0  0  0  0  0
   -1.0739   21.4264  -34.2766 H   0  0  0  0  0  0  0  0  0  0  0  0
  1  2  1  0
  2  3  1  0
  3  4  1  0
  4  5  1  0
  5  6  1  0
  6  7  1  0
  7  8  1  0
  8  9  1  0
  9 10  1  0
 10 11  1  0
 11 12  1  0
 12 13  1  6
 13 14  2  0
 14 15  1  0
 15 16  2  0
 16 17  1  0
 17 18  1  0
 17 19  2  0
 12 20  1  0
  3 21  2  0
 21 22  1  0
 22 23  2  0
 23 24  1  0
 24 25  2  0
 25 26  1  0
 26 27  2  0
 27 28  1  0
 28 29  2  0
 23  2  1  0
 29 24  1  0
 20  8  1  0
 12 10  1  0
 19 13  1  0
  1 30  1  0
  1 31  1  0
  1 32  1  0
  5 33  1  0
  5 34  1  0
  6 35  1  0
  6 36  1  0
  7 37  1  0
  7 38  1  0
  9 39  1  0
  9 40  1  0
 10 41  1  6
 11 42  1  0
 11 43  1  0
 14 44  1  0
 15 45  1  0
 16 46  1  0
 19 47  1  0
 20 48  1  0
 20 49  1  0
 25 50  1  0
 26 51  1  0
 27 52  1  0
 28 53  1  0
 29 54  1  0
M  END
>  <UniqueID>  (27) 
27

>  <SMILES>  (27) 
Cn1c(SCCCN2C[C@@H]3C[C@]3(c3cccc(F)c3)C2)nnc1-c1ccccc1

>  <Energy>  (27) 
364.76369971769316

>  <Genealogy>  (27) 
Cn1c(SCCCN2C[C@@H]3C[C@]3(c3cccc(F)c3)C2)nnc1-c1ccccc1 (chirality)
Cn1c(SCCCN2C[C@@H]3C[C@]3(c3cccc(F)c3)C2)nnc1-c1ccccc1 (3D coordinates assigned)
Cn1c(SCCCN2C[C@@H]3C[C@]3(c3cccc(F)c3)C2)nnc1-c1ccccc1 (nonaromatic ring conformer: 364.76369971769316 kcal/mol)

>  <smiles>  (27) 
Cn1c(SCCCN2CC3CC3(c3cccc(F)c3)C2)nnc1-c1ccccc1

>  <score_type>  (27) 
oracle

>  <origin>  (27) 
adg

>  <m_score__min__energy>  (27) 
-10.300000000000001

>  <m_primary>  (27) 
energy

$$$$
27:0
     RDKit          3D

 37 38  0  0  0  0  0  0  0  0999 V2000
   -9.1530   18.2590  -31.5870 C   0  0  0  0  0  0  0  0  0  0  0  0
   -7.9420   18.3620  -32.4010 C   0  0  0  0  0  0  0  0  0  0  0  0
   -6.9430   18.4490  -33.0680 C   0  0  0  0  0  0  0  0  0  0  0  0
   -5.7280   18.5440  -33.8850 C   0  0  0  0  0  0  0  0  0  0  0  0
   -5.3840   19.9100  -34.1070 O   0  0  0  0  0  0  0  0  0  0  0  0
   -5.2180   20.8790  -33.1020 C   0  0  0  0  0  0  0  0  0  0  0  0
   -6.3070   21.4680  -32.4300 C   0  0  0  0  0  0  0  0  0  0  0  0
   -6.0890   22.4390  -31.4490 C   0  0  0  0  0  0  0  0  0  0  0  0
   -4.7860   22.8380  -31.1280 C   0  0  0  0  0  0  0  0  0  0  0  0
   -4.5160   24.0910  -29.9160 S   0  0  0  0  0  0  0  0  0  0  0  0
   -3.8720   25.2760  -30.5790 O   0  0  0  0  0  0  0  0  0  0  0  0
   -5.8420   24.5400  -29.3660 O   0  0  0  0  0  0  0  0  0  0  0  0
   -3.4980   23.5460  -28.5980 N   0  0  0  0  0  0  0  0  0  0  0  0
   -2.1960   23.0310  -29.0640 C   0  0  0  0  0  0  0  0  0  0  0  0
   -1.1590   24.1490  -29.3260 C   0  0  0  0  0  0  0  0  0  0  0  0
   -1.5780   25.4200  -28.8680 O   0  0  0  0  0  0  0  0  0  0  0  0
   -2.0530   25.3160  -27.5470 C   0  0  0  0  0  0  0  0  0  0  0  0
   -3.3830   24.5430  -27.5120 C   0  0  0  0  0  0  0  0  0  0  0  0
   -3.7000   22.2410  -31.7820 C   0  0  0  0  0  0  0  0  0  0  0  0
   -3.9160   21.2690  -32.7630 C   0  0  0  0  0  0  0  0  0  0  0  0
   -2.8540   20.7120  -33.3960 F   0  0  0  0  0  0  0  0  0  0  0  0
   -8.8815   18.2821  -30.5213 H   0  0  0  0  0  0  0  0  0  0  0  0
   -9.8202   19.1036  -31.8138 H   0  0  0  0  0  0  0  0  0  0  0  0
   -9.6680   17.3138  -31.8138 H   0  0  0  0  0  0  0  0  0  0  0  0
   -4.9001   18.0419  -33.3631 H   0  0  0  0  0  0  0  0  0  0  0  0
   -5.9118   18.0600  -34.8555 H   0  0  0  0  0  0  0  0  0  0  0  0
   -7.3339   21.1621  -32.6787 H   0  0  0  0  0  0  0  0  0  0  0  0
   -6.9448   22.8918  -30.9268 H   0  0  0  0  0  0  0  0  0  0  0  0
   -1.7932   22.3527  -28.2974 H   0  0  0  0  0  0  0  0  0  0  0  0
   -2.3706   22.5154  -30.0198 H   0  0  0  0  0  0  0  0  0  0  0  0
   -0.2229   23.8841  -28.8125 H   0  0  0  0  0  0  0  0  0  0  0  0
   -1.0279   24.2226  -30.4157 H   0  0  0  0  0  0  0  0  0  0  0  0
   -1.3090   24.7843  -26.9356 H   0  0  0  0  0  0  0  0  0  0  0  0
   -2.2187   26.3275  -27.1478 H   0  0  0  0  0  0  0  0  0  0  0  0
   -3.4603   24.0211  -26.5468 H   0  0  0  0  0  0  0  0  0  0  0  0
   -4.1934   25.2742  -27.6481 H   0  0  0  0  0  0  0  0  0  0  0  0
   -2.6733   22.5385  -31.5223 H   0  0  0  0  0  0  0  0  0  0  0  0
  1  2  1  0
  2  3  3  0
  3  4  1  0
  4  5  1  0
  5  6  1  0
  6  7  2  0
  7  8  1  0
  8  9  2  0
  9 10  1  0
 10 11  2  0
 10 12  2  0
 10 13  1  0
 13 14  1  0
 14 15  1  0
 15 16  1  0
 16 17  1  0
 17 18  1  0
  9 19  1  0
 19 20  2  0
 20 21  1  0
 20  6  1  0
 18 13  1  0
  1 22  1  0
  1 23  1  0
  1 24  1  0
  4 25  1  0
  4 26  1  0
  7 27  1  0
  8 28  1  0
 14 29  1  0
 14 30  1  0
 15 31  1  0
 15 32  1  0
 17 33  1  0
 17 34  1  0
 18 35  1  0
 18 36  1  0
 19 37  1  0
M  END
>  <UniqueID>  (28) 
28

>  <SMILES>  (28) 
CC#CCOc1ccc(S(=O)(=O)N2CCOCC2)cc1F

>  <Energy>  (28) 
41.161902786054014

>  <Genealogy>  (28) 
CC#CCOc1ccc(S(=O)(=O)N2CCOCC2)cc1F (3D coordinates assigned)
CC#CCOc1ccc(S(=O)(=O)N2CCOCC2)cc1F (nonaromatic ring conformer: 41.161902786054014 kcal/mol)

>  <smiles>  (28) 
CC#CCOc1ccc(S(=O)(=O)N2CCOCC2)cc1F

>  <score_type>  (28) 
oracle

>  <origin>  (28) 
adg

>  <m_score__min__energy>  (28) 
-7.7000000000000002

>  <m_primary>  (28) 
energy

$$$$
28:0
     RDKit          3D

 53 54  0  0  0  0  0  0  0  0999 V2000
   -2.7160   20.1360  -27.6130 C   0  0  0  0  0  0  0  0  0  0  0  0
   -1.9980   21.4040  -28.0730 C   0  0  0  0  0  0  0  0  0  0  0  0
   -2.4990   21.8770  -29.3830 N   0  0  0  0  0  0  0  0  0  0  0  0
   -3.0050   20.7730  -30.2320 C   0  0  0  0  0  0  0  0  0  0  0  0
   -2.2600   20.7720  -31.5610 C   0  0  0  0  0  0  0  0  0  0  0  0
   -1.5840   22.7880  -30.1180 C   0  0  0  0  0  0  0  0  0  0  0  0
   -1.1960   24.0640  -29.3450 C   0  0  0  0  0  0  0  0  0  0  0  0
   -2.3220   24.9060  -29.2310 O   0  0  0  0  0  0  0  0  0  0  0  0
   -3.0770   24.5480  -28.0930 C   0  0  0  0  0  0  0  0  0  0  0  0
   -4.5480   24.4220  -28.4880 C   0  0  0  0  0  0  0  0  0  0  0  0
   -4.7210   23.4520  -29.5710 N   0  0  0  0  0  0  0  0  0  0  0  0
   -4.9390   23.8690  -30.9240 C   0  0  0  0  0  0  0  0  0  0  0  0
   -4.9460   25.0970  -31.2160 O   0  0  0  0  0  0  0  0  0  0  0  0
   -5.1530   22.8540  -32.0080 C   0  0  0  0  0  0  0  0  0  0  0  0
   -6.5970   22.4290  -32.0560 C   0  0  0  0  0  0  0  0  0  0  0  0
   -7.6230   23.3950  -31.9650 C   0  0  0  0  0  0  0  0  0  0  0  0
   -8.9800   23.0120  -31.9680 C   0  0  0  0  0  0  0  0  0  0  0  0
   -9.3360   21.6580  -32.0500 C   0  0  0  0  0  0  0  0  0  0  0  0
   -8.3150   20.7140  -32.1250 C   0  0  0  0  0  0  0  0  0  0  0  0
   -6.9820   21.0790  -32.1280 C   0  0  0  0  0  0  0  0  0  0  0  0
   -6.2020   19.8360  -32.2090 C   0  0  0  0  0  0  0  0  0  0  0  0
   -4.9490   19.7520  -32.2980 O   0  0  0  0  0  0  0  0  0  0  0  0
   -7.0730   18.7020  -32.2130 N   0  0  0  0  0  0  0  0  0  0  0  0
   -6.7190   17.3500  -32.6290 C   0  0  0  0  0  0  0  0  0  0  0  0
   -8.3870   19.2590  -32.2000 C   0  0  0  0  0  0  0  0  0  0  0  0
   -9.4460   18.5790  -32.2670 O   0  0  0  0  0  0  0  0  0  0  0  0
   -2.7345   20.1034  -26.5136 H   0  0  0  0  0  0  0  0  0  0  0  0
   -3.7468   20.1384  -27.9971 H   0  0  0  0  0  0  0  0  0  0  0  0
   -2.1837   19.2533  -27.9971 H   0  0  0  0  0  0  0  0  0  0  0  0
   -2.1574   22.1944  -27.3247 H   0  0  0  0  0  0  0  0  0  0  0  0
   -0.9285   21.1703  -28.1810 H   0  0  0  0  0  0  0  0  0  0  0  0
   -2.8430   19.8129  -29.7201 H   0  0  0  0  0  0  0  0  0  0  0  0
   -4.0805   20.9142  -30.4146 H   0  0  0  0  0  0  0  0  0  0  0  0
   -1.1761   20.7705  -31.3737 H   0  0  0  0  0  0  0  0  0  0  0  0
   -2.5342   19.8742  -32.1344 H   0  0  0  0  0  0  0  0  0  0  0  0
   -2.5318   21.6705  -32.1344 H   0  0  0  0  0  0  0  0  0  0  0  0
   -0.6627   22.2344  -30.3518 H   0  0  0  0  0  0  0  0  0  0  0  0
   -2.1265   23.1188  -31.0159 H   0  0  0  0  0  0  0  0  0  0  0  0
   -0.8398   23.7903  -28.3409 H   0  0  0  0  0  0  0  0  0  0  0  0
   -0.3971   24.5918  -29.8865 H   0  0  0  0  0  0  0  0  0  0  0  0
   -2.7174   23.5855  -27.7002 H   0  0  0  0  0  0  0  0  0  0  0  0
   -2.9665   25.3199  -27.3172 H   0  0  0  0  0  0  0  0  0  0  0  0
   -5.1279   24.0916  -27.6136 H   0  0  0  0  0  0  0  0  0  0  0  0
   -4.9015   25.4032  -28.8376 H   0  0  0  0  0  0  0  0  0  0  0  0
   -4.6800   22.4300  -29.3630 H   0  0  0  0  0  0  0  0  0  0  0  0
   -4.8730   23.2943  -32.9764 H   0  0  0  0  0  0  0  0  0  0  0  0
   -4.5298   21.9724  -31.7975 H   0  0  0  0  0  0  0  0  0  0  0  0
   -7.3601   24.4605  -31.8908 H   0  0  0  0  0  0  0  0  0  0  0  0
   -9.7647   23.7804  -31.9056 H   0  0  0  0  0  0  0  0  0  0  0  0
  -10.3921   21.3503  -32.0549 H   0  0  0  0  0  0  0  0  0  0  0  0
   -6.5550   16.7238  -31.7396 H   0  0  0  0  0  0  0  0  0  0  0  0
   -7.5363   16.9256  -33.2306 H   0  0  0  0  0  0  0  0  0  0  0  0
   -5.7986   17.3806  -33.2306 H   0  0  0  0  0  0  0  0  0  0  0  0
  1  2  1  0
  2  3  1  0
  3  4  1  0
  4  5  1  0
  3  6  1  0
  6  7  1  0
  7  8  1  0
  8  9  1  0
  9 10  1  0
 10 11  1  0
 11 12  1  0
 12 13  2  0
 12 14  1  0
 14 15  1  0
 15 16  2  0
 16 17  1  0
 17 18  2  0
 18 19  1  0
 19 20  2  0
 20 21  1  0
 21 22  2  0
 21 23  1  0
 23 24  1  0
 23 25  1  0
 25 26  2  0
 20 15  1  0
 25 19  1  0
  1 27  1  0
  1 28  1  0
  1 29  1  0
  2 30  1  0
  2 31  1  0
  4 32  1  0
  4 33  1  0
  5 34  1  0
  5 35  1  0
  5 36  1  0
  6 37  1  0
  6 38  1  0
  7 39  1  0
  7 40  1  0
  9 41  1  0
  9 42  1  0
 10 43  1  0
 10 44  1  0
 11 45  1  0
 14 46  1  0
 14 47  1  0
 16 48  1  0
 17 49  1  0
 18 50  1  0
 24 51  1  0
 24 52  1  0
 24 53  1  0
M  END
>  <UniqueID>  (29) 
29

>  <SMILES>  (29) 
CCN(CC)CCOCCNC(=O)Cc1cccc2c1C(=O)N(C)C2=O

>  <Energy>  (29) 
79.0021250886378

>  <Genealogy>  (29) 
CCN(CC)CCOCCNC(=O)Cc1cccc2c1C(=O)N(C)C2=O (3D coordinates assigned)
CCN(CC)CCOCCNC(=O)Cc1cccc2c1C(=O)N(C)C2=O (nonaromatic ring conformer: 79.0021250886378 kcal/mol)

>  <smiles>  (29) 
CCN(CC)CCOCCNC(=O)Cc1cccc2c1C(=O)N(C)C2=O

>  <score_type>  (29) 
oracle

>  <origin>  (29) 
adg

>  <m_score__min__energy>  (29) 
-8.2699999999999996

>  <m_primary>  (29) 
energy

$$$$
29:0
     RDKit          3D

 74 77  0  0  0  0  0  0  0  0999 V2000
   -1.4090   26.6420  -24.8250 C   0  0  0  0  0  0  0  0  0  0  0  0
   -0.4930   26.6690  -23.5920 C   0  0  0  0  0  0  0  0  0  0  0  0
    0.8220   26.0090  -23.7900 N   0  0  2  0  0  0  0  0  0  0  0  0
    1.9340   26.9800  -23.7230 C   0  0  0  0  0  0  0  0  0  0  0  0
    0.8530   25.2100  -25.0430 C   0  0  0  0  0  0  0  0  0  0  0  0
    0.5340   23.7250  -24.8130 C   0  0  0  0  0  0  0  0  0  0  0  0
   -0.8320   23.4800  -25.0870 O   0  0  0  0  0  0  0  0  0  0  0  0
   -1.0130   23.1110  -26.4410 C   0  0  0  0  0  0  0  0  0  0  0  0
   -0.8050   21.5900  -26.6020 C   0  0  0  0  0  0  0  0  0  0  0  0
   -1.1150   21.0780  -27.9540 N   0  0  0  0  0  0  0  0  0  0  0  0
   -2.5320   20.7000  -28.1660 C   0  0  0  0  0  0  0  0  0  0  0  0
   -3.2230   21.5760  -29.2280 C   0  0  0  0  0  0  0  0  0  0  0  0
   -2.4970   21.5820  -30.5260 N   0  0  0  0  0  0  0  0  0  0  0  0
   -3.0840   20.6400  -31.5030 C   0  0  0  0  0  0  0  0  0  0  0  0
   -2.9350   21.1820  -32.9280 C   0  0  0  0  0  0  0  0  0  0  0  0
   -4.2270   21.6470  -33.4270 N   0  0  0  0  0  0  0  0  0  0  0  0
   -5.4190   21.5220  -32.6330 C   0  0  0  0  0  0  0  0  0  0  0  0
   -5.7900   22.5510  -31.7500 C   0  0  0  0  0  0  0  0  0  0  0  0
   -4.9600   23.6780  -31.5650 C   0  0  0  0  0  0  0  0  0  0  0  0
   -5.3030   24.6720  -30.6530 C   0  0  0  0  0  0  0  0  0  0  0  0
   -6.4620   24.5530  -29.8960 C   0  0  0  0  0  0  0  0  0  0  0  0
   -7.2980   23.4480  -30.0600 C   0  0  0  0  0  0  0  0  0  0  0  0
   -6.9970   22.4380  -31.0090 C   0  0  0  0  0  0  0  0  0  0  0  0
   -7.8330   21.3540  -31.2060 N   0  0  0  0  0  0  0  0  0  0  0  0
   -9.2100   21.3710  -30.6630 C   0  0  0  0  0  0  0  0  0  0  0  0
   -7.3880   20.2600  -31.9260 C   0  0  0  0  0  0  0  0  0  0  0  0
   -8.0960   19.0320  -31.9290 C   0  0  0  0  0  0  0  0  0  0  0  0
   -7.6670   17.9550  -32.7050 C   0  0  0  0  0  0  0  0  0  0  0  0
   -6.5230   18.0670  -33.4850 C   0  0  0  0  0  0  0  0  0  0  0  0
   -5.7830   19.2470  -33.4730 C   0  0  0  0  0  0  0  0  0  0  0  0
   -6.1860   20.3440  -32.6810 C   0  0  0  0  0  0  0  0  0  0  0  0
   -1.0350   21.3700  -30.3950 C   0  0  0  0  0  0  0  0  0  0  0  0
   -0.5130   21.8680  -29.0460 C   0  0  0  0  0  0  0  0  0  0  0  0
   -2.4596   26.6110  -24.5006 H   0  0  0  0  0  0  0  0  0  0  0  0
   -1.2381   27.5456  -25.4286 H   0  0  0  0  0  0  0  0  0  0  0  0
   -1.1852   25.7501  -25.4286 H   0  0  0  0  0  0  0  0  0  0  0  0
   -0.3131   27.7196  -23.3201 H   0  0  0  0  0  0  0  0  0  0  0  0
   -1.0118   26.1045  -22.8032 H   0  0  0  0  0  0  0  0  0  0  0  0
    0.9370   25.3560  -22.9790 H   0  0  0  0  0  0  0  0  0  0  0  0
    2.1745   27.1900  -22.6704 H   0  0  0  0  0  0  0  0  0  0  0  0
    2.8184   26.5599  -24.2244 H   0  0  0  0  0  0  0  0  0  0  0  0
    1.6369   27.9129  -24.2244 H   0  0  0  0  0  0  0  0  0  0  0  0
    0.1113   25.6242  -25.7418 H   0  0  0  0  0  0  0  0  0  0  0  0
    1.8743   25.2695  -25.4473 H   0  0  0  0  0  0  0  0  0  0  0  0
    1.1562   23.1103  -25.4801 H   0  0  0  0  0  0  0  0  0  0  0  0
    0.7462   23.4661  -23.7652 H   0  0  0  0  0  0  0  0  0  0  0  0
   -2.0325   23.3755  -26.7582 H   0  0  0  0  0  0  0  0  0  0  0  0
   -0.2802   23.6452  -27.0636 H   0  0  0  0  0  0  0  0  0  0  0  0
    0.2471   21.3596  -26.3782 H   0  0  0  0  0  0  0  0  0  0  0  0
   -1.5041   21.0992  -25.9090 H   0  0  0  0  0  0  0  0  0  0  0  0
   -2.5721   19.6507  -28.4936 H   0  0  0  0  0  0  0  0  0  0  0  0
   -3.0633   20.8467  -27.2141 H   0  0  0  0  0  0  0  0  0  0  0  0
   -4.2397   21.1908  -29.3950 H   0  0  0  0  0  0  0  0  0  0  0  0
   -3.2370   22.6088  -28.8497 H   0  0  0  0  0  0  0  0  0  0  0  0
   -2.5669   19.6720  -31.4281 H   0  0  0  0  0  0  0  0  0  0  0  0
   -4.1540   20.5170  -31.2795 H   0  0  0  0  0  0  0  0  0  0  0  0
   -2.2230   22.0205  -32.9255 H   0  0  0  0  0  0  0  0  0  0  0  0
   -2.5652   20.3782  -33.5816 H   0  0  0  0  0  0  0  0  0  0  0  0
   -4.2340   22.2930  -34.2490 H   0  0  0  0  0  0  0  0  0  0  0  0
   -4.0320   23.7716  -32.1481 H   0  0  0  0  0  0  0  0  0  0  0  0
   -4.6556   25.5530  -30.5314 H   0  0  0  0  0  0  0  0  0  0  0  0
   -6.7214   25.3327  -29.1648 H   0  0  0  0  0  0  0  0  0  0  0  0
   -8.2047   23.3588  -29.4436 H   0  0  0  0  0  0  0  0  0  0  0  0
   -9.1707   21.3705  -29.5637 H   0  0  0  0  0  0  0  0  0  0  0  0
   -9.7302   22.2756  -31.0109 H   0  0  0  0  0  0  0  0  0  0  0  0
   -9.7524   20.4795  -31.0109 H   0  0  0  0  0  0  0  0  0  0  0  0
   -8.9986   18.9265  -31.3092 H   0  0  0  0  0  0  0  0  0  0  0  0
   -8.2365   17.0139  -32.6992 H   0  0  0  0  0  0  0  0  0  0  0  0
   -6.2012   17.2230  -34.1127 H   0  0  0  0  0  0  0  0  0  0  0  0
   -4.8741   19.3250  -34.0877 H   0  0  0  0  0  0  0  0  0  0  0  0
   -0.8205   20.2950  -30.4861 H   0  0  0  0  0  0  0  0  0  0  0  0
   -0.5319   21.9395  -31.1904 H   0  0  0  0  0  0  0  0  0  0  0  0
    0.5812   21.7591  -29.0151 H   0  0  0  0  0  0  0  0  0  0  0  0
   -0.7840   22.9267  -28.9203 H   0  0  0  0  0  0  0  0  0  0  0  0
  1  2  1  0
  2  3  1  0
  3  4  1  0
  3  5  1  0
  5  6  1  0
  6  7  1  0
  7  8  1  0
  8  9  1  0
  9 10  1  0
 10 11  1  0
 11 12  1  0
 12 13  1  0
 13 14  1  0
 14 15  1  0
 15 16  1  0
 16 17  1  0
 17 18  1  0
 18 19  2  0
 19 20  1  0
 20 21  2  0
 21 22  1  0
 22 23  2  0
 23 24  1  0
 24 25  1  0
 24 26  2  0
 26 27  1  0
 27 28  2  0
 28 29  1  0
 29 30  2  0
 30 31  1  0
 13 32  1  0
 32 33  1  0
 33 10  1  0
 31 17  2  0
 23 18  1  0
 31 26  1  0
  1 34  1  0
  1 35  1  0
  1 36  1  0
  2 37  1  0
  2 38  1  0
  3 39  1  1
  4 40  1  0
  4 41  1  0
  4 42  1  0
  5 43  1  0
  5 44  1  0
  6 45  1  0
  6 46  1  0
  8 47  1  0
  8 48  1  0
  9 49  1  0
  9 50  1  0
 11 51  1  0
 11 52  1  0
 12 53  1  0
 12 54  1  0
 14 55  1  0
 14 56  1  0
 15 57  1  0
 15 58  1  0
 16 59  1  0
 19 60  1  0
 20 61  1  0
 21 62  1  0
 22 63  1  0
 25 64  1  0
 25 65  1  0
 25 66  1  0
 27 67  1  0
 28 68  1  0
 29 69  1  0
 30 70  1  0
 32 71  1  0
 32 72  1  0
 33 73  1  0
 33 74  1  0
M  CHG  2   3   1  24   1
M  END
>  <UniqueID>  (30) 
30

>  <SMILES>  (30) 
CC[N@H+](C)CCOCCN1CCN(CCNc2c3ccccc3[n+](C)c3ccccc23)CC1

>  <Energy>  (30) 
118.19971884550473

>  <Genealogy>  (30) 
CC[NH+](C)CCOCCN1CCN(CCNc2c3ccccc3[n+](C)c3ccccc23)CC1 (protonated)
CC[N@H+](C)CCOCCN1CCN(CCNc2c3ccccc3[n+](C)c3ccccc23)CC1 (chirality)
CC[N@H+](C)CCOCCN1CCN(CCNc2c3ccccc3[n+](C)c3ccccc23)CC1 (3D coordinates assigned)
CC[N@H+](C)CCOCCN1CCN(CCNc2c3ccccc3[n+](C)c3ccccc23)CC1 (nonaromatic ring conformer: 118.19971884550473 kcal/mol)

>  <smiles>  (30) 
CCN(C)CCOCCN1CCN(CCNc2c3ccccc3[n+](C)c3ccccc23)CC1

>  <score_type>  (30) 
oracle

>  <origin>  (30) 
adg

>  <m_score__min__energy>  (30) 
-10

>  <m_primary>  (30) 
energy

$$$$
