0:0
     RDKit          3D

 64 66  0  0  0  0  0  0  0  0999 V2000
   -2.5490   21.2220  -27.7930 C   0  0  0  0  0  0  0  0  0  0  0  0
   -3.8780   21.9850  -27.9180 C   0  0  0  0  0  0  0  0  0  0  0  0
   -3.8880   23.1890  -28.8240 N   0  0  0  0  0  0  0  0  0  0  0  0
   -5.3120   23.5320  -29.2280 C   0  0  0  0  0  0  0  0  0  0  0  0
   -5.5780   24.9280  -29.8400 C   0  0  0  0  0  0  0  0  0  0  0  0
   -3.2080   24.3480  -28.1370 C   0  0  0  0  0  0  0  0  0  0  0  0
   -3.7440   24.6900  -26.7340 C   0  0  0  0  0  0  0  0  0  0  0  0
   -3.1770   22.8000  -30.1110 C   0  0  0  0  0  0  0  0  0  0  0  0
   -3.7860   21.6930  -31.0230 C   0  0  0  0  0  0  0  0  0  0  0  0
   -3.3490   21.7170  -32.4990 C   0  0  0  0  0  0  0  0  0  0  0  0
   -4.4860   21.7890  -33.4390 N   0  0  0  0  0  0  0  0  0  0  0  0
   -5.5950   20.9220  -33.0470 C   0  0  0  0  0  0  0  0  0  0  0  0
   -5.5460   19.5150  -33.2650 C   0  0  0  0  0  0  0  0  0  0  0  0
   -6.6490   18.7090  -32.8950 C   0  0  0  0  0  0  0  0  0  0  0  0
   -7.7480   19.2620  -32.2770 N   0  0  0  0  0  0  0  0  0  0  0  0
   -8.7530   18.3710  -31.6540 C   0  0  0  0  0  0  0  0  0  0  0  0
   -7.8990   20.6300  -32.2300 C   0  0  0  0  0  0  0  0  0  0  0  0
   -9.1460   21.2220  -31.9000 C   0  0  0  0  0  0  0  0  0  0  0  0
   -9.2770   22.6010  -31.7750 C   0  0  0  0  0  0  0  0  0  0  0  0
   -8.1750   23.4250  -31.9520 C   0  0  0  0  0  0  0  0  0  0  0  0
   -6.9470   22.8790  -32.3180 C   0  0  0  0  0  0  0  0  0  0  0  0
   -6.7990   21.4850  -32.5370 C   0  0  0  0  0  0  0  0  0  0  0  0
   -6.5510   17.2160  -33.1830 C   0  0  0  0  0  0  0  0  0  0  0  0
   -5.9970   16.9680  -34.5930 C   0  0  0  0  0  0  0  0  0  0  0  0
   -4.7280   17.7790  -34.9140 C   0  0  0  0  0  0  0  0  0  0  0  0
   -4.3290   18.7690  -33.8100 C   0  0  0  0  0  0  0  0  0  0  0  0
   -2.3052   21.0820  -26.7295 H   0  0  0  0  0  0  0  0  0  0  0  0
   -2.6427   20.2401  -28.2800 H   0  0  0  0  0  0  0  0  0  0  0  0
   -1.7483   21.7980  -28.2800 H   0  0  0  0  0  0  0  0  0  0  0  0
   -4.6328   21.2790  -28.2946 H   0  0  0  0  0  0  0  0  0  0  0  0
   -4.0782   22.3808  -26.9114 H   0  0  0  0  0  0  0  0  0  0  0  0
   -5.6308   22.7841  -29.9689 H   0  0  0  0  0  0  0  0  0  0  0  0
   -5.8723   23.5361  -28.2814 H   0  0  0  0  0  0  0  0  0  0  0  0
   -5.7178   25.6618  -29.0325 H   0  0  0  0  0  0  0  0  0  0  0  0
   -4.7204   25.2255  -30.4613 H   0  0  0  0  0  0  0  0  0  0  0  0
   -6.4849   24.8892  -30.4613 H   0  0  0  0  0  0  0  0  0  0  0  0
   -2.1389   24.1069  -28.0426 H   0  0  0  0  0  0  0  0  0  0  0  0
   -3.4080   25.2309  -28.7618 H   0  0  0  0  0  0  0  0  0  0  0  0
   -3.0753   24.2633  -25.9719 H   0  0  0  0  0  0  0  0  0  0  0  0
   -3.7866   25.7826  -26.6141 H   0  0  0  0  0  0  0  0  0  0  0  0
   -4.7529   24.2683  -26.6141 H   0  0  0  0  0  0  0  0  0  0  0  0
   -3.1014   23.7115  -30.7222 H   0  0  0  0  0  0  0  0  0  0  0  0
   -2.2350   22.3539  -29.7594 H   0  0  0  0  0  0  0  0  0  0  0  0
   -3.5005   20.7170  -30.6036 H   0  0  0  0  0  0  0  0  0  0  0  0
   -4.8699   21.8801  -31.0321 H   0  0  0  0  0  0  0  0  0  0  0  0
   -2.7060   22.5950  -32.6595 H   0  0  0  0  0  0  0  0  0  0  0  0
   -2.8174   20.7750  -32.6989 H   0  0  0  0  0  0  0  0  0  0  0  0
   -4.7700   22.7810  -33.5740 H   0  0  0  0  0  0  0  0  0  0  0  0
   -4.1600   21.5170  -34.3950 H   0  0  0  0  0  0  0  0  0  0  0  0
   -8.6753   18.4398  -30.5589 H   0  0  0  0  0  0  0  0  0  0  0  0
   -9.7610   18.6776  -31.9701 H   0  0  0  0  0  0  0  0  0  0  0  0
   -8.5693   17.3335  -31.9701 H   0  0  0  0  0  0  0  0  0  0  0  0
  -10.0241   20.5790  -31.7403 H   0  0  0  0  0  0  0  0  0  0  0  0
  -10.2569   23.0394  -31.5352 H   0  0  0  0  0  0  0  0  0  0  0  0
   -8.2711   24.5106  -31.8031 H   0  0  0  0  0  0  0  0  0  0  0  0
   -6.0764   23.5403  -32.4394 H   0  0  0  0  0  0  0  0  0  0  0  0
   -5.8815   16.7496  -32.4453 H   0  0  0  0  0  0  0  0  0  0  0  0
   -7.5577   16.7775  -33.1176 H   0  0  0  0  0  0  0  0  0  0  0  0
   -5.7584   15.8985  -34.6887 H   0  0  0  0  0  0  0  0  0  0  0  0
   -6.7721   17.2918  -35.3032 H   0  0  0  0  0  0  0  0  0  0  0  0
   -3.8961   17.0755  -35.0661 H   0  0  0  0  0  0  0  0  0  0  0  0
   -4.9468   18.3734  -35.8134 H   0  0  0  0  0  0  0  0  0  0  0  0
   -3.8508   18.2155  -32.9884 H   0  0  0  0  0  0  0  0  0  0  0  0
   -3.6345   19.5059  -34.2397 H   0  0  0  0  0  0  0  0  0  0  0  0
  1  2  1  0
  2  3  1  0
  3  4  1  0
  4  5  1  0
  3  6  1  0
  6  7  1  0
  3  8  1  0
  8  9  1  0
  9 10  1  0
 10 11  1  0
 11 12  1  0
 12 13  2  0
 13 14  1  0
 14 15  2  0
 15 16  1  0
 15 17  1  0
 17 18  2  0
 18 19  1  0
 19 20  2  0
 20 21  1  0
 21 22  2  0
 14 23  1  0
 23 24  1  0
 24 25  1  0
 25 26  1  0
 22 12  1  0
 26 13  1  0
 22 17  1  0
  1 27  1  0
  1 28  1  0
  1 29  1  0
  2 30  1  0
  2 31  1  0
  4 32  1  0
  4 33  1  0
  5 34  1  0
  5 35  1  0
  5 36  1  0
  6 37  1  0
  6 38  1  0
  7 39  1  0
  7 40  1  0
  7 41  1  0
  8 42  1  0
  8 43  1  0
  9 44  1  0
  9 45  1  0
 10 46  1  0
 10 47  1  0
 11 48  1  0
 11 49  1  0
 16 50  1  0
 16 51  1  0
 16 52  1  0
 18 53  1  0
 19 54  1  0
 20 55  1  0
 21 56  1  0
 23 57  1  0
 23 58  1  0
 24 59  1  0
 24 60  1  0
 25 61  1  0
 25 62  1  0
 26 63  1  0
 26 64  1  0
M  CHG  3   3   1  11   1  15   1
M  END
>  <UniqueID>  (1) 
1

>  <SMILES>  (1) 
CC[N+](CC)(CC)CCC[NH2+]c1c2c([n+](C)c3ccccc13)CCCC2

>  <Energy>  (1) 
120.71803121240299

>  <Genealogy>  (1) 
CC[N+](CC)(CC)CCC[NH2+]c1c2c([n+](C)c3ccccc13)CCCC2 (protonated)
CC[N+](CC)(CC)CCC[NH2+]c1c2c([n+](C)c3ccccc13)CCCC2 (3D coordinates assigned)
CC[N+](CC)(CC)CCC[NH2+]c1c2c([n+](C)c3ccccc13)CCCC2 (nonaromatic ring conformer: 120.71803121240299 kcal/mol)

>  <smiles>  (1) 
CC[N+](CC)(CC)CCCNc1c2c([n+](C)c3ccccc13)CCCC2

>  <score_type>  (1) 
oracle

>  <origin>  (1) 
adg

>  <m_score__min__energy>  (1) 
-7.04

>  <m_primary>  (1) 
energy

$$$$
1:0
     RDKit          3D

 74 76  0  0  0  0  0  0  0  0999 V2000
   -6.4614   16.6156  -32.8549 H   0  0  0  0  0  0  0  0  0  0  0  0
   -6.6630   17.6620  -32.5820 C   0  0  0  0  0  0  0  0  0  0  0  0
   -7.9530   18.1680  -32.6810 C   0  0  0  0  0  0  0  0  0  0  0  0
   -8.7698   17.5223  -33.0357 H   0  0  0  0  0  0  0  0  0  0  0  0
   -8.2150   19.4920  -32.3320 C   0  0  0  0  0  0  0  0  0  0  0  0
   -9.2417   19.8789  -32.4111 H   0  0  0  0  0  0  0  0  0  0  0  0
   -7.1790   20.3500  -31.8760 C   0  0  0  0  0  0  0  0  0  0  0  0
   -5.8640   19.8240  -31.7940 C   0  0  0  0  0  0  0  0  0  0  0  0
   -5.6270   18.4750  -32.1390 C   0  0  0  0  0  0  0  0  0  0  0  0
   -4.6104   18.0632  -32.0560 H   0  0  0  0  0  0  0  0  0  0  0  0
   -4.8080   20.6460  -31.3600 C   0  0  0  0  0  0  0  0  0  0  0  0
   -3.4610   20.1560  -31.4340 N   0  0  0  0  0  0  0  0  0  0  0  0
   -2.8710   20.1800  -30.5680 H   0  0  0  0  0  0  0  0  0  0  0  0
   -2.9820   19.5190  -32.6610 C   0  0  0  0  0  0  0  0  0  0  0  0
   -3.6733   18.7083  -32.9344 H   0  0  0  0  0  0  0  0  0  0  0  0
   -1.9708   19.1298  -32.4714 H   0  0  0  0  0  0  0  0  0  0  0  0
   -2.8990   20.5120  -33.8230 C   0  0  0  0  0  0  0  0  0  0  0  0
   -3.8921   20.9515  -33.9978 H   0  0  0  0  0  0  0  0  0  0  0  0
   -2.5601   19.9826  -34.7257 H   0  0  0  0  0  0  0  0  0  0  0  0
   -1.9760   21.5450  -33.5160 O   0  0  0  0  0  0  0  0  0  0  0  0
   -0.8120   21.0530  -32.8800 C   0  0  0  0  0  0  0  0  0  0  0  0
   -0.9684   20.0008  -32.5999 H   0  0  0  0  0  0  0  0  0  0  0  0
   -0.6124   21.6557  -31.9817 H   0  0  0  0  0  0  0  0  0  0  0  0
    0.3960   21.1520  -33.8290 C   0  0  0  0  0  0  0  0  0  0  0  0
    0.9466   20.2001  -33.8014 H   0  0  0  0  0  0  0  0  0  0  0  0
    1.0238   21.9888  -33.4890 H   0  0  0  0  0  0  0  0  0  0  0  0
   -0.0110   21.4290  -35.2330 N   0  0  0  0  0  0  0  0  0  0  0  0
   -1.0490   21.5810  -35.2630 H   0  0  0  0  0  0  0  0  0  0  0  0
    0.3260   20.2710  -36.1070 C   0  0  0  0  0  0  0  0  0  0  0  0
    1.3366   20.4180  -36.5156 H   0  0  0  0  0  0  0  0  0  0  0  0
   -0.4266   20.2222  -36.9077 H   0  0  0  0  0  0  0  0  0  0  0  0
    0.2900   18.9410  -35.3460 C   0  0  0  0  0  0  0  0  0  0  0  0
    0.2953   19.1376  -34.2637 H   0  0  0  0  0  0  0  0  0  0  0  0
   -0.6234   18.3898  -35.6141 H   0  0  0  0  0  0  0  0  0  0  0  0
    1.1722   18.3412  -35.6141 H   0  0  0  0  0  0  0  0  0  0  0  0
    0.6620   22.6610  -35.7300 C   0  0  0  0  0  0  0  0  0  0  0  0
    0.4590   22.7649  -36.8061 H   0  0  0  0  0  0  0  0  0  0  0  0
    0.2637   23.5138  -35.1607 H   0  0  0  0  0  0  0  0  0  0  0  0
    2.1830   22.6240  -35.5160 C   0  0  0  0  0  0  0  0  0  0  0  0
    2.4016   22.6187  -34.4379 H   0  0  0  0  0  0  0  0  0  0  0  0
    2.5964   21.7155  -35.9784 H   0  0  0  0  0  0  0  0  0  0  0  0
    2.6400   23.5113  -35.9784 H   0  0  0  0  0  0  0  0  0  0  0  0
   -5.0780   21.9650  -30.9200 C   0  0  0  0  0  0  0  0  0  0  0  0
   -4.0810   22.8170  -30.3520 C   0  0  0  0  0  0  0  0  0  0  0  0
   -2.8810   22.3570  -30.1200 N   0  0  0  0  0  0  0  0  0  0  0  0
   -1.9480   22.7970  -29.0840 C   0  0  0  0  0  0  0  0  0  0  0  0
   -1.4013   23.6853  -29.4334 H   0  0  0  0  0  0  0  0  0  0  0  0
   -2.5025   23.0507  -28.1685 H   0  0  0  0  0  0  0  0  0  0  0  0
   -0.9520   21.6610  -28.7900 C   0  0  0  0  0  0  0  0  0  0  0  0
   -0.1375   21.7182  -29.5271 H   0  0  0  0  0  0  0  0  0  0  0  0
   -0.6056   21.8067  -27.7562 H   0  0  0  0  0  0  0  0  0  0  0  0
   -1.5390   20.3010  -28.8520 N   0  0  0  0  0  0  0  0  0  0  0  0
   -2.5160   20.0450  -27.7800 C   0  0  0  0  0  0  0  0  0  0  0  0
   -2.0290   20.1726  -26.8020 H   0  0  0  0  0  0  0  0  0  0  0  0
   -3.3520   20.7544  -27.8687 H   0  0  0  0  0  0  0  0  0  0  0  0
   -2.8967   19.0168  -27.8687 H   0  0  0  0  0  0  0  0  0  0  0  0
   -0.5210   19.2430  -28.9150 C   0  0  0  0  0  0  0  0  0  0  0  0
   -0.2362   18.9470  -27.8946 H   0  0  0  0  0  0  0  0  0  0  0  0
   -0.9296   18.3723  -29.4488 H   0  0  0  0  0  0  0  0  0  0  0  0
    0.3648   19.6178  -29.4488 H   0  0  0  0  0  0  0  0  0  0  0  0
   -4.4250   24.1370  -30.0030 C   0  0  0  0  0  0  0  0  0  0  0  0
   -3.6641   24.8102  -29.5814 H   0  0  0  0  0  0  0  0  0  0  0  0
   -5.7260   24.5900  -30.1910 C   0  0  0  0  0  0  0  0  0  0  0  0
   -6.1130   25.9810  -29.8010 C   0  0  0  0  0  0  0  0  0  0  0  0
   -6.1354   26.0615  -28.7042 H   0  0  0  0  0  0  0  0  0  0  0  0
   -5.3788   26.6930  -30.2060 H   0  0  0  0  0  0  0  0  0  0  0  0
   -7.1094   26.2116  -30.2060 H   0  0  0  0  0  0  0  0  0  0  0  0
   -6.6670   23.7460  -30.6800 N   0  0  0  0  0  0  0  0  0  0  0  0
   -6.4060   22.4590  -31.0420 C   0  0  0  0  0  0  0  0  0  0  0  0
   -7.4240   21.6610  -31.5200 N   0  0  0  0  0  0  0  0  0  0  0  0
   -8.7970   22.2050  -31.6300 C   0  0  0  0  0  0  0  0  0  0  0  0
   -9.2086   22.3681  -30.6230 H   0  0  0  0  0  0  0  0  0  0  0  0
   -8.7703   23.1605  -32.1743 H   0  0  0  0  0  0  0  0  0  0  0  0
   -9.4320   21.4905  -32.1743 H   0  0  0  0  0  0  0  0  0  0  0  0
  1  2  1  0
  2  3  2  0
  3  4  1  0
  3  5  1  0
  5  6  1  0
  5  7  2  0
  7  8  1  0
  8  9  2  0
  9 10  1  0
  8 11  1  0
 11 12  1  0
 12 13  1  0
 12 14  1  0
 14 15  1  0
 14 16  1  0
 14 17  1  0
 17 18  1  0
 17 19  1  0
 17 20  1  0
 20 21  1  0
 21 22  1  0
 21 23  1  0
 21 24  1  0
 24 25  1  0
 24 26  1  0
 24 27  1  0
 27 28  1  0
 27 29  1  0
 29 30  1  0
 29 31  1  0
 29 32  1  0
 32 33  1  0
 32 34  1  0
 32 35  1  0
 27 36  1  0
 36 37  1  0
 36 38  1  0
 36 39  1  0
 39 40  1  0
 39 41  1  0
 39 42  1  0
 11 43  2  0
 43 44  1  0
 44 45  2  0
 45 46  1  0
 46 47  1  0
 46 48  1  0
 46 49  1  0
 49 50  1  0
 49 51  1  0
 49 52  1  0
 52 53  1  0
 53 54  1  0
 53 55  1  0
 53 56  1  0
 52 57  1  0
 57 58  1  0
 57 59  1  0
 57 60  1  0
 44 61  1  0
 61 62  1  0
 61 63  2  0
 63 64  1  0
 64 65  1  0
 64 66  1  0
 64 67  1  0
 63 68  1  0
 68 69  1  0
 69 70  2  0
 70 71  1  0
 71 72  1  0
 71 73  1  0
 71 74  1  0
  9  2  1  0
 69 43  1  0
 70  7  1  0
M  CHG  3  27   1  68  -1  70   1
M  END
>  <UniqueID>  (2) 
2

>  <SMILES>  (2) 
CC[NH+](CC)CCOCCNc1c2ccccc2[n+](C)c2[n-]c(C)c/c(=N\CCN(C)C)c12

>  <Energy>  (2) 
102.94777231896667

>  <Genealogy>  (2) 
CC[NH+](CC)CCOCCNc1c2ccccc2[n+](C)c2[n-]c(C)cc(=NCCN(C)C)c12 (protonated)
CC[NH+](CC)CCOCCNc1c2ccccc2[n+](C)c2[n-]c(C)c/c(=N\CCN(C)C)c12 (cis-trans isomerization)
CC[NH+](CC)CCOCCNc1c2ccccc2[n+](C)c2[n-]c(C)c/c(=N\CCN(C)C)c12 (3D coordinates assigned)
CC[NH+](CC)CCOCCNc1c2ccccc2[n+](C)c2[n-]c(C)c/c(=N\CCN(C)C)c12 (optimized conformer: 102.94777231896667 kcal/mol)

>  <smiles>  (2) 
CCN(CC)CCOCCNc1c2ccccc2[n+](C)c2[nH]c(C)cc(=NCCN(C)C)c12

>  <score_type>  (2) 
oracle

>  <origin>  (2) 
adg

>  <m_score__min__energy>  (2) 
-7.3099999999999996

>  <m_primary>  (2) 
energy

$$$$
2:0
     RDKit          3D

 37 38  0  0  0  0  0  0  0  0999 V2000
   -3.1970   18.6110  -25.9920 C   0  0  0  0  0  0  0  0  0  0  0  0
   -1.8850   18.8870  -26.7360 C   0  0  0  0  0  0  0  0  0  0  0  0
   -1.9550   20.0000  -27.7080 N   0  0  0  0  0  0  0  0  0  0  0  0
   -0.6650   20.6700  -27.9470 C   0  0  0  0  0  0  0  0  0  0  0  0
   -3.0980   20.9220  -27.5310 C   0  0  0  0  0  0  0  0  0  0  0  0
   -2.9120   22.2190  -28.2070 C   0  0  0  0  0  0  0  0  0  0  0  0
   -2.7700   23.2830  -28.7540 C   0  0  0  0  0  0  0  0  0  0  0  0
   -2.6100   24.5550  -29.4130 C   0  0  0  0  0  0  0  0  0  0  0  0
   -1.6970   25.3330  -29.0330 O   0  0  0  0  0  0  0  0  0  0  0  0
   -3.4910   24.9630  -30.4640 N   0  0  0  0  0  0  0  0  0  0  0  0
   -4.7410   24.3220  -30.7450 C   0  0  0  0  0  0  0  0  0  0  0  0
   -5.9200   24.9240  -30.2910 C   0  0  0  0  0  0  0  0  0  0  0  0
   -7.1570   24.3150  -30.5080 C   0  0  0  0  0  0  0  0  0  0  0  0
   -7.2340   23.1000  -31.1920 C   0  0  0  0  0  0  0  0  0  0  0  0
   -6.0660   22.4950  -31.6810 C   0  0  0  0  0  0  0  0  0  0  0  0
   -6.1300   21.2880  -32.3850 C   0  0  0  0  0  0  0  0  0  0  0  0
   -4.9620   20.7110  -32.8810 C   0  0  0  0  0  0  0  0  0  0  0  0
   -3.7400   21.3510  -32.6770 C   0  0  0  0  0  0  0  0  0  0  0  0
   -3.6810   22.5220  -31.9860 N   0  0  0  0  0  0  0  0  0  0  0  0
   -4.8060   23.1080  -31.4700 C   0  0  0  0  0  0  0  0  0  0  0  0
   -3.0183   18.6486  -24.9073 H   0  0  0  0  0  0  0  0  0  0  0  0
   -3.9419   19.3721  -26.2675 H   0  0  0  0  0  0  0  0  0  0  0  0
   -3.5721   17.6143  -26.2675 H   0  0  0  0  0  0  0  0  0  0  0  0
   -1.1119   19.1286  -25.9917 H   0  0  0  0  0  0  0  0  0  0  0  0
   -1.6557   17.9798  -27.3142 H   0  0  0  0  0  0  0  0  0  0  0  0
   -0.1946   20.9143  -26.9831 H   0  0  0  0  0  0  0  0  0  0  0  0
   -0.0046   20.0009  -28.5182 H   0  0  0  0  0  0  0  0  0  0  0  0
   -0.8325   21.5950  -28.5182 H   0  0  0  0  0  0  0  0  0  0  0  0
   -3.9999   20.4421  -27.9387 H   0  0  0  0  0  0  0  0  0  0  0  0
   -3.1877   21.1263  -26.4539 H   0  0  0  0  0  0  0  0  0  0  0  0
   -5.8714   25.8853  -29.7586 H   0  0  0  0  0  0  0  0  0  0  0  0
   -8.0755   24.7944  -30.1385 H   0  0  0  0  0  0  0  0  0  0  0  0
   -8.2101   22.6172  -31.3475 H   0  0  0  0  0  0  0  0  0  0  0  0
   -7.1000   20.7951  -32.5469 H   0  0  0  0  0  0  0  0  0  0  0  0
   -5.0040   19.7582  -33.4291 H   0  0  0  0  0  0  0  0  0  0  0  0
   -2.8171   20.9062  -33.0775 H   0  0  0  0  0  0  0  0  0  0  0  0
   -2.7430   22.9660  -31.8700 H   0  0  0  0  0  0  0  0  0  0  0  0
  1  2  1  0
  2  3  1  0
  3  4  1  0
  3  5  1  0
  5  6  1  0
  6  7  3  0
  7  8  1  0
  8  9  2  0
  8 10  1  0
 10 11  1  0
 11 12  2  0
 12 13  1  0
 13 14  2  0
 14 15  1  0
 15 16  2  0
 16 17  1  0
 17 18  2  0
 18 19  1  0
 19 20  2  0
 20 11  1  0
 20 15  1  0
  1 21  1  0
  1 22  1  0
  1 23  1  0
  2 24  1  0
  2 25  1  0
  4 26  1  0
  4 27  1  0
  4 28  1  0
  5 29  1  0
  5 30  1  0
 12 31  1  0
 13 32  1  0
 14 33  1  0
 16 34  1  0
 17 35  1  0
 18 36  1  0
 19 37  1  0
M  CHG  2  10  -1  19   1
M  END
>  <UniqueID>  (3) 
3

>  <SMILES>  (3) 
CCN(C)CC#CC(=O)[N-]c1cccc2ccc[nH+]c12

>  <Energy>  (3) 
45.085871093978554

>  <Genealogy>  (3) 
CCN(C)CC#CC(=O)[N-]c1cccc2ccc[nH+]c12 (protonated)
CCN(C)CC#CC(=O)[N-]c1cccc2ccc[nH+]c12 (3D coordinates assigned)
CCN(C)CC#CC(=O)[N-]c1cccc2ccc[nH+]c12 (optimized conformer: 45.085871093978554 kcal/mol)

>  <smiles>  (3) 
CCN(C)CC#CC(=O)Nc1cccc2cccnc12

>  <score_type>  (3) 
oracle

>  <origin>  (3) 
adg

>  <m_score__min__energy>  (3) 
-7.5499999999999998

>  <m_primary>  (3) 
energy

$$$$
3:0
     RDKit          3D

 29 30  0  0  0  0  0  0  0  0999 V2000
   -6.0820   25.6710  -30.1370 C   0  0  0  0  0  0  0  0  0  0  0  0
   -4.8600   25.0790  -30.8320 C   0  0  0  0  0  0  0  0  0  0  0  0
   -5.2370   23.8720  -31.5840 N   0  0  0  0  0  0  0  0  0  0  0  0
   -5.1050   22.6370  -30.7830 C   0  0  1  0  0  0  0  0  0  0  0  0
   -6.0800   22.6740  -29.6000 C   0  0  0  0  0  0  0  0  0  0  0  0
   -7.5360   22.7090  -30.0750 C   0  0  0  0  0  0  0  0  0  0  0  0
   -7.8280   21.6700  -31.1240 C   0  0  0  0  0  0  0  0  0  0  0  0
   -9.1280   21.3560  -31.3720 N   0  0  0  0  0  0  0  0  0  0  0  0
   -9.4670   20.4640  -32.3340 C   0  0  0  0  0  0  0  0  0  0  0  0
   -8.5050   19.8630  -33.0770 N   0  0  0  0  0  0  0  0  0  0  0  0
   -7.1880   20.1440  -32.8830 C   0  0  0  0  0  0  0  0  0  0  0  0
   -5.8910   19.2170  -33.9520 Br  0  0  0  0  0  0  0  0  0  0  0  0
   -6.8080   21.0850  -31.9040 C   0  0  0  0  0  0  0  0  0  0  0  0
   -5.3440   21.3660  -31.6290 C   0  0  0  0  0  0  0  0  0  0  0  0
   -5.9505   25.6073  -29.0467 H   0  0  0  0  0  0  0  0  0  0  0  0
   -6.1968   26.7246  -30.4315 H   0  0  0  0  0  0  0  0  0  0  0  0
   -6.9799   25.1080  -30.4315 H   0  0  0  0  0  0  0  0  0  0  0  0
   -4.4408   25.8228  -31.5255 H   0  0  0  0  0  0  0  0  0  0  0  0
   -4.1114   24.8090  -30.0726 H   0  0  0  0  0  0  0  0  0  0  0  0
   -4.6350   23.8110  -32.4390 H   0  0  0  0  0  0  0  0  0  0  0  0
   -4.0713   22.5931  -30.4094 H   0  0  0  0  0  0  0  0  0  0  0  0
   -5.9268   21.7769  -28.9821 H   0  0  0  0  0  0  0  0  0  0  0  0
   -5.8839   23.5872  -29.0189 H   0  0  0  0  0  0  0  0  0  0  0  0
   -8.1928   22.5313  -29.2107 H   0  0  0  0  0  0  0  0  0  0  0  0
   -7.7158   23.6964  -30.5251 H   0  0  0  0  0  0  0  0  0  0  0  0
  -10.5261   20.2266  -32.5128 H   0  0  0  0  0  0  0  0  0  0  0  0
   -8.7850   19.1690  -33.8060 H   0  0  0  0  0  0  0  0  0  0  0  0
   -4.9201   20.5054  -31.0907 H   0  0  0  0  0  0  0  0  0  0  0  0
   -4.8594   21.5313  -32.6026 H   0  0  0  0  0  0  0  0  0  0  0  0
  1  2  1  0
  2  3  1  0
  3  4  1  0
  4  5  1  0
  5  6  1  0
  6  7  1  0
  7  8  2  0
  8  9  1  0
  9 10  2  0
 10 11  1  0
 11 12  1  0
 11 13  2  0
 13 14  1  0
 14  4  1  0
 13  7  1  0
  1 15  1  0
  1 16  1  0
  1 17  1  0
  2 18  1  0
  2 19  1  0
  3 20  1  0
  4 21  1  1
  5 22  1  0
  5 23  1  0
  6 24  1  0
  6 25  1  0
  9 26  1  0
 10 27  1  0
 14 28  1  0
 14 29  1  0
M  CHG  1  10   1
M  END
>  <UniqueID>  (4) 
4

>  <SMILES>  (4) 
CCN[C@H]1CCc2nc[nH+]c(Br)c2C1

>  <Energy>  (4) 
29.294539722171997

>  <Genealogy>  (4) 
CCNC1CCc2nc[nH+]c(Br)c2C1 (protonated)
CCN[C@H]1CCc2nc[nH+]c(Br)c2C1 (chirality)
CCN[C@H]1CCc2nc[nH+]c(Br)c2C1 (3D coordinates assigned)
CCN[C@H]1CCc2nc[nH+]c(Br)c2C1 (nonaromatic ring conformer: 29.294539722171997 kcal/mol)

>  <smiles>  (4) 
CCNC1CCc2ncnc(Br)c2C1

>  <score_type>  (4) 
oracle

>  <origin>  (4) 
adg

>  <m_score__min__energy>  (4) 
-6.1799999999999997

>  <m_primary>  (4) 
energy

$$$$
4:0
     RDKit          3D

 50 51  0  0  0  0  0  0  0  0999 V2000
   -0.6760   21.3810  -34.1130 C   0  0  0  0  0  0  0  0  0  0  0  0
   -1.5590   20.3800  -33.6180 O   0  0  0  0  0  0  0  0  0  0  0  0
   -2.8960   20.6090  -33.2590 C   0  0  0  0  0  0  0  0  0  0  0  0
   -3.2170   21.8200  -32.6410 C   0  0  0  0  0  0  0  0  0  0  0  0
   -4.5340   22.0980  -32.2650 C   0  0  0  0  0  0  0  0  0  0  0  0
   -5.5540   21.1610  -32.4900 C   0  0  0  0  0  0  0  0  0  0  0  0
   -6.9720   21.5120  -32.1000 C   0  0  0  0  0  0  0  0  0  0  0  0
   -7.2470   23.0030  -32.3560 C   0  0  0  0  0  0  0  0  0  0  0  0
   -7.1420   23.8030  -31.1150 N   0  0  0  0  0  0  0  0  0  0  0  0
   -6.0320   24.7880  -31.1990 C   0  0  0  0  0  0  0  0  0  0  0  0
   -5.5800   25.2830  -29.8120 C   0  0  0  0  0  0  0  0  0  0  0  0
   -5.1880   24.1730  -28.8960 N   0  0  0  0  0  0  0  0  0  0  0  0
   -3.7520   24.2030  -28.5140 C   0  0  0  0  0  0  0  0  0  0  0  0
   -3.4750   24.5390  -27.0340 C   0  0  0  0  0  0  0  0  0  0  0  0
   -4.6090   25.1090  -26.4410 O   0  0  0  0  0  0  0  0  0  0  0  0
   -5.6290   22.8400  -29.3590 C   0  0  0  0  0  0  0  0  0  0  0  0
   -7.0550   22.9220  -29.9200 C   0  0  0  0  0  0  0  0  0  0  0  0
   -5.2380   19.9390  -33.1250 C   0  0  0  0  0  0  0  0  0  0  0  0
   -6.4710   18.7290  -33.4720 S   0  0  0  0  0  0  0  0  0  0  0  0
   -6.6030   17.5210  -32.1770 C   0  0  0  0  0  0  0  0  0  0  0  0
   -6.2050   18.0120  -34.9670 O   0  0  0  0  0  0  0  0  0  0  0  0
   -3.9140   19.6700  -33.5020 C   0  0  0  0  0  0  0  0  0  0  0  0
   -0.2100   21.9092  -33.2681 H   0  0  0  0  0  0  0  0  0  0  0  0
    0.1057   20.9095  -34.7267 H   0  0  0  0  0  0  0  0  0  0  0  0
   -1.2414   22.0977  -34.7267 H   0  0  0  0  0  0  0  0  0  0  0  0
   -2.4268   22.5607  -32.4488 H   0  0  0  0  0  0  0  0  0  0  0  0
   -4.7732   23.0601  -31.7883 H   0  0  0  0  0  0  0  0  0  0  0  0
   -7.6716   20.9073  -32.6957 H   0  0  0  0  0  0  0  0  0  0  0  0
   -7.1084   21.3037  -31.0286 H   0  0  0  0  0  0  0  0  0  0  0  0
   -6.5149   23.3798  -33.0854 H   0  0  0  0  0  0  0  0  0  0  0  0
   -8.2735   23.1002  -32.7393 H   0  0  0  0  0  0  0  0  0  0  0  0
   -5.1759   24.3136  -31.7010 H   0  0  0  0  0  0  0  0  0  0  0  0
   -6.3981   25.6586  -31.7629 H   0  0  0  0  0  0  0  0  0  0  0  0
   -4.7160   25.9512  -29.9428 H   0  0  0  0  0  0  0  0  0  0  0  0
   -6.4347   25.8017  -29.3533 H   0  0  0  0  0  0  0  0  0  0  0  0
   -5.7040   24.3430  -27.9980 H   0  0  0  0  0  0  0  0  0  0  0  0
   -3.3227   23.2124  -28.7246 H   0  0  0  0  0  0  0  0  0  0  0  0
   -3.2955   25.0126  -29.1024 H   0  0  0  0  0  0  0  0  0  0  0  0
   -3.2102   23.6165  -26.4965 H   0  0  0  0  0  0  0  0  0  0  0  0
   -2.6453   25.2593  -26.9814 H   0  0  0  0  0  0  0  0  0  0  0  0
   -4.6530   26.0440  -26.7730 H   0  0  0  0  0  0  0  0  0  0  0  0
   -4.9481   22.4847  -30.1465 H   0  0  0  0  0  0  0  0  0  0  0  0
   -5.6158   22.1412  -28.5096 H   0  0  0  0  0  0  0  0  0  0  0  0
   -7.3829   21.9105  -30.2017 H   0  0  0  0  0  0  0  0  0  0  0  0
   -7.6997   23.3505  -29.1385 H   0  0  0  0  0  0  0  0  0  0  0  0
   -6.5481   18.0234  -31.2000 H   0  0  0  0  0  0  0  0  0  0  0  0
   -7.5642   16.9932  -32.2644 H   0  0  0  0  0  0  0  0  0  0  0  0
   -5.7785   16.7981  -32.2644 H   0  0  0  0  0  0  0  0  0  0  0  0
   -6.7320   18.5600  -35.6000 H   0  0  0  0  0  0  0  0  0  0  0  0
   -3.6699   18.7160  -33.9921 H   0  0  0  0  0  0  0  0  0  0  0  0
  1  2  1  0
  2  3  1  0
  3  4  2  0
  4  5  1  0
  5  6  2  0
  6  7  1  0
  7  8  1  0
  8  9  1  0
  9 10  1  0
 10 11  1  0
 11 12  1  0
 12 13  1  0
 13 14  1  0
 14 15  1  0
 12 16  1  0
 16 17  1  0
  6 18  1  0
 18 19  1  0
 19 20  1  0
 19 21  1  6
 18 22  2  0
 22  3  1  0
 17  9  1  0
  1 23  1  0
  1 24  1  0
  1 25  1  0
  4 26  1  0
  5 27  1  0
  7 28  1  0
  7 29  1  0
  8 30  1  0
  8 31  1  0
 10 32  1  0
 10 33  1  0
 11 34  1  0
 11 35  1  0
 12 36  1  0
 13 37  1  0
 13 38  1  0
 14 39  1  0
 14 40  1  0
 15 41  1  0
 16 42  1  0
 16 43  1  0
 17 44  1  0
 17 45  1  0
 20 46  1  0
 20 47  1  0
 20 48  1  0
 21 49  1  0
 22 50  1  0
M  CHG  2  12   1  19   1
M  END
>  <UniqueID>  (5) 
5

>  <SMILES>  (5) 
COc1ccc(CCN2CC[NH+](CCO)CC2)c([S@+](C)O)c1

>  <Energy>  (5) 
58.621021669869045

>  <Genealogy>  (5) 
COc1ccc(CCN2CC[NH+](CCO)CC2)c([S+](C)O)c1 (protonated)
COc1ccc(CCN2CC[NH+](CCO)CC2)c([S@+](C)O)c1 (chirality)
COc1ccc(CCN2CC[NH+](CCO)CC2)c([S@+](C)O)c1 (3D coordinates assigned)
COc1ccc(CCN2CC[NH+](CCO)CC2)c([S@+](C)O)c1 (nonaromatic ring conformer: 58.621021669869045 kcal/mol)

>  <smiles>  (5) 
COc1ccc(CCN2CCN(CCO)CC2)c([S+](C)[O-])c1

>  <score_type>  (5) 
oracle

>  <origin>  (5) 
adg

>  <m_score__min__energy>  (5) 
-5.8399999999999999

>  <m_primary>  (5) 
energy

$$$$
5:0
     RDKit          3D

 54 56  0  0  0  0  0  0  0  0999 V2000
   -5.3996   25.1548  -31.4310 H   0  0  0  0  0  0  0  0  0  0  0  0
   -5.5840   24.1090  -31.1440 C   0  0  0  0  0  0  0  0  0  0  0  0
   -6.7470   23.8150  -30.5480 C   0  0  0  0  0  0  0  0  0  0  0  0
   -6.8183   23.8537  -29.4510 H   0  0  0  0  0  0  0  0  0  0  0  0
   -7.9560   23.4330  -31.3550 C   0  0  0  0  0  0  0  0  0  0  0  0
   -7.7436   23.6009  -32.4212 H   0  0  0  0  0  0  0  0  0  0  0  0
   -8.8040   24.0519  -31.0267 H   0  0  0  0  0  0  0  0  0  0  0  0
   -8.3070   22.0110  -31.1510 N   0  0  0  0  0  0  0  0  0  0  0  0
   -7.1110   21.1360  -31.2490 C   0  0  0  0  0  0  0  0  0  0  0  0
   -7.1826   20.3511  -30.4816 H   0  0  0  0  0  0  0  0  0  0  0  0
   -6.2203   21.7637  -31.0981 H   0  0  0  0  0  0  0  0  0  0  0  0
   -6.9900   20.4690  -32.6300 C   0  0  0  0  0  0  0  0  0  0  0  0
   -6.0877   19.8399  -32.6412 H   0  0  0  0  0  0  0  0  0  0  0  0
   -6.9329   21.2668  -33.3852 H   0  0  0  0  0  0  0  0  0  0  0  0
   -8.1710   19.6190  -32.9530 N   0  0  0  0  0  0  0  0  0  0  0  0
   -8.3300   19.7040  -33.9870 H   0  0  0  0  0  0  0  0  0  0  0  0
   -7.8880   18.1930  -32.6590 C   0  0  0  0  0  0  0  0  0  0  0  0
   -8.6630   17.5724  -33.1325 H   0  0  0  0  0  0  0  0  0  0  0  0
   -7.8878   18.0654  -31.5664 H   0  0  0  0  0  0  0  0  0  0  0  0
   -6.5340   17.7640  -33.1790 C   0  0  0  0  0  0  0  0  0  0  0  0
   -5.6670   17.0250  -32.3610 C   0  0  0  0  0  0  0  0  0  0  0  0
   -5.9820   16.7387  -31.3467 H   0  0  0  0  0  0  0  0  0  0  0  0
   -4.4050   16.6510  -32.8290 C   0  0  0  0  0  0  0  0  0  0  0  0
   -3.7351   16.0673  -32.1805 H   0  0  0  0  0  0  0  0  0  0  0  0
   -3.9840   17.0110  -34.1140 C   0  0  0  0  0  0  0  0  0  0  0  0
   -2.7040   16.6070  -34.5280 O   0  0  0  0  0  0  0  0  0  0  0  0
   -1.4820   17.2830  -34.2300 C   0  0  0  0  0  0  0  0  0  0  0  0
   -0.7430   17.0538  -35.0119 H   0  0  0  0  0  0  0  0  0  0  0  0
   -1.1198   16.9412  -33.2492 H   0  0  0  0  0  0  0  0  0  0  0  0
   -1.6980   18.7900  -34.1730 C   0  0  0  0  0  0  0  0  0  0  0  0
   -1.7445   19.1143  -33.1229 H   0  0  0  0  0  0  0  0  0  0  0  0
   -0.8637   19.2993  -34.6775 H   0  0  0  0  0  0  0  0  0  0  0  0
   -2.6418   19.0445  -34.6775 H   0  0  0  0  0  0  0  0  0  0  0  0
   -4.8550   17.7510  -34.9370 C   0  0  0  0  0  0  0  0  0  0  0  0
   -4.5404   18.0351  -35.9520 H   0  0  0  0  0  0  0  0  0  0  0  0
   -6.1180   18.1260  -34.4690 C   0  0  0  0  0  0  0  0  0  0  0  0
   -6.7898   18.7086  -35.1164 H   0  0  0  0  0  0  0  0  0  0  0  0
   -9.4110   20.0740  -32.2670 C   0  0  0  0  0  0  0  0  0  0  0  0
   -9.4820   19.5749  -31.2893 H   0  0  0  0  0  0  0  0  0  0  0  0
  -10.2709   19.8159  -32.9025 H   0  0  0  0  0  0  0  0  0  0  0  0
   -9.4110   21.5930  -32.0520 C   0  0  0  0  0  0  0  0  0  0  0  0
  -10.3707   21.8915  -31.6050 H   0  0  0  0  0  0  0  0  0  0  0  0
   -9.2669   22.0814  -33.0270 H   0  0  0  0  0  0  0  0  0  0  0  0
   -4.5300   23.1080  -31.4400 C   0  0  0  0  0  0  0  0  0  0  0  0
   -4.5390   22.4730  -32.6950 C   0  0  0  0  0  0  0  0  0  0  0  0
   -5.3132   22.7323  -33.4321 H   0  0  0  0  0  0  0  0  0  0  0  0
   -3.5720   21.5150  -33.0130 C   0  0  0  0  0  0  0  0  0  0  0  0
   -3.5839   21.0296  -34.0001 H   0  0  0  0  0  0  0  0  0  0  0  0
   -2.5910   21.1730  -32.0800 C   0  0  0  0  0  0  0  0  0  0  0  0
   -1.8275   20.4230  -32.3340 H   0  0  0  0  0  0  0  0  0  0  0  0
   -2.5800   21.7840  -30.8240 C   0  0  0  0  0  0  0  0  0  0  0  0
   -1.8103   21.5097  -30.0875 H   0  0  0  0  0  0  0  0  0  0  0  0
   -3.5440   22.7430  -30.5000 C   0  0  0  0  0  0  0  0  0  0  0  0
   -3.5335   23.2154  -29.5067 H   0  0  0  0  0  0  0  0  0  0  0  0
  1  2  1  0
  2  3  2  0
  3  4  1  0
  3  5  1  0
  5  6  1  0
  5  7  1  0
  5  8  1  0
  8  9  1  0
  9 10  1  0
  9 11  1  0
  9 12  1  0
 12 13  1  0
 12 14  1  0
 12 15  1  0
 15 16  1  0
 15 17  1  0
 17 18  1  0
 17 19  1  0
 17 20  1  0
 20 21  2  0
 21 22  1  0
 21 23  1  0
 23 24  1  0
 23 25  2  0
 25 26  1  0
 26 27  1  0
 27 28  1  0
 27 29  1  0
 27 30  1  0
 30 31  1  0
 30 32  1  0
 30 33  1  0
 25 34  1  0
 34 35  1  0
 34 36  2  0
 36 37  1  0
 15 38  1  0
 38 39  1  0
 38 40  1  0
 38 41  1  0
 41 42  1  0
 41 43  1  0
  2 44  1  0
 44 45  2  0
 45 46  1  0
 45 47  1  0
 47 48  1  0
 47 49  2  0
 49 50  1  0
 49 51  1  0
 51 52  1  0
 51 53  2  0
 53 54  1  0
 41  8  1  0
 53 44  1  0
 36 20  1  0
M  CHG  1  15   1
M  END
>  <UniqueID>  (6) 
6

>  <SMILES>  (6) 
CCOc1ccc(C[NH+]2CCN(C/C=C/c3ccccc3)CC2)cc1

>  <Energy>  (6) 
66.99315546603385

>  <Genealogy>  (6) 
CCOc1ccc(C[NH+]2CCN(CC=Cc3ccccc3)CC2)cc1 (protonated)
CCOc1ccc(C[NH+]2CCN(C/C=C/c3ccccc3)CC2)cc1 (cis-trans isomerization)
CCOc1ccc(C[NH+]2CCN(C/C=C/c3ccccc3)CC2)cc1 (3D coordinates assigned)
CCOc1ccc(C[NH+]2CCN(C/C=C/c3ccccc3)CC2)cc1 (nonaromatic ring conformer: 66.99315546603385 kcal/mol)

>  <smiles>  (6) 
CCOc1ccc(CN2CCN(CC=Cc3ccccc3)CC2)cc1

>  <score_type>  (6) 
oracle

>  <origin>  (6) 
adg

>  <m_score__min__energy>  (6) 
-8.0700000000000003

>  <m_primary>  (6) 
energy

$$$$
6:0
     RDKit          3D

 47 49  0  0  0  0  0  0  0  0999 V2000
   -3.0950   25.3210  -25.9930 C   0  0  0  0  0  0  0  0  0  0  0  0
   -2.0630   24.4760  -26.7510 C   0  0  0  0  0  0  0  0  0  0  0  0
   -2.6460   23.4810  -27.7920 C   0  0  1  0  0  0  0  0  0  0  0  0
   -2.9120   24.1410  -29.1340 C   0  0  0  0  0  0  0  0  0  0  0  0
   -2.4430   25.2930  -29.3360 O   0  0  0  0  0  0  0  0  0  0  0  0
   -3.7400   23.5360  -30.1460 N   0  0  0  0  0  0  0  0  0  0  0  0
   -3.4250   22.2080  -30.6920 C   0  0  0  0  0  0  0  0  0  0  0  0
   -4.7100   21.3970  -30.8860 C   0  0  0  0  0  0  0  0  0  0  0  0
   -5.7800   22.2150  -31.4690 N   0  0  0  0  0  0  0  0  0  0  0  0
   -7.0420   21.6020  -31.7680 C   0  0  0  0  0  0  0  0  0  0  0  0
   -8.2130   22.0900  -31.1650 C   0  0  0  0  0  0  0  0  0  0  0  0
   -9.4480   21.5020  -31.4480 C   0  0  0  0  0  0  0  0  0  0  0  0
   -9.5240   20.4250  -32.3350 C   0  0  0  0  0  0  0  0  0  0  0  0
   -8.3650   19.9360  -32.9430 C   0  0  0  0  0  0  0  0  0  0  0  0
   -7.1220   20.5200  -32.6640 C   0  0  0  0  0  0  0  0  0  0  0  0
   -5.6900   19.9000  -33.4730 Cl  0  0  0  0  0  0  0  0  0  0  0  0
   -5.5240   23.5980  -31.8810 C   0  0  0  0  0  0  0  0  0  0  0  0
   -4.7910   24.3550  -30.7670 C   0  0  0  0  0  0  0  0  0  0  0  0
   -1.9520   22.1250  -27.9110 C   0  0  0  0  0  0  0  0  0  0  0  0
   -0.6430   21.9630  -28.4130 C   0  0  0  0  0  0  0  0  0  0  0  0
   -0.0690   20.6910  -28.5030 C   0  0  0  0  0  0  0  0  0  0  0  0
   -0.7810   19.5670  -28.0840 C   0  0  0  0  0  0  0  0  0  0  0  0
   -2.0690   19.7110  -27.5670 C   0  0  0  0  0  0  0  0  0  0  0  0
   -2.6500   20.9790  -27.4800 C   0  0  0  0  0  0  0  0  0  0  0  0
   -2.9452   25.1983  -24.9102 H   0  0  0  0  0  0  0  0  0  0  0  0
   -2.9709   26.3802  -26.2627 H   0  0  0  0  0  0  0  0  0  0  0  0
   -4.1089   24.9904  -26.2627 H   0  0  0  0  0  0  0  0  0  0  0  0
   -1.3865   25.1627  -27.2809 H   0  0  0  0  0  0  0  0  0  0  0  0
   -1.5626   23.8581  -25.9909 H   0  0  0  0  0  0  0  0  0  0  0  0
   -3.6182   23.2025  -27.3592 H   0  0  0  0  0  0  0  0  0  0  0  0
   -2.9191   22.3246  -31.6618 H   0  0  0  0  0  0  0  0  0  0  0  0
   -2.7684   21.6768  -29.9872 H   0  0  0  0  0  0  0  0  0  0  0  0
   -4.5008   20.5511  -31.5573 H   0  0  0  0  0  0  0  0  0  0  0  0
   -5.0456   21.0415  -29.9006 H   0  0  0  0  0  0  0  0  0  0  0  0
   -8.1572   22.9385  -30.4672 H   0  0  0  0  0  0  0  0  0  0  0  0
  -10.3618   21.8872  -30.9720 H   0  0  0  0  0  0  0  0  0  0  0  0
  -10.4972   19.9617  -32.5548 H   0  0  0  0  0  0  0  0  0  0  0  0
   -8.4284   19.0898  -33.6430 H   0  0  0  0  0  0  0  0  0  0  0  0
   -4.9035   23.5977  -32.7893 H   0  0  0  0  0  0  0  0  0  0  0  0
   -6.4838   24.0962  -32.0823 H   0  0  0  0  0  0  0  0  0  0  0  0
   -4.3316   25.2586  -31.1941 H   0  0  0  0  0  0  0  0  0  0  0  0
   -5.5257   24.6124  -29.9899 H   0  0  0  0  0  0  0  0  0  0  0  0
   -0.0696   22.8444  -28.7361 H   0  0  0  0  0  0  0  0  0  0  0  0
    0.9481   20.5763  -28.9059 H   0  0  0  0  0  0  0  0  0  0  0  0
   -0.3274   18.5679  -28.1611 H   0  0  0  0  0  0  0  0  0  0  0  0
   -2.6273   18.8260  -27.2277 H   0  0  0  0  0  0  0  0  0  0  0  0
   -3.6652   21.0840  -27.0698 H   0  0  0  0  0  0  0  0  0  0  0  0
  1  2  1  0
  2  3  1  0
  3  4  1  0
  4  5  2  0
  4  6  1  0
  6  7  1  0
  7  8  1  0
  8  9  1  0
  9 10  1  0
 10 11  2  0
 11 12  1  0
 12 13  2  0
 13 14  1  0
 14 15  2  0
 15 16  1  0
  9 17  1  0
 17 18  1  0
  3 19  1  0
 19 20  2  0
 20 21  1  0
 21 22  2  0
 22 23  1  0
 23 24  2  0
 18  6  1  0
 24 19  1  0
 15 10  1  0
  1 25  1  0
  1 26  1  0
  1 27  1  0
  2 28  1  0
  2 29  1  0
  3 30  1  1
  7 31  1  0
  7 32  1  0
  8 33  1  0
  8 34  1  0
 11 35  1  0
 12 36  1  0
 13 37  1  0
 14 38  1  0
 17 39  1  0
 17 40  1  0
 18 41  1  0
 18 42  1  0
 20 43  1  0
 21 44  1  0
 22 45  1  0
 23 46  1  0
 24 47  1  0
M  END
>  <UniqueID>  (7) 
7

>  <SMILES>  (7) 
CC[C@@H](C(=O)N1CCN(c2ccccc2Cl)CC1)c1ccccc1

>  <Energy>  (7) 
59.09605662881194

>  <Genealogy>  (7) 
CC[C@@H](C(=O)N1CCN(c2ccccc2Cl)CC1)c1ccccc1 (chirality)
CC[C@@H](C(=O)N1CCN(c2ccccc2Cl)CC1)c1ccccc1 (3D coordinates assigned)
CC[C@@H](C(=O)N1CCN(c2ccccc2Cl)CC1)c1ccccc1 (nonaromatic ring conformer: 59.09605662881194 kcal/mol)

>  <smiles>  (7) 
CCC(C(=O)N1CCN(c2ccccc2Cl)CC1)c1ccccc1

>  <score_type>  (7) 
oracle

>  <origin>  (7) 
adg

>  <m_score__min__energy>  (7) 
-8.9499999999999993

>  <m_primary>  (7) 
energy

$$$$
7:0
     RDKit          3D

 58 61  0  0  0  0  0  0  0  0999 V2000
    0.2470   25.6820  -36.6460 C   0  0  0  0  0  0  0  0  0  0  0  0
    1.6150   25.0370  -36.4570 C   0  0  0  0  0  0  0  0  0  0  0  0
    1.5850   23.6630  -36.8440 O   0  0  0  0  0  0  0  0  0  0  0  0
    1.2210   22.5880  -36.0160 C   0  0  0  0  0  0  0  0  0  0  0  0
    2.0910   21.5200  -35.7230 C   0  0  0  0  0  0  0  0  0  0  0  0
    1.6730   20.4780  -34.8900 C   0  0  0  0  0  0  0  0  0  0  0  0
    0.3870   20.4900  -34.3300 C   0  0  0  0  0  0  0  0  0  0  0  0
   -0.0780   19.3460  -33.4710 C   0  0  0  0  0  0  0  0  0  0  0  0
   -1.5350   19.5130  -33.1350 C   0  0  0  0  0  0  0  0  0  0  0  0
   -1.9160   20.2950  -32.0400 C   0  0  0  0  0  0  0  0  0  0  0  0
   -3.2660   20.4170  -31.6940 C   0  0  0  0  0  0  0  0  0  0  0  0
   -3.6130   21.2230  -30.5010 C   0  0  0  0  0  0  0  0  0  0  0  0
   -3.3000   20.7870  -29.3590 O   0  0  0  0  0  0  0  0  0  0  0  0
   -4.2620   22.5030  -30.6290 N   0  0  0  0  0  0  0  0  0  0  0  0
   -5.0760   22.8040  -31.8200 C   0  0  0  0  0  0  0  0  0  0  0  0
   -6.1220   23.8820  -31.5170 C   0  0  0  0  0  0  0  0  0  0  0  0
   -5.4860   25.1590  -30.9430 C   0  0  0  0  0  0  0  0  0  0  0  0
   -4.2610   24.8950  -30.0460 C   0  0  0  0  0  0  0  0  0  0  0  0
   -4.2180   23.4590  -29.5130 C   0  0  0  0  0  0  0  0  0  0  0  0
   -4.2400   19.7380  -32.4650 C   0  0  0  0  0  0  0  0  0  0  0  0
   -5.6220   19.8510  -32.2030 C   0  0  0  0  0  0  0  0  0  0  0  0
   -6.5560   19.1510  -32.9800 C   0  0  0  0  0  0  0  0  0  0  0  0
   -8.0250   19.3060  -32.7140 C   0  0  0  0  0  0  0  0  0  0  0  0
   -6.1160   18.3630  -34.0520 C   0  0  0  0  0  0  0  0  0  0  0  0
   -4.7540   18.2560  -34.3350 C   0  0  0  0  0  0  0  0  0  0  0  0
   -3.8090   18.9410  -33.5550 C   0  0  0  0  0  0  0  0  0  0  0  0
   -2.4820   18.8450  -33.8530 N   0  0  0  0  0  0  0  0  0  0  0  0
   -0.4830   21.5490  -34.6290 C   0  0  0  0  0  0  0  0  0  0  0  0
   -0.0650   22.5900  -35.4610 C   0  0  0  0  0  0  0  0  0  0  0  0
   -0.1984   25.8920  -35.6624 H   0  0  0  0  0  0  0  0  0  0  0  0
    0.3591   26.6221  -37.2060 H   0  0  0  0  0  0  0  0  0  0  0  0
   -0.4070   24.9974  -37.2060 H   0  0  0  0  0  0  0  0  0  0  0  0
    2.3533   25.5696  -37.0744 H   0  0  0  0  0  0  0  0  0  0  0  0
    1.8900   25.0981  -35.3937 H   0  0  0  0  0  0  0  0  0  0  0  0
    3.1040   21.5056  -36.1515 H   0  0  0  0  0  0  0  0  0  0  0  0
    2.3565   19.6440  -34.6725 H   0  0  0  0  0  0  0  0  0  0  0  0
    0.0642   18.4007  -34.0153 H   0  0  0  0  0  0  0  0  0  0  0  0
    0.5077   19.3326  -32.5400 H   0  0  0  0  0  0  0  0  0  0  0  0
   -1.1501   20.8170  -31.4476 H   0  0  0  0  0  0  0  0  0  0  0  0
   -4.4164   23.1600  -32.6250 H   0  0  0  0  0  0  0  0  0  0  0  0
   -5.5996   21.8862  -32.1257 H   0  0  0  0  0  0  0  0  0  0  0  0
   -6.6497   24.1361  -32.4481 H   0  0  0  0  0  0  0  0  0  0  0  0
   -6.8147   23.4799  -30.7631 H   0  0  0  0  0  0  0  0  0  0  0  0
   -5.1705   25.7965  -31.7820 H   0  0  0  0  0  0  0  0  0  0  0  0
   -6.2475   25.6401  -30.3116 H   0  0  0  0  0  0  0  0  0  0  0  0
   -3.3489   25.0804  -30.6322 H   0  0  0  0  0  0  0  0  0  0  0  0
   -4.3314   25.5694  -29.1798 H   0  0  0  0  0  0  0  0  0  0  0  0
   -3.2888   23.3103  -28.9433 H   0  0  0  0  0  0  0  0  0  0  0  0
   -5.0882   23.2912  -28.8614 H   0  0  0  0  0  0  0  0  0  0  0  0
   -5.9699   20.4944  -31.3814 H   0  0  0  0  0  0  0  0  0  0  0  0
   -8.2011   19.3246  -31.6283 H   0  0  0  0  0  0  0  0  0  0  0  0
   -8.3810   20.2467  -33.1594 H   0  0  0  0  0  0  0  0  0  0  0  0
   -8.5695   18.4603  -33.1594 H   0  0  0  0  0  0  0  0  0  0  0  0
   -6.8480   17.8262  -34.6734 H   0  0  0  0  0  0  0  0  0  0  0  0
   -4.4183   17.6305  -35.1752 H   0  0  0  0  0  0  0  0  0  0  0  0
   -2.1770   18.2470  -34.6560 H   0  0  0  0  0  0  0  0  0  0  0  0
   -1.4986   21.5596  -34.2065 H   0  0  0  0  0  0  0  0  0  0  0  0
   -0.7525   23.4196  -35.6826 H   0  0  0  0  0  0  0  0  0  0  0  0
  1  2  1  0
  2  3  1  0
  3  4  1  0
  4  5  2  0
  5  6  1  0
  6  7  2  0
  7  8  1  0
  8  9  1  0
  9 10  2  0
 10 11  1  0
 11 12  1  0
 12 13  2  0
 12 14  1  0
 14 15  1  0
 15 16  1  0
 16 17  1  0
 17 18  1  0
 18 19  1  0
 11 20  2  0
 20 21  1  0
 21 22  2  0
 22 23  1  0
 22 24  1  0
 24 25  2  0
 25 26  1  0
 26 27  2  0
  7 28  1  0
 28 29  2  0
 29  4  1  0
 27  9  1  0
 19 14  1  0
 26 20  1  0
  1 30  1  0
  1 31  1  0
  1 32  1  0
  2 33  1  0
  2 34  1  0
  5 35  1  0
  6 36  1  0
  8 37  1  0
  8 38  1  0
 10 39  1  0
 15 40  1  0
 15 41  1  0
 16 42  1  0
 16 43  1  0
 17 44  1  0
 17 45  1  0
 18 46  1  0
 18 47  1  0
 19 48  1  0
 19 49  1  0
 21 50  1  0
 23 51  1  0
 23 52  1  0
 23 53  1  0
 24 54  1  0
 25 55  1  0
 27 56  1  0
 28 57  1  0
 29 58  1  0
M  CHG  1  27   1
M  END
>  <UniqueID>  (8) 
8

>  <SMILES>  (8) 
CCOc1ccc(Cc2cc(C(=O)N3CCCCC3)c3cc(C)ccc3[nH+]2)cc1

>  <Energy>  (8) 
67.6115521876496

>  <Genealogy>  (8) 
CCOc1ccc(Cc2cc(C(=O)N3CCCCC3)c3cc(C)ccc3[nH+]2)cc1 (protonated)
CCOc1ccc(Cc2cc(C(=O)N3CCCCC3)c3cc(C)ccc3[nH+]2)cc1 (3D coordinates assigned)
CCOc1ccc(Cc2cc(C(=O)N3CCCCC3)c3cc(C)ccc3[nH+]2)cc1 (nonaromatic ring conformer: 67.6115521876496 kcal/mol)

>  <smiles>  (8) 
CCOc1ccc(Cc2cc(C(=O)N3CCCCC3)c3cc(C)ccc3n2)cc1

>  <score_type>  (8) 
oracle

>  <origin>  (8) 
adg

>  <m_score__min__energy>  (8) 
-8.3699999999999992

>  <m_primary>  (8) 
energy

$$$$
8:0
     RDKit          3D

 57 60  0  0  0  0  0  0  0  0999 V2000
   -3.8980   24.0730  -27.4620 C   0  0  0  0  0  0  0  0  0  0  0  0
   -4.4580   22.9490  -28.3470 C   0  0  0  0  0  0  0  0  0  0  0  0
   -5.1960   23.4210  -29.5460 N   0  0  2  0  0  0  0  0  0  0  0  0
   -4.4550   23.3660  -30.8330 C   0  0  0  0  0  0  0  0  0  0  0  0
   -5.5870   23.4100  -31.8890 C   0  0  0  0  0  0  0  0  0  0  0  0
   -6.8180   23.4810  -31.0600 N   0  0  2  0  0  0  0  0  0  0  0  0
   -8.0830   23.1020  -31.7420 C   0  0  0  0  0  0  0  0  0  0  0  0
   -8.7170   21.7610  -31.2870 C   0  0  0  0  0  0  0  0  0  0  0  0
   -8.0010   20.5410  -31.8230 C   0  0  0  0  0  0  0  0  0  0  0  0
   -8.5190   19.2590  -31.6100 C   0  0  0  0  0  0  0  0  0  0  0  0
   -7.8540   18.1350  -32.0960 C   0  0  0  0  0  0  0  0  0  0  0  0
   -6.6570   18.2500  -32.8470 C   0  0  0  0  0  0  0  0  0  0  0  0
   -6.1290   19.5570  -33.0450 C   0  0  0  0  0  0  0  0  0  0  0  0
   -6.8260   20.6810  -32.5740 C   0  0  0  0  0  0  0  0  0  0  0  0
   -4.8570   19.7940  -33.8110 C   0  0  0  0  0  0  0  0  0  0  0  0
   -3.9890   18.5490  -33.8450 C   0  0  0  0  0  0  0  0  0  0  0  0
   -4.8420   17.3520  -34.2650 C   0  0  0  0  0  0  0  0  0  0  0  0
   -5.9380   17.0430  -33.2960 N   0  0  0  0  0  0  0  0  0  0  0  0
   -5.3760   16.3520  -32.1090 C   0  0  0  0  0  0  0  0  0  0  0  0
   -6.8720   16.1140  -33.9880 C   0  0  0  0  0  0  0  0  0  0  0  0
   -6.8690   24.8360  -30.4520 C   0  0  0  0  0  0  0  0  0  0  0  0
   -5.7410   24.7930  -29.3990 C   0  0  0  0  0  0  0  0  0  0  0  0
   -6.4090   22.6980  -29.9020 C   0  0  0  0  0  0  0  0  0  0  0  0
   -4.0308   23.8065  -26.4031 H   0  0  0  0  0  0  0  0  0  0  0  0
   -2.8272   24.2081  -27.6746 H   0  0  0  0  0  0  0  0  0  0  0  0
   -4.4350   25.0092  -27.6746 H   0  0  0  0  0  0  0  0  0  0  0  0
   -3.6169   22.3255  -28.6843 H   0  0  0  0  0  0  0  0  0  0  0  0
   -5.1822   22.3961  -27.7307 H   0  0  0  0  0  0  0  0  0  0  0  0
   -3.7818   24.2295  -30.9388 H   0  0  0  0  0  0  0  0  0  0  0  0
   -3.8109   22.4790  -30.9247 H   0  0  0  0  0  0  0  0  0  0  0  0
   -5.4925   24.2971  -32.5326 H   0  0  0  0  0  0  0  0  0  0  0  0
   -5.5748   22.5481  -32.5724 H   0  0  0  0  0  0  0  0  0  0  0  0
   -8.8169   23.9013  -31.5614 H   0  0  0  0  0  0  0  0  0  0  0  0
   -7.8230   22.9663  -32.8022 H   0  0  0  0  0  0  0  0  0  0  0  0
   -8.6964   21.7216  -30.1879 H   0  0  0  0  0  0  0  0  0  0  0  0
   -9.7414   21.7360  -31.6869 H   0  0  0  0  0  0  0  0  0  0  0  0
   -9.4601   19.1371  -31.0537 H   0  0  0  0  0  0  0  0  0  0  0  0
   -8.2671   17.1360  -31.8924 H   0  0  0  0  0  0  0  0  0  0  0  0
   -6.4437   21.6878  -32.7980 H   0  0  0  0  0  0  0  0  0  0  0  0
   -5.1090   20.0825  -34.8421 H   0  0  0  0  0  0  0  0  0  0  0  0
   -4.2943   20.5939  -33.3075 H   0  0  0  0  0  0  0  0  0  0  0  0
   -3.1719   18.6900  -34.5678 H   0  0  0  0  0  0  0  0  0  0  0  0
   -3.5643   18.3676  -32.8467 H   0  0  0  0  0  0  0  0  0  0  0  0
   -5.2922   17.5697  -35.2448 H   0  0  0  0  0  0  0  0  0  0  0  0
   -4.1798   16.4744  -34.3014 H   0  0  0  0  0  0  0  0  0  0  0  0
   -5.7606   16.8248  -31.1933 H   0  0  0  0  0  0  0  0  0  0  0  0
   -5.6722   15.2928  -32.1269 H   0  0  0  0  0  0  0  0  0  0  0  0
   -4.2787   16.4262  -32.1269 H   0  0  0  0  0  0  0  0  0  0  0  0
   -7.4441   15.5450  -33.2404 H   0  0  0  0  0  0  0  0  0  0  0  0
   -7.5646   16.6919  -34.6176 H   0  0  0  0  0  0  0  0  0  0  0  0
   -6.2978   15.4184  -34.6176 H   0  0  0  0  0  0  0  0  0  0  0  0
   -6.6758   25.6139  -31.2054 H   0  0  0  0  0  0  0  0  0  0  0  0
   -7.8517   25.0789  -30.0216 H   0  0  0  0  0  0  0  0  0  0  0  0
   -4.9712   25.5488  -29.6138 H   0  0  0  0  0  0  0  0  0  0  0  0
   -6.0922   25.0120  -28.3798 H   0  0  0  0  0  0  0  0  0  0  0  0
   -7.1586   22.7311  -29.0976 H   0  0  0  0  0  0  0  0  0  0  0  0
   -6.2782   21.6212  -30.0848 H   0  0  0  0  0  0  0  0  0  0  0  0
  1  2  1  0
  3  2  1  1
  3  4  1  0
  4  5  1  0
  5  6  1  0
  6  7  1  6
  7  8  1  0
  8  9  1  0
  9 10  2  0
 10 11  1  0
 11 12  2  0
 12 13  1  0
 13 14  2  0
 13 15  1  0
 15 16  1  0
 16 17  1  0
 17 18  1  0
 18 19  1  0
 18 20  1  0
  6 21  1  0
 21 22  1  0
  6 23  1  0
 22  3  1  0
 23  3  1  0
 14  9  1  0
 18 12  1  0
  1 24  1  0
  1 25  1  0
  1 26  1  0
  2 27  1  0
  2 28  1  0
  4 29  1  0
  4 30  1  0
  5 31  1  0
  5 32  1  0
  7 33  1  0
  7 34  1  0
  8 35  1  0
  8 36  1  0
 10 37  1  0
 11 38  1  0
 14 39  1  0
 15 40  1  0
 15 41  1  0
 16 42  1  0
 16 43  1  0
 17 44  1  0
 17 45  1  0
 19 46  1  0
 19 47  1  0
 19 48  1  0
 20 49  1  0
 20 50  1  0
 20 51  1  0
 21 52  1  0
 21 53  1  0
 22 54  1  0
 22 55  1  0
 23 56  1  0
 23 57  1  0
M  CHG  3   3   1   6   1  18   1
M  END
>  <UniqueID>  (9) 
9

>  <SMILES>  (9) 
CC[N+]12CC[N+](CCc3ccc4c(c3)CCC[N+]4(C)C)(CC1)C2

>  <Energy>  (9) 
118.14293395343724

>  <Genealogy>  (9) 
CC[N+]12CC[N+](CCc3ccc4c(c3)CCC[N+]4(C)C)(CC1)C2 (3D coordinates assigned)
CC[N+]12CC[N+](CCc3ccc4c(c3)CCC[N+]4(C)C)(CC1)C2 (nonaromatic ring conformer: 118.14293395343724 kcal/mol)

>  <smiles>  (9) 
CC[N+]12CC[N+](CCc3ccc4c(c3)CCC[N+]4(C)C)(CC1)C2

>  <score_type>  (9) 
oracle

>  <origin>  (9) 
adg

>  <m_score__min__energy>  (9) 
-6.2800000000000002

>  <m_primary>  (9) 
energy

$$$$
9:0
     RDKit          3D

 37 38  0  0  0  0  0  0  0  0999 V2000
   -6.2490   17.4120  -32.2390 C   0  0  0  0  0  0  0  0  0  0  0  0
   -6.2360   17.5510  -33.7610 C   0  0  0  0  0  0  0  0  0  0  0  0
   -5.8140   18.9540  -34.2180 C   0  0  0  0  0  0  0  0  0  0  0  0
   -6.4780   20.0260  -33.4000 C   0  0  0  0  0  0  0  0  0  0  0  0
   -5.7340   21.0580  -32.9210 N   0  0  0  0  0  0  0  0  0  0  0  0
   -6.2820   22.0280  -32.1430 C   0  0  0  0  0  0  0  0  0  0  0  0
   -5.4600   23.1100  -31.6620 N   0  0  0  0  0  0  0  0  0  0  0  0
   -4.0010   22.9570  -31.6030 C   0  0  0  0  0  0  0  0  0  0  0  0
   -3.4290   23.8300  -30.4810 C   0  0  0  0  0  0  0  0  0  0  0  0
   -3.8840   25.2210  -30.6030 N   0  0  0  0  0  0  0  0  0  0  0  0
   -5.3500   25.2970  -30.5460 C   0  0  0  0  0  0  0  0  0  0  0  0
   -5.9970   24.4740  -31.6660 C   0  0  0  0  0  0  0  0  0  0  0  0
   -7.6480   21.9720  -31.8400 C   0  0  0  0  0  0  0  0  0  0  0  0
   -8.4070   20.9090  -32.3420 C   0  0  0  0  0  0  0  0  0  0  0  0
   -9.8620   20.7970  -31.9970 C   0  0  0  0  0  0  0  0  0  0  0  0
   -7.8040   19.9460  -33.0940 N   0  0  0  0  0  0  0  0  0  0  0  0
   -6.1559   18.4069  -31.7791 H   0  0  0  0  0  0  0  0  0  0  0  0
   -7.1944   16.9482  -31.9212 H   0  0  0  0  0  0  0  0  0  0  0  0
   -5.4060   16.7809  -31.9212 H   0  0  0  0  0  0  0  0  0  0  0  0
   -5.5298   16.8171  -34.1765 H   0  0  0  0  0  0  0  0  0  0  0  0
   -7.2601   17.3751  -34.1221 H   0  0  0  0  0  0  0  0  0  0  0  0
   -4.7231   19.0501  -34.1142 H   0  0  0  0  0  0  0  0  0  0  0  0
   -6.1218   19.0812  -35.2664 H   0  0  0  0  0  0  0  0  0  0  0  0
   -3.7525   21.9034  -31.4078 H   0  0  0  0  0  0  0  0  0  0  0  0
   -3.5653   23.2705  -32.5631 H   0  0  0  0  0  0  0  0  0  0  0  0
   -3.7587   23.4288  -29.5113 H   0  0  0  0  0  0  0  0  0  0  0  0
   -2.3316   23.8158  -30.5550 H   0  0  0  0  0  0  0  0  0  0  0  0
   -3.5600   25.6070  -31.5210 H   0  0  0  0  0  0  0  0  0  0  0  0
   -5.6909   24.9096  -29.5746 H   0  0  0  0  0  0  0  0  0  0  0  0
   -5.6472   26.3484  -30.6732 H   0  0  0  0  0  0  0  0  0  0  0  0
   -7.0851   24.4373  -31.5088 H   0  0  0  0  0  0  0  0  0  0  0  0
   -5.7750   24.9460  -32.6345 H   0  0  0  0  0  0  0  0  0  0  0  0
   -8.1160   22.7497  -31.2185 H   0  0  0  0  0  0  0  0  0  0  0  0
   -9.9799   20.7879  -30.9034 H   0  0  0  0  0  0  0  0  0  0  0  0
  -10.4057   21.6560  -32.4173 H   0  0  0  0  0  0  0  0  0  0  0  0
  -10.2678   19.8650  -32.4173 H   0  0  0  0  0  0  0  0  0  0  0  0
   -8.3660   19.1360  -33.4430 H   0  0  0  0  0  0  0  0  0  0  0  0
  1  2  1  0
  2  3  1  0
  3  4  1  0
  4  5  2  0
  5  6  1  0
  6  7  1  0
  7  8  1  0
  8  9  1  0
  9 10  1  0
 10 11  1  0
 11 12  1  0
  6 13  2  0
 13 14  1  0
 14 15  1  0
 14 16  2  0
 16  4  1  0
 12  7  1  0
  1 17  1  0
  1 18  1  0
  1 19  1  0
  2 20  1  0
  2 21  1  0
  3 22  1  0
  3 23  1  0
  8 24  1  0
  8 25  1  0
  9 26  1  0
  9 27  1  0
 10 28  1  0
 11 29  1  0
 11 30  1  0
 12 31  1  0
 12 32  1  0
 13 33  1  0
 15 34  1  0
 15 35  1  0
 15 36  1  0
 16 37  1  0
M  CHG  1  16   1
M  END
>  <UniqueID>  (10) 
10

>  <SMILES>  (10) 
CCCc1nc(N2CCNCC2)cc(C)[nH+]1

>  <Energy>  (10) 
31.21983327050079

>  <Genealogy>  (10) 
CCCc1nc(N2CCNCC2)cc(C)[nH+]1 (protonated)
CCCc1nc(N2CCNCC2)cc(C)[nH+]1 (3D coordinates assigned)
CCCc1nc(N2CCNCC2)cc(C)[nH+]1 (nonaromatic ring conformer: 31.21983327050079 kcal/mol)

>  <smiles>  (10) 
CCCc1nc(C)cc(N2CCNCC2)n1

>  <score_type>  (10) 
oracle

>  <origin>  (10) 
adg

>  <m_score__min__energy>  (10) 
-7.0899999999999999

>  <m_primary>  (10) 
energy

$$$$
10:0
     RDKit          3D

 51 53  0  0  0  0  0  0  0  0999 V2000
   -3.8230   22.4340  -28.0400 C   0  0  0  0  0  0  0  0  0  0  0  0
   -3.5150   23.8340  -28.5670 C   0  0  0  0  0  0  0  0  0  0  0  0
   -3.5590   23.9130  -30.0980 C   0  0  0  0  0  0  0  0  0  0  0  0
   -4.2310   25.1440  -30.5390 N   0  0  0  0  0  0  0  0  0  0  0  0
   -5.4960   24.8210  -31.2100 C   0  0  0  0  0  0  0  0  0  0  0  0
   -5.6630   23.2980  -31.3080 C   0  0  0  0  0  0  0  0  0  0  0  0
   -5.7220   22.8170  -32.7040 N   0  0  0  0  0  0  0  0  0  0  0  0
   -5.6410   21.3630  -32.7990 C   0  0  0  0  0  0  0  0  0  0  0  0
   -6.7960   20.5660  -32.5580 C   0  0  0  0  0  0  0  0  0  0  0  0
   -8.0270   21.1400  -32.1450 C   0  0  0  0  0  0  0  0  0  0  0  0
   -9.1330   20.3460  -31.8610 C   0  0  0  0  0  0  0  0  0  0  0  0
   -9.0470   18.9660  -31.9670 C   0  0  0  0  0  0  0  0  0  0  0  0
   -7.8610   18.3730  -32.3880 C   0  0  0  0  0  0  0  0  0  0  0  0
   -6.7260   19.1560  -32.7300 C   0  0  0  0  0  0  0  0  0  0  0  0
   -5.5740   18.5700  -33.2090 N   0  0  0  0  0  0  0  0  0  0  0  0
   -5.6060   17.1730  -33.7020 C   0  0  0  0  0  0  0  0  0  0  0  0
   -4.3980   19.2890  -33.2560 C   0  0  0  0  0  0  0  0  0  0  0  0
   -3.1530   18.6390  -33.4460 C   0  0  0  0  0  0  0  0  0  0  0  0
   -1.9690   19.3590  -33.5590 C   0  0  0  0  0  0  0  0  0  0  0  0
   -1.9820   20.7510  -33.4710 C   0  0  0  0  0  0  0  0  0  0  0  0
   -0.8150   21.5230  -33.5910 O   0  0  0  0  0  0  0  0  0  0  0  0
    0.1650   21.3490  -34.6100 C   0  0  0  0  0  0  0  0  0  0  0  0
   -3.1890   21.4100  -33.2430 C   0  0  0  0  0  0  0  0  0  0  0  0
   -4.4120   20.7040  -33.0990 C   0  0  0  0  0  0  0  0  0  0  0  0
   -3.8201   22.4474  -26.9401 H   0  0  0  0  0  0  0  0  0  0  0  0
   -4.8126   22.1161  -28.4002 H   0  0  0  0  0  0  0  0  0  0  0  0
   -3.0582   21.7302  -28.4002 H   0  0  0  0  0  0  0  0  0  0  0  0
   -4.2566   24.5354  -28.1570 H   0  0  0  0  0  0  0  0  0  0  0  0
   -2.4934   24.0910  -28.2503 H   0  0  0  0  0  0  0  0  0  0  0  0
   -2.5309   23.9036  -30.4891 H   0  0  0  0  0  0  0  0  0  0  0  0
   -4.1221   23.0484  -30.4792 H   0  0  0  0  0  0  0  0  0  0  0  0
   -4.4650   25.7050  -29.6860 H   0  0  0  0  0  0  0  0  0  0  0  0
   -6.3325   25.2431  -30.6336 H   0  0  0  0  0  0  0  0  0  0  0  0
   -5.4878   25.2498  -32.2229 H   0  0  0  0  0  0  0  0  0  0  0  0
   -4.8097   22.8179  -30.8066 H   0  0  0  0  0  0  0  0  0  0  0  0
   -6.6177   23.0379  -30.8275 H   0  0  0  0  0  0  0  0  0  0  0  0
   -5.0140   23.3050  -33.2910 H   0  0  0  0  0  0  0  0  0  0  0  0
   -6.6170   23.1390  -33.1360 H   0  0  0  0  0  0  0  0  0  0  0  0
   -8.1076   22.2327  -32.0478 H   0  0  0  0  0  0  0  0  0  0  0  0
  -10.0790   20.8142  -31.5513 H   0  0  0  0  0  0  0  0  0  0  0  0
   -9.9167   18.3401  -31.7182 H   0  0  0  0  0  0  0  0  0  0  0  0
   -7.8009   17.2768  -32.4574 H   0  0  0  0  0  0  0  0  0  0  0  0
   -5.6218   16.4824  -32.8460 H   0  0  0  0  0  0  0  0  0  0  0  0
   -6.5079   17.0204  -34.3130 H   0  0  0  0  0  0  0  0  0  0  0  0
   -4.7121   16.9792  -34.3130 H   0  0  0  0  0  0  0  0  0  0  0  0
   -3.1228   17.5410  -33.5054 H   0  0  0  0  0  0  0  0  0  0  0  0
   -1.0184   18.8289  -33.7184 H   0  0  0  0  0  0  0  0  0  0  0  0
    1.1477   21.1745  -34.1476 H   0  0  0  0  0  0  0  0  0  0  0  0
   -0.1050   20.4847  -35.2346 H   0  0  0  0  0  0  0  0  0  0  0  0
    0.2090   22.2534  -35.2346 H   0  0  0  0  0  0  0  0  0  0  0  0
   -3.1939   22.5077  -33.1727 H   0  0  0  0  0  0  0  0  0  0  0  0
  1  2  1  0
  2  3  1  0
  3  4  1  0
  4  5  1  0
  5  6  1  0
  6  7  1  0
  7  8  1  0
  8  9  2  0
  9 10  1  0
 10 11  2  0
 11 12  1  0
 12 13  2  0
 13 14  1  0
 14 15  2  0
 15 16  1  0
 15 17  1  0
 17 18  2  0
 18 19  1  0
 19 20  2  0
 20 21  1  0
 21 22  1  0
 20 23  1  0
 23 24  2  0
 24  8  1  0
 14  9  1  0
 24 17  1  0
  1 25  1  0
  1 26  1  0
  1 27  1  0
  2 28  1  0
  2 29  1  0
  3 30  1  0
  3 31  1  0
  4 32  1  0
  5 33  1  0
  5 34  1  0
  6 35  1  0
  6 36  1  0
  7 37  1  0
  7 38  1  0
 10 39  1  0
 11 40  1  0
 12 41  1  0
 13 42  1  0
 16 43  1  0
 16 44  1  0
 16 45  1  0
 18 46  1  0
 19 47  1  0
 22 48  1  0
 22 49  1  0
 22 50  1  0
 23 51  1  0
M  CHG  2   7   1  15   1
M  END
>  <UniqueID>  (11) 
11

>  <SMILES>  (11) 
CCCNCC[NH2+]c1c2ccccc2[n+](C)c2ccc(OC)cc12

>  <Energy>  (11) 
74.54952318032582

>  <Genealogy>  (11) 
CCCNCC[NH2+]c1c2ccccc2[n+](C)c2ccc(OC)cc12 (protonated)
CCCNCC[NH2+]c1c2ccccc2[n+](C)c2ccc(OC)cc12 (3D coordinates assigned)
CCCNCC[NH2+]c1c2ccccc2[n+](C)c2ccc(OC)cc12 (optimized conformer: 74.54952318032582 kcal/mol)

>  <smiles>  (11) 
CCCNCCNc1c2ccccc2[n+](C)c2ccc(OC)cc12

>  <score_type>  (11) 
oracle

>  <origin>  (11) 
adg

>  <m_score__min__energy>  (11) 
-7.9100000000000001

>  <m_primary>  (11) 
energy

$$$$
11:0
     RDKit          3D

 44 46  0  0  0  0  0  0  0  0999 V2000
   -6.3680   25.0280  -29.3560 C   0  0  0  0  0  0  0  0  0  0  0  0
   -6.9460   24.6030  -30.7000 C   0  0  0  0  0  0  0  0  0  0  0  0
   -6.1890   23.4330  -31.2530 C   0  0  0  0  0  0  0  0  0  0  0  0
   -6.7750   22.4450  -31.9290 O   0  0  0  0  0  0  0  0  0  0  0  0
   -5.8070   21.6310  -32.2530 C   0  0  0  0  0  0  0  0  0  0  0  0
   -5.6360   20.4610  -32.9380 C   0  0  0  0  0  0  0  0  0  0  0  0
   -6.5160   19.6040  -33.5860 C   0  0  0  0  0  0  0  0  0  0  0  0
   -5.9710   18.4650  -34.2050 C   0  0  0  0  0  0  0  0  0  0  0  0
   -4.5780   18.2160  -34.1610 C   0  0  0  0  0  0  0  0  0  0  0  0
   -3.8690   16.6580  -35.0080 Br  0  0  0  0  0  0  0  0  0  0  0  0
   -3.7080   19.1070  -33.5000 C   0  0  0  0  0  0  0  0  0  0  0  0
   -4.2620   20.2360  -32.8900 C   0  0  0  0  0  0  0  0  0  0  0  0
   -3.6120   21.2310  -32.2150 N   0  0  0  0  0  0  0  0  0  0  0  0
   -2.1800   21.3790  -31.9710 C   0  0  0  0  0  0  0  0  0  0  0  0
   -4.6210   22.0400  -31.8240 C   0  0  0  0  0  0  0  0  0  0  0  0
   -4.7960   23.2240  -31.1520 C   0  0  0  0  0  0  0  0  0  0  0  0
   -3.7930   24.0610  -30.4720 C   0  0  0  0  0  0  0  0  0  0  0  0
   -3.7480   25.2930  -30.7370 O   0  0  0  0  0  0  0  0  0  0  0  0
   -2.8860   23.5020  -29.5020 N   0  0  0  0  0  0  0  0  0  0  0  0
   -1.5620   24.1090  -29.3140 C   0  0  0  0  0  0  0  0  0  0  0  0
   -1.6130   25.1940  -28.2440 C   0  0  0  0  0  0  0  0  0  0  0  0
   -3.3070   22.3940  -28.6290 C   0  0  0  0  0  0  0  0  0  0  0  0
   -4.2140   22.8930  -27.5080 C   0  0  0  0  0  0  0  0  0  0  0  0
   -6.9660   24.5883  -28.5442 H   0  0  0  0  0  0  0  0  0  0  0  0
   -5.3283   24.6777  -29.2767 H   0  0  0  0  0  0  0  0  0  0  0  0
   -6.3924   26.1249  -29.2767 H   0  0  0  0  0  0  0  0  0  0  0  0
   -8.0009   24.3210  -30.5671 H   0  0  0  0  0  0  0  0  0  0  0  0
   -6.8631   25.4442  -31.4040 H   0  0  0  0  0  0  0  0  0  0  0  0
   -7.5965   19.8081  -33.6139 H   0  0  0  0  0  0  0  0  0  0  0  0
   -6.6337   17.7604  -34.7287 H   0  0  0  0  0  0  0  0  0  0  0  0
   -2.6247   18.9191  -33.4653 H   0  0  0  0  0  0  0  0  0  0  0  0
   -1.9928   21.3983  -30.8872 H   0  0  0  0  0  0  0  0  0  0  0  0
   -1.6419   20.5317  -32.4210 H   0  0  0  0  0  0  0  0  0  0  0  0
   -1.8265   22.3185  -32.4210 H   0  0  0  0  0  0  0  0  0  0  0  0
   -0.8486   23.3307  -29.0052 H   0  0  0  0  0  0  0  0  0  0  0  0
   -1.2436   24.5638  -30.2636 H   0  0  0  0  0  0  0  0  0  0  0  0
   -1.5911   24.7279  -27.2479 H   0  0  0  0  0  0  0  0  0  0  0  0
   -0.7452   25.8606  -28.3561 H   0  0  0  0  0  0  0  0  0  0  0  0
   -2.5395   25.7763  -28.3561 H   0  0  0  0  0  0  0  0  0  0  0  0
   -3.8528   21.6511  -29.2291 H   0  0  0  0  0  0  0  0  0  0  0  0
   -2.4102   21.9434  -28.1788 H   0  0  0  0  0  0  0  0  0  0  0  0
   -3.7644   22.6456  -26.5350 H   0  0  0  0  0  0  0  0  0  0  0  0
   -4.3328   23.9835  -27.5904 H   0  0  0  0  0  0  0  0  0  0  0  0
   -5.1987   22.4096  -27.5904 H   0  0  0  0  0  0  0  0  0  0  0  0
  1  2  1  0
  2  3  1  0
  3  4  1  0
  4  5  1  0
  5  6  1  0
  6  7  2  0
  7  8  1  0
  8  9  2  0
  9 10  1  0
  9 11  1  0
 11 12  2  0
 12 13  1  0
 13 14  1  0
 13 15  1  0
 15 16  1  0
 16 17  1  0
 17 18  2  0
 17 19  1  0
 19 20  1  0
 20 21  1  0
 19 22  1  0
 22 23  1  0
 16  3  2  0
 15  5  2  0
 12  6  1  0
  1 24  1  0
  1 25  1  0
  1 26  1  0
  2 27  1  0
  2 28  1  0
  7 29  1  0
  8 30  1  0
 11 31  1  0
 14 32  1  0
 14 33  1  0
 14 34  1  0
 20 35  1  0
 20 36  1  0
 21 37  1  0
 21 38  1  0
 21 39  1  0
 22 40  1  0
 22 41  1  0
 23 42  1  0
 23 43  1  0
 23 44  1  0
M  END
>  <UniqueID>  (12) 
12

>  <SMILES>  (12) 
CCc1oc2c3ccc(Br)cc3n(C)c2c1C(=O)N(CC)CC

>  <Energy>  (12) 
132.75807715688813

>  <Genealogy>  (12) 
CCc1oc2c3ccc(Br)cc3n(C)c2c1C(=O)N(CC)CC (3D coordinates assigned)
CCc1oc2c3ccc(Br)cc3n(C)c2c1C(=O)N(CC)CC (optimized conformer: 132.75807715688813 kcal/mol)

>  <smiles>  (12) 
CCc1oc2c3ccc(Br)cc3n(C)c2c1C(=O)N(CC)CC

>  <score_type>  (12) 
oracle

>  <origin>  (12) 
adg

>  <m_score__min__energy>  (12) 
-8.3100000000000005

>  <m_primary>  (12) 
energy

$$$$
12:0
     RDKit          3D

 48 51  0  0  0  0  0  0  0  0999 V2000
   -1.9300   24.9300  -28.5430 C   0  0  0  0  0  0  0  0  0  0  0  0
   -2.3950   24.0680  -29.7130 C   0  0  0  0  0  0  0  0  0  0  0  0
   -3.4950   24.6760  -30.3650 O   0  0  0  0  0  0  0  0  0  0  0  0
   -4.7100   24.1360  -29.8900 C   0  0  0  0  0  0  0  0  0  0  0  0
   -4.8620   22.7110  -30.4130 C   0  0  0  0  0  0  0  0  0  0  0  0
   -4.3370   22.5890  -31.7720 N   0  0  0  0  0  0  0  0  0  0  0  0
   -4.4390   21.3500  -32.4910 C   0  0  0  0  0  0  0  0  0  0  0  0
   -3.2700   20.7770  -33.0180 C   0  0  0  0  0  0  0  0  0  0  0  0
   -2.0860   21.5340  -33.1560 C   0  0  0  0  0  0  0  0  0  0  0  0
   -0.9500   20.9750  -33.7360 C   0  0  0  0  0  0  0  0  0  0  0  0
   -0.9750   19.6610  -34.1910 C   0  0  0  0  0  0  0  0  0  0  0  0
   -2.1240   18.8870  -34.0320 C   0  0  0  0  0  0  0  0  0  0  0  0
   -3.2790   19.4150  -33.4040 C   0  0  0  0  0  0  0  0  0  0  0  0
   -4.3860   18.6380  -33.1360 N   0  0  0  0  0  0  0  0  0  0  0  0
   -4.2700   17.1630  -33.1470 C   0  0  0  0  0  0  0  0  0  0  0  0
   -5.5950   19.2340  -32.8210 C   0  0  0  0  0  0  0  0  0  0  0  0
   -6.7450   18.4870  -32.7500 N   0  0  0  0  0  0  0  0  0  0  0  0
   -7.9400   19.0090  -32.3770 C   0  0  0  0  0  0  0  0  0  0  0  0
   -8.9380   18.2440  -32.2660 O   0  0  0  0  0  0  0  0  0  0  0  0
   -8.0720   20.3850  -32.1590 C   0  0  0  0  0  0  0  0  0  0  0  0
   -9.3270   20.9420  -31.8350 C   0  0  0  0  0  0  0  0  0  0  0  0
   -9.4860   22.3220  -31.7530 C   0  0  0  0  0  0  0  0  0  0  0  0
   -8.4150   23.1610  -32.0370 C   0  0  0  0  0  0  0  0  0  0  0  0
   -7.1640   22.6250  -32.3460 C   0  0  0  0  0  0  0  0  0  0  0  0
   -6.9430   21.2260  -32.3310 C   0  0  0  0  0  0  0  0  0  0  0  0
   -5.6600   20.6320  -32.5560 C   0  0  0  0  0  0  0  0  0  0  0  0
   -2.1958   24.4372  -27.5961 H   0  0  0  0  0  0  0  0  0  0  0  0
   -0.8390   25.0607  -28.5947 H   0  0  0  0  0  0  0  0  0  0  0  0
   -2.4199   25.9135  -28.5947 H   0  0  0  0  0  0  0  0  0  0  0  0
   -1.5681   23.9514  -30.4289 H   0  0  0  0  0  0  0  0  0  0  0  0
   -2.7047   23.0839  -29.3313 H   0  0  0  0  0  0  0  0  0  0  0  0
   -4.7033   24.1258  -28.7901 H   0  0  0  0  0  0  0  0  0  0  0  0
   -5.5513   24.7513  -30.2418 H   0  0  0  0  0  0  0  0  0  0  0  0
   -4.3110   22.0254  -29.7524 H   0  0  0  0  0  0  0  0  0  0  0  0
   -5.9323   22.4574  -30.4284 H   0  0  0  0  0  0  0  0  0  0  0  0
   -3.6150   23.2810  -32.0780 H   0  0  0  0  0  0  0  0  0  0  0  0
   -2.0607   22.5752  -32.8020 H   0  0  0  0  0  0  0  0  0  0  0  0
   -0.0322   21.5732  -33.8343 H   0  0  0  0  0  0  0  0  0  0  0  0
   -0.0867   19.2314  -34.6772 H   0  0  0  0  0  0  0  0  0  0  0  0
   -2.1337   17.8504  -34.3999 H   0  0  0  0  0  0  0  0  0  0  0  0
   -4.2406   16.7898  -32.1127 H   0  0  0  0  0  0  0  0  0  0  0  0
   -5.1369   16.7309  -33.6683 H   0  0  0  0  0  0  0  0  0  0  0  0
   -3.3462   16.8717  -33.6683 H   0  0  0  0  0  0  0  0  0  0  0  0
   -6.7500   17.4760  -33.0040 H   0  0  0  0  0  0  0  0  0  0  0  0
  -10.1857   20.2810  -31.6459 H   0  0  0  0  0  0  0  0  0  0  0  0
  -10.4580   22.7482  -31.4638 H   0  0  0  0  0  0  0  0  0  0  0  0
   -8.5539   24.2520  -32.0181 H   0  0  0  0  0  0  0  0  0  0  0  0
   -6.3355   23.3005  -32.6056 H   0  0  0  0  0  0  0  0  0  0  0  0
  1  2  1  0
  2  3  1  0
  3  4  1  0
  4  5  1  0
  5  6  1  0
  6  7  1  0
  7  8  2  0
  8  9  1  0
  9 10  2  0
 10 11  1  0
 11 12  2  0
 12 13  1  0
 13 14  2  0
 14 15  1  0
 14 16  1  0
 16 17  1  0
 17 18  1  0
 18 19  2  0
 18 20  1  0
 20 21  2  0
 21 22  1  0
 22 23  2  0
 23 24  1  0
 24 25  2  0
 25 26  1  0
 26  7  1  0
 13  8  1  0
 26 16  2  0
 25 20  1  0
  1 27  1  0
  1 28  1  0
  1 29  1  0
  2 30  1  0
  2 31  1  0
  4 32  1  0
  4 33  1  0
  5 34  1  0
  5 35  1  0
  6 36  1  0
  9 37  1  0
 10 38  1  0
 11 39  1  0
 12 40  1  0
 15 41  1  0
 15 42  1  0
 15 43  1  0
 17 44  1  0
 21 45  1  0
 22 46  1  0
 23 47  1  0
 24 48  1  0
M  CHG  1  14   1
M  END
>  <UniqueID>  (13) 
13

>  <SMILES>  (13) 
CCOCCNc1c2ccccc2[n+](C)c2[nH]c(=O)c3ccccc3c12

>  <Energy>  (13) 
91.91633737597007

>  <Genealogy>  (13) 
CCOCCNc1c2ccccc2[n+](C)c2[nH]c(=O)c3ccccc3c12 (3D coordinates assigned)
CCOCCNc1c2ccccc2[n+](C)c2[nH]c(=O)c3ccccc3c12 (optimized conformer: 91.91633737597007 kcal/mol)

>  <smiles>  (13) 
CCOCCNc1c2ccccc2[n+](C)c2[nH]c(=O)c3ccccc3c12

>  <score_type>  (13) 
oracle

>  <origin>  (13) 
adg

>  <m_score__min__energy>  (13) 
-8.9100000000000001

>  <m_primary>  (13) 
energy

$$$$
13:0
     RDKit          3D

 58 61  0  0  0  0  0  0  0  0999 V2000
   -6.2540   25.3970  -29.4940 C   0  0  0  0  0  0  0  0  0  0  0  0
   -5.4320   25.4170  -30.7790 C   0  0  0  0  0  0  0  0  0  0  0  0
   -3.9980   25.3140  -30.4700 N   0  0  0  0  0  0  0  0  0  0  0  0
   -3.7260   24.5100  -29.2650 C   0  0  0  0  0  0  0  0  0  0  0  0
   -3.6240   23.0010  -29.5570 C   0  0  0  0  0  0  0  0  0  0  0  0
   -3.7150   22.7390  -30.9450 O   0  0  0  0  0  0  0  0  0  0  0  0
   -2.7180   21.8230  -31.3500 C   0  0  0  0  0  0  0  0  0  0  0  0
   -2.6220   21.8260  -32.8730 C   0  0  0  0  0  0  0  0  0  0  0  0
   -3.9520   21.8010  -33.4820 N   0  0  0  0  0  0  0  0  0  0  0  0
   -4.9010   20.7910  -33.1140 C   0  0  0  0  0  0  0  0  0  0  0  0
   -4.5840   19.4370  -33.3020 C   0  0  0  0  0  0  0  0  0  0  0  0
   -5.4930   18.4470  -32.8840 C   0  0  0  0  0  0  0  0  0  0  0  0
   -6.7780   18.8000  -32.5210 N   0  0  0  0  0  0  0  0  0  0  0  0
   -7.8640   17.7990  -32.5540 C   0  0  0  0  0  0  0  0  0  0  0  0
   -7.0710   20.1170  -32.2300 C   0  0  0  0  0  0  0  0  0  0  0  0
   -8.3000   20.4910  -31.6300 C   0  0  0  0  0  0  0  0  0  0  0  0
   -8.5780   21.8250  -31.3340 C   0  0  0  0  0  0  0  0  0  0  0  0
   -7.6440   22.8150  -31.6170 C   0  0  0  0  0  0  0  0  0  0  0  0
   -6.4220   22.4790  -32.1990 C   0  0  0  0  0  0  0  0  0  0  0  0
   -6.1240   21.1380  -32.5160 C   0  0  0  0  0  0  0  0  0  0  0  0
   -4.9940   17.0330  -32.8850 C   0  0  0  0  0  0  0  0  0  0  0  0
   -5.4130   16.1110  -31.9060 C   0  0  0  0  0  0  0  0  0  0  0  0
   -4.9030   14.8140  -31.9140 C   0  0  0  0  0  0  0  0  0  0  0  0
   -3.9590   14.4470  -32.8670 C   0  0  0  0  0  0  0  0  0  0  0  0
   -3.5010   15.3990  -33.7780 C   0  0  0  0  0  0  0  0  0  0  0  0
   -3.9850   16.6780  -33.7490 N   0  0  0  0  0  0  0  0  0  0  0  0
   -3.4170   17.6870  -34.6530 C   0  0  0  0  0  0  0  0  0  0  0  0
   -3.2650   19.0240  -33.9190 C   0  0  0  0  0  0  0  0  0  0  0  0
   -5.5783   25.4134  -28.6262 H   0  0  0  0  0  0  0  0  0  0  0  0
   -6.9101   26.2794  -29.4646 H   0  0  0  0  0  0  0  0  0  0  0  0
   -6.8664   24.4837  -29.4646 H   0  0  0  0  0  0  0  0  0  0  0  0
   -5.7285   24.5680  -31.4125 H   0  0  0  0  0  0  0  0  0  0  0  0
   -5.6168   26.3642  -31.3069 H   0  0  0  0  0  0  0  0  0  0  0  0
   -3.4960   24.9100  -31.2930 H   0  0  0  0  0  0  0  0  0  0  0  0
   -2.7752   24.8469  -28.8264 H   0  0  0  0  0  0  0  0  0  0  0  0
   -4.5711   24.6548  -28.5759 H   0  0  0  0  0  0  0  0  0  0  0  0
   -2.6584   22.6283  -29.1844 H   0  0  0  0  0  0  0  0  0  0  0  0
   -4.4583   22.4922  -29.0520 H   0  0  0  0  0  0  0  0  0  0  0  0
   -1.7499   22.1191  -30.9198 H   0  0  0  0  0  0  0  0  0  0  0  0
   -2.9787   20.8139  -30.9983 H   0  0  0  0  0  0  0  0  0  0  0  0
   -2.0943   22.7347  -33.1984 H   0  0  0  0  0  0  0  0  0  0  0  0
   -2.0737   20.9272  -33.1915 H   0  0  0  0  0  0  0  0  0  0  0  0
   -4.2930   22.6200  -34.0340 H   0  0  0  0  0  0  0  0  0  0  0  0
   -8.1506   17.5349  -31.5254 H   0  0  0  0  0  0  0  0  0  0  0  0
   -8.7337   18.2188  -33.0806 H   0  0  0  0  0  0  0  0  0  0  0  0
   -7.5163   16.8980  -33.0806 H   0  0  0  0  0  0  0  0  0  0  0  0
   -9.0454   19.7171  -31.3945 H   0  0  0  0  0  0  0  0  0  0  0  0
   -9.5403   22.0951  -30.8747 H   0  0  0  0  0  0  0  0  0  0  0  0
   -7.8693   23.8656  -31.3814 H   0  0  0  0  0  0  0  0  0  0  0  0
   -5.6846   23.2668  -32.4125 H   0  0  0  0  0  0  0  0  0  0  0  0
   -6.1401   16.4136  -31.1380 H   0  0  0  0  0  0  0  0  0  0  0  0
   -5.2464   14.0821  -31.1681 H   0  0  0  0  0  0  0  0  0  0  0  0
   -3.5772   13.4160  -32.9021 H   0  0  0  0  0  0  0  0  0  0  0  0
   -2.7445   15.1188  -34.5258 H   0  0  0  0  0  0  0  0  0  0  0  0
   -2.4301   17.3489  -35.0018 H   0  0  0  0  0  0  0  0  0  0  0  0
   -4.0909   17.8218  -35.5119 H   0  0  0  0  0  0  0  0  0  0  0  0
   -2.5103   18.9188  -33.1256 H   0  0  0  0  0  0  0  0  0  0  0  0
   -2.9499   19.7938  -34.6388 H   0  0  0  0  0  0  0  0  0  0  0  0
  1  2  1  0
  2  3  1  0
  3  4  1  0
  4  5  1  0
  5  6  1  0
  6  7  1  0
  7  8  1  0
  8  9  1  0
  9 10  1  0
 10 11  2  0
 11 12  1  0
 12 13  2  0
 13 14  1  0
 13 15  1  0
 15 16  2  0
 16 17  1  0
 17 18  2  0
 18 19  1  0
 19 20  2  0
 12 21  1  0
 21 22  2  0
 22 23  1  0
 23 24  2  0
 24 25  1  0
 25 26  2  0
 26 27  1  0
 27 28  1  0
 20 10  1  0
 26 21  1  0
 28 11  1  0
 20 15  1  0
  1 29  1  0
  1 30  1  0
  1 31  1  0
  2 32  1  0
  2 33  1  0
  3 34  1  0
  4 35  1  0
  4 36  1  0
  5 37  1  0
  5 38  1  0
  7 39  1  0
  7 40  1  0
  8 41  1  0
  8 42  1  0
  9 43  1  0
 14 44  1  0
 14 45  1  0
 14 46  1  0
 16 47  1  0
 17 48  1  0
 18 49  1  0
 19 50  1  0
 22 51  1  0
 23 52  1  0
 24 53  1  0
 25 54  1  0
 27 55  1  0
 27 56  1  0
 28 57  1  0
 28 58  1  0
M  CHG  2  13   1  26   1
M  END
>  <UniqueID>  (14) 
14

>  <SMILES>  (14) 
CCNCCOCCNc1c2c([n+](C)c3ccccc13)-c1cccc[n+]1CC2

>  <Energy>  (14) 
88.91989629576955

>  <Genealogy>  (14) 
CCNCCOCCNc1c2c([n+](C)c3ccccc13)-c1cccc[n+]1CC2 (3D coordinates assigned)
CCNCCOCCNc1c2c([n+](C)c3ccccc13)-c1cccc[n+]1CC2 (nonaromatic ring conformer: 88.91989629576955 kcal/mol)

>  <smiles>  (14) 
CCNCCOCCNc1c2c([n+](C)c3ccccc13)-c1cccc[n+]1CC2

>  <score_type>  (14) 
oracle

>  <origin>  (14) 
adg

>  <m_score__min__energy>  (14) 
-8.6199999999999992

>  <m_primary>  (14) 
energy

$$$$
14:0
     RDKit          3D

 36 38  0  0  0  0  0  0  0  0999 V2000
   -5.4790   23.3250  -31.3220 C   0  0  0  0  0  0  0  0  0  0  0  0
   -6.4500   22.2750  -31.5960 N   0  0  0  0  0  0  0  0  0  0  0  0
   -7.7340   22.4670  -31.9670 C   0  0  0  0  0  0  0  0  0  0  0  0
   -8.3230   21.2280  -32.0620 C   0  0  0  0  0  0  0  0  0  0  0  0
   -7.3550   20.3350  -31.6950 C   0  0  0  0  0  0  0  0  0  0  0  0
   -6.2070   20.9820  -31.4160 N   0  0  0  0  0  0  0  0  0  0  0  0
   -7.5770   18.8550  -31.6640 C   0  0  2  0  0  0  0  0  0  0  0  0
   -6.8110   18.1460  -32.7630 C   0  0  0  0  0  0  0  0  0  0  0  0
   -7.2210   17.0560  -33.1430 O   0  0  0  0  0  0  0  0  0  0  0  0
   -5.6360   18.7370  -33.3920 N   0  0  0  0  0  0  0  0  0  0  0  0
   -5.7320   18.6820  -34.8580 C   0  0  0  0  0  0  0  0  0  0  0  0
   -5.0050   17.4270  -35.3240 C   0  0  0  0  0  0  0  0  0  0  0  0
   -4.1660   16.9710  -34.1400 C   0  0  0  0  0  0  0  0  0  0  0  0
   -4.4190   17.9920  -33.0390 C   0  0  0  0  0  0  0  0  0  0  0  0
   -9.1000   18.5450  -31.7340 C   0  0  0  0  0  0  0  0  0  0  0  0
   -9.8240   19.4090  -32.6930 N   0  0  0  0  0  0  0  0  0  0  0  0
   -9.7380   20.8390  -32.3430 C   0  0  0  0  0  0  0  0  0  0  0  0
   -5.3670   23.4461  -30.2344 H   0  0  0  0  0  0  0  0  0  0  0  0
   -4.5088   23.0512  -31.7623 H   0  0  0  0  0  0  0  0  0  0  0  0
   -5.8277   24.2708  -31.7623 H   0  0  0  0  0  0  0  0  0  0  0  0
   -8.2192   23.4355  -32.1580 H   0  0  0  0  0  0  0  0  0  0  0  0
   -7.1854   18.4677  -30.7118 H   0  0  0  0  0  0  0  0  0  0  0  0
   -5.5220   19.7340  -33.0960 H   0  0  0  0  0  0  0  0  0  0  0  0
   -6.7880   18.6379  -35.1627 H   0  0  0  0  0  0  0  0  0  0  0  0
   -5.2792   19.5782  -35.3072 H   0  0  0  0  0  0  0  0  0  0  0  0
   -5.7282   16.6470  -35.6041 H   0  0  0  0  0  0  0  0  0  0  0  0
   -4.3827   17.6245  -36.2093 H   0  0  0  0  0  0  0  0  0  0  0  0
   -4.4778   15.9683  -33.8124 H   0  0  0  0  0  0  0  0  0  0  0  0
   -3.0986   16.9084  -34.3985 H   0  0  0  0  0  0  0  0  0  0  0  0
   -4.5601   17.4782  -32.0767 H   0  0  0  0  0  0  0  0  0  0  0  0
   -3.5627   18.6758  -32.9432 H   0  0  0  0  0  0  0  0  0  0  0  0
   -9.2303   17.4964  -32.0398 H   0  0  0  0  0  0  0  0  0  0  0  0
   -9.5206   18.7378  -30.7360 H   0  0  0  0  0  0  0  0  0  0  0  0
   -9.4340   19.2630  -33.6530 H   0  0  0  0  0  0  0  0  0  0  0  0
  -10.1182   21.4400  -33.1822 H   0  0  0  0  0  0  0  0  0  0  0  0
  -10.3411   21.0200  -31.4410 H   0  0  0  0  0  0  0  0  0  0  0  0
  1  2  1  0
  2  3  1  0
  3  4  2  0
  4  5  1  0
  5  6  2  0
  5  7  1  0
  7  8  1  0
  8  9  2  0
  8 10  1  0
 10 11  1  0
 11 12  1  0
 12 13  1  0
 13 14  1  0
  7 15  1  0
 15 16  1  0
 16 17  1  0
  6  2  1  0
 14 10  1  0
 17  4  1  0
  1 18  1  0
  1 19  1  0
  1 20  1  0
  3 21  1  0
  7 22  1  1
 10 23  1  0
 11 24  1  0
 11 25  1  0
 12 26  1  0
 12 27  1  0
 13 28  1  0
 13 29  1  0
 14 30  1  0
 14 31  1  0
 15 32  1  0
 15 33  1  0
 16 34  1  0
 17 35  1  0
 17 36  1  0
M  CHG  1  10   1
M  END
>  <UniqueID>  (15) 
15

>  <SMILES>  (15) 
Cn1cc2c(n1)[C@H](C(=O)[NH+]1CCCC1)CNC2

>  <Energy>  (15) 
73.08992758265019

>  <Genealogy>  (15) 
Cn1cc2c(n1)C(C(=O)[NH+]1CCCC1)CNC2 (protonated)
Cn1cc2c(n1)[C@H](C(=O)[NH+]1CCCC1)CNC2 (chirality)
Cn1cc2c(n1)[C@H](C(=O)[NH+]1CCCC1)CNC2 (3D coordinates assigned)
Cn1cc2c(n1)[C@H](C(=O)[NH+]1CCCC1)CNC2 (nonaromatic ring conformer: 73.08992758265019 kcal/mol)

>  <smiles>  (15) 
Cn1cc2c(n1)C(C(=O)N1CCCC1)CNC2

>  <score_type>  (15) 
oracle

>  <origin>  (15) 
adg

>  <m_score__min__energy>  (15) 
-6.4500000000000002

>  <m_primary>  (15) 
energy

$$$$
15:0
     RDKit          3D

 52 55  0  0  0  0  0  0  0  0999 V2000
   -6.3430   25.2930  -29.5090 C   0  0  0  0  0  0  0  0  0  0  0  0
   -5.3080   25.6400  -30.5830 C   0  0  0  0  0  0  0  0  0  0  0  0
   -4.3680   24.5390  -30.8400 N   0  0  0  0  0  0  0  0  0  0  0  0
   -4.0570   23.7740  -29.6240 C   0  0  0  0  0  0  0  0  0  0  0  0
   -3.0030   22.6990  -29.9180 C   0  0  0  0  0  0  0  0  0  0  0  0
   -3.5030   21.5750  -30.8430 C   0  0  0  0  0  0  0  0  0  0  0  0
   -3.0900   21.7790  -32.3060 C   0  0  0  0  0  0  0  0  0  0  0  0
   -4.2650   21.8350  -33.1720 N   0  0  0  0  0  0  0  0  0  0  0  0
   -5.3880   20.9840  -32.9160 C   0  0  0  0  0  0  0  0  0  0  0  0
   -5.3080   19.6210  -33.1630 C   0  0  0  0  0  0  0  0  0  0  0  0
   -6.3830   18.7840  -32.9180 C   0  0  0  0  0  0  0  0  0  0  0  0
   -7.5610   19.2420  -32.3870 N   0  0  0  0  0  0  0  0  0  0  0  0
   -8.6230   18.2900  -32.0190 C   0  0  0  0  0  0  0  0  0  0  0  0
   -7.7190   20.6110  -32.2180 C   0  0  0  0  0  0  0  0  0  0  0  0
   -8.9570   21.1770  -31.8270 C   0  0  0  0  0  0  0  0  0  0  0  0
   -9.0880   22.5510  -31.6250 C   0  0  0  0  0  0  0  0  0  0  0  0
   -8.0000   23.3980  -31.8160 C   0  0  0  0  0  0  0  0  0  0  0  0
   -6.7750   22.8830  -32.2330 C   0  0  0  0  0  0  0  0  0  0  0  0
   -6.6180   21.5020  -32.4560 C   0  0  0  0  0  0  0  0  0  0  0  0
   -6.0030   17.4330  -33.3690 C   0  0  0  0  0  0  0  0  0  0  0  0
   -6.7540   16.3030  -33.4360 N   0  0  0  0  0  0  0  0  0  0  0  0
   -6.2160   15.1620  -33.9580 C   0  0  0  0  0  0  0  0  0  0  0  0
   -4.8960   15.1550  -34.4540 C   0  0  0  0  0  0  0  0  0  0  0  0
   -4.1310   16.3320  -34.4160 C   0  0  0  0  0  0  0  0  0  0  0  0
   -4.7160   17.4670  -33.8630 C   0  0  0  0  0  0  0  0  0  0  0  0
   -4.2250   18.8320  -33.7570 C   0  0  0  0  0  0  0  0  0  0  0  0
   -3.1080   19.2560  -34.1550 O   0  0  0  0  0  0  0  0  0  0  0  0
   -5.9012   25.4411  -28.5126 H   0  0  0  0  0  0  0  0  0  0  0  0
   -7.2211   25.9459  -29.6215 H   0  0  0  0  0  0  0  0  0  0  0  0
   -6.6501   24.2428  -29.6215 H   0  0  0  0  0  0  0  0  0  0  0  0
   -5.8367   25.8772  -31.5180 H   0  0  0  0  0  0  0  0  0  0  0  0
   -4.7241   26.4978  -30.2178 H   0  0  0  0  0  0  0  0  0  0  0  0
   -3.4810   24.9250  -31.2380 H   0  0  0  0  0  0  0  0  0  0  0  0
   -3.6703   24.4588  -28.8549 H   0  0  0  0  0  0  0  0  0  0  0  0
   -4.9752   23.2831  -29.2690 H   0  0  0  0  0  0  0  0  0  0  0  0
   -2.1384   23.1827  -30.3961 H   0  0  0  0  0  0  0  0  0  0  0  0
   -2.7455   22.2315  -28.9562 H   0  0  0  0  0  0  0  0  0  0  0  0
   -3.0873   20.6194  -30.4908 H   0  0  0  0  0  0  0  0  0  0  0  0
   -4.6024   21.5812  -30.8061 H   0  0  0  0  0  0  0  0  0  0  0  0
   -2.5307   22.7220  -32.3950 H   0  0  0  0  0  0  0  0  0  0  0  0
   -2.4618   20.9314  -32.6173 H   0  0  0  0  0  0  0  0  0  0  0  0
   -4.3770   22.6100  -33.8650 H   0  0  0  0  0  0  0  0  0  0  0  0
   -8.6944   18.2260  -30.9232 H   0  0  0  0  0  0  0  0  0  0  0  0
   -9.5833   18.6353  -32.4295 H   0  0  0  0  0  0  0  0  0  0  0  0
   -8.3843   17.2978  -32.4295 H   0  0  0  0  0  0  0  0  0  0  0  0
   -9.8290   20.5227  -31.6803 H   0  0  0  0  0  0  0  0  0  0  0  0
  -10.0570   22.9677  -31.3129 H   0  0  0  0  0  0  0  0  0  0  0  0
   -8.1081   24.4779  -31.6369 H   0  0  0  0  0  0  0  0  0  0  0  0
   -5.9231   23.5611  -32.3894 H   0  0  0  0  0  0  0  0  0  0  0  0
   -6.8167   14.2412  -33.9919 H   0  0  0  0  0  0  0  0  0  0  0  0
   -4.4671   14.2310  -34.8691 H   0  0  0  0  0  0  0  0  0  0  0  0
   -3.1043   16.3559  -34.8100 H   0  0  0  0  0  0  0  0  0  0  0  0
  1  2  1  0
  2  3  1  0
  3  4  1  0
  4  5  1  0
  5  6  1  0
  6  7  1  0
  7  8  1  0
  8  9  1  0
  9 10  2  0
 10 11  1  0
 11 12  2  0
 12 13  1  0
 12 14  1  0
 14 15  2  0
 15 16  1  0
 16 17  2  0
 17 18  1  0
 18 19  2  0
 11 20  1  0
 20 21  2  0
 21 22  1  0
 22 23  2  0
 23 24  1  0
 24 25  2  0
 25 26  1  0
 26 27  2  0
 19  9  1  0
 25 20  1  0
 26 10  1  0
 19 14  1  0
  1 28  1  0
  1 29  1  0
  1 30  1  0
  2 31  1  0
  2 32  1  0
  3 33  1  0
  4 34  1  0
  4 35  1  0
  5 36  1  0
  5 37  1  0
  6 38  1  0
  6 39  1  0
  7 40  1  0
  7 41  1  0
  8 42  1  0
 13 43  1  0
 13 44  1  0
 13 45  1  0
 15 46  1  0
 16 47  1  0
 17 48  1  0
 18 49  1  0
 22 50  1  0
 23 51  1  0
 24 52  1  0
M  CHG  1  12   1
M  END
>  <UniqueID>  (16) 
16

>  <SMILES>  (16) 
CCNCCCCNc1c2c([n+](C)c3ccccc13)-c1ncccc1C2=O

>  <Energy>  (16) 
101.8547869024371

>  <Genealogy>  (16) 
CCNCCCCNc1c2c([n+](C)c3ccccc13)-c1ncccc1C2=O (3D coordinates assigned)
CCNCCCCNc1c2c([n+](C)c3ccccc13)-c1ncccc1C2=O (nonaromatic ring conformer: 101.8547869024371 kcal/mol)

>  <smiles>  (16) 
CCNCCCCNc1c2c([n+](C)c3ccccc13)-c1ncccc1C2=O

>  <score_type>  (16) 
oracle

>  <origin>  (16) 
adg

>  <m_score__min__energy>  (16) 
-9.8699999999999992

>  <m_primary>  (16) 
energy

$$$$
16:0
     RDKit          3D

 40 42  0  0  0  0  0  0  0  0999 V2000
   -6.1370   18.7730  -34.0560 C   0  0  0  0  0  0  0  0  0  0  0  0
   -6.4750   19.9860  -33.2500 C   0  0  0  0  0  0  0  0  0  0  0  0
   -7.7840   20.1610  -32.7480 C   0  0  0  0  0  0  0  0  0  0  0  0
   -8.0820   21.3220  -32.0120 C   0  0  0  0  0  0  0  0  0  0  0  0
   -9.4560   21.5630  -31.4570 C   0  0  0  0  0  0  0  0  0  0  0  0
   -7.0800   22.2230  -31.8290 N   0  0  0  0  0  0  0  0  0  0  0  0
   -7.0560   23.4020  -31.1900 C   0  0  0  0  0  0  0  0  0  0  0  0
   -5.7760   23.9200  -31.3430 C   0  0  0  0  0  0  0  0  0  0  0  0
   -5.2860   25.2210  -30.7530 C   0  0  1  0  0  0  0  0  0  0  0  0
   -6.1140   25.6610  -29.5320 C   0  0  0  0  0  0  0  0  0  0  0  0
   -3.8420   25.1530  -30.4510 N   0  0  0  0  0  0  0  0  0  0  0  0
   -3.4630   24.0230  -29.5890 C   0  0  0  0  0  0  0  0  0  0  0  0
   -2.6240   24.5300  -28.4620 C   0  0  0  0  0  0  0  0  0  0  0  0
   -2.6170   23.9530  -27.1950 C   0  0  0  0  0  0  0  0  0  0  0  0
   -1.6130   24.8810  -26.2150 S   0  0  0  0  0  0  0  0  0  0  0  0
   -1.2300   25.9650  -27.4410 C   0  0  0  0  0  0  0  0  0  0  0  0
   -0.3870   27.1820  -27.2700 C   0  0  0  0  0  0  0  0  0  0  0  0
   -1.8700   25.6570  -28.5890 N   0  0  0  0  0  0  0  0  0  0  0  0
   -4.9990   23.0590  -32.0490 N   0  0  0  0  0  0  0  0  0  0  0  0
   -5.8460   22.0490  -32.3250 C   0  0  0  0  0  0  0  0  0  0  0  0
   -5.5240   20.9430  -33.0370 N   0  0  0  0  0  0  0  0  0  0  0  0
   -5.9040   17.9369  -33.3802 H   0  0  0  0  0  0  0  0  0  0  0  0
   -6.9943   18.5037  -34.6904 H   0  0  0  0  0  0  0  0  0  0  0  0
   -5.2640   18.9859  -34.6904 H   0  0  0  0  0  0  0  0  0  0  0  0
   -8.5582   19.4010  -32.9299 H   0  0  0  0  0  0  0  0  0  0  0  0
   -9.4139   21.5556  -30.3578 H   0  0  0  0  0  0  0  0  0  0  0  0
   -9.8252   22.5396  -31.8033 H   0  0  0  0  0  0  0  0  0  0  0  0
  -10.1355   20.7703  -31.8033 H   0  0  0  0  0  0  0  0  0  0  0  0
   -7.8910   23.8698  -30.6479 H   0  0  0  0  0  0  0  0  0  0  0  0
   -5.4309   26.0012  -31.5147 H   0  0  0  0  0  0  0  0  0  0  0  0
   -5.5849   25.3798  -28.6095 H   0  0  0  0  0  0  0  0  0  0  0  0
   -6.2529   26.7519  -29.5570 H   0  0  0  0  0  0  0  0  0  0  0  0
   -7.0958   25.1657  -29.5570 H   0  0  0  0  0  0  0  0  0  0  0  0
   -3.5500   26.0440  -29.9850 H   0  0  0  0  0  0  0  0  0  0  0  0
   -4.3690   23.5451  -29.1881 H   0  0  0  0  0  0  0  0  0  0  0  0
   -2.8935   23.2851  -30.1731 H   0  0  0  0  0  0  0  0  0  0  0  0
   -3.1690   23.0519  -26.8896 H   0  0  0  0  0  0  0  0  0  0  0  0
   -0.2474   27.3836  -26.1977 H   0  0  0  0  0  0  0  0  0  0  0  0
    0.5926   27.0189  -27.7430 H   0  0  0  0  0  0  0  0  0  0  0  0
   -0.8840   28.0418  -27.7430 H   0  0  0  0  0  0  0  0  0  0  0  0
  1  2  1  0
  2  3  1  0
  3  4  2  0
  4  5  1  0
  4  6  1  0
  6  7  1  0
  7  8  2  0
  8  9  1  0
  9 10  1  0
  9 11  1  0
 11 12  1  0
 12 13  1  0
 13 14  2  0
 14 15  1  0
 15 16  1  0
 16 17  1  0
 16 18  2  0
  8 19  1  0
 19 20  2  0
 20 21  1  0
 21  2  2  0
 20  6  1  0
 18 13  1  0
  1 22  1  0
  1 23  1  0
  1 24  1  0
  3 25  1  0
  5 26  1  0
  5 27  1  0
  5 28  1  0
  7 29  1  0
  9 30  1  6
 10 31  1  0
 10 32  1  0
 10 33  1  0
 11 34  1  0
 12 35  1  0
 12 36  1  0
 14 37  1  0
 17 38  1  0
 17 39  1  0
 17 40  1  0
M  END
>  <UniqueID>  (17) 
17

>  <SMILES>  (17) 
Cc1cc(C)n2cc([C@@H](C)NCc3csc(C)n3)nc2n1

>  <Energy>  (17) 
101.99140405043137

>  <Genealogy>  (17) 
Cc1cc(C)n2cc([C@@H](C)NCc3csc(C)n3)nc2n1 (chirality)
Cc1cc(C)n2cc([C@@H](C)NCc3csc(C)n3)nc2n1 (3D coordinates assigned)
Cc1cc(C)n2cc([C@@H](C)NCc3csc(C)n3)nc2n1 (optimized conformer: 101.99140405043137 kcal/mol)

>  <smiles>  (17) 
Cc1cc(C)n2cc(C(C)NCc3csc(C)n3)nc2n1

>  <score_type>  (17) 
oracle

>  <origin>  (17) 
adg

>  <m_score__min__energy>  (17) 
-9.0399999999999991

>  <m_primary>  (17) 
energy

$$$$
17:0
     RDKit          3D

 54 55  0  0  0  0  0  0  0  0999 V2000
   -3.9660   24.1090  -28.5130 C   0  0  0  0  0  0  0  0  0  0  0  0
   -3.4520   24.2020  -29.9450 C   0  0  0  0  0  0  0  0  0  0  0  0
   -4.4980   24.7180  -30.8400 N   0  0  0  0  0  0  0  0  0  0  0  0
   -5.7120   25.0910  -30.0970 C   0  0  0  0  0  0  0  0  0  0  0  0
   -6.8720   24.1420  -30.4490 C   0  0  0  0  0  0  0  0  0  0  0  0
   -6.4300   22.6820  -30.6550 C   0  0  0  0  0  0  0  0  0  0  0  0
   -6.1460   22.3660  -32.0220 O   0  0  0  0  0  0  0  0  0  0  0  0
   -5.0930   21.5620  -32.4880 C   0  0  0  0  0  0  0  0  0  0  0  0
   -3.7490   21.9640  -32.3630 C   0  0  0  0  0  0  0  0  0  0  0  0
   -2.7090   21.1470  -32.8230 C   0  0  0  0  0  0  0  0  0  0  0  0
   -1.3700   21.5450  -32.6790 C   0  0  0  0  0  0  0  0  0  0  0  0
   -0.3400   20.7250  -33.1500 C   0  0  0  0  0  0  0  0  0  0  0  0
   -0.6390   19.5100  -33.7700 C   0  0  0  0  0  0  0  0  0  0  0  0
   -1.9670   19.1060  -33.9230 C   0  0  0  0  0  0  0  0  0  0  0  0
   -3.0100   19.9190  -33.4480 C   0  0  0  0  0  0  0  0  0  0  0  0
   -4.3450   19.5310  -33.6060 C   0  0  0  0  0  0  0  0  0  0  0  0
   -5.3960   20.3270  -33.1140 C   0  0  0  0  0  0  0  0  0  0  0  0
   -6.8370   19.9140  -33.4050 C   0  0  0  0  0  0  0  0  0  0  0  0
   -7.7630   19.9260  -32.2340 N   0  0  0  0  0  0  0  0  0  0  0  0
   -9.1240   20.4290  -32.5600 C   0  0  0  0  0  0  0  0  0  0  0  0
   -9.4660   21.7360  -31.8310 C   0  0  0  0  0  0  0  0  0  0  0  0
   -7.8480   18.6030  -31.5610 C   0  0  0  0  0  0  0  0  0  0  0  0
   -7.1310   17.4930  -32.3430 C   0  0  0  0  0  0  0  0  0  0  0  0
   -3.1309   24.2601  -27.8131 H   0  0  0  0  0  0  0  0  0  0  0  0
   -4.7289   24.8837  -28.3462 H   0  0  0  0  0  0  0  0  0  0  0  0
   -4.4091   23.1161  -28.3462 H   0  0  0  0  0  0  0  0  0  0  0  0
   -2.5854   24.8789  -29.9744 H   0  0  0  0  0  0  0  0  0  0  0  0
   -3.1621   23.1961  -30.2828 H   0  0  0  0  0  0  0  0  0  0  0  0
   -4.7450   23.9620  -31.5170 H   0  0  0  0  0  0  0  0  0  0  0  0
   -5.5090   25.0299  -29.0176 H   0  0  0  0  0  0  0  0  0  0  0  0
   -5.9961   26.1176  -30.3717 H   0  0  0  0  0  0  0  0  0  0  0  0
   -7.6064   24.1713  -29.6306 H   0  0  0  0  0  0  0  0  0  0  0  0
   -7.2961   24.4893  -31.4027 H   0  0  0  0  0  0  0  0  0  0  0  0
   -5.5225   22.5042  -30.0593 H   0  0  0  0  0  0  0  0  0  0  0  0
   -7.2650   22.0400  -30.3379 H   0  0  0  0  0  0  0  0  0  0  0  0
   -3.5132   22.9325  -31.8979 H   0  0  0  0  0  0  0  0  0  0  0  0
   -1.1311   22.5034  -32.1949 H   0  0  0  0  0  0  0  0  0  0  0  0
    0.7080   21.0376  -33.0319 H   0  0  0  0  0  0  0  0  0  0  0  0
    0.1747   18.8686  -34.1393 H   0  0  0  0  0  0  0  0  0  0  0  0
   -2.1969   18.1499  -34.4161 H   0  0  0  0  0  0  0  0  0  0  0  0
   -4.5768   18.5883  -34.1233 H   0  0  0  0  0  0  0  0  0  0  0  0
   -7.2399   20.6034  -34.1616 H   0  0  0  0  0  0  0  0  0  0  0  0
   -6.7874   18.8666  -33.7373 H   0  0  0  0  0  0  0  0  0  0  0  0
   -7.3590   20.5960  -31.5370 H   0  0  0  0  0  0  0  0  0  0  0  0
   -9.1830   20.6055  -33.6441 H   0  0  0  0  0  0  0  0  0  0  0  0
   -9.8461   19.6674  -32.2305 H   0  0  0  0  0  0  0  0  0  0  0  0
   -9.4230   21.5717  -30.7442 H   0  0  0  0  0  0  0  0  0  0  0  0
   -8.7411   22.5138  -32.1132 H   0  0  0  0  0  0  0  0  0  0  0  0
  -10.4789   22.0590  -32.1132 H   0  0  0  0  0  0  0  0  0  0  0  0
   -7.3886   18.6848  -30.5649 H   0  0  0  0  0  0  0  0  0  0  0  0
   -8.9118   18.3305  -31.4973 H   0  0  0  0  0  0  0  0  0  0  0  0
   -6.6732   16.7843  -31.6372 H   0  0  0  0  0  0  0  0  0  0  0  0
   -7.8575   16.9624  -32.9760 H   0  0  0  0  0  0  0  0  0  0  0  0
   -6.3486   17.9371  -32.9760 H   0  0  0  0  0  0  0  0  0  0  0  0
  1  2  1  0
  2  3  1  0
  3  4  1  0
  4  5  1  0
  5  6  1  0
  6  7  1  0
  7  8  1  0
  8  9  2  0
  9 10  1  0
 10 11  2  0
 11 12  1  0
 12 13  2  0
 13 14  1  0
 14 15  2  0
 15 16  1  0
 16 17  2  0
 17 18  1  0
 18 19  1  0
 19 20  1  0
 20 21  1  0
 19 22  1  0
 22 23  1  0
 17  8  1  0
 15 10  1  0
  1 24  1  0
  1 25  1  0
  1 26  1  0
  2 27  1  0
  2 28  1  0
  3 29  1  0
  4 30  1  0
  4 31  1  0
  5 32  1  0
  5 33  1  0
  6 34  1  0
  6 35  1  0
  9 36  1  0
 11 37  1  0
 12 38  1  0
 13 39  1  0
 14 40  1  0
 16 41  1  0
 18 42  1  0
 18 43  1  0
 19 44  1  0
 20 45  1  0
 20 46  1  0
 21 47  1  0
 21 48  1  0
 21 49  1  0
 22 50  1  0
 22 51  1  0
 23 52  1  0
 23 53  1  0
 23 54  1  0
M  CHG  1  19   1
M  END
>  <UniqueID>  (18) 
18

>  <SMILES>  (18) 
CCNCCCOc1cc2ccccc2cc1C[NH+](CC)CC

>  <Energy>  (18) 
57.144340738048044

>  <Genealogy>  (18) 
CCNCCCOc1cc2ccccc2cc1C[NH+](CC)CC (protonated)
CCNCCCOc1cc2ccccc2cc1C[NH+](CC)CC (3D coordinates assigned)
CCNCCCOc1cc2ccccc2cc1C[NH+](CC)CC (optimized conformer: 57.144340738048044 kcal/mol)

>  <smiles>  (18) 
CCNCCCOc1cc2ccccc2cc1CN(CC)CC

>  <score_type>  (18) 
oracle

>  <origin>  (18) 
adg

>  <m_score__min__energy>  (18) 
-6.9199999999999999

>  <m_primary>  (18) 
energy

$$$$
18:0
     RDKit          3D

 46 46  0  0  0  0  0  0  0  0999 V2000
   -9.5170   21.8460  -31.9230 C   0  0  0  0  0  0  0  0  0  0  0  0
   -8.6400   20.8040  -31.2330 C   0  0  0  0  0  0  0  0  0  0  0  0
   -7.8480   19.9470  -32.2300 C   0  0  0  0  0  0  0  0  0  0  0  0
   -8.2720   18.4980  -32.2150 C   0  0  0  0  0  0  0  0  0  0  0  0
   -9.4190   18.2080  -31.9070 O   0  0  0  0  0  0  0  0  0  0  0  0
   -7.2910   17.3970  -32.5270 C   0  0  0  0  0  0  0  0  0  0  0  0
   -5.8530   17.9360  -32.5700 C   0  0  0  0  0  0  0  0  0  0  0  0
   -5.5010   18.5590  -33.9340 C   0  0  0  0  0  0  0  0  0  0  0  0
   -3.9800   18.7170  -34.1670 C   0  0  0  0  0  0  0  0  0  0  0  0
   -3.2810   19.6160  -33.1290 C   0  0  0  0  0  0  0  0  0  0  0  0
   -3.2330   21.1060  -33.5090 C   0  0  0  0  0  0  0  0  0  0  0  0
   -4.2700   21.8930  -32.8270 N   0  0  0  0  0  0  0  0  0  0  0  0
   -3.7180   22.7530  -31.7740 C   0  0  0  0  0  0  0  0  0  0  0  0
   -4.8470   23.4900  -31.1030 C   0  0  0  0  0  0  0  0  0  0  0  0
   -6.1540   22.9800  -31.1930 C   0  0  0  0  0  0  0  0  0  0  0  0
   -7.2300   23.6910  -30.6560 C   0  0  0  0  0  0  0  0  0  0  0  0
   -7.0140   24.9210  -30.0320 C   0  0  0  0  0  0  0  0  0  0  0  0
   -5.7210   25.4440  -29.9480 C   0  0  0  0  0  0  0  0  0  0  0  0
   -4.6390   24.7400  -30.4870 C   0  0  0  0  0  0  0  0  0  0  0  0
   -3.3640   25.2950  -30.4160 O   0  0  0  0  0  0  0  0  0  0  0  0
  -10.0294   22.4548  -31.1636 H   0  0  0  0  0  0  0  0  0  0  0  0
   -8.8896   22.4953  -32.5513 H   0  0  0  0  0  0  0  0  0  0  0  0
  -10.2639   21.3386  -32.5513 H   0  0  0  0  0  0  0  0  0  0  0  0
   -7.9299   21.3228  -30.5722 H   0  0  0  0  0  0  0  0  0  0  0  0
   -9.3025   20.1318  -30.6679 H   0  0  0  0  0  0  0  0  0  0  0  0
   -8.0038   20.3492  -33.2419 H   0  0  0  0  0  0  0  0  0  0  0  0
   -6.7888   19.9873  -31.9361 H   0  0  0  0  0  0  0  0  0  0  0  0
   -7.3614   16.6217  -31.7498 H   0  0  0  0  0  0  0  0  0  0  0  0
   -7.5374   16.9775  -33.5136 H   0  0  0  0  0  0  0  0  0  0  0  0
   -5.7401   18.7042  -31.7909 H   0  0  0  0  0  0  0  0  0  0  0  0
   -5.1717   17.0889  -32.4019 H   0  0  0  0  0  0  0  0  0  0  0  0
   -5.9094   17.9149  -34.7266 H   0  0  0  0  0  0  0  0  0  0  0  0
   -5.9371   19.5687  -33.9503 H   0  0  0  0  0  0  0  0  0  0  0  0
   -3.5180   17.7195  -34.1287 H   0  0  0  0  0  0  0  0  0  0  0  0
   -3.8550   19.2021  -35.1463 H   0  0  0  0  0  0  0  0  0  0  0  0
   -3.8189   19.5215  -32.1742 H   0  0  0  0  0  0  0  0  0  0  0  0
   -2.2374   19.2734  -33.0688 H   0  0  0  0  0  0  0  0  0  0  0  0
   -2.2468   21.5087  -33.2348 H   0  0  0  0  0  0  0  0  0  0  0  0
   -3.4131   21.1815  -34.5915 H   0  0  0  0  0  0  0  0  0  0  0  0
   -4.7120   22.5150  -33.5450 H   0  0  0  0  0  0  0  0  0  0  0  0
   -3.1883   22.1359  -31.0333 H   0  0  0  0  0  0  0  0  0  0  0  0
   -3.0123   23.4734  -32.2135 H   0  0  0  0  0  0  0  0  0  0  0  0
   -6.3306   22.0145  -31.6896 H   0  0  0  0  0  0  0  0  0  0  0  0
   -8.2485   23.2812  -30.7249 H   0  0  0  0  0  0  0  0  0  0  0  0
   -7.8615   25.4783  -29.6065 H   0  0  0  0  0  0  0  0  0  0  0  0
   -5.5532   26.4134  -29.4560 H   0  0  0  0  0  0  0  0  0  0  0  0
  1  2  1  0
  2  3  1  0
  3  4  1  0
  4  5  2  0
  4  6  1  0
  6  7  1  0
  7  8  1  0
  8  9  1  0
  9 10  1  0
 10 11  1  0
 11 12  1  0
 12 13  1  0
 13 14  1  0
 14 15  2  0
 15 16  1  0
 16 17  2  0
 17 18  1  0
 18 19  2  0
 19 20  1  0
 19 14  1  0
  1 21  1  0
  1 22  1  0
  1 23  1  0
  2 24  1  0
  2 25  1  0
  3 26  1  0
  3 27  1  0
  6 28  1  0
  6 29  1  0
  7 30  1  0
  7 31  1  0
  8 32  1  0
  8 33  1  0
  9 34  1  0
  9 35  1  0
 10 36  1  0
 10 37  1  0
 11 38  1  0
 11 39  1  0
 12 40  1  0
 13 41  1  0
 13 42  1  0
 15 43  1  0
 16 44  1  0
 17 45  1  0
 18 46  1  0
M  CHG  1  20  -1
M  END
>  <UniqueID>  (19) 
19

>  <SMILES>  (19) 
CCCC(=O)CCCCCCNCc1ccccc1[O-]

>  <Energy>  (19) 
26.179935695735978

>  <Genealogy>  (19) 
CCCC(=O)CCCCCCNCc1ccccc1[O-] (protonated)
CCCC(=O)CCCCCCNCc1ccccc1[O-] (3D coordinates assigned)
CCCC(=O)CCCCCCNCc1ccccc1[O-] (optimized conformer: 26.179935695735978 kcal/mol)

>  <smiles>  (19) 
CCCC(=O)CCCCCCNCc1ccccc1O

>  <score_type>  (19) 
oracle

>  <origin>  (19) 
adg

>  <m_score__min__energy>  (19) 
-10.66

>  <m_primary>  (19) 
energy

$$$$
19:0
     RDKit          3D

 53 56  0  0  0  0  0  0  0  0999 V2000
   -2.5310   20.8890  -29.3560 C   0  0  0  0  0  0  0  0  0  0  0  0
   -1.5700   21.9520  -29.8750 C   0  0  0  0  0  0  0  0  0  0  0  0
   -2.2590   23.2470  -29.9690 N   0  0  0  0  0  0  0  0  0  0  0  0
   -3.1600   23.4780  -28.8250 C   0  0  0  0  0  0  0  0  0  0  0  0
   -4.2220   24.5490  -29.1190 C   0  0  0  0  0  0  0  0  0  0  0  0
   -4.1000   25.0020  -30.4560 O   0  0  0  0  0  0  0  0  0  0  0  0
   -5.3660   25.2730  -31.0300 C   0  0  0  0  0  0  0  0  0  0  0  0
   -5.8200   24.0960  -31.8950 C   0  0  0  0  0  0  0  0  0  0  0  0
   -5.0940   22.8850  -31.5190 N   0  0  0  0  0  0  0  0  0  0  0  0
   -5.4880   21.5980  -32.0160 C   0  0  0  0  0  0  0  0  0  0  0  0
   -4.5390   20.7290  -32.5480 C   0  0  0  0  0  0  0  0  0  0  0  0
   -4.9040   19.4870  -33.0440 C   0  0  0  0  0  0  0  0  0  0  0  0
   -6.1970   19.0330  -33.0080 N   0  0  0  0  0  0  0  0  0  0  0  0
   -6.5020   17.6510  -33.4220 C   0  0  0  0  0  0  0  0  0  0  0  0
   -7.1900   19.9040  -32.5790 C   0  0  0  0  0  0  0  0  0  0  0  0
   -8.5630   19.5660  -32.6670 C   0  0  0  0  0  0  0  0  0  0  0  0
   -9.5470   20.4320  -32.1890 C   0  0  0  0  0  0  0  0  0  0  0  0
   -9.1970   21.6540  -31.6240 C   0  0  0  0  0  0  0  0  0  0  0  0
   -7.8600   22.0380  -31.5550 C   0  0  0  0  0  0  0  0  0  0  0  0
   -6.8440   21.1930  -32.0470 C   0  0  0  0  0  0  0  0  0  0  0  0
   -3.6950   18.8660  -33.6130 C   0  0  0  0  0  0  0  0  0  0  0  0
   -3.5640   17.6980  -34.2950 N   0  0  0  0  0  0  0  0  0  0  0  0
   -2.3410   17.3360  -34.7900 C   0  0  0  0  0  0  0  0  0  0  0  0
   -1.2210   18.1750  -34.6190 C   0  0  0  0  0  0  0  0  0  0  0  0
   -1.3630   19.3980  -33.9430 C   0  0  0  0  0  0  0  0  0  0  0  0
   -2.6240   19.7210  -33.4470 C   0  0  0  0  0  0  0  0  0  0  0  0
   -3.1030   20.9230  -32.7810 C   0  0  0  0  0  0  0  0  0  0  0  0
   -2.4220   21.9490  -32.5170 O   0  0  0  0  0  0  0  0  0  0  0  0
   -2.5254   20.8952  -28.2560 H   0  0  0  0  0  0  0  0  0  0  0  0
   -3.5469   21.1046  -29.7187 H   0  0  0  0  0  0  0  0  0  0  0  0
   -2.2144   19.9000  -29.7187 H   0  0  0  0  0  0  0  0  0  0  0  0
   -0.7180   22.0415  -29.1850 H   0  0  0  0  0  0  0  0  0  0  0  0
   -1.2114   21.6595  -30.8729 H   0  0  0  0  0  0  0  0  0  0  0  0
   -2.8070   23.2800  -30.8600 H   0  0  0  0  0  0  0  0  0  0  0  0
   -3.6692   22.5340  -28.5808 H   0  0  0  0  0  0  0  0  0  0  0  0
   -2.5477   23.8365  -27.9845 H   0  0  0  0  0  0  0  0  0  0  0  0
   -5.2234   24.1187  -28.9707 H   0  0  0  0  0  0  0  0  0  0  0  0
   -4.0748   25.3988  -28.4362 H   0  0  0  0  0  0  0  0  0  0  0  0
   -6.1003   25.4381  -30.2277 H   0  0  0  0  0  0  0  0  0  0  0  0
   -5.2880   26.1710  -31.6604 H   0  0  0  0  0  0  0  0  0  0  0  0
   -6.8982   23.9331  -31.7503 H   0  0  0  0  0  0  0  0  0  0  0  0
   -5.6137   24.3254  -32.9508 H   0  0  0  0  0  0  0  0  0  0  0  0
   -4.1430   22.9940  -31.1000 H   0  0  0  0  0  0  0  0  0  0  0  0
   -6.6406   17.0230  -32.5296 H   0  0  0  0  0  0  0  0  0  0  0  0
   -7.4235   17.6431  -34.0226 H   0  0  0  0  0  0  0  0  0  0  0  0
   -5.6694   17.2560  -34.0226 H   0  0  0  0  0  0  0  0  0  0  0  0
   -8.8575   18.6072  -33.1186 H   0  0  0  0  0  0  0  0  0  0  0  0
  -10.6069   20.1464  -32.2594 H   0  0  0  0  0  0  0  0  0  0  0  0
   -9.9792   22.3196  -31.2302 H   0  0  0  0  0  0  0  0  0  0  0  0
   -7.5942   23.0094  -31.1126 H   0  0  0  0  0  0  0  0  0  0  0  0
   -2.2306   16.3819  -35.3262 H   0  0  0  0  0  0  0  0  0  0  0  0
   -0.2396   17.8730  -35.0135 H   0  0  0  0  0  0  0  0  0  0  0  0
   -0.5080   20.0772  -33.8099 H   0  0  0  0  0  0  0  0  0  0  0  0
  1  2  1  0
  2  3  1  0
  3  4  1  0
  4  5  1  0
  5  6  1  0
  6  7  1  0
  7  8  1  0
  8  9  1  0
  9 10  1  0
 10 11  2  0
 11 12  1  0
 12 13  2  0
 13 14  1  0
 13 15  1  0
 15 16  2  0
 16 17  1  0
 17 18  2  0
 18 19  1  0
 19 20  2  0
 12 21  1  0
 21 22  2  0
 22 23  1  0
 23 24  2  0
 24 25  1  0
 25 26  2  0
 26 27  1  0
 27 28  2  0
 20 10  1  0
 26 21  1  0
 27 11  1  0
 20 15  1  0
  1 29  1  0
  1 30  1  0
  1 31  1  0
  2 32  1  0
  2 33  1  0
  3 34  1  0
  4 35  1  0
  4 36  1  0
  5 37  1  0
  5 38  1  0
  7 39  1  0
  7 40  1  0
  8 41  1  0
  8 42  1  0
  9 43  1  0
 14 44  1  0
 14 45  1  0
 14 46  1  0
 16 47  1  0
 17 48  1  0
 18 49  1  0
 19 50  1  0
 23 51  1  0
 24 52  1  0
 25 53  1  0
M  CHG  1  13   1
M  END
>  <UniqueID>  (20) 
20

>  <SMILES>  (20) 
CCNCCOCCNc1c2c([n+](C)c3ccccc13)-c1ncccc1C2=O

>  <Energy>  (20) 
106.78915587078559

>  <Genealogy>  (20) 
CCNCCOCCNc1c2c([n+](C)c3ccccc13)-c1ncccc1C2=O (3D coordinates assigned)
CCNCCOCCNc1c2c([n+](C)c3ccccc13)-c1ncccc1C2=O (nonaromatic ring conformer: 106.78915587078559 kcal/mol)

>  <smiles>  (20) 
CCNCCOCCNc1c2c([n+](C)c3ccccc13)-c1ncccc1C2=O

>  <score_type>  (20) 
oracle

>  <origin>  (20) 
adg

>  <m_score__min__energy>  (20) 
-9.4100000000000001

>  <m_primary>  (20) 
energy

$$$$
20:0
     RDKit          3D

 80 82  0  0  0  0  0  0  0  0999 V2000
   -1.9212   19.7500  -30.6923 H   0  0  0  0  0  0  0  0  0  0  0  0
   -0.8380   19.9370  -30.7350 C   0  0  0  0  0  0  0  0  0  0  0  0
   -0.1780   19.5540  -31.8510 C   0  0  0  0  0  0  0  0  0  0  0  0
   -0.1410   18.0840  -32.1890 C   0  0  0  0  0  0  0  0  0  0  0  0
   -0.1262   17.4945  -31.2604 H   0  0  0  0  0  0  0  0  0  0  0  0
   -1.0328   17.8203  -32.7765 H   0  0  0  0  0  0  0  0  0  0  0  0
    0.7629   17.8655  -32.7765 H   0  0  0  0  0  0  0  0  0  0  0  0
    0.5120   20.5370  -32.7840 C   0  0  0  0  0  0  0  0  0  0  0  0
    1.1161   21.2302  -32.1802 H   0  0  0  0  0  0  0  0  0  0  0  0
    1.1340   19.9539  -33.4791 H   0  0  0  0  0  0  0  0  0  0  0  0
   -0.4820   21.3560  -33.6260 C   0  0  0  0  0  0  0  0  0  0  0  0
   -0.6507   22.3180  -33.1199 H   0  0  0  0  0  0  0  0  0  0  0  0
   -0.0305   21.4692  -34.6227 H   0  0  0  0  0  0  0  0  0  0  0  0
   -1.8430   20.6790  -33.8360 C   0  0  0  0  0  0  0  0  0  0  0  0
   -2.1895   20.9044  -34.8554 H   0  0  0  0  0  0  0  0  0  0  0  0
   -1.6950   19.6014  -33.6721 H   0  0  0  0  0  0  0  0  0  0  0  0
   -2.9200   21.1400  -32.8450 C   0  0  0  0  0  0  0  0  0  0  0  0
   -3.0790   20.3485  -32.0978 H   0  0  0  0  0  0  0  0  0  0  0  0
   -2.5723   22.0684  -32.3684 H   0  0  0  0  0  0  0  0  0  0  0  0
   -4.1890   21.4200  -33.5160 N   0  0  0  0  0  0  0  0  0  0  0  0
   -4.2470   22.1640  -34.2480 H   0  0  0  0  0  0  0  0  0  0  0  0
   -5.4130   20.8230  -33.0590 C   0  0  0  0  0  0  0  0  0  0  0  0
   -6.3170   21.5770  -32.2830 C   0  0  0  0  0  0  0  0  0  0  0  0
   -7.5060   20.9600  -31.8170 C   0  0  0  0  0  0  0  0  0  0  0  0
   -7.8400   19.6900  -32.2470 N   0  0  0  0  0  0  0  0  0  0  0  0
   -9.2110   19.1790  -32.0280 C   0  0  0  0  0  0  0  0  0  0  0  0
   -9.4069   19.1060  -30.9481 H   0  0  0  0  0  0  0  0  0  0  0  0
   -9.9364   19.8671  -32.4866 H   0  0  0  0  0  0  0  0  0  0  0  0
   -9.3090   18.1840  -32.4866 H   0  0  0  0  0  0  0  0  0  0  0  0
   -6.8970   18.8970  -32.8730 C   0  0  0  0  0  0  0  0  0  0  0  0
   -7.1100   17.5100  -33.0940 C   0  0  0  0  0  0  0  0  0  0  0  0
   -8.0434   17.0432  -32.7465 H   0  0  0  0  0  0  0  0  0  0  0  0
   -6.1520   16.7300  -33.7460 C   0  0  0  0  0  0  0  0  0  0  0  0
   -6.3441   15.6610  -33.9203 H   0  0  0  0  0  0  0  0  0  0  0  0
   -4.9600   17.2950  -34.1750 C   0  0  0  0  0  0  0  0  0  0  0  0
   -4.2087   16.6755  -34.6867 H   0  0  0  0  0  0  0  0  0  0  0  0
   -4.7170   18.6490  -33.9560 C   0  0  0  0  0  0  0  0  0  0  0  0
   -3.7695   19.0913  -34.2974 H   0  0  0  0  0  0  0  0  0  0  0  0
   -5.6690   19.4630  -33.3020 C   0  0  0  0  0  0  0  0  0  0  0  0
   -8.4000   21.7150  -30.8470 C   0  0  0  0  0  0  0  0  0  0  0  0
   -9.1666   22.2611  -31.4164 H   0  0  0  0  0  0  0  0  0  0  0  0
   -8.8669   20.9882  -30.1660 H   0  0  0  0  0  0  0  0  0  0  0  0
   -7.5960   22.7090  -30.0150 C   0  0  0  0  0  0  0  0  0  0  0  0
   -8.2689   23.2378  -29.3240 H   0  0  0  0  0  0  0  0  0  0  0  0
   -6.8294   22.1700  -29.4390 H   0  0  0  0  0  0  0  0  0  0  0  0
   -6.9230   23.7160  -30.9390 C   0  0  0  0  0  0  0  0  0  0  0  0
   -7.6993   24.2657  -31.4915 H   0  0  0  0  0  0  0  0  0  0  0  0
   -6.3196   24.3962  -30.3199 H   0  0  0  0  0  0  0  0  0  0  0  0
   -5.9840   23.0310  -31.9490 C   0  0  0  0  0  0  0  0  0  0  0  0
   -6.0151   23.6084  -32.8848 H   0  0  0  0  0  0  0  0  0  0  0  0
   -4.9936   23.0095  -31.4708 H   0  0  0  0  0  0  0  0  0  0  0  0
   -0.1910   20.6060  -29.5380 C   0  0  0  0  0  0  0  0  0  0  0  0
   -0.3312   19.9665  -28.6541 H   0  0  0  0  0  0  0  0  0  0  0  0
    0.8772   20.7451  -29.7608 H   0  0  0  0  0  0  0  0  0  0  0  0
   -0.7780   21.9310  -29.2660 N   0  0  0  0  0  0  0  0  0  0  0  0
   -0.4920   22.2340  -28.3060 H   0  0  0  0  0  0  0  0  0  0  0  0
   -0.3690   22.6340  -29.9230 H   0  0  0  0  0  0  0  0  0  0  0  0
   -2.2550   21.9540  -29.3410 C   0  0  0  0  0  0  0  0  0  0  0  0
   -2.5878   21.0330  -29.8420 H   0  0  0  0  0  0  0  0  0  0  0  0
   -2.6192   22.0370  -28.3064 H   0  0  0  0  0  0  0  0  0  0  0  0
   -2.8400   23.1610  -30.1110 C   0  0  0  0  0  0  0  0  0  0  0  0
   -2.1268   23.4447  -30.8990 H   0  0  0  0  0  0  0  0  0  0  0  0
   -3.8130   22.8374  -30.5093 H   0  0  0  0  0  0  0  0  0  0  0  0
   -3.1120   24.3980  -29.2410 C   0  0  0  0  0  0  0  0  0  0  0  0
   -3.9549   24.9600  -29.6696 H   0  0  0  0  0  0  0  0  0  0  0  0
   -3.3493   24.0614  -28.2210 H   0  0  0  0  0  0  0  0  0  0  0  0
   -1.9330   25.2740  -29.1800 N   0  0  0  0  0  0  0  0  0  0  0  0
   -1.1190   24.8160  -29.6530 H   0  0  0  0  0  0  0  0  0  0  0  0
   -1.5990   25.6700  -27.7990 C   0  0  0  0  0  0  0  0  0  0  0  0
   -0.7948   26.4196  -27.8353 H   0  0  0  0  0  0  0  0  0  0  0  0
   -2.5168   26.0696  -27.3430 H   0  0  0  0  0  0  0  0  0  0  0  0
   -1.1300   24.4910  -26.9250 C   0  0  0  0  0  0  0  0  0  0  0  0
   -1.2255   24.7810  -25.8682 H   0  0  0  0  0  0  0  0  0  0  0  0
   -1.7626   23.6276  -27.1786 H   0  0  0  0  0  0  0  0  0  0  0  0
    0.3290   24.0770  -27.1870 C   0  0  0  0  0  0  0  0  0  0  0  0
    1.0003   24.7874  -26.6824 H   0  0  0  0  0  0  0  0  0  0  0  0
    0.4792   23.0596  -26.7967 H   0  0  0  0  0  0  0  0  0  0  0  0
    0.6260   24.0740  -28.6200 N   0  0  0  0  0  0  0  0  0  0  0  0
    0.1960   24.9230  -29.0530 H   0  0  0  0  0  0  0  0  0  0  0  0
    1.6640   24.1710  -28.7310 H   0  0  0  0  0  0  0  0  0  0  0  0
  1  2  1  0
  2  3  2  0
  3  4  1  0
  4  5  1  0
  4  6  1  0
  4  7  1  0
  3  8  1  0
  8  9  1  0
  8 10  1  0
  8 11  1  0
 11 12  1  0
 11 13  1  0
 11 14  1  0
 14 15  1  0
 14 16  1  0
 14 17  1  0
 17 18  1  0
 17 19  1  0
 17 20  1  0
 20 21  1  0
 20 22  1  0
 22 23  2  0
 23 24  1  0
 24 25  2  0
 25 26  1  0
 26 27  1  0
 26 28  1  0
 26 29  1  0
 25 30  1  0
 30 31  2  0
 31 32  1  0
 31 33  1  0
 33 34  1  0
 33 35  2  0
 35 36  1  0
 35 37  1  0
 37 38  1  0
 37 39  2  0
 24 40  1  0
 40 41  1  0
 40 42  1  0
 40 43  1  0
 43 44  1  0
 43 45  1  0
 43 46  1  0
 46 47  1  0
 46 48  1  0
 46 49  1  0
 49 50  1  0
 49 51  1  0
  2 52  1  0
 52 53  1  0
 52 54  1  0
 52 55  1  0
 55 56  1  0
 55 57  1  0
 55 58  1  0
 58 59  1  0
 58 60  1  0
 58 61  1  0
 61 62  1  0
 61 63  1  0
 61 64  1  0
 64 65  1  0
 64 66  1  0
 64 67  1  0
 67 68  1  0
 67 69  1  0
 69 70  1  0
 69 71  1  0
 69 72  1  0
 72 73  1  0
 72 74  1  0
 72 75  1  0
 75 76  1  0
 75 77  1  0
 75 78  1  0
 78 79  1  0
 78 80  1  0
 39 22  1  0
 49 23  1  0
 39 30  1  0
M  CHG  2  25   1  55   1
M  END
>  <UniqueID>  (21) 
21

>  <SMILES>  (21) 
C/C(=C/C[NH2+]CCCNCCCN)CCCCNc1c2c([n+](C)c3ccccc13)CCCC2

>  <Energy>  (21) 
93.02725392256826

>  <Genealogy>  (21) 
CC(=CC[NH2+]CCCNCCCN)CCCCNc1c2c([n+](C)c3ccccc13)CCCC2 (protonated)
C/C(=C/C[NH2+]CCCNCCCN)CCCCNc1c2c([n+](C)c3ccccc13)CCCC2 (cis-trans isomerization)
C/C(=C/C[NH2+]CCCNCCCN)CCCCNc1c2c([n+](C)c3ccccc13)CCCC2 (3D coordinates assigned)
C/C(=C/C[NH2+]CCCNCCCN)CCCCNc1c2c([n+](C)c3ccccc13)CCCC2 (nonaromatic ring conformer: 93.02725392256826 kcal/mol)

>  <smiles>  (21) 
CC(=CCNCCCNCCCN)CCCCNc1c2c([n+](C)c3ccccc13)CCCC2

>  <score_type>  (21) 
oracle

>  <origin>  (21) 
adg

>  <m_score__min__energy>  (21) 
-8.3900000000000006

>  <m_primary>  (21) 
energy

$$$$
21:0
     RDKit          3D

105109  0  0  0  0  0  0  0  0999 V2000
   -8.0040   18.3580  -32.7090 C   0  0  0  0  0  0  0  0  0  0  0  0
   -7.7150   19.1140  -31.4040 C   0  0  0  0  0  0  0  0  0  0  0  0
   -8.5670   20.3090  -31.1980 N   0  0  0  0  0  0  0  0  0  0  0  0
   -9.4380   20.5740  -32.3590 C   0  0  0  0  0  0  0  0  0  0  0  0
   -7.7800   21.4970  -30.8010 C   0  0  0  0  0  0  0  0  0  0  0  0
   -8.1400   22.7220  -31.6480 C   0  0  0  0  0  0  0  0  0  0  0  0
   -7.2170   22.8570  -32.7140 O   0  0  0  0  0  0  0  0  0  0  0  0
   -6.2900   21.7870  -32.7220 C   0  0  0  0  0  0  0  0  0  0  0  0
   -4.8930   22.3050  -32.3920 C   0  0  0  0  0  0  0  0  0  0  0  0
   -3.9450   21.7000  -33.2380 O   0  0  0  0  0  0  0  0  0  0  0  0
   -2.7310   22.0030  -32.7090 N   0  0  0  0  0  0  0  0  0  0  0  0
   -1.5510   21.3250  -33.1490 C   0  0  0  0  0  0  0  0  0  0  0  0
   -0.7200   21.9590  -33.8500 O   0  0  0  0  0  0  0  0  0  0  0  0
   -1.2560   19.9070  -32.6460 C   0  0  2  0  0  0  0  0  0  0  0  0
   -1.1620   18.9690  -33.8780 C   0  0  0  0  0  0  0  0  0  0  0  0
   -2.5210   18.7620  -34.5710 C   0  0  0  0  0  0  0  0  0  0  0  0
   -3.6220   18.2110  -33.6210 C   0  0  0  0  0  0  0  0  0  0  0  0
   -4.9760   18.2650  -34.3610 C   0  0  0  0  0  0  0  0  0  0  0  0
   -3.3470   16.7300  -33.2670 C   0  0  0  0  0  0  0  0  0  0  0  0
   -3.7220   19.0860  -32.3360 C   0  0  0  0  0  0  0  0  0  0  0  0
   -2.3390   19.3310  -31.6700 C   0  0  2  0  0  0  0  0  0  0  0  0
   -2.3290   20.1530  -30.3790 C   0  0  0  0  0  0  0  0  0  0  0  0
   -3.1570   21.2120  -30.2550 C   0  0  0  0  0  0  0  0  0  0  0  0
   -2.6760   22.5190  -29.6980 C   0  0  0  0  0  0  0  0  0  0  0  0
   -1.8020   22.4160  -28.4190 C   0  0  2  0  0  0  0  0  0  0  0  0
   -0.8250   23.6660  -28.1670 C   0  0  1  0  0  0  0  0  0  0  0  0
    0.2480   23.8190  -29.2840 C   0  0  0  0  0  0  0  0  0  0  0  0
   -1.6670   24.9860  -28.2370 C   0  0  0  0  0  0  0  0  0  0  0  0
   -2.5830   25.2500  -27.0350 C   0  0  0  0  0  0  0  0  0  0  0  0
   -2.0520   24.7270  -25.6930 C   0  0  0  0  0  0  0  0  0  0  0  0
   -0.5170   24.5570  -25.6300 C   0  0  0  0  0  0  0  0  0  0  0  0
   -0.1600   24.0690  -24.1930 C   0  0  0  0  0  0  0  0  0  0  0  0
    0.2070   25.9280  -25.7650 C   0  0  0  0  0  0  0  0  0  0  0  0
   -0.0470   23.5460  -26.7670 C   0  0  1  0  0  0  0  0  0  0  0  0
    0.0210   22.0800  -26.2540 C   0  0  0  0  0  0  0  0  0  0  0  0
    0.1100   21.0410  -27.3710 C   0  0  0  0  0  0  0  0  0  0  0  0
   -1.2150   20.9510  -28.1890 C   0  0  1  0  0  0  0  0  0  0  0  0
   -2.2530   20.1770  -27.2850 C   0  0  0  0  0  0  0  0  0  0  0  0
   -1.0330   20.1020  -29.5580 C   0  0  1  0  0  0  0  0  0  0  0  0
   -0.6950   18.6140  -29.1930 C   0  0  0  0  0  0  0  0  0  0  0  0
    0.0780   20.6300  -30.5230 C   0  0  0  0  0  0  0  0  0  0  0  0
    0.1210   19.9130  -31.9030 C   0  0  0  0  0  0  0  0  0  0  0  0
   -8.3877   17.3542  -32.4740 H   0  0  0  0  0  0  0  0  0  0  0  0
   -8.7546   18.9098  -33.2939 H   0  0  0  0  0  0  0  0  0  0  0  0
   -7.0767   18.2684  -33.2939 H   0  0  0  0  0  0  0  0  0  0  0  0
   -7.8765   18.4248  -30.5620 H   0  0  0  0  0  0  0  0  0  0  0  0
   -6.6763   19.4707  -31.4663 H   0  0  0  0  0  0  0  0  0  0  0  0
  -10.4352   20.8774  -32.0076 H   0  0  0  0  0  0  0  0  0  0  0  0
   -9.0027   21.3803  -32.9675 H   0  0  0  0  0  0  0  0  0  0  0  0
   -9.5255   19.6618  -32.9675 H   0  0  0  0  0  0  0  0  0  0  0  0
   -7.9828   21.7223  -29.7436 H   0  0  0  0  0  0  0  0  0  0  0  0
   -6.7148   21.2717  -30.9579 H   0  0  0  0  0  0  0  0  0  0  0  0
   -9.1539   22.5983  -32.0564 H   0  0  0  0  0  0  0  0  0  0  0  0
   -8.1012   23.6229  -31.0181 H   0  0  0  0  0  0  0  0  0  0  0  0
   -6.5886   21.0406  -31.9712 H   0  0  0  0  0  0  0  0  0  0  0  0
   -6.2780   21.3268  -33.7210 H   0  0  0  0  0  0  0  0  0  0  0  0
   -4.8654   23.3954  -32.5343 H   0  0  0  0  0  0  0  0  0  0  0  0
   -4.6537   22.0600  -31.3467 H   0  0  0  0  0  0  0  0  0  0  0  0
   -0.4607   19.4086  -34.6025 H   0  0  0  0  0  0  0  0  0  0  0  0
   -0.8167   17.9869  -33.5228 H   0  0  0  0  0  0  0  0  0  0  0  0
   -2.8587   19.7291  -34.9720 H   0  0  0  0  0  0  0  0  0  0  0  0
   -2.3708   18.0129  -35.3624 H   0  0  0  0  0  0  0  0  0  0  0  0
   -5.7942   18.2976  -33.6265 H   0  0  0  0  0  0  0  0  0  0  0  0
   -5.0134   19.1654  -34.9918 H   0  0  0  0  0  0  0  0  0  0  0  0
   -5.0850   17.3705  -34.9918 H   0  0  0  0  0  0  0  0  0  0  0  0
   -3.3252   16.6123  -32.1735 H   0  0  0  0  0  0  0  0  0  0  0  0
   -4.1432   16.0984  -33.6879 H   0  0  0  0  0  0  0  0  0  0  0  0
   -2.3771   16.4264  -33.6879 H   0  0  0  0  0  0  0  0  0  0  0  0
   -4.1605   20.0583  -32.6052 H   0  0  0  0  0  0  0  0  0  0  0  0
   -4.3488   18.5444  -31.6123 H   0  0  0  0  0  0  0  0  0  0  0  0
   -2.0742   18.3023  -31.3841 H   0  0  0  0  0  0  0  0  0  0  0  0
   -4.2067   21.1143  -30.5691 H   0  0  0  0  0  0  0  0  0  0  0  0
   -2.0818   23.0213  -30.4756 H   0  0  0  0  0  0  0  0  0  0  0  0
   -3.5790   23.0742  -29.4043 H   0  0  0  0  0  0  0  0  0  0  0  0
   -2.4800   22.5375  -27.5614 H   0  0  0  0  0  0  0  0  0  0  0  0
    1.2376   23.9601  -28.8249 H   0  0  0  0  0  0  0  0  0  0  0  0
    0.2591   22.9134  -29.9083 H   0  0  0  0  0  0  0  0  0  0  0  0
    0.0056   24.6917  -29.9083 H   0  0  0  0  0  0  0  0  0  0  0  0
   -0.9670   25.8303  -28.3215 H   0  0  0  0  0  0  0  0  0  0  0  0
   -2.3331   24.8735  -29.1051 H   0  0  0  0  0  0  0  0  0  0  0  0
   -2.7259   26.3370  -26.9461 H   0  0  0  0  0  0  0  0  0  0  0  0
   -3.5172   24.7037  -27.2321 H   0  0  0  0  0  0  0  0  0  0  0  0
   -2.3512   25.4352  -24.9063 H   0  0  0  0  0  0  0  0  0  0  0  0
   -2.4824   23.7238  -25.5573 H   0  0  0  0  0  0  0  0  0  0  0  0
   -0.6404   24.7257  -23.4528 H   0  0  0  0  0  0  0  0  0  0  0  0
   -0.5187   23.0382  -24.0561 H   0  0  0  0  0  0  0  0  0  0  0  0
    0.9310   24.0988  -24.0561 H   0  0  0  0  0  0  0  0  0  0  0  0
    0.4196   26.3306  -24.7636 H   0  0  0  0  0  0  0  0  0  0  0  0
    1.1508   25.7918  -26.3134 H   0  0  0  0  0  0  0  0  0  0  0  0
   -0.4376   26.6306  -26.3134 H   0  0  0  0  0  0  0  0  0  0  0  0
    0.9763   23.8706  -27.0067 H   0  0  0  0  0  0  0  0  0  0  0  0
    0.9090   21.9774  -25.6129 H   0  0  0  0  0  0  0  0  0  0  0  0
   -0.9150   21.8866  -25.7094 H   0  0  0  0  0  0  0  0  0  0  0  0
    0.9292   21.3188  -28.0505 H   0  0  0  0  0  0  0  0  0  0  0  0
    0.2929   20.0594  -26.9095 H   0  0  0  0  0  0  0  0  0  0  0  0
   -2.0181   20.3522  -26.2248 H   0  0  0  0  0  0  0  0  0  0  0  0
   -3.2689   20.5398  -27.5003 H   0  0  0  0  0  0  0  0  0  0  0  0
   -2.1951   19.0998  -27.5003 H   0  0  0  0  0  0  0  0  0  0  0  0
   -0.6695   18.5015  -28.0991 H   0  0  0  0  0  0  0  0  0  0  0  0
   -1.4651   17.9497  -29.6120 H   0  0  0  0  0  0  0  0  0  0  0  0
    0.2865   18.3476  -29.6120 H   0  0  0  0  0  0  0  0  0  0  0  0
   -0.0977   21.7018  -30.6970 H   0  0  0  0  0  0  0  0  0  0  0  0
    1.0422   20.4288  -30.0333 H   0  0  0  0  0  0  0  0  0  0  0  0
    0.8576   20.4257  -32.5390 H   0  0  0  0  0  0  0  0  0  0  0  0
    0.3916   18.8636  -31.7143 H   0  0  0  0  0  0  0  0  0  0  0  0
  1  2  1  0
  2  3  1  0
  3  4  1  0
  3  5  1  0
  5  6  1  0
  6  7  1  0
  7  8  1  0
  8  9  1  0
  9 10  1  0
 10 11  1  0
 11 12  1  0
 12 13  2  0
 14 12  1  6
 14 15  1  0
 15 16  1  0
 16 17  1  0
 17 18  1  0
 17 19  1  0
 17 20  1  0
 20 21  1  0
 21 22  1  0
 22 23  2  0
 23 24  1  0
 24 25  1  0
 25 26  1  0
 26 27  1  6
 26 28  1  0
 28 29  1  0
 29 30  1  0
 30 31  1  0
 31 32  1  0
 31 33  1  0
 31 34  1  0
 34 35  1  0
 35 36  1  0
 36 37  1  0
 37 38  1  1
 37 39  1  0
 39 40  1  1
 39 41  1  0
 41 42  1  0
 21 14  1  0
 39 22  1  0
 42 14  1  0
 37 25  1  0
 34 26  1  0
  1 43  1  0
  1 44  1  0
  1 45  1  0
  2 46  1  0
  2 47  1  0
  4 48  1  0
  4 49  1  0
  4 50  1  0
  5 51  1  0
  5 52  1  0
  6 53  1  0
  6 54  1  0
  8 55  1  0
  8 56  1  0
  9 57  1  0
  9 58  1  0
 15 59  1  0
 15 60  1  0
 16 61  1  0
 16 62  1  0
 18 63  1  0
 18 64  1  0
 18 65  1  0
 19 66  1  0
 19 67  1  0
 19 68  1  0
 20 69  1  0
 20 70  1  0
 21 71  1  1
 23 72  1  0
 24 73  1  0
 24 74  1  0
 25 75  1  1
 27 76  1  0
 27 77  1  0
 27 78  1  0
 28 79  1  0
 28 80  1  0
 29 81  1  0
 29 82  1  0
 30 83  1  0
 30 84  1  0
 32 85  1  0
 32 86  1  0
 32 87  1  0
 33 88  1  0
 33 89  1  0
 33 90  1  0
 34 91  1  6
 35 92  1  0
 35 93  1  0
 36 94  1  0
 36 95  1  0
 38 96  1  0
 38 97  1  0
 38 98  1  0
 40 99  1  0
 40100  1  0
 40101  1  0
 41102  1  0
 41103  1  0
 42104  1  0
 42105  1  0
M  CHG  1  11  -1
M  END
>  <UniqueID>  (22) 
22

>  <SMILES>  (22) 
CCN(C)CCOCCO[N-]C(=O)[C@]12CCC(C)(C)C[C@@H]1C1=CCC3C4(C)CCCC(C)(C)C4CCC3(C)C1(C)CC2

>  <Energy>  (22) 
174.43827645499326

>  <Genealogy>  (22) 
CCN(C)CCOCCO[N-]C(=O)C12CCC(C)(C)CC1C1=CCC3C4(C)CCCC(C)(C)C4CCC3(C)C1(C)CC2 (protonated)
CCN(C)CCOCCO[N-]C(=O)[C@]12CCC(C)(C)C[C@@H]1C1=CCC3C4(C)CCCC(C)(C)C4CCC3(C)C1(C)CC2 (chirality)
CCN(C)CCOCCO[N-]C(=O)[C@]12CCC(C)(C)C[C@@H]1C1=CCC3C4(C)CCCC(C)(C)C4CCC3(C)C1(C)CC2 (3D coordinates assigned)
CCN(C)CCOCCO[N-]C(=O)[C@]12CCC(C)(C)C[C@@H]1C1=CCC3C4(C)CCCC(C)(C)C4CCC3(C)C1(C)CC2 (nonaromatic ring conformer: 174.43827645499326 kcal/mol)

>  <smiles>  (22) 
CCN(C)CCOCCONC(=O)C12CCC(C)(C)CC1C1=CCC3C4(C)CCCC(C)(C)C4CCC3(C)C1(C)CC2

>  <score_type>  (22) 
oracle

>  <origin>  (22) 
adg

>  <m_score__min__energy>  (22) 
-11.26

>  <m_primary>  (22) 
energy

$$$$
22:0
     RDKit          3D

 53 54  0  0  0  0  0  0  0  0999 V2000
   -5.6150   18.1870  -35.1700 C   0  0  0  0  0  0  0  0  0  0  0  0
   -6.0400   19.0770  -34.0050 C   0  0  0  0  0  0  0  0  0  0  0  0
   -6.0090   18.3210  -32.7320 N   0  0  0  0  0  0  0  0  0  0  0  0
   -5.7720   19.2280  -31.5950 C   0  0  0  0  0  0  0  0  0  0  0  0
   -7.2650   17.5650  -32.5300 C   0  0  0  0  0  0  0  0  0  0  0  0
   -8.2000   18.3350  -31.5930 C   0  0  0  0  0  0  0  0  0  0  0  0
   -8.6420   19.5250  -32.2180 O   0  0  0  0  0  0  0  0  0  0  0  0
   -8.9270   20.5180  -31.2530 C   0  0  0  0  0  0  0  0  0  0  0  0
   -8.8040   21.8930  -31.8970 C   0  0  0  0  0  0  0  0  0  0  0  0
   -7.4600   22.1150  -32.2380 O   0  0  0  0  0  0  0  0  0  0  0  0
   -6.8850   22.7250  -31.1690 N   0  0  0  0  0  0  0  0  0  0  0  0
   -6.8570   24.1730  -31.4140 C   0  0  0  0  0  0  0  0  0  0  0  0
   -6.5720   24.9860  -30.1360 C   0  0  0  0  0  0  0  0  0  0  0  0
   -5.1760   25.4270  -30.0790 N   0  0  0  0  0  0  0  0  0  0  0  0
   -4.0970   24.4890  -30.1180 C   0  0  0  0  0  0  0  0  0  0  0  0
   -4.0250   23.4660  -30.9950 N   0  0  0  0  0  0  0  0  0  0  0  0
   -2.8840   22.7370  -30.8350 C   0  0  0  0  0  0  0  0  0  0  0  0
   -2.5920   21.5650  -31.7030 C   0  0  0  0  0  0  0  0  0  0  0  0
   -3.2700   21.4170  -32.9290 C   0  0  0  0  0  0  0  0  0  0  0  0
   -3.0090   20.3230  -33.7610 C   0  0  0  0  0  0  0  0  0  0  0  0
   -2.0710   19.3610  -33.3800 C   0  0  0  0  0  0  0  0  0  0  0  0
   -1.7120   17.8720  -34.5230 Br  0  0  0  0  0  0  0  0  0  0  0  0
   -1.3960   19.4910  -32.1650 C   0  0  0  0  0  0  0  0  0  0  0  0
   -1.6520   20.5820  -31.3290 C   0  0  0  0  0  0  0  0  0  0  0  0
   -2.0430   23.2000  -29.8150 C   0  0  0  0  0  0  0  0  0  0  0  0
   -2.7600   24.5470  -29.1060 S   0  0  0  0  0  0  0  0  0  0  0  0
   -5.1718   17.2589  -34.7797 H   0  0  0  0  0  0  0  0  0  0  0  0
   -6.4939   17.9433  -35.7849 H   0  0  0  0  0  0  0  0  0  0  0  0
   -4.8730   18.7174  -35.7849 H   0  0  0  0  0  0  0  0  0  0  0  0
   -5.3521   19.9324  -33.9341 H   0  0  0  0  0  0  0  0  0  0  0  0
   -7.0671   19.4279  -34.1837 H   0  0  0  0  0  0  0  0  0  0  0  0
   -5.9153   18.6795  -30.6523 H   0  0  0  0  0  0  0  0  0  0  0  0
   -4.7429   19.6137  -31.6420 H   0  0  0  0  0  0  0  0  0  0  0  0
   -6.4809   20.0678  -31.6420 H   0  0  0  0  0  0  0  0  0  0  0  0
   -7.7619   17.4198  -33.5006 H   0  0  0  0  0  0  0  0  0  0  0  0
   -7.0287   16.5896  -32.0798 H   0  0  0  0  0  0  0  0  0  0  0  0
   -9.0697   17.7069  -31.3500 H   0  0  0  0  0  0  0  0  0  0  0  0
   -7.6556   18.5924  -30.6725 H   0  0  0  0  0  0  0  0  0  0  0  0
   -9.9503   20.3796  -30.8740 H   0  0  0  0  0  0  0  0  0  0  0  0
   -8.2157   20.4363  -30.4179 H   0  0  0  0  0  0  0  0  0  0  0  0
   -9.4267   21.9339  -32.8028 H   0  0  0  0  0  0  0  0  0  0  0  0
   -9.1434   22.6669  -31.1929 H   0  0  0  0  0  0  0  0  0  0  0  0
   -5.8990   22.3760  -31.1050 H   0  0  0  0  0  0  0  0  0  0  0  0
   -6.0708   24.3901  -32.1521 H   0  0  0  0  0  0  0  0  0  0  0  0
   -7.8512   24.4676  -31.7810 H   0  0  0  0  0  0  0  0  0  0  0  0
   -7.2267   25.8698  -30.1214 H   0  0  0  0  0  0  0  0  0  0  0  0
   -6.7653   24.3404  -29.2666 H   0  0  0  0  0  0  0  0  0  0  0  0
   -4.9450   26.4430  -29.9950 H   0  0  0  0  0  0  0  0  0  0  0  0
   -4.0120   22.1691  -33.2351 H   0  0  0  0  0  0  0  0  0  0  0  0
   -3.5435   20.2203  -34.7169 H   0  0  0  0  0  0  0  0  0  0  0  0
   -0.6593   18.7316  -31.8640 H   0  0  0  0  0  0  0  0  0  0  0  0
   -1.1165   20.6745  -30.3726 H   0  0  0  0  0  0  0  0  0  0  0  0
   -1.0779   22.7581  -29.5265 H   0  0  0  0  0  0  0  0  0  0  0  0
  1  2  1  0
  2  3  1  0
  3  4  1  0
  3  5  1  0
  5  6  1  0
  6  7  1  0
  7  8  1  0
  8  9  1  0
  9 10  1  0
 10 11  1  0
 11 12  1  0
 12 13  1  0
 13 14  1  0
 14 15  1  0
 15 16  2  0
 16 17  1  0
 17 18  1  0
 18 19  2  0
 19 20  1  0
 20 21  2  0
 21 22  1  0
 21 23  1  0
 23 24  2  0
 17 25  2  0
 25 26  1  0
 26 15  1  0
 24 18  1  0
  1 27  1  0
  1 28  1  0
  1 29  1  0
  2 30  1  0
  2 31  1  0
  4 32  1  0
  4 33  1  0
  4 34  1  0
  5 35  1  0
  5 36  1  0
  6 37  1  0
  6 38  1  0
  8 39  1  0
  8 40  1  0
  9 41  1  0
  9 42  1  0
 11 43  1  0
 12 44  1  0
 12 45  1  0
 13 46  1  0
 13 47  1  0
 14 48  1  0
 19 49  1  0
 20 50  1  0
 23 51  1  0
 24 52  1  0
 25 53  1  0
M  END
>  <UniqueID>  (23) 
23

>  <SMILES>  (23) 
CCN(C)CCOCCONCCNc1nc(-c2ccc(Br)cc2)cs1

>  <Energy>  (23) 
74.55324218187303

>  <Genealogy>  (23) 
CCN(C)CCOCCONCCNc1nc(-c2ccc(Br)cc2)cs1 (3D coordinates assigned)
CCN(C)CCOCCONCCNc1nc(-c2ccc(Br)cc2)cs1 (optimized conformer: 74.55324218187303 kcal/mol)

>  <smiles>  (23) 
CCN(C)CCOCCONCCNc1nc(-c2ccc(Br)cc2)cs1

>  <score_type>  (23) 
oracle

>  <origin>  (23) 
adg

>  <m_score__min__energy>  (23) 
-7.7699999999999996

>  <m_primary>  (23) 
energy

$$$$
23:0
     RDKit          3D

 50 52  0  0  0  0  0  0  0  0999 V2000
   -6.4910   25.2130  -29.7390 C   0  0  0  0  0  0  0  0  0  0  0  0
   -5.4150   26.0160  -30.4540 C   0  0  0  0  0  0  0  0  0  0  0  0
   -4.4380   25.1390  -30.9560 O   0  0  0  0  0  0  0  0  0  0  0  0
   -3.5560   24.9340  -29.9410 N   0  0  0  0  0  0  0  0  0  0  0  0
   -3.0470   23.5680  -30.0650 C   0  0  0  0  0  0  0  0  0  0  0  0
   -4.1980   22.5550  -30.0910 C   0  0  0  0  0  0  0  0  0  0  0  0
   -3.8730   21.3190  -30.9440 C   0  0  0  0  0  0  0  0  0  0  0  0
   -3.4060   21.7020  -32.3530 C   0  0  0  0  0  0  0  0  0  0  0  0
   -4.4760   21.5300  -33.3350 N   0  0  0  0  0  0  0  0  0  0  0  0
   -5.6390   20.7540  -33.0040 C   0  0  0  0  0  0  0  0  0  0  0  0
   -6.7960   21.3850  -32.5160 C   0  0  0  0  0  0  0  0  0  0  0  0
   -6.8380   22.7840  -32.3410 C   0  0  0  0  0  0  0  0  0  0  0  0
   -8.0050   23.4140  -31.9160 C   0  0  0  0  0  0  0  0  0  0  0  0
   -9.1480   22.6660  -31.6670 C   0  0  0  0  0  0  0  0  0  0  0  0
   -9.1230   21.2780  -31.8060 C   0  0  0  0  0  0  0  0  0  0  0  0
   -7.9370   20.6020  -32.1920 C   0  0  0  0  0  0  0  0  0  0  0  0
   -7.8770   19.2220  -32.2660 N   0  0  0  0  0  0  0  0  0  0  0  0
   -8.9480   18.4010  -31.6590 C   0  0  0  0  0  0  0  0  0  0  0  0
   -6.7990   18.6090  -32.8780 C   0  0  0  0  0  0  0  0  0  0  0  0
   -6.8110   17.2270  -33.2040 C   0  0  0  0  0  0  0  0  0  0  0  0
   -5.6970   16.6110  -33.7780 C   0  0  0  0  0  0  0  0  0  0  0  0
   -5.7420   14.9000  -34.1630 Cl  0  0  0  0  0  0  0  0  0  0  0  0
   -4.5550   17.3540  -34.0560 C   0  0  0  0  0  0  0  0  0  0  0  0
   -4.5270   18.7190  -33.7890 C   0  0  0  0  0  0  0  0  0  0  0  0
   -5.6450   19.3660  -33.2180 C   0  0  0  0  0  0  0  0  0  0  0  0
   -6.3597   25.3110  -28.6513 H   0  0  0  0  0  0  0  0  0  0  0  0
   -7.4829   25.5935  -30.0243 H   0  0  0  0  0  0  0  0  0  0  0  0
   -6.4085   24.1539  -30.0243 H   0  0  0  0  0  0  0  0  0  0  0  0
   -5.8667   26.5775  -31.2850 H   0  0  0  0  0  0  0  0  0  0  0  0
   -4.9505   26.7204  -29.7483 H   0  0  0  0  0  0  0  0  0  0  0  0
   -4.1090   24.9980  -29.0550 H   0  0  0  0  0  0  0  0  0  0  0  0
   -2.4704   23.4819  -30.9978 H   0  0  0  0  0  0  0  0  0  0  0  0
   -2.4077   23.3511  -29.1965 H   0  0  0  0  0  0  0  0  0  0  0  0
   -4.4045   22.2287  -29.0610 H   0  0  0  0  0  0  0  0  0  0  0  0
   -5.0709   23.0515  -30.5399 H   0  0  0  0  0  0  0  0  0  0  0  0
   -3.0756   20.7453  -30.4490 H   0  0  0  0  0  0  0  0  0  0  0  0
   -4.7912   20.7211  -31.0406 H   0  0  0  0  0  0  0  0  0  0  0  0
   -3.0882   22.7551  -32.3508 H   0  0  0  0  0  0  0  0  0  0  0  0
   -2.5708   21.0428  -32.6320 H   0  0  0  0  0  0  0  0  0  0  0  0
   -4.5610   22.2190  -34.1160 H   0  0  0  0  0  0  0  0  0  0  0  0
   -5.9386   23.3843  -32.5426 H   0  0  0  0  0  0  0  0  0  0  0  0
   -8.0213   24.5051  -31.7775 H   0  0  0  0  0  0  0  0  0  0  0  0
  -10.0763   23.1694  -31.3591 H   0  0  0  0  0  0  0  0  0  0  0  0
  -10.0378   20.6984  -31.6132 H   0  0  0  0  0  0  0  0  0  0  0  0
   -8.8757   18.4564  -30.5628 H   0  0  0  0  0  0  0  0  0  0  0  0
   -9.9286   18.7809  -31.9815 H   0  0  0  0  0  0  0  0  0  0  0  0
   -8.8358   17.3553  -31.9815 H   0  0  0  0  0  0  0  0  0  0  0  0
   -7.7133   16.6315  -33.0009 H   0  0  0  0  0  0  0  0  0  0  0  0
   -3.6716   16.8612  -34.4881 H   0  0  0  0  0  0  0  0  0  0  0  0
   -3.6239   19.3009  -34.0253 H   0  0  0  0  0  0  0  0  0  0  0  0
  1  2  1  0
  2  3  1  0
  3  4  1  0
  4  5  1  0
  5  6  1  0
  6  7  1  0
  7  8  1  0
  8  9  1  0
  9 10  1  0
 10 11  2  0
 11 12  1  0
 12 13  2  0
 13 14  1  0
 14 15  2  0
 15 16  1  0
 16 17  2  0
 17 18  1  0
 17 19  1  0
 19 20  2  0
 20 21  1  0
 21 22  1  0
 21 23  2  0
 23 24  1  0
 24 25  2  0
 25 10  1  0
 16 11  1  0
 25 19  1  0
  1 26  1  0
  1 27  1  0
  1 28  1  0
  2 29  1  0
  2 30  1  0
  4 31  1  0
  5 32  1  0
  5 33  1  0
  6 34  1  0
  6 35  1  0
  7 36  1  0
  7 37  1  0
  8 38  1  0
  8 39  1  0
  9 40  1  0
 12 41  1  0
 13 42  1  0
 14 43  1  0
 15 44  1  0
 18 45  1  0
 18 46  1  0
 18 47  1  0
 20 48  1  0
 23 49  1  0
 24 50  1  0
M  CHG  1  17   1
M  END
>  <UniqueID>  (24) 
24

>  <SMILES>  (24) 
CCONCCCCNc1c2ccccc2[n+](C)c2cc(Cl)ccc12

>  <Energy>  (24) 
66.40312817963314

>  <Genealogy>  (24) 
CCONCCCCNc1c2ccccc2[n+](C)c2cc(Cl)ccc12 (3D coordinates assigned)
CCONCCCCNc1c2ccccc2[n+](C)c2cc(Cl)ccc12 (optimized conformer: 66.40312817963314 kcal/mol)

>  <smiles>  (24) 
CCONCCCCNc1c2ccccc2[n+](C)c2cc(Cl)ccc12

>  <score_type>  (24) 
oracle

>  <origin>  (24) 
adg

>  <m_score__min__energy>  (24) 
-9.9199999999999999

>  <m_primary>  (24) 
energy

$$$$
