0:0
     RDKit          3D

 35 37  0  0  0  0  0  0  0  0999 V2000
   -8.7808   20.8362  -30.9706 H   0  0  0  0  0  0  0  0  0  0  0  0
   -8.0550   20.3940  -31.6690 C   0  0  0  0  0  0  0  0  0  0  0  0
   -8.0960   19.1200  -31.9270 N   0  0  0  0  0  0  0  0  0  0  0  0
   -7.1700   18.4970  -32.8310 C   0  0  0  0  0  0  0  0  0  0  0  0
   -7.2390   17.1230  -33.0810 C   0  0  0  0  0  0  0  0  0  0  0  0
   -8.0014   16.5108  -32.5770 H   0  0  0  0  0  0  0  0  0  0  0  0
   -6.3360   16.5230  -33.9750 C   0  0  0  0  0  0  0  0  0  0  0  0
   -6.3830   15.0430  -34.2150 C   0  0  0  0  0  0  0  0  0  0  0  0
   -6.3998   14.5154  -33.2499 H   0  0  0  0  0  0  0  0  0  0  0  0
   -7.2895   14.7927  -34.7855 H   0  0  0  0  0  0  0  0  0  0  0  0
   -5.4942   14.7357  -34.7855 H   0  0  0  0  0  0  0  0  0  0  0  0
   -5.3470   17.3090  -34.5910 C   0  0  0  0  0  0  0  0  0  0  0  0
   -4.6230   16.8405  -35.2738 H   0  0  0  0  0  0  0  0  0  0  0  0
   -5.2780   18.6830  -34.3410 C   0  0  0  0  0  0  0  0  0  0  0  0
   -4.5079   19.2946  -34.8338 H   0  0  0  0  0  0  0  0  0  0  0  0
   -6.1890   19.2780  -33.4640 C   0  0  0  0  0  0  0  0  0  0  0  0
   -6.1320   20.6500  -33.2030 O   0  0  0  0  0  0  0  0  0  0  0  0
   -7.0340   21.2500  -32.3130 C   0  0  0  0  0  0  0  0  0  0  0  0
   -6.9960   22.5670  -32.0680 C   0  0  0  0  0  0  0  0  0  0  0  0
   -7.8534   23.1770  -32.3886 H   0  0  0  0  0  0  0  0  0  0  0  0
   -5.8700   23.2510  -31.3920 C   0  0  0  0  0  0  0  0  0  0  0  0
   -4.5990   22.6600  -31.2780 C   0  0  0  0  0  0  0  0  0  0  0  0
   -4.4173   21.6674  -31.7158 H   0  0  0  0  0  0  0  0  0  0  0  0
   -3.5640   23.3250  -30.6120 C   0  0  0  0  0  0  0  0  0  0  0  0
   -2.5699   22.8595  -30.5412 H   0  0  0  0  0  0  0  0  0  0  0  0
   -3.7900   24.5880  -30.0320 C   0  0  0  0  0  0  0  0  0  0  0  0
   -2.7850   25.2970  -29.3570 O   0  0  0  0  0  0  0  0  0  0  0  0
   -2.1740   24.8660  -28.1460 C   0  0  0  0  0  0  0  0  0  0  0  0
   -2.7377   25.2636  -27.2892 H   0  0  0  0  0  0  0  0  0  0  0  0
   -2.1738   23.7667  -28.1064 H   0  0  0  0  0  0  0  0  0  0  0  0
   -1.1383   25.2346  -28.1064 H   0  0  0  0  0  0  0  0  0  0  0  0
   -5.0620   25.1620  -30.1250 C   0  0  0  0  0  0  0  0  0  0  0  0
   -5.2502   26.1457  -29.6702 H   0  0  0  0  0  0  0  0  0  0  0  0
   -6.0960   24.4980  -30.7900 C   0  0  0  0  0  0  0  0  0  0  0  0
   -7.0946   24.9563  -30.8419 H   0  0  0  0  0  0  0  0  0  0  0  0
  1  2  1  0
  2  3  2  0
  3  4  1  0
  4  5  2  0
  5  6  1  0
  5  7  1  0
  7  8  1  0
  8  9  1  0
  8 10  1  0
  8 11  1  0
  7 12  2  0
 12 13  1  0
 12 14  1  0
 14 15  1  0
 14 16  2  0
 16 17  1  0
 17 18  1  0
 18 19  2  0
 19 20  1  0
 19 21  1  0
 21 22  2  0
 22 23  1  0
 22 24  1  0
 24 25  1  0
 24 26  2  0
 26 27  1  0
 27 28  1  0
 28 29  1  0
 28 30  1  0
 28 31  1  0
 26 32  1  0
 32 33  1  0
 32 34  2  0
 34 35  1  0
 18  2  1  0
 34 21  1  0
 16  4  1  0
M  END
>  <UniqueID>  (1) 
1

>  <SMILES>  (1) 
COc1ccc(/C=C2/C=Nc3cc(C)ccc3O2)cc1

>  <Energy>  (1) 
40.63528339249097

>  <Genealogy>  (1) 
COc1ccc(/C=C2/C=Nc3cc(C)ccc3O2)cc1 (cis-trans isomerization)
COc1ccc(/C=C2/C=Nc3cc(C)ccc3O2)cc1 (3D coordinates assigned)
COc1ccc(/C=C2/C=Nc3cc(C)ccc3O2)cc1 (nonaromatic ring conformer: 40.63528339249097 kcal/mol)

>  <smiles>  (1) 
COc1ccc(C=C2C=Nc3cc(C)ccc3O2)cc1

>  <score_type>  (1) 
oracle

>  <origin>  (1) 
adg

>  <m_score__min__energy>  (1) 
-8.4100000000000001

>  <m_primary>  (1) 
energy

$$$$
1:0
     RDKit          3D

 30 30  0  0  0  0  0  0  0  0999 V2000
   -5.8290   18.1790  -34.2910 C   0  0  0  0  0  0  0  0  0  0  0  0
   -6.8450   17.4830  -33.3870 C   0  0  0  0  0  0  0  0  0  0  0  0
   -6.9880   18.1790  -32.0270 C   0  0  0  0  0  0  0  0  0  0  0  0
   -8.7420   18.5440  -31.6330 S   0  0  0  0  0  0  0  0  0  0  0  0
   -8.9320   20.0080  -32.7150 C   0  0  0  0  0  0  0  0  0  0  0  0
   -7.9990   21.1100  -32.2980 C   0  0  0  0  0  0  0  0  0  0  0  0
   -8.4600   22.1360  -31.4630 C   0  0  0  0  0  0  0  0  0  0  0  0
   -7.5760   23.1230  -31.0350 C   0  0  0  0  0  0  0  0  0  0  0  0
   -6.2370   23.0840  -31.4340 C   0  0  0  0  0  0  0  0  0  0  0  0
   -5.1120   24.3630  -30.8500 S   0  0  0  0  0  0  0  0  0  0  0  0
   -6.3800   25.1830  -29.8350 C   0  0  0  0  0  0  0  0  0  0  0  0
   -5.8060   22.0480  -32.2810 C   0  0  0  0  0  0  0  0  0  0  0  0
   -4.4330   21.9730  -32.7190 C   0  0  0  0  0  0  0  0  0  0  0  0
   -3.3320   21.9140  -33.0690 N   0  0  0  0  0  0  0  0  0  0  0  0
   -6.6910   21.0930  -32.6900 N   0  0  0  0  0  0  0  0  0  0  0  0
   -5.0789   18.6929  -33.6719 H   0  0  0  0  0  0  0  0  0  0  0  0
   -5.3307   17.4317  -34.9260 H   0  0  0  0  0  0  0  0  0  0  0  0
   -6.3459   18.9136  -34.9260 H   0  0  0  0  0  0  0  0  0  0  0  0
   -7.8237   17.4833  -33.8891 H   0  0  0  0  0  0  0  0  0  0  0  0
   -6.4870   16.4590  -33.2048 H   0  0  0  0  0  0  0  0  0  0  0  0
   -6.5761   17.5232  -31.2458 H   0  0  0  0  0  0  0  0  0  0  0  0
   -6.4407   19.1322  -32.0703 H   0  0  0  0  0  0  0  0  0  0  0  0
   -8.7077   19.7200  -33.7527 H   0  0  0  0  0  0  0  0  0  0  0  0
   -9.9661   20.3737  -32.6318 H   0  0  0  0  0  0  0  0  0  0  0  0
   -9.5135   22.1617  -31.1475 H   0  0  0  0  0  0  0  0  0  0  0  0
   -7.9317   23.9340  -30.3824 H   0  0  0  0  0  0  0  0  0  0  0  0
   -6.1497   25.0341  -28.7697 H   0  0  0  0  0  0  0  0  0  0  0  0
   -6.3907   26.2595  -30.0608 H   0  0  0  0  0  0  0  0  0  0  0  0
   -7.3662   24.7512  -30.0608 H   0  0  0  0  0  0  0  0  0  0  0  0
   -6.3530   20.3210  -33.3100 H   0  0  0  0  0  0  0  0  0  0  0  0
  1  2  1  0
  2  3  1  0
  3  4  1  0
  4  5  1  0
  5  6  1  0
  6  7  2  0
  7  8  1  0
  8  9  2  0
  9 10  1  0
 10 11  1  0
  9 12  1  0
 12 13  1  0
 13 14  3  0
 12 15  2  0
 15  6  1  0
  1 16  1  0
  1 17  1  0
  1 18  1  0
  2 19  1  0
  2 20  1  0
  3 21  1  0
  3 22  1  0
  5 23  1  0
  5 24  1  0
  7 25  1  0
  8 26  1  0
 11 27  1  0
 11 28  1  0
 11 29  1  0
 15 30  1  0
M  CHG  1  15   1
M  END
>  <UniqueID>  (2) 
2

>  <SMILES>  (2) 
CCCSCc1ccc(SC)c(C#N)[nH+]1

>  <Energy>  (2) 
16.044640333335998

>  <Genealogy>  (2) 
CCCSCc1ccc(SC)c(C#N)[nH+]1 (protonated)
CCCSCc1ccc(SC)c(C#N)[nH+]1 (3D coordinates assigned)
CCCSCc1ccc(SC)c(C#N)[nH+]1 (optimized conformer: 16.044640333335998 kcal/mol)

>  <smiles>  (2) 
CCCSCc1ccc(SC)c(C#N)n1

>  <score_type>  (2) 
oracle

>  <origin>  (2) 
adg

>  <m_score__min__energy>  (2) 
-5.3099999999999996

>  <m_primary>  (2) 
energy

$$$$
2:0
     RDKit          3D

 52 55  0  0  0  0  0  0  0  0999 V2000
   -4.6660   24.7580  -31.1850 O   0  0  0  0  0  0  0  0  0  0  0  0
   -4.9620   23.6330  -30.6970 C   0  0  0  0  0  0  0  0  0  0  0  0
   -6.2190   22.9800  -31.1210 C   0  0  0  0  0  0  0  0  0  0  0  0
   -7.3650   23.7430  -31.3990 C   0  0  0  0  0  0  0  0  0  0  0  0
   -8.5440   23.1200  -31.8170 C   0  0  0  0  0  0  0  0  0  0  0  0
   -8.5870   21.7330  -31.9720 C   0  0  0  0  0  0  0  0  0  0  0  0
   -7.4480   20.9600  -31.7130 C   0  0  0  0  0  0  0  0  0  0  0  0
   -7.5120   19.2130  -31.9390 S   0  0  0  0  0  0  0  0  0  0  0  0
   -8.9450   18.7680  -31.8410 O   0  0  0  0  0  0  0  0  0  0  0  0
   -6.7220   18.5250  -30.8580 O   0  0  0  0  0  0  0  0  0  0  0  0
   -6.8640   18.7950  -33.5080 N   0  0  0  0  0  0  0  0  0  0  0  0
   -5.7230   19.6830  -33.8670 C   0  0  0  0  0  0  0  0  0  0  0  0
   -4.3560   19.0250  -33.6330 C   0  0  0  0  0  0  0  0  0  0  0  0
   -4.2150   17.7350  -34.4590 C   0  0  0  0  0  0  0  0  0  0  0  0
   -5.5590   17.0120  -34.6680 C   0  0  0  0  0  0  0  0  0  0  0  0
   -6.5440   17.3460  -33.5420 C   0  0  0  0  0  0  0  0  0  0  0  0
   -6.2640   21.5860  -31.2970 C   0  0  0  0  0  0  0  0  0  0  0  0
   -4.0750   23.0230  -29.7390 N   0  0  0  0  0  0  0  0  0  0  0  0
   -4.2410   23.2840  -28.2970 C   0  0  0  0  0  0  0  0  0  0  0  0
   -2.9940   22.7590  -27.5480 C   0  0  2  0  0  0  0  0  0  0  0  0
   -1.7520   23.4820  -28.1290 C   0  0  0  0  0  0  0  0  0  0  0  0
   -1.6520   23.2460  -29.6640 C   0  0  0  0  0  0  0  0  0  0  0  0
   -2.8220   22.3560  -30.1410 C   0  0  1  0  0  0  0  0  0  0  0  0
   -2.7370   21.0100  -29.3840 C   0  0  0  0  0  0  0  0  0  0  0  0
   -2.8550   21.2480  -27.8530 C   0  0  0  0  0  0  0  0  0  0  0  0
   -7.3343   24.8369  -31.2871 H   0  0  0  0  0  0  0  0  0  0  0  0
   -9.4400   23.7235  -32.0243 H   0  0  0  0  0  0  0  0  0  0  0  0
   -9.5178   21.2461  -32.2984 H   0  0  0  0  0  0  0  0  0  0  0  0
   -7.6310   18.9680  -34.1990 H   0  0  0  0  0  0  0  0  0  0  0  0
   -5.8068   19.9489  -34.9311 H   0  0  0  0  0  0  0  0  0  0  0  0
   -5.7778   20.5691  -33.2175 H   0  0  0  0  0  0  0  0  0  0  0  0
   -3.5633   19.7286  -33.9271 H   0  0  0  0  0  0  0  0  0  0  0  0
   -4.2688   18.7690  -32.5668 H   0  0  0  0  0  0  0  0  0  0  0  0
   -3.7968   17.9917  -35.4435 H   0  0  0  0  0  0  0  0  0  0  0  0
   -3.5552   17.0542  -33.9012 H   0  0  0  0  0  0  0  0  0  0  0  0
   -5.9912   17.3272  -35.6292 H   0  0  0  0  0  0  0  0  0  0  0  0
   -5.3774   15.9271  -34.6641 H   0  0  0  0  0  0  0  0  0  0  0  0
   -7.4731   16.7789  -33.7005 H   0  0  0  0  0  0  0  0  0  0  0  0
   -6.0765   17.0743  -32.5841 H   0  0  0  0  0  0  0  0  0  0  0  0
   -5.3644   20.9821  -31.1071 H   0  0  0  0  0  0  0  0  0  0  0  0
   -4.3461   24.3657  -28.1269 H   0  0  0  0  0  0  0  0  0  0  0  0
   -5.1419   22.7731  -27.9263 H   0  0  0  0  0  0  0  0  0  0  0  0
   -3.0808   22.9336  -26.4654 H   0  0  0  0  0  0  0  0  0  0  0  0
   -0.8457   23.0916  -27.6430 H   0  0  0  0  0  0  0  0  0  0  0  0
   -1.8485   24.5615  -27.9407 H   0  0  0  0  0  0  0  0  0  0  0  0
   -0.6986   22.7481  -29.8943 H   0  0  0  0  0  0  0  0  0  0  0  0
   -1.7022   24.2153  -30.1817 H   0  0  0  0  0  0  0  0  0  0  0  0
   -2.7841   22.1958  -31.2286 H   0  0  0  0  0  0  0  0  0  0  0  0
   -1.7722   20.5296  -29.6039 H   0  0  0  0  0  0  0  0  0  0  0  0
   -3.5625   20.3609  -29.7114 H   0  0  0  0  0  0  0  0  0  0  0  0
   -1.9538   20.8598  -27.3559 H   0  0  0  0  0  0  0  0  0  0  0  0
   -3.7486   20.7263  -27.4799 H   0  0  0  0  0  0  0  0  0  0  0  0
  1  2  2  0
  2  3  1  0
  3  4  2  0
  4  5  1  0
  5  6  2  0
  6  7  1  0
  7  8  1  0
  8  9  2  0
  8 10  2  0
  8 11  1  0
 11 12  1  0
 12 13  1  0
 13 14  1  0
 14 15  1  0
 15 16  1  0
  7 17  2  0
  2 18  1  0
 18 19  1  0
 19 20  1  0
 20 21  1  0
 21 22  1  0
 22 23  1  0
 23 24  1  0
 24 25  1  0
 17  3  1  0
 23 18  1  0
 16 11  1  0
 25 20  1  0
  4 26  1  0
  5 27  1  0
  6 28  1  0
 11 29  1  0
 12 30  1  0
 12 31  1  0
 13 32  1  0
 13 33  1  0
 14 34  1  0
 14 35  1  0
 15 36  1  0
 15 37  1  0
 16 38  1  0
 16 39  1  0
 17 40  1  0
 19 41  1  0
 19 42  1  0
 20 43  1  1
 21 44  1  0
 21 45  1  0
 22 46  1  0
 22 47  1  0
 23 48  1  6
 24 49  1  0
 24 50  1  0
 25 51  1  0
 25 52  1  0
M  CHG  1  11   1
M  END
>  <UniqueID>  (3) 
3

>  <SMILES>  (3) 
O=C(c1cccc(S(=O)(=O)[NH+]2CCCCC2)c1)N1CC2CCC1CC2

>  <Energy>  (3) 
71.94634272845241

>  <Genealogy>  (3) 
O=C(c1cccc(S(=O)(=O)[NH+]2CCCCC2)c1)N1CC2CCC1CC2 (protonated)
O=C(c1cccc(S(=O)(=O)[NH+]2CCCCC2)c1)N1CC2CCC1CC2 (3D coordinates assigned)
O=C(c1cccc(S(=O)(=O)[NH+]2CCCCC2)c1)N1CC2CCC1CC2 (nonaromatic ring conformer: 71.94634272845241 kcal/mol)

>  <smiles>  (3) 
O=C(c1cccc(S(=O)(=O)N2CCCCC2)c1)N1CC2CCC1CC2

>  <score_type>  (3) 
oracle

>  <origin>  (3) 
adg

>  <m_score__min__energy>  (3) 
-9.3699999999999992

>  <m_primary>  (3) 
energy

$$$$
3:0
     RDKit          3D

 39 41  0  0  0  0  0  0  0  0999 V2000
   -7.6299   23.3435  -29.8704 H   0  0  0  0  0  0  0  0  0  0  0  0
   -6.9540   23.3260  -30.7380 C   0  0  0  0  0  0  0  0  0  0  0  0
   -7.3390   22.6650  -31.7930 N   0  0  0  0  0  0  0  0  0  0  0  0
   -7.5530   21.2480  -31.9020 C   0  0  0  0  0  0  0  0  0  0  0  0
   -8.7260   20.6890  -31.3700 C   0  0  0  0  0  0  0  0  0  0  0  0
   -9.4003   21.3122  -30.7642 H   0  0  0  0  0  0  0  0  0  0  0  0
   -9.0440   19.3530  -31.6020 C   0  0  0  0  0  0  0  0  0  0  0  0
   -9.9489   18.9109  -31.1596 H   0  0  0  0  0  0  0  0  0  0  0  0
   -8.2030   18.5850  -32.4000 C   0  0  0  0  0  0  0  0  0  0  0  0
   -8.4485   17.5322  -32.6036 H   0  0  0  0  0  0  0  0  0  0  0  0
   -7.0790   19.1340  -32.9280 N   0  0  0  0  0  0  0  0  0  0  0  0
   -6.7120   20.4250  -32.7030 C   0  0  0  0  0  0  0  0  0  0  0  0
   -5.5990   20.8360  -33.2500 N   0  0  0  0  0  0  0  0  0  0  0  0
   -4.3060   20.9840  -32.6470 C   0  0  0  0  0  0  0  0  0  0  0  0
   -3.2250   21.3970  -33.4280 C   0  0  0  0  0  0  0  0  0  0  0  0
   -3.3781   21.6408  -34.4897 H   0  0  0  0  0  0  0  0  0  0  0  0
   -1.9510   21.5020  -32.8680 C   0  0  0  0  0  0  0  0  0  0  0  0
   -1.1080   21.8442  -33.4863 H   0  0  0  0  0  0  0  0  0  0  0  0
   -1.7390   21.1720  -31.5150 C   0  0  0  0  0  0  0  0  0  0  0  0
   -0.4740   21.2720  -30.9140 O   0  0  0  0  0  0  0  0  0  0  0  0
    0.2690   20.1680  -30.4080 C   0  0  0  0  0  0  0  0  0  0  0  0
    0.2546   20.1895  -29.3083 H   0  0  0  0  0  0  0  0  0  0  0  0
   -0.1819   19.2293  -30.7624 H   0  0  0  0  0  0  0  0  0  0  0  0
    1.3084   20.2322  -30.7624 H   0  0  0  0  0  0  0  0  0  0  0  0
   -2.8150   20.7230  -30.7340 C   0  0  0  0  0  0  0  0  0  0  0  0
   -2.5730   20.3930  -29.3900 O   0  0  0  0  0  0  0  0  0  0  0  0
   -2.7510   21.2860  -28.2960 C   0  0  0  0  0  0  0  0  0  0  0  0
   -2.6410   20.7343  -27.3507 H   0  0  0  0  0  0  0  0  0  0  0  0
   -1.9939   22.0825  -28.3459 H   0  0  0  0  0  0  0  0  0  0  0  0
   -3.7556   21.7313  -28.3459 H   0  0  0  0  0  0  0  0  0  0  0  0
   -4.0950   20.6140  -31.3110 C   0  0  0  0  0  0  0  0  0  0  0  0
   -4.9349   20.2361  -30.7096 H   0  0  0  0  0  0  0  0  0  0  0  0
   -5.6740   24.0530  -30.6260 C   0  0  0  0  0  0  0  0  0  0  0  0
   -4.4070   23.5570  -30.3820 C   0  0  0  0  0  0  0  0  0  0  0  0
   -4.1649   22.5109  -30.1433 H   0  0  0  0  0  0  0  0  0  0  0  0
   -3.5180   24.5620  -30.4840 N   0  0  0  0  0  0  0  0  0  0  0  0
   -4.1680   25.6730  -30.7960 N   0  0  0  0  0  0  0  0  0  0  0  0
   -5.4800   25.3870  -30.9000 C   0  0  0  0  0  0  0  0  0  0  0  0
   -6.2704   26.1056  -31.1623 H   0  0  0  0  0  0  0  0  0  0  0  0
  1  2  1  0
  2  3  2  0
  3  4  1  0
  4  5  2  0
  5  6  1  0
  5  7  1  0
  7  8  1  0
  7  9  2  0
  9 10  1  0
  9 11  1  0
 11 12  1  0
 12 13  2  0
 13 14  1  0
 14 15  2  0
 15 16  1  0
 15 17  1  0
 17 18  1  0
 17 19  2  0
 19 20  1  0
 20 21  1  0
 21 22  1  0
 21 23  1  0
 21 24  1  0
 19 25  1  0
 25 26  1  0
 26 27  1  0
 27 28  1  0
 27 29  1  0
 27 30  1  0
 25 31  2  0
 31 32  1  0
  2 33  1  0
 33 34  1  0
 34 35  1  0
 34 36  2  0
 36 37  1  0
 37 38  1  0
 38 39  1  0
 12  4  1  0
 31 14  1  0
 38 33  2  0
M  CHG  2  11  -1  37  -1
M  END
>  <UniqueID>  (4) 
4

>  <SMILES>  (4) 
COc1ccc(/N=c2/[n-]cccc2/N=C\c2cn[n-]c2)cc1OC

>  <Energy>  (4) 
92.01390821276541

>  <Genealogy>  (4) 
COc1ccc(N=c2[n-]cccc2N=Cc2cn[n-]c2)cc1OC (protonated)
COc1ccc(/N=c2/[n-]cccc2/N=C\c2cn[n-]c2)cc1OC (cis-trans isomerization)
COc1ccc(/N=c2/[n-]cccc2/N=C\c2cn[n-]c2)cc1OC (3D coordinates assigned)
COc1ccc(/N=c2/[n-]cccc2/N=C\c2cn[n-]c2)cc1OC (optimized conformer: 92.01390821276541 kcal/mol)

>  <smiles>  (4) 
COc1ccc(N=c2[nH]cccc2N=Cc2cn[nH]c2)cc1OC

>  <score_type>  (4) 
oracle

>  <origin>  (4) 
adg

>  <m_score__min__energy>  (4) 
-8.9399999999999995

>  <m_primary>  (4) 
energy

$$$$
4:0
     RDKit          3D

 45 49  0  0  1  0  0  0  0  0999 V2000
   -6.9340   15.9190  -34.2360 O   0  0  0  0  0  0  0  0  0  0  0  0
   -5.7510   15.7360  -33.8380 C   0  0  0  0  0  0  0  0  0  0  0  0
   -5.2230   14.3990  -33.4500 C   0  0  0  0  0  0  0  0  0  0  0  0
   -3.8550   14.6250  -33.1690 O   0  0  0  0  0  0  0  0  0  0  0  0
   -3.2640   15.2700  -34.2340 C   0  0  0  0  0  0  0  0  0  0  0  0
   -3.5250   16.7820  -34.2280 C   0  0  0  0  0  0  0  0  0  0  0  0
   -4.9210   16.8920  -33.7750 N   0  0  0  0  0  0  0  0  0  0  0  0
   -5.3650   18.1480  -33.2910 C   0  0  0  0  0  0  0  0  0  0  0  0
   -6.4940   18.2210  -32.4610 C   0  0  0  0  0  0  0  0  0  0  0  0
   -6.9580   19.4270  -31.9760 C   0  0  0  0  0  0  0  0  0  0  0  0
   -6.3280   20.6120  -32.2870 C   0  0  0  0  0  0  0  0  0  0  0  0
   -6.7660   21.8800  -31.8130 N   0  0  0  0  0  0  0  0  0  0  0  0
   -8.0710   22.2510  -31.8820 C   0  0  0  0  0  0  0  0  0  0  0  0
   -9.0340   21.5770  -32.3430 O   0  0  0  0  0  0  0  0  0  0  0  0
   -8.2160   23.4880  -31.3700 N   0  0  0  0  0  0  0  0  0  0  0  0
   -6.9970   23.8830  -30.9830 C   0  0  0  0  0  0  0  0  0  0  0  0
   -6.5450   25.0480  -30.3980 C   0  0  0  0  0  0  0  0  0  0  0  0
   -5.2290   25.1610  -30.1170 N   0  0  0  0  0  0  0  0  0  0  0  0
   -4.3590   24.1520  -30.4030 C   0  0  0  0  0  0  0  0  0  0  0  0
   -3.1180   24.3620  -30.0920 N   0  0  0  0  0  0  0  0  0  0  0  0
   -2.6300   23.8230  -28.8570 C   0  0  0  0  0  0  0  0  0  0  0  0
   -3.3020   22.7450  -28.1150 C   0  0  0  0  0  0  0  0  0  0  0  0
   -3.5320   24.1620  -27.6580 C   0  0  0  0  0  0  0  0  0  0  0  0
   -4.7650   23.0030  -30.9730 N   0  0  0  0  0  0  0  0  0  0  0  0
   -6.0750   22.8820  -31.2560 C   0  0  0  0  0  0  0  0  0  0  0  0
   -5.2250   20.5650  -33.0960 C   0  0  0  0  0  0  0  0  0  0  0  0
   -4.7670   19.3470  -33.5780 C   0  0  0  0  0  0  0  0  0  0  0  0
   -5.7449   14.0185  -32.5596 H   0  0  0  0  0  0  0  0  0  0  0  0
   -5.3686   13.6471  -34.2396 H   0  0  0  0  0  0  0  0  0  0  0  0
   -2.1781   15.0999  -34.1901 H   0  0  0  0  0  0  0  0  0  0  0  0
   -3.7024   14.8603  -35.1560 H   0  0  0  0  0  0  0  0  0  0  0  0
   -2.8449   17.2949  -33.5320 H   0  0  0  0  0  0  0  0  0  0  0  0
   -3.3570   17.2480  -35.2102 H   0  0  0  0  0  0  0  0  0  0  0  0
   -7.0220   17.2947  -32.1903 H   0  0  0  0  0  0  0  0  0  0  0  0
   -7.8475   19.4423  -31.3290 H   0  0  0  0  0  0  0  0  0  0  0  0
   -9.1060   24.0490  -31.2820 H   0  0  0  0  0  0  0  0  0  0  0  0
   -7.2416   25.8670  -30.1655 H   0  0  0  0  0  0  0  0  0  0  0  0
   -4.8970   26.0450  -29.6740 H   0  0  0  0  0  0  0  0  0  0  0  0
   -1.5825   23.9262  -29.1765 H   0  0  0  0  0  0  0  0  0  0  0  0
   -4.1222   22.1870  -28.5903 H   0  0  0  0  0  0  0  0  0  0  0  0
   -2.9547   21.8278  -27.6170 H   0  0  0  0  0  0  0  0  0  0  0  0
   -4.5074   24.6456  -27.8151 H   0  0  0  0  0  0  0  0  0  0  0  0
   -3.4184   24.7170  -26.7151 H   0  0  0  0  0  0  0  0  0  0  0  0
   -4.7008   21.4941  -33.3645 H   0  0  0  0  0  0  0  0  0  0  0  0
   -3.8770   19.3439  -34.2245 H   0  0  0  0  0  0  0  0  0  0  0  0
  1  2  2  0
  2  3  1  0
  3  4  1  0
  4  5  1  0
  5  6  1  0
  6  7  1  0
  7  8  1  0
  8  9  2  0
  9 10  1  0
 10 11  2  0
 11 12  1  0
 12 13  1  0
 13 14  2  0
 13 15  1  0
 15 16  1  0
 16 17  2  0
 17 18  1  0
 18 19  1  0
 19 20  2  0
 20 21  1  0
 21 22  1  0
 22 23  1  0
 19 24  1  0
 24 25  2  0
 11 26  1  0
 26 27  2  0
  7  2  1  0
 27  8  1  0
 25 12  1  0
 25 16  1  0
 23 21  1  0
  3 28  1  0
  3 29  1  0
  5 30  1  0
  5 31  1  0
  6 32  1  0
  6 33  1  0
  9 34  1  0
 10 35  1  0
 15 36  1  0
 17 37  1  0
 18 38  1  0
 21 39  1  0
 22 40  1  0
 22 41  1  0
 23 42  1  0
 23 43  1  0
 26 44  1  0
 27 45  1  0
M  END
>  <smiles>  (5) 
O=C1COCCN1c1ccc(-n2c(=O)[nH]c3c[nH]c(=NC4CC4)nc32)cc1

>  <score_type>  (5) 
oracle

>  <origin>  (5) 
adg

>  <m_score__min__energy>  (5) 
-8.4800000000000004

>  <m_primary>  (5) 
energy

$$$$
5:0
     RDKit          3D

 35 37  0  0  1  0  0  0  0  0999 V2000
   -8.3700   23.4200  -31.5950 C   0  0  0  0  0  0  0  0  0  0  0  0
   -7.0470   23.8570  -31.1010 C   0  0  0  0  0  0  0  0  0  0  0  0
   -6.8250   24.9190  -30.2650 C   0  0  0  0  0  0  0  0  0  0  0  0
   -5.4890   25.0050  -30.0360 N   0  0  0  0  0  0  0  0  0  0  0  0
   -4.8960   24.0200  -30.7140 C   0  0  0  0  0  0  0  0  0  0  0  0
   -3.6000   23.6820  -30.8120 N   0  0  0  0  0  0  0  0  0  0  0  0
   -3.2240   22.6370  -31.5630 C   0  0  0  0  0  0  0  0  0  0  0  0
   -4.1260   21.9080  -32.2280 N   0  0  0  0  0  0  0  0  0  0  0  0
   -5.4430   22.1810  -32.1810 C   0  0  0  0  0  0  0  0  0  0  0  0
   -6.3310   21.5140  -32.7970 N   0  0  0  0  0  0  0  0  0  0  0  0
   -6.9290   20.3360  -32.1810 C   0  0  1  0  0  0  0  0  0  0  0  0
   -8.4220   20.3880  -32.2280 C   0  0  0  0  0  0  0  0  0  0  0  0
   -6.5030   19.1150  -32.9370 C   0  0  0  0  0  0  0  0  0  0  0  0
   -5.7630   19.1860  -34.0990 C   0  0  0  0  0  0  0  0  0  0  0  0
   -5.4090   18.0160  -34.7380 C   0  0  0  0  0  0  0  0  0  0  0  0
   -5.7810   16.7810  -34.2370 C   0  0  0  0  0  0  0  0  0  0  0  0
   -6.5200   16.7610  -33.0730 C   0  0  0  0  0  0  0  0  0  0  0  0
   -6.8990   17.9030  -32.3970 C   0  0  0  0  0  0  0  0  0  0  0  0
   -5.8350   23.2620  -31.4050 C   0  0  0  0  0  0  0  0  0  0  0  0
   -9.0272   23.2029  -30.7401 H   0  0  0  0  0  0  0  0  0  0  0  0
   -8.8153   24.2188  -32.2063 H   0  0  0  0  0  0  0  0  0  0  0  0
   -8.2519   22.5131  -32.2063 H   0  0  0  0  0  0  0  0  0  0  0  0
   -7.5951   25.5864  -29.8509 H   0  0  0  0  0  0  0  0  0  0  0  0
   -4.9980   25.7210  -29.4310 H   0  0  0  0  0  0  0  0  0  0  0  0
   -2.1578   22.3756  -31.6330 H   0  0  0  0  0  0  0  0  0  0  0  0
   -3.8310   21.1060  -32.8030 H   0  0  0  0  0  0  0  0  0  0  0  0
   -6.5964   20.3056  -31.1329 H   0  0  0  0  0  0  0  0  0  0  0  0
   -8.8209   20.4019  -31.2030 H   0  0  0  0  0  0  0  0  0  0  0  0
   -8.7407   21.2978  -32.7578 H   0  0  0  0  0  0  0  0  0  0  0  0
   -8.8032   19.5026  -32.7578 H   0  0  0  0  0  0  0  0  0  0  0  0
   -5.4600   20.1605  -34.5096 H   0  0  0  0  0  0  0  0  0  0  0  0
   -4.8188   18.0658  -35.6649 H   0  0  0  0  0  0  0  0  0  0  0  0
   -5.4976   15.8493  -34.7485 H   0  0  0  0  0  0  0  0  0  0  0  0
   -6.8225   15.7862  -32.6628 H   0  0  0  0  0  0  0  0  0  0  0  0
   -7.4895   17.8526  -31.4703 H   0  0  0  0  0  0  0  0  0  0  0  0
  1  2  1  0
  2  3  2  0
  3  4  1  0
  4  5  1  0
  5  6  1  0
  6  7  2  0
  7  8  1  0
  8  9  1  0
  9 10  2  0
 10 11  1  0
 11 12  1  0
 11 13  1  0
 13 14  2  0
 14 15  1  0
 15 16  2  0
 16 17  1  0
 17 18  2  0
  9 19  1  0
 19  2  1  0
 19  5  2  0
 18 13  1  0
  1 20  1  0
  1 21  1  0
  1 22  1  0
  3 23  1  0
  4 24  1  0
  7 25  1  0
  8 26  1  0
 11 27  1  1
 12 28  1  0
 12 29  1  0
 12 30  1  0
 14 31  1  0
 15 32  1  0
 16 33  1  0
 17 34  1  0
 18 35  1  0
M  END
>  <smiles>  (6) 
Cc1c[nH]c2nc[nH]c(=NC(C)c3ccccc3)c12

>  <score_type>  (6) 
oracle

>  <origin>  (6) 
adg

>  <m_score__min__energy>  (6) 
-7.5300000000000002

>  <m_primary>  (6) 
energy

$$$$
6:0
     RDKit          3D

 30 31  0  0  0  0  0  0  0  0999 V2000
   -5.6910   16.7910  -34.5900 C   0  0  0  0  0  0  0  0  0  0  0  0
   -6.3480   17.5570  -33.5390 N   0  0  0  0  0  0  0  0  0  0  0  0
   -6.4650   17.1930  -32.2470 C   0  0  0  0  0  0  0  0  0  0  0  0
   -7.0860   18.2180  -31.5570 C   0  0  0  0  0  0  0  0  0  0  0  0
   -7.3030   19.2040  -32.5070 C   0  0  0  0  0  0  0  0  0  0  0  0
   -7.9720   20.5050  -32.3020 C   0  0  0  0  0  0  0  0  0  0  0  0
   -9.1830   20.6210  -32.6350 O   0  0  0  0  0  0  0  0  0  0  0  0
   -7.2890   21.6310  -31.7200 N   0  0  0  0  0  0  0  0  0  0  0  0
   -5.8870   21.9210  -32.0550 C   0  0  0  0  0  0  0  0  0  0  0  0
   -5.7190   23.4170  -32.3410 C   0  0  0  0  0  0  0  0  0  0  0  0
   -6.2200   24.3050  -31.1820 C   0  0  0  0  0  0  0  0  0  0  0  0
   -7.1260   23.5680  -30.1810 C   0  0  0  0  0  0  0  0  0  0  0  0
   -8.0510   22.5660  -30.8800 C   0  0  0  0  0  0  0  0  0  0  0  0
   -6.8470   18.7720  -33.6980 N   0  0  0  0  0  0  0  0  0  0  0  0
   -5.0386   16.0304  -34.1362 H   0  0  0  0  0  0  0  0  0  0  0  0
   -6.4509   16.2974  -35.2136 H   0  0  0  0  0  0  0  0  0  0  0  0
   -5.0874   17.4669  -35.2136 H   0  0  0  0  0  0  0  0  0  0  0  0
   -6.1240   16.2410  -31.8141 H   0  0  0  0  0  0  0  0  0  0  0  0
   -7.3497   18.2450  -30.4894 H   0  0  0  0  0  0  0  0  0  0  0  0
   -5.2434   21.6366  -31.2095 H   0  0  0  0  0  0  0  0  0  0  0  0
   -5.6014   21.3467  -32.9486 H   0  0  0  0  0  0  0  0  0  0  0  0
   -4.6520   23.6256  -32.5083 H   0  0  0  0  0  0  0  0  0  0  0  0
   -6.3242   23.6557  -33.2280 H   0  0  0  0  0  0  0  0  0  0  0  0
   -5.3453   24.6916  -30.6384 H   0  0  0  0  0  0  0  0  0  0  0  0
   -6.8250   25.1063  -31.6313 H   0  0  0  0  0  0  0  0  0  0  0  0
   -6.4945   23.0270  -29.4609 H   0  0  0  0  0  0  0  0  0  0  0  0
   -7.7535   24.3156  -29.6737 H   0  0  0  0  0  0  0  0  0  0  0  0
   -8.6022   21.9954  -30.1180 H   0  0  0  0  0  0  0  0  0  0  0  0
   -8.7446   23.1255  -31.5249 H   0  0  0  0  0  0  0  0  0  0  0  0
   -6.8660   19.2960  -34.6030 H   0  0  0  0  0  0  0  0  0  0  0  0
  1  2  1  0
  2  3  1  0
  3  4  2  0
  4  5  1  0
  5  6  1  0
  6  7  2  0
  6  8  1  0
  8  9  1  0
  9 10  1  0
 10 11  1  0
 11 12  1  0
 12 13  1  0
  5 14  2  0
 14  2  1  0
 13  8  1  0
  1 15  1  0
  1 16  1  0
  1 17  1  0
  3 18  1  0
  4 19  1  0
  9 20  1  0
  9 21  1  0
 10 22  1  0
 10 23  1  0
 11 24  1  0
 11 25  1  0
 12 26  1  0
 12 27  1  0
 13 28  1  0
 13 29  1  0
 14 30  1  0
M  CHG  1  14   1
M  END
>  <UniqueID>  (7) 
5

>  <SMILES>  (7) 
Cn1ccc(C(=O)N2CCCCC2)[nH+]1

>  <Energy>  (7) 
61.40193398186508

>  <Genealogy>  (7) 
Cn1ccc(C(=O)N2CCCCC2)[nH+]1 (protonated)
Cn1ccc(C(=O)N2CCCCC2)[nH+]1 (3D coordinates assigned)
Cn1ccc(C(=O)N2CCCCC2)[nH+]1 (nonaromatic ring conformer: 61.40193398186508 kcal/mol)

>  <smiles>  (7) 
Cn1ccc(C(=O)N2CCCCC2)n1

>  <score_type>  (7) 
oracle

>  <origin>  (7) 
adg

>  <m_score__min__energy>  (7) 
-5.5

>  <m_primary>  (7) 
energy

$$$$
7:0
     RDKit          3D

 47 49  0  0  0  0  0  0  0  0999 V2000
   -6.2142   17.6253  -31.1107 H   0  0  0  0  0  0  0  0  0  0  0  0
   -6.2100   18.2530  -32.0140 C   0  0  0  0  0  0  0  0  0  0  0  0
   -7.1300   19.2360  -32.1040 C   0  0  0  0  0  0  0  0  0  0  0  0
   -6.7060   20.6010  -32.5070 C   0  0  0  0  0  0  0  0  0  0  0  0
   -5.6190   20.7600  -33.1280 O   0  0  0  0  0  0  0  0  0  0  0  0
   -7.6040   21.7620  -32.2470 C   0  0  0  0  0  0  0  0  0  0  0  0
   -7.1850   23.0460  -32.2580 C   0  0  0  0  0  0  0  0  0  0  0  0
   -7.7277   23.7472  -32.9090 H   0  0  0  0  0  0  0  0  0  0  0  0
   -6.0600   23.5880  -31.4700 C   0  0  0  0  0  0  0  0  0  0  0  0
   -6.1700   24.8170  -30.7990 C   0  0  0  0  0  0  0  0  0  0  0  0
   -7.1196   25.3716  -30.8239 H   0  0  0  0  0  0  0  0  0  0  0  0
   -5.0780   25.3380  -30.1000 C   0  0  0  0  0  0  0  0  0  0  0  0
   -5.1800   26.2921  -29.5622 H   0  0  0  0  0  0  0  0  0  0  0  0
   -3.8560   24.6570  -30.0780 C   0  0  0  0  0  0  0  0  0  0  0  0
   -2.7910   25.2210  -29.3600 O   0  0  0  0  0  0  0  0  0  0  0  0
   -2.1840   24.6230  -28.2200 C   0  0  0  0  0  0  0  0  0  0  0  0
   -2.6194   25.0519  -27.3054 H   0  0  0  0  0  0  0  0  0  0  0  0
   -2.3621   23.5376  -28.2368 H   0  0  0  0  0  0  0  0  0  0  0  0
   -1.1014   24.8173  -28.2368 H   0  0  0  0  0  0  0  0  0  0  0  0
   -3.7360   23.4400  -30.7760 C   0  0  0  0  0  0  0  0  0  0  0  0
   -2.7789   22.8978  -30.7714 H   0  0  0  0  0  0  0  0  0  0  0  0
   -4.8290   22.9180  -31.4750 C   0  0  0  0  0  0  0  0  0  0  0  0
   -4.7219   21.9756  -32.0322 H   0  0  0  0  0  0  0  0  0  0  0  0
   -9.0530   21.4990  -31.9000 C   0  0  0  0  0  0  0  0  0  0  0  0
   -9.1880   21.6379  -30.8172 H   0  0  0  0  0  0  0  0  0  0  0  0
   -9.6698   22.2044  -32.4761 H   0  0  0  0  0  0  0  0  0  0  0  0
   -9.4930   20.0800  -32.2730 C   0  0  0  0  0  0  0  0  0  0  0  0
  -10.5163   19.9135  -31.9053 H   0  0  0  0  0  0  0  0  0  0  0  0
   -9.4526   19.9797  -33.3677 H   0  0  0  0  0  0  0  0  0  0  0  0
   -8.5640   19.0310  -31.6560 C   0  0  0  0  0  0  0  0  0  0  0  0
   -8.6120   19.1097  -30.5599 H   0  0  0  0  0  0  0  0  0  0  0  0
   -8.8936   18.0356  -31.9886 H   0  0  0  0  0  0  0  0  0  0  0  0
   -5.1990   17.9660  -33.0490 C   0  0  0  0  0  0  0  0  0  0  0  0
   -5.4820   17.0250  -34.0470 C   0  0  0  0  0  0  0  0  0  0  0  0
   -6.4635   16.5290  -34.0713 H   0  0  0  0  0  0  0  0  0  0  0  0
   -4.5200   16.7150  -35.0120 C   0  0  0  0  0  0  0  0  0  0  0  0
   -4.7507   15.9862  -35.8029 H   0  0  0  0  0  0  0  0  0  0  0  0
   -3.2660   17.3290  -34.9740 C   0  0  0  0  0  0  0  0  0  0  0  0
   -2.5158   17.0849  -35.7406 H   0  0  0  0  0  0  0  0  0  0  0  0
   -2.9560   18.2520  -33.9690 C   0  0  0  0  0  0  0  0  0  0  0  0
   -1.6800   18.8340  -33.9690 O   0  0  0  0  0  0  0  0  0  0  0  0
   -1.4330   20.2290  -33.8350 C   0  0  0  0  0  0  0  0  0  0  0  0
   -1.3864   20.4923  -32.7680 H   0  0  0  0  0  0  0  0  0  0  0  0
   -0.4765   20.4799  -34.3167 H   0  0  0  0  0  0  0  0  0  0  0  0
   -2.2452   20.7931  -34.3167 H   0  0  0  0  0  0  0  0  0  0  0  0
   -3.9270   18.5610  -32.9960 C   0  0  0  0  0  0  0  0  0  0  0  0
   -3.6883   19.2715  -32.1909 H   0  0  0  0  0  0  0  0  0  0  0  0
  1  2  1  0
  2  3  2  3
  3  4  1  0
  4  5  2  0
  4  6  1  0
  6  7  2  0
  7  8  1  0
  7  9  1  0
  9 10  2  0
 10 11  1  0
 10 12  1  0
 12 13  1  0
 12 14  2  0
 14 15  1  0
 15 16  1  0
 16 17  1  0
 16 18  1  0
 16 19  1  0
 14 20  1  0
 20 21  1  0
 20 22  2  0
 22 23  1  0
  6 24  1  0
 24 25  1  0
 24 26  1  0
 24 27  1  0
 27 28  1  0
 27 29  1  0
 27 30  1  0
 30 31  1  0
 30 32  1  0
  2 33  1  0
 33 34  2  0
 34 35  1  0
 34 36  1  0
 36 37  1  0
 36 38  2  0
 38 39  1  0
 38 40  1  0
 40 41  1  0
 41 42  1  0
 42 43  1  0
 42 44  1  0
 42 45  1  0
 40 46  2  0
 46 47  1  0
 30  3  1  0
 46 33  1  0
 22  9  1  0
M  END
>  <UniqueID>  (8) 
6

>  <SMILES>  (8) 
COc1ccc(/C=C2/CCCC(=Cc3cccc(OC)c3)C2=O)cc1

>  <Energy>  (8) 
64.07872036527583

>  <Genealogy>  (8) 
COc1ccc(/C=C2/CCCC(=Cc3cccc(OC)c3)C2=O)cc1 (cis-trans isomerization)
COc1ccc(/C=C2/CCCC(=Cc3cccc(OC)c3)C2=O)cc1 (3D coordinates assigned)
COc1ccc(/C=C2/CCCC(=Cc3cccc(OC)c3)C2=O)cc1 (nonaromatic ring conformer: 64.07872036527583 kcal/mol)

>  <smiles>  (8) 
COc1ccc(C=C2CCCC(=Cc3cccc(OC)c3)C2=O)cc1

>  <score_type>  (8) 
oracle

>  <origin>  (8) 
adg

>  <m_score__min__energy>  (8) 
-9.4600000000000009

>  <m_primary>  (8) 
energy

$$$$
8:0
     RDKit          3D

 60 66  0  0  0  0  0  0  0  0999 V2000
   -0.1710   22.8070  -29.6750 O   0  0  0  0  0  0  0  0  0  0  0  0
   -1.4220   22.5780  -30.2390 C   0  0  0  0  0  0  0  0  0  0  0  0
   -2.5940   23.2200  -29.9330 C   0  0  0  0  0  0  0  0  0  0  0  0
   -3.5900   22.6370  -30.5840 C   0  0  0  0  0  0  0  0  0  0  0  0
   -4.7410   23.2420  -30.1150 C   0  0  0  0  0  0  0  0  0  0  0  0
   -6.1290   23.0090  -30.5310 C   0  0  0  0  0  0  0  0  0  0  0  0
   -7.1240   22.3860  -29.7850 C   0  0  0  0  0  0  0  0  0  0  0  0
   -8.3340   22.2600  -30.4750 C   0  0  0  0  0  0  0  0  0  0  0  0
   -8.2940   22.7650  -31.7690 C   0  0  0  0  0  0  0  0  0  0  0  0
   -6.7480   23.3630  -32.0530 S   0  0  0  0  0  0  0  0  0  0  0  0
   -4.3740   24.1400  -29.1580 N   0  0  0  0  0  0  0  0  0  0  0  0
   -3.0450   24.1240  -29.0490 N   0  0  0  0  0  0  0  0  0  0  0  0
   -2.2990   24.9260  -28.1210 C   0  0  0  0  0  0  0  0  0  0  0  0
   -1.2230   25.7190  -28.5570 C   0  0  0  0  0  0  0  0  0  0  0  0
   -0.5150   26.5090  -27.6460 C   0  0  0  0  0  0  0  0  0  0  0  0
   -0.8800   26.5220  -26.2970 C   0  0  0  0  0  0  0  0  0  0  0  0
   -1.9610   25.7520  -25.8600 C   0  0  0  0  0  0  0  0  0  0  0  0
   -2.6730   24.9630  -26.7680 C   0  0  0  0  0  0  0  0  0  0  0  0
   -3.0560   21.6130  -31.3490 C   0  0  0  0  0  0  0  0  0  0  0  0
   -3.8080   20.6250  -32.1460 C   0  0  0  0  0  0  0  0  0  0  0  0
   -5.0660   20.1760  -31.7120 C   0  0  0  0  0  0  0  0  0  0  0  0
   -5.7710   19.2320  -32.4640 C   0  0  0  0  0  0  0  0  0  0  0  0
   -5.2230   18.7250  -33.6460 C   0  0  0  0  0  0  0  0  0  0  0  0
   -6.1100   17.5400  -34.5870 Cl  0  0  0  0  0  0  0  0  0  0  0  0
   -3.9660   19.1610  -34.0760 C   0  0  0  0  0  0  0  0  0  0  0  0
   -3.2590   20.1070  -33.3280 C   0  0  0  0  0  0  0  0  0  0  0  0
   -1.7020   21.5950  -31.1390 N   0  0  0  0  0  0  0  0  0  0  0  0
   -0.7520   20.6420  -31.6450 C   0  0  0  0  0  0  0  0  0  0  0  0
   -0.0670   20.8850  -32.8470 C   0  0  0  0  0  0  0  0  0  0  0  0
    0.8570   19.9570  -33.3320 C   0  0  0  0  0  0  0  0  0  0  0  0
    1.1110   18.7660  -32.6290 C   0  0  0  0  0  0  0  0  0  0  0  0
    2.0960   17.7800  -33.1430 C   0  0  0  0  0  0  0  0  0  0  0  0
    2.1200   16.4650  -32.6430 C   0  0  0  0  0  0  0  0  0  0  0  0
    3.0490   15.5390  -33.1280 C   0  0  0  0  0  0  0  0  0  0  0  0
    3.9630   15.9130  -34.1180 C   0  0  0  0  0  0  0  0  0  0  0  0
    5.1260   14.7490  -34.7240 Cl  0  0  0  0  0  0  0  0  0  0  0  0
    3.9480   17.2170  -34.6230 C   0  0  0  0  0  0  0  0  0  0  0  0
    3.0210   18.1460  -34.1390 C   0  0  0  0  0  0  0  0  0  0  0  0
    0.4130   18.5220  -31.4330 C   0  0  0  0  0  0  0  0  0  0  0  0
   -0.5130   19.4500  -30.9490 C   0  0  0  0  0  0  0  0  0  0  0  0
   -6.9742   22.0283  -28.7556 H   0  0  0  0  0  0  0  0  0  0  0  0
   -9.2330   21.8039  -30.0347 H   0  0  0  0  0  0  0  0  0  0  0  0
   -9.1296   22.7723  -32.4843 H   0  0  0  0  0  0  0  0  0  0  0  0
   -0.9369   25.7180  -29.6191 H   0  0  0  0  0  0  0  0  0  0  0  0
    0.3308   27.1214  -27.9918 H   0  0  0  0  0  0  0  0  0  0  0  0
   -0.3170   27.1377  -25.5801 H   0  0  0  0  0  0  0  0  0  0  0  0
   -2.2523   25.7668  -24.7994 H   0  0  0  0  0  0  0  0  0  0  0  0
   -3.5306   24.3681  -26.4209 H   0  0  0  0  0  0  0  0  0  0  0  0
   -5.4971   20.5678  -30.7789 H   0  0  0  0  0  0  0  0  0  0  0  0
   -6.7591   18.8873  -32.1251 H   0  0  0  0  0  0  0  0  0  0  0  0
   -3.5329   18.7592  -35.0039 H   0  0  0  0  0  0  0  0  0  0  0  0
   -2.2692   20.4461  -33.6675 H   0  0  0  0  0  0  0  0  0  0  0  0
   -0.2593   21.8108  -33.4090 H   0  0  0  0  0  0  0  0  0  0  0  0
    1.3908   20.1595  -34.2722 H   0  0  0  0  0  0  0  0  0  0  0  0
    1.4031   16.1632  -31.8652 H   0  0  0  0  0  0  0  0  0  0  0  0
    3.0608   14.5137  -32.7297 H   0  0  0  0  0  0  0  0  0  0  0  0
    4.6662   17.5126  -35.4020 H   0  0  0  0  0  0  0  0  0  0  0  0
    3.0148   19.1704  -34.5397 H   0  0  0  0  0  0  0  0  0  0  0  0
    0.5974   17.5929  -30.8737 H   0  0  0  0  0  0  0  0  0  0  0  0
   -1.0575   19.2432  -30.0159 H   0  0  0  0  0  0  0  0  0  0  0  0
  1  2  1  0
  2  3  2  0
  3  4  1  0
  4  5  1  0
  5  6  1  0
  6  7  2  0
  7  8  1  0
  8  9  2  0
  9 10  1  0
  5 11  2  0
 11 12  1  0
 12 13  1  0
 13 14  2  0
 14 15  1  0
 15 16  2  0
 16 17  1  0
 17 18  2  0
  4 19  2  0
 19 20  1  0
 20 21  2  0
 21 22  1  0
 22 23  2  0
 23 24  1  0
 23 25  1  0
 25 26  2  0
 19 27  1  0
 27 28  1  0
 28 29  2  0
 29 30  1  0
 30 31  2  0
 31 32  1  0
 32 33  2  0
 33 34  1  0
 34 35  2  0
 35 36  1  0
 35 37  1  0
 37 38  2  0
 31 39  1  0
 39 40  2  0
 27  2  1  0
 40 28  1  0
 12  3  1  0
 18 13  1  0
 26 20  1  0
 38 32  1  0
 10  6  1  0
  7 41  1  0
  8 42  1  0
  9 43  1  0
 14 44  1  0
 15 45  1  0
 16 46  1  0
 17 47  1  0
 18 48  1  0
 21 49  1  0
 22 50  1  0
 25 51  1  0
 26 52  1  0
 29 53  1  0
 30 54  1  0
 33 55  1  0
 34 56  1  0
 37 57  1  0
 38 58  1  0
 39 59  1  0
 40 60  1  0
M  CHG  1   1  -1
M  END
>  <UniqueID>  (9) 
7

>  <SMILES>  (9) 
[O-]c1c2c(c(-c3cccs3)nn2-c2ccccc2)c(-c2ccc(Cl)cc2)n1-c1ccc(-c2ccc(Cl)cc2)cc1

>  <Energy>  (9) 
210.96017730979534

>  <Genealogy>  (9) 
[O-]c1c2c(c(-c3cccs3)nn2-c2ccccc2)c(-c2ccc(Cl)cc2)n1-c1ccc(-c2ccc(Cl)cc2)cc1 (protonated)
[O-]c1c2c(c(-c3cccs3)nn2-c2ccccc2)c(-c2ccc(Cl)cc2)n1-c1ccc(-c2ccc(Cl)cc2)cc1 (3D coordinates assigned)
[O-]c1c2c(c(-c3cccs3)nn2-c2ccccc2)c(-c2ccc(Cl)cc2)n1-c1ccc(-c2ccc(Cl)cc2)cc1 (optimized conformer: 210.96017730979534 kcal/mol)

>  <smiles>  (9) 
Oc1c2c(c(-c3cccs3)nn2-c2ccccc2)c(-c2ccc(Cl)cc2)n1-c1ccc(-c2ccc(Cl)cc2)cc1

>  <score_type>  (9) 
oracle

>  <origin>  (9) 
adg

>  <m_score__min__energy>  (9) 
-9.8599999999999994

>  <m_primary>  (9) 
energy

$$$$
9:0
     RDKit          3D

 34 36  0  0  0  0  0  0  0  0999 V2000
   -4.4730   20.5340  -32.7650 C   0  0  0  0  0  0  0  0  0  0  0  0
   -5.3450   21.6010  -32.2300 N   0  0  0  0  0  0  0  0  0  0  0  0
   -4.7870   22.7910  -31.8120 C   0  0  0  0  0  0  0  0  0  0  0  0
   -3.5390   22.9640  -31.8930 O   0  0  0  0  0  0  0  0  0  0  0  0
   -5.5930   23.8310  -31.2930 C   0  0  0  0  0  0  0  0  0  0  0  0
   -5.0190   25.1270  -30.8300 C   0  0  0  0  0  0  0  0  0  0  0  0
   -5.7320   26.1670  -30.8010 O   0  0  0  0  0  0  0  0  0  0  0  0
   -3.6330   25.2080  -30.4680 N   0  0  0  0  0  0  0  0  0  0  0  0
   -2.9970   24.5520  -29.3600 C   0  0  0  0  0  0  0  0  0  0  0  0
   -3.7350   23.6200  -28.6180 C   0  0  0  0  0  0  0  0  0  0  0  0
   -3.1590   22.9740  -27.5200 C   0  0  0  0  0  0  0  0  0  0  0  0
   -1.8450   23.2690  -27.1450 C   0  0  0  0  0  0  0  0  0  0  0  0
   -1.1100   24.2150  -27.8630 C   0  0  0  0  0  0  0  0  0  0  0  0
   -1.6830   24.8620  -28.9630 C   0  0  0  0  0  0  0  0  0  0  0  0
   -6.9750   23.6290  -31.2170 C   0  0  0  0  0  0  0  0  0  0  0  0
   -7.5430   22.4290  -31.6410 C   0  0  0  0  0  0  0  0  0  0  0  0
   -8.9330   22.2440  -31.5560 C   0  0  0  0  0  0  0  0  0  0  0  0
   -9.5110   21.0480  -31.9770 C   0  0  0  0  0  0  0  0  0  0  0  0
   -8.7080   20.0280  -32.4860 C   0  0  0  0  0  0  0  0  0  0  0  0
   -7.3250   20.1980  -32.5740 C   0  0  0  0  0  0  0  0  0  0  0  0
   -6.7110   21.4040  -32.1540 C   0  0  0  0  0  0  0  0  0  0  0  0
   -4.0192   19.9787  -31.9309 H   0  0  0  0  0  0  0  0  0  0  0  0
   -5.0709   19.8463  -33.3811 H   0  0  0  0  0  0  0  0  0  0  0  0
   -3.6800   20.9830  -33.3811 H   0  0  0  0  0  0  0  0  0  0  0  0
   -4.7739   23.3953  -28.9012 H   0  0  0  0  0  0  0  0  0  0  0  0
   -3.7400   22.2333  -26.9510 H   0  0  0  0  0  0  0  0  0  0  0  0
   -1.3901   22.7562  -26.2847 H   0  0  0  0  0  0  0  0  0  0  0  0
   -0.0785   24.4518  -27.5629 H   0  0  0  0  0  0  0  0  0  0  0  0
   -1.1050   25.6149  -29.5190 H   0  0  0  0  0  0  0  0  0  0  0  0
   -7.6203   24.4257  -30.8184 H   0  0  0  0  0  0  0  0  0  0  0  0
   -9.5684   23.0474  -31.1550 H   0  0  0  0  0  0  0  0  0  0  0  0
  -10.5999   20.9086  -31.9078 H   0  0  0  0  0  0  0  0  0  0  0  0
   -9.1662   19.0853  -32.8197 H   0  0  0  0  0  0  0  0  0  0  0  0
   -6.7032   19.3841  -32.9751 H   0  0  0  0  0  0  0  0  0  0  0  0
  1  2  1  0
  2  3  1  0
  3  4  2  0
  3  5  1  0
  5  6  1  0
  6  7  2  0
  6  8  1  0
  8  9  1  0
  9 10  2  0
 10 11  1  0
 11 12  2  0
 12 13  1  0
 13 14  2  0
  5 15  2  0
 15 16  1  0
 16 17  2  0
 17 18  1  0
 18 19  2  0
 19 20  1  0
 20 21  2  0
 21  2  1  0
 14  9  1  0
 21 16  1  0
  1 22  1  0
  1 23  1  0
  1 24  1  0
 10 25  1  0
 11 26  1  0
 12 27  1  0
 13 28  1  0
 14 29  1  0
 15 30  1  0
 17 31  1  0
 18 32  1  0
 19 33  1  0
 20 34  1  0
M  CHG  1   8  -1
M  END
>  <UniqueID>  (10) 
8

>  <SMILES>  (10) 
Cn1c(=O)c(C(=O)[N-]c2ccccc2)cc2ccccc21

>  <Energy>  (10) 
53.49322785100591

>  <Genealogy>  (10) 
Cn1c(=O)c(C(=O)[N-]c2ccccc2)cc2ccccc21 (protonated)
Cn1c(=O)c(C(=O)[N-]c2ccccc2)cc2ccccc21 (3D coordinates assigned)
Cn1c(=O)c(C(=O)[N-]c2ccccc2)cc2ccccc21 (optimized conformer: 53.49322785100591 kcal/mol)

>  <smiles>  (10) 
Cn1c(=O)c(C(=O)Nc2ccccc2)cc2ccccc21

>  <score_type>  (10) 
oracle

>  <origin>  (10) 
adg

>  <m_score__min__energy>  (10) 
-10.27

>  <m_primary>  (10) 
energy

$$$$
10:0
     RDKit          3D

 24 25  0  0  0  0  0  0  0  0999 V2000
   -3.8420   24.7850  -30.8410 O   0  0  0  0  0  0  0  0  0  0  0  0
   -3.5940   23.6120  -30.4470 C   0  0  0  0  0  0  0  0  0  0  0  0
   -2.8140   23.4210  -29.2990 C   0  0  0  0  0  0  0  0  0  0  0  0
   -2.1970   24.8100  -28.4060 Cl  0  0  0  0  0  0  0  0  0  0  0  0
   -2.5340   22.1170  -28.8780 C   0  0  0  0  0  0  0  0  0  0  0  0
   -1.5610   21.7960  -27.4480 Cl  0  0  0  0  0  0  0  0  0  0  0  0
   -3.0340   21.0480  -29.6150 C   0  0  0  0  0  0  0  0  0  0  0  0
   -3.7870   21.2870  -30.7180 N   0  0  0  0  0  0  0  0  0  0  0  0
   -4.0770   22.5240  -31.1320 N   0  0  0  0  0  0  0  0  0  0  0  0
   -4.9010   22.6660  -32.3410 C   0  0  0  0  0  0  0  0  0  0  0  0
   -6.2730   22.0800  -32.1150 C   0  0  0  0  0  0  0  0  0  0  0  0
   -6.6030   20.8520  -32.7160 C   0  0  0  0  0  0  0  0  0  0  0  0
   -7.8540   20.2680  -32.4980 C   0  0  0  0  0  0  0  0  0  0  0  0
   -8.7860   20.8990  -31.6720 C   0  0  0  0  0  0  0  0  0  0  0  0
   -8.4670   22.1130  -31.0580 C   0  0  0  0  0  0  0  0  0  0  0  0
   -7.2160   22.7060  -31.2680 C   0  0  0  0  0  0  0  0  0  0  0  0
   -6.8720   24.2280  -30.4560 Cl  0  0  0  0  0  0  0  0  0  0  0  0
   -2.8199   20.0145  -29.3050 H   0  0  0  0  0  0  0  0  0  0  0  0
   -4.9992   23.7331  -32.5893 H   0  0  0  0  0  0  0  0  0  0  0  0
   -4.4155   22.1281  -33.1686 H   0  0  0  0  0  0  0  0  0  0  0  0
   -5.8705   20.3470  -33.3629 H   0  0  0  0  0  0  0  0  0  0  0  0
   -8.1044   19.3103  -32.9777 H   0  0  0  0  0  0  0  0  0  0  0  0
   -9.7717   20.4404  -31.5045 H   0  0  0  0  0  0  0  0  0  0  0  0
   -9.2030   22.6058  -30.4058 H   0  0  0  0  0  0  0  0  0  0  0  0
  1  2  2  0
  2  3  1  0
  3  4  1  0
  3  5  2  0
  5  6  1  0
  5  7  1  0
  7  8  2  0
  8  9  1  0
  9 10  1  0
 10 11  1  0
 11 12  2  0
 12 13  1  0
 13 14  2  0
 14 15  1  0
 15 16  2  0
 16 17  1  0
  9  2  1  0
 16 11  1  0
  7 18  1  0
 10 19  1  0
 10 20  1  0
 12 21  1  0
 13 22  1  0
 14 23  1  0
 15 24  1  0
M  END
>  <UniqueID>  (11) 
9

>  <SMILES>  (11) 
O=c1c(Cl)c(Cl)cnn1Cc1ccccc1Cl

>  <Energy>  (11) 
29.493317606154772

>  <Genealogy>  (11) 
O=c1c(Cl)c(Cl)cnn1Cc1ccccc1Cl (3D coordinates assigned)
O=c1c(Cl)c(Cl)cnn1Cc1ccccc1Cl (optimized conformer: 29.493317606154772 kcal/mol)

>  <smiles>  (11) 
O=c1c(Cl)c(Cl)cnn1Cc1ccccc1Cl

>  <score_type>  (11) 
oracle

>  <origin>  (11) 
adg

>  <m_score__min__energy>  (11) 
-7

>  <m_primary>  (11) 
energy

$$$$
11:0
     RDKit          3D

 40 42  0  0  0  0  0  0  0  0999 V2000
   -6.6400   15.2730  -34.2050 C   0  0  0  0  0  0  0  0  0  0  0  0
   -7.2190   16.4010  -33.5560 O   0  0  0  0  0  0  0  0  0  0  0  0
   -6.6080   17.6630  -33.4560 C   0  0  0  0  0  0  0  0  0  0  0  0
   -5.3590   17.9330  -34.0470 C   0  0  0  0  0  0  0  0  0  0  0  0
   -4.7770   19.1970  -33.9280 C   0  0  0  0  0  0  0  0  0  0  0  0
   -5.4230   20.2120  -33.2050 C   0  0  0  0  0  0  0  0  0  0  0  0
   -4.8540   21.5260  -33.0870 N   0  0  0  0  0  0  0  0  0  0  0  0
   -4.7270   22.2340  -31.8460 C   0  0  0  0  0  0  0  0  0  0  0  0
   -3.6760   22.0810  -30.9580 C   0  0  0  0  0  0  0  0  0  0  0  0
   -3.8950   22.9490  -29.9610 N   0  0  0  0  0  0  0  0  0  0  0  0
   -3.1640   23.2050  -28.8500 C   0  0  0  0  0  0  0  0  0  0  0  0
   -3.6380   24.1950  -27.9710 C   0  0  0  0  0  0  0  0  0  0  0  0
   -2.8490   24.5570  -26.7480 C   0  0  0  0  0  0  0  0  0  0  0  0
   -4.7910   24.8740  -28.2780 N   0  0  0  0  0  0  0  0  0  0  0  0
   -5.5190   24.5860  -29.4020 C   0  0  0  0  0  0  0  0  0  0  0  0
   -6.7620   25.3590  -29.7350 C   0  0  0  0  0  0  0  0  0  0  0  0
   -5.0310   23.5970  -30.2590 C   0  0  0  0  0  0  0  0  0  0  0  0
   -5.5830   23.1970  -31.4240 N   0  0  0  0  0  0  0  0  0  0  0  0
   -6.6780   19.9530  -32.6360 C   0  0  0  0  0  0  0  0  0  0  0  0
   -7.2700   18.6840  -32.7480 C   0  0  0  0  0  0  0  0  0  0  0  0
   -8.6090   18.4210  -32.1190 C   0  0  0  0  0  0  0  0  0  0  0  0
   -6.2752   14.5622  -33.4489 H   0  0  0  0  0  0  0  0  0  0  0  0
   -7.3979   14.7827  -34.8337 H   0  0  0  0  0  0  0  0  0  0  0  0
   -5.7998   15.6030  -34.8337 H   0  0  0  0  0  0  0  0  0  0  0  0
   -4.8376   17.1425  -34.6067 H   0  0  0  0  0  0  0  0  0  0  0  0
   -3.8060   19.3984  -34.4040 H   0  0  0  0  0  0  0  0  0  0  0  0
   -4.6030   22.0380  -33.9630 H   0  0  0  0  0  0  0  0  0  0  0  0
   -2.8293   21.3851  -31.0522 H   0  0  0  0  0  0  0  0  0  0  0  0
   -2.2325   22.6579  -28.6426 H   0  0  0  0  0  0  0  0  0  0  0  0
   -3.4248   24.2928  -25.8487 H   0  0  0  0  0  0  0  0  0  0  0  0
   -1.8972   24.0055  -26.7491 H   0  0  0  0  0  0  0  0  0  0  0  0
   -2.6463   25.6382  -26.7491 H   0  0  0  0  0  0  0  0  0  0  0  0
   -5.1210   25.6310  -27.6360 H   0  0  0  0  0  0  0  0  0  0  0  0
   -7.2610   25.6693  -28.8051 H   0  0  0  0  0  0  0  0  0  0  0  0
   -6.4936   26.2498  -30.3220 H   0  0  0  0  0  0  0  0  0  0  0  0
   -7.4422   24.7244  -30.3220 H   0  0  0  0  0  0  0  0  0  0  0  0
   -7.2053   20.7529  -32.0955 H   0  0  0  0  0  0  0  0  0  0  0  0
   -8.5097   18.4405  -31.0237 H   0  0  0  0  0  0  0  0  0  0  0  0
   -9.3219   19.1963  -32.4364 H   0  0  0  0  0  0  0  0  0  0  0  0
   -8.9757   17.4337  -32.4364 H   0  0  0  0  0  0  0  0  0  0  0  0
  1  2  1  0
  2  3  1  0
  3  4  2  0
  4  5  1  0
  5  6  2  0
  6  7  1  0
  7  8  1  0
  8  9  2  0
  9 10  1  0
 10 11  1  0
 11 12  2  0
 12 13  1  0
 12 14  1  0
 14 15  2  0
 15 16  1  0
 15 17  1  0
 17 18  2  0
  6 19  1  0
 19 20  2  0
 20 21  1  0
 20  3  1  0
 18  8  1  0
 17 10  1  0
  1 22  1  0
  1 23  1  0
  1 24  1  0
  4 25  1  0
  5 26  1  0
  7 27  1  0
  9 28  1  0
 11 29  1  0
 13 30  1  0
 13 31  1  0
 13 32  1  0
 14 33  1  0
 16 34  1  0
 16 35  1  0
 16 36  1  0
 19 37  1  0
 21 38  1  0
 21 39  1  0
 21 40  1  0
M  CHG  1  14   1
M  END
>  <UniqueID>  (12) 
10

>  <SMILES>  (12) 
COc1ccc(Nc2cn3cc(C)[nH+]c(C)c3n2)cc1C

>  <Energy>  (12) 
78.45363000833603

>  <Genealogy>  (12) 
COc1ccc(Nc2cn3cc(C)[nH+]c(C)c3n2)cc1C (protonated)
COc1ccc(Nc2cn3cc(C)[nH+]c(C)c3n2)cc1C (3D coordinates assigned)
COc1ccc(Nc2cn3cc(C)[nH+]c(C)c3n2)cc1C (optimized conformer: 78.45363000833603 kcal/mol)

>  <smiles>  (12) 
COc1ccc(Nc2cn3cc(C)nc(C)c3n2)cc1C

>  <score_type>  (12) 
oracle

>  <origin>  (12) 
adg

>  <m_score__min__energy>  (12) 
-7.25

>  <m_primary>  (12) 
energy

$$$$
12:0
     RDKit          3D

 38 41  0  0  0  0  0  0  0  0999 V2000
   -3.8420   23.0510  -28.4210 C   0  0  0  0  0  0  0  0  0  0  0  0
   -4.4000   24.2700  -28.8160 C   0  0  0  0  0  0  0  0  0  0  0  0
   -4.9970   24.3920  -30.0740 C   0  0  0  0  0  0  0  0  0  0  0  0
   -5.0390   23.2920  -30.9390 C   0  0  0  0  0  0  0  0  0  0  0  0
   -4.5240   22.0460  -30.5240 C   0  0  0  0  0  0  0  0  0  0  0  0
   -3.8980   21.9460  -29.2760 C   0  0  0  0  0  0  0  0  0  0  0  0
   -4.5910   20.8800  -31.3630 N   0  0  0  0  0  0  0  0  0  0  0  0
   -5.6270   20.4380  -32.0270 C   0  0  0  0  0  0  0  0  0  0  0  0
   -5.4840   19.2540  -32.8390 N   0  0  0  0  0  0  0  0  0  0  0  0
   -6.2850   19.0970  -34.0610 C   0  0  0  0  0  0  0  0  0  0  0  0
   -5.6890   18.0190  -34.9690 C   0  0  0  0  0  0  0  0  0  0  0  0
   -4.2290   18.1540  -34.9810 N   0  0  0  0  0  0  0  0  0  0  0  0
   -3.6320   17.8220  -33.6720 C   0  0  0  0  0  0  0  0  0  0  0  0
   -4.5310   18.1940  -32.4740 C   0  0  0  0  0  0  0  0  0  0  0  0
   -6.9640   21.0870  -31.9110 C   0  0  0  0  0  0  0  0  0  0  0  0
   -8.0770   20.3100  -31.5520 C   0  0  0  0  0  0  0  0  0  0  0  0
   -9.3330   20.9040  -31.3950 C   0  0  0  0  0  0  0  0  0  0  0  0
   -9.4880   22.2790  -31.5880 C   0  0  0  0  0  0  0  0  0  0  0  0
   -8.3870   23.0620  -31.9450 C   0  0  0  0  0  0  0  0  0  0  0  0
   -7.1310   22.4700  -32.1200 C   0  0  0  0  0  0  0  0  0  0  0  0
   -5.7330   23.4850  -32.5780 S   0  0  0  0  0  0  0  0  0  0  0  0
   -3.3586   22.9608  -27.4371 H   0  0  0  0  0  0  0  0  0  0  0  0
   -4.3693   25.1343  -28.1362 H   0  0  0  0  0  0  0  0  0  0  0  0
   -5.4339   25.3526  -30.3844 H   0  0  0  0  0  0  0  0  0  0  0  0
   -3.4471   20.9918  -28.9658 H   0  0  0  0  0  0  0  0  0  0  0  0
   -7.3103   18.8093  -33.7852 H   0  0  0  0  0  0  0  0  0  0  0  0
   -6.2877   20.0530  -34.6050 H   0  0  0  0  0  0  0  0  0  0  0  0
   -5.9636   17.0241  -34.5886 H   0  0  0  0  0  0  0  0  0  0  0  0
   -6.0801   18.1374  -35.9903 H   0  0  0  0  0  0  0  0  0  0  0  0
   -3.8460   17.4910  -35.6940 H   0  0  0  0  0  0  0  0  0  0  0  0
   -3.4408   16.7392  -33.6410 H   0  0  0  0  0  0  0  0  0  0  0  0
   -2.7079   18.4113  -33.5787 H   0  0  0  0  0  0  0  0  0  0  0  0
   -5.0900   17.3026  -32.1533 H   0  0  0  0  0  0  0  0  0  0  0  0
   -3.8924   18.5627  -31.6578 H   0  0  0  0  0  0  0  0  0  0  0  0
   -7.9602   19.2278  -31.3934 H   0  0  0  0  0  0  0  0  0  0  0  0
  -10.2010   20.2873  -31.1189 H   0  0  0  0  0  0  0  0  0  0  0  0
  -10.4761   22.7449  -31.4590 H   0  0  0  0  0  0  0  0  0  0  0  0
   -8.5078   24.1459  -32.0888 H   0  0  0  0  0  0  0  0  0  0  0  0
  1  2  2  0
  2  3  1  0
  3  4  2  0
  4  5  1  0
  5  6  2  0
  5  7  1  0
  7  8  2  0
  8  9  1  0
  9 10  1  0
 10 11  1  0
 11 12  1  0
 12 13  1  0
 13 14  1  0
  8 15  1  0
 15 16  2  0
 16 17  1  0
 17 18  2  0
 18 19  1  0
 19 20  2  0
 20 21  1  0
  6  1  1  0
 14  9  1  0
 20 15  1  0
 21  4  1  0
  1 22  1  0
  2 23  1  0
  3 24  1  0
  6 25  1  0
 10 26  1  0
 10 27  1  0
 11 28  1  0
 11 29  1  0
 12 30  1  0
 13 31  1  0
 13 32  1  0
 14 33  1  0
 14 34  1  0
 16 35  1  0
 17 36  1  0
 18 37  1  0
 19 38  1  0
M  END
>  <UniqueID>  (13) 
11

>  <SMILES>  (13) 
c1ccc2c(c1)N=C(N1CCNCC1)c1ccccc1S2

>  <Energy>  (13) 
61.58855789215899

>  <Genealogy>  (13) 
c1ccc2c(c1)N=C(N1CCNCC1)c1ccccc1S2 (3D coordinates assigned)
c1ccc2c(c1)N=C(N1CCNCC1)c1ccccc1S2 (nonaromatic ring conformer: 61.58855789215899 kcal/mol)

>  <smiles>  (13) 
c1ccc2c(c1)N=C(N1CCNCC1)c1ccccc1S2

>  <score_type>  (13) 
oracle

>  <origin>  (13) 
adg

>  <m_score__min__energy>  (13) 
-7.6699999999999999

>  <m_primary>  (13) 
energy

$$$$
13:0
     RDKit          3D

 48 52  0  0  0  0  0  0  0  0999 V2000
   -3.9420   20.6530  -33.8260 F   0  0  0  0  0  0  0  0  0  0  0  0
   -5.0240   19.9210  -33.4650 C   0  0  0  0  0  0  0  0  0  0  0  0
   -5.0320   18.5240  -33.6860 C   0  0  0  0  0  0  0  0  0  0  0  0
   -6.1370   17.7480  -33.2930 C   0  0  0  0  0  0  0  0  0  0  0  0
   -7.2090   18.3980  -32.6810 C   0  0  0  0  0  0  0  0  0  0  0  0
   -8.3250   17.8360  -32.1820 N   0  0  0  0  0  0  0  0  0  0  0  0
   -9.0420   18.8460  -31.6360 C   0  0  0  0  0  0  0  0  0  0  0  0
   -8.3760   20.0590  -31.8030 C   0  0  0  0  0  0  0  0  0  0  0  0
   -8.7930   21.3860  -31.2330 C   0  0  0  0  0  0  0  0  0  0  0  0
   -7.5950   22.1280  -30.6210 C   0  0  0  0  0  0  0  0  0  0  0  0
   -7.6050   23.5620  -31.0030 N   0  0  0  0  0  0  0  0  0  0  0  0
   -6.8710   23.8010  -32.2670 C   0  0  0  0  0  0  0  0  0  0  0  0
   -5.3550   23.6410  -32.0680 C   0  0  0  0  0  0  0  0  0  0  0  0
   -4.9190   24.3450  -30.8550 N   0  0  0  0  0  0  0  0  0  0  0  0
   -3.6770   23.9880  -30.2310 C   0  0  0  0  0  0  0  0  0  0  0  0
   -2.9880   24.8870  -29.4740 N   0  0  0  0  0  0  0  0  0  0  0  0
   -1.6340   24.0800  -28.9310 S   0  0  0  0  0  0  0  0  0  0  0  0
   -1.8950   22.6020  -29.6440 C   0  0  0  0  0  0  0  0  0  0  0  0
   -1.1230   21.4440  -29.6260 C   0  0  0  0  0  0  0  0  0  0  0  0
   -1.5820   20.3440  -30.3660 C   0  0  0  0  0  0  0  0  0  0  0  0
   -2.7780   20.4330  -31.1090 C   0  0  0  0  0  0  0  0  0  0  0  0
   -3.5330   21.6190  -31.1110 C   0  0  0  0  0  0  0  0  0  0  0  0
   -3.0820   22.7080  -30.3510 C   0  0  0  0  0  0  0  0  0  0  0  0
   -5.8660   25.2080  -30.1440 C   0  0  0  0  0  0  0  0  0  0  0  0
   -7.1840   24.4560  -29.8880 C   0  0  0  0  0  0  0  0  0  0  0  0
   -7.2010   19.7540  -32.4640 C   0  0  0  0  0  0  0  0  0  0  0  0
   -6.1200   20.5510  -32.8460 C   0  0  0  0  0  0  0  0  0  0  0  0
   -4.1689   18.0417  -34.1681 H   0  0  0  0  0  0  0  0  0  0  0  0
   -6.1555   16.6614  -33.4630 H   0  0  0  0  0  0  0  0  0  0  0  0
   -8.5760   16.8220  -32.1830 H   0  0  0  0  0  0  0  0  0  0  0  0
  -10.0124   18.7265  -31.1321 H   0  0  0  0  0  0  0  0  0  0  0  0
   -9.2246   22.0018  -32.0358 H   0  0  0  0  0  0  0  0  0  0  0  0
   -9.5345   21.2075  -30.4403 H   0  0  0  0  0  0  0  0  0  0  0  0
   -7.6439   22.0475  -29.5250 H   0  0  0  0  0  0  0  0  0  0  0  0
   -6.6691   21.6710  -31.0005 H   0  0  0  0  0  0  0  0  0  0  0  0
   -7.2121   23.0777  -33.0223 H   0  0  0  0  0  0  0  0  0  0  0  0
   -7.0723   24.8307  -32.5975 H   0  0  0  0  0  0  0  0  0  0  0  0
   -5.1130   22.5721  -31.9731 H   0  0  0  0  0  0  0  0  0  0  0  0
   -4.8345   24.0716  -32.9361 H   0  0  0  0  0  0  0  0  0  0  0  0
   -0.1861   21.3931  -29.0519 H   0  0  0  0  0  0  0  0  0  0  0  0
   -1.0061   19.4068  -30.3669 H   0  0  0  0  0  0  0  0  0  0  0  0
   -3.1230   19.5664  -31.6921 H   0  0  0  0  0  0  0  0  0  0  0  0
   -4.4605   21.6915  -31.6979 H   0  0  0  0  0  0  0  0  0  0  0  0
   -5.4284   25.5117  -29.1815 H   0  0  0  0  0  0  0  0  0  0  0  0
   -6.0737   26.0955  -30.7597 H   0  0  0  0  0  0  0  0  0  0  0  0
   -7.0611   23.8435  -28.9826 H   0  0  0  0  0  0  0  0  0  0  0  0
   -7.9681   25.2203  -29.7831 H   0  0  0  0  0  0  0  0  0  0  0  0
   -6.1248   21.6366  -32.6688 H   0  0  0  0  0  0  0  0  0  0  0  0
  1  2  1  0
  2  3  2  0
  3  4  1  0
  4  5  2  0
  5  6  1  0
  6  7  1  0
  7  8  2  0
  8  9  1  0
  9 10  1  0
 10 11  1  0
 11 12  1  0
 12 13  1  0
 13 14  1  0
 14 15  1  0
 15 16  2  0
 16 17  1  0
 17 18  1  0
 18 19  2  0
 19 20  1  0
 20 21  2  0
 21 22  1  0
 22 23  2  0
 14 24  1  0
 24 25  1  0
  8 26  1  0
 26 27  2  0
 27  2  1  0
 26  5  1  0
 25 11  1  0
 23 15  1  0
 23 18  1  0
  3 28  1  0
  4 29  1  0
  6 30  1  0
  7 31  1  0
  9 32  1  0
  9 33  1  0
 10 34  1  0
 10 35  1  0
 12 36  1  0
 12 37  1  0
 13 38  1  0
 13 39  1  0
 19 40  1  0
 20 41  1  0
 21 42  1  0
 22 43  1  0
 24 44  1  0
 24 45  1  0
 25 46  1  0
 25 47  1  0
 27 48  1  0
M  END
>  <UniqueID>  (14) 
12

>  <SMILES>  (14) 
Fc1ccc2[nH]cc(CCN3CCN(c4nsc5ccccc45)CC3)c2c1

>  <Energy>  (14) 
134.76985932158004

>  <Genealogy>  (14) 
Fc1ccc2[nH]cc(CCN3CCN(c4nsc5ccccc45)CC3)c2c1 (3D coordinates assigned)
Fc1ccc2[nH]cc(CCN3CCN(c4nsc5ccccc45)CC3)c2c1 (nonaromatic ring conformer: 134.76985932158004 kcal/mol)

>  <smiles>  (14) 
Fc1ccc2[nH]cc(CCN3CCN(c4nsc5ccccc45)CC3)c2c1

>  <score_type>  (14) 
oracle

>  <origin>  (14) 
adg

>  <m_score__min__energy>  (14) 
-9.6500000000000004

>  <m_primary>  (14) 
energy

$$$$
14:0
     RDKit          3D

 68 71  0  0  0  0  0  0  0  0999 V2000
   -3.3032   15.7095  -35.2008 H   0  0  0  0  0  0  0  0  0  0  0  0
   -3.7080   16.5980  -34.6940 C   0  0  0  0  0  0  0  0  0  0  0  0
   -4.9730   16.5780  -34.2060 N   0  0  0  0  0  0  0  0  0  0  0  0
   -5.5150   17.6520  -33.5740 C   0  0  0  0  0  0  0  0  0  0  0  0
   -6.8310   17.5860  -33.1010 C   0  0  0  0  0  0  0  0  0  0  0  0
   -7.4122   16.6601  -33.2231 H   0  0  0  0  0  0  0  0  0  0  0  0
   -7.4080   18.6940  -32.4740 C   0  0  0  0  0  0  0  0  0  0  0  0
   -9.0590   18.6080  -31.8880 Cl  0  0  0  0  0  0  0  0  0  0  0  0
   -6.6710   19.8720  -32.3160 C   0  0  0  0  0  0  0  0  0  0  0  0
   -7.1328   20.7468  -31.8349 H   0  0  0  0  0  0  0  0  0  0  0  0
   -5.3500   19.9420  -32.7670 C   0  0  0  0  0  0  0  0  0  0  0  0
   -4.7721   20.8670  -32.6246 H   0  0  0  0  0  0  0  0  0  0  0  0
   -4.7530   18.8330  -33.4040 C   0  0  0  0  0  0  0  0  0  0  0  0
   -3.4270   18.8730  -33.8950 C   0  0  0  0  0  0  0  0  0  0  0  0
   -2.7170   19.9570  -33.7340 N   0  0  0  0  0  0  0  0  0  0  0  0
   -1.3440   20.0790  -33.2400 C   0  0  0  0  0  0  0  0  0  0  0  0
   -0.7363   20.5823  -34.0064 H   0  0  0  0  0  0  0  0  0  0  0  0
   -0.9714   19.0652  -33.0315 H   0  0  0  0  0  0  0  0  0  0  0  0
   -1.2600   20.8870  -31.9340 C   0  0  0  0  0  0  0  0  0  0  0  0
   -2.2462   21.3396  -31.7536 H   0  0  0  0  0  0  0  0  0  0  0  0
   -0.4523   21.6178  -32.0874 H   0  0  0  0  0  0  0  0  0  0  0  0
   -0.8670   20.0880  -30.6700 C   0  0  0  0  0  0  0  0  0  0  0  0
    0.1555   19.7104  -30.8183 H   0  0  0  0  0  0  0  0  0  0  0  0
   -1.6343   19.3061  -30.5709 H   0  0  0  0  0  0  0  0  0  0  0  0
   -0.8920   20.8250  -29.3850 N   0  0  0  0  0  0  0  0  0  0  0  0
    0.2870   20.6560  -28.5340 C   0  0  0  0  0  0  0  0  0  0  0  0
    1.1843   20.5310  -29.1579 H   0  0  0  0  0  0  0  0  0  0  0  0
    0.1792   19.7636  -27.8999 H   0  0  0  0  0  0  0  0  0  0  0  0
    0.4230   21.9100  -27.6730 C   0  0  0  0  0  0  0  0  0  0  0  0
    0.8205   22.7217  -28.3001 H   0  0  0  0  0  0  0  0  0  0  0  0
    1.0960   21.6594  -26.8398 H   0  0  0  0  0  0  0  0  0  0  0  0
   -0.8690   22.3640  -27.0740 N   0  0  0  0  0  0  0  0  0  0  0  0
   -0.6940   22.4070  -26.0400 H   0  0  0  0  0  0  0  0  0  0  0  0
   -1.2120   23.7660  -27.4270 C   0  0  0  0  0  0  0  0  0  0  0  0
   -1.3583   23.8205  -28.5159 H   0  0  0  0  0  0  0  0  0  0  0  0
   -0.3785   24.3911  -27.0741 H   0  0  0  0  0  0  0  0  0  0  0  0
   -2.4850   24.3030  -26.7420 C   0  0  0  0  0  0  0  0  0  0  0  0
   -2.2722   25.2962  -26.3197 H   0  0  0  0  0  0  0  0  0  0  0  0
   -2.7765   23.5964  -25.9510 H   0  0  0  0  0  0  0  0  0  0  0  0
   -3.6490   24.4220  -27.7360 C   0  0  0  0  0  0  0  0  0  0  0  0
   -3.5531   25.3681  -28.2889 H   0  0  0  0  0  0  0  0  0  0  0  0
   -4.5926   24.3960  -27.1713 H   0  0  0  0  0  0  0  0  0  0  0  0
   -3.6490   23.3100  -28.6890 N   0  0  0  0  0  0  0  0  0  0  0  0
   -4.0020   23.8390  -30.3140 S   0  0  0  0  0  0  0  0  0  0  0  0
   -3.8600   25.3300  -30.4600 O   0  0  0  0  0  0  0  0  0  0  0  0
   -3.0420   23.1780  -31.2620 O   0  0  0  0  0  0  0  0  0  0  0  0
   -5.6420   23.3570  -30.7330 C   0  0  0  0  0  0  0  0  0  0  0  0
   -6.4410   22.7120  -29.7810 C   0  0  0  0  0  0  0  0  0  0  0  0
   -6.0505   22.5349  -28.7680 H   0  0  0  0  0  0  0  0  0  0  0  0
   -7.7330   22.2920  -30.1120 C   0  0  0  0  0  0  0  0  0  0  0  0
   -8.3506   21.7757  -29.3623 H   0  0  0  0  0  0  0  0  0  0  0  0
   -8.2440   22.5270  -31.3970 C   0  0  0  0  0  0  0  0  0  0  0  0
   -9.6030   22.0160  -31.7690 C   0  0  0  0  0  0  0  0  0  0  0  0
  -10.1764   21.8004  -30.8554 H   0  0  0  0  0  0  0  0  0  0  0  0
  -10.1311   22.7770  -32.3623 H   0  0  0  0  0  0  0  0  0  0  0  0
   -9.4989   21.0956  -32.3623 H   0  0  0  0  0  0  0  0  0  0  0  0
   -7.4430   23.1750  -32.3490 C   0  0  0  0  0  0  0  0  0  0  0  0
   -7.8336   23.3549  -33.3614 H   0  0  0  0  0  0  0  0  0  0  0  0
   -6.1520   23.5930  -32.0180 C   0  0  0  0  0  0  0  0  0  0  0  0
   -5.5335   24.1088  -32.7673 H   0  0  0  0  0  0  0  0  0  0  0  0
   -2.0120   21.4170  -27.2180 C   0  0  0  0  0  0  0  0  0  0  0  0
   -2.9404   21.9667  -27.0036 H   0  0  0  0  0  0  0  0  0  0  0  0
   -1.8213   20.5936  -26.5139 H   0  0  0  0  0  0  0  0  0  0  0  0
   -2.1490   20.7680  -28.6200 C   0  0  0  0  0  0  0  0  0  0  0  0
   -2.9302   21.3008  -29.1821 H   0  0  0  0  0  0  0  0  0  0  0  0
   -2.4097   19.7089  -28.4776 H   0  0  0  0  0  0  0  0  0  0  0  0
   -2.9170   17.7390  -34.5570 C   0  0  0  0  0  0  0  0  0  0  0  0
   -1.8958   17.7531  -34.9656 H   0  0  0  0  0  0  0  0  0  0  0  0
  1  2  1  0
  2  3  1  0
  3  4  1  0
  4  5  2  0
  5  6  1  0
  5  7  1  0
  7  8  1  0
  7  9  2  0
  9 10  1  0
  9 11  1  0
 11 12  1  0
 11 13  2  0
 13 14  1  0
 14 15  2  0
 15 16  1  0
 16 17  1  0
 16 18  1  0
 16 19  1  0
 19 20  1  0
 19 21  1  0
 19 22  1  0
 22 23  1  0
 22 24  1  0
 22 25  1  0
 25 26  1  0
 26 27  1  0
 26 28  1  0
 26 29  1  0
 29 30  1  0
 29 31  1  0
 29 32  1  0
 32 33  1  0
 32 34  1  0
 34 35  1  0
 34 36  1  0
 34 37  1  0
 37 38  1  0
 37 39  1  0
 37 40  1  0
 40 41  1  0
 40 42  1  0
 40 43  1  0
 43 44  1  0
 44 45  2  0
 44 46  2  0
 44 47  1  0
 47 48  2  0
 48 49  1  0
 48 50  1  0
 50 51  1  0
 50 52  2  0
 52 53  1  0
 53 54  1  0
 53 55  1  0
 53 56  1  0
 52 57  1  0
 57 58  1  0
 57 59  2  0
 59 60  1  0
 32 61  1  0
 61 62  1  0
 61 63  1  0
 61 64  1  0
 64 65  1  0
 64 66  1  0
 14 67  1  0
 67 68  1  0
 67  2  2  0
 13  4  1  0
 64 25  1  0
 59 47  1  0
M  CHG  3   3  -1  32   1  43  -1
M  END
>  <UniqueID>  (15) 
13

>  <SMILES>  (15) 
Cc1ccc(S(=O)(=O)[N-]CCC[NH+]2CCN(CCC/N=c3\cc[n-]c4cc(Cl)ccc34)CC2)cc1

>  <Energy>  (15) 
91.01012888449375

>  <Genealogy>  (15) 
Cc1ccc(S(=O)(=O)[N-]CCC[NH+]2CCN(CCCN=c3cc[n-]c4cc(Cl)ccc34)CC2)cc1 (protonated)
Cc1ccc(S(=O)(=O)[N-]CCC[NH+]2CCN(CCC/N=c3\cc[n-]c4cc(Cl)ccc34)CC2)cc1 (cis-trans isomerization)
Cc1ccc(S(=O)(=O)[N-]CCC[NH+]2CCN(CCC/N=c3\cc[n-]c4cc(Cl)ccc34)CC2)cc1 (3D coordinates assigned)
Cc1ccc(S(=O)(=O)[N-]CCC[NH+]2CCN(CCC/N=c3\cc[n-]c4cc(Cl)ccc34)CC2)cc1 (nonaromatic ring conformer: 91.01012888449375 kcal/mol)

>  <smiles>  (15) 
Cc1ccc(S(=O)(=O)NCCCN2CCN(CCCN=c3cc[nH]c4cc(Cl)ccc34)CC2)cc1

>  <score_type>  (15) 
oracle

>  <origin>  (15) 
adg

>  <m_score__min__energy>  (15) 
-10.43

>  <m_primary>  (15) 
energy

$$$$
15:0
     RDKit          3D

 30 32  0  0  0  0  0  0  0  0999 V2000
   -8.5600   18.7450  -31.5750 C   0  0  0  0  0  0  0  0  0  0  0  0
   -7.4040   18.5370  -32.5190 C   0  0  0  0  0  0  0  0  0  0  0  0
   -7.2360   17.2700  -33.1050 C   0  0  0  0  0  0  0  0  0  0  0  0
   -6.2070   17.0410  -34.0210 C   0  0  0  0  0  0  0  0  0  0  0  0
   -6.0640   15.8180  -34.5870 F   0  0  0  0  0  0  0  0  0  0  0  0
   -5.3310   18.0720  -34.3590 C   0  0  0  0  0  0  0  0  0  0  0  0
   -5.4690   19.3300  -33.7710 C   0  0  0  0  0  0  0  0  0  0  0  0
   -6.4840   19.5710  -32.8300 C   0  0  0  0  0  0  0  0  0  0  0  0
   -6.5620   20.9150  -32.2190 C   0  0  0  0  0  0  0  0  0  0  0  0
   -5.4930   21.4480  -31.5590 N   0  0  0  0  0  0  0  0  0  0  0  0
   -5.5780   22.6860  -31.0000 C   0  0  0  0  0  0  0  0  0  0  0  0
   -4.4870   23.2380  -30.3110 C   0  0  0  0  0  0  0  0  0  0  0  0
   -4.5870   24.5120  -29.7430 C   0  0  0  0  0  0  0  0  0  0  0  0
   -5.7740   25.2410  -29.8580 C   0  0  0  0  0  0  0  0  0  0  0  0
   -6.8660   24.7020  -30.5450 C   0  0  0  0  0  0  0  0  0  0  0  0
   -6.7730   23.4220  -31.1190 C   0  0  0  0  0  0  0  0  0  0  0  0
   -7.8310   22.8300  -31.8250 C   0  0  0  0  0  0  0  0  0  0  0  0
   -8.9260   23.4360  -31.9770 O   0  0  0  0  0  0  0  0  0  0  0  0
   -7.6850   21.6170  -32.3430 O   0  0  0  0  0  0  0  0  0  0  0  0
   -8.2019   18.6806  -30.5369 H   0  0  0  0  0  0  0  0  0  0  0  0
   -9.0019   19.7371  -31.7495 H   0  0  0  0  0  0  0  0  0  0  0  0
   -9.3200   17.9692  -31.7495 H   0  0  0  0  0  0  0  0  0  0  0  0
   -7.9214   16.4516  -32.8395 H   0  0  0  0  0  0  0  0  0  0  0  0
   -4.5294   17.8932  -35.0908 H   0  0  0  0  0  0  0  0  0  0  0  0
   -4.7773   20.1397  -34.0466 H   0  0  0  0  0  0  0  0  0  0  0  0
   -4.5970   20.9130  -31.5030 H   0  0  0  0  0  0  0  0  0  0  0  0
   -3.5513   22.6673  -30.2176 H   0  0  0  0  0  0  0  0  0  0  0  0
   -3.7294   24.9414  -29.2044 H   0  0  0  0  0  0  0  0  0  0  0  0
   -5.8493   26.2414  -29.4068 H   0  0  0  0  0  0  0  0  0  0  0  0
   -7.7978   25.2794  -30.6364 H   0  0  0  0  0  0  0  0  0  0  0  0
  1  2  1  0
  2  3  2  0
  3  4  1  0
  4  5  1  0
  4  6  2  0
  6  7  1  0
  7  8  2  0
  8  9  1  0
  9 10  2  0
 10 11  1  0
 11 12  2  0
 12 13  1  0
 13 14  2  0
 14 15  1  0
 15 16  2  0
 16 17  1  0
 17 18  2  0
 17 19  1  0
  8  2  1  0
 19  9  1  0
 16 11  1  0
  1 20  1  0
  1 21  1  0
  1 22  1  0
  3 23  1  0
  6 24  1  0
  7 25  1  0
 10 26  1  0
 12 27  1  0
 13 28  1  0
 14 29  1  0
 15 30  1  0
M  CHG  1  10   1
M  END
>  <UniqueID>  (16) 
14

>  <SMILES>  (16) 
Cc1cc(F)ccc1-c1[nH+]c2ccccc2c(=O)o1

>  <Energy>  (16) 
44.17480886313173

>  <Genealogy>  (16) 
Cc1cc(F)ccc1-c1[nH+]c2ccccc2c(=O)o1 (protonated)
Cc1cc(F)ccc1-c1[nH+]c2ccccc2c(=O)o1 (3D coordinates assigned)
Cc1cc(F)ccc1-c1[nH+]c2ccccc2c(=O)o1 (optimized conformer: 44.17480886313173 kcal/mol)

>  <smiles>  (16) 
Cc1cc(F)ccc1-c1nc2ccccc2c(=O)o1

>  <score_type>  (16) 
oracle

>  <origin>  (16) 
adg

>  <m_score__min__energy>  (16) 
-6.6600000000000001

>  <m_primary>  (16) 
energy

$$$$
16:0
     RDKit          3D

 38 39  0  0  0  0  0  0  0  0999 V2000
   -4.6990   24.5350  -29.2850 C   0  0  0  0  0  0  0  0  0  0  0  0
   -5.5940   24.0850  -30.3890 C   0  0  0  0  0  0  0  0  0  0  0  0
   -6.7980   23.4210  -30.2440 C   0  0  0  0  0  0  0  0  0  0  0  0
   -7.2120   23.2160  -31.5450 C   0  0  0  0  0  0  0  0  0  0  0  0
   -8.4340   22.4660  -31.9770 C   0  0  0  0  0  0  0  0  0  0  0  0
   -8.6220   21.2860  -31.1240 N   0  0  0  0  0  0  0  0  0  0  0  0
   -9.1680   20.1460  -31.8760 C   0  0  0  0  0  0  0  0  0  0  0  0
   -8.0600   19.1730  -32.3120 C   0  0  0  0  0  0  0  0  0  0  0  0
   -7.2890   19.6940  -33.4450 N   0  0  0  0  0  0  0  0  0  0  0  0
   -5.8460   19.7530  -33.4510 C   0  0  0  0  0  0  0  0  0  0  0  0
   -5.1740   20.8760  -32.9260 C   0  0  0  0  0  0  0  0  0  0  0  0
   -3.7800   20.9450  -32.9420 C   0  0  0  0  0  0  0  0  0  0  0  0
   -3.0330   19.9010  -33.4820 C   0  0  0  0  0  0  0  0  0  0  0  0
   -3.6760   18.7810  -34.0070 C   0  0  0  0  0  0  0  0  0  0  0  0
   -5.0790   18.6890  -33.9950 C   0  0  0  0  0  0  0  0  0  0  0  0
   -5.7360   17.4560  -34.5580 C   0  0  0  0  0  0  0  0  0  0  0  0
   -6.2850   23.7140  -32.3850 N   0  0  0  0  0  0  0  0  0  0  0  0
   -5.3320   24.2300  -31.6690 O   0  0  0  0  0  0  0  0  0  0  0  0
   -5.1650   24.3007  -28.3166 H   0  0  0  0  0  0  0  0  0  0  0  0
   -3.7323   24.0158  -29.3619 H   0  0  0  0  0  0  0  0  0  0  0  0
   -4.5392   25.6206  -29.3619 H   0  0  0  0  0  0  0  0  0  0  0  0
   -7.3053   23.1262  -29.3135 H   0  0  0  0  0  0  0  0  0  0  0  0
   -9.3134   23.1214  -31.8924 H   0  0  0  0  0  0  0  0  0  0  0  0
   -8.3110   22.1428  -33.0212 H   0  0  0  0  0  0  0  0  0  0  0  0
   -7.6790   20.9980  -30.7710 H   0  0  0  0  0  0  0  0  0  0  0  0
   -9.8849   19.6081  -31.2383 H   0  0  0  0  0  0  0  0  0  0  0  0
   -9.6605   20.5340  -32.7798 H   0  0  0  0  0  0  0  0  0  0  0  0
   -7.3786   19.0072  -31.4645 H   0  0  0  0  0  0  0  0  0  0  0  0
   -8.5366   18.2332  -32.6276 H   0  0  0  0  0  0  0  0  0  0  0  0
   -7.8110   20.0270  -34.2860 H   0  0  0  0  0  0  0  0  0  0  0  0
   -5.7548   21.7069  -32.4991 H   0  0  0  0  0  0  0  0  0  0  0  0
   -3.2699   21.8267  -32.5268 H   0  0  0  0  0  0  0  0  0  0  0  0
   -1.9347   19.9602  -33.4943 H   0  0  0  0  0  0  0  0  0  0  0  0
   -3.0800   17.9613  -34.4348 H   0  0  0  0  0  0  0  0  0  0  0  0
   -6.0782   16.8138  -33.7331 H   0  0  0  0  0  0  0  0  0  0  0  0
   -6.5974   17.7493  -35.1760 H   0  0  0  0  0  0  0  0  0  0  0  0
   -5.0121   16.9045  -35.1760 H   0  0  0  0  0  0  0  0  0  0  0  0
   -6.3040   23.6890  -33.4280 H   0  0  0  0  0  0  0  0  0  0  0  0
  1  2  1  0
  2  3  2  0
  3  4  1  0
  4  5  1  0
  5  6  1  0
  6  7  1  0
  7  8  1  0
  8  9  1  0
  9 10  1  0
 10 11  2  0
 11 12  1  0
 12 13  2  0
 13 14  1  0
 14 15  2  0
 15 16  1  0
  4 17  2  0
 17 18  1  0
 18  2  1  0
 15 10  1  0
  1 19  1  0
  1 20  1  0
  1 21  1  0
  3 22  1  0
  5 23  1  0
  5 24  1  0
  6 25  1  0
  7 26  1  0
  7 27  1  0
  8 28  1  0
  8 29  1  0
  9 30  1  0
 11 31  1  0
 12 32  1  0
 13 33  1  0
 14 34  1  0
 16 35  1  0
 16 36  1  0
 16 37  1  0
 17 38  1  0
M  CHG  1  17   1
M  END
>  <UniqueID>  (17) 
15

>  <SMILES>  (17) 
Cc1cc(CNCCNc2ccccc2C)[nH+]o1

>  <Energy>  (17) 
65.93977558168538

>  <Genealogy>  (17) 
Cc1cc(CNCCNc2ccccc2C)[nH+]o1 (protonated)
Cc1cc(CNCCNc2ccccc2C)[nH+]o1 (3D coordinates assigned)
Cc1cc(CNCCNc2ccccc2C)[nH+]o1 (optimized conformer: 65.93977558168538 kcal/mol)

>  <smiles>  (17) 
Cc1cc(CNCCNc2ccccc2C)no1

>  <score_type>  (17) 
oracle

>  <origin>  (17) 
adg

>  <m_score__min__energy>  (17) 
-7.3200000000000003

>  <m_primary>  (17) 
energy

$$$$
17:0
     RDKit          3D

 33 34  0  0  0  0  0  0  0  0999 V2000
   -2.1430   19.3860  -32.9380 O   0  0  0  0  0  0  0  0  0  0  0  0
   -3.3980   19.4890  -33.0010 C   0  0  0  0  0  0  0  0  0  0  0  0
   -4.2280   18.3060  -33.4060 C   0  0  0  0  0  0  0  0  0  0  0  0
   -5.5500   18.7630  -34.5860 S   0  0  0  0  0  0  0  0  0  0  0  0
   -6.8410   18.8980  -33.3450 C   0  0  0  0  0  0  0  0  0  0  0  0
   -7.1800   17.7890  -32.5580 C   0  0  0  0  0  0  0  0  0  0  0  0
   -8.1740   17.9000  -31.5810 C   0  0  0  0  0  0  0  0  0  0  0  0
   -8.8280   19.1210  -31.3830 C   0  0  0  0  0  0  0  0  0  0  0  0
   -8.4850   20.2320  -32.1610 C   0  0  0  0  0  0  0  0  0  0  0  0
   -9.3830   21.8970  -31.8950 Br  0  0  0  0  0  0  0  0  0  0  0  0
   -7.4900   20.1220  -33.1380 C   0  0  0  0  0  0  0  0  0  0  0  0
   -4.0400   20.7120  -32.6120 N   0  0  0  0  0  0  0  0  0  0  0  0
   -3.2930   21.9500  -32.4010 C   0  0  0  0  0  0  0  0  0  0  0  0
   -3.3960   22.3990  -30.9400 C   0  0  0  0  0  0  0  0  0  0  0  0
   -4.6110   23.1940  -30.7260 N   0  0  0  0  0  0  0  0  0  0  0  0
   -4.6230   24.5410  -30.5100 C   0  0  0  0  0  0  0  0  0  0  0  0
   -3.4620   25.2990  -30.4450 O   0  0  0  0  0  0  0  0  0  0  0  0
   -5.8850   25.1090  -30.3690 C   0  0  0  0  0  0  0  0  0  0  0  0
   -7.0280   23.8830  -30.5370 S   0  0  0  0  0  0  0  0  0  0  0  0
   -5.8690   22.6920  -30.7770 C   0  0  0  0  0  0  0  0  0  0  0  0
   -6.1340   21.4790  -30.9860 O   0  0  0  0  0  0  0  0  0  0  0  0
   -3.5735   17.5589  -33.8787 H   0  0  0  0  0  0  0  0  0  0  0  0
   -4.7065   17.9027  -32.5013 H   0  0  0  0  0  0  0  0  0  0  0  0
   -6.6633   16.8298  -32.7092 H   0  0  0  0  0  0  0  0  0  0  0  0
   -8.4420   17.0270  -30.9677 H   0  0  0  0  0  0  0  0  0  0  0  0
   -9.6116   19.2073  -30.6159 H   0  0  0  0  0  0  0  0  0  0  0  0
   -7.2168   20.9980  -33.7447 H   0  0  0  0  0  0  0  0  0  0  0  0
   -5.0780   20.7300  -32.4980 H   0  0  0  0  0  0  0  0  0  0  0  0
   -2.2358   21.7820  -32.6540 H   0  0  0  0  0  0  0  0  0  0  0  0
   -3.7178   22.7348  -33.0442 H   0  0  0  0  0  0  0  0  0  0  0  0
   -3.4262   21.5115  -30.2908 H   0  0  0  0  0  0  0  0  0  0  0  0
   -2.5204   23.0193  -30.6981 H   0  0  0  0  0  0  0  0  0  0  0  0
   -6.0989   26.1715  -30.1809 H   0  0  0  0  0  0  0  0  0  0  0  0
  1  2  2  0
  2  3  1  0
  3  4  1  0
  4  5  1  0
  5  6  2  0
  6  7  1  0
  7  8  2  0
  8  9  1  0
  9 10  1  0
  9 11  2  0
  2 12  1  0
 12 13  1  0
 13 14  1  0
 14 15  1  0
 15 16  1  0
 16 17  1  0
 16 18  2  0
 18 19  1  0
 19 20  1  0
 20 21  2  0
 11  5  1  0
 20 15  1  0
  3 22  1  0
  3 23  1  0
  6 24  1  0
  7 25  1  0
  8 26  1  0
 11 27  1  0
 12 28  1  0
 13 29  1  0
 13 30  1  0
 14 31  1  0
 14 32  1  0
 18 33  1  0
M  CHG  1  17  -1
M  END
>  <UniqueID>  (18) 
16

>  <SMILES>  (18) 
O=C(CSc1cccc(Br)c1)NCCn1c([O-])csc1=O

>  <Energy>  (18) 
53.884381586419735

>  <Genealogy>  (18) 
O=C(CSc1cccc(Br)c1)NCCn1c([O-])csc1=O (protonated)
O=C(CSc1cccc(Br)c1)NCCn1c([O-])csc1=O (3D coordinates assigned)
O=C(CSc1cccc(Br)c1)NCCn1c([O-])csc1=O (optimized conformer: 53.884381586419735 kcal/mol)

>  <smiles>  (18) 
O=C(CSc1cccc(Br)c1)NCCn1c(O)csc1=O

>  <score_type>  (18) 
oracle

>  <origin>  (18) 
adg

>  <m_score__min__energy>  (18) 
-10.5

>  <m_primary>  (18) 
energy

$$$$
18:0
     RDKit          3D

 35 37  0  0  0  0  0  0  0  0999 V2000
   -8.0843   25.1024  -29.8028 H   0  0  0  0  0  0  0  0  0  0  0  0
   -7.2230   24.6220  -30.2900 C   0  0  0  0  0  0  0  0  0  0  0  0
   -7.4230   23.5410  -31.1510 C   0  0  0  0  0  0  0  0  0  0  0  0
   -8.4432   23.1806  -31.3491 H   0  0  0  0  0  0  0  0  0  0  0  0
   -6.3320   22.9140  -31.7630 C   0  0  0  0  0  0  0  0  0  0  0  0
   -6.5690   21.8490  -32.6960 N   0  0  0  0  0  0  0  0  0  0  0  0
   -7.1960   20.7210  -32.4850 C   0  0  0  0  0  0  0  0  0  0  0  0
   -8.4120   20.6680  -31.7740 C   0  0  0  0  0  0  0  0  0  0  0  0
   -8.8549   21.5915  -31.3727 H   0  0  0  0  0  0  0  0  0  0  0  0
   -9.0540   19.4450  -31.5790 C   0  0  0  0  0  0  0  0  0  0  0  0
   -9.9975   19.4081  -31.0146 H   0  0  0  0  0  0  0  0  0  0  0  0
   -8.5240   18.3000  -32.0800 N   0  0  0  0  0  0  0  0  0  0  0  0
   -9.0360   17.4030  -31.9140 H   0  0  0  0  0  0  0  0  0  0  0  0
   -7.3620   18.3040  -32.7920 C   0  0  0  0  0  0  0  0  0  0  0  0
   -6.8480   17.1030  -33.3080 C   0  0  0  0  0  0  0  0  0  0  0  0
   -7.3848   16.1588  -33.1339 H   0  0  0  0  0  0  0  0  0  0  0  0
   -5.6590   17.1010  -34.0410 C   0  0  0  0  0  0  0  0  0  0  0  0
   -5.2627   16.1563  -34.4416 H   0  0  0  0  0  0  0  0  0  0  0  0
   -4.9730   18.2950  -34.2660 C   0  0  0  0  0  0  0  0  0  0  0  0
   -4.0366   18.2887  -34.8432 H   0  0  0  0  0  0  0  0  0  0  0  0
   -5.4710   19.4980  -33.7610 C   0  0  0  0  0  0  0  0  0  0  0  0
   -4.9239   20.4346  -33.9441 H   0  0  0  0  0  0  0  0  0  0  0  0
   -6.6700   19.5220  -33.0180 C   0  0  0  0  0  0  0  0  0  0  0  0
   -5.0370   23.4160  -31.5460 C   0  0  0  0  0  0  0  0  0  0  0  0
   -4.1827   22.9655  -32.0726 H   0  0  0  0  0  0  0  0  0  0  0  0
   -4.8240   24.4850  -30.6650 C   0  0  0  0  0  0  0  0  0  0  0  0
   -3.4850   24.9650  -30.4770 N   0  0  0  0  0  0  0  0  0  0  0  0
   -2.6580   24.7550  -29.3260 C   0  0  0  0  0  0  0  0  0  0  0  0
   -1.8170   25.6230  -28.9690 O   0  0  0  0  0  0  0  0  0  0  0  0
   -2.8750   23.5480  -28.4780 C   0  0  0  0  0  0  0  0  0  0  0  0
   -2.8240   23.8317  -27.4164 H   0  0  0  0  0  0  0  0  0  0  0  0
   -3.8645   23.1198  -28.6960 H   0  0  0  0  0  0  0  0  0  0  0  0
   -2.0966   22.8020  -28.6960 H   0  0  0  0  0  0  0  0  0  0  0  0
   -5.9300   25.0950  -30.0460 C   0  0  0  0  0  0  0  0  0  0  0  0
   -5.7772   25.9472  -29.3675 H   0  0  0  0  0  0  0  0  0  0  0  0
  1  2  1  0
  2  3  2  0
  3  4  1  0
  3  5  1  0
  5  6  1  0
  6  7  2  0
  7  8  1  0
  8  9  1  0
  8 10  2  0
 10 11  1  0
 10 12  1  0
 12 13  1  0
 12 14  1  0
 14 15  2  0
 15 16  1  0
 15 17  1  0
 17 18  1  0
 17 19  2  0
 19 20  1  0
 19 21  1  0
 21 22  1  0
 21 23  2  0
  5 24  2  0
 24 25  1  0
 24 26  1  0
 26 27  1  0
 27 28  1  0
 28 29  2  0
 28 30  1  0
 30 31  1  0
 30 32  1  0
 30 33  1  0
 26 34  2  0
 34 35  1  0
 34  2  1  0
 23  7  1  0
 23 14  1  0
M  CHG  1  27  -1
M  END
>  <UniqueID>  (19) 
17

>  <SMILES>  (19) 
CC(=O)[N-]c1cccc(/N=c2\cc[nH]c3ccccc23)c1

>  <Energy>  (19) 
53.6801174453926

>  <Genealogy>  (19) 
CC(=O)[N-]c1cccc(N=c2cc[nH]c3ccccc23)c1 (protonated)
CC(=O)[N-]c1cccc(/N=c2\cc[nH]c3ccccc23)c1 (cis-trans isomerization)
CC(=O)[N-]c1cccc(/N=c2\cc[nH]c3ccccc23)c1 (3D coordinates assigned)
CC(=O)[N-]c1cccc(/N=c2\cc[nH]c3ccccc23)c1 (optimized conformer: 53.6801174453926 kcal/mol)

>  <smiles>  (19) 
CC(=O)Nc1cccc(N=c2cc[nH]c3ccccc23)c1

>  <score_type>  (19) 
oracle

>  <origin>  (19) 
adg

>  <m_score__min__energy>  (19) 
-10.699999999999999

>  <m_primary>  (19) 
energy

$$$$
19:0
     RDKit          3D

 47 49  0  0  1  0  0  0  0  0999 V2000
   -1.0540   20.0660  -34.5940 C   0  0  0  0  0  0  0  0  0  0  0  0
   -0.2400   21.1040  -33.9130 C   0  0  0  0  0  0  0  0  0  0  0  0
    0.3140   21.9700  -34.6210 O   0  0  0  0  0  0  0  0  0  0  0  0
   -0.0640   21.1640  -32.5430 O   0  0  0  0  0  0  0  0  0  0  0  0
   -1.0640   20.9110  -31.6030 C   0  0  0  0  0  0  0  0  0  0  0  0
   -2.1950   21.8890  -31.8280 C   0  0  1  0  0  0  0  0  0  0  0  0
   -3.2190   21.3600  -32.6060 O   0  0  0  0  0  0  0  0  0  0  0  0
   -4.2200   21.0740  -31.7010 C   0  0  2  0  0  0  0  0  0  0  0  0
   -5.3990   20.5320  -32.2360 N   0  0  0  0  0  0  0  0  0  0  0  0
   -5.5010   19.6080  -33.2230 C   0  0  0  0  0  0  0  0  0  0  0  0
   -6.8100   19.3400  -33.4590 N   0  0  0  0  0  0  0  0  0  0  0  0
   -7.5440   20.0770  -32.6390 C   0  0  0  0  0  0  0  0  0  0  0  0
   -8.8800   20.2670  -32.3840 C   0  0  0  0  0  0  0  0  0  0  0  0
   -9.7500   19.5990  -33.0660 N   0  0  0  0  0  0  0  0  0  0  0  0
   -9.3090   21.1270  -31.4440 N   0  0  0  0  0  0  0  0  0  0  0  0
   -8.4220   21.8380  -30.7170 C   0  0  0  0  0  0  0  0  0  0  0  0
   -7.1030   21.6830  -30.9350 N   0  0  0  0  0  0  0  0  0  0  0  0
   -6.6530   20.8250  -31.8730 C   0  0  0  0  0  0  0  0  0  0  0  0
   -4.2890   22.3090  -30.8970 C   0  0  2  0  0  0  0  0  0  0  0  0
   -4.4750   23.5210  -31.5230 O   0  0  0  0  0  0  0  0  0  0  0  0
   -4.9690   24.6370  -30.8740 C   0  0  0  0  0  0  0  0  0  0  0  0
   -6.3780   24.5850  -30.4080 C   0  0  0  0  0  0  0  0  0  0  0  0
   -4.2910   25.6780  -30.6620 O   0  0  0  0  0  0  0  0  0  0  0  0
   -2.7930   22.3650  -30.5190 C   0  0  2  0  0  0  0  0  0  0  0  0
   -2.4010   23.6690  -30.1970 O   0  0  0  0  0  0  0  0  0  0  0  0
   -2.3580   24.1770  -28.9160 C   0  0  0  0  0  0  0  0  0  0  0  0
   -2.7530   23.4080  -27.7060 C   0  0  0  0  0  0  0  0  0  0  0  0
   -1.9570   25.3760  -28.7460 O   0  0  0  0  0  0  0  0  0  0  0  0
   -1.5486   19.4353  -33.8407 H   0  0  0  0  0  0  0  0  0  0  0  0
   -1.8150   20.5510  -35.2230 H   0  0  0  0  0  0  0  0  0  0  0  0
   -0.4015   19.4426  -35.2230 H   0  0  0  0  0  0  0  0  0  0  0  0
   -1.4341   19.8821  -31.7233 H   0  0  0  0  0  0  0  0  0  0  0  0
   -0.6623   21.0281  -30.5857 H   0  0  0  0  0  0  0  0  0  0  0  0
   -1.7409   22.7348  -32.3651 H   0  0  0  0  0  0  0  0  0  0  0  0
   -4.0084   20.2095  -31.0546 H   0  0  0  0  0  0  0  0  0  0  0  0
   -4.6533   19.1468  -33.7510 H   0  0  0  0  0  0  0  0  0  0  0  0
   -9.5710   19.2250  -34.0070 H   0  0  0  0  0  0  0  0  0  0  0  0
  -10.3180   21.2920  -31.2280 H   0  0  0  0  0  0  0  0  0  0  0  0
   -8.7757   22.5417  -29.9490 H   0  0  0  0  0  0  0  0  0  0  0  0
   -5.1222   22.2338  -30.1827 H   0  0  0  0  0  0  0  0  0  0  0  0
   -6.4007   24.5842  -29.3082 H   0  0  0  0  0  0  0  0  0  0  0  0
   -6.9216   25.4637  -30.7853 H   0  0  0  0  0  0  0  0  0  0  0  0
   -6.8554   23.6686  -30.7853 H   0  0  0  0  0  0  0  0  0  0  0  0
   -2.4971   21.7800  -29.6357 H   0  0  0  0  0  0  0  0  0  0  0  0
   -2.4648   23.9690  -26.8048 H   0  0  0  0  0  0  0  0  0  0  0  0
   -3.8421   23.2535  -27.7091 H   0  0  0  0  0  0  0  0  0  0  0  0
   -2.2443   22.4327  -27.7091 H   0  0  0  0  0  0  0  0  0  0  0  0
  1  2  1  0
  2  3  2  0
  2  4  1  0
  4  5  1  0
  5  6  1  0
  6  7  1  0
  7  8  1  0
  8  9  1  0
  9 10  1  0
 10 11  2  0
 11 12  1  0
 12 13  1  0
 13 14  2  3
 13 15  1  0
 15 16  1  0
 16 17  2  0
 17 18  1  0
  8 19  1  0
 19 20  1  0
 20 21  1  0
 21 22  1  0
 21 23  2  0
 19 24  1  0
 24 25  1  0
 25 26  1  0
 26 27  1  0
 26 28  2  0
 24  6  1  0
 18  9  1  0
 18 12  2  0
  1 29  1  0
  1 30  1  0
  1 31  1  0
  5 32  1  0
  5 33  1  0
  6 34  1  6
  8 35  1  1
 10 36  1  0
 14 37  1  0
 15 38  1  0
 16 39  1  0
 19 40  1  1
 22 41  1  0
 22 42  1  0
 22 43  1  0
 24 44  1  1
 27 45  1  0
 27 46  1  0
 27 47  1  0
M  END
>  <smiles>  (20) 
CC(=O)OCC1OC(n2cnc3c(=N)[nH]cnc32)C(OC(C)=O)C1OC(C)=O

>  <score_type>  (20) 
oracle

>  <origin>  (20) 
adg

>  <m_score__min__energy>  (20) 
-8.3000000000000007

>  <m_primary>  (20) 
energy

$$$$
20:0
     RDKit          3D

 30 32  0  0  0  0  0  0  0  0999 V2000
   -4.5200   20.6430  -31.1930 C   0  0  0  0  0  0  0  0  0  0  0  0
   -5.7950   21.1780  -31.7720 C   0  0  0  0  0  0  0  0  0  0  0  0
   -6.0930   22.5400  -31.9620 C   0  0  0  0  0  0  0  0  0  0  0  0
   -5.3240   23.6730  -31.5220 C   0  0  0  0  0  0  0  0  0  0  0  0
   -4.7050   24.5850  -31.1690 N   0  0  0  0  0  0  0  0  0  0  0  0
   -7.4260   22.5290  -32.3110 C   0  0  0  0  0  0  0  0  0  0  0  0
   -8.3990   23.4220  -32.0420 N   0  0  0  0  0  0  0  0  0  0  0  0
   -9.4840   22.5960  -31.9550 C   0  0  0  0  0  0  0  0  0  0  0  0
   -9.1520   21.2870  -32.0840 N   0  0  0  0  0  0  0  0  0  0  0  0
   -7.8640   21.2940  -32.3500 N   0  0  0  0  0  0  0  0  0  0  0  0
   -6.9280   20.4440  -31.9660 N   0  0  0  0  0  0  0  0  0  0  0  0
   -7.1340   19.0150  -31.7170 C   0  0  0  0  0  0  0  0  0  0  0  0
   -6.4000   18.2040  -32.7490 C   0  0  0  0  0  0  0  0  0  0  0  0
   -6.1240   18.7560  -34.0120 C   0  0  0  0  0  0  0  0  0  0  0  0
   -5.4160   18.0180  -34.9640 C   0  0  0  0  0  0  0  0  0  0  0  0
   -4.9730   16.7270  -34.6610 C   0  0  0  0  0  0  0  0  0  0  0  0
   -5.2370   16.1750  -33.4060 C   0  0  0  0  0  0  0  0  0  0  0  0
   -5.9450   16.9090  -32.4510 C   0  0  0  0  0  0  0  0  0  0  0  0
   -4.5775   20.6671  -30.0948 H   0  0  0  0  0  0  0  0  0  0  0  0
   -4.3710   19.6065  -31.5297 H   0  0  0  0  0  0  0  0  0  0  0  0
   -3.6759   21.2628  -31.5297 H   0  0  0  0  0  0  0  0  0  0  0  0
  -10.5126   22.9529  -31.7978 H   0  0  0  0  0  0  0  0  0  0  0  0
   -9.7460   20.4520  -31.8870 H   0  0  0  0  0  0  0  0  0  0  0  0
   -6.7547   18.7609  -30.7162 H   0  0  0  0  0  0  0  0  0  0  0  0
   -8.2088   18.7886  -31.7762 H   0  0  0  0  0  0  0  0  0  0  0  0
   -6.4669   19.7733  -34.2519 H   0  0  0  0  0  0  0  0  0  0  0  0
   -5.2070   18.4530  -35.9525 H   0  0  0  0  0  0  0  0  0  0  0  0
   -4.4165   16.1462  -35.4113 H   0  0  0  0  0  0  0  0  0  0  0  0
   -4.8867   15.1597  -33.1685 H   0  0  0  0  0  0  0  0  0  0  0  0
   -6.1468   16.4712  -31.4623 H   0  0  0  0  0  0  0  0  0  0  0  0
  1  2  1  0
  2  3  2  0
  3  4  1  0
  4  5  3  0
  3  6  1  0
  6  7  2  0
  7  8  1  0
  8  9  2  0
  9 10  1  0
 10 11  1  0
 11 12  1  0
 12 13  1  0
 13 14  2  0
 14 15  1  0
 15 16  2  0
 16 17  1  0
 17 18  2  0
 11  2  1  0
 18 13  1  0
 10  6  1  0
  1 19  1  0
  1 20  1  0
  1 21  1  0
  8 22  1  0
  9 23  1  0
 12 24  1  0
 12 25  1  0
 14 26  1  0
 15 27  1  0
 16 28  1  0
 17 29  1  0
 18 30  1  0
M  CHG  1   9   1
M  END
>  <UniqueID>  (21) 
18

>  <SMILES>  (21) 
Cc1c(C#N)c2nc[nH+]n2n1Cc1ccccc1

>  <Energy>  (21) 
126.49733765923206

>  <Genealogy>  (21) 
Cc1c(C#N)c2nc[nH+]n2n1Cc1ccccc1 (protonated)
Cc1c(C#N)c2nc[nH+]n2n1Cc1ccccc1 (3D coordinates assigned)
Cc1c(C#N)c2nc[nH+]n2n1Cc1ccccc1 (optimized conformer: 126.49733765923206 kcal/mol)

>  <smiles>  (21) 
Cc1c(C#N)c2ncnn2n1Cc1ccccc1

>  <score_type>  (21) 
oracle

>  <origin>  (21) 
adg

>  <m_score__min__energy>  (21) 
-6.3499999999999996

>  <m_primary>  (21) 
energy

$$$$
21:0
     RDKit          3D

 29 30  0  0  0  0  0  0  0  0999 V2000
   -2.2597   23.5322  -27.8602 H   0  0  0  0  0  0  0  0  0  0  0  0
   -2.7380   24.3120  -28.4710 C   0  0  0  0  0  0  0  0  0  0  0  0
   -1.9990   25.2700  -28.9270 N   0  0  0  0  0  0  0  0  0  0  0  0
   -0.9280   25.9030  -28.1920 C   0  0  0  0  0  0  0  0  0  0  0  0
   -1.1104   25.7952  -27.1126 H   0  0  0  0  0  0  0  0  0  0  0  0
    0.0278   25.4246  -28.4519 H   0  0  0  0  0  0  0  0  0  0  0  0
   -0.8861   26.9710  -28.4519 H   0  0  0  0  0  0  0  0  0  0  0  0
   -4.2220   24.2050  -28.7310 C   0  0  0  0  0  0  0  0  0  0  0  0
   -4.5814   23.2381  -28.3490 H   0  0  0  0  0  0  0  0  0  0  0  0
   -4.7195   25.0423  -28.2197 H   0  0  0  0  0  0  0  0  0  0  0  0
   -4.5420   24.2980  -30.2020 C   0  0  0  0  0  0  0  0  0  0  0  0
   -4.1260   25.2920  -30.8580 O   0  0  0  0  0  0  0  0  0  0  0  0
   -5.2950   23.2290  -30.9060 C   0  0  0  0  0  0  0  0  0  0  0  0
   -4.6150   22.3480  -31.7650 C   0  0  0  0  0  0  0  0  0  0  0  0
   -3.5297   22.4567  -31.9073 H   0  0  0  0  0  0  0  0  0  0  0  0
   -5.3020   21.3360  -32.4400 C   0  0  0  0  0  0  0  0  0  0  0  0
   -4.7567   20.6585  -33.1136 H   0  0  0  0  0  0  0  0  0  0  0  0
   -6.6830   21.1810  -32.2620 C   0  0  0  0  0  0  0  0  0  0  0  0
   -7.3820   20.1670  -32.9350 C   0  0  0  0  0  0  0  0  0  0  0  0
   -6.8453   19.4874  -33.6133 H   0  0  0  0  0  0  0  0  0  0  0  0
   -8.7590   20.0190  -32.7450 C   0  0  0  0  0  0  0  0  0  0  0  0
   -9.3028   19.2221  -33.2735 H   0  0  0  0  0  0  0  0  0  0  0  0
   -9.4470   20.8800  -31.8860 C   0  0  0  0  0  0  0  0  0  0  0  0
  -10.5309   20.7600  -31.7416 H   0  0  0  0  0  0  0  0  0  0  0  0
   -8.7620   21.8930  -31.2100 C   0  0  0  0  0  0  0  0  0  0  0  0
   -9.3074   22.5668  -30.5328 H   0  0  0  0  0  0  0  0  0  0  0  0
   -7.3790   22.0530  -31.3930 C   0  0  0  0  0  0  0  0  0  0  0  0
   -6.6820   23.0680  -30.7200 C   0  0  0  0  0  0  0  0  0  0  0  0
   -7.2233   23.7437  -30.0414 H   0  0  0  0  0  0  0  0  0  0  0  0
  1  2  1  0
  2  3  2  0
  3  4  1  0
  4  5  1  0
  4  6  1  0
  4  7  1  0
  2  8  1  0
  8  9  1  0
  8 10  1  0
  8 11  1  0
 11 12  2  0
 11 13  1  0
 13 14  2  0
 14 15  1  0
 14 16  1  0
 16 17  1  0
 16 18  2  0
 18 19  1  0
 19 20  1  0
 19 21  2  0
 21 22  1  0
 21 23  1  0
 23 24  1  0
 23 25  2  0
 25 26  1  0
 25 27  1  0
 27 28  2  0
 28 29  1  0
 28 13  1  0
 27 18  1  0
M  END
>  <UniqueID>  (22) 
19

>  <SMILES>  (22) 
C/N=C\CC(=O)c1ccc2ccccc2c1

>  <Energy>  (22) 
32.86712252271367

>  <Genealogy>  (22) 
C/N=C\CC(=O)c1ccc2ccccc2c1 (cis-trans isomerization)
C/N=C\CC(=O)c1ccc2ccccc2c1 (3D coordinates assigned)
C/N=C\CC(=O)c1ccc2ccccc2c1 (optimized conformer: 32.86712252271367 kcal/mol)

>  <smiles>  (22) 
CN=CCC(=O)c1ccc2ccccc2c1

>  <score_type>  (22) 
oracle

>  <origin>  (22) 
adg

>  <m_score__min__energy>  (22) 
-7.5499999999999998

>  <m_primary>  (22) 
energy

$$$$
22:0
     RDKit          3D

 44 46  0  0  0  0  0  0  0  0999 V2000
  -10.3586   18.6875  -33.1454 H   0  0  0  0  0  0  0  0  0  0  0  0
   -9.5050   19.2410  -32.7270 C   0  0  0  0  0  0  0  0  0  0  0  0
   -8.3290   18.5650  -32.4060 C   0  0  0  0  0  0  0  0  0  0  0  0
   -8.2649   17.4779  -32.5615 H   0  0  0  0  0  0  0  0  0  0  0  0
   -7.2260   19.2600  -31.8860 C   0  0  0  0  0  0  0  0  0  0  0  0
   -5.9670   18.4950  -31.5680 C   0  0  0  0  0  0  0  0  0  0  0  0
   -5.8477   18.4225  -30.4769 H   0  0  0  0  0  0  0  0  0  0  0  0
   -6.0336   17.4845  -31.9975 H   0  0  0  0  0  0  0  0  0  0  0  0
   -5.1008   19.0196  -31.9975 H   0  0  0  0  0  0  0  0  0  0  0  0
   -7.3190   20.6570  -31.6650 C   0  0  0  0  0  0  0  0  0  0  0  0
   -6.1640   21.4000  -31.1160 C   0  0  0  0  0  0  0  0  0  0  0  0
   -6.3290   22.1570  -30.1220 O   0  0  0  0  0  0  0  0  0  0  0  0
   -4.8550   21.2130  -31.6750 N   0  0  0  0  0  0  0  0  0  0  0  0
   -4.7120   20.4160  -32.3350 H   0  0  0  0  0  0  0  0  0  0  0  0
   -3.6930   21.8240  -31.1000 C   0  0  0  0  0  0  0  0  0  0  0  0
   -2.4300   21.1650  -31.1100 C   0  0  0  0  0  0  0  0  0  0  0  0
   -2.2800   19.7810  -31.6800 C   0  0  0  0  0  0  0  0  0  0  0  0
   -2.2011   19.0530  -30.8592 H   0  0  0  0  0  0  0  0  0  0  0  0
   -3.1575   19.5422  -32.2988 H   0  0  0  0  0  0  0  0  0  0  0  0
   -1.3717   19.7358  -32.2988 H   0  0  0  0  0  0  0  0  0  0  0  0
   -1.3010   21.8120  -30.5670 C   0  0  0  0  0  0  0  0  0  0  0  0
   -0.3120   21.3310  -30.5907 H   0  0  0  0  0  0  0  0  0  0  0  0
   -1.4650   23.0710  -30.0010 C   0  0  0  0  0  0  0  0  0  0  0  0
   -0.3070   24.0520  -29.2790 S   0  0  0  0  0  0  0  0  0  0  0  0
   -1.4510   25.2500  -28.9430 C   0  0  0  0  0  0  0  0  0  0  0  0
   -1.1620   26.3640  -28.3430 N   0  0  0  0  0  0  0  0  0  0  0  0
   -0.8810   26.4570  -26.9140 C   0  0  0  0  0  0  0  0  0  0  0  0
   -0.8877   27.5137  -26.6084 H   0  0  0  0  0  0  0  0  0  0  0  0
    0.1066   26.0184  -26.7084 H   0  0  0  0  0  0  0  0  0  0  0  0
   -1.9410   25.6980  -26.1310 C   0  0  0  0  0  0  0  0  0  0  0  0
   -1.7624   25.8259  -25.0532 H   0  0  0  0  0  0  0  0  0  0  0  0
   -2.9365   26.0898  -26.3867 H   0  0  0  0  0  0  0  0  0  0  0  0
   -1.8908   24.6293  -26.3867 H   0  0  0  0  0  0  0  0  0  0  0  0
   -2.6980   24.9250  -29.3660 N   0  0  0  0  0  0  0  0  0  0  0  0
   -2.6960   23.7040  -29.9560 C   0  0  0  0  0  0  0  0  0  0  0  0
   -3.8230   23.0900  -30.4980 C   0  0  0  0  0  0  0  0  0  0  0  0
   -4.8027   23.5884  -30.4561 H   0  0  0  0  0  0  0  0  0  0  0  0
   -8.5240   21.3350  -31.9800 C   0  0  0  0  0  0  0  0  0  0  0  0
   -8.6870   22.8110  -31.7290 C   0  0  0  0  0  0  0  0  0  0  0  0
   -8.7077   22.9986  -30.6453 H   0  0  0  0  0  0  0  0  0  0  0  0
   -7.8435   23.3548  -32.1792 H   0  0  0  0  0  0  0  0  0  0  0  0
   -9.6289   23.1577  -32.1792 H   0  0  0  0  0  0  0  0  0  0  0  0
   -9.6030   20.6140  -32.5200 C   0  0  0  0  0  0  0  0  0  0  0  0
  -10.5333   21.1395  -32.7814 H   0  0  0  0  0  0  0  0  0  0  0  0
  1  2  1  0
  2  3  2  0
  3  4  1  0
  3  5  1  0
  5  6  1  0
  6  7  1  0
  6  8  1  0
  6  9  1  0
  5 10  2  0
 10 11  1  0
 11 12  2  0
 11 13  1  0
 13 14  1  0
 13 15  1  0
 15 16  2  0
 16 17  1  0
 17 18  1  0
 17 19  1  0
 17 20  1  0
 16 21  1  0
 21 22  1  0
 21 23  2  0
 23 24  1  0
 24 25  1  0
 25 26  2  0
 26 27  1  0
 27 28  1  0
 27 29  1  0
 27 30  1  0
 30 31  1  0
 30 32  1  0
 30 33  1  0
 25 34  1  0
 34 35  1  0
 35 36  2  0
 36 37  1  0
 10 38  1  0
 38 39  1  0
 39 40  1  0
 39 41  1  0
 39 42  1  0
 38 43  2  0
 43 44  1  0
 43  2  1  0
 36 15  1  0
 35 23  1  0
M  CHG  1  34  -1
M  END
>  <UniqueID>  (23) 
20

>  <SMILES>  (23) 
CC/N=c1\[n-]c2cc(NC(=O)c3c(C)cccc3C)c(C)cc2s1

>  <Energy>  (23) 
89.11533728100761

>  <Genealogy>  (23) 
CCN=c1[n-]c2cc(NC(=O)c3c(C)cccc3C)c(C)cc2s1 (protonated)
CC/N=c1\[n-]c2cc(NC(=O)c3c(C)cccc3C)c(C)cc2s1 (cis-trans isomerization)
CC/N=c1\[n-]c2cc(NC(=O)c3c(C)cccc3C)c(C)cc2s1 (3D coordinates assigned)
CC/N=c1\[n-]c2cc(NC(=O)c3c(C)cccc3C)c(C)cc2s1 (optimized conformer: 89.11533728100761 kcal/mol)

>  <smiles>  (23) 
CCN=c1[nH]c2cc(NC(=O)c3c(C)cccc3C)c(C)cc2s1

>  <score_type>  (23) 
oracle

>  <origin>  (23) 
adg

>  <m_score__min__energy>  (23) 
-8.8800000000000008

>  <m_primary>  (23) 
energy

$$$$
23:0
     RDKit          3D

 27 28  0  0  0  0  0  0  0  0999 V2000
   -2.0190   20.1840  -27.1270 C   0  0  0  0  0  0  0  0  0  0  0  0
   -2.5950   21.4530  -27.6570 C   0  0  0  0  0  0  0  0  0  0  0  0
   -1.9430   22.3770  -28.4420 C   0  0  0  0  0  0  0  0  0  0  0  0
   -2.9080   23.3380  -28.6750 C   0  0  0  0  0  0  0  0  0  0  0  0
   -2.7630   24.5540  -29.4970 C   0  0  0  0  0  0  0  0  0  0  0  0
   -1.7650   25.3000  -29.3140 O   0  0  0  0  0  0  0  0  0  0  0  0
   -3.7530   24.9470  -30.4560 N   0  0  0  0  0  0  0  0  0  0  0  0
   -4.8720   24.1550  -30.8880 C   0  0  0  0  0  0  0  0  0  0  0  0
   -4.6920   23.0660  -31.7610 C   0  0  0  0  0  0  0  0  0  0  0  0
   -5.7880   22.3140  -32.1870 C   0  0  0  0  0  0  0  0  0  0  0  0
   -7.0740   22.6470  -31.7620 C   0  0  0  0  0  0  0  0  0  0  0  0
   -7.2690   23.7410  -30.9140 C   0  0  0  0  0  0  0  0  0  0  0  0
   -6.1750   24.5080  -30.4800 C   0  0  0  0  0  0  0  0  0  0  0  0
   -6.3960   25.6790  -29.5630 C   0  0  0  0  0  0  0  0  0  0  0  0
   -4.0590   22.9770  -28.0750 N   0  0  0  0  0  0  0  0  0  0  0  0
   -3.8330   21.8450  -27.4730 O   0  0  0  0  0  0  0  0  0  0  0  0
   -2.0297   20.2076  -26.0273 H   0  0  0  0  0  0  0  0  0  0  0  0
   -2.6190   19.3329  -27.4813 H   0  0  0  0  0  0  0  0  0  0  0  0
   -0.9833   20.0753  -27.4813 H   0  0  0  0  0  0  0  0  0  0  0  0
   -0.9026   22.3554  -28.7985 H   0  0  0  0  0  0  0  0  0  0  0  0
   -3.6817   22.8059  -32.1097 H   0  0  0  0  0  0  0  0  0  0  0  0
   -5.6372   21.4567  -32.8595 H   0  0  0  0  0  0  0  0  0  0  0  0
   -7.9351   22.0485  -32.0942 H   0  0  0  0  0  0  0  0  0  0  0  0
   -8.2853   24.0029  -30.5845 H   0  0  0  0  0  0  0  0  0  0  0  0
   -6.3326   25.3431  -28.5175 H   0  0  0  0  0  0  0  0  0  0  0  0
   -5.6260   26.4419  -29.7503 H   0  0  0  0  0  0  0  0  0  0  0  0
   -7.3911   26.1087  -29.7503 H   0  0  0  0  0  0  0  0  0  0  0  0
  1  2  1  0
  2  3  2  0
  3  4  1  0
  4  5  1  0
  5  6  2  0
  5  7  1  0
  7  8  1  0
  8  9  2  0
  9 10  1  0
 10 11  2  0
 11 12  1  0
 12 13  2  0
 13 14  1  0
  4 15  2  0
 15 16  1  0
 16  2  1  0
 13  8  1  0
  1 17  1  0
  1 18  1  0
  1 19  1  0
  3 20  1  0
  9 21  1  0
 10 22  1  0
 11 23  1  0
 12 24  1  0
 14 25  1  0
 14 26  1  0
 14 27  1  0
M  CHG  1   7  -1
M  END
>  <UniqueID>  (24) 
21

>  <SMILES>  (24) 
Cc1cc(C(=O)[N-]c2ccccc2C)no1

>  <Energy>  (24) 
61.04276784624121

>  <Genealogy>  (24) 
Cc1cc(C(=O)[N-]c2ccccc2C)no1 (protonated)
Cc1cc(C(=O)[N-]c2ccccc2C)no1 (3D coordinates assigned)
Cc1cc(C(=O)[N-]c2ccccc2C)no1 (optimized conformer: 61.04276784624121 kcal/mol)

>  <smiles>  (24) 
Cc1cc(C(=O)Nc2ccccc2C)no1

>  <score_type>  (24) 
oracle

>  <origin>  (24) 
adg

>  <m_score__min__energy>  (24) 
-7.7300000000000004

>  <m_primary>  (24) 
energy

$$$$
24:0
     RDKit          3D

 29 31  0  0  0  0  0  0  0  0999 V2000
    0.7410   23.3070  -35.7000 N   0  0  0  0  0  0  0  0  0  0  0  0
    0.5080   22.2270  -35.3540 C   0  0  0  0  0  0  0  0  0  0  0  0
    0.2180   20.8830  -34.9230 C   0  0  0  0  0  0  0  0  0  0  0  0
    1.2680   19.9970  -34.6680 C   0  0  0  0  0  0  0  0  0  0  0  0
    0.9780   18.6980  -34.2510 C   0  0  0  0  0  0  0  0  0  0  0  0
   -0.3480   18.2990  -34.0920 C   0  0  0  0  0  0  0  0  0  0  0  0
   -1.3850   19.2100  -34.3550 C   0  0  0  0  0  0  0  0  0  0  0  0
   -2.7960   18.7930  -34.1880 C   0  0  0  0  0  0  0  0  0  0  0  0
   -3.7440   19.5710  -33.6180 N   0  0  0  0  0  0  0  0  0  0  0  0
   -4.9670   18.9710  -33.5760 C   0  0  0  0  0  0  0  0  0  0  0  0
   -6.1480   19.6640  -32.9950 C   0  0  0  0  0  0  0  0  0  0  0  0
   -7.3250   18.9390  -32.7360 C   0  0  0  0  0  0  0  0  0  0  0  0
   -8.4450   19.5720  -32.1930 C   0  0  0  0  0  0  0  0  0  0  0  0
   -8.4130   20.9380  -31.9010 C   0  0  0  0  0  0  0  0  0  0  0  0
   -9.8440   21.6980  -31.2180 Cl  0  0  0  0  0  0  0  0  0  0  0  0
   -7.2480   21.6770  -32.1610 C   0  0  0  0  0  0  0  0  0  0  0  0
   -7.1690   23.4000  -31.8180 Cl  0  0  0  0  0  0  0  0  0  0  0  0
   -6.1250   21.0420  -32.7050 C   0  0  0  0  0  0  0  0  0  0  0  0
   -4.9970   17.6870  -34.1290 C   0  0  0  0  0  0  0  0  0  0  0  0
   -3.4490   17.3200  -34.6680 S   0  0  0  0  0  0  0  0  0  0  0  0
   -1.0750   20.4790  -34.7630 N   0  0  0  0  0  0  0  0  0  0  0  0
    2.3117   20.3204  -34.7947 H   0  0  0  0  0  0  0  0  0  0  0  0
    1.7945   17.9895  -34.0479 H   0  0  0  0  0  0  0  0  0  0  0  0
   -0.5815   17.2759  -33.7622 H   0  0  0  0  0  0  0  0  0  0  0  0
   -7.3636   17.8634  -32.9633 H   0  0  0  0  0  0  0  0  0  0  0  0
   -9.3580   18.9917  -31.9939 H   0  0  0  0  0  0  0  0  0  0  0  0
   -5.2150   21.6256  -32.9081 H   0  0  0  0  0  0  0  0  0  0  0  0
   -5.8786   17.0328  -34.1987 H   0  0  0  0  0  0  0  0  0  0  0  0
   -1.8380   21.1640  -34.9610 H   0  0  0  0  0  0  0  0  0  0  0  0
  1  2  3  0
  2  3  1  0
  3  4  2  0
  4  5  1  0
  5  6  2  0
  6  7  1  0
  7  8  1  0
  8  9  2  0
  9 10  1  0
 10 11  1  0
 11 12  2  0
 12 13  1  0
 13 14  2  0
 14 15  1  0
 14 16  1  0
 16 17  1  0
 16 18  2  0
 10 19  2  0
 19 20  1  0
  7 21  2  0
 21  3  1  0
 20  8  1  0
 18 11  1  0
  4 22  1  0
  5 23  1  0
  6 24  1  0
 12 25  1  0
 13 26  1  0
 18 27  1  0
 19 28  1  0
 21 29  1  0
M  CHG  1  21   1
M  END
>  <UniqueID>  (25) 
22

>  <SMILES>  (25) 
N#Cc1cccc(-c2nc(-c3ccc(Cl)c(Cl)c3)cs2)[nH+]1

>  <Energy>  (25) 
64.91333634436185

>  <Genealogy>  (25) 
N#Cc1cccc(-c2nc(-c3ccc(Cl)c(Cl)c3)cs2)[nH+]1 (protonated)
N#Cc1cccc(-c2nc(-c3ccc(Cl)c(Cl)c3)cs2)[nH+]1 (3D coordinates assigned)
N#Cc1cccc(-c2nc(-c3ccc(Cl)c(Cl)c3)cs2)[nH+]1 (optimized conformer: 64.91333634436185 kcal/mol)

>  <smiles>  (25) 
N#Cc1cccc(-c2nc(-c3ccc(Cl)c(Cl)c3)cs2)n1

>  <score_type>  (25) 
oracle

>  <origin>  (25) 
adg

>  <m_score__min__energy>  (25) 
-7.2599999999999998

>  <m_primary>  (25) 
energy

$$$$
25:0
     RDKit          3D

 37 39  0  0  0  0  0  0  0  0999 V2000
   -9.7259   20.8263  -32.4975 H   0  0  0  0  0  0  0  0  0  0  0  0
   -8.8390   21.1960  -31.9620 C   0  0  0  0  0  0  0  0  0  0  0  0
   -8.5630   22.6490  -31.9650 C   0  0  0  0  0  0  0  0  0  0  0  0
   -9.4890   23.4260  -32.3210 O   0  0  0  0  0  0  0  0  0  0  0  0
   -7.2500   23.2260  -31.5880 C   0  0  0  0  0  0  0  0  0  0  0  0
   -6.0680   22.6790  -32.1120 C   0  0  0  0  0  0  0  0  0  0  0  0
   -6.1224   21.8337  -32.8138 H   0  0  0  0  0  0  0  0  0  0  0  0
   -4.8220   23.2000  -31.7490 C   0  0  0  0  0  0  0  0  0  0  0  0
   -3.9033   22.7699  -32.1744 H   0  0  0  0  0  0  0  0  0  0  0  0
   -4.7390   24.2730  -30.8410 C   0  0  0  0  0  0  0  0  0  0  0  0
   -3.5140   24.8310  -30.4460 O   0  0  0  0  0  0  0  0  0  0  0  0
   -2.7240   24.3500  -29.3640 C   0  0  0  0  0  0  0  0  0  0  0  0
   -3.1938   24.6361  -28.4114 H   0  0  0  0  0  0  0  0  0  0  0  0
   -2.6509   23.2540  -29.4222 H   0  0  0  0  0  0  0  0  0  0  0  0
   -1.7168   24.7883  -29.4222 H   0  0  0  0  0  0  0  0  0  0  0  0
   -5.9160   24.8040  -30.3050 C   0  0  0  0  0  0  0  0  0  0  0  0
   -5.8612   25.6389  -29.5909 H   0  0  0  0  0  0  0  0  0  0  0  0
   -7.1620   24.2840  -30.6680 C   0  0  0  0  0  0  0  0  0  0  0  0
   -8.0789   24.7058  -30.2306 H   0  0  0  0  0  0  0  0  0  0  0  0
   -8.0520   20.3110  -31.3330 C   0  0  0  0  0  0  0  0  0  0  0  0
   -8.0210   20.3355  -30.2337 H   0  0  0  0  0  0  0  0  0  0  0  0
   -7.2200   19.3000  -32.0330 C   0  0  0  0  0  0  0  0  0  0  0  0
   -6.8990   19.5180  -33.3840 C   0  0  0  0  0  0  0  0  0  0  0  0
   -7.2701   20.4204  -33.8918 H   0  0  0  0  0  0  0  0  0  0  0  0
   -6.1140   18.6020  -34.0900 C   0  0  0  0  0  0  0  0  0  0  0  0
   -5.8776   18.7817  -35.1491 H   0  0  0  0  0  0  0  0  0  0  0  0
   -5.6300   17.4590  -33.4510 C   0  0  0  0  0  0  0  0  0  0  0  0
   -4.8640   16.5640  -34.1260 N   0  0  0  0  0  0  0  0  0  0  0  0
   -4.3790   15.4520  -33.5160 C   0  0  0  0  0  0  0  0  0  0  0  0
   -3.7620   14.7362  -34.0790 H   0  0  0  0  0  0  0  0  0  0  0  0
   -4.6690   15.2230  -32.1680 C   0  0  0  0  0  0  0  0  0  0  0  0
   -4.2796   14.3262  -31.6639 H   0  0  0  0  0  0  0  0  0  0  0  0
   -5.4350   16.1140  -31.4820 N   0  0  0  0  0  0  0  0  0  0  0  0
   -5.6420   15.9260  -30.4740 H   0  0  0  0  0  0  0  0  0  0  0  0
   -5.9270   17.2310  -32.0910 C   0  0  0  0  0  0  0  0  0  0  0  0
   -6.7160   18.1520  -31.3860 C   0  0  0  0  0  0  0  0  0  0  0  0
   -6.9428   17.9783  -30.3237 H   0  0  0  0  0  0  0  0  0  0  0  0
  1  2  1  0
  2  3  1  0
  3  4  2  0
  3  5  1  0
  5  6  2  0
  6  7  1  0
  6  8  1  0
  8  9  1  0
  8 10  2  0
 10 11  1  0
 11 12  1  0
 12 13  1  0
 12 14  1  0
 12 15  1  0
 10 16  1  0
 16 17  1  0
 16 18  2  0
 18 19  1  0
  2 20  2  0
 20 21  1  0
 20 22  1  0
 22 23  2  0
 23 24  1  0
 23 25  1  0
 25 26  1  0
 25 27  2  0
 27 28  1  0
 28 29  2  0
 29 30  1  0
 29 31  1  0
 31 32  1  0
 31 33  2  0
 33 34  1  0
 33 35  1  0
 35 36  2  0
 36 37  1  0
 18  5  1  0
 36 22  1  0
 35 27  1  0
M  CHG  1  33   1
M  END
>  <UniqueID>  (26) 
23

>  <SMILES>  (26) 
COc1ccc(C(=O)/C=C/c2ccc3ncc[nH+]c3c2)cc1

>  <Energy>  (26) 
50.04450691641775

>  <Genealogy>  (26) 
COc1ccc(C(=O)C=Cc2ccc3ncc[nH+]c3c2)cc1 (protonated)
COc1ccc(C(=O)/C=C/c2ccc3ncc[nH+]c3c2)cc1 (cis-trans isomerization)
COc1ccc(C(=O)/C=C/c2ccc3ncc[nH+]c3c2)cc1 (3D coordinates assigned)
COc1ccc(C(=O)/C=C/c2ccc3ncc[nH+]c3c2)cc1 (optimized conformer: 50.04450691641775 kcal/mol)

>  <smiles>  (26) 
COc1ccc(C(=O)C=Cc2ccc3nccnc3c2)cc1

>  <score_type>  (26) 
oracle

>  <origin>  (26) 
adg

>  <m_score__min__energy>  (26) 
-8.5099999999999998

>  <m_primary>  (26) 
energy

$$$$
26:0
     RDKit          3D

 31 33  0  0  1  0  0  0  0  0999 V2000
   -3.0530   20.6010  -31.5960 C   0  0  0  0  0  0  0  0  0  0  0  0
   -4.0240   21.6840  -31.3050 C   0  0  0  0  0  0  0  0  0  0  0  0
   -5.3720   21.4790  -31.2160 C   0  0  0  0  0  0  0  0  0  0  0  0
   -6.2330   22.5030  -30.9450 C   0  0  0  0  0  0  0  0  0  0  0  0
   -7.5020   22.3500  -30.8540 N   0  0  0  0  0  0  0  0  0  0  0  0
   -8.2890   21.7960  -31.9340 C   0  0  0  0  0  0  0  0  0  0  0  0
   -8.0290   20.3800  -32.2160 C   0  0  0  0  0  0  0  0  0  0  0  0
   -8.5540   19.2700  -31.6720 C   0  0  0  0  0  0  0  0  0  0  0  0
   -8.1670   18.0640  -32.0900 C   0  0  0  0  0  0  0  0  0  0  0  0
   -7.2290   17.9880  -33.0780 C   0  0  0  0  0  0  0  0  0  0  0  0
   -6.5730   16.8740  -33.7800 C   0  0  0  0  0  0  0  0  0  0  0  0
   -6.8390   19.7810  -33.4760 S   0  0  0  0  0  0  0  0  0  0  0  0
   -5.7170   23.7380  -30.7670 N   0  0  0  0  0  0  0  0  0  0  0  0
   -6.2880   24.9280  -30.4920 C   0  0  0  0  0  0  0  0  0  0  0  0
   -5.3630   25.8910  -30.4030 N   0  0  0  0  0  0  0  0  0  0  0  0
   -4.1990   25.2980  -30.6220 N   0  0  0  0  0  0  0  0  0  0  0  0
   -4.3920   23.9750  -30.8470 C   0  0  0  0  0  0  0  0  0  0  0  0
   -3.5410   22.9450  -31.1180 N   0  0  0  0  0  0  0  0  0  0  0  0
   -2.6772   20.1818  -30.6510 H   0  0  0  0  0  0  0  0  0  0  0  0
   -3.5496   19.8095  -32.1764 H   0  0  0  0  0  0  0  0  0  0  0  0
   -2.2122   21.0086  -32.1764 H   0  0  0  0  0  0  0  0  0  0  0  0
   -5.7725   20.4656  -31.3662 H   0  0  0  0  0  0  0  0  0  0  0  0
   -9.3523   21.9043  -31.6741 H   0  0  0  0  0  0  0  0  0  0  0  0
   -8.0074   22.3510  -32.8410 H   0  0  0  0  0  0  0  0  0  0  0  0
   -9.3084   19.3561  -30.8761 H   0  0  0  0  0  0  0  0  0  0  0  0
   -8.5942   17.1516  -31.6484 H   0  0  0  0  0  0  0  0  0  0  0  0
   -6.1584   16.1699  -33.0436 H   0  0  0  0  0  0  0  0  0  0  0  0
   -7.3090   16.3538  -34.4107 H   0  0  0  0  0  0  0  0  0  0  0  0
   -5.7611   17.2653  -34.4107 H   0  0  0  0  0  0  0  0  0  0  0  0
   -7.3684   25.0860  -30.3588 H   0  0  0  0  0  0  0  0  0  0  0  0
   -2.5270   23.1600  -31.1740 H   0  0  0  0  0  0  0  0  0  0  0  0
  1  2  1  0
  2  3  2  0
  3  4  1  0
  4  5  2  0
  5  6  1  0
  6  7  1  0
  7  8  2  0
  8  9  1  0
  9 10  2  0
 10 11  1  0
 10 12  1  0
  4 13  1  0
 13 14  1  0
 14 15  2  0
 15 16  1  0
 16 17  2  0
 17 18  1  0
 18  2  1  0
 12  7  1  0
 17 13  1  0
  1 19  1  0
  1 20  1  0
  1 21  1  0
  3 22  1  0
  6 23  1  0
  6 24  1  0
  8 25  1  0
  9 26  1  0
 11 27  1  0
 11 28  1  0
 11 29  1  0
 14 30  1  0
 18 31  1  0
M  END
>  <smiles>  (27) 
Cc1cc(=NCc2ccc(C)s2)n2cnnc2[nH]1

>  <score_type>  (27) 
oracle

>  <origin>  (27) 
adg

>  <m_score__min__energy>  (27) 
-7.0199999999999996

>  <m_primary>  (27) 
energy

$$$$
27:0
     RDKit          3D

 29 31  0  0  0  0  0  0  0  0999 V2000
   -4.1115   26.0729  -29.9953 H   0  0  0  0  0  0  0  0  0  0  0  0
   -4.8320   25.2980  -30.2960 C   0  0  0  0  0  0  0  0  0  0  0  0
   -4.4760   24.3580  -31.2100 N   0  0  0  0  0  0  0  0  0  0  0  0
   -5.3310   23.3760  -31.6030 C   0  0  0  0  0  0  0  0  0  0  0  0
   -4.9250   22.4960  -32.5520 F   0  0  0  0  0  0  0  0  0  0  0  0
   -6.6300   23.3130  -31.0640 C   0  0  0  0  0  0  0  0  0  0  0  0
   -7.5830   22.2530  -31.4700 C   0  0  0  0  0  0  0  0  0  0  0  0
   -8.9550   22.4740  -31.6100 C   0  0  0  0  0  0  0  0  0  0  0  0
   -9.4728   23.4315  -31.4519 H   0  0  0  0  0  0  0  0  0  0  0  0
   -9.6800   21.0240  -32.0620 S   0  0  0  0  0  0  0  0  0  0  0  0
   -8.2240   20.1720  -32.0670 C   0  0  0  0  0  0  0  0  0  0  0  0
   -8.0750   18.9000  -32.2950 N   0  0  0  0  0  0  0  0  0  0  0  0
   -7.0130   18.2820  -33.0380 C   0  0  0  0  0  0  0  0  0  0  0  0
   -6.1730   19.0890  -33.8170 C   0  0  0  0  0  0  0  0  0  0  0  0
   -6.3161   20.1796  -33.8251 H   0  0  0  0  0  0  0  0  0  0  0  0
   -5.1540   18.5160  -34.5840 C   0  0  0  0  0  0  0  0  0  0  0  0
   -4.4870   19.1575  -35.1786 H   0  0  0  0  0  0  0  0  0  0  0  0
   -4.9820   17.1290  -34.5960 C   0  0  0  0  0  0  0  0  0  0  0  0
   -4.1742   16.6796  -35.1922 H   0  0  0  0  0  0  0  0  0  0  0  0
   -5.8370   16.3140  -33.8500 C   0  0  0  0  0  0  0  0  0  0  0  0
   -5.7078   15.2217  -33.8674 H   0  0  0  0  0  0  0  0  0  0  0  0
   -6.8570   16.8840  -33.0810 C   0  0  0  0  0  0  0  0  0  0  0  0
   -7.5388   16.2380  -32.5085 H   0  0  0  0  0  0  0  0  0  0  0  0
   -7.1930   20.9680  -31.7160 N   0  0  0  0  0  0  0  0  0  0  0  0
   -6.2130   20.6220  -31.6130 H   0  0  0  0  0  0  0  0  0  0  0  0
   -7.0110   24.2880  -30.1260 C   0  0  0  0  0  0  0  0  0  0  0  0
   -8.0230   24.2683  -29.6954 H   0  0  0  0  0  0  0  0  0  0  0  0
   -6.1100   25.2810  -29.7390 C   0  0  0  0  0  0  0  0  0  0  0  0
   -6.4051   26.0425  -29.0021 H   0  0  0  0  0  0  0  0  0  0  0  0
  1  2  1  0
  2  3  2  0
  3  4  1  0
  4  5  1  0
  4  6  2  0
  6  7  1  0
  7  8  2  0
  8  9  1  0
  8 10  1  0
 10 11  1  0
 11 12  2  0
 12 13  1  0
 13 14  2  0
 14 15  1  0
 14 16  1  0
 16 17  1  0
 16 18  2  0
 18 19  1  0
 18 20  1  0
 20 21  1  0
 20 22  2  0
 22 23  1  0
 11 24  1  0
 24 25  1  0
  6 26  1  0
 26 27  1  0
 26 28  2  0
 28 29  1  0
 28  2  1  0
 24  7  1  0
 22 13  1  0
M  END
>  <UniqueID>  (28) 
24

>  <SMILES>  (28) 
Fc1ncccc1-c1cs/c(=N\c2ccccc2)[nH]1

>  <Energy>  (28) 
74.30423528338297

>  <Genealogy>  (28) 
Fc1ncccc1-c1cs/c(=N\c2ccccc2)[nH]1 (cis-trans isomerization)
Fc1ncccc1-c1cs/c(=N\c2ccccc2)[nH]1 (3D coordinates assigned)
Fc1ncccc1-c1cs/c(=N\c2ccccc2)[nH]1 (optimized conformer: 74.30423528338297 kcal/mol)

>  <smiles>  (28) 
Fc1ncccc1-c1csc(=Nc2ccccc2)[nH]1

>  <score_type>  (28) 
oracle

>  <origin>  (28) 
adg

>  <m_score__min__energy>  (28) 
-7.5999999999999996

>  <m_primary>  (28) 
energy

$$$$
28:0
     RDKit          3D

 35 37  0  0  0  0  0  0  0  0999 V2000
   -7.8205   19.7348  -32.5352 H   0  0  0  0  0  0  0  0  0  0  0  0
   -7.3970   20.7140  -32.2670 C   0  0  0  0  0  0  0  0  0  0  0  0
   -6.0760   21.0180  -32.6020 C   0  0  0  0  0  0  0  0  0  0  0  0
   -5.4614   20.2793  -33.1374 H   0  0  0  0  0  0  0  0  0  0  0  0
   -5.5330   22.2600  -32.2580 C   0  0  0  0  0  0  0  0  0  0  0  0
   -4.4948   22.4994  -32.5314 H   0  0  0  0  0  0  0  0  0  0  0  0
   -6.3100   23.2030  -31.5640 C   0  0  0  0  0  0  0  0  0  0  0  0
   -5.7440   24.5550  -31.2330 C   0  0  0  0  0  0  0  0  0  0  0  0
   -6.5311   25.1814  -30.7879 H   0  0  0  0  0  0  0  0  0  0  0  0
   -5.3704   25.0275  -32.1534 H   0  0  0  0  0  0  0  0  0  0  0  0
   -4.6440   24.4120  -30.2840 N   0  0  0  0  0  0  0  0  0  0  0  0
   -3.5600   25.1700  -30.2930 N   0  0  0  0  0  0  0  0  0  0  0  0
   -2.8090   24.7990  -29.2400 C   0  0  0  0  0  0  0  0  0  0  0  0
   -1.6660   25.3650  -28.9740 N   0  0  0  0  0  0  0  0  0  0  0  0
   -0.6460   24.9360  -28.0540 C   0  0  0  0  0  0  0  0  0  0  0  0
    0.3180   24.2240  -28.4430 O   0  0  0  0  0  0  0  0  0  0  0  0
   -0.7250   25.3440  -26.6310 C   0  0  0  0  0  0  0  0  0  0  0  0
   -1.5480   26.4100  -26.2300 C   0  0  0  0  0  0  0  0  0  0  0  0
   -2.1440   26.9543  -26.9773 H   0  0  0  0  0  0  0  0  0  0  0  0
   -1.6110   26.7800  -24.8850 C   0  0  0  0  0  0  0  0  0  0  0  0
   -2.2559   27.6131  -24.5686 H   0  0  0  0  0  0  0  0  0  0  0  0
   -0.8500   26.0850  -23.9470 C   0  0  0  0  0  0  0  0  0  0  0  0
   -0.8921   26.3704  -22.8855 H   0  0  0  0  0  0  0  0  0  0  0  0
   -0.0550   25.0540  -24.3420 N   0  0  0  0  0  0  0  0  0  0  0  0
    0.5080   24.5420  -23.6260 H   0  0  0  0  0  0  0  0  0  0  0  0
    0.0230   24.6730  -25.6460 C   0  0  0  0  0  0  0  0  0  0  0  0
    0.6753   23.8347  -25.9321 H   0  0  0  0  0  0  0  0  0  0  0  0
   -3.4410   23.7810  -28.5350 C   0  0  0  0  0  0  0  0  0  0  0  0
   -3.0887   23.2631  -27.6307 H   0  0  0  0  0  0  0  0  0  0  0  0
   -4.6130   23.5710  -29.2330 C   0  0  0  0  0  0  0  0  0  0  0  0
   -5.3918   22.8387  -28.9739 H   0  0  0  0  0  0  0  0  0  0  0  0
   -7.6430   22.8960  -31.2450 C   0  0  0  0  0  0  0  0  0  0  0  0
   -8.2654   23.6363  -30.7209 H   0  0  0  0  0  0  0  0  0  0  0  0
   -8.1820   21.6530  -31.5910 C   0  0  0  0  0  0  0  0  0  0  0  0
   -9.2238   21.4139  -31.3313 H   0  0  0  0  0  0  0  0  0  0  0  0
  1  2  1  0
  2  3  2  0
  3  4  1  0
  3  5  1  0
  5  6  1  0
  5  7  2  0
  7  8  1  0
  8  9  1  0
  8 10  1  0
  8 11  1  0
 11 12  1  0
 12 13  1  0
 13 14  2  0
 14 15  1  0
 15 16  2  0
 15 17  1  0
 17 18  2  0
 18 19  1  0
 18 20  1  0
 20 21  1  0
 20 22  2  0
 22 23  1  0
 22 24  1  0
 24 25  1  0
 24 26  2  0
 26 27  1  0
 13 28  1  0
 28 29  1  0
 28 30  2  0
 30 31  1  0
  7 32  1  0
 32 33  1  0
 32 34  2  0
 34 35  1  0
 34  2  1  0
 30 11  1  0
 26 17  1  0
M  CHG  2  12  -1  24   1
M  END
>  <UniqueID>  (29) 
25

>  <SMILES>  (29) 
O=C(/N=c1\ccn(Cc2ccccc2)[n-]1)c1ccc[nH+]c1

>  <Energy>  (29) 
71.30866672951062

>  <Genealogy>  (29) 
O=C(N=c1ccn(Cc2ccccc2)[n-]1)c1ccc[nH+]c1 (protonated)
O=C(/N=c1\ccn(Cc2ccccc2)[n-]1)c1ccc[nH+]c1 (cis-trans isomerization)
O=C(/N=c1\ccn(Cc2ccccc2)[n-]1)c1ccc[nH+]c1 (3D coordinates assigned)
O=C(/N=c1\ccn(Cc2ccccc2)[n-]1)c1ccc[nH+]c1 (optimized conformer: 71.30866672951062 kcal/mol)

>  <smiles>  (29) 
O=C(N=c1ccn(Cc2ccccc2)[nH]1)c1cccnc1

>  <score_type>  (29) 
oracle

>  <origin>  (29) 
adg

>  <m_score__min__energy>  (29) 
-10

>  <m_primary>  (29) 
energy

$$$$
29:0
     RDKit          3D

 28 30  0  0  0  0  0  0  0  0999 V2000
   -9.4790   21.5540  -30.6140 S   0  0  0  0  0  0  0  0  0  0  0  0
   -8.4920   20.6190  -31.5260 C   0  0  0  0  0  0  0  0  0  0  0  0
   -8.5440   19.2980  -31.5130 O   0  0  0  0  0  0  0  0  0  0  0  0
   -7.6270   18.8920  -32.3560 C   0  0  0  0  0  0  0  0  0  0  0  0
   -7.2850   17.5890  -32.7060 C   0  0  0  0  0  0  0  0  0  0  0  0
   -6.2550   17.4160  -33.6490 C   0  0  0  0  0  0  0  0  0  0  0  0
   -5.6010   18.5370  -34.2100 C   0  0  0  0  0  0  0  0  0  0  0  0
   -5.9710   19.8420  -33.8340 C   0  0  0  0  0  0  0  0  0  0  0  0
   -6.9980   19.9790  -32.8970 C   0  0  0  0  0  0  0  0  0  0  0  0
   -7.5370   21.0980  -32.3700 N   0  0  0  0  0  0  0  0  0  0  0  0
   -7.2300   22.4940  -32.6970 C   0  0  0  0  0  0  0  0  0  0  0  0
   -6.3630   23.1030  -31.6280 C   0  0  0  0  0  0  0  0  0  0  0  0
   -6.8510   24.1440  -30.8210 C   0  0  0  0  0  0  0  0  0  0  0  0
   -6.0330   24.7260  -29.8470 C   0  0  0  0  0  0  0  0  0  0  0  0
   -4.7220   24.2760  -29.6750 C   0  0  0  0  0  0  0  0  0  0  0  0
   -4.2270   23.2430  -30.4760 C   0  0  0  0  0  0  0  0  0  0  0  0
   -5.0420   22.6590  -31.4500 C   0  0  0  0  0  0  0  0  0  0  0  0
   -7.8014   16.7255  -32.2614 H   0  0  0  0  0  0  0  0  0  0  0  0
   -5.9565   16.4015  -33.9518 H   0  0  0  0  0  0  0  0  0  0  0  0
   -4.7970   18.3882  -34.9458 H   0  0  0  0  0  0  0  0  0  0  0  0
   -5.4695   20.7223  -34.2626 H   0  0  0  0  0  0  0  0  0  0  0  0
   -6.6997   22.5329  -33.6600 H   0  0  0  0  0  0  0  0  0  0  0  0
   -8.1702   23.0613  -32.7611 H   0  0  0  0  0  0  0  0  0  0  0  0
   -7.8819   24.5034  -30.9557 H   0  0  0  0  0  0  0  0  0  0  0  0
   -6.4224   25.5386  -29.2161 H   0  0  0  0  0  0  0  0  0  0  0  0
   -4.0791   24.7345  -28.9092 H   0  0  0  0  0  0  0  0  0  0  0  0
   -3.1945   22.8891  -30.3397 H   0  0  0  0  0  0  0  0  0  0  0  0
   -4.6473   21.8482  -32.0799 H   0  0  0  0  0  0  0  0  0  0  0  0
  1  2  2  0
  2  3  1  0
  3  4  1  0
  4  5  2  0
  5  6  1  0
  6  7  2  0
  7  8  1  0
  8  9  2  0
  9 10  1  0
 10 11  1  0
 11 12  1  0
 12 13  2  0
 13 14  1  0
 14 15  2  0
 15 16  1  0
 16 17  2  0
 10  2  1  0
 17 12  1  0
  9  4  1  0
  5 18  1  0
  6 19  1  0
  7 20  1  0
  8 21  1  0
 11 22  1  0
 11 23  1  0
 13 24  1  0
 14 25  1  0
 15 26  1  0
 16 27  1  0
 17 28  1  0
M  END
>  <UniqueID>  (30) 
26

>  <SMILES>  (30) 
S=c1oc2ccccc2n1Cc1ccccc1

>  <Energy>  (30) 
70.73398920264833

>  <Genealogy>  (30) 
S=c1oc2ccccc2n1Cc1ccccc1 (3D coordinates assigned)
S=c1oc2ccccc2n1Cc1ccccc1 (optimized conformer: 70.73398920264833 kcal/mol)

>  <smiles>  (30) 
S=c1oc2ccccc2n1Cc1ccccc1

>  <score_type>  (30) 
oracle

>  <origin>  (30) 
adg

>  <m_score__min__energy>  (30) 
-6.8899999999999997

>  <m_primary>  (30) 
energy

$$$$
30:0
     RDKit          3D

 31 32  0  0  0  0  0  0  0  0999 V2000
   -2.4300   21.2550  -32.7440 C   0  0  0  0  0  0  0  0  0  0  0  0
   -2.9060   21.4760  -31.3110 C   0  0  0  0  0  0  0  0  0  0  0  0
   -3.6360   22.7990  -31.1770 C   0  0  0  0  0  0  0  0  0  0  0  0
   -4.8660   23.0490  -31.8350 C   0  0  0  0  0  0  0  0  0  0  0  0
   -5.4650   22.0780  -32.7130 N   0  0  0  0  0  0  0  0  0  0  0  0
   -6.6960   21.3990  -32.4020 C   0  0  0  0  0  0  0  0  0  0  0  0
   -7.6450   22.0130  -31.5630 C   0  0  0  0  0  0  0  0  0  0  0  0
   -8.8260   21.3500  -31.2230 C   0  0  0  0  0  0  0  0  0  0  0  0
   -9.0690   20.0640  -31.7040 C   0  0  0  0  0  0  0  0  0  0  0  0
   -8.1330   19.4350  -32.5260 C   0  0  0  0  0  0  0  0  0  0  0  0
   -6.9440   20.0930  -32.8880 C   0  0  0  0  0  0  0  0  0  0  0  0
   -5.9520   19.3910  -33.7750 C   0  0  0  0  0  0  0  0  0  0  0  0
   -5.4910   24.2430  -31.6450 N   0  0  0  0  0  0  0  0  0  0  0  0
   -4.9780   25.1950  -30.8300 C   0  0  0  0  0  0  0  0  0  0  0  0
   -3.8160   24.9710  -30.1730 N   0  0  0  0  0  0  0  0  0  0  0  0
   -3.1400   23.8040  -30.3200 C   0  0  0  0  0  0  0  0  0  0  0  0
   -2.0690   23.6350  -29.6770 O   0  0  0  0  0  0  0  0  0  0  0  0
   -1.4324   20.7918  -32.7317 H   0  0  0  0  0  0  0  0  0  0  0  0
   -3.1355   20.5923  -33.2666 H   0  0  0  0  0  0  0  0  0  0  0  0
   -2.3791   22.2216  -33.2666 H   0  0  0  0  0  0  0  0  0  0  0  0
   -3.5869   20.6596  -31.0285 H   0  0  0  0  0  0  0  0  0  0  0  0
   -2.0275   21.4926  -30.6492 H   0  0  0  0  0  0  0  0  0  0  0  0
   -5.0310   21.8920  -33.6420 H   0  0  0  0  0  0  0  0  0  0  0  0
   -7.4547   23.0234  -31.1720 H   0  0  0  0  0  0  0  0  0  0  0  0
   -9.5656   21.8429  -30.5749 H   0  0  0  0  0  0  0  0  0  0  0  0
  -10.0004   19.5442  -31.4350 H   0  0  0  0  0  0  0  0  0  0  0  0
   -8.3267   18.4165  -32.8937 H   0  0  0  0  0  0  0  0  0  0  0  0
   -5.2112   18.8667  -33.1535 H   0  0  0  0  0  0  0  0  0  0  0  0
   -6.4786   18.6634  -34.4100 H   0  0  0  0  0  0  0  0  0  0  0  0
   -5.4410   20.1297  -34.4100 H   0  0  0  0  0  0  0  0  0  0  0  0
   -5.5062   26.1513  -30.7018 H   0  0  0  0  0  0  0  0  0  0  0  0
  1  2  1  0
  2  3  1  0
  3  4  2  0
  4  5  1  0
  5  6  1  0
  6  7  2  0
  7  8  1  0
  8  9  2  0
  9 10  1  0
 10 11  2  0
 11 12  1  0
  4 13  1  0
 13 14  1  0
 14 15  2  0
 15 16  1  0
 16 17  2  0
 16  3  1  0
 11  6  1  0
  1 18  1  0
  1 19  1  0
  1 20  1  0
  2 21  1  0
  2 22  1  0
  5 23  1  0
  7 24  1  0
  8 25  1  0
  9 26  1  0
 10 27  1  0
 12 28  1  0
 12 29  1  0
 12 30  1  0
 14 31  1  0
M  CHG  1  13  -1
M  END
>  <UniqueID>  (31) 
27

>  <SMILES>  (31) 
CCc1c(Nc2ccccc2C)[n-]cnc1=O

>  <Energy>  (31) 
37.177756899500146

>  <Genealogy>  (31) 
CCc1c(Nc2ccccc2C)[n-]cnc1=O (protonated)
CCc1c(Nc2ccccc2C)[n-]cnc1=O (3D coordinates assigned)
CCc1c(Nc2ccccc2C)[n-]cnc1=O (optimized conformer: 37.177756899500146 kcal/mol)

>  <smiles>  (31) 
CCc1c(Nc2ccccc2C)[nH]cnc1=O

>  <score_type>  (31) 
oracle

>  <origin>  (31) 
adg

>  <m_score__min__energy>  (31) 
-7.8300000000000001

>  <m_primary>  (31) 
energy

$$$$
31:0
     RDKit          3D

 36 38  0  0  1  0  0  0  0  0999 V2000
   -2.1990   24.8930  -28.0210 C   0  0  0  0  0  0  0  0  0  0  0  0
   -2.6180   25.2070  -29.3410 O   0  0  0  0  0  0  0  0  0  0  0  0
   -3.1290   24.1860  -30.1210 C   0  0  0  0  0  0  0  0  0  0  0  0
   -2.4140   23.0080  -30.2940 C   0  0  0  0  0  0  0  0  0  0  0  0
   -2.8980   21.9630  -31.0700 C   0  0  0  0  0  0  0  0  0  0  0  0
   -2.2370   20.8300  -31.2510 N   0  0  0  0  0  0  0  0  0  0  0  0
   -2.6880   19.8060  -31.9990 C   0  0  0  0  0  0  0  0  0  0  0  0
   -3.8980   19.9410  -32.6070 N   0  0  0  0  0  0  0  0  0  0  0  0
   -4.6070   21.0880  -32.4450 C   0  0  0  0  0  0  0  0  0  0  0  0
   -5.7610   21.2300  -33.0190 N   0  0  0  0  0  0  0  0  0  0  0  0
   -6.8050   20.3180  -32.6470 C   0  0  0  0  0  0  0  0  0  0  0  0
   -6.6280   18.9880  -32.9380 C   0  0  0  0  0  0  0  0  0  0  0  0
   -7.6440   18.1130  -32.5730 C   0  0  0  0  0  0  0  0  0  0  0  0
   -8.7760   18.6050  -31.9410 C   0  0  0  0  0  0  0  0  0  0  0  0
   -8.9440   19.9370  -31.6520 C   0  0  0  0  0  0  0  0  0  0  0  0
   -7.9270   20.8180  -32.0170 C   0  0  0  0  0  0  0  0  0  0  0  0
   -8.1550   22.6650  -31.6200 Br  0  0  0  0  0  0  0  0  0  0  0  0
   -4.1280   22.1240  -31.6770 C   0  0  0  0  0  0  0  0  0  0  0  0
   -4.8320   23.3070  -31.4960 C   0  0  0  0  0  0  0  0  0  0  0  0
   -4.3690   24.3450  -30.7330 C   0  0  0  0  0  0  0  0  0  0  0  0
   -5.0340   25.5340  -30.5280 O   0  0  0  0  0  0  0  0  0  0  0  0
   -6.1760   25.6620  -29.7350 C   0  0  0  0  0  0  0  0  0  0  0  0
   -2.8622   25.3900  -27.2978 H   0  0  0  0  0  0  0  0  0  0  0  0
   -2.2437   23.8041  -27.8714 H   0  0  0  0  0  0  0  0  0  0  0  0
   -1.1665   25.2416  -27.8714 H   0  0  0  0  0  0  0  0  0  0  0  0
   -1.4361   22.8996  -29.8021 H   0  0  0  0  0  0  0  0  0  0  0  0
   -1.3130   20.7090  -30.7950 H   0  0  0  0  0  0  0  0  0  0  0  0
   -2.0956   18.8865  -32.1155 H   0  0  0  0  0  0  0  0  0  0  0  0
   -5.7176   18.6291  -33.4404 H   0  0  0  0  0  0  0  0  0  0  0  0
   -7.5509   17.0374  -32.7840 H   0  0  0  0  0  0  0  0  0  0  0  0
   -9.5718   17.8996  -31.6597 H   0  0  0  0  0  0  0  0  0  0  0  0
   -9.8529   20.2976  -31.1481 H   0  0  0  0  0  0  0  0  0  0  0  0
   -5.8090   23.4154  -31.9896 H   0  0  0  0  0  0  0  0  0  0  0  0
   -5.8905   25.6300  -28.6732 H   0  0  0  0  0  0  0  0  0  0  0  0
   -6.6686   26.6210  -29.9535 H   0  0  0  0  0  0  0  0  0  0  0  0
   -6.8686   24.8359  -29.9535 H   0  0  0  0  0  0  0  0  0  0  0  0
  1  2  1  0
  2  3  1  0
  3  4  2  0
  4  5  1  0
  5  6  1  0
  6  7  1  0
  7  8  2  0
  8  9  1  0
  9 10  2  0
 10 11  1  0
 11 12  2  0
 12 13  1  0
 13 14  2  0
 14 15  1  0
 15 16  2  0
 16 17  1  0
  9 18  1  0
 18 19  1  0
 19 20  2  0
 20 21  1  0
 21 22  1  0
 20  3  1  0
 18  5  2  0
 16 11  1  0
  1 23  1  0
  1 24  1  0
  1 25  1  0
  4 26  1  0
  6 27  1  0
  7 28  1  0
 12 29  1  0
 13 30  1  0
 14 31  1  0
 15 32  1  0
 19 33  1  0
 22 34  1  0
 22 35  1  0
 22 36  1  0
M  END
>  <smiles>  (32) 
COc1cc2[nH]cnc(=Nc3ccccc3Br)c2cc1OC

>  <score_type>  (32) 
oracle

>  <origin>  (32) 
adg

>  <m_score__min__energy>  (32) 
-8.3399999999999999

>  <m_primary>  (32) 
energy

$$$$
32:0
     RDKit          3D

 32 33  0  0  0  0  0  0  0  0999 V2000
   -2.7800   25.1930  -29.3170 N   0  0  0  0  0  0  0  0  0  0  0  0
   -1.4460   24.5130  -28.4550 S   0  0  0  0  0  0  0  0  0  0  0  0
   -1.2620   25.2390  -27.1530 O   0  0  0  0  0  0  0  0  0  0  0  0
   -0.2010   24.6880  -29.2770 O   0  0  0  0  0  0  0  0  0  0  0  0
   -1.7460   22.7910  -28.1550 C   0  0  0  0  0  0  0  0  0  0  0  0
   -1.4170   22.2630  -26.8940 C   0  0  0  0  0  0  0  0  0  0  0  0
   -1.6260   20.9130  -26.6100 C   0  0  0  0  0  0  0  0  0  0  0  0
   -2.1610   20.0690  -27.5800 C   0  0  0  0  0  0  0  0  0  0  0  0
   -2.4870   20.5710  -28.8400 C   0  0  0  0  0  0  0  0  0  0  0  0
   -2.2810   21.9290  -29.1480 C   0  0  0  0  0  0  0  0  0  0  0  0
   -2.7120   22.4210  -30.5090 C   0  0  0  0  0  0  0  0  0  0  0  0
   -4.3530   23.1130  -30.4180 S   0  0  0  0  0  0  0  0  0  0  0  0
   -4.4300   24.6210  -31.1540 O   0  0  0  0  0  0  0  0  0  0  0  0
   -5.5630   22.0290  -31.0770 C   0  0  0  0  0  0  0  0  0  0  0  0
   -5.1770   20.8360  -31.6970 C   0  0  0  0  0  0  0  0  0  0  0  0
   -6.1450   19.9570  -32.1870 C   0  0  0  0  0  0  0  0  0  0  0  0
   -7.5060   20.2630  -32.0580 C   0  0  0  0  0  0  0  0  0  0  0  0
   -8.6970   19.1290  -32.6820 Cl  0  0  0  0  0  0  0  0  0  0  0  0
   -7.8950   21.4620  -31.4340 C   0  0  0  0  0  0  0  0  0  0  0  0
   -9.5920   21.8810  -31.2440 Cl  0  0  0  0  0  0  0  0  0  0  0  0
   -6.9210   22.3410  -30.9460 C   0  0  0  0  0  0  0  0  0  0  0  0
   -2.4810   25.2890  -30.3140 H   0  0  0  0  0  0  0  0  0  0  0  0
   -0.9902   22.9214  -26.1230 H   0  0  0  0  0  0  0  0  0  0  0  0
   -1.3676   20.5145  -25.6178 H   0  0  0  0  0  0  0  0  0  0  0  0
   -2.3266   19.0056  -27.3524 H   0  0  0  0  0  0  0  0  0  0  0  0
   -2.9096   19.8985  -29.6010 H   0  0  0  0  0  0  0  0  0  0  0  0
   -2.0099   23.1935  -30.8559 H   0  0  0  0  0  0  0  0  0  0  0  0
   -2.7158   21.5759  -31.2131 H   0  0  0  0  0  0  0  0  0  0  0  0
   -3.4870   24.9190  -31.2060 H   0  0  0  0  0  0  0  0  0  0  0  0
   -4.1097   20.5900  -31.7987 H   0  0  0  0  0  0  0  0  0  0  0  0
   -5.8378   19.0208  -32.6761 H   0  0  0  0  0  0  0  0  0  0  0  0
   -7.2237   23.2794  -30.4583 H   0  0  0  0  0  0  0  0  0  0  0  0
  1  2  1  0
  2  3  2  0
  2  4  2  0
  2  5  1  0
  5  6  2  0
  6  7  1  0
  7  8  2  0
  8  9  1  0
  9 10  2  0
 10 11  1  0
 11 12  1  0
 12 13  1  6
 12 14  1  0
 14 15  2  0
 15 16  1  0
 16 17  2  0
 17 18  1  0
 17 19  1  0
 19 20  1  0
 19 21  2  0
 10  5  1  0
 21 14  1  0
  1 22  1  0
  6 23  1  0
  7 24  1  0
  8 25  1  0
  9 26  1  0
 11 27  1  0
 11 28  1  0
 13 29  1  0
 15 30  1  0
 16 31  1  0
 21 32  1  0
M  CHG  2   1  -1  12   1
M  END
>  <UniqueID>  (33) 
28

>  <SMILES>  (33) 
[NH-]S(=O)(=O)c1ccccc1C[S@@+](O)c1ccc(Cl)c(Cl)c1

>  <Energy>  (33) 
28.98606121761968

>  <Genealogy>  (33) 
[NH-]S(=O)(=O)c1ccccc1C[S+](O)c1ccc(Cl)c(Cl)c1 (protonated)
[NH-]S(=O)(=O)c1ccccc1C[S@@+](O)c1ccc(Cl)c(Cl)c1 (chirality)
[NH-]S(=O)(=O)c1ccccc1C[S@@+](O)c1ccc(Cl)c(Cl)c1 (3D coordinates assigned)
[NH-]S(=O)(=O)c1ccccc1C[S@@+](O)c1ccc(Cl)c(Cl)c1 (optimized conformer: 28.98606121761968 kcal/mol)

>  <smiles>  (33) 
NS(=O)(=O)c1ccccc1C[S+]([O-])c1ccc(Cl)c(Cl)c1

>  <score_type>  (33) 
oracle

>  <origin>  (33) 
adg

>  <m_score__min__energy>  (33) 
-10.15

>  <m_primary>  (33) 
energy

$$$$
33:0
     RDKit          3D

 34 36  0  0  0  0  0  0  0  0999 V2000
   -4.4020   19.2140  -32.5230 H   0  0  0  0  0  0  0  0  0  0  0  0
   -4.6190   24.1710  -30.9760 N   0  0  0  0  0  0  0  0  0  0  0  0
   -5.3380   23.2880  -31.6130 C   0  0  0  0  0  0  0  0  0  0  0  0
   -6.7420   20.8760  -32.4530 C   0  0  0  0  0  0  0  0  0  0  0  0
   -7.3920   19.6720  -32.7820 C   0  0  0  0  0  0  0  0  0  0  0  0
   -6.8180   18.8463  -33.2278 H   0  0  0  0  0  0  0  0  0  0  0  0
   -8.7600   19.5170  -32.5470 C   0  0  0  0  0  0  0  0  0  0  0  0
   -9.2586   18.5720  -32.8086 H   0  0  0  0  0  0  0  0  0  0  0  0
   -9.4950   20.5590  -31.9810 C   0  0  0  0  0  0  0  0  0  0  0  0
  -10.5733   20.4363  -31.8016 H   0  0  0  0  0  0  0  0  0  0  0  0
   -8.8640   21.7570  -31.6420 C   0  0  0  0  0  0  0  0  0  0  0  0
   -9.4482   22.5739  -31.1933 H   0  0  0  0  0  0  0  0  0  0  0  0
   -7.4870   21.9270  -31.8700 C   0  0  0  0  0  0  0  0  0  0  0  0
   -6.8120   23.1840  -31.4790 C   0  0  0  0  0  0  0  0  0  0  0  0
   -7.4920   24.1690  -31.0820 O   0  0  0  0  0  0  0  0  0  0  0  0
   -5.2890   21.0550  -32.7230 C   0  0  0  0  0  0  0  0  0  0  0  0
   -4.5770   20.0480  -33.1270 N   0  0  0  0  0  0  0  0  0  0  0  0
   -3.7740   23.9570  -29.8360 C   0  0  0  0  0  0  0  0  0  0  0  0
   -4.2440   24.1730  -28.5290 C   0  0  0  0  0  0  0  0  0  0  0  0
   -5.2628   24.5558  -28.3692 H   0  0  0  0  0  0  0  0  0  0  0  0
   -3.4210   23.9030  -27.4310 C   0  0  0  0  0  0  0  0  0  0  0  0
   -3.7916   24.0824  -26.4110 H   0  0  0  0  0  0  0  0  0  0  0  0
   -2.1240   23.4040  -27.6260 C   0  0  0  0  0  0  0  0  0  0  0  0
   -1.2560   23.0770  -26.4470 C   0  0  0  0  0  0  0  0  0  0  0  0
   -1.8066   23.2844  -25.5176 H   0  0  0  0  0  0  0  0  0  0  0  0
   -0.9791   22.0129  -26.4794 H   0  0  0  0  0  0  0  0  0  0  0  0
   -0.3458   23.6939  -26.4794 H   0  0  0  0  0  0  0  0  0  0  0  0
   -1.6760   23.1380  -28.9280 C   0  0  0  0  0  0  0  0  0  0  0  0
   -0.6732   22.7148  -29.0867 H   0  0  0  0  0  0  0  0  0  0  0  0
   -2.5000   23.4090  -30.0260 C   0  0  0  0  0  0  0  0  0  0  0  0
   -2.1448   23.1903  -31.0438 H   0  0  0  0  0  0  0  0  0  0  0  0
   -4.6610   22.4240  -32.6370 C   0  0  0  0  0  0  0  0  0  0  0  0
   -3.6014   22.3125  -32.3635 H   0  0  0  0  0  0  0  0  0  0  0  0
   -4.7687   22.9103  -33.6178 H   0  0  0  0  0  0  0  0  0  0  0  0
  1  2  1  0
  2  3  2  0
  3  4  1  0
  4  5  2  0
  5  6  1  0
  5  7  1  0
  7  8  1  0
  7  9  2  0
  9 10  1  0
  9 11  1  0
 11 12  1  0
 11 13  2  0
 13 14  1  0
 14 15  2  0
 14 16  1  0
 16 17  2  0
 17 18  1  0
 18 19  2  0
 19 20  1  0
 19 21  1  0
 21 22  1  0
 21 23  2  0
 23 24  1  0
 24 25  1  0
 24 26  1  0
 24 27  1  0
 23 28  1  0
 28 29  1  0
 28 30  2  0
 30 31  1  0
 16 32  1  0
 32 33  1  0
 32 34  1  0
 32  3  1  0
 13  4  1  0
 30 18  1  0
M  END
>  <UniqueID>  (34) 
29

>  <SMILES>  (34) 
[H]/N=C1\C/C(=N/c2ccc(C)cc2)C(=O)c2ccccc21

>  <Energy>  (34) 
48.54345851779215

>  <Genealogy>  (34) 
[H]/N=C1\C/C(=N/c2ccc(C)cc2)C(=O)c2ccccc21 (cis-trans isomerization)
[H]/N=C1\C/C(=N/c2ccc(C)cc2)C(=O)c2ccccc21 (3D coordinates assigned)
[H]/N=C1\C/C(=N/c2ccc(C)cc2)C(=O)c2ccccc21 (nonaromatic ring conformer: 48.54345851779215 kcal/mol)

>  <smiles>  (34) 
Cc1ccc(N=C2CC(=N)c3ccccc3C2=O)cc1

>  <score_type>  (34) 
oracle

>  <origin>  (34) 
adg

>  <m_score__min__energy>  (34) 
-7.7400000000000002

>  <m_primary>  (34) 
energy

$$$$
34:0
     RDKit          3D

 48 51  0  0  0  0  0  0  0  0999 V2000
   -3.1125   19.0640  -35.1906 H   0  0  0  0  0  0  0  0  0  0  0  0
   -2.7180   19.3780  -34.2130 C   0  0  0  0  0  0  0  0  0  0  0  0
   -1.1970   20.0470  -33.9320 S   0  0  0  0  0  0  0  0  0  0  0  0
   -1.4540   20.1870  -32.2840 C   0  0  0  0  0  0  0  0  0  0  0  0
   -0.5850   20.6850  -31.4550 N   0  0  0  0  0  0  0  0  0  0  0  0
   -0.8570   21.6430  -30.4200 C   0  0  0  0  0  0  0  0  0  0  0  0
   -0.2370   22.7390  -30.4340 O   0  0  0  0  0  0  0  0  0  0  0  0
   -1.7980   21.3620  -29.3080 C   0  0  0  0  0  0  0  0  0  0  0  0
   -1.6700   20.1710  -28.5780 C   0  0  0  0  0  0  0  0  0  0  0  0
   -0.8716   19.4557  -28.8246 H   0  0  0  0  0  0  0  0  0  0  0  0
   -2.5580   19.8970  -27.5390 C   0  0  0  0  0  0  0  0  0  0  0  0
   -2.4654   18.9592  -26.9716 H   0  0  0  0  0  0  0  0  0  0  0  0
   -3.5370   20.7840  -27.2250 N   0  0  0  0  0  0  0  0  0  0  0  0
   -4.1940   20.5630  -26.4430 H   0  0  0  0  0  0  0  0  0  0  0  0
   -3.6820   21.9550  -27.9040 C   0  0  0  0  0  0  0  0  0  0  0  0
   -4.4830   22.6544  -27.6226 H   0  0  0  0  0  0  0  0  0  0  0  0
   -2.8140   22.2760  -28.9630 C   0  0  0  0  0  0  0  0  0  0  0  0
   -2.9640   23.4890  -29.7170 N   0  0  0  0  0  0  0  0  0  0  0  0
   -4.4390   24.3750  -29.9170 S   0  0  0  0  0  0  0  0  0  0  0  0
   -4.2180   25.5460  -30.8340 O   0  0  0  0  0  0  0  0  0  0  0  0
   -4.9180   24.8690  -28.5810 O   0  0  0  0  0  0  0  0  0  0  0  0
   -5.6420   23.3070  -30.6300 C   0  0  0  0  0  0  0  0  0  0  0  0
   -5.3770   22.6260  -31.8260 C   0  0  0  0  0  0  0  0  0  0  0  0
   -4.4043   22.7508  -32.3242 H   0  0  0  0  0  0  0  0  0  0  0  0
   -6.3460   21.7880  -32.3880 C   0  0  0  0  0  0  0  0  0  0  0  0
   -6.1279   21.2474  -33.3208 H   0  0  0  0  0  0  0  0  0  0  0  0
   -7.5950   21.6340  -31.7670 C   0  0  0  0  0  0  0  0  0  0  0  0
   -8.6190   20.7050  -32.3470 C   0  0  0  0  0  0  0  0  0  0  0  0
   -9.1665   20.2083  -31.5325 H   0  0  0  0  0  0  0  0  0  0  0  0
   -9.3243   21.2778  -32.9670 H   0  0  0  0  0  0  0  0  0  0  0  0
   -8.1174   19.9474  -32.9670 H   0  0  0  0  0  0  0  0  0  0  0  0
   -7.8530   22.3070  -30.5620 C   0  0  0  0  0  0  0  0  0  0  0  0
   -8.8213   22.1753  -30.0569 H   0  0  0  0  0  0  0  0  0  0  0  0
   -6.8830   23.1440  -30.0020 C   0  0  0  0  0  0  0  0  0  0  0  0
   -7.0957   23.6770  -29.0636 H   0  0  0  0  0  0  0  0  0  0  0  0
   -2.6800   19.7500  -31.9250 N   0  0  0  0  0  0  0  0  0  0  0  0
   -3.3940   19.2900  -32.9900 C   0  0  0  0  0  0  0  0  0  0  0  0
   -4.7600   18.7290  -32.8120 C   0  0  0  0  0  0  0  0  0  0  0  0
   -5.4420   18.1880  -33.9210 C   0  0  0  0  0  0  0  0  0  0  0  0
   -4.9571   18.1800  -34.9083 H   0  0  0  0  0  0  0  0  0  0  0  0
   -6.7280   17.6620  -33.7770 C   0  0  0  0  0  0  0  0  0  0  0  0
   -7.2514   17.2459  -34.6504 H   0  0  0  0  0  0  0  0  0  0  0  0
   -7.3510   17.6630  -32.5270 C   0  0  0  0  0  0  0  0  0  0  0  0
   -8.3640   17.2488  -32.4163 H   0  0  0  0  0  0  0  0  0  0  0  0
   -6.6870   18.1900  -31.4190 C   0  0  0  0  0  0  0  0  0  0  0  0
   -7.1777   18.1886  -30.4345 H   0  0  0  0  0  0  0  0  0  0  0  0
   -5.4000   18.7200  -31.5550 C   0  0  0  0  0  0  0  0  0  0  0  0
   -4.8833   19.1326  -30.6759 H   0  0  0  0  0  0  0  0  0  0  0  0
  1  2  1  0
  2  3  1  0
  3  4  1  0
  4  5  2  0
  5  6  1  0
  6  7  2  0
  6  8  1  0
  8  9  2  0
  9 10  1  0
  9 11  1  0
 11 12  1  0
 11 13  2  0
 13 14  1  0
 13 15  1  0
 15 16  1  0
 15 17  2  0
 17 18  1  0
 18 19  1  0
 19 20  2  0
 19 21  2  0
 19 22  1  0
 22 23  2  0
 23 24  1  0
 23 25  1  0
 25 26  1  0
 25 27  2  0
 27 28  1  0
 28 29  1  0
 28 30  1  0
 28 31  1  0
 27 32  1  0
 32 33  1  0
 32 34  2  0
 34 35  1  0
  4 36  1  0
 36 37  1  0
 37 38  1  0
 38 39  2  0
 39 40  1  0
 39 41  1  0
 41 42  1  0
 41 43  2  0
 43 44  1  0
 43 45  1  0
 45 46  1  0
 45 47  2  0
 47 48  1  0
 37  2  2  0
 47 38  1  0
 17  8  1  0
 34 22  1  0
M  CHG  3  13   1  18  -1  36  -1
M  END
>  <UniqueID>  (35) 
30

>  <SMILES>  (35) 
Cc1ccc(S(=O)(=O)[N-]c2c[nH+]ccc2C(=O)/N=c2\[n-]c(-c3ccccc3)cs2)cc1

>  <Energy>  (35) 
95.65877076229343

>  <Genealogy>  (35) 
Cc1ccc(S(=O)(=O)[N-]c2c[nH+]ccc2C(=O)N=c2[n-]c(-c3ccccc3)cs2)cc1 (protonated)
Cc1ccc(S(=O)(=O)[N-]c2c[nH+]ccc2C(=O)/N=c2\[n-]c(-c3ccccc3)cs2)cc1 (cis-trans isomerization)
Cc1ccc(S(=O)(=O)[N-]c2c[nH+]ccc2C(=O)/N=c2\[n-]c(-c3ccccc3)cs2)cc1 (3D coordinates assigned)
Cc1ccc(S(=O)(=O)[N-]c2c[nH+]ccc2C(=O)/N=c2\[n-]c(-c3ccccc3)cs2)cc1 (optimized conformer: 95.65877076229343 kcal/mol)

>  <smiles>  (35) 
Cc1ccc(S(=O)(=O)Nc2cnccc2C(=O)N=c2[nH]c(-c3ccccc3)cs2)cc1

>  <score_type>  (35) 
oracle

>  <origin>  (35) 
adg

>  <m_score__min__energy>  (35) 
-10.77

>  <m_primary>  (35) 
energy

$$$$
35:0
     RDKit          3D

 28 29  0  0  0  0  0  0  0  0999 V2000
   -9.5818   21.5828  -31.5210 H   0  0  0  0  0  0  0  0  0  0  0  0
   -8.5340   21.8730  -31.6880 C   0  0  0  0  0  0  0  0  0  0  0  0
   -7.9130   23.4240  -31.5640 S   0  0  0  0  0  0  0  0  0  0  0  0
   -6.3450   22.9590  -31.9360 C   0  0  0  0  0  0  0  0  0  0  0  0
   -5.3650   23.8210  -31.9380 N   0  0  0  0  0  0  0  0  0  0  0  0
   -4.5860   24.3130  -30.8400 C   0  0  0  0  0  0  0  0  0  0  0  0
   -4.2460   25.5270  -30.8120 O   0  0  0  0  0  0  0  0  0  0  0  0
   -4.0890   23.3800  -29.8030 C   0  0  0  0  0  0  0  0  0  0  0  0
   -3.4200   22.1960  -30.1660 C   0  0  0  0  0  0  0  0  0  0  0  0
   -3.2610   21.9619  -31.2290 H   0  0  0  0  0  0  0  0  0  0  0  0
   -2.9560   21.3150  -29.1830 C   0  0  0  0  0  0  0  0  0  0  0  0
   -2.4329   20.3925  -29.4752 H   0  0  0  0  0  0  0  0  0  0  0  0
   -3.1560   21.6050  -27.8310 C   0  0  0  0  0  0  0  0  0  0  0  0
   -2.7896   20.9116  -27.0597 H   0  0  0  0  0  0  0  0  0  0  0  0
   -3.8210   22.7750  -27.4590 C   0  0  0  0  0  0  0  0  0  0  0  0
   -3.9786   23.0018  -26.3942 H   0  0  0  0  0  0  0  0  0  0  0  0
   -4.2870   23.6590  -28.4370 C   0  0  0  0  0  0  0  0  0  0  0  0
   -4.8116   24.5783  -28.1374 H   0  0  0  0  0  0  0  0  0  0  0  0
   -6.2760   21.6210  -32.2230 N   0  0  0  0  0  0  0  0  0  0  0  0
   -5.1140   20.9110  -32.7760 C   0  0  0  0  0  0  0  0  0  0  0  0
   -4.4911   20.5304  -31.9531 H   0  0  0  0  0  0  0  0  0  0  0  0
   -5.4589   20.0692  -33.3944 H   0  0  0  0  0  0  0  0  0  0  0  0
   -4.5223   21.6020  -33.3944 H   0  0  0  0  0  0  0  0  0  0  0  0
   -7.4950   21.0140  -32.0390 C   0  0  0  0  0  0  0  0  0  0  0  0
   -7.7370   19.5470  -32.2530 C   0  0  0  0  0  0  0  0  0  0  0  0
   -7.8201   19.0431  -31.2787 H   0  0  0  0  0  0  0  0  0  0  0  0
   -8.6702   19.4080  -32.8185 H   0  0  0  0  0  0  0  0  0  0  0  0
   -6.8979   19.1156  -32.8185 H   0  0  0  0  0  0  0  0  0  0  0  0
  1  2  1  0
  2  3  1  0
  3  4  1  0
  4  5  2  0
  5  6  1  0
  6  7  2  0
  6  8  1  0
  8  9  2  0
  9 10  1  0
  9 11  1  0
 11 12  1  0
 11 13  2  0
 13 14  1  0
 13 15  1  0
 15 16  1  0
 15 17  2  0
 17 18  1  0
  4 19  1  0
 19 20  1  0
 20 21  1  0
 20 22  1  0
 20 23  1  0
 19 24  1  0
 24 25  1  0
 25 26  1  0
 25 27  1  0
 25 28  1  0
 24  2  2  0
 17  8  1  0
M  END
>  <UniqueID>  (36) 
31

>  <SMILES>  (36) 
Cc1cs/c(=N/C(=O)c2ccccc2)n1C

>  <Energy>  (36) 
72.87602776489756

>  <Genealogy>  (36) 
Cc1cs/c(=N/C(=O)c2ccccc2)n1C (cis-trans isomerization)
Cc1cs/c(=N/C(=O)c2ccccc2)n1C (3D coordinates assigned)
Cc1cs/c(=N/C(=O)c2ccccc2)n1C (optimized conformer: 72.87602776489756 kcal/mol)

>  <smiles>  (36) 
Cc1csc(=NC(=O)c2ccccc2)n1C

>  <score_type>  (36) 
oracle

>  <origin>  (36) 
adg

>  <m_score__min__energy>  (36) 
-6.3700000000000001

>  <m_primary>  (36) 
energy

$$$$
36:0
     RDKit          3D

 49 53  0  0  1  0  0  0  0  0999 V2000
    0.4530   20.6110  -34.0610 N   0  0  0  0  0  0  0  0  0  0  0  0
   -0.6870   20.4420  -33.9160 C   0  0  0  0  0  0  0  0  0  0  0  0
   -2.0980   20.2500  -33.7540 C   0  0  0  0  0  0  0  0  0  0  0  0
   -2.9010   21.2270  -33.1500 C   0  0  0  0  0  0  0  0  0  0  0  0
   -4.1990   20.9780  -33.0300 N   0  0  0  0  0  0  0  0  0  0  0  0
   -4.7730   19.8410  -33.4560 C   0  0  0  0  0  0  0  0  0  0  0  0
   -4.0450   18.8420  -34.0580 C   0  0  0  0  0  0  0  0  0  0  0  0
   -4.9030   17.8130  -34.3800 C   0  0  0  0  0  0  0  0  0  0  0  0
   -6.1100   18.2080  -33.9720 N   0  0  0  0  0  0  0  0  0  0  0  0
   -6.0530   19.4240  -33.4140 N   0  0  0  0  0  0  0  0  0  0  0  0
   -7.1880   20.1080  -32.8820 C   0  0  0  0  0  0  0  0  0  0  0  0
   -7.0430   21.3320  -32.2760 C   0  0  0  0  0  0  0  0  0  0  0  0
   -8.2040   21.9250  -31.7970 C   0  0  0  0  0  0  0  0  0  0  0  0
   -8.0970   23.0500  -31.2370 N   0  0  0  0  0  0  0  0  0  0  0  0
   -6.8970   23.6910  -30.9340 C   0  0  0  0  0  0  0  0  0  0  0  0
   -6.0970   24.5500  -31.6630 C   0  0  0  0  0  0  0  0  0  0  0  0
   -5.0510   24.8550  -30.8890 N   0  0  0  0  0  0  0  0  0  0  0  0
   -5.1180   24.2570  -29.7150 N   0  0  0  0  0  0  0  0  0  0  0  0
   -4.1000   24.4080  -28.6800 C   0  0  0  0  0  0  0  0  0  0  0  0
   -2.7630   24.2200  -29.2720 C   0  0  0  0  0  0  0  0  0  0  0  0
   -1.9250   25.1400  -29.3330 O   0  0  0  0  0  0  0  0  0  0  0  0
   -2.4080   22.9570  -29.7950 N   0  0  0  0  0  0  0  0  0  0  0  0
   -3.1730   21.7090  -29.8520 C   0  0  0  0  0  0  0  0  0  0  0  0
   -2.1660   20.7700  -29.1580 C   0  0  0  0  0  0  0  0  0  0  0  0
   -0.8310   21.2850  -29.6650 C   0  0  0  0  0  0  0  0  0  0  0  0
   -1.1250   22.5740  -30.4270 C   0  0  0  0  0  0  0  0  0  0  0  0
   -6.2450   23.5280  -29.7020 C   0  0  0  0  0  0  0  0  0  0  0  0
   -9.4000   21.3390  -31.9160 N   0  0  0  0  0  0  0  0  0  0  0  0
   -9.4740   20.1410  -32.5170 C   0  0  0  0  0  0  0  0  0  0  0  0
   -8.3780   19.4960  -33.0130 N   0  0  0  0  0  0  0  0  0  0  0  0
   -2.6880   19.0750  -34.1960 C   0  0  0  0  0  0  0  0  0  0  0  0
   -2.4688   22.1710  -32.7866 H   0  0  0  0  0  0  0  0  0  0  0  0
   -4.6460   16.8631  -34.8715 H   0  0  0  0  0  0  0  0  0  0  0  0
   -6.0605   21.8164  -32.1755 H   0  0  0  0  0  0  0  0  0  0  0  0
   -6.2849   24.9131  -32.6842 H   0  0  0  0  0  0  0  0  0  0  0  0
   -4.1687   25.4150  -28.2427 H   0  0  0  0  0  0  0  0  0  0  0  0
   -4.2618   23.6546  -27.8950 H   0  0  0  0  0  0  0  0  0  0  0  0
   -4.1194   21.7807  -29.2960 H   0  0  0  0  0  0  0  0  0  0  0  0
   -3.4915   21.3974  -30.8577 H   0  0  0  0  0  0  0  0  0  0  0  0
   -2.2342   20.8536  -28.0633 H   0  0  0  0  0  0  0  0  0  0  0  0
   -2.3367   19.7057  -29.3774 H   0  0  0  0  0  0  0  0  0  0  0  0
   -0.1565   21.4884  -28.8202 H   0  0  0  0  0  0  0  0  0  0  0  0
   -0.3385   20.5440  -30.3118 H   0  0  0  0  0  0  0  0  0  0  0  0
   -0.3458   23.3328  -30.2622 H   0  0  0  0  0  0  0  0  0  0  0  0
   -1.1600   22.4684  -31.5214 H   0  0  0  0  0  0  0  0  0  0  0  0
   -6.5983   22.9069  -28.8657 H   0  0  0  0  0  0  0  0  0  0  0  0
  -10.4582   19.6593  -32.6138 H   0  0  0  0  0  0  0  0  0  0  0  0
   -8.4850   18.5470  -33.4830 H   0  0  0  0  0  0  0  0  0  0  0  0
   -2.0593   18.3066  -34.6697 H   0  0  0  0  0  0  0  0  0  0  0  0
  1  2  3  0
  2  3  1  0
  3  4  2  0
  4  5  1  0
  5  6  2  0
  6  7  1  0
  7  8  1  0
  8  9  2  0
  9 10  1  0
 10 11  1  0
 11 12  2  0
 12 13  1  0
 13 14  2  0
 14 15  1  0
 15 16  1  0
 16 17  2  0
 17 18  1  0
 18 19  1  0
 19 20  1  0
 20 21  2  0
 20 22  1  0
 22 23  1  0
 23 24  1  0
 24 25  1  0
 25 26  1  0
 18 27  1  0
 13 28  1  0
 28 29  2  0
 29 30  1  0
  7 31  2  0
 31  3  1  0
 10  6  1  0
 30 11  1  0
 27 15  2  0
 26 22  1  0
  4 32  1  0
  8 33  1  0
 12 34  1  0
 16 35  1  0
 19 36  1  0
 19 37  1  0
 23 38  1  0
 23 39  1  0
 24 40  1  0
 24 41  1  0
 25 42  1  0
 25 43  1  0
 26 44  1  0
 26 45  1  0
 27 46  1  0
 29 47  1  0
 30 48  1  0
 31 49  1  0
M  END
>  <smiles>  (37) 
N#Cc1cnc2c(cnn2-c2cc(=Nc3cnn(CC(=O)N4CCCC4)c3)nc[nH]2)c1

>  <score_type>  (37) 
oracle

>  <origin>  (37) 
adg

>  <m_score__min__energy>  (37) 
-10.140000000000001

>  <m_primary>  (37) 
energy

$$$$
37:0
     RDKit          3D

 38 40  0  0  0  0  0  0  0  0999 V2000
   -4.3430   22.3460  -32.6040 O   0  0  0  0  0  0  0  0  0  0  0  0
   -5.2950   21.5810  -32.6540 C   0  0  0  0  0  0  0  0  0  0  0  0
   -5.1280   20.1250  -32.8470 C   0  0  0  0  0  0  0  0  0  0  0  0
   -6.5530   19.6560  -33.0860 C   0  0  0  0  0  0  0  0  0  0  0  0
   -7.4640   20.8100  -32.6400 C   0  0  0  0  0  0  0  0  0  0  0  0
   -6.6500   22.0420  -32.5920 N   0  0  1  0  0  0  0  0  0  0  0  0
   -6.8860   22.7890  -31.3650 C   0  0  0  0  0  0  0  0  0  0  0  0
   -7.7410   22.4040  -30.5770 O   0  0  0  0  0  0  0  0  0  0  0  0
   -6.1360   24.0580  -31.0190 C   0  0  0  0  0  0  0  0  0  0  0  0
   -5.0660   23.8450  -30.0290 N   0  0  0  0  0  0  0  0  0  0  0  0
   -5.1580   22.7710  -29.1870 C   0  0  0  0  0  0  0  0  0  0  0  0
   -4.1630   22.5170  -28.2470 C   0  0  0  0  0  0  0  0  0  0  0  0
   -3.0600   23.3600  -28.1690 C   0  0  0  0  0  0  0  0  0  0  0  0
   -2.9450   24.4550  -29.0400 C   0  0  0  0  0  0  0  0  0  0  0  0
   -1.8050   25.3370  -28.9820 N   0  0  0  0  0  0  0  0  0  0  0  0
   -0.8900   25.3800  -27.8440 C   0  0  0  0  0  0  0  0  0  0  0  0
   -0.5630   26.7930  -27.3900 C   0  0  0  0  0  0  0  0  0  0  0  0
   -1.5100   25.9300  -26.5700 C   0  0  0  0  0  0  0  0  0  0  0  0
   -3.9720   24.6770  -29.9800 C   0  0  0  0  0  0  0  0  0  0  0  0
   -3.8780   25.6440  -30.7870 O   0  0  0  0  0  0  0  0  0  0  0  0
   -4.4885   19.9105  -33.7159 H   0  0  0  0  0  0  0  0  0  0  0  0
   -4.6397   19.6246  -31.9978 H   0  0  0  0  0  0  0  0  0  0  0  0
   -6.7088   19.4375  -34.1528 H   0  0  0  0  0  0  0  0  0  0  0  0
   -6.7709   18.7340  -32.5270 H   0  0  0  0  0  0  0  0  0  0  0  0
   -8.2876   20.9345  -33.3585 H   0  0  0  0  0  0  0  0  0  0  0  0
   -7.8935   20.5970  -31.6500 H   0  0  0  0  0  0  0  0  0  0  0  0
   -6.8280   22.6090  -33.4500 H   0  0  0  0  0  0  0  0  0  0  0  0
   -5.6869   24.4611  -31.9387 H   0  0  0  0  0  0  0  0  0  0  0  0
   -6.8603   24.7562  -30.5742 H   0  0  0  0  0  0  0  0  0  0  0  0
   -6.0276   22.1007  -29.2533 H   0  0  0  0  0  0  0  0  0  0  0  0
   -4.2489   21.6544  -27.5699 H   0  0  0  0  0  0  0  0  0  0  0  0
   -2.2751   23.1683  -27.4225 H   0  0  0  0  0  0  0  0  0  0  0  0
   -1.6630   26.0430  -29.7400 H   0  0  0  0  0  0  0  0  0  0  0  0
   -0.3075   24.4823  -28.0986 H   0  0  0  0  0  0  0  0  0  0  0  0
    0.4399   27.0286  -27.0043 H   0  0  0  0  0  0  0  0  0  0  0  0
   -0.6205   27.7907  -27.8496 H   0  0  0  0  0  0  0  0  0  0  0  0
   -1.1920   25.5414  -25.5913 H   0  0  0  0  0  0  0  0  0  0  0  0
   -2.5362   26.0449  -26.1909 H   0  0  0  0  0  0  0  0  0  0  0  0
  1  2  2  0
  2  3  1  0
  3  4  1  0
  4  5  1  0
  5  6  1  0
  6  7  1  0
  7  8  2  0
  7  9  1  0
  9 10  1  0
 10 11  1  0
 11 12  2  0
 12 13  1  0
 13 14  2  0
 14 15  1  0
 15 16  1  0
 16 17  1  0
 17 18  1  0
 14 19  1  0
 19 20  2  0
  6  2  1  0
 19 10  1  0
 18 16  1  0
  3 21  1  0
  3 22  1  0
  4 23  1  0
  4 24  1  0
  5 25  1  0
  5 26  1  0
  6 27  1  6
  9 28  1  0
  9 29  1  0
 11 30  1  0
 12 31  1  0
 13 32  1  0
 15 33  1  0
 16 34  1  0
 17 35  1  0
 17 36  1  0
 18 37  1  0
 18 38  1  0
M  CHG  1   6   1
M  END
>  <UniqueID>  (38) 
32

>  <SMILES>  (38) 
O=C1CCC[N@H+]1C(=O)Cn1cccc(NC2CC2)c1=O

>  <Energy>  (38) 
309.4353775180694

>  <Genealogy>  (38) 
O=C1CCC[NH+]1C(=O)Cn1cccc(NC2CC2)c1=O (protonated)
O=C1CCC[N@H+]1C(=O)Cn1cccc(NC2CC2)c1=O (chirality)
O=C1CCC[N@H+]1C(=O)Cn1cccc(NC2CC2)c1=O (3D coordinates assigned)
O=C1CCC[N@H+]1C(=O)Cn1cccc(NC2CC2)c1=O (nonaromatic ring conformer: 309.4353775180694 kcal/mol)

>  <smiles>  (38) 
O=C1CCCN1C(=O)Cn1cccc(NC2CC2)c1=O

>  <score_type>  (38) 
oracle

>  <origin>  (38) 
adg

>  <m_score__min__energy>  (38) 
-7.3600000000000003

>  <m_primary>  (38) 
energy

$$$$
38:0
     RDKit          3D

 30 31  0  0  0  0  0  0  0  0999 V2000
   -8.2959   24.6391  -30.3479 H   0  0  0  0  0  0  0  0  0  0  0  0
   -7.2110   24.5120  -30.4780 C   0  0  0  0  0  0  0  0  0  0  0  0
   -6.0250   25.5980  -29.9840 S   0  0  0  0  0  0  0  0  0  0  0  0
   -4.7630   24.6480  -30.5710 C   0  0  0  0  0  0  0  0  0  0  0  0
   -3.4930   24.9040  -30.4710 N   0  0  0  0  0  0  0  0  0  0  0  0
   -2.6650   24.6950  -29.3170 C   0  0  0  0  0  0  0  0  0  0  0  0
   -1.6880   25.4680  -29.1280 O   0  0  0  0  0  0  0  0  0  0  0  0
   -3.0140   23.6720  -28.2610 C   0  0  0  0  0  0  0  0  0  0  0  0
   -2.1416   23.5334  -27.6055 H   0  0  0  0  0  0  0  0  0  0  0  0
   -3.3510   22.3290  -28.9170 C   0  0  0  0  0  0  0  0  0  0  0  0
   -3.5397   21.5769  -28.1368 H   0  0  0  0  0  0  0  0  0  0  0  0
   -4.2488   22.4415  -29.5426 H   0  0  0  0  0  0  0  0  0  0  0  0
   -2.5065   22.0043  -29.5426 H   0  0  0  0  0  0  0  0  0  0  0  0
   -4.1840   24.1610  -27.4000 C   0  0  0  0  0  0  0  0  0  0  0  0
   -3.9264   24.0533  -26.3360 H   0  0  0  0  0  0  0  0  0  0  0  0
   -4.3863   25.2190  -27.6230 H   0  0  0  0  0  0  0  0  0  0  0  0
   -5.0790   23.5616  -27.6230 H   0  0  0  0  0  0  0  0  0  0  0  0
   -5.2210   23.5070  -31.1250 N   0  0  0  0  0  0  0  0  0  0  0  0
   -6.5800   23.4190  -31.0830 C   0  0  0  0  0  0  0  0  0  0  0  0
   -7.2960   22.2460  -31.6520 C   0  0  0  0  0  0  0  0  0  0  0  0
   -6.5830   21.2820  -32.3910 C   0  0  0  0  0  0  0  0  0  0  0  0
   -5.5004   21.4032  -32.5433 H   0  0  0  0  0  0  0  0  0  0  0  0
   -7.2390   20.1720  -32.9330 C   0  0  0  0  0  0  0  0  0  0  0  0
   -6.6725   19.4279  -33.5121 H   0  0  0  0  0  0  0  0  0  0  0  0
   -8.6120   20.0070  -32.7400 C   0  0  0  0  0  0  0  0  0  0  0  0
   -9.1267   19.1343  -33.1683 H   0  0  0  0  0  0  0  0  0  0  0  0
   -9.3310   20.9490  -32.0040 C   0  0  0  0  0  0  0  0  0  0  0  0
  -10.4121   20.8161  -31.8503 H   0  0  0  0  0  0  0  0  0  0  0  0
   -8.6810   22.0620  -31.4610 C   0  0  0  0  0  0  0  0  0  0  0  0
   -9.2546   22.7995  -30.8805 H   0  0  0  0  0  0  0  0  0  0  0  0
  1  2  1  0
  2  3  1  0
  3  4  1  0
  4  5  2  0
  5  6  1  0
  6  7  2  0
  6  8  1  0
  8  9  1  0
  8 10  1  0
 10 11  1  0
 10 12  1  0
 10 13  1  0
  8 14  1  0
 14 15  1  0
 14 16  1  0
 14 17  1  0
  4 18  1  0
 18 19  1  0
 19 20  1  0
 20 21  2  0
 21 22  1  0
 21 23  1  0
 23 24  1  0
 23 25  2  0
 25 26  1  0
 25 27  1  0
 27 28  1  0
 27 29  2  0
 29 30  1  0
 19  2  2  0
 29 20  1  0
M  CHG  1  18  -1
M  END
>  <UniqueID>  (39) 
33

>  <SMILES>  (39) 
CC(C)C(=O)/N=c1/[n-]c(-c2ccccc2)cs1

>  <Energy>  (39) 
64.8817311773998

>  <Genealogy>  (39) 
CC(C)C(=O)N=c1[n-]c(-c2ccccc2)cs1 (protonated)
CC(C)C(=O)/N=c1/[n-]c(-c2ccccc2)cs1 (cis-trans isomerization)
CC(C)C(=O)/N=c1/[n-]c(-c2ccccc2)cs1 (3D coordinates assigned)
CC(C)C(=O)/N=c1/[n-]c(-c2ccccc2)cs1 (optimized conformer: 64.8817311773998 kcal/mol)

>  <smiles>  (39) 
CC(C)C(=O)N=c1[nH]c(-c2ccccc2)cs1

>  <score_type>  (39) 
oracle

>  <origin>  (39) 
adg

>  <m_score__min__energy>  (39) 
-8.8200000000000003

>  <m_primary>  (39) 
energy

$$$$
39:0
     RDKit          3D

 63 67  0  0  0  0  0  0  0  0999 V2000
   -5.0470   16.3520  -32.7790 C   0  0  0  0  0  0  0  0  0  0  0  0
   -5.6700   16.6860  -34.1340 C   0  0  0  0  0  0  0  0  0  0  0  0
   -5.4290   18.1440  -34.5450 C   0  0  0  0  0  0  0  0  0  0  0  0
   -4.0770   18.6390  -34.1220 C   0  0  0  0  0  0  0  0  0  0  0  0
   -2.9520   18.0920  -34.6510 N   0  0  0  0  0  0  0  0  0  0  0  0
   -1.7190   18.5120  -34.2660 C   0  0  0  0  0  0  0  0  0  0  0  0
   -1.5840   19.5210  -33.3030 C   0  0  0  0  0  0  0  0  0  0  0  0
   -0.2030   19.9380  -32.8400 C   0  0  0  0  0  0  0  0  0  0  0  0
    0.5360   20.6760  -33.9280 C   0  0  0  0  0  0  0  0  0  0  0  0
   -0.1350   21.5990  -34.7500 C   0  0  0  0  0  0  0  0  0  0  0  0
    0.5600   22.2990  -35.7410 C   0  0  0  0  0  0  0  0  0  0  0  0
    1.9260   22.0730  -35.9250 C   0  0  0  0  0  0  0  0  0  0  0  0
    2.6000   21.1510  -35.1200 C   0  0  0  0  0  0  0  0  0  0  0  0
    1.9090   20.4520  -34.1270 C   0  0  0  0  0  0  0  0  0  0  0  0
   -2.7650   20.0650  -32.7550 C   0  0  0  0  0  0  0  0  0  0  0  0
   -2.7330   21.0810  -31.6930 C   0  0  0  0  0  0  0  0  0  0  0  0
   -1.9680   20.8770  -30.5370 C   0  0  0  0  0  0  0  0  0  0  0  0
   -1.9830   21.8260  -29.5120 C   0  0  0  0  0  0  0  0  0  0  0  0
   -2.7700   22.9750  -29.6310 C   0  0  0  0  0  0  0  0  0  0  0  0
   -3.5420   23.1890  -30.7900 C   0  0  0  0  0  0  0  0  0  0  0  0
   -4.3760   24.3050  -30.9440 O   0  0  0  0  0  0  0  0  0  0  0  0
   -5.8010   24.2480  -30.9660 C   0  0  0  0  0  0  0  0  0  0  0  0
   -6.2710   23.5830  -32.2570 C   0  0  0  0  0  0  0  0  0  0  0  0
   -7.4450   22.6810  -32.0070 C   0  0  0  0  0  0  0  0  0  0  0  0
   -8.7840   23.0590  -31.9510 C   0  0  0  0  0  0  0  0  0  0  0  0
   -9.5710   21.9770  -31.7600 N   0  0  0  0  0  0  0  0  0  0  0  0
   -8.7440   20.9180  -31.7090 C   0  0  0  0  0  0  0  0  0  0  0  0
   -9.0940   19.5780  -31.5490 C   0  0  0  0  0  0  0  0  0  0  0  0
   -8.0610   18.6230  -31.5570 C   0  0  0  0  0  0  0  0  0  0  0  0
   -6.7180   19.0240  -31.7190 C   0  0  0  0  0  0  0  0  0  0  0  0
   -6.3940   20.3850  -31.8740 C   0  0  0  0  0  0  0  0  0  0  0  0
   -7.4380   21.3080  -31.8620 C   0  0  0  0  0  0  0  0  0  0  0  0
   -3.4970   22.2480  -31.8240 C   0  0  0  0  0  0  0  0  0  0  0  0
   -3.9740   19.6070  -33.1750 N   0  0  0  0  0  0  0  0  0  0  0  0
   -5.7079   16.7063  -31.9742 H   0  0  0  0  0  0  0  0  0  0  0  0
   -4.9167   15.2631  -32.6938 H   0  0  0  0  0  0  0  0  0  0  0  0
   -4.0680   16.8462  -32.6938 H   0  0  0  0  0  0  0  0  0  0  0  0
   -5.2306   16.0267  -34.8970 H   0  0  0  0  0  0  0  0  0  0  0  0
   -6.7565   16.5366  -34.0495 H   0  0  0  0  0  0  0  0  0  0  0  0
   -5.5072   18.2205  -35.6395 H   0  0  0  0  0  0  0  0  0  0  0  0
   -6.1865   18.7645  -34.0437 H   0  0  0  0  0  0  0  0  0  0  0  0
   -0.8220   18.0579  -34.7123 H   0  0  0  0  0  0  0  0  0  0  0  0
   -0.3015   20.5952  -31.9634 H   0  0  0  0  0  0  0  0  0  0  0  0
    0.3669   19.0329  -32.5833 H   0  0  0  0  0  0  0  0  0  0  0  0
   -1.2127   21.7712  -34.6125 H   0  0  0  0  0  0  0  0  0  0  0  0
    0.0318   23.0266  -36.3747 H   0  0  0  0  0  0  0  0  0  0  0  0
    2.4726   22.6223  -36.7057 H   0  0  0  0  0  0  0  0  0  0  0  0
    3.6757   20.9753  -35.2682 H   0  0  0  0  0  0  0  0  0  0  0  0
    2.4419   19.7234  -33.4984 H   0  0  0  0  0  0  0  0  0  0  0  0
   -1.3552   19.9690  -30.4365 H   0  0  0  0  0  0  0  0  0  0  0  0
   -1.3742   21.6687  -28.6094 H   0  0  0  0  0  0  0  0  0  0  0  0
   -2.7867   23.7147  -28.8170 H   0  0  0  0  0  0  0  0  0  0  0  0
   -6.1567   23.6645  -30.1040 H   0  0  0  0  0  0  0  0  0  0  0  0
   -6.2066   25.2692  -30.9145 H   0  0  0  0  0  0  0  0  0  0  0  0
   -6.5640   24.3623  -32.9760 H   0  0  0  0  0  0  0  0  0  0  0  0
   -5.4450   22.9767  -32.6572 H   0  0  0  0  0  0  0  0  0  0  0  0
   -9.1495   24.0919  -32.0484 H   0  0  0  0  0  0  0  0  0  0  0  0
  -10.6130   21.9680  -31.6840 H   0  0  0  0  0  0  0  0  0  0  0  0
  -10.1442   19.2771  -31.4206 H   0  0  0  0  0  0  0  0  0  0  0  0
   -8.3020   17.5565  -31.4361 H   0  0  0  0  0  0  0  0  0  0  0  0
   -5.9189   18.2681  -31.7242 H   0  0  0  0  0  0  0  0  0  0  0  0
   -5.3506   20.7095  -32.0005 H   0  0  0  0  0  0  0  0  0  0  0  0
   -4.0665   22.4259  -32.7481 H   0  0  0  0  0  0  0  0  0  0  0  0
  1  2  1  0
  2  3  1  0
  3  4  1  0
  4  5  2  0
  5  6  1  0
  6  7  2  0
  7  8  1  0
  8  9  1  0
  9 10  2  0
 10 11  1  0
 11 12  2  0
 12 13  1  0
 13 14  2  0
  7 15  1  0
 15 16  1  0
 16 17  2  0
 17 18  1  0
 18 19  2  0
 19 20  1  0
 20 21  1  0
 21 22  1  0
 22 23  1  0
 23 24  1  0
 24 25  2  0
 25 26  1  0
 26 27  1  0
 27 28  2  0
 28 29  1  0
 29 30  2  0
 30 31  1  0
 31 32  2  0
 20 33  2  0
 15 34  2  0
 34  4  1  0
 14  9  1  0
 33 16  1  0
 32 24  1  0
 32 27  1  0
  1 35  1  0
  1 36  1  0
  1 37  1  0
  2 38  1  0
  2 39  1  0
  3 40  1  0
  3 41  1  0
  6 42  1  0
  8 43  1  0
  8 44  1  0
 10 45  1  0
 11 46  1  0
 12 47  1  0
 13 48  1  0
 14 49  1  0
 17 50  1  0
 18 51  1  0
 19 52  1  0
 22 53  1  0
 22 54  1  0
 23 55  1  0
 23 56  1  0
 25 57  1  0
 26 58  1  0
 28 59  1  0
 29 60  1  0
 30 61  1  0
 31 62  1  0
 33 63  1  0
M  END
>  <UniqueID>  (40) 
34

>  <SMILES>  (40) 
CCCc1ncc(Cc2ccccc2)c(-c2cccc(OCCc3c[nH]c4ccccc34)c2)n1

>  <Energy>  (40) 
95.74623841282903

>  <Genealogy>  (40) 
CCCc1ncc(Cc2ccccc2)c(-c2cccc(OCCc3c[nH]c4ccccc34)c2)n1 (3D coordinates assigned)
CCCc1ncc(Cc2ccccc2)c(-c2cccc(OCCc3c[nH]c4ccccc34)c2)n1 (optimized conformer: 95.74623841282903 kcal/mol)

>  <smiles>  (40) 
CCCc1ncc(Cc2ccccc2)c(-c2cccc(OCCc3c[nH]c4ccccc34)c2)n1

>  <score_type>  (40) 
oracle

>  <origin>  (40) 
adg

>  <m_score__min__energy>  (40) 
-10.74

>  <m_primary>  (40) 
energy

$$$$
40:0
     RDKit          3D

 24 25  0  0  0  0  0  0  0  0999 V2000
   -8.7520   21.5030  -29.9143 H   0  0  0  0  0  0  0  0  0  0  0  0
   -8.6320   21.5810  -31.0050 C   0  0  0  0  0  0  0  0  0  0  0  0
   -8.1910   22.8810  -31.5480 C   0  0  0  0  0  0  0  0  0  0  0  0
   -8.9480   23.4660  -32.3690 O   0  0  0  0  0  0  0  0  0  0  0  0
   -6.9370   23.5470  -31.1130 C   0  0  0  0  0  0  0  0  0  0  0  0
   -5.6890   23.1920  -31.6570 C   0  0  0  0  0  0  0  0  0  0  0  0
   -5.6297   22.4015  -32.4197 H   0  0  0  0  0  0  0  0  0  0  0  0
   -4.5550   23.8210  -31.2450 N   0  0  0  0  0  0  0  0  0  0  0  0
   -4.5820   24.7990  -30.3020 C   0  0  0  0  0  0  0  0  0  0  0  0
   -3.6479   25.2922  -29.9952 H   0  0  0  0  0  0  0  0  0  0  0  0
   -5.7920   25.1780  -29.7230 C   0  0  0  0  0  0  0  0  0  0  0  0
   -5.8180   25.9663  -28.9562 H   0  0  0  0  0  0  0  0  0  0  0  0
   -6.9710   24.5470  -30.1260 C   0  0  0  0  0  0  0  0  0  0  0  0
   -7.9297   24.8337  -29.6692 H   0  0  0  0  0  0  0  0  0  0  0  0
   -8.8980   20.4880  -31.7340 C   0  0  0  0  0  0  0  0  0  0  0  0
   -9.9561   20.2272  -31.8835 H   0  0  0  0  0  0  0  0  0  0  0  0
   -7.8900   19.6050  -32.3530 C   0  0  0  0  0  0  0  0  0  0  0  0
   -6.6870   20.0500  -33.4480 S   0  0  0  0  0  0  0  0  0  0  0  0
   -6.1110   18.4980  -33.7380 C   0  0  0  0  0  0  0  0  0  0  0  0
   -5.2732   18.2338  -34.4000 H   0  0  0  0  0  0  0  0  0  0  0  0
   -6.8760   17.6070  -32.9970 C   0  0  0  0  0  0  0  0  0  0  0  0
   -6.7108   16.5195  -33.0071 H   0  0  0  0  0  0  0  0  0  0  0  0
   -7.8770   18.2220  -32.2360 C   0  0  0  0  0  0  0  0  0  0  0  0
   -8.5849   17.6633  -31.6061 H   0  0  0  0  0  0  0  0  0  0  0  0
  1  2  1  0
  2  3  1  0
  3  4  2  0
  3  5  1  0
  5  6  2  0
  6  7  1  0
  6  8  1  0
  8  9  2  0
  9 10  1  0
  9 11  1  0
 11 12  1  0
 11 13  2  0
 13 14  1  0
  2 15  2  0
 15 16  1  0
 15 17  1  0
 17 18  1  0
 18 19  1  0
 19 20  1  0
 19 21  2  0
 21 22  1  0
 21 23  1  0
 23 24  1  0
 13  5  1  0
 23 17  2  0
M  END
>  <UniqueID>  (41) 
35

>  <SMILES>  (41) 
O=C(/C=C\c1cccs1)c1cccnc1

>  <Energy>  (41) 
60.90911092189195

>  <Genealogy>  (41) 
O=C(/C=C\c1cccs1)c1cccnc1 (cis-trans isomerization)
O=C(/C=C\c1cccs1)c1cccnc1 (3D coordinates assigned)
O=C(/C=C\c1cccs1)c1cccnc1 (optimized conformer: 60.90911092189195 kcal/mol)

>  <smiles>  (41) 
O=C(C=Cc1cccs1)c1cccnc1

>  <score_type>  (41) 
oracle

>  <origin>  (41) 
adg

>  <m_score__min__energy>  (41) 
-6.8300000000000001

>  <m_primary>  (41) 
energy

$$$$
41:0
     RDKit          3D

 32 34  0  0  0  0  0  0  0  0999 V2000
   -5.6690   22.3320  -30.0370 O   0  0  0  0  0  0  0  0  0  0  0  0
   -4.7830   22.8730  -31.1240 S   0  0  0  0  0  0  0  0  0  0  0  0
   -4.5140   24.3250  -30.8370 O   0  0  0  0  0  0  0  0  0  0  0  0
   -3.2680   21.9870  -31.0940 C   0  0  0  0  0  0  0  0  0  0  0  0
   -2.5730   21.6010  -29.9590 C   0  0  0  0  0  0  0  0  0  0  0  0
   -1.3780   20.9340  -30.2530 C   0  0  0  0  0  0  0  0  0  0  0  0
   -1.1350   20.8000  -31.6140 C   0  0  0  0  0  0  0  0  0  0  0  0
   -2.4070   21.5130  -32.4550 S   0  0  0  0  0  0  0  0  0  0  0  0
   -5.5800   22.6790  -32.6740 N   0  0  2  0  0  0  0  0  0  0  0  0
   -6.9270   23.2870  -32.7090 C   0  0  0  0  0  0  0  0  0  0  0  0
   -7.9180   22.5900  -31.7680 C   0  0  0  0  0  0  0  0  0  0  0  0
   -7.8120   21.0890  -31.8300 C   0  0  0  0  0  0  0  0  0  0  0  0
   -8.8120   20.3070  -31.2300 C   0  0  0  0  0  0  0  0  0  0  0  0
   -8.7090   18.9150  -31.2200 C   0  0  0  0  0  0  0  0  0  0  0  0
   -7.6040   18.2910  -31.8020 C   0  0  0  0  0  0  0  0  0  0  0  0
   -6.5970   19.0580  -32.3910 C   0  0  0  0  0  0  0  0  0  0  0  0
   -6.6820   20.4600  -32.3950 C   0  0  0  0  0  0  0  0  0  0  0  0
   -5.6100   21.2640  -33.0940 C   0  0  0  0  0  0  0  0  0  0  0  0
   -2.9234   21.7980  -28.9351 H   0  0  0  0  0  0  0  0  0  0  0  0
   -0.6958   20.5520  -29.4793 H   0  0  0  0  0  0  0  0  0  0  0  0
   -0.2595   20.3107  -32.0658 H   0  0  0  0  0  0  0  0  0  0  0  0
   -4.9910   23.1970  -33.3680 H   0  0  0  0  0  0  0  0  0  0  0  0
   -6.8439   24.3430  -32.4124 H   0  0  0  0  0  0  0  0  0  0  0  0
   -7.3122   23.1804  -33.7338 H   0  0  0  0  0  0  0  0  0  0  0  0
   -7.7149   22.9159  -30.7372 H   0  0  0  0  0  0  0  0  0  0  0  0
   -8.9337   22.8673  -32.0865 H   0  0  0  0  0  0  0  0  0  0  0  0
   -9.6817   20.7942  -30.7651 H   0  0  0  0  0  0  0  0  0  0  0  0
   -9.4994   18.3090  -30.7530 H   0  0  0  0  0  0  0  0  0  0  0  0
   -7.5267   17.1937  -31.7965 H   0  0  0  0  0  0  0  0  0  0  0  0
   -5.7319   18.5614  -32.8547 H   0  0  0  0  0  0  0  0  0  0  0  0
   -4.6323   20.8120  -32.8711 H   0  0  0  0  0  0  0  0  0  0  0  0
   -5.8365   21.2464  -34.1703 H   0  0  0  0  0  0  0  0  0  0  0  0
  1  2  2  0
  2  3  2  0
  2  4  1  0
  4  5  2  0
  5  6  1  0
  6  7  2  0
  7  8  1  0
  2  9  1  0
  9 10  1  0
 10 11  1  0
 11 12  1  0
 12 13  2  0
 13 14  1  0
 14 15  2  0
 15 16  1  0
 16 17  2  0
 17 18  1  0
  8  4  1  0
 18  9  1  0
 17 12  1  0
  5 19  1  0
  6 20  1  0
  7 21  1  0
  9 22  1  6
 10 23  1  0
 10 24  1  0
 11 25  1  0
 11 26  1  0
 13 27  1  0
 14 28  1  0
 15 29  1  0
 16 30  1  0
 18 31  1  0
 18 32  1  0
M  CHG  1   9   1
M  END
>  <UniqueID>  (42) 
36

>  <SMILES>  (42) 
O=S(=O)(c1cccs1)[N@@H+]1CCc2ccccc2C1

>  <Energy>  (42) 
63.51223229611847

>  <Genealogy>  (42) 
O=S(=O)(c1cccs1)[NH+]1CCc2ccccc2C1 (protonated)
O=S(=O)(c1cccs1)[N@@H+]1CCc2ccccc2C1 (chirality)
O=S(=O)(c1cccs1)[N@@H+]1CCc2ccccc2C1 (3D coordinates assigned)
O=S(=O)(c1cccs1)[N@@H+]1CCc2ccccc2C1 (nonaromatic ring conformer: 63.51223229611847 kcal/mol)

>  <smiles>  (42) 
O=S(=O)(c1cccs1)N1CCc2ccccc2C1

>  <score_type>  (42) 
oracle

>  <origin>  (42) 
adg

>  <m_score__min__energy>  (42) 
-6.8799999999999999

>  <m_primary>  (42) 
energy

$$$$
42:0
     RDKit          3D

 25 26  0  0  1  0  0  0  0  0999 V2000
   -6.7690   19.4860  -32.7240 C   0  0  0  0  0  0  0  0  0  0  0  0
   -7.0850   20.9430  -32.3600 C   0  0  0  0  0  0  0  0  0  0  0  0
   -8.3690   21.2550  -32.0090 C   0  0  0  0  0  0  0  0  0  0  0  0
   -8.2730   23.0870  -31.6350 S   0  0  0  0  0  0  0  0  0  0  0  0
   -6.4920   23.1330  -32.0210 C   0  0  0  0  0  0  0  0  0  0  0  0
   -5.7550   24.1830  -31.9630 N   0  0  0  0  0  0  0  0  0  0  0  0
   -4.9120   24.3210  -30.8380 C   0  0  0  0  0  0  0  0  0  0  0  0
   -4.0070   25.2100  -30.8160 O   0  0  0  0  0  0  0  0  0  0  0  0
   -5.0020   23.4710  -29.6170 C   0  0  0  0  0  0  0  0  0  0  0  0
   -3.6710   22.2100  -29.6250 S   0  0  0  0  0  0  0  0  0  0  0  0
   -3.4560   21.6330  -31.3220 C   0  0  0  0  0  0  0  0  0  0  0  0
   -3.6920   20.3290  -31.6410 N   0  0  0  0  0  0  0  0  0  0  0  0
   -3.4270   20.2280  -32.9540 C   0  0  0  0  0  0  0  0  0  0  0  0
   -3.0360   21.4380  -33.4400 N   0  0  0  0  0  0  0  0  0  0  0  0
   -3.0610   22.3010  -32.4090 N   0  0  0  0  0  0  0  0  0  0  0  0
   -6.1690   21.8560  -32.3670 N   0  0  0  0  0  0  0  0  0  0  0  0
   -6.6414   18.8975  -31.8035 H   0  0  0  0  0  0  0  0  0  0  0  0
   -7.5973   19.0677  -33.3147 H   0  0  0  0  0  0  0  0  0  0  0  0
   -5.8418   19.4485  -33.3147 H   0  0  0  0  0  0  0  0  0  0  0  0
   -9.2449   20.5915  -31.9586 H   0  0  0  0  0  0  0  0  0  0  0  0
   -4.8968   24.1049  -28.7242 H   0  0  0  0  0  0  0  0  0  0  0  0
   -5.9778   22.9634  -29.6038 H   0  0  0  0  0  0  0  0  0  0  0  0
   -3.5130   19.3058  -33.5475 H   0  0  0  0  0  0  0  0  0  0  0  0
   -2.7720   21.6510  -34.4420 H   0  0  0  0  0  0  0  0  0  0  0  0
   -5.1430   21.6700  -32.6330 H   0  0  0  0  0  0  0  0  0  0  0  0
  1  2  1  0
  2  3  2  0
  3  4  1  0
  4  5  1  0
  5  6  2  0
  6  7  1  0
  7  8  2  0
  7  9  1  0
  9 10  1  0
 10 11  1  0
 11 12  1  0
 12 13  2  0
 13 14  1  0
 14 15  1  0
  5 16  1  0
 16  2  1  0
 15 11  2  0
  1 17  1  0
  1 18  1  0
  1 19  1  0
  3 20  1  0
  9 21  1  0
  9 22  1  0
 13 23  1  0
 14 24  1  0
 16 25  1  0
M  END
>  <smiles>  (43) 
Cc1csc(=NC(=O)CSc2nc[nH]n2)[nH]1

>  <score_type>  (43) 
oracle

>  <origin>  (43) 
adg

>  <m_score__min__energy>  (43) 
-6.4299999999999997

>  <m_primary>  (43) 
energy

$$$$
43:0
     RDKit          3D

 38 40  0  0  0  0  0  0  0  0999 V2000
   -9.5130   21.9870  -31.6620 C   0  0  0  0  0  0  0  0  0  0  0  0
   -8.4290   20.9460  -31.6670 C   0  0  0  0  0  0  0  0  0  0  0  0
   -8.7250   19.6380  -31.2440 C   0  0  0  0  0  0  0  0  0  0  0  0
   -7.7350   18.6530  -31.2410 C   0  0  0  0  0  0  0  0  0  0  0  0
   -6.4450   18.9570  -31.6710 C   0  0  0  0  0  0  0  0  0  0  0  0
   -6.1370   20.2480  -32.1050 C   0  0  0  0  0  0  0  0  0  0  0  0
   -7.1180   21.2570  -32.1010 C   0  0  0  0  0  0  0  0  0  0  0  0
   -6.8030   22.5730  -32.5880 N   0  0  0  0  0  0  0  0  0  0  0  0
   -6.1520   23.5640  -31.7760 C   0  0  0  0  0  0  0  0  0  0  0  0
   -6.7860   24.5790  -31.2250 O   0  0  0  0  0  0  0  0  0  0  0  0
   -5.9250   25.2990  -30.5420 C   0  0  0  0  0  0  0  0  0  0  0  0
   -4.6770   24.7290  -30.6560 C   0  0  0  0  0  0  0  0  0  0  0  0
   -3.5080   25.2260  -30.0920 O   0  0  0  0  0  0  0  0  0  0  0  0
   -4.7990   23.6070  -31.4510 C   0  0  0  0  0  0  0  0  0  0  0  0
   -3.7110   22.6940  -31.8630 C   0  0  0  0  0  0  0  0  0  0  0  0
   -2.7310   22.5000  -31.0950 O   0  0  0  0  0  0  0  0  0  0  0  0
   -3.7530   22.0510  -33.1480 N   0  0  0  0  0  0  0  0  0  0  0  0
   -2.9610   20.9020  -33.4950 C   0  0  0  0  0  0  0  0  0  0  0  0
   -3.5310   19.6190  -33.5900 C   0  0  0  0  0  0  0  0  0  0  0  0
   -2.7430   18.5210  -33.9520 C   0  0  0  0  0  0  0  0  0  0  0  0
   -1.3850   18.6950  -34.2320 C   0  0  0  0  0  0  0  0  0  0  0  0
   -0.6230   17.6310  -34.5840 F   0  0  0  0  0  0  0  0  0  0  0  0
   -0.8150   19.9690  -34.1600 C   0  0  0  0  0  0  0  0  0  0  0  0
   -1.6020   21.0690  -33.8020 C   0  0  0  0  0  0  0  0  0  0  0  0
   -9.7750   22.2386  -30.6237 H   0  0  0  0  0  0  0  0  0  0  0  0
   -9.1566   22.8900  -32.1793 H   0  0  0  0  0  0  0  0  0  0  0  0
  -10.4008   21.5944  -32.1793 H   0  0  0  0  0  0  0  0  0  0  0  0
   -9.7440   19.3888  -30.9130 H   0  0  0  0  0  0  0  0  0  0  0  0
   -7.9741   17.6354  -30.8986 H   0  0  0  0  0  0  0  0  0  0  0  0
   -5.6678   18.1786  -31.6686 H   0  0  0  0  0  0  0  0  0  0  0  0
   -5.1192   20.4782  -32.4529 H   0  0  0  0  0  0  0  0  0  0  0  0
   -7.1080   22.8240  -33.5520 H   0  0  0  0  0  0  0  0  0  0  0  0
   -6.1626   26.2092  -29.9718 H   0  0  0  0  0  0  0  0  0  0  0  0
   -4.3050   22.5110  -33.9060 H   0  0  0  0  0  0  0  0  0  0  0  0
   -4.6013   19.4786  -33.3786 H   0  0  0  0  0  0  0  0  0  0  0  0
   -3.1931   17.5194  -34.0163 H   0  0  0  0  0  0  0  0  0  0  0  0
    0.2529   20.1070  -34.3849 H   0  0  0  0  0  0  0  0  0  0  0  0
   -1.1522   22.0720  -33.7609 H   0  0  0  0  0  0  0  0  0  0  0  0
  1  2  1  0
  2  3  2  0
  3  4  1  0
  4  5  2  0
  5  6  1  0
  6  7  2  0
  7  8  1  0
  8  9  1  0
  9 10  1  0
 10 11  1  0
 11 12  2  0
 12 13  1  0
 12 14  1  0
 14 15  1  0
 15 16  2  0
 15 17  1  0
 17 18  1  0
 18 19  2  0
 19 20  1  0
 20 21  2  0
 21 22  1  0
 21 23  1  0
 23 24  2  0
  7  2  1  0
 14  9  2  0
 24 18  1  0
  1 25  1  0
  1 26  1  0
  1 27  1  0
  3 28  1  0
  4 29  1  0
  5 30  1  0
  6 31  1  0
  8 32  1  0
 11 33  1  0
 17 34  1  0
 19 35  1  0
 20 36  1  0
 23 37  1  0
 24 38  1  0
M  CHG  1  13  -1
M  END
>  <UniqueID>  (44) 
37

>  <SMILES>  (44) 
Cc1ccccc1Nc1occ([O-])c1C(=O)Nc1ccc(F)cc1

>  <Energy>  (44) 
79.23786088169568

>  <Genealogy>  (44) 
Cc1ccccc1Nc1occ([O-])c1C(=O)Nc1ccc(F)cc1 (protonated)
Cc1ccccc1Nc1occ([O-])c1C(=O)Nc1ccc(F)cc1 (3D coordinates assigned)
Cc1ccccc1Nc1occ([O-])c1C(=O)Nc1ccc(F)cc1 (optimized conformer: 79.23786088169568 kcal/mol)

>  <smiles>  (44) 
Cc1ccccc1Nc1occ(O)c1C(=O)Nc1ccc(F)cc1

>  <score_type>  (44) 
oracle

>  <origin>  (44) 
adg

>  <m_score__min__energy>  (44) 
-10.550000000000001

>  <m_primary>  (44) 
energy

$$$$
44:0
     RDKit          3D

 28 30  0  0  0  0  0  0  0  0999 V2000
   -3.4890   25.2990  -30.4570 O   0  0  0  0  0  0  0  0  0  0  0  0
   -4.6600   24.5820  -30.6830 C   0  0  0  0  0  0  0  0  0  0  0  0
   -5.8820   25.1350  -30.2990 C   0  0  0  0  0  0  0  0  0  0  0  0
   -7.0650   24.4200  -30.4770 C   0  0  0  0  0  0  0  0  0  0  0  0
   -7.0490   23.1500  -31.0680 C   0  0  0  0  0  0  0  0  0  0  0  0
   -5.8140   22.5890  -31.4770 C   0  0  0  0  0  0  0  0  0  0  0  0
   -4.6140   23.3110  -31.2820 C   0  0  0  0  0  0  0  0  0  0  0  0
   -3.2750   22.6780  -31.5880 C   0  0  0  0  0  0  0  0  0  0  0  0
   -3.3890   21.4200  -32.4600 C   0  0  0  0  0  0  0  0  0  0  0  0
   -4.5080   20.5710  -32.0320 N   0  0  0  0  0  0  0  0  0  0  0  0
   -5.7800   21.2790  -32.2400 C   0  0  1  0  0  0  0  0  0  0  0  0
   -6.9590   20.3770  -31.8600 C   0  0  0  0  0  0  0  0  0  0  0  0
   -8.2710   21.1400  -32.0480 C   0  0  0  0  0  0  0  0  0  0  0  0
   -8.3350   22.3550  -31.1150 C   0  0  0  0  0  0  0  0  0  0  0  0
   -5.9119   26.1403  -29.8535 H   0  0  0  0  0  0  0  0  0  0  0  0
   -8.0202   24.8570  -30.1504 H   0  0  0  0  0  0  0  0  0  0  0  0
   -2.6520   23.4148  -32.1162 H   0  0  0  0  0  0  0  0  0  0  0  0
   -2.8294   22.3735  -30.6295 H   0  0  0  0  0  0  0  0  0  0  0  0
   -3.5487   21.7225  -33.5055 H   0  0  0  0  0  0  0  0  0  0  0  0
   -2.4581   20.8429  -32.3585 H   0  0  0  0  0  0  0  0  0  0  0  0
   -4.3930   20.3490  -31.0130 H   0  0  0  0  0  0  0  0  0  0  0  0
   -5.8676   21.5258  -33.3084 H   0  0  0  0  0  0  0  0  0  0  0  0
   -6.9592   19.4846  -32.5032 H   0  0  0  0  0  0  0  0  0  0  0  0
   -6.8613   20.0727  -30.8075 H   0  0  0  0  0  0  0  0  0  0  0  0
   -8.3424   21.4824  -33.0909 H   0  0  0  0  0  0  0  0  0  0  0  0
   -9.1070   20.4669  -31.8069 H   0  0  0  0  0  0  0  0  0  0  0  0
   -9.1413   23.0179  -31.4619 H   0  0  0  0  0  0  0  0  0  0  0  0
   -8.5157   21.9730  -30.0994 H   0  0  0  0  0  0  0  0  0  0  0  0
  1  2  1  0
  2  3  2  0
  3  4  1  0
  4  5  2  0
  5  6  1  0
  6  7  2  0
  7  8  1  0
  8  9  1  0
  9 10  1  0
 10 11  1  0
 11 12  1  0
 12 13  1  0
 13 14  1  0
  7  2  1  0
 14  5  1  0
 11  6  1  0
  3 15  1  0
  4 16  1  0
  8 17  1  0
  8 18  1  0
  9 19  1  0
  9 20  1  0
 10 21  1  0
 11 22  1  6
 12 23  1  0
 12 24  1  0
 13 25  1  0
 13 26  1  0
 14 27  1  0
 14 28  1  0
M  CHG  1   1  -1
M  END
>  <UniqueID>  (45) 
38

>  <SMILES>  (45) 
[O-]c1ccc2c3c1CCN[C@H]3CCC2

>  <Energy>  (45) 
32.65782477999966

>  <Genealogy>  (45) 
[O-]c1ccc2c3c1CCNC3CCC2 (protonated)
[O-]c1ccc2c3c1CCN[C@H]3CCC2 (chirality)
[O-]c1ccc2c3c1CCN[C@H]3CCC2 (3D coordinates assigned)
[O-]c1ccc2c3c1CCN[C@H]3CCC2 (nonaromatic ring conformer: 32.65782477999966 kcal/mol)

>  <smiles>  (45) 
Oc1ccc2c3c1CCNC3CCC2

>  <score_type>  (45) 
oracle

>  <origin>  (45) 
adg

>  <m_score__min__energy>  (45) 
-9.7599999999999998

>  <m_primary>  (45) 
energy

$$$$
45:0
     RDKit          3D

 36 39  0  0  0  0  0  0  0  0999 V2000
   -8.4080   23.8147  -30.8141 H   0  0  0  0  0  0  0  0  0  0  0  0
   -7.3160   23.7260  -30.9120 C   0  0  0  0  0  0  0  0  0  0  0  0
   -6.1860   24.8880  -30.4670 S   0  0  0  0  0  0  0  0  0  0  0  0
   -4.8770   23.9600  -30.9560 C   0  0  0  0  0  0  0  0  0  0  0  0
   -3.5140   24.3540  -30.7580 N   0  0  0  0  0  0  0  0  0  0  0  0
   -2.8030   24.2550  -29.6720 C   0  0  0  0  0  0  0  0  0  0  0  0
   -2.9850   22.9760  -28.5800 S   0  0  0  0  0  0  0  0  0  0  0  0
   -1.8130   23.5940  -27.5460 C   0  0  0  0  0  0  0  0  0  0  0  0
   -1.3600   23.0750  -26.3370 C   0  0  0  0  0  0  0  0  0  0  0  0
   -1.7659   22.1338  -25.9379 H   0  0  0  0  0  0  0  0  0  0  0  0
   -0.3700   23.7870  -25.6410 C   0  0  0  0  0  0  0  0  0  0  0  0
    0.0105   23.4013  -24.6837 H   0  0  0  0  0  0  0  0  0  0  0  0
    0.1390   24.9940  -26.1630 C   0  0  0  0  0  0  0  0  0  0  0  0
    0.9140   25.5447  -25.6097 H   0  0  0  0  0  0  0  0  0  0  0  0
   -0.3370   25.4980  -27.3850 C   0  0  0  0  0  0  0  0  0  0  0  0
    0.0564   26.4404  -27.7938 H   0  0  0  0  0  0  0  0  0  0  0  0
   -1.3190   24.7800  -28.0710 C   0  0  0  0  0  0  0  0  0  0  0  0
   -1.8700   25.1550  -29.2550 N   0  0  0  0  0  0  0  0  0  0  0  0
   -1.6170   26.0450  -29.7340 H   0  0  0  0  0  0  0  0  0  0  0  0
   -5.2690   22.7560  -31.4240 N   0  0  0  0  0  0  0  0  0  0  0  0
   -6.6240   22.6280  -31.4280 C   0  0  0  0  0  0  0  0  0  0  0  0
   -7.2780   21.3810  -31.8740 C   0  0  0  0  0  0  0  0  0  0  0  0
   -8.6080   21.1450  -31.4850 C   0  0  0  0  0  0  0  0  0  0  0  0
   -9.1312   21.8815  -30.8575 H   0  0  0  0  0  0  0  0  0  0  0  0
   -9.2710   19.9840  -31.8880 C   0  0  0  0  0  0  0  0  0  0  0  0
  -10.3151   19.8152  -31.5858 H   0  0  0  0  0  0  0  0  0  0  0  0
   -8.6120   19.0380  -32.6730 C   0  0  0  0  0  0  0  0  0  0  0  0
   -9.1389   18.1277  -32.9952 H   0  0  0  0  0  0  0  0  0  0  0  0
   -7.2840   19.2460  -33.0500 C   0  0  0  0  0  0  0  0  0  0  0  0
   -6.7673   18.4953  -33.6660 H   0  0  0  0  0  0  0  0  0  0  0  0
   -6.6040   20.4050  -32.6490 C   0  0  0  0  0  0  0  0  0  0  0  0
   -4.8650   20.5590  -33.0890 S   0  0  0  0  0  0  0  0  0  0  0  0
   -4.7860   18.9100  -33.8560 C   0  0  0  0  0  0  0  0  0  0  0  0
   -4.7492   18.1414  -33.0700 H   0  0  0  0  0  0  0  0  0  0  0  0
   -5.6777   18.7531  -34.4808 H   0  0  0  0  0  0  0  0  0  0  0  0
   -3.8834   18.8391  -34.4808 H   0  0  0  0  0  0  0  0  0  0  0  0
  1  2  1  0
  2  3  1  0
  3  4  1  0
  4  5  1  0
  5  6  2  0
  6  7  1  0
  7  8  1  0
  8  9  2  0
  9 10  1  0
  9 11  1  0
 11 12  1  0
 11 13  2  0
 13 14  1  0
 13 15  1  0
 15 16  1  0
 15 17  2  0
 17 18  1  0
 18 19  1  0
  4 20  2  0
 20 21  1  0
 21 22  1  0
 22 23  2  0
 23 24  1  0
 23 25  1  0
 25 26  1  0
 25 27  2  0
 27 28  1  0
 27 29  1  0
 29 30  1  0
 29 31  2  0
 31 32  1  0
 32 33  1  0
 33 34  1  0
 33 35  1  0
 33 36  1  0
 21  2  2  0
 31 22  1  0
 18  6  1  0
 17  8  1  0
M  END
>  <UniqueID>  (46) 
39

>  <SMILES>  (46) 
CSc1ccccc1-c1csc(/N=c2\[nH]c3ccccc3s2)n1

>  <Energy>  (46) 
111.68498501382727

>  <Genealogy>  (46) 
CSc1ccccc1-c1csc(/N=c2\[nH]c3ccccc3s2)n1 (cis-trans isomerization)
CSc1ccccc1-c1csc(/N=c2\[nH]c3ccccc3s2)n1 (3D coordinates assigned)
CSc1ccccc1-c1csc(/N=c2\[nH]c3ccccc3s2)n1 (optimized conformer: 111.68498501382727 kcal/mol)

>  <smiles>  (46) 
CSc1ccccc1-c1csc(N=c2[nH]c3ccccc3s2)n1

>  <score_type>  (46) 
oracle

>  <origin>  (46) 
adg

>  <m_score__min__energy>  (46) 
-9.4600000000000009

>  <m_primary>  (46) 
energy

$$$$
46:0
     RDKit          3D

 45 46  0  0  0  0  0  0  0  0999 V2000
   -5.4630   16.0430  -33.8670 C   0  0  0  0  0  0  0  0  0  0  0  0
   -6.8010   16.4830  -33.4900 N   0  0  0  0  0  0  0  0  0  0  0  0
   -7.1100   17.8280  -33.0780 C   0  0  0  0  0  0  0  0  0  0  0  0
   -6.4750   18.9050  -33.7170 C   0  0  0  0  0  0  0  0  0  0  0  0
   -6.7620   20.2210  -33.3460 C   0  0  0  0  0  0  0  0  0  0  0  0
   -7.6850   20.4840  -32.3230 C   0  0  0  0  0  0  0  0  0  0  0  0
   -8.0430   21.9030  -31.9640 C   0  0  0  0  0  0  0  0  0  0  0  0
   -6.8470   22.6390  -31.5270 N   0  0  0  0  0  0  0  0  0  0  0  0
   -7.1410   23.4530  -30.3360 C   0  0  0  0  0  0  0  0  0  0  0  0
   -6.4410   24.8200  -30.3940 C   0  0  0  0  0  0  0  0  0  0  0  0
   -5.0150   24.6880  -30.8290 C   0  0  0  0  0  0  0  0  0  0  0  0
   -4.2360   25.6740  -30.7240 O   0  0  0  0  0  0  0  0  0  0  0  0
   -4.5720   23.4820  -31.3820 O   0  0  0  0  0  0  0  0  0  0  0  0
   -3.5470   22.6880  -30.7930 C   0  0  0  0  0  0  0  0  0  0  0  0
   -2.9610   21.7610  -31.8240 C   0  0  0  0  0  0  0  0  0  0  0  0
   -1.5700   21.5880  -31.8980 C   0  0  0  0  0  0  0  0  0  0  0  0
   -1.0200   20.6950  -32.8250 C   0  0  0  0  0  0  0  0  0  0  0  0
   -1.8560   19.9590  -33.6680 C   0  0  0  0  0  0  0  0  0  0  0  0
   -3.2420   20.1150  -33.5900 C   0  0  0  0  0  0  0  0  0  0  0  0
   -3.7950   21.0120  -32.6700 C   0  0  0  0  0  0  0  0  0  0  0  0
   -8.3240   19.4120  -31.6830 C   0  0  0  0  0  0  0  0  0  0  0  0
   -8.0380   18.0940  -32.0530 C   0  0  0  0  0  0  0  0  0  0  0  0
   -4.8718   15.8486  -32.9600 H   0  0  0  0  0  0  0  0  0  0  0  0
   -5.5345   15.1210  -34.4627 H   0  0  0  0  0  0  0  0  0  0  0  0
   -4.9733   16.8274  -34.4627 H   0  0  0  0  0  0  0  0  0  0  0  0
   -7.5680   15.7730  -33.5110 H   0  0  0  0  0  0  0  0  0  0  0  0
   -5.7451   18.7109  -34.5168 H   0  0  0  0  0  0  0  0  0  0  0  0
   -6.2614   21.0555  -33.8589 H   0  0  0  0  0  0  0  0  0  0  0  0
   -8.4739   22.4019  -32.8446 H   0  0  0  0  0  0  0  0  0  0  0  0
   -8.7736   21.8894  -31.1418 H   0  0  0  0  0  0  0  0  0  0  0  0
   -6.0910   21.9510  -31.2990 H   0  0  0  0  0  0  0  0  0  0  0  0
   -6.5260   23.2620  -32.3070 H   0  0  0  0  0  0  0  0  0  0  0  0
   -8.2276   23.6115  -30.2721 H   0  0  0  0  0  0  0  0  0  0  0  0
   -6.7682   22.9144  -29.4523 H   0  0  0  0  0  0  0  0  0  0  0  0
   -6.9743   25.4647  -31.1081 H   0  0  0  0  0  0  0  0  0  0  0  0
   -6.4549   25.2580  -29.3850 H   0  0  0  0  0  0  0  0  0  0  0  0
   -2.7562   23.3449  -30.4017 H   0  0  0  0  0  0  0  0  0  0  0  0
   -3.9758   22.0931  -29.9731 H   0  0  0  0  0  0  0  0  0  0  0  0
   -0.9102   22.1559  -31.2255 H   0  0  0  0  0  0  0  0  0  0  0  0
    0.0713   20.5727  -32.8897 H   0  0  0  0  0  0  0  0  0  0  0  0
   -1.4224   19.2557  -34.3942 H   0  0  0  0  0  0  0  0  0  0  0  0
   -3.8989   19.5322  -34.2524 H   0  0  0  0  0  0  0  0  0  0  0  0
   -4.8868   21.1311  -32.6090 H   0  0  0  0  0  0  0  0  0  0  0  0
   -9.0548   19.6092  -30.8849 H   0  0  0  0  0  0  0  0  0  0  0  0
   -8.5408   17.2606  -31.5405 H   0  0  0  0  0  0  0  0  0  0  0  0
  1  2  1  0
  2  3  1  0
  3  4  2  0
  4  5  1  0
  5  6  2  0
  6  7  1  0
  7  8  1  0
  8  9  1  0
  9 10  1  0
 10 11  1  0
 11 12  2  0
 11 13  1  0
 13 14  1  0
 14 15  1  0
 15 16  2  0
 16 17  1  0
 17 18  2  0
 18 19  1  0
 19 20  2  0
  6 21  1  0
 21 22  2  0
 22  3  1  0
 20 15  1  0
  1 23  1  0
  1 24  1  0
  1 25  1  0
  2 26  1  0
  4 27  1  0
  5 28  1  0
  7 29  1  0
  7 30  1  0
  8 31  1  0
  8 32  1  0
  9 33  1  0
  9 34  1  0
 10 35  1  0
 10 36  1  0
 14 37  1  0
 14 38  1  0
 16 39  1  0
 17 40  1  0
 18 41  1  0
 19 42  1  0
 20 43  1  0
 21 44  1  0
 22 45  1  0
M  CHG  1   8   1
M  END
>  <UniqueID>  (47) 
40

>  <SMILES>  (47) 
CNc1ccc(C[NH2+]CCC(=O)OCc2ccccc2)cc1

>  <Energy>  (47) 
34.0540437173873

>  <Genealogy>  (47) 
CNc1ccc(C[NH2+]CCC(=O)OCc2ccccc2)cc1 (protonated)
CNc1ccc(C[NH2+]CCC(=O)OCc2ccccc2)cc1 (3D coordinates assigned)
CNc1ccc(C[NH2+]CCC(=O)OCc2ccccc2)cc1 (optimized conformer: 34.0540437173873 kcal/mol)

>  <smiles>  (47) 
CNc1ccc(CNCCC(=O)OCc2ccccc2)cc1

>  <score_type>  (47) 
oracle

>  <origin>  (47) 
adg

>  <m_score__min__energy>  (47) 
-7.5899999999999999

>  <m_primary>  (47) 
energy

$$$$
47:0
     RDKit          3D

 45 48  0  0  0  0  0  0  0  0999 V2000
    0.4564   18.6277  -30.6674 H   0  0  0  0  0  0  0  0  0  0  0  0
   -0.2180   19.4680  -30.8890 C   0  0  0  0  0  0  0  0  0  0  0  0
    0.0580   20.7070  -30.4030 N   0  0  0  0  0  0  0  0  0  0  0  0
   -0.7500   21.7620  -30.6850 C   0  0  0  0  0  0  0  0  0  0  0  0
   -0.5235   22.7551  -30.2696 H   0  0  0  0  0  0  0  0  0  0  0  0
   -1.8690   21.5850  -31.5030 C   0  0  0  0  0  0  0  0  0  0  0  0
   -2.7800   22.6600  -31.7680 N   0  0  0  0  0  0  0  0  0  0  0  0
   -4.0860   22.6670  -31.8340 C   0  0  0  0  0  0  0  0  0  0  0  0
   -4.6660   21.6870  -32.5770 N   0  0  0  0  0  0  0  0  0  0  0  0
   -6.0090   21.5210  -32.6570 C   0  0  0  0  0  0  0  0  0  0  0  0
   -6.4321   20.7130  -33.2719 H   0  0  0  0  0  0  0  0  0  0  0  0
   -6.8540   22.3870  -31.9500 C   0  0  0  0  0  0  0  0  0  0  0  0
   -8.3640   22.2810  -31.9270 C   0  0  0  0  0  0  0  0  0  0  0  0
   -8.5024   23.2674  -32.3938 H   0  0  0  0  0  0  0  0  0  0  0  0
   -8.9970   21.5500  -30.7520 C   0  0  0  0  0  0  0  0  0  0  0  0
   -8.3638   21.1562  -29.9434 H   0  0  0  0  0  0  0  0  0  0  0  0
   -9.7834   21.7871  -30.0204 H   0  0  0  0  0  0  0  0  0  0  0  0
   -8.9670   20.8990  -32.1290 C   0  0  0  0  0  0  0  0  0  0  0  0
   -8.3122   20.0349  -32.3148 H   0  0  0  0  0  0  0  0  0  0  0  0
   -9.7229   20.4711  -32.8039 H   0  0  0  0  0  0  0  0  0  0  0  0
   -6.2870   23.4090  -31.2630 N   0  0  0  0  0  0  0  0  0  0  0  0
   -4.9430   23.6040  -31.1760 C   0  0  0  0  0  0  0  0  0  0  0  0
   -4.5040   24.8800  -30.5580 C   0  0  0  0  0  0  0  0  0  0  0  0
   -5.1010   25.9490  -30.8480 O   0  0  0  0  0  0  0  0  0  0  0  0
   -3.5430   24.9150  -29.4920 N   0  0  0  0  0  0  0  0  0  0  0  0
   -3.0680   23.7960  -28.7260 C   0  0  0  0  0  0  0  0  0  0  0  0
   -3.9220   22.7260  -28.3970 C   0  0  0  0  0  0  0  0  0  0  0  0
   -5.2000   22.6980  -28.8400 F   0  0  0  0  0  0  0  0  0  0  0  0
   -3.4530   21.6660  -27.6170 C   0  0  0  0  0  0  0  0  0  0  0  0
   -4.1289   20.8396  -27.3519 H   0  0  0  0  0  0  0  0  0  0  0  0
   -2.1300   21.6520  -27.1730 C   0  0  0  0  0  0  0  0  0  0  0  0
   -1.6780   20.6190  -26.4200 F   0  0  0  0  0  0  0  0  0  0  0  0
   -1.2670   22.6970  -27.5130 C   0  0  0  0  0  0  0  0  0  0  0  0
   -0.2222   22.6779  -27.1694 H   0  0  0  0  0  0  0  0  0  0  0  0
   -1.7270   23.7710  -28.2910 C   0  0  0  0  0  0  0  0  0  0  0  0
   -0.8020   24.8670  -28.6380 C   0  0  0  0  0  0  0  0  0  0  0  0
   -1.2290   25.8410  -29.3130 O   0  0  0  0  0  0  0  0  0  0  0  0
    0.5650   24.8650  -28.2090 N   0  0  0  0  0  0  0  0  0  0  0  0
    1.0580   25.6040  -27.0550 C   0  0  0  0  0  0  0  0  0  0  0  0
    0.7261   25.1064  -26.1318 H   0  0  0  0  0  0  0  0  0  0  0  0
    2.1573   25.6334  -27.0808 H   0  0  0  0  0  0  0  0  0  0  0  0
    0.6630   26.6303  -27.0808 H   0  0  0  0  0  0  0  0  0  0  0  0
   -2.1610   20.2950  -31.9510 C   0  0  0  0  0  0  0  0  0  0  0  0
   -3.0661   20.1114  -32.5486 H   0  0  0  0  0  0  0  0  0  0  0  0
   -1.3260   19.2670  -31.6480 N   0  0  0  0  0  0  0  0  0  0  0  0
  1  2  1  0
  2  3  2  0
  3  4  1  0
  4  5  1  0
  4  6  2  0
  6  7  1  0
  7  8  2  0
  8  9  1  0
  9 10  1  0
 10 11  1  0
 10 12  2  0
 12 13  1  0
 13 14  1  0
 13 15  1  0
 15 16  1  0
 15 17  1  0
 15 18  1  0
 18 19  1  0
 18 20  1  0
 12 21  1  0
 21 22  2  0
 22 23  1  0
 23 24  2  0
 23 25  1  0
 25 26  1  0
 26 27  2  0
 27 28  1  0
 27 29  1  0
 29 30  1  0
 29 31  2  0
 31 32  1  0
 31 33  1  0
 33 34  1  0
 33 35  2  0
 35 36  1  0
 36 37  2  0
 36 38  1  0
 38 39  1  0
 39 40  1  0
 39 41  1  0
 39 42  1  0
  6 43  1  0
 43 44  1  0
 43 45  2  0
 45  2  1  0
 22  8  1  0
 35 26  1  0
 18 13  1  0
M  CHG  3   9  -1  25  -1  38  -1
M  END
>  <UniqueID>  (48) 
41

>  <SMILES>  (48) 
C[N-]C(=O)c1cc(F)cc(F)c1[N-]C(=O)c1nc(C2CC2)c[n-]/c1=N/c1cncnc1

>  <Energy>  (48) 
349.61541825068025

>  <Genealogy>  (48) 
C[N-]C(=O)c1cc(F)cc(F)c1[N-]C(=O)c1nc(C2CC2)c[n-]c1=Nc1cncnc1 (protonated)
C[N-]C(=O)c1cc(F)cc(F)c1[N-]C(=O)c1nc(C2CC2)c[n-]/c1=N/c1cncnc1 (cis-trans isomerization)
C[N-]C(=O)c1cc(F)cc(F)c1[N-]C(=O)c1nc(C2CC2)c[n-]/c1=N/c1cncnc1 (3D coordinates assigned)
C[N-]C(=O)c1cc(F)cc(F)c1[N-]C(=O)c1nc(C2CC2)c[n-]/c1=N/c1cncnc1 (nonaromatic ring conformer: 349.61541825068025 kcal/mol)

>  <smiles>  (48) 
CNC(=O)c1cc(F)cc(F)c1NC(=O)c1nc(C2CC2)c[nH]c1=Nc1cncnc1

>  <score_type>  (48) 
oracle

>  <origin>  (48) 
adg

>  <m_score__min__energy>  (48) 
-10.470000000000001

>  <m_primary>  (48) 
energy

$$$$
