0:0
     RDKit          3D

 51 53  0  0  0  0  0  0  0  0999 V2000
   -5.3870   17.8620  -34.9530 C   0  0  0  0  0  0  0  0  0  0  0  0
   -5.3750   16.5730  -34.1300 C   0  0  0  0  0  0  0  0  0  0  0  0
   -4.3100   16.6120  -33.1110 N   0  0  0  0  0  0  0  0  0  0  0  0
   -2.9730   16.3540  -33.6840 C   0  0  0  0  0  0  0  0  0  0  0  0
   -2.0250   17.5590  -33.5820 C   0  0  0  0  0  0  0  0  0  0  0  0
   -2.6970   18.6510  -32.9820 O   0  0  0  0  0  0  0  0  0  0  0  0
   -2.5110   19.8460  -33.7200 C   0  0  0  0  0  0  0  0  0  0  0  0
   -3.4490   20.9770  -33.2690 C   0  0  0  0  0  0  0  0  0  0  0  0
   -4.1410   20.6420  -32.0210 N   0  0  0  0  0  0  0  0  0  0  0  0
   -5.4040   21.2400  -31.6900 C   0  0  0  0  0  0  0  0  0  0  0  0
   -6.5860   20.5150  -31.9250 C   0  0  0  0  0  0  0  0  0  0  0  0
   -6.5430   19.1350  -32.2220 C   0  0  0  0  0  0  0  0  0  0  0  0
   -7.7160   18.4150  -32.4310 C   0  0  0  0  0  0  0  0  0  0  0  0
   -8.9500   19.0490  -32.3300 C   0  0  0  0  0  0  0  0  0  0  0  0
   -9.0150   20.4130  -32.0430 C   0  0  0  0  0  0  0  0  0  0  0  0
   -7.8350   21.1800  -31.8660 C   0  0  0  0  0  0  0  0  0  0  0  0
   -7.8770   22.5420  -31.6570 N   0  0  0  0  0  0  0  0  0  0  0  0
   -9.1080   23.3010  -31.9690 C   0  0  0  0  0  0  0  0  0  0  0  0
   -6.7610   23.2000  -31.1740 C   0  0  0  0  0  0  0  0  0  0  0  0
   -6.8630   24.5100  -30.6420 C   0  0  0  0  0  0  0  0  0  0  0  0
   -5.7440   25.1880  -30.1740 C   0  0  0  0  0  0  0  0  0  0  0  0
   -4.4990   24.5780  -30.2020 C   0  0  0  0  0  0  0  0  0  0  0  0
   -4.3500   23.2760  -30.6860 C   0  0  0  0  0  0  0  0  0  0  0  0
   -2.7280   22.6010  -30.5230 Cl  0  0  0  0  0  0  0  0  0  0  0  0
   -5.4840   22.5620  -31.1830 C   0  0  0  0  0  0  0  0  0  0  0  0
   -5.3951   18.7291  -34.2762 H   0  0  0  0  0  0  0  0  0  0  0  0
   -4.4892   17.9004  -35.5874 H   0  0  0  0  0  0  0  0  0  0  0  0
   -6.2854   17.8836  -35.5874 H   0  0  0  0  0  0  0  0  0  0  0  0
   -6.3479   16.4551  -33.6304 H   0  0  0  0  0  0  0  0  0  0  0  0
   -5.1859   15.7254  -34.8052 H   0  0  0  0  0  0  0  0  0  0  0  0
   -4.3160   17.5400  -32.6250 H   0  0  0  0  0  0  0  0  0  0  0  0
   -4.4940   15.8720  -32.3930 H   0  0  0  0  0  0  0  0  0  0  0  0
   -2.5205   15.5074  -33.1470 H   0  0  0  0  0  0  0  0  0  0  0  0
   -3.1130   16.1393  -34.7537 H   0  0  0  0  0  0  0  0  0  0  0  0
   -1.1529   17.2862  -32.9695 H   0  0  0  0  0  0  0  0  0  0  0  0
   -1.6951   17.8468  -34.5911 H   0  0  0  0  0  0  0  0  0  0  0  0
   -1.4708   20.1800  -33.5917 H   0  0  0  0  0  0  0  0  0  0  0  0
   -2.7417   19.6244  -34.7725 H   0  0  0  0  0  0  0  0  0  0  0  0
   -2.8567   21.8909  -33.1140 H   0  0  0  0  0  0  0  0  0  0  0  0
   -4.2070   21.1266  -34.0520 H   0  0  0  0  0  0  0  0  0  0  0  0
   -3.8610   19.7730  -31.5140 H   0  0  0  0  0  0  0  0  0  0  0  0
   -5.5716   18.6232  -32.2890 H   0  0  0  0  0  0  0  0  0  0  0  0
   -7.6670   17.3438  -32.6762 H   0  0  0  0  0  0  0  0  0  0  0  0
   -9.8763   18.4741  -32.4766 H   0  0  0  0  0  0  0  0  0  0  0  0
   -9.9966   20.9011  -31.9526 H   0  0  0  0  0  0  0  0  0  0  0  0
   -9.5993   23.6039  -31.0326 H   0  0  0  0  0  0  0  0  0  0  0  0
   -8.8486   24.1962  -32.5532 H   0  0  0  0  0  0  0  0  0  0  0  0
   -9.7914   22.6672  -32.5532 H   0  0  0  0  0  0  0  0  0  0  0  0
   -7.8472   24.9994  -30.5988 H   0  0  0  0  0  0  0  0  0  0  0  0
   -5.8459   26.2102  -29.7807 H   0  0  0  0  0  0  0  0  0  0  0  0
   -3.6174   25.1263  -29.8385 H   0  0  0  0  0  0  0  0  0  0  0  0
  1  2  1  0
  2  3  1  0
  3  4  1  0
  4  5  1  0
  5  6  1  0
  6  7  1  0
  7  8  1  0
  8  9  1  0
  9 10  1  0
 10 11  2  0
 11 12  1  0
 12 13  2  0
 13 14  1  0
 14 15  2  0
 15 16  1  0
 16 17  2  0
 17 18  1  0
 17 19  1  0
 19 20  2  0
 20 21  1  0
 21 22  2  0
 22 23  1  0
 23 24  1  0
 23 25  2  0
 25 10  1  0
 16 11  1  0
 25 19  1  0
  1 26  1  0
  1 27  1  0
  1 28  1  0
  2 29  1  0
  2 30  1  0
  3 31  1  0
  3 32  1  0
  4 33  1  0
  4 34  1  0
  5 35  1  0
  5 36  1  0
  7 37  1  0
  7 38  1  0
  8 39  1  0
  8 40  1  0
  9 41  1  0
 12 42  1  0
 13 43  1  0
 14 44  1  0
 15 45  1  0
 18 46  1  0
 18 47  1  0
 18 48  1  0
 20 49  1  0
 21 50  1  0
 22 51  1  0
M  CHG  2   3   1  17   1
M  END
>  <UniqueID>  (1) 
1

>  <SMILES>  (1) 
CC[NH2+]CCOCCNc1c2ccccc2[n+](C)c2cccc(Cl)c12

>  <Energy>  (1) 
81.06559425010805

>  <Genealogy>  (1) 
CC[NH2+]CCOCCNc1c2ccccc2[n+](C)c2cccc(Cl)c12 (protonated)
CC[NH2+]CCOCCNc1c2ccccc2[n+](C)c2cccc(Cl)c12 (3D coordinates assigned)
CC[NH2+]CCOCCNc1c2ccccc2[n+](C)c2cccc(Cl)c12 (optimized conformer: 81.06559425010805 kcal/mol)

>  <smiles>  (1) 
CCNCCOCCNc1c2ccccc2[n+](C)c2cccc(Cl)c12

>  <score_type>  (1) 
oracle

>  <origin>  (1) 
adg

>  <m_score__min__energy>  (1) 
-8.6300000000000008

>  <m_primary>  (1) 
energy

$$$$
1:0
     RDKit          3D

 62 65  0  0  0  0  0  0  0  0999 V2000
   -4.3050   16.3480  -34.3770 C   0  0  0  0  0  0  0  0  0  0  0  0
   -4.3700   17.7680  -34.9350 C   0  0  0  0  0  0  0  0  0  0  0  0
   -4.3290   18.7590  -33.8460 N   0  0  0  0  0  0  0  0  0  0  0  0
   -3.0750   19.3520  -33.4440 C   0  0  0  0  0  0  0  0  0  0  0  0
   -2.1370   18.5940  -32.7180 C   0  0  0  0  0  0  0  0  0  0  0  0
   -0.9260   19.1630  -32.3150 C   0  0  0  0  0  0  0  0  0  0  0  0
   -0.6380   20.4930  -32.6280 C   0  0  0  0  0  0  0  0  0  0  0  0
   -1.5630   21.2560  -33.3440 C   0  0  0  0  0  0  0  0  0  0  0  0
   -2.7750   20.6920  -33.7520 C   0  0  0  0  0  0  0  0  0  0  0  0
   -5.5570   19.2030  -33.2290 C   0  0  0  0  0  0  0  0  0  0  0  0
   -6.7260   18.4280  -33.3120 C   0  0  0  0  0  0  0  0  0  0  0  0
   -7.9110   18.8650  -32.7130 C   0  0  0  0  0  0  0  0  0  0  0  0
   -7.9420   20.0800  -32.0220 C   0  0  0  0  0  0  0  0  0  0  0  0
   -9.0930   20.5030  -31.4380 N   0  0  0  0  0  0  0  0  0  0  0  0
   -9.1400   21.6780  -30.7610 C   0  0  0  0  0  0  0  0  0  0  0  0
   -8.0300   22.4530  -30.6580 N   0  0  0  0  0  0  0  0  0  0  0  0
   -6.8490   22.0800  -31.2260 C   0  0  0  0  0  0  0  0  0  0  0  0
   -5.7150   22.8930  -31.1060 O   0  0  0  0  0  0  0  0  0  0  0  0
   -5.6480   24.2330  -31.5880 C   0  0  0  0  0  0  0  0  0  0  0  0
   -5.2530   25.1910  -30.4600 C   0  0  0  0  0  0  0  0  0  0  0  0
   -3.8100   25.1180  -30.1920 N   0  0  0  0  0  0  0  0  0  0  0  0
   -3.4640   24.0900  -29.1940 C   0  0  0  0  0  0  0  0  0  0  0  0
   -2.2200   23.3100  -29.6410 C   0  0  0  0  0  0  0  0  0  0  0  0
   -2.5280   21.8680  -30.0810 C   0  0  0  0  0  0  0  0  0  0  0  0
   -2.1730   20.8610  -29.0170 C   0  0  0  0  0  0  0  0  0  0  0  0
   -3.0500   20.6200  -27.9440 C   0  0  0  0  0  0  0  0  0  0  0  0
   -2.7290   19.6690  -26.9710 C   0  0  0  0  0  0  0  0  0  0  0  0
   -1.5340   18.9490  -27.0640 C   0  0  0  0  0  0  0  0  0  0  0  0
   -0.6610   19.1770  -28.1310 C   0  0  0  0  0  0  0  0  0  0  0  0
   -0.9790   20.1280  -29.1050 C   0  0  0  0  0  0  0  0  0  0  0  0
   -6.7760   20.8670  -31.9290 C   0  0  0  0  0  0  0  0  0  0  0  0
   -5.5880   20.4240  -32.5320 C   0  0  0  0  0  0  0  0  0  0  0  0
   -4.3067   16.3856  -33.2776 H   0  0  0  0  0  0  0  0  0  0  0  0
   -5.1779   15.7767  -34.7257 H   0  0  0  0  0  0  0  0  0  0  0  0
   -3.3835   15.8588  -34.7257 H   0  0  0  0  0  0  0  0  0  0  0  0
   -3.5130   17.9321  -35.6047 H   0  0  0  0  0  0  0  0  0  0  0  0
   -5.3143   17.8879  -35.4862 H   0  0  0  0  0  0  0  0  0  0  0  0
   -2.3588   17.5464  -32.4661 H   0  0  0  0  0  0  0  0  0  0  0  0
   -0.1982   18.5620  -31.7501 H   0  0  0  0  0  0  0  0  0  0  0  0
    0.3162   20.9392  -32.3110 H   0  0  0  0  0  0  0  0  0  0  0  0
   -1.3369   22.3046  -33.5877 H   0  0  0  0  0  0  0  0  0  0  0  0
   -3.4981   21.2987  -34.3168 H   0  0  0  0  0  0  0  0  0  0  0  0
   -6.7086   17.4701  -33.8525 H   0  0  0  0  0  0  0  0  0  0  0  0
   -8.8212   18.2515  -32.7855 H   0  0  0  0  0  0  0  0  0  0  0  0
  -10.0810   22.0039  -30.2938 H   0  0  0  0  0  0  0  0  0  0  0  0
   -4.8988   24.2915  -32.3913 H   0  0  0  0  0  0  0  0  0  0  0  0
   -6.6379   24.5230  -31.9701 H   0  0  0  0  0  0  0  0  0  0  0  0
   -5.5135   26.2189  -30.7526 H   0  0  0  0  0  0  0  0  0  0  0  0
   -5.7952   24.9024  -29.5475 H   0  0  0  0  0  0  0  0  0  0  0  0
   -3.5130   26.0510  -29.8170 H   0  0  0  0  0  0  0  0  0  0  0  0
   -3.2599   24.5759  -28.2285 H   0  0  0  0  0  0  0  0  0  0  0  0
   -4.3074   23.3910  -29.0937 H   0  0  0  0  0  0  0  0  0  0  0  0
   -1.7603   23.8420  -30.4870 H   0  0  0  0  0  0  0  0  0  0  0  0
   -1.5467   23.2479  -28.7734 H   0  0  0  0  0  0  0  0  0  0  0  0
   -3.6026   21.7866  -30.3016 H   0  0  0  0  0  0  0  0  0  0  0  0
   -1.9194   21.6487  -30.9707 H   0  0  0  0  0  0  0  0  0  0  0  0
   -3.9925   21.1823  -27.8702 H   0  0  0  0  0  0  0  0  0  0  0  0
   -3.4167   19.4871  -26.1320 H   0  0  0  0  0  0  0  0  0  0  0  0
   -1.2809   18.2026  -26.2967 H   0  0  0  0  0  0  0  0  0  0  0  0
    0.2773   18.6076  -28.2046 H   0  0  0  0  0  0  0  0  0  0  0  0
   -0.2902   20.3028  -29.9446 H   0  0  0  0  0  0  0  0  0  0  0  0
   -4.6765   21.0354  -32.4588 H   0  0  0  0  0  0  0  0  0  0  0  0
  1  2  1  0
  2  3  1  0
  3  4  1  0
  4  5  2  0
  5  6  1  0
  6  7  2  0
  7  8  1  0
  8  9  2  0
  3 10  1  0
 10 11  2  0
 11 12  1  0
 12 13  2  0
 13 14  1  0
 14 15  2  0
 15 16  1  0
 16 17  2  0
 17 18  1  0
 18 19  1  0
 19 20  1  0
 20 21  1  0
 21 22  1  0
 22 23  1  0
 23 24  1  0
 24 25  1  0
 25 26  2  0
 26 27  1  0
 27 28  2  0
 28 29  1  0
 29 30  2  0
 17 31  1  0
 31 32  2  0
  9  4  1  0
 32 10  1  0
 31 13  1  0
 30 25  1  0
  1 33  1  0
  1 34  1  0
  1 35  1  0
  2 36  1  0
  2 37  1  0
  5 38  1  0
  6 39  1  0
  7 40  1  0
  8 41  1  0
  9 42  1  0
 11 43  1  0
 12 44  1  0
 15 45  1  0
 19 46  1  0
 19 47  1  0
 20 48  1  0
 20 49  1  0
 21 50  1  0
 22 51  1  0
 22 52  1  0
 23 53  1  0
 23 54  1  0
 24 55  1  0
 24 56  1  0
 26 57  1  0
 27 58  1  0
 28 59  1  0
 29 60  1  0
 30 61  1  0
 32 62  1  0
M  END
>  <UniqueID>  (2) 
2

>  <SMILES>  (2) 
CCN(c1ccccc1)c1ccc2ncnc(OCCNCCCc3ccccc3)c2c1

>  <Energy>  (2) 
70.16863319193145

>  <Genealogy>  (2) 
CCN(c1ccccc1)c1ccc2ncnc(OCCNCCCc3ccccc3)c2c1 (3D coordinates assigned)
CCN(c1ccccc1)c1ccc2ncnc(OCCNCCCc3ccccc3)c2c1 (optimized conformer: 70.16863319193145 kcal/mol)

>  <smiles>  (2) 
CCN(c1ccccc1)c1ccc2ncnc(OCCNCCCc3ccccc3)c2c1

>  <score_type>  (2) 
oracle

>  <origin>  (2) 
adg

>  <m_score__min__energy>  (2) 
-9.4900000000000002

>  <m_primary>  (2) 
energy

$$$$
2:0
     RDKit          3D

 52 54  0  0  0  0  0  0  0  0999 V2000
   -3.3960   23.3970  -28.3720 C   0  0  0  0  0  0  0  0  0  0  0  0
   -3.2000   24.5590  -29.3450 C   0  0  0  0  0  0  0  0  0  0  0  0
   -3.8530   24.2880  -30.6470 N   0  0  0  0  0  0  0  0  0  0  0  0
   -5.0560   25.1450  -30.7890 C   0  0  0  0  0  0  0  0  0  0  0  0
   -6.1190   24.8190  -29.7400 C   0  0  0  0  0  0  0  0  0  0  0  0
   -4.1810   22.8450  -30.8060 C   0  0  0  0  0  0  0  0  0  0  0  0
   -3.5720   22.2900  -32.1000 C   0  0  0  0  0  0  0  0  0  0  0  0
   -4.6040   22.0100  -33.0960 N   0  0  0  0  0  0  0  0  0  0  0  0
   -5.6380   21.0540  -32.8070 C   0  0  0  0  0  0  0  0  0  0  0  0
   -6.9210   21.4890  -32.4330 C   0  0  0  0  0  0  0  0  0  0  0  0
   -7.2200   22.8640  -32.3470 C   0  0  0  0  0  0  0  0  0  0  0  0
   -8.4700   23.2960  -31.9100 C   0  0  0  0  0  0  0  0  0  0  0  0
   -9.4390   22.3680  -31.5500 C   0  0  0  0  0  0  0  0  0  0  0  0
   -9.1770   21.0020  -31.6600 C   0  0  0  0  0  0  0  0  0  0  0  0
   -7.9300   20.5310  -32.1430 C   0  0  0  0  0  0  0  0  0  0  0  0
   -7.6790   19.1840  -32.3230 N   0  0  0  0  0  0  0  0  0  0  0  0
   -8.8000   18.2170  -32.3100 C   0  0  0  0  0  0  0  0  0  0  0  0
   -6.3880   18.7430  -32.5490 C   0  0  0  0  0  0  0  0  0  0  0  0
   -6.0470   17.3680  -32.4800 C   0  0  0  0  0  0  0  0  0  0  0  0
   -4.7490   16.9230  -32.7650 C   0  0  0  0  0  0  0  0  0  0  0  0
   -4.4090   15.4640  -32.6590 C   0  0  0  0  0  0  0  0  0  0  0  0
   -5.1690   14.5700  -33.9990 Cl  0  0  0  0  0  0  0  0  0  0  0  0
   -3.7570   17.8530  -33.0790 C   0  0  0  0  0  0  0  0  0  0  0  0
   -4.0520   19.2120  -33.1100 C   0  0  0  0  0  0  0  0  0  0  0  0
   -5.3560   19.6760  -32.8340 C   0  0  0  0  0  0  0  0  0  0  0  0
   -3.3332   23.7693  -27.3388 H   0  0  0  0  0  0  0  0  0  0  0  0
   -4.3836   22.9420  -28.5384 H   0  0  0  0  0  0  0  0  0  0  0  0
   -2.6123   22.6433  -28.5384 H   0  0  0  0  0  0  0  0  0  0  0  0
   -3.6362   25.4694  -28.9081 H   0  0  0  0  0  0  0  0  0  0  0  0
   -2.1214   24.6882  -29.5182 H   0  0  0  0  0  0  0  0  0  0  0  0
   -4.7573   26.1977  -30.6765 H   0  0  0  0  0  0  0  0  0  0  0  0
   -5.4905   24.9584  -31.7821 H   0  0  0  0  0  0  0  0  0  0  0  0
   -5.6936   24.9495  -28.7340 H   0  0  0  0  0  0  0  0  0  0  0  0
   -6.9775   25.4951  -29.8656 H   0  0  0  0  0  0  0  0  0  0  0  0
   -6.4509   23.7778  -29.8656 H   0  0  0  0  0  0  0  0  0  0  0  0
   -3.7777   22.2864  -29.9485 H   0  0  0  0  0  0  0  0  0  0  0  0
   -5.2743   22.7340  -30.8536 H   0  0  0  0  0  0  0  0  0  0  0  0
   -2.8689   23.0295  -32.5109 H   0  0  0  0  0  0  0  0  0  0  0  0
   -3.0537   21.3490  -31.8636 H   0  0  0  0  0  0  0  0  0  0  0  0
   -4.3580   22.1510  -34.1010 H   0  0  0  0  0  0  0  0  0  0  0  0
   -6.4569   23.6046  -32.6284 H   0  0  0  0  0  0  0  0  0  0  0  0
   -8.6899   24.3721  -31.8499 H   0  0  0  0  0  0  0  0  0  0  0  0
  -10.4154   22.7110  -31.1772 H   0  0  0  0  0  0  0  0  0  0  0  0
   -9.9514   20.2779  -31.3669 H   0  0  0  0  0  0  0  0  0  0  0  0
   -9.0707   17.9835  -31.2697 H   0  0  0  0  0  0  0  0  0  0  0  0
   -9.6677   18.6546  -32.8253 H   0  0  0  0  0  0  0  0  0  0  0  0
   -8.4944   17.2945  -32.8253 H   0  0  0  0  0  0  0  0  0  0  0  0
   -6.8174   16.6356  -32.1969 H   0  0  0  0  0  0  0  0  0  0  0  0
   -3.3173   15.3386  -32.7088 H   0  0  0  0  0  0  0  0  0  0  0  0
   -4.7832   15.0719  -31.7018 H   0  0  0  0  0  0  0  0  0  0  0  0
   -2.7363   17.5095  -33.3032 H   0  0  0  0  0  0  0  0  0  0  0  0
   -3.2587   19.9344  -33.3528 H   0  0  0  0  0  0  0  0  0  0  0  0
  1  2  1  0
  2  3  1  0
  3  4  1  0
  4  5  1  0
  3  6  1  0
  6  7  1  0
  7  8  1  0
  8  9  1  0
  9 10  2  0
 10 11  1  0
 11 12  2  0
 12 13  1  0
 13 14  2  0
 14 15  1  0
 15 16  2  0
 16 17  1  0
 16 18  1  0
 18 19  2  0
 19 20  1  0
 20 21  1  0
 21 22  1  0
 20 23  2  0
 23 24  1  0
 24 25  2  0
 25  9  1  0
 15 10  1  0
 25 18  1  0
  1 26  1  0
  1 27  1  0
  1 28  1  0
  2 29  1  0
  2 30  1  0
  4 31  1  0
  4 32  1  0
  5 33  1  0
  5 34  1  0
  5 35  1  0
  6 36  1  0
  6 37  1  0
  7 38  1  0
  7 39  1  0
  8 40  1  0
 11 41  1  0
 12 42  1  0
 13 43  1  0
 14 44  1  0
 17 45  1  0
 17 46  1  0
 17 47  1  0
 19 48  1  0
 21 49  1  0
 21 50  1  0
 23 51  1  0
 24 52  1  0
M  CHG  1  16   1
M  END
>  <UniqueID>  (3) 
3

>  <SMILES>  (3) 
CCN(CC)CCNc1c2ccccc2[n+](C)c2cc(CCl)ccc12

>  <Energy>  (3) 
75.96139996420524

>  <Genealogy>  (3) 
CCN(CC)CCNc1c2ccccc2[n+](C)c2cc(CCl)ccc12 (3D coordinates assigned)
CCN(CC)CCNc1c2ccccc2[n+](C)c2cc(CCl)ccc12 (optimized conformer: 75.96139996420524 kcal/mol)

>  <smiles>  (3) 
CCN(CC)CCNc1c2ccccc2[n+](C)c2cc(CCl)ccc12

>  <score_type>  (3) 
oracle

>  <origin>  (3) 
adg

>  <m_score__min__energy>  (3) 
-8.3399999999999999

>  <m_primary>  (3) 
energy

$$$$
3:0
     RDKit          3D

 72 75  0  0  0  0  0  0  0  0999 V2000
   -7.2370   17.3210  -32.9360 C   0  0  0  0  0  0  0  0  0  0  0  0
   -7.2910   17.9760  -31.5520 C   0  0  0  0  0  0  0  0  0  0  0  0
   -8.3370   19.0250  -31.4640 N   0  0  2  0  0  0  0  0  0  0  0  0
   -9.2200   19.0300  -32.6510 C   0  0  0  0  0  0  0  0  0  0  0  0
   -7.7550   20.3660  -31.2060 C   0  0  0  0  0  0  0  0  0  0  0  0
   -8.0960   21.4230  -32.2810 C   0  0  0  0  0  0  0  0  0  0  0  0
   -6.8880   22.1150  -32.7480 N   0  0  0  0  0  0  0  0  0  0  0  0
   -5.6300   22.0380  -32.0400 C   0  0  0  0  0  0  0  0  0  0  0  0
   -5.3270   23.0360  -31.1470 C   0  0  0  0  0  0  0  0  0  0  0  0
   -6.0810   24.2380  -31.2140 C   0  0  0  0  0  0  0  0  0  0  0  0
   -6.1010   25.1520  -30.1670 C   0  0  0  0  0  0  0  0  0  0  0  0
   -5.3720   24.9020  -29.0180 C   0  0  0  0  0  0  0  0  0  0  0  0
   -4.5460   23.7870  -28.9510 C   0  0  0  0  0  0  0  0  0  0  0  0
   -4.4230   22.8850  -30.0440 C   0  0  0  0  0  0  0  0  0  0  0  0
   -3.5010   21.9510  -30.0120 N   0  0  0  0  0  0  0  0  0  0  0  0
   -2.9590   21.4410  -28.7370 C   0  0  0  0  0  0  0  0  0  0  0  0
   -2.7570   21.6120  -31.1960 C   0  0  0  0  0  0  0  0  0  0  0  0
   -1.3670   21.7980  -31.1940 C   0  0  0  0  0  0  0  0  0  0  0  0
   -0.5570   21.1390  -32.1110 C   0  0  0  0  0  0  0  0  0  0  0  0
   -1.1090   20.2250  -33.0180 C   0  0  0  0  0  0  0  0  0  0  0  0
   -0.2350   19.4360  -33.8500 N   0  0  0  0  0  0  0  0  0  0  0  0
   -0.1060   19.6610  -35.2920 C   0  0  0  0  0  0  0  0  0  0  0  0
   -0.0650   21.1570  -35.6200 C   0  0  0  0  0  0  0  0  0  0  0  0
    1.3690   21.7240  -35.5030 C   0  0  0  0  0  0  0  0  0  0  0  0
    1.4350   23.1950  -35.3440 N   0  0  0  0  0  0  0  0  0  0  0  0
    0.3780   23.8970  -36.0900 C   0  0  0  0  0  0  0  0  0  0  0  0
    2.7620   23.7510  -35.6540 C   0  0  0  0  0  0  0  0  0  0  0  0
   -2.5190   20.0730  -33.0680 C   0  0  0  0  0  0  0  0  0  0  0  0
   -3.1220   19.1610  -33.9530 C   0  0  0  0  0  0  0  0  0  0  0  0
   -4.5020   19.0140  -33.9780 C   0  0  0  0  0  0  0  0  0  0  0  0
   -5.3080   19.8570  -33.2210 C   0  0  0  0  0  0  0  0  0  0  0  0
   -4.7530   20.8640  -32.3990 C   0  0  0  0  0  0  0  0  0  0  0  0
   -3.3520   20.8670  -32.2200 C   0  0  0  0  0  0  0  0  0  0  0  0
   -7.1471   16.2306  -32.8223 H   0  0  0  0  0  0  0  0  0  0  0  0
   -8.1577   17.5573  -33.4897 H   0  0  0  0  0  0  0  0  0  0  0  0
   -6.3675   17.7049  -33.4897 H   0  0  0  0  0  0  0  0  0  0  0  0
   -7.5045   17.2002  -30.8019 H   0  0  0  0  0  0  0  0  0  0  0  0
   -6.3181   18.4557  -31.3694 H   0  0  0  0  0  0  0  0  0  0  0  0
   -8.9390   18.8090  -30.6340 H   0  0  0  0  0  0  0  0  0  0  0  0
  -10.2709   19.0360  -32.3262 H   0  0  0  0  0  0  0  0  0  0  0  0
   -9.0177   19.9270  -33.2547 H   0  0  0  0  0  0  0  0  0  0  0  0
   -9.0279   18.1308  -33.2547 H   0  0  0  0  0  0  0  0  0  0  0  0
   -8.1325   20.7252  -30.2373 H   0  0  0  0  0  0  0  0  0  0  0  0
   -6.6619   20.2436  -31.2190 H   0  0  0  0  0  0  0  0  0  0  0  0
   -8.5763   20.9237  -33.1354 H   0  0  0  0  0  0  0  0  0  0  0  0
   -8.7730   22.1668  -31.8354 H   0  0  0  0  0  0  0  0  0  0  0  0
   -6.9060   22.5650  -33.6910 H   0  0  0  0  0  0  0  0  0  0  0  0
   -6.6660   24.4517  -32.1207 H   0  0  0  0  0  0  0  0  0  0  0  0
   -6.6959   26.0733  -30.2519 H   0  0  0  0  0  0  0  0  0  0  0  0
   -5.4463   25.5850  -28.1589 H   0  0  0  0  0  0  0  0  0  0  0  0
   -3.9736   23.5972  -28.0310 H   0  0  0  0  0  0  0  0  0  0  0  0
   -3.4767   21.9281  -27.8975 H   0  0  0  0  0  0  0  0  0  0  0  0
   -3.1137   20.3533  -28.6817 H   0  0  0  0  0  0  0  0  0  0  0  0
   -1.8828   21.6615  -28.6817 H   0  0  0  0  0  0  0  0  0  0  0  0
   -0.9115   22.4750  -30.4563 H   0  0  0  0  0  0  0  0  0  0  0  0
    0.5251   21.3364  -32.1248 H   0  0  0  0  0  0  0  0  0  0  0  0
    0.4020   18.7410  -33.4000 H   0  0  0  0  0  0  0  0  0  0  0  0
    0.8231   19.1908  -35.6464 H   0  0  0  0  0  0  0  0  0  0  0  0
   -0.9806   19.2195  -35.7921 H   0  0  0  0  0  0  0  0  0  0  0  0
   -0.4260   21.3075  -36.6481 H   0  0  0  0  0  0  0  0  0  0  0  0
   -0.7051   21.6861  -34.8987 H   0  0  0  0  0  0  0  0  0  0  0  0
    1.8514   21.2617  -34.6292 H   0  0  0  0  0  0  0  0  0  0  0  0
    1.8778   21.4877  -36.4492 H   0  0  0  0  0  0  0  0  0  0  0  0
   -0.3232   24.3627  -35.3818 H   0  0  0  0  0  0  0  0  0  0  0  0
    0.8305   24.6746  -36.7228 H   0  0  0  0  0  0  0  0  0  0  0  0
   -0.1633   23.1783  -36.7228 H   0  0  0  0  0  0  0  0  0  0  0  0
    3.2941   23.9739  -34.7174 H   0  0  0  0  0  0  0  0  0  0  0  0
    3.3389   23.0189  -36.2381 H   0  0  0  0  0  0  0  0  0  0  0  0
    2.6448   24.6757  -36.2381 H   0  0  0  0  0  0  0  0  0  0  0  0
   -2.4960   18.5606  -34.6295 H   0  0  0  0  0  0  0  0  0  0  0  0
   -4.9590   18.2288  -34.5981 H   0  0  0  0  0  0  0  0  0  0  0  0
   -6.4007   19.7377  -33.2627 H   0  0  0  0  0  0  0  0  0  0  0  0
  1  2  1  0
  2  3  1  0
  3  4  1  0
  3  5  1  0
  5  6  1  0
  6  7  1  0
  7  8  1  0
  8  9  2  0
  9 10  1  0
 10 11  2  0
 11 12  1  0
 12 13  2  0
 13 14  1  0
 14 15  2  0
 15 16  1  0
 15 17  1  0
 17 18  2  0
 18 19  1  0
 19 20  2  0
 20 21  1  0
 21 22  1  0
 22 23  1  0
 23 24  1  0
 24 25  1  0
 25 26  1  0
 25 27  1  0
 20 28  1  0
 28 29  2  0
 29 30  1  0
 30 31  2  0
 31 32  1  0
 32 33  2  0
 32  8  1  0
 14  9  1  0
 33 17  1  0
 33 28  1  0
  1 34  1  0
  1 35  1  0
  1 36  1  0
  2 37  1  0
  2 38  1  0
  3 39  1  1
  4 40  1  0
  4 41  1  0
  4 42  1  0
  5 43  1  0
  5 44  1  0
  6 45  1  0
  6 46  1  0
  7 47  1  0
 10 48  1  0
 11 49  1  0
 12 50  1  0
 13 51  1  0
 16 52  1  0
 16 53  1  0
 16 54  1  0
 18 55  1  0
 19 56  1  0
 21 57  1  0
 22 58  1  0
 22 59  1  0
 23 60  1  0
 23 61  1  0
 24 62  1  0
 24 63  1  0
 26 64  1  0
 26 65  1  0
 26 66  1  0
 27 67  1  0
 27 68  1  0
 27 69  1  0
 29 70  1  0
 30 71  1  0
 31 72  1  0
M  CHG  2   3   1  15   1
M  END
>  <UniqueID>  (4) 
4

>  <SMILES>  (4) 
CC[N@H+](C)CCNC1=c2ccccc2=[N+](C)c2ccc(NCCCN(C)C)c3cccc1c23

>  <Energy>  (4) 
146.6034843082502

>  <Genealogy>  (4) 
CC[NH+](C)CCNC1=c2ccccc2=[N+](C)c2ccc(NCCCN(C)C)c3cccc1c23 (protonated)
CC[N@H+](C)CCNC1=c2ccccc2=[N+](C)c2ccc(NCCCN(C)C)c3cccc1c23 (chirality)
CC[N@H+](C)CCNC1=c2ccccc2=[N+](C)c2ccc(NCCCN(C)C)c3cccc1c23 (3D coordinates assigned)
CC[N@H+](C)CCNC1=c2ccccc2=[N+](C)c2ccc(NCCCN(C)C)c3cccc1c23 (nonaromatic ring conformer: 146.6034843082502 kcal/mol)

>  <smiles>  (4) 
CCN(C)CCNC1=c2ccccc2=[N+](C)c2ccc(NCCCN(C)C)c3cccc1c23

>  <score_type>  (4) 
oracle

>  <origin>  (4) 
adg

>  <m_score__min__energy>  (4) 
-7.6200000000000001

>  <m_primary>  (4) 
energy

$$$$
4:0
     RDKit          3D

 75 78  0  0  0  0  0  0  0  0999 V2000
   -9.4850   23.4560  -32.3450 C   0  0  0  0  0  0  0  0  0  0  0  0
   -9.7990   21.9540  -32.3050 C   0  0  0  0  0  0  0  0  0  0  0  0
   -8.7710   21.1360  -31.6220 N   0  0  0  0  0  0  0  0  0  0  0  0
   -8.5090   21.6200  -30.2510 C   0  0  0  0  0  0  0  0  0  0  0  0
   -9.0650   19.6870  -31.6590 C   0  0  0  0  0  0  0  0  0  0  0  0
   -8.0760   18.9550  -32.5790 C   0  0  0  0  0  0  0  0  0  0  0  0
   -7.4270   19.8610  -33.5500 N   0  0  0  0  0  0  0  0  0  0  0  0
   -6.0030   20.0270  -33.2870 C   0  0  0  0  0  0  0  0  0  0  0  0
   -5.0880   18.9920  -33.6270 C   0  0  0  0  0  0  0  0  0  0  0  0
   -5.5220   17.7390  -34.1270 C   0  0  0  0  0  0  0  0  0  0  0  0
   -4.6060   16.7560  -34.4950 C   0  0  0  0  0  0  0  0  0  0  0  0
   -3.2440   16.9960  -34.3860 C   0  0  0  0  0  0  0  0  0  0  0  0
   -2.7860   18.2180  -33.8990 C   0  0  0  0  0  0  0  0  0  0  0  0
   -3.6920   19.2280  -33.5010 C   0  0  0  0  0  0  0  0  0  0  0  0
   -3.2360   20.4240  -33.0000 N   0  0  0  0  0  0  0  0  0  0  0  0
   -1.8810   20.8840  -33.3660 C   0  0  0  0  0  0  0  0  0  0  0  0
   -4.1060   21.2730  -32.3540 C   0  0  0  0  0  0  0  0  0  0  0  0
   -5.4950   21.1980  -32.6490 C   0  0  0  0  0  0  0  0  0  0  0  0
   -6.3130   22.3000  -32.3000 C   0  0  0  0  0  0  0  0  0  0  0  0
   -5.7990   23.3870  -31.6000 C   0  0  0  0  0  0  0  0  0  0  0  0
   -4.4890   23.3620  -31.1230 C   0  0  0  0  0  0  0  0  0  0  0  0
   -4.0180   24.4060  -30.3100 C   0  0  0  0  0  0  0  0  0  0  0  0
   -2.7540   24.3150  -29.7060 C   0  0  0  0  0  0  0  0  0  0  0  0
   -2.2200   25.3440  -28.9180 O   0  0  0  0  0  0  0  0  0  0  0  0
   -1.3740   25.1230  -27.7940 C   0  0  0  0  0  0  0  0  0  0  0  0
   -2.1020   25.5050  -26.4990 C   0  0  0  0  0  0  0  0  0  0  0  0
   -1.3880   26.5670  -25.6160 C   0  0  0  0  0  0  0  0  0  0  0  0
   -0.4130   26.0800  -24.5820 N   0  0  0  0  0  0  0  0  0  0  0  0
   -0.5070   24.6080  -24.4060 C   0  0  0  0  0  0  0  0  0  0  0  0
    0.9570   26.3820  -25.0690 C   0  0  0  0  0  0  0  0  0  0  0  0
   -0.5920   26.7520  -23.2720 C   0  0  0  0  0  0  0  0  0  0  0  0
   -1.9970   23.1540  -29.8810 C   0  0  0  0  0  0  0  0  0  0  0  0
   -2.4430   22.1340  -30.7220 C   0  0  0  0  0  0  0  0  0  0  0  0
   -3.6560   22.2610  -31.4300 C   0  0  0  0  0  0  0  0  0  0  0  0
   -9.4045   23.8412  -31.3178 H   0  0  0  0  0  0  0  0  0  0  0  0
   -8.5336   23.6178  -32.8729 H   0  0  0  0  0  0  0  0  0  0  0  0
  -10.2919   23.9853  -32.8729 H   0  0  0  0  0  0  0  0  0  0  0  0
  -10.7552   21.8156  -31.7791 H   0  0  0  0  0  0  0  0  0  0  0  0
   -9.8328   21.6107  -33.3495 H   0  0  0  0  0  0  0  0  0  0  0  0
   -8.9021   20.8937  -29.5244 H   0  0  0  0  0  0  0  0  0  0  0  0
   -7.4250   21.7358  -30.1039 H   0  0  0  0  0  0  0  0  0  0  0  0
   -9.0047   22.5909  -30.1039 H   0  0  0  0  0  0  0  0  0  0  0  0
   -8.9838   19.2761  -30.6419 H   0  0  0  0  0  0  0  0  0  0  0  0
  -10.0834   19.5429  -32.0489 H   0  0  0  0  0  0  0  0  0  0  0  0
   -7.2974   18.4873  -31.9585 H   0  0  0  0  0  0  0  0  0  0  0  0
   -8.6437   18.2055  -33.1500 H   0  0  0  0  0  0  0  0  0  0  0  0
   -7.5640   19.4820  -34.5130 H   0  0  0  0  0  0  0  0  0  0  0  0
   -7.9390   20.7680  -33.6020 H   0  0  0  0  0  0  0  0  0  0  0  0
   -6.5992   17.5394  -34.2261 H   0  0  0  0  0  0  0  0  0  0  0  0
   -4.9637   15.7869  -34.8730 H   0  0  0  0  0  0  0  0  0  0  0  0
   -2.5242   16.2197  -34.6848 H   0  0  0  0  0  0  0  0  0  0  0  0
   -1.7038   18.3999  -33.8229 H   0  0  0  0  0  0  0  0  0  0  0  0
   -1.3013   21.0808  -32.4521 H   0  0  0  0  0  0  0  0  0  0  0  0
   -1.3776   20.1064  -33.9592 H   0  0  0  0  0  0  0  0  0  0  0  0
   -1.9550   21.8074  -33.9592 H   0  0  0  0  0  0  0  0  0  0  0  0
   -7.3747   22.2965  -32.5877 H   0  0  0  0  0  0  0  0  0  0  0  0
   -6.4293   24.2707  -31.4219 H   0  0  0  0  0  0  0  0  0  0  0  0
   -4.6413   25.2974  -30.1461 H   0  0  0  0  0  0  0  0  0  0  0  0
   -1.0942   24.0599  -27.7534 H   0  0  0  0  0  0  0  0  0  0  0  0
   -0.4726   25.7453  -27.8957 H   0  0  0  0  0  0  0  0  0  0  0  0
   -3.0916   25.9009  -26.7711 H   0  0  0  0  0  0  0  0  0  0  0  0
   -2.1415   24.5873  -25.8937 H   0  0  0  0  0  0  0  0  0  0  0  0
   -0.8401   27.2402  -26.2917 H   0  0  0  0  0  0  0  0  0  0  0  0
   -2.1977   27.0322  -25.0346 H   0  0  0  0  0  0  0  0  0  0  0  0
   -0.5224   24.3673  -23.3328 H   0  0  0  0  0  0  0  0  0  0  0  0
   -1.4304   24.2406  -24.8774 H   0  0  0  0  0  0  0  0  0  0  0  0
    0.3622   24.1261  -24.8774 H   0  0  0  0  0  0  0  0  0  0  0  0
    1.6274   26.5298  -24.2095 H   0  0  0  0  0  0  0  0  0  0  0  0
    1.3225   25.5429  -25.6791 H   0  0  0  0  0  0  0  0  0  0  0  0
    0.9359   27.2970  -25.6791 H   0  0  0  0  0  0  0  0  0  0  0  0
   -0.4005   26.0330  -22.4619 H   0  0  0  0  0  0  0  0  0  0  0  0
    0.1137   27.5919  -23.1913 H   0  0  0  0  0  0  0  0  0  0  0  0
   -1.6220   27.1295  -23.1913 H   0  0  0  0  0  0  0  0  0  0  0  0
   -1.0398   23.0429  -29.3505 H   0  0  0  0  0  0  0  0  0  0  0  0
   -1.8414   21.2200  -30.8341 H   0  0  0  0  0  0  0  0  0  0  0  0
  1  2  1  0
  2  3  1  0
  3  4  1  0
  3  5  1  0
  5  6  1  0
  6  7  1  0
  7  8  1  0
  8  9  2  0
  9 10  1  0
 10 11  2  0
 11 12  1  0
 12 13  2  0
 13 14  1  0
 14 15  2  0
 15 16  1  0
 15 17  1  0
 17 18  2  0
 18 19  1  0
 19 20  2  0
 20 21  1  0
 21 22  2  0
 22 23  1  0
 23 24  1  0
 24 25  1  0
 25 26  1  0
 26 27  1  0
 27 28  1  0
 28 29  1  0
 28 30  1  0
 28 31  1  0
 23 32  2  0
 32 33  1  0
 33 34  2  0
 18  8  1  0
 34 21  1  0
 14  9  1  0
 34 17  1  0
  1 35  1  0
  1 36  1  0
  1 37  1  0
  2 38  1  0
  2 39  1  0
  4 40  1  0
  4 41  1  0
  4 42  1  0
  5 43  1  0
  5 44  1  0
  6 45  1  0
  6 46  1  0
  7 47  1  0
  7 48  1  0
 10 49  1  0
 11 50  1  0
 12 51  1  0
 13 52  1  0
 16 53  1  0
 16 54  1  0
 16 55  1  0
 19 56  1  0
 20 57  1  0
 22 58  1  0
 25 59  1  0
 25 60  1  0
 26 61  1  0
 26 62  1  0
 27 63  1  0
 27 64  1  0
 29 65  1  0
 29 66  1  0
 29 67  1  0
 30 68  1  0
 30 69  1  0
 30 70  1  0
 31 71  1  0
 31 72  1  0
 31 73  1  0
 32 74  1  0
 33 75  1  0
M  CHG  3   7   1  15   1  28   1
M  END
>  <UniqueID>  (5) 
5

>  <SMILES>  (5) 
CCN(C)CC[NH2+]c1c2ccccc2[n+](C)c2c1ccc1cc(OCCC[N+](C)(C)C)ccc12

>  <Energy>  (5) 
133.82233796455375

>  <Genealogy>  (5) 
CCN(C)CC[NH2+]c1c2ccccc2[n+](C)c2c1ccc1cc(OCCC[N+](C)(C)C)ccc12 (protonated)
CCN(C)CC[NH2+]c1c2ccccc2[n+](C)c2c1ccc1cc(OCCC[N+](C)(C)C)ccc12 (3D coordinates assigned)
CCN(C)CC[NH2+]c1c2ccccc2[n+](C)c2c1ccc1cc(OCCC[N+](C)(C)C)ccc12 (optimized conformer: 133.82233796455375 kcal/mol)

>  <smiles>  (5) 
CCN(C)CCNc1c2ccccc2[n+](C)c2c1ccc1cc(OCCC[N+](C)(C)C)ccc12

>  <score_type>  (5) 
oracle

>  <origin>  (5) 
adg

>  <m_score__min__energy>  (5) 
-8.9900000000000002

>  <m_primary>  (5) 
energy

$$$$
5:0
     RDKit          3D

 23 24  0  0  0  0  0  0  0  0999 V2000
   -3.4920   20.8970  -30.5050 C   0  0  0  0  0  0  0  0  0  0  0  0
   -3.0880   21.6910  -31.4990 C   0  0  0  0  0  0  0  0  0  0  0  0
   -3.9770   21.9630  -32.6800 C   0  0  0  0  0  0  0  0  0  0  0  0
   -5.2600   22.5130  -32.2420 N   0  0  0  0  0  0  0  0  0  0  0  0
   -5.4060   23.6960  -31.4510 C   0  0  0  0  0  0  0  0  0  0  0  0
   -4.4770   24.5140  -31.2170 O   0  0  0  0  0  0  0  0  0  0  0  0
   -6.7620   23.7990  -30.9440 C   0  0  0  0  0  0  0  0  0  0  0  0
   -7.2370   24.7120  -30.2200 O   0  0  0  0  0  0  0  0  0  0  0  0
   -7.4490   22.6180  -31.4320 C   0  0  0  0  0  0  0  0  0  0  0  0
   -8.7630   22.2090  -31.2190 C   0  0  0  0  0  0  0  0  0  0  0  0
   -9.1810   21.0010  -31.7930 C   0  0  0  0  0  0  0  0  0  0  0  0
   -8.2890   20.2300  -32.5590 C   0  0  0  0  0  0  0  0  0  0  0  0
   -6.9620   20.6520  -32.7670 C   0  0  0  0  0  0  0  0  0  0  0  0
   -5.9140   19.6380  -33.7460 Cl  0  0  0  0  0  0  0  0  0  0  0  0
   -6.5510   21.8690  -32.1840 C   0  0  0  0  0  0  0  0  0  0  0  0
   -2.8290   20.7082  -29.6478 H   0  0  0  0  0  0  0  0  0  0  0  0
   -4.4879   20.4314  -30.5431 H   0  0  0  0  0  0  0  0  0  0  0  0
   -2.0906   22.1527  -31.4532 H   0  0  0  0  0  0  0  0  0  0  0  0
   -3.4824   22.6852  -33.3462 H   0  0  0  0  0  0  0  0  0  0  0  0
   -4.1592   21.0178  -33.2123 H   0  0  0  0  0  0  0  0  0  0  0  0
   -9.4537   22.8174  -30.6168 H   0  0  0  0  0  0  0  0  0  0  0  0
  -10.2139   20.6536  -31.6433 H   0  0  0  0  0  0  0  0  0  0  0  0
   -8.6328   19.2837  -33.0021 H   0  0  0  0  0  0  0  0  0  0  0  0
  1  2  2  0
  2  3  1  0
  3  4  1  0
  4  5  1  0
  5  6  2  0
  5  7  1  0
  7  8  2  0
  7  9  1  0
  9 10  2  0
 10 11  1  0
 11 12  2  0
 12 13  1  0
 13 14  1  0
 13 15  2  0
 15  4  1  0
 15  9  1  0
  1 16  1  0
  1 17  1  0
  2 18  1  0
  3 19  1  0
  3 20  1  0
 10 21  1  0
 11 22  1  0
 12 23  1  0
M  END
>  <UniqueID>  (6) 
6

>  <SMILES>  (6) 
C=CCN1C(=O)C(=O)c2cccc(Cl)c21

>  <Energy>  (6) 
54.58402578272325

>  <Genealogy>  (6) 
C=CCN1C(=O)C(=O)c2cccc(Cl)c21 (3D coordinates assigned)
C=CCN1C(=O)C(=O)c2cccc(Cl)c21 (nonaromatic ring conformer: 54.58402578272325 kcal/mol)

>  <smiles>  (6) 
C=CCN1C(=O)C(=O)c2cccc(Cl)c21

>  <score_type>  (6) 
oracle

>  <origin>  (6) 
adg

>  <m_score__min__energy>  (6) 
-6.8099999999999996

>  <m_primary>  (6) 
energy

$$$$
6:0
     RDKit          3D

 78 82  0  0  0  0  0  0  0  0999 V2000
   -2.8880   16.7930  -33.4160 C   0  0  0  0  0  0  0  0  0  0  0  0
   -4.3740   17.0370  -33.5240 C   0  0  0  0  0  0  0  0  0  0  0  0
   -5.1850   15.9150  -33.6900 C   0  0  0  0  0  0  0  0  0  0  0  0
   -6.5600   16.0410  -33.6660 C   0  0  0  0  0  0  0  0  0  0  0  0
   -7.1290   17.2760  -33.3890 C   0  0  0  0  0  0  0  0  0  0  0  0
   -6.3560   18.3960  -33.1690 N   0  0  0  0  0  0  0  0  0  0  0  0
   -4.9900   18.3240  -33.3980 C   0  0  0  0  0  0  0  0  0  0  0  0
   -4.2460   19.5250  -33.5320 C   0  0  0  0  0  0  0  0  0  0  0  0
   -2.9410   19.5170  -34.1390 N   0  0  0  0  0  0  0  0  0  0  0  0
   -1.7310   19.7250  -33.3770 C   0  0  0  0  0  0  0  0  0  0  0  0
   -1.7080   19.4170  -32.0010 C   0  0  0  0  0  0  0  0  0  0  0  0
   -0.5410   19.5600  -31.2530 C   0  0  0  0  0  0  0  0  0  0  0  0
    0.6300   20.0110  -31.8550 C   0  0  0  0  0  0  0  0  0  0  0  0
    0.6410   20.3400  -33.2170 C   0  0  0  0  0  0  0  0  0  0  0  0
    1.8230   20.8090  -33.8090 C   0  0  0  0  0  0  0  0  0  0  0  0
    1.8410   21.1660  -35.1570 C   0  0  0  0  0  0  0  0  0  0  0  0
    0.6810   21.0630  -35.9230 C   0  0  0  0  0  0  0  0  0  0  0  0
   -0.5040   20.5940  -35.3520 C   0  0  0  0  0  0  0  0  0  0  0  0
   -0.5440   20.2070  -33.9940 C   0  0  0  0  0  0  0  0  0  0  0  0
   -4.8430   20.7670  -33.2370 C   0  0  0  0  0  0  0  0  0  0  0  0
   -4.0740   21.9910  -33.4000 N   0  0  0  0  0  0  0  0  0  0  0  0
   -3.2360   22.2330  -32.2150 C   0  0  0  0  0  0  0  0  0  0  0  0
   -4.0830   22.7480  -31.0420 C   0  0  0  0  0  0  0  0  0  0  0  0
   -3.9310   24.2020  -30.8810 N   0  0  0  0  0  0  0  0  0  0  0  0
   -5.2250   24.8630  -30.6600 C   0  0  0  0  0  0  0  0  0  0  0  0
   -5.5270   24.9230  -29.1540 C   0  0  0  0  0  0  0  0  0  0  0  0
   -4.6870   23.9970  -28.3760 N   0  0  0  0  0  0  0  0  0  0  0  0
   -4.2390   24.5630  -27.0930 C   0  0  0  0  0  0  0  0  0  0  0  0
   -2.7080   24.5500  -27.0120 C   0  0  0  0  0  0  0  0  0  0  0  0
   -2.0980   24.8300  -28.3310 N   0  0  0  0  0  0  0  0  0  0  0  0
   -1.3520   23.6590  -28.8280 C   0  0  0  0  0  0  0  0  0  0  0  0
   -1.1900   25.9840  -28.2390 C   0  0  0  0  0  0  0  0  0  0  0  0
   -6.1780   20.7910  -32.7640 C   0  0  0  0  0  0  0  0  0  0  0  0
   -6.7830   21.9930  -32.3200 C   0  0  0  0  0  0  0  0  0  0  0  0
   -8.0930   22.0070  -31.8520 C   0  0  0  0  0  0  0  0  0  0  0  0
   -8.8210   20.8310  -31.7930 C   0  0  0  0  0  0  0  0  0  0  0  0
   -8.2530   19.6320  -32.2140 C   0  0  0  0  0  0  0  0  0  0  0  0
   -6.9320   19.5830  -32.7430 C   0  0  0  0  0  0  0  0  0  0  0  0
   -2.6003   16.7458  -32.3553 H   0  0  0  0  0  0  0  0  0  0  0  0
   -2.6360   15.8415  -33.9070 H   0  0  0  0  0  0  0  0  0  0  0  0
   -2.3450   17.6140  -33.9070 H   0  0  0  0  0  0  0  0  0  0  0  0
   -4.7279   14.9259  -33.8406 H   0  0  0  0  0  0  0  0  0  0  0  0
   -7.1997   15.1686  -33.8651 H   0  0  0  0  0  0  0  0  0  0  0  0
   -8.2246   17.3635  -33.3438 H   0  0  0  0  0  0  0  0  0  0  0  0
   -2.8770   19.1140  -35.0980 H   0  0  0  0  0  0  0  0  0  0  0  0
   -2.6251   19.0585  -31.5108 H   0  0  0  0  0  0  0  0  0  0  0  0
   -0.5453   19.3150  -30.1806 H   0  0  0  0  0  0  0  0  0  0  0  0
    1.5497   20.1095  -31.2597 H   0  0  0  0  0  0  0  0  0  0  0  0
    2.7398   20.8956  -33.2073 H   0  0  0  0  0  0  0  0  0  0  0  0
    2.7720   21.5294  -35.6165 H   0  0  0  0  0  0  0  0  0  0  0  0
    0.6991   21.3530  -36.9839 H   0  0  0  0  0  0  0  0  0  0  0  0
   -1.4146   20.5253  -35.9653 H   0  0  0  0  0  0  0  0  0  0  0  0
   -3.4660   21.9380  -34.2480 H   0  0  0  0  0  0  0  0  0  0  0  0
   -4.7020   22.8040  -33.5860 H   0  0  0  0  0  0  0  0  0  0  0  0
   -2.7474   21.2923  -31.9210 H   0  0  0  0  0  0  0  0  0  0  0  0
   -2.4829   22.9944  -32.4662 H   0  0  0  0  0  0  0  0  0  0  0  0
   -5.1411   22.5158  -31.2331 H   0  0  0  0  0  0  0  0  0  0  0  0
   -3.7410   22.2555  -30.1198 H   0  0  0  0  0  0  0  0  0  0  0  0
   -3.3480   24.3610  -30.0270 H   0  0  0  0  0  0  0  0  0  0  0  0
   -5.1876   25.8846  -31.0662 H   0  0  0  0  0  0  0  0  0  0  0  0
   -6.0165   24.2919  -31.1673 H   0  0  0  0  0  0  0  0  0  0  0  0
   -5.3462   25.9480  -28.7980 H   0  0  0  0  0  0  0  0  0  0  0  0
   -6.5762   24.6257  -29.0101 H   0  0  0  0  0  0  0  0  0  0  0  0
   -3.8550   23.7150  -28.9460 H   0  0  0  0  0  0  0  0  0  0  0  0
   -4.5982   25.5992  -27.0082 H   0  0  0  0  0  0  0  0  0  0  0  0
   -4.6462   23.9550  -26.2717 H   0  0  0  0  0  0  0  0  0  0  0  0
   -2.3804   25.3176  -26.2954 H   0  0  0  0  0  0  0  0  0  0  0  0
   -2.3858   23.5503  -26.6853 H   0  0  0  0  0  0  0  0  0  0  0  0
   -0.9787   23.0731  -27.9751 H   0  0  0  0  0  0  0  0  0  0  0  0
   -2.0179   23.0327  -29.4398 H   0  0  0  0  0  0  0  0  0  0  0  0
   -0.5029   23.9978  -29.4398 H   0  0  0  0  0  0  0  0  0  0  0  0
   -1.0038   26.2206  -27.1810 H   0  0  0  0  0  0  0  0  0  0  0  0
   -0.2378   25.7417  -28.7336 H   0  0  0  0  0  0  0  0  0  0  0  0
   -1.6495   26.8525  -28.7336 H   0  0  0  0  0  0  0  0  0  0  0  0
   -6.2075   22.9301  -32.3458 H   0  0  0  0  0  0  0  0  0  0  0  0
   -8.5508   22.9534  -31.5285 H   0  0  0  0  0  0  0  0  0  0  0  0
   -9.8527   20.8441  -31.4118 H   0  0  0  0  0  0  0  0  0  0  0  0
   -8.8368   18.7030  -32.1364 H   0  0  0  0  0  0  0  0  0  0  0  0
  1  2  1  0
  2  3  2  0
  3  4  1  0
  4  5  2  0
  5  6  1  0
  6  7  2  0
  7  8  1  0
  8  9  1  0
  9 10  1  0
 10 11  2  0
 11 12  1  0
 12 13  2  0
 13 14  1  0
 14 15  2  0
 15 16  1  0
 16 17  2  0
 17 18  1  0
 18 19  2  0
  8 20  2  0
 20 21  1  0
 21 22  1  0
 22 23  1  0
 23 24  1  0
 24 25  1  0
 25 26  1  0
 26 27  1  0
 27 28  1  0
 28 29  1  0
 29 30  1  0
 30 31  1  0
 30 32  1  0
 20 33  1  0
 33 34  2  0
 34 35  1  0
 35 36  2  0
 36 37  1  0
 37 38  2  0
  7  2  1  0
 19 10  1  0
 38 33  1  0
 38  6  1  0
 19 14  1  0
  1 39  1  0
  1 40  1  0
  1 41  1  0
  3 42  1  0
  4 43  1  0
  5 44  1  0
  9 45  1  0
 11 46  1  0
 12 47  1  0
 13 48  1  0
 15 49  1  0
 16 50  1  0
 17 51  1  0
 18 52  1  0
 21 53  1  0
 21 54  1  0
 22 55  1  0
 22 56  1  0
 23 57  1  0
 23 58  1  0
 24 59  1  0
 25 60  1  0
 25 61  1  0
 26 62  1  0
 26 63  1  0
 27 64  1  0
 28 65  1  0
 28 66  1  0
 29 67  1  0
 29 68  1  0
 31 69  1  0
 31 70  1  0
 31 71  1  0
 32 72  1  0
 32 73  1  0
 32 74  1  0
 34 75  1  0
 35 76  1  0
 36 77  1  0
 37 78  1  0
M  CHG  2   6   1  21   1
M  END
>  <UniqueID>  (7) 
7

>  <SMILES>  (7) 
Cc1ccc[n+]2c1c(Nc1cccc3ccccc13)c([NH2+]CCNCCNCCN(C)C)c1ccccc12

>  <Energy>  (7) 
123.74819642879201

>  <Genealogy>  (7) 
Cc1ccc[n+]2c1c(Nc1cccc3ccccc13)c([NH2+]CCNCCNCCN(C)C)c1ccccc12 (protonated)
Cc1ccc[n+]2c1c(Nc1cccc3ccccc13)c([NH2+]CCNCCNCCN(C)C)c1ccccc12 (3D coordinates assigned)
Cc1ccc[n+]2c1c(Nc1cccc3ccccc13)c([NH2+]CCNCCNCCN(C)C)c1ccccc12 (optimized conformer: 123.74819642879201 kcal/mol)

>  <smiles>  (7) 
Cc1ccc[n+]2c1c(Nc1cccc3ccccc13)c(NCCNCCNCCN(C)C)c1ccccc12

>  <score_type>  (7) 
oracle

>  <origin>  (7) 
adg

>  <m_score__min__energy>  (7) 
-11.16

>  <m_primary>  (7) 
energy

$$$$
7:0
     RDKit          3D

 35 36  0  0  0  0  0  0  0  0999 V2000
   -6.4550   24.8410  -29.7810 C   0  0  0  0  0  0  0  0  0  0  0  0
   -5.2900   25.5440  -30.4680 C   0  0  0  0  0  0  0  0  0  0  0  0
   -4.4800   24.5690  -31.2100 N   0  0  0  0  0  0  0  0  0  0  0  0
   -4.4810   23.2730  -30.5160 C   0  0  0  0  0  0  0  0  0  0  0  0
   -4.5300   22.1090  -31.5290 C   0  0  0  0  0  0  0  0  0  0  0  0
   -5.4060   22.3830  -32.6850 N   0  0  0  0  0  0  0  0  0  0  0  0
   -6.7740   21.9630  -32.4550 C   0  0  0  0  0  0  0  0  0  0  0  0
   -7.7560   22.9410  -32.2340 C   0  0  0  0  0  0  0  0  0  0  0  0
   -9.0710   22.5780  -31.9760 C   0  0  0  0  0  0  0  0  0  0  0  0
   -9.4170   21.2340  -31.9400 C   0  0  0  0  0  0  0  0  0  0  0  0
   -8.4830   20.2620  -32.1620 N   0  0  0  0  0  0  0  0  0  0  0  0
   -8.8830   18.9520  -32.1200 C   0  0  0  0  0  0  0  0  0  0  0  0
   -7.9750   17.9200  -32.3440 C   0  0  0  0  0  0  0  0  0  0  0  0
   -6.6470   18.2260  -32.6140 C   0  0  0  0  0  0  0  0  0  0  0  0
   -6.2350   19.5550  -32.6570 C   0  0  0  0  0  0  0  0  0  0  0  0
   -7.1640   20.5910  -32.4240 C   0  0  0  0  0  0  0  0  0  0  0  0
   -6.3350   24.9134  -28.6900 H   0  0  0  0  0  0  0  0  0  0  0  0
   -7.3994   25.3201  -30.0786 H   0  0  0  0  0  0  0  0  0  0  0  0
   -6.4713   23.7822  -30.0786 H   0  0  0  0  0  0  0  0  0  0  0  0
   -5.6809   26.2988  -31.1661 H   0  0  0  0  0  0  0  0  0  0  0  0
   -4.6619   26.0290  -29.7063 H   0  0  0  0  0  0  0  0  0  0  0  0
   -3.5000   24.9310  -31.2380 H   0  0  0  0  0  0  0  0  0  0  0  0
   -3.5660   23.1868  -29.9116 H   0  0  0  0  0  0  0  0  0  0  0  0
   -5.3714   23.2182  -29.8725 H   0  0  0  0  0  0  0  0  0  0  0  0
   -3.5107   21.9236  -31.8986 H   0  0  0  0  0  0  0  0  0  0  0  0
   -4.9436   21.2352  -31.0043 H   0  0  0  0  0  0  0  0  0  0  0  0
   -5.3690   23.4060  -32.9060 H   0  0  0  0  0  0  0  0  0  0  0  0
   -5.0280   21.9060  -33.5350 H   0  0  0  0  0  0  0  0  0  0  0  0
   -7.4811   24.0056  -32.2655 H   0  0  0  0  0  0  0  0  0  0  0  0
   -9.8342   23.3507  -31.8012 H   0  0  0  0  0  0  0  0  0  0  0  0
  -10.4580   20.9476  -31.7297 H   0  0  0  0  0  0  0  0  0  0  0  0
   -9.9351   18.7124  -31.9065 H   0  0  0  0  0  0  0  0  0  0  0  0
   -8.3064   16.8718  -32.3075 H   0  0  0  0  0  0  0  0  0  0  0  0
   -5.9217   17.4188  -32.7936 H   0  0  0  0  0  0  0  0  0  0  0  0
   -5.1841   19.7977  -32.8729 H   0  0  0  0  0  0  0  0  0  0  0  0
  1  2  1  0
  2  3  1  0
  3  4  1  0
  4  5  1  0
  5  6  1  0
  6  7  1  0
  7  8  2  0
  8  9  1  0
  9 10  2  0
 10 11  1  0
 11 12  2  0
 12 13  1  0
 13 14  2  0
 14 15  1  0
 15 16  2  0
 16  7  1  0
 16 11  1  0
  1 17  1  0
  1 18  1  0
  1 19  1  0
  2 20  1  0
  2 21  1  0
  3 22  1  0
  4 23  1  0
  4 24  1  0
  5 25  1  0
  5 26  1  0
  6 27  1  0
  6 28  1  0
  8 29  1  0
  9 30  1  0
 10 31  1  0
 12 32  1  0
 13 33  1  0
 14 34  1  0
 15 35  1  0
M  CHG  2   6   1  11   1
M  END
>  <UniqueID>  (8) 
8

>  <SMILES>  (8) 
CCNCC[NH2+]c1ccc[n+]2ccccc12

>  <Energy>  (8) 
38.98387066583803

>  <Genealogy>  (8) 
CCNCC[NH2+]c1ccc[n+]2ccccc12 (protonated)
CCNCC[NH2+]c1ccc[n+]2ccccc12 (3D coordinates assigned)
CCNCC[NH2+]c1ccc[n+]2ccccc12 (optimized conformer: 38.98387066583803 kcal/mol)

>  <smiles>  (8) 
CCNCCNc1ccc[n+]2ccccc12

>  <score_type>  (8) 
oracle

>  <origin>  (8) 
adg

>  <m_score__min__energy>  (8) 
-6.1299999999999999

>  <m_primary>  (8) 
energy

$$$$
8:0
     RDKit          3D

 49 51  0  0  0  0  0  0  0  0999 V2000
   -8.4540   18.2580  -31.6360 C   0  0  0  0  0  0  0  0  0  0  0  0
   -9.2420   19.3000  -32.4180 C   0  0  0  0  0  0  0  0  0  0  0  0
   -9.4470   20.4980  -31.5930 N   0  0  0  0  0  0  0  0  0  0  0  0
   -8.1810   21.2050  -31.3530 C   0  0  0  0  0  0  0  0  0  0  0  0
   -7.4180   21.3950  -32.6700 C   0  0  0  0  0  0  0  0  0  0  0  0
   -5.9240   21.1690  -32.4730 C   0  0  0  0  0  0  0  0  0  0  0  0
   -5.2930   19.9850  -32.9580 C   0  0  0  0  0  0  0  0  0  0  0  0
   -5.9630   19.0240  -33.7530 C   0  0  0  0  0  0  0  0  0  0  0  0
   -5.3150   17.8600  -34.1840 C   0  0  0  0  0  0  0  0  0  0  0  0
   -6.0390   16.9470  -34.9650 O   0  0  0  0  0  0  0  0  0  0  0  0
   -6.8240   15.8820  -34.4400 C   0  0  0  0  0  0  0  0  0  0  0  0
   -3.9740   17.6440  -33.8270 C   0  0  0  0  0  0  0  0  0  0  0  0
   -3.2890   18.5920  -33.0670 C   0  0  0  0  0  0  0  0  0  0  0  0
   -3.9330   19.7580  -32.6430 C   0  0  0  0  0  0  0  0  0  0  0  0
   -3.2310   20.6750  -31.9360 N   0  0  0  0  0  0  0  0  0  0  0  0
   -3.7740   21.8430  -31.5200 C   0  0  0  0  0  0  0  0  0  0  0  0
   -2.9720   22.7520  -30.8260 C   0  0  0  0  0  0  0  0  0  0  0  0
   -3.4870   23.9910  -30.4110 C   0  0  0  0  0  0  0  0  0  0  0  0
   -2.7070   24.9260  -29.7110 O   0  0  0  0  0  0  0  0  0  0  0  0
   -2.1370   24.7030  -28.4260 C   0  0  0  0  0  0  0  0  0  0  0  0
   -4.8160   24.3190  -30.7020 C   0  0  0  0  0  0  0  0  0  0  0  0
   -5.2960   25.5730  -30.2910 O   0  0  0  0  0  0  0  0  0  0  0  0
   -6.3750   25.7720  -29.3830 C   0  0  0  0  0  0  0  0  0  0  0  0
   -5.6280   23.4000  -31.3940 C   0  0  0  0  0  0  0  0  0  0  0  0
   -5.1270   22.1400  -31.7960 C   0  0  0  0  0  0  0  0  0  0  0  0
   -8.5855   18.4319  -30.5578 H   0  0  0  0  0  0  0  0  0  0  0  0
   -8.8200   17.2529  -31.8926 H   0  0  0  0  0  0  0  0  0  0  0  0
   -7.3872   18.3364  -31.8926 H   0  0  0  0  0  0  0  0  0  0  0  0
   -8.6836   19.5737  -33.3253 H   0  0  0  0  0  0  0  0  0  0  0  0
  -10.2204   18.8802  -32.6946 H   0  0  0  0  0  0  0  0  0  0  0  0
   -9.8150   20.1810  -30.6650 H   0  0  0  0  0  0  0  0  0  0  0  0
   -8.3937   22.1899  -30.9117 H   0  0  0  0  0  0  0  0  0  0  0  0
   -7.5635   20.6086  -30.6652 H   0  0  0  0  0  0  0  0  0  0  0  0
   -7.7959   20.6759  -33.4116 H   0  0  0  0  0  0  0  0  0  0  0  0
   -7.5734   22.4264  -33.0194 H   0  0  0  0  0  0  0  0  0  0  0  0
   -7.0118   19.1949  -34.0373 H   0  0  0  0  0  0  0  0  0  0  0  0
   -6.7993   15.9156  -33.3408 H   0  0  0  0  0  0  0  0  0  0  0  0
   -7.8627   15.9866  -34.7867 H   0  0  0  0  0  0  0  0  0  0  0  0
   -6.4167   14.9208  -34.7867 H   0  0  0  0  0  0  0  0  0  0  0  0
   -3.4624   16.7245  -34.1477 H   0  0  0  0  0  0  0  0  0  0  0  0
   -2.2358   18.4211  -32.7997 H   0  0  0  0  0  0  0  0  0  0  0  0
   -1.9262   22.4948  -30.6022 H   0  0  0  0  0  0  0  0  0  0  0  0
   -2.8621   24.9867  -27.6490 H   0  0  0  0  0  0  0  0  0  0  0  0
   -1.8814   23.6386  -28.3180 H   0  0  0  0  0  0  0  0  0  0  0  0
   -1.2270   25.3114  -28.3180 H   0  0  0  0  0  0  0  0  0  0  0  0
   -6.0026   25.7033  -28.3503 H   0  0  0  0  0  0  0  0  0  0  0  0
   -6.8150   26.7664  -29.5487 H   0  0  0  0  0  0  0  0  0  0  0  0
   -7.1408   24.9999  -29.5487 H   0  0  0  0  0  0  0  0  0  0  0  0
   -6.6697   23.6666  -31.6259 H   0  0  0  0  0  0  0  0  0  0  0  0
  1  2  1  0
  2  3  1  0
  3  4  1  0
  4  5  1  0
  5  6  1  0
  6  7  2  0
  7  8  1  0
  8  9  2  0
  9 10  1  0
 10 11  1  0
  9 12  1  0
 12 13  2  0
 13 14  1  0
 14 15  2  0
 15 16  1  0
 16 17  2  0
 17 18  1  0
 18 19  1  0
 19 20  1  0
 18 21  2  0
 21 22  1  0
 22 23  1  0
 21 24  1  0
 24 25  2  0
 25  6  1  0
 14  7  1  0
 25 16  1  0
  1 26  1  0
  1 27  1  0
  1 28  1  0
  2 29  1  0
  2 30  1  0
  3 31  1  0
  4 32  1  0
  4 33  1  0
  5 34  1  0
  5 35  1  0
  8 36  1  0
 11 37  1  0
 11 38  1  0
 11 39  1  0
 12 40  1  0
 13 41  1  0
 17 42  1  0
 20 43  1  0
 20 44  1  0
 20 45  1  0
 23 46  1  0
 23 47  1  0
 23 48  1  0
 24 49  1  0
M  END
>  <UniqueID>  (9) 
9

>  <SMILES>  (9) 
CCNCCc1c2cc(OC)ccc2nc2cc(OC)c(OC)cc12

>  <Energy>  (9) 
56.05315772583236

>  <Genealogy>  (9) 
CCNCCc1c2cc(OC)ccc2nc2cc(OC)c(OC)cc12 (3D coordinates assigned)
CCNCCc1c2cc(OC)ccc2nc2cc(OC)c(OC)cc12 (optimized conformer: 56.05315772583236 kcal/mol)

>  <smiles>  (9) 
CCNCCc1c2cc(OC)ccc2nc2cc(OC)c(OC)cc12

>  <score_type>  (9) 
oracle

>  <origin>  (9) 
adg

>  <m_score__min__energy>  (9) 
-7.7300000000000004

>  <m_primary>  (9) 
energy

$$$$
9:0
     RDKit          3D

 54 56  0  0  0  0  0  0  0  0999 V2000
   -3.0830   23.6750  -28.0870 C   0  0  0  0  0  0  0  0  0  0  0  0
   -3.7460   22.3050  -27.9050 C   0  0  0  0  0  0  0  0  0  0  0  0
   -2.8520   21.1940  -28.3390 N   0  0  0  0  0  0  0  0  0  0  0  0
   -2.9850   20.0410  -27.4050 C   0  0  0  0  0  0  0  0  0  0  0  0
   -1.6320   19.4090  -27.0590 C   0  0  0  0  0  0  0  0  0  0  0  0
   -3.1690   20.7690  -29.7310 C   0  0  0  0  0  0  0  0  0  0  0  0
   -2.1100   21.2110  -30.7630 C   0  0  0  0  0  0  0  0  0  0  0  0
   -2.7290   21.6460  -32.0180 N   0  0  0  0  0  0  0  0  0  0  0  0
   -4.1310   21.4530  -32.2820 C   0  0  0  0  0  0  0  0  0  0  0  0
   -5.0720   22.3490  -31.7400 C   0  0  0  0  0  0  0  0  0  0  0  0
   -4.6780   23.6040  -31.2250 C   0  0  0  0  0  0  0  0  0  0  0  0
   -5.6210   24.4980  -30.7110 C   0  0  0  0  0  0  0  0  0  0  0  0
   -5.2060   25.7660  -30.1950 N   0  0  0  0  0  0  0  0  0  0  0  0
   -6.9710   24.1510  -30.7130 C   0  0  0  0  0  0  0  0  0  0  0  0
   -7.3770   22.9060  -31.1920 C   0  0  0  0  0  0  0  0  0  0  0  0
   -6.4350   21.9650  -31.6750 C   0  0  0  0  0  0  0  0  0  0  0  0
   -6.8110   20.6910  -32.0540 N   0  0  0  0  0  0  0  0  0  0  0  0
   -8.1270   20.1560  -31.6400 C   0  0  0  0  0  0  0  0  0  0  0  0
   -5.9490   19.9140  -32.8040 C   0  0  0  0  0  0  0  0  0  0  0  0
   -6.3890   18.7210  -33.4280 C   0  0  0  0  0  0  0  0  0  0  0  0
   -5.5150   17.9260  -34.1610 C   0  0  0  0  0  0  0  0  0  0  0  0
   -4.2040   18.3300  -34.3590 C   0  0  0  0  0  0  0  0  0  0  0  0
   -3.7400   19.5360  -33.8240 C   0  0  0  0  0  0  0  0  0  0  0  0
   -2.4580   20.0080  -34.2610 N   0  0  0  0  0  0  0  0  0  0  0  0
   -4.5890   20.3070  -32.9740 C   0  0  0  0  0  0  0  0  0  0  0  0
   -2.8708   24.1136  -27.1008 H   0  0  0  0  0  0  0  0  0  0  0  0
   -2.1428   23.5561  -28.6454 H   0  0  0  0  0  0  0  0  0  0  0  0
   -3.7597   24.3385  -28.6454 H   0  0  0  0  0  0  0  0  0  0  0  0
   -3.9936   22.1679  -26.8420 H   0  0  0  0  0  0  0  0  0  0  0  0
   -4.6514   22.2783  -28.5291 H   0  0  0  0  0  0  0  0  0  0  0  0
   -1.8630   21.5290  -28.3070 H   0  0  0  0  0  0  0  0  0  0  0  0
   -3.4587   20.3918  -26.4763 H   0  0  0  0  0  0  0  0  0  0  0  0
   -3.5951   19.2740  -27.9044 H   0  0  0  0  0  0  0  0  0  0  0  0
   -1.5205   19.3569  -25.9659 H   0  0  0  0  0  0  0  0  0  0  0  0
   -1.5824   18.3945  -27.4814 H   0  0  0  0  0  0  0  0  0  0  0  0
   -0.8222   20.0220  -27.4814 H   0  0  0  0  0  0  0  0  0  0  0  0
   -3.2403   19.6715  -29.7528 H   0  0  0  0  0  0  0  0  0  0  0  0
   -4.1165   21.2529  -30.0104 H   0  0  0  0  0  0  0  0  0  0  0  0
   -1.5290   22.0455  -30.3434 H   0  0  0  0  0  0  0  0  0  0  0  0
   -1.4604   20.3502  -30.9798 H   0  0  0  0  0  0  0  0  0  0  0  0
   -2.1460   22.2060  -32.6810 H   0  0  0  0  0  0  0  0  0  0  0  0
   -3.6136   23.8815  -31.2286 H   0  0  0  0  0  0  0  0  0  0  0  0
   -5.0950   25.9150  -29.1670 H   0  0  0  0  0  0  0  0  0  0  0  0
   -5.0040   26.5650  -30.8360 H   0  0  0  0  0  0  0  0  0  0  0  0
   -7.7197   24.8627  -30.3349 H   0  0  0  0  0  0  0  0  0  0  0  0
   -8.4469   22.6503  -31.1948 H   0  0  0  0  0  0  0  0  0  0  0  0
   -8.1843   20.1327  -30.5417 H   0  0  0  0  0  0  0  0  0  0  0  0
   -8.9258   20.8008  -32.0352 H   0  0  0  0  0  0  0  0  0  0  0  0
   -8.2493   19.1368  -32.0352 H   0  0  0  0  0  0  0  0  0  0  0  0
   -7.4419   18.4178  -33.3309 H   0  0  0  0  0  0  0  0  0  0  0  0
   -5.8651   16.9734  -34.5851 H   0  0  0  0  0  0  0  0  0  0  0  0
   -3.5213   17.6954  -34.9431 H   0  0  0  0  0  0  0  0  0  0  0  0
   -2.3710   20.8120  -34.9190 H   0  0  0  0  0  0  0  0  0  0  0  0
   -1.6000   19.4330  -34.0970 H   0  0  0  0  0  0  0  0  0  0  0  0
  1  2  1  0
  2  3  1  0
  3  4  1  0
  4  5  1  0
  3  6  1  0
  6  7  1  0
  7  8  1  0
  8  9  1  0
  9 10  2  0
 10 11  1  0
 11 12  2  0
 12 13  1  0
 12 14  1  0
 14 15  2  0
 15 16  1  0
 16 17  2  0
 17 18  1  0
 17 19  1  0
 19 20  2  0
 20 21  1  0
 21 22  2  0
 22 23  1  0
 23 24  1  0
 23 25  2  0
 25  9  1  0
 16 10  1  0
 25 19  1  0
  1 26  1  0
  1 27  1  0
  1 28  1  0
  2 29  1  0
  2 30  1  0
  3 31  1  0
  4 32  1  0
  4 33  1  0
  5 34  1  0
  5 35  1  0
  5 36  1  0
  6 37  1  0
  6 38  1  0
  7 39  1  0
  7 40  1  0
  8 41  1  0
 11 42  1  0
 13 43  1  0
 13 44  1  0
 14 45  1  0
 15 46  1  0
 18 47  1  0
 18 48  1  0
 18 49  1  0
 20 50  1  0
 21 51  1  0
 22 52  1  0
 24 53  1  0
 24 54  1  0
M  CHG  2   3   1  17   1
M  END
>  <UniqueID>  (10) 
10

>  <SMILES>  (10) 
CC[NH+](CC)CCNc1c2cc(N)ccc2[n+](C)c2cccc(N)c12

>  <Energy>  (10) 
86.56366705497801

>  <Genealogy>  (10) 
CC[NH+](CC)CCNc1c2cc(N)ccc2[n+](C)c2cccc(N)c12 (protonated)
CC[NH+](CC)CCNc1c2cc(N)ccc2[n+](C)c2cccc(N)c12 (3D coordinates assigned)
CC[NH+](CC)CCNc1c2cc(N)ccc2[n+](C)c2cccc(N)c12 (optimized conformer: 86.56366705497801 kcal/mol)

>  <smiles>  (10) 
CCN(CC)CCNc1c2cc(N)ccc2[n+](C)c2cccc(N)c12

>  <score_type>  (10) 
oracle

>  <origin>  (10) 
adg

>  <m_score__min__energy>  (10) 
-6.5599999999999996

>  <m_primary>  (10) 
energy

$$$$
10:0
     RDKit          3D

 74 76  0  0  0  0  0  0  0  0999 V2000
   -3.8580   23.9300  -27.4790 C   0  0  0  0  0  0  0  0  0  0  0  0
   -3.7600   22.9740  -28.6700 C   0  0  0  0  0  0  0  0  0  0  0  0
   -2.8060   23.4160  -29.7090 N   0  0  0  0  0  0  0  0  0  0  0  0
   -1.3800   23.3960  -29.2960 C   0  0  0  0  0  0  0  0  0  0  0  0
   -0.5720   22.1910  -29.8000 C   0  0  0  0  0  0  0  0  0  0  0  0
   -3.1130   22.9110  -31.0660 C   0  0  0  0  0  0  0  0  0  0  0  0
   -4.0140   21.6680  -30.9890 C   0  0  0  0  0  0  0  0  0  0  0  0
   -4.5490   21.2800  -32.2990 N   0  0  0  0  0  0  0  0  0  0  0  0
   -4.1330   20.0830  -32.9770 C   0  0  0  0  0  0  0  0  0  0  0  0
   -2.8120   20.0090  -33.4530 C   0  0  0  0  0  0  0  0  0  0  0  0
   -1.9910   21.1580  -33.5010 C   0  0  0  0  0  0  0  0  0  0  0  0
   -0.6920   21.0860  -33.9960 C   0  0  0  0  0  0  0  0  0  0  0  0
   -0.1920   19.8780  -34.4640 C   0  0  0  0  0  0  0  0  0  0  0  0
   -0.9820   18.7310  -34.4230 C   0  0  0  0  0  0  0  0  0  0  0  0
   -2.2970   18.7670  -33.8910 C   0  0  0  0  0  0  0  0  0  0  0  0
   -3.0710   17.6320  -33.7930 N   0  0  0  0  0  0  0  0  0  0  0  0
   -2.4340   16.2990  -33.9050 C   0  0  0  0  0  0  0  0  0  0  0  0
   -4.4330   17.7350  -33.5730 C   0  0  0  0  0  0  0  0  0  0  0  0
   -5.2770   16.6240  -33.7840 C   0  0  0  0  0  0  0  0  0  0  0  0
   -6.6310   16.6860  -33.5130 C   0  0  0  0  0  0  0  0  0  0  0  0
   -7.2030   17.8620  -33.0650 C   0  0  0  0  0  0  0  0  0  0  0  0
   -6.4380   19.0400  -32.9030 C   0  0  0  0  0  0  0  0  0  0  0  0
   -7.0780   20.2940  -32.5220 N   0  0  0  0  0  0  0  0  0  0  0  0
   -8.3850   20.2010  -31.8440 C   0  0  0  0  0  0  0  0  0  0  0  0
   -9.1870   21.5190  -31.9340 C   0  0  0  0  0  0  0  0  0  0  0  0
   -8.3740   22.8050  -31.6820 C   0  0  0  0  0  0  0  0  0  0  0  0
   -7.0600   22.7630  -32.3380 N   0  0  0  0  0  0  0  0  0  0  0  0
   -6.3230   24.0040  -32.0670 C   0  0  0  0  0  0  0  0  0  0  0  0
   -6.4080   24.3510  -30.5780 C   0  0  0  0  0  0  0  0  0  0  0  0
   -5.6900   25.6700  -30.2770 C   0  0  0  0  0  0  0  0  0  0  0  0
   -4.2520   25.5140  -30.4770 N   0  0  0  0  0  0  0  0  0  0  0  0
   -5.0120   18.9720  -33.1420 C   0  0  0  0  0  0  0  0  0  0  0  0
   -3.7992   23.3561  -26.5424 H   0  0  0  0  0  0  0  0  0  0  0  0
   -3.0292   24.6521  -27.5193 H   0  0  0  0  0  0  0  0  0  0  0  0
   -4.8161   24.4689  -27.5193 H   0  0  0  0  0  0  0  0  0  0  0  0
   -3.4387   21.9894  -28.2996 H   0  0  0  0  0  0  0  0  0  0  0  0
   -4.7544   22.9415  -29.1391 H   0  0  0  0  0  0  0  0  0  0  0  0
   -0.9020   24.3103  -29.6775 H   0  0  0  0  0  0  0  0  0  0  0  0
   -1.3802   23.3268  -28.1982 H   0  0  0  0  0  0  0  0  0  0  0  0
   -0.1896   21.6207  -28.9407 H   0  0  0  0  0  0  0  0  0  0  0  0
   -1.2198   21.5445  -30.4102 H   0  0  0  0  0  0  0  0  0  0  0  0
    0.2721   22.5449  -30.4102 H   0  0  0  0  0  0  0  0  0  0  0  0
   -3.6295   23.6972  -31.6362 H   0  0  0  0  0  0  0  0  0  0  0  0
   -2.1714   22.6365  -31.5640 H   0  0  0  0  0  0  0  0  0  0  0  0
   -3.4258   20.8304  -30.5860 H   0  0  0  0  0  0  0  0  0  0  0  0
   -4.8668   21.9130  -30.3389 H   0  0  0  0  0  0  0  0  0  0  0  0
   -4.9290   22.0500  -32.8940 H   0  0  0  0  0  0  0  0  0  0  0  0
   -2.3832   22.1213  -33.1428 H   0  0  0  0  0  0  0  0  0  0  0  0
   -0.0610   21.9868  -34.0165 H   0  0  0  0  0  0  0  0  0  0  0  0
    0.8299   19.8265  -34.8679 H   0  0  0  0  0  0  0  0  0  0  0  0
   -0.5800   17.7827  -34.8091 H   0  0  0  0  0  0  0  0  0  0  0  0
   -2.2426   15.8984  -32.8986 H   0  0  0  0  0  0  0  0  0  0  0  0
   -3.1036   15.6172  -34.4498 H   0  0  0  0  0  0  0  0  0  0  0  0
   -1.4829   16.3917  -34.4498 H   0  0  0  0  0  0  0  0  0  0  0  0
   -4.8482   15.6885  -34.1725 H   0  0  0  0  0  0  0  0  0  0  0  0
   -7.2578   15.7932  -33.6548 H   0  0  0  0  0  0  0  0  0  0  0  0
   -8.2773   17.8818  -32.8293 H   0  0  0  0  0  0  0  0  0  0  0  0
   -7.2190   20.8650  -33.3860 H   0  0  0  0  0  0  0  0  0  0  0  0
   -6.4360   20.7660  -31.8550 H   0  0  0  0  0  0  0  0  0  0  0  0
   -8.9710   19.3974  -32.3140 H   0  0  0  0  0  0  0  0  0  0  0  0
   -8.1984   19.9924  -30.7802 H   0  0  0  0  0  0  0  0  0  0  0  0
   -9.6214   21.5840  -32.9425 H   0  0  0  0  0  0  0  0  0  0  0  0
   -9.9383   21.4727  -31.1319 H   0  0  0  0  0  0  0  0  0  0  0  0
   -8.9387   23.6644  -32.0727 H   0  0  0  0  0  0  0  0  0  0  0  0
   -8.2098   22.8962  -30.5981 H   0  0  0  0  0  0  0  0  0  0  0  0
   -7.2040   22.7230  -33.3730 H   0  0  0  0  0  0  0  0  0  0  0  0
   -5.2685   23.8702  -32.3499 H   0  0  0  0  0  0  0  0  0  0  0  0
   -6.7666   24.8220  -32.6536 H   0  0  0  0  0  0  0  0  0  0  0  0
   -7.4657   24.4441  -30.2907 H   0  0  0  0  0  0  0  0  0  0  0  0
   -5.9205   23.5491  -30.0042 H   0  0  0  0  0  0  0  0  0  0  0  0
   -6.0685   26.4526  -30.9510 H   0  0  0  0  0  0  0  0  0  0  0  0
   -5.8800   25.9535  -29.2313 H   0  0  0  0  0  0  0  0  0  0  0  0
   -3.8220   25.3100  -29.5460 H   0  0  0  0  0  0  0  0  0  0  0  0
   -3.8630   26.4350  -30.7890 H   0  0  0  0  0  0  0  0  0  0  0  0
  1  2  1  0
  2  3  1  0
  3  4  1  0
  4  5  1  0
  3  6  1  0
  6  7  1  0
  7  8  1  0
  8  9  1  0
  9 10  2  0
 10 11  1  0
 11 12  2  0
 12 13  1  0
 13 14  2  0
 14 15  1  0
 15 16  2  0
 16 17  1  0
 16 18  1  0
 18 19  2  0
 19 20  1  0
 20 21  2  0
 21 22  1  0
 22 23  1  0
 23 24  1  0
 24 25  1  0
 25 26  1  0
 26 27  1  0
 27 28  1  0
 28 29  1  0
 29 30  1  0
 30 31  1  0
 22 32  2  0
 32  9  1  0
 15 10  1  0
 32 18  1  0
  1 33  1  0
  1 34  1  0
  1 35  1  0
  2 36  1  0
  2 37  1  0
  4 38  1  0
  4 39  1  0
  5 40  1  0
  5 41  1  0
  5 42  1  0
  6 43  1  0
  6 44  1  0
  7 45  1  0
  7 46  1  0
  8 47  1  0
 11 48  1  0
 12 49  1  0
 13 50  1  0
 14 51  1  0
 17 52  1  0
 17 53  1  0
 17 54  1  0
 19 55  1  0
 20 56  1  0
 21 57  1  0
 23 58  1  0
 23 59  1  0
 24 60  1  0
 24 61  1  0
 25 62  1  0
 25 63  1  0
 26 64  1  0
 26 65  1  0
 27 66  1  0
 28 67  1  0
 28 68  1  0
 29 69  1  0
 29 70  1  0
 30 71  1  0
 30 72  1  0
 31 73  1  0
 31 74  1  0
M  CHG  2  16   1  23   1
M  END
>  <UniqueID>  (11) 
11

>  <SMILES>  (11) 
CCN(CC)CCNc1c2ccccc2[n+](C)c2cccc([NH2+]CCCNCCCN)c12

>  <Energy>  (11) 
109.23842199366071

>  <Genealogy>  (11) 
CCN(CC)CCNc1c2ccccc2[n+](C)c2cccc([NH2+]CCCNCCCN)c12 (protonated)
CCN(CC)CCNc1c2ccccc2[n+](C)c2cccc([NH2+]CCCNCCCN)c12 (3D coordinates assigned)
CCN(CC)CCNc1c2ccccc2[n+](C)c2cccc([NH2+]CCCNCCCN)c12 (optimized conformer: 109.23842199366071 kcal/mol)

>  <smiles>  (11) 
CCN(CC)CCNc1c2ccccc2[n+](C)c2cccc(NCCCNCCCN)c12

>  <score_type>  (11) 
oracle

>  <origin>  (11) 
adg

>  <m_score__min__energy>  (11) 
-8.9700000000000006

>  <m_primary>  (11) 
energy

$$$$
11:0
     RDKit          3D

 64 67  0  0  0  0  0  0  0  0999 V2000
   -1.3190   20.8650  -30.0120 C   0  0  0  0  0  0  0  0  0  0  0  0
   -2.7800   20.7000  -29.6120 C   0  0  0  0  0  0  0  0  0  0  0  0
   -3.6420   21.4430  -30.5370 N   0  0  0  0  0  0  0  0  0  0  0  0
   -2.8600   21.9380  -31.6770 C   0  0  0  0  0  0  0  0  0  0  0  0
   -3.2320   21.1760  -32.9580 C   0  0  0  0  0  0  0  0  0  0  0  0
   -4.5570   21.5870  -33.4700 N   0  0  0  0  0  0  0  0  0  0  0  0
   -5.6280   20.7280  -32.9790 C   0  0  0  0  0  0  0  0  0  0  0  0
   -5.6260   19.3430  -33.3250 C   0  0  0  0  0  0  0  0  0  0  0  0
   -4.5290   18.7460  -34.0000 C   0  0  0  0  0  0  0  0  0  0  0  0
   -4.5410   17.4000  -34.3530 C   0  0  0  0  0  0  0  0  0  0  0  0
   -5.6450   16.6160  -34.0650 C   0  0  0  0  0  0  0  0  0  0  0  0
   -6.7420   17.1690  -33.4150 C   0  0  0  0  0  0  0  0  0  0  0  0
   -6.7510   18.5310  -33.0120 C   0  0  0  0  0  0  0  0  0  0  0  0
   -7.8460   19.0770  -32.3780 N   0  0  0  0  0  0  0  0  0  0  0  0
   -8.9050   18.1930  -31.8370 C   0  0  0  0  0  0  0  0  0  0  0  0
   -7.9460   20.4410  -32.2210 C   0  0  0  0  0  0  0  0  0  0  0  0
   -9.1980   21.0450  -31.9520 C   0  0  0  0  0  0  0  0  0  0  0  0
   -9.3000   22.4020  -31.6900 C   0  0  0  0  0  0  0  0  0  0  0  0
   -8.1570   23.1780  -31.6190 C   0  0  0  0  0  0  0  0  0  0  0  0
   -6.8980   22.6300  -31.8990 C   0  0  0  0  0  0  0  0  0  0  0  0
   -5.7420   23.3810  -31.4990 N   0  0  0  0  0  0  0  0  0  0  0  0
   -5.8070   24.8090  -31.1920 C   0  0  0  0  0  0  0  0  0  0  0  0
   -5.3550   25.0640  -29.7530 C   0  0  0  0  0  0  0  0  0  0  0  0
   -4.3170   24.0970  -29.3500 N   0  0  0  0  0  0  0  0  0  0  0  0
   -4.3210   23.8840  -27.9010 C   0  0  0  0  0  0  0  0  0  0  0  0
   -2.9300   23.4080  -27.5330 C   0  0  0  0  0  0  0  0  0  0  0  0
   -2.0240   23.9720  -28.6140 C   0  0  0  0  0  0  0  0  0  0  0  0
   -2.9570   24.5500  -29.6720 C   0  0  0  0  0  0  0  0  0  0  0  0
   -6.7960   21.2740  -32.3510 C   0  0  0  0  0  0  0  0  0  0  0  0
   -0.6969   20.9353  -29.1075 H   0  0  0  0  0  0  0  0  0  0  0  0
   -1.0019   19.9970  -30.6086 H   0  0  0  0  0  0  0  0  0  0  0  0
   -1.2035   21.7819  -30.6086 H   0  0  0  0  0  0  0  0  0  0  0  0
   -3.0475   19.6334  -29.6424 H   0  0  0  0  0  0  0  0  0  0  0  0
   -2.9214   21.0921  -28.5940 H   0  0  0  0  0  0  0  0  0  0  0  0
   -4.0180   22.2760  -30.0250 H   0  0  0  0  0  0  0  0  0  0  0  0
   -3.0671   23.0088  -31.8200 H   0  0  0  0  0  0  0  0  0  0  0  0
   -1.7912   21.7822  -31.4689 H   0  0  0  0  0  0  0  0  0  0  0  0
   -2.4730   21.3795  -33.7277 H   0  0  0  0  0  0  0  0  0  0  0  0
   -3.2725   20.1027  -32.7206 H   0  0  0  0  0  0  0  0  0  0  0  0
   -4.5660   21.5750  -34.5160 H   0  0  0  0  0  0  0  0  0  0  0  0
   -4.7290   22.5910  -33.2530 H   0  0  0  0  0  0  0  0  0  0  0  0
   -3.6512   19.3603  -34.2492 H   0  0  0  0  0  0  0  0  0  0  0  0
   -3.6716   16.9582  -34.8618 H   0  0  0  0  0  0  0  0  0  0  0  0
   -5.6540   15.5539  -34.3510 H   0  0  0  0  0  0  0  0  0  0  0  0
   -7.6203   16.5397  -33.2087 H   0  0  0  0  0  0  0  0  0  0  0  0
   -8.8764   18.2169  -30.7376 H   0  0  0  0  0  0  0  0  0  0  0  0
   -9.8879   18.5424  -32.1859 H   0  0  0  0  0  0  0  0  0  0  0  0
   -8.7368   17.1634  -32.1859 H   0  0  0  0  0  0  0  0  0  0  0  0
  -10.1069   20.4254  -31.9510 H   0  0  0  0  0  0  0  0  0  0  0  0
  -10.2880   22.8612  -31.5388 H   0  0  0  0  0  0  0  0  0  0  0  0
   -8.2374   24.2388  -31.3392 H   0  0  0  0  0  0  0  0  0  0  0  0
   -4.9640   22.8310  -31.0730 H   0  0  0  0  0  0  0  0  0  0  0  0
   -5.1495   25.3587  -31.8816 H   0  0  0  0  0  0  0  0  0  0  0  0
   -6.8456   25.1527  -31.3070 H   0  0  0  0  0  0  0  0  0  0  0  0
   -4.9469   26.0828  -29.6785 H   0  0  0  0  0  0  0  0  0  0  0  0
   -6.2219   24.9485  -29.0858 H   0  0  0  0  0  0  0  0  0  0  0  0
   -4.5514   24.8245  -27.3791 H   0  0  0  0  0  0  0  0  0  0  0  0
   -5.0841   23.1475  -27.6090 H   0  0  0  0  0  0  0  0  0  0  0  0
   -2.6385   23.7925  -26.5445 H   0  0  0  0  0  0  0  0  0  0  0  0
   -2.8703   22.3112  -27.4739 H   0  0  0  0  0  0  0  0  0  0  0  0
   -1.3777   24.7602  -28.2004 H   0  0  0  0  0  0  0  0  0  0  0  0
   -1.3622   23.1999  -29.0335 H   0  0  0  0  0  0  0  0  0  0  0  0
   -2.9121   25.6489  -29.6536 H   0  0  0  0  0  0  0  0  0  0  0  0
   -2.6622   24.2134  -30.6769 H   0  0  0  0  0  0  0  0  0  0  0  0
  1  2  1  0
  2  3  1  0
  3  4  1  0
  4  5  1  0
  5  6  1  0
  6  7  1  0
  7  8  2  0
  8  9  1  0
  9 10  2  0
 10 11  1  0
 11 12  2  0
 12 13  1  0
 13 14  2  0
 14 15  1  0
 14 16  1  0
 16 17  2  0
 17 18  1  0
 18 19  2  0
 19 20  1  0
 20 21  1  0
 21 22  1  0
 22 23  1  0
 23 24  1  0
 24 25  1  0
 25 26  1  0
 26 27  1  0
 27 28  1  0
 20 29  2  0
 29  7  1  0
 13  8  1  0
 29 16  1  0
 28 24  1  0
  1 30  1  0
  1 31  1  0
  1 32  1  0
  2 33  1  0
  2 34  1  0
  3 35  1  0
  4 36  1  0
  4 37  1  0
  5 38  1  0
  5 39  1  0
  6 40  1  0
  6 41  1  0
  9 42  1  0
 10 43  1  0
 11 44  1  0
 12 45  1  0
 15 46  1  0
 15 47  1  0
 15 48  1  0
 17 49  1  0
 18 50  1  0
 19 51  1  0
 21 52  1  0
 22 53  1  0
 22 54  1  0
 23 55  1  0
 23 56  1  0
 25 57  1  0
 25 58  1  0
 26 59  1  0
 26 60  1  0
 27 61  1  0
 27 62  1  0
 28 63  1  0
 28 64  1  0
M  CHG  2   6   1  14   1
M  END
>  <UniqueID>  (12) 
12

>  <SMILES>  (12) 
CCNCC[NH2+]c1c2ccccc2[n+](C)c2cccc(NCCN3CCCC3)c12

>  <Energy>  (12) 
101.94919733433933

>  <Genealogy>  (12) 
CCNCC[NH2+]c1c2ccccc2[n+](C)c2cccc(NCCN3CCCC3)c12 (protonated)
CCNCC[NH2+]c1c2ccccc2[n+](C)c2cccc(NCCN3CCCC3)c12 (3D coordinates assigned)
CCNCC[NH2+]c1c2ccccc2[n+](C)c2cccc(NCCN3CCCC3)c12 (nonaromatic ring conformer: 101.94919733433933 kcal/mol)

>  <smiles>  (12) 
CCNCCNc1c2ccccc2[n+](C)c2cccc(NCCN3CCCC3)c12

>  <score_type>  (12) 
oracle

>  <origin>  (12) 
adg

>  <m_score__min__energy>  (12) 
-8.3699999999999992

>  <m_primary>  (12) 
energy

$$$$
12:0
     RDKit          3D

 43 45  0  0  1  0  0  0  0  0999 V2000
   -9.4180   21.4500  -31.6660 C   0  0  0  0  0  0  0  0  0  0  0  0
   -8.9110   19.9710  -31.9090 C   0  0  0  0  0  0  0  0  0  0  0  0
   -7.9850   20.3340  -32.8940 N   0  0  0  0  0  0  0  0  0  0  0  0
   -6.7350   20.4120  -32.6550 C   0  0  0  0  0  0  0  0  0  0  0  0
   -6.3690   21.5000  -31.9230 N   0  0  0  0  0  0  0  0  0  0  0  0
   -5.0900   21.6860  -31.6120 C   0  0  0  0  0  0  0  0  0  0  0  0
   -4.6960   22.8370  -30.8360 N   0  0  0  0  0  0  0  0  0  0  0  0
   -5.7310   23.8150  -30.5660 C   0  0  0  0  0  0  0  0  0  0  0  0
   -5.1840   25.1950  -30.6980 C   0  0  0  0  0  0  0  0  0  0  0  0
   -3.8270   25.2730  -30.5260 O   0  0  0  0  0  0  0  0  0  0  0  0
   -3.3100   24.3540  -29.6460 C   0  0  0  0  0  0  0  0  0  0  0  0
   -3.3320   22.9830  -30.3420 C   0  0  0  0  0  0  0  0  0  0  0  0
   -4.1540   20.8160  -32.0110 N   0  0  0  0  0  0  0  0  0  0  0  0
   -4.4750   19.7230  -32.7400 C   0  0  0  0  0  0  0  0  0  0  0  0
   -5.8140   19.4760  -33.0970 C   0  0  0  0  0  0  0  0  0  0  0  0
   -6.4480   18.3860  -33.8520 C   0  0  0  0  0  0  0  0  0  0  0  0
   -5.3970   18.1520  -35.0020 C   0  0  0  0  0  0  0  0  0  0  0  0
   -4.3220   17.3040  -34.4740 N   0  0  0  0  0  0  0  0  0  0  0  0
   -3.1900   18.1740  -34.2790 C   0  0  0  0  0  0  0  0  0  0  0  0
   -3.2390   18.9650  -33.0320 C   0  0  0  0  0  0  0  0  0  0  0  0
   -9.4838   21.6421  -30.5849 H   0  0  0  0  0  0  0  0  0  0  0  0
   -8.7117   22.1593  -32.1221 H   0  0  0  0  0  0  0  0  0  0  0  0
  -10.4109   21.5768  -32.1221 H   0  0  0  0  0  0  0  0  0  0  0  0
   -8.4421   19.5243  -31.0199 H   0  0  0  0  0  0  0  0  0  0  0  0
   -9.6582   19.2038  -32.1604 H   0  0  0  0  0  0  0  0  0  0  0  0
   -6.5538   23.6804  -31.2835 H   0  0  0  0  0  0  0  0  0  0  0  0
   -6.0998   23.6724  -29.5395 H   0  0  0  0  0  0  0  0  0  0  0  0
   -5.4278   25.5696  -31.7031 H   0  0  0  0  0  0  0  0  0  0  0  0
   -5.6422   25.7978  -29.9001 H   0  0  0  0  0  0  0  0  0  0  0  0
   -2.2767   24.6253  -29.3838 H   0  0  0  0  0  0  0  0  0  0  0  0
   -3.9039   24.3278  -28.7204 H   0  0  0  0  0  0  0  0  0  0  0  0
   -2.6138   22.9598  -31.1749 H   0  0  0  0  0  0  0  0  0  0  0  0
   -3.0479   22.1673  -29.6608 H   0  0  0  0  0  0  0  0  0  0  0  0
   -3.1540   21.0010  -31.7460 H   0  0  0  0  0  0  0  0  0  0  0  0
   -6.5725   17.4862  -33.2316 H   0  0  0  0  0  0  0  0  0  0  0  0
   -7.4621   18.6174  -34.2099 H   0  0  0  0  0  0  0  0  0  0  0  0
   -5.8817   17.6520  -35.8535 H   0  0  0  0  0  0  0  0  0  0  0  0
   -4.9887   19.1139  -35.3455 H   0  0  0  0  0  0  0  0  0  0  0  0
   -4.0600   16.6230  -35.2510 H   0  0  0  0  0  0  0  0  0  0  0  0
   -2.2800   17.5563  -34.2596 H   0  0  0  0  0  0  0  0  0  0  0  0
   -3.1997   18.8948  -35.1099 H   0  0  0  0  0  0  0  0  0  0  0  0
   -3.0769   18.2686  -32.1961 H   0  0  0  0  0  0  0  0  0  0  0  0
   -2.4674   19.7375  -33.1656 H   0  0  0  0  0  0  0  0  0  0  0  0
  1  2  1  0
  2  3  1  0
  3  4  2  0
  4  5  1  0
  5  6  2  0
  6  7  1  0
  7  8  1  0
  8  9  1  0
  9 10  1  0
 10 11  1  0
 11 12  1  0
  6 13  1  0
 13 14  1  0
 14 15  2  0
 15 16  1  0
 16 17  1  0
 17 18  1  0
 18 19  1  0
 19 20  1  0
 15  4  1  0
 12  7  1  0
 20 14  1  0
  1 21  1  0
  1 22  1  0
  1 23  1  0
  2 24  1  0
  2 25  1  0
  8 26  1  0
  8 27  1  0
  9 28  1  0
  9 29  1  0
 11 30  1  0
 11 31  1  0
 12 32  1  0
 12 33  1  0
 13 34  1  0
 16 35  1  0
 16 36  1  0
 17 37  1  0
 17 38  1  0
 18 39  1  0
 19 40  1  0
 19 41  1  0
 20 42  1  0
 20 43  1  0
M  END
>  <smiles>  (13) 
CCN=c1nc(N2CCOCC2)[nH]c2c1CCNCC2

>  <score_type>  (13) 
oracle

>  <origin>  (13) 
adg

>  <m_score__min__energy>  (13) 
-5.8700000000000001

>  <m_primary>  (13) 
energy

$$$$
13:0
     RDKit          3D

 38 40  0  0  0  0  0  0  0  0999 V2000
   -9.1220   18.6880  -31.8510 C   0  0  0  0  0  0  0  0  0  0  0  0
   -7.9920   19.6100  -32.1820 C   0  0  0  0  0  0  0  0  0  0  0  0
   -8.0300   20.9510  -31.7930 C   0  0  0  0  0  0  0  0  0  0  0  0
   -6.9270   21.7670  -32.0720 C   0  0  0  0  0  0  0  0  0  0  0  0
   -6.9380   23.2220  -31.6910 C   0  0  0  0  0  0  0  0  0  0  0  0
   -6.7710   23.3820  -30.1790 C   0  0  0  0  0  0  0  0  0  0  0  0
   -5.3600   23.7940  -29.8360 C   0  0  0  0  0  0  0  0  0  0  0  0
   -4.5940   23.0030  -28.9660 C   0  0  0  0  0  0  0  0  0  0  0  0
   -3.2830   23.3740  -28.6490 C   0  0  0  0  0  0  0  0  0  0  0  0
   -2.5060   22.6180  -27.7580 C   0  0  0  0  0  0  0  0  0  0  0  0
   -1.2080   23.0300  -27.4400 C   0  0  0  0  0  0  0  0  0  0  0  0
   -0.6750   24.1880  -28.0190 C   0  0  0  0  0  0  0  0  0  0  0  0
   -1.4380   24.9400  -28.9170 C   0  0  0  0  0  0  0  0  0  0  0  0
   -2.7430   24.5420  -29.2310 C   0  0  0  0  0  0  0  0  0  0  0  0
   -3.4930   25.2800  -30.0890 N   0  0  0  0  0  0  0  0  0  0  0  0
   -4.7700   24.9390  -30.4080 C   0  0  0  0  0  0  0  0  0  0  0  0
   -5.4130   25.6550  -31.2210 O   0  0  0  0  0  0  0  0  0  0  0  0
   -5.8560   21.2430  -32.7310 N   0  0  0  0  0  0  0  0  0  0  0  0
   -5.8370   19.9330  -33.1070 C   0  0  0  0  0  0  0  0  0  0  0  0
   -4.6360   19.3630  -33.7900 C   0  0  0  0  0  0  0  0  0  0  0  0
   -6.8910   19.1270  -32.8150 N   0  0  0  0  0  0  0  0  0  0  0  0
   -9.2212   18.6071  -30.7585 H   0  0  0  0  0  0  0  0  0  0  0  0
  -10.0558   19.0853  -32.2755 H   0  0  0  0  0  0  0  0  0  0  0  0
   -8.9202   17.6935  -32.2755 H   0  0  0  0  0  0  0  0  0  0  0  0
   -8.9113   21.3589  -31.2764 H   0  0  0  0  0  0  0  0  0  0  0  0
   -6.1112   23.7363  -32.2028 H   0  0  0  0  0  0  0  0  0  0  0  0
   -7.9013   23.6605  -31.9905 H   0  0  0  0  0  0  0  0  0  0  0  0
   -7.4691   24.1519  -29.8186 H   0  0  0  0  0  0  0  0  0  0  0  0
   -6.9834   22.4164  -29.6968 H   0  0  0  0  0  0  0  0  0  0  0  0
   -5.0256   22.0889  -28.5322 H   0  0  0  0  0  0  0  0  0  0  0  0
   -2.9177   21.7017  -27.3099 H   0  0  0  0  0  0  0  0  0  0  0  0
   -0.6040   22.4425  -26.7329 H   0  0  0  0  0  0  0  0  0  0  0  0
    0.3470   24.5069  -27.7665 H   0  0  0  0  0  0  0  0  0  0  0  0
   -1.0131   25.8444  -29.3769 H   0  0  0  0  0  0  0  0  0  0  0  0
   -5.0370   21.8540  -32.9530 H   0  0  0  0  0  0  0  0  0  0  0  0
   -3.9132   19.0200  -33.0351 H   0  0  0  0  0  0  0  0  0  0  0  0
   -4.9405   18.5134  -34.4188 H   0  0  0  0  0  0  0  0  0  0  0  0
   -4.1703   20.1362  -34.4188 H   0  0  0  0  0  0  0  0  0  0  0  0
  1  2  1  0
  2  3  2  0
  3  4  1  0
  4  5  1  0
  5  6  1  0
  6  7  1  0
  7  8  2  0
  8  9  1  0
  9 10  2  0
 10 11  1  0
 11 12  2  0
 12 13  1  0
 13 14  2  0
 14 15  1  0
 15 16  1  0
 16 17  2  0
  4 18  2  0
 18 19  1  0
 19 20  1  0
 19 21  2  0
 21  2  1  0
 16  7  1  0
 14  9  1  0
  1 22  1  0
  1 23  1  0
  1 24  1  0
  3 25  1  0
  5 26  1  0
  5 27  1  0
  6 28  1  0
  6 29  1  0
  8 30  1  0
 10 31  1  0
 11 32  1  0
 12 33  1  0
 13 34  1  0
 18 35  1  0
 20 36  1  0
 20 37  1  0
 20 38  1  0
M  CHG  2  15  -1  18   1
M  END
>  <UniqueID>  (14) 
13

>  <SMILES>  (14) 
Cc1cc(CCc2cc3ccccc3[n-]c2=O)[nH+]c(C)n1

>  <Energy>  (14) 
38.76820517931011

>  <Genealogy>  (14) 
Cc1cc(CCc2cc3ccccc3[n-]c2=O)[nH+]c(C)n1 (protonated)
Cc1cc(CCc2cc3ccccc3[n-]c2=O)[nH+]c(C)n1 (3D coordinates assigned)
Cc1cc(CCc2cc3ccccc3[n-]c2=O)[nH+]c(C)n1 (optimized conformer: 38.76820517931011 kcal/mol)

>  <smiles>  (14) 
Cc1cc(CCc2cc3ccccc3[nH]c2=O)nc(C)n1

>  <score_type>  (14) 
oracle

>  <origin>  (14) 
adg

>  <m_score__min__energy>  (14) 
-9.8699999999999992

>  <m_primary>  (14) 
energy

$$$$
14:0
     RDKit          3D

 60 62  0  0  0  0  0  0  0  0999 V2000
   -1.2740   20.8340  -32.8530 C   0  0  0  0  0  0  0  0  0  0  0  0
   -1.6440   19.9170  -34.0170 C   0  0  0  0  0  0  0  0  0  0  0  0
   -2.4890   18.8020  -33.5590 N   0  0  0  0  0  0  0  0  0  0  0  0
   -1.7500   17.8340  -32.7280 C   0  0  0  0  0  0  0  0  0  0  0  0
   -1.9280   16.3540  -33.1500 C   0  0  0  0  0  0  0  0  0  0  0  0
   -2.4180   16.1630  -34.5250 N   0  0  0  0  0  0  0  0  0  0  0  0
   -3.8200   15.7240  -34.5730 C   0  0  0  0  0  0  0  0  0  0  0  0
   -4.7050   16.8260  -34.0640 C   0  0  0  0  0  0  0  0  0  0  0  0
   -5.2320   16.7740  -32.7640 C   0  0  0  0  0  0  0  0  0  0  0  0
   -6.0990   17.7730  -32.3130 C   0  0  0  0  0  0  0  0  0  0  0  0
   -6.4730   18.8220  -33.1690 C   0  0  0  0  0  0  0  0  0  0  0  0
   -7.3920   19.8750  -32.6900 C   0  0  0  0  0  0  0  0  0  0  0  0
   -8.7400   19.5380  -32.4850 C   0  0  0  0  0  0  0  0  0  0  0  0
   -9.6430   20.4860  -32.0030 C   0  0  0  0  0  0  0  0  0  0  0  0
   -9.2150   21.7820  -31.7230 C   0  0  0  0  0  0  0  0  0  0  0  0
   -7.8810   22.1390  -31.9350 C   0  0  0  0  0  0  0  0  0  0  0  0
   -6.9530   21.2010  -32.4220 C   0  0  0  0  0  0  0  0  0  0  0  0
   -5.5480   21.6820  -32.7180 C   0  0  0  0  0  0  0  0  0  0  0  0
   -4.5710   20.7890  -32.0840 N   0  0  0  0  0  0  0  0  0  0  0  0
   -4.2240   21.2330  -30.7230 C   0  0  0  0  0  0  0  0  0  0  0  0
   -3.6540   22.6510  -30.7670 C   0  0  0  0  0  0  0  0  0  0  0  0
   -4.7230   23.6630  -30.4780 C   0  0  0  0  0  0  0  0  0  0  0  0
   -4.6190   25.0350  -30.6700 C   0  0  0  0  0  0  0  0  0  0  0  0
   -5.7380   25.7410  -30.2080 C   0  0  0  0  0  0  0  0  0  0  0  0
   -6.7120   24.9310  -29.6370 C   0  0  0  0  0  0  0  0  0  0  0  0
   -6.1830   23.3360  -29.7040 S   0  0  0  0  0  0  0  0  0  0  0  0
   -5.9400   18.8800  -34.4630 C   0  0  0  0  0  0  0  0  0  0  0  0
   -5.0690   17.8840  -34.9120 C   0  0  0  0  0  0  0  0  0  0  0  0
   -1.4809   20.3212  -31.9021 H   0  0  0  0  0  0  0  0  0  0  0  0
   -0.2044   21.0846  -32.9093 H   0  0  0  0  0  0  0  0  0  0  0  0
   -1.8702   21.7567  -32.9093 H   0  0  0  0  0  0  0  0  0  0  0  0
   -2.1928   20.4980  -34.7728 H   0  0  0  0  0  0  0  0  0  0  0  0
   -0.7195   19.5040  -34.4467 H   0  0  0  0  0  0  0  0  0  0  0  0
   -2.9340   18.3230  -34.3750 H   0  0  0  0  0  0  0  0  0  0  0  0
   -3.2620   19.1890  -32.9670 H   0  0  0  0  0  0  0  0  0  0  0  0
   -0.6794   18.0805  -32.7841 H   0  0  0  0  0  0  0  0  0  0  0  0
   -2.1595   17.9197  -31.7107 H   0  0  0  0  0  0  0  0  0  0  0  0
   -0.9532   15.8522  -33.0604 H   0  0  0  0  0  0  0  0  0  0  0  0
   -2.6945   15.9303  -32.4844 H   0  0  0  0  0  0  0  0  0  0  0  0
   -2.3000   17.0440  -35.0790 H   0  0  0  0  0  0  0  0  0  0  0  0
   -4.0939   15.4829  -35.6107 H   0  0  0  0  0  0  0  0  0  0  0  0
   -3.9472   14.8303  -33.9444 H   0  0  0  0  0  0  0  0  0  0  0  0
   -4.9611   15.9425  -32.0967 H   0  0  0  0  0  0  0  0  0  0  0  0
   -6.4895   17.7377  -31.2852 H   0  0  0  0  0  0  0  0  0  0  0  0
   -9.0867   18.5178  -32.7064 H   0  0  0  0  0  0  0  0  0  0  0  0
  -10.6957   20.2095  -31.8436 H   0  0  0  0  0  0  0  0  0  0  0  0
   -9.9278   22.5245  -31.3348 H   0  0  0  0  0  0  0  0  0  0  0  0
   -7.5525   23.1662  -31.7184 H   0  0  0  0  0  0  0  0  0  0  0  0
   -5.3856   21.6868  -33.8059 H   0  0  0  0  0  0  0  0  0  0  0  0
   -5.4216   22.6992  -32.3189 H   0  0  0  0  0  0  0  0  0  0  0  0
   -3.6970   20.7930  -32.6610 H   0  0  0  0  0  0  0  0  0  0  0  0
   -5.1268   21.2223  -30.0947 H   0  0  0  0  0  0  0  0  0  0  0  0
   -3.4693   20.5525  -30.3018 H   0  0  0  0  0  0  0  0  0  0  0  0
   -2.8571   22.7430  -30.0144 H   0  0  0  0  0  0  0  0  0  0  0  0
   -3.2528   22.8391  -31.7738 H   0  0  0  0  0  0  0  0  0  0  0  0
   -3.7477   25.5177  -31.1368 H   0  0  0  0  0  0  0  0  0  0  0  0
   -5.8360   26.8336  -30.2897 H   0  0  0  0  0  0  0  0  0  0  0  0
   -7.6671   25.2747  -29.2131 H   0  0  0  0  0  0  0  0  0  0  0  0
   -6.2084   19.7135  -35.1288 H   0  0  0  0  0  0  0  0  0  0  0  0
   -4.6666   17.9291  -35.9348 H   0  0  0  0  0  0  0  0  0  0  0  0
  1  2  1  0
  2  3  1  0
  3  4  1  0
  4  5  1  0
  5  6  1  0
  6  7  1  0
  7  8  1  0
  8  9  2  0
  9 10  1  0
 10 11  2  0
 11 12  1  0
 12 13  2  0
 13 14  1  0
 14 15  2  0
 15 16  1  0
 16 17  2  0
 17 18  1  0
 18 19  1  0
 19 20  1  0
 20 21  1  0
 21 22  1  0
 22 23  2  0
 23 24  1  0
 24 25  2  0
 25 26  1  0
 11 27  1  0
 27 28  2  0
 28  8  1  0
 17 12  1  0
 26 22  1  0
  1 29  1  0
  1 30  1  0
  1 31  1  0
  2 32  1  0
  2 33  1  0
  3 34  1  0
  3 35  1  0
  4 36  1  0
  4 37  1  0
  5 38  1  0
  5 39  1  0
  6 40  1  0
  7 41  1  0
  7 42  1  0
  9 43  1  0
 10 44  1  0
 13 45  1  0
 14 46  1  0
 15 47  1  0
 16 48  1  0
 18 49  1  0
 18 50  1  0
 19 51  1  0
 20 52  1  0
 20 53  1  0
 21 54  1  0
 21 55  1  0
 23 56  1  0
 24 57  1  0
 25 58  1  0
 27 59  1  0
 28 60  1  0
M  CHG  1   3   1
M  END
>  <UniqueID>  (15) 
14

>  <SMILES>  (15) 
CC[NH2+]CCNCc1ccc(-c2ccccc2CNCCc2cccs2)cc1

>  <Energy>  (15) 
85.37603051874167

>  <Genealogy>  (15) 
CC[NH2+]CCNCc1ccc(-c2ccccc2CNCCc2cccs2)cc1 (protonated)
CC[NH2+]CCNCc1ccc(-c2ccccc2CNCCc2cccs2)cc1 (3D coordinates assigned)
CC[NH2+]CCNCc1ccc(-c2ccccc2CNCCc2cccs2)cc1 (optimized conformer: 85.37603051874167 kcal/mol)

>  <smiles>  (15) 
CCNCCNCc1ccc(-c2ccccc2CNCCc2cccs2)cc1

>  <score_type>  (15) 
oracle

>  <origin>  (15) 
adg

>  <m_score__min__energy>  (15) 
-9.5899999999999999

>  <m_primary>  (15) 
energy

$$$$
15:0
     RDKit          3D

 55 57  0  0  0  0  0  0  0  0999 V2000
   -2.6380   20.3710  -27.9290 C   0  0  0  0  0  0  0  0  0  0  0  0
   -2.5280   21.3100  -29.1390 C   0  0  0  0  0  0  0  0  0  0  0  0
   -1.8120   20.7230  -30.2940 N   0  0  0  0  0  0  0  0  0  0  0  0
   -0.8640   19.6690  -29.8830 C   0  0  0  0  0  0  0  0  0  0  0  0
   -1.1680   21.7510  -31.1420 C   0  0  0  0  0  0  0  0  0  0  0  0
   -0.8780   21.2090  -32.5440 C   0  0  0  0  0  0  0  0  0  0  0  0
   -2.0220   21.4630  -33.4300 N   0  0  0  0  0  0  0  0  0  0  0  0
   -2.5520   20.2180  -34.0030 C   0  0  0  0  0  0  0  0  0  0  0  0
   -3.7580   19.7080  -33.1960 C   0  0  0  0  0  0  0  0  0  0  0  0
   -3.9410   20.4030  -31.9020 N   0  0  0  0  0  0  0  0  0  0  0  0
   -5.2760   20.9720  -31.7440 C   0  0  0  0  0  0  0  0  0  0  0  0
   -6.4280   20.1590  -31.9400 C   0  0  0  0  0  0  0  0  0  0  0  0
   -6.3220   18.7680  -32.2020 C   0  0  0  0  0  0  0  0  0  0  0  0
   -7.4550   17.9700  -32.3290 C   0  0  0  0  0  0  0  0  0  0  0  0
   -8.7180   18.5280  -32.1950 C   0  0  0  0  0  0  0  0  0  0  0  0
   -8.8550   19.8920  -31.9680 C   0  0  0  0  0  0  0  0  0  0  0  0
   -7.7230   20.7430  -31.8740 C   0  0  0  0  0  0  0  0  0  0  0  0
   -7.8650   22.1030  -31.7050 N   0  0  0  0  0  0  0  0  0  0  0  0
   -9.1750   22.7440  -31.9620 C   0  0  0  0  0  0  0  0  0  0  0  0
   -6.7850   22.8710  -31.3260 C   0  0  0  0  0  0  0  0  0  0  0  0
   -6.9630   24.1970  -30.8510 C   0  0  0  0  0  0  0  0  0  0  0  0
   -5.8770   24.9990  -30.5230 C   0  0  0  0  0  0  0  0  0  0  0  0
   -4.5890   24.5060  -30.6470 C   0  0  0  0  0  0  0  0  0  0  0  0
   -3.5310   25.2940  -30.3260 F   0  0  0  0  0  0  0  0  0  0  0  0
   -4.3790   23.1960  -31.0690 C   0  0  0  0  0  0  0  0  0  0  0  0
   -5.4640   22.3380  -31.3840 C   0  0  0  0  0  0  0  0  0  0  0  0
   -2.5692   20.9585  -27.0015 H   0  0  0  0  0  0  0  0  0  0  0  0
   -3.6039   19.8454  -27.9593 H   0  0  0  0  0  0  0  0  0  0  0  0
   -1.8198   19.6364  -27.9593 H   0  0  0  0  0  0  0  0  0  0  0  0
   -3.5447   21.5780  -29.4623 H   0  0  0  0  0  0  0  0  0  0  0  0
   -1.9433   22.1826  -28.8123 H   0  0  0  0  0  0  0  0  0  0  0  0
   -0.8216   19.6219  -28.7848 H   0  0  0  0  0  0  0  0  0  0  0  0
   -1.1997   18.6992  -30.2789 H   0  0  0  0  0  0  0  0  0  0  0  0
    0.1358   19.9004  -30.2789 H   0  0  0  0  0  0  0  0  0  0  0  0
   -1.8380   22.6195  -31.2244 H   0  0  0  0  0  0  0  0  0  0  0  0
   -0.2145   22.0400  -30.6759 H   0  0  0  0  0  0  0  0  0  0  0  0
    0.0143   21.7082  -32.9497 H   0  0  0  0  0  0  0  0  0  0  0  0
   -0.7044   20.1246  -32.4820 H   0  0  0  0  0  0  0  0  0  0  0  0
   -1.6820   22.0610  -34.2190 H   0  0  0  0  0  0  0  0  0  0  0  0
   -2.8667   20.4051  -35.0403 H   0  0  0  0  0  0  0  0  0  0  0  0
   -1.7614   19.4539  -33.9714 H   0  0  0  0  0  0  0  0  0  0  0  0
   -4.6663   19.8517  -33.7996 H   0  0  0  0  0  0  0  0  0  0  0  0
   -3.5700   18.6481  -32.9695 H   0  0  0  0  0  0  0  0  0  0  0  0
   -3.6580   19.7910  -31.1100 H   0  0  0  0  0  0  0  0  0  0  0  0
   -3.2400   21.1750  -31.8330 H   0  0  0  0  0  0  0  0  0  0  0  0
   -5.3262   18.3125  -32.3066 H   0  0  0  0  0  0  0  0  0  0  0  0
   -7.3489   16.8949  -32.5360 H   0  0  0  0  0  0  0  0  0  0  0  0
   -9.6114   17.8904  -32.2685 H   0  0  0  0  0  0  0  0  0  0  0  0
   -9.8619   20.3212  -31.8589 H   0  0  0  0  0  0  0  0  0  0  0  0
   -9.6610   22.9818  -31.0043 H   0  0  0  0  0  0  0  0  0  0  0  0
   -9.0238   23.6699  -32.5363 H   0  0  0  0  0  0  0  0  0  0  0  0
   -9.8133   22.0564  -32.5363 H   0  0  0  0  0  0  0  0  0  0  0  0
   -7.9815   24.5976  -30.7404 H   0  0  0  0  0  0  0  0  0  0  0  0
   -6.0404   26.0261  -30.1646 H   0  0  0  0  0  0  0  0  0  0  0  0
   -3.3499   22.8182  -31.1601 H   0  0  0  0  0  0  0  0  0  0  0  0
  1  2  1  0
  2  3  1  0
  3  4  1  0
  3  5  1  0
  5  6  1  0
  6  7  1  0
  7  8  1  0
  8  9  1  0
  9 10  1  0
 10 11  1  0
 11 12  2  0
 12 13  1  0
 13 14  2  0
 14 15  1  0
 15 16  2  0
 16 17  1  0
 17 18  2  0
 18 19  1  0
 18 20  1  0
 20 21  2  0
 21 22  1  0
 22 23  2  0
 23 24  1  0
 23 25  1  0
 25 26  2  0
 26 11  1  0
 17 12  1  0
 26 20  1  0
  1 27  1  0
  1 28  1  0
  1 29  1  0
  2 30  1  0
  2 31  1  0
  4 32  1  0
  4 33  1  0
  4 34  1  0
  5 35  1  0
  5 36  1  0
  6 37  1  0
  6 38  1  0
  7 39  1  0
  8 40  1  0
  8 41  1  0
  9 42  1  0
  9 43  1  0
 10 44  1  0
 10 45  1  0
 13 46  1  0
 14 47  1  0
 15 48  1  0
 16 49  1  0
 19 50  1  0
 19 51  1  0
 19 52  1  0
 21 53  1  0
 22 54  1  0
 25 55  1  0
M  CHG  2  10   1  18   1
M  END
>  <UniqueID>  (16) 
15

>  <SMILES>  (16) 
CCN(C)CCNCC[NH2+]c1c2ccccc2[n+](C)c2ccc(F)cc12

>  <Energy>  (16) 
78.56240879837532

>  <Genealogy>  (16) 
CCN(C)CCNCC[NH2+]c1c2ccccc2[n+](C)c2ccc(F)cc12 (protonated)
CCN(C)CCNCC[NH2+]c1c2ccccc2[n+](C)c2ccc(F)cc12 (3D coordinates assigned)
CCN(C)CCNCC[NH2+]c1c2ccccc2[n+](C)c2ccc(F)cc12 (optimized conformer: 78.56240879837532 kcal/mol)

>  <smiles>  (16) 
CCN(C)CCNCCNc1c2ccccc2[n+](C)c2ccc(F)cc12

>  <score_type>  (16) 
oracle

>  <origin>  (16) 
adg

>  <m_score__min__energy>  (16) 
-7.6900000000000004

>  <m_primary>  (16) 
energy

$$$$
16:0
     RDKit          3D

 52 54  0  0  0  0  0  0  0  0999 V2000
   -6.2870   15.6090  -33.9170 C   0  0  0  0  0  0  0  0  0  0  0  0
   -4.7530   15.5270  -33.8690 C   0  0  0  0  0  0  0  0  0  0  0  0
   -4.0830   16.8460  -33.9370 N   0  0  0  0  0  0  0  0  0  0  0  0
   -2.6040   16.7440  -33.9020 C   0  0  0  0  0  0  0  0  0  0  0  0
   -1.9970   18.1350  -34.0350 C   0  0  0  0  0  0  0  0  0  0  0  0
   -4.5870   17.6870  -35.0430 C   0  0  0  0  0  0  0  0  0  0  0  0
   -5.5340   18.7700  -34.5140 C   0  0  0  0  0  0  0  0  0  0  0  0
   -5.4910   18.8290  -33.0510 N   0  0  0  0  0  0  0  0  0  0  0  0
   -5.8350   20.0250  -32.3290 C   0  0  0  0  0  0  0  0  0  0  0  0
   -7.1810   20.4040  -32.2000 C   0  0  0  0  0  0  0  0  0  0  0  0
   -8.2150   19.6120  -32.7420 C   0  0  0  0  0  0  0  0  0  0  0  0
   -9.5470   20.0020  -32.6260 C   0  0  0  0  0  0  0  0  0  0  0  0
   -9.8730   21.1820  -31.9680 C   0  0  0  0  0  0  0  0  0  0  0  0
   -8.8690   21.9730  -31.4100 C   0  0  0  0  0  0  0  0  0  0  0  0
   -7.5060   21.5970  -31.5010 C   0  0  0  0  0  0  0  0  0  0  0  0
   -6.5080   22.3590  -30.9270 N   0  0  0  0  0  0  0  0  0  0  0  0
   -6.8660   23.2860  -29.8320 C   0  0  0  0  0  0  0  0  0  0  0  0
   -5.1810   22.1100  -31.2340 C   0  0  0  0  0  0  0  0  0  0  0  0
   -4.1330   23.0450  -30.9640 C   0  0  0  0  0  0  0  0  0  0  0  0
   -4.3660   24.5000  -30.8440 C   0  0  0  0  0  0  0  0  0  0  0  0
   -3.4990   25.3010  -30.0460 N   0  0  0  0  0  0  0  0  0  0  0  0
   -5.3680   25.0290  -31.3970 O   0  0  0  0  0  0  0  0  0  0  0  0
   -2.7960   22.6180  -31.0040 C   0  0  0  0  0  0  0  0  0  0  0  0
   -2.4760   21.3260  -31.4040 C   0  0  0  0  0  0  0  0  0  0  0  0
   -3.4760   20.4650  -31.8390 C   0  0  0  0  0  0  0  0  0  0  0  0
   -4.8280   20.8610  -31.8120 C   0  0  0  0  0  0  0  0  0  0  0  0
   -6.6853   15.6303  -32.8919 H   0  0  0  0  0  0  0  0  0  0  0  0
   -6.5889   16.5246  -34.4467 H   0  0  0  0  0  0  0  0  0  0  0  0
   -6.6847   14.7308  -34.4467 H   0  0  0  0  0  0  0  0  0  0  0  0
   -4.4608   15.0374  -32.9283 H   0  0  0  0  0  0  0  0  0  0  0  0
   -4.4340   14.9588  -34.7552 H   0  0  0  0  0  0  0  0  0  0  0  0
   -2.2896   16.2962  -32.9477 H   0  0  0  0  0  0  0  0  0  0  0  0
   -2.2597   16.1121  -34.7339 H   0  0  0  0  0  0  0  0  0  0  0  0
   -1.8147   18.5528  -33.0339 H   0  0  0  0  0  0  0  0  0  0  0  0
   -1.0458   18.0691  -34.5836 H   0  0  0  0  0  0  0  0  0  0  0  0
   -2.6922   18.7875  -34.5836 H   0  0  0  0  0  0  0  0  0  0  0  0
   -3.7358   18.1672  -35.5479 H   0  0  0  0  0  0  0  0  0  0  0  0
   -5.1395   17.0488  -35.7483 H   0  0  0  0  0  0  0  0  0  0  0  0
   -5.2313   19.7451  -34.9233 H   0  0  0  0  0  0  0  0  0  0  0  0
   -6.5597   18.5251  -34.8271 H   0  0  0  0  0  0  0  0  0  0  0  0
   -5.3190   17.9480  -32.5150 H   0  0  0  0  0  0  0  0  0  0  0  0
   -7.9663   18.6753  -33.2624 H   0  0  0  0  0  0  0  0  0  0  0  0
  -10.3422   19.3752  -33.0558 H   0  0  0  0  0  0  0  0  0  0  0  0
  -10.9251   21.4927  -31.8872 H   0  0  0  0  0  0  0  0  0  0  0  0
   -9.1398   22.9041  -30.8907 H   0  0  0  0  0  0  0  0  0  0  0  0
   -6.6781   22.7994  -28.8635 H   0  0  0  0  0  0  0  0  0  0  0  0
   -6.2553   24.1976  -29.9090 H   0  0  0  0  0  0  0  0  0  0  0  0
   -7.9309   23.5505  -29.9090 H   0  0  0  0  0  0  0  0  0  0  0  0
   -2.4650   25.2890  -30.1980 H   0  0  0  0  0  0  0  0  0  0  0  0
   -1.9937   23.3131  -30.7158 H   0  0  0  0  0  0  0  0  0  0  0  0
   -1.4306   20.9849  -31.3762 H   0  0  0  0  0  0  0  0  0  0  0  0
   -3.2094   19.4637  -32.2083 H   0  0  0  0  0  0  0  0  0  0  0  0
  1  2  1  0
  2  3  1  0
  3  4  1  0
  4  5  1  0
  3  6  1  0
  6  7  1  0
  7  8  1  0
  8  9  1  0
  9 10  2  0
 10 11  1  0
 11 12  2  0
 12 13  1  0
 13 14  2  0
 14 15  1  0
 15 16  2  0
 16 17  1  0
 16 18  1  0
 18 19  2  0
 19 20  1  0
 20 21  1  0
 20 22  2  0
 19 23  1  0
 23 24  2  0
 24 25  1  0
 25 26  2  0
 26  9  1  0
 15 10  1  0
 26 18  1  0
  1 27  1  0
  1 28  1  0
  1 29  1  0
  2 30  1  0
  2 31  1  0
  4 32  1  0
  4 33  1  0
  5 34  1  0
  5 35  1  0
  5 36  1  0
  6 37  1  0
  6 38  1  0
  7 39  1  0
  7 40  1  0
  8 41  1  0
 11 42  1  0
 12 43  1  0
 13 44  1  0
 14 45  1  0
 17 46  1  0
 17 47  1  0
 17 48  1  0
 21 49  1  0
 23 50  1  0
 24 51  1  0
 25 52  1  0
M  CHG  2  16   1  21  -1
M  END
>  <UniqueID>  (17) 
16

>  <SMILES>  (17) 
CCN(CC)CCNc1c2ccccc2[n+](C)c2c(C([NH-])=O)cccc12

>  <Energy>  (17) 
90.93077987126105

>  <Genealogy>  (17) 
CCN(CC)CCNc1c2ccccc2[n+](C)c2c(C([NH-])=O)cccc12 (protonated)
CCN(CC)CCNc1c2ccccc2[n+](C)c2c(C([NH-])=O)cccc12 (3D coordinates assigned)
CCN(CC)CCNc1c2ccccc2[n+](C)c2c(C([NH-])=O)cccc12 (optimized conformer: 90.93077987126105 kcal/mol)

>  <smiles>  (17) 
CCN(CC)CCNc1c2ccccc2[n+](C)c2c(C(N)=O)cccc12

>  <score_type>  (17) 
oracle

>  <origin>  (17) 
adg

>  <m_score__min__energy>  (17) 
-10.26

>  <m_primary>  (17) 
energy

$$$$
17:0
     RDKit          3D

 87 90  0  0  0  0  0  0  0  0999 V2000
    0.7510   22.7020  -35.8730 C   0  0  0  0  0  0  0  0  0  0  0  0
    0.8200   21.6240  -34.7850 C   0  0  0  0  0  0  0  0  0  0  0  0
   -0.4960   20.9570  -34.5570 N   0  0  0  0  0  0  0  0  0  0  0  0
   -0.4850   19.5170  -34.9210 C   0  0  0  0  0  0  0  0  0  0  0  0
    0.6610   18.7430  -34.2640 C   0  0  0  0  0  0  0  0  0  0  0  0
   -0.9810   21.1520  -33.1620 C   0  0  0  0  0  0  0  0  0  0  0  0
   -2.2440   20.3380  -32.7840 C   0  0  0  0  0  0  0  0  0  0  0  0
   -2.5060   20.3610  -31.3430 N   0  0  0  0  0  0  0  0  0  0  0  0
   -3.3480   21.3740  -30.7750 C   0  0  0  0  0  0  0  0  0  0  0  0
   -2.7960   22.3630  -29.9460 C   0  0  0  0  0  0  0  0  0  0  0  0
   -3.6500   23.2850  -29.3020 C   0  0  0  0  0  0  0  0  0  0  0  0
   -4.9690   23.3860  -29.6980 N   0  0  0  0  0  0  0  0  0  0  0  0
   -5.7350   24.6210  -29.4330 C   0  0  0  0  0  0  0  0  0  0  0  0
   -5.5450   22.3750  -30.4420 C   0  0  0  0  0  0  0  0  0  0  0  0
   -6.9390   22.3260  -30.6750 C   0  0  0  0  0  0  0  0  0  0  0  0
   -7.5100   21.3070  -31.4340 C   0  0  0  0  0  0  0  0  0  0  0  0
   -6.7180   20.2890  -31.9880 C   0  0  0  0  0  0  0  0  0  0  0  0
   -7.3160   19.2340  -32.7840 N   0  0  0  0  0  0  0  0  0  0  0  0
   -6.5040   18.4660  -33.7370 C   0  0  0  0  0  0  0  0  0  0  0  0
   -8.7460   18.9250  -32.6610 C   0  0  0  0  0  0  0  0  0  0  0  0
   -5.3320   20.3160  -31.7490 C   0  0  0  0  0  0  0  0  0  0  0  0
   -4.7380   21.3440  -30.9860 C   0  0  0  0  0  0  0  0  0  0  0  0
   -3.0510   24.1390  -28.2240 C   0  0  0  0  0  0  0  0  0  0  0  0
   -3.7860   24.5430  -27.0960 C   0  0  0  0  0  0  0  0  0  0  0  0
   -3.1940   25.3320  -26.1070 C   0  0  0  0  0  0  0  0  0  0  0  0
   -1.8390   25.6890  -26.1910 C   0  0  0  0  0  0  0  0  0  0  0  0
   -1.2120   26.5820  -25.1300 C   0  0  0  0  0  0  0  0  0  0  0  0
   -0.2730   25.8900  -24.1810 N   0  0  0  0  0  0  0  0  0  0  0  0
   -0.4650   26.5090  -22.8400 C   0  0  0  0  0  0  0  0  0  0  0  0
   -0.6410   24.4340  -24.1160 C   0  0  0  0  0  0  0  0  0  0  0  0
    0.4120   23.4430  -24.6520 C   0  0  0  0  0  0  0  0  0  0  0  0
    1.1580   26.0280  -24.6160 C   0  0  0  0  0  0  0  0  0  0  0  0
    2.0060   27.0210  -23.7990 C   0  0  0  0  0  0  0  0  0  0  0  0
   -1.0850   25.2300  -27.2820 C   0  0  0  0  0  0  0  0  0  0  0  0
   -1.6720   24.4230  -28.2670 C   0  0  0  0  0  0  0  0  0  0  0  0
   -0.8400   23.8420  -29.3750 C   0  0  0  0  0  0  0  0  0  0  0  0
   -1.3020   22.4130  -29.6790 C   0  0  0  0  0  0  0  0  0  0  0  0
    0.6875   23.6943  -35.4025 H   0  0  0  0  0  0  0  0  0  0  0  0
    1.6543   22.6500  -36.4986 H   0  0  0  0  0  0  0  0  0  0  0  0
   -0.1383   22.5352  -36.4986 H   0  0  0  0  0  0  0  0  0  0  0  0
    1.5535   20.8626  -35.0888 H   0  0  0  0  0  0  0  0  0  0  0  0
    1.1129   22.1155  -33.8455 H   0  0  0  0  0  0  0  0  0  0  0  0
   -1.2230   21.4150  -35.1570 H   0  0  0  0  0  0  0  0  0  0  0  0
   -1.4380   19.0681  -34.6045 H   0  0  0  0  0  0  0  0  0  0  0  0
   -0.3432   19.4538  -36.0100 H   0  0  0  0  0  0  0  0  0  0  0  0
    0.5666   18.8067  -33.1699 H   0  0  0  0  0  0  0  0  0  0  0  0
    0.6172   17.6888  -34.5750 H   0  0  0  0  0  0  0  0  0  0  0  0
    1.6225   19.1774  -34.5750 H   0  0  0  0  0  0  0  0  0  0  0  0
   -0.1712   20.8621  -32.4763 H   0  0  0  0  0  0  0  0  0  0  0  0
   -1.2651   22.2117  -33.0824 H   0  0  0  0  0  0  0  0  0  0  0  0
   -3.1112   20.7655  -33.3086 H   0  0  0  0  0  0  0  0  0  0  0  0
   -2.0730   19.2924  -33.0796 H   0  0  0  0  0  0  0  0  0  0  0  0
   -2.2440   19.5540  -30.7360 H   0  0  0  0  0  0  0  0  0  0  0  0
   -5.8271   24.7694  -28.3470 H   0  0  0  0  0  0  0  0  0  0  0  0
   -5.2109   25.4800  -29.8774 H   0  0  0  0  0  0  0  0  0  0  0  0
   -6.7374   24.5332  -29.8774 H   0  0  0  0  0  0  0  0  0  0  0  0
   -7.5849   23.1077  -30.2486 H   0  0  0  0  0  0  0  0  0  0  0  0
   -8.5971   21.3000  -31.6016 H   0  0  0  0  0  0  0  0  0  0  0  0
   -5.8124   17.8119  -33.1857 H   0  0  0  0  0  0  0  0  0  0  0  0
   -7.1629   17.8529  -34.3695 H   0  0  0  0  0  0  0  0  0  0  0  0
   -5.9286   19.1580  -34.3695 H   0  0  0  0  0  0  0  0  0  0  0  0
   -9.0182   18.8662  -31.5968 H   0  0  0  0  0  0  0  0  0  0  0  0
   -9.3353   19.7165  -33.1470 H   0  0  0  0  0  0  0  0  0  0  0  0
   -8.9559   17.9608  -33.1470 H   0  0  0  0  0  0  0  0  0  0  0  0
   -4.6980   19.5193  -32.1654 H   0  0  0  0  0  0  0  0  0  0  0  0
   -4.8368   24.2351  -26.9912 H   0  0  0  0  0  0  0  0  0  0  0  0
   -3.7959   25.6772  -25.2534 H   0  0  0  0  0  0  0  0  0  0  0  0
   -0.6516   27.3774  -25.6431 H   0  0  0  0  0  0  0  0  0  0  0  0
   -2.0447   26.9555  -24.5159 H   0  0  0  0  0  0  0  0  0  0  0  0
   -0.2356   25.7695  -22.0586 H   0  0  0  0  0  0  0  0  0  0  0  0
    0.2072   27.3734  -22.7355 H   0  0  0  0  0  0  0  0  0  0  0  0
   -1.5084   26.8412  -22.7355 H   0  0  0  0  0  0  0  0  0  0  0  0
   -0.8332   24.1827  -23.0625 H   0  0  0  0  0  0  0  0  0  0  0  0
   -1.5150   24.3207  -24.7742 H   0  0  0  0  0  0  0  0  0  0  0  0
    0.9249   22.9603  -23.8070 H   0  0  0  0  0  0  0  0  0  0  0  0
   -0.0844   22.6768  -25.2657 H   0  0  0  0  0  0  0  0  0  0  0  0
    1.1467   23.9849  -25.2657 H   0  0  0  0  0  0  0  0  0  0  0  0
    1.6315   25.0378  -24.5431 H   0  0  0  0  0  0  0  0  0  0  0  0
    1.1254   26.4292  -25.6397 H   0  0  0  0  0  0  0  0  0  0  0  0
    1.8506   26.8391  -22.7253 H   0  0  0  0  0  0  0  0  0  0  0  0
    3.0695   26.8833  -24.0441 H   0  0  0  0  0  0  0  0  0  0  0  0
    1.7035   28.0498  -24.0441 H   0  0  0  0  0  0  0  0  0  0  0  0
   -0.0234   25.5059  -27.3652 H   0  0  0  0  0  0  0  0  0  0  0  0
   -0.9508   24.4610  -30.2775 H   0  0  0  0  0  0  0  0  0  0  0  0
    0.2151   23.8234  -29.0644 H   0  0  0  0  0  0  0  0  0  0  0  0
   -0.7666   22.0441  -30.5663 H   0  0  0  0  0  0  0  0  0  0  0  0
   -1.0837   21.7832  -28.8040 H   0  0  0  0  0  0  0  0  0  0  0  0
  1  2  1  0
  2  3  1  0
  3  4  1  0
  4  5  1  0
  3  6  1  0
  6  7  1  0
  7  8  1  0
  8  9  1  0
  9 10  2  0
 10 11  1  0
 11 12  2  0
 12 13  1  0
 12 14  1  0
 14 15  2  0
 15 16  1  0
 16 17  2  0
 17 18  1  0
 18 19  1  0
 18 20  1  0
 17 21  1  0
 21 22  2  0
 11 23  1  0
 23 24  2  0
 24 25  1  0
 25 26  2  0
 26 27  1  0
 27 28  1  0
 28 29  1  0
 28 30  1  0
 30 31  1  0
 28 32  1  0
 32 33  1  0
 26 34  1  0
 34 35  2  0
 35 36  1  0
 36 37  1  0
 22  9  1  0
 35 23  1  0
 37 10  1  0
 22 14  1  0
  1 38  1  0
  1 39  1  0
  1 40  1  0
  2 41  1  0
  2 42  1  0
  3 43  1  0
  4 44  1  0
  4 45  1  0
  5 46  1  0
  5 47  1  0
  5 48  1  0
  6 49  1  0
  6 50  1  0
  7 51  1  0
  7 52  1  0
  8 53  1  0
 13 54  1  0
 13 55  1  0
 13 56  1  0
 15 57  1  0
 16 58  1  0
 19 59  1  0
 19 60  1  0
 19 61  1  0
 20 62  1  0
 20 63  1  0
 20 64  1  0
 21 65  1  0
 24 66  1  0
 25 67  1  0
 27 68  1  0
 27 69  1  0
 29 70  1  0
 29 71  1  0
 29 72  1  0
 30 73  1  0
 30 74  1  0
 31 75  1  0
 31 76  1  0
 31 77  1  0
 32 78  1  0
 32 79  1  0
 33 80  1  0
 33 81  1  0
 33 82  1  0
 34 83  1  0
 36 84  1  0
 36 85  1  0
 37 86  1  0
 37 87  1  0
M  CHG  3   3   1  12   1  28   1
M  END
>  <UniqueID>  (18) 
17

>  <SMILES>  (18) 
CC[NH+](CC)CCNc1c2c([n+](C)c3ccc(N(C)C)cc13)-c1ccc(C[N+](C)(CC)CC)cc1CC2

>  <Energy>  (18) 
137.12256614179807

>  <Genealogy>  (18) 
CC[NH+](CC)CCNc1c2c([n+](C)c3ccc(N(C)C)cc13)-c1ccc(C[N+](C)(CC)CC)cc1CC2 (protonated)
CC[NH+](CC)CCNc1c2c([n+](C)c3ccc(N(C)C)cc13)-c1ccc(C[N+](C)(CC)CC)cc1CC2 (3D coordinates assigned)
CC[NH+](CC)CCNc1c2c([n+](C)c3ccc(N(C)C)cc13)-c1ccc(C[N+](C)(CC)CC)cc1CC2 (nonaromatic ring conformer: 137.12256614179807 kcal/mol)

>  <smiles>  (18) 
CCN(CC)CCNc1c2c([n+](C)c3ccc(N(C)C)cc13)-c1ccc(C[N+](C)(CC)CC)cc1CC2

>  <score_type>  (18) 
oracle

>  <origin>  (18) 
adg

>  <m_score__min__energy>  (18) 
-7.6200000000000001

>  <m_primary>  (18) 
energy

$$$$
18:0
     RDKit          3D

 66 68  0  0  0  0  0  0  0  0999 V2000
   -1.6150   19.5180  -27.4680 C   0  0  0  0  0  0  0  0  0  0  0  0
   -2.7220   20.4150  -28.0210 C   0  0  0  0  0  0  0  0  0  0  0  0
   -2.5350   20.6540  -29.4600 N   0  0  0  0  0  0  0  0  0  0  0  0
   -1.1090   20.5650  -29.8150 C   0  0  0  0  0  0  0  0  0  0  0  0
   -0.8010   21.3480  -31.0950 C   0  0  0  0  0  0  0  0  0  0  0  0
   -2.0010   21.8370  -31.6600 O   0  0  0  0  0  0  0  0  0  0  0  0
   -2.0500   21.5500  -33.0460 C   0  0  0  0  0  0  0  0  0  0  0  0
   -3.5080   21.4480  -33.5000 C   0  0  0  0  0  0  0  0  0  0  0  0
   -4.4370   21.6070  -32.3770 N   0  0  0  0  0  0  0  0  0  0  0  0
   -5.6320   20.8170  -32.2520 C   0  0  0  0  0  0  0  0  0  0  0  0
   -5.5560   19.4210  -32.4080 C   0  0  0  0  0  0  0  0  0  0  0  0
   -4.3060   18.7750  -32.5340 C   0  0  0  0  0  0  0  0  0  0  0  0
   -4.2310   17.4040  -32.7700 C   0  0  0  0  0  0  0  0  0  0  0  0
   -5.3950   16.6560  -32.8860 C   0  0  0  0  0  0  0  0  0  0  0  0
   -6.6380   17.2640  -32.7230 C   0  0  0  0  0  0  0  0  0  0  0  0
   -6.7450   18.6490  -32.4290 C   0  0  0  0  0  0  0  0  0  0  0  0
   -7.9640   19.2470  -32.1790 N   0  0  0  0  0  0  0  0  0  0  0  0
   -9.1540   18.4020  -31.9240 C   0  0  0  0  0  0  0  0  0  0  0  0
   -8.0660   20.6250  -32.1180 C   0  0  0  0  0  0  0  0  0  0  0  0
   -9.3280   21.2670  -32.1230 C   0  0  0  0  0  0  0  0  0  0  0  0
   -9.4380   22.6430  -31.9790 C   0  0  0  0  0  0  0  0  0  0  0  0
   -8.3030   23.4230  -31.8290 C   0  0  0  0  0  0  0  0  0  0  0  0
   -7.0230   22.8440  -31.8660 C   0  0  0  0  0  0  0  0  0  0  0  0
   -5.8730   23.6380  -31.6920 O   0  0  0  0  0  0  0  0  0  0  0  0
   -5.7330   24.7500  -30.8070 C   0  0  0  0  0  0  0  0  0  0  0  0
   -4.2730   24.9070  -30.3610 C   0  0  0  0  0  0  0  0  0  0  0  0
   -3.7090   23.6190  -29.9050 N   0  0  0  0  0  0  0  0  0  0  0  0
   -4.6280   22.9350  -28.9750 C   0  0  0  0  0  0  0  0  0  0  0  0
   -2.4200   23.8490  -29.2330 C   0  0  0  0  0  0  0  0  0  0  0  0
   -6.8930   21.4370  -32.0740 C   0  0  0  0  0  0  0  0  0  0  0  0
   -1.6410   19.5390  -26.3685 H   0  0  0  0  0  0  0  0  0  0  0  0
   -1.7691   18.4869  -27.8187 H   0  0  0  0  0  0  0  0  0  0  0  0
   -0.6382   19.8825  -27.8187 H   0  0  0  0  0  0  0  0  0  0  0  0
   -3.6947   19.9270  -27.8605 H   0  0  0  0  0  0  0  0  0  0  0  0
   -2.6855   21.3814  -27.4969 H   0  0  0  0  0  0  0  0  0  0  0  0
   -2.8910   21.6080  -29.7010 H   0  0  0  0  0  0  0  0  0  0  0  0
   -3.0730   19.9340  -30.0000 H   0  0  0  0  0  0  0  0  0  0  0  0
   -0.5087   20.9769  -28.9904 H   0  0  0  0  0  0  0  0  0  0  0  0
   -0.8611   19.5074  -29.9884 H   0  0  0  0  0  0  0  0  0  0  0  0
   -0.1396   22.1936  -30.8551 H   0  0  0  0  0  0  0  0  0  0  0  0
   -0.3058   20.6819  -31.8169 H   0  0  0  0  0  0  0  0  0  0  0  0
   -1.5486   22.3545  -33.6040 H   0  0  0  0  0  0  0  0  0  0  0  0
   -1.5406   20.5942  -33.2385 H   0  0  0  0  0  0  0  0  0  0  0  0
   -3.7066   22.2359  -34.2415 H   0  0  0  0  0  0  0  0  0  0  0  0
   -3.6631   20.4497  -33.9352 H   0  0  0  0  0  0  0  0  0  0  0  0
   -4.1950   22.2730  -31.6090 H   0  0  0  0  0  0  0  0  0  0  0  0
   -3.3800   19.3620  -32.4446 H   0  0  0  0  0  0  0  0  0  0  0  0
   -3.2504   16.9145  -32.8644 H   0  0  0  0  0  0  0  0  0  0  0  0
   -5.3356   15.5801  -33.1073 H   0  0  0  0  0  0  0  0  0  0  0  0
   -7.5522   16.6606  -32.8238 H   0  0  0  0  0  0  0  0  0  0  0  0
   -9.3030   18.2962  -30.8393 H   0  0  0  0  0  0  0  0  0  0  0  0
  -10.0413   18.8735  -32.3717 H   0  0  0  0  0  0  0  0  0  0  0  0
   -9.0013   17.4089  -32.3717 H   0  0  0  0  0  0  0  0  0  0  0  0
  -10.2395   20.6631  -32.2434 H   0  0  0  0  0  0  0  0  0  0  0  0
  -10.4309   23.1164  -31.9840 H   0  0  0  0  0  0  0  0  0  0  0  0
   -8.4048   24.5080  -31.6792 H   0  0  0  0  0  0  0  0  0  0  0  0
   -6.0530   25.6662  -31.3248 H   0  0  0  0  0  0  0  0  0  0  0  0
   -6.3577   24.5761  -29.9185 H   0  0  0  0  0  0  0  0  0  0  0  0
   -3.6777   25.2790  -31.2079 H   0  0  0  0  0  0  0  0  0  0  0  0
   -4.2410   25.6167  -29.5211 H   0  0  0  0  0  0  0  0  0  0  0  0
   -4.3320   23.1553  -27.9387 H   0  0  0  0  0  0  0  0  0  0  0  0
   -5.6548   23.2904  -29.1465 H   0  0  0  0  0  0  0  0  0  0  0  0
   -4.5823   21.8494  -29.1465 H   0  0  0  0  0  0  0  0  0  0  0  0
   -2.5650   23.8231  -28.1429 H   0  0  0  0  0  0  0  0  0  0  0  0
   -1.7080   23.0637  -29.5269 H   0  0  0  0  0  0  0  0  0  0  0  0
   -2.0235   24.8321  -29.5269 H   0  0  0  0  0  0  0  0  0  0  0  0
  1  2  1  0
  2  3  1  0
  3  4  1  0
  4  5  1  0
  5  6  1  0
  6  7  1  0
  7  8  1  0
  8  9  1  0
  9 10  1  0
 10 11  2  0
 11 12  1  0
 12 13  2  0
 13 14  1  0
 14 15  2  0
 15 16  1  0
 16 17  2  0
 17 18  1  0
 17 19  1  0
 19 20  2  0
 20 21  1  0
 21 22  2  0
 22 23  1  0
 23 24  1  0
 24 25  1  0
 25 26  1  0
 26 27  1  0
 27 28  1  0
 27 29  1  0
 23 30  2  0
 30 10  1  0
 16 11  1  0
 30 19  1  0
  1 31  1  0
  1 32  1  0
  1 33  1  0
  2 34  1  0
  2 35  1  0
  3 36  1  0
  3 37  1  0
  4 38  1  0
  4 39  1  0
  5 40  1  0
  5 41  1  0
  7 42  1  0
  7 43  1  0
  8 44  1  0
  8 45  1  0
  9 46  1  0
 12 47  1  0
 13 48  1  0
 14 49  1  0
 15 50  1  0
 18 51  1  0
 18 52  1  0
 18 53  1  0
 20 54  1  0
 21 55  1  0
 22 56  1  0
 25 57  1  0
 25 58  1  0
 26 59  1  0
 26 60  1  0
 28 61  1  0
 28 62  1  0
 28 63  1  0
 29 64  1  0
 29 65  1  0
 29 66  1  0
M  CHG  2   3   1  17   1
M  END
>  <UniqueID>  (19) 
18

>  <SMILES>  (19) 
CC[NH2+]CCOCCNc1c2ccccc2[n+](C)c2cccc(OCCN(C)C)c12

>  <Energy>  (19) 
91.2873400739818

>  <Genealogy>  (19) 
CC[NH2+]CCOCCNc1c2ccccc2[n+](C)c2cccc(OCCN(C)C)c12 (protonated)
CC[NH2+]CCOCCNc1c2ccccc2[n+](C)c2cccc(OCCN(C)C)c12 (3D coordinates assigned)
CC[NH2+]CCOCCNc1c2ccccc2[n+](C)c2cccc(OCCN(C)C)c12 (optimized conformer: 91.2873400739818 kcal/mol)

>  <smiles>  (19) 
CCNCCOCCNc1c2ccccc2[n+](C)c2cccc(OCCN(C)C)c12

>  <score_type>  (19) 
oracle

>  <origin>  (19) 
adg

>  <m_score__min__energy>  (19) 
-6.3200000000000003

>  <m_primary>  (19) 
energy

$$$$
19:0
     RDKit          3D

 77 79  0  0  0  0  0  0  0  0999 V2000
   -7.3000   17.3950  -32.4790 C   0  0  0  0  0  0  0  0  0  0  0  0
   -7.7750   18.2170  -31.2800 C   0  0  0  0  0  0  0  0  0  0  0  0
   -9.0470   19.0260  -31.5720 C   0  0  0  0  0  0  0  0  0  0  0  0
   -8.9880   20.4500  -30.9990 C   0  0  0  0  0  0  0  0  0  0  0  0
   -9.3050   21.4990  -32.0830 C   0  0  0  0  0  0  0  0  0  0  0  0
   -8.1720   22.4070  -32.3210 N   0  0  0  0  0  0  0  0  0  0  0  0
   -6.9670   21.6840  -32.6760 C   0  0  0  0  0  0  0  0  0  0  0  0
   -7.0740   20.5150  -33.4360 C   0  0  0  0  0  0  0  0  0  0  0  0
   -5.9420   19.8140  -33.8320 C   0  0  0  0  0  0  0  0  0  0  0  0
   -4.6530   20.1960  -33.3990 C   0  0  0  0  0  0  0  0  0  0  0  0
   -4.5320   21.3580  -32.5860 C   0  0  0  0  0  0  0  0  0  0  0  0
   -5.6840   22.1500  -32.3080 C   0  0  0  0  0  0  0  0  0  0  0  0
   -5.5450   23.4910  -31.8070 N   0  0  0  0  0  0  0  0  0  0  0  0
   -5.8930   23.8210  -30.4220 C   0  0  0  0  0  0  0  0  0  0  0  0
   -4.9530   24.8920  -29.8480 C   0  0  0  0  0  0  0  0  0  0  0  0
   -3.9320   25.3040  -30.8120 N   0  0  0  0  0  0  0  0  0  0  0  0
   -3.2630   21.6660  -32.0480 C   0  0  0  0  0  0  0  0  0  0  0  0
   -3.1460   22.4500  -30.8470 N   0  0  0  0  0  0  0  0  0  0  0  0
   -3.1960   21.8080  -29.5330 C   0  0  0  0  0  0  0  0  0  0  0  0
   -2.7670   22.7780  -28.4230 C   0  0  0  0  0  0  0  0  0  0  0  0
   -1.9650   23.9240  -28.9190 N   0  0  0  0  0  0  0  0  0  0  0  0
   -1.9130   25.0740  -27.9810 C   0  0  0  0  0  0  0  0  0  0  0  0
   -2.8000   24.9170  -26.7400 C   0  0  0  0  0  0  0  0  0  0  0  0
   -0.6040   23.4910  -29.3190 C   0  0  0  0  0  0  0  0  0  0  0  0
   -0.0790   22.3920  -28.3990 C   0  0  0  0  0  0  0  0  0  0  0  0
   -2.1210   21.0590  -32.5900 C   0  0  0  0  0  0  0  0  0  0  0  0
   -0.8310   21.5210  -32.2590 C   0  0  0  0  0  0  0  0  0  0  0  0
    0.2990   20.9480  -32.8370 C   0  0  0  0  0  0  0  0  0  0  0  0
    0.1620   19.9160  -33.7590 C   0  0  0  0  0  0  0  0  0  0  0  0
   -1.1070   19.4380  -34.0920 C   0  0  0  0  0  0  0  0  0  0  0  0
   -2.2720   19.9740  -33.4890 C   0  0  0  0  0  0  0  0  0  0  0  0
   -3.5300   19.4650  -33.7450 N   0  0  0  0  0  0  0  0  0  0  0  0
   -3.6730   18.1320  -34.3700 C   0  0  0  0  0  0  0  0  0  0  0  0
   -6.7793   16.4939  -32.1227 H   0  0  0  0  0  0  0  0  0  0  0  0
   -8.1672   17.1005  -33.0884 H   0  0  0  0  0  0  0  0  0  0  0  0
   -6.6119   17.9993  -33.0884 H   0  0  0  0  0  0  0  0  0  0  0  0
   -7.9798   17.5316  -30.4444 H   0  0  0  0  0  0  0  0  0  0  0  0
   -6.9776   18.9347  -31.0370 H   0  0  0  0  0  0  0  0  0  0  0  0
   -9.1807   19.0904  -32.6619 H   0  0  0  0  0  0  0  0  0  0  0  0
   -9.8886   18.5079  -31.0890 H   0  0  0  0  0  0  0  0  0  0  0  0
   -9.7232   20.5406  -30.1858 H   0  0  0  0  0  0  0  0  0  0  0  0
   -7.9705   20.6331  -30.6232 H   0  0  0  0  0  0  0  0  0  0  0  0
   -9.5455   20.9780  -33.0215 H   0  0  0  0  0  0  0  0  0  0  0  0
  -10.1555   22.1023  -31.7328 H   0  0  0  0  0  0  0  0  0  0  0  0
   -8.0110   22.9760  -31.4620 H   0  0  0  0  0  0  0  0  0  0  0  0
   -8.4250   23.0890  -33.0730 H   0  0  0  0  0  0  0  0  0  0  0  0
   -8.0690   20.1452  -33.7244 H   0  0  0  0  0  0  0  0  0  0  0  0
   -6.0517   18.9440  -34.4961 H   0  0  0  0  0  0  0  0  0  0  0  0
   -4.9520   24.1680  -32.3340 H   0  0  0  0  0  0  0  0  0  0  0  0
   -6.9258   24.1984  -30.3927 H   0  0  0  0  0  0  0  0  0  0  0  0
   -5.7928   22.9102  -29.8134 H   0  0  0  0  0  0  0  0  0  0  0  0
   -5.5492   25.7721  -29.5652 H   0  0  0  0  0  0  0  0  0  0  0  0
   -4.4401   24.4597  -28.9762 H   0  0  0  0  0  0  0  0  0  0  0  0
   -3.0050   24.9320  -30.5020 H   0  0  0  0  0  0  0  0  0  0  0  0
   -3.8620   26.3470  -30.8230 H   0  0  0  0  0  0  0  0  0  0  0  0
   -2.7870   23.4270  -30.9000 H   0  0  0  0  0  0  0  0  0  0  0  0
   -4.2248   21.4715  -29.3373 H   0  0  0  0  0  0  0  0  0  0  0  0
   -2.5021   20.9545  -29.5363 H   0  0  0  0  0  0  0  0  0  0  0  0
   -3.6710   23.1706  -27.9345 H   0  0  0  0  0  0  0  0  0  0  0  0
   -2.1299   22.2131  -27.7266 H   0  0  0  0  0  0  0  0  0  0  0  0
   -0.8724   25.1993  -27.6470 H   0  0  0  0  0  0  0  0  0  0  0  0
   -2.2935   25.9469  -28.5316 H   0  0  0  0  0  0  0  0  0  0  0  0
   -2.1856   25.0257  -25.8341 H   0  0  0  0  0  0  0  0  0  0  0  0
   -3.5819   25.6907  -26.7479 H   0  0  0  0  0  0  0  0  0  0  0  0
   -3.2688   23.9219  -26.7479 H   0  0  0  0  0  0  0  0  0  0  0  0
   -0.6380   23.1093  -30.3501 H   0  0  0  0  0  0  0  0  0  0  0  0
    0.0711   24.3565  -29.2465 H   0  0  0  0  0  0  0  0  0  0  0  0
   -0.2223   22.6920  -27.3505 H   0  0  0  0  0  0  0  0  0  0  0  0
   -0.6286   21.4588  -28.5918 H   0  0  0  0  0  0  0  0  0  0  0  0
    0.9923   22.2331  -28.5918 H   0  0  0  0  0  0  0  0  0  0  0  0
   -0.7158   22.3426  -31.5367 H   0  0  0  0  0  0  0  0  0  0  0  0
    1.3005   21.3119  -32.5641 H   0  0  0  0  0  0  0  0  0  0  0  0
    1.0548   19.4755  -34.2268 H   0  0  0  0  0  0  0  0  0  0  0  0
   -1.2040   18.6322  -34.8345 H   0  0  0  0  0  0  0  0  0  0  0  0
   -3.7552   17.3659  -33.5850 H   0  0  0  0  0  0  0  0  0  0  0  0
   -4.5781   18.1152  -34.9949 H   0  0  0  0  0  0  0  0  0  0  0  0
   -2.7921   17.9236  -34.9949 H   0  0  0  0  0  0  0  0  0  0  0  0
  1  2  1  0
  2  3  1  0
  3  4  1  0
  4  5  1  0
  5  6  1  0
  6  7  1  0
  7  8  2  0
  8  9  1  0
  9 10  2  0
 10 11  1  0
 11 12  2  0
 12 13  1  0
 13 14  1  0
 14 15  1  0
 15 16  1  0
 11 17  1  0
 17 18  1  0
 18 19  1  0
 19 20  1  0
 20 21  1  0
 21 22  1  0
 22 23  1  0
 21 24  1  0
 24 25  1  0
 17 26  2  0
 26 27  1  0
 27 28  2  0
 28 29  1  0
 29 30  2  0
 30 31  1  0
 31 32  2  0
 32 33  1  0
 12  7  1  0
 31 26  1  0
 32 10  1  0
  1 34  1  0
  1 35  1  0
  1 36  1  0
  2 37  1  0
  2 38  1  0
  3 39  1  0
  3 40  1  0
  4 41  1  0
  4 42  1  0
  5 43  1  0
  5 44  1  0
  6 45  1  0
  6 46  1  0
  8 47  1  0
  9 48  1  0
 13 49  1  0
 14 50  1  0
 14 51  1  0
 15 52  1  0
 15 53  1  0
 16 54  1  0
 16 55  1  0
 18 56  1  0
 19 57  1  0
 19 58  1  0
 20 59  1  0
 20 60  1  0
 22 61  1  0
 22 62  1  0
 23 63  1  0
 23 64  1  0
 23 65  1  0
 24 66  1  0
 24 67  1  0
 25 68  1  0
 25 69  1  0
 25 70  1  0
 27 71  1  0
 28 72  1  0
 29 73  1  0
 30 74  1  0
 33 75  1  0
 33 76  1  0
 33 77  1  0
M  CHG  2   6   1  32   1
M  END
>  <UniqueID>  (20) 
19

>  <SMILES>  (20) 
CCCCC[NH2+]c1ccc2c(c1NCCN)c(NCCN(CC)CC)c1ccccc1[n+]2C

>  <Energy>  (20) 
103.21984814070835

>  <Genealogy>  (20) 
CCCCC[NH2+]c1ccc2c(c1NCCN)c(NCCN(CC)CC)c1ccccc1[n+]2C (protonated)
CCCCC[NH2+]c1ccc2c(c1NCCN)c(NCCN(CC)CC)c1ccccc1[n+]2C (3D coordinates assigned)
CCCCC[NH2+]c1ccc2c(c1NCCN)c(NCCN(CC)CC)c1ccccc1[n+]2C (optimized conformer: 103.21984814070835 kcal/mol)

>  <smiles>  (20) 
CCCCCNc1ccc2c(c1NCCN)c(NCCN(CC)CC)c1ccccc1[n+]2C

>  <score_type>  (20) 
oracle

>  <origin>  (20) 
adg

>  <m_score__min__energy>  (20) 
-7.4800000000000004

>  <m_primary>  (20) 
energy

$$$$
20:0
     RDKit          3D

 75 76  0  0  0  0  0  0  0  0999 V2000
   -3.2960   24.5850  -27.0390 C   0  0  0  0  0  0  0  0  0  0  0  0
   -2.0310   25.2800  -27.5310 C   0  0  0  0  0  0  0  0  0  0  0  0
   -2.0070   25.3200  -29.0010 N   0  0  0  0  0  0  0  0  0  0  0  0
   -2.3240   24.0170  -29.6130 C   0  0  0  0  0  0  0  0  0  0  0  0
   -3.6230   24.0550  -30.4290 C   0  0  0  0  0  0  0  0  0  0  0  0
   -3.8620   25.3820  -30.8470 O   0  0  0  0  0  0  0  0  0  0  0  0
   -5.2490   25.6410  -30.8310 C   0  0  0  0  0  0  0  0  0  0  0  0
   -5.8430   25.0900  -29.5310 C   0  0  0  0  0  0  0  0  0  0  0  0
   -6.9550   24.0570  -29.7790 C   0  0  0  0  0  0  0  0  0  0  0  0
   -6.4000   22.6450  -30.0600 C   0  0  0  0  0  0  0  0  0  0  0  0
   -6.6730   22.2030  -31.4610 N   0  0  1  0  0  0  0  0  0  0  0  0
   -7.5450   23.1630  -32.2000 C   0  0  0  0  0  0  0  0  0  0  0  0
   -9.0750   22.9970  -32.0130 C   0  0  0  0  0  0  0  0  0  0  0  0
   -9.5590   21.5420  -31.9960 C   0  0  0  0  0  0  0  0  0  0  0  0
   -8.9120   20.8150  -30.8950 N   0  0  0  0  0  0  0  0  0  0  0  0
   -8.7530   19.3850  -31.2080 C   0  0  0  0  0  0  0  0  0  0  0  0
   -8.4760   19.1420  -32.7010 C   0  0  0  0  0  0  0  0  0  0  0  0
   -7.0860   18.6080  -32.9410 C   0  0  0  0  0  0  0  0  0  0  0  0
   -6.3030   19.1200  -33.9900 C   0  0  0  0  0  0  0  0  0  0  0  0
   -5.0230   18.6100  -34.2270 C   0  0  0  0  0  0  0  0  0  0  0  0
   -4.5170   17.5850  -33.4220 C   0  0  0  0  0  0  0  0  0  0  0  0
   -3.2750   17.0910  -33.6550 F   0  0  0  0  0  0  0  0  0  0  0  0
   -5.2900   17.0690  -32.3790 C   0  0  0  0  0  0  0  0  0  0  0  0
   -6.5700   17.5770  -32.1370 C   0  0  0  0  0  0  0  0  0  0  0  0
   -5.4320   21.8860  -32.2140 C   0  0  0  0  0  0  0  0  0  0  0  0
   -4.6020   20.7740  -31.5500 C   0  0  0  0  0  0  0  0  0  0  0  0
   -3.1620   20.8710  -31.9810 C   0  0  0  0  0  0  0  0  0  0  0  0
   -2.1360   20.8780  -31.0190 C   0  0  0  0  0  0  0  0  0  0  0  0
   -0.8020   21.0180  -31.4150 C   0  0  0  0  0  0  0  0  0  0  0  0
   -0.4840   21.1690  -32.7670 C   0  0  0  0  0  0  0  0  0  0  0  0
   -1.4990   21.1720  -33.7280 C   0  0  0  0  0  0  0  0  0  0  0  0
   -2.8340   21.0280  -33.3380 C   0  0  0  0  0  0  0  0  0  0  0  0
   -3.3069   24.5790  -25.9391 H   0  0  0  0  0  0  0  0  0  0  0  0
   -4.1793   25.1245  -27.4115 H   0  0  0  0  0  0  0  0  0  0  0  0
   -3.3143   23.5502  -27.4115 H   0  0  0  0  0  0  0  0  0  0  0  0
   -2.0067   26.3079  -27.1400 H   0  0  0  0  0  0  0  0  0  0  0  0
   -1.1542   24.7194  -27.1748 H   0  0  0  0  0  0  0  0  0  0  0  0
   -2.6870   26.0430  -29.3370 H   0  0  0  0  0  0  0  0  0  0  0  0
   -1.4970   23.7287  -30.2785 H   0  0  0  0  0  0  0  0  0  0  0  0
   -2.4596   23.2885  -28.8000 H   0  0  0  0  0  0  0  0  0  0  0  0
   -3.5253   23.4026  -31.3092 H   0  0  0  0  0  0  0  0  0  0  0  0
   -4.4618   23.7023  -29.8109 H   0  0  0  0  0  0  0  0  0  0  0  0
   -5.4225   26.7259  -30.8853 H   0  0  0  0  0  0  0  0  0  0  0  0
   -5.7282   25.1558  -31.6941 H   0  0  0  0  0  0  0  0  0  0  0  0
   -5.0397   24.6106  -28.9522 H   0  0  0  0  0  0  0  0  0  0  0  0
   -6.2889   25.9343  -28.9848 H   0  0  0  0  0  0  0  0  0  0  0  0
   -7.5991   24.0118  -28.8884 H   0  0  0  0  0  0  0  0  0  0  0  0
   -7.5161   24.3781  -30.6690 H   0  0  0  0  0  0  0  0  0  0  0  0
   -5.3124   22.6521  -29.8958 H   0  0  0  0  0  0  0  0  0  0  0  0
   -6.9016   21.9418  -29.3788 H   0  0  0  0  0  0  0  0  0  0  0  0
   -7.2320   21.3160  -31.4300 H   0  0  0  0  0  0  0  0  0  0  0  0
   -7.2769   24.1781  -31.8717 H   0  0  0  0  0  0  0  0  0  0  0  0
   -7.3597   22.9619  -33.2655 H   0  0  0  0  0  0  0  0  0  0  0  0
   -9.3572   23.4642  -31.0580 H   0  0  0  0  0  0  0  0  0  0  0  0
   -9.5503   23.4748  -32.8824 H   0  0  0  0  0  0  0  0  0  0  0  0
  -10.6498   21.5216  -31.8558 H   0  0  0  0  0  0  0  0  0  0  0  0
   -9.2990   21.0616  -32.9508 H   0  0  0  0  0  0  0  0  0  0  0  0
   -9.5400   20.8800  -30.0600 H   0  0  0  0  0  0  0  0  0  0  0  0
   -7.9115   18.9861  -30.6225 H   0  0  0  0  0  0  0  0  0  0  0  0
   -9.6954   18.8779  -30.9535 H   0  0  0  0  0  0  0  0  0  0  0  0
   -9.2065   18.4139  -33.0833 H   0  0  0  0  0  0  0  0  0  0  0  0
   -8.5629   20.1064  -33.2228 H   0  0  0  0  0  0  0  0  0  0  0  0
   -6.6988   19.9249  -34.6268 H   0  0  0  0  0  0  0  0  0  0  0  0
   -4.4133   19.0157  -35.0478 H   0  0  0  0  0  0  0  0  0  0  0  0
   -4.8910   16.2618  -31.7471 H   0  0  0  0  0  0  0  0  0  0  0  0
   -7.1753   17.1683  -31.3145 H   0  0  0  0  0  0  0  0  0  0  0  0
   -5.7089   21.5608  -33.2277 H   0  0  0  0  0  0  0  0  0  0  0  0
   -4.8136   22.7955  -32.2331 H   0  0  0  0  0  0  0  0  0  0  0  0
   -4.6618   20.8797  -30.4567 H   0  0  0  0  0  0  0  0  0  0  0  0
   -5.0028   19.7962  -31.8556 H   0  0  0  0  0  0  0  0  0  0  0  0
   -2.3834   20.7731  -29.9523 H   0  0  0  0  0  0  0  0  0  0  0  0
   -0.0016   21.0092  -30.6605 H   0  0  0  0  0  0  0  0  0  0  0  0
    0.5655   21.2856  -33.0753 H   0  0  0  0  0  0  0  0  0  0  0  0
   -1.2472   21.2878  -34.7925 H   0  0  0  0  0  0  0  0  0  0  0  0
   -3.6305   21.0377  -34.0966 H   0  0  0  0  0  0  0  0  0  0  0  0
  1  2  1  0
  2  3  1  0
  3  4  1  0
  4  5  1  0
  5  6  1  0
  6  7  1  0
  7  8  1  0
  8  9  1  0
  9 10  1  0
 10 11  1  0
 11 12  1  0
 12 13  1  0
 13 14  1  0
 14 15  1  0
 15 16  1  0
 16 17  1  0
 17 18  1  0
 18 19  2  0
 19 20  1  0
 20 21  2  0
 21 22  1  0
 21 23  1  0
 23 24  2  0
 11 25  1  0
 25 26  1  0
 26 27  1  0
 27 28  2  0
 28 29  1  0
 29 30  2  0
 30 31  1  0
 31 32  2  0
 24 18  1  0
 32 27  1  0
  1 33  1  0
  1 34  1  0
  1 35  1  0
  2 36  1  0
  2 37  1  0
  3 38  1  0
  4 39  1  0
  4 40  1  0
  5 41  1  0
  5 42  1  0
  7 43  1  0
  7 44  1  0
  8 45  1  0
  8 46  1  0
  9 47  1  0
  9 48  1  0
 10 49  1  0
 10 50  1  0
 11 51  1  1
 12 52  1  0
 12 53  1  0
 13 54  1  0
 13 55  1  0
 14 56  1  0
 14 57  1  0
 15 58  1  0
 16 59  1  0
 16 60  1  0
 17 61  1  0
 17 62  1  0
 19 63  1  0
 20 64  1  0
 23 65  1  0
 24 66  1  0
 25 67  1  0
 25 68  1  0
 26 69  1  0
 26 70  1  0
 28 71  1  0
 29 72  1  0
 30 73  1  0
 31 74  1  0
 32 75  1  0
M  CHG  1  11   1
M  END
>  <UniqueID>  (21) 
20

>  <SMILES>  (21) 
CCNCCOCCCC[N@@H+](CCCNCCc1ccc(F)cc1)CCc1ccccc1

>  <Energy>  (21) 
66.90878552550456

>  <Genealogy>  (21) 
CCNCCOCCCC[NH+](CCCNCCc1ccc(F)cc1)CCc1ccccc1 (protonated)
CCNCCOCCCC[N@@H+](CCCNCCc1ccc(F)cc1)CCc1ccccc1 (chirality)
CCNCCOCCCC[N@@H+](CCCNCCc1ccc(F)cc1)CCc1ccccc1 (3D coordinates assigned)
CCNCCOCCCC[N@@H+](CCCNCCc1ccc(F)cc1)CCc1ccccc1 (optimized conformer: 66.90878552550456 kcal/mol)

>  <smiles>  (21) 
CCNCCOCCCCN(CCCNCCc1ccc(F)cc1)CCc1ccccc1

>  <score_type>  (21) 
oracle

>  <origin>  (21) 
adg

>  <m_score__min__energy>  (21) 
-8.3399999999999999

>  <m_primary>  (21) 
energy

$$$$
21:0
     RDKit          3D

 30 32  0  0  0  0  0  0  0  0999 V2000
   -3.0260   20.5890  -33.4540 C   0  0  0  0  0  0  0  0  0  0  0  0
   -4.4200   20.4670  -33.0260 N   0  0  0  0  0  0  0  0  0  0  0  0
   -5.2660   19.4320  -33.2590 C   0  0  0  0  0  0  0  0  0  0  0  0
   -5.0320   18.2730  -34.0040 C   0  0  0  0  0  0  0  0  0  0  0  0
   -6.0780   17.3370  -34.0900 C   0  0  0  0  0  0  0  0  0  0  0  0
   -7.2710   17.5630  -33.4540 N   0  0  0  0  0  0  0  0  0  0  0  0
   -7.4980   18.6920  -32.7200 C   0  0  0  0  0  0  0  0  0  0  0  0
   -6.4750   19.6290  -32.6290 C   0  0  0  0  0  0  0  0  0  0  0  0
   -6.3760   20.8260  -31.9570 C   0  0  0  0  0  0  0  0  0  0  0  0
   -7.2790   21.5030  -31.1420 C   0  0  0  0  0  0  0  0  0  0  0  0
   -6.8590   22.7150  -30.5680 C   0  0  0  0  0  0  0  0  0  0  0  0
   -5.5570   23.2140  -30.8060 C   0  0  0  0  0  0  0  0  0  0  0  0
   -5.0530   24.7380  -30.0840 S   0  0  0  0  0  0  0  0  0  0  0  0
   -4.5990   24.4650  -28.3870 C   0  0  0  0  0  0  0  0  0  0  0  0
   -6.1790   25.7310  -30.1510 O   0  0  0  0  0  0  0  0  0  0  0  0
   -3.8750   25.2940  -30.8360 O   0  0  0  0  0  0  0  0  0  0  0  0
   -4.6660   22.5050  -31.6400 C   0  0  0  0  0  0  0  0  0  0  0  0
   -5.1070   21.3070  -32.2100 C   0  0  0  0  0  0  0  0  0  0  0  0
   -2.3745   20.6460  -32.5695 H   0  0  0  0  0  0  0  0  0  0  0  0
   -2.7495   19.7116  -34.0571 H   0  0  0  0  0  0  0  0  0  0  0  0
   -2.9061   21.5011  -34.0571 H   0  0  0  0  0  0  0  0  0  0  0  0
   -4.0674   18.0997  -34.5036 H   0  0  0  0  0  0  0  0  0  0  0  0
   -5.9375   16.4149  -34.6731 H   0  0  0  0  0  0  0  0  0  0  0  0
   -8.4618   18.8552  -32.2156 H   0  0  0  0  0  0  0  0  0  0  0  0
   -8.2863   21.1031  -30.9538 H   0  0  0  0  0  0  0  0  0  0  0  0
   -7.5501   23.2817  -29.9268 H   0  0  0  0  0  0  0  0  0  0  0  0
   -5.3538   24.9189  -27.7279 H   0  0  0  0  0  0  0  0  0  0  0  0
   -4.5440   23.3839  -28.1915 H   0  0  0  0  0  0  0  0  0  0  0  0
   -3.6183   24.9233  -28.1915 H   0  0  0  0  0  0  0  0  0  0  0  0
   -3.6524   22.8846  -31.8361 H   0  0  0  0  0  0  0  0  0  0  0  0
  1  2  1  0
  2  3  1  0
  3  4  2  0
  4  5  1  0
  5  6  2  0
  6  7  1  0
  7  8  2  0
  8  9  1  0
  9 10  2  0
 10 11  1  0
 11 12  2  0
 12 13  1  0
 13 14  1  0
 13 15  2  0
 13 16  2  0
 12 17  1  0
 17 18  2  0
 18  2  1  0
  8  3  1  0
 18  9  1  0
  1 19  1  0
  1 20  1  0
  1 21  1  0
  4 22  1  0
  5 23  1  0
  7 24  1  0
 10 25  1  0
 11 26  1  0
 14 27  1  0
 14 28  1  0
 14 29  1  0
 17 30  1  0
M  END
>  <UniqueID>  (22) 
21

>  <SMILES>  (22) 
Cn1c2ccncc2c2ccc(S(C)(=O)=O)cc21

>  <Energy>  (22) 
73.0901158219616

>  <Genealogy>  (22) 
Cn1c2ccncc2c2ccc(S(C)(=O)=O)cc21 (3D coordinates assigned)
Cn1c2ccncc2c2ccc(S(C)(=O)=O)cc21 (optimized conformer: 73.0901158219616 kcal/mol)

>  <smiles>  (22) 
Cn1c2ccncc2c2ccc(S(C)(=O)=O)cc21

>  <score_type>  (22) 
oracle

>  <origin>  (22) 
adg

>  <m_score__min__energy>  (22) 
-8.0899999999999999

>  <m_primary>  (22) 
energy

$$$$
22:0
     RDKit          3D

 68 70  0  0  0  0  0  0  0  0999 V2000
   -8.9390   22.5880  -31.9620 C   0  0  0  0  0  0  0  0  0  0  0  0
   -9.3860   21.1170  -31.9570 C   0  0  0  0  0  0  0  0  0  0  0  0
   -8.2710   20.1420  -31.8680 N   0  0  0  0  0  0  0  0  0  0  0  0
   -8.7390   18.7490  -31.7030 C   0  0  0  0  0  0  0  0  0  0  0  0
   -7.7730   17.7700  -32.3650 C   0  0  0  0  0  0  0  0  0  0  0  0
   -7.2740   20.3010  -32.9550 C   0  0  0  0  0  0  0  0  0  0  0  0
   -5.8500   20.2990  -32.3790 C   0  0  0  0  0  0  0  0  0  0  0  0
   -4.7860   20.5640  -33.4560 C   0  0  0  0  0  0  0  0  0  0  0  0
   -4.2150   21.9000  -33.3040 N   0  0  0  0  0  0  0  0  0  0  0  0
   -3.7190   22.3230  -32.0270 C   0  0  0  0  0  0  0  0  0  0  0  0
   -4.5300   23.1300  -31.2160 C   0  0  0  0  0  0  0  0  0  0  0  0
   -5.6880   23.7450  -31.7400 C   0  0  0  0  0  0  0  0  0  0  0  0
   -6.4710   24.5770  -30.9440 C   0  0  0  0  0  0  0  0  0  0  0  0
   -6.1080   24.8220  -29.6250 C   0  0  0  0  0  0  0  0  0  0  0  0
   -4.9800   24.2060  -29.0820 C   0  0  0  0  0  0  0  0  0  0  0  0
   -4.1920   23.3150  -29.8530 C   0  0  0  0  0  0  0  0  0  0  0  0
   -3.1360   22.6140  -29.3070 N   0  0  0  0  0  0  0  0  0  0  0  0
   -2.9960   22.5200  -27.8360 C   0  0  0  0  0  0  0  0  0  0  0  0
   -2.2240   21.9780  -30.1320 C   0  0  0  0  0  0  0  0  0  0  0  0
   -1.0080   21.4610  -29.6210 C   0  0  0  0  0  0  0  0  0  0  0  0
   -0.1150   20.7800  -30.4380 C   0  0  0  0  0  0  0  0  0  0  0  0
   -0.3750   20.6360  -31.7920 C   0  0  0  0  0  0  0  0  0  0  0  0
   -1.5350   21.1810  -32.3610 C   0  0  0  0  0  0  0  0  0  0  0  0
   -1.6500   21.1990  -33.7950 N   0  0  0  0  0  0  0  0  0  0  0  0
   -0.9960   20.2110  -34.6510 C   0  0  0  0  0  0  0  0  0  0  0  0
   -0.0730   20.9150  -35.6650 C   0  0  0  0  0  0  0  0  0  0  0  0
    0.5410   22.1660  -35.1660 N   0  0  0  0  0  0  0  0  0  0  0  0
    1.9830   22.0300  -34.9090 C   0  0  0  0  0  0  0  0  0  0  0  0
    0.2650   23.3290  -36.0260 C   0  0  0  0  0  0  0  0  0  0  0  0
   -2.4920   21.8310  -31.5260 C   0  0  0  0  0  0  0  0  0  0  0  0
   -8.8314   22.9420  -30.9261 H   0  0  0  0  0  0  0  0  0  0  0  0
   -7.9735   22.6761  -32.4817 H   0  0  0  0  0  0  0  0  0  0  0  0
   -9.6922   23.1983  -32.4817 H   0  0  0  0  0  0  0  0  0  0  0  0
  -10.0499   20.9613  -31.0939 H   0  0  0  0  0  0  0  0  0  0  0  0
   -9.8876   20.9361  -32.9191 H   0  0  0  0  0  0  0  0  0  0  0  0
   -8.8087   18.5168  -30.6300 H   0  0  0  0  0  0  0  0  0  0  0  0
   -9.7245   18.6494  -32.1814 H   0  0  0  0  0  0  0  0  0  0  0  0
   -7.2250   17.2147  -31.5896 H   0  0  0  0  0  0  0  0  0  0  0  0
   -8.3382   17.0641  -32.9913 H   0  0  0  0  0  0  0  0  0  0  0  0
   -7.0596   18.3257  -32.9913 H   0  0  0  0  0  0  0  0  0  0  0  0
   -7.3782   19.4691  -33.6671 H   0  0  0  0  0  0  0  0  0  0  0  0
   -7.4516   21.2593  -33.4651 H   0  0  0  0  0  0  0  0  0  0  0  0
   -5.7781   21.0823  -31.6101 H   0  0  0  0  0  0  0  0  0  0  0  0
   -5.6594   19.3020  -31.9550 H   0  0  0  0  0  0  0  0  0  0  0  0
   -3.9844   19.8165  -33.3626 H   0  0  0  0  0  0  0  0  0  0  0  0
   -5.2613   20.4944  -34.4456 H   0  0  0  0  0  0  0  0  0  0  0  0
   -4.2910   22.5980  -34.0790 H   0  0  0  0  0  0  0  0  0  0  0  0
   -5.9742   23.5652  -32.7868 H   0  0  0  0  0  0  0  0  0  0  0  0
   -7.3778   25.0408  -31.3596 H   0  0  0  0  0  0  0  0  0  0  0  0
   -6.7116   25.5034  -29.0075 H   0  0  0  0  0  0  0  0  0  0  0  0
   -4.6979   24.4150  -28.0395 H   0  0  0  0  0  0  0  0  0  0  0  0
   -3.8167   23.0711  -27.3536 H   0  0  0  0  0  0  0  0  0  0  0  0
   -3.0343   21.4639  -27.5308 H   0  0  0  0  0  0  0  0  0  0  0  0
   -2.0330   22.9552  -27.5308 H   0  0  0  0  0  0  0  0  0  0  0  0
   -0.7666   21.6016  -28.5571 H   0  0  0  0  0  0  0  0  0  0  0  0
    0.8032   20.3528  -30.0086 H   0  0  0  0  0  0  0  0  0  0  0  0
    0.3366   20.0881  -32.4272 H   0  0  0  0  0  0  0  0  0  0  0  0
   -2.0030   22.0760  -34.2380 H   0  0  0  0  0  0  0  0  0  0  0  0
   -0.3987   19.5289  -34.0282 H   0  0  0  0  0  0  0  0  0  0  0  0
   -1.7641   19.6441  -35.1974 H   0  0  0  0  0  0  0  0  0  0  0  0
    0.7349   20.2193  -35.9358 H   0  0  0  0  0  0  0  0  0  0  0  0
   -0.7031   21.1944  -36.5222 H   0  0  0  0  0  0  0  0  0  0  0  0
    2.1620   22.0131  -33.8238 H   0  0  0  0  0  0  0  0  0  0  0  0
    2.3483   21.0934  -35.3555 H   0  0  0  0  0  0  0  0  0  0  0  0
    2.5170   22.8818  -35.3555 H   0  0  0  0  0  0  0  0  0  0  0  0
    0.0564   24.2079  -35.3983 H   0  0  0  0  0  0  0  0  0  0  0  0
    1.1401   23.5313  -36.6611 H   0  0  0  0  0  0  0  0  0  0  0  0
   -0.6077   23.1165  -36.6611 H   0  0  0  0  0  0  0  0  0  0  0  0
  1  2  1  0
  2  3  1  0
  3  4  1  0
  4  5  1  0
  3  6  1  0
  6  7  1  0
  7  8  1  0
  8  9  1  0
  9 10  1  0
 10 11  2  0
 11 12  1  0
 12 13  2  0
 13 14  1  0
 14 15  2  0
 15 16  1  0
 16 17  2  0
 17 18  1  0
 17 19  1  0
 19 20  2  0
 20 21  1  0
 21 22  2  0
 22 23  1  0
 23 24  1  0
 24 25  1  0
 25 26  1  0
 26 27  1  0
 27 28  1  0
 27 29  1  0
 23 30  2  0
 30 10  1  0
 16 11  1  0
 30 19  1  0
  1 31  1  0
  1 32  1  0
  1 33  1  0
  2 34  1  0
  2 35  1  0
  4 36  1  0
  4 37  1  0
  5 38  1  0
  5 39  1  0
  5 40  1  0
  6 41  1  0
  6 42  1  0
  7 43  1  0
  7 44  1  0
  8 45  1  0
  8 46  1  0
  9 47  1  0
 12 48  1  0
 13 49  1  0
 14 50  1  0
 15 51  1  0
 18 52  1  0
 18 53  1  0
 18 54  1  0
 20 55  1  0
 21 56  1  0
 22 57  1  0
 24 58  1  0
 25 59  1  0
 25 60  1  0
 26 61  1  0
 26 62  1  0
 28 63  1  0
 28 64  1  0
 28 65  1  0
 29 66  1  0
 29 67  1  0
 29 68  1  0
M  CHG  1  17   1
M  END
>  <UniqueID>  (23) 
22

>  <SMILES>  (23) 
CCN(CC)CCCNc1c2ccccc2[n+](C)c2cccc(NCCN(C)C)c12

>  <Energy>  (23) 
103.55755127460077

>  <Genealogy>  (23) 
CCN(CC)CCCNc1c2ccccc2[n+](C)c2cccc(NCCN(C)C)c12 (3D coordinates assigned)
CCN(CC)CCCNc1c2ccccc2[n+](C)c2cccc(NCCN(C)C)c12 (optimized conformer: 103.55755127460077 kcal/mol)

>  <smiles>  (23) 
CCN(CC)CCCNc1c2ccccc2[n+](C)c2cccc(NCCN(C)C)c12

>  <score_type>  (23) 
oracle

>  <origin>  (23) 
adg

>  <m_score__min__energy>  (23) 
-8.5099999999999998

>  <m_primary>  (23) 
energy

$$$$
23:0
     RDKit          3D

 65 67  0  0  0  0  0  0  0  0999 V2000
   -3.5720   18.5770  -25.9690 C   0  0  0  0  0  0  0  0  0  0  0  0
   -2.4000   19.5000  -26.3300 C   0  0  0  0  0  0  0  0  0  0  0  0
   -2.2320   19.7290  -27.7870 N   0  0  0  0  0  0  0  0  0  0  0  0
   -0.8760   19.4020  -28.2910 C   0  0  0  0  0  0  0  0  0  0  0  0
   -0.2600   18.2230  -27.5400 C   0  0  0  0  0  0  0  0  0  0  0  0
   -2.6490   21.0910  -28.1900 C   0  0  0  0  0  0  0  0  0  0  0  0
   -1.4660   21.8580  -28.7850 C   0  0  0  0  0  0  0  0  0  0  0  0
   -1.6250   21.9590  -30.1880 O   0  0  0  0  0  0  0  0  0  0  0  0
   -0.5350   21.3700  -30.8660 C   0  0  0  0  0  0  0  0  0  0  0  0
   -0.7620   21.4770  -32.3770 C   0  0  0  0  0  0  0  0  0  0  0  0
   -1.4530   20.2460  -32.9810 C   0  0  0  0  0  0  0  0  0  0  0  0
   -2.5670   20.6390  -33.8570 N   0  0  0  0  0  0  0  0  0  0  0  0
   -3.4020   21.6630  -33.2190 C   0  0  0  0  0  0  0  0  0  0  0  0
   -4.0140   21.1270  -31.9190 C   0  0  0  0  0  0  0  0  0  0  0  0
   -5.3600   21.7690  -31.6580 C   0  0  0  0  0  0  0  0  0  0  0  0
   -6.5860   21.1130  -31.9550 C   0  0  0  0  0  0  0  0  0  0  0  0
   -6.5870   19.7870  -32.6090 C   0  0  0  0  0  0  0  0  0  0  0  0
   -6.1250   19.6540  -33.9270 C   0  0  0  0  0  0  0  0  0  0  0  0
   -6.0880   18.3940  -34.5330 C   0  0  0  0  0  0  0  0  0  0  0  0
   -6.5140   17.2660  -33.8260 C   0  0  0  0  0  0  0  0  0  0  0  0
   -6.9820   17.3960  -32.5140 C   0  0  0  0  0  0  0  0  0  0  0  0
   -7.0190   18.6540  -31.9050 C   0  0  0  0  0  0  0  0  0  0  0  0
   -7.8170   21.7420  -31.6170 C   0  0  0  0  0  0  0  0  0  0  0  0
   -9.1360   21.0870  -31.9090 C   0  0  0  0  0  0  0  0  0  0  0  0
   -7.8180   22.9590  -30.9990 N   0  0  0  0  0  0  0  0  0  0  0  0
   -6.6540   23.5860  -30.7050 C   0  0  0  0  0  0  0  0  0  0  0  0
   -6.5510   24.8190  -30.0570 C   0  0  0  0  0  0  0  0  0  0  0  0
   -7.6210   25.5440  -29.6470 F   0  0  0  0  0  0  0  0  0  0  0  0
   -5.2330   25.2220  -29.8590 C   0  0  0  0  0  0  0  0  0  0  0  0
   -4.2080   24.0350  -30.4930 S   0  0  0  0  0  0  0  0  0  0  0  0
   -5.4390   23.0130  -31.0210 C   0  0  0  0  0  0  0  0  0  0  0  0
   -3.6603   18.5074  -24.8748 H   0  0  0  0  0  0  0  0  0  0  0  0
   -4.5035   18.9866  -26.3868 H   0  0  0  0  0  0  0  0  0  0  0  0
   -3.3921   17.5754  -26.3868 H   0  0  0  0  0  0  0  0  0  0  0  0
   -2.5652   20.4732  -25.8447 H   0  0  0  0  0  0  0  0  0  0  0  0
   -1.4846   18.9996  -25.9811 H   0  0  0  0  0  0  0  0  0  0  0  0
   -0.9451   19.1469  -29.3588 H   0  0  0  0  0  0  0  0  0  0  0  0
   -0.2325   20.2803  -28.1348 H   0  0  0  0  0  0  0  0  0  0  0  0
   -0.3482   18.3919  -26.4566 H   0  0  0  0  0  0  0  0  0  0  0  0
   -0.7901   17.2981  -27.8113 H   0  0  0  0  0  0  0  0  0  0  0  0
    0.8020   18.1300  -27.8113 H   0  0  0  0  0  0  0  0  0  0  0  0
   -3.4483   21.0175  -28.9422 H   0  0  0  0  0  0  0  0  0  0  0  0
   -3.0129   21.6296  -27.3025 H   0  0  0  0  0  0  0  0  0  0  0  0
   -1.4256   22.8664  -28.3473 H   0  0  0  0  0  0  0  0  0  0  0  0
   -0.5320   21.3222  -28.5601 H   0  0  0  0  0  0  0  0  0  0  0  0
    0.3931   21.8949  -30.5957 H   0  0  0  0  0  0  0  0  0  0  0  0
   -0.4513   20.3112  -30.5797 H   0  0  0  0  0  0  0  0  0  0  0  0
   -1.3887   22.3595  -32.5733 H   0  0  0  0  0  0  0  0  0  0  0  0
    0.2288   21.5558  -32.8483 H   0  0  0  0  0  0  0  0  0  0  0  0
   -0.7191   19.6743  -33.5680 H   0  0  0  0  0  0  0  0  0  0  0  0
   -1.8542   19.6334  -32.1601 H   0  0  0  0  0  0  0  0  0  0  0  0
   -2.1510   21.0510  -34.7250 H   0  0  0  0  0  0  0  0  0  0  0  0
   -2.7834   22.5436  -32.9912 H   0  0  0  0  0  0  0  0  0  0  0  0
   -4.2151   21.9371  -33.9073 H   0  0  0  0  0  0  0  0  0  0  0  0
   -4.1434   20.0378  -32.0028 H   0  0  0  0  0  0  0  0  0  0  0  0
   -3.3391   21.3676  -31.0843 H   0  0  0  0  0  0  0  0  0  0  0  0
   -5.7915   20.5417  -34.4844 H   0  0  0  0  0  0  0  0  0  0  0  0
   -5.7237   18.2908  -35.5658 H   0  0  0  0  0  0  0  0  0  0  0  0
   -6.4812   16.2748  -34.3018 H   0  0  0  0  0  0  0  0  0  0  0  0
   -7.3212   16.5076  -31.9610 H   0  0  0  0  0  0  0  0  0  0  0  0
   -7.3871   18.7549  -30.8733 H   0  0  0  0  0  0  0  0  0  0  0  0
   -9.6388   20.8373  -30.9630 H   0  0  0  0  0  0  0  0  0  0  0  0
   -9.7673   21.7763  -32.4890 H   0  0  0  0  0  0  0  0  0  0  0  0
   -8.9683   20.1675  -32.4890 H   0  0  0  0  0  0  0  0  0  0  0  0
   -4.9124   26.1549  -29.3724 H   0  0  0  0  0  0  0  0  0  0  0  0
  1  2  1  0
  2  3  1  0
  3  4  1  0
  4  5  1  0
  3  6  1  0
  6  7  1  0
  7  8  1  0
  8  9  1  0
  9 10  1  0
 10 11  1  0
 11 12  1  0
 12 13  1  0
 13 14  1  0
 14 15  1  0
 15 16  2  0
 16 17  1  0
 17 18  2  0
 18 19  1  0
 19 20  2  0
 20 21  1  0
 21 22  2  0
 16 23  1  0
 23 24  1  0
 23 25  2  0
 25 26  1  0
 26 27  1  0
 27 28  1  0
 27 29  2  0
 29 30  1  0
 30 31  1  0
 31 15  1  0
 22 17  1  0
 31 26  2  0
  1 32  1  0
  1 33  1  0
  1 34  1  0
  2 35  1  0
  2 36  1  0
  4 37  1  0
  4 38  1  0
  5 39  1  0
  5 40  1  0
  5 41  1  0
  6 42  1  0
  6 43  1  0
  7 44  1  0
  7 45  1  0
  9 46  1  0
  9 47  1  0
 10 48  1  0
 10 49  1  0
 11 50  1  0
 11 51  1  0
 12 52  1  0
 13 53  1  0
 13 54  1  0
 14 55  1  0
 14 56  1  0
 18 57  1  0
 19 58  1  0
 20 59  1  0
 21 60  1  0
 22 61  1  0
 24 62  1  0
 24 63  1  0
 24 64  1  0
 29 65  1  0
M  END
>  <UniqueID>  (24) 
23

>  <SMILES>  (24) 
CCN(CC)CCOCCCNCCc1c(-c2ccccc2)c(C)nc2c(F)csc12

>  <Energy>  (24) 
101.99806599415835

>  <Genealogy>  (24) 
CCN(CC)CCOCCCNCCc1c(-c2ccccc2)c(C)nc2c(F)csc12 (3D coordinates assigned)
CCN(CC)CCOCCCNCCc1c(-c2ccccc2)c(C)nc2c(F)csc12 (optimized conformer: 101.99806599415835 kcal/mol)

>  <smiles>  (24) 
CCN(CC)CCOCCCNCCc1c(-c2ccccc2)c(C)nc2c(F)csc12

>  <score_type>  (24) 
oracle

>  <origin>  (24) 
adg

>  <m_score__min__energy>  (24) 
-10.01

>  <m_primary>  (24) 
energy

$$$$
24:0
     RDKit          3D

 50 52  0  0  0  0  0  0  0  0999 V2000
   -6.1040   25.6730  -29.6190 C   0  0  0  0  0  0  0  0  0  0  0  0
   -5.8560   25.1730  -30.8310 C   0  0  0  0  0  0  0  0  0  0  0  0
   -6.2220   23.7980  -31.2550 C   0  0  0  0  0  0  0  0  0  0  0  0
   -7.4350   23.1970  -30.8930 C   0  0  0  0  0  0  0  0  0  0  0  0
   -7.7500   21.9150  -31.3390 C   0  0  0  0  0  0  0  0  0  0  0  0
   -6.8590   21.1800  -32.1580 C   0  0  0  0  0  0  0  0  0  0  0  0
   -5.5780   21.7340  -32.4120 C   0  0  0  0  0  0  0  0  0  0  0  0
   -5.3000   23.0570  -32.0030 C   0  0  0  0  0  0  0  0  0  0  0  0
   -4.6090   20.9670  -33.0870 C   0  0  0  0  0  0  0  0  0  0  0  0
   -3.2660   21.4640  -33.2530 N   0  0  0  0  0  0  0  0  0  0  0  0
   -2.3330   21.5930  -32.1290 C   0  0  0  0  0  0  0  0  0  0  0  0
   -0.9030   21.1800  -32.5270 C   0  0  0  0  0  0  0  0  0  0  0  0
   -0.8790   20.1110  -33.6300 C   0  0  0  0  0  0  0  0  0  0  0  0
   -1.0020   20.7300  -34.9540 N   0  0  0  0  0  0  0  0  0  0  0  0
    0.3200   20.9600  -35.5440 C   0  0  0  0  0  0  0  0  0  0  0  0
    0.5510   22.4540  -35.7390 C   0  0  0  0  0  0  0  0  0  0  0  0
   -4.9450   19.6770  -33.5450 C   0  0  0  0  0  0  0  0  0  0  0  0
   -3.9970   18.8750  -34.2170 C   0  0  0  0  0  0  0  0  0  0  0  0
   -4.2990   17.5660  -34.5830 C   0  0  0  0  0  0  0  0  0  0  0  0
   -5.5430   17.0290  -34.2760 C   0  0  0  0  0  0  0  0  0  0  0  0
   -6.5040   17.8070  -33.6340 C   0  0  0  0  0  0  0  0  0  0  0  0
   -6.2440   19.1590  -33.2900 C   0  0  0  0  0  0  0  0  0  0  0  0
   -7.2060   19.9530  -32.6940 N   0  0  0  0  0  0  0  0  0  0  0  0
   -8.6180   19.5080  -32.6670 C   0  0  0  0  0  0  0  0  0  0  0  0
   -5.8028   26.7028  -29.3767 H   0  0  0  0  0  0  0  0  0  0  0  0
   -6.6097   25.0554  -28.8622 H   0  0  0  0  0  0  0  0  0  0  0  0
   -5.3486   25.8200  -31.5617 H   0  0  0  0  0  0  0  0  0  0  0  0
   -8.1439   23.7414  -30.2519 H   0  0  0  0  0  0  0  0  0  0  0  0
   -8.7107   21.4647  -31.0488 H   0  0  0  0  0  0  0  0  0  0  0  0
   -4.3384   23.5147  -32.2782 H   0  0  0  0  0  0  0  0  0  0  0  0
   -2.8760   21.5400  -34.2190 H   0  0  0  0  0  0  0  0  0  0  0  0
   -2.3214   22.6405  -31.7934 H   0  0  0  0  0  0  0  0  0  0  0  0
   -2.6717   20.9253  -31.3231 H   0  0  0  0  0  0  0  0  0  0  0  0
   -0.3675   22.0703  -32.8883 H   0  0  0  0  0  0  0  0  0  0  0  0
   -0.4221   20.7489  -31.6365 H   0  0  0  0  0  0  0  0  0  0  0  0
    0.0705   19.5582  -33.5766 H   0  0  0  0  0  0  0  0  0  0  0  0
   -1.7274   19.4274  -33.4788 H   0  0  0  0  0  0  0  0  0  0  0  0
   -1.4570   21.6640  -34.8220 H   0  0  0  0  0  0  0  0  0  0  0  0
    1.0932   20.5562  -34.8739 H   0  0  0  0  0  0  0  0  0  0  0  0
    0.3723   20.4560  -36.5204 H   0  0  0  0  0  0  0  0  0  0  0  0
    0.6268   22.9445  -34.7573 H   0  0  0  0  0  0  0  0  0  0  0  0
    1.4840   22.6106  -36.3002 H   0  0  0  0  0  0  0  0  0  0  0  0
   -0.2912   22.8851  -36.3002 H   0  0  0  0  0  0  0  0  0  0  0  0
   -3.0064   19.2900  -34.4546 H   0  0  0  0  0  0  0  0  0  0  0  0
   -3.5530   16.9573  -35.1150 H   0  0  0  0  0  0  0  0  0  0  0  0
   -5.7700   15.9858  -34.5408 H   0  0  0  0  0  0  0  0  0  0  0  0
   -7.4814   17.3656  -33.3895 H   0  0  0  0  0  0  0  0  0  0  0  0
   -8.9496   19.4035  -31.6234 H   0  0  0  0  0  0  0  0  0  0  0  0
   -9.2466   20.2516  -33.1788 H   0  0  0  0  0  0  0  0  0  0  0  0
   -8.7067   18.5384  -33.1788 H   0  0  0  0  0  0  0  0  0  0  0  0
  1  2  2  0
  2  3  1  0
  3  4  2  0
  4  5  1  0
  5  6  2  0
  6  7  1  0
  7  8  2  0
  7  9  1  0
  9 10  1  0
 10 11  1  0
 11 12  1  0
 12 13  1  0
 13 14  1  0
 14 15  1  0
 15 16  1  0
  9 17  2  0
 17 18  1  0
 18 19  2  0
 19 20  1  0
 20 21  2  0
 21 22  1  0
 22 23  2  0
 23 24  1  0
  8  3  1  0
 22 17  1  0
 23  6  1  0
  1 25  1  0
  1 26  1  0
  2 27  1  0
  4 28  1  0
  5 29  1  0
  8 30  1  0
 10 31  1  0
 11 32  1  0
 11 33  1  0
 12 34  1  0
 12 35  1  0
 13 36  1  0
 13 37  1  0
 14 38  1  0
 15 39  1  0
 15 40  1  0
 16 41  1  0
 16 42  1  0
 16 43  1  0
 18 44  1  0
 19 45  1  0
 20 46  1  0
 21 47  1  0
 24 48  1  0
 24 49  1  0
 24 50  1  0
M  CHG  1  23   1
M  END
>  <UniqueID>  (25) 
24

>  <SMILES>  (25) 
C=Cc1ccc2c(c1)c(NCCCNCC)c1ccccc1[n+]2C

>  <Energy>  (25) 
70.45151954379287

>  <Genealogy>  (25) 
C=Cc1ccc2c(c1)c(NCCCNCC)c1ccccc1[n+]2C (3D coordinates assigned)
C=Cc1ccc2c(c1)c(NCCCNCC)c1ccccc1[n+]2C (optimized conformer: 70.45151954379287 kcal/mol)

>  <smiles>  (25) 
C=Cc1ccc2c(c1)c(NCCCNCC)c1ccccc1[n+]2C

>  <score_type>  (25) 
oracle

>  <origin>  (25) 
adg

>  <m_score__min__energy>  (25) 
-9.4100000000000001

>  <m_primary>  (25) 
energy

$$$$
25:0
     RDKit          3D

 46 47  0  0  0  0  0  0  0  0999 V2000
   -0.3100   22.3360  -28.6390 C   0  0  0  0  0  0  0  0  0  0  0  0
    0.4580   23.3690  -27.8220 C   0  0  0  0  0  0  0  0  0  0  0  0
    0.1800   24.7160  -28.3090 N   0  0  0  0  0  0  0  0  0  0  0  0
   -1.1020   25.3570  -28.3270 C   0  0  0  0  0  0  0  0  0  0  0  0
   -1.2280   26.4330  -28.9670 O   0  0  0  0  0  0  0  0  0  0  0  0
   -2.2860   24.8290  -27.5590 C   0  0  0  0  0  0  0  0  0  0  0  0
   -3.2640   24.1030  -28.4830 C   0  0  0  0  0  0  0  0  0  0  0  0
   -3.4010   24.8230  -29.7440 N   0  0  0  0  0  0  0  0  0  0  0  0
   -4.4670   24.6160  -30.6730 C   0  0  0  0  0  0  0  0  0  0  0  0
   -5.0060   25.6140  -31.2180 O   0  0  0  0  0  0  0  0  0  0  0  0
   -4.9640   23.2680  -30.9960 C   0  0  0  0  0  0  0  0  0  0  0  0
   -4.2190   22.1240  -31.2450 C   0  0  0  0  0  0  0  0  0  0  0  0
   -2.7290   21.9910  -31.2300 C   0  0  0  0  0  0  0  0  0  0  0  0
   -5.0430   21.1200  -31.6010 N   0  0  0  0  0  0  0  0  0  0  0  0
   -6.2830   21.5860  -31.5860 N   0  0  0  0  0  0  0  0  0  0  0  0
   -7.4360   20.7870  -31.9990 C   0  0  0  0  0  0  0  0  0  0  0  0
   -6.9790   19.5170  -32.6620 C   0  0  0  0  0  0  0  0  0  0  0  0
   -7.3000   18.2660  -32.1090 C   0  0  0  0  0  0  0  0  0  0  0  0
   -6.8860   17.0900  -32.7430 C   0  0  0  0  0  0  0  0  0  0  0  0
   -6.1520   17.1540  -33.9310 C   0  0  0  0  0  0  0  0  0  0  0  0
   -5.7500   16.0120  -34.5420 F   0  0  0  0  0  0  0  0  0  0  0  0
   -5.8340   18.3950  -34.4910 C   0  0  0  0  0  0  0  0  0  0  0  0
   -6.2490   19.5730  -33.8620 C   0  0  0  0  0  0  0  0  0  0  0  0
   -6.2750   22.8920  -31.2330 C   0  0  0  0  0  0  0  0  0  0  0  0
   -7.4740   23.7930  -31.2080 C   0  0  0  0  0  0  0  0  0  0  0  0
   -0.8263   21.6416  -27.9599 H   0  0  0  0  0  0  0  0  0  0  0  0
   -1.0497   22.8464  -29.2733 H   0  0  0  0  0  0  0  0  0  0  0  0
    0.3919   21.7747  -29.2733 H   0  0  0  0  0  0  0  0  0  0  0  0
    0.1536   23.2954  -26.7675 H   0  0  0  0  0  0  0  0  0  0  0  0
    1.5355   23.1706  -27.9207 H   0  0  0  0  0  0  0  0  0  0  0  0
   -1.9310   24.1275  -26.7896 H   0  0  0  0  0  0  0  0  0  0  0  0
   -2.8089   25.6791  -27.0965 H   0  0  0  0  0  0  0  0  0  0  0  0
   -2.8884   23.0888  -28.6836 H   0  0  0  0  0  0  0  0  0  0  0  0
   -4.2473   24.0515  -27.9926 H   0  0  0  0  0  0  0  0  0  0  0  0
   -2.3742   21.9593  -30.1893 H   0  0  0  0  0  0  0  0  0  0  0  0
   -2.4385   21.0634  -31.7448 H   0  0  0  0  0  0  0  0  0  0  0  0
   -2.2788   22.8525  -31.7448 H   0  0  0  0  0  0  0  0  0  0  0  0
   -8.0405   20.5376  -31.1145 H   0  0  0  0  0  0  0  0  0  0  0  0
   -8.0370   21.3681  -32.7139 H   0  0  0  0  0  0  0  0  0  0  0  0
   -7.8784   18.2113  -31.1750 H   0  0  0  0  0  0  0  0  0  0  0  0
   -7.1385   16.1127  -32.3059 H   0  0  0  0  0  0  0  0  0  0  0  0
   -5.2573   18.4447  -35.4264 H   0  0  0  0  0  0  0  0  0  0  0  0
   -6.0031   20.5479  -34.3083 H   0  0  0  0  0  0  0  0  0  0  0  0
   -7.7533   24.0029  -30.1649 H   0  0  0  0  0  0  0  0  0  0  0  0
   -7.2344   24.7364  -31.7204 H   0  0  0  0  0  0  0  0  0  0  0  0
   -8.3136   23.3004  -31.7204 H   0  0  0  0  0  0  0  0  0  0  0  0
  1  2  1  0
  2  3  1  0
  3  4  1  0
  4  5  2  0
  4  6  1  0
  6  7  1  0
  7  8  1  0
  8  9  1  0
  9 10  2  0
  9 11  1  0
 11 12  1  0
 12 13  1  0
 12 14  2  0
 14 15  1  0
 15 16  1  0
 16 17  1  0
 17 18  2  0
 18 19  1  0
 19 20  2  0
 20 21  1  0
 20 22  1  0
 22 23  2  0
 15 24  1  0
 24 25  1  0
 24 11  2  0
 23 17  1  0
  1 26  1  0
  1 27  1  0
  1 28  1  0
  2 29  1  0
  2 30  1  0
  6 31  1  0
  6 32  1  0
  7 33  1  0
  7 34  1  0
 13 35  1  0
 13 36  1  0
 13 37  1  0
 16 38  1  0
 16 39  1  0
 18 40  1  0
 19 41  1  0
 22 42  1  0
 23 43  1  0
 25 44  1  0
 25 45  1  0
 25 46  1  0
M  CHG  2   3  -1   8  -1
M  END
>  <UniqueID>  (26) 
25

>  <SMILES>  (26) 
CC[N-]C(=O)CC[N-]C(=O)c1c(C)nn(Cc2ccc(F)cc2)c1C

>  <Energy>  (26) 
70.37067173619688

>  <Genealogy>  (26) 
CC[N-]C(=O)CC[N-]C(=O)c1c(C)nn(Cc2ccc(F)cc2)c1C (protonated)
CC[N-]C(=O)CC[N-]C(=O)c1c(C)nn(Cc2ccc(F)cc2)c1C (3D coordinates assigned)
CC[N-]C(=O)CC[N-]C(=O)c1c(C)nn(Cc2ccc(F)cc2)c1C (optimized conformer: 70.37067173619688 kcal/mol)

>  <smiles>  (26) 
CCNC(=O)CCNC(=O)c1c(C)nn(Cc2ccc(F)cc2)c1C

>  <score_type>  (26) 
oracle

>  <origin>  (26) 
adg

>  <m_score__min__energy>  (26) 
-11.17

>  <m_primary>  (26) 
energy

$$$$
26:0
     RDKit          3D

 38 39  0  0  0  0  0  0  0  0999 V2000
   -3.2270   25.6530  -31.5930 H   0  0  0  0  0  0  0  0  0  0  0  0
   -3.8780   25.6330  -30.8190 O   0  0  0  0  0  0  0  0  0  0  0  0
   -5.2330   25.6270  -31.0590 N   0  0  0  0  0  0  0  0  0  0  0  0
   -6.0370   24.7420  -30.5540 C   0  0  0  0  0  0  0  0  0  0  0  0
   -6.6603   25.0343  -29.6961 H   0  0  0  0  0  0  0  0  0  0  0  0
   -6.1600   23.3600  -31.0710 C   0  0  0  0  0  0  0  0  0  0  0  0
   -5.0180   22.7130  -31.5570 C   0  0  0  0  0  0  0  0  0  0  0  0
   -4.0432   23.2222  -31.5334 H   0  0  0  0  0  0  0  0  0  0  0  0
   -5.1200   21.4190  -32.0720 C   0  0  0  0  0  0  0  0  0  0  0  0
   -4.2181   20.9076  -32.4394 H   0  0  0  0  0  0  0  0  0  0  0  0
   -6.3280   20.7800  -32.1250 N   0  0  0  0  0  0  0  0  0  0  0  0
   -6.4120   19.4440  -32.6610 C   0  0  0  0  0  0  0  0  0  0  0  0
   -5.8370   19.1370  -33.9050 C   0  0  0  0  0  0  0  0  0  0  0  0
   -5.3186   19.9221  -34.4749 H   0  0  0  0  0  0  0  0  0  0  0  0
   -5.9180   17.8420  -34.4250 C   0  0  0  0  0  0  0  0  0  0  0  0
   -5.4624   17.6157  -35.4003 H   0  0  0  0  0  0  0  0  0  0  0  0
   -6.5780   16.8260  -33.7100 C   0  0  0  0  0  0  0  0  0  0  0  0
   -6.6790   15.4820  -34.2180 N   0  0  0  0  0  0  0  0  0  0  0  0
   -7.6320   15.1140  -34.4470 H   0  0  0  0  0  0  0  0  0  0  0  0
   -5.5200   14.6090  -34.4170 C   0  0  0  0  0  0  0  0  0  0  0  0
   -5.1007   14.7889  -35.4179 H   0  0  0  0  0  0  0  0  0  0  0  0
   -5.8460   13.5628  -34.3207 H   0  0  0  0  0  0  0  0  0  0  0  0
   -4.4560   14.8830  -33.3770 C   0  0  0  0  0  0  0  0  0  0  0  0
   -3.4140   15.6700  -33.6780 C   0  0  0  0  0  0  0  0  0  0  0  0
   -3.3353   16.1196  -34.6789 H   0  0  0  0  0  0  0  0  0  0  0  0
   -2.6373   15.8664  -32.9242 H   0  0  0  0  0  0  0  0  0  0  0  0
   -4.5540   14.2730  -32.0050 C   0  0  0  0  0  0  0  0  0  0  0  0
   -4.4279   15.0580  -31.2448 H   0  0  0  0  0  0  0  0  0  0  0  0
   -5.5397   13.8000  -31.8836 H   0  0  0  0  0  0  0  0  0  0  0  0
   -3.7661   13.5151  -31.8836 H   0  0  0  0  0  0  0  0  0  0  0  0
   -7.1520   17.1350  -32.4660 C   0  0  0  0  0  0  0  0  0  0  0  0
   -7.6713   16.3505  -31.8961 H   0  0  0  0  0  0  0  0  0  0  0  0
   -7.0700   18.4290  -31.9450 C   0  0  0  0  0  0  0  0  0  0  0  0
   -7.5232   18.6548  -30.9685 H   0  0  0  0  0  0  0  0  0  0  0  0
   -7.4590   21.4100  -31.6800 C   0  0  0  0  0  0  0  0  0  0  0  0
   -8.4279   20.8922  -31.7358 H   0  0  0  0  0  0  0  0  0  0  0  0
   -7.3960   22.7030  -31.1560 C   0  0  0  0  0  0  0  0  0  0  0  0
   -8.3125   23.2042  -30.8112 H   0  0  0  0  0  0  0  0  0  0  0  0
  1  2  1  0
  2  3  1  0
  3  4  2  0
  4  5  1  0
  4  6  1  0
  6  7  2  0
  7  8  1  0
  7  9  1  0
  9 10  1  0
  9 11  2  0
 11 12  1  0
 12 13  2  0
 13 14  1  0
 13 15  1  0
 15 16  1  0
 15 17  2  0
 17 18  1  0
 18 19  1  0
 18 20  1  0
 20 21  1  0
 20 22  1  0
 20 23  1  0
 23 24  2  0
 24 25  1  0
 24 26  1  0
 23 27  1  0
 27 28  1  0
 27 29  1  0
 27 30  1  0
 17 31  1  0
 31 32  1  0
 31 33  2  0
 33 34  1  0
 11 35  1  0
 35 36  1  0
 35 37  2  0
 37 38  1  0
 37  6  1  0
 33 12  1  0
M  CHG  1  11   1
M  END
>  <UniqueID>  (27) 
26

>  <SMILES>  (27) 
C=C(C)CNc1ccc(-[n+]2ccc(/C=N\O)cc2)cc1

>  <Energy>  (27) 
44.481550479734004

>  <Genealogy>  (27) 
C=C(C)CNc1ccc(-[n+]2ccc(/C=N\O)cc2)cc1 (cis-trans isomerization)
C=C(C)CNc1ccc(-[n+]2ccc(/C=N\O)cc2)cc1 (3D coordinates assigned)
C=C(C)CNc1ccc(-[n+]2ccc(/C=N\O)cc2)cc1 (optimized conformer: 44.481550479734004 kcal/mol)

>  <smiles>  (27) 
C=C(C)CNc1ccc(-[n+]2ccc(C=NO)cc2)cc1

>  <score_type>  (27) 
oracle

>  <origin>  (27) 
adg

>  <m_score__min__energy>  (27) 
-7.4699999999999998

>  <m_primary>  (27) 
energy

$$$$
