0:0
     RDKit          3D

 30 32  0  0  0  0  0  0  0  0999 V2000
   -8.9930   23.1810  -32.2450 O   0  0  0  0  0  0  0  0  0  0  0  0
   -7.9140   22.6150  -31.9190 C   0  0  0  0  0  0  0  0  0  0  0  0
   -6.8510   23.4220  -31.2700 C   0  0  0  0  0  0  0  0  0  0  0  0
   -7.1970   24.5090  -30.4470 C   0  0  0  0  0  0  0  0  0  0  0  0
   -6.2030   25.2640  -29.8170 C   0  0  0  0  0  0  0  0  0  0  0  0
   -4.8570   24.9360  -29.9930 C   0  0  0  0  0  0  0  0  0  0  0  0
   -4.5020   23.8490  -30.7940 C   0  0  0  0  0  0  0  0  0  0  0  0
   -5.4910   23.0900  -31.4260 C   0  0  0  0  0  0  0  0  0  0  0  0
   -7.7530   21.1670  -32.1980 C   0  0  0  0  0  0  0  0  0  0  0  0
   -8.5570   20.2130  -31.5460 C   0  0  0  0  0  0  0  0  0  0  0  0
   -8.3900   18.8500  -31.8000 C   0  0  0  0  0  0  0  0  0  0  0  0
   -7.4080   18.4140  -32.7000 C   0  0  0  0  0  0  0  0  0  0  0  0
   -7.2320   17.0460  -32.9600 C   0  0  0  0  0  0  0  0  0  0  0  0
   -6.2460   16.6220  -33.8580 C   0  0  0  0  0  0  0  0  0  0  0  0
   -6.0130   14.7590  -34.2080 Br  0  0  0  0  0  0  0  0  0  0  0  0
   -5.4310   17.5610  -34.4980 C   0  0  0  0  0  0  0  0  0  0  0  0
   -5.5960   18.9260  -34.2460 C   0  0  0  0  0  0  0  0  0  0  0  0
   -6.5820   19.3620  -33.3480 C   0  0  0  0  0  0  0  0  0  0  0  0
   -6.7570   20.7310  -33.0880 C   0  0  0  0  0  0  0  0  0  0  0  0
   -8.2560   24.7666  -30.2981 H   0  0  0  0  0  0  0  0  0  0  0  0
   -6.4816   26.1177  -29.1817 H   0  0  0  0  0  0  0  0  0  0  0  0
   -4.0763   25.5342  -29.5004 H   0  0  0  0  0  0  0  0  0  0  0  0
   -3.4415   23.5893  -30.9280 H   0  0  0  0  0  0  0  0  0  0  0  0
   -5.2058   22.2290  -32.0484 H   0  0  0  0  0  0  0  0  0  0  0  0
   -9.3237   20.5441  -30.8300 H   0  0  0  0  0  0  0  0  0  0  0  0
   -9.0319   18.1155  -31.2916 H   0  0  0  0  0  0  0  0  0  0  0  0
   -7.8707   16.3053  -32.4566 H   0  0  0  0  0  0  0  0  0  0  0  0
   -4.6567   17.2240  -35.2028 H   0  0  0  0  0  0  0  0  0  0  0  0
   -4.9517   19.6596  -34.7526 H   0  0  0  0  0  0  0  0  0  0  0  0
   -6.1091   21.4679  -33.5852 H   0  0  0  0  0  0  0  0  0  0  0  0
  1  2  2  0
  2  3  1  0
  3  4  2  0
  4  5  1  0
  5  6  2  0
  6  7  1  0
  7  8  2  0
  2  9  1  0
  9 10  2  0
 10 11  1  0
 11 12  2  0
 12 13  1  0
 13 14  2  0
 14 15  1  0
 14 16  1  0
 16 17  2  0
 17 18  1  0
 18 19  2  0
  8  3  1  0
 19  9  1  0
 18 12  1  0
  4 20  1  0
  5 21  1  0
  6 22  1  0
  7 23  1  0
  8 24  1  0
 10 25  1  0
 11 26  1  0
 13 27  1  0
 16 28  1  0
 17 29  1  0
 19 30  1  0
M  END
>  <UniqueID>  (1) 
1

>  <SMILES>  (1) 
O=C(c1ccccc1)c1ccc2cc(Br)ccc2c1

>  <Energy>  (1) 
42.07390108356809

>  <Genealogy>  (1) 
O=C(c1ccccc1)c1ccc2cc(Br)ccc2c1 (3D coordinates assigned)
O=C(c1ccccc1)c1ccc2cc(Br)ccc2c1 (optimized conformer: 42.07390108356809 kcal/mol)

>  <smiles>  (1) 
O=C(c1ccccc1)c1ccc2cc(Br)ccc2c1

>  <score_type>  (1) 
oracle

>  <origin>  (1) 
adg

>  <m_score__min__energy>  (1) 
-8.6899999999999995

>  <m_primary>  (1) 
energy

$$$$
1:0
     RDKit          3D

 58 61  0  0  0  0  0  0  0  0999 V2000
   -1.4420   21.0550  -32.4830 C   0  0  0  0  0  0  0  0  0  0  0  0
   -2.5780   21.2510  -31.5650 N   0  0  0  0  0  0  0  0  0  0  0  0
   -2.1600   21.8730  -30.2870 C   0  0  0  0  0  0  0  0  0  0  0  0
   -1.9590   20.8770  -29.1620 C   0  0  0  0  0  0  0  0  0  0  0  0
   -2.9060   20.7690  -28.1300 C   0  0  0  0  0  0  0  0  0  0  0  0
   -2.7270   19.8390  -27.1010 C   0  0  0  0  0  0  0  0  0  0  0  0
   -1.6010   19.0140  -27.0910 C   0  0  0  0  0  0  0  0  0  0  0  0
   -0.6480   19.1200  -28.1080 C   0  0  0  0  0  0  0  0  0  0  0  0
   -0.8230   20.0490  -29.1380 C   0  0  0  0  0  0  0  0  0  0  0  0
   -3.6890   21.9820  -32.2100 C   0  0  0  0  0  0  0  0  0  0  0  0
   -4.9970   21.2440  -32.0270 C   0  0  0  0  0  0  0  0  0  0  0  0
   -6.0590   21.7200  -31.2270 C   0  0  0  0  0  0  0  0  0  0  0  0
   -6.0620   22.9780  -30.3810 C   0  0  0  0  0  0  0  0  0  0  0  0
   -5.0040   22.9500  -29.2510 C   0  0  0  0  0  0  0  0  0  0  0  0
   -4.6550   24.3640  -28.7390 C   0  0  0  0  0  0  0  0  0  0  0  0
   -5.7410   25.3220  -28.9920 N   0  0  0  0  0  0  0  0  0  0  0  0
   -5.9800   25.5210  -30.4370 C   0  0  0  0  0  0  0  0  0  0  0  0
   -5.8720   24.2180  -31.2620 C   0  0  0  0  0  0  0  0  0  0  0  0
   -7.2900   20.5600  -31.2240 S   0  0  0  0  0  0  0  0  0  0  0  0
   -6.5280   19.4910  -32.2700 C   0  0  0  0  0  0  0  0  0  0  0  0
   -5.2950   19.9940  -32.6340 C   0  0  0  0  0  0  0  0  0  0  0  0
   -4.5160   19.2460  -33.5270 C   0  0  0  0  0  0  0  0  0  0  0  0
   -3.3950   19.6780  -33.9100 O   0  0  0  0  0  0  0  0  0  0  0  0
   -4.9920   18.0440  -33.9960 N   0  0  0  0  0  0  0  0  0  0  0  0
   -4.1930   17.2700  -34.9630 C   0  0  0  0  0  0  0  0  0  0  0  0
   -6.2430   17.5950  -33.6290 C   0  0  0  0  0  0  0  0  0  0  0  0
   -6.6950   16.5250  -34.1280 O   0  0  0  0  0  0  0  0  0  0  0  0
   -7.0080   18.3030  -32.7340 N   0  0  0  0  0  0  0  0  0  0  0  0
   -8.3490   17.8430  -32.3440 C   0  0  0  0  0  0  0  0  0  0  0  0
   -0.5227   20.8964  -31.9001 H   0  0  0  0  0  0  0  0  0  0  0  0
   -1.6304   20.1761  -33.1171 H   0  0  0  0  0  0  0  0  0  0  0  0
   -1.3250   21.9462  -33.1171 H   0  0  0  0  0  0  0  0  0  0  0  0
   -1.2117   22.4050  -30.4534 H   0  0  0  0  0  0  0  0  0  0  0  0
   -2.9712   22.5484  -29.9775 H   0  0  0  0  0  0  0  0  0  0  0  0
   -3.7931   21.4194  -28.1313 H   0  0  0  0  0  0  0  0  0  0  0  0
   -3.4747   19.7575  -26.2983 H   0  0  0  0  0  0  0  0  0  0  0  0
   -1.4637   18.2805  -26.2828 H   0  0  0  0  0  0  0  0  0  0  0  0
    0.2406   18.4718  -28.0979 H   0  0  0  0  0  0  0  0  0  0  0  0
   -0.0681   20.1325  -29.9337 H   0  0  0  0  0  0  0  0  0  0  0  0
   -3.7729   22.9816  -31.7586 H   0  0  0  0  0  0  0  0  0  0  0  0
   -3.4785   22.0639  -33.2866 H   0  0  0  0  0  0  0  0  0  0  0  0
   -7.0458   23.0254  -29.8912 H   0  0  0  0  0  0  0  0  0  0  0  0
   -5.3981   22.3575  -28.4122 H   0  0  0  0  0  0  0  0  0  0  0  0
   -4.0856   22.5048  -29.6613 H   0  0  0  0  0  0  0  0  0  0  0  0
   -4.4697   24.3144  -27.6559 H   0  0  0  0  0  0  0  0  0  0  0  0
   -3.7615   24.7111  -29.2786 H   0  0  0  0  0  0  0  0  0  0  0  0
   -5.4840   26.2410  -28.5650 H   0  0  0  0  0  0  0  0  0  0  0  0
   -6.6180   24.9900  -28.5270 H   0  0  0  0  0  0  0  0  0  0  0  0
   -6.9905   25.9350  -30.5696 H   0  0  0  0  0  0  0  0  0  0  0  0
   -5.1997   26.2037  -30.8044 H   0  0  0  0  0  0  0  0  0  0  0  0
   -6.6469   24.2240  -32.0427 H   0  0  0  0  0  0  0  0  0  0  0  0
   -4.8674   24.1740  -31.7078 H   0  0  0  0  0  0  0  0  0  0  0  0
   -3.5055   16.6041  -34.4208 H   0  0  0  0  0  0  0  0  0  0  0  0
   -4.8635   16.6691  -35.5949 H   0  0  0  0  0  0  0  0  0  0  0  0
   -3.6137   17.9593  -35.5949 H   0  0  0  0  0  0  0  0  0  0  0  0
   -8.4232   17.8175  -31.2468 H   0  0  0  0  0  0  0  0  0  0  0  0
   -9.1049   18.5332  -32.7467 H   0  0  0  0  0  0  0  0  0  0  0  0
   -8.5221   16.8341  -32.7467 H   0  0  0  0  0  0  0  0  0  0  0  0
  1  2  1  0
  2  3  1  0
  3  4  1  0
  4  5  2  0
  5  6  1  0
  6  7  2  0
  7  8  1  0
  8  9  2  0
  2 10  1  0
 10 11  1  0
 11 12  2  0
 12 13  1  0
 13 14  1  0
 14 15  1  0
 15 16  1  0
 16 17  1  0
 17 18  1  0
 12 19  1  0
 19 20  1  0
 20 21  2  0
 21 22  1  0
 22 23  2  0
 22 24  1  0
 24 25  1  0
 24 26  1  0
 26 27  2  0
 26 28  1  0
 28 29  1  0
  9  4  1  0
 21 11  1  0
 18 13  1  0
 28 20  1  0
  1 30  1  0
  1 31  1  0
  1 32  1  0
  3 33  1  0
  3 34  1  0
  5 35  1  0
  6 36  1  0
  7 37  1  0
  8 38  1  0
  9 39  1  0
 10 40  1  0
 10 41  1  0
 13 42  1  0
 14 43  1  0
 14 44  1  0
 15 45  1  0
 15 46  1  0
 16 47  1  0
 16 48  1  0
 17 49  1  0
 17 50  1  0
 18 51  1  0
 18 52  1  0
 25 53  1  0
 25 54  1  0
 25 55  1  0
 29 56  1  0
 29 57  1  0
 29 58  1  0
M  CHG  1  16   1
M  END
>  <UniqueID>  (2) 
2

>  <SMILES>  (2) 
CN(Cc1ccccc1)Cc1c(C2CC[NH2+]CC2)sc2c1c(=O)n(C)c(=O)n2C

>  <Energy>  (2) 
108.02016273453296

>  <Genealogy>  (2) 
CN(Cc1ccccc1)Cc1c(C2CC[NH2+]CC2)sc2c1c(=O)n(C)c(=O)n2C (protonated)
CN(Cc1ccccc1)Cc1c(C2CC[NH2+]CC2)sc2c1c(=O)n(C)c(=O)n2C (3D coordinates assigned)
CN(Cc1ccccc1)Cc1c(C2CC[NH2+]CC2)sc2c1c(=O)n(C)c(=O)n2C (nonaromatic ring conformer: 108.02016273453296 kcal/mol)

>  <smiles>  (2) 
CN(Cc1ccccc1)Cc1c(C2CCNCC2)sc2c1c(=O)n(C)c(=O)n2C

>  <score_type>  (2) 
oracle

>  <origin>  (2) 
adg

>  <m_score__min__energy>  (2) 
-8.4800000000000004

>  <m_primary>  (2) 
energy

$$$$
2:0
     RDKit          3D

 43 44  0  0  0  0  0  0  0  0999 V2000
   -8.7410   19.2590  -31.2440 C   0  0  0  0  0  0  0  0  0  0  0  0
   -8.3920   18.6170  -32.5870 C   0  0  0  0  0  0  0  0  0  0  0  0
   -7.5630   17.4030  -32.4220 N   0  0  0  0  0  0  0  0  0  0  0  0
   -6.6600   17.5380  -31.2670 C   0  0  0  0  0  0  0  0  0  0  0  0
   -6.8720   16.9290  -33.6490 C   0  0  0  0  0  0  0  0  0  0  0  0
   -5.8780   17.9240  -34.2830 C   0  0  0  0  0  0  0  0  0  0  0  0
   -5.6130   19.0540  -33.3930 N   0  0  0  0  0  0  0  0  0  0  0  0
   -4.3860   19.7990  -33.4250 C   0  0  0  0  0  0  0  0  0  0  0  0
   -3.4450   19.4280  -34.1760 O   0  0  0  0  0  0  0  0  0  0  0  0
   -4.2310   21.0180  -32.5970 C   0  0  0  0  0  0  0  0  0  0  0  0
   -3.0320   21.4150  -32.0090 C   0  0  0  0  0  0  0  0  0  0  0  0
   -3.3390   22.5380  -31.2760 C   0  0  0  0  0  0  0  0  0  0  0  0
   -2.5240   23.3310  -30.4700 C   0  0  0  0  0  0  0  0  0  0  0  0
   -3.1140   24.4300  -29.8010 C   0  0  0  0  0  0  0  0  0  0  0  0
   -2.3590   25.3080  -28.9530 N   0  0  0  0  0  0  0  0  0  0  0  0
   -1.2870   24.9350  -28.0820 C   0  0  0  0  0  0  0  0  0  0  0  0
   -0.1190   24.8450  -28.5370 O   0  0  0  0  0  0  0  0  0  0  0  0
   -4.4940   24.6870  -29.9700 C   0  0  0  0  0  0  0  0  0  0  0  0
   -5.2900   23.8660  -30.7860 C   0  0  0  0  0  0  0  0  0  0  0  0
   -4.6770   22.7900  -31.4370 C   0  0  0  0  0  0  0  0  0  0  0  0
   -5.2360   21.8730  -32.2570 N   0  0  0  0  0  0  0  0  0  0  0  0
   -6.6420   21.7940  -32.6650 C   0  0  0  0  0  0  0  0  0  0  0  0
   -8.3896   18.6126  -30.4263 H   0  0  0  0  0  0  0  0  0  0  0  0
   -8.2532   20.2421  -31.1698 H   0  0  0  0  0  0  0  0  0  0  0  0
   -9.8313   19.3842  -31.1698 H   0  0  0  0  0  0  0  0  0  0  0  0
   -9.3242   18.3431  -33.1026 H   0  0  0  0  0  0  0  0  0  0  0  0
   -7.8133   19.3467  -33.1723 H   0  0  0  0  0  0  0  0  0  0  0  0
   -7.2398   17.4513  -30.3362 H   0  0  0  0  0  0  0  0  0  0  0  0
   -5.9000   16.7435  -31.3009 H   0  0  0  0  0  0  0  0  0  0  0  0
   -6.1656   18.5200  -31.3009 H   0  0  0  0  0  0  0  0  0  0  0  0
   -6.3175   16.0142  -33.3927 H   0  0  0  0  0  0  0  0  0  0  0  0
   -7.6625   16.7759  -34.3984 H   0  0  0  0  0  0  0  0  0  0  0  0
   -4.9321   17.4020  -34.4900 H   0  0  0  0  0  0  0  0  0  0  0  0
   -6.3214   18.3117  -35.2120 H   0  0  0  0  0  0  0  0  0  0  0  0
   -6.3100   19.2530  -32.6420 H   0  0  0  0  0  0  0  0  0  0  0  0
   -2.0484   20.9328  -32.1095 H   0  0  0  0  0  0  0  0  0  0  0  0
   -1.4526   23.1090  -30.3570 H   0  0  0  0  0  0  0  0  0  0  0  0
   -1.4841   24.7281  -27.0198 H   0  0  0  0  0  0  0  0  0  0  0  0
   -4.9519   25.5438  -29.4541 H   0  0  0  0  0  0  0  0  0  0  0  0
   -6.3650   24.0636  -30.9096 H   0  0  0  0  0  0  0  0  0  0  0  0
   -7.2818   21.7581  -31.7709 H   0  0  0  0  0  0  0  0  0  0  0  0
   -6.8999   22.6791  -33.2651 H   0  0  0  0  0  0  0  0  0  0  0  0
   -6.7992   20.8856  -33.2651 H   0  0  0  0  0  0  0  0  0  0  0  0
  1  2  1  0
  2  3  1  0
  3  4  1  0
  3  5  1  0
  5  6  1  0
  6  7  1  0
  7  8  1  0
  8  9  2  0
  8 10  1  0
 10 11  2  0
 11 12  1  0
 12 13  2  0
 13 14  1  0
 14 15  1  0
 15 16  1  0
 16 17  2  0
 14 18  2  0
 18 19  1  0
 19 20  2  0
 20 21  1  0
 21 22  1  0
 21 10  1  0
 20 12  1  0
  1 23  1  0
  1 24  1  0
  1 25  1  0
  2 26  1  0
  2 27  1  0
  4 28  1  0
  4 29  1  0
  4 30  1  0
  5 31  1  0
  5 32  1  0
  6 33  1  0
  6 34  1  0
  7 35  1  0
 11 36  1  0
 13 37  1  0
 16 38  1  0
 18 39  1  0
 19 40  1  0
 22 41  1  0
 22 42  1  0
 22 43  1  0
M  CHG  1  15  -1
M  END
>  <UniqueID>  (3) 
3

>  <SMILES>  (3) 
CCN(C)CCNC(=O)c1cc2cc([N-]C=O)ccc2n1C

>  <Energy>  (3) 
79.98503778728015

>  <Genealogy>  (3) 
CCN(C)CCNC(=O)c1cc2cc([N-]C=O)ccc2n1C (protonated)
CCN(C)CCNC(=O)c1cc2cc([N-]C=O)ccc2n1C (3D coordinates assigned)
CCN(C)CCNC(=O)c1cc2cc([N-]C=O)ccc2n1C (optimized conformer: 79.98503778728015 kcal/mol)

>  <smiles>  (3) 
CCN(C)CCNC(=O)c1cc2cc(NC=O)ccc2n1C

>  <score_type>  (3) 
oracle

>  <origin>  (3) 
adg

>  <m_score__min__energy>  (3) 
-8.9199999999999999

>  <m_primary>  (3) 
energy

$$$$
3:0
     RDKit          3D

 37 38  0  0  0  0  0  0  0  0999 V2000
   -6.1250   25.6690  -29.3340 C   0  0  0  0  0  0  0  0  0  0  0  0
   -5.7130   24.6460  -30.3500 C   0  0  0  0  0  0  0  0  0  0  0  0
   -6.5590   24.3350  -31.4220 C   0  0  0  0  0  0  0  0  0  0  0  0
   -6.1950   23.3580  -32.3490 C   0  0  0  0  0  0  0  0  0  0  0  0
   -4.9770   22.6600  -32.2200 C   0  0  0  0  0  0  0  0  0  0  0  0
   -4.5990   21.6390  -33.1670 N   0  0  0  0  0  0  0  0  0  0  0  0
   -4.6910   20.1990  -32.9140 C   0  0  0  0  0  0  0  0  0  0  0  0
   -5.7120   19.5490  -33.8750 C   0  0  0  0  0  0  0  0  0  0  0  0
   -7.0830   19.3950  -33.3250 N   0  0  0  0  0  0  0  0  0  0  0  0
   -7.2270   18.1860  -32.4800 C   0  0  0  0  0  0  0  0  0  0  0  0
   -8.5480   18.2130  -31.6820 C   0  0  0  0  0  0  0  0  0  0  0  0
   -9.4880   19.0690  -32.2980 O   0  0  0  0  0  0  0  0  0  0  0  0
   -9.0520   20.4160  -32.2100 C   0  0  0  0  0  0  0  0  0  0  0  0
   -7.5710   20.5970  -32.6180 C   0  0  0  0  0  0  0  0  0  0  0  0
   -4.1370   22.9620  -31.1240 C   0  0  0  0  0  0  0  0  0  0  0  0
   -2.4500   22.0870  -30.8600 Br  0  0  0  0  0  0  0  0  0  0  0  0
   -4.5100   23.9440  -30.1990 C   0  0  0  0  0  0  0  0  0  0  0  0
   -5.9632   25.2673  -28.3228 H   0  0  0  0  0  0  0  0  0  0  0  0
   -5.5239   26.5806  -29.4669 H   0  0  0  0  0  0  0  0  0  0  0  0
   -7.1901   25.9095  -29.4669 H   0  0  0  0  0  0  0  0  0  0  0  0
   -7.5167   24.8645  -31.5338 H   0  0  0  0  0  0  0  0  0  0  0  0
   -6.8661   23.1297  -33.1902 H   0  0  0  0  0  0  0  0  0  0  0  0
   -4.2430   21.9230  -34.1070 H   0  0  0  0  0  0  0  0  0  0  0  0
   -3.7036   19.7397  -33.0690 H   0  0  0  0  0  0  0  0  0  0  0  0
   -5.0231   20.0386  -31.8777 H   0  0  0  0  0  0  0  0  0  0  0  0
   -5.7751   20.1731  -34.7786 H   0  0  0  0  0  0  0  0  0  0  0  0
   -5.3439   18.5312  -34.0715 H   0  0  0  0  0  0  0  0  0  0  0  0
   -7.7070   19.2560  -34.1580 H   0  0  0  0  0  0  0  0  0  0  0  0
   -7.2162   17.2949  -33.1248 H   0  0  0  0  0  0  0  0  0  0  0  0
   -6.3907   18.1601  -31.7659 H   0  0  0  0  0  0  0  0  0  0  0  0
   -8.9627   17.1952  -31.6362 H   0  0  0  0  0  0  0  0  0  0  0  0
   -8.3406   18.5875  -30.6687 H   0  0  0  0  0  0  0  0  0  0  0  0
   -9.6768   21.0313  -32.8741 H   0  0  0  0  0  0  0  0  0  0  0  0
   -9.1449   20.7251  -31.1584 H   0  0  0  0  0  0  0  0  0  0  0  0
   -7.4816   21.4696  -33.2817 H   0  0  0  0  0  0  0  0  0  0  0  0
   -6.9664   20.7491  -31.7118 H   0  0  0  0  0  0  0  0  0  0  0  0
   -3.8526   24.1666  -29.3456 H   0  0  0  0  0  0  0  0  0  0  0  0
  1  2  1  0
  2  3  2  0
  3  4  1  0
  4  5  2  0
  5  6  1  0
  6  7  1  0
  7  8  1  0
  8  9  1  0
  9 10  1  0
 10 11  1  0
 11 12  1  0
 12 13  1  0
 13 14  1  0
  5 15  1  0
 15 16  1  0
 15 17  2  0
 17  2  1  0
 14  9  1  0
  1 18  1  0
  1 19  1  0
  1 20  1  0
  3 21  1  0
  4 22  1  0
  6 23  1  0
  7 24  1  0
  7 25  1  0
  8 26  1  0
  8 27  1  0
  9 28  1  0
 10 29  1  0
 10 30  1  0
 11 31  1  0
 11 32  1  0
 13 33  1  0
 13 34  1  0
 14 35  1  0
 14 36  1  0
 17 37  1  0
M  CHG  1   9   1
M  END
>  <UniqueID>  (4) 
4

>  <SMILES>  (4) 
Cc1ccc(NCC[NH+]2CCOCC2)c(Br)c1

>  <Energy>  (4) 
49.04262476606759

>  <Genealogy>  (4) 
Cc1ccc(NCC[NH+]2CCOCC2)c(Br)c1 (protonated)
Cc1ccc(NCC[NH+]2CCOCC2)c(Br)c1 (3D coordinates assigned)
Cc1ccc(NCC[NH+]2CCOCC2)c(Br)c1 (nonaromatic ring conformer: 49.04262476606759 kcal/mol)

>  <smiles>  (4) 
Cc1ccc(NCCN2CCOCC2)c(Br)c1

>  <score_type>  (4) 
oracle

>  <origin>  (4) 
adg

>  <m_score__min__energy>  (4) 
-6.4299999999999997

>  <m_primary>  (4) 
energy

$$$$
4:0
     RDKit          3D

 41 42  0  0  0  0  0  0  0  0999 V2000
   -3.8800   22.4110  -28.2400 C   0  0  0  0  0  0  0  0  0  0  0  0
   -4.7320   22.7090  -29.4810 C   0  0  0  0  0  0  0  0  0  0  0  0
   -4.4260   24.0070  -30.1230 N   0  0  0  0  0  0  0  0  0  0  0  0
   -3.1050   24.5290  -29.7240 C   0  0  0  0  0  0  0  0  0  0  0  0
   -5.5020   25.0050  -29.9330 C   0  0  0  0  0  0  0  0  0  0  0  0
   -6.8700   24.4210  -30.3100 C   0  0  0  0  0  0  0  0  0  0  0  0
   -6.7830   23.6690  -31.5750 N   0  0  0  0  0  0  0  0  0  0  0  0
   -7.3200   22.2950  -31.4540 C   0  0  1  0  0  0  0  0  0  0  0  0
   -8.7840   22.2010  -31.9620 C   0  0  0  0  0  0  0  0  0  0  0  0
   -9.2440   20.7650  -32.3210 C   0  0  0  0  0  0  0  0  0  0  0  0
   -8.3260   19.7270  -31.8250 N   0  0  0  0  0  0  0  0  0  0  0  0
   -6.9940   19.9730  -32.3260 C   0  0  0  0  0  0  0  0  0  0  0  0
   -6.2150   18.9560  -32.9270 C   0  0  0  0  0  0  0  0  0  0  0  0
   -6.8220   17.1420  -33.0930 Br  0  0  0  0  0  0  0  0  0  0  0  0
   -4.9440   19.2580  -33.4240 C   0  0  0  0  0  0  0  0  0  0  0  0
   -4.4350   20.5510  -33.3260 C   0  0  0  0  0  0  0  0  0  0  0  0
   -5.1820   21.5570  -32.7130 C   0  0  0  0  0  0  0  0  0  0  0  0
   -6.4630   21.2750  -32.1960 C   0  0  0  0  0  0  0  0  0  0  0  0
   -4.4681   22.6167  -27.3335 H   0  0  0  0  0  0  0  0  0  0  0  0
   -3.5771   21.3536  -28.2485 H   0  0  0  0  0  0  0  0  0  0  0  0
   -2.9841   23.0491  -28.2485 H   0  0  0  0  0  0  0  0  0  0  0  0
   -4.5618   21.9100  -30.2176 H   0  0  0  0  0  0  0  0  0  0  0  0
   -5.7782   22.7587  -29.1447 H   0  0  0  0  0  0  0  0  0  0  0  0
   -3.0375   24.5557  -28.6264 H   0  0  0  0  0  0  0  0  0  0  0  0
   -2.3162   23.8750  -30.1241 H   0  0  0  0  0  0  0  0  0  0  0  0
   -2.9763   25.5456  -30.1241 H   0  0  0  0  0  0  0  0  0  0  0  0
   -5.5222   25.3150  -28.8778 H   0  0  0  0  0  0  0  0  0  0  0  0
   -5.2983   25.8669  -30.5854 H   0  0  0  0  0  0  0  0  0  0  0  0
   -7.2073   23.7452  -29.5103 H   0  0  0  0  0  0  0  0  0  0  0  0
   -7.5851   25.2471  -30.4373 H   0  0  0  0  0  0  0  0  0  0  0  0
   -5.7590   23.5780  -31.7730 H   0  0  0  0  0  0  0  0  0  0  0  0
   -7.2982   22.0566  -30.3804 H   0  0  0  0  0  0  0  0  0  0  0  0
   -9.4473   22.5884  -31.1747 H   0  0  0  0  0  0  0  0  0  0  0  0
   -8.8335   22.7888  -32.8905 H   0  0  0  0  0  0  0  0  0  0  0  0
  -10.2373   20.5944  -31.8802 H   0  0  0  0  0  0  0  0  0  0  0  0
   -9.2638   20.6901  -33.4183 H   0  0  0  0  0  0  0  0  0  0  0  0
   -8.6970   18.8020  -32.1380 H   0  0  0  0  0  0  0  0  0  0  0  0
   -8.3110   19.7370  -30.7790 H   0  0  0  0  0  0  0  0  0  0  0  0
   -4.3409   18.4685  -33.8962 H   0  0  0  0  0  0  0  0  0  0  0  0
   -3.4394   20.7798  -33.7339 H   0  0  0  0  0  0  0  0  0  0  0  0
   -4.7702   22.5738  -32.6327 H   0  0  0  0  0  0  0  0  0  0  0  0
  1  2  1  0
  2  3  1  0
  3  4  1  0
  3  5  1  0
  5  6  1  0
  6  7  1  0
  7  8  1  0
  8  9  1  0
  9 10  1  0
 10 11  1  0
 11 12  1  0
 12 13  2  0
 13 14  1  0
 13 15  1  0
 15 16  2  0
 16 17  1  0
 17 18  2  0
 18  8  1  0
 18 12  1  0
  1 19  1  0
  1 20  1  0
  1 21  1  0
  2 22  1  0
  2 23  1  0
  4 24  1  0
  4 25  1  0
  4 26  1  0
  5 27  1  0
  5 28  1  0
  6 29  1  0
  6 30  1  0
  7 31  1  0
  8 32  1  1
  9 33  1  0
  9 34  1  0
 10 35  1  0
 10 36  1  0
 11 37  1  0
 11 38  1  0
 15 39  1  0
 16 40  1  0
 17 41  1  0
M  CHG  1  11   1
M  END
>  <UniqueID>  (5) 
5

>  <SMILES>  (5) 
CCN(C)CCN[C@H]1CC[NH2+]c2c(Br)cccc21

>  <Energy>  (5) 
53.66131010362995

>  <Genealogy>  (5) 
CCN(C)CCNC1CC[NH2+]c2c(Br)cccc21 (protonated)
CCN(C)CCN[C@H]1CC[NH2+]c2c(Br)cccc21 (chirality)
CCN(C)CCN[C@H]1CC[NH2+]c2c(Br)cccc21 (3D coordinates assigned)
CCN(C)CCN[C@H]1CC[NH2+]c2c(Br)cccc21 (nonaromatic ring conformer: 53.66131010362995 kcal/mol)

>  <smiles>  (5) 
CCN(C)CCNC1CCNc2c(Br)cccc21

>  <score_type>  (5) 
oracle

>  <origin>  (5) 
adg

>  <m_score__min__energy>  (5) 
-6.7400000000000002

>  <m_primary>  (5) 
energy

$$$$
5:0
     RDKit          3D

 52 55  0  0  0  0  0  0  0  0999 V2000
   -1.4000   23.7770  -29.3170 C   0  0  0  0  0  0  0  0  0  0  0  0
   -2.8690   23.9690  -28.9600 C   0  0  0  0  0  0  0  0  0  0  0  0
   -3.4430   25.0750  -29.7440 N   0  0  0  0  0  0  0  0  0  0  0  0
   -4.9150   25.0450  -29.7840 C   0  0  0  0  0  0  0  0  0  0  0  0
   -5.4750   24.8060  -31.1970 C   0  0  0  0  0  0  0  0  0  0  0  0
   -5.4500   23.3870  -31.5390 N   0  0  0  0  0  0  0  0  0  0  0  0
   -4.3520   22.6770  -31.8910 C   0  0  0  0  0  0  0  0  0  0  0  0
   -4.7610   21.3790  -32.0990 C   0  0  0  0  0  0  0  0  0  0  0  0
   -4.0890   20.2230  -32.4890 C   0  0  0  0  0  0  0  0  0  0  0  0
   -2.6710   20.2180  -32.7090 N   0  0  0  0  0  0  0  0  0  0  0  0
   -1.7820   19.6100  -31.7130 C   0  0  0  0  0  0  0  0  0  0  0  0
   -0.7590   20.6380  -31.2070 C   0  0  0  0  0  0  0  0  0  0  0  0
   -0.1780   21.5380  -32.3240 C   0  0  0  0  0  0  0  0  0  0  0  0
   -0.5840   21.0850  -33.7420 C   0  0  2  0  0  0  0  0  0  0  0  0
   -0.0820   22.0110  -34.7590 N   0  0  0  0  0  0  0  0  0  0  0  0
   -2.1160   20.9700  -33.8430 C   0  0  0  0  0  0  0  0  0  0  0  0
   -4.8210   19.0760  -32.6530 N   0  0  0  0  0  0  0  0  0  0  0  0
   -6.1810   19.0350  -32.4320 C   0  0  0  0  0  0  0  0  0  0  0  0
   -6.9210   17.8440  -32.5990 C   0  0  0  0  0  0  0  0  0  0  0  0
   -6.1640   16.3360  -33.1020 Cl  0  0  0  0  0  0  0  0  0  0  0  0
   -8.3020   17.8410  -32.3650 C   0  0  0  0  0  0  0  0  0  0  0  0
   -8.9600   19.0070  -31.9670 C   0  0  0  0  0  0  0  0  0  0  0  0
   -8.2480   20.1950  -31.7950 C   0  0  0  0  0  0  0  0  0  0  0  0
   -6.8660   20.2160  -32.0240 C   0  0  0  0  0  0  0  0  0  0  0  0
   -6.1070   21.3750  -31.8720 C   0  0  0  0  0  0  0  0  0  0  0  0
   -6.5260   22.6060  -31.5230 N   0  0  0  0  0  0  0  0  0  0  0  0
   -0.8056   23.6993  -28.3947 H   0  0  0  0  0  0  0  0  0  0  0  0
   -1.2834   22.8560  -29.9070 H   0  0  0  0  0  0  0  0  0  0  0  0
   -1.0506   24.6371  -29.9070 H   0  0  0  0  0  0  0  0  0  0  0  0
   -3.4204   23.0431  -29.1804 H   0  0  0  0  0  0  0  0  0  0  0  0
   -2.9496   24.2086  -27.8894 H   0  0  0  0  0  0  0  0  0  0  0  0
   -3.1110   25.9860  -29.3530 H   0  0  0  0  0  0  0  0  0  0  0  0
   -5.2668   24.2364  -29.1265 H   0  0  0  0  0  0  0  0  0  0  0  0
   -5.2726   26.0307  -29.4516 H   0  0  0  0  0  0  0  0  0  0  0  0
   -6.5132   25.1672  -31.2379 H   0  0  0  0  0  0  0  0  0  0  0  0
   -4.8477   25.3504  -31.9182 H   0  0  0  0  0  0  0  0  0  0  0  0
   -3.3273   23.0641  -31.9917 H   0  0  0  0  0  0  0  0  0  0  0  0
   -2.3820   19.2485  -30.8648 H   0  0  0  0  0  0  0  0  0  0  0  0
   -1.2436   18.7724  -32.1805 H   0  0  0  0  0  0  0  0  0  0  0  0
   -1.2519   21.2816  -30.4634 H   0  0  0  0  0  0  0  0  0  0  0  0
    0.0819   20.0718  -30.7799 H   0  0  0  0  0  0  0  0  0  0  0  0
   -0.5389   22.5654  -32.1684 H   0  0  0  0  0  0  0  0  0  0  0  0
    0.9181   21.4712  -32.2607 H   0  0  0  0  0  0  0  0  0  0  0  0
   -0.1332   20.0986  -33.9260 H   0  0  0  0  0  0  0  0  0  0  0  0
   -0.8920   22.5320  -35.1650 H   0  0  0  0  0  0  0  0  0  0  0  0
    0.3600   21.4680  -35.5370 H   0  0  0  0  0  0  0  0  0  0  0  0
   -2.5514   21.9801  -33.8506 H   0  0  0  0  0  0  0  0  0  0  0  0
   -2.3634   20.4326  -34.7703 H   0  0  0  0  0  0  0  0  0  0  0  0
   -4.3070   18.2140  -32.9420 H   0  0  0  0  0  0  0  0  0  0  0  0
   -8.8743   16.9108  -32.4960 H   0  0  0  0  0  0  0  0  0  0  0  0
  -10.0452   18.9888  -31.7882 H   0  0  0  0  0  0  0  0  0  0  0  0
   -8.7698   21.1110  -31.4809 H   0  0  0  0  0  0  0  0  0  0  0  0
  1  2  1  0
  2  3  1  0
  3  4  1  0
  4  5  1  0
  5  6  1  0
  6  7  1  0
  7  8  2  0
  8  9  1  0
  9 10  1  0
 10 11  1  0
 11 12  1  0
 12 13  1  0
 13 14  1  0
 14 15  1  0
 14 16  1  0
  9 17  2  0
 17 18  1  0
 18 19  2  0
 19 20  1  0
 19 21  1  0
 21 22  2  0
 22 23  1  0
 23 24  2  0
 24 25  1  0
 25 26  2  0
 26  6  1  0
 25  8  1  0
 16 10  1  0
 24 18  1  0
  1 27  1  0
  1 28  1  0
  1 29  1  0
  2 30  1  0
  2 31  1  0
  3 32  1  0
  4 33  1  0
  4 34  1  0
  5 35  1  0
  5 36  1  0
  7 37  1  0
 11 38  1  0
 11 39  1  0
 12 40  1  0
 12 41  1  0
 13 42  1  0
 13 43  1  0
 14 44  1  6
 15 45  1  0
 15 46  1  0
 16 47  1  0
 16 48  1  0
 17 49  1  0
 21 50  1  0
 22 51  1  0
 23 52  1  0
M  CHG  1  17   1
M  END
>  <UniqueID>  (6) 
6

>  <SMILES>  (6) 
CCNCCn1cc2c(N3CCC[C@H](N)C3)[nH+]c3c(Cl)cccc3c2n1

>  <Energy>  (6) 
99.73844675898093

>  <Genealogy>  (6) 
CCNCCn1cc2c(N3CCCC(N)C3)[nH+]c3c(Cl)cccc3c2n1 (protonated)
CCNCCn1cc2c(N3CCC[C@H](N)C3)[nH+]c3c(Cl)cccc3c2n1 (chirality)
CCNCCn1cc2c(N3CCC[C@H](N)C3)[nH+]c3c(Cl)cccc3c2n1 (3D coordinates assigned)
CCNCCn1cc2c(N3CCC[C@H](N)C3)[nH+]c3c(Cl)cccc3c2n1 (nonaromatic ring conformer: 99.73844675898093 kcal/mol)

>  <smiles>  (6) 
CCNCCn1cc2c(N3CCCC(N)C3)nc3c(Cl)cccc3c2n1

>  <score_type>  (6) 
oracle

>  <origin>  (6) 
adg

>  <m_score__min__energy>  (6) 
-8.1799999999999997

>  <m_primary>  (6) 
energy

$$$$
6:0
     RDKit          3D

 44 45  0  0  0  0  0  0  0  0999 V2000
   -3.8750   23.5130  -28.4210 C   0  0  0  0  0  0  0  0  0  0  0  0
   -2.9800   24.3610  -29.3180 C   0  0  0  0  0  0  0  0  0  0  0  0
   -3.7410   24.8410  -30.4790 N   0  0  0  0  0  0  0  0  0  0  0  0
   -5.1110   25.2260  -30.1030 C   0  0  0  0  0  0  0  0  0  0  0  0
   -6.1050   24.9060  -31.2240 C   0  0  0  0  0  0  0  0  0  0  0  0
   -5.7410   23.6530  -31.8980 N   0  0  0  0  0  0  0  0  0  0  0  0
   -6.1200   22.4810  -31.0940 C   0  0  0  0  0  0  0  0  0  0  0  0
   -5.6760   21.2230  -31.8030 C   0  0  0  0  0  0  0  0  0  0  0  0
   -6.6230   20.2190  -32.0670 C   0  0  0  0  0  0  0  0  0  0  0  0
   -6.2610   19.0580  -32.7640 C   0  0  0  0  0  0  0  0  0  0  0  0
   -7.2130   18.0630  -33.0420 C   0  0  0  0  0  0  0  0  0  0  0  0
   -6.8400   16.9140  -33.7490 C   0  0  0  0  0  0  0  0  0  0  0  0
   -5.5260   16.7570  -34.1910 C   0  0  0  0  0  0  0  0  0  0  0  0
   -4.5710   17.7420  -33.9220 C   0  0  0  0  0  0  0  0  0  0  0  0
   -4.9280   18.8970  -33.2050 C   0  0  0  0  0  0  0  0  0  0  0  0
   -3.9790   19.8920  -32.9370 C   0  0  0  0  0  0  0  0  0  0  0  0
   -4.3410   21.0630  -32.2360 C   0  0  0  0  0  0  0  0  0  0  0  0
   -3.4120   22.0920  -32.0120 O   0  0  0  0  0  0  0  0  0  0  0  0
   -2.0310   21.8860  -31.7120 C   0  0  0  0  0  0  0  0  0  0  0  0
   -1.2880   21.4880  -32.9800 C   0  0  0  0  0  0  0  0  0  0  0  0
   -3.6473   23.7287  -27.3667 H   0  0  0  0  0  0  0  0  0  0  0  0
   -4.9294   23.7512  -28.6246 H   0  0  0  0  0  0  0  0  0  0  0  0
   -3.6939   22.4473  -28.6246 H   0  0  0  0  0  0  0  0  0  0  0  0
   -2.6044   25.2230  -28.7472 H   0  0  0  0  0  0  0  0  0  0  0  0
   -2.1361   23.7484  -29.6681 H   0  0  0  0  0  0  0  0  0  0  0  0
   -3.8210   24.0390  -31.1500 H   0  0  0  0  0  0  0  0  0  0  0  0
   -5.4026   24.6746  -29.1970 H   0  0  0  0  0  0  0  0  0  0  0  0
   -5.1298   26.3106  -29.9205 H   0  0  0  0  0  0  0  0  0  0  0  0
   -7.1130   24.8058  -30.7952 H   0  0  0  0  0  0  0  0  0  0  0  0
   -6.0831   25.7230  -31.9602 H   0  0  0  0  0  0  0  0  0  0  0  0
   -4.7000   23.6500  -32.0210 H   0  0  0  0  0  0  0  0  0  0  0  0
   -5.6337   22.5385  -30.1090 H   0  0  0  0  0  0  0  0  0  0  0  0
   -7.2119   22.4630  -30.9616 H   0  0  0  0  0  0  0  0  0  0  0  0
   -7.6601   20.3456  -31.7228 H   0  0  0  0  0  0  0  0  0  0  0  0
   -8.2523   18.1870  -32.7038 H   0  0  0  0  0  0  0  0  0  0  0  0
   -7.5854   16.1322  -33.9568 H   0  0  0  0  0  0  0  0  0  0  0  0
   -5.2405   15.8554  -34.7529 H   0  0  0  0  0  0  0  0  0  0  0  0
   -3.5365   17.6126  -34.2728 H   0  0  0  0  0  0  0  0  0  0  0  0
   -2.9410   19.7597  -33.2762 H   0  0  0  0  0  0  0  0  0  0  0  0
   -1.6005   22.8157  -31.3117 H   0  0  0  0  0  0  0  0  0  0  0  0
   -1.9346   21.0846  -30.9647 H   0  0  0  0  0  0  0  0  0  0  0  0
   -0.3477   20.9843  -32.7112 H   0  0  0  0  0  0  0  0  0  0  0  0
   -1.9138   20.8044  -33.5724 H   0  0  0  0  0  0  0  0  0  0  0  0
   -1.0656   22.3878  -33.5724 H   0  0  0  0  0  0  0  0  0  0  0  0
  1  2  1  0
  2  3  1  0
  3  4  1  0
  4  5  1  0
  5  6  1  0
  6  7  1  0
  7  8  1  0
  8  9  2  0
  9 10  1  0
 10 11  2  0
 11 12  1  0
 12 13  2  0
 13 14  1  0
 14 15  2  0
 15 16  1  0
 16 17  2  0
 17 18  1  0
 18 19  1  0
 19 20  1  0
 17  8  1  0
 15 10  1  0
  1 21  1  0
  1 22  1  0
  1 23  1  0
  2 24  1  0
  2 25  1  0
  3 26  1  0
  4 27  1  0
  4 28  1  0
  5 29  1  0
  5 30  1  0
  6 31  1  0
  7 32  1  0
  7 33  1  0
  9 34  1  0
 11 35  1  0
 12 36  1  0
 13 37  1  0
 14 38  1  0
 16 39  1  0
 19 40  1  0
 19 41  1  0
 20 42  1  0
 20 43  1  0
 20 44  1  0
M  END
>  <UniqueID>  (7) 
7

>  <SMILES>  (7) 
CCNCCNCc1cc2ccccc2cc1OCC

>  <Energy>  (7) 
42.0520119430838

>  <Genealogy>  (7) 
CCNCCNCc1cc2ccccc2cc1OCC (3D coordinates assigned)
CCNCCNCc1cc2ccccc2cc1OCC (optimized conformer: 42.0520119430838 kcal/mol)

>  <smiles>  (7) 
CCNCCNCc1cc2ccccc2cc1OCC

>  <score_type>  (7) 
oracle

>  <origin>  (7) 
adg

>  <m_score__min__energy>  (7) 
-7.3700000000000001

>  <m_primary>  (7) 
energy

$$$$
7:0
     RDKit          3D

 66 69  0  0  0  0  0  0  0  0999 V2000
   -6.1280   25.4920  -30.0830 C   0  0  0  0  0  0  0  0  0  0  0  0
   -6.8470   24.1400  -30.0830 C   0  0  0  0  0  0  0  0  0  0  0  0
   -5.9990   23.0440  -29.4300 C   0  0  0  0  0  0  0  0  0  0  0  0
   -7.2500   23.7580  -31.4370 N   0  0  0  0  0  0  0  0  0  0  0  0
   -8.3420   22.8940  -31.7840 C   0  0  0  0  0  0  0  0  0  0  0  0
   -9.3380   23.3340  -32.4180 O   0  0  0  0  0  0  0  0  0  0  0  0
   -8.3060   21.4550  -31.3660 C   0  0  0  0  0  0  0  0  0  0  0  0
   -8.4990   20.5070  -32.5630 C   0  0  2  0  0  0  0  0  0  0  0  0
   -9.4850   19.3780  -32.2660 C   0  0  0  0  0  0  0  0  0  0  0  0
   -8.5970   18.2180  -31.9470 C   0  0  0  0  0  0  0  0  0  0  0  0
   -7.3280   18.5510  -32.7210 C   0  0  2  0  0  0  0  0  0  0  0  0
   -6.0500   18.0310  -32.0470 C   0  0  0  0  0  0  0  0  0  0  0  0
   -5.5800   16.7970  -32.6960 N   0  0  0  0  0  0  0  0  0  0  0  0
   -5.4150   16.9410  -34.1520 C   0  0  0  0  0  0  0  0  0  0  0  0
   -5.0870   18.3850  -34.5860 C   0  0  0  0  0  0  0  0  0  0  0  0
   -3.8070   18.8390  -34.0390 N   0  0  0  0  0  0  0  0  0  0  0  0
   -3.6480   19.9700  -33.1610 C   0  0  0  0  0  0  0  0  0  0  0  0
   -4.2170   21.2250  -33.4540 C   0  0  0  0  0  0  0  0  0  0  0  0
   -4.0420   22.3050  -32.5840 C   0  0  0  0  0  0  0  0  0  0  0  0
   -3.2970   22.1510  -31.4040 C   0  0  0  0  0  0  0  0  0  0  0  0
   -3.0960   23.2100  -30.5010 C   0  0  0  0  0  0  0  0  0  0  0  0
   -3.6110   24.3410  -30.7220 O   0  0  0  0  0  0  0  0  0  0  0  0
   -2.3330   22.9920  -29.3370 C   0  0  0  0  0  0  0  0  0  0  0  0
   -2.0760   24.0740  -28.3530 C   0  0  0  0  0  0  0  0  0  0  0  0
   -2.9140   24.2290  -27.2340 C   0  0  0  0  0  0  0  0  0  0  0  0
   -2.6690   25.2440  -26.3040 C   0  0  0  0  0  0  0  0  0  0  0  0
   -1.5850   26.1080  -26.4770 C   0  0  0  0  0  0  0  0  0  0  0  0
   -1.3500   27.0920  -25.5740 F   0  0  0  0  0  0  0  0  0  0  0  0
   -0.7420   25.9570  -27.5810 C   0  0  0  0  0  0  0  0  0  0  0  0
   -0.9830   24.9440  -28.5140 C   0  0  0  0  0  0  0  0  0  0  0  0
   -1.8160   21.7050  -29.1170 C   0  0  0  0  0  0  0  0  0  0  0  0
   -2.0300   20.7240  -29.9860 O   0  0  0  0  0  0  0  0  0  0  0  0
   -2.7340   20.8930  -31.1010 C   0  0  0  0  0  0  0  0  0  0  0  0
   -2.9150   19.8160  -31.9740 C   0  0  0  0  0  0  0  0  0  0  0  0
   -7.2490   19.9470  -32.9060 O   0  0  0  0  0  0  0  0  0  0  0  0
   -5.9558   25.8157  -29.0459 H   0  0  0  0  0  0  0  0  0  0  0  0
   -5.1629   25.3940  -30.6015 H   0  0  0  0  0  0  0  0  0  0  0  0
   -6.7488   26.2374  -30.6015 H   0  0  0  0  0  0  0  0  0  0  0  0
   -7.7571   24.2539  -29.4757 H   0  0  0  0  0  0  0  0  0  0  0  0
   -6.0666   23.1313  -28.3356 H   0  0  0  0  0  0  0  0  0  0  0  0
   -6.3711   22.0572  -29.7428 H   0  0  0  0  0  0  0  0  0  0  0  0
   -4.9504   23.1565  -29.7428 H   0  0  0  0  0  0  0  0  0  0  0  0
   -7.3329   21.2443  -30.8983 H   0  0  0  0  0  0  0  0  0  0  0  0
   -9.1303   21.2839  -30.6580 H   0  0  0  0  0  0  0  0  0  0  0  0
   -8.9147   21.0979  -33.3925 H   0  0  0  0  0  0  0  0  0  0  0  0
  -10.1260   19.6306  -31.4085 H   0  0  0  0  0  0  0  0  0  0  0  0
  -10.1717   19.1764  -33.1014 H   0  0  0  0  0  0  0  0  0  0  0  0
   -8.3986   18.1546  -30.8669 H   0  0  0  0  0  0  0  0  0  0  0  0
   -9.0328   17.2449  -32.2176 H   0  0  0  0  0  0  0  0  0  0  0  0
   -7.3936   18.0367  -33.6911 H   0  0  0  0  0  0  0  0  0  0  0  0
   -5.2655   18.7985  -32.1214 H   0  0  0  0  0  0  0  0  0  0  0  0
   -6.2729   17.8110  -30.9925 H   0  0  0  0  0  0  0  0  0  0  0  0
   -6.2590   16.0220  -32.5070 H   0  0  0  0  0  0  0  0  0  0  0  0
   -4.5958   16.2832  -34.4779 H   0  0  0  0  0  0  0  0  0  0  0  0
   -6.3733   16.6689  -34.6184 H   0  0  0  0  0  0  0  0  0  0  0  0
   -5.0392   18.4247  -35.6842 H   0  0  0  0  0  0  0  0  0  0  0  0
   -5.8774   19.0460  -34.2009 H   0  0  0  0  0  0  0  0  0  0  0  0
   -2.9550   18.3000  -34.3120 H   0  0  0  0  0  0  0  0  0  0  0  0
   -4.8039   21.3561  -34.3751 H   0  0  0  0  0  0  0  0  0  0  0  0
   -4.4901   23.2802  -32.8250 H   0  0  0  0  0  0  0  0  0  0  0  0
   -3.7661   23.5485  -27.0898 H   0  0  0  0  0  0  0  0  0  0  0  0
   -3.3315   25.3625  -25.4339 H   0  0  0  0  0  0  0  0  0  0  0  0
    0.1126   26.6362  -27.7163 H   0  0  0  0  0  0  0  0  0  0  0  0
   -0.3137   24.8269  -29.3791 H   0  0  0  0  0  0  0  0  0  0  0  0
   -1.2247   21.5065  -28.2109 H   0  0  0  0  0  0  0  0  0  0  0  0
   -2.4780   18.8370  -31.7278 H   0  0  0  0  0  0  0  0  0  0  0  0
  1  2  1  0
  2  3  1  0
  2  4  1  0
  4  5  1  0
  5  6  2  0
  5  7  1  0
  7  8  1  0
  8  9  1  0
  9 10  1  0
 10 11  1  0
 11 12  1  0
 12 13  1  0
 13 14  1  0
 14 15  1  0
 15 16  1  0
 16 17  1  0
 17 18  2  0
 18 19  1  0
 19 20  2  0
 20 21  1  0
 21 22  2  0
 21 23  1  0
 23 24  1  0
 24 25  2  0
 25 26  1  0
 26 27  2  0
 27 28  1  0
 27 29  1  0
 29 30  2  0
 23 31  2  0
 31 32  1  0
 32 33  1  0
 33 34  2  0
 11 35  1  0
 35  8  1  0
 34 17  1  0
 33 20  1  0
 30 24  1  0
  1 36  1  0
  1 37  1  0
  1 38  1  0
  2 39  1  0
  3 40  1  0
  3 41  1  0
  3 42  1  0
  7 43  1  0
  7 44  1  0
  8 45  1  6
  9 46  1  0
  9 47  1  0
 10 48  1  0
 10 49  1  0
 11 50  1  6
 12 51  1  0
 12 52  1  0
 13 53  1  0
 14 54  1  0
 14 55  1  0
 15 56  1  0
 15 57  1  0
 16 58  1  0
 18 59  1  0
 19 60  1  0
 25 61  1  0
 26 62  1  0
 29 63  1  0
 30 64  1  0
 31 65  1  0
 34 66  1  0
M  CHG  1   4  -1
M  END
>  <UniqueID>  (8) 
8

>  <SMILES>  (8) 
CC(C)[N-]C(=O)C[C@@H]1CC[C@H](CNCCNc2ccc3c(=O)c(-c4ccc(F)cc4)coc3c2)O1

>  <Energy>  (8) 
71.82444219744177

>  <Genealogy>  (8) 
CC(C)[N-]C(=O)CC1CCC(CNCCNc2ccc3c(=O)c(-c4ccc(F)cc4)coc3c2)O1 (protonated)
CC(C)[N-]C(=O)C[C@@H]1CC[C@H](CNCCNc2ccc3c(=O)c(-c4ccc(F)cc4)coc3c2)O1 (chirality)
CC(C)[N-]C(=O)C[C@@H]1CC[C@H](CNCCNc2ccc3c(=O)c(-c4ccc(F)cc4)coc3c2)O1 (3D coordinates assigned)
CC(C)[N-]C(=O)C[C@@H]1CC[C@H](CNCCNc2ccc3c(=O)c(-c4ccc(F)cc4)coc3c2)O1 (nonaromatic ring conformer: 71.82444219744177 kcal/mol)

>  <smiles>  (8) 
CC(C)NC(=O)CC1CCC(CNCCNc2ccc3c(=O)c(-c4ccc(F)cc4)coc3c2)O1

>  <score_type>  (8) 
oracle

>  <origin>  (8) 
adg

>  <m_score__min__energy>  (8) 
-11.44

>  <m_primary>  (8) 
energy

$$$$
8:0
     RDKit          3D

 56 56  0  0  0  0  0  0  0  0999 V2000
   -6.1030   17.0510  -31.9430 C   0  0  0  0  0  0  0  0  0  0  0  0
   -6.3730   18.5210  -31.5910 C   0  0  0  0  0  0  0  0  0  0  0  0
   -6.3520   19.4070  -32.7870 N   0  0  0  0  0  0  0  0  0  0  0  0
   -7.6840   20.0330  -33.0110 C   0  0  0  0  0  0  0  0  0  0  0  0
   -8.7440   19.6670  -31.9610 C   0  0  0  0  0  0  0  0  0  0  0  0
   -5.8330   18.6790  -33.9760 C   0  0  0  0  0  0  0  0  0  0  0  0
   -4.3030   18.7760  -34.1220 C   0  0  0  0  0  0  0  0  0  0  0  0
   -3.7500   19.4820  -33.0280 O   0  0  0  0  0  0  0  0  0  0  0  0
   -2.9840   20.5970  -33.4490 C   0  0  0  0  0  0  0  0  0  0  0  0
   -3.7300   21.8940  -33.1340 C   0  0  0  0  0  0  0  0  0  0  0  0
   -4.5900   21.7440  -32.0030 O   0  0  0  0  0  0  0  0  0  0  0  0
   -5.3620   22.7610  -31.4140 C   0  0  0  0  0  0  0  0  0  0  0  0
   -6.7710   22.7340  -31.4110 C   0  0  0  0  0  0  0  0  0  0  0  0
   -7.4970   23.7700  -30.8210 C   0  0  0  0  0  0  0  0  0  0  0  0
   -6.8310   24.8450  -30.2330 C   0  0  0  0  0  0  0  0  0  0  0  0
   -5.4350   24.8880  -30.2350 C   0  0  0  0  0  0  0  0  0  0  0  0
   -4.6910   23.8480  -30.8280 C   0  0  0  0  0  0  0  0  0  0  0  0
   -3.2890   23.8540  -30.8510 O   0  0  0  0  0  0  0  0  0  0  0  0
   -2.4650   22.9640  -30.1040 C   0  0  0  0  0  0  0  0  0  0  0  0
   -1.4540   23.7480  -29.2490 C   0  0  0  0  0  0  0  0  0  0  0  0
   -2.0200   24.8940  -28.5010 N   0  0  0  0  0  0  0  0  0  0  0  0
   -0.9970   25.7360  -27.8600 C   0  0  0  0  0  0  0  0  0  0  0  0
   -3.0730   24.5110  -27.5480 C   0  0  0  0  0  0  0  0  0  0  0  0
   -5.9956   16.4661  -31.0176 H   0  0  0  0  0  0  0  0  0  0  0  0
   -6.9434   16.6546  -32.5318 H   0  0  0  0  0  0  0  0  0  0  0  0
   -5.1766   16.9791  -32.5318 H   0  0  0  0  0  0  0  0  0  0  0  0
   -7.3622   18.5938  -31.1154 H   0  0  0  0  0  0  0  0  0  0  0  0
   -5.5730   18.8548  -30.9139 H   0  0  0  0  0  0  0  0  0  0  0  0
   -5.6920   20.1980  -32.5890 H   0  0  0  0  0  0  0  0  0  0  0  0
   -7.5559   21.1255  -33.0037 H   0  0  0  0  0  0  0  0  0  0  0  0
   -8.0520   19.6498  -33.9742 H   0  0  0  0  0  0  0  0  0  0  0  0
   -8.3270   19.8110  -30.9534 H   0  0  0  0  0  0  0  0  0  0  0  0
   -9.6251   20.3129  -32.0889 H   0  0  0  0  0  0  0  0  0  0  0  0
   -9.0389   18.6150  -32.0889 H   0  0  0  0  0  0  0  0  0  0  0  0
   -6.1097   17.6182  -33.8856 H   0  0  0  0  0  0  0  0  0  0  0  0
   -6.2782   19.1457  -34.8671 H   0  0  0  0  0  0  0  0  0  0  0  0
   -3.8763   17.7626  -34.1531 H   0  0  0  0  0  0  0  0  0  0  0  0
   -4.0653   19.3132  -35.0520 H   0  0  0  0  0  0  0  0  0  0  0  0
   -2.0184   20.5952  -32.9222 H   0  0  0  0  0  0  0  0  0  0  0  0
   -2.8175   20.5311  -34.5343 H   0  0  0  0  0  0  0  0  0  0  0  0
   -2.9962   22.6856  -32.9221 H   0  0  0  0  0  0  0  0  0  0  0  0
   -4.3490   22.1554  -34.0049 H   0  0  0  0  0  0  0  0  0  0  0  0
   -7.3022   21.8909  -31.8767 H   0  0  0  0  0  0  0  0  0  0  0  0
   -8.5965   23.7384  -30.8198 H   0  0  0  0  0  0  0  0  0  0  0  0
   -7.4054   25.6594  -29.7674 H   0  0  0  0  0  0  0  0  0  0  0  0
   -4.9133   25.7381  -29.7713 H   0  0  0  0  0  0  0  0  0  0  0  0
   -3.0986   22.3529  -29.4444 H   0  0  0  0  0  0  0  0  0  0  0  0
   -1.9123   22.3211  -30.8048 H   0  0  0  0  0  0  0  0  0  0  0  0
   -1.0104   23.0520  -28.5218 H   0  0  0  0  0  0  0  0  0  0  0  0
   -0.7218   24.1722  -29.9519 H   0  0  0  0  0  0  0  0  0  0  0  0
   -1.0909   25.6587  -26.7667 H   0  0  0  0  0  0  0  0  0  0  0  0
    0.0030   25.3958  -28.1671 H   0  0  0  0  0  0  0  0  0  0  0  0
   -1.1386   26.7827  -28.1671 H   0  0  0  0  0  0  0  0  0  0  0  0
   -2.7040   24.6452  -26.5204 H   0  0  0  0  0  0  0  0  0  0  0  0
   -3.9582   25.1447  -27.7054 H   0  0  0  0  0  0  0  0  0  0  0  0
   -3.3442   23.4566  -27.7054 H   0  0  0  0  0  0  0  0  0  0  0  0
  1  2  1  0
  2  3  1  0
  3  4  1  0
  4  5  1  0
  3  6  1  0
  6  7  1  0
  7  8  1  0
  8  9  1  0
  9 10  1  0
 10 11  1  0
 11 12  1  0
 12 13  2  0
 13 14  1  0
 14 15  2  0
 15 16  1  0
 16 17  2  0
 17 18  1  0
 18 19  1  0
 19 20  1  0
 20 21  1  0
 21 22  1  0
 21 23  1  0
 17 12  1  0
  1 24  1  0
  1 25  1  0
  1 26  1  0
  2 27  1  0
  2 28  1  0
  3 29  1  0
  4 30  1  0
  4 31  1  0
  5 32  1  0
  5 33  1  0
  5 34  1  0
  6 35  1  0
  6 36  1  0
  7 37  1  0
  7 38  1  0
  9 39  1  0
  9 40  1  0
 10 41  1  0
 10 42  1  0
 13 43  1  0
 14 44  1  0
 15 45  1  0
 16 46  1  0
 19 47  1  0
 19 48  1  0
 20 49  1  0
 20 50  1  0
 22 51  1  0
 22 52  1  0
 22 53  1  0
 23 54  1  0
 23 55  1  0
 23 56  1  0
M  CHG  1   3   1
M  END
>  <UniqueID>  (9) 
9

>  <SMILES>  (9) 
CC[NH+](CC)CCOCCOc1ccccc1OCCN(C)C

>  <Energy>  (9) 
58.738638127017076

>  <Genealogy>  (9) 
CC[NH+](CC)CCOCCOc1ccccc1OCCN(C)C (protonated)
CC[NH+](CC)CCOCCOc1ccccc1OCCN(C)C (3D coordinates assigned)
CC[NH+](CC)CCOCCOc1ccccc1OCCN(C)C (optimized conformer: 58.738638127017076 kcal/mol)

>  <smiles>  (9) 
CCN(CC)CCOCCOc1ccccc1OCCN(C)C

>  <score_type>  (9) 
oracle

>  <origin>  (9) 
adg

>  <m_score__min__energy>  (9) 
-6.1299999999999999

>  <m_primary>  (9) 
energy

$$$$
9:0
     RDKit          3D

 46 48  0  0  0  0  0  0  0  0999 V2000
   -5.4820   25.3040  -30.4010 C   0  0  0  0  0  0  0  0  0  0  0  0
   -4.9580   23.9930  -29.9800 N   0  0  0  0  0  0  0  0  0  0  0  0
   -4.5570   24.0620  -28.5630 C   0  0  0  0  0  0  0  0  0  0  0  0
   -3.8170   23.5980  -30.8340 C   0  0  0  0  0  0  0  0  0  0  0  0
   -3.8180   22.0790  -31.0640 C   0  0  0  0  0  0  0  0  0  0  0  0
   -3.3260   21.7070  -32.4710 C   0  0  0  0  0  0  0  0  0  0  0  0
   -4.4480   21.5510  -33.4010 N   0  0  0  0  0  0  0  0  0  0  0  0
   -5.6150   20.7740  -33.0730 C   0  0  0  0  0  0  0  0  0  0  0  0
   -6.7740   21.4010  -32.5790 C   0  0  0  0  0  0  0  0  0  0  0  0
   -6.7930   22.7880  -32.3140 C   0  0  0  0  0  0  0  0  0  0  0  0
   -7.9620   23.4190  -31.9010 C   0  0  0  0  0  0  0  0  0  0  0  0
   -9.1320   22.6850  -31.7470 C   0  0  0  0  0  0  0  0  0  0  0  0
   -9.1260   21.3070  -31.9540 C   0  0  0  0  0  0  0  0  0  0  0  0
   -7.9370   20.6250  -32.3230 C   0  0  0  0  0  0  0  0  0  0  0  0
   -7.8940   19.2480  -32.4370 N   0  0  0  0  0  0  0  0  0  0  0  0
   -9.0030   18.4270  -31.9010 C   0  0  0  0  0  0  0  0  0  0  0  0
   -6.7970   18.6340  -33.0130 C   0  0  0  0  0  0  0  0  0  0  0  0
   -6.8120   17.2590  -33.3680 C   0  0  0  0  0  0  0  0  0  0  0  0
   -5.6840   16.6380  -33.8990 C   0  0  0  0  0  0  0  0  0  0  0  0
   -4.5170   17.3650  -34.1040 C   0  0  0  0  0  0  0  0  0  0  0  0
   -3.4220   16.7550  -34.6210 F   0  0  0  0  0  0  0  0  0  0  0  0
   -4.4830   18.7250  -33.8100 C   0  0  0  0  0  0  0  0  0  0  0  0
   -5.6200   19.3820  -33.2890 C   0  0  0  0  0  0  0  0  0  0  0  0
   -5.7224   25.9055  -29.5119 H   0  0  0  0  0  0  0  0  0  0  0  0
   -4.7234   25.8260  -31.0027 H   0  0  0  0  0  0  0  0  0  0  0  0
   -6.3914   25.1593  -31.0027 H   0  0  0  0  0  0  0  0  0  0  0  0
   -5.4396   23.9101  -27.9243 H   0  0  0  0  0  0  0  0  0  0  0  0
   -3.8138   23.2785  -28.3537 H   0  0  0  0  0  0  0  0  0  0  0  0
   -4.1184   25.0488  -28.3537 H   0  0  0  0  0  0  0  0  0  0  0  0
   -3.8960   24.1111  -31.8038 H   0  0  0  0  0  0  0  0  0  0  0  0
   -2.8809   23.8811  -30.3305 H   0  0  0  0  0  0  0  0  0  0  0  0
   -3.1578   21.6074  -30.3212 H   0  0  0  0  0  0  0  0  0  0  0  0
   -4.8533   21.7217  -30.9618 H   0  0  0  0  0  0  0  0  0  0  0  0
   -2.6616   22.5019  -32.8406 H   0  0  0  0  0  0  0  0  0  0  0  0
   -2.7885   20.7492  -32.4100 H   0  0  0  0  0  0  0  0  0  0  0  0
   -4.4930   22.1980  -34.2210 H   0  0  0  0  0  0  0  0  0  0  0  0
   -5.8719   23.3768  -32.4357 H   0  0  0  0  0  0  0  0  0  0  0  0
   -7.9603   24.4998  -31.6962 H   0  0  0  0  0  0  0  0  0  0  0  0
  -10.0649   23.1929  -31.4611 H   0  0  0  0  0  0  0  0  0  0  0  0
  -10.0590   20.7378  -31.8293 H   0  0  0  0  0  0  0  0  0  0  0  0
   -8.9759   18.4471  -30.8015 H   0  0  0  0  0  0  0  0  0  0  0  0
   -9.9630   18.8338  -32.2516 H   0  0  0  0  0  0  0  0  0  0  0  0
   -8.8942   17.3901  -32.2516 H   0  0  0  0  0  0  0  0  0  0  0  0
   -7.7316   16.6735  -33.2209 H   0  0  0  0  0  0  0  0  0  0  0  0
   -5.7167   15.5692  -34.1569 H   0  0  0  0  0  0  0  0  0  0  0  0
   -3.5591   19.2956  -33.9855 H   0  0  0  0  0  0  0  0  0  0  0  0
  1  2  1  0
  2  3  1  0
  2  4  1  0
  4  5  1  0
  5  6  1  0
  6  7  1  0
  7  8  1  0
  8  9  2  0
  9 10  1  0
 10 11  2  0
 11 12  1  0
 12 13  2  0
 13 14  1  0
 14 15  2  0
 15 16  1  0
 15 17  1  0
 17 18  2  0
 18 19  1  0
 19 20  2  0
 20 21  1  0
 20 22  1  0
 22 23  2  0
 23  8  1  0
 14  9  1  0
 23 17  1  0
  1 24  1  0
  1 25  1  0
  1 26  1  0
  3 27  1  0
  3 28  1  0
  3 29  1  0
  4 30  1  0
  4 31  1  0
  5 32  1  0
  5 33  1  0
  6 34  1  0
  6 35  1  0
  7 36  1  0
 10 37  1  0
 11 38  1  0
 12 39  1  0
 13 40  1  0
 16 41  1  0
 16 42  1  0
 16 43  1  0
 18 44  1  0
 19 45  1  0
 22 46  1  0
M  CHG  1  15   1
M  END
>  <UniqueID>  (10) 
10

>  <SMILES>  (10) 
CN(C)CCCNc1c2ccccc2[n+](C)c2ccc(F)cc12

>  <Energy>  (10) 
70.3628029121205

>  <Genealogy>  (10) 
CN(C)CCCNc1c2ccccc2[n+](C)c2ccc(F)cc12 (3D coordinates assigned)
CN(C)CCCNc1c2ccccc2[n+](C)c2ccc(F)cc12 (optimized conformer: 70.3628029121205 kcal/mol)

>  <smiles>  (10) 
CN(C)CCCNc1c2ccccc2[n+](C)c2ccc(F)cc12

>  <score_type>  (10) 
oracle

>  <origin>  (10) 
adg

>  <m_score__min__energy>  (10) 
-8.3200000000000003

>  <m_primary>  (10) 
energy

$$$$
10:0
     RDKit          3D

 88 91  0  0  0  0  0  0  0  0999 V2000
   -0.0880   21.0960  -35.0310 C   0  0  0  0  0  0  0  0  0  0  0  0
   -0.7500   21.0910  -33.6550 C   0  0  0  0  0  0  0  0  0  0  0  0
   -1.3920   19.7800  -33.4040 N   0  0  0  0  0  0  0  0  0  0  0  0
   -1.0460   19.2510  -32.0640 C   0  0  0  0  0  0  0  0  0  0  0  0
    0.0150   20.1020  -31.3670 C   0  0  0  0  0  0  0  0  0  0  0  0
   -1.1990   18.8200  -34.5220 C   0  0  0  0  0  0  0  0  0  0  0  0
   -2.1830   17.6390  -34.5460 C   0  0  0  0  0  0  0  0  0  0  0  0
   -3.5160   18.1040  -34.6150 O   0  0  0  0  0  0  0  0  0  0  0  0
   -4.3410   17.3790  -33.7230 C   0  0  0  0  0  0  0  0  0  0  0  0
   -4.6320   18.2160  -32.4760 C   0  0  0  0  0  0  0  0  0  0  0  0
   -4.3340   19.6260  -32.7140 N   0  0  0  0  0  0  0  0  0  0  0  0
   -5.0680   20.6480  -32.0250 C   0  0  0  0  0  0  0  0  0  0  0  0
   -6.4700   20.6770  -32.0930 C   0  0  0  0  0  0  0  0  0  0  0  0
   -7.1780   19.6990  -32.8260 C   0  0  0  0  0  0  0  0  0  0  0  0
   -8.5620   19.7760  -32.9580 C   0  0  0  0  0  0  0  0  0  0  0  0
   -9.2610   20.8220  -32.3680 C   0  0  0  0  0  0  0  0  0  0  0  0
   -8.5860   21.7800  -31.6120 C   0  0  0  0  0  0  0  0  0  0  0  0
   -7.1810   21.7110  -31.4290 C   0  0  0  0  0  0  0  0  0  0  0  0
   -6.5020   22.6290  -30.6490 N   0  0  0  0  0  0  0  0  0  0  0  0
   -7.2540   23.5200  -29.7380 C   0  0  0  0  0  0  0  0  0  0  0  0
   -5.1210   22.6960  -30.7040 C   0  0  0  0  0  0  0  0  0  0  0  0
   -4.4040   23.7800  -30.1390 C   0  0  0  0  0  0  0  0  0  0  0  0
   -2.9980   23.8150  -30.1470 C   0  0  0  0  0  0  0  0  0  0  0  0
   -2.2620   24.8760  -29.5910 O   0  0  0  0  0  0  0  0  0  0  0  0
   -2.0170   25.0750  -28.1970 C   0  0  0  0  0  0  0  0  0  0  0  0
   -0.7210   24.3430  -27.7660 C   0  0  0  0  0  0  0  0  0  0  0  0
   -0.4850   24.2450  -26.2860 N   0  0  0  0  0  0  0  0  0  0  0  0
   -0.4220   22.8170  -25.8770 C   0  0  0  0  0  0  0  0  0  0  0  0
   -1.5850   24.9240  -25.5220 C   0  0  0  0  0  0  0  0  0  0  0  0
   -1.3060   26.4200  -25.2860 C   0  0  0  0  0  0  0  0  0  0  0  0
   -0.0850   26.6400  -24.4450 N   0  0  0  0  0  0  0  0  0  0  0  0
   -0.4770   26.7430  -23.0160 C   0  0  0  0  0  0  0  0  0  0  0  0
    0.5460   27.9250  -24.8370 C   0  0  0  0  0  0  0  0  0  0  0  0
    0.9050   25.5260  -24.5940 C   0  0  0  0  0  0  0  0  0  0  0  0
    0.8460   24.8820  -25.9930 C   0  0  0  0  0  0  0  0  0  0  0  0
   -2.2960   22.7620  -30.7280 C   0  0  0  0  0  0  0  0  0  0  0  0
   -2.9740   21.7090  -31.3360 C   0  0  0  0  0  0  0  0  0  0  0  0
   -4.3830   21.6740  -31.3560 C   0  0  0  0  0  0  0  0  0  0  0  0
    1.0055   21.1043  -34.9118 H   0  0  0  0  0  0  0  0  0  0  0  0
   -0.3895   20.1956  -35.5862 H   0  0  0  0  0  0  0  0  0  0  0  0
   -0.4031   21.9918  -35.5862 H   0  0  0  0  0  0  0  0  0  0  0  0
    0.0122   21.2765  -32.8839 H   0  0  0  0  0  0  0  0  0  0  0  0
   -1.5162   21.8795  -33.6211 H   0  0  0  0  0  0  0  0  0  0  0  0
   -1.9538   19.2369  -31.4429 H   0  0  0  0  0  0  0  0  0  0  0  0
   -0.6364   18.2385  -32.1947 H   0  0  0  0  0  0  0  0  0  0  0  0
   -0.0994   20.0102  -30.2768 H   0  0  0  0  0  0  0  0  0  0  0  0
    1.0160   19.7535  -31.6613 H   0  0  0  0  0  0  0  0  0  0  0  0
   -0.1079   21.1548  -31.6613 H   0  0  0  0  0  0  0  0  0  0  0  0
   -1.3064   19.3721  -35.4673 H   0  0  0  0  0  0  0  0  0  0  0  0
   -0.1996   18.3827  -34.3806 H   0  0  0  0  0  0  0  0  0  0  0  0
   -1.9731   17.0112  -35.4246 H   0  0  0  0  0  0  0  0  0  0  0  0
   -2.0584   17.0545  -33.6225 H   0  0  0  0  0  0  0  0  0  0  0  0
   -5.2885   17.1313  -34.2239 H   0  0  0  0  0  0  0  0  0  0  0  0
   -3.8228   16.4561  -33.4236 H   0  0  0  0  0  0  0  0  0  0  0  0
   -5.6948   18.1120  -32.2123 H   0  0  0  0  0  0  0  0  0  0  0  0
   -3.9955   17.8559  -31.6543 H   0  0  0  0  0  0  0  0  0  0  0  0
   -3.5590   19.9130  -33.3540 H   0  0  0  0  0  0  0  0  0  0  0  0
   -6.6310   18.8689  -33.2969 H   0  0  0  0  0  0  0  0  0  0  0  0
   -9.1028   19.0077  -33.5301 H   0  0  0  0  0  0  0  0  0  0  0  0
  -10.3509   20.8947  -32.4977 H   0  0  0  0  0  0  0  0  0  0  0  0
   -9.1522   22.6023  -31.1502 H   0  0  0  0  0  0  0  0  0  0  0  0
   -7.0285   23.2528  -28.6950 H   0  0  0  0  0  0  0  0  0  0  0  0
   -6.9599   24.5641  -29.9209 H   0  0  0  0  0  0  0  0  0  0  0  0
   -8.3326   23.4055  -29.9209 H   0  0  0  0  0  0  0  0  0  0  0  0
   -4.9598   24.6130  -29.6838 H   0  0  0  0  0  0  0  0  0  0  0  0
   -1.9084   26.1514  -27.9982 H   0  0  0  0  0  0  0  0  0  0  0  0
   -2.8636   24.6682  -27.6245 H   0  0  0  0  0  0  0  0  0  0  0  0
   -0.7613   23.3204  -28.1694 H   0  0  0  0  0  0  0  0  0  0  0  0
    0.1084   24.9483  -28.1605 H   0  0  0  0  0  0  0  0  0  0  0  0
   -0.4190   22.7498  -24.7791 H   0  0  0  0  0  0  0  0  0  0  0  0
   -1.2974   22.2827  -26.2747 H   0  0  0  0  0  0  0  0  0  0  0  0
    0.4971   22.3619  -26.2747 H   0  0  0  0  0  0  0  0  0  0  0  0
   -2.5215   24.8257  -26.0906 H   0  0  0  0  0  0  0  0  0  0  0  0
   -1.6554   24.4388  -24.5373 H   0  0  0  0  0  0  0  0  0  0  0  0
   -1.1596   26.9113  -26.2592 H   0  0  0  0  0  0  0  0  0  0  0  0
   -2.1675   26.8448  -24.7500 H   0  0  0  0  0  0  0  0  0  0  0  0
    0.3912   26.5149  -22.3803 H   0  0  0  0  0  0  0  0  0  0  0  0
   -0.8280   27.7639  -22.8047 H   0  0  0  0  0  0  0  0  0  0  0  0
   -1.2845   26.0265  -22.8047 H   0  0  0  0  0  0  0  0  0  0  0  0
    0.8226   28.4883  -23.9336 H   0  0  0  0  0  0  0  0  0  0  0  0
    1.4477   27.7236  -25.4340 H   0  0  0  0  0  0  0  0  0  0  0  0
   -0.1647   28.5154  -25.4340 H   0  0  0  0  0  0  0  0  0  0  0  0
    1.9165   25.9259  -24.4299 H   0  0  0  0  0  0  0  0  0  0  0  0
    0.6575   24.7512  -23.8534 H   0  0  0  0  0  0  0  0  0  0  0  0
    1.0366   25.6604  -26.7465 H   0  0  0  0  0  0  0  0  0  0  0  0
    1.6070   24.0884  -26.0246 H   0  0  0  0  0  0  0  0  0  0  0  0
   -1.1962   22.7622  -30.7064 H   0  0  0  0  0  0  0  0  0  0  0  0
   -2.4034   20.8947  -31.8064 H   0  0  0  0  0  0  0  0  0  0  0  0
  1  2  1  0
  2  3  1  0
  3  4  1  0
  4  5  1  0
  3  6  1  0
  6  7  1  0
  7  8  1  0
  8  9  1  0
  9 10  1  0
 10 11  1  0
 11 12  1  0
 12 13  2  0
 13 14  1  0
 14 15  2  0
 15 16  1  0
 16 17  2  0
 17 18  1  0
 18 19  2  0
 19 20  1  0
 19 21  1  0
 21 22  2  0
 22 23  1  0
 23 24  1  0
 24 25  1  0
 25 26  1  0
 26 27  1  0
 27 28  1  0
 27 29  1  0
 29 30  1  0
 30 31  1  0
 31 32  1  0
 31 33  1  0
 31 34  1  0
 34 35  1  0
 23 36  2  0
 36 37  1  0
 37 38  2  0
 38 12  1  0
 18 13  1  0
 38 21  1  0
 35 27  1  0
  1 39  1  0
  1 40  1  0
  1 41  1  0
  2 42  1  0
  2 43  1  0
  4 44  1  0
  4 45  1  0
  5 46  1  0
  5 47  1  0
  5 48  1  0
  6 49  1  0
  6 50  1  0
  7 51  1  0
  7 52  1  0
  9 53  1  0
  9 54  1  0
 10 55  1  0
 10 56  1  0
 11 57  1  0
 14 58  1  0
 15 59  1  0
 16 60  1  0
 17 61  1  0
 20 62  1  0
 20 63  1  0
 20 64  1  0
 22 65  1  0
 25 66  1  0
 25 67  1  0
 26 68  1  0
 26 69  1  0
 28 70  1  0
 28 71  1  0
 28 72  1  0
 29 73  1  0
 29 74  1  0
 30 75  1  0
 30 76  1  0
 32 77  1  0
 32 78  1  0
 32 79  1  0
 33 80  1  0
 33 81  1  0
 33 82  1  0
 34 83  1  0
 34 84  1  0
 35 85  1  0
 35 86  1  0
 36 87  1  0
 37 88  1  0
M  CHG  3  19   1  27   1  31   1
M  END
>  <UniqueID>  (11) 
11

>  <SMILES>  (11) 
CCN(CC)CCOCCNc1c2ccccc2[n+](C)c2cc(OCC[N+]3(C)CC[N+](C)(C)CC3)ccc12

>  <Energy>  (11) 
141.23554084880442

>  <Genealogy>  (11) 
CCN(CC)CCOCCNc1c2ccccc2[n+](C)c2cc(OCC[N+]3(C)CC[N+](C)(C)CC3)ccc12 (3D coordinates assigned)
CCN(CC)CCOCCNc1c2ccccc2[n+](C)c2cc(OCC[N+]3(C)CC[N+](C)(C)CC3)ccc12 (nonaromatic ring conformer: 141.23554084880442 kcal/mol)

>  <smiles>  (11) 
CCN(CC)CCOCCNc1c2ccccc2[n+](C)c2cc(OCC[N+]3(C)CC[N+](C)(C)CC3)ccc12

>  <score_type>  (11) 
oracle

>  <origin>  (11) 
adg

>  <m_score__min__energy>  (11) 
-8.8699999999999992

>  <m_primary>  (11) 
energy

$$$$
11:0
     RDKit          3D

 68 70  0  0  0  0  0  0  0  0999 V2000
   -0.1090   23.2510  -24.5930 C   0  0  0  0  0  0  0  0  0  0  0  0
   -0.6130   24.6490  -24.2070 C   0  0  0  0  0  0  0  0  0  0  0  0
   -0.1640   25.7470  -25.1040 N   0  0  0  0  0  0  0  0  0  0  0  0
    0.5310   26.8360  -24.3650 C   0  0  0  0  0  0  0  0  0  0  0  0
   -0.1300   27.1190  -23.0100 C   0  0  0  0  0  0  0  0  0  0  0  0
   -1.2160   26.1870  -26.0730 C   0  0  0  0  0  0  0  0  0  0  0  0
   -0.7500   26.4010  -27.5260 C   0  0  0  0  0  0  0  0  0  0  0  0
    0.2130   25.4130  -27.8430 O   0  0  0  0  0  0  0  0  0  0  0  0
   -0.3960   24.1420  -27.9920 C   0  0  0  0  0  0  0  0  0  0  0  0
   -1.1400   24.0720  -29.3300 C   0  0  0  0  0  0  0  0  0  0  0  0
   -2.2800   24.9100  -29.2960 O   0  0  0  0  0  0  0  0  0  0  0  0
   -3.3080   24.3350  -28.5120 C   0  0  0  0  0  0  0  0  0  0  0  0
   -4.6480   24.4930  -29.2360 C   0  0  0  0  0  0  0  0  0  0  0  0
   -4.4710   24.9270  -30.5730 O   0  0  0  0  0  0  0  0  0  0  0  0
   -5.7070   25.2380  -31.1880 C   0  0  0  0  0  0  0  0  0  0  0  0
   -6.2590   24.0330  -31.9640 C   0  0  0  0  0  0  0  0  0  0  0  0
   -5.4810   22.8370  -31.6430 N   0  0  0  0  0  0  0  0  0  0  0  0
   -5.6360   21.5800  -32.3250 C   0  0  0  0  0  0  0  0  0  0  0  0
   -4.5200   20.9140  -32.8790 C   0  0  0  0  0  0  0  0  0  0  0  0
   -3.2580   21.5460  -32.9310 C   0  0  0  0  0  0  0  0  0  0  0  0
   -2.1470   20.8730  -33.4320 C   0  0  0  0  0  0  0  0  0  0  0  0
   -2.2700   19.5640  -33.8860 C   0  0  0  0  0  0  0  0  0  0  0  0
   -3.5090   18.9240  -33.8720 C   0  0  0  0  0  0  0  0  0  0  0  0
   -4.6740   19.5890  -33.4070 C   0  0  0  0  0  0  0  0  0  0  0  0
   -5.9250   18.9840  -33.4490 N   0  0  0  0  0  0  0  0  0  0  0  0
   -6.1090   17.6600  -34.0830 C   0  0  0  0  0  0  0  0  0  0  0  0
   -6.9980   19.6320  -32.8790 C   0  0  0  0  0  0  0  0  0  0  0  0
   -8.3020   19.1100  -32.7160 C   0  0  0  0  0  0  0  0  0  0  0  0
   -9.1660   19.9830  -32.0680 C   0  0  0  0  0  0  0  0  0  0  0  0
   -8.3220   21.3840  -31.6700 S   0  0  0  0  0  0  0  0  0  0  0  0
   -6.8590   20.9070  -32.3400 C   0  0  0  0  0  0  0  0  0  0  0  0
    0.0998   22.6719  -23.6814 H   0  0  0  0  0  0  0  0  0  0  0  0
   -0.8778   22.7352  -25.1871 H   0  0  0  0  0  0  0  0  0  0  0  0
    0.8121   23.3444  -25.1871 H   0  0  0  0  0  0  0  0  0  0  0  0
   -1.7128   24.6298  -24.2147 H   0  0  0  0  0  0  0  0  0  0  0  0
   -0.1879   24.8672  -23.2162 H   0  0  0  0  0  0  0  0  0  0  0  0
    0.5760   25.2930  -25.6940 H   0  0  0  0  0  0  0  0  0  0  0  0
    1.5768   26.5399  -24.1958 H   0  0  0  0  0  0  0  0  0  0  0  0
    0.4717   27.7518  -24.9715 H   0  0  0  0  0  0  0  0  0  0  0  0
    0.5542   26.8261  -22.2000 H   0  0  0  0  0  0  0  0  0  0  0  0
   -0.3556   28.1926  -22.9292 H   0  0  0  0  0  0  0  0  0  0  0  0
   -1.0626   26.5413  -22.9292 H   0  0  0  0  0  0  0  0  0  0  0  0
   -2.0060   25.4216  -26.0824 H   0  0  0  0  0  0  0  0  0  0  0  0
   -1.5493   27.1742  -25.7204 H   0  0  0  0  0  0  0  0  0  0  0  0
   -1.6091   26.3128  -28.2072 H   0  0  0  0  0  0  0  0  0  0  0  0
   -0.3094   27.4030  -27.6350 H   0  0  0  0  0  0  0  0  0  0  0  0
    0.3784   23.3613  -27.9643 H   0  0  0  0  0  0  0  0  0  0  0  0
   -1.1120   23.9858  -27.1716 H   0  0  0  0  0  0  0  0  0  0  0  0
   -0.4695   24.4022  -30.1371 H   0  0  0  0  0  0  0  0  0  0  0  0
   -1.4601   23.0352  -29.5106 H   0  0  0  0  0  0  0  0  0  0  0  0
   -3.0979   23.2663  -28.3578 H   0  0  0  0  0  0  0  0  0  0  0  0
   -3.3547   24.8428  -27.5373 H   0  0  0  0  0  0  0  0  0  0  0  0
   -5.1673   23.5233  -29.2414 H   0  0  0  0  0  0  0  0  0  0  0  0
   -5.2391   25.2525  -28.7034 H   0  0  0  0  0  0  0  0  0  0  0  0
   -6.4311   25.5277  -30.4123 H   0  0  0  0  0  0  0  0  0  0  0  0
   -5.5461   26.0645  -31.8958 H   0  0  0  0  0  0  0  0  0  0  0  0
   -7.3105   23.8700  -31.6853 H   0  0  0  0  0  0  0  0  0  0  0  0
   -6.1878   24.2331  -33.0433 H   0  0  0  0  0  0  0  0  0  0  0  0
   -4.6820   22.9500  -30.9780 H   0  0  0  0  0  0  0  0  0  0  0  0
   -3.1519   22.5804  -32.5720 H   0  0  0  0  0  0  0  0  0  0  0  0
   -1.1701   21.3774  -33.4689 H   0  0  0  0  0  0  0  0  0  0  0  0
   -1.3836   19.0298  -34.2588 H   0  0  0  0  0  0  0  0  0  0  0  0
   -3.5850   17.8858  -34.2275 H   0  0  0  0  0  0  0  0  0  0  0  0
   -6.2158   16.8917  -33.3031 H   0  0  0  0  0  0  0  0  0  0  0  0
   -7.0136   17.6756  -34.7086 H   0  0  0  0  0  0  0  0  0  0  0  0
   -5.2344   17.4283  -34.7086 H   0  0  0  0  0  0  0  0  0  0  0  0
   -8.6021   18.1118  -33.0675 H   0  0  0  0  0  0  0  0  0  0  0  0
  -10.2270   19.7907  -31.8506 H   0  0  0  0  0  0  0  0  0  0  0  0
  1  2  1  0
  2  3  1  0
  3  4  1  0
  4  5  1  0
  3  6  1  0
  6  7  1  0
  7  8  1  0
  8  9  1  0
  9 10  1  0
 10 11  1  0
 11 12  1  0
 12 13  1  0
 13 14  1  0
 14 15  1  0
 15 16  1  0
 16 17  1  0
 17 18  1  0
 18 19  2  0
 19 20  1  0
 20 21  2  0
 21 22  1  0
 22 23  2  0
 23 24  1  0
 24 25  2  0
 25 26  1  0
 25 27  1  0
 27 28  1  0
 28 29  2  0
 29 30  1  0
 30 31  1  0
 31 18  1  0
 24 19  1  0
 31 27  2  0
  1 32  1  0
  1 33  1  0
  1 34  1  0
  2 35  1  0
  2 36  1  0
  3 37  1  0
  4 38  1  0
  4 39  1  0
  5 40  1  0
  5 41  1  0
  5 42  1  0
  6 43  1  0
  6 44  1  0
  7 45  1  0
  7 46  1  0
  9 47  1  0
  9 48  1  0
 10 49  1  0
 10 50  1  0
 12 51  1  0
 12 52  1  0
 13 53  1  0
 13 54  1  0
 15 55  1  0
 15 56  1  0
 16 57  1  0
 16 58  1  0
 17 59  1  0
 20 60  1  0
 21 61  1  0
 22 62  1  0
 23 63  1  0
 26 64  1  0
 26 65  1  0
 26 66  1  0
 28 67  1  0
 29 68  1  0
M  CHG  2   3   1  25   1
M  END
>  <UniqueID>  (12) 
12

>  <SMILES>  (12) 
CC[NH+](CC)CCOCCOCCOCCNc1c2ccccc2[n+](C)c2ccsc12

>  <Energy>  (12) 
122.65276070280781

>  <Genealogy>  (12) 
CC[NH+](CC)CCOCCOCCOCCNc1c2ccccc2[n+](C)c2ccsc12 (protonated)
CC[NH+](CC)CCOCCOCCOCCNc1c2ccccc2[n+](C)c2ccsc12 (3D coordinates assigned)
CC[NH+](CC)CCOCCOCCOCCNc1c2ccccc2[n+](C)c2ccsc12 (optimized conformer: 122.65276070280781 kcal/mol)

>  <smiles>  (12) 
CCN(CC)CCOCCOCCOCCNc1c2ccccc2[n+](C)c2ccsc12

>  <score_type>  (12) 
oracle

>  <origin>  (12) 
adg

>  <m_score__min__energy>  (12) 
-9.5

>  <m_primary>  (12) 
energy

$$$$
12:0
     RDKit          3D

 39 40  0  0  0  0  0  0  0  0999 V2000
   -6.0770   25.3010  -30.0050 C   0  0  0  0  0  0  0  0  0  0  0  0
   -5.4250   24.5970  -31.1950 C   0  0  0  0  0  0  0  0  0  0  0  0
   -4.1070   24.0210  -30.8360 N   0  0  0  0  0  0  0  0  0  0  0  0
   -3.6010   24.5530  -29.5430 C   0  0  0  0  0  0  0  0  0  0  0  0
   -3.6530   23.4670  -28.4740 C   0  0  0  0  0  0  0  0  0  0  0  0
   -4.1760   22.5400  -30.8240 C   0  0  0  0  0  0  0  0  0  0  0  0
   -3.5780   21.9560  -32.1090 C   0  0  0  0  0  0  0  0  0  0  0  0
   -4.6140   21.8240  -33.1330 N   0  0  0  0  0  0  0  0  0  0  0  0
   -5.5630   20.7490  -33.1030 C   0  0  0  0  0  0  0  0  0  0  0  0
   -5.1930   19.4890  -33.5850 C   0  0  0  0  0  0  0  0  0  0  0  0
   -6.1200   18.4450  -33.5550 C   0  0  0  0  0  0  0  0  0  0  0  0
   -5.8000   17.3070  -33.9880 O   0  0  0  0  0  0  0  0  0  0  0  0
   -7.3420   18.6430  -33.0750 O   0  0  0  0  0  0  0  0  0  0  0  0
   -7.7460   19.8200  -32.6020 C   0  0  0  0  0  0  0  0  0  0  0  0
   -9.0510   19.9590  -32.1200 C   0  0  0  0  0  0  0  0  0  0  0  0
   -9.4930   21.1910  -31.6320 C   0  0  0  0  0  0  0  0  0  0  0  0
   -8.6330   22.2910  -31.6260 C   0  0  0  0  0  0  0  0  0  0  0  0
   -7.3250   22.1670  -32.1040 C   0  0  0  0  0  0  0  0  0  0  0  0
   -6.8640   20.9280  -32.5910 C   0  0  0  0  0  0  0  0  0  0  0  0
   -5.6848   24.8775  -29.0686 H   0  0  0  0  0  0  0  0  0  0  0  0
   -5.8487   26.3763  -30.0451 H   0  0  0  0  0  0  0  0  0  0  0  0
   -7.1666   25.1557  -30.0451 H   0  0  0  0  0  0  0  0  0  0  0  0
   -6.0868   23.7875  -31.5367 H   0  0  0  0  0  0  0  0  0  0  0  0
   -5.2692   25.3407  -31.9903 H   0  0  0  0  0  0  0  0  0  0  0  0
   -2.5614   24.8894  -29.6697 H   0  0  0  0  0  0  0  0  0  0  0  0
   -4.2319   25.3978  -29.2294 H   0  0  0  0  0  0  0  0  0  0  0  0
   -3.6307   23.9321  -27.4774 H   0  0  0  0  0  0  0  0  0  0  0  0
   -4.5800   22.8857  -28.5867 H   0  0  0  0  0  0  0  0  0  0  0  0
   -2.7858   22.7997  -28.5867 H   0  0  0  0  0  0  0  0  0  0  0  0
   -3.6127   22.1599  -29.9590 H   0  0  0  0  0  0  0  0  0  0  0  0
   -5.2314   22.2371  -30.7572 H   0  0  0  0  0  0  0  0  0  0  0  0
   -2.7857   22.6242  -32.4776 H   0  0  0  0  0  0  0  0  0  0  0  0
   -3.1596   20.9623  -31.8912 H   0  0  0  0  0  0  0  0  0  0  0  0
   -4.4890   22.3630  -34.0190 H   0  0  0  0  0  0  0  0  0  0  0  0
   -4.1815   19.3221  -33.9838 H   0  0  0  0  0  0  0  0  0  0  0  0
   -9.7321   19.0952  -32.1251 H   0  0  0  0  0  0  0  0  0  0  0  0
  -10.5200   21.2947  -31.2519 H   0  0  0  0  0  0  0  0  0  0  0  0
   -8.9863   23.2599  -31.2433 H   0  0  0  0  0  0  0  0  0  0  0  0
   -6.6543   23.0389  -32.0998 H   0  0  0  0  0  0  0  0  0  0  0  0
  1  2  1  0
  2  3  1  0
  3  4  1  0
  4  5  1  0
  3  6  1  0
  6  7  1  0
  7  8  1  0
  8  9  1  0
  9 10  2  0
 10 11  1  0
 11 12  2  0
 11 13  1  0
 13 14  1  0
 14 15  2  0
 15 16  1  0
 16 17  2  0
 17 18  1  0
 18 19  2  0
 19  9  1  0
 19 14  1  0
  1 20  1  0
  1 21  1  0
  1 22  1  0
  2 23  1  0
  2 24  1  0
  4 25  1  0
  4 26  1  0
  5 27  1  0
  5 28  1  0
  5 29  1  0
  6 30  1  0
  6 31  1  0
  7 32  1  0
  7 33  1  0
  8 34  1  0
 10 35  1  0
 15 36  1  0
 16 37  1  0
 17 38  1  0
 18 39  1  0
M  END
>  <UniqueID>  (13) 
13

>  <SMILES>  (13) 
CCN(CC)CCNc1cc(=O)oc2ccccc12

>  <Energy>  (13) 
42.09781422036461

>  <Genealogy>  (13) 
CCN(CC)CCNc1cc(=O)oc2ccccc12 (3D coordinates assigned)
CCN(CC)CCNc1cc(=O)oc2ccccc12 (optimized conformer: 42.09781422036461 kcal/mol)

>  <smiles>  (13) 
CCN(CC)CCNc1cc(=O)oc2ccccc12

>  <score_type>  (13) 
oracle

>  <origin>  (13) 
adg

>  <m_score__min__energy>  (13) 
-7.25

>  <m_primary>  (13) 
energy

$$$$
13:0
     RDKit          3D

 57 57  0  0  0  0  0  0  0  0999 V2000
   -1.6500   25.6730  -26.6150 C   0  0  0  0  0  0  0  0  0  0  0  0
   -0.8970   26.1150  -27.8610 C   0  0  0  0  0  0  0  0  0  0  0  0
   -1.6010   25.6810  -29.0060 O   0  0  0  0  0  0  0  0  0  0  0  0
   -2.3030   24.4820  -28.7340 C   0  0  0  0  0  0  0  0  0  0  0  0
   -3.1110   24.0510  -29.9620 C   0  0  0  0  0  0  0  0  0  0  0  0
   -3.8510   25.1450  -30.4730 O   0  0  0  0  0  0  0  0  0  0  0  0
   -5.2380   24.9840  -30.2430 C   0  0  0  0  0  0  0  0  0  0  0  0
   -5.9580   24.6760  -31.5630 C   0  0  0  0  0  0  0  0  0  0  0  0
   -6.1070   23.1700  -31.8130 C   0  0  0  0  0  0  0  0  0  0  0  0
   -4.8070   22.5650  -32.1390 N   0  0  0  0  0  0  0  0  0  0  0  0
   -4.5560   21.3590  -31.3370 C   0  0  0  0  0  0  0  0  0  0  0  0
   -3.0490   21.1360  -31.1570 C   0  0  0  0  0  0  0  0  0  0  0  0
   -2.3230   21.1400  -32.5100 C   0  0  0  0  0  0  0  0  0  0  0  0
   -3.2340   20.8450  -33.6280 N   0  0  0  0  0  0  0  0  0  0  0  0
   -3.1470   19.4730  -34.1660 C   0  0  0  0  0  0  0  0  0  0  0  0
   -4.2830   18.5260  -33.7190 C   0  0  0  0  0  0  0  0  0  0  0  0
   -5.6310   18.7700  -34.4180 C   0  0  0  0  0  0  0  0  0  0  0  0
   -6.7410   19.0510  -33.4360 C   0  0  0  0  0  0  0  0  0  0  0  0
   -7.2210   20.3590  -33.2550 C   0  0  0  0  0  0  0  0  0  0  0  0
   -8.2400   20.6140  -32.3320 C   0  0  0  0  0  0  0  0  0  0  0  0
   -8.7860   19.5680  -31.5830 C   0  0  0  0  0  0  0  0  0  0  0  0
   -8.3160   18.2630  -31.7590 C   0  0  0  0  0  0  0  0  0  0  0  0
   -7.2980   18.0040  -32.6820 C   0  0  0  0  0  0  0  0  0  0  0  0
   -1.0990   25.9964  -25.7196 H   0  0  0  0  0  0  0  0  0  0  0  0
   -2.6524   26.1261  -26.6123 H   0  0  0  0  0  0  0  0  0  0  0  0
   -1.7430   24.5769  -26.6123 H   0  0  0  0  0  0  0  0  0  0  0  0
   -0.8160   27.2120  -27.8725 H   0  0  0  0  0  0  0  0  0  0  0  0
    0.1119   25.6768  -27.8587 H   0  0  0  0  0  0  0  0  0  0  0  0
   -1.5839   23.6905  -28.4763 H   0  0  0  0  0  0  0  0  0  0  0  0
   -2.9916   24.6524  -27.8933 H   0  0  0  0  0  0  0  0  0  0  0  0
   -2.4233   23.6840  -30.7382 H   0  0  0  0  0  0  0  0  0  0  0  0
   -3.8090   23.2531  -29.6686 H   0  0  0  0  0  0  0  0  0  0  0  0
   -5.3963   24.1533  -29.5395 H   0  0  0  0  0  0  0  0  0  0  0  0
   -5.6437   25.9147  -29.8197 H   0  0  0  0  0  0  0  0  0  0  0  0
   -6.9597   25.1294  -31.5326 H   0  0  0  0  0  0  0  0  0  0  0  0
   -5.3505   25.0921  -32.3802 H   0  0  0  0  0  0  0  0  0  0  0  0
   -6.5107   22.6922  -30.9082 H   0  0  0  0  0  0  0  0  0  0  0  0
   -6.7898   23.0188  -32.6621 H   0  0  0  0  0  0  0  0  0  0  0  0
   -4.8380   22.2690  -33.1430 H   0  0  0  0  0  0  0  0  0  0  0  0
   -5.0247   21.4776  -30.3489 H   0  0  0  0  0  0  0  0  0  0  0  0
   -4.9839   20.4901  -31.8586 H   0  0  0  0  0  0  0  0  0  0  0  0
   -2.6397   21.9399  -30.5275 H   0  0  0  0  0  0  0  0  0  0  0  0
   -2.8956   20.1559  -30.6816 H   0  0  0  0  0  0  0  0  0  0  0  0
   -1.8754   22.1321  -32.6695 H   0  0  0  0  0  0  0  0  0  0  0  0
   -1.5534   20.3545  -32.4838 H   0  0  0  0  0  0  0  0  0  0  0  0
   -3.0550   21.5310  -34.3970 H   0  0  0  0  0  0  0  0  0  0  0  0
   -3.1657   19.5347  -35.2641 H   0  0  0  0  0  0  0  0  0  0  0  0
   -2.2144   19.0447  -33.7699 H   0  0  0  0  0  0  0  0  0  0  0  0
   -3.9702   17.4923  -33.9277 H   0  0  0  0  0  0  0  0  0  0  0  0
   -4.4471   18.7188  -32.6485 H   0  0  0  0  0  0  0  0  0  0  0  0
   -5.5287   19.6325  -35.0930 H   0  0  0  0  0  0  0  0  0  0  0  0
   -5.8939   17.8565  -34.9716 H   0  0  0  0  0  0  0  0  0  0  0  0
   -6.7936   21.1856  -33.8416 H   0  0  0  0  0  0  0  0  0  0  0  0
   -8.6126   21.6399  -32.1952 H   0  0  0  0  0  0  0  0  0  0  0  0
   -9.5853   19.7714  -30.8552 H   0  0  0  0  0  0  0  0  0  0  0  0
   -8.7473   17.4395  -31.1710 H   0  0  0  0  0  0  0  0  0  0  0  0
   -6.9314   16.9759  -32.8185 H   0  0  0  0  0  0  0  0  0  0  0  0
  1  2  1  0
  2  3  1  0
  3  4  1  0
  4  5  1  0
  5  6  1  0
  6  7  1  0
  7  8  1  0
  8  9  1  0
  9 10  1  0
 10 11  1  0
 11 12  1  0
 12 13  1  0
 13 14  1  0
 14 15  1  0
 15 16  1  0
 16 17  1  0
 17 18  1  0
 18 19  2  0
 19 20  1  0
 20 21  2  0
 21 22  1  0
 22 23  2  0
 23 18  1  0
  1 24  1  0
  1 25  1  0
  1 26  1  0
  2 27  1  0
  2 28  1  0
  4 29  1  0
  4 30  1  0
  5 31  1  0
  5 32  1  0
  7 33  1  0
  7 34  1  0
  8 35  1  0
  8 36  1  0
  9 37  1  0
  9 38  1  0
 10 39  1  0
 11 40  1  0
 11 41  1  0
 12 42  1  0
 12 43  1  0
 13 44  1  0
 13 45  1  0
 14 46  1  0
 15 47  1  0
 15 48  1  0
 16 49  1  0
 16 50  1  0
 17 51  1  0
 17 52  1  0
 19 53  1  0
 20 54  1  0
 21 55  1  0
 22 56  1  0
 23 57  1  0
M  END
>  <UniqueID>  (14) 
14

>  <SMILES>  (14) 
CCOCCOCCCNCCCNCCCc1ccccc1

>  <Energy>  (14) 
46.872827211400455

>  <Genealogy>  (14) 
CCOCCOCCCNCCCNCCCc1ccccc1 (3D coordinates assigned)
CCOCCOCCCNCCCNCCCc1ccccc1 (optimized conformer: 46.872827211400455 kcal/mol)

>  <smiles>  (14) 
CCOCCOCCCNCCCNCCCc1ccccc1

>  <score_type>  (14) 
oracle

>  <origin>  (14) 
adg

>  <m_score__min__energy>  (14) 
-7.7300000000000004

>  <m_primary>  (14) 
energy

$$$$
14:0
     RDKit          3D

 50 52  0  0  0  0  0  0  0  0999 V2000
   -0.8530   21.1660  -32.8280 C   0  0  0  0  0  0  0  0  0  0  0  0
   -2.0600   20.9130  -33.7270 C   0  0  0  0  0  0  0  0  0  0  0  0
   -3.3260   21.2980  -33.0330 C   0  0  0  0  0  0  0  0  0  0  0  0
   -4.4980   20.6450  -33.1970 N   0  0  0  0  0  0  0  0  0  0  0  0
   -5.3340   21.3600  -32.4180 C   0  0  0  0  0  0  0  0  0  0  0  0
   -6.7670   21.0330  -32.2770 C   0  0  0  0  0  0  0  0  0  0  0  0
   -7.7110   22.0290  -31.9680 C   0  0  0  0  0  0  0  0  0  0  0  0
   -9.0670   21.7020  -31.8500 C   0  0  0  0  0  0  0  0  0  0  0  0
   -9.4870   20.3800  -32.0230 C   0  0  0  0  0  0  0  0  0  0  0  0
   -8.5490   19.3800  -32.3050 C   0  0  0  0  0  0  0  0  0  0  0  0
   -7.1930   19.7020  -32.4230 C   0  0  0  0  0  0  0  0  0  0  0  0
   -4.6990   22.4090  -31.8470 N   0  0  0  0  0  0  0  0  0  0  0  0
   -5.2510   23.4630  -30.9940 C   0  0  0  0  0  0  0  0  0  0  0  0
   -4.1670   24.1060  -30.1710 C   0  0  0  0  0  0  0  0  0  0  0  0
   -3.8250   25.2830  -30.4670 O   0  0  0  0  0  0  0  0  0  0  0  0
   -3.5160   23.4270  -29.0690 N   0  0  0  0  0  0  0  0  0  0  0  0
   -2.3940   22.5150  -29.3550 C   0  0  0  0  0  0  0  0  0  0  0  0
   -2.7140   21.1010  -28.8730 C   0  0  0  0  0  0  0  0  0  0  0  0
   -3.8310   23.7310  -27.6640 C   0  0  0  0  0  0  0  0  0  0  0  0
   -2.8650   24.7400  -27.0980 C   0  0  0  0  0  0  0  0  0  0  0  0
   -1.7130   25.1070  -27.8110 C   0  0  0  0  0  0  0  0  0  0  0  0
   -0.8510   26.0770  -27.2980 C   0  0  0  0  0  0  0  0  0  0  0  0
   -1.1460   26.6750  -26.0710 C   0  0  0  0  0  0  0  0  0  0  0  0
   -2.2640   26.3100  -25.3850 N   0  0  0  0  0  0  0  0  0  0  0  0
   -3.1200   25.3650  -25.8660 C   0  0  0  0  0  0  0  0  0  0  0  0
   -3.4340   22.3720  -32.2270 N   0  0  0  0  0  0  0  0  0  0  0  0
   -1.1609   21.1015  -31.7740 H   0  0  0  0  0  0  0  0  0  0  0  0
   -0.0798   20.4104  -33.0310 H   0  0  0  0  0  0  0  0  0  0  0  0
   -0.4483   22.1685  -33.0310 H   0  0  0  0  0  0  0  0  0  0  0  0
   -1.9567   21.5085  -34.6461 H   0  0  0  0  0  0  0  0  0  0  0  0
   -2.1017   19.8408  -33.9693 H   0  0  0  0  0  0  0  0  0  0  0  0
   -7.3826   23.0682  -31.8186 H   0  0  0  0  0  0  0  0  0  0  0  0
   -9.8032   22.4866  -31.6208 H   0  0  0  0  0  0  0  0  0  0  0  0
  -10.5538   20.1257  -31.9376 H   0  0  0  0  0  0  0  0  0  0  0  0
   -8.8790   18.3386  -32.4341 H   0  0  0  0  0  0  0  0  0  0  0  0
   -6.4577   18.9107  -32.6308 H   0  0  0  0  0  0  0  0  0  0  0  0
   -5.7253   24.2277  -31.6267 H   0  0  0  0  0  0  0  0  0  0  0  0
   -5.9915   23.0156  -30.3146 H   0  0  0  0  0  0  0  0  0  0  0  0
   -2.2121   22.4947  -30.4397 H   0  0  0  0  0  0  0  0  0  0  0  0
   -1.4998   22.8761  -28.8259 H   0  0  0  0  0  0  0  0  0  0  0  0
   -2.7186   21.0808  -27.7732 H   0  0  0  0  0  0  0  0  0  0  0  0
   -3.7029   20.8003  -29.2494 H   0  0  0  0  0  0  0  0  0  0  0  0
   -1.9509   20.4038  -29.2494 H   0  0  0  0  0  0  0  0  0  0  0  0
   -4.8513   24.1376  -27.6043 H   0  0  0  0  0  0  0  0  0  0  0  0
   -3.7501   22.8031  -27.0789 H   0  0  0  0  0  0  0  0  0  0  0  0
   -1.4893   24.6290  -28.7761 H   0  0  0  0  0  0  0  0  0  0  0  0
    0.0521   26.3678  -27.8547 H   0  0  0  0  0  0  0  0  0  0  0  0
   -0.4742   27.4420  -25.6582 H   0  0  0  0  0  0  0  0  0  0  0  0
   -2.4730   26.7690  -24.4690 H   0  0  0  0  0  0  0  0  0  0  0  0
   -4.0142   25.0905  -25.2872 H   0  0  0  0  0  0  0  0  0  0  0  0
  1  2  1  0
  2  3  1  0
  3  4  1  0
  4  5  2  0
  5  6  1  0
  6  7  2  0
  7  8  1  0
  8  9  2  0
  9 10  1  0
 10 11  2  0
  5 12  1  0
 12 13  1  0
 13 14  1  0
 14 15  2  0
 14 16  1  0
 16 17  1  0
 17 18  1  0
 16 19  1  0
 19 20  1  0
 20 21  2  0
 21 22  1  0
 22 23  2  0
 23 24  1  0
 24 25  2  0
 12 26  1  0
 26  3  2  0
 11  6  1  0
 25 20  1  0
  1 27  1  0
  1 28  1  0
  1 29  1  0
  2 30  1  0
  2 31  1  0
  7 32  1  0
  8 33  1  0
  9 34  1  0
 10 35  1  0
 11 36  1  0
 13 37  1  0
 13 38  1  0
 17 39  1  0
 17 40  1  0
 18 41  1  0
 18 42  1  0
 18 43  1  0
 19 44  1  0
 19 45  1  0
 21 46  1  0
 22 47  1  0
 23 48  1  0
 24 49  1  0
 25 50  1  0
M  CHG  1  24   1
M  END
>  <UniqueID>  (15) 
15

>  <SMILES>  (15) 
CCc1nc(-c2ccccc2)n(CC(=O)N(CC)Cc2ccc[nH+]c2)n1

>  <Energy>  (15) 
79.73718200894933

>  <Genealogy>  (15) 
CCc1nc(-c2ccccc2)n(CC(=O)N(CC)Cc2ccc[nH+]c2)n1 (protonated)
CCc1nc(-c2ccccc2)n(CC(=O)N(CC)Cc2ccc[nH+]c2)n1 (3D coordinates assigned)
CCc1nc(-c2ccccc2)n(CC(=O)N(CC)Cc2ccc[nH+]c2)n1 (optimized conformer: 79.73718200894933 kcal/mol)

>  <smiles>  (15) 
CCc1nc(-c2ccccc2)n(CC(=O)N(CC)Cc2cccnc2)n1

>  <score_type>  (15) 
oracle

>  <origin>  (15) 
adg

>  <m_score__min__energy>  (15) 
-8.2200000000000006

>  <m_primary>  (15) 
energy

$$$$
15:0
     RDKit          3D

 74 77  0  0  0  0  0  0  0  0999 V2000
   -5.6760   25.3100  -30.1990 C   0  0  0  0  0  0  0  0  0  0  0  0
   -5.4790   23.8830  -29.6940 C   0  0  0  0  0  0  0  0  0  0  0  0
   -4.0420   23.5240  -29.6970 N   0  0  0  0  0  0  0  0  0  0  0  0
   -3.3480   24.2010  -28.5890 C   0  0  0  0  0  0  0  0  0  0  0  0
   -3.8510   22.0610  -29.5650 C   0  0  0  0  0  0  0  0  0  0  0  0
   -3.8640   21.3400  -30.9250 C   0  0  0  0  0  0  0  0  0  0  0  0
   -3.8080   22.2950  -32.1300 C   0  0  0  0  0  0  0  0  0  0  0  0
   -4.3170   21.6700  -33.3730 N   0  0  0  0  0  0  0  0  0  0  0  0
   -5.4650   20.8160  -33.0930 C   0  0  0  0  0  0  0  0  0  0  0  0
   -6.6730   21.4120  -32.6240 C   0  0  0  0  0  0  0  0  0  0  0  0
   -6.8450   22.8220  -32.5840 C   0  0  0  0  0  0  0  0  0  0  0  0
   -8.0030   23.3960  -32.0760 C   0  0  0  0  0  0  0  0  0  0  0  0
   -9.0480   22.5890  -31.6490 C   0  0  0  0  0  0  0  0  0  0  0  0
   -8.9360   21.2020  -31.7280 C   0  0  0  0  0  0  0  0  0  0  0  0
   -7.7490   20.5860  -32.1980 C   0  0  0  0  0  0  0  0  0  0  0  0
   -7.6410   19.2200  -32.2770 N   0  0  0  0  0  0  0  0  0  0  0  0
   -8.5880   18.3460  -31.5490 C   0  0  0  0  0  0  0  0  0  0  0  0
   -6.6360   18.6540  -33.0320 C   0  0  0  0  0  0  0  0  0  0  0  0
   -6.7640   17.3280  -33.4960 C   0  0  0  0  0  0  0  0  0  0  0  0
   -5.7580   16.7180  -34.2260 C   0  0  0  0  0  0  0  0  0  0  0  0
   -4.5830   17.3930  -34.4840 C   0  0  0  0  0  0  0  0  0  0  0  0
   -4.3880   18.7110  -34.0290 C   0  0  0  0  0  0  0  0  0  0  0  0
   -3.1380   19.3230  -34.2080 O   0  0  0  0  0  0  0  0  0  0  0  0
   -1.8930   18.9540  -33.6050 C   0  0  0  0  0  0  0  0  0  0  0  0
   -0.6930   19.1080  -34.5840 C   0  0  0  0  0  0  0  0  0  0  0  0
    0.0090   20.4350  -34.6250 N   0  0  0  0  0  0  0  0  0  0  0  0
   -0.6540   21.3250  -33.6030 C   0  0  0  0  0  0  0  0  0  0  0  0
   -0.1110   21.0430  -35.9810 C   0  0  0  0  0  0  0  0  0  0  0  0
    0.6680   22.3810  -36.0970 C   0  0  0  0  0  0  0  0  0  0  0  0
    1.4860   22.6350  -34.9700 O   0  0  0  0  0  0  0  0  0  0  0  0
    2.3000   21.5140  -34.7040 C   0  0  0  0  0  0  0  0  0  0  0  0
    1.4600   20.2820  -34.2840 C   0  0  0  0  0  0  0  0  0  0  0  0
   -5.4680   19.4070  -33.3790 C   0  0  0  0  0  0  0  0  0  0  0  0
   -5.7702   25.9926  -29.3416 H   0  0  0  0  0  0  0  0  0  0  0  0
   -4.8102   25.6057  -30.8096 H   0  0  0  0  0  0  0  0  0  0  0  0
   -6.5896   25.3600  -30.8096 H   0  0  0  0  0  0  0  0  0  0  0  0
   -5.8692   23.8051  -28.6685 H   0  0  0  0  0  0  0  0  0  0  0  0
   -6.0188   23.1931  -30.3593 H   0  0  0  0  0  0  0  0  0  0  0  0
   -3.7339   23.8246  -27.6301 H   0  0  0  0  0  0  0  0  0  0  0  0
   -2.2687   23.9992  -28.6545 H   0  0  0  0  0  0  0  0  0  0  0  0
   -3.5230   25.2850  -28.6545 H   0  0  0  0  0  0  0  0  0  0  0  0
   -2.8836   21.8742  -29.0759 H   0  0  0  0  0  0  0  0  0  0  0  0
   -4.6878   21.6669  -28.9696 H   0  0  0  0  0  0  0  0  0  0  0  0
   -2.9928   20.6701  -30.9716 H   0  0  0  0  0  0  0  0  0  0  0  0
   -4.8164   20.7936  -30.9909 H   0  0  0  0  0  0  0  0  0  0  0  0
   -4.4183   23.1822  -31.9057 H   0  0  0  0  0  0  0  0  0  0  0  0
   -2.7538   22.5611  -32.2970 H   0  0  0  0  0  0  0  0  0  0  0  0
   -4.5260   22.3780  -34.1030 H   0  0  0  0  0  0  0  0  0  0  0  0
   -3.5700   21.1270  -33.8570 H   0  0  0  0  0  0  0  0  0  0  0  0
   -6.0436   23.4729  -32.9636 H   0  0  0  0  0  0  0  0  0  0  0  0
   -8.0919   24.4905  -32.0121 H   0  0  0  0  0  0  0  0  0  0  0  0
   -9.9655   23.0443  -31.2479 H   0  0  0  0  0  0  0  0  0  0  0  0
   -9.7846   20.5736  -31.4199 H   0  0  0  0  0  0  0  0  0  0  0  0
   -8.4477   18.4754  -30.4657 H   0  0  0  0  0  0  0  0  0  0  0  0
   -9.6192   18.6165  -31.8201 H   0  0  0  0  0  0  0  0  0  0  0  0
   -8.4009   17.2965  -31.8201 H   0  0  0  0  0  0  0  0  0  0  0  0
   -7.6831   16.7664  -33.2730 H   0  0  0  0  0  0  0  0  0  0  0  0
   -5.8960   15.6931  -34.6010 H   0  0  0  0  0  0  0  0  0  0  0  0
   -3.7858   16.8936  -35.0542 H   0  0  0  0  0  0  0  0  0  0  0  0
   -1.7198   19.5970  -32.7295 H   0  0  0  0  0  0  0  0  0  0  0  0
   -1.9593   17.8940  -33.3186 H   0  0  0  0  0  0  0  0  0  0  0  0
    0.0546   18.3493  -34.3092 H   0  0  0  0  0  0  0  0  0  0  0  0
   -1.1350   18.9964  -35.5851 H   0  0  0  0  0  0  0  0  0  0  0  0
   -0.3954   20.9779  -32.5917 H   0  0  0  0  0  0  0  0  0  0  0  0
   -0.3047   22.3596  -33.7361 H   0  0  0  0  0  0  0  0  0  0  0  0
   -1.7452   21.2864  -33.7361 H   0  0  0  0  0  0  0  0  0  0  0  0
    0.2884   20.3355  -36.7226 H   0  0  0  0  0  0  0  0  0  0  0  0
   -1.1750   21.2559  -36.1617 H   0  0  0  0  0  0  0  0  0  0  0  0
    1.3052   22.3410  -36.9928 H   0  0  0  0  0  0  0  0  0  0  0  0
   -0.0719   23.1924  -36.1608 H   0  0  0  0  0  0  0  0  0  0  0  0
    2.8701   21.2642  -35.6110 H   0  0  0  0  0  0  0  0  0  0  0  0
    2.9735   21.7691  -33.8725 H   0  0  0  0  0  0  0  0  0  0  0  0
    1.8525   19.3942  -34.8014 H   0  0  0  0  0  0  0  0  0  0  0  0
    1.5382   20.1802  -33.1915 H   0  0  0  0  0  0  0  0  0  0  0  0
  1  2  1  0
  2  3  1  0
  3  4  1  0
  3  5  1  0
  5  6  1  0
  6  7  1  0
  7  8  1  0
  8  9  1  0
  9 10  2  0
 10 11  1  0
 11 12  2  0
 12 13  1  0
 13 14  2  0
 14 15  1  0
 15 16  2  0
 16 17  1  0
 16 18  1  0
 18 19  2  0
 19 20  1  0
 20 21  2  0
 21 22  1  0
 22 23  1  0
 23 24  1  0
 24 25  1  0
 25 26  1  0
 26 27  1  0
 26 28  1  0
 28 29  1  0
 29 30  1  0
 30 31  1  0
 31 32  1  0
 22 33  2  0
 33  9  1  0
 15 10  1  0
 33 18  1  0
 32 26  1  0
  1 34  1  0
  1 35  1  0
  1 36  1  0
  2 37  1  0
  2 38  1  0
  4 39  1  0
  4 40  1  0
  4 41  1  0
  5 42  1  0
  5 43  1  0
  6 44  1  0
  6 45  1  0
  7 46  1  0
  7 47  1  0
  8 48  1  0
  8 49  1  0
 11 50  1  0
 12 51  1  0
 13 52  1  0
 14 53  1  0
 17 54  1  0
 17 55  1  0
 17 56  1  0
 19 57  1  0
 20 58  1  0
 21 59  1  0
 24 60  1  0
 24 61  1  0
 25 62  1  0
 25 63  1  0
 27 64  1  0
 27 65  1  0
 27 66  1  0
 28 67  1  0
 28 68  1  0
 29 69  1  0
 29 70  1  0
 31 71  1  0
 31 72  1  0
 32 73  1  0
 32 74  1  0
M  CHG  3   8   1  16   1  26   1
M  END
>  <UniqueID>  (16) 
16

>  <SMILES>  (16) 
CCN(C)CCC[NH2+]c1c2ccccc2[n+](C)c2cccc(OCC[N+]3(C)CCOCC3)c12

>  <Energy>  (16) 
135.7572861412425

>  <Genealogy>  (16) 
CCN(C)CCC[NH2+]c1c2ccccc2[n+](C)c2cccc(OCC[N+]3(C)CCOCC3)c12 (protonated)
CCN(C)CCC[NH2+]c1c2ccccc2[n+](C)c2cccc(OCC[N+]3(C)CCOCC3)c12 (3D coordinates assigned)
CCN(C)CCC[NH2+]c1c2ccccc2[n+](C)c2cccc(OCC[N+]3(C)CCOCC3)c12 (nonaromatic ring conformer: 135.7572861412425 kcal/mol)

>  <smiles>  (16) 
CCN(C)CCCNc1c2ccccc2[n+](C)c2cccc(OCC[N+]3(C)CCOCC3)c12

>  <score_type>  (16) 
oracle

>  <origin>  (16) 
adg

>  <m_score__min__energy>  (16) 
-8.7300000000000004

>  <m_primary>  (16) 
energy

$$$$
16:0
     RDKit          3D

 61 64  0  0  0  0  0  0  0  0999 V2000
   -6.8600   17.4200  -32.3170 C   0  0  0  0  0  0  0  0  0  0  0  0
   -6.4530   18.7140  -31.6250 C   0  0  0  0  0  0  0  0  0  0  0  0
   -6.6660   19.8600  -32.5410 N   0  0  0  0  0  0  0  0  0  0  0  0
   -8.1050   20.1780  -32.7210 C   0  0  0  0  0  0  0  0  0  0  0  0
   -8.7110   21.0320  -31.5990 C   0  0  0  0  0  0  0  0  0  0  0  0
   -5.8910   19.7250  -33.7940 C   0  0  0  0  0  0  0  0  0  0  0  0
   -4.3750   19.9150  -33.5810 C   0  0  0  0  0  0  0  0  0  0  0  0
   -3.9790   21.3430  -33.4710 N   0  0  0  0  0  0  0  0  0  0  0  0
   -3.9000   21.7790  -32.0810 C   0  0  0  0  0  0  0  0  0  0  0  0
   -2.8970   21.2750  -31.2140 C   0  0  0  0  0  0  0  0  0  0  0  0
   -3.0390   21.4510  -29.8220 C   0  0  0  0  0  0  0  0  0  0  0  0
   -3.9000   22.4060  -29.3290 N   0  0  0  0  0  0  0  0  0  0  0  0
   -3.7150   22.9300  -27.9580 C   0  0  0  0  0  0  0  0  0  0  0  0
   -4.8670   22.9520  -30.1480 C   0  0  0  0  0  0  0  0  0  0  0  0
   -5.8770   23.8000  -29.6240 C   0  0  0  0  0  0  0  0  0  0  0  0
   -6.8490   24.3570  -30.4520 C   0  0  0  0  0  0  0  0  0  0  0  0
   -6.8450   24.0850  -31.8120 C   0  0  0  0  0  0  0  0  0  0  0  0
   -5.8790   23.2420  -32.3540 C   0  0  0  0  0  0  0  0  0  0  0  0
   -4.8850   22.6490  -31.5380 C   0  0  0  0  0  0  0  0  0  0  0  0
   -2.2220   20.5660  -28.9320 C   0  0  0  0  0  0  0  0  0  0  0  0
   -2.7450   20.0450  -27.7420 C   0  0  0  0  0  0  0  0  0  0  0  0
   -1.9750   19.2000  -26.9530 C   0  0  0  0  0  0  0  0  0  0  0  0
   -0.6880   18.8620  -27.3610 C   0  0  0  0  0  0  0  0  0  0  0  0
   -0.1860   19.3220  -28.5490 N   0  0  0  0  0  0  0  0  0  0  0  0
    1.1710   18.9110  -28.9380 C   0  0  0  0  0  0  0  0  0  0  0  0
   -0.9600   20.1140  -29.3690 C   0  0  0  0  0  0  0  0  0  0  0  0
   -0.5090   20.5450  -30.7450 C   0  0  0  0  0  0  0  0  0  0  0  0
   -1.6870   20.5120  -31.7300 C   0  0  0  0  0  0  0  0  0  0  0  0
   -7.0994   16.6589  -31.5598 H   0  0  0  0  0  0  0  0  0  0  0  0
   -7.7441   17.6027  -32.9455 H   0  0  0  0  0  0  0  0  0  0  0  0
   -6.0305   17.0637  -32.9455 H   0  0  0  0  0  0  0  0  0  0  0  0
   -7.0624   18.8516  -30.7196 H   0  0  0  0  0  0  0  0  0  0  0  0
   -5.3892   18.6607  -31.3502 H   0  0  0  0  0  0  0  0  0  0  0  0
   -8.2208   20.7234  -33.6692 H   0  0  0  0  0  0  0  0  0  0  0  0
   -8.6423   19.2182  -32.7099 H   0  0  0  0  0  0  0  0  0  0  0  0
   -8.4170   20.6177  -30.6233 H   0  0  0  0  0  0  0  0  0  0  0  0
   -8.3427   22.0650  -31.6847 H   0  0  0  0  0  0  0  0  0  0  0  0
   -9.8076   21.0254  -31.6847 H   0  0  0  0  0  0  0  0  0  0  0  0
   -6.0648   18.7211  -34.2086 H   0  0  0  0  0  0  0  0  0  0  0  0
   -6.2310   20.5139  -34.4810 H   0  0  0  0  0  0  0  0  0  0  0  0
   -4.0836   19.3980  -32.6548 H   0  0  0  0  0  0  0  0  0  0  0  0
   -3.8641   19.4986  -34.4617 H   0  0  0  0  0  0  0  0  0  0  0  0
   -3.0900   21.5010  -33.9880 H   0  0  0  0  0  0  0  0  0  0  0  0
   -4.6690   21.9450  -33.9740 H   0  0  0  0  0  0  0  0  0  0  0  0
   -3.9891   22.1536  -27.2286 H   0  0  0  0  0  0  0  0  0  0  0  0
   -2.6622   23.2140  -27.8130 H   0  0  0  0  0  0  0  0  0  0  0  0
   -4.3561   23.8120  -27.8130 H   0  0  0  0  0  0  0  0  0  0  0  0
   -5.8926   24.0211  -28.5466 H   0  0  0  0  0  0  0  0  0  0  0  0
   -7.6215   25.0141  -30.0262 H   0  0  0  0  0  0  0  0  0  0  0  0
   -7.6072   24.5366  -32.4640 H   0  0  0  0  0  0  0  0  0  0  0  0
   -5.8878   23.0330  -33.4339 H   0  0  0  0  0  0  0  0  0  0  0  0
   -3.7676   20.3054  -27.4315 H   0  0  0  0  0  0  0  0  0  0  0  0
   -2.3799   18.8004  -26.0115 H   0  0  0  0  0  0  0  0  0  0  0  0
   -0.0667   18.2177  -26.7215 H   0  0  0  0  0  0  0  0  0  0  0  0
    1.7720   18.7290  -28.0349 H   0  0  0  0  0  0  0  0  0  0  0  0
    1.1178   17.9887  -29.5351 H   0  0  0  0  0  0  0  0  0  0  0  0
    1.6385   19.7079  -29.5351 H   0  0  0  0  0  0  0  0  0  0  0  0
   -0.1101   21.5687  -30.6914 H   0  0  0  0  0  0  0  0  0  0  0  0
    0.2702   19.8533  -31.0977 H   0  0  0  0  0  0  0  0  0  0  0  0
   -1.3650   20.9619  -32.6807 H   0  0  0  0  0  0  0  0  0  0  0  0
   -1.9846   19.4612  -31.8611 H   0  0  0  0  0  0  0  0  0  0  0  0
  1  2  1  0
  2  3  1  0
  3  4  1  0
  4  5  1  0
  3  6  1  0
  6  7  1  0
  7  8  1  0
  8  9  1  0
  9 10  2  0
 10 11  1  0
 11 12  2  0
 12 13  1  0
 12 14  1  0
 14 15  2  0
 15 16  1  0
 16 17  2  0
 17 18  1  0
 18 19  2  0
 11 20  1  0
 20 21  2  0
 21 22  1  0
 22 23  2  0
 23 24  1  0
 24 25  1  0
 24 26  2  0
 26 27  1  0
 27 28  1  0
 19  9  1  0
 26 20  1  0
 28 10  1  0
 19 14  1  0
  1 29  1  0
  1 30  1  0
  1 31  1  0
  2 32  1  0
  2 33  1  0
  4 34  1  0
  4 35  1  0
  5 36  1  0
  5 37  1  0
  5 38  1  0
  6 39  1  0
  6 40  1  0
  7 41  1  0
  7 42  1  0
  8 43  1  0
  8 44  1  0
 13 45  1  0
 13 46  1  0
 13 47  1  0
 15 48  1  0
 16 49  1  0
 17 50  1  0
 18 51  1  0
 21 52  1  0
 22 53  1  0
 23 54  1  0
 25 55  1  0
 25 56  1  0
 25 57  1  0
 27 58  1  0
 27 59  1  0
 28 60  1  0
 28 61  1  0
M  CHG  3   8   1  12   1  24   1
M  END
>  <UniqueID>  (17) 
17

>  <SMILES>  (17) 
CCN(CC)CC[NH2+]c1c2c([n+](C)c3ccccc13)-c1ccc[n+](C)c1CC2

>  <Energy>  (17) 
102.02507783956716

>  <Genealogy>  (17) 
CCN(CC)CC[NH2+]c1c2c([n+](C)c3ccccc13)-c1ccc[n+](C)c1CC2 (protonated)
CCN(CC)CC[NH2+]c1c2c([n+](C)c3ccccc13)-c1ccc[n+](C)c1CC2 (3D coordinates assigned)
CCN(CC)CC[NH2+]c1c2c([n+](C)c3ccccc13)-c1ccc[n+](C)c1CC2 (nonaromatic ring conformer: 102.02507783956716 kcal/mol)

>  <smiles>  (17) 
CCN(CC)CCNc1c2c([n+](C)c3ccccc13)-c1ccc[n+](C)c1CC2

>  <score_type>  (17) 
oracle

>  <origin>  (17) 
adg

>  <m_score__min__energy>  (17) 
-8.0999999999999996

>  <m_primary>  (17) 
energy

$$$$
17:0
     RDKit          3D

 62 64  0  0  0  0  0  0  0  0999 V2000
   -6.1220   25.6220  -29.7150 C   0  0  0  0  0  0  0  0  0  0  0  0
   -6.3690   24.5730  -30.7940 C   0  0  0  0  0  0  0  0  0  0  0  0
   -6.9310   23.3520  -30.2120 N   0  0  0  0  0  0  0  0  0  0  0  0
   -7.5280   22.2780  -30.9660 C   0  0  0  0  0  0  0  0  0  0  0  0
   -8.9140   22.2760  -31.1580 C   0  0  0  0  0  0  0  0  0  0  0  0
   -9.5250   21.2590  -31.8840 C   0  0  0  0  0  0  0  0  0  0  0  0
   -8.7610   20.2310  -32.4400 C   0  0  0  0  0  0  0  0  0  0  0  0
   -7.3540   20.2000  -32.2830 C   0  0  0  0  0  0  0  0  0  0  0  0
   -6.5510   19.1220  -32.8650 N   0  0  0  0  0  0  0  0  0  0  0  0
   -6.0530   19.2670  -34.2530 C   0  0  0  0  0  0  0  0  0  0  0  0
   -5.2330   18.0800  -34.7850 C   0  0  0  0  0  0  0  0  0  0  0  0
   -4.4580   17.3860  -33.7420 N   0  0  0  0  0  0  0  0  0  0  0  0
   -3.3740   18.2170  -33.1520 C   0  0  0  0  0  0  0  0  0  0  0  0
   -2.7660   19.1880  -34.1760 C   0  0  0  0  0  0  0  0  0  0  0  0
   -3.1210   20.5680  -33.8320 N   0  0  0  0  0  0  0  0  0  0  0  0
   -2.5010   20.9520  -32.5590 C   0  0  0  0  0  0  0  0  0  0  0  0
   -3.3010   22.0650  -31.8630 C   0  0  0  0  0  0  0  0  0  0  0  0
   -2.7270   22.5220  -30.5810 N   0  0  0  0  0  0  0  0  0  0  0  0
   -1.9500   21.5300  -29.8100 C   0  0  0  0  0  0  0  0  0  0  0  0
   -2.7120   21.0360  -28.5720 C   0  0  0  0  0  0  0  0  0  0  0  0
   -3.1660   22.1260  -27.8010 O   0  0  0  0  0  0  0  0  0  0  0  0
   -4.1430   22.8330  -28.5360 C   0  0  0  0  0  0  0  0  0  0  0  0
   -3.5290   23.4770  -29.7890 C   0  0  0  0  0  0  0  0  0  0  0  0
   -5.3900   16.8730  -32.7270 C   0  0  0  0  0  0  0  0  0  0  0  0
   -6.1490   17.9900  -32.0030 C   0  0  0  0  0  0  0  0  0  0  0  0
   -6.7560   21.2450  -31.5360 C   0  0  0  0  0  0  0  0  0  0  0  0
   -6.2308   25.1600  -28.7227 H   0  0  0  0  0  0  0  0  0  0  0  0
   -5.1043   26.0255  -29.8220 H   0  0  0  0  0  0  0  0  0  0  0  0
   -6.8528   26.4372  -29.8220 H   0  0  0  0  0  0  0  0  0  0  0  0
   -7.0741   24.9770  -31.5353 H   0  0  0  0  0  0  0  0  0  0  0  0
   -5.4099   24.3267  -31.2731 H   0  0  0  0  0  0  0  0  0  0  0  0
   -6.8730   23.2540  -29.1740 H   0  0  0  0  0  0  0  0  0  0  0  0
   -9.5252   23.0850  -30.7315 H   0  0  0  0  0  0  0  0  0  0  0  0
  -10.6164   21.2646  -32.0209 H   0  0  0  0  0  0  0  0  0  0  0  0
   -9.2599   19.4326  -33.0089 H   0  0  0  0  0  0  0  0  0  0  0  0
   -6.9222   19.4025  -34.9134 H   0  0  0  0  0  0  0  0  0  0  0  0
   -5.3689   20.1283  -34.2420 H   0  0  0  0  0  0  0  0  0  0  0  0
   -5.9239   17.3575  -35.2440 H   0  0  0  0  0  0  0  0  0  0  0  0
   -4.5106   18.4848  -35.5091 H   0  0  0  0  0  0  0  0  0  0  0  0
   -4.0200   16.5440  -34.1880 H   0  0  0  0  0  0  0  0  0  0  0  0
   -3.7885   18.7982  -32.3151 H   0  0  0  0  0  0  0  0  0  0  0  0
   -2.5760   17.5404  -32.8123 H   0  0  0  0  0  0  0  0  0  0  0  0
   -1.6711   19.0821  -34.1727 H   0  0  0  0  0  0  0  0  0  0  0  0
   -3.1611   18.9524  -35.1752 H   0  0  0  0  0  0  0  0  0  0  0  0
   -2.7350   21.1890  -34.5840 H   0  0  0  0  0  0  0  0  0  0  0  0
   -2.4618   20.0725  -31.8995 H   0  0  0  0  0  0  0  0  0  0  0  0
   -1.4882   21.3285  -32.7650 H   0  0  0  0  0  0  0  0  0  0  0  0
   -3.3526   22.9278  -32.5433 H   0  0  0  0  0  0  0  0  0  0  0  0
   -4.2890   21.6412  -31.6300 H   0  0  0  0  0  0  0  0  0  0  0  0
   -1.7309   20.6691  -30.4587 H   0  0  0  0  0  0  0  0  0  0  0  0
   -1.0250   22.0165  -29.4669 H   0  0  0  0  0  0  0  0  0  0  0  0
   -3.5761   20.4366  -28.8947 H   0  0  0  0  0  0  0  0  0  0  0  0
   -2.0334   20.4256  -27.9581 H   0  0  0  0  0  0  0  0  0  0  0  0
   -4.9373   22.1362  -28.8419 H   0  0  0  0  0  0  0  0  0  0  0  0
   -4.5541   23.6291  -27.8979 H   0  0  0  0  0  0  0  0  0  0  0  0
   -4.3419   23.8641  -30.4210 H   0  0  0  0  0  0  0  0  0  0  0  0
   -2.8572   24.2818  -29.4559 H   0  0  0  0  0  0  0  0  0  0  0  0
   -6.1197   16.2141  -33.2203 H   0  0  0  0  0  0  0  0  0  0  0  0
   -4.7972   16.3322  -31.9746 H   0  0  0  0  0  0  0  0  0  0  0  0
   -7.0580   17.5561  -31.5610 H   0  0  0  0  0  0  0  0  0  0  0  0
   -5.4571   18.4006  -31.2529 H   0  0  0  0  0  0  0  0  0  0  0  0
   -5.6648   21.2505  -31.3976 H   0  0  0  0  0  0  0  0  0  0  0  0
  1  2  1  0
  2  3  1  0
  3  4  1  0
  4  5  2  0
  5  6  1  0
  6  7  2  0
  7  8  1  0
  8  9  1  0
  9 10  1  0
 10 11  1  0
 11 12  1  0
 12 13  1  0
 13 14  1  0
 14 15  1  0
 15 16  1  0
 16 17  1  0
 17 18  1  0
 18 19  1  0
 19 20  1  0
 20 21  1  0
 21 22  1  0
 22 23  1  0
 12 24  1  0
 24 25  1  0
  8 26  2  0
 26  4  1  0
 25  9  1  0
 23 18  1  0
  1 27  1  0
  1 28  1  0
  1 29  1  0
  2 30  1  0
  2 31  1  0
  3 32  1  0
  5 33  1  0
  6 34  1  0
  7 35  1  0
 10 36  1  0
 10 37  1  0
 11 38  1  0
 11 39  1  0
 12 40  1  0
 13 41  1  0
 13 42  1  0
 14 43  1  0
 14 44  1  0
 15 45  1  0
 16 46  1  0
 16 47  1  0
 17 48  1  0
 17 49  1  0
 19 50  1  0
 19 51  1  0
 20 52  1  0
 20 53  1  0
 22 54  1  0
 22 55  1  0
 23 56  1  0
 23 57  1  0
 24 58  1  0
 24 59  1  0
 25 60  1  0
 25 61  1  0
 26 62  1  0
M  CHG  1  12   1
M  END
>  <UniqueID>  (18) 
18

>  <SMILES>  (18) 
CCNc1cccc(N2CC[NH+](CCNCCN3CCOCC3)CC2)c1

>  <Energy>  (18) 
78.65342194605395

>  <Genealogy>  (18) 
CCNc1cccc(N2CC[NH+](CCNCCN3CCOCC3)CC2)c1 (protonated)
CCNc1cccc(N2CC[NH+](CCNCCN3CCOCC3)CC2)c1 (3D coordinates assigned)
CCNc1cccc(N2CC[NH+](CCNCCN3CCOCC3)CC2)c1 (nonaromatic ring conformer: 78.65342194605395 kcal/mol)

>  <smiles>  (18) 
CCNc1cccc(N2CCN(CCNCCN3CCOCC3)CC2)c1

>  <score_type>  (18) 
oracle

>  <origin>  (18) 
adg

>  <m_score__min__energy>  (18) 
-6.5099999999999998

>  <m_primary>  (18) 
energy

$$$$
18:0
     RDKit          3D

 58 60  0  0  0  0  0  0  0  0999 V2000
   -1.3070   25.7640  -27.1280 C   0  0  0  0  0  0  0  0  0  0  0  0
   -1.2960   25.5990  -28.6490 C   0  0  0  0  0  0  0  0  0  0  0  0
   -2.4230   24.7510  -29.1060 N   0  0  0  0  0  0  0  0  0  0  0  0
   -3.3920   24.5080  -28.0110 C   0  0  0  0  0  0  0  0  0  0  0  0
   -3.3070   23.0640  -27.5200 C   0  0  0  0  0  0  0  0  0  0  0  0
   -1.9370   23.4770  -29.6990 C   0  0  0  0  0  0  0  0  0  0  0  0
   -2.9300   22.9520  -30.7500 C   0  0  0  0  0  0  0  0  0  0  0  0
   -3.9080   23.9670  -31.1750 N   0  0  0  0  0  0  0  0  0  0  0  0
   -5.1740   23.9120  -30.4280 C   0  0  0  0  0  0  0  0  0  0  0  0
   -6.1660   22.9970  -31.1500 C   0  0  0  0  0  0  0  0  0  0  0  0
   -5.6960   22.6610  -32.5040 N   0  0  0  0  0  0  0  0  0  0  0  0
   -5.7990   21.2290  -32.7370 C   0  0  0  0  0  0  0  0  0  0  0  0
   -7.0410   20.5560  -32.5790 C   0  0  0  0  0  0  0  0  0  0  0  0
   -8.2420   21.2610  -32.3130 C   0  0  0  0  0  0  0  0  0  0  0  0
   -9.4320   20.5850  -32.0590 C   0  0  0  0  0  0  0  0  0  0  0  0
   -9.4590   19.1990  -32.0620 C   0  0  0  0  0  0  0  0  0  0  0  0
   -8.3080   18.4800  -32.3710 C   0  0  0  0  0  0  0  0  0  0  0  0
   -7.0920   19.1380  -32.6900 C   0  0  0  0  0  0  0  0  0  0  0  0
   -5.9760   18.4280  -33.0870 N   0  0  0  0  0  0  0  0  0  0  0  0
   -6.1110   17.0070  -33.4870 C   0  0  0  0  0  0  0  0  0  0  0  0
   -4.7460   19.0500  -33.1660 C   0  0  0  0  0  0  0  0  0  0  0  0
   -3.5510   18.3020  -33.3290 C   0  0  0  0  0  0  0  0  0  0  0  0
   -2.3220   18.9310  -33.5100 C   0  0  0  0  0  0  0  0  0  0  0  0
   -2.2480   20.3170  -33.5300 C   0  0  0  0  0  0  0  0  0  0  0  0
   -0.5680   21.1760  -33.8320 Br  0  0  0  0  0  0  0  0  0  0  0  0
   -3.3930   21.0800  -33.3120 C   0  0  0  0  0  0  0  0  0  0  0  0
   -4.6480   20.4660  -33.0700 C   0  0  0  0  0  0  0  0  0  0  0  0
   -1.2411   24.7748  -26.6514 H   0  0  0  0  0  0  0  0  0  0  0  0
   -0.4478   26.3777  -26.8195 H   0  0  0  0  0  0  0  0  0  0  0  0
   -2.2401   26.2582  -26.8195 H   0  0  0  0  0  0  0  0  0  0  0  0
   -1.3803   26.5905  -29.1178 H   0  0  0  0  0  0  0  0  0  0  0  0
   -0.3538   25.1109  -28.9389 H   0  0  0  0  0  0  0  0  0  0  0  0
   -3.1684   25.1867  -27.1747 H   0  0  0  0  0  0  0  0  0  0  0  0
   -4.4074   24.6908  -28.3925 H   0  0  0  0  0  0  0  0  0  0  0  0
   -3.3062   23.0502  -26.4201 H   0  0  0  0  0  0  0  0  0  0  0  0
   -4.1734   22.4982  -27.8932 H   0  0  0  0  0  0  0  0  0  0  0  0
   -2.3802   22.6038  -27.8932 H   0  0  0  0  0  0  0  0  0  0  0  0
   -0.9623   23.6507  -30.1784 H   0  0  0  0  0  0  0  0  0  0  0  0
   -1.8411   22.7286  -28.8986 H   0  0  0  0  0  0  0  0  0  0  0  0
   -2.3634   22.6200  -31.6325 H   0  0  0  0  0  0  0  0  0  0  0  0
   -3.4919   22.1267  -30.2884 H   0  0  0  0  0  0  0  0  0  0  0  0
   -3.4910   24.9240  -31.1090 H   0  0  0  0  0  0  0  0  0  0  0  0
   -4.9847   23.5197  -29.4179 H   0  0  0  0  0  0  0  0  0  0  0  0
   -5.5986   24.9245  -30.3603 H   0  0  0  0  0  0  0  0  0  0  0  0
   -6.2842   22.0691  -30.5712 H   0  0  0  0  0  0  0  0  0  0  0  0
   -7.1263   23.5263  -31.2373 H   0  0  0  0  0  0  0  0  0  0  0  0
   -4.7190   22.9990  -32.6460 H   0  0  0  0  0  0  0  0  0  0  0  0
   -6.2270   23.1970  -33.2260 H   0  0  0  0  0  0  0  0  0  0  0  0
   -8.2332   22.3609  -32.3073 H   0  0  0  0  0  0  0  0  0  0  0  0
  -10.3526   21.1516  -31.8555 H   0  0  0  0  0  0  0  0  0  0  0  0
  -10.3909   18.6670  -31.8200 H   0  0  0  0  0  0  0  0  0  0  0  0
   -8.3417   17.3805  -32.3678 H   0  0  0  0  0  0  0  0  0  0  0  0
   -6.1709   16.3769  -32.5873 H   0  0  0  0  0  0  0  0  0  0  0  0
   -7.0253   16.8798  -34.0853 H   0  0  0  0  0  0  0  0  0  0  0  0
   -5.2370   16.7099  -34.0853 H   0  0  0  0  0  0  0  0  0  0  0  0
   -3.5966   17.2031  -33.3120 H   0  0  0  0  0  0  0  0  0  0  0  0
   -1.4098   18.3296  -33.6371 H   0  0  0  0  0  0  0  0  0  0  0  0
   -3.3223   22.1776  -33.3279 H   0  0  0  0  0  0  0  0  0  0  0  0
  1  2  1  0
  2  3  1  0
  3  4  1  0
  4  5  1  0
  3  6  1  0
  6  7  1  0
  7  8  1  0
  8  9  1  0
  9 10  1  0
 10 11  1  0
 11 12  1  0
 12 13  2  0
 13 14  1  0
 14 15  2  0
 15 16  1  0
 16 17  2  0
 17 18  1  0
 18 19  2  0
 19 20  1  0
 19 21  1  0
 21 22  2  0
 22 23  1  0
 23 24  2  0
 24 25  1  0
 24 26  1  0
 26 27  2  0
 27 12  1  0
 18 13  1  0
 27 21  1  0
  1 28  1  0
  1 29  1  0
  1 30  1  0
  2 31  1  0
  2 32  1  0
  4 33  1  0
  4 34  1  0
  5 35  1  0
  5 36  1  0
  5 37  1  0
  6 38  1  0
  6 39  1  0
  7 40  1  0
  7 41  1  0
  8 42  1  0
  9 43  1  0
  9 44  1  0
 10 45  1  0
 10 46  1  0
 11 47  1  0
 11 48  1  0
 14 49  1  0
 15 50  1  0
 16 51  1  0
 17 52  1  0
 20 53  1  0
 20 54  1  0
 20 55  1  0
 22 56  1  0
 23 57  1  0
 26 58  1  0
M  CHG  2  11   1  19   1
M  END
>  <UniqueID>  (19) 
19

>  <SMILES>  (19) 
CCN(CC)CCNCC[NH2+]c1c2ccccc2[n+](C)c2ccc(Br)cc12

>  <Energy>  (19) 
86.51692396077671

>  <Genealogy>  (19) 
CCN(CC)CCNCC[NH2+]c1c2ccccc2[n+](C)c2ccc(Br)cc12 (protonated)
CCN(CC)CCNCC[NH2+]c1c2ccccc2[n+](C)c2ccc(Br)cc12 (3D coordinates assigned)
CCN(CC)CCNCC[NH2+]c1c2ccccc2[n+](C)c2ccc(Br)cc12 (optimized conformer: 86.51692396077671 kcal/mol)

>  <smiles>  (19) 
CCN(CC)CCNCCNc1c2ccccc2[n+](C)c2ccc(Br)cc12

>  <score_type>  (19) 
oracle

>  <origin>  (19) 
adg

>  <m_score__min__energy>  (19) 
-8.2899999999999991

>  <m_primary>  (19) 
energy

$$$$
19:0
     RDKit          3D

 68 71  0  0  0  0  0  0  0  0999 V2000
    0.7580   22.2670  -35.7910 C   0  0  0  0  0  0  0  0  0  0  0  0
    0.2940   21.0300  -35.0240 C   0  0  0  0  0  0  0  0  0  0  0  0
   -1.1010   21.1850  -34.5760 N   0  0  0  0  0  0  0  0  0  0  0  0
   -1.3480   20.5190  -33.2850 C   0  0  0  0  0  0  0  0  0  0  0  0
   -2.5060   21.1640  -32.5050 C   0  0  0  0  0  0  0  0  0  0  0  0
   -3.6460   21.4270  -33.3870 N   0  0  0  0  0  0  0  0  0  0  0  0
   -4.9940   21.0820  -33.0180 C   0  0  0  0  0  0  0  0  0  0  0  0
   -5.7770   21.9960  -32.2940 C   0  0  0  0  0  0  0  0  0  0  0  0
   -5.2770   23.2760  -31.9690 C   0  0  0  0  0  0  0  0  0  0  0  0
   -6.0170   24.1490  -31.1770 C   0  0  0  0  0  0  0  0  0  0  0  0
   -7.2590   23.7630  -30.6890 C   0  0  0  0  0  0  0  0  0  0  0  0
   -7.7850   22.5150  -31.0200 C   0  0  0  0  0  0  0  0  0  0  0  0
   -7.0770   21.6190  -31.8640 C   0  0  0  0  0  0  0  0  0  0  0  0
   -7.6130   20.4050  -32.2510 N   0  0  0  0  0  0  0  0  0  0  0  0
   -9.0520   20.1330  -32.0360 C   0  0  0  0  0  0  0  0  0  0  0  0
   -6.8160   19.4630  -32.8780 C   0  0  0  0  0  0  0  0  0  0  0  0
   -7.2600   18.1340  -33.0910 C   0  0  0  0  0  0  0  0  0  0  0  0
   -6.4890   17.2220  -33.8100 C   0  0  0  0  0  0  0  0  0  0  0  0
   -5.2430   17.5990  -34.3270 C   0  0  0  0  0  0  0  0  0  0  0  0
   -4.4510   16.7290  -35.0920 O   0  0  0  0  0  0  0  0  0  0  0  0
   -3.2250   16.1500  -34.6470 C   0  0  0  0  0  0  0  0  0  0  0  0
   -3.2980   14.6190  -34.8420 C   0  0  0  0  0  0  0  0  0  0  0  0
   -3.6800   13.7910  -33.6460 N   0  0  0  0  0  0  0  0  0  0  0  0
   -4.6890   12.8070  -34.1360 C   0  0  0  0  0  0  0  0  0  0  0  0
   -2.5070   13.0490  -33.0790 C   0  0  0  0  0  0  0  0  0  0  0  0
   -2.6440   12.7700  -31.5650 C   0  0  0  0  0  0  0  0  0  0  0  0
   -3.9950   12.6040  -31.2020 O   0  0  0  0  0  0  0  0  0  0  0  0
   -4.6960   13.8310  -31.3290 C   0  0  0  0  0  0  0  0  0  0  0  0
   -4.3140   14.6410  -32.5960 C   0  0  0  0  0  0  0  0  0  0  0  0
   -4.7620   18.8830  -34.0740 C   0  0  0  0  0  0  0  0  0  0  0  0
   -5.5120   19.8110  -33.3200 C   0  0  0  0  0  0  0  0  0  0  0  0
    1.0522   23.0514  -35.0782 H   0  0  0  0  0  0  0  0  0  0  0  0
    1.6189   22.0047  -36.4235 H   0  0  0  0  0  0  0  0  0  0  0  0
   -0.0630   22.6356  -36.4235 H   0  0  0  0  0  0  0  0  0  0  0  0
    0.3663   20.1504  -35.6806 H   0  0  0  0  0  0  0  0  0  0  0  0
    0.9360   20.9018  -34.1401 H   0  0  0  0  0  0  0  0  0  0  0  0
   -1.3450   22.2020  -34.5100 H   0  0  0  0  0  0  0  0  0  0  0  0
   -1.7310   20.7450  -35.2870 H   0  0  0  0  0  0  0  0  0  0  0  0
   -1.5935   19.4634  -33.4733 H   0  0  0  0  0  0  0  0  0  0  0  0
   -0.4371   20.6184  -32.6765 H   0  0  0  0  0  0  0  0  0  0  0  0
   -2.8220   20.4834  -31.7007 H   0  0  0  0  0  0  0  0  0  0  0  0
   -2.1584   22.1192  -32.0845 H   0  0  0  0  0  0  0  0  0  0  0  0
   -3.4870   21.9520  -34.2760 H   0  0  0  0  0  0  0  0  0  0  0  0
   -4.2914   23.5866  -32.3461 H   0  0  0  0  0  0  0  0  0  0  0  0
   -5.6180   25.1456  -30.9372 H   0  0  0  0  0  0  0  0  0  0  0  0
   -7.8290   24.4438  -30.0397 H   0  0  0  0  0  0  0  0  0  0  0  0
   -8.7661   22.2191  -30.6202 H   0  0  0  0  0  0  0  0  0  0  0  0
   -9.2604   20.0936  -30.9566 H   0  0  0  0  0  0  0  0  0  0  0  0
   -9.6493   20.9341  -32.4958 H   0  0  0  0  0  0  0  0  0  0  0  0
   -9.3157   19.1691  -32.4958 H   0  0  0  0  0  0  0  0  0  0  0  0
   -8.2304   17.8165  -32.6816 H   0  0  0  0  0  0  0  0  0  0  0  0
   -6.8615   16.1998  -33.9724 H   0  0  0  0  0  0  0  0  0  0  0  0
   -2.3889   16.5580  -35.2339 H   0  0  0  0  0  0  0  0  0  0  0  0
   -3.0650   16.3843  -33.5842 H   0  0  0  0  0  0  0  0  0  0  0  0
   -4.0379   14.4209  -35.6315 H   0  0  0  0  0  0  0  0  0  0  0  0
   -2.2683   14.3142  -35.0805 H   0  0  0  0  0  0  0  0  0  0  0  0
   -5.1808   12.3274  -33.2768 H   0  0  0  0  0  0  0  0  0  0  0  0
   -5.4421   13.3271  -34.7462 H   0  0  0  0  0  0  0  0  0  0  0  0
   -4.1880   12.0411  -34.7462 H   0  0  0  0  0  0  0  0  0  0  0  0
   -2.4124   12.0878  -33.6055 H   0  0  0  0  0  0  0  0  0  0  0  0
   -1.6184   13.6823  -33.2180 H   0  0  0  0  0  0  0  0  0  0  0  0
   -2.0896   11.8529  -31.3167 H   0  0  0  0  0  0  0  0  0  0  0  0
   -2.2358   13.6290  -31.0122 H   0  0  0  0  0  0  0  0  0  0  0  0
   -5.7734   13.6126  -31.3685 H   0  0  0  0  0  0  0  0  0  0  0  0
   -4.4235   14.4476  -30.4598 H   0  0  0  0  0  0  0  0  0  0  0  0
   -5.2250   15.0957  -33.0123 H   0  0  0  0  0  0  0  0  0  0  0  0
   -3.5819   15.4055  -32.2967 H   0  0  0  0  0  0  0  0  0  0  0  0
   -3.7791   19.1785  -34.4697 H   0  0  0  0  0  0  0  0  0  0  0  0
  1  2  1  0
  2  3  1  0
  3  4  1  0
  4  5  1  0
  5  6  1  0
  6  7  1  0
  7  8  2  0
  8  9  1  0
  9 10  2  0
 10 11  1  0
 11 12  2  0
 12 13  1  0
 13 14  2  0
 14 15  1  0
 14 16  1  0
 16 17  2  0
 17 18  1  0
 18 19  2  0
 19 20  1  0
 20 21  1  0
 21 22  1  0
 22 23  1  0
 23 24  1  0
 23 25  1  0
 25 26  1  0
 26 27  1  0
 27 28  1  0
 28 29  1  0
 19 30  1  0
 30 31  2  0
 31  7  1  0
 13  8  1  0
 31 16  1  0
 29 23  1  0
  1 32  1  0
  1 33  1  0
  1 34  1  0
  2 35  1  0
  2 36  1  0
  3 37  1  0
  3 38  1  0
  4 39  1  0
  4 40  1  0
  5 41  1  0
  5 42  1  0
  6 43  1  0
  9 44  1  0
 10 45  1  0
 11 46  1  0
 12 47  1  0
 15 48  1  0
 15 49  1  0
 15 50  1  0
 17 51  1  0
 18 52  1  0
 21 53  1  0
 21 54  1  0
 22 55  1  0
 22 56  1  0
 24 57  1  0
 24 58  1  0
 24 59  1  0
 25 60  1  0
 25 61  1  0
 26 62  1  0
 26 63  1  0
 28 64  1  0
 28 65  1  0
 29 66  1  0
 29 67  1  0
 30 68  1  0
M  CHG  3   3   1  14   1  23   1
M  END
>  <UniqueID>  (20) 
20

>  <SMILES>  (20) 
CC[NH2+]CCNc1c2ccccc2[n+](C)c2ccc(OCC[N+]3(C)CCOCC3)cc12

>  <Energy>  (20) 
114.76540073811101

>  <Genealogy>  (20) 
CC[NH2+]CCNc1c2ccccc2[n+](C)c2ccc(OCC[N+]3(C)CCOCC3)cc12 (protonated)
CC[NH2+]CCNc1c2ccccc2[n+](C)c2ccc(OCC[N+]3(C)CCOCC3)cc12 (3D coordinates assigned)
CC[NH2+]CCNc1c2ccccc2[n+](C)c2ccc(OCC[N+]3(C)CCOCC3)cc12 (nonaromatic ring conformer: 114.76540073811101 kcal/mol)

>  <smiles>  (20) 
CCNCCNc1c2ccccc2[n+](C)c2ccc(OCC[N+]3(C)CCOCC3)cc12

>  <score_type>  (20) 
oracle

>  <origin>  (20) 
adg

>  <m_score__min__energy>  (20) 
-7.4500000000000002

>  <m_primary>  (20) 
energy

$$$$
20:0
     RDKit          3D

 40 42  0  0  0  0  0  0  0  0999 V2000
   -5.6900   23.8580  -31.5090 C   0  0  0  0  0  0  0  0  0  0  0  0
   -5.3140   25.1900  -30.8590 C   0  0  0  0  0  0  0  0  0  0  0  0
   -5.9910   25.3360  -29.4980 C   0  0  0  0  0  0  0  0  0  0  0  0
   -3.8640   25.2630  -30.6810 N   0  0  0  0  0  0  0  0  0  0  0  0
   -3.1100   24.6400  -29.6300 C   0  0  0  0  0  0  0  0  0  0  0  0
   -2.1350   25.2740  -29.1470 O   0  0  0  0  0  0  0  0  0  0  0  0
   -3.4970   23.2800  -29.0620 C   0  0  2  0  0  0  0  0  0  0  0  0
   -3.2330   23.0600  -27.5550 C   0  0  2  0  0  0  0  0  0  0  0  0
   -1.7180   23.0940  -27.2490 C   0  0  0  0  0  0  0  0  0  0  0  0
   -1.2140   21.7840  -27.8660 C   0  0  0  0  0  0  0  0  0  0  0  0
   -2.4860   21.2340  -28.5400 C   0  0  1  0  0  0  0  0  0  0  0  0
   -3.5110   21.5740  -27.4750 C   0  0  0  0  0  0  0  0  0  0  0  0
   -2.9000   22.0670  -29.7030 N   0  0  2  0  0  0  0  0  0  0  0  0
   -1.8370   22.2630  -30.6810 C   0  0  0  0  0  0  0  0  0  0  0  0
   -0.8750   23.0450  -30.4390 O   0  0  0  0  0  0  0  0  0  0  0  0
   -1.8330   21.5260  -31.9670 C   0  0  0  0  0  0  0  0  0  0  0  0
   -2.9900   21.0950  -32.6440 C   0  0  0  0  0  0  0  0  0  0  0  0
   -2.7270   20.4270  -33.8300 C   0  0  0  0  0  0  0  0  0  0  0  0
   -1.0610   20.3650  -34.0390 S   0  0  0  0  0  0  0  0  0  0  0  0
   -0.6560   21.1820  -32.6290 C   0  0  0  0  0  0  0  0  0  0  0  0
   -5.8999   23.1143  -30.7261 H   0  0  0  0  0  0  0  0  0  0  0  0
   -6.5846   23.9947  -32.1342 H   0  0  0  0  0  0  0  0  0  0  0  0
   -4.8559   23.5067  -32.1342 H   0  0  0  0  0  0  0  0  0  0  0  0
   -5.6526   26.0032  -31.5178 H   0  0  0  0  0  0  0  0  0  0  0  0
   -5.2500   25.1762  -28.7009 H   0  0  0  0  0  0  0  0  0  0  0  0
   -6.4160   26.3464  -29.4064 H   0  0  0  0  0  0  0  0  0  0  0  0
   -6.7947   24.5905  -29.4064 H   0  0  0  0  0  0  0  0  0  0  0  0
   -4.5705   23.3589  -29.2885 H   0  0  0  0  0  0  0  0  0  0  0  0
   -3.7798   23.7744  -26.9220 H   0  0  0  0  0  0  0  0  0  0  0  0
   -1.2384   23.9640  -27.7212 H   0  0  0  0  0  0  0  0  0  0  0  0
   -1.4937   23.1831  -26.1758 H   0  0  0  0  0  0  0  0  0  0  0  0
   -0.4197   21.9699  -28.6039 H   0  0  0  0  0  0  0  0  0  0  0  0
   -0.7667   21.0940  -27.1353 H   0  0  0  0  0  0  0  0  0  0  0  0
   -2.3686   20.1907  -28.8681 H   0  0  0  0  0  0  0  0  0  0  0  0
   -4.5396   21.3073  -27.7594 H   0  0  0  0  0  0  0  0  0  0  0  0
   -3.4380   21.0768  -26.4965 H   0  0  0  0  0  0  0  0  0  0  0  0
   -3.6850   21.5630  -30.1780 H   0  0  0  0  0  0  0  0  0  0  0  0
   -4.0081   21.2719  -32.2668 H   0  0  0  0  0  0  0  0  0  0  0  0
   -3.4791   20.0097  -34.5157 H   0  0  0  0  0  0  0  0  0  0  0  0
    0.3647   21.4073  -32.2862 H   0  0  0  0  0  0  0  0  0  0  0  0
  1  2  1  0
  2  3  1  0
  2  4  1  0
  4  5  1  0
  5  6  2  0
  5  7  1  0
  7  8  1  0
  8  9  1  0
  9 10  1  0
 10 11  1  0
 11 12  1  0
 11 13  1  0
 13 14  1  0
 14 15  2  0
 14 16  1  0
 16 17  1  0
 17 18  2  0
 18 19  1  0
 19 20  1  0
 13  7  1  0
 20 16  2  0
 12  8  1  0
  1 21  1  0
  1 22  1  0
  1 23  1  0
  2 24  1  0
  3 25  1  0
  3 26  1  0
  3 27  1  0
  7 28  1  1
  8 29  1  1
  9 30  1  0
  9 31  1  0
 10 32  1  0
 10 33  1  0
 11 34  1  6
 12 35  1  0
 12 36  1  0
 13 37  1  6
 17 38  1  0
 18 39  1  0
 20 40  1  0
M  CHG  2   4  -1  13   1
M  END
>  <UniqueID>  (21) 
21

>  <SMILES>  (21) 
CC(C)[N-]C(=O)[C@@H]1[C@@H]2CCC(C2)[NH+]1C(=O)c1ccsc1

>  <Energy>  (21) 
106.0082856675995

>  <Genealogy>  (21) 
CC(C)[N-]C(=O)C1C2CCC(C2)[NH+]1C(=O)c1ccsc1 (protonated)
CC(C)[N-]C(=O)[C@@H]1[C@@H]2CCC(C2)[NH+]1C(=O)c1ccsc1 (chirality)
CC(C)[N-]C(=O)[C@@H]1[C@@H]2CCC(C2)[NH+]1C(=O)c1ccsc1 (3D coordinates assigned)
CC(C)[N-]C(=O)[C@@H]1[C@@H]2CCC(C2)[NH+]1C(=O)c1ccsc1 (nonaromatic ring conformer: 106.0082856675995 kcal/mol)

>  <smiles>  (21) 
CC(C)NC(=O)C1C2CCC(C2)N1C(=O)c1ccsc1

>  <score_type>  (21) 
oracle

>  <origin>  (21) 
adg

>  <m_score__min__energy>  (21) 
-7.9900000000000002

>  <m_primary>  (21) 
energy

$$$$
21:0
     RDKit          3D

 57 60  0  0  0  0  0  0  0  0999 V2000
   -3.4170   24.1660  -27.9330 C   0  0  0  0  0  0  0  0  0  0  0  0
   -3.0110   24.5830  -29.3550 C   0  0  0  0  0  0  0  0  0  0  0  0
   -4.0410   24.2860  -30.3770 N   0  0  0  0  0  0  0  0  0  0  0  0
   -5.0450   25.3650  -30.4980 C   0  0  0  0  0  0  0  0  0  0  0  0
   -6.3620   24.9670  -29.8370 C   0  0  0  0  0  0  0  0  0  0  0  0
   -4.6360   22.9350  -30.2190 C   0  0  0  0  0  0  0  0  0  0  0  0
   -3.6520   21.8610  -30.6940 C   0  0  0  0  0  0  0  0  0  0  0  0
   -3.1950   22.1020  -32.1390 C   0  0  0  0  0  0  0  0  0  0  0  0
   -4.3290   22.0390  -33.0600 N   0  0  0  0  0  0  0  0  0  0  0  0
   -5.3730   21.0620  -32.9160 C   0  0  0  0  0  0  0  0  0  0  0  0
   -5.1070   19.6960  -33.1160 C   0  0  0  0  0  0  0  0  0  0  0  0
   -6.1440   18.7500  -32.9120 C   0  0  0  0  0  0  0  0  0  0  0  0
   -7.3180   19.1550  -32.3080 N   0  0  0  0  0  0  0  0  0  0  0  0
   -8.1370   18.2020  -31.5360 C   0  0  0  0  0  0  0  0  0  0  0  0
   -7.6540   20.4940  -32.2900 C   0  0  0  0  0  0  0  0  0  0  0  0
   -8.9590   20.9260  -31.9490 C   0  0  0  0  0  0  0  0  0  0  0  0
   -9.2770   22.2840  -31.9110 C   0  0  0  0  0  0  0  0  0  0  0  0
   -8.3100   23.2380  -32.2100 C   0  0  0  0  0  0  0  0  0  0  0  0
   -7.0210   22.8410  -32.5570 C   0  0  0  0  0  0  0  0  0  0  0  0
   -6.6800   21.4730  -32.6080 C   0  0  0  0  0  0  0  0  0  0  0  0
   -5.9050   17.3520  -33.4120 C   0  0  0  0  0  0  0  0  0  0  0  0
   -6.8500   16.3110  -33.5600 C   0  0  0  0  0  0  0  0  0  0  0  0
   -6.3440   15.1670  -34.1630 C   0  0  0  0  0  0  0  0  0  0  0  0
   -4.7530   15.4560  -34.6050 S   0  0  0  0  0  0  0  0  0  0  0  0
   -4.6810   17.0120  -33.9820 C   0  0  0  0  0  0  0  0  0  0  0  0
   -3.6360   18.0130  -34.3400 C   0  0  0  0  0  0  0  0  0  0  0  0
   -3.6880   19.2190  -33.4030 C   0  0  0  0  0  0  0  0  0  0  0  0
   -2.8443   24.7542  -27.2008 H   0  0  0  0  0  0  0  0  0  0  0  0
   -4.4922   24.3492  -27.7901 H   0  0  0  0  0  0  0  0  0  0  0  0
   -3.2052   23.0961  -27.7901 H   0  0  0  0  0  0  0  0  0  0  0  0
   -2.8199   25.6663  -29.3585 H   0  0  0  0  0  0  0  0  0  0  0  0
   -2.1168   23.9995  -29.6193 H   0  0  0  0  0  0  0  0  0  0  0  0
   -4.6581   26.2720  -30.0105 H   0  0  0  0  0  0  0  0  0  0  0  0
   -5.2321   25.5499  -31.5661 H   0  0  0  0  0  0  0  0  0  0  0  0
   -6.2485   25.0013  -28.7434 H   0  0  0  0  0  0  0  0  0  0  0  0
   -7.1531   25.6662  -30.1456 H   0  0  0  0  0  0  0  0  0  0  0  0
   -6.6335   23.9467  -30.1456 H   0  0  0  0  0  0  0  0  0  0  0  0
   -4.8742   22.7653  -29.1586 H   0  0  0  0  0  0  0  0  0  0  0  0
   -5.5516   22.8744  -30.8256 H   0  0  0  0  0  0  0  0  0  0  0  0
   -2.7705   21.8704  -30.0360 H   0  0  0  0  0  0  0  0  0  0  0  0
   -4.1647   20.8885  -30.6565 H   0  0  0  0  0  0  0  0  0  0  0  0
   -2.7287   23.0958  -32.2087 H   0  0  0  0  0  0  0  0  0  0  0  0
   -2.4727   21.3197  -32.4153 H   0  0  0  0  0  0  0  0  0  0  0  0
   -4.4080   22.7510  -33.8210 H   0  0  0  0  0  0  0  0  0  0  0  0
   -7.9868   18.3768  -30.4604 H   0  0  0  0  0  0  0  0  0  0  0  0
   -9.1987   18.3446  -31.7859 H   0  0  0  0  0  0  0  0  0  0  0  0
   -7.8364   17.1738  -31.7859 H   0  0  0  0  0  0  0  0  0  0  0  0
   -9.7323   20.1808  -31.7109 H   0  0  0  0  0  0  0  0  0  0  0  0
  -10.2958   22.6012  -31.6437 H   0  0  0  0  0  0  0  0  0  0  0  0
   -8.5637   24.3077  -32.1723 H   0  0  0  0  0  0  0  0  0  0  0  0
   -6.2618   23.6011  -32.7935 H   0  0  0  0  0  0  0  0  0  0  0  0
   -7.8946   16.3995  -33.2267 H   0  0  0  0  0  0  0  0  0  0  0  0
   -6.8948   14.2285  -34.3237 H   0  0  0  0  0  0  0  0  0  0  0  0
   -2.6452   17.5412  -34.2642 H   0  0  0  0  0  0  0  0  0  0  0  0
   -3.8206   18.3597  -35.3675 H   0  0  0  0  0  0  0  0  0  0  0  0
   -3.2129   18.9422  -32.4503 H   0  0  0  0  0  0  0  0  0  0  0  0
   -3.1607   20.0446  -33.9034 H   0  0  0  0  0  0  0  0  0  0  0  0
  1  2  1  0
  2  3  1  0
  3  4  1  0
  4  5  1  0
  3  6  1  0
  6  7  1  0
  7  8  1  0
  8  9  1  0
  9 10  1  0
 10 11  2  0
 11 12  1  0
 12 13  2  0
 13 14  1  0
 13 15  1  0
 15 16  2  0
 16 17  1  0
 17 18  2  0
 18 19  1  0
 19 20  2  0
 12 21  1  0
 21 22  1  0
 22 23  2  0
 23 24  1  0
 24 25  1  0
 25 26  1  0
 26 27  1  0
 20 10  1  0
 25 21  2  0
 27 11  1  0
 20 15  1  0
  1 28  1  0
  1 29  1  0
  1 30  1  0
  2 31  1  0
  2 32  1  0
  4 33  1  0
  4 34  1  0
  5 35  1  0
  5 36  1  0
  5 37  1  0
  6 38  1  0
  6 39  1  0
  7 40  1  0
  7 41  1  0
  8 42  1  0
  8 43  1  0
  9 44  1  0
 14 45  1  0
 14 46  1  0
 14 47  1  0
 16 48  1  0
 17 49  1  0
 18 50  1  0
 19 51  1  0
 22 52  1  0
 23 53  1  0
 26 54  1  0
 26 55  1  0
 27 56  1  0
 27 57  1  0
M  CHG  1  13   1
M  END
>  <UniqueID>  (22) 
22

>  <SMILES>  (22) 
CCN(CC)CCCNc1c2c([n+](C)c3ccccc13)-c1ccsc1CC2

>  <Energy>  (22) 
117.0018313605211

>  <Genealogy>  (22) 
CCN(CC)CCCNc1c2c([n+](C)c3ccccc13)-c1ccsc1CC2 (3D coordinates assigned)
CCN(CC)CCCNc1c2c([n+](C)c3ccccc13)-c1ccsc1CC2 (nonaromatic ring conformer: 117.0018313605211 kcal/mol)

>  <smiles>  (22) 
CCN(CC)CCCNc1c2c([n+](C)c3ccccc13)-c1ccsc1CC2

>  <score_type>  (22) 
oracle

>  <origin>  (22) 
adg

>  <m_score__min__energy>  (22) 
-9.1699999999999999

>  <m_primary>  (22) 
energy

$$$$
22:0
     RDKit          3D

 79 83  0  0  0  0  0  0  0  0999 V2000
   -2.6800   20.0410  -27.3330 C   0  0  0  0  0  0  0  0  0  0  0  0
   -2.4300   21.1550  -28.3530 C   0  0  0  0  0  0  0  0  0  0  0  0
   -1.4900   20.7020  -29.4020 N   0  0  0  0  0  0  0  0  0  0  0  0
   -0.1570   20.4110  -28.8280 C   0  0  0  0  0  0  0  0  0  0  0  0
   -1.3990   21.7310  -30.4610 C   0  0  0  0  0  0  0  0  0  0  0  0
   -1.2920   21.1150  -31.8720 C   0  0  0  0  0  0  0  0  0  0  0  0
   -2.6660   20.7920  -32.4520 C   0  0  0  0  0  0  0  0  0  0  0  0
   -3.5820   20.3370  -31.4040 N   0  0  0  0  0  0  0  0  0  0  0  0
   -4.9850   20.3060  -31.6370 C   0  0  0  0  0  0  0  0  0  0  0  0
   -5.6320   19.1810  -32.1990 C   0  0  0  0  0  0  0  0  0  0  0  0
   -4.9020   18.0240  -32.5520 C   0  0  0  0  0  0  0  0  0  0  0  0
   -5.5350   16.9270  -33.1280 C   0  0  0  0  0  0  0  0  0  0  0  0
   -6.8990   16.9700  -33.4030 C   0  0  0  0  0  0  0  0  0  0  0  0
   -7.6370   18.1040  -33.0830 C   0  0  0  0  0  0  0  0  0  0  0  0
   -7.0480   19.2220  -32.4430 C   0  0  0  0  0  0  0  0  0  0  0  0
   -7.7830   20.3420  -32.1010 N   0  0  0  0  0  0  0  0  0  0  0  0
   -9.2440   20.3910  -32.3100 C   0  0  0  0  0  0  0  0  0  0  0  0
   -7.1350   21.4120  -31.5460 C   0  0  0  0  0  0  0  0  0  0  0  0
   -7.6810   22.6020  -31.2040 N   0  0  0  0  0  0  0  0  0  0  0  0
   -6.6620   23.3330  -30.7300 C   0  0  0  0  0  0  0  0  0  0  0  0
   -6.7360   24.6390  -30.2490 C   0  0  0  0  0  0  0  0  0  0  0  0
   -5.5460   25.2480  -29.8130 C   0  0  0  0  0  0  0  0  0  0  0  0
   -4.3110   24.5700  -29.9180 C   0  0  0  0  0  0  0  0  0  0  0  0
   -3.1250   25.2950  -29.6930 O   0  0  0  0  0  0  0  0  0  0  0  0
   -2.0020   24.8080  -28.9440 C   0  0  0  0  0  0  0  0  0  0  0  0
   -2.3450   24.6900  -27.4230 C   0  0  0  0  0  0  0  0  0  0  0  0
   -1.4160   25.3480  -26.3900 N   0  0  0  0  0  0  0  0  0  0  0  0
   -0.5420   24.2690  -25.8000 C   0  0  0  0  0  0  0  0  0  0  0  0
   -2.1550   26.0660  -25.2960 C   0  0  0  0  0  0  0  0  0  0  0  0
   -1.2290   26.7390  -24.2420 C   0  0  0  0  0  0  0  0  0  0  0  0
    0.1480   27.1210  -24.7850 C   0  0  0  0  0  0  0  0  0  0  0  0
    0.0900   27.4500  -26.2680 C   0  0  0  0  0  0  0  0  0  0  0  0
   -0.5950   26.3600  -27.1280 C   0  0  0  0  0  0  0  0  0  0  0  0
   -4.2760   23.2230  -30.3490 C   0  0  0  0  0  0  0  0  0  0  0  0
   -5.4710   22.6490  -30.7890 C   0  0  0  0  0  0  0  0  0  0  0  0
   -5.7720   21.4090  -31.3260 C   0  0  0  0  0  0  0  0  0  0  0  0
   -2.5886   20.4484  -26.3153 H   0  0  0  0  0  0  0  0  0  0  0  0
   -3.6919   19.6338  -27.4754 H   0  0  0  0  0  0  0  0  0  0  0  0
   -1.9392   19.2404  -27.4754 H   0  0  0  0  0  0  0  0  0  0  0  0
   -3.3847   21.4371  -28.8209 H   0  0  0  0  0  0  0  0  0  0  0  0
   -1.9901   22.0187  -27.8329 H   0  0  0  0  0  0  0  0  0  0  0  0
   -0.2197   20.4247  -27.7299 H   0  0  0  0  0  0  0  0  0  0  0  0
    0.1781   19.4185  -29.1638 H   0  0  0  0  0  0  0  0  0  0  0  0
    0.5612   21.1735  -29.1638 H   0  0  0  0  0  0  0  0  0  0  0  0
   -2.2988   22.3623  -30.4184 H   0  0  0  0  0  0  0  0  0  0  0  0
   -0.4861   22.3178  -30.2810 H   0  0  0  0  0  0  0  0  0  0  0  0
   -0.7839   21.8301  -32.5357 H   0  0  0  0  0  0  0  0  0  0  0  0
   -0.7231   20.1767  -31.7945 H   0  0  0  0  0  0  0  0  0  0  0  0
   -3.0791   21.6956  -32.9240 H   0  0  0  0  0  0  0  0  0  0  0  0
   -2.5539   19.9878  -33.1941 H   0  0  0  0  0  0  0  0  0  0  0  0
   -3.2450   20.0450  -30.4610 H   0  0  0  0  0  0  0  0  0  0  0  0
   -3.8179   17.9900  -32.3689 H   0  0  0  0  0  0  0  0  0  0  0  0
   -4.9558   16.0229  -33.3668 H   0  0  0  0  0  0  0  0  0  0  0  0
   -7.3928   16.1069  -33.8734 H   0  0  0  0  0  0  0  0  0  0  0  0
   -8.7076   18.1338  -33.3337 H   0  0  0  0  0  0  0  0  0  0  0  0
   -9.7535   20.4081  -31.3352 H   0  0  0  0  0  0  0  0  0  0  0  0
   -9.5033   21.2983  -32.8752 H   0  0  0  0  0  0  0  0  0  0  0  0
   -9.5635   19.5031  -32.8752 H   0  0  0  0  0  0  0  0  0  0  0  0
   -8.6720   22.9390  -31.2960 H   0  0  0  0  0  0  0  0  0  0  0  0
   -7.6951   25.1764  -30.2116 H   0  0  0  0  0  0  0  0  0  0  0  0
   -5.5769   26.2614  -29.3863 H   0  0  0  0  0  0  0  0  0  0  0  0
   -1.7189   23.8161  -29.3260 H   0  0  0  0  0  0  0  0  0  0  0  0
   -1.1712   25.5197  -29.0595 H   0  0  0  0  0  0  0  0  0  0  0  0
   -3.3432   25.1307  -27.2838 H   0  0  0  0  0  0  0  0  0  0  0  0
   -2.2453   23.6143  -27.2157 H   0  0  0  0  0  0  0  0  0  0  0  0
   -0.5849   24.3219  -24.7021 H   0  0  0  0  0  0  0  0  0  0  0  0
   -0.8999   23.2839  -26.1339 H   0  0  0  0  0  0  0  0  0  0  0  0
    0.4960   24.4145  -26.1339 H   0  0  0  0  0  0  0  0  0  0  0  0
   -2.7802   26.8459  -25.7552 H   0  0  0  0  0  0  0  0  0  0  0  0
   -2.7469   25.3083  -24.7617 H   0  0  0  0  0  0  0  0  0  0  0  0
   -1.7237   27.6516  -23.8781 H   0  0  0  0  0  0  0  0  0  0  0  0
   -1.0649   26.0017  -23.4424 H   0  0  0  0  0  0  0  0  0  0  0  0
    0.5165   28.0011  -24.2377 H   0  0  0  0  0  0  0  0  0  0  0  0
    0.8233   26.2636  -24.6477 H   0  0  0  0  0  0  0  0  0  0  0  0
   -0.4677   28.3900  -26.3923 H   0  0  0  0  0  0  0  0  0  0  0  0
    1.1300   27.5253  -26.6184 H   0  0  0  0  0  0  0  0  0  0  0  0
   -1.2555   26.8669  -27.8469 H   0  0  0  0  0  0  0  0  0  0  0  0
    0.2267   25.7909  -27.5873 H   0  0  0  0  0  0  0  0  0  0  0  0
   -3.3390   22.6469  -30.3380 H   0  0  0  0  0  0  0  0  0  0  0  0
  1  2  1  0
  2  3  1  0
  3  4  1  0
  3  5  1  0
  5  6  1  0
  6  7  1  0
  7  8  1  0
  8  9  1  0
  9 10  2  0
 10 11  1  0
 11 12  2  0
 12 13  1  0
 13 14  2  0
 14 15  1  0
 15 16  2  0
 16 17  1  0
 16 18  1  0
 18 19  1  0
 19 20  1  0
 20 21  2  0
 21 22  1  0
 22 23  2  0
 23 24  1  0
 24 25  1  0
 25 26  1  0
 26 27  1  0
 27 28  1  0
 27 29  1  0
 29 30  1  0
 30 31  1  0
 31 32  1  0
 32 33  1  0
 23 34  1  0
 34 35  2  0
 35 36  1  0
 36  9  1  0
 15 10  1  0
 36 18  2  0
 35 20  1  0
 33 27  1  0
  1 37  1  0
  1 38  1  0
  1 39  1  0
  2 40  1  0
  2 41  1  0
  4 42  1  0
  4 43  1  0
  4 44  1  0
  5 45  1  0
  5 46  1  0
  6 47  1  0
  6 48  1  0
  7 49  1  0
  7 50  1  0
  8 51  1  0
 11 52  1  0
 12 53  1  0
 13 54  1  0
 14 55  1  0
 17 56  1  0
 17 57  1  0
 17 58  1  0
 19 59  1  0
 21 60  1  0
 22 61  1  0
 25 62  1  0
 25 63  1  0
 26 64  1  0
 26 65  1  0
 28 66  1  0
 28 67  1  0
 28 68  1  0
 29 69  1  0
 29 70  1  0
 30 71  1  0
 30 72  1  0
 31 73  1  0
 31 74  1  0
 32 75  1  0
 32 76  1  0
 33 77  1  0
 33 78  1  0
 34 79  1  0
M  CHG  2  16   1  27   1
M  END
>  <UniqueID>  (23) 
23

>  <SMILES>  (23) 
CCN(C)CCCNc1c2ccccc2[n+](C)c2[nH]c3ccc(OCC[N+]4(C)CCCCC4)cc3c12

>  <Energy>  (23) 
182.75698905326652

>  <Genealogy>  (23) 
CCN(C)CCCNc1c2ccccc2[n+](C)c2[nH]c3ccc(OCC[N+]4(C)CCCCC4)cc3c12 (3D coordinates assigned)
CCN(C)CCCNc1c2ccccc2[n+](C)c2[nH]c3ccc(OCC[N+]4(C)CCCCC4)cc3c12 (nonaromatic ring conformer: 182.75698905326652 kcal/mol)

>  <smiles>  (23) 
CCN(C)CCCNc1c2ccccc2[n+](C)c2[nH]c3ccc(OCC[N+]4(C)CCCCC4)cc3c12

>  <score_type>  (23) 
oracle

>  <origin>  (23) 
adg

>  <m_score__min__energy>  (23) 
-9.1600000000000001

>  <m_primary>  (23) 
energy

$$$$
23:0
     RDKit          3D

 69 72  0  0  0  0  0  0  0  0999 V2000
   -0.0970   20.2500  -30.9070 C   0  0  0  0  0  0  0  0  0  0  0  0
   -0.4720   21.5670  -31.2410 O   0  0  0  0  0  0  0  0  0  0  0  0
   -1.5930   21.5600  -32.1050 C   0  0  0  0  0  0  0  0  0  0  0  0
   -2.6820   20.6350  -31.5550 C   0  0  0  0  0  0  0  0  0  0  0  0
   -3.8570   20.6410  -32.4580 N   0  0  0  0  0  0  0  0  0  0  0  0
   -3.9880   21.9400  -33.1390 C   0  0  0  0  0  0  0  0  0  0  0  0
   -3.7640   19.5580  -33.4540 C   0  0  0  0  0  0  0  0  0  0  0  0
   -5.0150   19.4310  -34.1270 O   0  0  0  0  0  0  0  0  0  0  0  0
   -6.2330   19.1040  -33.5080 C   0  0  0  0  0  0  0  0  0  0  0  0
   -7.2480   20.0640  -33.3260 C   0  0  0  0  0  0  0  0  0  0  0  0
   -8.4370   19.7370  -32.6500 C   0  0  0  0  0  0  0  0  0  0  0  0
   -9.4800   20.7090  -32.4290 N   0  0  0  0  0  0  0  0  0  0  0  0
   -9.5020   21.6670  -31.3230 C   0  0  0  0  0  0  0  0  0  0  0  0
   -8.1750   22.3710  -31.1960 C   0  0  0  0  0  0  0  0  0  0  0  0
   -7.4430   22.2830  -30.0030 C   0  0  0  0  0  0  0  0  0  0  0  0
   -6.2130   22.9360  -29.8780 C   0  0  0  0  0  0  0  0  0  0  0  0
   -5.6990   23.6930  -30.9480 C   0  0  0  0  0  0  0  0  0  0  0  0
   -4.4690   24.3700  -30.8780 O   0  0  0  0  0  0  0  0  0  0  0  0
   -3.8990   24.9260  -29.6930 C   0  0  0  0  0  0  0  0  0  0  0  0
   -2.8170   24.0310  -29.1490 C   0  0  0  0  0  0  0  0  0  0  0  0
   -3.0940   22.6890  -28.8360 C   0  0  0  0  0  0  0  0  0  0  0  0
   -2.0880   21.8600  -28.3320 C   0  0  0  0  0  0  0  0  0  0  0  0
   -0.7970   22.3580  -28.1470 C   0  0  0  0  0  0  0  0  0  0  0  0
   -0.5080   23.6860  -28.4670 C   0  0  0  0  0  0  0  0  0  0  0  0
   -1.5100   24.5230  -28.9690 C   0  0  0  0  0  0  0  0  0  0  0  0
   -1.2070   25.8090  -29.2790 F   0  0  0  0  0  0  0  0  0  0  0  0
   -6.4340   23.7810  -32.1350 C   0  0  0  0  0  0  0  0  0  0  0  0
   -7.6670   23.1340  -32.2590 C   0  0  0  0  0  0  0  0  0  0  0  0
   -8.6110   18.4300  -32.1780 C   0  0  0  0  0  0  0  0  0  0  0  0
   -7.6220   17.4660  -32.3710 C   0  0  0  0  0  0  0  0  0  0  0  0
   -6.4300   17.7880  -33.0400 C   0  0  0  0  0  0  0  0  0  0  0  0
   -5.3930   16.7450  -33.2310 C   0  0  0  0  0  0  0  0  0  0  0  0
   -4.7670   16.5730  -34.4760 C   0  0  0  0  0  0  0  0  0  0  0  0
   -3.7980   15.5790  -34.6310 C   0  0  0  0  0  0  0  0  0  0  0  0
   -3.4670   14.7800  -33.5820 N   0  0  0  0  0  0  0  0  0  0  0  0
   -4.0590   14.9190  -32.3660 C   0  0  0  0  0  0  0  0  0  0  0  0
   -5.0340   15.8990  -32.1690 C   0  0  0  0  0  0  0  0  0  0  0  0
   -0.0667   20.1438  -29.8126 H   0  0  0  0  0  0  0  0  0  0  0  0
   -0.8296   19.5433  -31.3239 H   0  0  0  0  0  0  0  0  0  0  0  0
    0.8980   20.0352  -31.3239 H   0  0  0  0  0  0  0  0  0  0  0  0
   -1.9928   22.5813  -32.1890 H   0  0  0  0  0  0  0  0  0  0  0  0
   -1.2799   21.1953  -33.0944 H   0  0  0  0  0  0  0  0  0  0  0  0
   -2.2862   19.6115  -31.4792 H   0  0  0  0  0  0  0  0  0  0  0  0
   -2.9894   20.9912  -30.5607 H   0  0  0  0  0  0  0  0  0  0  0  0
   -4.0687   22.7407  -32.3891 H   0  0  0  0  0  0  0  0  0  0  0  0
   -3.1029   22.1150  -33.7683 H   0  0  0  0  0  0  0  0  0  0  0  0
   -4.8902   21.9347  -33.7683 H   0  0  0  0  0  0  0  0  0  0  0  0
   -2.9761   19.7960  -34.1838 H   0  0  0  0  0  0  0  0  0  0  0  0
   -3.5182   18.6120  -32.9494 H   0  0  0  0  0  0  0  0  0  0  0  0
   -7.1086   21.0824  -33.7177 H   0  0  0  0  0  0  0  0  0  0  0  0
  -10.2920   20.7240  -33.0870 H   0  0  0  0  0  0  0  0  0  0  0  0
  -10.2893   22.4127  -31.5078 H   0  0  0  0  0  0  0  0  0  0  0  0
   -9.7018   21.1215  -30.3889 H   0  0  0  0  0  0  0  0  0  0  0  0
   -7.8389   21.6968  -29.1606 H   0  0  0  0  0  0  0  0  0  0  0  0
   -5.6444   22.8579  -28.9396 H   0  0  0  0  0  0  0  0  0  0  0  0
   -3.4684   25.9106  -29.9277 H   0  0  0  0  0  0  0  0  0  0  0  0
   -4.6894   25.0246  -28.9344 H   0  0  0  0  0  0  0  0  0  0  0  0
   -4.1074   22.2893  -28.9885 H   0  0  0  0  0  0  0  0  0  0  0  0
   -2.3139   20.8132  -28.0806 H   0  0  0  0  0  0  0  0  0  0  0  0
   -0.0072   21.7039  -27.7490 H   0  0  0  0  0  0  0  0  0  0  0  0
    0.5108   24.0752  -28.3239 H   0  0  0  0  0  0  0  0  0  0  0  0
   -6.0379   24.3649  -32.9789 H   0  0  0  0  0  0  0  0  0  0  0  0
   -8.2412   23.2232  -33.1930 H   0  0  0  0  0  0  0  0  0  0  0  0
   -9.5375   18.1610  -31.6495 H   0  0  0  0  0  0  0  0  0  0  0  0
   -7.7770   16.4437  -31.9957 H   0  0  0  0  0  0  0  0  0  0  0  0
   -5.0383   17.2177  -35.3249 H   0  0  0  0  0  0  0  0  0  0  0  0
   -3.3020   15.4425  -35.6033 H   0  0  0  0  0  0  0  0  0  0  0  0
   -3.7693   14.2582  -31.5357 H   0  0  0  0  0  0  0  0  0  0  0  0
   -5.5183   16.0078  -31.1873 H   0  0  0  0  0  0  0  0  0  0  0  0
  1  2  1  0
  2  3  1  0
  3  4  1  0
  4  5  1  0
  5  6  1  0
  5  7  1  0
  7  8  1  0
  8  9  1  0
  9 10  2  0
 10 11  1  0
 11 12  1  0
 12 13  1  0
 13 14  1  0
 14 15  2  0
 15 16  1  0
 16 17  2  0
 17 18  1  0
 18 19  1  0
 19 20  1  0
 20 21  2  0
 21 22  1  0
 22 23  2  0
 23 24  1  0
 24 25  2  0
 25 26  1  0
 17 27  1  0
 27 28  2  0
 11 29  2  0
 29 30  1  0
 30 31  2  0
 31 32  1  0
 32 33  2  0
 33 34  1  0
 34 35  2  0
 35 36  1  0
 36 37  2  0
 31  9  1  0
 37 32  1  0
 28 14  1  0
 25 20  1  0
  1 38  1  0
  1 39  1  0
  1 40  1  0
  3 41  1  0
  3 42  1  0
  4 43  1  0
  4 44  1  0
  6 45  1  0
  6 46  1  0
  6 47  1  0
  7 48  1  0
  7 49  1  0
 10 50  1  0
 12 51  1  0
 13 52  1  0
 13 53  1  0
 15 54  1  0
 16 55  1  0
 19 56  1  0
 19 57  1  0
 21 58  1  0
 22 59  1  0
 23 60  1  0
 24 61  1  0
 27 62  1  0
 28 63  1  0
 29 64  1  0
 30 65  1  0
 33 66  1  0
 34 67  1  0
 36 68  1  0
 37 69  1  0
M  END
>  <UniqueID>  (24) 
24

>  <SMILES>  (24) 
COCCN(C)COc1cc(NCc2ccc(OCc3ccccc3F)cc2)ccc1-c1ccncc1

>  <Energy>  (24) 
78.86241777316135

>  <Genealogy>  (24) 
COCCN(C)COc1cc(NCc2ccc(OCc3ccccc3F)cc2)ccc1-c1ccncc1 (3D coordinates assigned)
COCCN(C)COc1cc(NCc2ccc(OCc3ccccc3F)cc2)ccc1-c1ccncc1 (optimized conformer: 78.86241777316135 kcal/mol)

>  <smiles>  (24) 
COCCN(C)COc1cc(NCc2ccc(OCc3ccccc3F)cc2)ccc1-c1ccncc1

>  <score_type>  (24) 
oracle

>  <origin>  (24) 
adg

>  <m_score__min__energy>  (24) 
-10.4

>  <m_primary>  (24) 
energy

$$$$
24:0
     RDKit          3D

 84 87  0  0  0  0  0  0  0  0999 V2000
    0.1500   23.2190  -24.4990 C   0  0  0  0  0  0  0  0  0  0  0  0
   -0.8560   24.3840  -24.5580 C   0  0  0  0  0  0  0  0  0  0  0  0
   -0.2550   25.7440  -24.7670 N   0  0  0  0  0  0  0  0  0  0  0  0
   -0.5410   26.6140  -23.5940 C   0  0  0  0  0  0  0  0  0  0  0  0
    1.2150   25.5540  -24.8680 C   0  0  0  0  0  0  0  0  0  0  0  0
   -0.7960   26.3500  -26.0290 C   0  0  0  0  0  0  0  0  0  0  0  0
   -1.3220   25.3370  -27.0740 C   0  0  0  0  0  0  0  0  0  0  0  0
   -0.4910   25.3390  -28.2240 O   0  0  0  0  0  0  0  0  0  0  0  0
   -0.2690   24.0210  -28.6940 C   0  0  0  0  0  0  0  0  0  0  0  0
   -1.1630   23.0490  -27.9130 C   0  0  0  0  0  0  0  0  0  0  0  0
   -0.7980   21.6950  -28.1180 O   0  0  0  0  0  0  0  0  0  0  0  0
   -1.8980   20.9340  -28.5880 C   0  0  0  0  0  0  0  0  0  0  0  0
   -2.2450   21.3690  -30.0070 C   0  0  0  0  0  0  0  0  0  0  0  0
   -3.6480   21.3630  -30.1600 O   0  0  0  0  0  0  0  0  0  0  0  0
   -4.2210   22.5290  -29.5990 C   0  0  0  0  0  0  0  0  0  0  0  0
   -3.6910   23.7960  -30.3000 C   0  0  0  0  0  0  0  0  0  0  0  0
   -4.6330   24.3740  -31.1850 O   0  0  0  0  0  0  0  0  0  0  0  0
   -5.9520   24.3770  -30.6600 C   0  0  0  0  0  0  0  0  0  0  0  0
   -6.9180   23.4290  -31.4000 C   0  0  0  0  0  0  0  0  0  0  0  0
   -6.3990   22.9700  -32.7070 N   0  0  0  0  0  0  0  0  0  0  0  0
   -6.1100   21.5470  -32.7150 C   0  0  0  0  0  0  0  0  0  0  0  0
   -4.8010   21.0900  -32.9240 C   0  0  0  0  0  0  0  0  0  0  0  0
   -4.5080   19.7380  -32.9310 C   0  0  0  0  0  0  0  0  0  0  0  0
   -5.4900   18.7820  -32.8760 N   0  0  0  0  0  0  0  0  0  0  0  0
   -5.1830   17.3870  -33.2340 C   0  0  0  0  0  0  0  0  0  0  0  0
   -6.7800   19.1730  -32.5560 C   0  0  0  0  0  0  0  0  0  0  0  0
   -7.7850   18.2200  -32.2610 C   0  0  0  0  0  0  0  0  0  0  0  0
   -9.0950   18.6140  -31.9920 C   0  0  0  0  0  0  0  0  0  0  0  0
   -9.4380   19.9610  -32.0080 C   0  0  0  0  0  0  0  0  0  0  0  0
   -8.4690   20.9300  -32.2610 C   0  0  0  0  0  0  0  0  0  0  0  0
   -7.1230   20.5660  -32.5060 C   0  0  0  0  0  0  0  0  0  0  0  0
   -3.0590   19.5880  -33.1140 C   0  0  0  0  0  0  0  0  0  0  0  0
   -2.2120   18.4820  -32.9510 C   0  0  0  0  0  0  0  0  0  0  0  0
   -0.8280   18.6600  -33.1050 C   0  0  0  0  0  0  0  0  0  0  0  0
   -0.3030   19.9350  -33.3710 C   0  0  0  0  0  0  0  0  0  0  0  0
   -1.1550   21.0460  -33.4580 C   0  0  0  0  0  0  0  0  0  0  0  0
   -2.5290   20.8500  -33.3130 C   0  0  0  0  0  0  0  0  0  0  0  0
   -3.5750   21.9110  -33.2230 C   0  0  0  0  0  0  0  0  0  0  0  0
    0.3635   22.9718  -23.4486 H   0  0  0  0  0  0  0  0  0  0  0  0
   -0.2773   22.3397  -25.0031 H   0  0  0  0  0  0  0  0  0  0  0  0
    1.0822   23.5137  -25.0031 H   0  0  0  0  0  0  0  0  0  0  0  0
   -1.5522   24.1896  -25.3872 H   0  0  0  0  0  0  0  0  0  0  0  0
   -1.3414   24.4155  -23.5714 H   0  0  0  0  0  0  0  0  0  0  0  0
   -0.3562   26.0518  -22.6668 H   0  0  0  0  0  0  0  0  0  0  0  0
    0.1141   27.4971  -23.6241 H   0  0  0  0  0  0  0  0  0  0  0  0
   -1.5923   26.9362  -23.6241 H   0  0  0  0  0  0  0  0  0  0  0  0
    1.6477   25.4981  -23.8582 H   0  0  0  0  0  0  0  0  0  0  0  0
    1.4277   24.6209  -25.4103 H   0  0  0  0  0  0  0  0  0  0  0  0
    1.6580   26.4024  -25.4103 H   0  0  0  0  0  0  0  0  0  0  0  0
   -1.6253   27.0194  -25.7567 H   0  0  0  0  0  0  0  0  0  0  0  0
    0.0492   26.8684  -26.5052 H   0  0  0  0  0  0  0  0  0  0  0  0
   -1.3274   24.3297  -26.6321 H   0  0  0  0  0  0  0  0  0  0  0  0
   -2.3418   25.6247  -27.3692 H   0  0  0  0  0  0  0  0  0  0  0  0
   -0.5139   23.9663  -29.7650 H   0  0  0  0  0  0  0  0  0  0  0  0
    0.7870   23.7499  -28.5482 H   0  0  0  0  0  0  0  0  0  0  0  0
   -1.0812   23.2783  -26.8403 H   0  0  0  0  0  0  0  0  0  0  0  0
   -2.1937   23.1768  -28.2754 H   0  0  0  0  0  0  0  0  0  0  0  0
   -1.6333   19.8663  -28.5858 H   0  0  0  0  0  0  0  0  0  0  0  0
   -2.7652   21.0972  -27.9312 H   0  0  0  0  0  0  0  0  0  0  0  0
   -1.8589   22.3833  -30.1865 H   0  0  0  0  0  0  0  0  0  0  0  0
   -1.7897   20.6759  -30.7297 H   0  0  0  0  0  0  0  0  0  0  0  0
   -5.3140   22.4843  -29.7145 H   0  0  0  0  0  0  0  0  0  0  0  0
   -3.9482   22.5768  -28.5344 H   0  0  0  0  0  0  0  0  0  0  0  0
   -3.4305   24.5387  -29.5316 H   0  0  0  0  0  0  0  0  0  0  0  0
   -2.8166   23.4996  -30.8980 H   0  0  0  0  0  0  0  0  0  0  0  0
   -5.9060   24.0707  -29.6045 H   0  0  0  0  0  0  0  0  0  0  0  0
   -6.3447   25.3968  -30.7853 H   0  0  0  0  0  0  0  0  0  0  0  0
   -7.0967   22.5479  -30.7662 H   0  0  0  0  0  0  0  0  0  0  0  0
   -7.8422   23.9925  -31.5956 H   0  0  0  0  0  0  0  0  0  0  0  0
   -7.1030   23.1810  -33.4520 H   0  0  0  0  0  0  0  0  0  0  0  0
   -5.5560   23.5270  -32.9750 H   0  0  0  0  0  0  0  0  0  0  0  0
   -5.0524   16.7934  -32.3172 H   0  0  0  0  0  0  0  0  0  0  0  0
   -6.0108   16.9697  -33.8261 H   0  0  0  0  0  0  0  0  0  0  0  0
   -4.2565   17.3558  -33.8261 H   0  0  0  0  0  0  0  0  0  0  0  0
   -7.5277   17.1507  -32.2438 H   0  0  0  0  0  0  0  0  0  0  0  0
   -9.8598   17.8563  -31.7663 H   0  0  0  0  0  0  0  0  0  0  0  0
  -10.4788   20.2633  -31.8201 H   0  0  0  0  0  0  0  0  0  0  0  0
   -8.7539   21.9924  -32.2705 H   0  0  0  0  0  0  0  0  0  0  0  0
   -2.6250   17.4922  -32.7067 H   0  0  0  0  0  0  0  0  0  0  0  0
   -0.1518   17.7969  -33.0169 H   0  0  0  0  0  0  0  0  0  0  0  0
    0.7804   20.0630  -33.5117 H   0  0  0  0  0  0  0  0  0  0  0  0
   -0.7479   22.0521  -33.6370 H   0  0  0  0  0  0  0  0  0  0  0  0
   -3.3588   22.6222  -32.4122 H   0  0  0  0  0  0  0  0  0  0  0  0
   -3.6603   22.5377  -34.1230 H   0  0  0  0  0  0  0  0  0  0  0  0
  1  2  1  0
  2  3  1  0
  3  4  1  0
  3  5  1  0
  3  6  1  0
  6  7  1  0
  7  8  1  0
  8  9  1  0
  9 10  1  0
 10 11  1  0
 11 12  1  0
 12 13  1  0
 13 14  1  0
 14 15  1  0
 15 16  1  0
 16 17  1  0
 17 18  1  0
 18 19  1  0
 19 20  1  0
 20 21  1  0
 21 22  2  0
 22 23  1  0
 23 24  2  0
 24 25  1  0
 24 26  1  0
 26 27  2  0
 27 28  1  0
 28 29  2  0
 29 30  1  0
 30 31  2  0
 23 32  1  0
 32 33  2  0
 33 34  1  0
 34 35  2  0
 35 36  1  0
 36 37  2  0
 37 38  1  0
 31 21  1  0
 37 32  1  0
 38 22  1  0
 31 26  1  0
  1 39  1  0
  1 40  1  0
  1 41  1  0
  2 42  1  0
  2 43  1  0
  4 44  1  0
  4 45  1  0
  4 46  1  0
  5 47  1  0
  5 48  1  0
  5 49  1  0
  6 50  1  0
  6 51  1  0
  7 52  1  0
  7 53  1  0
  9 54  1  0
  9 55  1  0
 10 56  1  0
 10 57  1  0
 12 58  1  0
 12 59  1  0
 13 60  1  0
 13 61  1  0
 15 62  1  0
 15 63  1  0
 16 64  1  0
 16 65  1  0
 18 66  1  0
 18 67  1  0
 19 68  1  0
 19 69  1  0
 20 70  1  0
 20 71  1  0
 25 72  1  0
 25 73  1  0
 25 74  1  0
 27 75  1  0
 28 76  1  0
 29 77  1  0
 30 78  1  0
 33 79  1  0
 34 80  1  0
 35 81  1  0
 36 82  1  0
 38 83  1  0
 38 84  1  0
M  CHG  3   3   1  20   1  24   1
M  END
>  <UniqueID>  (25) 
25

>  <SMILES>  (25) 
CC[N+](C)(C)CCOCCOCCOCCOCC[NH2+]c1c2c([n+](C)c3ccccc13)-c1ccccc1C2

>  <Energy>  (25) 
145.2701208515824

>  <Genealogy>  (25) 
CC[N+](C)(C)CCOCCOCCOCCOCC[NH2+]c1c2c([n+](C)c3ccccc13)-c1ccccc1C2 (protonated)
CC[N+](C)(C)CCOCCOCCOCCOCC[NH2+]c1c2c([n+](C)c3ccccc13)-c1ccccc1C2 (3D coordinates assigned)
CC[N+](C)(C)CCOCCOCCOCCOCC[NH2+]c1c2c([n+](C)c3ccccc13)-c1ccccc1C2 (nonaromatic ring conformer: 145.2701208515824 kcal/mol)

>  <smiles>  (25) 
CC[N+](C)(C)CCOCCOCCOCCOCCNc1c2c([n+](C)c3ccccc13)-c1ccccc1C2

>  <score_type>  (25) 
oracle

>  <origin>  (25) 
adg

>  <m_score__min__energy>  (25) 
-9.2699999999999996

>  <m_primary>  (25) 
energy

$$$$
25:0
     RDKit          3D

 43 44  0  0  0  0  0  0  0  0999 V2000
   -5.0040   21.0530  -32.8370 C   0  0  0  0  0  0  0  0  0  0  0  0
   -6.4380   20.9130  -32.4180 C   0  0  0  0  0  0  0  0  0  0  0  0
   -6.8970   19.6710  -32.0940 N   0  0  0  0  0  0  0  0  0  0  0  0
   -8.1780   19.4500  -31.7010 C   0  0  0  0  0  0  0  0  0  0  0  0
   -9.0750   20.5120  -31.6160 C   0  0  0  0  0  0  0  0  0  0  0  0
   -8.6430   21.7970  -31.9380 C   0  0  0  0  0  0  0  0  0  0  0  0
   -7.3180   22.0220  -32.3440 C   0  0  0  0  0  0  0  0  0  0  0  0
   -6.9010   23.4310  -32.7050 C   0  0  0  0  0  0  0  0  0  0  0  0
   -5.8630   23.9130  -31.7840 N   0  0  0  0  0  0  0  0  0  0  0  0
   -6.4430   24.7220  -30.7020 C   0  0  0  0  0  0  0  0  0  0  0  0
   -5.3310   25.2990  -29.8270 C   0  0  0  0  0  0  0  0  0  0  0  0
   -4.0370   25.1740  -30.5120 N   0  0  0  0  0  0  0  0  0  0  0  0
   -3.3070   23.9460  -30.1330 C   0  0  0  0  0  0  0  0  0  0  0  0
   -2.0300   24.2480  -29.3130 C   0  0  0  0  0  0  0  0  0  0  0  0
   -2.3280   24.8230  -27.9130 C   0  0  0  0  0  0  0  0  0  0  0  0
   -3.6250   24.2760  -27.2840 C   0  0  0  0  0  0  0  0  0  0  0  0
   -4.0070   22.9090  -27.8560 C   0  0  0  0  0  0  0  0  0  0  0  0
   -4.2630   22.9850  -29.3730 C   0  0  0  0  0  0  0  0  0  0  0  0
   -4.3654   21.1153  -31.9436 H   0  0  0  0  0  0  0  0  0  0  0  0
   -4.7104   20.1792  -33.4373 H   0  0  0  0  0  0  0  0  0  0  0  0
   -4.8850   21.9670  -33.4373 H   0  0  0  0  0  0  0  0  0  0  0  0
   -8.5075   18.4311  -31.4495 H   0  0  0  0  0  0  0  0  0  0  0  0
  -10.1136   20.3382  -31.2980 H   0  0  0  0  0  0  0  0  0  0  0  0
   -9.3452   22.6413  -31.8736 H   0  0  0  0  0  0  0  0  0  0  0  0
   -6.5062   23.4397  -33.7317 H   0  0  0  0  0  0  0  0  0  0  0  0
   -7.7775   24.0914  -32.6298 H   0  0  0  0  0  0  0  0  0  0  0  0
   -5.2140   24.5270  -32.3300 H   0  0  0  0  0  0  0  0  0  0  0  0
   -7.0288   25.5454  -31.1367 H   0  0  0  0  0  0  0  0  0  0  0  0
   -7.0945   24.0858  -30.0850 H   0  0  0  0  0  0  0  0  0  0  0  0
   -5.5373   26.3612  -29.6290 H   0  0  0  0  0  0  0  0  0  0  0  0
   -5.2927   24.7434  -28.8784 H   0  0  0  0  0  0  0  0  0  0  0  0
   -4.1950   25.2040  -31.5450 H   0  0  0  0  0  0  0  0  0  0  0  0
   -2.9640   23.4533  -31.0547 H   0  0  0  0  0  0  0  0  0  0  0  0
   -1.4623   23.3134  -29.1934 H   0  0  0  0  0  0  0  0  0  0  0  0
   -1.4602   25.0102  -29.8647 H   0  0  0  0  0  0  0  0  0  0  0  0
   -1.4874   24.5739  -27.2487 H   0  0  0  0  0  0  0  0  0  0  0  0
   -2.4601   25.9086  -28.0317 H   0  0  0  0  0  0  0  0  0  0  0  0
   -3.4795   24.1785  -26.1980 H   0  0  0  0  0  0  0  0  0  0  0  0
   -4.4379   24.9802  -27.5147 H   0  0  0  0  0  0  0  0  0  0  0  0
   -3.1873   22.2003  -27.6666 H   0  0  0  0  0  0  0  0  0  0  0  0
   -4.9333   22.5755  -27.3653 H   0  0  0  0  0  0  0  0  0  0  0  0
   -4.1439   21.9757  -29.7939 H   0  0  0  0  0  0  0  0  0  0  0  0
   -5.2801   23.3834  -29.5023 H   0  0  0  0  0  0  0  0  0  0  0  0
  1  2  1  0
  2  3  2  0
  3  4  1  0
  4  5  2  0
  5  6  1  0
  6  7  2  0
  7  8  1  0
  8  9  1  0
  9 10  1  0
 10 11  1  0
 11 12  1  0
 12 13  1  0
 13 14  1  0
 14 15  1  0
 15 16  1  0
 16 17  1  0
 17 18  1  0
  7  2  1  0
 18 13  1  0
  1 19  1  0
  1 20  1  0
  1 21  1  0
  4 22  1  0
  5 23  1  0
  6 24  1  0
  8 25  1  0
  8 26  1  0
  9 27  1  0
 10 28  1  0
 10 29  1  0
 11 30  1  0
 11 31  1  0
 12 32  1  0
 13 33  1  0
 14 34  1  0
 14 35  1  0
 15 36  1  0
 15 37  1  0
 16 38  1  0
 16 39  1  0
 17 40  1  0
 17 41  1  0
 18 42  1  0
 18 43  1  0
M  END
>  <UniqueID>  (26) 
26

>  <SMILES>  (26) 
Cc1ncccc1CNCCNC1CCCCC1

>  <Energy>  (26) 
42.905977035043804

>  <Genealogy>  (26) 
Cc1ncccc1CNCCNC1CCCCC1 (3D coordinates assigned)
Cc1ncccc1CNCCNC1CCCCC1 (nonaromatic ring conformer: 42.905977035043804 kcal/mol)

>  <smiles>  (26) 
Cc1ncccc1CNCCNC1CCCCC1

>  <score_type>  (26) 
oracle

>  <origin>  (26) 
adg

>  <m_score__min__energy>  (26) 
-7.9299999999999997

>  <m_primary>  (26) 
energy

$$$$
26:0
     RDKit          3D

 51 54  0  0  0  0  0  0  0  0999 V2000
   -8.5900   18.3570  -32.0400 C   0  0  0  0  0  0  0  0  0  0  0  0
   -7.5290   19.2780  -32.4810 N   0  0  0  0  0  0  0  0  0  0  0  0
   -6.3740   18.7780  -33.0300 C   0  0  0  0  0  0  0  0  0  0  0  0
   -5.2440   19.5640  -33.1820 C   0  0  0  0  0  0  0  0  0  0  0  0
   -5.2690   20.9320  -32.9240 C   0  0  0  0  0  0  0  0  0  0  0  0
   -4.1240   21.7500  -33.2160 N   0  0  0  0  0  0  0  0  0  0  0  0
   -3.2740   22.2810  -32.1470 C   0  0  0  0  0  0  0  0  0  0  0  0
   -2.4700   21.1560  -31.4610 C   0  0  0  0  0  0  0  0  0  0  0  0
   -0.9770   21.1450  -31.8610 C   0  0  0  0  0  0  0  0  0  0  0  0
   -0.7020   20.3240  -33.0680 N   0  0  0  0  0  0  0  0  0  0  0  0
    0.4910   19.4870  -32.8530 C   0  0  0  0  0  0  0  0  0  0  0  0
   -0.4990   21.1680  -34.2600 C   0  0  0  0  0  0  0  0  0  0  0  0
   -6.4850   21.4920  -32.4640 C   0  0  0  0  0  0  0  0  0  0  0  0
   -6.5960   22.8730  -32.2030 C   0  0  0  0  0  0  0  0  0  0  0  0
   -7.8140   23.4290  -31.8210 C   0  0  0  0  0  0  0  0  0  0  0  0
   -8.9420   22.6260  -31.6990 C   0  0  0  0  0  0  0  0  0  0  0  0
   -8.8590   21.2540  -31.9310 C   0  0  0  0  0  0  0  0  0  0  0  0
   -7.6300   20.6460  -32.2850 C   0  0  0  0  0  0  0  0  0  0  0  0
   -4.1370   18.7040  -33.5970 C   0  0  0  0  0  0  0  0  0  0  0  0
   -2.9290   19.0330  -33.7300 O   0  0  0  0  0  0  0  0  0  0  0  0
   -4.6850   17.3690  -33.7710 C   0  0  0  0  0  0  0  0  0  0  0  0
   -4.0630   16.2230  -34.2620 C   0  0  0  0  0  0  0  0  0  0  0  0
   -4.8470   15.0770  -34.4610 C   0  0  0  0  0  0  0  0  0  0  0  0
   -6.2300   15.1100  -34.2030 C   0  0  0  0  0  0  0  0  0  0  0  0
   -6.8400   16.2800  -33.7200 C   0  0  0  0  0  0  0  0  0  0  0  0
   -6.0350   17.3990  -33.4580 C   0  0  0  0  0  0  0  0  0  0  0  0
   -8.6196   18.3313  -30.9407 H   0  0  0  0  0  0  0  0  0  0  0  0
   -9.5602   18.7041  -32.4249 H   0  0  0  0  0  0  0  0  0  0  0  0
   -8.3827   17.3476  -32.4249 H   0  0  0  0  0  0  0  0  0  0  0  0
   -3.7350   21.7440  -34.1870 H   0  0  0  0  0  0  0  0  0  0  0  0
   -2.5732   23.0124  -32.5759 H   0  0  0  0  0  0  0  0  0  0  0  0
   -3.9190   22.7568  -31.3936 H   0  0  0  0  0  0  0  0  0  0  0  0
   -2.5392   21.2909  -30.3715 H   0  0  0  0  0  0  0  0  0  0  0  0
   -2.9032   20.1988  -31.7866 H   0  0  0  0  0  0  0  0  0  0  0  0
   -0.6610   22.1793  -32.0620 H   0  0  0  0  0  0  0  0  0  0  0  0
   -0.4176   20.6976  -31.0262 H   0  0  0  0  0  0  0  0  0  0  0  0
   -1.5010   19.6770  -33.2540 H   0  0  0  0  0  0  0  0  0  0  0  0
    0.6640   19.3656  -31.7735 H   0  0  0  0  0  0  0  0  0  0  0  0
    0.3341   18.5000  -33.3125 H   0  0  0  0  0  0  0  0  0  0  0  0
    1.3657   19.9704  -33.3125 H   0  0  0  0  0  0  0  0  0  0  0  0
   -0.2525   22.1930  -33.9459 H   0  0  0  0  0  0  0  0  0  0  0  0
    0.3267   20.7603  -34.8617 H   0  0  0  0  0  0  0  0  0  0  0  0
   -1.4198   21.1804  -34.8617 H   0  0  0  0  0  0  0  0  0  0  0  0
   -5.7107   23.5183  -32.3022 H   0  0  0  0  0  0  0  0  0  0  0  0
   -7.8838   24.5073  -31.6151 H   0  0  0  0  0  0  0  0  0  0  0  0
   -9.9057   23.0758  -31.4178 H   0  0  0  0  0  0  0  0  0  0  0  0
   -9.7626   20.6337  -31.8376 H   0  0  0  0  0  0  0  0  0  0  0  0
   -2.9864   16.2171  -34.4875 H   0  0  0  0  0  0  0  0  0  0  0  0
   -4.3788   14.1487  -34.8202 H   0  0  0  0  0  0  0  0  0  0  0  0
   -6.8391   14.2115  -34.3811 H   0  0  0  0  0  0  0  0  0  0  0  0
   -7.9262   16.3179  -33.5508 H   0  0  0  0  0  0  0  0  0  0  0  0
  1  2  1  0
  2  3  2  0
  3  4  1  0
  4  5  2  0
  5  6  1  0
  6  7  1  0
  7  8  1  0
  8  9  1  0
  9 10  1  0
 10 11  1  0
 10 12  1  0
  5 13  1  0
 13 14  2  0
 14 15  1  0
 15 16  2  0
 16 17  1  0
 17 18  2  0
  4 19  1  0
 19 20  2  0
 19 21  1  0
 21 22  2  0
 22 23  1  0
 23 24  2  0
 24 25  1  0
 25 26  2  0
 18  2  1  0
 26 21  1  0
 26  3  1  0
 18 13  1  0
  1 27  1  0
  1 28  1  0
  1 29  1  0
  6 30  1  0
  7 31  1  0
  7 32  1  0
  8 33  1  0
  8 34  1  0
  9 35  1  0
  9 36  1  0
 10 37  1  0
 11 38  1  0
 11 39  1  0
 11 40  1  0
 12 41  1  0
 12 42  1  0
 12 43  1  0
 14 44  1  0
 15 45  1  0
 16 46  1  0
 17 47  1  0
 22 48  1  0
 23 49  1  0
 24 50  1  0
 25 51  1  0
M  CHG  2   2   1  10   1
M  END
>  <UniqueID>  (27) 
27

>  <SMILES>  (27) 
C[n+]1c2c(c(NCCC[NH+](C)C)c3ccccc31)C(=O)c1ccccc1-2

>  <Energy>  (27) 
107.81625953704864

>  <Genealogy>  (27) 
C[n+]1c2c(c(NCCC[NH+](C)C)c3ccccc31)C(=O)c1ccccc1-2 (protonated)
C[n+]1c2c(c(NCCC[NH+](C)C)c3ccccc31)C(=O)c1ccccc1-2 (3D coordinates assigned)
C[n+]1c2c(c(NCCC[NH+](C)C)c3ccccc31)C(=O)c1ccccc1-2 (nonaromatic ring conformer: 107.81625953704864 kcal/mol)

>  <smiles>  (27) 
CN(C)CCCNc1c2c([n+](C)c3ccccc13)-c1ccccc1C2=O

>  <score_type>  (27) 
oracle

>  <origin>  (27) 
adg

>  <m_score__min__energy>  (27) 
-7.7699999999999996

>  <m_primary>  (27) 
energy

$$$$
27:0
     RDKit          3D

 45 45  0  0  0  0  0  0  0  0999 V2000
    0.2260   24.5530  -28.5820 N   0  0  0  0  0  0  0  0  0  0  0  0
    0.6600   25.2080  -27.3520 C   0  0  0  0  0  0  0  0  0  0  0  0
   -0.5330   25.4790  -26.4260 C   0  0  0  0  0  0  0  0  0  0  0  0
   -1.0140   24.2330  -25.6700 C   0  0  0  0  0  0  0  0  0  0  0  0
   -1.6820   23.3000  -26.5890 N   0  0  0  0  0  0  0  0  0  0  0  0
   -1.1690   21.9290  -26.4510 C   0  0  0  0  0  0  0  0  0  0  0  0
   -2.0770   20.9140  -27.1670 C   0  0  0  0  0  0  0  0  0  0  0  0
   -1.4110   20.2240  -28.3710 C   0  0  0  0  0  0  0  0  0  0  0  0
   -1.2690   21.1420  -29.5900 C   0  0  0  0  0  0  0  0  0  0  0  0
   -1.6770   22.5090  -29.2290 N   0  0  0  0  0  0  0  0  0  0  0  0
   -2.8570   23.0040  -29.9680 C   0  0  1  0  0  0  0  0  0  0  0  0
   -4.1300   22.1560  -29.6980 C   0  0  0  0  0  0  0  0  0  0  0  0
   -5.3780   22.7160  -30.4000 C   0  0  0  0  0  0  0  0  0  0  0  0
   -5.8560   24.0490  -29.7950 C   0  0  0  0  0  0  0  0  0  0  0  0
   -5.3450   25.2950  -30.5300 C   0  0  0  0  0  0  0  0  0  0  0  0
   -3.8920   25.3140  -30.6140 N   0  0  0  0  0  0  0  0  0  0  0  0
   -2.9840   24.5150  -29.8420 C   0  0  0  0  0  0  0  0  0  0  0  0
   -2.2490   25.1010  -29.0050 O   0  0  0  0  0  0  0  0  0  0  0  0
   -0.5620   23.9090  -28.3380 H   0  0  0  0  0  0  0  0  0  0  0  0
   -0.1720   25.2810  -29.2190 H   0  0  0  0  0  0  0  0  0  0  0  0
    1.3791   24.5579  -26.8321 H   0  0  0  0  0  0  0  0  0  0  0  0
    1.1287   26.1686  -27.6118 H   0  0  0  0  0  0  0  0  0  0  0  0
   -0.2368   26.2407  -25.6897 H   0  0  0  0  0  0  0  0  0  0  0  0
   -1.3663   25.8154  -27.0604 H   0  0  0  0  0  0  0  0  0  0  0  0
   -0.1493   23.7319  -25.2105 H   0  0  0  0  0  0  0  0  0  0  0  0
   -1.7295   24.5417  -24.8936 H   0  0  0  0  0  0  0  0  0  0  0  0
   -1.4780   23.6150  -27.5670 H   0  0  0  0  0  0  0  0  0  0  0  0
   -0.1611   21.8784  -26.8888 H   0  0  0  0  0  0  0  0  0  0  0  0
   -1.1435   21.6755  -25.3809 H   0  0  0  0  0  0  0  0  0  0  0  0
   -2.3703   20.1399  -26.4425 H   0  0  0  0  0  0  0  0  0  0  0  0
   -2.9391   21.4752  -27.5566 H   0  0  0  0  0  0  0  0  0  0  0  0
   -0.4087   19.8854  -28.0696 H   0  0  0  0  0  0  0  0  0  0  0  0
   -2.0586   19.3855  -28.6668 H   0  0  0  0  0  0  0  0  0  0  0  0
   -0.2206   21.1488  -29.9230 H   0  0  0  0  0  0  0  0  0  0  0  0
   -1.9112   20.7718  -30.4027 H   0  0  0  0  0  0  0  0  0  0  0  0
   -0.8720   23.1550  -29.4120 H   0  0  0  0  0  0  0  0  0  0  0  0
   -2.7081   22.8443  -31.0461 H   0  0  0  0  0  0  0  0  0  0  0  0
   -3.9534   21.1320  -30.0588 H   0  0  0  0  0  0  0  0  0  0  0  0
   -4.3204   22.1794  -28.6148 H   0  0  0  0  0  0  0  0  0  0  0  0
   -5.1412   22.8771  -31.4621 H   0  0  0  0  0  0  0  0  0  0  0  0
   -6.1882   21.9836  -30.2688 H   0  0  0  0  0  0  0  0  0  0  0  0
   -6.9557   24.0627  -29.8171 H   0  0  0  0  0  0  0  0  0  0  0  0
   -5.4484   24.0959  -28.7744 H   0  0  0  0  0  0  0  0  0  0  0  0
   -5.7608   25.3035  -31.5483 H   0  0  0  0  0  0  0  0  0  0  0  0
   -5.6668   26.1820  -29.9646 H   0  0  0  0  0  0  0  0  0  0  0  0
  1  2  1  0
  2  3  1  0
  3  4  1  0
  4  5  1  0
  5  6  1  0
  6  7  1  0
  7  8  1  0
  8  9  1  0
  9 10  1  0
 10 11  1  0
 11 12  1  0
 12 13  1  0
 13 14  1  0
 14 15  1  0
 15 16  1  0
 16 17  1  0
 17 18  2  0
 17 11  1  0
  1 19  1  0
  1 20  1  0
  2 21  1  0
  2 22  1  0
  3 23  1  0
  3 24  1  0
  4 25  1  0
  4 26  1  0
  5 27  1  0
  6 28  1  0
  6 29  1  0
  7 30  1  0
  7 31  1  0
  8 32  1  0
  8 33  1  0
  9 34  1  0
  9 35  1  0
 10 36  1  0
 11 37  1  6
 12 38  1  0
 12 39  1  0
 13 40  1  0
 13 41  1  0
 14 42  1  0
 14 43  1  0
 15 44  1  0
 15 45  1  0
M  CHG  1  16  -1
M  END
>  <UniqueID>  (28) 
28

>  <SMILES>  (28) 
NCCCNCCCCN[C@H]1CCCC[N-]C1=O

>  <Energy>  (28) 
36.88384932694908

>  <Genealogy>  (28) 
NCCCNCCCCNC1CCCC[N-]C1=O (protonated)
NCCCNCCCCN[C@H]1CCCC[N-]C1=O (chirality)
NCCCNCCCCN[C@H]1CCCC[N-]C1=O (3D coordinates assigned)
NCCCNCCCCN[C@H]1CCCC[N-]C1=O (nonaromatic ring conformer: 36.88384932694908 kcal/mol)

>  <smiles>  (28) 
NCCCNCCCCNC1CCCCNC1=O

>  <score_type>  (28) 
oracle

>  <origin>  (28) 
adg

>  <m_score__min__energy>  (28) 
-4.1900000000000004

>  <m_primary>  (28) 
energy

$$$$
28:0
     RDKit          3D

 54 56  0  0  0  0  0  0  0  0999 V2000
   -1.9840   16.2680  -35.1980 C   0  0  0  0  0  0  0  0  0  0  0  0
   -1.9000   16.2910  -33.6690 C   0  0  0  0  0  0  0  0  0  0  0  0
   -0.7570   17.0800  -33.1770 N   0  0  0  0  0  0  0  0  0  0  0  0
    0.1970   16.2600  -32.4090 C   0  0  0  0  0  0  0  0  0  0  0  0
    0.2570   16.7110  -30.9480 C   0  0  0  0  0  0  0  0  0  0  0  0
   -0.0730   18.0820  -30.8790 O   0  0  0  0  0  0  0  0  0  0  0  0
    1.0870   18.8400  -30.6000 C   0  0  0  0  0  0  0  0  0  0  0  0
    1.4540   19.6680  -31.8290 C   0  0  0  0  0  0  0  0  0  0  0  0
    0.7360   19.1630  -33.0050 N   0  0  0  0  0  0  0  0  0  0  0  0
    0.7940   20.1240  -34.1110 C   0  0  0  0  0  0  0  0  0  0  0  0
   -0.5370   20.1460  -34.8710 C   0  0  0  0  0  0  0  0  0  0  0  0
   -1.5000   19.2990  -34.2390 O   0  0  0  0  0  0  0  0  0  0  0  0
   -2.7750   19.6920  -33.7990 C   0  0  0  0  0  0  0  0  0  0  0  0
   -3.8980   18.8520  -33.8640 C   0  0  0  0  0  0  0  0  0  0  0  0
   -5.1520   19.3070  -33.4480 C   0  0  0  0  0  0  0  0  0  0  0  0
   -5.3140   20.6170  -32.9390 C   0  0  0  0  0  0  0  0  0  0  0  0
   -4.1670   21.4440  -32.8470 C   0  0  0  0  0  0  0  0  0  0  0  0
   -2.9190   20.9740  -33.2670 C   0  0  0  0  0  0  0  0  0  0  0  0
   -4.2550   22.6780  -32.3670 O   0  0  0  0  0  0  0  0  0  0  0  0
   -5.3940   23.2180  -31.9590 C   0  0  0  0  0  0  0  0  0  0  0  0
   -5.3800   24.3990  -31.5100 O   0  0  0  0  0  0  0  0  0  0  0  0
   -6.5940   22.4880  -32.0240 C   0  0  0  0  0  0  0  0  0  0  0  0
   -7.8140   23.0610  -31.6130 C   0  0  0  0  0  0  0  0  0  0  0  0
   -8.9950   22.3220  -31.6760 C   0  0  0  0  0  0  0  0  0  0  0  0
   -8.9730   21.0110  -32.1410 C   0  0  0  0  0  0  0  0  0  0  0  0
   -7.7760   20.4280  -32.5610 C   0  0  0  0  0  0  0  0  0  0  0  0
   -6.5610   21.1550  -32.5140 C   0  0  0  0  0  0  0  0  0  0  0  0
   -3.0028   15.9890  -35.5051 H   0  0  0  0  0  0  0  0  0  0  0  0
   -1.7420   17.2655  -35.5936 H   0  0  0  0  0  0  0  0  0  0  0  0
   -1.2676   15.5330  -35.5936 H   0  0  0  0  0  0  0  0  0  0  0  0
   -2.8276   16.7287  -33.2716 H   0  0  0  0  0  0  0  0  0  0  0  0
   -1.7619   15.2547  -33.3269 H   0  0  0  0  0  0  0  0  0  0  0  0
   -0.2650   17.4830  -34.0100 H   0  0  0  0  0  0  0  0  0  0  0  0
   -1.1030   17.8720  -32.5850 H   0  0  0  0  0  0  0  0  0  0  0  0
   -0.1209   15.2076  -32.4477 H   0  0  0  0  0  0  0  0  0  0  0  0
    1.1965   16.3777  -32.8530 H   0  0  0  0  0  0  0  0  0  0  0  0
   -0.4604   16.1280  -30.3518 H   0  0  0  0  0  0  0  0  0  0  0  0
    1.2697   16.5508  -30.5497 H   0  0  0  0  0  0  0  0  0  0  0  0
    0.8927   19.5102  -29.7496 H   0  0  0  0  0  0  0  0  0  0  0  0
    1.9179   18.1645  -30.3482 H   0  0  0  0  0  0  0  0  0  0  0  0
    1.1777   20.7187  -31.6565 H   0  0  0  0  0  0  0  0  0  0  0  0
    2.5370   19.5922  -32.0061 H   0  0  0  0  0  0  0  0  0  0  0  0
   -0.2710   19.0400  -32.7430 H   0  0  0  0  0  0  0  0  0  0  0  0
    0.9983   21.1273  -33.7089 H   0  0  0  0  0  0  0  0  0  0  0  0
    1.5947   19.8235  -34.8028 H   0  0  0  0  0  0  0  0  0  0  0  0
   -0.9224   21.1760  -34.8924 H   0  0  0  0  0  0  0  0  0  0  0  0
   -0.3638   19.7790  -35.8934 H   0  0  0  0  0  0  0  0  0  0  0  0
   -3.7897   17.8261  -34.2459 H   0  0  0  0  0  0  0  0  0  0  0  0
   -6.0232   18.6389  -33.5171 H   0  0  0  0  0  0  0  0  0  0  0  0
   -2.0369   21.6249  -33.1767 H   0  0  0  0  0  0  0  0  0  0  0  0
   -7.8349   24.0959  -31.2408 H   0  0  0  0  0  0  0  0  0  0  0  0
   -9.9449   22.7762  -31.3577 H   0  0  0  0  0  0  0  0  0  0  0  0
   -9.9059   20.4293  -32.1780 H   0  0  0  0  0  0  0  0  0  0  0  0
   -7.7763   19.3926  -32.9325 H   0  0  0  0  0  0  0  0  0  0  0  0
  1  2  1  0
  2  3  1  0
  3  4  1  0
  4  5  1  0
  5  6  1  0
  6  7  1  0
  7  8  1  0
  8  9  1  0
  9 10  1  0
 10 11  1  0
 11 12  1  0
 12 13  1  0
 13 14  2  0
 14 15  1  0
 15 16  2  0
 16 17  1  0
 17 18  2  0
 17 19  1  0
 19 20  1  0
 20 21  2  0
 20 22  1  0
 22 23  2  0
 23 24  1  0
 24 25  2  0
 25 26  1  0
 26 27  2  0
 18 13  1  0
 27 22  1  0
 27 16  1  0
  1 28  1  0
  1 29  1  0
  1 30  1  0
  2 31  1  0
  2 32  1  0
  3 33  1  0
  3 34  1  0
  4 35  1  0
  4 36  1  0
  5 37  1  0
  5 38  1  0
  7 39  1  0
  7 40  1  0
  8 41  1  0
  8 42  1  0
  9 43  1  0
 10 44  1  0
 10 45  1  0
 11 46  1  0
 11 47  1  0
 14 48  1  0
 15 49  1  0
 18 50  1  0
 23 51  1  0
 24 52  1  0
 25 53  1  0
 26 54  1  0
M  CHG  1   3   1
M  END
>  <UniqueID>  (29) 
29

>  <SMILES>  (29) 
CC[NH2+]CCOCCNCCOc1ccc2c(c1)oc(=O)c1ccccc12

>  <Energy>  (29) 
60.38277290118179

>  <Genealogy>  (29) 
CC[NH2+]CCOCCNCCOc1ccc2c(c1)oc(=O)c1ccccc12 (protonated)
CC[NH2+]CCOCCNCCOc1ccc2c(c1)oc(=O)c1ccccc12 (3D coordinates assigned)
CC[NH2+]CCOCCNCCOc1ccc2c(c1)oc(=O)c1ccccc12 (optimized conformer: 60.38277290118179 kcal/mol)

>  <smiles>  (29) 
CCNCCOCCNCCOc1ccc2c(c1)oc(=O)c1ccccc12

>  <score_type>  (29) 
oracle

>  <origin>  (29) 
adg

>  <m_score__min__energy>  (29) 
-9.25

>  <m_primary>  (29) 
energy

$$$$
