0:0
     RDKit          3D

 21 21  0  0  0  0  0  0  0  0999 V2000
   -6.1050   25.3120  -29.6940 C   0  0  0  0  0  0  0  0  0  0  0  0
   -5.0530   24.9250  -30.6770 C   0  0  0  0  0  0  0  0  0  0  0  0
   -3.8630   25.2970  -30.4910 O   0  0  0  0  0  0  0  0  0  0  0  0
   -5.4240   24.2490  -31.8470 O   0  0  0  0  0  0  0  0  0  0  0  0
   -6.3090   23.1620  -31.9100 C   0  0  0  0  0  0  0  0  0  0  0  0
   -7.6860   23.2970  -31.6540 C   0  0  0  0  0  0  0  0  0  0  0  0
   -8.5310   22.1860  -31.7400 C   0  0  0  0  0  0  0  0  0  0  0  0
   -8.0130   20.9270  -32.0800 C   0  0  0  0  0  0  0  0  0  0  0  0
   -8.9260   19.7440  -32.2120 C   0  0  0  0  0  0  0  0  0  0  0  0
   -6.6460   20.8010  -32.3700 C   0  0  0  0  0  0  0  0  0  0  0  0
   -5.8030   21.9120  -32.2850 C   0  0  0  0  0  0  0  0  0  0  0  0
   -5.7220   25.1711  -28.6725 H   0  0  0  0  0  0  0  0  0  0  0  0
   -6.3745   26.3681  -29.8421 H   0  0  0  0  0  0  0  0  0  0  0  0
   -6.9947   24.6823  -29.8421 H   0  0  0  0  0  0  0  0  0  0  0  0
   -8.0994   24.2803  -31.3852 H   0  0  0  0  0  0  0  0  0  0  0  0
   -9.6067   22.2996  -31.5402 H   0  0  0  0  0  0  0  0  0  0  0  0
   -9.2049   19.3826  -31.2112 H   0  0  0  0  0  0  0  0  0  0  0  0
   -9.8323   20.0397  -32.7608 H   0  0  0  0  0  0  0  0  0  0  0  0
   -8.4103   18.9422  -32.7608 H   0  0  0  0  0  0  0  0  0  0  0  0
   -6.2364   19.8238  -32.6654 H   0  0  0  0  0  0  0  0  0  0  0  0
   -4.7327   21.8034  -32.5147 H   0  0  0  0  0  0  0  0  0  0  0  0
  1  2  1  0
  2  3  2  0
  2  4  1  0
  4  5  1  0
  5  6  2  0
  6  7  1  0
  7  8  2  0
  8  9  1  0
  8 10  1  0
 10 11  2  0
 11  5  1  0
  1 12  1  0
  1 13  1  0
  1 14  1  0
  6 15  1  0
  7 16  1  0
  9 17  1  0
  9 18  1  0
  9 19  1  0
 10 20  1  0
 11 21  1  0
M  END
>  <UniqueID>  (1) 
1

>  <SMILES>  (1) 
CC(=O)Oc1ccc(C)cc1

>  <Energy>  (1) 
21.031506810747125

>  <Genealogy>  (1) 
CC(=O)Oc1ccc(C)cc1 (3D coordinates assigned)
CC(=O)Oc1ccc(C)cc1 (optimized conformer: 21.031506810747125 kcal/mol)

>  <smiles>  (1) 
CC(=O)Oc1ccc(C)cc1

>  <score_type>  (1) 
oracle

>  <origin>  (1) 
adg

>  <m_score__min__energy>  (1) 
-6.0999999999999996

>  <m_primary>  (1) 
energy

$$$$
1:0
     RDKit          3D

 45 46  0  0  0  0  0  0  0  0999 V2000
   -2.8130   15.9960  -35.3540 C   0  0  0  0  0  0  0  0  0  0  0  0
   -4.0760   16.6000  -35.6110 O   0  0  0  0  0  0  0  0  0  0  0  0
   -4.8800   17.2000  -34.6300 C   0  0  0  0  0  0  0  0  0  0  0  0
   -5.2370   16.4450  -33.5090 C   0  0  0  0  0  0  0  0  0  0  0  0
   -6.0480   16.9930  -32.5100 C   0  0  0  0  0  0  0  0  0  0  0  0
   -6.5430   18.3050  -32.6310 C   0  0  0  0  0  0  0  0  0  0  0  0
   -7.3650   18.8890  -31.5920 N   0  0  0  0  0  0  0  0  0  0  0  0
   -8.1420   20.0780  -32.0620 C   0  0  1  0  0  0  0  0  0  0  0  0
   -9.4990   19.6370  -32.6430 C   0  0  0  0  0  0  0  0  0  0  0  0
   -8.3750   21.1170  -30.9220 C   0  0  0  0  0  0  0  0  0  0  0  0
   -8.4080   22.5730  -31.4160 C   0  0  0  0  0  0  0  0  0  0  0  0
   -7.1120   23.3100  -31.1980 C   0  0  0  0  0  0  0  0  0  0  0  0
   -7.1030   24.5410  -30.5230 C   0  0  0  0  0  0  0  0  0  0  0  0
   -5.8950   25.1920  -30.2630 C   0  0  0  0  0  0  0  0  0  0  0  0
   -4.6870   24.6280  -30.6830 C   0  0  0  0  0  0  0  0  0  0  0  0
   -3.4930   25.2920  -30.4250 O   0  0  0  0  0  0  0  0  0  0  0  0
   -4.6770   23.4040  -31.3660 C   0  0  0  0  0  0  0  0  0  0  0  0
   -3.4430   22.8770  -31.7780 O   0  0  0  0  0  0  0  0  0  0  0  0
   -3.2850   21.6460  -32.4750 C   0  0  0  0  0  0  0  0  0  0  0  0
   -5.8970   22.7450  -31.6180 C   0  0  0  0  0  0  0  0  0  0  0  0
   -6.1440   19.0750  -33.7380 C   0  0  0  0  0  0  0  0  0  0  0  0
   -5.3330   18.5270  -34.7350 C   0  0  0  0  0  0  0  0  0  0  0  0
   -2.6566   15.9212  -34.2678 H   0  0  0  0  0  0  0  0  0  0  0  0
   -2.7907   14.9898  -35.7978 H   0  0  0  0  0  0  0  0  0  0  0  0
   -2.0157   16.6103  -35.7978 H   0  0  0  0  0  0  0  0  0  0  0  0
   -4.8767   15.4102  -33.4117 H   0  0  0  0  0  0  0  0  0  0  0  0
   -6.3010   16.3940  -31.6228 H   0  0  0  0  0  0  0  0  0  0  0  0
   -7.9990   18.1360  -31.2390 H   0  0  0  0  0  0  0  0  0  0  0  0
   -6.7590   19.1430  -30.7780 H   0  0  0  0  0  0  0  0  0  0  0  0
   -7.5427   20.5648  -32.8455 H   0  0  0  0  0  0  0  0  0  0  0  0
  -10.1939   19.4112  -31.8208 H   0  0  0  0  0  0  0  0  0  0  0  0
   -9.9136   20.4467  -33.2615 H   0  0  0  0  0  0  0  0  0  0  0  0
   -9.3584   18.7383  -33.2615 H   0  0  0  0  0  0  0  0  0  0  0  0
   -9.3364   20.8920  -30.4371 H   0  0  0  0  0  0  0  0  0  0  0  0
   -7.5267   21.0304  -30.2271 H   0  0  0  0  0  0  0  0  0  0  0  0
   -8.6304   22.5704  -32.4933 H   0  0  0  0  0  0  0  0  0  0  0  0
   -9.1802   23.0957  -30.8325 H   0  0  0  0  0  0  0  0  0  0  0  0
   -8.0509   24.9945  -30.1977 H   0  0  0  0  0  0  0  0  0  0  0  0
   -5.8942   26.1519  -29.7258 H   0  0  0  0  0  0  0  0  0  0  0  0
   -3.1797   20.8252  -31.7503 H   0  0  0  0  0  0  0  0  0  0  0  0
   -4.1675   21.4664  -33.1067 H   0  0  0  0  0  0  0  0  0  0  0  0
   -2.3858   21.6951  -33.1067 H   0  0  0  0  0  0  0  0  0  0  0  0
   -5.8975   21.7809  -32.1476 H   0  0  0  0  0  0  0  0  0  0  0  0
   -6.4743   20.1210  -33.8199 H   0  0  0  0  0  0  0  0  0  0  0  0
   -5.0478   19.1360  -35.6055 H   0  0  0  0  0  0  0  0  0  0  0  0
  1  2  1  0
  2  3  1  0
  3  4  2  0
  4  5  1  0
  5  6  2  0
  6  7  1  0
  7  8  1  0
  8  9  1  0
  8 10  1  0
 10 11  1  0
 11 12  1  0
 12 13  2  0
 13 14  1  0
 14 15  2  0
 15 16  1  0
 15 17  1  0
 17 18  1  0
 18 19  1  0
 17 20  2  0
  6 21  1  0
 21 22  2  0
 22  3  1  0
 20 12  1  0
  1 23  1  0
  1 24  1  0
  1 25  1  0
  4 26  1  0
  5 27  1  0
  7 28  1  0
  7 29  1  0
  8 30  1  6
  9 31  1  0
  9 32  1  0
  9 33  1  0
 10 34  1  0
 10 35  1  0
 11 36  1  0
 11 37  1  0
 13 38  1  0
 14 39  1  0
 19 40  1  0
 19 41  1  0
 19 42  1  0
 20 43  1  0
 21 44  1  0
 22 45  1  0
M  CHG  2   7   1  16  -1
M  END
>  <UniqueID>  (2) 
2

>  <SMILES>  (2) 
COc1ccc([NH2+][C@@H](C)CCc2ccc([O-])c(OC)c2)cc1

>  <Energy>  (2) 
45.61460729223234

>  <Genealogy>  (2) 
COc1ccc([NH2+]C(C)CCc2ccc([O-])c(OC)c2)cc1 (protonated)
COc1ccc([NH2+][C@@H](C)CCc2ccc([O-])c(OC)c2)cc1 (chirality)
COc1ccc([NH2+][C@@H](C)CCc2ccc([O-])c(OC)c2)cc1 (3D coordinates assigned)
COc1ccc([NH2+][C@@H](C)CCc2ccc([O-])c(OC)c2)cc1 (optimized conformer: 45.61460729223234 kcal/mol)

>  <smiles>  (2) 
COc1ccc(NC(C)CCc2ccc(O)c(OC)c2)cc1

>  <score_type>  (2) 
oracle

>  <origin>  (2) 
adg

>  <m_score__min__energy>  (2) 
-10.19

>  <m_primary>  (2) 
energy

$$$$
2:0
     RDKit          3D

 27 28  0  0  0  0  0  0  0  0999 V2000
   -5.7430   19.1050  -34.2100 C   0  0  0  0  0  0  0  0  0  0  0  0
   -6.8190   19.2070  -33.1760 C   0  0  0  0  0  0  0  0  0  0  0  0
   -7.4310   18.0550  -32.6730 C   0  0  0  0  0  0  0  0  0  0  0  0
   -8.4310   18.1980  -31.7110 C   0  0  0  0  0  0  0  0  0  0  0  0
   -8.7890   19.4360  -31.2860 N   0  0  0  0  0  0  0  0  0  0  0  0
   -8.1870   20.5460  -31.7850 C   0  0  0  0  0  0  0  0  0  0  0  0
   -8.6810   22.1660  -31.2090 S   0  0  0  0  0  0  0  0  0  0  0  0
   -7.5460   23.0410  -32.3360 C   0  0  0  0  0  0  0  0  0  0  0  0
   -6.3760   23.5660  -31.5580 C   0  0  0  0  0  0  0  0  0  0  0  0
   -5.1380   22.9010  -31.6040 C   0  0  0  0  0  0  0  0  0  0  0  0
   -4.0400   23.4100  -30.9050 C   0  0  0  0  0  0  0  0  0  0  0  0
   -4.1640   24.5880  -30.1640 C   0  0  0  0  0  0  0  0  0  0  0  0
   -3.0970   25.0810  -29.4870 F   0  0  0  0  0  0  0  0  0  0  0  0
   -5.3880   25.2630  -30.1240 C   0  0  0  0  0  0  0  0  0  0  0  0
   -6.4900   24.7580  -30.8220 C   0  0  0  0  0  0  0  0  0  0  0  0
   -7.2090   20.4280  -32.7210 N   0  0  0  0  0  0  0  0  0  0  0  0
   -4.7655   19.0123  -33.7141 H   0  0  0  0  0  0  0  0  0  0  0  0
   -5.9209   18.2197  -34.8382 H   0  0  0  0  0  0  0  0  0  0  0  0
   -5.7513   20.0080  -34.8382 H   0  0  0  0  0  0  0  0  0  0  0  0
   -7.1307   17.0581  -33.0279 H   0  0  0  0  0  0  0  0  0  0  0  0
   -8.9287   17.3084  -31.2975 H   0  0  0  0  0  0  0  0  0  0  0  0
   -7.1894   22.3456  -33.1101 H   0  0  0  0  0  0  0  0  0  0  0  0
   -8.0757   23.8792  -32.8123 H   0  0  0  0  0  0  0  0  0  0  0  0
   -5.0333   21.9772  -32.1920 H   0  0  0  0  0  0  0  0  0  0  0  0
   -3.0757   22.8818  -30.9383 H   0  0  0  0  0  0  0  0  0  0  0  0
   -5.4843   26.1921  -29.5430 H   0  0  0  0  0  0  0  0  0  0  0  0
   -7.4493   25.2957  -30.7948 H   0  0  0  0  0  0  0  0  0  0  0  0
  1  2  1  0
  2  3  2  0
  3  4  1  0
  4  5  2  0
  5  6  1  0
  6  7  1  0
  7  8  1  0
  8  9  1  0
  9 10  2  0
 10 11  1  0
 11 12  2  0
 12 13  1  0
 12 14  1  0
 14 15  2  0
  6 16  2  0
 16  2  1  0
 15  9  1  0
  1 17  1  0
  1 18  1  0
  1 19  1  0
  3 20  1  0
  4 21  1  0
  8 22  1  0
  8 23  1  0
 10 24  1  0
 11 25  1  0
 14 26  1  0
 15 27  1  0
M  END
>  <UniqueID>  (3) 
3

>  <SMILES>  (3) 
Cc1ccnc(SCc2ccc(F)cc2)n1

>  <Energy>  (3) 
22.77027674996578

>  <Genealogy>  (3) 
Cc1ccnc(SCc2ccc(F)cc2)n1 (3D coordinates assigned)
Cc1ccnc(SCc2ccc(F)cc2)n1 (optimized conformer: 22.77027674996578 kcal/mol)

>  <smiles>  (3) 
Cc1ccnc(SCc2ccc(F)cc2)n1

>  <score_type>  (3) 
oracle

>  <origin>  (3) 
adg

>  <m_score__min__energy>  (3) 
-6.8099999999999996

>  <m_primary>  (3) 
energy

$$$$
3:0
     RDKit          3D

 40 42  0  0  0  0  0  0  0  0999 V2000
   -2.7670   24.9290  -29.3770 O   0  0  0  0  0  0  0  0  0  0  0  0
   -3.2040   23.7780  -29.0960 C   0  0  0  0  0  0  0  0  0  0  0  0
   -4.6810   23.5880  -28.8370 C   0  0  0  0  0  0  0  0  0  0  0  0
   -5.4480   24.8390  -28.9840 N   0  0  0  0  0  0  0  0  0  0  0  0
   -5.7930   25.1090  -30.3900 C   0  0  0  0  0  0  0  0  0  0  0  0
   -6.2850   23.8540  -31.0610 C   0  0  0  0  0  0  0  0  0  0  0  0
   -5.4030   23.0790  -31.8560 C   0  0  0  0  0  0  0  0  0  0  0  0
   -5.8410   21.8850  -32.4580 C   0  0  0  0  0  0  0  0  0  0  0  0
   -7.1590   21.4920  -32.2390 C   0  0  0  0  0  0  0  0  0  0  0  0
   -7.7730   20.3940  -32.7120 N   0  0  0  0  0  0  0  0  0  0  0  0
   -9.0350   20.4380  -32.2250 C   0  0  0  0  0  0  0  0  0  0  0  0
   -9.2220   21.5720  -31.4390 C   0  0  0  0  0  0  0  0  0  0  0  0
   -8.0110   22.2290  -31.4630 C   0  0  0  0  0  0  0  0  0  0  0  0
   -7.6110   23.4150  -30.8510 C   0  0  0  0  0  0  0  0  0  0  0  0
   -2.2850   22.6740  -28.9950 N   0  0  0  0  0  0  0  0  0  0  0  0
   -1.0060   22.7420  -29.7090 C   0  0  0  0  0  0  0  0  0  0  0  0
   -0.4820   21.3260  -29.9730 C   0  0  0  0  0  0  0  0  0  0  0  0
   -0.4460   20.5720  -28.7760 O   0  0  0  0  0  0  0  0  0  0  0  0
   -1.7630   20.3820  -28.2930 C   0  0  0  0  0  0  0  0  0  0  0  0
   -2.3910   21.7180  -27.8860 C   0  0  0  0  0  0  0  0  0  0  0  0
   -5.0719   22.8490  -29.5519 H   0  0  0  0  0  0  0  0  0  0  0  0
   -4.7958   23.2469  -27.7975 H   0  0  0  0  0  0  0  0  0  0  0  0
   -6.3340   24.7380  -28.4350 H   0  0  0  0  0  0  0  0  0  0  0  0
   -4.9090   25.6420  -28.5810 H   0  0  0  0  0  0  0  0  0  0  0  0
   -6.5825   25.8740  -30.4288 H   0  0  0  0  0  0  0  0  0  0  0  0
   -4.8946   25.4653  -30.9153 H   0  0  0  0  0  0  0  0  0  0  0  0
   -4.3659   23.4146  -32.0036 H   0  0  0  0  0  0  0  0  0  0  0  0
   -5.1645   21.2817  -33.0812 H   0  0  0  0  0  0  0  0  0  0  0  0
   -7.3640   19.6550  -33.3250 H   0  0  0  0  0  0  0  0  0  0  0  0
   -9.8079   19.6808  -32.4232 H   0  0  0  0  0  0  0  0  0  0  0  0
  -10.1384   21.8774  -30.9127 H   0  0  0  0  0  0  0  0  0  0  0  0
   -8.3065   23.9918  -30.2236 H   0  0  0  0  0  0  0  0  0  0  0  0
   -1.1501   23.2625  -30.6673 H   0  0  0  0  0  0  0  0  0  0  0  0
   -0.2764   23.2903  -29.0950 H   0  0  0  0  0  0  0  0  0  0  0  0
   -1.1440   20.8253  -30.6948 H   0  0  0  0  0  0  0  0  0  0  0  0
    0.5392   21.3974  -30.3755 H   0  0  0  0  0  0  0  0  0  0  0  0
   -2.3742   19.9222  -29.0836 H   0  0  0  0  0  0  0  0  0  0  0  0
   -1.7236   19.7274  -27.4099 H   0  0  0  0  0  0  0  0  0  0  0  0
   -3.4512   21.5628  -27.6374 H   0  0  0  0  0  0  0  0  0  0  0  0
   -1.8601   22.1175  -27.0093 H   0  0  0  0  0  0  0  0  0  0  0  0
  1  2  2  0
  2  3  1  0
  3  4  1  0
  4  5  1  0
  5  6  1  0
  6  7  2  0
  7  8  1  0
  8  9  2  0
  9 10  1  0
 10 11  1  0
 11 12  2  0
 12 13  1  0
 13 14  2  0
  2 15  1  0
 15 16  1  0
 16 17  1  0
 17 18  1  0
 18 19  1  0
 19 20  1  0
 14  6  1  0
 20 15  1  0
 13  9  1  0
  3 21  1  0
  3 22  1  0
  4 23  1  0
  4 24  1  0
  5 25  1  0
  5 26  1  0
  7 27  1  0
  8 28  1  0
 10 29  1  0
 11 30  1  0
 12 31  1  0
 14 32  1  0
 16 33  1  0
 16 34  1  0
 17 35  1  0
 17 36  1  0
 19 37  1  0
 19 38  1  0
 20 39  1  0
 20 40  1  0
M  CHG  1   4   1
M  END
>  <UniqueID>  (4) 
4

>  <SMILES>  (4) 
O=C(C[NH2+]Cc1ccc2[nH]ccc2c1)N1CCOCC1

>  <Energy>  (4) 
75.91857840184176

>  <Genealogy>  (4) 
O=C(C[NH2+]Cc1ccc2[nH]ccc2c1)N1CCOCC1 (protonated)
O=C(C[NH2+]Cc1ccc2[nH]ccc2c1)N1CCOCC1 (3D coordinates assigned)
O=C(C[NH2+]Cc1ccc2[nH]ccc2c1)N1CCOCC1 (nonaromatic ring conformer: 75.91857840184176 kcal/mol)

>  <smiles>  (4) 
O=C(CNCc1ccc2[nH]ccc2c1)N1CCOCC1

>  <score_type>  (4) 
oracle

>  <origin>  (4) 
adg

>  <m_score__min__energy>  (4) 
-6.7699999999999996

>  <m_primary>  (4) 
energy

$$$$
4:0
     RDKit          3D

 45 48  0  0  0  0  0  0  0  0999 V2000
   -6.2480   25.5180  -30.0360 C   0  0  0  0  0  0  0  0  0  0  0  0
   -6.6670   24.1830  -30.5790 C   0  0  0  0  0  0  0  0  0  0  0  0
   -6.5370   23.8980  -31.9460 C   0  0  0  0  0  0  0  0  0  0  0  0
   -6.9360   22.6540  -32.4460 C   0  0  0  0  0  0  0  0  0  0  0  0
   -7.4820   21.6920  -31.5900 C   0  0  0  0  0  0  0  0  0  0  0  0
   -7.9290   20.1110  -32.2180 S   0  0  0  0  0  0  0  0  0  0  0  0
   -9.4090   20.0960  -32.4810 O   0  0  0  0  0  0  0  0  0  0  0  0
   -7.6140   19.0200  -31.2340 O   0  0  0  0  0  0  0  0  0  0  0  0
   -7.0850   19.8320  -33.7050 N   0  0  0  0  0  0  0  0  0  0  0  0
   -5.7260   19.3890  -33.8190 C   0  0  0  0  0  0  0  0  0  0  0  0
   -5.4330   18.3870  -34.7740 C   0  0  0  0  0  0  0  0  0  0  0  0
   -4.1240   17.9040  -34.9350 C   0  0  0  0  0  0  0  0  0  0  0  0
   -3.1320   18.4390  -34.1210 C   0  0  0  0  0  0  0  0  0  0  0  0
   -1.8410   18.0750  -34.0690 N   0  0  0  0  0  0  0  0  0  0  0  0
   -1.2680   18.7940  -33.1110 N   0  0  0  0  0  0  0  0  0  0  0  0
   -2.1880   19.6220  -32.5570 C   0  0  0  0  0  0  0  0  0  0  0  0
   -1.8910   20.5040  -31.4090 C   0  0  0  0  0  0  0  0  0  0  0  0
   -0.8000   20.1960  -30.5800 C   0  0  0  0  0  0  0  0  0  0  0  0
   -0.4600   21.0350  -29.5190 C   0  0  0  0  0  0  0  0  0  0  0  0
   -1.1940   22.1980  -29.2860 C   0  0  0  0  0  0  0  0  0  0  0  0
   -2.2820   22.5260  -30.1080 C   0  0  0  0  0  0  0  0  0  0  0  0
   -3.1560   24.0360  -29.8510 S   0  0  0  0  0  0  0  0  0  0  0  0
   -2.0470   25.2570  -29.3410 N   0  0  0  0  0  0  0  0  0  0  0  0
   -4.2090   23.8500  -28.7930 O   0  0  0  0  0  0  0  0  0  0  0  0
   -3.8290   24.4620  -31.1240 O   0  0  0  0  0  0  0  0  0  0  0  0
   -2.6280   21.6800  -31.1720 C   0  0  0  0  0  0  0  0  0  0  0  0
   -3.3990   19.4090  -33.1960 C   0  0  0  0  0  0  0  0  0  0  0  0
   -4.6900   19.9040  -33.0020 C   0  0  0  0  0  0  0  0  0  0  0  0
   -7.6270   21.9810  -30.2300 C   0  0  0  0  0  0  0  0  0  0  0  0
   -7.2270   23.2200  -29.7250 C   0  0  0  0  0  0  0  0  0  0  0  0
   -6.2580   25.4861  -28.9365 H   0  0  0  0  0  0  0  0  0  0  0  0
   -5.2325   25.7542  -30.3868 H   0  0  0  0  0  0  0  0  0  0  0  0
   -6.9464   26.2921  -30.3868 H   0  0  0  0  0  0  0  0  0  0  0  0
   -6.1201   24.6547  -32.6269 H   0  0  0  0  0  0  0  0  0  0  0  0
   -6.8199   22.4314  -33.5170 H   0  0  0  0  0  0  0  0  0  0  0  0
   -6.2417   17.9806  -35.3991 H   0  0  0  0  0  0  0  0  0  0  0  0
   -3.8916   17.1287  -35.6799 H   0  0  0  0  0  0  0  0  0  0  0  0
   -0.2098   19.2871  -30.7687 H   0  0  0  0  0  0  0  0  0  0  0  0
    0.3873   20.7795  -28.8657 H   0  0  0  0  0  0  0  0  0  0  0  0
   -0.9180   22.8614  -28.4531 H   0  0  0  0  0  0  0  0  0  0  0  0
   -2.6170   26.0510  -28.9710 H   0  0  0  0  0  0  0  0  0  0  0  0
   -3.4771   21.9359  -31.8228 H   0  0  0  0  0  0  0  0  0  0  0  0
   -4.8959   20.6693  -32.2392 H   0  0  0  0  0  0  0  0  0  0  0  0
   -8.0586   21.2283  -29.5539 H   0  0  0  0  0  0  0  0  0  0  0  0
   -7.3511   23.4419  -28.6548 H   0  0  0  0  0  0  0  0  0  0  0  0
  1  2  1  0
  2  3  2  0
  3  4  1  0
  4  5  2  0
  5  6  1  0
  6  7  2  0
  6  8  2  0
  6  9  1  0
  9 10  1  0
 10 11  1  0
 11 12  2  0
 12 13  1  0
 13 14  2  0
 14 15  1  0
 15 16  1  0
 16 17  1  0
 17 18  2  0
 18 19  1  0
 19 20  2  0
 20 21  1  0
 21 22  1  0
 22 23  1  0
 22 24  2  0
 22 25  2  0
 21 26  2  0
 16 27  2  0
 27 28  1  0
  5 29  1  0
 29 30  2  0
 30  2  1  0
 28 10  2  0
 27 13  1  0
 26 17  1  0
  1 31  1  0
  1 32  1  0
  1 33  1  0
  3 34  1  0
  4 35  1  0
 11 36  1  0
 12 37  1  0
 18 38  1  0
 19 39  1  0
 20 40  1  0
 23 41  1  0
 26 42  1  0
 28 43  1  0
 29 44  1  0
 30 45  1  0
M  CHG  3   9  -1  15  -1  23  -1
M  END
>  <UniqueID>  (5) 
5

>  <SMILES>  (5) 
Cc1ccc(S(=O)(=O)[N-]c2ccc3n[n-]c(-c4cccc(S([NH-])(=O)=O)c4)c3c2)cc1

>  <Energy>  (5) 
93.25282711841767

>  <Genealogy>  (5) 
Cc1ccc(S(=O)(=O)[N-]c2ccc3n[n-]c(-c4cccc(S([NH-])(=O)=O)c4)c3c2)cc1 (protonated)
Cc1ccc(S(=O)(=O)[N-]c2ccc3n[n-]c(-c4cccc(S([NH-])(=O)=O)c4)c3c2)cc1 (3D coordinates assigned)
Cc1ccc(S(=O)(=O)[N-]c2ccc3n[n-]c(-c4cccc(S([NH-])(=O)=O)c4)c3c2)cc1 (optimized conformer: 93.25282711841767 kcal/mol)

>  <smiles>  (5) 
Cc1ccc(S(=O)(=O)Nc2ccc3n[nH]c(-c4cccc(S(N)(=O)=O)c4)c3c2)cc1

>  <score_type>  (5) 
oracle

>  <origin>  (5) 
adg

>  <m_score__min__energy>  (5) 
-12.24

>  <m_primary>  (5) 
energy

$$$$
5:0
     RDKit          3D

 50 53  0  0  0  0  0  0  0  0999 V2000
   -1.6360   21.7080  -29.2530 C   0  0  0  0  0  0  0  0  0  0  0  0
   -0.8240   21.8830  -30.3780 C   0  0  0  0  0  0  0  0  0  0  0  0
   -1.3330   21.6250  -31.6540 C   0  0  0  0  0  0  0  0  0  0  0  0
   -2.6580   21.1860  -31.8140 C   0  0  0  0  0  0  0  0  0  0  0  0
   -3.2190   20.9360  -33.1910 C   0  0  0  0  0  0  0  0  0  0  0  0
   -2.8900   19.5250  -33.7000 C   0  0  0  0  0  0  0  0  0  0  0  0
   -3.3930   18.4280  -32.7510 C   0  0  0  0  0  0  0  0  0  0  0  0
   -4.3040   17.5060  -33.4690 N   0  0  0  0  0  0  0  0  0  0  0  0
   -5.0260   18.1780  -34.5820 C   0  0  0  0  0  0  0  0  0  0  0  0
   -6.4650   18.6080  -34.2230 C   0  0  0  0  0  0  0  0  0  0  0  0
   -6.5850   18.8480  -32.7810 N   0  0  0  0  0  0  0  0  0  0  0  0
   -7.1810   20.0490  -32.2590 C   0  0  0  0  0  0  0  0  0  0  0  0
   -6.3950   21.1640  -31.9300 C   0  0  0  0  0  0  0  0  0  0  0  0
   -7.0190   22.3030  -31.3980 C   0  0  0  0  0  0  0  0  0  0  0  0
   -6.2680   23.4790  -31.0410 N   0  0  0  0  0  0  0  0  0  0  0  0
   -6.7170   24.5130  -30.3080 C   0  0  0  0  0  0  0  0  0  0  0  0
   -5.7020   25.4350  -30.1970 C   0  0  0  0  0  0  0  0  0  0  0  0
   -4.6150   24.9890  -30.8570 N   0  0  0  0  0  0  0  0  0  0  0  0
   -4.9940   23.7960  -31.3600 C   0  0  0  0  0  0  0  0  0  0  0  0
   -8.3660   22.2860  -31.2040 N   0  0  0  0  0  0  0  0  0  0  0  0
   -9.1140   21.1950  -31.5120 C   0  0  0  0  0  0  0  0  0  0  0  0
   -8.5220   20.0900  -32.0300 N   0  0  0  0  0  0  0  0  0  0  0  0
   -6.1870   17.7810  -31.8580 C   0  0  0  0  0  0  0  0  0  0  0  0
   -5.2220   16.8020  -32.5490 C   0  0  0  0  0  0  0  0  0  0  0  0
   -3.4690   21.0210  -30.6790 C   0  0  0  0  0  0  0  0  0  0  0  0
   -2.9570   21.2790  -29.4030 C   0  0  0  0  0  0  0  0  0  0  0  0
   -1.2341   21.9084  -28.2488 H   0  0  0  0  0  0  0  0  0  0  0  0
    0.2151   22.2236  -30.2588 H   0  0  0  0  0  0  0  0  0  0  0  0
   -0.6929   21.7664  -32.5374 H   0  0  0  0  0  0  0  0  0  0  0  0
   -4.3120   21.0548  -33.1559 H   0  0  0  0  0  0  0  0  0  0  0  0
   -2.7614   21.6607  -33.8805 H   0  0  0  0  0  0  0  0  0  0  0  0
   -3.3625   19.3852  -34.6834 H   0  0  0  0  0  0  0  0  0  0  0  0
   -1.7952   19.4380  -33.7626 H   0  0  0  0  0  0  0  0  0  0  0  0
   -2.5337   17.8608  -32.3639 H   0  0  0  0  0  0  0  0  0  0  0  0
   -3.9400   18.8967  -31.9197 H   0  0  0  0  0  0  0  0  0  0  0  0
   -4.4585   19.0746  -34.8720 H   0  0  0  0  0  0  0  0  0  0  0  0
   -5.1053   17.4465  -35.3997 H   0  0  0  0  0  0  0  0  0  0  0  0
   -6.7126   19.5323  -34.7656 H   0  0  0  0  0  0  0  0  0  0  0  0
   -7.1584   17.8032  -34.5085 H   0  0  0  0  0  0  0  0  0  0  0  0
   -5.3064   21.1456  -32.0867 H   0  0  0  0  0  0  0  0  0  0  0  0
   -7.7227   24.6057  -29.8722 H   0  0  0  0  0  0  0  0  0  0  0  0
   -5.7676   26.3890  -29.6534 H   0  0  0  0  0  0  0  0  0  0  0  0
   -4.3377   23.1519  -31.9637 H   0  0  0  0  0  0  0  0  0  0  0  0
  -10.2006   21.2075  -31.3413 H   0  0  0  0  0  0  0  0  0  0  0  0
   -5.6875   18.2257  -30.9847 H   0  0  0  0  0  0  0  0  0  0  0  0
   -7.0856   17.2308  -31.5420 H   0  0  0  0  0  0  0  0  0  0  0  0
   -4.6298   16.2821  -31.7815 H   0  0  0  0  0  0  0  0  0  0  0  0
   -5.8171   16.0864  -33.1354 H   0  0  0  0  0  0  0  0  0  0  0  0
   -4.5109   20.6876  -30.7940 H   0  0  0  0  0  0  0  0  0  0  0  0
   -3.5950   21.1440  -28.5171 H   0  0  0  0  0  0  0  0  0  0  0  0
  1  2  2  0
  2  3  1  0
  3  4  2  0
  4  5  1  0
  5  6  1  0
  6  7  1  0
  7  8  1  0
  8  9  1  0
  9 10  1  0
 10 11  1  0
 11 12  1  0
 12 13  2  0
 13 14  1  0
 14 15  1  0
 15 16  1  0
 16 17  2  0
 17 18  1  0
 18 19  2  0
 14 20  2  0
 20 21  1  0
 21 22  2  0
 11 23  1  0
 23 24  1  0
  4 25  1  0
 25 26  2  0
 26  1  1  0
 24  8  1  0
 22 12  1  0
 19 15  1  0
  1 27  1  0
  2 28  1  0
  3 29  1  0
  5 30  1  0
  5 31  1  0
  6 32  1  0
  6 33  1  0
  7 34  1  0
  7 35  1  0
  9 36  1  0
  9 37  1  0
 10 38  1  0
 10 39  1  0
 13 40  1  0
 16 41  1  0
 17 42  1  0
 19 43  1  0
 21 44  1  0
 23 45  1  0
 23 46  1  0
 24 47  1  0
 24 48  1  0
 25 49  1  0
 26 50  1  0
M  END
>  <UniqueID>  (6) 
6

>  <SMILES>  (6) 
c1ccc(CCCN2CCN(c3cc(-n4ccnc4)ncn3)CC2)cc1

>  <Energy>  (6) 
92.51868273268725

>  <Genealogy>  (6) 
c1ccc(CCCN2CCN(c3cc(-n4ccnc4)ncn3)CC2)cc1 (3D coordinates assigned)
c1ccc(CCCN2CCN(c3cc(-n4ccnc4)ncn3)CC2)cc1 (nonaromatic ring conformer: 92.51868273268725 kcal/mol)

>  <smiles>  (6) 
c1ccc(CCCN2CCN(c3cc(-n4ccnc4)ncn3)CC2)cc1

>  <score_type>  (6) 
oracle

>  <origin>  (6) 
adg

>  <m_score__min__energy>  (6) 
-7.8499999999999996

>  <m_primary>  (6) 
energy

$$$$
6:0
     RDKit          3D

 30 31  0  0  0  0  0  0  0  0999 V2000
   -6.8360   16.4560  -33.3810 C   0  0  0  0  0  0  0  0  0  0  0  0
   -7.1230   17.8760  -32.9810 C   0  0  0  0  0  0  0  0  0  0  0  0
   -8.3170   18.1860  -32.3090 C   0  0  0  0  0  0  0  0  0  0  0  0
   -8.5990   19.5020  -31.9350 C   0  0  0  0  0  0  0  0  0  0  0  0
   -7.6920   20.5270  -32.2280 C   0  0  0  0  0  0  0  0  0  0  0  0
   -8.0500   22.1910  -31.7770 S   0  0  0  0  0  0  0  0  0  0  0  0
   -9.3740   22.6230  -32.3460 O   0  0  0  0  0  0  0  0  0  0  0  0
   -8.1090   22.2820  -30.2780 O   0  0  0  0  0  0  0  0  0  0  0  0
   -6.8070   23.2500  -32.3650 N   0  0  0  0  0  0  0  0  0  0  0  0
   -5.6700   23.6640  -31.5860 C   0  0  0  0  0  0  0  0  0  0  0  0
   -4.5020   22.8810  -31.4980 C   0  0  0  0  0  0  0  0  0  0  0  0
   -3.4200   23.3110  -30.7240 C   0  0  0  0  0  0  0  0  0  0  0  0
   -3.4880   24.5240  -30.0340 C   0  0  0  0  0  0  0  0  0  0  0  0
   -2.0910   25.0750  -29.0360 S   0  0  0  0  0  0  0  0  0  0  0  0
   -4.6380   25.3120  -30.1220 C   0  0  0  0  0  0  0  0  0  0  0  0
   -5.7220   24.8860  -30.8950 C   0  0  0  0  0  0  0  0  0  0  0  0
   -6.4960   20.2250  -32.8910 C   0  0  0  0  0  0  0  0  0  0  0  0
   -6.2080   18.9090  -33.2720 C   0  0  0  0  0  0  0  0  0  0  0  0
   -4.5580   18.5690  -34.1880 Br  0  0  0  0  0  0  0  0  0  0  0  0
   -6.7113   15.8390  -32.4789 H   0  0  0  0  0  0  0  0  0  0  0  0
   -7.6737   16.0669  -33.9784 H   0  0  0  0  0  0  0  0  0  0  0  0
   -5.9130   16.4228  -33.9784 H   0  0  0  0  0  0  0  0  0  0  0  0
   -9.0354   17.3864  -32.0755 H   0  0  0  0  0  0  0  0  0  0  0  0
   -9.5367   19.7335  -31.4086 H   0  0  0  0  0  0  0  0  0  0  0  0
   -6.9510   23.6660  -33.3130 H   0  0  0  0  0  0  0  0  0  0  0  0
   -4.4411   21.9264  -32.0411 H   0  0  0  0  0  0  0  0  0  0  0  0
   -2.5127   22.6926  -30.6581 H   0  0  0  0  0  0  0  0  0  0  0  0
   -4.6907   26.2690  -29.5823 H   0  0  0  0  0  0  0  0  0  0  0  0
   -6.6233   25.5129  -30.9628 H   0  0  0  0  0  0  0  0  0  0  0  0
   -5.7776   21.0276  -33.1140 H   0  0  0  0  0  0  0  0  0  0  0  0
  1  2  1  0
  2  3  2  0
  3  4  1  0
  4  5  2  0
  5  6  1  0
  6  7  2  0
  6  8  2  0
  6  9  1  0
  9 10  1  0
 10 11  2  0
 11 12  1  0
 12 13  2  0
 13 14  1  0
 13 15  1  0
 15 16  2  0
  5 17  1  0
 17 18  2  0
 18 19  1  0
 18  2  1  0
 16 10  1  0
  1 20  1  0
  1 21  1  0
  1 22  1  0
  3 23  1  0
  4 24  1  0
  9 25  1  0
 11 26  1  0
 12 27  1  0
 15 28  1  0
 16 29  1  0
 17 30  1  0
M  CHG  1  14  -1
M  END
>  <UniqueID>  (7) 
7

>  <SMILES>  (7) 
Cc1ccc(S(=O)(=O)Nc2ccc([S-])cc2)cc1Br

>  <Energy>  (7) 
33.22736760500071

>  <Genealogy>  (7) 
Cc1ccc(S(=O)(=O)Nc2ccc([S-])cc2)cc1Br (protonated)
Cc1ccc(S(=O)(=O)Nc2ccc([S-])cc2)cc1Br (3D coordinates assigned)
Cc1ccc(S(=O)(=O)Nc2ccc([S-])cc2)cc1Br (optimized conformer: 33.22736760500071 kcal/mol)

>  <smiles>  (7) 
Cc1ccc(S(=O)(=O)Nc2ccc(S)cc2)cc1Br

>  <score_type>  (7) 
oracle

>  <origin>  (7) 
adg

>  <m_score__min__energy>  (7) 
-10.02

>  <m_primary>  (7) 
energy

$$$$
7:0
     RDKit          3D

 63 67  0  0  0  0  0  0  0  0999 V2000
   -4.8280   17.1020  -34.9670 C   0  0  0  0  0  0  0  0  0  0  0  0
   -3.5020   17.6100  -35.0820 O   0  0  0  0  0  0  0  0  0  0  0  0
   -2.4360   17.2320  -34.2530 C   0  0  0  0  0  0  0  0  0  0  0  0
   -1.9060   15.9450  -34.3950 C   0  0  0  0  0  0  0  0  0  0  0  0
   -0.8460   15.5210  -33.5920 C   0  0  0  0  0  0  0  0  0  0  0  0
   -0.3060   16.3820  -32.6320 C   0  0  0  0  0  0  0  0  0  0  0  0
   -0.8180   17.6790  -32.4770 C   0  0  0  0  0  0  0  0  0  0  0  0
   -0.2730   18.5630  -31.4800 N   0  0  0  0  0  0  0  0  0  0  0  0
    0.1110   19.9360  -31.8330 C   0  0  0  0  0  0  0  0  0  0  0  0
   -0.4020   20.9470  -30.7860 C   0  0  0  0  0  0  0  0  0  0  0  0
   -0.8010   20.3030  -29.5170 N   0  0  0  0  0  0  0  0  0  0  0  0
   -0.9280   21.4870  -28.2400 S   0  0  0  0  0  0  0  0  0  0  0  0
    0.3200   22.3260  -28.2250 O   0  0  0  0  0  0  0  0  0  0  0  0
   -1.0340   20.7920  -26.9100 O   0  0  0  0  0  0  0  0  0  0  0  0
   -2.3290   22.5420  -28.4590 C   0  0  0  0  0  0  0  0  0  0  0  0
   -2.8000   23.3030  -27.3910 C   0  0  0  0  0  0  0  0  0  0  0  0
   -3.8750   24.1650  -27.5700 C   0  0  0  0  0  0  0  0  0  0  0  0
   -4.5140   24.2620  -28.8160 C   0  0  0  0  0  0  0  0  0  0  0  0
   -5.5230   25.1650  -28.9720 N   0  0  0  0  0  0  0  0  0  0  0  0
   -6.1420   25.3390  -30.1630 C   0  0  0  0  0  0  0  0  0  0  0  0
   -5.7940   24.5550  -31.2560 C   0  0  0  0  0  0  0  0  0  0  0  0
   -4.8120   23.5620  -31.1510 C   0  0  0  0  0  0  0  0  0  0  0  0
   -4.6930   22.7960  -32.2060 N   0  0  0  0  0  0  0  0  0  0  0  0
   -4.4020   21.1030  -32.4690 S   0  0  0  0  0  0  0  0  0  0  0  0
   -3.8110   20.8710  -33.8340 O   0  0  0  0  0  0  0  0  0  0  0  0
   -3.4910   20.5480  -31.4090 O   0  0  0  0  0  0  0  0  0  0  0  0
   -5.9500   20.2690  -32.3750 C   0  0  0  0  0  0  0  0  0  0  0  0
   -6.0040   18.8720  -32.4890 C   0  0  0  0  0  0  0  0  0  0  0  0
   -7.2350   18.2110  -32.4340 C   0  0  0  0  0  0  0  0  0  0  0  0
   -8.4170   18.9390  -32.2700 C   0  0  0  0  0  0  0  0  0  0  0  0
   -8.3700   20.3340  -32.1650 C   0  0  0  0  0  0  0  0  0  0  0  0
   -9.8530   21.2500  -31.9670 Cl  0  0  0  0  0  0  0  0  0  0  0  0
   -7.1390   20.9990  -32.2210 C   0  0  0  0  0  0  0  0  0  0  0  0
   -4.0960   23.4430  -29.9100 C   0  0  0  0  0  0  0  0  0  0  0  0
   -2.9620   22.6260  -29.7070 C   0  0  0  0  0  0  0  0  0  0  0  0
    0.1380   19.2370  -29.1410 C   0  0  0  0  0  0  0  0  0  0  0  0
   -0.0210   18.0690  -30.1190 C   0  0  0  0  0  0  0  0  0  0  0  0
   -1.8870   18.0980  -33.2860 C   0  0  0  0  0  0  0  0  0  0  0  0
   -5.0911   17.0012  -33.9037 H   0  0  0  0  0  0  0  0  0  0  0  0
   -5.5297   17.7950  -35.4543 H   0  0  0  0  0  0  0  0  0  0  0  0
   -4.8871   16.1176  -35.4543 H   0  0  0  0  0  0  0  0  0  0  0  0
   -2.3284   15.2613  -35.1461 H   0  0  0  0  0  0  0  0  0  0  0  0
   -0.4350   14.5081  -33.7147 H   0  0  0  0  0  0  0  0  0  0  0  0
    0.5238   16.0411  -31.9955 H   0  0  0  0  0  0  0  0  0  0  0  0
    1.2079   19.9994  -31.8852 H   0  0  0  0  0  0  0  0  0  0  0  0
   -0.3392   20.1839  -32.8056 H   0  0  0  0  0  0  0  0  0  0  0  0
    0.3980   21.6722  -30.5760 H   0  0  0  0  0  0  0  0  0  0  0  0
   -1.2944   21.4347  -31.2053 H   0  0  0  0  0  0  0  0  0  0  0  0
   -2.3200   23.2212  -26.4046 H   0  0  0  0  0  0  0  0  0  0  0  0
   -4.2286   24.7772  -26.7273 H   0  0  0  0  0  0  0  0  0  0  0  0
   -5.8240   25.7650  -28.1710 H   0  0  0  0  0  0  0  0  0  0  0  0
   -6.9246   26.1051  -30.2661 H   0  0  0  0  0  0  0  0  0  0  0  0
   -6.2983   24.7170  -32.2201 H   0  0  0  0  0  0  0  0  0  0  0  0
   -5.0766   18.2956  -32.6219 H   0  0  0  0  0  0  0  0  0  0  0  0
   -7.2733   17.1150  -32.5200 H   0  0  0  0  0  0  0  0  0  0  0  0
   -9.3835   18.4159  -32.2235 H   0  0  0  0  0  0  0  0  0  0  0  0
   -7.1037   22.0957  -32.1442 H   0  0  0  0  0  0  0  0  0  0  0  0
   -2.5654   22.0407  -30.5496 H   0  0  0  0  0  0  0  0  0  0  0  0
    1.1684   19.6193  -29.1867 H   0  0  0  0  0  0  0  0  0  0  0  0
   -0.0743   18.8972  -28.1166 H   0  0  0  0  0  0  0  0  0  0  0  0
    0.9006   17.4685  -30.1175 H   0  0  0  0  0  0  0  0  0  0  0  0
   -0.8765   17.4550  -29.8011 H   0  0  0  0  0  0  0  0  0  0  0  0
   -2.2992   19.1105  -33.1638 H   0  0  0  0  0  0  0  0  0  0  0  0
  1  2  1  0
  2  3  1  0
  3  4  2  0
  4  5  1  0
  5  6  2  0
  6  7  1  0
  7  8  1  0
  8  9  1  0
  9 10  1  0
 10 11  1  0
 11 12  1  0
 12 13  2  0
 12 14  2  0
 12 15  1  0
 15 16  2  0
 16 17  1  0
 17 18  2  0
 18 19  1  0
 19 20  1  0
 20 21  2  0
 21 22  1  0
 22 23  2  3
 23 24  1  0
 24 25  2  0
 24 26  2  0
 24 27  1  0
 27 28  2  0
 28 29  1  0
 29 30  2  0
 30 31  1  0
 31 32  1  0
 31 33  2  0
 22 34  1  0
 34 35  2  0
 11 36  1  0
 36 37  1  0
  7 38  2  0
 38  3  1  0
 37  8  1  0
 35 15  1  0
 34 18  1  0
 33 27  1  0
  1 39  1  0
  1 40  1  0
  1 41  1  0
  4 42  1  0
  5 43  1  0
  6 44  1  0
  9 45  1  0
  9 46  1  0
 10 47  1  0
 10 48  1  0
 16 49  1  0
 17 50  1  0
 19 51  1  0
 20 52  1  0
 21 53  1  0
 28 54  1  0
 29 55  1  0
 30 56  1  0
 33 57  1  0
 35 58  1  0
 36 59  1  0
 36 60  1  0
 37 61  1  0
 37 62  1  0
 38 63  1  0
M  END
>  <UniqueID>  (8) 
8

>  <SMILES>  (8) 
COc1cccc(N2CCN(S(=O)(=O)c3ccc4[nH]ccc(=NS(=O)(=O)c5cccc(Cl)c5)c4c3)CC2)c1

>  <Energy>  (8) 
101.23195660178106

>  <Genealogy>  (8) 
COc1cccc(N2CCN(S(=O)(=O)c3ccc4[nH]ccc(=NS(=O)(=O)c5cccc(Cl)c5)c4c3)CC2)c1 (3D coordinates assigned)
COc1cccc(N2CCN(S(=O)(=O)c3ccc4[nH]ccc(=NS(=O)(=O)c5cccc(Cl)c5)c4c3)CC2)c1 (nonaromatic ring conformer: 101.23195660178106 kcal/mol)

>  <smiles>  (8) 
COc1cccc(N2CCN(S(=O)(=O)c3ccc4[nH]ccc(=NS(=O)(=O)c5cccc(Cl)c5)c4c3)CC2)c1

>  <score_type>  (8) 
oracle

>  <origin>  (8) 
adg

>  <m_score__min__energy>  (8) 
-11.039999999999999

>  <m_primary>  (8) 
energy

$$$$
8:0
     RDKit          3D

 48 50  0  0  0  0  0  0  0  0999 V2000
   -7.9484   16.5724  -32.1935 H   0  0  0  0  0  0  0  0  0  0  0  0
   -7.2430   17.2140  -32.7420 C   0  0  0  0  0  0  0  0  0  0  0  0
   -6.6250   16.7420  -33.8990 C   0  0  0  0  0  0  0  0  0  0  0  0
   -6.8370   15.7279  -34.2688 H   0  0  0  0  0  0  0  0  0  0  0  0
   -5.7340   17.5710  -34.5830 C   0  0  0  0  0  0  0  0  0  0  0  0
   -5.2415   17.2092  -35.4977 H   0  0  0  0  0  0  0  0  0  0  0  0
   -5.4720   18.8250  -34.1230 N   0  0  0  0  0  0  0  0  0  0  0  0
   -4.7840   19.4070  -34.6500 H   0  0  0  0  0  0  0  0  0  0  0  0
   -6.0640   19.3140  -32.9900 C   0  0  0  0  0  0  0  0  0  0  0  0
   -5.7610   20.6900  -32.5190 C   0  0  0  0  0  0  0  0  0  0  0  0
   -6.7400   21.4400  -31.8460 C   0  0  0  0  0  0  0  0  0  0  0  0
   -7.7339   21.0043  -31.6664 H   0  0  0  0  0  0  0  0  0  0  0  0
   -6.4600   22.7360  -31.4030 C   0  0  0  0  0  0  0  0  0  0  0  0
   -7.2347   23.3125  -30.8763 H   0  0  0  0  0  0  0  0  0  0  0  0
   -5.2010   23.3050  -31.6250 C   0  0  0  0  0  0  0  0  0  0  0  0
   -4.9490   24.6350  -31.1570 N   0  0  0  0  0  0  0  0  0  0  0  0
   -3.9030   24.9340  -30.4970 N   0  0  0  0  0  0  0  0  0  0  0  0
   -3.2860   24.0150  -29.5870 C   0  0  0  0  0  0  0  0  0  0  0  0
   -2.0470   23.4160  -29.8700 C   0  0  0  0  0  0  0  0  0  0  0  0
   -1.5273   23.6506  -30.8107 H   0  0  0  0  0  0  0  0  0  0  0  0
   -1.4720   22.5230  -28.9610 C   0  0  0  0  0  0  0  0  0  0  0  0
   -0.5023   22.0583  -29.1930 H   0  0  0  0  0  0  0  0  0  0  0  0
   -2.1220   22.2130  -27.7520 C   0  0  0  0  0  0  0  0  0  0  0  0
   -1.5200   21.2960  -26.8090 N   0  0  0  0  0  0  0  0  0  0  0  0
   -1.5590   19.8470  -27.0550 C   0  0  0  0  0  0  0  0  0  0  0  0
   -0.6292   19.3938  -26.6806 H   0  0  0  0  0  0  0  0  0  0  0  0
   -1.6624   19.6788  -28.1371 H   0  0  0  0  0  0  0  0  0  0  0  0
   -2.7480   19.2020  -26.3480 C   0  0  0  0  0  0  0  0  0  0  0  0
   -2.6114   19.2761  -25.2590 H   0  0  0  0  0  0  0  0  0  0  0  0
   -3.6730   19.7220  -26.6377 H   0  0  0  0  0  0  0  0  0  0  0  0
   -2.8165   18.1431  -26.6377 H   0  0  0  0  0  0  0  0  0  0  0  0
   -0.8620   21.7960  -25.5890 C   0  0  0  0  0  0  0  0  0  0  0  0
   -1.5745   21.7535  -24.7520 H   0  0  0  0  0  0  0  0  0  0  0  0
    0.0149   21.1660  -25.3787 H   0  0  0  0  0  0  0  0  0  0  0  0
   -0.3950   23.2360  -25.7750 C   0  0  0  0  0  0  0  0  0  0  0  0
   -0.2437   23.7025  -24.7904 H   0  0  0  0  0  0  0  0  0  0  0  0
    0.5521   23.2450  -26.3344 H   0  0  0  0  0  0  0  0  0  0  0  0
   -1.1566   23.7991  -26.3344 H   0  0  0  0  0  0  0  0  0  0  0  0
   -3.3640   22.8160  -27.4790 C   0  0  0  0  0  0  0  0  0  0  0  0
   -3.8882   22.5838  -26.5402 H   0  0  0  0  0  0  0  0  0  0  0  0
   -3.9370   23.7070  -28.3900 C   0  0  0  0  0  0  0  0  0  0  0  0
   -4.9087   24.1698  -28.1628 H   0  0  0  0  0  0  0  0  0  0  0  0
   -4.2190   22.5600  -32.2980 C   0  0  0  0  0  0  0  0  0  0  0  0
   -3.2263   22.9986  -32.4773 H   0  0  0  0  0  0  0  0  0  0  0  0
   -4.4970   21.2640  -32.7410 C   0  0  0  0  0  0  0  0  0  0  0  0
   -3.7210   20.6888  -33.2673 H   0  0  0  0  0  0  0  0  0  0  0  0
   -6.9660   18.5000  -32.2810 C   0  0  0  0  0  0  0  0  0  0  0  0
   -7.4501   18.8763  -31.3677 H   0  0  0  0  0  0  0  0  0  0  0  0
  1  2  1  0
  2  3  2  0
  3  4  1  0
  3  5  1  0
  5  6  1  0
  5  7  2  0
  7  8  1  0
  7  9  1  0
  9 10  1  0
 10 11  2  0
 11 12  1  0
 11 13  1  0
 13 14  1  0
 13 15  2  0
 15 16  1  0
 16 17  2  0
 17 18  1  0
 18 19  2  0
 19 20  1  0
 19 21  1  0
 21 22  1  0
 21 23  2  0
 23 24  1  0
 24 25  1  0
 25 26  1  0
 25 27  1  0
 25 28  1  0
 28 29  1  0
 28 30  1  0
 28 31  1  0
 24 32  1  0
 32 33  1  0
 32 34  1  0
 32 35  1  0
 35 36  1  0
 35 37  1  0
 35 38  1  0
 23 39  1  0
 39 40  1  0
 39 41  2  0
 41 42  1  0
 15 43  1  0
 43 44  1  0
 43 45  2  0
 45 46  1  0
  9 47  2  0
 47 48  1  0
 47  2  1  0
 45 10  1  0
 41 18  1  0
M  CHG  1   7   1
M  END
>  <UniqueID>  (9) 
9

>  <SMILES>  (9) 
CCN(CC)c1ccc(/N=N/c2ccc(-c3cccc[nH+]3)cc2)cc1

>  <Energy>  (9) 
52.97358436349734

>  <Genealogy>  (9) 
CCN(CC)c1ccc(N=Nc2ccc(-c3cccc[nH+]3)cc2)cc1 (protonated)
CCN(CC)c1ccc(/N=N/c2ccc(-c3cccc[nH+]3)cc2)cc1 (cis-trans isomerization)
CCN(CC)c1ccc(/N=N/c2ccc(-c3cccc[nH+]3)cc2)cc1 (3D coordinates assigned)
CCN(CC)c1ccc(/N=N/c2ccc(-c3cccc[nH+]3)cc2)cc1 (optimized conformer: 52.97358436349734 kcal/mol)

>  <smiles>  (9) 
CCN(CC)c1ccc(N=Nc2ccc(-c3ccccn3)cc2)cc1

>  <score_type>  (9) 
oracle

>  <origin>  (9) 
adg

>  <m_score__min__energy>  (9) 
-8.1999999999999993

>  <m_primary>  (9) 
energy

$$$$
9:0
     RDKit          3D

 34 37  0  0  0  0  0  0  0  0999 V2000
   -9.2350   19.0900  -32.4240 C   0  0  0  0  0  0  0  0  0  0  0  0
   -7.9550   18.5620  -32.7090 C   0  0  0  0  0  0  0  0  0  0  0  0
   -6.8090   19.3720  -32.6100 C   0  0  0  0  0  0  0  0  0  0  0  0
   -6.9870   20.6960  -32.2110 C   0  0  0  0  0  0  0  0  0  0  0  0
   -6.0960   21.7330  -32.0500 C   0  0  0  0  0  0  0  0  0  0  0  0
   -6.8380   22.8240  -31.6980 C   0  0  0  0  0  0  0  0  0  0  0  0
   -8.1560   22.5270  -31.6310 N   0  0  0  0  0  0  0  0  0  0  0  0
   -8.2310   21.2150  -31.9360 C   0  0  0  0  0  0  0  0  0  0  0  0
   -9.3830   20.4360  -32.0370 C   0  0  0  0  0  0  0  0  0  0  0  0
   -6.2290   24.1840  -31.6640 C   0  0  0  0  0  0  0  0  0  0  0  0
   -4.8040   24.1560  -31.2190 N   0  0  0  0  0  0  0  0  0  0  0  0
   -4.6530   24.7780  -29.8860 C   0  0  0  0  0  0  0  0  0  0  0  0
   -3.2480   24.5430  -29.3230 C   0  0  0  0  0  0  0  0  0  0  0  0
   -2.9700   23.1100  -29.1150 N   0  0  0  0  0  0  0  0  0  0  0  0
   -3.7200   22.2180  -30.0180 C   0  0  0  0  0  0  0  0  0  0  0  0
   -4.0160   22.8810  -31.3850 C   0  0  1  0  0  0  0  0  0  0  0  0
   -4.6520   21.8520  -32.3570 C   0  0  0  0  0  0  0  0  0  0  0  0
  -10.1221   18.4447  -32.5051 H   0  0  0  0  0  0  0  0  0  0  0  0
   -7.8542   17.5090  -33.0107 H   0  0  0  0  0  0  0  0  0  0  0  0
   -5.8090   18.9752  -32.8390 H   0  0  0  0  0  0  0  0  0  0  0  0
   -8.9460   23.1830  -31.4410 H   0  0  0  0  0  0  0  0  0  0  0  0
  -10.3752   20.8590  -31.8214 H   0  0  0  0  0  0  0  0  0  0  0  0
   -6.2758   24.6178  -32.6738 H   0  0  0  0  0  0  0  0  0  0  0  0
   -6.7956   24.7884  -30.9403 H   0  0  0  0  0  0  0  0  0  0  0  0
   -4.8287   25.8604  -29.9728 H   0  0  0  0  0  0  0  0  0  0  0  0
   -5.3838   24.3209  -29.2027 H   0  0  0  0  0  0  0  0  0  0  0  0
   -2.5095   24.9493  -30.0297 H   0  0  0  0  0  0  0  0  0  0  0  0
   -3.1837   25.0472  -28.3475 H   0  0  0  0  0  0  0  0  0  0  0  0
   -1.9460   22.9540  -29.2650 H   0  0  0  0  0  0  0  0  0  0  0  0
   -3.1277   21.3067  -30.1875 H   0  0  0  0  0  0  0  0  0  0  0  0
   -4.6834   21.9873  -29.5399 H   0  0  0  0  0  0  0  0  0  0  0  0
   -3.0711   23.1946  -31.8527 H   0  0  0  0  0  0  0  0  0  0  0  0
   -4.5218   22.1941  -33.3943 H   0  0  0  0  0  0  0  0  0  0  0  0
   -4.1631   20.8739  -32.2373 H   0  0  0  0  0  0  0  0  0  0  0  0
  1  2  2  0
  2  3  1  0
  3  4  2  0
  4  5  1  0
  5  6  2  0
  6  7  1  0
  7  8  1  0
  8  9  2  0
  6 10  1  0
 10 11  1  0
 11 12  1  0
 12 13  1  0
 13 14  1  0
 14 15  1  0
 15 16  1  0
 16 17  1  0
  9  1  1  0
 16 11  1  0
  8  4  1  0
 17  5  1  0
  1 18  1  0
  2 19  1  0
  3 20  1  0
  7 21  1  0
  9 22  1  0
 10 23  1  0
 10 24  1  0
 12 25  1  0
 12 26  1  0
 13 27  1  0
 13 28  1  0
 14 29  1  0
 15 30  1  0
 15 31  1  0
 16 32  1  6
 17 33  1  0
 17 34  1  0
M  END
>  <UniqueID>  (10) 
10

>  <SMILES>  (10) 
c1ccc2c3c([nH]c2c1)CN1CCNC[C@H]1C3

>  <Energy>  (10) 
93.40747450976438

>  <Genealogy>  (10) 
c1ccc2c3c([nH]c2c1)CN1CCNC[C@H]1C3 (chirality)
c1ccc2c3c([nH]c2c1)CN1CCNC[C@H]1C3 (3D coordinates assigned)
c1ccc2c3c([nH]c2c1)CN1CCNC[C@H]1C3 (nonaromatic ring conformer: 93.40747450976438 kcal/mol)

>  <smiles>  (10) 
c1ccc2c3c([nH]c2c1)CN1CCNCC1C3

>  <score_type>  (10) 
oracle

>  <origin>  (10) 
adg

>  <m_score__min__energy>  (10) 
-7.4100000000000001

>  <m_primary>  (10) 
energy

$$$$
10:0
     RDKit          3D

 52 53  0  0  0  0  0  0  0  0999 V2000
   -2.7420   15.2600  -36.0040 C   0  0  0  0  0  0  0  0  0  0  0  0
   -3.9610   14.9580  -35.3310 O   0  0  0  0  0  0  0  0  0  0  0  0
   -4.7480   15.9020  -34.6560 C   0  0  0  0  0  0  0  0  0  0  0  0
   -4.9350   17.2130  -35.1370 C   0  0  0  0  0  0  0  0  0  0  0  0
   -5.7260   18.1180  -34.4230 C   0  0  0  0  0  0  0  0  0  0  0  0
   -6.3350   17.7320  -33.2220 C   0  0  0  0  0  0  0  0  0  0  0  0
   -7.3480   18.8620  -32.3280 S   0  0  0  0  0  0  0  0  0  0  0  0
   -8.3250   19.4940  -33.2810 O   0  0  0  0  0  0  0  0  0  0  0  0
   -8.1220   18.1140  -31.2770 O   0  0  0  0  0  0  0  0  0  0  0  0
   -6.3400   20.0900  -31.5950 N   0  0  1  0  0  0  0  0  0  0  0  0
   -4.9160   19.6760  -31.5600 C   0  0  0  0  0  0  0  0  0  0  0  0
   -3.9330   20.7110  -30.9800 C   0  0  0  0  0  0  0  0  0  0  0  0
   -3.9090   22.0890  -31.6630 C   0  0  0  0  0  0  0  0  0  0  0  0
   -4.9270   23.0450  -31.1700 N   0  0  0  0  0  0  0  0  0  0  0  0
   -4.5670   23.6240  -29.8590 C   0  0  0  0  0  0  0  0  0  0  0  0
   -3.7960   24.8950  -30.0430 C   0  0  0  0  0  0  0  0  0  0  0  0
   -4.0940   25.6800  -30.9830 O   0  0  0  0  0  0  0  0  0  0  0  0
   -2.7300   25.2120  -29.1420 N   0  0  0  0  0  0  0  0  0  0  0  0
   -1.8150   24.2180  -28.5870 C   0  0  0  0  0  0  0  0  0  0  0  0
   -1.3870   23.2330  -29.6790 C   0  0  0  0  0  0  0  0  0  0  0  0
   -2.5080   23.4830  -27.4420 C   0  0  0  0  0  0  0  0  0  0  0  0
   -6.3510   22.6110  -31.2380 C   0  0  0  0  0  0  0  0  0  0  0  0
   -6.6310   21.4260  -32.1820 C   0  0  0  0  0  0  0  0  0  0  0  0
   -6.1570   16.4250  -32.7480 C   0  0  0  0  0  0  0  0  0  0  0  0
   -5.3670   15.5200  -33.4600 C   0  0  0  0  0  0  0  0  0  0  0  0
   -1.9528   15.4555  -35.2631 H   0  0  0  0  0  0  0  0  0  0  0  0
   -2.4501   14.4070  -36.6342 H   0  0  0  0  0  0  0  0  0  0  0  0
   -2.8820   16.1506  -36.6342 H   0  0  0  0  0  0  0  0  0  0  0  0
   -4.4571   17.5254  -36.0772 H   0  0  0  0  0  0  0  0  0  0  0  0
   -5.8709   19.1388  -34.8064 H   0  0  0  0  0  0  0  0  0  0  0  0
   -6.6430   20.1300  -30.5920 H   0  0  0  0  0  0  0  0  0  0  0  0
   -4.8444   18.7633  -30.9503 H   0  0  0  0  0  0  0  0  0  0  0  0
   -4.6188   19.5359  -32.6098 H   0  0  0  0  0  0  0  0  0  0  0  0
   -4.1952   20.8659  -29.9230 H   0  0  0  0  0  0  0  0  0  0  0  0
   -2.9315   20.2864  -31.1434 H   0  0  0  0  0  0  0  0  0  0  0  0
   -2.9158   22.5335  -31.5017 H   0  0  0  0  0  0  0  0  0  0  0  0
   -4.1387   21.9124  -32.7242 H   0  0  0  0  0  0  0  0  0  0  0  0
   -5.4855   23.8362  -29.2921 H   0  0  0  0  0  0  0  0  0  0  0  0
   -3.9419   22.9039  -29.3106 H   0  0  0  0  0  0  0  0  0  0  0  0
   -0.9141   24.7174  -28.2011 H   0  0  0  0  0  0  0  0  0  0  0  0
   -0.9899   22.3190  -29.2132 H   0  0  0  0  0  0  0  0  0  0  0  0
   -2.2556   22.9783  -30.3040 H   0  0  0  0  0  0  0  0  0  0  0  0
   -0.6081   23.6942  -30.3040 H   0  0  0  0  0  0  0  0  0  0  0  0
   -2.1409   23.8723  -26.4809 H   0  0  0  0  0  0  0  0  0  0  0  0
   -3.5946   23.6397  -27.5101 H   0  0  0  0  0  0  0  0  0  0  0  0
   -2.2877   22.4074  -27.5101 H   0  0  0  0  0  0  0  0  0  0  0  0
   -6.6672   22.3213  -30.2251 H   0  0  0  0  0  0  0  0  0  0  0  0
   -6.9114   23.4652  -31.6457 H   0  0  0  0  0  0  0  0  0  0  0  0
   -7.6941   21.4540  -32.4632 H   0  0  0  0  0  0  0  0  0  0  0  0
   -5.9563   21.5443  -33.0427 H   0  0  0  0  0  0  0  0  0  0  0  0
   -6.6414   16.1110  -31.8117 H   0  0  0  0  0  0  0  0  0  0  0  0
   -5.2299   14.4978  -33.0776 H   0  0  0  0  0  0  0  0  0  0  0  0
  1  2  1  0
  2  3  1  0
  3  4  2  0
  4  5  1  0
  5  6  2  0
  6  7  1  0
  7  8  2  0
  7  9  2  0
  7 10  1  0
 10 11  1  0
 11 12  1  0
 12 13  1  0
 13 14  1  0
 14 15  1  0
 15 16  1  0
 16 17  2  0
 16 18  1  0
 18 19  1  0
 19 20  1  0
 19 21  1  0
 14 22  1  0
 22 23  1  0
  6 24  1  0
 24 25  2  0
 25  3  1  0
 23 10  1  0
  1 26  1  0
  1 27  1  0
  1 28  1  0
  4 29  1  0
  5 30  1  0
 10 31  1  1
 11 32  1  0
 11 33  1  0
 12 34  1  0
 12 35  1  0
 13 36  1  0
 13 37  1  0
 15 38  1  0
 15 39  1  0
 19 40  1  0
 20 41  1  0
 20 42  1  0
 20 43  1  0
 21 44  1  0
 21 45  1  0
 21 46  1  0
 22 47  1  0
 22 48  1  0
 23 49  1  0
 23 50  1  0
 24 51  1  0
 25 52  1  0
M  CHG  2  10   1  18  -1
M  END
>  <UniqueID>  (11) 
11

>  <SMILES>  (11) 
COc1ccc(S(=O)(=O)[N@H+]2CCCN(CC(=O)[N-]C(C)C)CC2)cc1

>  <Energy>  (11) 
63.35034107323281

>  <Genealogy>  (11) 
COc1ccc(S(=O)(=O)[NH+]2CCCN(CC(=O)[N-]C(C)C)CC2)cc1 (protonated)
COc1ccc(S(=O)(=O)[N@H+]2CCCN(CC(=O)[N-]C(C)C)CC2)cc1 (chirality)
COc1ccc(S(=O)(=O)[N@H+]2CCCN(CC(=O)[N-]C(C)C)CC2)cc1 (3D coordinates assigned)
COc1ccc(S(=O)(=O)[N@H+]2CCCN(CC(=O)[N-]C(C)C)CC2)cc1 (nonaromatic ring conformer: 63.35034107323281 kcal/mol)

>  <smiles>  (11) 
COc1ccc(S(=O)(=O)N2CCCN(CC(=O)NC(C)C)CC2)cc1

>  <score_type>  (11) 
oracle

>  <origin>  (11) 
adg

>  <m_score__min__energy>  (11) 
-6.9400000000000004

>  <m_primary>  (11) 
energy

$$$$
11:0
     RDKit          3D

 28 30  0  0  0  0  0  0  0  0999 V2000
   -5.3940   26.4000  -30.6700 O   0  0  0  0  0  0  0  0  0  0  0  0
   -4.9920   25.2110  -30.5440 C   0  0  0  0  0  0  0  0  0  0  0  0
   -3.5910   24.9270  -30.4690 N   0  0  0  0  0  0  0  0  0  0  0  0
   -3.0100   23.9710  -29.5340 C   0  0  0  0  0  0  0  0  0  0  0  0
   -2.4750   24.6810  -28.3310 C   0  0  0  0  0  0  0  0  0  0  0  0
   -2.9510   24.5500  -27.0330 C   0  0  0  0  0  0  0  0  0  0  0  0
   -2.2330   25.3120  -26.1040 C   0  0  0  0  0  0  0  0  0  0  0  0
   -1.1910   26.0390  -26.6670 C   0  0  0  0  0  0  0  0  0  0  0  0
   -1.1620   25.7310  -28.3200 S   0  0  0  0  0  0  0  0  0  0  0  0
   -5.9380   24.1410  -30.4730 N   0  0  0  0  0  0  0  0  0  0  0  0
   -6.0960   23.2230  -31.4120 N   0  0  0  0  0  0  0  0  0  0  0  0
   -7.0790   22.4340  -30.9280 C   0  0  0  0  0  0  0  0  0  0  0  0
   -7.6110   21.2600  -31.6270 C   0  0  0  0  0  0  0  0  0  0  0  0
   -6.8620   20.2950  -32.2880 C   0  0  0  0  0  0  0  0  0  0  0  0
   -7.6480   19.2900  -32.8660 C   0  0  0  0  0  0  0  0  0  0  0  0
   -9.0120   19.4610  -32.6610 C   0  0  0  0  0  0  0  0  0  0  0  0
   -9.2400   20.8630  -31.7630 S   0  0  0  0  0  0  0  0  0  0  0  0
   -7.5120   22.8600  -29.7210 N   0  0  0  0  0  0  0  0  0  0  0  0
   -6.7740   23.9290  -29.4730 N   0  0  0  0  0  0  0  0  0  0  0  0
   -3.7838   23.2556  -29.2188 H   0  0  0  0  0  0  0  0  0  0  0  0
   -2.1856   23.4394  -30.0318 H   0  0  0  0  0  0  0  0  0  0  0  0
   -3.8054   23.9122  -26.7624 H   0  0  0  0  0  0  0  0  0  0  0  0
   -2.4709   25.3334  -25.0303 H   0  0  0  0  0  0  0  0  0  0  0  0
   -0.5024   26.7029  -26.1238 H   0  0  0  0  0  0  0  0  0  0  0  0
   -5.7640   20.3177  -32.3511 H   0  0  0  0  0  0  0  0  0  0  0  0
   -7.2255   18.4449  -33.4292 H   0  0  0  0  0  0  0  0  0  0  0  0
   -9.8066   18.7928  -33.0245 H   0  0  0  0  0  0  0  0  0  0  0  0
   -6.8500   24.5130  -28.6100 H   0  0  0  0  0  0  0  0  0  0  0  0
  1  2  2  0
  2  3  1  0
  3  4  1  0
  4  5  1  0
  5  6  2  0
  6  7  1  0
  7  8  2  0
  8  9  1  0
  2 10  1  0
 10 11  1  0
 11 12  2  0
 12 13  1  0
 13 14  2  0
 14 15  1  0
 15 16  2  0
 16 17  1  0
 12 18  1  0
 18 19  2  0
  9  5  1  0
 19 10  1  0
 17 13  1  0
  4 20  1  0
  4 21  1  0
  6 22  1  0
  7 23  1  0
  8 24  1  0
 14 25  1  0
 15 26  1  0
 16 27  1  0
 19 28  1  0
M  CHG  2   3  -1  19   1
M  END
>  <UniqueID>  (12) 
12

>  <SMILES>  (12) 
O=C([N-]Cc1cccs1)n1nc(-c2cccs2)n[nH+]1

>  <Energy>  (12) 
116.60366292056274

>  <Genealogy>  (12) 
O=C([N-]Cc1cccs1)n1nc(-c2cccs2)n[nH+]1 (protonated)
O=C([N-]Cc1cccs1)n1nc(-c2cccs2)n[nH+]1 (3D coordinates assigned)
O=C([N-]Cc1cccs1)n1nc(-c2cccs2)n[nH+]1 (optimized conformer: 116.60366292056274 kcal/mol)

>  <smiles>  (12) 
O=C(NCc1cccs1)n1nnc(-c2cccs2)n1

>  <score_type>  (12) 
oracle

>  <origin>  (12) 
adg

>  <m_score__min__energy>  (12) 
-8.6400000000000006

>  <m_primary>  (12) 
energy

$$$$
12:0
     RDKit          3D

 55 58  0  0  0  0  0  0  0  0999 V2000
   -7.7077   25.5517  -29.6814 H   0  0  0  0  0  0  0  0  0  0  0  0
   -6.9110   24.9280  -30.1130 C   0  0  0  0  0  0  0  0  0  0  0  0
   -7.5830   20.0030  -33.1380 N   0  0  0  0  0  0  0  0  0  0  0  0
   -6.3450   19.8450  -33.6500 C   0  0  0  0  0  0  0  0  0  0  0  0
   -6.0490   18.8770  -34.4630 N   0  0  0  0  0  0  0  0  0  0  0  0
   -2.5540   24.4800  -29.1340 C   0  0  0  0  0  0  0  0  0  0  0  0
   -3.1000   24.5480  -27.8470 C   0  0  0  0  0  0  0  0  0  0  0  0
   -4.1368   24.8895  -27.7110 H   0  0  0  0  0  0  0  0  0  0  0  0
   -2.3370   24.1850  -26.7330 C   0  0  0  0  0  0  0  0  0  0  0  0
   -2.7831   24.2233  -25.7283 H   0  0  0  0  0  0  0  0  0  0  0  0
   -1.0050   23.7720  -26.8900 C   0  0  0  0  0  0  0  0  0  0  0  0
   -0.1730   23.3940  -25.6910 C   0  0  0  0  0  0  0  0  0  0  0  0
    0.6547   22.7499  -26.0229 H   0  0  0  0  0  0  0  0  0  0  0  0
   -0.8265   22.8701  -24.9779 H   0  0  0  0  0  0  0  0  0  0  0  0
    0.4130   24.6270  -24.9780 C   0  0  0  0  0  0  0  0  0  0  0  0
    0.5892   25.4143  -25.7257 H   0  0  0  0  0  0  0  0  0  0  0  0
    1.3462   24.3128  -24.4876 H   0  0  0  0  0  0  0  0  0  0  0  0
   -0.4810   25.1630  -23.9300 N   0  0  0  0  0  0  0  0  0  0  0  0
   -0.1700   24.8970  -22.9680 H   0  0  0  0  0  0  0  0  0  0  0  0
   -0.6650   26.6200  -24.0050 C   0  0  0  0  0  0  0  0  0  0  0  0
    0.3107   27.1069  -23.8600 H   0  0  0  0  0  0  0  0  0  0  0  0
   -1.3806   26.9077  -23.2207 H   0  0  0  0  0  0  0  0  0  0  0  0
   -1.2420   27.0680  -25.3480 C   0  0  0  0  0  0  0  0  0  0  0  0
   -2.1000   27.7342  -25.1746 H   0  0  0  0  0  0  0  0  0  0  0  0
   -0.4698   27.6055  -25.9179 H   0  0  0  0  0  0  0  0  0  0  0  0
   -1.5714   26.1867  -25.9179 H   0  0  0  0  0  0  0  0  0  0  0  0
   -0.4430   23.7410  -28.1770 C   0  0  0  0  0  0  0  0  0  0  0  0
    0.6048   23.4333  -28.3090 H   0  0  0  0  0  0  0  0  0  0  0  0
   -1.2080   24.0990  -29.2910 C   0  0  0  0  0  0  0  0  0  0  0  0
   -0.7565   24.0829  -30.2939 H   0  0  0  0  0  0  0  0  0  0  0  0
   -4.9140   23.4000  -31.1730 N   0  0  0  0  0  0  0  0  0  0  0  0
   -6.2000   23.0070  -31.3690 C   0  0  0  0  0  0  0  0  0  0  0  0
   -6.4630   21.8070  -32.1850 C   0  0  0  0  0  0  0  0  0  0  0  0
   -5.2820   21.0330  -33.1050 S   0  0  0  0  0  0  0  0  0  0  0  0
   -4.6070   24.5210  -30.4660 C   0  0  0  0  0  0  0  0  0  0  0  0
   -3.3710   24.8680  -30.2520 N   0  0  0  0  0  0  0  0  0  0  0  0
   -5.2850   17.6930  -34.0830 C   0  0  0  0  0  0  0  0  0  0  0  0
   -5.0491   17.1034  -34.9812 H   0  0  0  0  0  0  0  0  0  0  0  0
   -4.3488   17.9987  -33.5929 H   0  0  0  0  0  0  0  0  0  0  0  0
   -6.1170   16.8460  -33.1190 C   0  0  0  0  0  0  0  0  0  0  0  0
   -6.8766   16.5602  -33.8615 H   0  0  0  0  0  0  0  0  0  0  0  0
   -5.3270   16.1100  -32.0480 C   0  0  0  0  0  0  0  0  0  0  0  0
   -5.6495   15.1126  -31.7145 H   0  0  0  0  0  0  0  0  0  0  0  0
   -4.2756   15.8113  -31.9243 H   0  0  0  0  0  0  0  0  0  0  0  0
   -6.1470   17.3370  -31.6800 C   0  0  0  0  0  0  0  0  0  0  0  0
   -7.0626   17.2270  -31.0803 H   0  0  0  0  0  0  0  0  0  0  0  0
   -5.9343   18.2933  -31.1799 H   0  0  0  0  0  0  0  0  0  0  0  0
   -5.6080   25.2700  -29.9340 N   0  0  0  0  0  0  0  0  0  0  0  0
   -7.6590   21.0840  -32.3130 C   0  0  0  0  0  0  0  0  0  0  0  0
   -8.9360   21.4150  -31.6070 C   0  0  0  0  0  0  0  0  0  0  0  0
   -8.7752   21.3733  -30.5196 H   0  0  0  0  0  0  0  0  0  0  0  0
   -9.2604   22.4269  -31.8912 H   0  0  0  0  0  0  0  0  0  0  0  0
   -9.7111   20.6881  -31.8912 H   0  0  0  0  0  0  0  0  0  0  0  0
   -7.2380   23.7860  -30.8440 C   0  0  0  0  0  0  0  0  0  0  0  0
   -8.2889   23.5035  -31.0045 H   0  0  0  0  0  0  0  0  0  0  0  0
  1  2  1  0
  2  3  1  0
  3  4  1  0
  4  5  2  0
  5  6  1  0
  6  7  2  0
  7  8  1  0
  7  9  1  0
  9 10  1  0
  9 11  2  0
 11 12  1  0
 12 13  1  0
 12 14  1  0
 12 15  1  0
 15 16  1  0
 15 17  1  0
 15 18  1  0
 18 19  1  0
 18 20  1  0
 20 21  1  0
 20 22  1  0
 20 23  1  0
 23 24  1  0
 23 25  1  0
 23 26  1  0
 11 27  1  0
 27 28  1  0
 27 29  2  0
 29 30  1  0
  4 31  1  0
 31 32  2  0
 32 33  1  0
 33 34  1  0
 34 35  1  0
 35 36  2  0
 36 37  1  0
 37 38  1  0
 37 39  1  0
 37 40  1  0
 40 41  1  0
 40 42  1  0
 42 43  1  0
 42 44  1  0
 42 45  1  0
 45 46  1  0
 45 47  1  0
 35 48  1  0
 48 49  1  0
 49 50  1  0
 50 51  1  0
 50 52  1  0
 50 53  1  0
 32 54  1  0
 54 55  1  0
 54  2  2  0
 29  6  1  0
 49 33  2  0
 45 40  1  0
M  CHG  2   3  -1  48  -1
M  END
>  <UniqueID>  (13) 
13

>  <SMILES>  (13) 
CCNCCc1ccc(/N=c2\nc(-c3s/c(=N/CC4CC4)[n-]c3C)cc[n-]2)cc1

>  <Energy>  (13) 
358.34638500845693

>  <Genealogy>  (13) 
CCNCCc1ccc(N=c2nc(-c3sc(=NCC4CC4)[n-]c3C)cc[n-]2)cc1 (protonated)
CCNCCc1ccc(/N=c2\nc(-c3s/c(=N/CC4CC4)[n-]c3C)cc[n-]2)cc1 (cis-trans isomerization)
CCNCCc1ccc(/N=c2\nc(-c3s/c(=N/CC4CC4)[n-]c3C)cc[n-]2)cc1 (3D coordinates assigned)
CCNCCc1ccc(/N=c2\nc(-c3s/c(=N/CC4CC4)[n-]c3C)cc[n-]2)cc1 (nonaromatic ring conformer: 358.34638500845693 kcal/mol)

>  <smiles>  (13) 
CCNCCc1ccc(N=c2nc(-c3sc(=NCC4CC4)[nH]c3C)cc[nH]2)cc1

>  <score_type>  (13) 
oracle

>  <origin>  (13) 
adg

>  <m_score__min__energy>  (13) 
-10.31

>  <m_primary>  (13) 
energy

$$$$
13:0
     RDKit          3D

 38 40  0  0  0  0  0  0  0  0999 V2000
   -8.2910   18.3610  -33.0590 F   0  0  0  0  0  0  0  0  0  0  0  0
   -7.5490   18.6140  -31.9200 C   0  0  0  0  0  0  0  0  0  0  0  0
   -8.4210   19.0650  -30.9440 F   0  0  0  0  0  0  0  0  0  0  0  0
   -6.9680   17.4390  -31.4830 F   0  0  0  0  0  0  0  0  0  0  0  0
   -6.4670   19.6380  -32.2010 C   0  0  0  0  0  0  0  0  0  0  0  0
   -6.5380   20.9090  -31.6070 C   0  0  0  0  0  0  0  0  0  0  0  0
   -5.5470   21.8720  -31.8380 C   0  0  0  0  0  0  0  0  0  0  0  0
   -5.6530   23.2170  -31.2160 C   0  0  0  0  0  0  0  0  0  0  0  0
   -6.8540   23.6750  -30.6430 C   0  0  0  0  0  0  0  0  0  0  0  0
   -6.9040   24.9500  -30.0750 C   0  0  0  0  0  0  0  0  0  0  0  0
   -5.7690   25.7610  -30.0840 C   0  0  0  0  0  0  0  0  0  0  0  0
   -4.5960   25.2850  -30.6690 C   0  0  0  0  0  0  0  0  0  0  0  0
   -4.5650   24.0410  -31.2170 N   0  0  0  0  0  0  0  0  0  0  0  0
   -4.4790   21.5350  -32.6830 C   0  0  0  0  0  0  0  0  0  0  0  0
   -4.3990   20.2960  -33.2330 N   0  0  0  0  0  0  0  0  0  0  0  0
   -5.3420   19.3380  -33.0060 C   0  0  0  0  0  0  0  0  0  0  0  0
   -5.1650   18.0400  -33.5930 N   0  0  0  0  0  0  0  0  0  0  0  0
   -4.0450   17.2010  -33.1600 C   0  0  0  0  0  0  0  0  0  0  0  0
   -4.1830   15.7870  -33.7310 C   0  0  0  0  0  0  0  0  0  0  0  0
   -5.5530   15.2930  -33.5400 N   0  0  0  0  0  0  0  0  0  0  0  0
   -6.5710   16.1040  -34.2410 C   0  0  0  0  0  0  0  0  0  0  0  0
   -6.1190   17.5390  -34.5870 C   0  0  0  0  0  0  0  0  0  0  0  0
   -7.3857   21.1522  -30.9496 H   0  0  0  0  0  0  0  0  0  0  0  0
   -7.7473   23.0332  -30.6425 H   0  0  0  0  0  0  0  0  0  0  0  0
   -7.8374   25.3143  -29.6210 H   0  0  0  0  0  0  0  0  0  0  0  0
   -5.7989   26.7646  -29.6347 H   0  0  0  0  0  0  0  0  0  0  0  0
   -3.6953   25.9163  -30.6871 H   0  0  0  0  0  0  0  0  0  0  0  0
   -3.7002   22.2804  -32.9018 H   0  0  0  0  0  0  0  0  0  0  0  0
   -3.5770   20.0720  -33.8390 H   0  0  0  0  0  0  0  0  0  0  0  0
   -3.1025   17.6441  -33.5141 H   0  0  0  0  0  0  0  0  0  0  0  0
   -4.0473   17.1432  -32.0615 H   0  0  0  0  0  0  0  0  0  0  0  0
   -3.9501   15.8051  -34.8059 H   0  0  0  0  0  0  0  0  0  0  0  0
   -3.4846   15.1187  -33.2060 H   0  0  0  0  0  0  0  0  0  0  0  0
   -5.7640   15.2970  -32.5140 H   0  0  0  0  0  0  0  0  0  0  0  0
   -6.8333   15.5911  -35.1781 H   0  0  0  0  0  0  0  0  0  0  0  0
   -7.4224   16.2018  -33.5513 H   0  0  0  0  0  0  0  0  0  0  0  0
   -5.6399   17.5370  -35.5772 H   0  0  0  0  0  0  0  0  0  0  0  0
   -7.0019   18.1951  -34.5892 H   0  0  0  0  0  0  0  0  0  0  0  0
  1  2  1  0
  2  3  1  0
  2  4  1  0
  2  5  1  0
  5  6  2  0
  6  7  1  0
  7  8  1  0
  8  9  2  0
  9 10  1  0
 10 11  2  0
 11 12  1  0
 12 13  2  0
  7 14  2  0
 14 15  1  0
 15 16  2  0
 16 17  1  0
 17 18  1  0
 18 19  1  0
 19 20  1  0
 20 21  1  0
 21 22  1  0
 16  5  1  0
 22 17  1  0
 13  8  1  0
  6 23  1  0
  9 24  1  0
 10 25  1  0
 11 26  1  0
 12 27  1  0
 14 28  1  0
 15 29  1  0
 18 30  1  0
 18 31  1  0
 19 32  1  0
 19 33  1  0
 20 34  1  0
 21 35  1  0
 21 36  1  0
 22 37  1  0
 22 38  1  0
M  CHG  1  15   1
M  END
>  <UniqueID>  (14) 
14

>  <SMILES>  (14) 
FC(F)(F)c1cc(-c2ccccn2)c[nH+]c1N1CCNCC1

>  <Energy>  (14) 
55.64110100881427

>  <Genealogy>  (14) 
FC(F)(F)c1cc(-c2ccccn2)c[nH+]c1N1CCNCC1 (protonated)
FC(F)(F)c1cc(-c2ccccn2)c[nH+]c1N1CCNCC1 (3D coordinates assigned)
FC(F)(F)c1cc(-c2ccccn2)c[nH+]c1N1CCNCC1 (nonaromatic ring conformer: 55.64110100881427 kcal/mol)

>  <smiles>  (14) 
FC(F)(F)c1cc(-c2ccccn2)cnc1N1CCNCC1

>  <score_type>  (14) 
oracle

>  <origin>  (14) 
adg

>  <m_score__min__energy>  (14) 
-6.1699999999999999

>  <m_primary>  (14) 
energy

$$$$
14:0
     RDKit          3D

 28 30  0  0  0  0  0  0  0  0999 V2000
   -5.3920   25.6920  -30.4780 C   0  0  0  0  0  0  0  0  0  0  0  0
   -4.0380   25.2900  -30.6650 O   0  0  0  0  0  0  0  0  0  0  0  0
   -3.5810   23.9630  -30.6140 C   0  0  0  0  0  0  0  0  0  0  0  0
   -4.0320   23.0000  -31.5410 C   0  0  0  0  0  0  0  0  0  0  0  0
   -3.5700   21.6850  -31.4810 C   0  0  0  0  0  0  0  0  0  0  0  0
   -2.6560   21.3090  -30.5000 C   0  0  0  0  0  0  0  0  0  0  0  0
   -2.1980   22.2470  -29.5740 C   0  0  0  0  0  0  0  0  0  0  0  0
   -2.6500   23.5820  -29.6150 C   0  0  0  0  0  0  0  0  0  0  0  0
   -2.1350   24.5490  -28.6080 C   0  0  0  0  0  0  0  0  0  0  0  0
   -2.3340   24.3900  -27.2700 N   0  0  0  0  0  0  0  0  0  0  0  0
   -1.7180   25.4600  -26.7480 C   0  0  0  0  0  0  0  0  0  0  0  0
   -1.6070   25.8100  -25.4040 C   0  0  0  0  0  0  0  0  0  0  0  0
   -0.9080   26.9930  -25.0940 C   0  0  0  0  0  0  0  0  0  0  0  0
   -0.3490   27.7830  -26.1240 C   0  0  0  0  0  0  0  0  0  0  0  0
   -0.4830   27.3960  -27.4710 C   0  0  0  0  0  0  0  0  0  0  0  0
   -1.1810   26.2200  -27.7380 C   0  0  0  0  0  0  0  0  0  0  0  0
   -1.4300   25.6660  -28.9320 N   0  0  0  0  0  0  0  0  0  0  0  0
   -5.6100   25.7567  -29.4018 H   0  0  0  0  0  0  0  0  0  0  0  0
   -5.5501   26.6758  -30.9439 H   0  0  0  0  0  0  0  0  0  0  0  0
   -6.0613   24.9538  -30.9439 H   0  0  0  0  0  0  0  0  0  0  0  0
   -4.7547   23.2887  -32.3184 H   0  0  0  0  0  0  0  0  0  0  0  0
   -3.9285   20.9435  -32.2102 H   0  0  0  0  0  0  0  0  0  0  0  0
   -2.2945   20.2711  -30.4550 H   0  0  0  0  0  0  0  0  0  0  0  0
   -1.4757   21.9413  -28.8028 H   0  0  0  0  0  0  0  0  0  0  0  0
   -2.0491   25.1853  -24.6138 H   0  0  0  0  0  0  0  0  0  0  0  0
   -0.7966   27.3036  -24.0447 H   0  0  0  0  0  0  0  0  0  0  0  0
    0.1940   28.7058  -25.8717 H   0  0  0  0  0  0  0  0  0  0  0  0
   -0.0523   28.0001  -28.2831 H   0  0  0  0  0  0  0  0  0  0  0  0
  1  2  1  0
  2  3  1  0
  3  4  2  0
  4  5  1  0
  5  6  2  0
  6  7  1  0
  7  8  2  0
  8  9  1  0
  9 10  2  0
 10 11  1  0
 11 12  2  0
 12 13  1  0
 13 14  2  0
 14 15  1  0
 15 16  2  0
 16 17  1  0
  8  3  1  0
 17  9  1  0
 16 11  1  0
  1 18  1  0
  1 19  1  0
  1 20  1  0
  4 21  1  0
  5 22  1  0
  6 23  1  0
  7 24  1  0
 12 25  1  0
 13 26  1  0
 14 27  1  0
 15 28  1  0
M  CHG  1  17  -1
M  END
>  <UniqueID>  (15) 
15

>  <SMILES>  (15) 
COc1ccccc1-c1nc2ccccc2[n-]1

>  <Energy>  (15) 
67.38833534455667

>  <Genealogy>  (15) 
COc1ccccc1-c1nc2ccccc2[n-]1 (protonated)
COc1ccccc1-c1nc2ccccc2[n-]1 (3D coordinates assigned)
COc1ccccc1-c1nc2ccccc2[n-]1 (optimized conformer: 67.38833534455667 kcal/mol)

>  <smiles>  (15) 
COc1ccccc1-c1nc2ccccc2[nH]1

>  <score_type>  (15) 
oracle

>  <origin>  (15) 
adg

>  <m_score__min__energy>  (15) 
-7.4299999999999997

>  <m_primary>  (15) 
energy

$$$$
15:0
     RDKit          3D

 54 57  0  0  0  0  0  0  0  0999 V2000
   -3.8220   14.7600  -34.0040 C   0  0  0  0  0  0  0  0  0  0  0  0
   -3.2460   15.0890  -35.3710 C   0  0  0  0  0  0  0  0  0  0  0  0
   -3.8290   16.2920  -35.8580 O   0  0  0  0  0  0  0  0  0  0  0  0
   -4.2810   17.3100  -35.0120 C   0  0  0  0  0  0  0  0  0  0  0  0
   -5.6630   17.5660  -34.9240 C   0  0  0  0  0  0  0  0  0  0  0  0
   -6.1120   18.5860  -34.0740 C   0  0  0  0  0  0  0  0  0  0  0  0
   -5.1850   19.2740  -33.3590 N   0  0  0  0  0  0  0  0  0  0  0  0
   -5.3000   20.3050  -32.4970 C   0  0  0  0  0  0  0  0  0  0  0  0
   -6.5690   20.9710  -32.1310 C   0  0  0  0  0  0  0  0  0  0  0  0
   -6.7230   22.3540  -32.3180 C   0  0  0  0  0  0  0  0  0  0  0  0
   -7.9350   22.9760  -32.0030 C   0  0  0  0  0  0  0  0  0  0  0  0
   -9.0000   22.2220  -31.5040 C   0  0  0  0  0  0  0  0  0  0  0  0
   -8.8550   20.8450  -31.3140 C   0  0  0  0  0  0  0  0  0  0  0  0
   -7.6440   20.2200  -31.6260 C   0  0  0  0  0  0  0  0  0  0  0  0
   -4.0060   20.6620  -32.1000 C   0  0  0  0  0  0  0  0  0  0  0  0
   -3.6170   21.7190  -31.1370 C   0  0  0  0  0  0  0  0  0  0  0  0
   -2.8520   21.4110  -30.0050 C   0  0  0  0  0  0  0  0  0  0  0  0
   -2.5010   22.4040  -29.0710 C   0  0  0  0  0  0  0  0  0  0  0  0
   -1.7630   22.0800  -27.9220 O   0  0  0  0  0  0  0  0  0  0  0  0
   -1.9270   20.8910  -27.1540 C   0  0  0  0  0  0  0  0  0  0  0  0
   -2.9030   23.7450  -29.3040 C   0  0  0  0  0  0  0  0  0  0  0  0
   -2.6000   24.8130  -28.4390 O   0  0  0  0  0  0  0  0  0  0  0  0
   -2.7470   24.8260  -27.0220 C   0  0  0  0  0  0  0  0  0  0  0  0
   -3.6460   24.0580  -30.4550 C   0  0  0  0  0  0  0  0  0  0  0  0
   -4.0220   25.3970  -30.6570 O   0  0  0  0  0  0  0  0  0  0  0  0
   -5.3390   25.9060  -30.4720 C   0  0  0  0  0  0  0  0  0  0  0  0
   -3.9980   23.0460  -31.3640 C   0  0  0  0  0  0  0  0  0  0  0  0
   -3.1160   19.8520  -32.7210 N   0  0  0  0  0  0  0  0  0  0  0  0
   -3.8710   19.0290  -33.4670 C   0  0  0  0  0  0  0  0  0  0  0  0
   -3.3970   18.0550  -34.2800 N   0  0  0  0  0  0  0  0  0  0  0  0
   -3.1508   15.1434  -33.2214 H   0  0  0  0  0  0  0  0  0  0  0  0
   -4.8116   15.2291  -33.9005 H   0  0  0  0  0  0  0  0  0  0  0  0
   -3.9206   13.6693  -33.9005 H   0  0  0  0  0  0  0  0  0  0  0  0
   -2.1567   15.2177  -35.2879 H   0  0  0  0  0  0  0  0  0  0  0  0
   -3.4678   14.2675  -36.0681 H   0  0  0  0  0  0  0  0  0  0  0  0
   -6.3791   16.9745  -35.5133 H   0  0  0  0  0  0  0  0  0  0  0  0
   -7.1830   18.8221  -33.9887 H   0  0  0  0  0  0  0  0  0  0  0  0
   -5.8874   22.9501  -32.7136 H   0  0  0  0  0  0  0  0  0  0  0  0
   -8.0501   24.0603  -32.1483 H   0  0  0  0  0  0  0  0  0  0  0  0
   -9.9538   22.7127  -31.2603 H   0  0  0  0  0  0  0  0  0  0  0  0
   -9.6937   20.2530  -30.9190 H   0  0  0  0  0  0  0  0  0  0  0  0
   -7.5322   19.1361  -31.4756 H   0  0  0  0  0  0  0  0  0  0  0  0
   -2.5196   20.3750  -29.8429 H   0  0  0  0  0  0  0  0  0  0  0  0
   -1.8928   21.1388  -26.0828 H   0  0  0  0  0  0  0  0  0  0  0  0
   -2.8971   20.4309  -27.3932 H   0  0  0  0  0  0  0  0  0  0  0  0
   -1.1177   20.1855  -27.3932 H   0  0  0  0  0  0  0  0  0  0  0  0
   -1.7573   24.7385  -26.5499 H   0  0  0  0  0  0  0  0  0  0  0  0
   -3.2195   25.7694  -26.7110 H   0  0  0  0  0  0  0  0  0  0  0  0
   -3.3777   23.9801  -26.7110 H   0  0  0  0  0  0  0  0  0  0  0  0
   -5.5524   25.9885  -29.3961 H   0  0  0  0  0  0  0  0  0  0  0  0
   -5.4172   26.8991  -30.9385 H   0  0  0  0  0  0  0  0  0  0  0  0
   -6.0647   25.2236  -30.9385 H   0  0  0  0  0  0  0  0  0  0  0  0
   -4.5789   23.2995  -32.2630 H   0  0  0  0  0  0  0  0  0  0  0  0
   -2.0740   19.8490  -32.6320 H   0  0  0  0  0  0  0  0  0  0  0  0
  1  2  1  0
  2  3  1  0
  3  4  1  0
  4  5  1  0
  5  6  2  0
  6  7  1  0
  7  8  1  0
  8  9  1  0
  9 10  2  0
 10 11  1  0
 11 12  2  0
 12 13  1  0
 13 14  2  0
  8 15  2  0
 15 16  1  0
 16 17  2  0
 17 18  1  0
 18 19  1  0
 19 20  1  0
 18 21  2  0
 21 22  1  0
 22 23  1  0
 21 24  1  0
 24 25  1  0
 25 26  1  0
 24 27  2  0
 15 28  1  0
 28 29  2  0
 29 30  1  0
 30  4  2  0
 29  7  1  0
 14  9  1  0
 27 16  1  0
  1 31  1  0
  1 32  1  0
  1 33  1  0
  2 34  1  0
  2 35  1  0
  5 36  1  0
  6 37  1  0
 10 38  1  0
 11 39  1  0
 12 40  1  0
 13 41  1  0
 14 42  1  0
 17 43  1  0
 20 44  1  0
 20 45  1  0
 20 46  1  0
 23 47  1  0
 23 48  1  0
 23 49  1  0
 26 50  1  0
 26 51  1  0
 26 52  1  0
 27 53  1  0
 28 54  1  0
M  CHG  1  28   1
M  END
>  <UniqueID>  (16) 
16

>  <SMILES>  (16) 
CCOc1ccn2c(-c3ccccc3)c(-c3cc(OC)c(OC)c(OC)c3)[nH+]c2n1

>  <Energy>  (16) 
100.41134632464761

>  <Genealogy>  (16) 
CCOc1ccn2c(-c3ccccc3)c(-c3cc(OC)c(OC)c(OC)c3)[nH+]c2n1 (protonated)
CCOc1ccn2c(-c3ccccc3)c(-c3cc(OC)c(OC)c(OC)c3)[nH+]c2n1 (3D coordinates assigned)
CCOc1ccn2c(-c3ccccc3)c(-c3cc(OC)c(OC)c(OC)c3)[nH+]c2n1 (optimized conformer: 100.41134632464761 kcal/mol)

>  <smiles>  (16) 
CCOc1ccn2c(-c3ccccc3)c(-c3cc(OC)c(OC)c(OC)c3)nc2n1

>  <score_type>  (16) 
oracle

>  <origin>  (16) 
adg

>  <m_score__min__energy>  (16) 
-8.1799999999999997

>  <m_primary>  (16) 
energy

$$$$
16:0
     RDKit          3D

 48 53  0  0  0  0  0  0  0  0999 V2000
   -3.4570   19.5380  -26.8450 N   0  0  0  0  0  0  0  0  0  0  0  0
   -3.1100   20.4530  -27.6910 C   0  0  0  0  0  0  0  0  0  0  0  0
   -3.5160   21.8000  -27.5990 N   0  0  0  0  0  0  0  0  0  0  0  0
   -2.9270   22.5170  -28.7270 C   0  0  1  0  0  0  0  0  0  0  0  0
   -2.1130   21.4250  -29.5070 C   0  0  0  0  0  0  0  0  0  0  0  0
   -2.3030   20.2160  -28.7800 O   0  0  0  0  0  0  0  0  0  0  0  0
   -4.0470   23.0690  -29.6050 C   0  0  0  0  0  0  0  0  0  0  0  0
   -5.0820   22.2220  -30.0500 C   0  0  0  0  0  0  0  0  0  0  0  0
   -6.0970   22.7000  -30.8970 C   0  0  0  0  0  0  0  0  0  0  0  0
   -7.1790   21.7960  -31.3630 C   0  0  0  0  0  0  0  0  0  0  0  0
   -8.4900   22.2710  -31.5440 C   0  0  0  0  0  0  0  0  0  0  0  0
   -9.4730   21.4340  -31.9690 N   0  0  0  0  0  0  0  0  0  0  0  0
   -9.2320   20.1240  -32.2350 C   0  0  0  0  0  0  0  0  0  0  0  0
   -7.9490   19.6030  -32.0710 C   0  0  0  0  0  0  0  0  0  0  0  0
   -7.7010   18.2980  -32.3390 F   0  0  0  0  0  0  0  0  0  0  0  0
   -6.9200   20.4400  -31.6350 C   0  0  0  0  0  0  0  0  0  0  0  0
   -6.0680   24.0440  -31.3020 C   0  0  0  0  0  0  0  0  0  0  0  0
   -5.0470   24.8910  -30.8680 C   0  0  0  0  0  0  0  0  0  0  0  0
   -4.0440   24.4130  -30.0210 C   0  0  0  0  0  0  0  0  0  0  0  0
   -3.0510   25.2920  -29.5890 O   0  0  0  0  0  0  0  0  0  0  0  0
   -2.0700   24.9210  -28.6710 C   0  0  0  0  0  0  0  0  0  0  0  0
   -1.1710   25.8860  -28.2150 C   0  0  0  0  0  0  0  0  0  0  0  0
   -0.1910   25.5560  -27.2780 C   0  0  0  0  0  0  0  0  0  0  0  0
   -0.0930   24.2410  -26.7800 C   0  0  0  0  0  0  0  0  0  0  0  0
    0.9440   23.7990  -25.7610 C   0  0  0  0  0  0  0  0  0  0  0  0
    0.4310   23.2230  -24.4480 C   0  0  0  0  0  0  0  0  0  0  0  0
    1.0530   24.6130  -24.4790 C   0  0  0  0  0  0  0  0  0  0  0  0
   -0.9980   23.2750  -27.2500 C   0  0  0  0  0  0  0  0  0  0  0  0
   -1.9910   23.5990  -28.1950 C   0  0  0  0  0  0  0  0  0  0  0  0
   -4.2540   19.7030  -26.1900 H   0  0  0  0  0  0  0  0  0  0  0  0
   -2.9460   18.6290  -26.8050 H   0  0  0  0  0  0  0  0  0  0  0  0
   -4.1300   22.2090  -26.8580 H   0  0  0  0  0  0  0  0  0  0  0  0
   -2.4955   21.3205  -30.5331 H   0  0  0  0  0  0  0  0  0  0  0  0
   -1.0483   21.6897  -29.5868 H   0  0  0  0  0  0  0  0  0  0  0  0
   -5.0957   21.1699  -29.7293 H   0  0  0  0  0  0  0  0  0  0  0  0
   -8.7216   23.3269  -31.3403 H   0  0  0  0  0  0  0  0  0  0  0  0
  -10.0494   19.4737  -32.5800 H   0  0  0  0  0  0  0  0  0  0  0  0
   -5.9044   20.0384  -31.5038 H   0  0  0  0  0  0  0  0  0  0  0  0
   -6.8549   24.4319  -31.9655 H   0  0  0  0  0  0  0  0  0  0  0  0
   -5.0320   25.9412  -31.1948 H   0  0  0  0  0  0  0  0  0  0  0  0
   -1.2354   26.9154  -28.5974 H   0  0  0  0  0  0  0  0  0  0  0  0
    0.5097   26.3273  -26.9257 H   0  0  0  0  0  0  0  0  0  0  0  0
    1.6522   23.4648  -26.5335 H   0  0  0  0  0  0  0  0  0  0  0  0
   -0.6505   23.1079  -24.2831 H   0  0  0  0  0  0  0  0  0  0  0  0
    0.6160   22.3005  -23.8782 H   0  0  0  0  0  0  0  0  0  0  0  0
    0.4208   25.5018  -24.3364 H   0  0  0  0  0  0  0  0  0  0  0  0
    1.8734   25.1102  -23.9407 H   0  0  0  0  0  0  0  0  0  0  0  0
   -0.9298   22.2441  -26.8723 H   0  0  0  0  0  0  0  0  0  0  0  0
  1  2  2  0
  2  3  1  0
  4  3  1  1
  4  5  1  0
  5  6  1  0
  4  7  1  0
  7  8  2  0
  8  9  1  0
  9 10  1  0
 10 11  2  0
 11 12  1  0
 12 13  2  0
 13 14  1  0
 14 15  1  0
 14 16  2  0
  9 17  2  0
 17 18  1  0
 18 19  2  0
 19 20  1  0
 20 21  1  0
 21 22  2  0
 22 23  1  0
 23 24  2  0
 24 25  1  0
 25 26  1  0
 26 27  1  0
 24 28  1  0
 28 29  2  0
  6  2  1  0
 19  7  1  0
 29 21  1  0
 29  4  1  0
 16 10  1  0
 27 25  1  0
  1 30  1  0
  1 31  1  0
  3 32  1  0
  5 33  1  0
  5 34  1  0
  8 35  1  0
 11 36  1  0
 13 37  1  0
 16 38  1  0
 17 39  1  0
 18 40  1  0
 22 41  1  0
 23 42  1  0
 25 43  1  0
 26 44  1  0
 26 45  1  0
 27 46  1  0
 27 47  1  0
 28 48  1  0
M  CHG  1   1   1
M  END
>  <UniqueID>  (17) 
17

>  <SMILES>  (17) 
[NH2+]=C1N[C@@]2(CO1)c1cc(-c3cncc(F)c3)ccc1Oc1ccc(C3CC3)cc12

>  <Energy>  (17) 
347.1680949770708

>  <Genealogy>  (17) 
[NH2+]=C1NC2(CO1)c1cc(-c3cncc(F)c3)ccc1Oc1ccc(C3CC3)cc12 (protonated)
[NH2+]=C1N[C@@]2(CO1)c1cc(-c3cncc(F)c3)ccc1Oc1ccc(C3CC3)cc12 (chirality)
[NH2+]=C1N[C@@]2(CO1)c1cc(-c3cncc(F)c3)ccc1Oc1ccc(C3CC3)cc12 (3D coordinates assigned)
[NH2+]=C1N[C@@]2(CO1)c1cc(-c3cncc(F)c3)ccc1Oc1ccc(C3CC3)cc12 (nonaromatic ring conformer: 347.1680949770708 kcal/mol)

>  <smiles>  (17) 
N=C1NC2(CO1)c1cc(-c3cncc(F)c3)ccc1Oc1ccc(C3CC3)cc12

>  <score_type>  (17) 
oracle

>  <origin>  (17) 
adg

>  <m_score__min__energy>  (17) 
-8.8200000000000003

>  <m_primary>  (17) 
energy

$$$$
17:0
     RDKit          3D

 40 42  0  0  0  0  0  0  0  0999 V2000
   -1.8680   17.4920  -32.4230 O   0  0  0  0  0  0  0  0  0  0  0  0
   -2.6300   18.2400  -33.0960 C   0  0  0  0  0  0  0  0  0  0  0  0
   -3.3470   17.6530  -34.2860 C   0  0  0  0  0  0  0  0  0  0  0  0
   -4.6720   17.2480  -33.9420 O   0  0  0  0  0  0  0  0  0  0  0  0
   -5.6540   18.0840  -33.3850 C   0  0  0  0  0  0  0  0  0  0  0  0
   -6.1030   19.1740  -34.1420 C   0  0  0  0  0  0  0  0  0  0  0  0
   -7.0780   20.0380  -33.6330 C   0  0  0  0  0  0  0  0  0  0  0  0
   -7.6120   19.8190  -32.3600 C   0  0  0  0  0  0  0  0  0  0  0  0
   -8.9430   21.0000  -31.6650 Br  0  0  0  0  0  0  0  0  0  0  0  0
   -7.1710   18.7340  -31.5960 C   0  0  0  0  0  0  0  0  0  0  0  0
   -6.1980   17.8680  -32.1030 C   0  0  0  0  0  0  0  0  0  0  0  0
   -2.8540   19.6050  -32.6720 N   0  0  0  0  0  0  0  0  0  0  0  0
   -3.4980   20.5690  -33.5790 C   0  0  0  0  0  0  0  0  0  0  0  0
   -3.5020   21.9900  -33.0030 C   0  0  0  0  0  0  0  0  0  0  0  0
   -3.9330   21.9730  -31.5970 N   0  0  0  0  0  0  0  0  0  0  0  0
   -4.7860   23.0110  -31.0720 C   0  0  0  0  0  0  0  0  0  0  0  0
   -6.0820   22.7440  -30.7450 N   0  0  0  0  0  0  0  0  0  0  0  0
   -6.8980   23.7100  -30.2520 C   0  0  0  0  0  0  0  0  0  0  0  0
   -6.4140   25.0050  -30.0740 C   0  0  0  0  0  0  0  0  0  0  0  0
   -5.0880   25.2680  -30.4120 C   0  0  0  0  0  0  0  0  0  0  0  0
   -4.3030   24.2740  -30.9020 N   0  0  0  0  0  0  0  0  0  0  0  0
   -3.4020   20.9510  -30.6830 C   0  0  0  0  0  0  0  0  0  0  0  0
   -2.3560   20.0620  -31.3660 C   0  0  0  0  0  0  0  0  0  0  0  0
   -3.3985   18.4095  -35.0829 H   0  0  0  0  0  0  0  0  0  0  0  0
   -2.7896   16.7680  -34.6268 H   0  0  0  0  0  0  0  0  0  0  0  0
   -5.6856   19.3516  -35.1441 H   0  0  0  0  0  0  0  0  0  0  0  0
   -7.4249   20.8907  -34.2351 H   0  0  0  0  0  0  0  0  0  0  0  0
   -7.5907   18.5617  -30.5939 H   0  0  0  0  0  0  0  0  0  0  0  0
   -5.8556   17.0147  -31.4991 H   0  0  0  0  0  0  0  0  0  0  0  0
   -2.9532   20.5753  -34.5346 H   0  0  0  0  0  0  0  0  0  0  0  0
   -4.5437   20.2570  -33.7174 H   0  0  0  0  0  0  0  0  0  0  0  0
   -2.4869   22.4092  -33.0657 H   0  0  0  0  0  0  0  0  0  0  0  0
   -4.2031   22.6078  -33.5833 H   0  0  0  0  0  0  0  0  0  0  0  0
   -7.9401   23.4712  -29.9932 H   0  0  0  0  0  0  0  0  0  0  0  0
   -7.0627   25.7996  -29.6766 H   0  0  0  0  0  0  0  0  0  0  0  0
   -4.6773   26.2801  -30.2820 H   0  0  0  0  0  0  0  0  0  0  0  0
   -2.9355   21.4518  -29.8218 H   0  0  0  0  0  0  0  0  0  0  0  0
   -4.2379   20.3110  -30.3642 H   0  0  0  0  0  0  0  0  0  0  0  0
   -1.4294   20.6368  -31.5111 H   0  0  0  0  0  0  0  0  0  0  0  0
   -2.1585   19.1863  -30.7303 H   0  0  0  0  0  0  0  0  0  0  0  0
  1  2  2  0
  2  3  1  0
  3  4  1  0
  4  5  1  0
  5  6  2  0
  6  7  1  0
  7  8  2  0
  8  9  1  0
  8 10  1  0
 10 11  2  0
  2 12  1  0
 12 13  1  0
 13 14  1  0
 14 15  1  0
 15 16  1  0
 16 17  2  0
 17 18  1  0
 18 19  2  0
 19 20  1  0
 20 21  2  0
 15 22  1  0
 22 23  1  0
 11  5  1  0
 23 12  1  0
 21 16  1  0
  3 24  1  0
  3 25  1  0
  6 26  1  0
  7 27  1  0
 10 28  1  0
 11 29  1  0
 13 30  1  0
 13 31  1  0
 14 32  1  0
 14 33  1  0
 18 34  1  0
 19 35  1  0
 20 36  1  0
 22 37  1  0
 22 38  1  0
 23 39  1  0
 23 40  1  0
M  END
>  <UniqueID>  (18) 
18

>  <SMILES>  (18) 
O=C(COc1ccc(Br)cc1)N1CCN(c2ncccn2)CC1

>  <Energy>  (18) 
43.499653837433094

>  <Genealogy>  (18) 
O=C(COc1ccc(Br)cc1)N1CCN(c2ncccn2)CC1 (3D coordinates assigned)
O=C(COc1ccc(Br)cc1)N1CCN(c2ncccn2)CC1 (nonaromatic ring conformer: 43.499653837433094 kcal/mol)

>  <smiles>  (18) 
O=C(COc1ccc(Br)cc1)N1CCN(c2ncccn2)CC1

>  <score_type>  (18) 
oracle

>  <origin>  (18) 
adg

>  <m_score__min__energy>  (18) 
-8.5800000000000001

>  <m_primary>  (18) 
energy

$$$$
18:0
     RDKit          3D

 43 46  0  0  0  0  0  0  0  0999 V2000
   -2.3540   23.3340  -29.2220 O   0  0  0  0  0  0  0  0  0  0  0  0
   -2.6850   24.5420  -29.3600 C   0  0  0  0  0  0  0  0  0  0  0  0
   -1.8850   25.5840  -28.7880 N   0  0  0  0  0  0  0  0  0  0  0  0
   -1.2410   25.5650  -27.5060 C   0  0  0  0  0  0  0  0  0  0  0  0
   -1.8790   26.0130  -26.3360 C   0  0  0  0  0  0  0  0  0  0  0  0
   -1.1950   25.9950  -25.1180 C   0  0  0  0  0  0  0  0  0  0  0  0
    0.1260   25.5410  -25.0810 C   0  0  0  0  0  0  0  0  0  0  0  0
    0.7370   25.1330  -26.2260 N   0  0  0  0  0  0  0  0  0  0  0  0
    0.0910   25.1420  -27.4220 C   0  0  0  0  0  0  0  0  0  0  0  0
   -3.8630   24.8940  -30.1000 N   0  0  0  0  0  0  0  0  0  0  0  0
   -4.6340   23.9680  -30.8830 C   0  0  0  0  0  0  0  0  0  0  0  0
   -3.9900   22.8840  -31.4960 C   0  0  0  0  0  0  0  0  0  0  0  0
   -4.7200   21.9580  -32.2440 C   0  0  0  0  0  0  0  0  0  0  0  0
   -6.1080   22.0820  -32.3660 C   0  0  0  0  0  0  0  0  0  0  0  0
   -6.8050   21.1280  -33.1200 O   0  0  0  0  0  0  0  0  0  0  0  0
   -6.5210   19.7550  -33.1240 C   0  0  0  0  0  0  0  0  0  0  0  0
   -7.1680   18.8560  -32.2550 C   0  0  0  0  0  0  0  0  0  0  0  0
   -6.8550   17.4950  -32.2840 C   0  0  0  0  0  0  0  0  0  0  0  0
   -5.8860   17.0120  -33.1760 C   0  0  0  0  0  0  0  0  0  0  0  0
   -5.5650   15.6460  -33.2150 C   0  0  0  0  0  0  0  0  0  0  0  0
   -4.5960   15.1780  -34.1060 C   0  0  0  0  0  0  0  0  0  0  0  0
   -3.9410   16.0670  -34.9630 C   0  0  0  0  0  0  0  0  0  0  0  0
   -4.2510   17.4290  -34.9350 C   0  0  0  0  0  0  0  0  0  0  0  0
   -5.2240   17.9120  -34.0440 C   0  0  0  0  0  0  0  0  0  0  0  0
   -5.5450   19.2770  -34.0070 C   0  0  0  0  0  0  0  0  0  0  0  0
   -6.7640   23.1670  -31.7540 C   0  0  0  0  0  0  0  0  0  0  0  0
   -8.4940   23.4210  -31.9520 Cl  0  0  0  0  0  0  0  0  0  0  0  0
   -6.0300   24.0940  -31.0050 C   0  0  0  0  0  0  0  0  0  0  0  0
   -2.9160   26.3774  -26.3796 H   0  0  0  0  0  0  0  0  0  0  0  0
   -1.6915   26.3349  -24.1971 H   0  0  0  0  0  0  0  0  0  0  0  0
    0.6717   25.5135  -24.1263 H   0  0  0  0  0  0  0  0  0  0  0  0
    0.6184   24.8147  -28.3301 H   0  0  0  0  0  0  0  0  0  0  0  0
   -4.2300   25.8650  -29.9820 H   0  0  0  0  0  0  0  0  0  0  0  0
   -2.9022   22.7621  -31.3870 H   0  0  0  0  0  0  0  0  0  0  0  0
   -4.2001   21.1255  -32.7406 H   0  0  0  0  0  0  0  0  0  0  0  0
   -7.9249   19.2277  -31.5486 H   0  0  0  0  0  0  0  0  0  0  0  0
   -7.3701   16.7995  -31.6050 H   0  0  0  0  0  0  0  0  0  0  0  0
   -6.0776   14.9424  -32.5425 H   0  0  0  0  0  0  0  0  0  0  0  0
   -4.3478   14.1067  -34.1332 H   0  0  0  0  0  0  0  0  0  0  0  0
   -3.1786   15.6928  -35.6621 H   0  0  0  0  0  0  0  0  0  0  0  0
   -3.7325   18.1242  -35.6116 H   0  0  0  0  0  0  0  0  0  0  0  0
   -5.0257   19.9778  -34.6772 H   0  0  0  0  0  0  0  0  0  0  0  0
   -6.5484   24.9272  -30.5080 H   0  0  0  0  0  0  0  0  0  0  0  0
  1  2  2  0
  2  3  1  0
  3  4  1  0
  4  5  2  0
  5  6  1  0
  6  7  2  0
  7  8  1  0
  8  9  2  0
  2 10  1  0
 10 11  1  0
 11 12  2  0
 12 13  1  0
 13 14  2  0
 14 15  1  0
 15 16  1  0
 16 17  2  0
 17 18  1  0
 18 19  2  0
 19 20  1  0
 20 21  2  0
 21 22  1  0
 22 23  2  0
 23 24  1  0
 24 25  2  0
 14 26  1  0
 26 27  1  0
 26 28  2  0
  9  4  1  0
 28 11  1  0
 25 16  1  0
 24 19  1  0
  5 29  1  0
  6 30  1  0
  7 31  1  0
  9 32  1  0
 10 33  1  0
 12 34  1  0
 13 35  1  0
 17 36  1  0
 18 37  1  0
 20 38  1  0
 21 39  1  0
 22 40  1  0
 23 41  1  0
 25 42  1  0
 28 43  1  0
M  CHG  1   3  -1
M  END
>  <UniqueID>  (19) 
19

>  <SMILES>  (19) 
O=C([N-]c1cccnc1)Nc1ccc(Oc2ccc3ccccc3c2)c(Cl)c1

>  <Energy>  (19) 
67.19764342097257

>  <Genealogy>  (19) 
O=C([N-]c1cccnc1)Nc1ccc(Oc2ccc3ccccc3c2)c(Cl)c1 (protonated)
O=C([N-]c1cccnc1)Nc1ccc(Oc2ccc3ccccc3c2)c(Cl)c1 (3D coordinates assigned)
O=C([N-]c1cccnc1)Nc1ccc(Oc2ccc3ccccc3c2)c(Cl)c1 (optimized conformer: 67.19764342097257 kcal/mol)

>  <smiles>  (19) 
O=C(Nc1cccnc1)Nc1ccc(Oc2ccc3ccccc3c2)c(Cl)c1

>  <score_type>  (19) 
oracle

>  <origin>  (19) 
adg

>  <m_score__min__energy>  (19) 
-10.699999999999999

>  <m_primary>  (19) 
energy

$$$$
19:0
     RDKit          3D

 46 48  0  0  0  0  0  0  0  0999 V2000
   -2.6850   21.6210  -34.3390 H   0  0  0  0  0  0  0  0  0  0  0  0
   -3.1620   21.6420  -33.4450 O   0  0  0  0  0  0  0  0  0  0  0  0
   -4.5360   21.5250  -33.3870 N   0  0  0  0  0  0  0  0  0  0  0  0
   -5.0350   21.1380  -34.2180 H   0  0  0  0  0  0  0  0  0  0  0  0
   -5.1910   21.9020  -32.3240 C   0  0  0  0  0  0  0  0  0  0  0  0
   -6.6480   21.6150  -32.1780 C   0  0  0  0  0  0  0  0  0  0  0  0
   -7.2720   20.6000  -32.9410 C   0  0  0  0  0  0  0  0  0  0  0  0
   -6.5010   19.8000  -33.7990 O   0  0  0  0  0  0  0  0  0  0  0  0
   -6.0990   18.4760  -33.5700 C   0  0  0  0  0  0  0  0  0  0  0  0
   -6.1760   17.9850  -32.2600 C   0  0  0  0  0  0  0  0  0  0  0  0
   -6.5629   18.6308  -31.4579 H   0  0  0  0  0  0  0  0  0  0  0  0
   -5.7660   16.6830  -31.9630 C   0  0  0  0  0  0  0  0  0  0  0  0
   -5.8369   16.3049  -30.9325 H   0  0  0  0  0  0  0  0  0  0  0  0
   -5.2660   15.8620  -32.9760 C   0  0  0  0  0  0  0  0  0  0  0  0
   -4.9453   14.8356  -32.7444 H   0  0  0  0  0  0  0  0  0  0  0  0
   -5.1730   16.3460  -34.2870 C   0  0  0  0  0  0  0  0  0  0  0  0
   -4.7797   15.6978  -35.0839 H   0  0  0  0  0  0  0  0  0  0  0  0
   -5.5780   17.6490  -34.5860 C   0  0  0  0  0  0  0  0  0  0  0  0
   -5.4904   18.0299  -35.6142 H   0  0  0  0  0  0  0  0  0  0  0  0
   -8.6090   20.3690  -32.7920 N   0  0  0  0  0  0  0  0  0  0  0  0
   -9.3830   21.1050  -31.9520 C   0  0  0  0  0  0  0  0  0  0  0  0
  -10.4585   20.8910  -31.8656 H   0  0  0  0  0  0  0  0  0  0  0  0
   -8.8140   22.1310  -31.2000 C   0  0  0  0  0  0  0  0  0  0  0  0
   -9.4377   22.7365  -30.5259 H   0  0  0  0  0  0  0  0  0  0  0  0
   -7.4430   22.3840  -31.3100 C   0  0  0  0  0  0  0  0  0  0  0  0
   -6.9848   23.1878  -30.7151 H   0  0  0  0  0  0  0  0  0  0  0  0
   -4.5090   22.6140  -31.2860 N   0  0  0  0  0  0  0  0  0  0  0  0
   -4.1480   23.5720  -31.5090 H   0  0  0  0  0  0  0  0  0  0  0  0
   -3.9720   21.9350  -30.1160 C   0  0  0  0  0  0  0  0  0  0  0  0
   -3.5002   20.9930  -30.4323 H   0  0  0  0  0  0  0  0  0  0  0  0
   -4.7979   21.7380  -29.4166 H   0  0  0  0  0  0  0  0  0  0  0  0
   -2.9420   22.7920  -29.4140 C   0  0  0  0  0  0  0  0  0  0  0  0
   -2.0140   22.1790  -28.5530 C   0  0  0  0  0  0  0  0  0  0  0  0
   -2.0262   21.0863  -28.4269 H   0  0  0  0  0  0  0  0  0  0  0  0
   -1.0760   22.9470  -27.8560 C   0  0  0  0  0  0  0  0  0  0  0  0
   -0.3619   22.4580  -27.1771 H   0  0  0  0  0  0  0  0  0  0  0  0
   -1.0440   24.3330  -28.0200 C   0  0  0  0  0  0  0  0  0  0  0  0
   -0.3058   24.9352  -27.4701 H   0  0  0  0  0  0  0  0  0  0  0  0
   -1.9500   24.9550  -28.8830 C   0  0  0  0  0  0  0  0  0  0  0  0
   -1.9162   26.0466  -29.0146 H   0  0  0  0  0  0  0  0  0  0  0  0
   -2.9090   24.1940  -29.5880 C   0  0  0  0  0  0  0  0  0  0  0  0
   -3.8310   24.7960  -30.4610 O   0  0  0  0  0  0  0  0  0  0  0  0
   -5.1440   25.2180  -30.0780 C   0  0  0  0  0  0  0  0  0  0  0  0
   -5.2162   25.2412  -28.9806 H   0  0  0  0  0  0  0  0  0  0  0  0
   -5.3376   26.2236  -30.4795 H   0  0  0  0  0  0  0  0  0  0  0  0
   -5.8873   24.5135  -30.4795 H   0  0  0  0  0  0  0  0  0  0  0  0
  1  2  1  0
  2  3  1  0
  3  4  1  0
  3  5  2  0
  5  6  1  0
  6  7  1  0
  7  8  1  0
  8  9  1  0
  9 10  2  0
 10 11  1  0
 10 12  1  0
 12 13  1  0
 12 14  2  0
 14 15  1  0
 14 16  1  0
 16 17  1  0
 16 18  2  0
 18 19  1  0
  7 20  2  0
 20 21  1  0
 21 22  1  0
 21 23  2  0
 23 24  1  0
 23 25  1  0
 25 26  1  0
  5 27  1  0
 27 28  1  0
 27 29  1  0
 29 30  1  0
 29 31  1  0
 29 32  1  0
 32 33  2  0
 33 34  1  0
 33 35  1  0
 35 36  1  0
 35 37  2  0
 37 38  1  0
 37 39  1  0
 39 40  1  0
 39 41  2  0
 41 42  1  0
 42 43  1  0
 43 44  1  0
 43 45  1  0
 43 46  1  0
 25  6  2  0
 41 32  1  0
 18  9  1  0
M  CHG  1   3   1
M  END
>  <UniqueID>  (20) 
20

>  <SMILES>  (20) 
COc1ccccc1CN/C(=[NH+]\O)c1cccnc1Oc1ccccc1

>  <Energy>  (20) 
56.828402108522326

>  <Genealogy>  (20) 
COc1ccccc1CNC(=[NH+]O)c1cccnc1Oc1ccccc1 (protonated)
COc1ccccc1CN/C(=[NH+]\O)c1cccnc1Oc1ccccc1 (cis-trans isomerization)
COc1ccccc1CN/C(=[NH+]\O)c1cccnc1Oc1ccccc1 (3D coordinates assigned)
COc1ccccc1CN/C(=[NH+]\O)c1cccnc1Oc1ccccc1 (optimized conformer: 56.828402108522326 kcal/mol)

>  <smiles>  (20) 
COc1ccccc1CNC(=NO)c1cccnc1Oc1ccccc1

>  <score_type>  (20) 
oracle

>  <origin>  (20) 
adg

>  <m_score__min__energy>  (20) 
-7.6600000000000001

>  <m_primary>  (20) 
energy

$$$$
20:0
     RDKit          3D

 26 28  0  0  0  0  0  0  0  0999 V2000
   -7.3300   23.0650  -30.2880 C   0  0  0  0  0  0  0  0  0  0  0  0
   -6.8070   24.3770  -29.7130 C   0  0  0  0  0  0  0  0  0  0  0  0
   -5.3400   24.5230  -29.9740 C   0  0  0  0  0  0  0  0  0  0  0  0
   -4.8130   25.3840  -30.8720 N   0  0  0  0  0  0  0  0  0  0  0  0
   -3.4900   25.2880  -30.8250 N   0  0  0  0  0  0  0  0  0  0  0  0
   -3.1860   24.3450  -29.9160 C   0  0  0  0  0  0  0  0  0  0  0  0
   -4.3150   23.8270  -29.3650 C   0  0  0  0  0  0  0  0  0  0  0  0
   -4.3050   22.9420  -28.1630 C   0  0  0  0  0  0  0  0  0  0  0  0
   -3.9270   23.6720  -26.9940 O   0  0  0  0  0  0  0  0  0  0  0  0
   -2.8700   24.5960  -26.8260 C   0  0  0  0  0  0  0  0  0  0  0  0
   -2.8800   25.3110  -25.6680 N   0  0  0  0  0  0  0  0  0  0  0  0
   -1.9810   26.2910  -25.3960 C   0  0  0  0  0  0  0  0  0  0  0  0
   -1.0000   26.6140  -26.3280 C   0  0  0  0  0  0  0  0  0  0  0  0
   -0.9360   25.9000  -27.5220 C   0  0  0  0  0  0  0  0  0  0  0  0
   -1.8420   24.8650  -27.7840 C   0  0  0  0  0  0  0  0  0  0  0  0
   -1.5700   23.9350  -29.3040 S   0  0  0  0  0  0  0  0  0  0  0  0
   -7.6006   22.3863  -29.4657 H   0  0  0  0  0  0  0  0  0  0  0  0
   -8.2177   23.2637  -30.9065 H   0  0  0  0  0  0  0  0  0  0  0  0
   -6.5491   22.5986  -30.9065 H   0  0  0  0  0  0  0  0  0  0  0  0
   -7.3423   25.2155  -30.1824 H   0  0  0  0  0  0  0  0  0  0  0  0
   -6.9740   24.3776  -28.6258 H   0  0  0  0  0  0  0  0  0  0  0  0
   -5.3115   22.5232  -28.0160 H   0  0  0  0  0  0  0  0  0  0  0  0
   -3.5733   22.1370  -28.3260 H   0  0  0  0  0  0  0  0  0  0  0  0
   -2.0282   26.8300  -24.4383 H   0  0  0  0  0  0  0  0  0  0  0  0
   -0.2836   27.4235  -26.1243 H   0  0  0  0  0  0  0  0  0  0  0  0
   -0.1663   26.1516  -28.2665 H   0  0  0  0  0  0  0  0  0  0  0  0
  1  2  1  0
  2  3  1  0
  3  4  2  0
  4  5  1  0
  5  6  1  0
  6  7  2  0
  7  8  1  0
  8  9  1  0
  9 10  1  0
 10 11  2  0
 11 12  1  0
 12 13  2  0
 13 14  1  0
 14 15  2  0
 15 16  1  0
  7  3  1  0
 15 10  1  0
 16  6  1  0
  1 17  1  0
  1 18  1  0
  1 19  1  0
  2 20  1  0
  2 21  1  0
  8 22  1  0
  8 23  1  0
 12 24  1  0
 13 25  1  0
 14 26  1  0
M  CHG  1   5  -1
M  END
>  <UniqueID>  (21) 
21

>  <SMILES>  (21) 
CCc1n[n-]c2c1COc1ncccc1S2

>  <Energy>  (21) 
67.1128811658021

>  <Genealogy>  (21) 
CCc1n[n-]c2c1COc1ncccc1S2 (protonated)
CCc1n[n-]c2c1COc1ncccc1S2 (3D coordinates assigned)
CCc1n[n-]c2c1COc1ncccc1S2 (nonaromatic ring conformer: 67.1128811658021 kcal/mol)

>  <smiles>  (21) 
CCc1n[nH]c2c1COc1ncccc1S2

>  <score_type>  (21) 
oracle

>  <origin>  (21) 
adg

>  <m_score__min__energy>  (21) 
-8.0299999999999994

>  <m_primary>  (21) 
energy

$$$$
21:0
     RDKit          3D

 49 50  0  0  0  0  0  0  0  0999 V2000
    0.0614   24.7622  -25.7364 H   0  0  0  0  0  0  0  0  0  0  0  0
   -0.6850   24.3830  -26.4500 C   0  0  0  0  0  0  0  0  0  0  0  0
   -1.1430   23.0470  -26.3380 C   0  0  0  0  0  0  0  0  0  0  0  0
   -0.6190   22.2500  -25.3080 O   0  0  0  0  0  0  0  0  0  0  0  0
   -0.1360   22.7570  -24.0690 C   0  0  0  0  0  0  0  0  0  0  0  0
   -0.6343   22.2339  -23.2395 H   0  0  0  0  0  0  0  0  0  0  0  0
    0.9501   22.5950  -24.0049 H   0  0  0  0  0  0  0  0  0  0  0  0
   -0.3505   23.8340  -24.0049 H   0  0  0  0  0  0  0  0  0  0  0  0
   -2.1060   22.5550  -27.2560 C   0  0  0  0  0  0  0  0  0  0  0  0
   -2.4781   21.5218  -27.1922 H   0  0  0  0  0  0  0  0  0  0  0  0
   -2.5630   23.4260  -28.2400 C   0  0  0  0  0  0  0  0  0  0  0  0
   -2.1150   24.7100  -28.3390 C   0  0  0  0  0  0  0  0  0  0  0  0
   -2.7090   25.2960  -29.3490 O   0  0  0  0  0  0  0  0  0  0  0  0
   -3.5140   24.3790  -29.8660 C   0  0  0  0  0  0  0  0  0  0  0  0
   -4.2800   24.5810  -30.8940 N   0  0  0  0  0  0  0  0  0  0  0  0
   -5.6790   25.0020  -30.8020 C   0  0  2  0  0  0  0  0  0  0  0  0
   -5.8217   25.9203  -31.3905 H   0  0  0  0  0  0  0  0  0  0  0  0
   -6.0210   25.3060  -29.3420 C   0  0  0  0  0  0  0  0  0  0  0  0
   -5.3633   24.7214  -28.6820 H   0  0  0  0  0  0  0  0  0  0  0  0
   -5.8761   26.3789  -29.1472 H   0  0  0  0  0  0  0  0  0  0  0  0
   -7.0695   25.0363  -29.1472 H   0  0  0  0  0  0  0  0  0  0  0  0
   -6.6260   23.9420  -31.4140 C   0  0  0  0  0  0  0  0  0  0  0  0
   -7.3271   24.4561  -32.0879 H   0  0  0  0  0  0  0  0  0  0  0  0
   -7.1263   23.4453  -30.5696 H   0  0  0  0  0  0  0  0  0  0  0  0
   -5.9110   22.8290  -32.2180 C   0  0  0  0  0  0  0  0  0  0  0  0
   -4.8306   23.0357  -32.2152 H   0  0  0  0  0  0  0  0  0  0  0  0
   -6.3328   22.8392  -33.2338 H   0  0  0  0  0  0  0  0  0  0  0  0
   -6.1400   21.4190  -31.6440 C   0  0  0  0  0  0  0  0  0  0  0  0
   -6.2186   21.4929  -30.5493 H   0  0  0  0  0  0  0  0  0  0  0  0
   -5.2882   20.7932  -31.9486 H   0  0  0  0  0  0  0  0  0  0  0  0
   -7.3740   20.7830  -32.1670 N   0  0  0  0  0  0  0  0  0  0  0  0
   -8.4950   20.8900  -31.2070 C   0  0  0  0  0  0  0  0  0  0  0  0
   -8.0999   21.1548  -30.2151 H   0  0  0  0  0  0  0  0  0  0  0  0
   -9.0183   19.9237  -31.1571 H   0  0  0  0  0  0  0  0  0  0  0  0
   -9.4780   21.9660  -31.6620 C   0  0  0  0  0  0  0  0  0  0  0  0
   -9.9225   22.4526  -30.7813 H   0  0  0  0  0  0  0  0  0  0  0  0
   -8.9468   22.7161  -32.2663 H   0  0  0  0  0  0  0  0  0  0  0  0
  -10.2729   21.5045  -32.2663 H   0  0  0  0  0  0  0  0  0  0  0  0
   -7.1840   19.3960  -32.6590 C   0  0  0  0  0  0  0  0  0  0  0  0
   -7.1056   19.4267  -33.7558 H   0  0  0  0  0  0  0  0  0  0  0  0
   -6.2728   19.0117  -32.1773 H   0  0  0  0  0  0  0  0  0  0  0  0
   -8.3210   18.4340  -32.2840 C   0  0  0  0  0  0  0  0  0  0  0  0
   -8.3991   18.3679  -31.1888 H   0  0  0  0  0  0  0  0  0  0  0  0
   -9.2692   18.8082  -32.6973 H   0  0  0  0  0  0  0  0  0  0  0  0
   -8.1090   17.4369  -32.6973 H   0  0  0  0  0  0  0  0  0  0  0  0
   -3.4630   23.1940  -29.2100 N   0  0  0  0  0  0  0  0  0  0  0  0
   -3.9900   22.3160  -29.4100 H   0  0  0  0  0  0  0  0  0  0  0  0
   -1.1720   25.2320  -27.4620 C   0  0  0  0  0  0  0  0  0  0  0  0
   -0.8192   26.2697  -27.5550 H   0  0  0  0  0  0  0  0  0  0  0  0
  1  2  1  0
  2  3  2  0
  3  4  1  0
  4  5  1  0
  5  6  1  0
  5  7  1  0
  5  8  1  0
  3  9  1  0
  9 10  1  0
  9 11  2  0
 11 12  1  0
 12 13  1  0
 13 14  1  0
 14 15  2  0
 15 16  1  0
 16 17  1  6
 16 18  1  0
 18 19  1  0
 18 20  1  0
 18 21  1  0
 16 22  1  0
 22 23  1  0
 22 24  1  0
 22 25  1  0
 25 26  1  0
 25 27  1  0
 25 28  1  0
 28 29  1  0
 28 30  1  0
 28 31  1  0
 31 32  1  0
 32 33  1  0
 32 34  1  0
 32 35  1  0
 35 36  1  0
 35 37  1  0
 35 38  1  0
 31 39  1  0
 39 40  1  0
 39 41  1  0
 39 42  1  0
 42 43  1  0
 42 44  1  0
 42 45  1  0
 14 46  1  0
 46 47  1  0
 12 48  2  0
 48 49  1  0
 48  2  1  0
 46 11  1  0
M  END
>  <UniqueID>  (22) 
22

>  <SMILES>  (22) 
CCN(CC)CCC[C@@H](C)/N=c1/[nH]c2cc(OC)ccc2o1

>  <Energy>  (22) 
84.19014317140359

>  <Genealogy>  (22) 
CCN(CC)CCC[C@@H](C)N=c1[nH]c2cc(OC)ccc2o1 (chirality)
CCN(CC)CCC[C@@H](C)/N=c1/[nH]c2cc(OC)ccc2o1 (cis-trans isomerization)
CCN(CC)CCC[C@@H](C)/N=c1/[nH]c2cc(OC)ccc2o1 (3D coordinates assigned)
CCN(CC)CCC[C@@H](C)/N=c1/[nH]c2cc(OC)ccc2o1 (optimized conformer: 84.19014317140359 kcal/mol)

>  <smiles>  (22) 
CCN(CC)CCCC(C)N=c1[nH]c2cc(OC)ccc2o1

>  <score_type>  (22) 
oracle

>  <origin>  (22) 
adg

>  <m_score__min__energy>  (22) 
-7.5099999999999998

>  <m_primary>  (22) 
energy

$$$$
22:0
     RDKit          3D

 44 46  0  0  0  0  0  0  0  0999 V2000
   -4.4258   15.4279  -33.2946 H   0  0  0  0  0  0  0  0  0  0  0  0
   -5.1920   16.1830  -33.0650 C   0  0  0  0  0  0  0  0  0  0  0  0
   -5.5010   16.4830  -31.7360 C   0  0  0  0  0  0  0  0  0  0  0  0
   -4.9712   15.9706  -30.9195 H   0  0  0  0  0  0  0  0  0  0  0  0
   -6.4830   17.4340  -31.4430 C   0  0  0  0  0  0  0  0  0  0  0  0
   -6.7072   17.6825  -30.3951 H   0  0  0  0  0  0  0  0  0  0  0  0
   -7.1860   18.0750  -32.4780 C   0  0  0  0  0  0  0  0  0  0  0  0
   -8.2290   19.1180  -32.1490 C   0  0  0  0  0  0  0  0  0  0  0  0
   -8.8881   18.7136  -31.3667 H   0  0  0  0  0  0  0  0  0  0  0  0
   -8.7664   19.3371  -33.0835 H   0  0  0  0  0  0  0  0  0  0  0  0
   -7.6440   20.4510  -31.6480 C   0  0  0  0  0  0  0  0  0  0  0  0
   -6.9445   20.2335  -30.8274 H   0  0  0  0  0  0  0  0  0  0  0  0
   -8.4963   21.0696  -31.3304 H   0  0  0  0  0  0  0  0  0  0  0  0
   -6.8910   21.2560  -32.7230 C   0  0  0  0  0  0  0  0  0  0  0  0
   -7.4251   22.2016  -32.8982 H   0  0  0  0  0  0  0  0  0  0  0  0
   -6.8508   20.6474  -33.6384 H   0  0  0  0  0  0  0  0  0  0  0  0
   -5.5070   21.5590  -32.3150 N   0  0  0  0  0  0  0  0  0  0  0  0
   -5.0020   22.6730  -31.6900 C   0  0  0  0  0  0  0  0  0  0  0  0
   -5.6860   23.5590  -31.0200 N   0  0  0  0  0  0  0  0  0  0  0  0
   -5.2720   24.8600  -30.5970 C   0  0  0  0  0  0  0  0  0  0  0  0
   -4.1000   25.2490  -30.8430 O   0  0  0  0  0  0  0  0  0  0  0  0
   -6.1340   25.6630  -29.6740 C   0  0  0  0  0  0  0  0  0  0  0  0
   -5.8772   25.4238  -28.6315 H   0  0  0  0  0  0  0  0  0  0  0  0
   -5.9670   26.7349  -29.8560 H   0  0  0  0  0  0  0  0  0  0  0  0
   -7.1914   25.4205  -29.8560 H   0  0  0  0  0  0  0  0  0  0  0  0
   -3.6560   22.7710  -31.7940 N   0  0  0  0  0  0  0  0  0  0  0  0
   -3.0360   23.5170  -31.4060 H   0  0  0  0  0  0  0  0  0  0  0  0
   -3.2910   21.6690  -32.4610 C   0  0  0  0  0  0  0  0  0  0  0  0
   -2.0030   21.2730  -32.8160 C   0  0  0  0  0  0  0  0  0  0  0  0
   -1.1276   21.8819  -32.5460 H   0  0  0  0  0  0  0  0  0  0  0  0
   -1.8570   20.0660  -33.5330 C   0  0  0  0  0  0  0  0  0  0  0  0
   -0.4910   19.5770  -33.9090 C   0  0  0  0  0  0  0  0  0  0  0  0
    0.0881   19.3697  -32.9971 H   0  0  0  0  0  0  0  0  0  0  0  0
   -0.5820   18.6556  -34.5029 H   0  0  0  0  0  0  0  0  0  0  0  0
    0.0234   20.3468  -34.5029 H   0  0  0  0  0  0  0  0  0  0  0  0
   -3.0000   19.2850  -33.8360 C   0  0  0  0  0  0  0  0  0  0  0  0
   -2.8813   18.3322  -34.3727 H   0  0  0  0  0  0  0  0  0  0  0  0
   -4.2840   19.7150  -33.4580 C   0  0  0  0  0  0  0  0  0  0  0  0
   -5.1743   19.1135  -33.6936 H   0  0  0  0  0  0  0  0  0  0  0  0
   -4.3970   20.9310  -32.7730 C   0  0  0  0  0  0  0  0  0  0  0  0
   -6.8410   17.7920  -33.8130 C   0  0  0  0  0  0  0  0  0  0  0  0
   -7.3487   18.3207  -34.6332 H   0  0  0  0  0  0  0  0  0  0  0  0
   -5.8560   16.8420  -34.1020 C   0  0  0  0  0  0  0  0  0  0  0  0
   -5.6038   16.6135  -35.1480 H   0  0  0  0  0  0  0  0  0  0  0  0
  1  2  1  0
  2  3  2  0
  3  4  1  0
  3  5  1  0
  5  6  1  0
  5  7  2  0
  7  8  1  0
  8  9  1  0
  8 10  1  0
  8 11  1  0
 11 12  1  0
 11 13  1  0
 11 14  1  0
 14 15  1  0
 14 16  1  0
 14 17  1  0
 17 18  1  0
 18 19  2  0
 19 20  1  0
 20 21  2  0
 20 22  1  0
 22 23  1  0
 22 24  1  0
 22 25  1  0
 18 26  1  0
 26 27  1  0
 26 28  1  0
 28 29  2  0
 29 30  1  0
 29 31  1  0
 31 32  1  0
 32 33  1  0
 32 34  1  0
 32 35  1  0
 31 36  2  0
 36 37  1  0
 36 38  1  0
 38 39  1  0
 38 40  2  0
  7 41  1  0
 41 42  1  0
 41 43  2  0
 43 44  1  0
 43  2  1  0
 40 17  1  0
 40 28  1  0
M  END
>  <UniqueID>  (23) 
23

>  <SMILES>  (23) 
CC(=O)/N=c1/[nH]c2cc(C)ccc2n1CCCc1ccccc1

>  <Energy>  (23) 
93.9507343702905

>  <Genealogy>  (23) 
CC(=O)/N=c1/[nH]c2cc(C)ccc2n1CCCc1ccccc1 (cis-trans isomerization)
CC(=O)/N=c1/[nH]c2cc(C)ccc2n1CCCc1ccccc1 (3D coordinates assigned)
CC(=O)/N=c1/[nH]c2cc(C)ccc2n1CCCc1ccccc1 (optimized conformer: 93.9507343702905 kcal/mol)

>  <smiles>  (23) 
CC(=O)N=c1[nH]c2cc(C)ccc2n1CCCc1ccccc1

>  <score_type>  (23) 
oracle

>  <origin>  (23) 
adg

>  <m_score__min__energy>  (23) 
-8.5299999999999994

>  <m_primary>  (23) 
energy

$$$$
23:0
     RDKit          3D

 23 24  0  0  0  0  0  0  0  0999 V2000
   -4.5318   23.1331  -33.2340 H   0  0  0  0  0  0  0  0  0  0  0  0
   -4.6760   22.6590  -32.2520 C   0  0  0  0  0  0  0  0  0  0  0  0
   -3.8690   23.0630  -31.2440 C   0  0  0  0  0  0  0  0  0  0  0  0
   -2.8280   22.1980  -30.6210 C   0  0  0  0  0  0  0  0  0  0  0  0
   -2.7680   20.9630  -30.8620 O   0  0  0  0  0  0  0  0  0  0  0  0
   -1.9100   22.7520  -29.6780 N   0  0  0  0  0  0  0  0  0  0  0  0
   -2.0250   24.1020  -29.2350 C   0  0  0  0  0  0  0  0  0  0  0  0
   -0.9510   24.6930  -28.1550 S   0  0  0  0  0  0  0  0  0  0  0  0
   -3.1010   24.9200  -29.7040 N   0  0  0  0  0  0  0  0  0  0  0  0
   -3.2090   25.8940  -29.3410 H   0  0  0  0  0  0  0  0  0  0  0  0
   -4.0250   24.4300  -30.6810 C   0  0  0  0  0  0  0  0  0  0  0  0
   -4.9620   25.1810  -31.0670 O   0  0  0  0  0  0  0  0  0  0  0  0
   -5.7340   21.6350  -32.1440 C   0  0  0  0  0  0  0  0  0  0  0  0
   -6.9690   21.9750  -31.5740 C   0  0  0  0  0  0  0  0  0  0  0  0
   -7.1277   22.9873  -31.1740 H   0  0  0  0  0  0  0  0  0  0  0  0
   -8.0000   21.0320  -31.5120 C   0  0  0  0  0  0  0  0  0  0  0  0
   -8.9608   21.2985  -31.0475 H   0  0  0  0  0  0  0  0  0  0  0  0
   -7.8110   19.7500  -32.0400 C   0  0  0  0  0  0  0  0  0  0  0  0
   -9.1070   18.5700  -31.9640 Cl  0  0  0  0  0  0  0  0  0  0  0  0
   -6.5920   19.4140  -32.6370 C   0  0  0  0  0  0  0  0  0  0  0  0
   -6.4449   18.4083  -33.0575 H   0  0  0  0  0  0  0  0  0  0  0  0
   -5.5590   20.3560  -32.7000 C   0  0  0  0  0  0  0  0  0  0  0  0
   -4.6074   20.0948  -33.1860 H   0  0  0  0  0  0  0  0  0  0  0  0
  1  2  1  0
  2  3  2  0
  3  4  1  0
  4  5  2  0
  4  6  1  0
  6  7  1  0
  7  8  2  0
  7  9  1  0
  9 10  1  0
  9 11  1  0
 11 12  2  0
  2 13  1  0
 13 14  2  0
 14 15  1  0
 14 16  1  0
 16 17  1  0
 16 18  2  0
 18 19  1  0
 18 20  1  0
 20 21  1  0
 20 22  2  0
 22 23  1  0
 11  3  1  0
 22 13  1  0
M  CHG  1   6  -1
M  END
>  <UniqueID>  (24) 
24

>  <SMILES>  (24) 
O=C1[N-]C(=S)NC(=O)/C1=C/c1ccc(Cl)cc1

>  <Energy>  (24) 
31.145953303742576

>  <Genealogy>  (24) 
O=C1[N-]C(=S)NC(=O)C1=Cc1ccc(Cl)cc1 (protonated)
O=C1[N-]C(=S)NC(=O)/C1=C/c1ccc(Cl)cc1 (cis-trans isomerization)
O=C1[N-]C(=S)NC(=O)/C1=C/c1ccc(Cl)cc1 (3D coordinates assigned)
O=C1[N-]C(=S)NC(=O)/C1=C/c1ccc(Cl)cc1 (nonaromatic ring conformer: 31.145953303742576 kcal/mol)

>  <smiles>  (24) 
O=C1NC(=S)NC(=O)C1=Cc1ccc(Cl)cc1

>  <score_type>  (24) 
oracle

>  <origin>  (24) 
adg

>  <m_score__min__energy>  (24) 
-8.4299999999999997

>  <m_primary>  (24) 
energy

$$$$
24:0
     RDKit          3D

 34 36  0  0  0  0  0  0  0  0999 V2000
   -9.3458   18.9980  -31.8183 H   0  0  0  0  0  0  0  0  0  0  0  0
   -8.8100   19.9530  -31.9230 C   0  0  0  0  0  0  0  0  0  0  0  0
   -7.4650   19.9620  -32.3030 C   0  0  0  0  0  0  0  0  0  0  0  0
   -6.9438   19.0136  -32.5001 H   0  0  0  0  0  0  0  0  0  0  0  0
   -6.7810   21.1740  -32.4330 C   0  0  0  0  0  0  0  0  0  0  0  0
   -5.7246   21.1767  -32.7394 H   0  0  0  0  0  0  0  0  0  0  0  0
   -7.4370   22.3880  -32.1740 C   0  0  0  0  0  0  0  0  0  0  0  0
   -6.7130   23.6940  -32.3480 C   0  0  0  0  0  0  0  0  0  0  0  0
   -7.3797   24.4174  -32.8400 H   0  0  0  0  0  0  0  0  0  0  0  0
   -5.8180   23.5312  -32.9664 H   0  0  0  0  0  0  0  0  0  0  0  0
   -6.2980   24.2300  -31.0150 C   0  0  0  0  0  0  0  0  0  0  0  0
   -7.0990   24.1670  -30.0420 O   0  0  0  0  0  0  0  0  0  0  0  0
   -4.9750   24.7640  -30.8530 N   0  0  0  0  0  0  0  0  0  0  0  0
   -4.2610   24.6760  -29.7710 C   0  0  0  0  0  0  0  0  0  0  0  0
   -2.9770   24.9250  -29.6910 O   0  0  0  0  0  0  0  0  0  0  0  0
   -2.6680   24.7170  -28.4280 C   0  0  0  0  0  0  0  0  0  0  0  0
   -1.3110   24.8710  -27.8430 C   0  0  0  0  0  0  0  0  0  0  0  0
   -1.0390   26.0040  -27.0500 C   0  0  0  0  0  0  0  0  0  0  0  0
   -1.8289   26.7500  -26.8780 H   0  0  0  0  0  0  0  0  0  0  0  0
    0.2230   26.1900  -26.4800 C   0  0  0  0  0  0  0  0  0  0  0  0
    0.4210   27.0791  -25.8633 H   0  0  0  0  0  0  0  0  0  0  0  0
    1.2310   25.2520  -26.6910 C   0  0  0  0  0  0  0  0  0  0  0  0
    2.2240   25.4013  -26.2420 H   0  0  0  0  0  0  0  0  0  0  0  0
    0.9810   24.1230  -27.4720 C   0  0  0  0  0  0  0  0  0  0  0  0
    1.7798   23.3842  -27.6336 H   0  0  0  0  0  0  0  0  0  0  0  0
   -0.2780   23.9220  -28.0520 C   0  0  0  0  0  0  0  0  0  0  0  0
   -0.4920   22.4680  -29.0240 Cl  0  0  0  0  0  0  0  0  0  0  0  0
   -3.7560   24.3380  -27.7190 N   0  0  0  0  0  0  0  0  0  0  0  0
   -4.7590   24.3160  -28.5800 N   0  0  0  0  0  0  0  0  0  0  0  0
   -5.7460   24.0630  -28.3490 H   0  0  0  0  0  0  0  0  0  0  0  0
   -8.7940   22.3720  -31.8050 C   0  0  0  0  0  0  0  0  0  0  0  0
   -9.3220   23.3185  -31.6172 H   0  0  0  0  0  0  0  0  0  0  0  0
   -9.4740   21.1580  -31.6760 C   0  0  0  0  0  0  0  0  0  0  0  0
  -10.5333   21.1506  -31.3797 H   0  0  0  0  0  0  0  0  0  0  0  0
  1  2  1  0
  2  3  2  0
  3  4  1  0
  3  5  1  0
  5  6  1  0
  5  7  2  0
  7  8  1  0
  8  9  1  0
  8 10  1  0
  8 11  1  0
 11 12  2  0
 11 13  1  0
 13 14  2  0
 14 15  1  0
 15 16  1  0
 16 17  1  0
 17 18  2  0
 18 19  1  0
 18 20  1  0
 20 21  1  0
 20 22  2  0
 22 23  1  0
 22 24  1  0
 24 25  1  0
 24 26  2  0
 26 27  1  0
 16 28  2  0
 28 29  1  0
 29 30  1  0
  7 31  1  0
 31 32  1  0
 31 33  2  0
 33 34  1  0
 33  2  1  0
 29 14  1  0
 26 17  1  0
M  END
>  <UniqueID>  (25) 
25

>  <SMILES>  (25) 
O=C(Cc1ccccc1)/N=c1/[nH]nc(-c2ccccc2Cl)o1

>  <Energy>  (25) 
74.84142216737759

>  <Genealogy>  (25) 
O=C(Cc1ccccc1)/N=c1/[nH]nc(-c2ccccc2Cl)o1 (cis-trans isomerization)
O=C(Cc1ccccc1)/N=c1/[nH]nc(-c2ccccc2Cl)o1 (3D coordinates assigned)
O=C(Cc1ccccc1)/N=c1/[nH]nc(-c2ccccc2Cl)o1 (optimized conformer: 74.84142216737759 kcal/mol)

>  <smiles>  (25) 
O=C(Cc1ccccc1)N=c1[nH]nc(-c2ccccc2Cl)o1

>  <score_type>  (25) 
oracle

>  <origin>  (25) 
adg

>  <m_score__min__energy>  (25) 
-8.4700000000000006

>  <m_primary>  (25) 
energy

$$$$
25:0
     RDKit          3D

 55 55  0  0  0  0  0  0  0  0999 V2000
   -5.6093   21.6116  -29.8475 H   0  0  0  0  0  0  0  0  0  0  0  0
   -4.9790   22.5100  -29.7720 C   0  0  0  0  0  0  0  0  0  0  0  0
   -3.9680   22.6980  -28.8460 C   0  0  0  0  0  0  0  0  0  0  0  0
   -3.5360   21.7170  -27.8040 C   0  0  0  0  0  0  0  0  0  0  0  0
   -3.7214   22.1380  -26.8048 H   0  0  0  0  0  0  0  0  0  0  0  0
   -4.1063   20.7836  -27.9202 H   0  0  0  0  0  0  0  0  0  0  0  0
   -2.4624   21.5076  -27.9202 H   0  0  0  0  0  0  0  0  0  0  0  0
   -3.4190   23.9460  -29.0970 C   0  0  0  0  0  0  0  0  0  0  0  0
   -2.3060   24.5920  -28.3700 C   0  0  0  0  0  0  0  0  0  0  0  0
   -1.1450   24.7870  -28.9280 N   0  0  0  0  0  0  0  0  0  0  0  0
   -0.0670   23.8020  -29.0000 C   0  0  0  0  0  0  0  0  0  0  0  0
    0.5996   24.0488  -29.8395 H   0  0  0  0  0  0  0  0  0  0  0  0
    0.5052   23.8158  -28.0607 H   0  0  0  0  0  0  0  0  0  0  0  0
   -0.6620   22.4080  -29.2140 C   0  0  0  0  0  0  0  0  0  0  0  0
   -0.1451   21.6983  -28.5512 H   0  0  0  0  0  0  0  0  0  0  0  0
   -1.7367   22.4649  -28.9864 H   0  0  0  0  0  0  0  0  0  0  0  0
   -0.5170   21.9220  -30.6660 C   0  0  0  0  0  0  0  0  0  0  0  0
   -0.0057   22.7024  -31.2487 H   0  0  0  0  0  0  0  0  0  0  0  0
    0.0591   20.9851  -30.6464 H   0  0  0  0  0  0  0  0  0  0  0  0
   -1.8630   21.6220  -31.3260 C   0  0  0  0  0  0  0  0  0  0  0  0
   -2.6228   21.4527  -30.5488 H   0  0  0  0  0  0  0  0  0  0  0  0
   -2.1627   22.4754  -31.9520 H   0  0  0  0  0  0  0  0  0  0  0  0
   -1.7719   20.7221  -31.9520 H   0  0  0  0  0  0  0  0  0  0  0  0
   -2.5550   25.1660  -27.0120 C   0  0  0  0  0  0  0  0  0  0  0  0
   -2.2412   24.4426  -26.2450 H   0  0  0  0  0  0  0  0  0  0  0  0
   -1.9795   26.0963  -26.8960 H   0  0  0  0  0  0  0  0  0  0  0  0
   -3.6274   25.3814  -26.8960 H   0  0  0  0  0  0  0  0  0  0  0  0
   -4.1180   24.4580  -30.1700 C   0  0  0  0  0  0  0  0  0  0  0  0
   -3.8630   25.6770  -30.7890 O   0  0  0  0  0  0  0  0  0  0  0  0
   -5.0750   23.5960  -30.5690 N   0  0  0  0  0  0  0  0  0  0  0  0
   -6.0410   23.7950  -31.6510 C   0  0  0  0  0  0  0  0  0  0  0  0
   -5.8742   23.0301  -32.4238 H   0  0  0  0  0  0  0  0  0  0  0  0
   -5.8956   24.8053  -32.0610 H   0  0  0  0  0  0  0  0  0  0  0  0
   -7.4880   23.6850  -31.1440 C   0  0  0  0  0  0  0  0  0  0  0  0
   -7.9275   24.6934  -31.1403 H   0  0  0  0  0  0  0  0  0  0  0  0
   -7.4330   23.2335  -30.1424 H   0  0  0  0  0  0  0  0  0  0  0  0
   -8.3970   22.7680  -31.9860 C   0  0  0  0  0  0  0  0  0  0  0  0
   -7.7978   22.3484  -32.8075 H   0  0  0  0  0  0  0  0  0  0  0  0
   -9.2313   23.3902  -32.3420 H   0  0  0  0  0  0  0  0  0  0  0  0
   -9.0210   21.5990  -31.1960 C   0  0  0  0  0  0  0  0  0  0  0  0
  -10.0623   21.8569  -30.9528 H   0  0  0  0  0  0  0  0  0  0  0  0
   -8.4120   21.4513  -30.2919 H   0  0  0  0  0  0  0  0  0  0  0  0
   -9.0140   20.2720  -31.9770 C   0  0  0  0  0  0  0  0  0  0  0  0
   -9.3217   20.4718  -33.0140 H   0  0  0  0  0  0  0  0  0  0  0  0
   -9.7095   19.5848  -31.4731 H   0  0  0  0  0  0  0  0  0  0  0  0
   -7.6290   19.6040  -31.9940 C   0  0  0  0  0  0  0  0  0  0  0  0
   -7.7600   18.5181  -31.8776 H   0  0  0  0  0  0  0  0  0  0  0  0
   -7.0420   20.0323  -31.1682 H   0  0  0  0  0  0  0  0  0  0  0  0
   -6.8620   19.8700  -33.2970 C   0  0  0  0  0  0  0  0  0  0  0  0
   -7.4417   20.5679  -33.9189 H   0  0  0  0  0  0  0  0  0  0  0  0
   -6.7194   18.9128  -33.8198 H   0  0  0  0  0  0  0  0  0  0  0  0
   -5.4910   20.4760  -33.0140 C   0  0  0  0  0  0  0  0  0  0  0  0
   -5.3374   20.5439  -31.9269 H   0  0  0  0  0  0  0  0  0  0  0  0
   -4.7104   19.8391  -33.4555 H   0  0  0  0  0  0  0  0  0  0  0  0
   -5.4366   21.4820  -33.4555 H   0  0  0  0  0  0  0  0  0  0  0  0
  1  2  1  0
  2  3  2  0
  3  4  1  0
  4  5  1  0
  4  6  1  0
  4  7  1  0
  3  8  1  0
  8  9  1  0
  9 10  2  0
 10 11  1  0
 11 12  1  0
 11 13  1  0
 11 14  1  0
 14 15  1  0
 14 16  1  0
 14 17  1  0
 17 18  1  0
 17 19  1  0
 17 20  1  0
 20 21  1  0
 20 22  1  0
 20 23  1  0
  9 24  1  0
 24 25  1  0
 24 26  1  0
 24 27  1  0
  8 28  2  0
 28 29  1  0
 28 30  1  0
 30 31  1  0
 31 32  1  0
 31 33  1  0
 31 34  1  0
 34 35  1  0
 34 36  1  0
 34 37  1  0
 37 38  1  0
 37 39  1  0
 37 40  1  0
 40 41  1  0
 40 42  1  0
 40 43  1  0
 43 44  1  0
 43 45  1  0
 43 46  1  0
 46 47  1  0
 46 48  1  0
 46 49  1  0
 49 50  1  0
 49 51  1  0
 49 52  1  0
 52 53  1  0
 52 54  1  0
 52 55  1  0
 30  2  1  0
M  CHG  1  29  -1
M  END
>  <UniqueID>  (26) 
26

>  <SMILES>  (26) 
CCCCCCCCn1cc(C)c(/C(C)=N\CCCC)c1[O-]

>  <Energy>  (26) 
63.96891486195451

>  <Genealogy>  (26) 
CCCCCCCCn1cc(C)c(C(C)=NCCCC)c1[O-] (protonated)
CCCCCCCCn1cc(C)c(/C(C)=N\CCCC)c1[O-] (cis-trans isomerization)
CCCCCCCCn1cc(C)c(/C(C)=N\CCCC)c1[O-] (3D coordinates assigned)
CCCCCCCCn1cc(C)c(/C(C)=N\CCCC)c1[O-] (optimized conformer: 63.96891486195451 kcal/mol)

>  <smiles>  (26) 
CCCCCCCCn1cc(C)c(C(C)=NCCCC)c1O

>  <score_type>  (26) 
oracle

>  <origin>  (26) 
adg

>  <m_score__min__energy>  (26) 
-10.82

>  <m_primary>  (26) 
energy

$$$$
26:0
     RDKit          3D

 30 32  0  0  0  0  0  0  0  0999 V2000
   -9.6040   19.2110  -33.0080 O   0  0  0  0  0  0  0  0  0  0  0  0
   -8.8890   20.1340  -32.5310 C   0  0  0  0  0  0  0  0  0  0  0  0
   -9.5040   21.2510  -31.9660 C   0  0  0  0  0  0  0  0  0  0  0  0
   -8.7210   22.2910  -31.4780 C   0  0  0  0  0  0  0  0  0  0  0  0
   -7.3250   22.2020  -31.5730 C   0  0  0  0  0  0  0  0  0  0  0  0
   -6.4310   23.2800  -31.0780 C   0  0  0  0  0  0  0  0  0  0  0  0
   -6.9420   24.2930  -30.2490 C   0  0  0  0  0  0  0  0  0  0  0  0
   -6.1060   25.3060  -29.7740 C   0  0  0  0  0  0  0  0  0  0  0  0
   -4.7570   25.2980  -30.1260 C   0  0  0  0  0  0  0  0  0  0  0  0
   -4.2660   24.3090  -30.9170 N   0  0  0  0  0  0  0  0  0  0  0  0
   -5.0590   23.3120  -31.3950 C   0  0  0  0  0  0  0  0  0  0  0  0
   -6.7810   21.0810  -32.1200 N   0  0  0  0  0  0  0  0  0  0  0  0
   -7.5210   20.0660  -32.5800 N   0  0  0  0  0  0  0  0  0  0  0  0
   -6.8350   18.9290  -33.1380 C   0  0  0  0  0  0  0  0  0  0  0  0
   -6.0970   19.0690  -34.3250 C   0  0  0  0  0  0  0  0  0  0  0  0
   -5.4090   17.9770  -34.8620 C   0  0  0  0  0  0  0  0  0  0  0  0
   -5.4420   16.7400  -34.2140 C   0  0  0  0  0  0  0  0  0  0  0  0
   -6.1590   16.5940  -33.0240 C   0  0  0  0  0  0  0  0  0  0  0  0
   -6.8480   17.6840  -32.4820 C   0  0  0  0  0  0  0  0  0  0  0  0
  -10.6009   21.3087  -31.9069 H   0  0  0  0  0  0  0  0  0  0  0  0
   -9.1918   23.1745  -31.0221 H   0  0  0  0  0  0  0  0  0  0  0  0
   -8.0067   24.2881  -29.9725 H   0  0  0  0  0  0  0  0  0  0  0  0
   -6.5076   26.1015  -29.1291 H   0  0  0  0  0  0  0  0  0  0  0  0
   -4.0896   26.0934  -29.7628 H   0  0  0  0  0  0  0  0  0  0  0  0
   -4.6263   22.5268  -32.0324 H   0  0  0  0  0  0  0  0  0  0  0  0
   -6.0603   20.0431  -34.8347 H   0  0  0  0  0  0  0  0  0  0  0  0
   -4.8405   18.0921  -35.7967 H   0  0  0  0  0  0  0  0  0  0  0  0
   -4.9035   15.8810  -34.6407 H   0  0  0  0  0  0  0  0  0  0  0  0
   -6.1818   15.6204  -32.5125 H   0  0  0  0  0  0  0  0  0  0  0  0
   -7.4023   17.5676  -31.5390 H   0  0  0  0  0  0  0  0  0  0  0  0
  1  2  2  0
  2  3  1  0
  3  4  2  0
  4  5  1  0
  5  6  1  0
  6  7  2  0
  7  8  1  0
  8  9  2  0
  9 10  1  0
 10 11  2  0
  5 12  2  0
 12 13  1  0
 13 14  1  0
 14 15  2  0
 15 16  1  0
 16 17  2  0
 17 18  1  0
 18 19  2  0
 13  2  1  0
 19 14  1  0
 11  6  1  0
  3 20  1  0
  4 21  1  0
  7 22  1  0
  8 23  1  0
  9 24  1  0
 11 25  1  0
 15 26  1  0
 16 27  1  0
 17 28  1  0
 18 29  1  0
 19 30  1  0
M  END
>  <UniqueID>  (27) 
27

>  <SMILES>  (27) 
O=c1ccc(-c2cccnc2)nn1-c1ccccc1

>  <Energy>  (27) 
45.478650475285356

>  <Genealogy>  (27) 
O=c1ccc(-c2cccnc2)nn1-c1ccccc1 (3D coordinates assigned)
O=c1ccc(-c2cccnc2)nn1-c1ccccc1 (optimized conformer: 45.478650475285356 kcal/mol)

>  <smiles>  (27) 
O=c1ccc(-c2cccnc2)nn1-c1ccccc1

>  <score_type>  (27) 
oracle

>  <origin>  (27) 
adg

>  <m_score__min__energy>  (27) 
-8.5399999999999991

>  <m_primary>  (27) 
energy

$$$$
27:0
     RDKit          3D

 33 35  0  0  0  0  0  0  0  0999 V2000
   -6.9150   14.8460  -34.3190 C   0  0  0  0  0  0  0  0  0  0  0  0
   -6.4520   16.2130  -33.9280 C   0  0  0  0  0  0  0  0  0  0  0  0
   -5.1920   16.6730  -34.3280 C   0  0  0  0  0  0  0  0  0  0  0  0
   -4.7750   17.9510  -33.9520 C   0  0  0  0  0  0  0  0  0  0  0  0
   -5.6180   18.7620  -33.1810 C   0  0  0  0  0  0  0  0  0  0  0  0
   -5.2230   20.0490  -32.7930 C   0  0  0  0  0  0  0  0  0  0  0  0
   -6.0760   20.8530  -32.0180 C   0  0  0  0  0  0  0  0  0  0  0  0
   -5.6550   22.2180  -31.6090 C   0  0  0  0  0  0  0  0  0  0  0  0
   -6.5760   23.2830  -31.6180 C   0  0  0  0  0  0  0  0  0  0  0  0
   -6.1760   24.5670  -31.2320 C   0  0  0  0  0  0  0  0  0  0  0  0
   -4.8590   24.8010  -30.8340 C   0  0  0  0  0  0  0  0  0  0  0  0
   -4.4740   26.0470  -30.4610 F   0  0  0  0  0  0  0  0  0  0  0  0
   -3.9360   23.7520  -30.8210 C   0  0  0  0  0  0  0  0  0  0  0  0
   -4.3290   22.4670  -31.2060 C   0  0  0  0  0  0  0  0  0  0  0  0
   -7.3330   20.3510  -31.6370 C   0  0  0  0  0  0  0  0  0  0  0  0
   -7.7420   19.0620  -32.0160 C   0  0  0  0  0  0  0  0  0  0  0  0
   -9.0960   18.5500  -31.6030 C   0  0  0  0  0  0  0  0  0  0  0  0
   -6.8820   18.2650  -32.7930 C   0  0  0  0  0  0  0  0  0  0  0  0
   -7.2570   17.0120  -33.1770 N   0  0  0  0  0  0  0  0  0  0  0  0
   -7.1155   14.2539  -33.4139 H   0  0  0  0  0  0  0  0  0  0  0  0
   -7.8357   14.9273  -34.9154 H   0  0  0  0  0  0  0  0  0  0  0  0
   -6.1344   14.3511  -34.9154 H   0  0  0  0  0  0  0  0  0  0  0  0
   -4.5351   16.0320  -34.9343 H   0  0  0  0  0  0  0  0  0  0  0  0
   -3.7860   18.3208  -34.2606 H   0  0  0  0  0  0  0  0  0  0  0  0
   -4.2381   20.4329  -33.0972 H   0  0  0  0  0  0  0  0  0  0  0  0
   -7.6156   23.1046  -31.9302 H   0  0  0  0  0  0  0  0  0  0  0  0
   -6.9013   25.3940  -31.2423 H   0  0  0  0  0  0  0  0  0  0  0  0
   -2.8982   23.9378  -30.5072 H   0  0  0  0  0  0  0  0  0  0  0  0
   -3.5979   21.6452  -31.1941 H   0  0  0  0  0  0  0  0  0  0  0  0
   -8.0061   20.9773  -31.0330 H   0  0  0  0  0  0  0  0  0  0  0  0
   -9.1597   18.5259  -30.5051 H   0  0  0  0  0  0  0  0  0  0  0  0
   -9.8765   19.2151  -32.0011 H   0  0  0  0  0  0  0  0  0  0  0  0
   -9.2412   17.5349  -32.0011 H   0  0  0  0  0  0  0  0  0  0  0  0
  1  2  1  0
  2  3  2  0
  3  4  1  0
  4  5  2  0
  5  6  1  0
  6  7  2  0
  7  8  1  0
  8  9  2  0
  9 10  1  0
 10 11  2  0
 11 12  1  0
 11 13  1  0
 13 14  2  0
  7 15  1  0
 15 16  2  0
 16 17  1  0
 16 18  1  0
 18 19  2  0
 19  2  1  0
 18  5  1  0
 14  8  1  0
  1 20  1  0
  1 21  1  0
  1 22  1  0
  3 23  1  0
  4 24  1  0
  6 25  1  0
  9 26  1  0
 10 27  1  0
 13 28  1  0
 14 29  1  0
 15 30  1  0
 17 31  1  0
 17 32  1  0
 17 33  1  0
M  END
>  <UniqueID>  (28) 
28

>  <SMILES>  (28) 
Cc1ccc2cc(-c3ccc(F)cc3)cc(C)c2n1

>  <Energy>  (28) 
42.80271786983052

>  <Genealogy>  (28) 
Cc1ccc2cc(-c3ccc(F)cc3)cc(C)c2n1 (3D coordinates assigned)
Cc1ccc2cc(-c3ccc(F)cc3)cc(C)c2n1 (optimized conformer: 42.80271786983052 kcal/mol)

>  <smiles>  (28) 
Cc1ccc2cc(-c3ccc(F)cc3)cc(C)c2n1

>  <score_type>  (28) 
oracle

>  <origin>  (28) 
adg

>  <m_score__min__energy>  (28) 
-7.8600000000000003

>  <m_primary>  (28) 
energy

$$$$
28:0
     RDKit          3D

 53 53  0  0  0  0  0  0  0  0999 V2000
   -1.9910   25.6850  -29.9080 H   0  0  0  0  0  0  0  0  0  0  0  0
   -1.6390   25.5480  -28.9900 O   0  0  0  0  0  0  0  0  0  0  0  0
   -1.8750   24.2020  -28.6810 C   0  0  0  0  0  0  0  0  0  0  0  0
   -2.1780   24.1205  -27.6267 H   0  0  0  0  0  0  0  0  0  0  0  0
   -0.9518   23.6300  -28.8560 H   0  0  0  0  0  0  0  0  0  0  0  0
   -2.9920   23.6300  -29.5750 C   0  0  2  0  0  0  0  0  0  0  0  0
   -2.5100   22.4140  -30.4000 C   0  0  0  0  0  0  0  0  0  0  0  0
   -1.4247   22.2964  -30.2649 H   0  0  0  0  0  0  0  0  0  0  0  0
   -3.0444   21.5198  -30.0466 H   0  0  0  0  0  0  0  0  0  0  0  0
   -2.7900   22.5880  -31.7890 O   0  0  0  0  0  0  0  0  0  0  0  0
   -3.8590   21.9770  -32.4540 C   0  0  0  0  0  0  0  0  0  0  0  0
   -4.8720   22.6470  -32.8000 O   0  0  0  0  0  0  0  0  0  0  0  0
   -3.8010   20.5030  -32.7350 C   0  0  0  0  0  0  0  0  0  0  0  0
   -3.7753   19.9651  -31.7758 H   0  0  0  0  0  0  0  0  0  0  0  0
   -5.0500   20.0580  -33.5020 C   0  0  0  0  0  0  0  0  0  0  0  0
   -5.8382   19.7772  -32.7879 H   0  0  0  0  0  0  0  0  0  0  0  0
   -5.4058   20.8847  -34.1345 H   0  0  0  0  0  0  0  0  0  0  0  0
   -4.8030   19.1926  -34.1345 H   0  0  0  0  0  0  0  0  0  0  0  0
   -2.5260   20.1460  -33.5060 C   0  0  0  0  0  0  0  0  0  0  0  0
   -1.7183   19.9199  -32.7943 H   0  0  0  0  0  0  0  0  0  0  0  0
   -2.7143   19.2660  -34.1386 H   0  0  0  0  0  0  0  0  0  0  0  0
   -2.2300   20.9958  -34.1386 H   0  0  0  0  0  0  0  0  0  0  0  0
   -3.4360   24.6390  -30.4690 O   0  0  0  0  0  0  0  0  0  0  0  0
   -4.8060   24.7720  -30.4460 C   0  0  0  0  0  0  0  0  0  0  0  0
   -5.4230   25.5940  -31.1740 O   0  0  0  0  0  0  0  0  0  0  0  0
   -5.4630   23.8610  -29.4830 C   0  0  1  0  0  0  0  0  0  0  0  0
   -6.1840   24.3517  -28.8126 H   0  0  0  0  0  0  0  0  0  0  0  0
   -6.2620   22.8020  -30.2120 C   0  0  0  0  0  0  0  0  0  0  0  0
   -5.7357   21.8965  -30.5482 H   0  0  0  0  0  0  0  0  0  0  0  0
   -7.5780   22.9030  -30.4730 C   0  0  0  0  0  0  0  0  0  0  0  0
   -8.2388   23.2266  -29.6553 H   0  0  0  0  0  0  0  0  0  0  0  0
   -8.2100   22.6030  -31.8100 C   0  0  0  0  0  0  0  0  0  0  0  0
   -7.4954   22.0296  -32.4187 H   0  0  0  0  0  0  0  0  0  0  0  0
   -8.4632   23.5618  -32.2860 H   0  0  0  0  0  0  0  0  0  0  0  0
   -9.5080   21.7880  -31.6710 C   0  0  0  0  0  0  0  0  0  0  0  0
  -10.3350   22.3860  -32.0815 H   0  0  0  0  0  0  0  0  0  0  0  0
   -9.6271   21.5686  -30.5997 H   0  0  0  0  0  0  0  0  0  0  0  0
   -9.4890   20.4310  -32.3970 C   0  0  0  0  0  0  0  0  0  0  0  0
   -9.9281   20.5613  -33.3971 H   0  0  0  0  0  0  0  0  0  0  0  0
  -10.0668   19.7209  -31.7871 H   0  0  0  0  0  0  0  0  0  0  0  0
   -8.0700   19.8590  -32.5540 C   0  0  0  0  0  0  0  0  0  0  0  0
   -7.3454   20.6151  -32.2175 H   0  0  0  0  0  0  0  0  0  0  0  0
   -7.9265   19.6061  -33.6149 H   0  0  0  0  0  0  0  0  0  0  0  0
   -7.8600   18.5760  -31.7350 C   0  0  0  0  0  0  0  0  0  0  0  0
   -8.8443   18.1481  -31.4940 H   0  0  0  0  0  0  0  0  0  0  0  0
   -7.3006   18.8502  -30.8284 H   0  0  0  0  0  0  0  0  0  0  0  0
   -7.0390   17.5230  -32.4810 C   0  0  0  0  0  0  0  0  0  0  0  0
   -6.5312   16.8717  -31.7545 H   0  0  0  0  0  0  0  0  0  0  0  0
   -7.7060   16.9178  -33.1125 H   0  0  0  0  0  0  0  0  0  0  0  0
   -6.2894   18.0223  -33.1125 H   0  0  0  0  0  0  0  0  0  0  0  0
   -4.2550   23.2560  -28.7400 C   0  0  0  0  0  0  0  0  0  0  0  0
   -4.1805   23.6790  -27.7273 H   0  0  0  0  0  0  0  0  0  0  0  0
   -4.3559   22.1656  -28.6363 H   0  0  0  0  0  0  0  0  0  0  0  0
  1  2  1  0
  2  3  1  0
  3  4  1  0
  3  5  1  0
  6  3  1  1
  6  7  1  0
  7  8  1  0
  7  9  1  0
  7 10  1  0
 10 11  1  0
 11 12  2  0
 11 13  1  0
 13 14  1  0
 13 15  1  0
 15 16  1  0
 15 17  1  0
 15 18  1  0
 13 19  1  0
 19 20  1  0
 19 21  1  0
 19 22  1  0
  6 23  1  0
 23 24  1  0
 24 25  2  0
 24 26  1  0
 26 27  1  1
 26 28  1  0
 28 29  1  0
 28 30  2  0
 30 31  1  0
 30 32  1  0
 32 33  1  0
 32 34  1  0
 32 35  1  0
 35 36  1  0
 35 37  1  0
 35 38  1  0
 38 39  1  0
 38 40  1  0
 38 41  1  0
 41 42  1  0
 41 43  1  0
 41 44  1  0
 44 45  1  0
 44 46  1  0
 44 47  1  0
 47 48  1  0
 47 49  1  0
 47 50  1  0
 26 51  1  0
 51 52  1  0
 51 53  1  0
 51  6  1  0
M  END
>  <UniqueID>  (29) 
29

>  <SMILES>  (29) 
CCCCCC/C=C\[C@H]1C[C@@](CO)(COC(=O)C(C)C)OC1=O

>  <Energy>  (29) 
40.03970116137829

>  <Genealogy>  (29) 
CCCCCCC=C[C@H]1C[C@@](CO)(COC(=O)C(C)C)OC1=O (chirality)
CCCCCC/C=C\[C@H]1C[C@@](CO)(COC(=O)C(C)C)OC1=O (cis-trans isomerization)
CCCCCC/C=C\[C@H]1C[C@@](CO)(COC(=O)C(C)C)OC1=O (3D coordinates assigned)
CCCCCC/C=C\[C@H]1C[C@@](CO)(COC(=O)C(C)C)OC1=O (nonaromatic ring conformer: 40.03970116137829 kcal/mol)

>  <smiles>  (29) 
CCCCCCC=CC1CC(CO)(COC(=O)C(C)C)OC1=O

>  <score_type>  (29) 
oracle

>  <origin>  (29) 
adg

>  <m_score__min__energy>  (29) 
-8.8300000000000001

>  <m_primary>  (29) 
energy

$$$$
29:0
     RDKit          3D

 33 34  0  0  0  0  0  0  0  0999 V2000
   -6.4820   24.6770  -30.1010 C   0  0  0  0  0  0  0  0  0  0  0  0
   -6.6940   23.4800  -30.9790 C   0  0  0  0  0  0  0  0  0  0  0  0
   -5.6070   22.8810  -31.6270 C   0  0  0  0  0  0  0  0  0  0  0  0
   -5.7910   21.7480  -32.4350 C   0  0  0  0  0  0  0  0  0  0  0  0
   -4.6120   21.1340  -33.1390 C   0  0  0  0  0  0  0  0  0  0  0  0
   -7.0800   21.1950  -32.5760 C   0  0  0  0  0  0  0  0  0  0  0  0
   -7.2690   20.0360  -33.4060 N   0  0  0  0  0  0  0  0  0  0  0  0
   -6.6880   18.7520  -33.1140 C   0  0  0  0  0  0  0  0  0  0  0  0
   -6.1050   17.9600  -34.1220 C   0  0  0  0  0  0  0  0  0  0  0  0
   -5.5420   16.7200  -33.8070 C   0  0  0  0  0  0  0  0  0  0  0  0
   -5.5460   16.2620  -32.4870 C   0  0  0  0  0  0  0  0  0  0  0  0
   -6.1120   17.0460  -31.4790 C   0  0  0  0  0  0  0  0  0  0  0  0
   -6.6780   18.2860  -31.7890 C   0  0  0  0  0  0  0  0  0  0  0  0
   -8.1710   21.7630  -31.8790 C   0  0  0  0  0  0  0  0  0  0  0  0
   -9.5530   21.1780  -31.9790 C   0  0  0  0  0  0  0  0  0  0  0  0
   -7.9690   22.9120  -31.1000 C   0  0  0  0  0  0  0  0  0  0  0  0
   -6.5361   24.3718  -29.0456 H   0  0  0  0  0  0  0  0  0  0  0  0
   -5.4928   25.1120  -30.3067 H   0  0  0  0  0  0  0  0  0  0  0  0
   -7.2616   25.4253  -30.3067 H   0  0  0  0  0  0  0  0  0  0  0  0
   -4.5987   23.3025  -31.5017 H   0  0  0  0  0  0  0  0  0  0  0  0
   -3.8941   20.7601  -32.3941 H   0  0  0  0  0  0  0  0  0  0  0  0
   -4.9547   20.2998  -33.7689 H   0  0  0  0  0  0  0  0  0  0  0  0
   -4.1250   21.8930  -33.7689 H   0  0  0  0  0  0  0  0  0  0  0  0
   -7.9180   20.1230  -34.2190 H   0  0  0  0  0  0  0  0  0  0  0  0
   -6.0926   18.3188  -35.1618 H   0  0  0  0  0  0  0  0  0  0  0  0
   -5.0946   16.1032  -34.6003 H   0  0  0  0  0  0  0  0  0  0  0  0
   -5.1039   15.2850  -32.2418 H   0  0  0  0  0  0  0  0  0  0  0  0
   -6.1123   16.6869  -30.4392 H   0  0  0  0  0  0  0  0  0  0  0  0
   -7.1184   18.9008  -30.9902 H   0  0  0  0  0  0  0  0  0  0  0  0
   -9.9534   21.0085  -30.9686 H   0  0  0  0  0  0  0  0  0  0  0  0
  -10.2083   21.8759  -32.5208 H   0  0  0  0  0  0  0  0  0  0  0  0
   -9.5081   20.2217  -32.5208 H   0  0  0  0  0  0  0  0  0  0  0  0
   -8.8211   23.3722  -30.5783 H   0  0  0  0  0  0  0  0  0  0  0  0
  1  2  1  0
  2  3  2  0
  3  4  1  0
  4  5  1  0
  4  6  2  0
  6  7  1  0
  7  8  1  0
  8  9  2  0
  9 10  1  0
 10 11  2  0
 11 12  1  0
 12 13  2  0
  6 14  1  0
 14 15  1  0
 14 16  2  0
 16  2  1  0
 13  8  1  0
  1 17  1  0
  1 18  1  0
  1 19  1  0
  3 20  1  0
  5 21  1  0
  5 22  1  0
  5 23  1  0
  7 24  1  0
  9 25  1  0
 10 26  1  0
 11 27  1  0
 12 28  1  0
 13 29  1  0
 15 30  1  0
 15 31  1  0
 15 32  1  0
 16 33  1  0
M  END
>  <UniqueID>  (30) 
30

>  <SMILES>  (30) 
Cc1cc(C)c(Nc2ccccc2)c(C)c1

>  <Energy>  (30) 
39.206721912092334

>  <Genealogy>  (30) 
Cc1cc(C)c(Nc2ccccc2)c(C)c1 (3D coordinates assigned)
Cc1cc(C)c(Nc2ccccc2)c(C)c1 (optimized conformer: 39.206721912092334 kcal/mol)

>  <smiles>  (30) 
Cc1cc(C)c(Nc2ccccc2)c(C)c1

>  <score_type>  (30) 
oracle

>  <origin>  (30) 
adg

>  <m_score__min__energy>  (30) 
-7.1900000000000004

>  <m_primary>  (30) 
energy

$$$$
30:0
     RDKit          3D

 63 67  0  0  0  0  0  0  0  0999 V2000
   -8.7540   18.5780  -31.7160 C   0  0  0  0  0  0  0  0  0  0  0  0
   -8.1720   19.5100  -32.6230 O   0  0  0  0  0  0  0  0  0  0  0  0
   -6.9550   20.1710  -32.4060 C   0  0  0  0  0  0  0  0  0  0  0  0
   -5.9740   20.1020  -33.4000 C   0  0  0  0  0  0  0  0  0  0  0  0
   -4.7450   20.7450  -33.2330 C   0  0  0  0  0  0  0  0  0  0  0  0
   -4.4700   21.4710  -32.0610 C   0  0  0  0  0  0  0  0  0  0  0  0
   -3.1300   22.1750  -31.9340 C   0  0  1  0  0  0  0  0  0  0  0  0
   -3.1730   23.3450  -30.9710 C   0  0  0  0  0  0  0  0  0  0  0  0
   -4.1500   24.3200  -30.7640 C   0  0  0  0  0  0  0  0  0  0  0  0
   -5.4210   24.5150  -31.5260 C   0  0  0  0  0  0  0  0  0  0  0  0
   -3.8020   25.1020  -29.7200 N   0  0  0  0  0  0  0  0  0  0  0  0
   -2.6430   24.6670  -29.2460 N   0  0  0  0  0  0  0  0  0  0  0  0
   -1.9860   25.2510  -28.1050 C   0  0  0  0  0  0  0  0  0  0  0  0
   -2.4870   25.0150  -26.8120 C   0  0  0  0  0  0  0  0  0  0  0  0
   -1.8630   25.5820  -25.6970 C   0  0  0  0  0  0  0  0  0  0  0  0
   -0.7410   26.3970  -25.8600 C   0  0  0  0  0  0  0  0  0  0  0  0
   -0.2440   26.6530  -27.1400 C   0  0  0  0  0  0  0  0  0  0  0  0
   -0.8640   26.0880  -28.2600 C   0  0  0  0  0  0  0  0  0  0  0  0
   -2.2550   23.5990  -29.9720 C   0  0  0  0  0  0  0  0  0  0  0  0
   -1.2310   22.9030  -29.7330 O   0  0  0  0  0  0  0  0  0  0  0  0
   -1.9770   21.2330  -31.6450 C   0  0  0  0  0  0  0  0  0  0  0  0
   -0.9190   20.9210  -32.4950 C   0  0  0  0  0  0  0  0  0  0  0  0
   -0.6690   21.5140  -33.8520 C   0  0  0  0  0  0  0  0  0  0  0  0
   -0.1100   20.0200  -31.8860 N   0  0  0  0  0  0  0  0  0  0  0  0
    1.1390   19.4800  -32.4310 C   0  0  0  0  0  0  0  0  0  0  0  0
   -0.6360   19.7030  -30.7060 N   0  0  0  0  0  0  0  0  0  0  0  0
   -0.1120   18.7370  -29.7770 C   0  0  0  0  0  0  0  0  0  0  0  0
    0.2890   17.4690  -30.2270 C   0  0  0  0  0  0  0  0  0  0  0  0
    0.8120   16.5350  -29.3280 C   0  0  0  0  0  0  0  0  0  0  0  0
    0.9440   16.8620  -27.9760 C   0  0  0  0  0  0  0  0  0  0  0  0
    0.5570   18.1260  -27.5220 C   0  0  0  0  0  0  0  0  0  0  0  0
    0.0350   19.0630  -28.4190 C   0  0  0  0  0  0  0  0  0  0  0  0
   -1.7630   20.4230  -30.5400 C   0  0  0  0  0  0  0  0  0  0  0  0
   -2.5120   20.3340  -29.5310 O   0  0  0  0  0  0  0  0  0  0  0  0
   -5.4620   21.5440  -31.0620 C   0  0  0  0  0  0  0  0  0  0  0  0
   -6.6900   20.8990  -31.2320 C   0  0  0  0  0  0  0  0  0  0  0  0
   -8.5541   18.8981  -30.6828 H   0  0  0  0  0  0  0  0  0  0  0  0
   -9.8404   18.5339  -31.8825 H   0  0  0  0  0  0  0  0  0  0  0  0
   -8.3168   17.5824  -31.8825 H   0  0  0  0  0  0  0  0  0  0  0  0
   -6.1718   19.5360  -34.3223 H   0  0  0  0  0  0  0  0  0  0  0  0
   -3.9853   20.6826  -34.0261 H   0  0  0  0  0  0  0  0  0  0  0  0
   -2.9282   22.5949  -32.9305 H   0  0  0  0  0  0  0  0  0  0  0  0
   -6.2554   24.6430  -30.8207 H   0  0  0  0  0  0  0  0  0  0  0  0
   -5.3353   25.4105  -32.1590 H   0  0  0  0  0  0  0  0  0  0  0  0
   -5.6077   23.6350  -32.1590 H   0  0  0  0  0  0  0  0  0  0  0  0
   -3.3753   24.3803  -26.6774 H   0  0  0  0  0  0  0  0  0  0  0  0
   -2.2568   25.3857  -24.6888 H   0  0  0  0  0  0  0  0  0  0  0  0
   -0.2486   26.8374  -24.9805 H   0  0  0  0  0  0  0  0  0  0  0  0
    0.6364   27.2999  -27.2678 H   0  0  0  0  0  0  0  0  0  0  0  0
   -0.4731   26.2986  -29.2664 H   0  0  0  0  0  0  0  0  0  0  0  0
   -0.2439   22.5222  -33.7389 H   0  0  0  0  0  0  0  0  0  0  0  0
    0.0376   20.8781  -34.4055 H   0  0  0  0  0  0  0  0  0  0  0  0
   -1.6176   21.5760  -34.4055 H   0  0  0  0  0  0  0  0  0  0  0  0
    1.8054   19.1919  -31.6046 H   0  0  0  0  0  0  0  0  0  0  0  0
    0.9180   18.5970  -33.0487 H   0  0  0  0  0  0  0  0  0  0  0  0
    1.6309   20.2458  -33.0487 H   0  0  0  0  0  0  0  0  0  0  0  0
    0.1912   17.2094  -31.2914 H   0  0  0  0  0  0  0  0  0  0  0  0
    1.1200   15.5413  -29.6854 H   0  0  0  0  0  0  0  0  0  0  0  0
    1.3524   16.1248  -27.2691 H   0  0  0  0  0  0  0  0  0  0  0  0
    0.6632   18.3839  -26.4579 H   0  0  0  0  0  0  0  0  0  0  0  0
   -0.2617   20.0594  -28.0595 H   0  0  0  0  0  0  0  0  0  0  0  0
   -5.2678   22.1134  -30.1411 H   0  0  0  0  0  0  0  0  0  0  0  0
   -7.4539   20.9610  -30.4430 H   0  0  0  0  0  0  0  0  0  0  0  0
  1  2  1  0
  2  3  1  0
  3  4  2  0
  4  5  1  0
  5  6  2  0
  6  7  1  0
  7  8  1  0
  8  9  2  0
  9 10  1  0
  9 11  1  0
 11 12  1  0
 12 13  1  0
 13 14  2  0
 14 15  1  0
 15 16  2  0
 16 17  1  0
 17 18  2  0
 12 19  1  0
 19 20  2  0
  7 21  1  0
 21 22  2  0
 22 23  1  0
 22 24  1  0
 24 25  1  0
 24 26  1  0
 26 27  1  0
 27 28  2  0
 28 29  1  0
 29 30  2  0
 30 31  1  0
 31 32  2  0
 26 33  1  0
 33 34  2  0
  6 35  1  0
 35 36  2  0
 36  3  1  0
 19  8  1  0
 33 21  1  0
 18 13  1  0
 32 27  1  0
  1 37  1  0
  1 38  1  0
  1 39  1  0
  4 40  1  0
  5 41  1  0
  7 42  1  6
 10 43  1  0
 10 44  1  0
 10 45  1  0
 14 46  1  0
 15 47  1  0
 16 48  1  0
 17 49  1  0
 18 50  1  0
 23 51  1  0
 23 52  1  0
 23 53  1  0
 25 54  1  0
 25 55  1  0
 25 56  1  0
 28 57  1  0
 29 58  1  0
 30 59  1  0
 31 60  1  0
 32 61  1  0
 35 62  1  0
 36 63  1  0
M  CHG  1  11  -1
M  END
>  <UniqueID>  (31) 
31

>  <SMILES>  (31) 
COc1ccc([C@@H](c2c(C)[n-]n(-c3ccccc3)c2=O)c2c(C)n(C)n(-c3ccccc3)c2=O)cc1

>  <Energy>  (31) 
145.8455014677772

>  <Genealogy>  (31) 
COc1ccc(C(c2c(C)[n-]n(-c3ccccc3)c2=O)c2c(C)n(C)n(-c3ccccc3)c2=O)cc1 (protonated)
COc1ccc([C@@H](c2c(C)[n-]n(-c3ccccc3)c2=O)c2c(C)n(C)n(-c3ccccc3)c2=O)cc1 (chirality)
COc1ccc([C@@H](c2c(C)[n-]n(-c3ccccc3)c2=O)c2c(C)n(C)n(-c3ccccc3)c2=O)cc1 (3D coordinates assigned)
COc1ccc([C@@H](c2c(C)[n-]n(-c3ccccc3)c2=O)c2c(C)n(C)n(-c3ccccc3)c2=O)cc1 (optimized conformer: 145.8455014677772 kcal/mol)

>  <smiles>  (31) 
COc1ccc(C(c2c(C)[nH]n(-c3ccccc3)c2=O)c2c(C)n(C)n(-c3ccccc3)c2=O)cc1

>  <score_type>  (31) 
oracle

>  <origin>  (31) 
adg

>  <m_score__min__energy>  (31) 
-9.6899999999999995

>  <m_primary>  (31) 
energy

$$$$
31:0
     RDKit          3D

 57 61  0  0  0  0  0  0  0  0999 V2000
   -6.7233   16.2420  -34.3606 H   0  0  0  0  0  0  0  0  0  0  0  0
   -5.9380   16.9770  -34.1300 C   0  0  0  0  0  0  0  0  0  0  0  0
   -6.1090   18.3180  -34.4860 C   0  0  0  0  0  0  0  0  0  0  0  0
   -7.0303   18.6379  -34.9949 H   0  0  0  0  0  0  0  0  0  0  0  0
   -5.1100   19.2540  -34.1960 C   0  0  0  0  0  0  0  0  0  0  0  0
   -5.2565   20.3112  -34.4622 H   0  0  0  0  0  0  0  0  0  0  0  0
   -3.9180   18.8490  -33.5650 C   0  0  0  0  0  0  0  0  0  0  0  0
   -2.8280   19.8510  -33.2850 C   0  0  0  0  0  0  0  0  0  0  0  0
   -2.4564   20.2459  -34.2421 H   0  0  0  0  0  0  0  0  0  0  0  0
   -2.0328   19.3353  -32.7267 H   0  0  0  0  0  0  0  0  0  0  0  0
   -3.3110   21.0020  -32.4410 C   0  0  0  0  0  0  0  0  0  0  0  0
   -2.8650   21.3170  -31.2040 N   0  0  0  0  0  0  0  0  0  0  0  0
   -1.9180   20.6200  -30.3830 C   0  0  0  0  0  0  0  0  0  0  0  0
   -0.7090   20.1720  -30.9220 C   0  0  0  0  0  0  0  0  0  0  0  0
   -0.4848   20.3461  -31.9847 H   0  0  0  0  0  0  0  0  0  0  0  0
    0.2170   19.5030  -30.1150 C   0  0  0  0  0  0  0  0  0  0  0  0
    1.1640   19.1478  -30.5474 H   0  0  0  0  0  0  0  0  0  0  0  0
   -0.0560   19.2830  -28.7580 C   0  0  0  0  0  0  0  0  0  0  0  0
    0.9120   18.5140  -27.8990 C   0  0  0  0  0  0  0  0  0  0  0  0
    0.8856   18.9166  -26.8756 H   0  0  0  0  0  0  0  0  0  0  0  0
    1.9216   18.6176  -28.3233 H   0  0  0  0  0  0  0  0  0  0  0  0
    0.5430   17.0340  -27.8650 C   0  0  0  0  0  0  0  0  0  0  0  0
    0.4599   16.7007  -26.8200 H   0  0  0  0  0  0  0  0  0  0  0  0
   -0.4199   16.8844  -28.3752 H   0  0  0  0  0  0  0  0  0  0  0  0
    1.3230   16.4498  -28.3752 H   0  0  0  0  0  0  0  0  0  0  0  0
   -1.2680   19.7360  -28.2190 C   0  0  0  0  0  0  0  0  0  0  0  0
   -1.4997   19.5530  -27.1594 H   0  0  0  0  0  0  0  0  0  0  0  0
   -2.1820   20.4190  -29.0240 C   0  0  0  0  0  0  0  0  0  0  0  0
   -3.1159   20.8016  -28.5865 H   0  0  0  0  0  0  0  0  0  0  0  0
   -3.4310   22.5190  -30.9640 C   0  0  0  0  0  0  0  0  0  0  0  0
   -3.1740   23.4940  -29.4760 S   0  0  0  0  0  0  0  0  0  0  0  0
   -4.9360   23.9200  -29.2550 C   0  0  0  0  0  0  0  0  0  0  0  0
   -5.5275   22.9933  -29.2166 H   0  0  0  0  0  0  0  0  0  0  0  0
   -5.0434   24.4867  -28.3183 H   0  0  0  0  0  0  0  0  0  0  0  0
   -5.4310   24.7690  -30.3830 C   0  0  0  0  0  0  0  0  0  0  0  0
   -4.6740   25.6600  -30.8610 O   0  0  0  0  0  0  0  0  0  0  0  0
   -6.7410   24.5250  -30.9230 N   0  0  0  0  0  0  0  0  0  0  0  0
   -7.2740   23.3740  -31.2140 C   0  0  0  0  0  0  0  0  0  0  0  0
   -6.6050   22.2110  -31.0110 N   0  0  0  0  0  0  0  0  0  0  0  0
   -7.3440   21.1490  -31.4220 C   0  0  0  0  0  0  0  0  0  0  0  0
   -6.9220   19.8190  -31.3490 C   0  0  0  0  0  0  0  0  0  0  0  0
   -5.9324   19.5663  -30.9404 H   0  0  0  0  0  0  0  0  0  0  0  0
   -7.7870   18.8100  -31.8080 C   0  0  0  0  0  0  0  0  0  0  0  0
   -7.4738   17.7568  -31.7570 H   0  0  0  0  0  0  0  0  0  0  0  0
   -9.0550   19.1400  -32.3340 C   0  0  0  0  0  0  0  0  0  0  0  0
   -9.7247   18.3426  -32.6885 H   0  0  0  0  0  0  0  0  0  0  0  0
   -9.4660   20.4820  -32.4070 C   0  0  0  0  0  0  0  0  0  0  0  0
  -10.4498   20.7512  -32.8189 H   0  0  0  0  0  0  0  0  0  0  0  0
   -8.5920   21.4600  -31.9430 C   0  0  0  0  0  0  0  0  0  0  0  0
   -8.8100   23.1230  -31.9020 S   0  0  0  0  0  0  0  0  0  0  0  0
   -4.1960   22.9280  -31.9950 N   0  0  0  0  0  0  0  0  0  0  0  0
   -4.1180   21.9740  -32.9090 N   0  0  0  0  0  0  0  0  0  0  0  0
   -4.5760   22.0150  -33.8460 H   0  0  0  0  0  0  0  0  0  0  0  0
   -3.7610   17.5020  -33.1940 C   0  0  0  0  0  0  0  0  0  0  0  0
   -2.8452   17.1789  -32.6774 H   0  0  0  0  0  0  0  0  0  0  0  0
   -4.7670   16.5700  -33.4800 C   0  0  0  0  0  0  0  0  0  0  0  0
   -4.6364   15.5161  -33.1932 H   0  0  0  0  0  0  0  0  0  0  0  0
  1  2  1  0
  2  3  2  0
  3  4  1  0
  3  5  1  0
  5  6  1  0
  5  7  2  0
  7  8  1  0
  8  9  1  0
  8 10  1  0
  8 11  1  0
 11 12  1  0
 12 13  1  0
 13 14  2  0
 14 15  1  0
 14 16  1  0
 16 17  1  0
 16 18  2  0
 18 19  1  0
 19 20  1  0
 19 21  1  0
 19 22  1  0
 22 23  1  0
 22 24  1  0
 22 25  1  0
 18 26  1  0
 26 27  1  0
 26 28  2  0
 28 29  1  0
 12 30  1  0
 30 31  1  0
 31 32  1  0
 32 33  1  0
 32 34  1  0
 32 35  1  0
 35 36  2  0
 35 37  1  0
 37 38  2  0
 38 39  1  0
 39 40  1  0
 40 41  2  0
 41 42  1  0
 41 43  1  0
 43 44  1  0
 43 45  2  0
 45 46  1  0
 45 47  1  0
 47 48  1  0
 47 49  2  0
 49 50  1  0
 30 51  2  0
 51 52  1  0
 52 53  1  0
  7 54  1  0
 54 55  1  0
 54 56  2  0
 56 57  1  0
 56  2  1  0
 52 11  2  0
 28 13  1  0
 50 38  1  0
 49 40  1  0
M  CHG  2  39  -1  52   1
M  END
>  <UniqueID>  (32) 
32

>  <SMILES>  (32) 
CCc1ccc(-n2c(SCC(=O)/N=c3/[n-]c4ccccc4s3)n[nH+]c2Cc2ccccc2)cc1

>  <Energy>  (32) 
127.7046568679782

>  <Genealogy>  (32) 
CCc1ccc(-n2c(SCC(=O)N=c3[n-]c4ccccc4s3)n[nH+]c2Cc2ccccc2)cc1 (protonated)
CCc1ccc(-n2c(SCC(=O)/N=c3/[n-]c4ccccc4s3)n[nH+]c2Cc2ccccc2)cc1 (cis-trans isomerization)
CCc1ccc(-n2c(SCC(=O)/N=c3/[n-]c4ccccc4s3)n[nH+]c2Cc2ccccc2)cc1 (3D coordinates assigned)
CCc1ccc(-n2c(SCC(=O)/N=c3/[n-]c4ccccc4s3)n[nH+]c2Cc2ccccc2)cc1 (optimized conformer: 127.7046568679782 kcal/mol)

>  <smiles>  (32) 
CCc1ccc(-n2c(Cc3ccccc3)nnc2SCC(=O)N=c2[nH]c3ccccc3s2)cc1

>  <score_type>  (32) 
oracle

>  <origin>  (32) 
adg

>  <m_score__min__energy>  (32) 
-11.73

>  <m_primary>  (32) 
energy

$$$$
32:0
     RDKit          3D

 51 52  0  0  0  0  0  0  0  0999 V2000
   -3.0121   25.3417  -29.8129 H   0  0  0  0  0  0  0  0  0  0  0  0
   -2.8580   24.5480  -29.0670 C   0  0  0  0  0  0  0  0  0  0  0  0
   -1.6250   24.0010  -28.9720 C   0  0  0  0  0  0  0  0  0  0  0  0
   -0.5710   24.6680  -28.1270 C   0  0  0  0  0  0  0  0  0  0  0  0
   -0.8060   24.5193  -27.0627 H   0  0  0  0  0  0  0  0  0  0  0  0
    0.4116   24.2269  -28.3507 H   0  0  0  0  0  0  0  0  0  0  0  0
   -0.5490   25.7448  -28.3507 H   0  0  0  0  0  0  0  0  0  0  0  0
   -1.2450   22.7430  -29.7160 C   0  0  0  0  0  0  0  0  0  0  0  0
   -1.0050   21.9484  -28.9942 H   0  0  0  0  0  0  0  0  0  0  0  0
   -2.0864   22.4224  -30.3479 H   0  0  0  0  0  0  0  0  0  0  0  0
   -0.3668   22.9418  -30.3479 H   0  0  0  0  0  0  0  0  0  0  0  0
   -4.0360   24.1410  -28.2170 C   0  0  0  0  0  0  0  0  0  0  0  0
   -3.6695   23.6315  -27.3136 H   0  0  0  0  0  0  0  0  0  0  0  0
   -4.6024   25.0440  -27.9454 H   0  0  0  0  0  0  0  0  0  0  0  0
   -4.9630   23.1940  -28.9860 C   0  0  0  0  0  0  0  0  0  0  0  0
   -4.5841   22.1654  -28.8948 H   0  0  0  0  0  0  0  0  0  0  0  0
   -5.9747   23.2682  -28.5607 H   0  0  0  0  0  0  0  0  0  0  0  0
   -5.0230   23.5730  -30.4510 C   0  0  0  0  0  0  0  0  0  0  0  0
   -4.4620   22.7470  -31.3630 C   0  0  0  0  0  0  0  0  0  0  0  0
   -4.0743   23.2009  -32.2869 H   0  0  0  0  0  0  0  0  0  0  0  0
   -4.3250   21.2410  -31.2120 C   0  0  0  0  0  0  0  0  0  0  0  0
   -3.5581   21.0340  -30.4511 H   0  0  0  0  0  0  0  0  0  0  0  0
   -5.3110   20.8499  -30.9207 H   0  0  0  0  0  0  0  0  0  0  0  0
   -3.9350   20.5620  -32.4720 N   0  0  2  0  0  0  0  0  0  0  0  0
   -3.6920   19.5750  -32.2130 H   0  0  0  0  0  0  0  0  0  0  0  0
   -2.7240   21.1650  -33.0670 C   0  0  0  0  0  0  0  0  0  0  0  0
   -2.0498   21.5007  -32.2653 H   0  0  0  0  0  0  0  0  0  0  0  0
   -2.2101   20.4176  -33.6893 H   0  0  0  0  0  0  0  0  0  0  0  0
   -3.0108   22.0255  -33.6893 H   0  0  0  0  0  0  0  0  0  0  0  0
   -5.0610   20.5260  -33.4370 C   0  0  0  0  0  0  0  0  0  0  0  0
   -5.1666   21.5198  -33.8966 H   0  0  0  0  0  0  0  0  0  0  0  0
   -4.8357   19.7595  -34.1931 H   0  0  0  0  0  0  0  0  0  0  0  0
   -6.3670   20.1550  -32.7710 C   0  0  0  0  0  0  0  0  0  0  0  0
   -6.6670   18.8070  -32.4680 C   0  0  0  0  0  0  0  0  0  0  0  0
   -5.9514   18.0162  -32.7374 H   0  0  0  0  0  0  0  0  0  0  0  0
   -7.8740   18.4660  -31.8240 C   0  0  0  0  0  0  0  0  0  0  0  0
   -8.0928   17.4117  -31.5990 H   0  0  0  0  0  0  0  0  0  0  0  0
   -8.8000   19.4610  -31.4670 C   0  0  0  0  0  0  0  0  0  0  0  0
   -9.7445   19.2046  -30.9649 H   0  0  0  0  0  0  0  0  0  0  0  0
   -8.4820   20.7820  -31.7700 C   0  0  0  0  0  0  0  0  0  0  0  0
   -9.1850   21.9430  -31.5380 C   0  0  0  0  0  0  0  0  0  0  0  0
  -10.1670   22.0445  -31.0529 H   0  0  0  0  0  0  0  0  0  0  0  0
   -8.3860   22.9590  -32.0490 C   0  0  0  0  0  0  0  0  0  0  0  0
   -8.6471   24.0274  -32.0310 H   0  0  0  0  0  0  0  0  0  0  0  0
   -7.2450   22.4570  -32.5710 N   0  0  0  0  0  0  0  0  0  0  0  0
   -6.4760   23.0050  -33.0180 H   0  0  0  0  0  0  0  0  0  0  0  0
   -7.3110   21.1240  -32.3960 C   0  0  0  0  0  0  0  0  0  0  0  0
   -5.7170   24.8540  -30.8450 C   0  0  0  0  0  0  0  0  0  0  0  0
   -6.0146   25.4033  -29.9396 H   0  0  0  0  0  0  0  0  0  0  0  0
   -5.0314   25.4740  -31.4413 H   0  0  0  0  0  0  0  0  0  0  0  0
   -6.6108   24.6184  -31.4413 H   0  0  0  0  0  0  0  0  0  0  0  0
  1  2  1  0
  2  3  2  3
  3  4  1  0
  4  5  1  0
  4  6  1  0
  4  7  1  0
  3  8  1  0
  8  9  1  0
  8 10  1  0
  8 11  1  0
  2 12  1  0
 12 13  1  0
 12 14  1  0
 12 15  1  0
 15 16  1  0
 15 17  1  0
 15 18  1  0
 18 19  2  0
 19 20  1  0
 19 21  1  0
 21 22  1  0
 21 23  1  0
 21 24  1  0
 24 25  1  1
 24 26  1  0
 26 27  1  0
 26 28  1  0
 26 29  1  0
 24 30  1  0
 30 31  1  0
 30 32  1  0
 30 33  1  0
 33 34  2  0
 34 35  1  0
 34 36  1  0
 36 37  1  0
 36 38  2  0
 38 39  1  0
 38 40  1  0
 40 41  1  0
 41 42  1  0
 41 43  2  0
 43 44  1  0
 43 45  1  0
 45 46  1  0
 45 47  1  0
 18 48  1  0
 48 49  1  0
 48 50  1  0
 48 51  1  0
 47 33  1  0
 47 40  2  0
M  CHG  1  24   1
M  END
>  <UniqueID>  (33) 
33

>  <SMILES>  (33) 
CC(C)=CCC/C(C)=C/C[N@H+](C)Cc1cccc2cc[nH]c12

>  <Energy>  (33) 
77.65397681179232

>  <Genealogy>  (33) 
CC(C)=CCCC(C)=CC[NH+](C)Cc1cccc2cc[nH]c12 (protonated)
CC(C)=CCCC(C)=CC[N@H+](C)Cc1cccc2cc[nH]c12 (chirality)
CC(C)=CCC/C(C)=C/C[N@H+](C)Cc1cccc2cc[nH]c12 (cis-trans isomerization)
CC(C)=CCC/C(C)=C/C[N@H+](C)Cc1cccc2cc[nH]c12 (3D coordinates assigned)
CC(C)=CCC/C(C)=C/C[N@H+](C)Cc1cccc2cc[nH]c12 (optimized conformer: 77.65397681179232 kcal/mol)

>  <smiles>  (33) 
CC(C)=CCCC(C)=CCN(C)Cc1cccc2cc[nH]c12

>  <score_type>  (33) 
oracle

>  <origin>  (33) 
adg

>  <m_score__min__energy>  (33) 
-7.0800000000000001

>  <m_primary>  (33) 
energy

$$$$
33:0
     RDKit          3D

 45 47  0  0  0  0  0  0  0  0999 V2000
   -2.5005   18.8553  -32.6527 H   0  0  0  0  0  0  0  0  0  0  0  0
   -3.1440   19.7420  -32.5540 C   0  0  0  0  0  0  0  0  0  0  0  0
   -4.0730   19.8200  -31.5100 C   0  0  0  0  0  0  0  0  0  0  0  0
   -4.1599   18.9940  -30.7888 H   0  0  0  0  0  0  0  0  0  0  0  0
   -4.8920   20.9490  -31.3830 C   0  0  0  0  0  0  0  0  0  0  0  0
   -5.6199   21.0101  -30.5606 H   0  0  0  0  0  0  0  0  0  0  0  0
   -4.7850   22.0000  -32.3020 C   0  0  0  0  0  0  0  0  0  0  0  0
   -5.8250   23.4320  -32.1280 S   0  0  0  0  0  4  0  0  0  0  0  0
   -7.2240   22.9790  -32.7060 N   0  0  0  0  0  0  0  0  0  0  0  0
   -8.1720   21.8020  -31.8960 S   0  0  0  0  0  0  0  0  0  0  0  0
   -9.6210   21.9700  -32.2530 O   0  0  0  0  0  0  0  0  0  0  0  0
   -7.9890   21.9630  -30.4120 O   0  0  0  0  0  0  0  0  0  0  0  0
   -7.6390   20.2000  -32.3890 C   0  0  0  0  0  0  0  0  0  0  0  0
   -6.8760   20.0450  -33.5550 C   0  0  0  0  0  0  0  0  0  0  0  0
   -6.6071   20.9263  -34.1559 H   0  0  0  0  0  0  0  0  0  0  0  0
   -6.4560   18.7730  -33.9560 C   0  0  0  0  0  0  0  0  0  0  0  0
   -5.8552   18.6576  -34.8702 H   0  0  0  0  0  0  0  0  0  0  0  0
   -6.7990   17.6380  -33.1940 C   0  0  0  0  0  0  0  0  0  0  0  0
   -6.4050   16.3410  -33.5580 O   0  0  0  0  0  0  0  0  0  0  0  0
   -5.1770   15.7350  -33.1710 C   0  0  0  0  0  0  0  0  0  0  0  0
   -5.1135   15.7037  -32.0733 H   0  0  0  0  0  0  0  0  0  0  0  0
   -5.1316   14.7110  -33.5703 H   0  0  0  0  0  0  0  0  0  0  0  0
   -4.3367   16.3219  -33.5703 H   0  0  0  0  0  0  0  0  0  0  0  0
   -7.5630   17.8010  -32.0320 C   0  0  0  0  0  0  0  0  0  0  0  0
   -7.8341   16.9217  -31.4292 H   0  0  0  0  0  0  0  0  0  0  0  0
   -7.9840   19.0730  -31.6320 C   0  0  0  0  0  0  0  0  0  0  0  0
   -8.5880   19.1890  -30.7200 H   0  0  0  0  0  0  0  0  0  0  0  0
   -6.0140   23.6120  -30.3710 N   0  0  0  0  0  0  0  0  0  0  0  0
   -4.7150   23.4080  -29.7070 C   0  0  0  0  0  0  0  0  0  0  0  0
   -4.8939   23.1397  -28.6553 H   0  0  0  0  0  0  0  0  0  0  0  0
   -4.1863   22.6058  -30.2427 H   0  0  0  0  0  0  0  0  0  0  0  0
   -3.8260   24.6720  -29.7530 C   0  0  0  0  0  0  0  0  0  0  0  0
   -3.7351   25.0807  -28.7358 H   0  0  0  0  0  0  0  0  0  0  0  0
   -2.8424   24.3841  -30.1525 H   0  0  0  0  0  0  0  0  0  0  0  0
   -4.3700   25.6650  -30.5980 O   0  0  0  0  0  0  0  0  0  0  0  0
   -5.6280   26.0770  -30.1010 C   0  0  0  0  0  0  0  0  0  0  0  0
   -5.4856   26.5342  -29.1107 H   0  0  0  0  0  0  0  0  0  0  0  0
   -6.0550   26.7963  -30.8153 H   0  0  0  0  0  0  0  0  0  0  0  0
   -6.6170   24.8950  -29.9670 C   0  0  0  0  0  0  0  0  0  0  0  0
   -6.9383   24.8199  -28.9177 H   0  0  0  0  0  0  0  0  0  0  0  0
   -7.4686   25.0916  -30.6350 H   0  0  0  0  0  0  0  0  0  0  0  0
   -3.8550   21.9190  -33.3500 C   0  0  0  0  0  0  0  0  0  0  0  0
   -3.7713   22.7414  -34.0757 H   0  0  0  0  0  0  0  0  0  0  0  0
   -3.0340   20.7920  -33.4720 C   0  0  0  0  0  0  0  0  0  0  0  0
   -2.3016   20.7318  -34.2905 H   0  0  0  0  0  0  0  0  0  0  0  0
  1  2  1  0
  2  3  2  0
  3  4  1  0
  3  5  1  0
  5  6  1  0
  5  7  2  0
  7  8  1  0
  8  9  2  0
  9 10  1  0
 10 11  2  0
 10 12  2  0
 10 13  1  0
 13 14  2  0
 14 15  1  0
 14 16  1  0
 16 17  1  0
 16 18  2  0
 18 19  1  0
 19 20  1  0
 20 21  1  0
 20 22  1  0
 20 23  1  0
 18 24  1  0
 24 25  1  0
 24 26  2  0
 26 27  1  0
  8 28  1  1
 28 29  1  0
 29 30  1  0
 29 31  1  0
 29 32  1  0
 32 33  1  0
 32 34  1  0
 32 35  1  0
 35 36  1  0
 36 37  1  0
 36 38  1  0
 36 39  1  0
 39 40  1  0
 39 41  1  0
  7 42  1  0
 42 43  1  0
 42 44  2  0
 44 45  1  0
 44  2  1  0
 26 13  1  0
 39 28  1  0
M  END
>  <UniqueID>  (34) 
34

>  <SMILES>  (34) 
COc1ccc(S(=O)(=O)/N=[S@](\c2ccccc2)N2CCOCC2)cc1

>  <Energy>  (34) 
57.04924573405166

>  <Genealogy>  (34) 
COc1ccc(S(=O)(=O)N=[S@](c2ccccc2)N2CCOCC2)cc1 (chirality)
COc1ccc(S(=O)(=O)/N=[S@](\c2ccccc2)N2CCOCC2)cc1 (cis-trans isomerization)
COc1ccc(S(=O)(=O)/N=[S@](\c2ccccc2)N2CCOCC2)cc1 (3D coordinates assigned)
COc1ccc(S(=O)(=O)/N=[S@](\c2ccccc2)N2CCOCC2)cc1 (nonaromatic ring conformer: 57.04924573405166 kcal/mol)

>  <smiles>  (34) 
COc1ccc(S(=O)(=O)N=S(c2ccccc2)N2CCOCC2)cc1

>  <score_type>  (34) 
oracle

>  <origin>  (34) 
adg

>  <m_score__min__energy>  (34) 
-8.9399999999999995

>  <m_primary>  (34) 
energy

$$$$
34:0
     RDKit          3D

 58 63  0  0  0  0  0  0  0  0999 V2000
   -0.3290   14.5230  -36.7890 O   0  0  0  0  0  0  0  0  0  0  0  0
   -1.5220   14.1580  -36.7290 N   0  0  0  0  0  0  0  0  0  0  0  0
   -1.9980   13.3010  -37.6940 O   0  0  0  0  0  0  0  0  0  0  0  0
   -2.3860   14.6160  -35.6700 C   0  0  0  0  0  0  0  0  0  0  0  0
   -3.0880   15.8360  -35.8200 C   0  0  0  0  0  0  0  0  0  0  0  0
   -3.9230   16.2470  -34.7860 C   0  0  0  0  0  0  0  0  0  0  0  0
   -4.6870   17.3460  -34.7380 N   0  0  0  0  0  0  0  0  0  0  0  0
   -5.2950   17.2370  -33.5270 C   0  0  0  0  0  0  0  0  0  0  0  0
   -6.2950   18.2120  -33.0400 C   0  0  0  0  0  0  0  0  0  0  0  0
   -6.2510   19.5480  -33.4710 C   0  0  0  0  0  0  0  0  0  0  0  0
   -7.2490   20.4480  -33.0900 C   0  0  0  0  0  0  0  0  0  0  0  0
   -8.3180   20.0260  -32.2820 C   0  0  0  0  0  0  0  0  0  0  0  0
   -9.4620   20.9700  -31.9730 C   0  0  0  0  0  0  0  0  0  0  0  0
   -9.0410   22.2060  -31.2710 N   0  0  0  0  0  0  0  0  0  0  0  0
   -8.8140   23.3790  -32.1500 C   0  0  0  0  0  0  0  0  0  0  0  0
   -7.3250   23.6460  -32.4060 C   0  0  0  0  0  0  0  0  0  0  0  0
   -6.5170   23.8270  -31.0990 C   0  0  0  0  0  0  0  0  0  0  0  0
   -5.1480   23.2200  -31.2670 C   0  0  0  0  0  0  0  0  0  0  0  0
   -4.0140   23.8370  -30.8870 N   0  0  0  0  0  0  0  0  0  0  0  0
   -3.0120   23.1020  -31.3380 N   0  0  0  0  0  0  0  0  0  0  0  0
   -3.5610   22.0630  -31.9950 C   0  0  0  0  0  0  0  0  0  0  0  0
   -2.7890   21.0180  -32.6860 C   0  0  0  0  0  0  0  0  0  0  0  0
   -3.0260   19.6570  -32.4410 C   0  0  0  0  0  0  0  0  0  0  0  0
   -2.2620   18.6980  -33.1080 C   0  0  0  0  0  0  0  0  0  0  0  0
   -1.2790   19.0980  -34.0140 C   0  0  0  0  0  0  0  0  0  0  0  0
   -1.0690   20.4610  -34.2350 C   0  0  0  0  0  0  0  0  0  0  0  0
   -1.8180   21.3810  -33.5710 N   0  0  0  0  0  0  0  0  0  0  0  0
   -4.9060   22.1030  -31.9850 N   0  0  0  0  0  0  0  0  0  0  0  0
   -7.2510   23.2610  -29.8630 C   0  0  0  0  0  0  0  0  0  0  0  0
   -8.0320   21.9860  -30.2060 C   0  0  0  0  0  0  0  0  0  0  0  0
   -8.3150   18.7140  -31.7800 C   0  0  0  0  0  0  0  0  0  0  0  0
   -7.3220   17.8100  -32.1700 C   0  0  0  0  0  0  0  0  0  0  0  0
   -4.9440   16.1250  -32.8250 N   0  0  0  0  0  0  0  0  0  0  0  0
   -4.0750   15.5210  -33.6490 C   0  0  0  0  0  0  0  0  0  0  0  0
   -3.4070   14.3200  -33.4480 C   0  0  0  0  0  0  0  0  0  0  0  0
   -2.5530   13.8610  -34.4690 C   0  0  0  0  0  0  0  0  0  0  0  0
   -1.8980   12.6880  -34.2850 F   0  0  0  0  0  0  0  0  0  0  0  0
   -2.9762   16.4432  -36.7304 H   0  0  0  0  0  0  0  0  0  0  0  0
   -5.4250   19.8879  -34.1130 H   0  0  0  0  0  0  0  0  0  0  0  0
   -7.1975   21.4945  -33.4250 H   0  0  0  0  0  0  0  0  0  0  0  0
   -9.9426   21.2552  -32.9205 H   0  0  0  0  0  0  0  0  0  0  0  0
  -10.1475   20.4350  -31.2993 H   0  0  0  0  0  0  0  0  0  0  0  0
   -9.3102   23.1974  -33.1148 H   0  0  0  0  0  0  0  0  0  0  0  0
   -9.2277   24.2618  -31.6405 H   0  0  0  0  0  0  0  0  0  0  0  0
   -6.9059   22.7956  -32.9638 H   0  0  0  0  0  0  0  0  0  0  0  0
   -7.2490   24.5838  -32.9759 H   0  0  0  0  0  0  0  0  0  0  0  0
   -6.4089   24.9051  -30.9090 H   0  0  0  0  0  0  0  0  0  0  0  0
   -3.8066   19.3486  -31.7299 H   0  0  0  0  0  0  0  0  0  0  0  0
   -2.4346   17.6281  -32.9196 H   0  0  0  0  0  0  0  0  0  0  0  0
   -0.6764   18.3485  -34.5480 H   0  0  0  0  0  0  0  0  0  0  0  0
   -0.2974   20.7902  -34.9465 H   0  0  0  0  0  0  0  0  0  0  0  0
   -6.5105   23.0275  -29.0838 H   0  0  0  0  0  0  0  0  0  0  0  0
   -7.9662   24.0186  -29.5102 H   0  0  0  0  0  0  0  0  0  0  0  0
   -7.3216   21.2182  -30.5465 H   0  0  0  0  0  0  0  0  0  0  0  0
   -8.5676   21.6685  -29.2992 H   0  0  0  0  0  0  0  0  0  0  0  0
   -9.0982   18.3960  -31.0761 H   0  0  0  0  0  0  0  0  0  0  0  0
   -7.3452   16.7769  -31.7929 H   0  0  0  0  0  0  0  0  0  0  0  0
   -3.5410   13.7451  -32.5198 H   0  0  0  0  0  0  0  0  0  0  0  0
  1  2  2  0
  2  3  1  0
  2  4  1  0
  4  5  2  0
  5  6  1  0
  6  7  1  0
  7  8  2  0
  8  9  1  0
  9 10  2  0
 10 11  1  0
 11 12  2  0
 12 13  1  0
 13 14  1  0
 14 15  1  0
 15 16  1  0
 16 17  1  0
 17 18  1  0
 18 19  2  0
 19 20  1  0
 20 21  1  0
 21 22  1  0
 22 23  2  0
 23 24  1  0
 24 25  2  0
 25 26  1  0
 26 27  2  0
 21 28  2  0
 17 29  1  0
 29 30  1  0
 12 31  1  0
 31 32  2  0
  8 33  1  0
 33 34  1  0
 34 35  1  0
 35 36  2  0
 36 37  1  0
 36  4  1  0
 34  6  2  0
 32  9  1  0
 30 14  1  0
 28 18  1  0
 27 22  1  0
  5 38  1  0
 10 39  1  0
 11 40  1  0
 13 41  1  0
 13 42  1  0
 15 43  1  0
 15 44  1  0
 16 45  1  0
 16 46  1  0
 17 47  1  0
 23 48  1  0
 24 49  1  0
 25 50  1  0
 26 51  1  0
 29 52  1  0
 29 53  1  0
 30 54  1  0
 30 55  1  0
 31 56  1  0
 32 57  1  0
 35 58  1  0
M  CHG  4   2   1   3  -1  20  -1  33  -1
M  END
>  <UniqueID>  (35) 
35

>  <SMILES>  (35) 
O=[N+]([O-])c1cc2nc(-c3ccc(CN4CCC(c5n[n-]c(-c6ccccn6)n5)CC4)cc3)[n-]c2cc1F

>  <Energy>  (35) 
141.7651563166642

>  <Genealogy>  (35) 
O=[N+]([O-])c1cc2nc(-c3ccc(CN4CCC(c5n[n-]c(-c6ccccn6)n5)CC4)cc3)[n-]c2cc1F (protonated)
O=[N+]([O-])c1cc2nc(-c3ccc(CN4CCC(c5n[n-]c(-c6ccccn6)n5)CC4)cc3)[n-]c2cc1F (3D coordinates assigned)
O=[N+]([O-])c1cc2nc(-c3ccc(CN4CCC(c5n[n-]c(-c6ccccn6)n5)CC4)cc3)[n-]c2cc1F (nonaromatic ring conformer: 141.7651563166642 kcal/mol)

>  <smiles>  (35) 
O=[N+]([O-])c1cc2nc(-c3ccc(CN4CCC(c5n[nH]c(-c6ccccn6)n5)CC4)cc3)[nH]c2cc1F

>  <score_type>  (35) 
oracle

>  <origin>  (35) 
adg

>  <m_score__min__energy>  (35) 
-11.35

>  <m_primary>  (35) 
energy

$$$$
35:0
     RDKit          3D

 28 29  0  0  0  0  0  0  0  0999 V2000
   -2.6280   24.3950  -28.5880 C   0  0  0  0  0  0  0  0  0  0  0  0
   -3.1090   24.9770  -29.7930 O   0  0  0  0  0  0  0  0  0  0  0  0
   -4.2390   24.4990  -30.4620 C   0  0  0  0  0  0  0  0  0  0  0  0
   -4.9320   25.2770  -31.1740 O   0  0  0  0  0  0  0  0  0  0  0  0
   -4.5720   23.1080  -30.3630 N   0  0  0  0  0  0  0  0  0  0  0  0
   -5.7940   22.5310  -30.8550 C   0  0  0  0  0  0  0  0  0  0  0  0
   -6.9300   23.3410  -30.9820 C   0  0  0  0  0  0  0  0  0  0  0  0
   -8.1250   22.8160  -31.4730 C   0  0  0  0  0  0  0  0  0  0  0  0
   -8.1980   21.4750  -31.8620 C   0  0  0  0  0  0  0  0  0  0  0  0
   -9.3690   20.9790  -32.3390 N   0  0  0  0  0  0  0  0  0  0  0  0
   -9.4900   19.6870  -32.7380 C   0  0  0  0  0  0  0  0  0  0  0  0
   -8.3980   18.8250  -32.6660 C   0  0  0  0  0  0  0  0  0  0  0  0
   -7.1660   19.2900  -32.1790 C   0  0  0  0  0  0  0  0  0  0  0  0
   -6.0000   18.3370  -32.1100 C   0  0  0  0  0  0  0  0  0  0  0  0
   -7.0560   20.6410  -31.7660 C   0  0  0  0  0  0  0  0  0  0  0  0
   -5.8550   21.1870  -31.2680 C   0  0  0  0  0  0  0  0  0  0  0  0
   -3.0638   24.9223  -27.7266 H   0  0  0  0  0  0  0  0  0  0  0  0
   -2.9164   23.3341  -28.5526 H   0  0  0  0  0  0  0  0  0  0  0  0
   -1.5317   24.4784  -28.5526 H   0  0  0  0  0  0  0  0  0  0  0  0
   -3.8370   22.4660  -29.9900 H   0  0  0  0  0  0  0  0  0  0  0  0
   -6.8789   24.4008  -30.6918 H   0  0  0  0  0  0  0  0  0  0  0  0
   -9.0135   23.4593  -31.5546 H   0  0  0  0  0  0  0  0  0  0  0  0
  -10.4540   19.3194  -33.1196 H   0  0  0  0  0  0  0  0  0  0  0  0
   -8.5011   17.7792  -32.9910 H   0  0  0  0  0  0  0  0  0  0  0  0
   -5.7532   18.1352  -31.0572 H   0  0  0  0  0  0  0  0  0  0  0  0
   -6.2664   17.3948  -32.6112 H   0  0  0  0  0  0  0  0  0  0  0  0
   -5.1296   18.7856  -32.6112 H   0  0  0  0  0  0  0  0  0  0  0  0
   -4.9565   20.5559  -31.2016 H   0  0  0  0  0  0  0  0  0  0  0  0
  1  2  1  0
  2  3  1  0
  3  4  2  0
  3  5  1  0
  5  6  1  0
  6  7  2  0
  7  8  1  0
  8  9  2  0
  9 10  1  0
 10 11  2  0
 11 12  1  0
 12 13  2  0
 13 14  1  0
 13 15  1  0
 15 16  2  0
 16  6  1  0
 15  9  1  0
  1 17  1  0
  1 18  1  0
  1 19  1  0
  5 20  1  0
  7 21  1  0
  8 22  1  0
 11 23  1  0
 12 24  1  0
 14 25  1  0
 14 26  1  0
 14 27  1  0
 16 28  1  0
M  END
>  <UniqueID>  (36) 
36

>  <SMILES>  (36) 
COC(=O)Nc1ccc2nccc(C)c2c1

>  <Energy>  (36) 
33.90735930238005

>  <Genealogy>  (36) 
COC(=O)Nc1ccc2nccc(C)c2c1 (3D coordinates assigned)
COC(=O)Nc1ccc2nccc(C)c2c1 (optimized conformer: 33.90735930238005 kcal/mol)

>  <smiles>  (36) 
COC(=O)Nc1ccc2nccc(C)c2c1

>  <score_type>  (36) 
oracle

>  <origin>  (36) 
adg

>  <m_score__min__energy>  (36) 
-7.0199999999999996

>  <m_primary>  (36) 
energy

$$$$
36:0
     RDKit          3D

 48 51  0  0  0  0  0  0  0  0999 V2000
   -8.8750   21.6000  -30.8930 C   0  0  0  0  0  0  0  0  0  0  0  0
   -8.5150   22.6360  -31.9580 C   0  0  0  0  0  0  0  0  0  0  0  0
   -7.4520   23.5720  -31.5430 N   0  0  0  0  0  0  0  0  0  0  0  0
   -6.2920   23.7110  -32.4540 C   0  0  0  0  0  0  0  0  0  0  0  0
   -5.0650   22.9230  -31.9800 C   0  0  0  0  0  0  0  0  0  0  0  0
   -4.8330   23.1810  -30.5650 N   0  0  0  0  0  0  0  0  0  0  0  0
   -3.8130   24.1100  -30.1680 C   0  0  0  0  0  0  0  0  0  0  0  0
   -3.8610   25.2930  -30.6050 O   0  0  0  0  0  0  0  0  0  0  0  0
   -2.6860   23.7030  -29.2330 C   0  0  1  0  0  0  0  0  0  0  0  0
   -1.9770   24.9700  -28.6840 C   0  0  0  0  0  0  0  0  0  0  0  0
   -0.8070   24.5650  -27.7590 C   0  0  2  0  0  0  0  0  0  0  0  0
    0.2110   23.7200  -28.5550 C   0  0  0  0  0  0  0  0  0  0  0  0
   -0.4790   22.4460  -29.0910 C   0  0  1  0  0  0  0  0  0  0  0  0
   -1.0200   21.6170  -27.9070 C   0  0  0  0  0  0  0  0  0  0  0  0
   -2.0380   22.4590  -27.1100 C   0  0  1  0  0  0  0  0  0  0  0  0
   -1.3490   23.7330  -26.5760 C   0  0  0  0  0  0  0  0  0  0  0  0
   -3.2100   22.8590  -28.0330 C   0  0  0  0  0  0  0  0  0  0  0  0
   -1.6490   22.8460  -30.0160 C   0  0  0  0  0  0  0  0  0  0  0  0
   -5.9380   22.8790  -29.6620 C   0  0  0  0  0  0  0  0  0  0  0  0
   -7.1790   23.6700  -30.0910 C   0  0  0  0  0  0  0  0  0  0  0  0
   -8.7242   22.0340  -29.8935 H   0  0  0  0  0  0  0  0  0  0  0  0
   -9.9283   21.3051  -31.0096 H   0  0  0  0  0  0  0  0  0  0  0  0
   -8.2315   20.7155  -31.0096 H   0  0  0  0  0  0  0  0  0  0  0  0
   -8.1761   22.1038  -32.8591 H   0  0  0  0  0  0  0  0  0  0  0  0
   -9.4184   23.2369  -32.1388 H   0  0  0  0  0  0  0  0  0  0  0  0
   -6.5816   23.3445  -33.4499 H   0  0  0  0  0  0  0  0  0  0  0  0
   -6.0138   24.7750  -32.4751 H   0  0  0  0  0  0  0  0  0  0  0  0
   -5.2399   21.8477  -32.1318 H   0  0  0  0  0  0  0  0  0  0  0  0
   -4.1836   23.2388  -32.5574 H   0  0  0  0  0  0  0  0  0  0  0  0
   -2.6993   25.5731  -28.1143 H   0  0  0  0  0  0  0  0  0  0  0  0
   -1.5830   25.5561  -29.5274 H   0  0  0  0  0  0  0  0  0  0  0  0
   -0.3138   25.4707  -27.3763 H   0  0  0  0  0  0  0  0  0  0  0  0
    1.0447   23.4352  -27.8964 H   0  0  0  0  0  0  0  0  0  0  0  0
    0.5943   24.3107  -29.4001 H   0  0  0  0  0  0  0  0  0  0  0  0
    0.2481   21.8453  -29.6571 H   0  0  0  0  0  0  0  0  0  0  0  0
   -0.1863   21.3308  -27.2490 H   0  0  0  0  0  0  0  0  0  0  0  0
   -1.5138   20.7116  -28.2896 H   0  0  0  0  0  0  0  0  0  0  0  0
   -2.4199   21.8668  -26.2653 H   0  0  0  0  0  0  0  0  0  0  0  0
   -0.5158   23.4492  -25.9162 H   0  0  0  0  0  0  0  0  0  0  0  0
   -2.0783   24.3330  -26.0119 H   0  0  0  0  0  0  0  0  0  0  0  0
   -3.9368   23.4538  -27.4603 H   0  0  0  0  0  0  0  0  0  0  0  0
   -3.6908   21.9476  -28.4180 H   0  0  0  0  0  0  0  0  0  0  0  0
   -1.2593   23.4310  -30.8621 H   0  0  0  0  0  0  0  0  0  0  0  0
   -2.1424   21.9345  -30.3845 H   0  0  0  0  0  0  0  0  0  0  0  0
   -6.1585   21.8020  -29.6997 H   0  0  0  0  0  0  0  0  0  0  0  0
   -5.6603   23.1606  -28.6356 H   0  0  0  0  0  0  0  0  0  0  0  0
   -8.0499   23.2808  -29.5432 H   0  0  0  0  0  0  0  0  0  0  0  0
   -6.9906   24.7292  -29.8616 H   0  0  0  0  0  0  0  0  0  0  0  0
  1  2  1  0
  2  3  1  0
  3  4  1  0
  4  5  1  0
  5  6  1  0
  6  7  1  0
  7  8  2  0
  9  7  1  6
  9 10  1  0
 10 11  1  0
 11 12  1  0
 12 13  1  0
 13 14  1  0
 14 15  1  0
 15 16  1  0
 15 17  1  0
 13 18  1  0
  6 19  1  0
 19 20  1  0
 20  3  1  0
 17  9  1  0
 18  9  1  0
 16 11  1  0
  1 21  1  0
  1 22  1  0
  1 23  1  0
  2 24  1  0
  2 25  1  0
  4 26  1  0
  4 27  1  0
  5 28  1  0
  5 29  1  0
 10 30  1  0
 10 31  1  0
 11 32  1  1
 12 33  1  0
 12 34  1  0
 13 35  1  6
 14 36  1  0
 14 37  1  0
 15 38  1  1
 16 39  1  0
 16 40  1  0
 17 41  1  0
 17 42  1  0
 18 43  1  0
 18 44  1  0
 19 45  1  0
 19 46  1  0
 20 47  1  0
 20 48  1  0
M  END
>  <UniqueID>  (37) 
37

>  <SMILES>  (37) 
CCN1CCN(C(=O)C23CC4CC(CC(C4)C2)C3)CC1

>  <Energy>  (37) 
59.945500565543625

>  <Genealogy>  (37) 
CCN1CCN(C(=O)C23CC4CC(CC(C4)C2)C3)CC1 (3D coordinates assigned)
CCN1CCN(C(=O)C23CC4CC(CC(C4)C2)C3)CC1 (nonaromatic ring conformer: 59.945500565543625 kcal/mol)

>  <smiles>  (37) 
CCN1CCN(C(=O)C23CC4CC(CC(C4)C2)C3)CC1

>  <score_type>  (37) 
oracle

>  <origin>  (37) 
adg

>  <m_score__min__energy>  (37) 
-7.6900000000000004

>  <m_primary>  (37) 
energy

$$$$
37:0
     RDKit          3D

 45 48  0  0  0  0  0  0  0  0999 V2000
   -9.0383   21.6121  -30.5596 H   0  0  0  0  0  0  0  0  0  0  0  0
   -8.0680   21.5820  -31.0770 C   0  0  0  0  0  0  0  0  0  0  0  0
   -7.6790   20.4320  -31.7590 C   0  0  0  0  0  0  0  0  0  0  0  0
   -8.3501   19.5611  -31.7940 H   0  0  0  0  0  0  0  0  0  0  0  0
   -6.4400   20.3820  -32.3980 C   0  0  0  0  0  0  0  0  0  0  0  0
   -6.1390   19.4683  -32.9315 H   0  0  0  0  0  0  0  0  0  0  0  0
   -5.5710   21.4890  -32.3670 C   0  0  0  0  0  0  0  0  0  0  0  0
   -4.2480   21.3770  -33.0410 C   0  0  0  0  0  0  0  0  0  0  0  0
   -3.8800   22.2960  -33.8200 O   0  0  0  0  0  0  0  0  0  0  0  0
   -3.3400   20.2930  -32.7900 N   0  0  0  0  0  0  0  0  0  0  0  0
   -2.0400   20.2980  -32.9100 C   0  0  0  0  0  0  0  0  0  0  0  0
   -1.2990   19.3700  -32.1720 C   0  0  0  0  0  0  0  0  0  0  0  0
   -1.8094   18.6727  -31.4914 H   0  0  0  0  0  0  0  0  0  0  0  0
    0.0860   19.3310  -32.3010 C   0  0  0  0  0  0  0  0  0  0  0  0
    0.6721   18.5959  -31.7300 H   0  0  0  0  0  0  0  0  0  0  0  0
    0.7290   20.2250  -33.1550 C   0  0  0  0  0  0  0  0  0  0  0  0
    1.8223   20.1910  -33.2714 H   0  0  0  0  0  0  0  0  0  0  0  0
   -0.0300   21.1710  -33.8670 C   0  0  0  0  0  0  0  0  0  0  0  0
    0.5650   22.1080  -34.7260 O   0  0  0  0  0  0  0  0  0  0  0  0
    0.9100   21.8510  -36.0830 C   0  0  0  0  0  0  0  0  0  0  0  0
    1.7917   21.1942  -36.1191 H   0  0  0  0  0  0  0  0  0  0  0  0
    0.0659   21.3598  -36.5892 H   0  0  0  0  0  0  0  0  0  0  0  0
    1.1390   22.8004  -36.5892 H   0  0  0  0  0  0  0  0  0  0  0  0
   -1.3860   21.1890  -33.7200 N   0  0  0  0  0  0  0  0  0  0  0  0
   -1.9080   21.9330  -34.2330 H   0  0  0  0  0  0  0  0  0  0  0  0
   -5.9880   22.6760  -31.7140 C   0  0  0  0  0  0  0  0  0  0  0  0
   -5.1250   23.8250  -31.7080 N   0  0  0  0  0  0  0  0  0  0  0  0
   -4.1400   24.1750  -30.7300 C   0  0  0  0  0  0  0  0  0  0  0  0
   -3.8720   25.3820  -30.4810 O   0  0  0  0  0  0  0  0  0  0  0  0
   -3.4010   23.1060  -30.0530 C   0  0  0  0  0  0  0  0  0  0  0  0
   -3.9030   22.3890  -29.0630 O   0  0  0  0  0  0  0  0  0  0  0  0
   -2.9830   21.5340  -28.6920 C   0  0  0  0  0  0  0  0  0  0  0  0
   -3.0660   20.5770  -27.6830 C   0  0  0  0  0  0  0  0  0  0  0  0
   -3.9806   20.4621  -27.0827 H   0  0  0  0  0  0  0  0  0  0  0  0
   -1.9410   19.7620  -27.4570 C   0  0  0  0  0  0  0  0  0  0  0  0
   -1.9698   18.9964  -26.6677 H   0  0  0  0  0  0  0  0  0  0  0  0
   -0.7740   19.9220  -28.2390 C   0  0  0  0  0  0  0  0  0  0  0  0
    0.0991   19.2789  -28.0544 H   0  0  0  0  0  0  0  0  0  0  0  0
   -0.7210   20.8970  -29.2510 C   0  0  0  0  0  0  0  0  0  0  0  0
    0.1813   21.0309  -29.8657 H   0  0  0  0  0  0  0  0  0  0  0  0
   -1.8520   21.6880  -29.4480 C   0  0  0  0  0  0  0  0  0  0  0  0
   -2.0970   22.7040  -30.3420 C   0  0  0  0  0  0  0  0  0  0  0  0
   -1.4197   23.1072  -31.1092 H   0  0  0  0  0  0  0  0  0  0  0  0
   -7.2280   22.6970  -31.0490 C   0  0  0  0  0  0  0  0  0  0  0  0
   -7.5382   23.5997  -30.5023 H   0  0  0  0  0  0  0  0  0  0  0  0
  1  2  1  0
  2  3  2  0
  3  4  1  0
  3  5  1  0
  5  6  1  0
  5  7  2  0
  7  8  1  0
  8  9  2  0
  8 10  1  0
 10 11  2  0
 11 12  1  0
 12 13  1  0
 12 14  2  0
 14 15  1  0
 14 16  1  0
 16 17  1  0
 16 18  2  0
 18 19  1  0
 19 20  1  0
 20 21  1  0
 20 22  1  0
 20 23  1  0
 18 24  1  0
 24 25  1  0
  7 26  1  0
 26 27  1  0
 27 28  1  0
 28 29  2  0
 28 30  1  0
 30 31  1  0
 31 32  1  0
 32 33  2  0
 33 34  1  0
 33 35  1  0
 35 36  1  0
 35 37  2  0
 37 38  1  0
 37 39  1  0
 39 40  1  0
 39 41  2  0
 41 42  1  0
 42 43  1  0
 26 44  2  0
 44 45  1  0
 44  2  1  0
 24 11  1  0
 42 30  2  0
 41 32  1  0
M  CHG  1  27  -1
M  END
>  <UniqueID>  (38) 
38

>  <SMILES>  (38) 
COc1ccc/c(=N/C(=O)c2ccccc2[N-]C(=O)c2cc3ccccc3o2)[nH]1

>  <Energy>  (38) 
95.57868597229374

>  <Genealogy>  (38) 
COc1cccc(=NC(=O)c2ccccc2[N-]C(=O)c2cc3ccccc3o2)[nH]1 (protonated)
COc1ccc/c(=N/C(=O)c2ccccc2[N-]C(=O)c2cc3ccccc3o2)[nH]1 (cis-trans isomerization)
COc1ccc/c(=N/C(=O)c2ccccc2[N-]C(=O)c2cc3ccccc3o2)[nH]1 (3D coordinates assigned)
COc1ccc/c(=N/C(=O)c2ccccc2[N-]C(=O)c2cc3ccccc3o2)[nH]1 (optimized conformer: 95.57868597229374 kcal/mol)

>  <smiles>  (38) 
COc1cccc(=NC(=O)c2ccccc2NC(=O)c2cc3ccccc3o2)[nH]1

>  <score_type>  (38) 
oracle

>  <origin>  (38) 
adg

>  <m_score__min__energy>  (38) 
-10.07

>  <m_primary>  (38) 
energy

$$$$
38:0
     RDKit          3D

 50 52  0  0  1  0  0  0  0  0999 V2000
   -6.3890   22.5980  -30.5150 C   0  0  0  0  0  0  0  0  0  0  0  0
   -5.1550   22.9820  -31.1060 O   0  0  0  0  0  0  0  0  0  0  0  0
   -4.0580   23.0760  -30.2560 C   0  0  0  0  0  0  0  0  0  0  0  0
   -3.5850   21.9190  -29.6770 C   0  0  0  0  0  0  0  0  0  0  0  0
   -2.4690   22.0010  -28.8100 C   0  0  0  0  0  0  0  0  0  0  0  0
   -1.8930   20.7840  -28.2740 C   0  0  0  0  0  0  0  0  0  0  0  0
   -2.2900   20.4240  -26.9940 C   0  0  0  0  0  0  0  0  0  0  0  0
   -1.8870   19.2790  -26.4110 N   0  0  0  0  0  0  0  0  0  0  0  0
   -1.0690   18.4390  -27.0830 C   0  0  0  0  0  0  0  0  0  0  0  0
   -0.6690   18.7770  -28.3430 N   0  0  0  0  0  0  0  0  0  0  0  0
   -1.0690   19.9260  -28.9300 C   0  0  0  0  0  0  0  0  0  0  0  0
   -0.6110   20.2220  -30.0570 N   0  0  0  0  0  0  0  0  0  0  0  0
   -0.3660   19.4630  -31.2030 C   0  0  2  0  0  0  0  0  0  0  0  0
    0.7000   20.0360  -32.1260 C   0  0  0  0  0  0  0  0  0  0  0  0
   -1.6250   19.8740  -32.0030 C   0  0  0  0  0  0  0  0  0  0  0  0
   -2.4900   18.9390  -32.4850 C   0  0  0  0  0  0  0  0  0  0  0  0
   -3.6280   19.2220  -33.2150 C   0  0  0  0  0  0  0  0  0  0  0  0
   -3.8940   20.5490  -33.4640 C   0  0  0  0  0  0  0  0  0  0  0  0
   -3.0420   21.5240  -32.9920 C   0  0  0  0  0  0  0  0  0  0  0  0
   -1.8960   21.1960  -32.2550 C   0  0  0  0  0  0  0  0  0  0  0  0
   -1.0870   22.1690  -31.8130 F   0  0  0  0  0  0  0  0  0  0  0  0
   -1.8910   23.2680  -28.5760 C   0  0  0  0  0  0  0  0  0  0  0  0
   -2.3940   24.4000  -29.1720 C   0  0  0  0  0  0  0  0  0  0  0  0
   -1.8630   25.6600  -28.9740 O   0  0  0  0  0  0  0  0  0  0  0  0
   -1.1020   26.0720  -27.8810 C   0  0  0  0  0  0  0  0  0  0  0  0
   -3.4900   24.3090  -30.0220 C   0  0  0  0  0  0  0  0  0  0  0  0
   -4.0270   25.4390  -30.6450 O   0  0  0  0  0  0  0  0  0  0  0  0
   -5.3680   25.8390  -30.4710 C   0  0  0  0  0  0  0  0  0  0  0  0
   -6.2956   22.6271  -29.4194 H   0  0  0  0  0  0  0  0  0  0  0  0
   -7.1802   23.2924  -30.8341 H   0  0  0  0  0  0  0  0  0  0  0  0
   -6.6464   21.5773  -30.8341 H   0  0  0  0  0  0  0  0  0  0  0  0
   -4.0648   20.9511  -29.8842 H   0  0  0  0  0  0  0  0  0  0  0  0
   -2.9572   21.0975  -26.4361 H   0  0  0  0  0  0  0  0  0  0  0  0
   -0.7314   17.4990  -26.6222 H   0  0  0  0  0  0  0  0  0  0  0  0
   -0.0400   18.0820  -28.8000 H   0  0  0  0  0  0  0  0  0  0  0  0
   -0.1133   18.4257  -30.9382 H   0  0  0  0  0  0  0  0  0  0  0  0
    1.5108   20.4718  -31.5237 H   0  0  0  0  0  0  0  0  0  0  0  0
    1.1051   19.2341  -32.7607 H   0  0  0  0  0  0  0  0  0  0  0  0
    0.2546   20.8163  -32.7607 H   0  0  0  0  0  0  0  0  0  0  0  0
   -2.2663   17.8821  -32.2780 H   0  0  0  0  0  0  0  0  0  0  0  0
   -4.2908   18.4237  -33.5803 H   0  0  0  0  0  0  0  0  0  0  0  0
   -4.7873   20.8317  -34.0402 H   0  0  0  0  0  0  0  0  0  0  0  0
   -3.2660   22.5811  -33.1979 H   0  0  0  0  0  0  0  0  0  0  0  0
   -1.0232   23.3505  -27.9051 H   0  0  0  0  0  0  0  0  0  0  0  0
   -1.6169   25.7932  -26.9498 H   0  0  0  0  0  0  0  0  0  0  0  0
   -0.1167   25.5841  -27.9154 H   0  0  0  0  0  0  0  0  0  0  0  0
   -0.9719   27.1637  -27.9154 H   0  0  0  0  0  0  0  0  0  0  0  0
   -5.5941   25.9064  -29.3966 H   0  0  0  0  0  0  0  0  0  0  0  0
   -5.5213   26.8220  -30.9403 H   0  0  0  0  0  0  0  0  0  0  0  0
   -6.0347   25.1006  -30.9403 H   0  0  0  0  0  0  0  0  0  0  0  0
  1  2  1  0
  2  3  1  0
  3  4  2  0
  4  5  1  0
  5  6  1  0
  6  7  2  0
  7  8  1  0
  8  9  2  0
  9 10  1  0
 10 11  1  0
 11 12  2  0
 12 13  1  0
 13 14  1  0
 13 15  1  0
 15 16  2  0
 16 17  1  0
 17 18  2  0
 18 19  1  0
 19 20  2  0
 20 21  1  0
  5 22  2  0
 22 23  1  0
 23 24  1  0
 24 25  1  0
 23 26  2  0
 26 27  1  0
 27 28  1  0
 26  3  1  0
 11  6  1  0
 20 15  1  0
  1 29  1  0
  1 30  1  0
  1 31  1  0
  4 32  1  0
  7 33  1  0
  9 34  1  0
 10 35  1  0
 13 36  1  1
 14 37  1  0
 14 38  1  0
 14 39  1  0
 16 40  1  0
 17 41  1  0
 18 42  1  0
 19 43  1  0
 22 44  1  0
 25 45  1  0
 25 46  1  0
 25 47  1  0
 28 48  1  0
 28 49  1  0
 28 50  1  0
M  END
>  <smiles>  (39) 
COc1cc(-c2cnc[nH]c2=NC(C)c2ccccc2F)cc(OC)c1OC

>  <score_type>  (39) 
oracle

>  <origin>  (39) 
adg

>  <m_score__min__energy>  (39) 
-8.0899999999999999

>  <m_primary>  (39) 
energy

$$$$
39:0
     RDKit          3D

 23 23  0  0  0  0  0  0  0  0999 V2000
   -4.6210   23.1820  -28.6400 C   0  0  0  0  0  0  0  0  0  0  0  0
   -5.7470   23.2470  -29.6650 C   0  0  0  0  0  0  0  0  0  0  0  0
   -5.1390   23.8040  -31.2480 S   0  0  0  0  0  0  0  0  0  0  0  0
   -4.9780   25.2990  -31.2090 O   0  0  0  0  0  0  0  0  0  0  0  0
   -3.8090   23.1600  -31.5210 O   0  0  0  0  0  0  0  0  0  0  0  0
   -6.2680   23.3590  -32.4890 N   0  0  0  0  0  0  0  0  0  0  0  0
   -7.2130   22.2880  -32.3420 C   0  0  0  0  0  0  0  0  0  0  0  0
   -8.4660   22.5600  -31.7670 C   0  0  0  0  0  0  0  0  0  0  0  0
   -9.4090   21.5400  -31.6050 C   0  0  0  0  0  0  0  0  0  0  0  0
   -9.1050   20.2370  -32.0030 C   0  0  0  0  0  0  0  0  0  0  0  0
   -7.8540   19.9490  -32.5560 C   0  0  0  0  0  0  0  0  0  0  0  0
   -6.9070   20.9650  -32.7210 C   0  0  0  0  0  0  0  0  0  0  0  0
   -5.6830   20.6400  -33.2090 F   0  0  0  0  0  0  0  0  0  0  0  0
   -5.0464   23.2066  -27.6259 H   0  0  0  0  0  0  0  0  0  0  0  0
   -4.0537   22.2496  -28.7771 H   0  0  0  0  0  0  0  0  0  0  0  0
   -3.9502   24.0429  -28.7771 H   0  0  0  0  0  0  0  0  0  0  0  0
   -6.1866   22.2453  -29.7806 H   0  0  0  0  0  0  0  0  0  0  0  0
   -6.5042   23.9612  -29.3092 H   0  0  0  0  0  0  0  0  0  0  0  0
   -6.0940   23.7460  -33.4440 H   0  0  0  0  0  0  0  0  0  0  0  0
   -8.7069   23.5829  -31.4419 H   0  0  0  0  0  0  0  0  0  0  0  0
  -10.3912   21.7647  -31.1636 H   0  0  0  0  0  0  0  0  0  0  0  0
   -9.8500   19.4369  -31.8814 H   0  0  0  0  0  0  0  0  0  0  0  0
   -7.6136   18.9202  -32.8623 H   0  0  0  0  0  0  0  0  0  0  0  0
  1  2  1  0
  2  3  1  0
  3  4  2  0
  3  5  2  0
  3  6  1  0
  6  7  1  0
  7  8  2  0
  8  9  1  0
  9 10  2  0
 10 11  1  0
 11 12  2  0
 12 13  1  0
 12  7  1  0
  1 14  1  0
  1 15  1  0
  1 16  1  0
  2 17  1  0
  2 18  1  0
  6 19  1  0
  8 20  1  0
  9 21  1  0
 10 22  1  0
 11 23  1  0
M  END
>  <UniqueID>  (40) 
39

>  <SMILES>  (40) 
CCS(=O)(=O)Nc1ccccc1F

>  <Energy>  (40) 
19.408159312138004

>  <Genealogy>  (40) 
CCS(=O)(=O)Nc1ccccc1F (3D coordinates assigned)
CCS(=O)(=O)Nc1ccccc1F (optimized conformer: 19.408159312138004 kcal/mol)

>  <smiles>  (40) 
CCS(=O)(=O)Nc1ccccc1F

>  <score_type>  (40) 
oracle

>  <origin>  (40) 
adg

>  <m_score__min__energy>  (40) 
-6.1500000000000004

>  <m_primary>  (40) 
energy

$$$$
40:0
     RDKit          3D

 50 54  0  0  0  0  0  0  0  0999 V2000
    0.4230   16.8720  -27.4640 C   0  0  0  0  0  0  0  0  0  0  0  0
   -0.4970   18.0000  -27.4170 N   0  0  0  0  0  0  0  0  0  0  0  0
   -0.3040   19.1980  -27.9980 C   0  0  0  0  0  0  0  0  0  0  0  0
   -1.3660   20.0190  -27.6600 C   0  0  0  0  0  0  0  0  0  0  0  0
   -1.5870   21.4320  -28.0630 C   0  0  0  0  0  0  0  0  0  0  0  0
   -0.6380   22.4370  -27.7230 C   0  0  0  0  0  0  0  0  0  0  0  0
   -0.8270   23.7740  -28.1170 C   0  0  0  0  0  0  0  0  0  0  0  0
   -1.9750   24.0840  -28.8340 C   0  0  0  0  0  0  0  0  0  0  0  0
   -2.3260   25.2780  -29.3420 N   0  0  0  0  0  0  0  0  0  0  0  0
   -3.4800   25.1120  -29.9810 N   0  0  0  0  0  0  0  0  0  0  0  0
   -3.8670   23.8180  -29.8750 C   0  0  0  0  0  0  0  0  0  0  0  0
   -5.1090   23.2900  -30.4740 C   0  0  0  0  0  0  0  0  0  0  0  0
   -6.3380   23.9360  -30.2690 C   0  0  0  0  0  0  0  0  0  0  0  0
   -7.4900   23.4240  -30.8620 C   0  0  0  0  0  0  0  0  0  0  0  0
   -7.4150   22.2840  -31.6590 C   0  0  0  0  0  0  0  0  0  0  0  0
   -6.1720   21.6680  -31.8690 C   0  0  0  0  0  0  0  0  0  0  0  0
   -6.0690   20.4870  -32.6900 N   0  0  0  0  0  0  0  0  0  0  0  0
   -7.2600   20.0190  -33.4220 C   0  0  0  0  0  0  0  0  0  0  0  0
   -7.9590   18.8620  -32.6930 C   0  0  0  0  0  0  0  0  0  0  0  0
   -7.2480   17.5770  -32.8120 N   0  0  0  0  0  0  0  0  0  0  0  0
   -5.9550   17.5040  -32.1110 C   0  0  0  0  0  0  0  0  0  0  0  0
   -4.8250   18.2220  -32.8590 C   0  0  0  0  0  0  0  0  0  0  0  0
   -4.8490   19.7110  -32.6330 C   0  0  0  0  0  0  0  0  0  0  0  0
   -3.7500   20.2990  -32.4340 O   0  0  0  0  0  0  0  0  0  0  0  0
   -5.0550   22.1870  -31.2780 N   0  0  0  0  0  0  0  0  0  0  0  0
   -2.9070   23.1380  -29.1490 C   0  0  0  0  0  0  0  0  0  0  0  0
   -2.7410   21.7950  -28.8030 C   0  0  0  0  0  0  0  0  0  0  0  0
   -2.1690   19.2310  -26.8440 C   0  0  0  0  0  0  0  0  0  0  0  0
   -1.6140   18.0120  -26.7080 N   0  0  0  0  0  0  0  0  0  0  0  0
    0.6758   16.5621  -26.4393 H   0  0  0  0  0  0  0  0  0  0  0  0
   -0.0520   16.0333  -27.9941 H   0  0  0  0  0  0  0  0  0  0  0  0
    1.3401   17.1686  -27.9941 H   0  0  0  0  0  0  0  0  0  0  0  0
    0.5504   19.4770  -28.6322 H   0  0  0  0  0  0  0  0  0  0  0  0
    0.2563   22.1640  -27.1436 H   0  0  0  0  0  0  0  0  0  0  0  0
   -0.0887   24.5495  -27.8651 H   0  0  0  0  0  0  0  0  0  0  0  0
   -6.3913   24.8401  -29.6446 H   0  0  0  0  0  0  0  0  0  0  0  0
   -8.4586   23.9198  -30.7009 H   0  0  0  0  0  0  0  0  0  0  0  0
   -8.3236   21.8698  -32.1203 H   0  0  0  0  0  0  0  0  0  0  0  0
   -7.9673   20.8553  -33.5231 H   0  0  0  0  0  0  0  0  0  0  0  0
   -6.9346   19.6553  -34.4078 H   0  0  0  0  0  0  0  0  0  0  0  0
   -8.0371   19.1192  -31.6263 H   0  0  0  0  0  0  0  0  0  0  0  0
   -8.9444   18.7312  -33.1640 H   0  0  0  0  0  0  0  0  0  0  0  0
   -7.8630   16.8230  -32.4250 H   0  0  0  0  0  0  0  0  0  0  0  0
   -6.0676   17.9663  -31.1192 H   0  0  0  0  0  0  0  0  0  0  0  0
   -5.6791   16.4415  -32.0406 H   0  0  0  0  0  0  0  0  0  0  0  0
   -3.8605   17.8260  -32.5083 H   0  0  0  0  0  0  0  0  0  0  0  0
   -4.9645   18.0416  -33.9351 H   0  0  0  0  0  0  0  0  0  0  0  0
   -4.1340   21.7230  -31.4490 H   0  0  0  0  0  0  0  0  0  0  0  0
   -3.4849   21.0397  -29.0964 H   0  0  0  0  0  0  0  0  0  0  0  0
   -3.1129   19.5537  -26.3805 H   0  0  0  0  0  0  0  0  0  0  0  0
  1  2  1  0
  2  3  1  0
  3  4  2  0
  4  5  1  0
  5  6  1  0
  6  7  2  0
  7  8  1  0
  8  9  2  0
  9 10  1  0
 10 11  1  0
 11 12  1  0
 12 13  2  0
 13 14  1  0
 14 15  2  0
 15 16  1  0
 16 17  1  0
 17 18  1  0
 18 19  1  0
 19 20  1  0
 20 21  1  0
 21 22  1  0
 22 23  1  0
 23 24  2  0
 16 25  2  0
 11 26  2  0
 26 27  1  0
  4 28  1  0
 28 29  2  0
 29  2  1  0
 27  5  2  0
 26  8  1  0
 25 12  1  0
 23 17  1  0
  1 30  1  0
  1 31  1  0
  1 32  1  0
  3 33  1  0
  6 34  1  0
  7 35  1  0
 13 36  1  0
 14 37  1  0
 15 38  1  0
 18 39  1  0
 18 40  1  0
 19 41  1  0
 19 42  1  0
 20 43  1  0
 21 44  1  0
 21 45  1  0
 22 46  1  0
 22 47  1  0
 25 48  1  0
 27 49  1  0
 28 50  1  0
M  CHG  2  10  -1  25   1
M  END
>  <UniqueID>  (41) 
40

>  <SMILES>  (41) 
Cn1cc(-c2ccc3n[n-]c(-c4cccc(N5CCNCCC5=O)[nH+]4)c3c2)cn1

>  <Energy>  (41) 
141.8088841162184

>  <Genealogy>  (41) 
Cn1cc(-c2ccc3n[n-]c(-c4cccc(N5CCNCCC5=O)[nH+]4)c3c2)cn1 (protonated)
Cn1cc(-c2ccc3n[n-]c(-c4cccc(N5CCNCCC5=O)[nH+]4)c3c2)cn1 (3D coordinates assigned)
Cn1cc(-c2ccc3n[n-]c(-c4cccc(N5CCNCCC5=O)[nH+]4)c3c2)cn1 (nonaromatic ring conformer: 141.8088841162184 kcal/mol)

>  <smiles>  (41) 
Cn1cc(-c2ccc3n[nH]c(-c4cccc(N5CCNCCC5=O)n4)c3c2)cn1

>  <score_type>  (41) 
oracle

>  <origin>  (41) 
adg

>  <m_score__min__energy>  (41) 
-8.9299999999999997

>  <m_primary>  (41) 
energy

$$$$
41:0
     RDKit          3D

 59 62  0  0  0  0  0  0  0  0999 V2000
    1.0550   27.4880  -23.6290 C   0  0  0  0  0  0  0  0  0  0  0  0
    1.0300   27.3200  -25.0430 O   0  0  0  0  0  0  0  0  0  0  0  0
    0.0190   26.6410  -25.7410 C   0  0  0  0  0  0  0  0  0  0  0  0
   -1.2120   26.3050  -25.1500 C   0  0  0  0  0  0  0  0  0  0  0  0
   -2.1880   25.6280  -25.8890 C   0  0  0  0  0  0  0  0  0  0  0  0
   -1.9550   25.2760  -27.2310 C   0  0  0  0  0  0  0  0  0  0  0  0
   -2.9940   24.5590  -28.0110 C   0  0  0  0  0  0  0  0  0  0  0  0
   -3.2030   24.8010  -29.2590 N   0  0  0  0  0  0  0  0  0  0  0  0
   -4.2770   23.9980  -29.8220 C   0  0  0  0  0  0  0  0  0  0  0  0
   -4.6870   23.0420  -28.6670 C   0  0  0  0  0  0  0  0  0  0  0  0
   -3.8930   23.5160  -27.4520 C   0  0  0  0  0  0  0  0  0  0  0  0
   -3.7280   23.2230  -31.0370 C   0  0  0  0  0  0  0  0  0  0  0  0
   -4.8250   22.4160  -31.7650 C   0  0  0  0  0  0  0  0  0  0  0  0
   -6.1570   23.0740  -31.7680 N   0  0  0  0  0  0  0  0  0  0  0  0
   -7.1670   22.4180  -30.9050 C   0  0  0  0  0  0  0  0  0  0  0  0
   -8.4380   22.1250  -31.7080 C   0  0  0  0  0  0  0  0  0  0  0  0
   -9.0650   20.7740  -31.3260 C   0  0  0  0  0  0  0  0  0  0  0  0
   -8.8800   19.7130  -32.3860 C   0  0  0  0  0  0  0  0  0  0  0  0
   -9.8800   19.3130  -33.0470 O   0  0  0  0  0  0  0  0  0  0  0  0
   -7.5390   19.1370  -32.6790 C   0  0  0  0  0  0  0  0  0  0  0  0
   -6.6430   19.8270  -33.5210 C   0  0  0  0  0  0  0  0  0  0  0  0
   -5.3810   19.2990  -33.8030 C   0  0  0  0  0  0  0  0  0  0  0  0
   -4.9910   18.0780  -33.2470 C   0  0  0  0  0  0  0  0  0  0  0  0
   -3.7650   17.5680  -33.5210 F   0  0  0  0  0  0  0  0  0  0  0  0
   -5.8660   17.3830  -32.4100 C   0  0  0  0  0  0  0  0  0  0  0  0
   -7.1310   17.9050  -32.1260 C   0  0  0  0  0  0  0  0  0  0  0  0
   -6.0930   24.5370  -31.5910 C   0  0  0  0  0  0  0  0  0  0  0  0
   -5.4390   24.9420  -30.2550 C   0  0  0  0  0  0  0  0  0  0  0  0
   -0.7210   25.6150  -27.8150 C   0  0  0  0  0  0  0  0  0  0  0  0
    0.2530   26.2910  -27.0750 C   0  0  0  0  0  0  0  0  0  0  0  0
    0.9099   26.5128  -23.1413 H   0  0  0  0  0  0  0  0  0  0  0  0
    2.0256   27.9083  -23.3268 H   0  0  0  0  0  0  0  0  0  0  0  0
    0.2489   28.1727  -23.3268 H   0  0  0  0  0  0  0  0  0  0  0  0
   -1.4083   26.5757  -24.1021 H   0  0  0  0  0  0  0  0  0  0  0  0
   -3.1467   25.3684  -25.4163 H   0  0  0  0  0  0  0  0  0  0  0  0
   -5.7674   23.1130  -28.4730 H   0  0  0  0  0  0  0  0  0  0  0  0
   -4.4762   21.9902  -28.9103 H   0  0  0  0  0  0  0  0  0  0  0  0
   -4.5602   23.9405  -26.6874 H   0  0  0  0  0  0  0  0  0  0  0  0
   -3.3468   22.7021  -26.9528 H   0  0  0  0  0  0  0  0  0  0  0  0
   -3.2891   23.9412  -31.7452 H   0  0  0  0  0  0  0  0  0  0  0  0
   -2.9760   22.5099  -30.6681 H   0  0  0  0  0  0  0  0  0  0  0  0
   -4.5102   22.2673  -32.8085 H   0  0  0  0  0  0  0  0  0  0  0  0
   -4.9391   21.4684  -31.2181 H   0  0  0  0  0  0  0  0  0  0  0  0
   -6.7561   21.4740  -30.5177 H   0  0  0  0  0  0  0  0  0  0  0  0
   -7.4164   23.0893  -30.0701 H   0  0  0  0  0  0  0  0  0  0  0  0
   -9.1705   22.9229  -31.5162 H   0  0  0  0  0  0  0  0  0  0  0  0
   -8.1638   22.0823  -32.7724 H   0  0  0  0  0  0  0  0  0  0  0  0
   -8.5983   20.4226  -30.3940 H   0  0  0  0  0  0  0  0  0  0  0  0
  -10.1468   20.9360  -31.2097 H   0  0  0  0  0  0  0  0  0  0  0  0
   -6.9407   20.7906  -33.9601 H   0  0  0  0  0  0  0  0  0  0  0  0
   -4.6927   19.8457  -34.4643 H   0  0  0  0  0  0  0  0  0  0  0  0
   -5.5588   16.4215  -31.9727 H   0  0  0  0  0  0  0  0  0  0  0  0
   -7.8142   17.3506  -31.4658 H   0  0  0  0  0  0  0  0  0  0  0  0
   -5.5057   24.9668  -32.4158 H   0  0  0  0  0  0  0  0  0  0  0  0
   -7.1247   24.9187  -31.5874 H   0  0  0  0  0  0  0  0  0  0  0  0
   -5.0396   25.9618  -30.3576 H   0  0  0  0  0  0  0  0  0  0  0  0
   -6.2168   24.8753  -29.4800 H   0  0  0  0  0  0  0  0  0  0  0  0
   -0.5210   25.3458  -28.8626 H   0  0  0  0  0  0  0  0  0  0  0  0
    1.2127   26.5503  -27.5460 H   0  0  0  0  0  0  0  0  0  0  0  0
  1  2  1  0
  2  3  1  0
  3  4  2  0
  4  5  1  0
  5  6  2  0
  6  7  1  0
  7  8  2  0
  8  9  1  0
  9 10  1  0
 10 11  1  0
  9 12  1  0
 12 13  1  0
 13 14  1  0
 14 15  1  0
 15 16  1  0
 16 17  1  0
 17 18  1  0
 18 19  2  0
 18 20  1  0
 20 21  2  0
 21 22  1  0
 22 23  2  0
 23 24  1  0
 23 25  1  0
 25 26  2  0
 14 27  1  0
 27 28  1  0
  6 29  1  0
 29 30  2  0
 30  3  1  0
 11  7  1  0
 26 20  1  0
 28  9  1  0
  1 31  1  0
  1 32  1  0
  1 33  1  0
  4 34  1  0
  5 35  1  0
 10 36  1  0
 10 37  1  0
 11 38  1  0
 11 39  1  0
 12 40  1  0
 12 41  1  0
 13 42  1  0
 13 43  1  0
 15 44  1  0
 15 45  1  0
 16 46  1  0
 16 47  1  0
 17 48  1  0
 17 49  1  0
 21 50  1  0
 22 51  1  0
 25 52  1  0
 26 53  1  0
 27 54  1  0
 27 55  1  0
 28 56  1  0
 28 57  1  0
 29 58  1  0
 30 59  1  0
M  END
>  <UniqueID>  (42) 
41

>  <SMILES>  (42) 
COc1ccc(C2=NC3(CC2)CCN(CCCC(=O)c2ccc(F)cc2)CC3)cc1

>  <Energy>  (42) 
80.39018350010014

>  <Genealogy>  (42) 
COc1ccc(C2=NC3(CC2)CCN(CCCC(=O)c2ccc(F)cc2)CC3)cc1 (3D coordinates assigned)
COc1ccc(C2=NC3(CC2)CCN(CCCC(=O)c2ccc(F)cc2)CC3)cc1 (nonaromatic ring conformer: 80.39018350010014 kcal/mol)

>  <smiles>  (42) 
COc1ccc(C2=NC3(CC2)CCN(CCCC(=O)c2ccc(F)cc2)CC3)cc1

>  <score_type>  (42) 
oracle

>  <origin>  (42) 
adg

>  <m_score__min__energy>  (42) 
-10.08

>  <m_primary>  (42) 
energy

$$$$
42:0
     RDKit          3D

 32 34  0  0  1  0  0  0  0  0999 V2000
   -5.6200   16.5130  -34.0350 O   0  0  0  0  0  0  0  0  0  0  0  0
   -6.9180   16.9020  -33.7130 N   0  0  0  0  0  0  0  0  0  0  0  0
   -7.0570   17.6460  -32.6760 C   0  0  0  0  0  0  0  0  0  0  0  0
   -5.9960   17.7610  -31.7870 O   0  0  0  0  0  0  0  0  0  0  0  0
   -8.3040   18.3620  -32.4290 C   0  0  0  0  0  0  0  0  0  0  0  0
   -8.3840   19.6590  -32.6730 C   0  0  0  0  0  0  0  0  0  0  0  0
   -7.4950   20.6490  -32.0820 C   0  0  0  0  0  0  0  0  0  0  0  0
   -7.9300   21.6860  -31.2850 C   0  0  0  0  0  0  0  0  0  0  0  0
   -7.0230   22.5920  -30.7580 C   0  0  0  0  0  0  0  0  0  0  0  0
   -5.6770   22.4870  -31.0110 C   0  0  0  0  0  0  0  0  0  0  0  0
   -4.6650   23.3920  -30.5180 C   0  0  0  0  0  0  0  0  0  0  0  0
   -4.6110   24.6950  -30.8550 N   0  0  0  0  0  0  0  0  0  0  0  0
   -3.6050   25.2930  -30.2640 O   0  0  0  0  0  0  0  0  0  0  0  0
   -2.9690   24.4070  -29.5240 C   0  0  0  0  0  0  0  0  0  0  0  0
   -1.8550   24.4800  -28.6960 C   0  0  0  0  0  0  0  0  0  0  0  0
   -1.0010   25.9880  -28.4870 Cl  0  0  0  0  0  0  0  0  0  0  0  0
   -1.4020   23.3460  -28.0200 C   0  0  0  0  0  0  0  0  0  0  0  0
   -2.0630   22.1350  -28.1690 C   0  0  0  0  0  0  0  0  0  0  0  0
   -3.1680   22.0760  -28.9930 C   0  0  0  0  0  0  0  0  0  0  0  0
   -3.8110   20.8910  -29.1190 F   0  0  0  0  0  0  0  0  0  0  0  0
   -3.6090   23.1980  -29.6580 C   0  0  0  0  0  0  0  0  0  0  0  0
   -5.2690   21.4360  -31.8150 C   0  0  0  0  0  0  0  0  0  0  0  0
   -6.1710   20.5750  -32.3100 N   0  0  0  0  0  0  0  0  0  0  0  0
   -4.9190   16.6830  -33.3220 H   0  0  0  0  0  0  0  0  0  0  0  0
   -5.5420   18.6480  -31.5610 H   0  0  0  0  0  0  0  0  0  0  0  0
   -9.1793   17.8218  -32.0390 H   0  0  0  0  0  0  0  0  0  0  0  0
   -9.1667   20.0100  -33.3616 H   0  0  0  0  0  0  0  0  0  0  0  0
   -9.0024   21.7951  -31.0661 H   0  0  0  0  0  0  0  0  0  0  0  0
   -7.3890   23.4127  -30.1235 H   0  0  0  0  0  0  0  0  0  0  0  0
   -0.5189   23.4124  -27.3676 H   0  0  0  0  0  0  0  0  0  0  0  0
   -1.7119   21.2373  -27.6391 H   0  0  0  0  0  0  0  0  0  0  0  0
   -4.2019   21.3066  -32.0486 H   0  0  0  0  0  0  0  0  0  0  0  0
  1  2  1  0
  2  3  2  0
  3  4  1  0
  3  5  1  0
  5  6  2  0
  6  7  1  0
  7  8  2  0
  8  9  1  0
  9 10  2  0
 10 11  1  0
 11 12  2  0
 12 13  1  0
 13 14  1  0
 14 15  2  0
 15 16  1  0
 15 17  1  0
 17 18  2  0
 18 19  1  0
 19 20  1  0
 19 21  2  0
 10 22  1  0
 22 23  2  0
 23  7  1  0
 21 11  1  0
 21 14  1  0
  1 24  1  0
  4 25  1  0
  5 26  1  0
  6 27  1  0
  8 28  1  0
  9 29  1  0
 17 30  1  0
 18 31  1  0
 22 32  1  0
M  END
>  <smiles>  (43) 
ON=C(O)C=Cc1ccc(-c2noc3c(Cl)ccc(F)c23)cn1

>  <score_type>  (43) 
oracle

>  <origin>  (43) 
adg

>  <m_score__min__energy>  (43) 
-9.3599999999999994

>  <m_primary>  (43) 
energy

$$$$
43:0
     RDKit          3D

 41 43  0  0  0  0  0  0  0  0999 V2000
   -3.0090   18.2600  -34.2300 C   0  0  0  0  0  0  0  0  0  0  0  0
   -3.0080   19.5330  -33.4500 C   0  0  0  0  0  0  0  0  0  0  0  0
   -2.3720   20.7070  -33.7970 C   0  0  0  0  0  0  0  0  0  0  0  0
   -2.5450   21.5600  -32.8130 O   0  0  0  0  0  0  0  0  0  0  0  0
   -3.2450   20.9460  -31.8820 C   0  0  0  0  0  0  0  0  0  0  0  0
   -3.6780   21.5870  -30.6010 C   0  0  0  0  0  0  0  0  0  0  0  0
   -4.9940   22.2320  -30.7860 N   0  0  0  0  0  0  0  0  0  0  0  0
   -5.1180   23.4160  -29.9060 C   0  0  0  0  0  0  0  0  0  0  0  0
   -6.5720   23.8970  -29.7340 C   0  0  0  0  0  0  0  0  0  0  0  0
   -7.6180   22.8180  -30.0640 C   0  0  0  0  0  0  0  0  0  0  0  0
   -7.6200   22.4200  -31.4870 N   0  0  0  0  0  0  0  0  0  0  0  0
   -8.3540   21.2490  -31.8970 C   0  0  0  0  0  0  0  0  0  0  0  0
   -9.6160   21.2670  -31.8780 O   0  0  0  0  0  0  0  0  0  0  0  0
   -7.6650   20.0160  -32.3350 C   0  0  0  0  0  0  0  0  0  0  0  0
   -7.6890   18.8220  -31.5930 C   0  0  0  0  0  0  0  0  0  0  0  0
   -6.9420   17.7980  -32.1600 C   0  0  0  0  0  0  0  0  0  0  0  0
   -6.2380   18.3840  -33.5670 S   0  0  0  0  0  0  0  0  0  0  0  0
   -6.8780   19.9360  -33.4800 C   0  0  0  0  0  0  0  0  0  0  0  0
   -6.6870   23.0430  -32.4380 C   0  0  0  0  0  0  0  0  0  0  0  0
   -5.2360   22.5660  -32.2110 C   0  0  0  0  0  0  0  0  0  0  0  0
   -3.5490   19.6810  -32.2280 N   0  0  0  0  0  0  0  0  0  0  0  0
   -3.0097   17.4055  -33.5373 H   0  0  0  0  0  0  0  0  0  0  0  0
   -3.9072   18.2190  -34.8637 H   0  0  0  0  0  0  0  0  0  0  0  0
   -2.1109   18.2176  -34.8637 H   0  0  0  0  0  0  0  0  0  0  0  0
   -1.8196   20.8950  -34.7295 H   0  0  0  0  0  0  0  0  0  0  0  0
   -3.7539   20.8202  -29.8160 H   0  0  0  0  0  0  0  0  0  0  0  0
   -2.9388   22.3463  -30.3060 H   0  0  0  0  0  0  0  0  0  0  0  0
   -4.7158   23.1584  -28.9151 H   0  0  0  0  0  0  0  0  0  0  0  0
   -4.5574   24.2350  -30.3803 H   0  0  0  0  0  0  0  0  0  0  0  0
   -6.7136   24.2114  -28.6894 H   0  0  0  0  0  0  0  0  0  0  0  0
   -6.7254   24.7241  -30.4428 H   0  0  0  0  0  0  0  0  0  0  0  0
   -7.4060   21.9281  -29.4531 H   0  0  0  0  0  0  0  0  0  0  0  0
   -8.6072   23.2461  -29.8446 H   0  0  0  0  0  0  0  0  0  0  0  0
   -8.2471   18.7096  -30.6518 H   0  0  0  0  0  0  0  0  0  0  0  0
   -6.8309   16.7803  -31.7575 H   0  0  0  0  0  0  0  0  0  0  0  0
   -6.7049   20.7472  -34.2024 H   0  0  0  0  0  0  0  0  0  0  0  0
   -6.9927   22.7799  -33.4614 H   0  0  0  0  0  0  0  0  0  0  0  0
   -6.7177   24.1318  -32.2848 H   0  0  0  0  0  0  0  0  0  0  0  0
   -5.0529   21.6716  -32.8246 H   0  0  0  0  0  0  0  0  0  0  0  0
   -4.5545   23.3808  -32.4967 H   0  0  0  0  0  0  0  0  0  0  0  0
   -4.0880   18.9780  -31.6750 H   0  0  0  0  0  0  0  0  0  0  0  0
  1  2  1  0
  2  3  2  0
  3  4  1  0
  4  5  1  0
  5  6  1  0
  6  7  1  0
  7  8  1  0
  8  9  1  0
  9 10  1  0
 10 11  1  0
 11 12  1  0
 12 13  2  0
 12 14  1  0
 14 15  1  0
 15 16  2  0
 16 17  1  0
 17 18  1  0
 11 19  1  0
 19 20  1  0
  5 21  2  0
 21  2  1  0
 20  7  1  0
 18 14  2  0
  1 22  1  0
  1 23  1  0
  1 24  1  0
  3 25  1  0
  6 26  1  0
  6 27  1  0
  8 28  1  0
  8 29  1  0
  9 30  1  0
  9 31  1  0
 10 32  1  0
 10 33  1  0
 15 34  1  0
 16 35  1  0
 18 36  1  0
 19 37  1  0
 19 38  1  0
 20 39  1  0
 20 40  1  0
 21 41  1  0
M  CHG  1  21   1
M  END
>  <UniqueID>  (44) 
42

>  <SMILES>  (44) 
Cc1coc(CN2CCCN(C(=O)c3ccsc3)CC2)[nH+]1

>  <Energy>  (44) 
107.2932401176481

>  <Genealogy>  (44) 
Cc1coc(CN2CCCN(C(=O)c3ccsc3)CC2)[nH+]1 (protonated)
Cc1coc(CN2CCCN(C(=O)c3ccsc3)CC2)[nH+]1 (3D coordinates assigned)
Cc1coc(CN2CCCN(C(=O)c3ccsc3)CC2)[nH+]1 (nonaromatic ring conformer: 107.2932401176481 kcal/mol)

>  <smiles>  (44) 
Cc1coc(CN2CCCN(C(=O)c3ccsc3)CC2)n1

>  <score_type>  (44) 
oracle

>  <origin>  (44) 
adg

>  <m_score__min__energy>  (44) 
-5.4400000000000004

>  <m_primary>  (44) 
energy

$$$$
44:0
     RDKit          3D

 46 49  0  0  0  0  0  0  0  0999 V2000
   -9.0700   20.5860  -32.1600 C   0  0  0  0  0  0  0  0  0  0  0  0
   -9.2310   21.8760  -31.6470 C   0  0  0  0  0  0  0  0  0  0  0  0
   -8.1610   22.7770  -31.6660 C   0  0  0  0  0  0  0  0  0  0  0  0
   -6.9160   22.3890  -32.1900 C   0  0  0  0  0  0  0  0  0  0  0  0
   -5.7570   23.3650  -32.2130 C   0  0  0  0  0  0  0  0  0  0  0  0
   -4.9260   23.3420  -30.9880 N   0  0  0  0  0  0  0  0  0  0  0  0
   -4.7450   21.9950  -30.4220 C   0  0  0  0  0  0  0  0  0  0  0  0
   -3.5490   21.9850  -29.4510 C   0  0  0  0  0  0  0  0  0  0  0  0
   -3.2940   23.3590  -28.7790 C   0  0  0  0  0  0  0  0  0  0  0  0
   -2.2310   24.1880  -29.5350 C   0  0  0  0  0  0  0  0  0  0  0  0
   -1.9040   25.3790  -28.8180 O   0  0  0  0  0  0  0  0  0  0  0  0
   -1.5600   25.4370  -27.4590 C   0  0  0  0  0  0  0  0  0  0  0  0
   -2.3770   25.9950  -26.5100 N   0  0  0  0  0  0  0  0  0  0  0  0
   -2.0070   26.0310  -25.1920 C   0  0  0  0  0  0  0  0  0  0  0  0
   -0.8090   25.5140  -24.7920 N   0  0  0  0  0  0  0  0  0  0  0  0
    0.0170   24.9600  -25.7110 C   0  0  0  0  0  0  0  0  0  0  0  0
    1.2630   24.3960  -25.4410 C   0  0  0  0  0  0  0  0  0  0  0  0
    1.8830   23.9030  -26.5890 C   0  0  0  0  0  0  0  0  0  0  0  0
    0.8750   24.1740  -27.9250 S   0  0  0  0  0  0  0  0  0  0  0  0
   -0.3420   24.9170  -27.0400 C   0  0  0  0  0  0  0  0  0  0  0  0
   -4.6090   24.1480  -28.6290 C   0  0  0  0  0  0  0  0  0  0  0  0
   -5.3620   24.3190  -29.9670 C   0  0  0  0  0  0  0  0  0  0  0  0
   -6.7680   21.0940  -32.7170 C   0  0  0  0  0  0  0  0  0  0  0  0
   -7.8400   20.1970  -32.6960 C   0  0  0  0  0  0  0  0  0  0  0  0
   -9.9112   19.8775  -32.1417 H   0  0  0  0  0  0  0  0  0  0  0  0
  -10.2004   22.1833  -31.2277 H   0  0  0  0  0  0  0  0  0  0  0  0
   -8.2948   23.7941  -31.2689 H   0  0  0  0  0  0  0  0  0  0  0  0
   -5.1146   23.1190  -33.0714 H   0  0  0  0  0  0  0  0  0  0  0  0
   -6.1913   24.3731  -32.2841 H   0  0  0  0  0  0  0  0  0  0  0  0
   -5.6563   21.7028  -29.8797 H   0  0  0  0  0  0  0  0  0  0  0  0
   -4.5514   21.2843  -31.2389 H   0  0  0  0  0  0  0  0  0  0  0  0
   -3.7445   21.2420  -28.6637 H   0  0  0  0  0  0  0  0  0  0  0  0
   -2.6530   21.7386  -30.0397 H   0  0  0  0  0  0  0  0  0  0  0  0
   -2.8921   23.1613  -27.7743 H   0  0  0  0  0  0  0  0  0  0  0  0
   -1.3219   23.5809  -29.6573 H   0  0  0  0  0  0  0  0  0  0  0  0
   -2.6407   24.4714  -30.5157 H   0  0  0  0  0  0  0  0  0  0  0  0
   -3.2980   26.4090  -26.7690 H   0  0  0  0  0  0  0  0  0  0  0  0
   -2.6817   26.4808  -24.4488 H   0  0  0  0  0  0  0  0  0  0  0  0
    1.7071   24.3455  -24.4359 H   0  0  0  0  0  0  0  0  0  0  0  0
    2.8688   23.4160  -26.6223 H   0  0  0  0  0  0  0  0  0  0  0  0
   -5.2619   23.6118  -27.9246 H   0  0  0  0  0  0  0  0  0  0  0  0
   -4.3517   25.1531  -28.2636 H   0  0  0  0  0  0  0  0  0  0  0  0
   -6.4386   24.1843  -29.7862 H   0  0  0  0  0  0  0  0  0  0  0  0
   -5.1406   25.3260  -30.3502 H   0  0  0  0  0  0  0  0  0  0  0  0
   -5.8042   20.7852  -33.1479 H   0  0  0  0  0  0  0  0  0  0  0  0
   -7.7147   19.1826  -33.1025 H   0  0  0  0  0  0  0  0  0  0  0  0
  1  2  2  0
  2  3  1  0
  3  4  2  0
  4  5  1  0
  5  6  1  0
  6  7  1  0
  7  8  1  0
  8  9  1  0
  9 10  1  0
 10 11  1  0
 11 12  1  0
 12 13  2  0
 13 14  1  0
 14 15  2  0
 15 16  1  0
 16 17  1  0
 17 18  2  0
 18 19  1  0
 19 20  1  0
  9 21  1  0
 21 22  1  0
  4 23  1  0
 23 24  2  0
 24  1  1  0
 22  6  1  0
 20 12  1  0
 20 16  2  0
  1 25  1  0
  2 26  1  0
  3 27  1  0
  5 28  1  0
  5 29  1  0
  7 30  1  0
  7 31  1  0
  8 32  1  0
  8 33  1  0
  9 34  1  0
 10 35  1  0
 10 36  1  0
 13 37  1  0
 14 38  1  0
 17 39  1  0
 18 40  1  0
 21 41  1  0
 21 42  1  0
 22 43  1  0
 22 44  1  0
 23 45  1  0
 24 46  1  0
M  CHG  1  13   1
M  END
>  <UniqueID>  (45) 
43

>  <SMILES>  (45) 
c1ccc(CN2CCC(COc3[nH+]cnc4ccsc34)CC2)cc1

>  <Energy>  (45) 
89.73687440143539

>  <Genealogy>  (45) 
c1ccc(CN2CCC(COc3[nH+]cnc4ccsc34)CC2)cc1 (protonated)
c1ccc(CN2CCC(COc3[nH+]cnc4ccsc34)CC2)cc1 (3D coordinates assigned)
c1ccc(CN2CCC(COc3[nH+]cnc4ccsc34)CC2)cc1 (nonaromatic ring conformer: 89.73687440143539 kcal/mol)

>  <smiles>  (45) 
c1ccc(CN2CCC(COc3ncnc4ccsc34)CC2)cc1

>  <score_type>  (45) 
oracle

>  <origin>  (45) 
adg

>  <m_score__min__energy>  (45) 
-7.8600000000000003

>  <m_primary>  (45) 
energy

$$$$
45:0
     RDKit          3D

 51 53  0  0  0  0  0  0  0  0999 V2000
   -1.2460   25.7120  -27.7150 C   0  0  0  0  0  0  0  0  0  0  0  0
   -1.9790   25.6530  -28.9340 O   0  0  0  0  0  0  0  0  0  0  0  0
   -2.7550   24.5580  -29.3420 C   0  0  0  0  0  0  0  0  0  0  0  0
   -2.3340   23.2270  -29.1650 C   0  0  0  0  0  0  0  0  0  0  0  0
   -3.1370   22.1710  -29.6030 C   0  0  0  0  0  0  0  0  0  0  0  0
   -4.3690   22.4290  -30.2100 C   0  0  0  0  0  0  0  0  0  0  0  0
   -4.8040   23.7510  -30.3880 C   0  0  0  0  0  0  0  0  0  0  0  0
   -6.1290   24.0410  -31.0410 C   0  0  0  0  0  0  0  0  0  0  0  0
   -7.2110   24.0350  -30.0420 N   0  0  0  0  0  0  0  0  0  0  0  0
   -7.5280   22.6800  -29.5640 C   0  0  0  0  0  0  0  0  0  0  0  0
   -7.9520   21.7800  -30.6950 C   0  0  0  0  0  0  0  0  0  0  0  0
   -9.2460   21.8720  -31.2310 C   0  0  0  0  0  0  0  0  0  0  0  0
   -9.6290   21.0500  -32.2950 C   0  0  0  0  0  0  0  0  0  0  0  0
   -8.7220   20.1380  -32.8380 C   0  0  0  0  0  0  0  0  0  0  0  0
   -7.4220   20.0380  -32.3190 C   0  0  0  0  0  0  0  0  0  0  0  0
   -6.4890   19.0840  -32.8690 N   0  0  0  0  0  0  0  0  0  0  0  0
   -5.2660   19.4950  -33.3550 C   0  0  0  0  0  0  0  0  0  0  0  0
   -4.8720   20.9520  -33.3900 C   0  0  0  0  0  0  0  0  0  0  0  0
   -4.3410   18.5440  -33.8130 C   0  0  0  0  0  0  0  0  0  0  0  0
   -4.6670   17.1900  -33.8190 C   0  0  0  0  0  0  0  0  0  0  0  0
   -3.7130   16.2740  -34.2870 O   0  0  0  0  0  0  0  0  0  0  0  0
   -3.4900   14.9860  -33.7210 C   0  0  0  0  0  0  0  0  0  0  0  0
   -5.9300   16.7950  -33.3630 C   0  0  0  0  0  0  0  0  0  0  0  0
   -6.8310   17.7540  -32.8940 C   0  0  0  0  0  0  0  0  0  0  0  0
   -7.9640   17.3740  -32.4880 O   0  0  0  0  0  0  0  0  0  0  0  0
   -7.0440   20.8590  -31.2440 C   0  0  0  0  0  0  0  0  0  0  0  0
   -3.9910   24.8090  -29.9500 C   0  0  0  0  0  0  0  0  0  0  0  0
   -1.9424   25.6559  -26.8653 H   0  0  0  0  0  0  0  0  0  0  0  0
   -0.5426   24.8676  -27.6689 H   0  0  0  0  0  0  0  0  0  0  0  0
   -0.6867   26.6581  -27.6689 H   0  0  0  0  0  0  0  0  0  0  0  0
   -1.3692   23.0173  -28.6800 H   0  0  0  0  0  0  0  0  0  0  0  0
   -2.7983   21.1330  -29.4696 H   0  0  0  0  0  0  0  0  0  0  0  0
   -4.9992   21.5936  -30.5491 H   0  0  0  0  0  0  0  0  0  0  0  0
   -6.0864   25.0293  -31.5220 H   0  0  0  0  0  0  0  0  0  0  0  0
   -6.3334   23.2619  -31.7902 H   0  0  0  0  0  0  0  0  0  0  0  0
   -6.8760   24.5810  -29.2130 H   0  0  0  0  0  0  0  0  0  0  0  0
   -6.6357   22.2530  -29.0828 H   0  0  0  0  0  0  0  0  0  0  0  0
   -8.3616   22.7525  -28.8499 H   0  0  0  0  0  0  0  0  0  0  0  0
   -9.9621   22.5942  -30.8119 H   0  0  0  0  0  0  0  0  0  0  0  0
  -10.6471   21.1219  -32.7052 H   0  0  0  0  0  0  0  0  0  0  0  0
   -9.0278   19.4949  -33.6764 H   0  0  0  0  0  0  0  0  0  0  0  0
   -4.7700   21.3291  -32.3617 H   0  0  0  0  0  0  0  0  0  0  0  0
   -3.9124   21.0598  -33.9169 H   0  0  0  0  0  0  0  0  0  0  0  0
   -5.6465   21.5287  -33.9169 H   0  0  0  0  0  0  0  0  0  0  0  0
   -3.3527   18.8700  -34.1693 H   0  0  0  0  0  0  0  0  0  0  0  0
   -3.5029   15.0605  -32.6236 H   0  0  0  0  0  0  0  0  0  0  0  0
   -4.2824   14.2982  -34.0512 H   0  0  0  0  0  0  0  0  0  0  0  0
   -2.5125   14.6047  -34.0512 H   0  0  0  0  0  0  0  0  0  0  0  0
   -6.2124   15.7319  -33.3739 H   0  0  0  0  0  0  0  0  0  0  0  0
   -6.0286   20.7803  -30.8284 H   0  0  0  0  0  0  0  0  0  0  0  0
   -4.3291   25.8468  -30.0862 H   0  0  0  0  0  0  0  0  0  0  0  0
  1  2  1  0
  2  3  1  0
  3  4  2  0
  4  5  1  0
  5  6  2  0
  6  7  1  0
  7  8  1  0
  8  9  1  0
  9 10  1  0
 10 11  1  0
 11 12  2  0
 12 13  1  0
 13 14  2  0
 14 15  1  0
 15 16  1  0
 16 17  1  0
 17 18  1  0
 17 19  2  0
 19 20  1  0
 20 21  1  0
 21 22  1  0
 20 23  2  0
 23 24  1  0
 24 25  2  0
 15 26  2  0
  7 27  2  0
 27  3  1  0
 26 11  1  0
 24 16  1  0
  1 28  1  0
  1 29  1  0
  1 30  1  0
  4 31  1  0
  5 32  1  0
  6 33  1  0
  8 34  1  0
  8 35  1  0
  9 36  1  0
 10 37  1  0
 10 38  1  0
 12 39  1  0
 13 40  1  0
 14 41  1  0
 18 42  1  0
 18 43  1  0
 18 44  1  0
 19 45  1  0
 22 46  1  0
 22 47  1  0
 22 48  1  0
 23 49  1  0
 26 50  1  0
 27 51  1  0
M  END
>  <UniqueID>  (46) 
44

>  <SMILES>  (46) 
COc1cccc(CNCc2cccc(-n3c(C)cc(OC)cc3=O)c2)c1

>  <Energy>  (46) 
57.38939944178689

>  <Genealogy>  (46) 
COc1cccc(CNCc2cccc(-n3c(C)cc(OC)cc3=O)c2)c1 (3D coordinates assigned)
COc1cccc(CNCc2cccc(-n3c(C)cc(OC)cc3=O)c2)c1 (optimized conformer: 57.38939944178689 kcal/mol)

>  <smiles>  (46) 
COc1cccc(CNCc2cccc(-n3c(C)cc(OC)cc3=O)c2)c1

>  <score_type>  (46) 
oracle

>  <origin>  (46) 
adg

>  <m_score__min__energy>  (46) 
-8.9499999999999993

>  <m_primary>  (46) 
energy

$$$$
46:0
     RDKit          3D

 64 68  0  0  0  0  0  0  0  0999 V2000
    1.0440   17.9410  -31.1040 C   0  0  0  0  0  0  0  0  0  0  0  0
    0.5060   18.2340  -29.7680 N   0  0  0  0  0  0  0  0  0  0  0  0
    0.9740   19.5520  -29.3020 C   0  0  0  0  0  0  0  0  0  0  0  0
    0.5560   19.8310  -27.8410 C   0  0  0  0  0  0  0  0  0  0  0  0
   -0.3060   18.7790  -27.2630 N   0  0  0  0  0  0  0  0  0  0  0  0
   -1.7640   18.9820  -27.4340 C   0  0  0  0  0  0  0  0  0  0  0  0
   -2.1270   20.3220  -28.0300 C   0  0  0  0  0  0  0  0  0  0  0  0
   -2.1430   20.5040  -29.4230 C   0  0  0  0  0  0  0  0  0  0  0  0
   -2.4320   21.7570  -29.9680 C   0  0  0  0  0  0  0  0  0  0  0  0
   -2.7350   22.8400  -29.1350 C   0  0  0  0  0  0  0  0  0  0  0  0
   -3.0140   24.1160  -29.7310 N   0  0  0  0  0  0  0  0  0  0  0  0
   -4.1770   24.4590  -30.4960 C   0  0  0  0  0  0  0  0  0  0  0  0
   -4.3830   25.6740  -30.7630 O   0  0  0  0  0  0  0  0  0  0  0  0
   -5.0970   23.4240  -31.0390 C   0  0  0  0  0  0  0  0  0  0  0  0
   -4.6240   22.4980  -31.9750 C   0  0  0  0  0  0  0  0  0  0  0  0
   -5.4280   21.5200  -32.4990 N   0  0  0  0  0  0  0  0  0  0  0  0
   -4.7860   20.6080  -33.4690 C   0  0  0  0  0  0  0  0  0  0  0  0
   -5.2680   19.1890  -33.2700 C   0  0  0  0  0  0  0  0  0  0  0  0
   -5.6330   18.4050  -34.3780 C   0  0  0  0  0  0  0  0  0  0  0  0
   -6.0480   17.0810  -34.2030 C   0  0  0  0  0  0  0  0  0  0  0  0
   -6.0970   16.5260  -32.9230 C   0  0  0  0  0  0  0  0  0  0  0  0
   -5.7340   17.2930  -31.8150 C   0  0  0  0  0  0  0  0  0  0  0  0
   -5.3180   18.6190  -31.9820 C   0  0  0  0  0  0  0  0  0  0  0  0
   -4.9720   19.3410  -30.8850 F   0  0  0  0  0  0  0  0  0  0  0  0
   -6.7630   21.4500  -32.1370 C   0  0  0  0  0  0  0  0  0  0  0  0
   -7.6470   20.4760  -32.6660 C   0  0  0  0  0  0  0  0  0  0  0  0
   -8.9880   20.4330  -32.2760 C   0  0  0  0  0  0  0  0  0  0  0  0
   -9.4830   21.3500  -31.3560 C   0  0  0  0  0  0  0  0  0  0  0  0
   -8.6410   22.3200  -30.8170 C   0  0  0  0  0  0  0  0  0  0  0  0
   -7.2850   22.3850  -31.1970 C   0  0  0  0  0  0  0  0  0  0  0  0
   -6.4400   23.3670  -30.6510 C   0  0  0  0  0  0  0  0  0  0  0  0
   -6.8870   24.1880  -29.8020 O   0  0  0  0  0  0  0  0  0  0  0  0
   -2.7150   22.6630  -27.7420 C   0  0  0  0  0  0  0  0  0  0  0  0
   -2.4280   21.4100  -27.1940 C   0  0  0  0  0  0  0  0  0  0  0  0
    0.1770   17.3950  -27.4670 C   0  0  0  0  0  0  0  0  0  0  0  0
    0.9030   17.1940  -28.8090 C   0  0  0  0  0  0  0  0  0  0  0  0
    2.0061   17.4170  -31.0050 H   0  0  0  0  0  0  0  0  0  0  0  0
    0.3347   17.3046  -31.6534 H   0  0  0  0  0  0  0  0  0  0  0  0
    1.1938   18.8821  -31.6534 H   0  0  0  0  0  0  0  0  0  0  0  0
    2.0715   19.5835  -29.3696 H   0  0  0  0  0  0  0  0  0  0  0  0
    0.5139   20.3210  -29.9399 H   0  0  0  0  0  0  0  0  0  0  0  0
    1.4658   19.9114  -27.2279 H   0  0  0  0  0  0  0  0  0  0  0  0
   -0.0288   20.7627  -27.8442 H   0  0  0  0  0  0  0  0  0  0  0  0
   -2.1489   18.1922  -28.0959 H   0  0  0  0  0  0  0  0  0  0  0  0
   -2.2126   18.9455  -26.4303 H   0  0  0  0  0  0  0  0  0  0  0  0
   -1.9267   19.6549  -30.0881 H   0  0  0  0  0  0  0  0  0  0  0  0
   -2.4214   21.8936  -31.0594 H   0  0  0  0  0  0  0  0  0  0  0  0
   -3.5748   22.5568  -32.3001 H   0  0  0  0  0  0  0  0  0  0  0  0
   -5.0347   20.9338  -34.4898 H   0  0  0  0  0  0  0  0  0  0  0  0
   -3.6975   20.6363  -33.3132 H   0  0  0  0  0  0  0  0  0  0  0  0
   -5.5920   18.8356  -35.3894 H   0  0  0  0  0  0  0  0  0  0  0  0
   -6.3363   16.4760  -35.0753 H   0  0  0  0  0  0  0  0  0  0  0  0
   -6.4218   15.4838  -32.7877 H   0  0  0  0  0  0  0  0  0  0  0  0
   -5.7749   16.8541  -30.8072 H   0  0  0  0  0  0  0  0  0  0  0  0
   -7.2713   19.7427  -33.3948 H   0  0  0  0  0  0  0  0  0  0  0  0
   -9.6562   19.6688  -32.6996 H   0  0  0  0  0  0  0  0  0  0  0  0
  -10.5398   21.3097  -31.0536 H   0  0  0  0  0  0  0  0  0  0  0  0
   -9.0378   23.0420  -30.0881 H   0  0  0  0  0  0  0  0  0  0  0  0
   -2.9263   23.5149  -27.0790 H   0  0  0  0  0  0  0  0  0  0  0  0
   -2.4378   21.2749  -26.1024 H   0  0  0  0  0  0  0  0  0  0  0  0
    0.8731   17.1448  -26.6528 H   0  0  0  0  0  0  0  0  0  0  0  0
   -0.7065   16.7398  -27.4738 H   0  0  0  0  0  0  0  0  0  0  0  0
    1.9893   17.2482  -28.6449 H   0  0  0  0  0  0  0  0  0  0  0  0
    0.6306   16.2097  -29.2176 H   0  0  0  0  0  0  0  0  0  0  0  0
  1  2  1  0
  2  3  1  0
  3  4  1  0
  4  5  1  0
  5  6  1  0
  6  7  1  0
  7  8  2  0
  8  9  1  0
  9 10  2  0
 10 11  1  0
 11 12  1  0
 12 13  2  0
 12 14  1  0
 14 15  2  0
 15 16  1  0
 16 17  1  0
 17 18  1  0
 18 19  2  0
 19 20  1  0
 20 21  2  0
 21 22  1  0
 22 23  2  0
 23 24  1  0
 16 25  1  0
 25 26  2  0
 26 27  1  0
 27 28  2  0
 28 29  1  0
 29 30  2  0
 30 31  1  0
 31 32  2  0
 10 33  1  0
 33 34  2  0
  5 35  1  0
 35 36  1  0
 36  2  1  0
 34  7  1  0
 31 14  1  0
 23 18  1  0
 30 25  1  0
  1 37  1  0
  1 38  1  0
  1 39  1  0
  3 40  1  0
  3 41  1  0
  4 42  1  0
  4 43  1  0
  6 44  1  0
  6 45  1  0
  8 46  1  0
  9 47  1  0
 15 48  1  0
 17 49  1  0
 17 50  1  0
 19 51  1  0
 20 52  1  0
 21 53  1  0
 22 54  1  0
 26 55  1  0
 27 56  1  0
 28 57  1  0
 29 58  1  0
 33 59  1  0
 34 60  1  0
 35 61  1  0
 35 62  1  0
 36 63  1  0
 36 64  1  0
M  CHG  1  11  -1
M  END
>  <UniqueID>  (47) 
45

>  <SMILES>  (47) 
CN1CCN(Cc2ccc([N-]C(=O)c3cn(Cc4ccccc4F)c4ccccc4c3=O)cc2)CC1

>  <Energy>  (47) 
101.26827858402218

>  <Genealogy>  (47) 
CN1CCN(Cc2ccc([N-]C(=O)c3cn(Cc4ccccc4F)c4ccccc4c3=O)cc2)CC1 (protonated)
CN1CCN(Cc2ccc([N-]C(=O)c3cn(Cc4ccccc4F)c4ccccc4c3=O)cc2)CC1 (3D coordinates assigned)
CN1CCN(Cc2ccc([N-]C(=O)c3cn(Cc4ccccc4F)c4ccccc4c3=O)cc2)CC1 (nonaromatic ring conformer: 101.26827858402218 kcal/mol)

>  <smiles>  (47) 
CN1CCN(Cc2ccc(NC(=O)c3cn(Cc4ccccc4F)c4ccccc4c3=O)cc2)CC1

>  <score_type>  (47) 
oracle

>  <origin>  (47) 
adg

>  <m_score__min__energy>  (47) 
-12.140000000000001

>  <m_primary>  (47) 
energy

$$$$
47:0
     RDKit          3D

 53 58  0  0  1  0  0  0  0  0999 V2000
   -3.7930   24.9460  -26.3330 N   0  0  0  0  0  0  0  0  0  0  0  0
   -3.6430   24.2030  -27.3790 C   0  0  0  0  0  0  0  0  0  0  0  0
   -4.1410   24.5640  -28.5960 N   0  0  0  0  0  0  0  0  0  0  0  0
   -3.9760   23.7800  -29.6810 C   0  0  0  0  0  0  0  0  0  0  0  0
   -4.4670   24.1710  -30.7960 N   0  0  0  0  0  0  0  0  0  0  0  0
   -5.7820   23.7340  -31.1870 C   0  0  0  0  0  0  0  0  0  0  0  0
   -5.8370   23.3100  -32.6390 C   0  0  0  0  0  0  0  0  0  0  0  0
   -6.1040   21.8650  -32.7360 N   0  0  0  0  0  0  0  0  0  0  0  0
   -5.1480   20.9930  -33.0970 C   0  0  0  0  0  0  0  0  0  0  0  0
   -5.5120   19.6650  -33.1540 C   0  0  0  0  0  0  0  0  0  0  0  0
   -4.4940   18.6860  -33.5450 C   0  0  0  0  0  0  0  0  0  0  0  0
   -4.7140   17.7730  -34.5520 C   0  0  0  0  0  0  0  0  0  0  0  0
   -3.7660   16.8370  -34.9400 C   0  0  0  0  0  0  0  0  0  0  0  0
   -2.5590   16.8430  -34.2720 C   0  0  0  0  0  0  0  0  0  0  0  0
   -2.2910   17.7360  -33.2600 C   0  0  0  0  0  0  0  0  0  0  0  0
   -3.2600   18.6690  -32.8850 C   0  0  0  0  0  0  0  0  0  0  0  0
   -6.7710   19.1940  -32.8700 C   0  0  0  0  0  0  0  0  0  0  0  0
   -7.0030   17.9790  -32.9500 O   0  0  0  0  0  0  0  0  0  0  0  0
   -7.7730   20.1330  -32.4890 C   0  0  0  0  0  0  0  0  0  0  0  0
   -9.0400   19.8690  -32.1770 C   0  0  0  0  0  0  0  0  0  0  0  0
   -9.5630   18.6810  -32.1760 O   0  0  0  0  0  0  0  0  0  0  0  0
   -9.8630   20.8890  -31.8360 N   0  0  0  0  0  0  0  0  0  0  0  0
   -8.8140   22.3970  -31.9420 S   0  0  0  0  0  0  0  0  0  0  0  0
   -7.3130   21.4160  -32.4630 C   0  0  0  0  0  0  0  0  0  0  0  0
   -3.2840   22.6050  -29.4970 C   0  0  0  0  0  0  0  0  0  0  0  0
   -2.9600   21.6410  -30.3380 N   0  0  0  0  0  0  0  0  0  0  0  0
   -2.2730   20.6900  -29.6820 C   0  0  0  0  0  0  0  0  0  0  0  0
   -2.1570   21.0470  -28.4110 N   0  0  0  0  0  0  0  0  0  0  0  0
   -1.4850   20.2940  -27.3690 C   0  0  0  0  0  0  0  0  0  0  0  0
   -1.2700   18.8440  -27.4580 C   0  0  0  0  0  0  0  0  0  0  0  0
   -2.3800   19.2930  -26.5880 C   0  0  0  0  0  0  0  0  0  0  0  0
   -2.7810   22.2450  -28.2670 C   0  0  0  0  0  0  0  0  0  0  0  0
   -2.9700   23.0550  -27.2170 N   0  0  0  0  0  0  0  0  0  0  0  0
   -4.2200   25.8900  -26.5020 H   0  0  0  0  0  0  0  0  0  0  0  0
   -4.6580   25.4620  -28.6870 H   0  0  0  0  0  0  0  0  0  0  0  0
   -6.0729   22.8800  -30.5576 H   0  0  0  0  0  0  0  0  0  0  0  0
   -6.4713   24.5813  -31.0570 H   0  0  0  0  0  0  0  0  0  0  0  0
   -6.6395   23.8630  -33.1491 H   0  0  0  0  0  0  0  0  0  0  0  0
   -4.8696   23.5294  -33.1144 H   0  0  0  0  0  0  0  0  0  0  0  0
   -4.1259   21.3224  -33.3352 H   0  0  0  0  0  0  0  0  0  0  0  0
   -5.6835   17.7862  -35.0715 H   0  0  0  0  0  0  0  0  0  0  0  0
   -3.9688   16.1188  -35.7481 H   0  0  0  0  0  0  0  0  0  0  0  0
   -1.7878   16.1121  -34.5568 H   0  0  0  0  0  0  0  0  0  0  0  0
   -1.3174   17.7150  -32.7485 H   0  0  0  0  0  0  0  0  0  0  0  0
   -3.0548   19.3858  -32.0762 H   0  0  0  0  0  0  0  0  0  0  0  0
  -10.8600   20.9340  -31.5610 H   0  0  0  0  0  0  0  0  0  0  0  0
   -1.8728   19.7671  -30.1270 H   0  0  0  0  0  0  0  0  0  0  0  0
   -0.8090   21.1363  -27.1600 H   0  0  0  0  0  0  0  0  0  0  0  0
   -1.4988   18.3211  -28.3983 H   0  0  0  0  0  0  0  0  0  0  0  0
   -0.3949   18.1979  -27.2944 H   0  0  0  0  0  0  0  0  0  0  0  0
   -3.4247   19.1285  -26.8904 H   0  0  0  0  0  0  0  0  0  0  0  0
   -2.6696   19.1456  -25.5371 H   0  0  0  0  0  0  0  0  0  0  0  0
   -2.5770   22.7610  -26.2830 H   0  0  0  0  0  0  0  0  0  0  0  0
  1  2  2  3
  2  3  1  0
  3  4  1  0
  4  5  2  0
  5  6  1  0
  6  7  1  0
  7  8  1  0
  8  9  1  0
  9 10  2  0
 10 11  1  0
 11 12  2  0
 12 13  1  0
 13 14  2  0
 14 15  1  0
 15 16  2  0
 10 17  1  0
 17 18  2  0
 17 19  1  0
 19 20  1  0
 20 21  2  0
 20 22  1  0
 22 23  1  0
 23 24  1  0
  4 25  1  0
 25 26  1  0
 26 27  2  0
 27 28  1  0
 28 29  1  0
 29 30  1  0
 30 31  1  0
 28 32  1  0
 32 33  1  0
 33  2  1  0
 24  8  1  0
 32 25  2  0
 16 11  1  0
 24 19  2  0
 31 29  1  0
  1 34  1  0
  3 35  1  0
  6 36  1  0
  6 37  1  0
  7 38  1  0
  7 39  1  0
  9 40  1  0
 12 41  1  0
 13 42  1  0
 14 43  1  0
 15 44  1  0
 16 45  1  0
 22 46  1  0
 27 47  1  0
 29 48  1  0
 30 49  1  0
 30 50  1  0
 31 51  1  0
 31 52  1  0
 33 53  1  0
M  END
>  <smiles>  (48) 
N=c1[nH]c(=NCCn2cc(-c3ccccc3)c(=O)c3c(=O)[nH]sc32)c2ncn(C3CC3)c2[nH]1

>  <score_type>  (48) 
oracle

>  <origin>  (48) 
adg

>  <m_score__min__energy>  (48) 
-9.7400000000000002

>  <m_primary>  (48) 
energy

$$$$
48:0
     RDKit          2D

 38 40  0  0  0  0  0  0  0  0999 V2000
    6.5260    1.2990    0.0000 C   0  0  0  0  0  0  0  0  0  0  0  0
    5.0260    1.2990    0.0000 C   0  0  0  0  0  0  0  0  0  0  0  0
    3.5260    1.2990    0.0000 O   0  0  0  0  0  0  0  0  0  0  0  0
    2.7760    0.0000    0.0000 C   0  0  0  0  0  0  0  0  0  0  0  0
    3.5260   -1.2990    0.0000 O   0  0  0  0  0  0  0  0  0  0  0  0
    1.2760    0.0000    0.0000 C   0  0  0  0  0  0  0  0  0  0  0  0
    0.3943    1.2135    0.0000 S   0  0  0  0  0  0  0  0  0  0  0  0
   -1.0323    0.7500    0.0000 C   0  0  0  0  0  0  0  0  0  0  0  0
   -1.0323   -0.7500    0.0000 C   0  0  0  0  0  0  0  0  0  0  0  0
    0.3943   -1.2135    0.0000 C   0  0  0  0  0  0  0  0  0  0  0  0
    0.8578   -2.6401    0.0000 N   0  0  0  0  0  0  0  0  0  0  0  0
   -2.2050   -1.6852    0.0000 C   0  0  0  0  0  0  0  0  0  0  0  0
   -1.8713   -3.1476    0.0000 C   0  0  0  0  0  0  0  0  0  0  0  0
   -1.5375   -4.6100    0.0000 C   0  0  0  0  0  0  0  0  0  0  0  0
   -3.6674   -1.3515    0.0000 C   0  0  0  0  0  0  0  0  0  0  0  0
   -4.8402   -0.4162    0.0000 C   0  0  0  0  0  0  0  0  0  0  0  0
   -4.8402    1.0838    0.0000 C   0  0  0  0  0  0  0  0  0  0  0  0
   -3.6674    2.0190    0.0000 C   0  0  0  0  0  0  0  0  0  0  0  0
   -2.2050    1.6852    0.0000 C   0  0  0  0  0  0  0  0  0  0  0  0
   -3.2310    0.8042    0.0000 C   0  0  0  0  0  0  0  0  0  0  0  0
   -3.6183    0.0000    0.0000 C   0  0  0  0  0  0  0  0  0  0  0  0
    8.0260    1.2990    0.0000 H   0  0  0  0  0  0  0  0  0  0  0  0
    6.5260   -0.2010    0.0000 H   0  0  0  0  0  0  0  0  0  0  0  0
    6.5260    2.7990    0.0000 H   0  0  0  0  0  0  0  0  0  0  0  0
    5.0260   -0.2010    0.0000 H   0  0  0  0  0  0  0  0  0  0  0  0
    5.0260    2.7990    0.0000 H   0  0  0  0  0  0  0  0  0  0  0  0
    0.1610   -3.6354    0.0000 H   0  0  0  0  0  0  0  0  0  0  0  0
    2.3250   -2.9520    0.0000 H   0  0  0  0  0  0  0  0  0  0  0  0
   -3.3336   -3.4814    0.0000 H   0  0  0  0  0  0  0  0  0  0  0  0
   -0.4089   -2.8138    0.0000 H   0  0  0  0  0  0  0  0  0  0  0  0
   -1.2037   -6.0724    0.0000 H   0  0  0  0  0  0  0  0  0  0  0  0
   -2.9999   -4.9438    0.0000 H   0  0  0  0  0  0  0  0  0  0  0  0
   -0.3288   -4.4861    0.0000 H   0  0  0  0  0  0  0  0  0  0  0  0
   -6.1916   -1.0670    0.0000 H   0  0  0  0  0  0  0  0  0  0  0  0
   -6.1916    1.7346    0.0000 H   0  0  0  0  0  0  0  0  0  0  0  0
   -4.0012    3.4814    0.0000 H   0  0  0  0  0  0  0  0  0  0  0  0
   -4.6027    2.5242    0.0000 H   0  0  0  0  0  0  0  0  0  0  0  0
   -5.8183    0.0000    0.0000 H   0  0  0  0  0  0  0  0  0  0  0  0
  1  2  1  0
  2  3  1  0
  3  4  1  0
  4  5  2  0
  4  6  1  0
  6  7  1  0
  7  8  1  0
  8  9  2  0
  9 10  1  0
 10 11  1  0
  9 12  1  0
 12 13  1  0
 13 14  1  0
 12 15  2  0
 15 16  1  0
 16 17  2  0
 17 18  1  0
 18 19  2  0
 19 20  1  0
 20 21  2  0
 10  6  2  0
 21 15  1  0
 19  8  1  0
  1 22  1  0
  1 23  1  0
  1 24  1  0
  2 25  1  0
  2 26  1  0
 11 27  1  0
 11 28  1  0
 13 29  1  0
 13 30  1  0
 14 31  1  0
 14 32  1  0
 14 33  1  0
 16 34  1  0
 17 35  1  0
 18 36  1  0
 20 37  1  0
 21 38  1  0
M  END
>  <smiles>  (49) 
CCOC(=O)c1sc2c(c1N)C(CC)=C1C=CC=C2C=C1

>  <m_score__min__energy>  (49) 
nan

>  <m_primary>  (49) 
energy

$$$$
