0:0
     RDKit          3D

 27 29  0  0  0  0  0  0  0  0999 V2000
   -0.5900   22.6220  -28.0340 F   0  0  0  0  0  0  0  0  0  0  0  0
   -1.5810   23.0240  -28.8640 C   0  0  0  0  0  0  0  0  0  0  0  0
   -2.1960   22.2120  -29.8270 C   0  0  0  0  0  0  0  0  0  0  0  0
   -3.1520   22.8980  -30.4870 N   0  0  0  0  0  0  0  0  0  0  0  0
   -4.0810   22.7140  -31.4290 C   0  0  0  0  0  0  0  0  0  0  0  0
   -4.3640   21.4160  -32.1280 C   0  0  0  0  0  0  0  0  0  0  0  0
   -5.4690   21.5420  -33.0940 N   0  0  0  0  0  0  0  0  0  0  0  0
   -6.5830   20.6870  -32.7450 C   0  0  0  0  0  0  0  0  0  0  0  0
   -6.5070   19.3080  -33.0230 C   0  0  0  0  0  0  0  0  0  0  0  0
   -7.5740   18.4590  -32.7230 C   0  0  0  0  0  0  0  0  0  0  0  0
   -8.7320   18.9720  -32.1390 C   0  0  0  0  0  0  0  0  0  0  0  0
   -8.8250   20.3350  -31.8520 C   0  0  0  0  0  0  0  0  0  0  0  0
   -7.7630   21.1980  -32.1470 C   0  0  0  0  0  0  0  0  0  0  0  0
   -7.9830   23.0510  -31.6970 Br  0  0  0  0  0  0  0  0  0  0  0  0
   -4.8010   23.8550  -31.5920 N   0  0  0  0  0  0  0  0  0  0  0  0
   -4.3110   24.7700  -30.7500 N   0  0  0  0  0  0  0  0  0  0  0  0
   -3.3140   24.1430  -30.1050 C   0  0  0  0  0  0  0  0  0  0  0  0
   -2.2780   24.5950  -28.8660 S   0  0  0  0  0  0  0  0  0  0  0  0
   -1.9351   21.1606  -30.0182 H   0  0  0  0  0  0  0  0  0  0  0  0
   -3.4582   21.0956  -32.6636 H   0  0  0  0  0  0  0  0  0  0  0  0
   -4.6578   20.6767  -31.3684 H   0  0  0  0  0  0  0  0  0  0  0  0
   -5.7980   22.5360  -33.0860 H   0  0  0  0  0  0  0  0  0  0  0  0
   -5.1220   21.3560  -34.0610 H   0  0  0  0  0  0  0  0  0  0  0  0
   -5.5964   18.8954  -33.4818 H   0  0  0  0  0  0  0  0  0  0  0  0
   -7.5013   17.3846  -32.9474 H   0  0  0  0  0  0  0  0  0  0  0  0
   -9.5725   18.3022  -31.9044 H   0  0  0  0  0  0  0  0  0  0  0  0
   -9.7402   20.7341  -31.3903 H   0  0  0  0  0  0  0  0  0  0  0  0
  1  2  1  0
  2  3  2  0
  3  4  1  0
  4  5  1  0
  5  6  1  0
  6  7  1  0
  7  8  1  0
  8  9  2  0
  9 10  1  0
 10 11  2  0
 11 12  1  0
 12 13  2  0
 13 14  1  0
  5 15  2  0
 15 16  1  0
 16 17  2  0
 17 18  1  0
 18  2  1  0
 17  4  1  0
 13  8  1  0
  3 19  1  0
  6 20  1  0
  6 21  1  0
  7 22  1  0
  7 23  1  0
  9 24  1  0
 10 25  1  0
 11 26  1  0
 12 27  1  0
M  CHG  1   7   1
M  END
>  <UniqueID>  (1) 
1

>  <SMILES>  (1) 
Fc1cn2c(C[NH2+]c3ccccc3Br)nnc2s1

>  <Energy>  (1) 
117.46765865415995

>  <Genealogy>  (1) 
Fc1cn2c(C[NH2+]c3ccccc3Br)nnc2s1 (protonated)
Fc1cn2c(C[NH2+]c3ccccc3Br)nnc2s1 (3D coordinates assigned)
Fc1cn2c(C[NH2+]c3ccccc3Br)nnc2s1 (optimized conformer: 117.46765865415995 kcal/mol)

>  <smiles>  (1) 
Fc1cn2c(CNc3ccccc3Br)nnc2s1

>  <score_type>  (1) 
oracle

>  <origin>  (1) 
adg

>  <m_score__min__energy>  (1) 
-7.1500000000000004

>  <m_primary>  (1) 
energy

$$$$
1:0
     RDKit          3D

 50 53  0  0  0  0  0  0  0  0999 V2000
   -2.3800   17.6840  -33.7520 C   0  0  0  0  0  0  0  0  0  0  0  0
   -3.8160   18.0310  -33.4930 C   0  0  0  0  0  0  0  0  0  0  0  0
   -4.3890   19.1710  -34.0720 C   0  0  0  0  0  0  0  0  0  0  0  0
   -5.7370   19.4610  -33.8550 C   0  0  0  0  0  0  0  0  0  0  0  0
   -6.5080   18.5970  -33.0670 C   0  0  0  0  0  0  0  0  0  0  0  0
   -7.9650   18.8770  -32.8310 C   0  0  0  0  0  0  0  0  0  0  0  0
   -8.1350   20.2070  -32.2110 N   0  0  0  0  0  0  0  0  0  0  0  0
   -9.4800   20.3600  -31.6110 C   0  0  0  0  0  0  0  0  0  0  0  0
   -9.8620   21.8490  -31.4440 C   0  0  0  0  0  0  0  0  0  0  0  0
   -8.8530   22.8260  -32.0880 C   0  0  0  0  0  0  0  0  0  0  0  0
   -7.5780   22.9620  -31.3400 N   0  0  0  0  0  0  0  0  0  0  0  0
   -6.4880   23.4180  -32.2270 C   0  0  0  0  0  0  0  0  0  0  0  0
   -5.2390   23.6890  -31.4370 C   0  0  0  0  0  0  0  0  0  0  0  0
   -4.9850   24.8290  -30.6930 C   0  0  0  0  0  0  0  0  0  0  0  0
   -3.7910   24.7140  -30.0650 N   0  0  0  0  0  0  0  0  0  0  0  0
   -3.3510   23.4970  -30.4450 C   0  0  0  0  0  0  0  0  0  0  0  0
   -2.1520   22.9070  -30.0470 C   0  0  0  0  0  0  0  0  0  0  0  0
   -1.8630   21.6220  -30.5330 C   0  0  0  0  0  0  0  0  0  0  0  0
   -2.7670   20.9670  -31.3900 C   0  0  0  0  0  0  0  0  0  0  0  0
   -3.9600   21.6070  -31.7570 C   0  0  0  0  0  0  0  0  0  0  0  0
   -4.2000   22.8520  -31.2650 N   0  0  0  0  0  0  0  0  0  0  0  0
   -7.1860   21.8090  -30.4890 C   0  0  0  0  0  0  0  0  0  0  0  0
   -7.0560   20.4590  -31.2320 C   0  0  0  0  0  0  0  0  0  0  0  0
   -5.9380   17.4850  -32.5280 N   0  0  0  0  0  0  0  0  0  0  0  0
   -4.6260   17.1840  -32.7250 C   0  0  0  0  0  0  0  0  0  0  0  0
   -1.8549   17.5571  -32.7938 H   0  0  0  0  0  0  0  0  0  0  0  0
   -2.3269   16.7472  -34.3261 H   0  0  0  0  0  0  0  0  0  0  0  0
   -1.9050   18.4932  -34.3261 H   0  0  0  0  0  0  0  0  0  0  0  0
   -3.7767   19.8373  -34.6974 H   0  0  0  0  0  0  0  0  0  0  0  0
   -6.1897   20.3599  -34.2988 H   0  0  0  0  0  0  0  0  0  0  0  0
   -8.4999   18.8530  -33.7919 H   0  0  0  0  0  0  0  0  0  0  0  0
   -8.3728   18.1111  -32.1549 H   0  0  0  0  0  0  0  0  0  0  0  0
  -10.2196   19.8726  -32.2633 H   0  0  0  0  0  0  0  0  0  0  0  0
   -9.4677   19.8938  -30.6147 H   0  0  0  0  0  0  0  0  0  0  0  0
  -10.8457   22.0093  -31.9094 H   0  0  0  0  0  0  0  0  0  0  0  0
   -9.8686   22.0597  -30.3644 H   0  0  0  0  0  0  0  0  0  0  0  0
   -8.6221   22.4657  -33.1013 H   0  0  0  0  0  0  0  0  0  0  0  0
   -9.3281   23.8181  -32.0874 H   0  0  0  0  0  0  0  0  0  0  0  0
   -6.2805   22.6381  -32.9744 H   0  0  0  0  0  0  0  0  0  0  0  0
   -6.8015   24.3483  -32.7233 H   0  0  0  0  0  0  0  0  0  0  0  0
   -5.6542   25.6992  -30.6226 H   0  0  0  0  0  0  0  0  0  0  0  0
   -1.4561   23.4306  -29.3750 H   0  0  0  0  0  0  0  0  0  0  0  0
   -0.9257   21.1248  -30.2426 H   0  0  0  0  0  0  0  0  0  0  0  0
   -2.5395   19.9599  -31.7695 H   0  0  0  0  0  0  0  0  0  0  0  0
   -4.6823   21.1150  -32.4250 H   0  0  0  0  0  0  0  0  0  0  0  0
   -6.2137   22.0399  -30.0293 H   0  0  0  0  0  0  0  0  0  0  0  0
   -7.9969   21.6789  -29.7573 H   0  0  0  0  0  0  0  0  0  0  0  0
   -6.0945   20.4490  -31.7662 H   0  0  0  0  0  0  0  0  0  0  0  0
   -7.1248   19.6679  -30.4707 H   0  0  0  0  0  0  0  0  0  0  0  0
   -4.1997   16.2728  -32.2800 H   0  0  0  0  0  0  0  0  0  0  0  0
  1  2  1  0
  2  3  2  0
  3  4  1  0
  4  5  2  0
  5  6  1  0
  6  7  1  0
  7  8  1  0
  8  9  1  0
  9 10  1  0
 10 11  1  0
 11 12  1  0
 12 13  1  0
 13 14  2  0
 14 15  1  0
 15 16  2  0
 16 17  1  0
 17 18  2  0
 18 19  1  0
 19 20  2  0
 20 21  1  0
 11 22  1  0
 22 23  1  0
  5 24  1  0
 24 25  2  0
 25  2  1  0
 23  7  1  0
 21 13  1  0
 21 16  1  0
  1 26  1  0
  1 27  1  0
  1 28  1  0
  3 29  1  0
  4 30  1  0
  6 31  1  0
  6 32  1  0
  8 33  1  0
  8 34  1  0
  9 35  1  0
  9 36  1  0
 10 37  1  0
 10 38  1  0
 12 39  1  0
 12 40  1  0
 14 41  1  0
 17 42  1  0
 18 43  1  0
 19 44  1  0
 20 45  1  0
 22 46  1  0
 22 47  1  0
 23 48  1  0
 23 49  1  0
 25 50  1  0
M  END
>  <UniqueID>  (2) 
2

>  <SMILES>  (2) 
Cc1ccc(CN2CCCN(Cc3cnc4ccccn34)CC2)nc1

>  <Energy>  (2) 
103.80550945503352

>  <Genealogy>  (2) 
Cc1ccc(CN2CCCN(Cc3cnc4ccccn34)CC2)nc1 (3D coordinates assigned)
Cc1ccc(CN2CCCN(Cc3cnc4ccccn34)CC2)nc1 (nonaromatic ring conformer: 103.80550945503352 kcal/mol)

>  <smiles>  (2) 
Cc1ccc(CN2CCCN(Cc3cnc4ccccn34)CC2)nc1

>  <score_type>  (2) 
oracle

>  <origin>  (2) 
adg

>  <m_score__min__energy>  (2) 
-7.21

>  <m_primary>  (2) 
energy

$$$$
2:0
     RDKit          3D

 30 31  0  0  1  0  0  0  0  0999 V2000
   -6.7210   17.9650  -33.0680 C   0  0  0  0  0  0  0  0  0  0  0  0
   -7.2330   18.1620  -31.6690 C   0  0  0  0  0  0  0  0  0  0  0  0
   -8.7210   18.2890  -31.6370 C   0  0  0  0  0  0  0  0  0  0  0  0
   -9.2470   19.9210  -32.1070 S   0  0  0  0  0  0  0  0  0  0  0  0
   -7.8750   21.0900  -32.3300 C   0  0  0  0  0  0  0  0  0  0  0  0
   -6.9680   21.4780  -32.8890 N   0  0  0  0  0  0  0  0  0  0  0  0
   -6.1830   22.4790  -32.6630 N   0  0  0  0  0  0  0  0  0  0  0  0
   -6.4620   23.1990  -31.5950 C   0  0  0  0  0  0  0  0  0  0  0  0
   -5.8950   24.2380  -31.0960 N   0  0  0  0  0  0  0  0  0  0  0  0
   -4.4780   24.2550  -30.8440 C   0  0  0  0  0  0  0  0  0  0  0  0
   -3.8700   25.3010  -30.4980 O   0  0  0  0  0  0  0  0  0  0  0  0
   -3.7980   22.9650  -31.0210 C   0  0  0  0  0  0  0  0  0  0  0  0
   -3.4700   22.2910  -29.8620 C   0  0  0  0  0  0  0  0  0  0  0  0
   -2.8270   21.0740  -29.9300 C   0  0  0  0  0  0  0  0  0  0  0  0
   -2.5200   20.5400  -31.1620 C   0  0  0  0  0  0  0  0  0  0  0  0
   -2.8700   21.2540  -32.3110 C   0  0  0  0  0  0  0  0  0  0  0  0
   -3.4980   22.4430  -32.2010 N   0  0  0  0  0  0  0  0  0  0  0  0
   -7.9040   22.3940  -30.9040 S   0  0  0  0  0  0  0  0  0  0  0  0
   -5.6950   17.5702  -33.0307 H   0  0  0  0  0  0  0  0  0  0  0  0
   -7.3692   17.2521  -33.5987 H   0  0  0  0  0  0  0  0  0  0  0  0
   -6.7241   18.9285  -33.5987 H   0  0  0  0  0  0  0  0  0  0  0  0
   -6.9358   17.2984  -31.0559 H   0  0  0  0  0  0  0  0  0  0  0  0
   -6.8012   19.0935  -31.2743 H   0  0  0  0  0  0  0  0  0  0  0  0
   -9.1570   17.5585  -32.3343 H   0  0  0  0  0  0  0  0  0  0  0  0
   -9.0610   18.1002  -30.6081 H   0  0  0  0  0  0  0  0  0  0  0  0
   -5.3580   22.7140  -33.3010 H   0  0  0  0  0  0  0  0  0  0  0  0
   -3.7220   22.7256  -28.8834 H   0  0  0  0  0  0  0  0  0  0  0  0
   -2.5614   20.5342  -29.0091 H   0  0  0  0  0  0  0  0  0  0  0  0
   -2.0086   19.5692  -31.2399 H   0  0  0  0  0  0  0  0  0  0  0  0
   -2.6335   20.8467  -33.3051 H   0  0  0  0  0  0  0  0  0  0  0  0
  1  2  1  0
  2  3  1  0
  3  4  1  0
  4  5  1  0
  5  6  2  0
  6  7  1  0
  7  8  1  0
  8  9  2  0
  9 10  1  0
 10 11  2  0
 10 12  1  0
 12 13  2  0
 13 14  1  0
 14 15  2  0
 15 16  1  0
 16 17  2  0
  8 18  1  0
 18  5  1  0
 17 12  1  0
  1 19  1  0
  1 20  1  0
  1 21  1  0
  2 22  1  0
  2 23  1  0
  3 24  1  0
  3 25  1  0
  7 26  1  0
 13 27  1  0
 14 28  1  0
 15 29  1  0
 16 30  1  0
M  END
>  <smiles>  (3) 
CCCSc1n[nH]c(=NC(=O)c2ccccn2)s1

>  <score_type>  (3) 
oracle

>  <origin>  (3) 
adg

>  <m_score__min__energy>  (3) 
-7.4699999999999998

>  <m_primary>  (3) 
energy

$$$$
3:0
     RDKit          3D

 35 36  0  0  0  0  0  0  0  0999 V2000
   -9.3250   19.2430  -32.4380 C   0  0  0  0  0  0  0  0  0  0  0  0
   -8.4020   18.1900  -31.8060 C   0  0  0  0  0  0  0  0  0  0  0  0
   -7.0430   18.1150  -32.4090 N   0  0  0  0  0  0  0  0  0  0  0  0
   -6.6910   16.7630  -32.9190 C   0  0  0  0  0  0  0  0  0  0  0  0
   -5.8910   16.8030  -34.2260 C   0  0  0  0  0  0  0  0  0  0  0  0
   -6.8730   19.1410  -33.4700 C   0  0  0  0  0  0  0  0  0  0  0  0
   -6.1750   20.3800  -32.9550 C   0  0  0  0  0  0  0  0  0  0  0  0
   -4.7930   20.5520  -33.1460 C   0  0  0  0  0  0  0  0  0  0  0  0
   -4.1460   21.6900  -32.6550 C   0  0  0  0  0  0  0  0  0  0  0  0
   -4.8700   22.6680  -31.9670 C   0  0  0  0  0  0  0  0  0  0  0  0
   -4.2500   23.7490  -31.5000 O   0  0  0  0  0  0  0  0  0  0  0  0
   -4.8910   24.7110  -30.8370 C   0  0  0  0  0  0  0  0  0  0  0  0
   -4.2510   25.7100  -30.4190 O   0  0  0  0  0  0  0  0  0  0  0  0
   -6.2660   24.6130  -30.6030 C   0  0  0  0  0  0  0  0  0  0  0  0
   -6.9550   23.4960  -31.0750 C   0  0  0  0  0  0  0  0  0  0  0  0
   -6.2580   22.5020  -31.7690 C   0  0  0  0  0  0  0  0  0  0  0  0
   -6.9050   21.3610  -32.2620 C   0  0  0  0  0  0  0  0  0  0  0  0
   -9.8265   19.8152  -31.6436 H   0  0  0  0  0  0  0  0  0  0  0  0
   -8.7293   19.9259  -33.0615 H   0  0  0  0  0  0  0  0  0  0  0  0
  -10.0801   18.7419  -33.0615 H   0  0  0  0  0  0  0  0  0  0  0  0
   -8.2907   18.4281  -30.7379 H   0  0  0  0  0  0  0  0  0  0  0  0
   -8.8760   17.2133  -31.9833 H   0  0  0  0  0  0  0  0  0  0  0  0
   -6.3740   18.3420  -31.6350 H   0  0  0  0  0  0  0  0  0  0  0  0
   -6.0898   16.2466  -32.1562 H   0  0  0  0  0  0  0  0  0  0  0  0
   -7.6334   16.2353  -33.1272 H   0  0  0  0  0  0  0  0  0  0  0  0
   -4.8165   16.8567  -33.9967 H   0  0  0  0  0  0  0  0  0  0  0  0
   -6.0964   15.8935  -34.8096 H   0  0  0  0  0  0  0  0  0  0  0  0
   -6.1861   17.6875  -34.8096 H   0  0  0  0  0  0  0  0  0  0  0  0
   -6.2755   18.7108  -34.2872 H   0  0  0  0  0  0  0  0  0  0  0  0
   -7.8732   19.4359  -33.8202 H   0  0  0  0  0  0  0  0  0  0  0  0
   -4.2166   19.7860  -33.6855 H   0  0  0  0  0  0  0  0  0  0  0  0
   -3.0644   21.8161  -32.8105 H   0  0  0  0  0  0  0  0  0  0  0  0
   -6.7966   25.4053  -30.0546 H   0  0  0  0  0  0  0  0  0  0  0  0
   -8.0370   23.3978  -30.9029 H   0  0  0  0  0  0  0  0  0  0  0  0
   -7.9864   21.2328  -32.1063 H   0  0  0  0  0  0  0  0  0  0  0  0
  1  2  1  0
  2  3  1  0
  3  4  1  0
  4  5  1  0
  3  6  1  0
  6  7  1  0
  7  8  2  0
  8  9  1  0
  9 10  2  0
 10 11  1  0
 11 12  1  0
 12 13  2  0
 12 14  1  0
 14 15  2  0
 15 16  1  0
 16 17  2  0
 17  7  1  0
 16 10  1  0
  1 18  1  0
  1 19  1  0
  1 20  1  0
  2 21  1  0
  2 22  1  0
  3 23  1  0
  4 24  1  0
  4 25  1  0
  5 26  1  0
  5 27  1  0
  5 28  1  0
  6 29  1  0
  6 30  1  0
  8 31  1  0
  9 32  1  0
 14 33  1  0
 15 34  1  0
 17 35  1  0
M  CHG  1   3   1
M  END
>  <UniqueID>  (4) 
3

>  <SMILES>  (4) 
CC[NH+](CC)Cc1ccc2oc(=O)ccc2c1

>  <Energy>  (4) 
41.28812802109777

>  <Genealogy>  (4) 
CC[NH+](CC)Cc1ccc2oc(=O)ccc2c1 (protonated)
CC[NH+](CC)Cc1ccc2oc(=O)ccc2c1 (3D coordinates assigned)
CC[NH+](CC)Cc1ccc2oc(=O)ccc2c1 (optimized conformer: 41.28812802109777 kcal/mol)

>  <smiles>  (4) 
CCN(CC)Cc1ccc2oc(=O)ccc2c1

>  <score_type>  (4) 
oracle

>  <origin>  (4) 
adg

>  <m_score__min__energy>  (4) 
-6.6900000000000004

>  <m_primary>  (4) 
energy

$$$$
4:0
     RDKit          3D

 34 36  0  0  0  0  0  0  0  0999 V2000
   -1.1530   21.9320  -26.3600 C   0  0  0  0  0  0  0  0  0  0  0  0
   -2.1890   22.3920  -27.3410 C   0  0  0  0  0  0  0  0  0  0  0  0
   -2.5880   23.7380  -27.3720 C   0  0  0  0  0  0  0  0  0  0  0  0
   -3.5270   24.1710  -28.3130 C   0  0  0  0  0  0  0  0  0  0  0  0
   -4.0700   23.2690  -29.2360 C   0  0  0  0  0  0  0  0  0  0  0  0
   -5.2460   23.8360  -30.4160 S   0  0  0  0  0  0  0  0  0  0  0  0
   -4.6380   24.9540  -31.2150 O   0  0  0  0  0  0  0  0  0  0  0  0
   -6.4720   24.3660  -29.7270 O   0  0  0  0  0  0  0  0  0  0  0  0
   -5.6990   22.5110  -31.4470 N   0  0  0  0  0  0  0  0  0  0  0  0
   -4.9300   21.7840  -32.3050 C   0  0  0  0  0  0  0  0  0  0  0  0
   -3.4760   22.0250  -32.5510 C   0  0  0  0  0  0  0  0  0  0  0  0
   -5.6180   20.7940  -32.9400 N   0  0  0  0  0  0  0  0  0  0  0  0
   -6.8610   20.9210  -32.4390 C   0  0  0  0  0  0  0  0  0  0  0  0
   -7.9880   20.1560  -32.7200 C   0  0  0  0  0  0  0  0  0  0  0  0
   -9.1740   20.4810  -32.0390 C   0  0  0  0  0  0  0  0  0  0  0  0
   -9.1820   21.5490  -31.1100 C   0  0  0  0  0  0  0  0  0  0  0  0
   -8.0440   22.2700  -30.8710 N   0  0  0  0  0  0  0  0  0  0  0  0
   -6.9100   21.9420  -31.5440 C   0  0  0  0  0  0  0  0  0  0  0  0
   -3.6560   21.9290  -29.2220 C   0  0  0  0  0  0  0  0  0  0  0  0
   -2.7170   21.4940  -28.2820 C   0  0  0  0  0  0  0  0  0  0  0  0
   -1.5199   22.0949  -25.3359 H   0  0  0  0  0  0  0  0  0  0  0  0
   -0.9539   20.8609  -26.5122 H   0  0  0  0  0  0  0  0  0  0  0  0
   -0.2250   22.5026  -26.5122 H   0  0  0  0  0  0  0  0  0  0  0  0
   -2.1607   24.4535  -26.6541 H   0  0  0  0  0  0  0  0  0  0  0  0
   -3.8406   25.2252  -28.3283 H   0  0  0  0  0  0  0  0  0  0  0  0
   -2.9508   22.1121  -31.5884 H   0  0  0  0  0  0  0  0  0  0  0  0
   -3.0566   21.1841  -33.1228 H   0  0  0  0  0  0  0  0  0  0  0  0
   -3.3503   22.9562  -33.1228 H   0  0  0  0  0  0  0  0  0  0  0  0
   -7.9527   19.3301  -33.4457 H   0  0  0  0  0  0  0  0  0  0  0  0
  -10.0933   19.9070  -32.2275 H   0  0  0  0  0  0  0  0  0  0  0  0
  -10.1101   21.8012  -30.5762 H   0  0  0  0  0  0  0  0  0  0  0  0
   -8.0580   23.0520  -30.1790 H   0  0  0  0  0  0  0  0  0  0  0  0
   -4.0711   21.2187  -29.9523 H   0  0  0  0  0  0  0  0  0  0  0  0
   -2.3905   20.4436  -28.2797 H   0  0  0  0  0  0  0  0  0  0  0  0
  1  2  1  0
  2  3  2  0
  3  4  1  0
  4  5  2  0
  5  6  1  0
  6  7  2  0
  6  8  2  0
  6  9  1  0
  9 10  1  0
 10 11  1  0
 10 12  2  0
 12 13  1  0
 13 14  2  0
 14 15  1  0
 15 16  2  0
 16 17  1  0
 17 18  2  0
  5 19  1  0
 19 20  2  0
 20  2  1  0
 18  9  1  0
 18 13  1  0
  1 21  1  0
  1 22  1  0
  1 23  1  0
  3 24  1  0
  4 25  1  0
 11 26  1  0
 11 27  1  0
 11 28  1  0
 14 29  1  0
 15 30  1  0
 16 31  1  0
 17 32  1  0
 19 33  1  0
 20 34  1  0
M  CHG  1  17   1
M  END
>  <UniqueID>  (5) 
4

>  <SMILES>  (5) 
Cc1ccc(S(=O)(=O)n2c(C)nc3ccc[nH+]c32)cc1

>  <Energy>  (5) 
75.91875729005385

>  <Genealogy>  (5) 
Cc1ccc(S(=O)(=O)n2c(C)nc3ccc[nH+]c32)cc1 (protonated)
Cc1ccc(S(=O)(=O)n2c(C)nc3ccc[nH+]c32)cc1 (3D coordinates assigned)
Cc1ccc(S(=O)(=O)n2c(C)nc3ccc[nH+]c32)cc1 (optimized conformer: 75.91875729005385 kcal/mol)

>  <smiles>  (5) 
Cc1ccc(S(=O)(=O)n2c(C)nc3cccnc32)cc1

>  <score_type>  (5) 
oracle

>  <origin>  (5) 
adg

>  <m_score__min__energy>  (5) 
-7.1399999999999997

>  <m_primary>  (5) 
energy

$$$$
5:0
     RDKit          3D

 48 50  0  0  0  0  0  0  0  0999 V2000
   -9.5220   21.8020  -31.0270 C   0  0  0  0  0  0  0  0  0  0  0  0
   -8.5280   20.9380  -31.7490 C   0  0  0  0  0  0  0  0  0  0  0  0
   -8.7240   19.5900  -31.7430 N   0  0  0  0  0  0  0  0  0  0  0  0
   -7.8760   18.7310  -32.3640 C   0  0  0  0  0  0  0  0  0  0  0  0
   -6.7570   19.2190  -33.0360 C   0  0  0  0  0  0  0  0  0  0  0  0
   -6.5220   20.5920  -33.0620 C   0  0  0  0  0  0  0  0  0  0  0  0
   -7.4020   21.4770  -32.4170 C   0  0  0  0  0  0  0  0  0  0  0  0
   -7.1120   22.9610  -32.4860 C   0  0  0  0  0  0  0  0  0  0  0  0
   -6.1360   23.3460  -31.4460 N   0  0  0  0  0  0  0  0  0  0  0  0
   -5.9390   22.2320  -30.4910 C   0  0  0  0  0  0  0  0  0  0  0  0
   -5.1260   22.6710  -29.2560 C   0  0  0  0  0  0  0  0  0  0  0  0
   -4.4780   23.9660  -29.5210 N   0  0  0  0  0  0  0  0  0  0  0  0
   -3.4270   24.3240  -28.5440 C   0  0  0  0  0  0  0  0  0  0  0  0
   -2.0190   24.4990  -29.1500 C   0  0  0  0  0  0  0  0  0  0  0  0
   -1.5070   25.7960  -28.8430 O   0  0  0  0  0  0  0  0  0  0  0  0
   -1.2350   26.2820  -27.5530 C   0  0  0  0  0  0  0  0  0  0  0  0
   -1.6870   25.6380  -26.3830 C   0  0  0  0  0  0  0  0  0  0  0  0
   -1.3810   26.1680  -25.1250 C   0  0  0  0  0  0  0  0  0  0  0  0
   -0.6320   27.3420  -25.0220 C   0  0  0  0  0  0  0  0  0  0  0  0
   -0.1870   27.9900  -26.1770 C   0  0  0  0  0  0  0  0  0  0  0  0
   -0.4880   27.4620  -27.4370 C   0  0  0  0  0  0  0  0  0  0  0  0
   -5.4770   25.0290  -29.7420 C   0  0  0  0  0  0  0  0  0  0  0  0
   -6.5650   24.5670  -30.7330 C   0  0  0  0  0  0  0  0  0  0  0  0
   -9.3884   21.6859  -29.9413 H   0  0  0  0  0  0  0  0  0  0  0  0
   -9.3636   22.8543  -31.3054 H   0  0  0  0  0  0  0  0  0  0  0  0
  -10.5420   21.4986  -31.3054 H   0  0  0  0  0  0  0  0  0  0  0  0
   -8.0723   17.6490  -32.3368 H   0  0  0  0  0  0  0  0  0  0  0  0
   -6.0664   18.5274  -33.5407 H   0  0  0  0  0  0  0  0  0  0  0  0
   -5.6416   20.9857  -33.5911 H   0  0  0  0  0  0  0  0  0  0  0  0
   -6.7001   23.2037  -33.4767 H   0  0  0  0  0  0  0  0  0  0  0  0
   -8.0476   23.5146  -32.3185 H   0  0  0  0  0  0  0  0  0  0  0  0
   -6.9232   21.8700  -30.1587 H   0  0  0  0  0  0  0  0  0  0  0  0
   -5.3774   21.4377  -31.0045 H   0  0  0  0  0  0  0  0  0  0  0  0
   -5.7992   22.7694  -28.3916 H   0  0  0  0  0  0  0  0  0  0  0  0
   -4.3553   21.9161  -29.0411 H   0  0  0  0  0  0  0  0  0  0  0  0
   -3.7137   25.2710  -28.0633 H   0  0  0  0  0  0  0  0  0  0  0  0
   -3.3597   23.4840  -27.8369 H   0  0  0  0  0  0  0  0  0  0  0  0
   -1.3465   23.7350  -28.7329 H   0  0  0  0  0  0  0  0  0  0  0  0
   -2.0825   24.3879  -30.2425 H   0  0  0  0  0  0  0  0  0  0  0  0
   -2.2821   24.7160  -26.4596 H   0  0  0  0  0  0  0  0  0  0  0  0
   -1.7312   25.6588  -24.2150 H   0  0  0  0  0  0  0  0  0  0  0  0
   -0.3924   27.7565  -24.0317 H   0  0  0  0  0  0  0  0  0  0  0  0
    0.4006   28.9163  -26.0955 H   0  0  0  0  0  0  0  0  0  0  0  0
   -0.1358   27.9767  -28.3431 H   0  0  0  0  0  0  0  0  0  0  0  0
   -5.9496   25.2839  -28.7819 H   0  0  0  0  0  0  0  0  0  0  0  0
   -4.9671   25.9069  -30.1653 H   0  0  0  0  0  0  0  0  0  0  0  0
   -7.4916   24.3553  -30.1793 H   0  0  0  0  0  0  0  0  0  0  0  0
   -6.7353   25.3659  -31.4697 H   0  0  0  0  0  0  0  0  0  0  0  0
  1  2  1  0
  2  3  2  0
  3  4  1  0
  4  5  2  0
  5  6  1  0
  6  7  2  0
  7  8  1  0
  8  9  1  0
  9 10  1  0
 10 11  1  0
 11 12  1  0
 12 13  1  0
 13 14  1  0
 14 15  1  0
 15 16  1  0
 16 17  2  0
 17 18  1  0
 18 19  2  0
 19 20  1  0
 20 21  2  0
 12 22  1  0
 22 23  1  0
  7  2  1  0
 23  9  1  0
 21 16  1  0
  1 24  1  0
  1 25  1  0
  1 26  1  0
  4 27  1  0
  5 28  1  0
  6 29  1  0
  8 30  1  0
  8 31  1  0
 10 32  1  0
 10 33  1  0
 11 34  1  0
 11 35  1  0
 13 36  1  0
 13 37  1  0
 14 38  1  0
 14 39  1  0
 17 40  1  0
 18 41  1  0
 19 42  1  0
 20 43  1  0
 21 44  1  0
 22 45  1  0
 22 46  1  0
 23 47  1  0
 23 48  1  0
M  END
>  <UniqueID>  (6) 
5

>  <SMILES>  (6) 
Cc1ncccc1CN1CCN(CCOc2ccccc2)CC1

>  <Energy>  (6) 
61.168194189062376

>  <Genealogy>  (6) 
Cc1ncccc1CN1CCN(CCOc2ccccc2)CC1 (3D coordinates assigned)
Cc1ncccc1CN1CCN(CCOc2ccccc2)CC1 (nonaromatic ring conformer: 61.168194189062376 kcal/mol)

>  <smiles>  (6) 
Cc1ncccc1CN1CCN(CCOc2ccccc2)CC1

>  <score_type>  (6) 
oracle

>  <origin>  (6) 
adg

>  <m_score__min__energy>  (6) 
-8.3200000000000003

>  <m_primary>  (6) 
energy

$$$$
6:0
     RDKit          3D

 44 45  0  0  0  0  0  0  0  0999 V2000
   -2.0690   24.9260  -27.1320 C   0  0  0  0  0  0  0  0  0  0  0  0
   -3.3220   24.1560  -27.0830 N   0  0  0  0  0  0  0  0  0  0  0  0
   -4.3410   24.9270  -26.3480 C   0  0  0  0  0  0  0  0  0  0  0  0
   -3.7800   23.8430  -28.4540 C   0  0  0  0  0  0  0  0  0  0  0  0
   -2.9440   24.6010  -29.4930 C   0  0  0  0  0  0  0  0  0  0  0  0
   -3.8090   25.2120  -30.4980 N   0  0  0  0  0  0  0  0  0  0  0  0
   -5.2320   25.0460  -30.5310 C   0  0  0  0  0  0  0  0  0  0  0  0
   -5.9750   25.9120  -29.9920 O   0  0  0  0  0  0  0  0  0  0  0  0
   -5.8280   23.8610  -31.1890 C   0  0  0  0  0  0  0  0  0  0  0  0
   -5.0150   22.9410  -31.8730 C   0  0  0  0  0  0  0  0  0  0  0  0
   -5.5760   21.8180  -32.4880 C   0  0  0  0  0  0  0  0  0  0  0  0
   -6.9580   21.5870  -32.4310 C   0  0  0  0  0  0  0  0  0  0  0  0
   -7.5000   20.4140  -33.0640 N   0  0  0  0  0  0  0  0  0  0  0  0
   -7.3990   18.8170  -32.3930 S   0  0  0  0  0  0  0  0  0  0  0  0
   -8.7490   18.1630  -32.4680 O   0  0  0  0  0  0  0  0  0  0  0  0
   -6.9810   18.9150  -30.9520 O   0  0  0  0  0  0  0  0  0  0  0  0
   -6.2500   17.8460  -33.3080 C   0  0  0  0  0  0  0  0  0  0  0  0
   -5.7800   18.2880  -34.5540 C   0  0  0  0  0  0  0  0  0  0  0  0
   -4.8770   17.5050  -35.2810 C   0  0  0  0  0  0  0  0  0  0  0  0
   -4.4400   16.2800  -34.7670 C   0  0  0  0  0  0  0  0  0  0  0  0
   -4.9010   15.8380  -33.5230 C   0  0  0  0  0  0  0  0  0  0  0  0
   -4.4770   14.6510  -33.0260 F   0  0  0  0  0  0  0  0  0  0  0  0
   -5.8020   16.6200  -32.7930 C   0  0  0  0  0  0  0  0  0  0  0  0
   -7.7750   22.5140  -31.7580 C   0  0  0  0  0  0  0  0  0  0  0  0
   -7.2150   23.6360  -31.1420 C   0  0  0  0  0  0  0  0  0  0  0  0
   -1.7274   25.1359  -26.1077 H   0  0  0  0  0  0  0  0  0  0  0  0
   -1.3012   24.3436  -27.6625 H   0  0  0  0  0  0  0  0  0  0  0  0
   -2.2417   25.8740  -27.6625 H   0  0  0  0  0  0  0  0  0  0  0  0
   -4.1821   24.8068  -25.2662 H   0  0  0  0  0  0  0  0  0  0  0  0
   -4.2587   25.9910  -26.6147 H   0  0  0  0  0  0  0  0  0  0  0  0
   -5.3426   24.5585  -26.6147 H   0  0  0  0  0  0  0  0  0  0  0  0
   -3.6800   22.7617  -28.6297 H   0  0  0  0  0  0  0  0  0  0  0  0
   -4.8312   24.1512  -28.5539 H   0  0  0  0  0  0  0  0  0  0  0  0
   -2.3647   25.3877  -28.9874 H   0  0  0  0  0  0  0  0  0  0  0  0
   -2.2664   23.8916  -29.9906 H   0  0  0  0  0  0  0  0  0  0  0  0
   -3.9287   23.1059  -31.9248 H   0  0  0  0  0  0  0  0  0  0  0  0
   -4.9269   21.1084  -33.0220 H   0  0  0  0  0  0  0  0  0  0  0  0
   -7.9070   20.4980  -34.0220 H   0  0  0  0  0  0  0  0  0  0  0  0
   -6.1221   19.2515  -34.9597 H   0  0  0  0  0  0  0  0  0  0  0  0
   -4.5103   17.8532  -36.2579 H   0  0  0  0  0  0  0  0  0  0  0  0
   -3.7331   15.6637  -35.3418 H   0  0  0  0  0  0  0  0  0  0  0  0
   -6.1604   16.2730  -31.8126 H   0  0  0  0  0  0  0  0  0  0  0  0
   -8.8625   22.3542  -31.7166 H   0  0  0  0  0  0  0  0  0  0  0  0
   -7.8653   24.3500  -30.6154 H   0  0  0  0  0  0  0  0  0  0  0  0
  1  2  1  0
  2  3  1  0
  2  4  1  0
  4  5  1  0
  5  6  1  0
  6  7  1  0
  7  8  2  0
  7  9  1  0
  9 10  2  0
 10 11  1  0
 11 12  2  0
 12 13  1  0
 13 14  1  0
 14 15  2  0
 14 16  2  0
 14 17  1  0
 17 18  2  0
 18 19  1  0
 19 20  2  0
 20 21  1  0
 21 22  1  0
 21 23  2  0
 12 24  1  0
 24 25  2  0
 25  9  1  0
 23 17  1  0
  1 26  1  0
  1 27  1  0
  1 28  1  0
  3 29  1  0
  3 30  1  0
  3 31  1  0
  4 32  1  0
  4 33  1  0
  5 34  1  0
  5 35  1  0
 10 36  1  0
 11 37  1  0
 13 38  1  0
 18 39  1  0
 19 40  1  0
 20 41  1  0
 23 42  1  0
 24 43  1  0
 25 44  1  0
M  CHG  1   6  -1
M  END
>  <UniqueID>  (7) 
6

>  <SMILES>  (7) 
CN(C)CC[N-]C(=O)c1ccc(NS(=O)(=O)c2cccc(F)c2)cc1

>  <Energy>  (7) 
44.486814757034786

>  <Genealogy>  (7) 
CN(C)CC[N-]C(=O)c1ccc(NS(=O)(=O)c2cccc(F)c2)cc1 (protonated)
CN(C)CC[N-]C(=O)c1ccc(NS(=O)(=O)c2cccc(F)c2)cc1 (3D coordinates assigned)
CN(C)CC[N-]C(=O)c1ccc(NS(=O)(=O)c2cccc(F)c2)cc1 (optimized conformer: 44.486814757034786 kcal/mol)

>  <smiles>  (7) 
CN(C)CCNC(=O)c1ccc(NS(=O)(=O)c2cccc(F)c2)cc1

>  <score_type>  (7) 
oracle

>  <origin>  (7) 
adg

>  <m_score__min__energy>  (7) 
-10.32

>  <m_primary>  (7) 
energy

$$$$
7:0
     RDKit          3D

 41 42  0  0  0  0  0  0  0  0999 V2000
   -9.0480   22.3150  -31.6100 C   0  0  0  0  0  0  0  0  0  0  0  0
   -7.8230   21.4680  -31.2740 C   0  0  0  0  0  0  0  0  0  0  0  0
   -7.1450   20.9400  -32.4870 N   0  0  0  0  0  0  0  0  0  0  0  0
   -5.6770   20.9070  -32.2890 C   0  0  0  0  0  0  0  0  0  0  0  0
   -5.2150   22.1630  -31.6140 C   0  0  0  0  0  0  0  0  0  0  0  0
   -5.3840   23.4440  -32.0860 C   0  0  0  0  0  0  0  0  0  0  0  0
   -4.8280   24.2540  -31.2200 O   0  0  0  0  0  0  0  0  0  0  0  0
   -4.3330   23.5130  -30.2510 C   0  0  0  0  0  0  0  0  0  0  0  0
   -3.6200   24.0650  -29.0810 C   0  0  0  0  0  0  0  0  0  0  0  0
   -4.2570   24.1530  -27.8310 C   0  0  0  0  0  0  0  0  0  0  0  0
   -3.5760   24.6750  -26.7270 C   0  0  0  0  0  0  0  0  0  0  0  0
   -2.2560   25.1300  -26.8590 C   0  0  0  0  0  0  0  0  0  0  0  0
   -1.5130   25.6520  -25.6650 C   0  0  0  0  0  0  0  0  0  0  0  0
   -1.6130   25.0260  -28.1010 C   0  0  0  0  0  0  0  0  0  0  0  0
   -2.2920   24.5030  -29.2060 C   0  0  0  0  0  0  0  0  0  0  0  0
   -4.5460   22.1920  -30.4470 N   0  0  0  0  0  0  0  0  0  0  0  0
   -7.6500   19.6350  -33.0190 C   0  0  0  0  0  0  0  0  0  0  0  0
   -8.6050   18.9690  -32.0220 C   0  0  0  0  0  0  0  0  0  0  0  0
   -6.5540   18.6610  -33.4910 C   0  0  0  0  0  0  0  0  0  0  0  0
   -9.5299   22.6482  -30.6790 H   0  0  0  0  0  0  0  0  0  0  0  0
   -8.7375   23.1923  -32.1965 H   0  0  0  0  0  0  0  0  0  0  0  0
   -9.7591   21.7148  -32.1965 H   0  0  0  0  0  0  0  0  0  0  0  0
   -7.1087   22.0882  -30.7126 H   0  0  0  0  0  0  0  0  0  0  0  0
   -8.1649   20.6069  -30.6810 H   0  0  0  0  0  0  0  0  0  0  0  0
   -5.4146   20.0411  -31.6634 H   0  0  0  0  0  0  0  0  0  0  0  0
   -5.1853   20.8260  -33.2697 H   0  0  0  0  0  0  0  0  0  0  0  0
   -5.8918   23.7341  -33.0177 H   0  0  0  0  0  0  0  0  0  0  0  0
   -5.2962   23.8096  -27.7208 H   0  0  0  0  0  0  0  0  0  0  0  0
   -4.0782   24.7291  -25.7498 H   0  0  0  0  0  0  0  0  0  0  0  0
   -2.0068   25.3050  -24.7454 H   0  0  0  0  0  0  0  0  0  0  0  0
   -0.4773   25.2820  -25.6870 H   0  0  0  0  0  0  0  0  0  0  0  0
   -1.5100   26.7518  -25.6870 H   0  0  0  0  0  0  0  0  0  0  0  0
   -0.5694   25.3574  -28.2065 H   0  0  0  0  0  0  0  0  0  0  0  0
   -1.7827   24.4344  -30.1786 H   0  0  0  0  0  0  0  0  0  0  0  0
   -8.2065   19.8899  -33.9330 H   0  0  0  0  0  0  0  0  0  0  0  0
   -8.2801   19.1955  -30.9958 H   0  0  0  0  0  0  0  0  0  0  0  0
   -9.6238   19.3535  -32.1774 H   0  0  0  0  0  0  0  0  0  0  0  0
   -8.5963   17.8801  -32.1774 H   0  0  0  0  0  0  0  0  0  0  0  0
   -6.0556   18.2180  -32.6162 H   0  0  0  0  0  0  0  0  0  0  0  0
   -7.0085   17.8633  -34.0970 H   0  0  0  0  0  0  0  0  0  0  0  0
   -5.8153   19.2060  -34.0970 H   0  0  0  0  0  0  0  0  0  0  0  0
  1  2  1  0
  2  3  1  0
  3  4  1  0
  4  5  1  0
  5  6  2  0
  6  7  1  0
  7  8  1  0
  8  9  1  0
  9 10  2  0
 10 11  1  0
 11 12  2  0
 12 13  1  0
 12 14  1  0
 14 15  2  0
  8 16  2  0
  3 17  1  0
 17 18  1  0
 17 19  1  0
 16  5  1  0
 15  9  1  0
  1 20  1  0
  1 21  1  0
  1 22  1  0
  2 23  1  0
  2 24  1  0
  4 25  1  0
  4 26  1  0
  6 27  1  0
 10 28  1  0
 11 29  1  0
 13 30  1  0
 13 31  1  0
 13 32  1  0
 14 33  1  0
 15 34  1  0
 17 35  1  0
 18 36  1  0
 18 37  1  0
 18 38  1  0
 19 39  1  0
 19 40  1  0
 19 41  1  0
M  END
>  <UniqueID>  (8) 
7

>  <SMILES>  (8) 
CCN(Cc1coc(-c2ccc(C)cc2)n1)C(C)C

>  <Energy>  (8) 
73.34185112660938

>  <Genealogy>  (8) 
CCN(Cc1coc(-c2ccc(C)cc2)n1)C(C)C (3D coordinates assigned)
CCN(Cc1coc(-c2ccc(C)cc2)n1)C(C)C (optimized conformer: 73.34185112660938 kcal/mol)

>  <smiles>  (8) 
CCN(Cc1coc(-c2ccc(C)cc2)n1)C(C)C

>  <score_type>  (8) 
oracle

>  <origin>  (8) 
adg

>  <m_score__min__energy>  (8) 
-6.8799999999999999

>  <m_primary>  (8) 
energy

$$$$
8:0
     RDKit          3D

 59 61  0  0  0  0  0  0  0  0999 V2000
    1.3157   25.1774  -25.8285 H   0  0  0  0  0  0  0  0  0  0  0  0
    0.5050   24.9310  -26.5300 C   0  0  0  0  0  0  0  0  0  0  0  0
    0.8070   24.4130  -27.7920 C   0  0  0  0  0  0  0  0  0  0  0  0
    1.8559   24.2614  -28.0867 H   0  0  0  0  0  0  0  0  0  0  0  0
   -0.2220   24.0870  -28.6810 C   0  0  0  0  0  0  0  0  0  0  0  0
    0.0204   23.6864  -29.6764 H   0  0  0  0  0  0  0  0  0  0  0  0
   -1.5640   24.2690  -28.3080 C   0  0  0  0  0  0  0  0  0  0  0  0
   -2.6450   23.9200  -29.2580 C   0  0  0  0  0  0  0  0  0  0  0  0
   -3.4970   24.9000  -29.6450 N   0  0  0  0  0  0  0  0  0  0  0  0
   -4.5010   24.6870  -30.4970 N   0  0  0  0  0  0  0  0  0  0  0  0
   -5.3750   25.8120  -30.8350 C   0  0  0  0  0  0  0  0  0  0  0  0
   -5.7408   26.2828  -29.9106 H   0  0  0  0  0  0  0  0  0  0  0  0
   -4.8112   26.5502  -31.4242 H   0  0  0  0  0  0  0  0  0  0  0  0
   -6.2297   25.4482  -31.4242 H   0  0  0  0  0  0  0  0  0  0  0  0
   -4.7110   23.4500  -31.0420 C   0  0  0  0  0  0  0  0  0  0  0  0
   -5.6790   23.2830  -31.8340 O   0  0  0  0  0  0  0  0  0  0  0  0
   -3.8410   22.3790  -30.7120 C   0  0  0  0  0  0  0  0  0  0  0  0
   -3.9340   21.1840  -31.2440 N   0  0  0  0  0  0  0  0  0  0  0  0
   -3.3500   20.6990  -32.4940 C   0  0  0  0  0  0  0  0  0  0  0  0
   -2.4868   20.0573  -32.2636 H   0  0  0  0  0  0  0  0  0  0  0  0
   -3.0342   21.5647  -33.0947 H   0  0  0  0  0  0  0  0  0  0  0  0
   -4.3770   19.8910  -33.2980 C   0  0  0  0  0  0  0  0  0  0  0  0
   -4.5215   18.9198  -32.8022 H   0  0  0  0  0  0  0  0  0  0  0  0
   -3.9781   19.7830  -34.3174 H   0  0  0  0  0  0  0  0  0  0  0  0
   -5.7480   20.5870  -33.4180 C   0  0  0  0  0  0  0  0  0  0  0  0
   -6.3305   20.0787  -34.2005 H   0  0  0  0  0  0  0  0  0  0  0  0
   -5.5577   21.6423  -33.6631 H   0  0  0  0  0  0  0  0  0  0  0  0
   -6.5360   20.5620  -32.1480 N   0  0  0  0  0  0  0  0  0  0  0  0
   -6.0420   21.1490  -31.4360 H   0  0  0  0  0  0  0  0  0  0  0  0
   -7.8780   21.1800  -32.3290 C   0  0  0  0  0  0  0  0  0  0  0  0
   -8.5903   20.3831  -32.5890 H   0  0  0  0  0  0  0  0  0  0  0  0
   -7.7685   21.9363  -33.1202 H   0  0  0  0  0  0  0  0  0  0  0  0
   -8.4150   21.9180  -31.0930 C   0  0  0  0  0  0  0  0  0  0  0  0
   -8.0523   21.4195  -30.1820 H   0  0  0  0  0  0  0  0  0  0  0  0
   -8.0624   22.9599  -31.1061 H   0  0  0  0  0  0  0  0  0  0  0  0
   -9.5148   21.9030  -31.1061 H   0  0  0  0  0  0  0  0  0  0  0  0
   -6.5830   19.1880  -31.5850 C   0  0  0  0  0  0  0  0  0  0  0  0
   -5.7142   18.6265  -31.9589 H   0  0  0  0  0  0  0  0  0  0  0  0
   -6.5719   19.2819  -30.4891 H   0  0  0  0  0  0  0  0  0  0  0  0
   -7.8550   18.4270  -31.9650 C   0  0  0  0  0  0  0  0  0  0  0  0
   -8.3808   18.1124  -31.0515 H   0  0  0  0  0  0  0  0  0  0  0  0
   -8.5104   19.0815  -32.5584 H   0  0  0  0  0  0  0  0  0  0  0  0
   -7.5882   17.5400  -32.5584 H   0  0  0  0  0  0  0  0  0  0  0  0
   -2.8000   22.6250  -29.7930 C   0  0  0  0  0  0  0  0  0  0  0  0
   -1.8240   21.5580  -29.4720 C   0  0  0  0  0  0  0  0  0  0  0  0
   -1.9110   20.8690  -28.2570 C   0  0  0  0  0  0  0  0  0  0  0  0
   -2.7270   21.0952  -27.5549 H   0  0  0  0  0  0  0  0  0  0  0  0
   -0.9630   19.8940  -27.9340 C   0  0  0  0  0  0  0  0  0  0  0  0
   -1.0263   19.3637  -26.9724 H   0  0  0  0  0  0  0  0  0  0  0  0
    0.0650   19.5920  -28.8310 C   0  0  0  0  0  0  0  0  0  0  0  0
    0.8051   18.8182  -28.5789 H   0  0  0  0  0  0  0  0  0  0  0  0
    0.1530   20.2720  -30.0470 C   0  0  0  0  0  0  0  0  0  0  0  0
    0.9616   20.0331  -30.7535 H   0  0  0  0  0  0  0  0  0  0  0  0
   -0.7870   21.2570  -30.3670 C   0  0  0  0  0  0  0  0  0  0  0  0
   -0.7128   21.7967  -31.3226 H   0  0  0  0  0  0  0  0  0  0  0  0
   -1.8570   24.8160  -27.0480 C   0  0  0  0  0  0  0  0  0  0  0  0
   -2.9032   24.9938  -26.7586 H   0  0  0  0  0  0  0  0  0  0  0  0
   -0.8250   25.1360  -26.1590 C   0  0  0  0  0  0  0  0  0  0  0  0
   -1.0618   25.5492  -25.1675 H   0  0  0  0  0  0  0  0  0  0  0  0
  1  2  1  0
  2  3  2  0
  3  4  1  0
  3  5  1  0
  5  6  1  0
  5  7  2  0
  7  8  1  0
  8  9  1  0
  9 10  1  0
 10 11  1  0
 11 12  1  0
 11 13  1  0
 11 14  1  0
 10 15  1  0
 15 16  2  0
 15 17  1  0
 17 18  2  0
 18 19  1  0
 19 20  1  0
 19 21  1  0
 19 22  1  0
 22 23  1  0
 22 24  1  0
 22 25  1  0
 25 26  1  0
 25 27  1  0
 25 28  1  0
 28 29  1  0
 28 30  1  0
 30 31  1  0
 30 32  1  0
 30 33  1  0
 33 34  1  0
 33 35  1  0
 33 36  1  0
 28 37  1  0
 37 38  1  0
 37 39  1  0
 37 40  1  0
 40 41  1  0
 40 42  1  0
 40 43  1  0
 17 44  1  0
 44 45  1  0
 45 46  2  0
 46 47  1  0
 46 48  1  0
 48 49  1  0
 48 50  2  0
 50 51  1  0
 50 52  1  0
 52 53  1  0
 52 54  2  0
 54 55  1  0
  7 56  1  0
 56 57  1  0
 56 58  2  0
 58 59  1  0
 58  2  1  0
 44  8  2  0
 54 45  1  0
M  CHG  2   9  -1  28   1
M  END
>  <UniqueID>  (9) 
8

>  <SMILES>  (9) 
CC[NH+](CC)CCC/N=c1/c(-c2ccccc2)c(-c2ccccc2)[n-]n(C)c1=O

>  <Energy>  (9) 
82.35942216024709

>  <Genealogy>  (9) 
CC[NH+](CC)CCCN=c1c(-c2ccccc2)c(-c2ccccc2)[n-]n(C)c1=O (protonated)
CC[NH+](CC)CCC/N=c1/c(-c2ccccc2)c(-c2ccccc2)[n-]n(C)c1=O (cis-trans isomerization)
CC[NH+](CC)CCC/N=c1/c(-c2ccccc2)c(-c2ccccc2)[n-]n(C)c1=O (3D coordinates assigned)
CC[NH+](CC)CCC/N=c1/c(-c2ccccc2)c(-c2ccccc2)[n-]n(C)c1=O (optimized conformer: 82.35942216024709 kcal/mol)

>  <smiles>  (9) 
CCN(CC)CCCN=c1c(-c2ccccc2)c(-c2ccccc2)[nH]n(C)c1=O

>  <score_type>  (9) 
oracle

>  <origin>  (9) 
adg

>  <m_score__min__energy>  (9) 
-8.6600000000000001

>  <m_primary>  (9) 
energy

$$$$
9:0
     RDKit          3D

 53 54  0  0  0  0  0  0  0  0999 V2000
   -6.2660   23.7400  -32.1330 C   0  0  0  0  0  0  0  0  0  0  0  0
   -5.9260   23.3890  -30.6890 C   0  0  0  0  0  0  0  0  0  0  0  0
   -5.0480   24.7320  -29.8930 S   0  0  0  0  0  0  0  0  0  0  0  0
   -4.0180   25.2790  -30.8420 O   0  0  0  0  0  0  0  0  0  0  0  0
   -6.0210   25.8210  -29.5380 O   0  0  0  0  0  0  0  0  0  0  0  0
   -4.2380   24.1670  -28.4030 C   0  0  0  0  0  0  0  0  0  0  0  0
   -4.2860   22.6240  -28.3080 C   0  0  0  0  0  0  0  0  0  0  0  0
   -2.9880   21.8990  -28.4080 N   0  0  2  0  0  0  0  0  0  0  0  0
   -1.9990   22.0350  -27.2820 C   0  0  1  0  0  0  0  0  0  0  0  0
   -1.4110   20.7100  -26.7240 C   0  0  0  0  0  0  0  0  0  0  0  0
   -1.7330   19.5580  -27.5810 N   0  0  0  0  0  0  0  0  0  0  0  0
   -0.9090   18.3890  -27.2580 C   0  0  0  0  0  0  0  0  0  0  0  0
   -0.8610   23.0420  -27.6200 C   0  0  0  0  0  0  0  0  0  0  0  0
   -1.0160   24.3840  -26.9700 C   0  0  0  0  0  0  0  0  0  0  0  0
   -1.1760   24.6230  -25.6100 C   0  0  0  0  0  0  0  0  0  0  0  0
   -1.2830   25.9840  -25.2990 C   0  0  0  0  0  0  0  0  0  0  0  0
   -1.2140   26.8190  -26.4080 C   0  0  0  0  0  0  0  0  0  0  0  0
   -1.0210   25.8610  -27.7770 S   0  0  0  0  0  0  0  0  0  0  0  0
   -2.2380   22.0210  -29.9890 S   0  0  0  0  0  0  0  0  0  0  0  0
   -0.9070   21.3260  -30.0110 O   0  0  0  0  0  0  0  0  0  0  0  0
   -2.0360   23.4660  -30.3480 O   0  0  0  0  0  0  0  0  0  0  0  0
   -3.3060   21.2980  -31.1860 C   0  0  0  0  0  0  0  0  0  0  0  0
   -3.1880   21.6140  -32.5450 C   0  0  0  0  0  0  0  0  0  0  0  0
   -4.0430   21.0020  -33.4660 C   0  0  0  0  0  0  0  0  0  0  0  0
   -4.9960   20.0790  -33.0250 C   0  0  0  0  0  0  0  0  0  0  0  0
   -6.0740   19.3000  -34.1690 Cl  0  0  0  0  0  0  0  0  0  0  0  0
   -5.0770   19.7830  -31.6600 C   0  0  0  0  0  0  0  0  0  0  0  0
   -4.2380   20.3920  -30.7820 N   0  0  0  0  0  0  0  0  0  0  0  0
   -7.0313   24.5300  -32.1479 H   0  0  0  0  0  0  0  0  0  0  0  0
   -5.3609   24.0965  -32.6465 H   0  0  0  0  0  0  0  0  0  0  0  0
   -6.6511   22.8467  -32.6465 H   0  0  0  0  0  0  0  0  0  0  0  0
   -6.8572   23.1911  -30.1379 H   0  0  0  0  0  0  0  0  0  0  0  0
   -5.2809   22.4980  -30.6870 H   0  0  0  0  0  0  0  0  0  0  0  0
   -3.1884   24.4958  -28.4154 H   0  0  0  0  0  0  0  0  0  0  0  0
   -4.7600   24.5920  -27.5330 H   0  0  0  0  0  0  0  0  0  0  0  0
   -4.7367   22.3652  -27.3386 H   0  0  0  0  0  0  0  0  0  0  0  0
   -4.8616   22.3016  -29.1882 H   0  0  0  0  0  0  0  0  0  0  0  0
   -3.2770   20.8920  -28.4040 H   0  0  0  0  0  0  0  0  0  0  0  0
   -2.6115   22.4365  -26.4613 H   0  0  0  0  0  0  0  0  0  0  0  0
   -0.3174   20.8076  -26.6569 H   0  0  0  0  0  0  0  0  0  0  0  0
   -1.8569   20.5315  -25.7344 H   0  0  0  0  0  0  0  0  0  0  0  0
   -1.5050   19.8220  -28.5680 H   0  0  0  0  0  0  0  0  0  0  0  0
   -0.8346   18.2834  -26.1656 H   0  0  0  0  0  0  0  0  0  0  0  0
   -1.3712   17.4858  -27.6830 H   0  0  0  0  0  0  0  0  0  0  0  0
    0.0970   18.5207  -27.6830 H   0  0  0  0  0  0  0  0  0  0  0  0
    0.0940   22.6070  -27.2902 H   0  0  0  0  0  0  0  0  0  0  0  0
   -0.8996   23.2102  -28.7064 H   0  0  0  0  0  0  0  0  0  0  0  0
   -1.2146   23.8241  -24.8549 H   0  0  0  0  0  0  0  0  0  0  0  0
   -1.4099   26.3577  -24.2722 H   0  0  0  0  0  0  0  0  0  0  0  0
   -1.2751   27.9172  -26.3930 H   0  0  0  0  0  0  0  0  0  0  0  0
   -2.4306   22.3361  -32.8842 H   0  0  0  0  0  0  0  0  0  0  0  0
   -3.9662   21.2461  -34.5358 H   0  0  0  0  0  0  0  0  0  0  0  0
   -5.8200   19.0572  -31.2977 H   0  0  0  0  0  0  0  0  0  0  0  0
  1  2  1  0
  2  3  1  0
  3  4  2  0
  3  5  2  0
  3  6  1  0
  6  7  1  0
  7  8  1  0
  8  9  1  0
  9 10  1  0
 10 11  1  0
 11 12  1  0
  9 13  1  0
 13 14  1  0
 14 15  2  0
 15 16  1  0
 16 17  2  0
 17 18  1  0
  8 19  1  0
 19 20  2  0
 19 21  2  0
 19 22  1  0
 22 23  2  0
 23 24  1  0
 24 25  2  0
 25 26  1  0
 25 27  1  0
 27 28  2  0
 18 14  1  0
 28 22  1  0
  1 29  1  0
  1 30  1  0
  1 31  1  0
  2 32  1  0
  2 33  1  0
  6 34  1  0
  6 35  1  0
  7 36  1  0
  7 37  1  0
  8 38  1  6
  9 39  1  1
 10 40  1  0
 10 41  1  0
 11 42  1  0
 12 43  1  0
 12 44  1  0
 12 45  1  0
 13 46  1  0
 13 47  1  0
 15 48  1  0
 16 49  1  0
 17 50  1  0
 23 51  1  0
 24 52  1  0
 27 53  1  0
M  CHG  1   8   1
M  END
>  <UniqueID>  (10) 
9

>  <SMILES>  (10) 
CCS(=O)(=O)CC[N@H+]([C@@H](CNC)Cc1cccs1)S(=O)(=O)c1ccc(Cl)cn1

>  <Energy>  (10) 
81.09648077518293

>  <Genealogy>  (10) 
CCS(=O)(=O)CC[NH+](C(CNC)Cc1cccs1)S(=O)(=O)c1ccc(Cl)cn1 (protonated)
CCS(=O)(=O)CC[N@H+]([C@@H](CNC)Cc1cccs1)S(=O)(=O)c1ccc(Cl)cn1 (chirality)
CCS(=O)(=O)CC[N@H+]([C@@H](CNC)Cc1cccs1)S(=O)(=O)c1ccc(Cl)cn1 (3D coordinates assigned)
CCS(=O)(=O)CC[N@H+]([C@@H](CNC)Cc1cccs1)S(=O)(=O)c1ccc(Cl)cn1 (optimized conformer: 81.09648077518293 kcal/mol)

>  <smiles>  (10) 
CCS(=O)(=O)CCN(C(CNC)Cc1cccs1)S(=O)(=O)c1ccc(Cl)cn1

>  <score_type>  (10) 
oracle

>  <origin>  (10) 
adg

>  <m_score__min__energy>  (10) 
-7.5899999999999999

>  <m_primary>  (10) 
energy

$$$$
10:0
     RDKit          3D

 57 61  0  0  0  0  0  0  0  0999 V2000
   -8.0030   18.2840  -31.9960 C   0  0  0  0  0  0  0  0  0  0  0  0
   -7.0610   19.3420  -32.5690 C   0  0  0  0  0  0  0  0  0  0  0  0
   -7.6420   20.7700  -32.4430 C   0  0  1  0  0  0  0  0  0  0  0  0
   -8.2930   21.0270  -31.0600 C   0  0  0  0  0  0  0  0  0  0  0  0
   -8.1790   22.3800  -30.6280 O   0  0  0  0  0  0  0  0  0  0  0  0
   -8.3980   23.2800  -31.6990 C   0  0  0  0  0  0  0  0  0  0  0  0
   -7.2390   23.2000  -32.7110 C   0  0  0  0  0  0  0  0  0  0  0  0
   -6.6720   21.8460  -32.7070 N   0  0  0  0  0  0  0  0  0  0  0  0
   -5.2800   21.7080  -32.3650 C   0  0  0  0  0  0  0  0  0  0  0  0
   -4.5120   20.8200  -33.0480 N   0  0  0  0  0  0  0  0  0  0  0  0
   -3.1980   20.6260  -32.7540 C   0  0  0  0  0  0  0  0  0  0  0  0
   -2.4350   19.6810  -33.5270 N   0  0  0  0  0  0  0  0  0  0  0  0
   -1.2040   20.0380  -34.2120 C   0  0  0  0  0  0  0  0  0  0  0  0
   -0.6380   18.7320  -34.7500 C   0  0  0  0  0  0  0  0  0  0  0  0
   -1.7880   17.7290  -34.7090 C   0  0  0  0  0  0  0  0  0  0  0  0
   -2.7930   18.2850  -33.7090 C   0  0  0  0  0  0  0  0  0  0  0  0
   -2.6250   21.3320  -31.7370 N   0  0  0  0  0  0  0  0  0  0  0  0
   -3.3510   22.2280  -31.0140 C   0  0  0  0  0  0  0  0  0  0  0  0
   -2.7610   22.9250  -30.0050 N   0  0  0  0  0  0  0  0  0  0  0  0
   -3.4380   23.8370  -29.2530 C   0  0  0  0  0  0  0  0  0  0  0  0
   -2.7210   24.5620  -28.1720 C   0  0  0  0  0  0  0  0  0  0  0  0
   -1.4890   25.1870  -28.4460 C   0  0  0  0  0  0  0  0  0  0  0  0
   -0.8000   25.8700  -27.4390 C   0  0  0  0  0  0  0  0  0  0  0  0
   -1.3250   25.9300  -26.1470 C   0  0  0  0  0  0  0  0  0  0  0  0
   -2.5390   25.3040  -25.8570 C   0  0  0  0  0  0  0  0  0  0  0  0
   -3.2340   24.6210  -26.8600 C   0  0  0  0  0  0  0  0  0  0  0  0
   -4.7930   24.0860  -29.5350 C   0  0  0  0  0  0  0  0  0  0  0  0
   -5.4250   23.3870  -30.5640 C   0  0  0  0  0  0  0  0  0  0  0  0
   -4.7090   22.4400  -31.3110 C   0  0  0  0  0  0  0  0  0  0  0  0
   -7.9704   18.3206  -30.8971 H   0  0  0  0  0  0  0  0  0  0  0  0
   -9.0291   18.4822  -32.3392 H   0  0  0  0  0  0  0  0  0  0  0  0
   -7.6875   17.2877  -32.3392 H   0  0  0  0  0  0  0  0  0  0  0  0
   -6.1061   19.2986  -32.0246 H   0  0  0  0  0  0  0  0  0  0  0  0
   -6.9216   19.1269  -33.6387 H   0  0  0  0  0  0  0  0  0  0  0  0
   -8.4087   20.8033  -33.2311 H   0  0  0  0  0  0  0  0  0  0  0  0
   -9.3605   20.7690  -31.1228 H   0  0  0  0  0  0  0  0  0  0  0  0
   -7.7594   20.4041  -30.3270 H   0  0  0  0  0  0  0  0  0  0  0  0
   -9.3397   23.0199  -32.2046 H   0  0  0  0  0  0  0  0  0  0  0  0
   -8.4543   24.3036  -31.3001 H   0  0  0  0  0  0  0  0  0  0  0  0
   -7.6152   23.4360  -33.7174 H   0  0  0  0  0  0  0  0  0  0  0  0
   -6.4589   23.9227  -32.4297 H   0  0  0  0  0  0  0  0  0  0  0  0
   -1.4126   20.7344  -35.0375 H   0  0  0  0  0  0  0  0  0  0  0  0
   -0.4951   20.5401  -33.5373 H   0  0  0  0  0  0  0  0  0  0  0  0
   -0.2833   18.8654  -35.7827 H   0  0  0  0  0  0  0  0  0  0  0  0
    0.2197   18.3875  -34.1535 H   0  0  0  0  0  0  0  0  0  0  0  0
   -2.2495   17.6355  -35.7031 H   0  0  0  0  0  0  0  0  0  0  0  0
   -1.4395   16.7276  -34.4162 H   0  0  0  0  0  0  0  0  0  0  0  0
   -3.8156   18.1998  -34.1052 H   0  0  0  0  0  0  0  0  0  0  0  0
   -2.7682   17.7322  -32.7583 H   0  0  0  0  0  0  0  0  0  0  0  0
   -1.6160   21.2000  -31.5010 H   0  0  0  0  0  0  0  0  0  0  0  0
   -1.0655   25.1375  -29.4600 H   0  0  0  0  0  0  0  0  0  0  0  0
    0.1579   26.3611  -27.6655 H   0  0  0  0  0  0  0  0  0  0  0  0
   -0.7824   26.4704  -25.3574 H   0  0  0  0  0  0  0  0  0  0  0  0
   -2.9495   25.3482  -24.8374 H   0  0  0  0  0  0  0  0  0  0  0  0
   -4.1876   24.1263  -26.6237 H   0  0  0  0  0  0  0  0  0  0  0  0
   -5.3522   24.8286  -28.9469 H   0  0  0  0  0  0  0  0  0  0  0  0
   -6.4845   23.5785  -30.7894 H   0  0  0  0  0  0  0  0  0  0  0  0
  1  2  1  0
  2  3  1  0
  3  4  1  0
  4  5  1  0
  5  6  1  0
  6  7  1  0
  7  8  1  0
  8  9  1  0
  9 10  2  0
 10 11  1  0
 11 12  1  0
 12 13  1  0
 13 14  1  0
 14 15  1  0
 15 16  1  0
 11 17  2  0
 17 18  1  0
 18 19  2  0
 19 20  1  0
 20 21  1  0
 21 22  2  0
 22 23  1  0
 23 24  2  0
 24 25  1  0
 25 26  2  0
 20 27  2  0
 27 28  1  0
 28 29  2  0
  8  3  1  0
 29  9  1  0
 16 12  1  0
 29 18  1  0
 26 21  1  0
  1 30  1  0
  1 31  1  0
  1 32  1  0
  2 33  1  0
  2 34  1  0
  3 35  1  6
  4 36  1  0
  4 37  1  0
  6 38  1  0
  6 39  1  0
  7 40  1  0
  7 41  1  0
 13 42  1  0
 13 43  1  0
 14 44  1  0
 14 45  1  0
 15 46  1  0
 15 47  1  0
 16 48  1  0
 16 49  1  0
 17 50  1  0
 22 51  1  0
 23 52  1  0
 24 53  1  0
 25 54  1  0
 26 55  1  0
 27 56  1  0
 28 57  1  0
M  CHG  1  17   1
M  END
>  <UniqueID>  (11) 
10

>  <SMILES>  (11) 
CC[C@H]1COCCN1c1nc(N2CCCC2)[nH+]c2nc(-c3ccccc3)ccc12

>  <Energy>  (11) 
81.0170987295534

>  <Genealogy>  (11) 
CCC1COCCN1c1nc(N2CCCC2)[nH+]c2nc(-c3ccccc3)ccc12 (protonated)
CC[C@H]1COCCN1c1nc(N2CCCC2)[nH+]c2nc(-c3ccccc3)ccc12 (chirality)
CC[C@H]1COCCN1c1nc(N2CCCC2)[nH+]c2nc(-c3ccccc3)ccc12 (3D coordinates assigned)
CC[C@H]1COCCN1c1nc(N2CCCC2)[nH+]c2nc(-c3ccccc3)ccc12 (nonaromatic ring conformer: 81.0170987295534 kcal/mol)

>  <smiles>  (11) 
CCC1COCCN1c1nc(N2CCCC2)nc2nc(-c3ccccc3)ccc12

>  <score_type>  (11) 
oracle

>  <origin>  (11) 
adg

>  <m_score__min__energy>  (11) 
-7.8300000000000001

>  <m_primary>  (11) 
energy

$$$$
11:0
     RDKit          3D

 20 21  0  0  0  0  0  0  0  0999 V2000
   -6.1020   19.0030  -33.8710 C   0  0  0  0  0  0  0  0  0  0  0  0
   -6.4120   20.2160  -33.0950 N   0  0  0  0  0  0  0  0  0  0  0  0
   -5.4240   21.1400  -32.8420 C   0  0  0  0  0  0  0  0  0  0  0  0
   -4.2390   20.9650  -33.2400 O   0  0  0  0  0  0  0  0  0  0  0  0
   -5.7600   22.2850  -32.1420 C   0  0  0  0  0  0  0  0  0  0  0  0
   -4.9780   23.3170  -31.7940 N   0  0  0  0  0  0  0  0  0  0  0  0
   -5.8550   24.1350  -31.1550 C   0  0  0  0  0  0  0  0  0  0  0  0
   -5.3810   25.6740  -30.4680 Cl  0  0  0  0  0  0  0  0  0  0  0  0
   -7.1290   23.6680  -31.0940 N   0  0  0  0  0  0  0  0  0  0  0  0
   -7.0270   22.4900  -31.7310 C   0  0  0  0  0  0  0  0  0  0  0  0
   -8.0260   21.5980  -31.9730 N   0  0  0  0  0  0  0  0  0  0  0  0
   -9.4050   21.8820  -31.5560 C   0  0  0  0  0  0  0  0  0  0  0  0
   -7.7140   20.4610  -32.6890 C   0  0  0  0  0  0  0  0  0  0  0  0
   -8.6290   19.6400  -32.9810 O   0  0  0  0  0  0  0  0  0  0  0  0
   -5.8895   18.1717  -33.1827 H   0  0  0  0  0  0  0  0  0  0  0  0
   -6.9627   18.7433  -34.5049 H   0  0  0  0  0  0  0  0  0  0  0  0
   -5.2223   19.1881  -34.5049 H   0  0  0  0  0  0  0  0  0  0  0  0
   -9.4609   21.8935  -30.4575 H   0  0  0  0  0  0  0  0  0  0  0  0
   -9.7124   22.8623  -31.9491 H   0  0  0  0  0  0  0  0  0  0  0  0
  -10.0747   21.1029  -31.9491 H   0  0  0  0  0  0  0  0  0  0  0  0
  1  2  1  0
  2  3  1  0
  3  4  2  0
  3  5  1  0
  5  6  1  0
  6  7  1  0
  7  8  1  0
  7  9  2  0
  9 10  1  0
 10 11  1  0
 11 12  1  0
 11 13  1  0
 13 14  2  0
 13  2  1  0
 10  5  2  0
  1 15  1  0
  1 16  1  0
  1 17  1  0
 12 18  1  0
 12 19  1  0
 12 20  1  0
M  CHG  1   6  -1
M  END
>  <UniqueID>  (12) 
11

>  <SMILES>  (12) 
Cn1c(=O)c2[n-]c(Cl)nc2n(C)c1=O

>  <Energy>  (12) 
62.604380859305486

>  <Genealogy>  (12) 
Cn1c(=O)c2[n-]c(Cl)nc2n(C)c1=O (protonated)
Cn1c(=O)c2[n-]c(Cl)nc2n(C)c1=O (3D coordinates assigned)
Cn1c(=O)c2[n-]c(Cl)nc2n(C)c1=O (optimized conformer: 62.604380859305486 kcal/mol)

>  <smiles>  (12) 
Cn1c(=O)c2[nH]c(Cl)nc2n(C)c1=O

>  <score_type>  (12) 
oracle

>  <origin>  (12) 
adg

>  <m_score__min__energy>  (12) 
-5.8499999999999996

>  <m_primary>  (12) 
energy

$$$$
12:0
     RDKit          3D

 56 59  0  0  0  0  0  0  0  0999 V2000
   -5.0950   25.6280  -30.5010 C   0  0  0  0  0  0  0  0  0  0  0  0
   -3.7410   25.1900  -30.4750 O   0  0  0  0  0  0  0  0  0  0  0  0
   -3.1850   24.3830  -29.4700 C   0  0  0  0  0  0  0  0  0  0  0  0
   -2.5220   24.9250  -28.3510 C   0  0  0  0  0  0  0  0  0  0  0  0
   -1.9830   24.0830  -27.3750 C   0  0  0  0  0  0  0  0  0  0  0  0
   -2.0980   22.6970  -27.5020 C   0  0  0  0  0  0  0  0  0  0  0  0
   -2.7530   22.1500  -28.6060 C   0  0  0  0  0  0  0  0  0  0  0  0
   -3.2990   22.9870  -29.5890 C   0  0  0  0  0  0  0  0  0  0  0  0
   -3.9700   22.4140  -30.7200 N   0  0  0  0  0  0  0  0  0  0  0  0
   -3.1420   21.7670  -31.7450 C   0  0  0  0  0  0  0  0  0  0  0  0
   -3.8700   21.7300  -33.0870 C   0  0  0  0  0  0  0  0  0  0  0  0
   -5.1950   21.1240  -32.9100 N   0  0  0  0  0  0  0  0  0  0  0  0
   -5.4870   19.8460  -33.5760 C   0  0  0  0  0  0  0  0  0  0  0  0
   -5.5610   18.7360  -32.5600 C   0  0  0  0  0  0  0  0  0  0  0  0
   -5.5670   19.0370  -31.3340 O   0  0  0  0  0  0  0  0  0  0  0  0
   -5.6350   17.3500  -32.9500 N   0  0  0  0  0  0  0  0  0  0  0  0
   -6.1220   16.9520  -34.2780 C   0  0  0  0  0  0  0  0  0  0  0  0
   -6.7590   15.5550  -34.2160 C   0  0  0  0  0  0  0  0  0  0  0  0
   -5.8630   14.5230  -33.6320 N   0  0  0  0  0  0  0  0  0  0  0  0
   -5.2850   13.6610  -34.6740 C   0  0  0  0  0  0  0  0  0  0  0  0
   -4.7960   15.0510  -32.7500 C   0  0  0  0  0  0  0  0  0  0  0  0
   -5.2390   16.3080  -31.9960 C   0  0  0  0  0  0  0  0  0  0  0  0
   -6.0280   21.6450  -31.8520 C   0  0  0  0  0  0  0  0  0  0  0  0
   -7.4310   21.5550  -31.9080 C   0  0  0  0  0  0  0  0  0  0  0  0
   -8.2140   22.0750  -30.8760 C   0  0  0  0  0  0  0  0  0  0  0  0
   -7.6110   22.7000  -29.7850 C   0  0  0  0  0  0  0  0  0  0  0  0
   -6.2200   22.8150  -29.7240 C   0  0  0  0  0  0  0  0  0  0  0  0
   -5.4140   22.2900  -30.7550 C   0  0  0  0  0  0  0  0  0  0  0  0
   -5.4618   25.7467  -29.4708 H   0  0  0  0  0  0  0  0  0  0  0  0
   -5.1584   26.5925  -31.0262 H   0  0  0  0  0  0  0  0  0  0  0  0
   -5.7112   24.8834  -31.0262 H   0  0  0  0  0  0  0  0  0  0  0  0
   -2.4284   26.0159  -28.2454 H   0  0  0  0  0  0  0  0  0  0  0  0
   -1.4666   24.5130  -26.5041 H   0  0  0  0  0  0  0  0  0  0  0  0
   -1.6724   22.0368  -26.7320 H   0  0  0  0  0  0  0  0  0  0  0  0
   -2.8412   21.0580  -28.7053 H   0  0  0  0  0  0  0  0  0  0  0  0
   -2.2040   22.3301  -31.8591 H   0  0  0  0  0  0  0  0  0  0  0  0
   -2.9329   20.7343  -31.4289 H   0  0  0  0  0  0  0  0  0  0  0  0
   -3.9840   22.7547  -33.4703 H   0  0  0  0  0  0  0  0  0  0  0  0
   -3.2870   21.1325  -33.8033 H   0  0  0  0  0  0  0  0  0  0  0  0
   -6.4500   19.9220  -34.1022 H   0  0  0  0  0  0  0  0  0  0  0  0
   -4.6839   19.6231  -34.2939 H   0  0  0  0  0  0  0  0  0  0  0  0
   -6.8732   17.6784  -34.6217 H   0  0  0  0  0  0  0  0  0  0  0  0
   -5.2735   16.9276  -34.9777 H   0  0  0  0  0  0  0  0  0  0  0  0
   -7.6697   15.6140  -33.6018 H   0  0  0  0  0  0  0  0  0  0  0  0
   -6.9743   15.2501  -35.2507 H   0  0  0  0  0  0  0  0  0  0  0  0
   -4.7317   12.8358  -34.2019 H   0  0  0  0  0  0  0  0  0  0  0  0
   -6.0915   13.2510  -35.2997 H   0  0  0  0  0  0  0  0  0  0  0  0
   -4.5995   14.2514  -35.2997 H   0  0  0  0  0  0  0  0  0  0  0  0
   -4.5253   14.2757  -32.0181 H   0  0  0  0  0  0  0  0  0  0  0  0
   -3.9376   15.3212  -33.3825 H   0  0  0  0  0  0  0  0  0  0  0  0
   -6.0938   16.0625  -31.3486 H   0  0  0  0  0  0  0  0  0  0  0  0
   -4.4024   16.6766  -31.3842 H   0  0  0  0  0  0  0  0  0  0  0  0
   -7.9138   21.0719  -32.7703 H   0  0  0  0  0  0  0  0  0  0  0  0
   -9.3098   21.9915  -30.9235 H   0  0  0  0  0  0  0  0  0  0  0  0
   -8.2315   23.1031  -28.9711 H   0  0  0  0  0  0  0  0  0  0  0  0
   -5.7505   23.3184  -28.8660 H   0  0  0  0  0  0  0  0  0  0  0  0
  1  2  1  0
  2  3  1  0
  3  4  2  0
  4  5  1  0
  5  6  2  0
  6  7  1  0
  7  8  2  0
  8  9  1  0
  9 10  1  0
 10 11  1  0
 11 12  1  0
 12 13  1  0
 13 14  1  0
 14 15  2  0
 14 16  1  0
 16 17  1  0
 17 18  1  0
 18 19  1  0
 19 20  1  0
 19 21  1  0
 21 22  1  0
 12 23  1  0
 23 24  2  0
 24 25  1  0
 25 26  2  0
 26 27  1  0
 27 28  2  0
  8  3  1  0
 28  9  1  0
 22 16  1  0
 28 23  1  0
  1 29  1  0
  1 30  1  0
  1 31  1  0
  4 32  1  0
  5 33  1  0
  6 34  1  0
  7 35  1  0
 10 36  1  0
 10 37  1  0
 11 38  1  0
 11 39  1  0
 13 40  1  0
 13 41  1  0
 17 42  1  0
 17 43  1  0
 18 44  1  0
 18 45  1  0
 20 46  1  0
 20 47  1  0
 20 48  1  0
 21 49  1  0
 21 50  1  0
 22 51  1  0
 22 52  1  0
 24 53  1  0
 25 54  1  0
 26 55  1  0
 27 56  1  0
M  END
>  <UniqueID>  (13) 
12

>  <SMILES>  (13) 
COc1ccccc1N1CCN(CC(=O)N2CCN(C)CC2)c2ccccc21

>  <Energy>  (13) 
74.87784882880135

>  <Genealogy>  (13) 
COc1ccccc1N1CCN(CC(=O)N2CCN(C)CC2)c2ccccc21 (3D coordinates assigned)
COc1ccccc1N1CCN(CC(=O)N2CCN(C)CC2)c2ccccc21 (nonaromatic ring conformer: 74.87784882880135 kcal/mol)

>  <smiles>  (13) 
COc1ccccc1N1CCN(CC(=O)N2CCN(C)CC2)c2ccccc21

>  <score_type>  (13) 
oracle

>  <origin>  (13) 
adg

>  <m_score__min__energy>  (13) 
-8.5999999999999996

>  <m_primary>  (13) 
energy

$$$$
13:0
     RDKit          3D

 44 46  0  0  0  0  0  0  0  0999 V2000
   -0.8700   26.5750  -28.2120 C   0  0  0  0  0  0  0  0  0  0  0  0
   -1.5850   25.5520  -28.8970 O   0  0  0  0  0  0  0  0  0  0  0  0
   -1.7030   24.2240  -28.4530 C   0  0  0  0  0  0  0  0  0  0  0  0
   -0.8170   23.6750  -27.5040 C   0  0  0  0  0  0  0  0  0  0  0  0
   -0.9570   22.3480  -27.0910 C   0  0  0  0  0  0  0  0  0  0  0  0
   -1.9760   21.5520  -27.6190 C   0  0  0  0  0  0  0  0  0  0  0  0
   -2.1590   19.7360  -27.0580 Br  0  0  0  0  0  0  0  0  0  0  0  0
   -2.8610   22.0860  -28.5590 C   0  0  0  0  0  0  0  0  0  0  0  0
   -2.7370   23.4200  -28.9770 C   0  0  0  0  0  0  0  0  0  0  0  0
   -3.6900   23.9770  -30.0090 C   0  0  0  0  0  0  0  0  0  0  0  0
   -4.7550   23.0000  -30.3220 N   0  0  0  0  0  0  0  0  0  0  0  0
   -5.1640   23.0680  -31.7500 C   0  0  0  0  0  0  0  0  0  0  0  0
   -6.4780   23.8450  -31.9540 C   0  0  0  0  0  0  0  0  0  0  0  0
   -7.6070   23.2740  -31.1660 N   0  0  0  0  0  0  0  0  0  0  0  0
   -8.5780   22.5120  -31.9930 C   0  0  0  0  0  0  0  0  0  0  0  0
   -8.2720   21.0400  -32.1100 C   0  0  0  0  0  0  0  0  0  0  0  0
   -9.0600   19.9980  -31.6320 C   0  0  0  0  0  0  0  0  0  0  0  0
   -8.5400   18.7320  -31.9210 C   0  0  0  0  0  0  0  0  0  0  0  0
   -7.3530   18.7670  -32.6400 C   0  0  0  0  0  0  0  0  0  0  0  0
   -6.9510   20.3760  -32.9150 S   0  0  0  0  0  0  0  0  0  0  0  0
   -7.1700   22.5120  -29.9700 C   0  0  0  0  0  0  0  0  0  0  0  0
   -5.8930   23.1120  -29.3750 C   0  0  0  0  0  0  0  0  0  0  0  0
   -0.9717   26.4295  -27.1264 H   0  0  0  0  0  0  0  0  0  0  0  0
    0.1932   26.5284  -28.4902 H   0  0  0  0  0  0  0  0  0  0  0  0
   -1.2791   27.5575  -28.4902 H   0  0  0  0  0  0  0  0  0  0  0  0
   -0.0104   24.2954  -27.0861 H   0  0  0  0  0  0  0  0  0  0  0  0
   -0.2628   21.9287  -26.3479 H   0  0  0  0  0  0  0  0  0  0  0  0
   -3.6612   21.4560  -28.9747 H   0  0  0  0  0  0  0  0  0  0  0  0
   -4.1484   24.8970  -29.6172 H   0  0  0  0  0  0  0  0  0  0  0  0
   -3.1269   24.1916  -30.9293 H   0  0  0  0  0  0  0  0  0  0  0  0
   -4.3674   23.5672  -32.3211 H   0  0  0  0  0  0  0  0  0  0  0  0
   -5.3289   22.0378  -32.0985 H   0  0  0  0  0  0  0  0  0  0  0  0
   -6.3227   24.8885  -31.6426 H   0  0  0  0  0  0  0  0  0  0  0  0
   -6.7451   23.7761  -33.0188 H   0  0  0  0  0  0  0  0  0  0  0  0
   -8.1470   24.0960  -30.8000 H   0  0  0  0  0  0  0  0  0  0  0  0
   -9.5754   22.6219  -31.5423 H   0  0  0  0  0  0  0  0  0  0  0  0
   -8.5205   22.9277  -33.0098 H   0  0  0  0  0  0  0  0  0  0  0  0
   -9.9993   20.1542  -31.0812 H   0  0  0  0  0  0  0  0  0  0  0  0
   -9.0261   17.7963  -31.6078 H   0  0  0  0  0  0  0  0  0  0  0  0
   -6.7749   17.8923  -32.9726 H   0  0  0  0  0  0  0  0  0  0  0  0
   -7.9679   22.5411  -29.2133 H   0  0  0  0  0  0  0  0  0  0  0  0
   -6.9631   21.4745  -30.2712 H   0  0  0  0  0  0  0  0  0  0  0  0
   -6.0676   24.1741  -29.1480 H   0  0  0  0  0  0  0  0  0  0  0  0
   -5.6406   22.5561  -28.4600 H   0  0  0  0  0  0  0  0  0  0  0  0
  1  2  1  0
  2  3  1  0
  3  4  2  0
  4  5  1  0
  5  6  2  0
  6  7  1  0
  6  8  1  0
  8  9  2  0
  9 10  1  0
 10 11  1  0
 11 12  1  0
 12 13  1  0
 13 14  1  0
 14 15  1  0
 15 16  1  0
 16 17  2  0
 17 18  1  0
 18 19  2  0
 19 20  1  0
 14 21  1  0
 21 22  1  0
  9  3  1  0
 22 11  1  0
 20 16  1  0
  1 23  1  0
  1 24  1  0
  1 25  1  0
  4 26  1  0
  5 27  1  0
  8 28  1  0
 10 29  1  0
 10 30  1  0
 12 31  1  0
 12 32  1  0
 13 33  1  0
 13 34  1  0
 14 35  1  0
 15 36  1  0
 15 37  1  0
 17 38  1  0
 18 39  1  0
 19 40  1  0
 21 41  1  0
 21 42  1  0
 22 43  1  0
 22 44  1  0
M  CHG  1  14   1
M  END
>  <UniqueID>  (14) 
13

>  <SMILES>  (14) 
COc1ccc(Br)cc1CN1CC[NH+](Cc2cccs2)CC1

>  <Energy>  (14) 
85.3056692701518

>  <Genealogy>  (14) 
COc1ccc(Br)cc1CN1CC[NH+](Cc2cccs2)CC1 (protonated)
COc1ccc(Br)cc1CN1CC[NH+](Cc2cccs2)CC1 (3D coordinates assigned)
COc1ccc(Br)cc1CN1CC[NH+](Cc2cccs2)CC1 (nonaromatic ring conformer: 85.3056692701518 kcal/mol)

>  <smiles>  (14) 
COc1ccc(Br)cc1CN1CCN(Cc2cccs2)CC1

>  <score_type>  (14) 
oracle

>  <origin>  (14) 
adg

>  <m_score__min__energy>  (14) 
-7.75

>  <m_primary>  (14) 
energy

$$$$
14:0
     RDKit          3D

 41 43  0  0  0  0  0  0  0  0999 V2000
   -2.6930   21.4770  -31.7450 C   0  0  0  0  0  0  0  0  0  0  0  0
   -4.0190   21.3590  -31.6330 C   0  0  0  0  0  0  0  0  0  0  0  0
   -4.9550   22.0260  -32.6000 C   0  0  0  0  0  0  0  0  0  0  0  0
   -6.3380   21.9360  -32.1220 N   0  0  0  0  0  0  0  0  0  0  0  0
   -7.0970   22.9360  -31.6280 C   0  0  0  0  0  0  0  0  0  0  0  0
   -6.4960   24.5780  -31.2190 S   0  0  0  0  0  0  0  0  0  0  0  0
   -5.6510   24.0770  -29.6780 C   0  0  0  0  0  0  0  0  0  0  0  0
   -4.1970   24.4410  -29.7630 C   0  0  0  0  0  0  0  0  0  0  0  0
   -3.8430   25.2930  -30.6220 O   0  0  0  0  0  0  0  0  0  0  0  0
   -3.1630   23.7640  -28.9410 C   0  0  0  0  0  0  0  0  0  0  0  0
   -3.4080   22.5050  -28.3570 C   0  0  0  0  0  0  0  0  0  0  0  0
   -2.4230   21.8790  -27.5870 C   0  0  0  0  0  0  0  0  0  0  0  0
   -1.1840   22.4920  -27.3990 C   0  0  0  0  0  0  0  0  0  0  0  0
   -0.9300   23.7410  -27.9670 C   0  0  0  0  0  0  0  0  0  0  0  0
   -1.9130   24.3810  -28.7280 C   0  0  0  0  0  0  0  0  0  0  0  0
   -1.6290   25.5880  -29.2820 F   0  0  0  0  0  0  0  0  0  0  0  0
   -8.3890   22.5770  -31.5250 N   0  0  0  0  0  0  0  0  0  0  0  0
   -8.4780   21.3300  -31.9610 N   0  0  0  0  0  0  0  0  0  0  0  0
   -7.2360   20.9470  -32.3180 C   0  0  0  0  0  0  0  0  0  0  0  0
   -6.9400   19.6200  -32.8790 C   0  0  0  0  0  0  0  0  0  0  0  0
   -6.0310   19.3550  -33.8800 C   0  0  0  0  0  0  0  0  0  0  0  0
   -6.1190   17.9970  -34.1150 C   0  0  0  0  0  0  0  0  0  0  0  0
   -7.0350   17.4680  -33.3360 O   0  0  0  0  0  0  0  0  0  0  0  0
   -7.5590   18.4150  -32.5920 C   0  0  0  0  0  0  0  0  0  0  0  0
   -8.6720   18.1800  -31.6220 C   0  0  0  0  0  0  0  0  0  0  0  0
   -2.0332   20.9765  -31.0210 H   0  0  0  0  0  0  0  0  0  0  0  0
   -2.2610   22.0747  -32.5612 H   0  0  0  0  0  0  0  0  0  0  0  0
   -4.4360   20.7579  -30.8115 H   0  0  0  0  0  0  0  0  0  0  0  0
   -4.6756   23.0850  -32.7020 H   0  0  0  0  0  0  0  0  0  0  0  0
   -4.8815   21.5186  -33.5732 H   0  0  0  0  0  0  0  0  0  0  0  0
   -6.1094   24.5958  -28.8232 H   0  0  0  0  0  0  0  0  0  0  0  0
   -5.7493   22.9898  -29.5429 H   0  0  0  0  0  0  0  0  0  0  0  0
   -4.3797   22.0120  -28.5078 H   0  0  0  0  0  0  0  0  0  0  0  0
   -2.6257   20.9001  -27.1280 H   0  0  0  0  0  0  0  0  0  0  0  0
   -0.4072   21.9907  -26.8029 H   0  0  0  0  0  0  0  0  0  0  0  0
    0.0468   24.2237  -27.8156 H   0  0  0  0  0  0  0  0  0  0  0  0
   -5.3721   20.0755  -34.3867 H   0  0  0  0  0  0  0  0  0  0  0  0
   -5.5126   17.4413  -34.8454 H   0  0  0  0  0  0  0  0  0  0  0  0
   -8.2866   18.2614  -30.5949 H   0  0  0  0  0  0  0  0  0  0  0  0
   -9.4597   18.9316  -31.7787 H   0  0  0  0  0  0  0  0  0  0  0  0
   -9.0886   17.1741  -31.7787 H   0  0  0  0  0  0  0  0  0  0  0  0
  1  2  2  0
  2  3  1  0
  3  4  1  0
  4  5  1  0
  5  6  1  0
  6  7  1  0
  7  8  1  0
  8  9  2  0
  8 10  1  0
 10 11  2  0
 11 12  1  0
 12 13  2  0
 13 14  1  0
 14 15  2  0
 15 16  1  0
  5 17  2  0
 17 18  1  0
 18 19  2  0
 19 20  1  0
 20 21  1  0
 21 22  2  0
 22 23  1  0
 23 24  1  0
 24 25  1  0
 19  4  1  0
 24 20  2  0
 15 10  1  0
  1 26  1  0
  1 27  1  0
  2 28  1  0
  3 29  1  0
  3 30  1  0
  7 31  1  0
  7 32  1  0
 11 33  1  0
 12 34  1  0
 13 35  1  0
 14 36  1  0
 21 37  1  0
 22 38  1  0
 25 39  1  0
 25 40  1  0
 25 41  1  0
M  END
>  <UniqueID>  (15) 
14

>  <SMILES>  (15) 
C=CCn1c(SCC(=O)c2ccccc2F)nnc1-c1ccoc1C

>  <Energy>  (15) 
103.6141790937251

>  <Genealogy>  (15) 
C=CCn1c(SCC(=O)c2ccccc2F)nnc1-c1ccoc1C (3D coordinates assigned)
C=CCn1c(SCC(=O)c2ccccc2F)nnc1-c1ccoc1C (optimized conformer: 103.6141790937251 kcal/mol)

>  <smiles>  (15) 
C=CCn1c(SCC(=O)c2ccccc2F)nnc1-c1ccoc1C

>  <score_type>  (15) 
oracle

>  <origin>  (15) 
adg

>  <m_score__min__energy>  (15) 
-9.0099999999999998

>  <m_primary>  (15) 
energy

$$$$
15:0
     RDKit          3D

 48 51  0  0  0  0  0  0  0  0999 V2000
   -0.6799   25.4666  -25.4400 H   0  0  0  0  0  0  0  0  0  0  0  0
   -1.2140   25.2550  -26.3780 C   0  0  0  0  0  0  0  0  0  0  0  0
   -0.5710   25.4380  -27.6050 C   0  0  0  0  0  0  0  0  0  0  0  0
    0.4668   25.8015  -27.6321 H   0  0  0  0  0  0  0  0  0  0  0  0
   -1.2440   25.1600  -28.7980 C   0  0  0  0  0  0  0  0  0  0  0  0
   -0.7381   25.3179  -29.7619 H   0  0  0  0  0  0  0  0  0  0  0  0
   -2.5660   24.6790  -28.7710 C   0  0  0  0  0  0  0  0  0  0  0  0
   -3.2920   24.4240  -29.9850 N   0  0  0  0  0  0  0  0  0  0  0  0
   -2.7210   24.1690  -30.8190 H   0  0  0  0  0  0  0  0  0  0  0  0
   -4.7320   24.4160  -30.0880 C   0  0  0  0  0  0  0  0  0  0  0  0
   -5.3880   23.6300  -31.0950 N   0  0  0  0  0  0  0  0  0  0  0  0
   -4.8740   22.6200  -31.7340 C   0  0  0  0  0  0  0  0  0  0  0  0
   -3.5450   22.4870  -31.9870 N   0  0  0  0  0  0  0  0  0  0  0  0
   -3.4810   21.3260  -32.6660 C   0  0  0  0  0  0  0  0  0  0  0  0
   -2.3390   20.7050  -33.1850 C   0  0  0  0  0  0  0  0  0  0  0  0
   -0.9640   21.2810  -32.9730 C   0  0  0  0  0  0  0  0  0  0  0  0
   -0.9204   22.2849  -33.4205 H   0  0  0  0  0  0  0  0  0  0  0  0
   -0.2263   20.6180  -33.4487 H   0  0  0  0  0  0  0  0  0  0  0  0
   -0.6440   21.3820  -31.4860 C   0  0  0  0  0  0  0  0  0  0  0  0
   -1.5318   21.1018  -30.9000 H   0  0  0  0  0  0  0  0  0  0  0  0
    0.1857   20.7020  -31.2425 H   0  0  0  0  0  0  0  0  0  0  0  0
   -0.3550   22.4150  -31.2425 H   0  0  0  0  0  0  0  0  0  0  0  0
   -2.5220   19.4840  -33.8720 C   0  0  0  0  0  0  0  0  0  0  0  0
   -1.6494   18.9491  -34.2749 H   0  0  0  0  0  0  0  0  0  0  0  0
   -3.8160   18.9440  -34.0460 C   0  0  0  0  0  0  0  0  0  0  0  0
   -3.9438   17.9995  -34.5952 H   0  0  0  0  0  0  0  0  0  0  0  0
   -4.9410   19.6040  -33.5230 C   0  0  0  0  0  0  0  0  0  0  0  0
   -5.9539   19.1987  -33.6633 H   0  0  0  0  0  0  0  0  0  0  0  0
   -4.7300   20.7920  -32.8190 C   0  0  0  0  0  0  0  0  0  0  0  0
   -5.6280   21.6060  -32.2370 N   0  0  0  0  0  0  0  0  0  0  0  0
   -7.0550   21.4430  -32.1460 C   0  0  0  0  0  0  0  0  0  0  0  0
   -7.6260   20.1600  -32.1900 C   0  0  0  0  0  0  0  0  0  0  0  0
   -6.9788   19.2758  -32.2863 H   0  0  0  0  0  0  0  0  0  0  0  0
   -9.0120   20.0020  -32.1120 C   0  0  0  0  0  0  0  0  0  0  0  0
   -9.4530   18.9948  -32.1450 H   0  0  0  0  0  0  0  0  0  0  0  0
   -9.8390   21.1230  -31.9920 C   0  0  0  0  0  0  0  0  0  0  0  0
  -10.9299   20.9972  -31.9283 H   0  0  0  0  0  0  0  0  0  0  0  0
   -9.2800   22.4030  -31.9530 C   0  0  0  0  0  0  0  0  0  0  0  0
   -9.9313   23.2846  -31.8601 H   0  0  0  0  0  0  0  0  0  0  0  0
   -7.8930   22.5640  -32.0320 C   0  0  0  0  0  0  0  0  0  0  0  0
   -7.4565   23.5733  -32.0047 H   0  0  0  0  0  0  0  0  0  0  0  0
   -5.4610   25.0900  -29.2520 N   0  0  0  0  0  0  0  0  0  0  0  0
   -5.3690   26.1290  -29.1900 H   0  0  0  0  0  0  0  0  0  0  0  0
   -6.1190   24.6220  -28.5920 H   0  0  0  0  0  0  0  0  0  0  0  0
   -3.2130   24.5250  -27.5360 C   0  0  0  0  0  0  0  0  0  0  0  0
   -4.2583   24.1838  -27.5050 H   0  0  0  0  0  0  0  0  0  0  0  0
   -2.5360   24.8030  -26.3430 C   0  0  0  0  0  0  0  0  0  0  0  0
   -3.0447   24.6657  -25.3774 H   0  0  0  0  0  0  0  0  0  0  0  0
  1  2  1  0
  2  3  2  0
  3  4  1  0
  3  5  1  0
  5  6  1  0
  5  7  2  0
  7  8  1  0
  8  9  1  0
  8 10  1  0
 10 11  1  0
 11 12  2  0
 12 13  1  0
 13 14  1  0
 14 15  2  0
 15 16  1  0
 16 17  1  0
 16 18  1  0
 16 19  1  0
 19 20  1  0
 19 21  1  0
 19 22  1  0
 15 23  1  0
 23 24  1  0
 23 25  2  0
 25 26  1  0
 25 27  1  0
 27 28  1  0
 27 29  2  0
 29 30  1  0
 30 31  1  0
 31 32  2  0
 32 33  1  0
 32 34  1  0
 34 35  1  0
 34 36  2  0
 36 37  1  0
 36 38  1  0
 38 39  1  0
 38 40  2  0
 40 41  1  0
 10 42  2  0
 42 43  1  0
 42 44  1  0
  7 45  1  0
 45 46  1  0
 45 47  2  0
 47 48  1  0
 47  2  1  0
 30 12  1  0
 40 31  1  0
 29 14  1  0
M  CHG  2  13  -1  42   1
M  END
>  <UniqueID>  (16) 
15

>  <SMILES>  (16) 
CCc1cccc2c1[n-]/c(=N\C(=[NH2+])Nc1ccccc1)n2-c1ccccc1

>  <Energy>  (16) 
102.69546364758692

>  <Genealogy>  (16) 
CCc1cccc2c1[n-]c(=NC(=[NH2+])Nc1ccccc1)n2-c1ccccc1 (protonated)
CCc1cccc2c1[n-]/c(=N\C(=[NH2+])Nc1ccccc1)n2-c1ccccc1 (cis-trans isomerization)
CCc1cccc2c1[n-]/c(=N\C(=[NH2+])Nc1ccccc1)n2-c1ccccc1 (3D coordinates assigned)
CCc1cccc2c1[n-]/c(=N\C(=[NH2+])Nc1ccccc1)n2-c1ccccc1 (optimized conformer: 102.69546364758692 kcal/mol)

>  <smiles>  (16) 
CCc1cccc2c1[nH]c(=NC(=N)Nc1ccccc1)n2-c1ccccc1

>  <score_type>  (16) 
oracle

>  <origin>  (16) 
adg

>  <m_score__min__energy>  (16) 
-8.6500000000000004

>  <m_primary>  (16) 
energy

$$$$
16:0
     RDKit          3D

 41 44  0  0  0  0  0  0  0  0999 V2000
   -1.2680   21.9060  -31.5120 C   0  0  0  0  0  0  0  0  0  0  0  0
   -2.7350   21.6330  -31.6590 C   0  0  0  0  0  0  0  0  0  0  0  0
   -3.2140   20.3550  -32.0090 C   0  0  0  0  0  0  0  0  0  0  0  0
   -4.6100   20.1150  -32.0980 C   0  0  0  0  0  0  0  0  0  0  0  0
   -5.1250   18.8140  -32.4390 N   0  0  0  0  0  0  0  0  0  0  0  0
   -6.1260   18.1390  -31.6020 C   0  0  0  0  0  0  0  0  0  0  0  0
   -7.2990   17.6410  -32.4630 C   0  0  0  0  0  0  0  0  0  0  0  0
   -6.8640   17.1260  -33.8530 C   0  0  0  0  0  0  0  0  0  0  0  0
   -5.3600   16.8400  -33.9340 C   0  0  0  0  0  0  0  0  0  0  0  0
   -4.5560   18.1040  -33.5960 C   0  0  0  0  0  0  0  0  0  0  0  0
   -5.4760   21.1280  -31.8000 N   0  0  0  0  0  0  0  0  0  0  0  0
   -4.9910   22.3180  -31.4590 N   0  0  0  0  0  0  0  0  0  0  0  0
   -5.6170   23.4540  -31.1110 C   0  0  0  0  0  0  0  0  0  0  0  0
   -7.1070   23.6720  -31.0320 C   0  0  0  0  0  0  0  0  0  0  0  0
   -7.8730   22.5390  -30.3520 C   0  0  0  0  0  0  0  0  0  0  0  0
   -8.6220   22.2720  -31.6520 C   0  0  0  0  0  0  0  0  0  0  0  0
   -7.8540   23.3970  -32.3340 C   0  0  0  0  0  0  0  0  0  0  0  0
   -4.7030   24.4110  -30.8230 N   0  0  0  0  0  0  0  0  0  0  0  0
   -3.4930   23.8770  -30.9880 N   0  0  0  0  0  0  0  0  0  0  0  0
   -3.6930   22.6040  -31.3760 C   0  0  0  0  0  0  0  0  0  0  0  0
   -1.0092   21.9542  -30.4440 H   0  0  0  0  0  0  0  0  0  0  0  0
   -0.6950   21.0991  -31.9921 H   0  0  0  0  0  0  0  0  0  0  0  0
   -1.0236   22.8650  -31.9921 H   0  0  0  0  0  0  0  0  0  0  0  0
   -2.5036   19.5405  -32.2140 H   0  0  0  0  0  0  0  0  0  0  0  0
   -5.6573   17.2812  -31.0975 H   0  0  0  0  0  0  0  0  0  0  0  0
   -6.5083   18.8533  -30.8580 H   0  0  0  0  0  0  0  0  0  0  0  0
   -7.8004   16.8208  -31.9284 H   0  0  0  0  0  0  0  0  0  0  0  0
   -7.9674   18.4988  -32.6289 H   0  0  0  0  0  0  0  0  0  0  0  0
   -7.4111   16.1970  -34.0711 H   0  0  0  0  0  0  0  0  0  0  0  0
   -7.0922   17.9141  -34.5857 H   0  0  0  0  0  0  0  0  0  0  0  0
   -5.1032   16.0449  -33.2186 H   0  0  0  0  0  0  0  0  0  0  0  0
   -5.1117   16.5221  -34.9574 H   0  0  0  0  0  0  0  0  0  0  0  0
   -3.5197   17.8168  -33.3644 H   0  0  0  0  0  0  0  0  0  0  0  0
   -4.5918   18.7775  -34.4650 H   0  0  0  0  0  0  0  0  0  0  0  0
   -7.1042   24.6819  -30.5961 H   0  0  0  0  0  0  0  0  0  0  0  0
   -7.2391   21.7042  -30.0185 H   0  0  0  0  0  0  0  0  0  0  0  0
   -8.4238   22.7197  -29.4171 H   0  0  0  0  0  0  0  0  0  0  0  0
   -8.4339   21.2768  -32.0811 H   0  0  0  0  0  0  0  0  0  0  0  0
   -9.7219   22.2635  -31.6664 H   0  0  0  0  0  0  0  0  0  0  0  0
   -7.2091   23.0643  -33.1607 H   0  0  0  0  0  0  0  0  0  0  0  0
   -8.3913   24.2061  -32.8504 H   0  0  0  0  0  0  0  0  0  0  0  0
  1  2  1  0
  2  3  2  0
  3  4  1  0
  4  5  1  0
  5  6  1  0
  6  7  1  0
  7  8  1  0
  8  9  1  0
  9 10  1  0
  4 11  2  0
 11 12  1  0
 12 13  1  0
 13 14  1  0
 14 15  1  0
 15 16  1  0
 16 17  1  0
 13 18  2  0
 18 19  1  0
 19 20  2  0
 20  2  1  0
 10  5  1  0
 20 12  1  0
 17 14  1  0
  1 21  1  0
  1 22  1  0
  1 23  1  0
  3 24  1  0
  6 25  1  0
  6 26  1  0
  7 27  1  0
  7 28  1  0
  8 29  1  0
  8 30  1  0
  9 31  1  0
  9 32  1  0
 10 33  1  0
 10 34  1  0
 14 35  1  0
 15 36  1  0
 15 37  1  0
 16 38  1  0
 16 39  1  0
 17 40  1  0
 17 41  1  0
M  END
>  <UniqueID>  (17) 
16

>  <SMILES>  (17) 
Cc1cc(N2CCCCC2)nn2c(C3CCC3)nnc12

>  <Energy>  (17) 
148.1974571099673

>  <Genealogy>  (17) 
Cc1cc(N2CCCCC2)nn2c(C3CCC3)nnc12 (3D coordinates assigned)
Cc1cc(N2CCCCC2)nn2c(C3CCC3)nnc12 (nonaromatic ring conformer: 148.1974571099673 kcal/mol)

>  <smiles>  (17) 
Cc1cc(N2CCCCC2)nn2c(C3CCC3)nnc12

>  <score_type>  (17) 
oracle

>  <origin>  (17) 
adg

>  <m_score__min__energy>  (17) 
-8.1999999999999993

>  <m_primary>  (17) 
energy

$$$$
17:0
     RDKit          3D

 56 59  0  0  0  0  0  0  0  0999 V2000
   -4.2530   24.9070  -26.5620 C   0  0  0  0  0  0  0  0  0  0  0  0
   -3.0930   24.5720  -27.4610 C   0  0  0  0  0  0  0  0  0  0  0  0
   -1.7810   24.7080  -26.9740 C   0  0  0  0  0  0  0  0  0  0  0  0
   -0.6870   24.4060  -27.7910 C   0  0  0  0  0  0  0  0  0  0  0  0
   -0.8910   23.9810  -29.1050 C   0  0  0  0  0  0  0  0  0  0  0  0
   -2.1890   23.8570  -29.6070 C   0  0  0  0  0  0  0  0  0  0  0  0
   -3.2950   24.1540  -28.7970 C   0  0  0  0  0  0  0  0  0  0  0  0
   -4.6180   24.0010  -29.3330 N   0  0  0  0  0  0  0  0  0  0  0  0
   -5.3830   25.1910  -29.7130 C   0  0  0  0  0  0  0  0  0  0  0  0
   -6.1910   24.9050  -30.9830 C   0  0  0  0  0  0  0  0  0  0  0  0
   -6.8840   23.6050  -30.9180 N   0  0  0  0  0  0  0  0  0  0  0  0
   -7.7440   23.2290  -32.0180 C   0  0  0  0  0  0  0  0  0  0  0  0
   -7.6480   23.8480  -33.1150 O   0  0  0  0  0  0  0  0  0  0  0  0
   -8.7320   22.0920  -31.8930 C   0  0  0  0  0  0  0  0  0  0  0  0
   -8.1150   20.7590  -32.2390 C   0  0  0  0  0  0  0  0  0  0  0  0
   -8.7330   19.5670  -31.8340 C   0  0  0  0  0  0  0  0  0  0  0  0
   -8.1410   18.3320  -32.1160 C   0  0  0  0  0  0  0  0  0  0  0  0
   -6.9090   18.2610  -32.7980 C   0  0  0  0  0  0  0  0  0  0  0  0
   -6.2940   16.9830  -33.0850 N   0  0  0  0  0  0  0  0  0  0  0  0
   -6.7440   16.0830  -34.1390 C   0  0  0  0  0  0  0  0  0  0  0  0
   -5.7190   14.9580  -34.1930 C   0  0  0  0  0  0  0  0  0  0  0  0
   -4.9710   15.0210  -32.8680 C   0  0  0  0  0  0  0  0  0  0  0  0
   -5.1640   16.4380  -32.3460 C   0  0  0  0  0  0  0  0  0  0  0  0
   -6.2880   19.4650  -33.1900 C   0  0  0  0  0  0  0  0  0  0  0  0
   -6.8850   20.6990  -32.9100 C   0  0  0  0  0  0  0  0  0  0  0  0
   -6.7330   22.7570  -29.7240 C   0  0  0  0  0  0  0  0  0  0  0  0
   -5.2560   22.6780  -29.3110 C   0  0  0  0  0  0  0  0  0  0  0  0
   -3.9405   24.8168  -25.5112 H   0  0  0  0  0  0  0  0  0  0  0  0
   -4.5839   25.9374  -26.7589 H   0  0  0  0  0  0  0  0  0  0  0  0
   -5.0823   24.2116  -26.7589 H   0  0  0  0  0  0  0  0  0  0  0  0
   -1.6140   25.0543  -25.9434 H   0  0  0  0  0  0  0  0  0  0  0  0
    0.3357   24.5035  -27.3978 H   0  0  0  0  0  0  0  0  0  0  0  0
   -0.0290   23.7435  -29.7458 H   0  0  0  0  0  0  0  0  0  0  0  0
   -2.3445   23.5244  -30.6439 H   0  0  0  0  0  0  0  0  0  0  0  0
   -6.0692   25.4601  -28.8965 H   0  0  0  0  0  0  0  0  0  0  0  0
   -4.6893   26.0231  -29.9036 H   0  0  0  0  0  0  0  0  0  0  0  0
   -6.9398   25.7001  -31.1136 H   0  0  0  0  0  0  0  0  0  0  0  0
   -5.4905   24.8737  -31.8305 H   0  0  0  0  0  0  0  0  0  0  0  0
   -9.0989   22.0540  -30.8567 H   0  0  0  0  0  0  0  0  0  0  0  0
   -9.5522   22.2783  -32.6020 H   0  0  0  0  0  0  0  0  0  0  0  0
   -9.6891   19.6038  -31.2913 H   0  0  0  0  0  0  0  0  0  0  0  0
   -8.6425   17.4047  -31.8020 H   0  0  0  0  0  0  0  0  0  0  0  0
   -7.7401   15.6820  -33.9003 H   0  0  0  0  0  0  0  0  0  0  0  0
   -6.8256   16.6018  -35.1055 H   0  0  0  0  0  0  0  0  0  0  0  0
   -6.2215   13.9858  -34.3043 H   0  0  0  0  0  0  0  0  0  0  0  0
   -5.0384   15.0685  -35.0501 H   0  0  0  0  0  0  0  0  0  0  0  0
   -5.3884   14.2917  -32.1581 H   0  0  0  0  0  0  0  0  0  0  0  0
   -3.9054   14.7791  -32.9943 H   0  0  0  0  0  0  0  0  0  0  0  0
   -5.3829   16.4226  -31.2681 H   0  0  0  0  0  0  0  0  0  0  0  0
   -4.2585   17.0470  -32.4842 H   0  0  0  0  0  0  0  0  0  0  0  0
   -5.3251   19.4336  -33.7209 H   0  0  0  0  0  0  0  0  0  0  0  0
   -6.3857   21.6293  -33.2186 H   0  0  0  0  0  0  0  0  0  0  0  0
   -7.3186   23.1860  -28.8976 H   0  0  0  0  0  0  0  0  0  0  0  0
   -7.0949   21.7444  -29.9557 H   0  0  0  0  0  0  0  0  0  0  0  0
   -5.1913   22.2672  -28.2927 H   0  0  0  0  0  0  0  0  0  0  0  0
   -4.7316   22.0306  -30.0292 H   0  0  0  0  0  0  0  0  0  0  0  0
  1  2  1  0
  2  3  2  0
  3  4  1  0
  4  5  2  0
  5  6  1  0
  6  7  2  0
  7  8  1  0
  8  9  1  0
  9 10  1  0
 10 11  1  0
 11 12  1  0
 12 13  2  0
 12 14  1  0
 14 15  1  0
 15 16  2  0
 16 17  1  0
 17 18  2  0
 18 19  1  0
 19 20  1  0
 20 21  1  0
 21 22  1  0
 22 23  1  0
 18 24  1  0
 24 25  2  0
 11 26  1  0
 26 27  1  0
  7  2  1  0
 27  8  1  0
 25 15  1  0
 23 19  1  0
  1 28  1  0
  1 29  1  0
  1 30  1  0
  3 31  1  0
  4 32  1  0
  5 33  1  0
  6 34  1  0
  9 35  1  0
  9 36  1  0
 10 37  1  0
 10 38  1  0
 14 39  1  0
 14 40  1  0
 16 41  1  0
 17 42  1  0
 20 43  1  0
 20 44  1  0
 21 45  1  0
 21 46  1  0
 22 47  1  0
 22 48  1  0
 23 49  1  0
 23 50  1  0
 24 51  1  0
 25 52  1  0
 26 53  1  0
 26 54  1  0
 27 55  1  0
 27 56  1  0
M  END
>  <UniqueID>  (18) 
17

>  <SMILES>  (18) 
Cc1ccccc1N1CCN(C(=O)Cc2ccc(N3CCCC3)cc2)CC1

>  <Energy>  (18) 
65.10653833643148

>  <Genealogy>  (18) 
Cc1ccccc1N1CCN(C(=O)Cc2ccc(N3CCCC3)cc2)CC1 (3D coordinates assigned)
Cc1ccccc1N1CCN(C(=O)Cc2ccc(N3CCCC3)cc2)CC1 (nonaromatic ring conformer: 65.10653833643148 kcal/mol)

>  <smiles>  (18) 
Cc1ccccc1N1CCN(C(=O)Cc2ccc(N3CCCC3)cc2)CC1

>  <score_type>  (18) 
oracle

>  <origin>  (18) 
adg

>  <m_score__min__energy>  (18) 
-9.1899999999999995

>  <m_primary>  (18) 
energy

$$$$
18:0
     RDKit          3D

 50 53  0  0  0  0  0  0  0  0999 V2000
   -5.4480   24.7100  -31.1350 C   0  0  0  0  0  0  0  0  0  0  0  0
   -4.1870   24.0070  -30.8970 N   0  0  0  0  0  0  0  0  0  0  0  0
   -4.3470   22.5720  -31.1620 C   0  0  0  0  0  0  0  0  0  0  0  0
   -4.6150   22.3230  -32.6490 C   0  0  0  0  0  0  0  0  0  0  0  0
   -5.4440   21.1300  -32.8460 N   0  0  0  0  0  0  0  0  0  0  0  0
   -5.0380   19.9190  -33.3090 C   0  0  0  0  0  0  0  0  0  0  0  0
   -3.7590   19.5440  -33.7290 C   0  0  0  0  0  0  0  0  0  0  0  0
   -3.5630   18.2200  -34.1590 C   0  0  0  0  0  0  0  0  0  0  0  0
   -4.6340   17.2910  -34.1670 C   0  0  0  0  0  0  0  0  0  0  0  0
   -4.3920   15.8630  -34.5980 C   0  0  0  0  0  0  0  0  0  0  0  0
   -3.8790   15.0270  -33.4870 N   0  0  0  0  0  0  0  0  0  0  0  0
   -3.7470   13.6060  -33.9100 C   0  0  0  0  0  0  0  0  0  0  0  0
   -4.9210   12.7460  -33.4080 C   0  0  0  0  0  0  0  0  0  0  0  0
   -5.0450   12.7300  -31.9920 O   0  0  0  0  0  0  0  0  0  0  0  0
   -4.6110   13.9310  -31.3680 C   0  0  0  0  0  0  0  0  0  0  0  0
   -4.7210   15.1710  -32.2700 C   0  0  0  0  0  0  0  0  0  0  0  0
   -5.9160   17.6950  -33.7320 C   0  0  0  0  0  0  0  0  0  0  0  0
   -6.0790   19.0130  -33.3130 C   0  0  0  0  0  0  0  0  0  0  0  0
   -7.1770   19.6820  -32.8230 C   0  0  0  0  0  0  0  0  0  0  0  0
   -8.4840   19.2600  -32.5890 C   0  0  0  0  0  0  0  0  0  0  0  0
   -9.3860   20.1920  -32.0480 C   0  0  0  0  0  0  0  0  0  0  0  0
   -8.9670   21.5070  -31.7530 C   0  0  0  0  0  0  0  0  0  0  0  0
   -9.8490   22.3920  -31.2260 F   0  0  0  0  0  0  0  0  0  0  0  0
   -7.6410   21.9070  -31.9990 C   0  0  0  0  0  0  0  0  0  0  0  0
   -6.7580   20.9690  -32.5440 C   0  0  0  0  0  0  0  0  0  0  0  0
   -5.9113   24.9683  -30.1714 H   0  0  0  0  0  0  0  0  0  0  0  0
   -5.2530   25.6296  -31.7063 H   0  0  0  0  0  0  0  0  0  0  0  0
   -6.1277   24.0606  -31.7063 H   0  0  0  0  0  0  0  0  0  0  0  0
   -3.4920   24.3890  -31.5820 H   0  0  0  0  0  0  0  0  0  0  0  0
   -3.4270   22.0456  -30.8678 H   0  0  0  0  0  0  0  0  0  0  0  0
   -5.2029   22.1982  -30.5809 H   0  0  0  0  0  0  0  0  0  0  0  0
   -5.1357   23.1954  -33.0707 H   0  0  0  0  0  0  0  0  0  0  0  0
   -3.6511   22.1647  -33.1548 H   0  0  0  0  0  0  0  0  0  0  0  0
   -2.9283   20.2651  -33.7233 H   0  0  0  0  0  0  0  0  0  0  0  0
   -2.5651   17.9004  -34.4938 H   0  0  0  0  0  0  0  0  0  0  0  0
   -5.3397   15.4348  -34.9563 H   0  0  0  0  0  0  0  0  0  0  0  0
   -3.6333   15.8725  -35.3944 H   0  0  0  0  0  0  0  0  0  0  0  0
   -2.9160   15.3670  -33.2510 H   0  0  0  0  0  0  0  0  0  0  0  0
   -3.7192   13.5632  -35.0088 H   0  0  0  0  0  0  0  0  0  0  0  0
   -2.8201   13.2053  -33.4739 H   0  0  0  0  0  0  0  0  0  0  0  0
   -5.8529   13.1450  -33.8350 H   0  0  0  0  0  0  0  0  0  0  0  0
   -4.7258   11.7119  -33.7282 H   0  0  0  0  0  0  0  0  0  0  0  0
   -5.2258   14.0982  -30.4713 H   0  0  0  0  0  0  0  0  0  0  0  0
   -3.5453   13.8016  -31.1282 H   0  0  0  0  0  0  0  0  0  0  0  0
   -5.7702   15.3023  -32.5731 H   0  0  0  0  0  0  0  0  0  0  0  0
   -4.3684   16.0458  -31.7040 H   0  0  0  0  0  0  0  0  0  0  0  0
   -6.7601   16.9897  -33.7245 H   0  0  0  0  0  0  0  0  0  0  0  0
   -8.7993   18.2318  -32.8200 H   0  0  0  0  0  0  0  0  0  0  0  0
  -10.4268   19.8942  -31.8529 H   0  0  0  0  0  0  0  0  0  0  0  0
   -7.3075   22.9297  -31.7690 H   0  0  0  0  0  0  0  0  0  0  0  0
  1  2  1  0
  2  3  1  0
  3  4  1  0
  4  5  1  0
  5  6  1  0
  6  7  2  0
  7  8  1  0
  8  9  2  0
  9 10  1  0
 10 11  1  0
 11 12  1  0
 12 13  1  0
 13 14  1  0
 14 15  1  0
 15 16  1  0
  9 17  1  0
 17 18  2  0
 18 19  1  0
 19 20  2  0
 20 21  1  0
 21 22  2  0
 22 23  1  0
 22 24  1  0
 24 25  2  0
 25  5  1  0
 18  6  1  0
 25 19  1  0
 16 11  1  0
  1 26  1  0
  1 27  1  0
  1 28  1  0
  2 29  1  0
  3 30  1  0
  3 31  1  0
  4 32  1  0
  4 33  1  0
  7 34  1  0
  8 35  1  0
 10 36  1  0
 10 37  1  0
 11 38  1  0
 12 39  1  0
 12 40  1  0
 13 41  1  0
 13 42  1  0
 15 43  1  0
 15 44  1  0
 16 45  1  0
 16 46  1  0
 17 47  1  0
 20 48  1  0
 21 49  1  0
 24 50  1  0
M  CHG  1  11   1
M  END
>  <UniqueID>  (19) 
18

>  <SMILES>  (19) 
CNCCn1c2ccc(C[NH+]3CCOCC3)cc2c2ccc(F)cc21

>  <Energy>  (19) 
104.40997019416491

>  <Genealogy>  (19) 
CNCCn1c2ccc(C[NH+]3CCOCC3)cc2c2ccc(F)cc21 (protonated)
CNCCn1c2ccc(C[NH+]3CCOCC3)cc2c2ccc(F)cc21 (3D coordinates assigned)
CNCCn1c2ccc(C[NH+]3CCOCC3)cc2c2ccc(F)cc21 (nonaromatic ring conformer: 104.40997019416491 kcal/mol)

>  <smiles>  (19) 
CNCCn1c2ccc(CN3CCOCC3)cc2c2ccc(F)cc21

>  <score_type>  (19) 
oracle

>  <origin>  (19) 
adg

>  <m_score__min__energy>  (19) 
-7.9400000000000004

>  <m_primary>  (19) 
energy

$$$$
19:0
     RDKit          3D

 33 35  0  0  0  0  0  0  0  0999 V2000
   -2.0340   24.4480  -28.5880 C   0  0  0  0  0  0  0  0  0  0  0  0
   -3.3350   24.4860  -29.3160 C   0  0  0  0  0  0  0  0  0  0  0  0
   -4.5090   24.1030  -28.7790 N   0  0  0  0  0  0  0  0  0  0  0  0
   -5.3540   24.3490  -29.8020 C   0  0  0  0  0  0  0  0  0  0  0  0
   -6.8390   24.1400  -29.7190 C   0  0  0  0  0  0  0  0  0  0  0  0
   -7.4110   23.7520  -31.0170 N   0  0  0  0  0  0  0  0  0  0  0  0
   -8.0830   22.4470  -30.9450 C   0  0  0  0  0  0  0  0  0  0  0  0
   -8.1840   21.8100  -32.3480 C   0  0  2  0  0  0  0  0  0  0  0  0
   -8.7980   20.3890  -32.2990 C   0  0  0  0  0  0  0  0  0  0  0  0
   -7.7630   19.4270  -31.9590 N   0  0  0  0  0  0  0  0  0  0  0  0
   -7.8720   18.1430  -31.5750 C   0  0  0  0  0  0  0  0  0  0  0  0
   -6.6630   17.5570  -31.4150 N   0  0  0  0  0  0  0  0  0  0  0  0
   -5.7710   18.5230  -31.7300 C   0  0  0  0  0  0  0  0  0  0  0  0
   -6.4590   19.6610  -32.0820 C   0  0  0  0  0  0  0  0  0  0  0  0
   -5.9340   21.0140  -32.4460 C   0  0  0  0  0  0  0  0  0  0  0  0
   -6.9400   21.8210  -33.0530 O   0  0  0  0  0  0  0  0  0  0  0  0
   -4.7320   24.8620  -30.8800 N   0  0  0  0  0  0  0  0  0  0  0  0
   -3.4820   24.9290  -30.5390 O   0  0  0  0  0  0  0  0  0  0  0  0
   -2.2202   24.4534  -27.5039 H   0  0  0  0  0  0  0  0  0  0  0  0
   -1.4873   23.5335  -28.8616 H   0  0  0  0  0  0  0  0  0  0  0  0
   -1.4349   25.3290  -28.8616 H   0  0  0  0  0  0  0  0  0  0  0  0
   -7.0460   23.3453  -28.9872 H   0  0  0  0  0  0  0  0  0  0  0  0
   -7.3007   25.0904  -29.4131 H   0  0  0  0  0  0  0  0  0  0  0  0
   -6.6390   23.7080  -31.7240 H   0  0  0  0  0  0  0  0  0  0  0  0
   -7.5081   21.7801  -30.2857 H   0  0  0  0  0  0  0  0  0  0  0  0
   -9.0983   22.5922  -30.5474 H   0  0  0  0  0  0  0  0  0  0  0  0
   -8.8742   22.4469  -32.9207 H   0  0  0  0  0  0  0  0  0  0  0  0
   -9.5918   20.3583  -31.5381 H   0  0  0  0  0  0  0  0  0  0  0  0
   -9.2235   20.1387  -33.2820 H   0  0  0  0  0  0  0  0  0  0  0  0
   -8.8308   17.6296  -31.4104 H   0  0  0  0  0  0  0  0  0  0  0  0
   -4.6764   18.4165  -31.7084 H   0  0  0  0  0  0  0  0  0  0  0  0
   -5.5761   21.5151  -31.5346 H   0  0  0  0  0  0  0  0  0  0  0  0
   -5.1155   20.8825  -33.1691 H   0  0  0  0  0  0  0  0  0  0  0  0
  1  2  1  0
  2  3  2  0
  3  4  1  0
  4  5  1  0
  5  6  1  0
  6  7  1  0
  7  8  1  0
  8  9  1  0
  9 10  1  0
 10 11  1  0
 11 12  2  0
 12 13  1  0
 13 14  2  0
 14 15  1  0
 15 16  1  0
  4 17  2  0
 17 18  1  0
 18  2  1  0
 16  8  1  0
 14 10  1  0
  1 19  1  0
  1 20  1  0
  1 21  1  0
  5 22  1  0
  5 23  1  0
  6 24  1  0
  7 25  1  0
  7 26  1  0
  8 27  1  6
  9 28  1  0
  9 29  1  0
 11 30  1  0
 13 31  1  0
 15 32  1  0
 15 33  1  0
M  END
>  <UniqueID>  (20) 
19

>  <SMILES>  (20) 
Cc1nc(CNC[C@@H]2Cn3cncc3CO2)no1

>  <Energy>  (20) 
101.63715057807077

>  <Genealogy>  (20) 
Cc1nc(CNC[C@@H]2Cn3cncc3CO2)no1 (chirality)
Cc1nc(CNC[C@@H]2Cn3cncc3CO2)no1 (3D coordinates assigned)
Cc1nc(CNC[C@@H]2Cn3cncc3CO2)no1 (nonaromatic ring conformer: 101.63715057807077 kcal/mol)

>  <smiles>  (20) 
Cc1nc(CNCC2Cn3cncc3CO2)no1

>  <score_type>  (20) 
oracle

>  <origin>  (20) 
adg

>  <m_score__min__energy>  (20) 
-6.8200000000000003

>  <m_primary>  (20) 
energy

$$$$
20:0
     RDKit          3D

 40 42  0  0  0  0  0  0  0  0999 V2000
   -3.1470   16.3150  -34.5310 C   0  0  0  0  0  0  0  0  0  0  0  0
   -4.1630   16.2720  -33.5350 O   0  0  0  0  0  0  0  0  0  0  0  0
   -5.2300   17.1770  -33.4320 C   0  0  0  0  0  0  0  0  0  0  0  0
   -4.9410   18.4640  -33.1880 C   0  0  0  0  0  0  0  0  0  0  0  0
   -6.0730   19.4720  -33.1120 C   0  0  2  0  0  0  0  0  0  0  0  0
   -5.6720   20.7960  -32.4710 C   0  0  0  0  0  0  0  0  0  0  0  0
   -4.4660   21.4270  -32.8280 C   0  0  0  0  0  0  0  0  0  0  0  0
   -4.1270   22.6740  -32.2960 C   0  0  0  0  0  0  0  0  0  0  0  0
   -5.0070   23.3350  -31.4240 C   0  0  0  0  0  0  0  0  0  0  0  0
   -4.7060   24.5830  -30.8560 O   0  0  0  0  0  0  0  0  0  0  0  0
   -5.6190   25.3550  -30.0840 C   0  0  0  0  0  0  0  0  0  0  0  0
   -6.2350   22.7440  -31.1160 C   0  0  0  0  0  0  0  0  0  0  0  0
   -6.5920   21.4990  -31.6580 C   0  0  0  0  0  0  0  0  0  0  0  0
   -7.9430   20.9210  -31.3160 C   0  0  0  0  0  0  0  0  0  0  0  0
   -8.3340   19.7730  -32.2530 C   0  0  0  0  0  0  0  0  0  0  0  0
   -7.2070   18.8350  -32.3930 N   0  0  1  0  0  0  0  0  0  0  0  0
   -7.6080   17.6290  -33.0910 C   0  0  0  0  0  0  0  0  0  0  0  0
   -6.6670   16.7780  -33.5590 C   0  0  0  0  0  0  0  0  0  0  0  0
   -7.0020   15.5670  -34.1840 O   0  0  0  0  0  0  0  0  0  0  0  0
   -6.1770   14.4070  -34.2160 C   0  0  0  0  0  0  0  0  0  0  0  0
   -2.1603   16.3568  -34.0466 H   0  0  0  0  0  0  0  0  0  0  0  0
   -3.2098   15.4134  -35.1580 H   0  0  0  0  0  0  0  0  0  0  0  0
   -3.2858   17.2081  -35.1580 H   0  0  0  0  0  0  0  0  0  0  0  0
   -3.8984   18.7842  -33.0450 H   0  0  0  0  0  0  0  0  0  0  0  0
   -6.3680   19.7413  -34.1369 H   0  0  0  0  0  0  0  0  0  0  0  0
   -3.7822   20.9330  -33.5340 H   0  0  0  0  0  0  0  0  0  0  0  0
   -3.1665   23.1398  -32.5615 H   0  0  0  0  0  0  0  0  0  0  0  0
   -5.4246   25.1907  -29.0139 H   0  0  0  0  0  0  0  0  0  0  0  0
   -5.4891   26.4213  -30.3207 H   0  0  0  0  0  0  0  0  0  0  0  0
   -6.6489   25.0497  -30.3207 H   0  0  0  0  0  0  0  0  0  0  0  0
   -6.9315   23.2611  -30.4397 H   0  0  0  0  0  0  0  0  0  0  0  0
   -7.9155   20.5423  -30.2836 H   0  0  0  0  0  0  0  0  0  0  0  0
   -8.6910   21.7196  -31.4289 H   0  0  0  0  0  0  0  0  0  0  0  0
   -9.2018   19.2410  -31.8359 H   0  0  0  0  0  0  0  0  0  0  0  0
   -8.5894   20.1828  -33.2413 H   0  0  0  0  0  0  0  0  0  0  0  0
   -6.8930   18.5450  -31.4340 H   0  0  0  0  0  0  0  0  0  0  0  0
   -8.6751   17.4069  -33.2395 H   0  0  0  0  0  0  0  0  0  0  0  0
   -5.9510   14.0893  -33.1874 H   0  0  0  0  0  0  0  0  0  0  0  0
   -6.7032   13.5972  -34.7427 H   0  0  0  0  0  0  0  0  0  0  0  0
   -5.2394   14.6383  -34.7427 H   0  0  0  0  0  0  0  0  0  0  0  0
  1  2  1  0
  2  3  1  0
  3  4  2  0
  4  5  1  0
  5  6  1  0
  6  7  2  0
  7  8  1  0
  8  9  2  0
  9 10  1  0
 10 11  1  0
  9 12  1  0
 12 13  2  0
 13 14  1  0
 14 15  1  0
 15 16  1  0
 16 17  1  0
 17 18  2  0
 18 19  1  0
 19 20  1  0
 18  3  1  0
 16  5  1  0
 13  6  1  0
  1 21  1  0
  1 22  1  0
  1 23  1  0
  4 24  1  0
  5 25  1  6
  7 26  1  0
  8 27  1  0
 11 28  1  0
 11 29  1  0
 11 30  1  0
 12 31  1  0
 14 32  1  0
 14 33  1  0
 15 34  1  0
 15 35  1  0
 16 36  1  1
 17 37  1  0
 20 38  1  0
 20 39  1  0
 20 40  1  0
M  CHG  1  16   1
M  END
>  <UniqueID>  (21) 
20

>  <SMILES>  (21) 
COC1=C[C@@H]2c3ccc(OC)cc3CC[N@H+]2C=C1OC

>  <Energy>  (21) 
52.1283242915758

>  <Genealogy>  (21) 
COC1=CC2c3ccc(OC)cc3CC[NH+]2C=C1OC (protonated)
COC1=C[C@@H]2c3ccc(OC)cc3CC[N@H+]2C=C1OC (chirality)
COC1=C[C@@H]2c3ccc(OC)cc3CC[N@H+]2C=C1OC (3D coordinates assigned)
COC1=C[C@@H]2c3ccc(OC)cc3CC[N@H+]2C=C1OC (nonaromatic ring conformer: 52.1283242915758 kcal/mol)

>  <smiles>  (21) 
COC1=CC2c3ccc(OC)cc3CCN2C=C1OC

>  <score_type>  (21) 
oracle

>  <origin>  (21) 
adg

>  <m_score__min__energy>  (21) 
-6.1799999999999997

>  <m_primary>  (21) 
energy

$$$$
21:0
     RDKit          3D

 35 38  0  0  0  0  0  0  0  0999 V2000
   -4.2340   24.9190  -26.3480 C   0  0  0  0  0  0  0  0  0  0  0  0
   -3.0400   24.6600  -27.2290 C   0  0  0  0  0  0  0  0  0  0  0  0
   -1.7520   24.8110  -26.6900 C   0  0  0  0  0  0  0  0  0  0  0  0
   -0.6530   24.5560  -27.4470 N   0  0  0  0  0  0  0  0  0  0  0  0
   -0.7540   24.1560  -28.7410 C   0  0  0  0  0  0  0  0  0  0  0  0
   -2.0090   24.0070  -29.3320 C   0  0  0  0  0  0  0  0  0  0  0  0
   -3.1630   24.2800  -28.5860 C   0  0  0  0  0  0  0  0  0  0  0  0
   -4.4740   24.1420  -29.2430 C   0  0  0  0  0  0  0  0  0  0  0  0
   -5.4990   25.0020  -29.0760 N   0  0  0  0  0  0  0  0  0  0  0  0
   -6.5490   24.5310  -29.7330 N   0  0  0  0  0  0  0  0  0  0  0  0
   -6.1350   23.3790  -30.3000 C   0  0  0  0  0  0  0  0  0  0  0  0
   -4.8490   23.1130  -30.0260 N   0  0  0  0  0  0  0  0  0  0  0  0
   -4.2210   21.8100  -30.2420 C   0  0  0  0  0  0  0  0  0  0  0  0
   -4.8140   21.1340  -31.4980 C   0  0  0  0  0  0  0  0  0  0  0  0
   -6.3240   21.2910  -31.5910 C   0  0  0  0  0  0  0  0  0  0  0  0
   -7.0840   20.3570  -32.3130 C   0  0  0  0  0  0  0  0  0  0  0  0
   -8.4620   20.5420  -32.4720 C   0  0  0  0  0  0  0  0  0  0  0  0
   -9.0880   21.6660  -31.9260 C   0  0  0  0  0  0  0  0  0  0  0  0
   -8.3420   22.6130  -31.2190 C   0  0  0  0  0  0  0  0  0  0  0  0
   -6.9620   22.4300  -31.0540 C   0  0  0  0  0  0  0  0  0  0  0  0
   -3.9319   24.8535  -25.2923 H   0  0  0  0  0  0  0  0  0  0  0  0
   -4.6307   25.9241  -26.5541 H   0  0  0  0  0  0  0  0  0  0  0  0
   -5.0114   24.1686  -26.5541 H   0  0  0  0  0  0  0  0  0  0  0  0
   -1.6320   25.1383  -25.6467 H   0  0  0  0  0  0  0  0  0  0  0  0
    0.1554   23.9491  -29.3242 H   0  0  0  0  0  0  0  0  0  0  0  0
   -2.0920   23.6770  -30.3780 H   0  0  0  0  0  0  0  0  0  0  0  0
   -5.4970   25.8790  -28.5080 H   0  0  0  0  0  0  0  0  0  0  0  0
   -3.1383   21.9468  -30.3799 H   0  0  0  0  0  0  0  0  0  0  0  0
   -4.4102   21.1708  -29.3670 H   0  0  0  0  0  0  0  0  0  0  0  0
   -4.3574   21.5871  -32.3903 H   0  0  0  0  0  0  0  0  0  0  0  0
   -4.5951   20.0581  -31.4311 H   0  0  0  0  0  0  0  0  0  0  0  0
   -6.5946   19.4767  -32.7552 H   0  0  0  0  0  0  0  0  0  0  0  0
   -9.0542   19.8006  -33.0284 H   0  0  0  0  0  0  0  0  0  0  0  0
  -10.1716   21.8058  -32.0532 H   0  0  0  0  0  0  0  0  0  0  0  0
   -8.8360   23.4989  -30.7935 H   0  0  0  0  0  0  0  0  0  0  0  0
  1  2  1  0
  2  3  2  0
  3  4  1  0
  4  5  2  0
  5  6  1  0
  6  7  2  0
  7  8  1  0
  8  9  2  0
  9 10  1  0
 10 11  2  0
 11 12  1  0
 12 13  1  0
 13 14  1  0
 14 15  1  0
 15 16  2  0
 16 17  1  0
 17 18  2  0
 18 19  1  0
 19 20  2  0
  7  2  1  0
 12  8  1  0
 20 15  1  0
 20 11  1  0
  1 21  1  0
  1 22  1  0
  1 23  1  0
  3 24  1  0
  5 25  1  0
  6 26  1  0
  9 27  1  0
 13 28  1  0
 13 29  1  0
 14 30  1  0
 14 31  1  0
 16 32  1  0
 17 33  1  0
 18 34  1  0
 19 35  1  0
M  CHG  1   9   1
M  END
>  <UniqueID>  (22) 
21

>  <SMILES>  (22) 
Cc1cnccc1-c1[nH+]nc2n1CCc1ccccc1-2

>  <Energy>  (22) 
86.50820214645988

>  <Genealogy>  (22) 
Cc1cnccc1-c1[nH+]nc2n1CCc1ccccc1-2 (protonated)
Cc1cnccc1-c1[nH+]nc2n1CCc1ccccc1-2 (3D coordinates assigned)
Cc1cnccc1-c1[nH+]nc2n1CCc1ccccc1-2 (nonaromatic ring conformer: 86.50820214645988 kcal/mol)

>  <smiles>  (22) 
Cc1cnccc1-c1nnc2n1CCc1ccccc1-2

>  <score_type>  (22) 
oracle

>  <origin>  (22) 
adg

>  <m_score__min__energy>  (22) 
-7.2699999999999996

>  <m_primary>  (22) 
energy

$$$$
22:0
     RDKit          3D

 32 33  0  0  0  0  0  0  0  0999 V2000
   -2.4980   21.4480  -33.4480 C   0  0  0  0  0  0  0  0  0  0  0  0
   -3.8340   21.6780  -32.8660 N   0  0  1  0  0  0  0  0  0  0  0  0
   -4.8600   20.7650  -33.4410 C   0  0  0  0  0  0  0  0  0  0  0  0
   -5.6650   19.9220  -32.4180 C   0  0  0  0  0  0  0  0  0  0  0  0
   -7.1020   20.3640  -32.2740 C   0  0  0  0  0  0  0  0  0  0  0  0
   -7.4090   21.6690  -31.8510 C   0  0  0  0  0  0  0  0  0  0  0  0
   -8.7410   22.0700  -31.7070 C   0  0  0  0  0  0  0  0  0  0  0  0
   -9.7760   21.1680  -31.9660 C   0  0  0  0  0  0  0  0  0  0  0  0
   -9.4820   19.8610  -32.3610 C   0  0  0  0  0  0  0  0  0  0  0  0
   -8.1510   19.4560  -32.5070 C   0  0  0  0  0  0  0  0  0  0  0  0
   -3.7610   21.6630  -31.3870 C   0  0  0  0  0  0  0  0  0  0  0  0
   -3.5800   23.0360  -30.8030 C   0  0  0  0  0  0  0  0  0  0  0  0
   -4.2590   24.1240  -31.2180 N   0  0  0  0  0  0  0  0  0  0  0  0
   -3.8120   25.1450  -30.5090 N   0  0  0  0  0  0  0  0  0  0  0  0
   -2.8680   24.6450  -29.6940 C   0  0  0  0  0  0  0  0  0  0  0  0
   -2.2240   25.3460  -28.8710 O   0  0  0  0  0  0  0  0  0  0  0  0
   -2.6750   23.3230  -29.8460 N   0  0  0  0  0  0  0  0  0  0  0  0
   -1.7628   21.3214  -32.6397 H   0  0  0  0  0  0  0  0  0  0  0  0
   -2.5199   20.5404  -34.0691 H   0  0  0  0  0  0  0  0  0  0  0  0
   -2.2152   22.3107  -34.0691 H   0  0  0  0  0  0  0  0  0  0  0  0
   -4.1080   22.6480  -33.1540 H   0  0  0  0  0  0  0  0  0  0  0  0
   -5.5750   21.3771  -34.0103 H   0  0  0  0  0  0  0  0  0  0  0  0
   -4.3040   20.0396  -34.0530 H   0  0  0  0  0  0  0  0  0  0  0  0
   -5.6545   18.8722  -32.7464 H   0  0  0  0  0  0  0  0  0  0  0  0
   -5.1846   20.0562  -31.4376 H   0  0  0  0  0  0  0  0  0  0  0  0
   -6.5973   22.3784  -31.6321 H   0  0  0  0  0  0  0  0  0  0  0  0
   -8.9741   23.0970  -31.3894 H   0  0  0  0  0  0  0  0  0  0  0  0
  -10.8231   21.4874  -31.8588 H   0  0  0  0  0  0  0  0  0  0  0  0
  -10.2977   19.1496  -32.5574 H   0  0  0  0  0  0  0  0  0  0  0  0
   -7.9234   18.4221  -32.8056 H   0  0  0  0  0  0  0  0  0  0  0  0
   -4.6933   21.2326  -30.9927 H   0  0  0  0  0  0  0  0  0  0  0  0
   -2.8845   21.0621  -31.1029 H   0  0  0  0  0  0  0  0  0  0  0  0
  1  2  1  0
  2  3  1  0
  3  4  1  0
  4  5  1  0
  5  6  2  0
  6  7  1  0
  7  8  2  0
  8  9  1  0
  9 10  2  0
  2 11  1  0
 11 12  1  0
 12 13  2  0
 13 14  1  0
 14 15  1  0
 15 16  2  0
 15 17  1  0
 10  5  1  0
 17 12  1  0
  1 18  1  0
  1 19  1  0
  1 20  1  0
  2 21  1  1
  3 22  1  0
  3 23  1  0
  4 24  1  0
  4 25  1  0
  6 26  1  0
  7 27  1  0
  8 28  1  0
  9 29  1  0
 10 30  1  0
 11 31  1  0
 11 32  1  0
M  CHG  3   2   1  14  -1  17  -1
M  END
>  <UniqueID>  (23) 
22

>  <SMILES>  (23) 
C[N@@H+](CCc1ccccc1)Cc1n[n-]c(=O)[n-]1

>  <Energy>  (23) 
67.93361567635053

>  <Genealogy>  (23) 
C[NH+](CCc1ccccc1)Cc1n[n-]c(=O)[n-]1 (protonated)
C[N@@H+](CCc1ccccc1)Cc1n[n-]c(=O)[n-]1 (chirality)
C[N@@H+](CCc1ccccc1)Cc1n[n-]c(=O)[n-]1 (3D coordinates assigned)
C[N@@H+](CCc1ccccc1)Cc1n[n-]c(=O)[n-]1 (optimized conformer: 67.93361567635053 kcal/mol)

>  <smiles>  (23) 
CN(CCc1ccccc1)Cc1n[nH]c(=O)[nH]1

>  <score_type>  (23) 
oracle

>  <origin>  (23) 
adg

>  <m_score__min__energy>  (23) 
-8.7899999999999991

>  <m_primary>  (23) 
energy

$$$$
23:0
     RDKit          3D

 55 59  0  0  0  0  0  0  0  0999 V2000
   -6.2890   17.0600  -32.9410 C   0  0  0  0  0  0  0  0  0  0  0  0
   -6.2040   18.3860  -32.4320 O   0  0  0  0  0  0  0  0  0  0  0  0
   -7.2870   19.2770  -32.3280 C   0  0  0  0  0  0  0  0  0  0  0  0
   -8.5800   18.9090  -32.7520 C   0  0  0  0  0  0  0  0  0  0  0  0
   -9.6410   19.8100  -32.6580 C   0  0  0  0  0  0  0  0  0  0  0  0
   -9.4300   21.0850  -32.1400 C   0  0  0  0  0  0  0  0  0  0  0  0
   -8.1570   21.4660  -31.7130 C   0  0  0  0  0  0  0  0  0  0  0  0
   -7.0720   20.5730  -31.8000 C   0  0  0  0  0  0  0  0  0  0  0  0
   -5.7290   20.9980  -31.3300 C   0  0  0  0  0  0  0  0  0  0  0  0
   -5.4730   22.1950  -30.7590 N   0  0  0  0  0  0  0  0  0  0  0  0
   -4.1780   22.2130  -30.4880 N   0  0  0  0  0  0  0  0  0  0  0  0
   -3.5370   23.3090  -29.8220 C   0  0  0  0  0  0  0  0  0  0  0  0
   -3.4870   24.6220  -30.2480 C   0  0  0  0  0  0  0  0  0  0  0  0
   -2.7710   25.2820  -29.3730 O   0  0  0  0  0  0  0  0  0  0  0  0
   -2.3800   24.4210  -28.4580 C   0  0  0  0  0  0  0  0  0  0  0  0
   -1.5570   24.7940  -27.2730 C   0  0  0  0  0  0  0  0  0  0  0  0
   -2.8260   23.1680  -28.6880 N   0  0  0  0  0  0  0  0  0  0  0  0
   -3.6540   21.0370  -30.9010 C   0  0  0  0  0  0  0  0  0  0  0  0
   -2.2250   20.6720  -30.8860 C   0  0  0  0  0  0  0  0  0  0  0  0
   -1.4230   20.7390  -32.0250 C   0  0  0  0  0  0  0  0  0  0  0  0
   -1.8500   21.1810  -33.3880 C   0  0  0  0  0  0  0  0  0  0  0  0
    0.1370   20.2770  -31.6170 S   0  0  0  0  0  0  0  0  0  0  0  0
   -0.1820   19.9770  -29.9940 C   0  0  0  0  0  0  0  0  0  0  0  0
   -1.5260   20.2630  -29.7270 C   0  0  0  0  0  0  0  0  0  0  0  0
   -2.1890   20.1610  -28.3610 C   0  0  0  0  0  0  0  0  0  0  0  0
   -1.2540   20.2060  -27.1320 C   0  0  0  0  0  0  0  0  0  0  0  0
   -0.0940   21.2060  -27.2690 C   0  0  0  0  0  0  0  0  0  0  0  0
    1.1500   20.6020  -27.9530 C   0  0  0  0  0  0  0  0  0  0  0  0
    0.8480   19.5240  -29.0070 C   0  0  0  0  0  0  0  0  0  0  0  0
   -4.6080   20.2510  -31.4290 N   0  0  0  0  0  0  0  0  0  0  0  0
   -6.3346   16.3481  -32.1037 H   0  0  0  0  0  0  0  0  0  0  0  0
   -7.1953   16.9609  -33.5564 H   0  0  0  0  0  0  0  0  0  0  0  0
   -5.4027   16.8460  -33.5564 H   0  0  0  0  0  0  0  0  0  0  0  0
   -8.7540   17.9026  -33.1606 H   0  0  0  0  0  0  0  0  0  0  0  0
  -10.6455   19.5127  -32.9936 H   0  0  0  0  0  0  0  0  0  0  0  0
  -10.2683   21.7935  -32.0671 H   0  0  0  0  0  0  0  0  0  0  0  0
   -7.9997   22.4750  -31.3040 H   0  0  0  0  0  0  0  0  0  0  0  0
   -3.9594   25.0349  -31.1515 H   0  0  0  0  0  0  0  0  0  0  0  0
   -2.1056   24.5453  -26.3526 H   0  0  0  0  0  0  0  0  0  0  0  0
   -0.6082   24.2379  -27.2958 H   0  0  0  0  0  0  0  0  0  0  0  0
   -1.3497   25.8740  -27.2958 H   0  0  0  0  0  0  0  0  0  0  0  0
   -2.6116   21.9694  -33.2960 H   0  0  0  0  0  0  0  0  0  0  0  0
   -0.9803   21.5734  -33.9354 H   0  0  0  0  0  0  0  0  0  0  0  0
   -2.2722   20.3254  -33.9354 H   0  0  0  0  0  0  0  0  0  0  0  0
   -2.8983   20.9970  -28.2713 H   0  0  0  0  0  0  0  0  0  0  0  0
   -2.6508   19.1629  -28.3371 H   0  0  0  0  0  0  0  0  0  0  0  0
   -1.8515   20.4868  -26.2522 H   0  0  0  0  0  0  0  0  0  0  0  0
   -0.8048   19.2066  -27.0354 H   0  0  0  0  0  0  0  0  0  0  0  0
   -0.4397   22.0631  -27.8655 H   0  0  0  0  0  0  0  0  0  0  0  0
    0.2034   21.5037  -26.2527 H   0  0  0  0  0  0  0  0  0  0  0  0
    1.6993   21.4178  -28.4458 H   0  0  0  0  0  0  0  0  0  0  0  0
    1.7285   20.1056  -27.1600 H   0  0  0  0  0  0  0  0  0  0  0  0
    1.7762   19.2854  -29.5468 H   0  0  0  0  0  0  0  0  0  0  0  0
    0.4525   18.6402  -28.4850 H   0  0  0  0  0  0  0  0  0  0  0  0
   -4.4880   19.2940  -31.8280 H   0  0  0  0  0  0  0  0  0  0  0  0
  1  2  1  0
  2  3  1  0
  3  4  2  0
  4  5  1  0
  5  6  2  0
  6  7  1  0
  7  8  2  0
  8  9  1  0
  9 10  2  0
 10 11  1  0
 11 12  1  0
 12 13  2  0
 13 14  1  0
 14 15  1  0
 15 16  1  0
 15 17  2  0
 11 18  1  0
 18 19  1  0
 19 20  2  0
 20 21  1  0
 20 22  1  0
 22 23  1  0
 23 24  2  0
 24 25  1  0
 25 26  1  0
 26 27  1  0
 27 28  1  0
 28 29  1  0
 18 30  2  0
  8  3  1  0
 30  9  1  0
 17 12  1  0
 24 19  1  0
 29 23  1  0
  1 31  1  0
  1 32  1  0
  1 33  1  0
  4 34  1  0
  5 35  1  0
  6 36  1  0
  7 37  1  0
 13 38  1  0
 16 39  1  0
 16 40  1  0
 16 41  1  0
 21 42  1  0
 21 43  1  0
 21 44  1  0
 25 45  1  0
 25 46  1  0
 26 47  1  0
 26 48  1  0
 27 49  1  0
 27 50  1  0
 28 51  1  0
 28 52  1  0
 29 53  1  0
 29 54  1  0
 30 55  1  0
M  CHG  1  30   1
M  END
>  <UniqueID>  (24) 
23

>  <SMILES>  (24) 
COc1ccccc1-c1nn(-c2coc(C)n2)c(-c2c(C)sc3c2CCCCC3)[nH+]1

>  <Energy>  (24) 
162.27604408850385

>  <Genealogy>  (24) 
COc1ccccc1-c1nn(-c2coc(C)n2)c(-c2c(C)sc3c2CCCCC3)[nH+]1 (protonated)
COc1ccccc1-c1nn(-c2coc(C)n2)c(-c2c(C)sc3c2CCCCC3)[nH+]1 (3D coordinates assigned)
COc1ccccc1-c1nn(-c2coc(C)n2)c(-c2c(C)sc3c2CCCCC3)[nH+]1 (nonaromatic ring conformer: 162.27604408850385 kcal/mol)

>  <smiles>  (24) 
COc1ccccc1-c1nc(-c2c(C)sc3c2CCCCC3)n(-c2coc(C)n2)n1

>  <score_type>  (24) 
oracle

>  <origin>  (24) 
adg

>  <m_score__min__energy>  (24) 
-6.8700000000000001

>  <m_primary>  (24) 
energy

$$$$
24:0
     RDKit          3D

 40 43  0  0  0  0  0  0  0  0999 V2000
   -6.7390   23.9880  -30.0240 C   0  0  0  0  0  0  0  0  0  0  0  0
   -7.4390   23.8040  -31.2490 O   0  0  0  0  0  0  0  0  0  0  0  0
   -7.9750   22.5810  -31.6880 C   0  0  0  0  0  0  0  0  0  0  0  0
   -9.3530   22.3010  -31.5920 C   0  0  0  0  0  0  0  0  0  0  0  0
   -9.8620   21.0790  -32.0330 C   0  0  0  0  0  0  0  0  0  0  0  0
   -9.0110   20.1170  -32.5760 C   0  0  0  0  0  0  0  0  0  0  0  0
   -7.6360   20.3680  -32.6830 C   0  0  0  0  0  0  0  0  0  0  0  0
   -6.8050   19.4250  -33.2150 N   0  0  0  0  0  0  0  0  0  0  0  0
   -5.4660   19.6390  -33.3330 C   0  0  0  0  0  0  0  0  0  0  0  0
   -4.6720   18.6770  -33.8650 N   0  0  0  0  0  0  0  0  0  0  0  0
   -3.3310   18.8490  -33.9980 C   0  0  0  0  0  0  0  0  0  0  0  0
   -2.5250   17.7270  -34.5900 C   0  0  0  0  0  0  0  0  0  0  0  0
   -2.7460   20.0270  -33.5980 N   0  0  0  0  0  0  0  0  0  0  0  0
   -1.3280   20.2260  -33.7440 C   0  0  0  0  0  0  0  0  0  0  0  0
   -0.8120   20.7970  -34.9180 C   0  0  0  0  0  0  0  0  0  0  0  0
    0.5660   20.9910  -35.0570 C   0  0  0  0  0  0  0  0  0  0  0  0
    1.4320   20.6210  -34.0230 C   0  0  0  0  0  0  0  0  0  0  0  0
    0.9230   20.0570  -32.8500 C   0  0  0  0  0  0  0  0  0  0  0  0
   -0.4550   19.8610  -32.7090 C   0  0  0  0  0  0  0  0  0  0  0  0
   -3.5130   21.0250  -33.0510 C   0  0  0  0  0  0  0  0  0  0  0  0
   -2.9730   22.1070  -32.6820 O   0  0  0  0  0  0  0  0  0  0  0  0
   -4.8990   20.8490  -32.9050 C   0  0  0  0  0  0  0  0  0  0  0  0
   -5.7330   21.8360  -32.3560 C   0  0  0  0  0  0  0  0  0  0  0  0
   -7.1130   21.6070  -32.2380 C   0  0  0  0  0  0  0  0  0  0  0  0
   -7.4222   23.8084  -29.1808 H   0  0  0  0  0  0  0  0  0  0  0  0
   -5.8985   23.2803  -29.9721 H   0  0  0  0  0  0  0  0  0  0  0  0
   -6.3552   25.0176  -29.9721 H   0  0  0  0  0  0  0  0  0  0  0  0
  -10.0334   23.0527  -31.1655 H   0  0  0  0  0  0  0  0  0  0  0  0
  -10.9396   20.8735  -31.9520 H   0  0  0  0  0  0  0  0  0  0  0  0
   -9.4206   19.1566  -32.9220 H   0  0  0  0  0  0  0  0  0  0  0  0
   -7.1990   18.5120  -33.5420 H   0  0  0  0  0  0  0  0  0  0  0  0
   -2.0900   17.1215  -33.7812 H   0  0  0  0  0  0  0  0  0  0  0  0
   -3.1770   17.0952  -35.2111 H   0  0  0  0  0  0  0  0  0  0  0  0
   -1.7181   18.1432  -35.2111 H   0  0  0  0  0  0  0  0  0  0  0  0
   -1.4927   21.0924  -35.7300 H   0  0  0  0  0  0  0  0  0  0  0  0
    0.9687   21.4346  -35.9795 H   0  0  0  0  0  0  0  0  0  0  0  0
    2.5157   20.7742  -34.1332 H   0  0  0  0  0  0  0  0  0  0  0  0
    1.6058   19.7672  -32.0377 H   0  0  0  0  0  0  0  0  0  0  0  0
   -0.8546   19.4196  -31.7841 H   0  0  0  0  0  0  0  0  0  0  0  0
   -5.3042   22.7908  -32.0176 H   0  0  0  0  0  0  0  0  0  0  0  0
  1  2  1  0
  2  3  1  0
  3  4  2  0
  4  5  1  0
  5  6  2  0
  6  7  1  0
  7  8  2  0
  8  9  1  0
  9 10  1  0
 10 11  2  0
 11 12  1  0
 11 13  1  0
 13 14  1  0
 14 15  2  0
 15 16  1  0
 16 17  2  0
 17 18  1  0
 18 19  2  0
 13 20  1  0
 20 21  2  0
 20 22  1  0
 22 23  1  0
 23 24  2  0
 24  3  1  0
 24  7  1  0
 22  9  2  0
 19 14  1  0
  1 25  1  0
  1 26  1  0
  1 27  1  0
  4 28  1  0
  5 29  1  0
  6 30  1  0
  8 31  1  0
 12 32  1  0
 12 33  1  0
 12 34  1  0
 15 35  1  0
 16 36  1  0
 17 37  1  0
 18 38  1  0
 19 39  1  0
 23 40  1  0
M  CHG  1   8   1
M  END
>  <UniqueID>  (25) 
24

>  <SMILES>  (25) 
COc1cccc2[nH+]c3nc(C)n(-c4ccccc4)c(=O)c3cc12

>  <Energy>  (25) 
61.9573279489905

>  <Genealogy>  (25) 
COc1cccc2[nH+]c3nc(C)n(-c4ccccc4)c(=O)c3cc12 (protonated)
COc1cccc2[nH+]c3nc(C)n(-c4ccccc4)c(=O)c3cc12 (3D coordinates assigned)
COc1cccc2[nH+]c3nc(C)n(-c4ccccc4)c(=O)c3cc12 (optimized conformer: 61.9573279489905 kcal/mol)

>  <smiles>  (25) 
COc1cccc2nc3nc(C)n(-c4ccccc4)c(=O)c3cc12

>  <score_type>  (25) 
oracle

>  <origin>  (25) 
adg

>  <m_score__min__energy>  (25) 
-7.1699999999999999

>  <m_primary>  (25) 
energy

$$$$
25:0
     RDKit          3D

 55 57  0  0  0  0  0  0  0  0999 V2000
    1.5100   17.7490  -28.2030 C   0  0  0  0  0  0  0  0  0  0  0  0
    0.3600   18.6380  -28.4940 C   0  0  0  0  0  0  0  0  0  0  0  0
    0.2770   19.2670  -29.7360 C   0  0  0  0  0  0  0  0  0  0  0  0
   -3.6800   21.2080  -32.9070 C   0  0  0  0  0  0  0  0  0  0  0  0
   -0.8210   20.6370  -31.1340 O   0  0  0  0  0  0  0  0  0  0  0  0
   -1.7760   20.3200  -29.0800 N   0  0  0  0  0  0  0  0  0  0  0  0
   -2.8180   21.2060  -29.4770 C   0  0  0  0  0  0  0  0  0  0  0  0
   -2.3790   22.6400  -29.7090 C   0  0  0  0  0  0  0  0  0  0  0  0
   -3.3550   23.4660  -29.0430 N   0  0  0  0  0  0  0  0  0  0  0  0
   -4.3380   22.6990  -28.3240 C   0  0  0  0  0  0  0  0  0  0  0  0
   -3.8440   24.5780  -29.7440 C   0  0  0  0  0  0  0  0  0  0  0  0
   -5.2660   24.4970  -30.2420 C   0  0  0  0  0  0  0  0  0  0  0  0
   -5.3400   24.1830  -31.6100 O   0  0  0  0  0  0  0  0  0  0  0  0
   -5.0660   22.8790  -31.9940 C   0  0  0  0  0  0  0  0  0  0  0  0
   -3.8970   22.5020  -32.5480 N   0  0  0  0  0  0  0  0  0  0  0  0
   -0.7830   20.0820  -29.9860 C   0  0  0  0  0  0  0  0  0  0  0  0
   -2.5340   20.9210  -33.4350 N   0  0  0  0  0  0  0  0  0  0  0  0
   -4.6690   20.2610  -32.7030 C   0  0  0  0  0  0  0  0  0  0  0  0
   -4.7000   18.9360  -32.9680 N   0  0  0  0  0  0  0  0  0  0  0  0
   -5.9080   18.4980  -32.5690 C   0  0  0  0  0  0  0  0  0  0  0  0
   -6.6300   19.5360  -32.0570 N   0  0  0  0  0  0  0  0  0  0  0  0
   -7.9630   19.4560  -31.5290 C   0  0  0  0  0  0  0  0  0  0  0  0
   -8.9170   20.1930  -32.4520 C   0  0  0  0  0  0  0  0  0  0  0  0
   -8.9940   21.5920  -32.0020 C   0  0  0  0  0  0  0  0  0  0  0  0
   -9.0380   22.6830  -31.6400 N   0  0  0  0  0  0  0  0  0  0  0  0
   -5.8680   20.6550  -32.1330 C   0  0  0  0  0  0  0  0  0  0  0  0
   -6.0250   21.9420  -31.7990 N   0  0  0  0  0  0  0  0  0  0  0  0
   -1.6770   19.7070  -27.8940 C   0  0  0  0  0  0  0  0  0  0  0  0
   -2.7240   19.9360  -26.8940 C   0  0  0  0  0  0  0  0  0  0  0  0
   -0.6290   18.8930  -27.6310 N   0  0  0  0  0  0  0  0  0  0  0  0
    1.6334   17.6536  -27.1141 H   0  0  0  0  0  0  0  0  0  0  0  0
    1.3257   16.7563  -28.6395 H   0  0  0  0  0  0  0  0  0  0  0  0
    2.4243   18.1774  -28.6395 H   0  0  0  0  0  0  0  0  0  0  0  0
    1.0535   19.1072  -30.4985 H   0  0  0  0  0  0  0  0  0  0  0  0
   -3.2529   20.8254  -30.4130 H   0  0  0  0  0  0  0  0  0  0  0  0
   -3.5364   21.2325  -28.6444 H   0  0  0  0  0  0  0  0  0  0  0  0
   -1.3798   22.8080  -29.2808 H   0  0  0  0  0  0  0  0  0  0  0  0
   -2.3171   22.8743  -30.7820 H   0  0  0  0  0  0  0  0  0  0  0  0
   -4.1800   22.8223  -27.2424 H   0  0  0  0  0  0  0  0  0  0  0  0
   -5.3452   23.0523  -28.5900 H   0  0  0  0  0  0  0  0  0  0  0  0
   -4.2402   21.6361  -28.5900 H   0  0  0  0  0  0  0  0  0  0  0  0
   -3.7745   25.4493  -29.0761 H   0  0  0  0  0  0  0  0  0  0  0  0
   -3.2247   24.6416  -30.6509 H   0  0  0  0  0  0  0  0  0  0  0  0
   -5.7955   23.7191  -29.6723 H   0  0  0  0  0  0  0  0  0  0  0  0
   -5.7266   25.4859  -30.1006 H   0  0  0  0  0  0  0  0  0  0  0  0
   -1.9350   20.2270  -32.9420 H   0  0  0  0  0  0  0  0  0  0  0  0
   -6.2605   17.4588  -32.6444 H   0  0  0  0  0  0  0  0  0  0  0  0
   -8.2656   18.4010  -31.4552 H   0  0  0  0  0  0  0  0  0  0  0  0
   -7.9903   19.9156  -30.5300 H   0  0  0  0  0  0  0  0  0  0  0  0
   -8.5422   20.1532  -33.4854 H   0  0  0  0  0  0  0  0  0  0  0  0
   -9.9129   19.7268  -32.4240 H   0  0  0  0  0  0  0  0  0  0  0  0
   -6.9250   22.2380  -31.3720 H   0  0  0  0  0  0  0  0  0  0  0  0
   -2.2947   19.8421  -25.8856 H   0  0  0  0  0  0  0  0  0  0  0  0
   -3.1396   20.9463  -27.0230 H   0  0  0  0  0  0  0  0  0  0  0  0
   -3.5234   19.1915  -27.0230 H   0  0  0  0  0  0  0  0  0  0  0  0
  1  2  1  0
  2  3  2  0
  3  4  1  0
  4  5  2  0
  4  6  1  0
  6  7  1  0
  7  8  1  0
  8  9  1  0
  9 10  1  0
  9 11  1  0
 11 12  1  0
 12 13  1  0
 13 14  1  0
 14 15  2  0
 15 16  1  0
 16 17  2  3
 16 18  1  0
 18 19  1  0
 19 20  2  0
 20 21  1  0
 21 22  1  0
 22 23  1  0
 23 24  1  0
 24 25  3  0
 21 26  1  0
 26 27  1  0
  6 28  1  0
 28 29  1  0
 28 30  2  0
 30  2  1  0
 27 14  1  0
 26 18  2  0
  1 31  1  0
  1 32  1  0
  1 33  1  0
  3 34  1  0
  7 35  1  0
  7 36  1  0
  8 37  1  0
  8 38  1  0
 10 39  1  0
 10 40  1  0
 10 41  1  0
 11 42  1  0
 11 43  1  0
 12 44  1  0
 12 45  1  0
 17 46  1  0
 20 47  1  0
 22 48  1  0
 22 49  1  0
 23 50  1  0
 23 51  1  0
 27 52  1  0
 29 53  1  0
 29 54  1  0
 29 55  1  0
M  END
>  <smiles>  (26) 
Cc1cc(=O)n(CCN(C)CCOc2nc(=N)c3ncn(CCC#N)c3[nH]2)c(C)n1

>  <score_type>  (26) 
oracle

>  <origin>  (26) 
adg

>  <m_score__min__energy>  (26) 
-7.6500000000000004

>  <m_primary>  (26) 
energy

$$$$
26:0
     RDKit          3D

 35 37  0  0  0  0  0  0  0  0999 V2000
   -3.3980   23.4920  -27.8760 C   0  0  0  0  0  0  0  0  0  0  0  0
   -2.7820   24.6140  -28.7040 C   0  0  0  0  0  0  0  0  0  0  0  0
   -3.2890   24.5570  -30.0900 N   0  0  0  0  0  0  0  0  0  0  0  0
   -4.6810   25.0370  -30.2630 C   0  0  0  0  0  0  0  0  0  0  0  0
   -5.7340   24.2190  -29.4970 C   0  0  0  0  0  0  0  0  0  0  0  0
   -6.1770   23.0220  -30.2820 C   0  0  0  0  0  0  0  0  0  0  0  0
   -7.4990   22.9210  -30.5780 N   0  0  0  0  0  0  0  0  0  0  0  0
   -8.0130   21.8910  -31.2900 C   0  0  0  0  0  0  0  0  0  0  0  0
   -9.3870   21.8540  -31.5530 C   0  0  0  0  0  0  0  0  0  0  0  0
   -9.9300   20.8050  -32.2970 C   0  0  0  0  0  0  0  0  0  0  0  0
   -9.1020   19.7920  -32.7840 C   0  0  0  0  0  0  0  0  0  0  0  0
   -7.7280   19.8210  -32.5270 C   0  0  0  0  0  0  0  0  0  0  0  0
   -7.1650   20.8720  -31.7730 C   0  0  0  0  0  0  0  0  0  0  0  0
   -5.7830   20.9430  -31.4850 C   0  0  0  0  0  0  0  0  0  0  0  0
   -4.6860   19.7170  -32.1450 Cl  0  0  0  0  0  0  0  0  0  0  0  0
   -5.2760   22.0070  -30.6900 C   0  0  0  0  0  0  0  0  0  0  0  0
   -3.7820   22.0620  -30.3680 C   0  0  0  0  0  0  0  0  0  0  0  0
   -2.9730   23.3090  -30.8160 C   0  0  0  0  0  0  0  0  0  0  0  0
   -3.2751   23.7159  -26.8061 H   0  0  0  0  0  0  0  0  0  0  0  0
   -4.4690   23.4075  -28.1122 H   0  0  0  0  0  0  0  0  0  0  0  0
   -2.8944   22.5430  -28.1122 H   0  0  0  0  0  0  0  0  0  0  0  0
   -3.0484   25.5838  -28.2584 H   0  0  0  0  0  0  0  0  0  0  0  0
   -1.6884   24.4957  -28.7148 H   0  0  0  0  0  0  0  0  0  0  0  0
   -4.7321   26.0783  -29.9122 H   0  0  0  0  0  0  0  0  0  0  0  0
   -4.9188   24.9329  -31.3319 H   0  0  0  0  0  0  0  0  0  0  0  0
   -5.3004   23.8811  -28.5442 H   0  0  0  0  0  0  0  0  0  0  0  0
   -6.6100   24.8610  -29.3227 H   0  0  0  0  0  0  0  0  0  0  0  0
  -10.0404   22.6530  -31.1727 H   0  0  0  0  0  0  0  0  0  0  0  0
  -11.0108   20.7766  -32.4996 H   0  0  0  0  0  0  0  0  0  0  0  0
   -9.5322   18.9679  -33.3721 H   0  0  0  0  0  0  0  0  0  0  0  0
   -7.0822   19.0195  -32.9150 H   0  0  0  0  0  0  0  0  0  0  0  0
   -3.6824   21.9857  -29.2752 H   0  0  0  0  0  0  0  0  0  0  0  0
   -3.3500   21.2365  -30.9527 H   0  0  0  0  0  0  0  0  0  0  0  0
   -1.9045   23.0919  -30.6708 H   0  0  0  0  0  0  0  0  0  0  0  0
   -3.2455   23.4890  -31.8664 H   0  0  0  0  0  0  0  0  0  0  0  0
  1  2  1  0
  2  3  1  0
  3  4  1  0
  4  5  1  0
  5  6  1  0
  6  7  2  0
  7  8  1  0
  8  9  2  0
  9 10  1  0
 10 11  2  0
 11 12  1  0
 12 13  2  0
 13 14  1  0
 14 15  1  0
 14 16  2  0
 16 17  1  0
 17 18  1  0
 18  3  1  0
 16  6  1  0
 13  8  1  0
  1 19  1  0
  1 20  1  0
  1 21  1  0
  2 22  1  0
  2 23  1  0
  4 24  1  0
  4 25  1  0
  5 26  1  0
  5 27  1  0
  9 28  1  0
 10 29  1  0
 11 30  1  0
 12 31  1  0
 17 32  1  0
 17 33  1  0
 18 34  1  0
 18 35  1  0
M  END
>  <UniqueID>  (27) 
25

>  <SMILES>  (27) 
CCN1CCc2nc3ccccc3c(Cl)c2CC1

>  <Energy>  (27) 
58.469440763738696

>  <Genealogy>  (27) 
CCN1CCc2nc3ccccc3c(Cl)c2CC1 (3D coordinates assigned)
CCN1CCc2nc3ccccc3c(Cl)c2CC1 (nonaromatic ring conformer: 58.469440763738696 kcal/mol)

>  <smiles>  (27) 
CCN1CCc2nc3ccccc3c(Cl)c2CC1

>  <score_type>  (27) 
oracle

>  <origin>  (27) 
adg

>  <m_score__min__energy>  (27) 
-5.9400000000000004

>  <m_primary>  (27) 
energy

$$$$
27:0
     RDKit          3D

 42 43  0  0  0  0  0  0  0  0999 V2000
   -2.8800   20.1850  -34.1790 F   0  0  0  0  0  0  0  0  0  0  0  0
   -3.7590   20.6150  -33.2030 C   0  0  0  0  0  0  0  0  0  0  0  0
   -3.1250   20.5680  -31.9730 F   0  0  0  0  0  0  0  0  0  0  0  0
   -4.1090   21.9290  -33.4590 F   0  0  0  0  0  0  0  0  0  0  0  0
   -4.9780   19.7270  -33.2060 C   0  0  0  0  0  0  0  0  0  0  0  0
   -4.8710   18.3740  -33.5720 C   0  0  0  0  0  0  0  0  0  0  0  0
   -5.9890   17.5370  -33.5220 C   0  0  0  0  0  0  0  0  0  0  0  0
   -7.2210   18.0360  -33.0940 C   0  0  0  0  0  0  0  0  0  0  0  0
   -7.3440   19.3810  -32.7140 C   0  0  0  0  0  0  0  0  0  0  0  0
   -8.6580   19.8980  -32.2000 C   0  0  0  0  0  0  0  0  0  0  0  0
   -8.4150   20.8050  -31.0720 N   0  0  0  0  0  0  0  0  0  0  0  0
   -9.3680   21.9240  -31.0590 C   0  0  0  0  0  0  0  0  0  0  0  0
   -8.9130   23.0480  -32.0000 C   0  0  0  0  0  0  0  0  0  0  0  0
   -7.3770   23.1820  -32.0320 C   0  0  0  0  0  0  0  0  0  0  0  0
   -6.7580   23.2240  -30.6900 N   0  0  0  0  0  0  0  0  0  0  0  0
   -6.8360   24.5370  -30.0090 C   0  0  0  0  0  0  0  0  0  0  0  0
   -5.4550   25.1660  -29.7860 C   0  0  0  0  0  0  0  0  0  0  0  0
   -4.6040   24.8500  -30.8620 O   0  0  0  0  0  0  0  0  0  0  0  0
   -4.2460   23.4830  -30.8010 C   0  0  0  0  0  0  0  0  0  0  0  0
   -5.4530   22.5380  -30.5830 C   0  0  0  0  0  0  0  0  0  0  0  0
   -6.2150   20.2160  -32.7500 C   0  0  0  0  0  0  0  0  0  0  0  0
   -3.9012   17.9715  -33.8998 H   0  0  0  0  0  0  0  0  0  0  0  0
   -5.8983   16.4822  -33.8206 H   0  0  0  0  0  0  0  0  0  0  0  0
   -8.0976   17.3727  -33.0547 H   0  0  0  0  0  0  0  0  0  0  0  0
   -9.1784   20.4411  -33.0026 H   0  0  0  0  0  0  0  0  0  0  0  0
   -9.2808   19.0547  -31.8670 H   0  0  0  0  0  0  0  0  0  0  0  0
   -7.4530   21.2030  -31.1870 H   0  0  0  0  0  0  0  0  0  0  0  0
  -10.3538   21.5602  -31.3842 H   0  0  0  0  0  0  0  0  0  0  0  0
   -9.4222   22.3250  -30.0361 H   0  0  0  0  0  0  0  0  0  0  0  0
   -9.2725   22.8288  -33.0162 H   0  0  0  0  0  0  0  0  0  0  0  0
   -9.3310   23.9951  -31.6282 H   0  0  0  0  0  0  0  0  0  0  0  0
   -6.9642   22.3212  -32.5785 H   0  0  0  0  0  0  0  0  0  0  0  0
   -7.1471   24.1390  -32.5232 H   0  0  0  0  0  0  0  0  0  0  0  0
   -7.4389   25.2193  -30.6263 H   0  0  0  0  0  0  0  0  0  0  0  0
   -7.2927   24.3747  -29.0216 H   0  0  0  0  0  0  0  0  0  0  0  0
   -5.5596   26.2586  -29.7127 H   0  0  0  0  0  0  0  0  0  0  0  0
   -5.0232   24.7699  -28.8550 H   0  0  0  0  0  0  0  0  0  0  0  0
   -3.7555   23.2089  -31.7467 H   0  0  0  0  0  0  0  0  0  0  0  0
   -3.5790   23.3614  -29.9348 H   0  0  0  0  0  0  0  0  0  0  0  0
   -5.4141   21.7411  -31.3403 H   0  0  0  0  0  0  0  0  0  0  0  0
   -5.3760   22.1409  -29.5601 H   0  0  0  0  0  0  0  0  0  0  0  0
   -6.2993   21.2615  -32.4186 H   0  0  0  0  0  0  0  0  0  0  0  0
  1  2  1  0
  2  3  1  0
  2  4  1  0
  2  5  1  0
  5  6  2  0
  6  7  1  0
  7  8  2  0
  8  9  1  0
  9 10  1  0
 10 11  1  0
 11 12  1  0
 12 13  1  0
 13 14  1  0
 14 15  1  0
 15 16  1  0
 16 17  1  0
 17 18  1  0
 18 19  1  0
 19 20  1  0
  9 21  2  0
 21  5  1  0
 20 15  1  0
  6 22  1  0
  7 23  1  0
  8 24  1  0
 10 25  1  0
 10 26  1  0
 11 27  1  0
 12 28  1  0
 12 29  1  0
 13 30  1  0
 13 31  1  0
 14 32  1  0
 14 33  1  0
 16 34  1  0
 16 35  1  0
 17 36  1  0
 17 37  1  0
 19 38  1  0
 19 39  1  0
 20 40  1  0
 20 41  1  0
 21 42  1  0
M  END
>  <UniqueID>  (28) 
26

>  <SMILES>  (28) 
FC(F)(F)c1cccc(CNCCCN2CCOCC2)c1

>  <Energy>  (28) 
52.24308479968926

>  <Genealogy>  (28) 
FC(F)(F)c1cccc(CNCCCN2CCOCC2)c1 (3D coordinates assigned)
FC(F)(F)c1cccc(CNCCCN2CCOCC2)c1 (nonaromatic ring conformer: 52.24308479968926 kcal/mol)

>  <smiles>  (28) 
FC(F)(F)c1cccc(CNCCCN2CCOCC2)c1

>  <score_type>  (28) 
oracle

>  <origin>  (28) 
adg

>  <m_score__min__energy>  (28) 
-7.3700000000000001

>  <m_primary>  (28) 
energy

$$$$
28:0
     RDKit          3D

 48 49  0  0  0  0  0  0  0  0999 V2000
   -2.7930   20.1850  -27.4090 C   0  0  0  0  0  0  0  0  0  0  0  0
   -2.7860   21.5070  -28.1760 C   0  0  0  0  0  0  0  0  0  0  0  0
   -1.7740   21.5160  -29.3320 C   0  0  0  0  0  0  0  0  0  0  0  0
   -1.8560   22.7910  -30.1780 C   0  0  0  0  0  0  0  0  0  0  0  0
   -3.2100   22.9600  -30.7010 N   0  0  0  0  0  0  0  0  0  0  0  0
   -3.9730   22.0000  -31.2610 C   0  0  0  0  0  0  0  0  0  0  0  0
   -5.1890   22.5430  -31.6470 C   0  0  0  0  0  0  0  0  0  0  0  0
   -6.2950   21.8540  -32.3960 C   0  0  2  0  0  0  0  0  0  0  0  0
   -7.3610   22.7360  -32.6390 O   0  0  0  0  0  0  0  0  0  0  0  0
   -6.7500   20.6150  -31.7240 N   0  0  0  0  0  0  0  0  0  0  0  0
   -7.3980   19.5590  -32.5410 C   0  0  2  0  0  0  0  0  0  0  0  0
   -8.9100   19.4290  -32.2760 C   0  0  0  0  0  0  0  0  0  0  0  0
   -6.6100   18.2550  -32.5020 C   0  0  0  0  0  0  0  0  0  0  0  0
   -6.0630   17.6470  -33.6490 C   0  0  0  0  0  0  0  0  0  0  0  0
   -5.4010   16.4240  -33.5490 C   0  0  0  0  0  0  0  0  0  0  0  0
   -5.2640   15.8090  -32.2940 C   0  0  0  0  0  0  0  0  0  0  0  0
   -4.6320   14.5650  -32.1400 O   0  0  0  0  0  0  0  0  0  0  0  0
   -3.7650   13.9770  -33.1040 C   0  0  0  0  0  0  0  0  0  0  0  0
   -5.7580   16.4310  -31.1900 N   0  0  0  0  0  0  0  0  0  0  0  0
   -6.4110   17.6230  -31.2650 C   0  0  0  0  0  0  0  0  0  0  0  0
   -5.1740   23.8800  -31.2830 C   0  0  0  0  0  0  0  0  0  0  0  0
   -3.9410   24.0910  -30.7050 C   0  0  0  0  0  0  0  0  0  0  0  0
   -3.4950   25.3080  -30.2040 O   0  0  0  0  0  0  0  0  0  0  0  0
   -2.7919   20.3883  -26.3279 H   0  0  0  0  0  0  0  0  0  0  0  0
   -3.6942   19.6124  -27.6735 H   0  0  0  0  0  0  0  0  0  0  0  0
   -1.8979   19.6029  -27.6735 H   0  0  0  0  0  0  0  0  0  0  0  0
   -3.7914   21.6808  -28.5870 H   0  0  0  0  0  0  0  0  0  0  0  0
   -2.4925   22.2988  -27.4711 H   0  0  0  0  0  0  0  0  0  0  0  0
   -0.7601   21.4360  -28.9130 H   0  0  0  0  0  0  0  0  0  0  0  0
   -2.0106   20.6654  -29.9881 H   0  0  0  0  0  0  0  0  0  0  0  0
   -1.5959   23.6589  -29.5543 H   0  0  0  0  0  0  0  0  0  0  0  0
   -1.1522   22.7107  -31.0196 H   0  0  0  0  0  0  0  0  0  0  0  0
   -3.6768   20.9487  -31.3915 H   0  0  0  0  0  0  0  0  0  0  0  0
   -5.8833   21.5426  -33.3674 H   0  0  0  0  0  0  0  0  0  0  0  0
   -7.1220   23.2570  -33.4500 H   0  0  0  0  0  0  0  0  0  0  0  0
   -5.9320   20.1940  -31.2230 H   0  0  0  0  0  0  0  0  0  0  0  0
   -7.3589   19.8800  -33.5924 H   0  0  0  0  0  0  0  0  0  0  0  0
   -9.0921   19.4133  -31.1913 H   0  0  0  0  0  0  0  0  0  0  0  0
   -9.4357   20.2853  -32.7237 H   0  0  0  0  0  0  0  0  0  0  0  0
   -9.2818   18.4956  -32.7237 H   0  0  0  0  0  0  0  0  0  0  0  0
   -6.1586   18.1394  -34.6280 H   0  0  0  0  0  0  0  0  0  0  0  0
   -4.9883   15.9435  -34.4483 H   0  0  0  0  0  0  0  0  0  0  0  0
   -2.9605   13.4314  -32.5891 H   0  0  0  0  0  0  0  0  0  0  0  0
   -4.3364   13.2793  -33.7339 H   0  0  0  0  0  0  0  0  0  0  0  0
   -3.3282   14.7660  -33.7339 H   0  0  0  0  0  0  0  0  0  0  0  0
   -5.6470   15.9760  -30.2560 H   0  0  0  0  0  0  0  0  0  0  0  0
   -6.7869   18.0961  -30.3458 H   0  0  0  0  0  0  0  0  0  0  0  0
   -5.9774   24.6177  -31.4255 H   0  0  0  0  0  0  0  0  0  0  0  0
  1  2  1  0
  2  3  1  0
  3  4  1  0
  4  5  1  0
  5  6  1  0
  6  7  2  0
  7  8  1  0
  8  9  1  0
  8 10  1  0
 10 11  1  0
 11 12  1  0
 11 13  1  0
 13 14  2  0
 14 15  1  0
 15 16  2  0
 16 17  1  0
 17 18  1  0
 16 19  1  0
 19 20  2  0
  7 21  1  0
 21 22  2  0
 22 23  1  0
 22  5  1  0
 20 13  1  0
  1 24  1  0
  1 25  1  0
  1 26  1  0
  2 27  1  0
  2 28  1  0
  3 29  1  0
  3 30  1  0
  4 31  1  0
  4 32  1  0
  6 33  1  0
  8 34  1  6
  9 35  1  0
 10 36  1  0
 11 37  1  6
 12 38  1  0
 12 39  1  0
 12 40  1  0
 14 41  1  0
 15 42  1  0
 18 43  1  0
 18 44  1  0
 18 45  1  0
 19 46  1  0
 20 47  1  0
 21 48  1  0
M  CHG  2  19   1  23  -1
M  END
>  <UniqueID>  (29) 
27

>  <SMILES>  (29) 
CCCCn1cc([C@H](O)N[C@H](C)c2ccc(OC)[nH+]c2)cc1[O-]

>  <Energy>  (29) 
71.93737583409758

>  <Genealogy>  (29) 
CCCCn1cc(C(O)NC(C)c2ccc(OC)[nH+]c2)cc1[O-] (protonated)
CCCCn1cc([C@H](O)N[C@H](C)c2ccc(OC)[nH+]c2)cc1[O-] (chirality)
CCCCn1cc([C@H](O)N[C@H](C)c2ccc(OC)[nH+]c2)cc1[O-] (3D coordinates assigned)
CCCCn1cc([C@H](O)N[C@H](C)c2ccc(OC)[nH+]c2)cc1[O-] (optimized conformer: 71.93737583409758 kcal/mol)

>  <smiles>  (29) 
CCCCn1cc(C(O)NC(C)c2ccc(OC)nc2)cc1O

>  <score_type>  (29) 
oracle

>  <origin>  (29) 
adg

>  <m_score__min__energy>  (29) 
-9.5199999999999996

>  <m_primary>  (29) 
energy

$$$$
29:0
     RDKit          3D

 27 28  0  0  0  0  0  0  0  0999 V2000
   -0.0399   25.5052  -28.1865 H   0  0  0  0  0  0  0  0  0  0  0  0
   -0.9030   24.8660  -28.4240 C   0  0  0  0  0  0  0  0  0  0  0  0
   -1.8430   25.2960  -29.3040 N   0  0  0  0  0  0  0  0  0  0  0  0
   -2.9280   24.5380  -29.6250 C   0  0  0  0  0  0  0  0  0  0  0  0
   -3.8190   24.9700  -30.4700 N   0  0  0  0  0  0  0  0  0  0  0  0
   -5.1950   24.4840  -30.5590 C   0  0  0  0  0  0  0  0  0  0  0  0
   -5.2387   23.4528  -30.1784 H   0  0  0  0  0  0  0  0  0  0  0  0
   -5.5135   24.5174  -31.6113 H   0  0  0  0  0  0  0  0  0  0  0  0
   -6.1330   25.3610  -29.7360 C   0  0  0  0  0  0  0  0  0  0  0  0
   -5.9497   25.1896  -28.6650 H   0  0  0  0  0  0  0  0  0  0  0  0
   -5.9495   26.4190  -29.9747 H   0  0  0  0  0  0  0  0  0  0  0  0
   -7.1763   25.1069  -29.9747 H   0  0  0  0  0  0  0  0  0  0  0  0
   -3.0880   23.2750  -29.0420 C   0  0  0  0  0  0  0  0  0  0  0  0
   -3.9613   22.6572  -29.2983 H   0  0  0  0  0  0  0  0  0  0  0  0
   -2.1320   22.7970  -28.1290 C   0  0  0  0  0  0  0  0  0  0  0  0
   -2.2730   21.4640  -27.4930 C   0  0  0  0  0  0  0  0  0  0  0  0
   -3.1160   20.5830  -27.9130 N   0  0  0  0  0  0  0  0  0  0  0  0
   -3.0310   19.3800  -27.0950 C   0  0  0  0  0  0  0  0  0  0  0  0
   -3.9972   19.1725  -26.6119 H   0  0  0  0  0  0  0  0  0  0  0  0
   -2.7794   18.4919  -27.6933 H   0  0  0  0  0  0  0  0  0  0  0  0
   -1.9570   19.6870  -26.0420 C   0  0  0  0  0  0  0  0  0  0  0  0
   -2.3814   19.6519  -25.0278 H   0  0  0  0  0  0  0  0  0  0  0  0
   -1.1331   18.9582  -26.0501 H   0  0  0  0  0  0  0  0  0  0  0  0
   -1.5210   21.0290  -26.3730 N   0  0  0  0  0  0  0  0  0  0  0  0
   -0.8260   21.5800  -25.8240 H   0  0  0  0  0  0  0  0  0  0  0  0
   -1.0300   23.6140  -27.8200 C   0  0  0  0  0  0  0  0  0  0  0  0
   -0.2701   23.2674  -27.1042 H   0  0  0  0  0  0  0  0  0  0  0  0
  1  2  1  0
  2  3  1  0
  3  4  1  0
  4  5  2  0
  5  6  1  0
  6  7  1  0
  6  8  1  0
  6  9  1  0
  9 10  1  0
  9 11  1  0
  9 12  1  0
  4 13  1  0
 13 14  1  0
 13 15  2  0
 15 16  1  0
 16 17  2  0
 17 18  1  0
 18 19  1  0
 18 20  1  0
 18 21  1  0
 21 22  1  0
 21 23  1  0
 21 24  1  0
 24 25  1  0
 15 26  1  0
 26 27  1  0
 26  2  2  0
 24 16  1  0
M  CHG  1   3  -1
M  END
>  <UniqueID>  (30) 
28

>  <SMILES>  (30) 
CC/N=c1/cc(C2=NCCN2)cc[n-]1

>  <Energy>  (30) 
37.611005406923326

>  <Genealogy>  (30) 
CCN=c1cc(C2=NCCN2)cc[n-]1 (protonated)
CC/N=c1/cc(C2=NCCN2)cc[n-]1 (cis-trans isomerization)
CC/N=c1/cc(C2=NCCN2)cc[n-]1 (3D coordinates assigned)
CC/N=c1/cc(C2=NCCN2)cc[n-]1 (nonaromatic ring conformer: 37.611005406923326 kcal/mol)

>  <smiles>  (30) 
CCN=c1cc(C2=NCCN2)cc[nH]1

>  <score_type>  (30) 
oracle

>  <origin>  (30) 
adg

>  <m_score__min__energy>  (30) 
-6.9900000000000002

>  <m_primary>  (30) 
energy

$$$$
30:0
     RDKit          3D

 41 43  0  0  0  0  0  0  0  0999 V2000
   -3.7070   23.7020  -28.9240 C   0  0  0  0  0  0  0  0  0  0  0  0
   -3.7820   24.0020  -30.4200 C   0  0  0  0  0  0  0  0  0  0  0  0
   -5.1680   24.2780  -30.8390 N   0  0  0  0  0  0  0  0  0  0  0  0
   -5.7200   25.6220  -30.6130 C   0  0  0  0  0  0  0  0  0  0  0  0
   -6.5590   25.6540  -29.3390 C   0  0  0  0  0  0  0  0  0  0  0  0
   -6.0370   23.2380  -31.3460 C   0  0  0  0  0  0  0  0  0  0  0  0
   -7.3910   23.3280  -31.1650 N   0  0  0  0  0  0  0  0  0  0  0  0
   -8.2510   22.3710  -31.6310 C   0  0  0  0  0  0  0  0  0  0  0  0
   -7.7770   21.2820  -32.3070 N   0  0  0  0  0  0  0  0  0  0  0  0
   -6.4360   21.1830  -32.4990 C   0  0  0  0  0  0  0  0  0  0  0  0
   -5.5660   22.1220  -32.0460 C   0  0  0  0  0  0  0  0  0  0  0  0
   -4.3100   21.8080  -32.4130 N   0  0  0  0  0  0  0  0  0  0  0  0
   -4.4680   20.6410  -33.0890 C   0  0  0  0  0  0  0  0  0  0  0  0
   -5.7610   20.2250  -33.1600 N   0  0  0  0  0  0  0  0  0  0  0  0
   -6.2810   19.0270  -33.8360 C   0  0  0  0  0  0  0  0  0  0  0  0
   -5.1670   18.2000  -34.4810 C   0  0  0  0  0  0  0  0  0  0  0  0
   -5.5510   16.7330  -34.2870 C   0  0  0  0  0  0  0  0  0  0  0  0
   -6.8580   16.7130  -33.5020 C   0  0  0  0  0  0  0  0  0  0  0  0
   -6.9870   18.0860  -32.8680 C   0  0  0  0  0  0  0  0  0  0  0  0
   -3.9353   24.6153  -28.3550 H   0  0  0  0  0  0  0  0  0  0  0  0
   -4.4372   22.9195  -28.6699 H   0  0  0  0  0  0  0  0  0  0  0  0
   -2.6945   23.3552  -28.6699 H   0  0  0  0  0  0  0  0  0  0  0  0
   -3.1584   24.8806  -30.6415 H   0  0  0  0  0  0  0  0  0  0  0  0
   -3.4203   23.1211  -30.9707 H   0  0  0  0  0  0  0  0  0  0  0  0
   -4.8927   26.3408  -30.5185 H   0  0  0  0  0  0  0  0  0  0  0  0
   -6.3620   25.8883  -31.4656 H   0  0  0  0  0  0  0  0  0  0  0  0
   -5.8953   25.6287  -28.4622 H   0  0  0  0  0  0  0  0  0  0  0  0
   -7.1591   26.5757  -29.3182 H   0  0  0  0  0  0  0  0  0  0  0  0
   -7.2275   24.7807  -29.3182 H   0  0  0  0  0  0  0  0  0  0  0  0
   -9.3323   22.4791  -31.4601 H   0  0  0  0  0  0  0  0  0  0  0  0
   -8.4440   20.5650  -32.6630 H   0  0  0  0  0  0  0  0  0  0  0  0
   -3.6306   20.0854  -33.5363 H   0  0  0  0  0  0  0  0  0  0  0  0
   -6.9773   19.4139  -34.5945 H   0  0  0  0  0  0  0  0  0  0  0  0
   -5.0908   18.4348  -35.5530 H   0  0  0  0  0  0  0  0  0  0  0  0
   -4.1910   18.4205  -34.0241 H   0  0  0  0  0  0  0  0  0  0  0  0
   -5.6898   16.2467  -35.2639 H   0  0  0  0  0  0  0  0  0  0  0  0
   -4.7615   16.1891  -33.7477 H   0  0  0  0  0  0  0  0  0  0  0  0
   -7.7059   16.5223  -34.1764 H   0  0  0  0  0  0  0  0  0  0  0  0
   -6.8595   15.9171  -32.7427 H   0  0  0  0  0  0  0  0  0  0  0  0
   -8.0454   18.3648  -32.7585 H   0  0  0  0  0  0  0  0  0  0  0  0
   -6.5493   18.1214  -31.8594 H   0  0  0  0  0  0  0  0  0  0  0  0
  1  2  1  0
  2  3  1  0
  3  4  1  0
  4  5  1  0
  3  6  1  0
  6  7  2  0
  7  8  1  0
  8  9  2  0
  9 10  1  0
 10 11  2  0
 11 12  1  0
 12 13  2  0
 13 14  1  0
 14 15  1  0
 15 16  1  0
 16 17  1  0
 17 18  1  0
 18 19  1  0
 11  6  1  0
 19 15  1  0
 14 10  1  0
  1 20  1  0
  1 21  1  0
  1 22  1  0
  2 23  1  0
  2 24  1  0
  4 25  1  0
  4 26  1  0
  5 27  1  0
  5 28  1  0
  5 29  1  0
  8 30  1  0
  9 31  1  0
 13 32  1  0
 15 33  1  0
 16 34  1  0
 16 35  1  0
 17 36  1  0
 17 37  1  0
 18 38  1  0
 18 39  1  0
 19 40  1  0
 19 41  1  0
M  CHG  1   9   1
M  END
>  <UniqueID>  (31) 
29

>  <SMILES>  (31) 
CCN(CC)c1nc[nH+]c2c1ncn2C1CCCC1

>  <Energy>  (31) 
79.57651572434104

>  <Genealogy>  (31) 
CCN(CC)c1nc[nH+]c2c1ncn2C1CCCC1 (protonated)
CCN(CC)c1nc[nH+]c2c1ncn2C1CCCC1 (3D coordinates assigned)
CCN(CC)c1nc[nH+]c2c1ncn2C1CCCC1 (nonaromatic ring conformer: 79.57651572434104 kcal/mol)

>  <smiles>  (31) 
CCN(CC)c1ncnc2c1ncn2C1CCCC1

>  <score_type>  (31) 
oracle

>  <origin>  (31) 
adg

>  <m_score__min__energy>  (31) 
-6.0300000000000002

>  <m_primary>  (31) 
energy

$$$$
31:0
     RDKit          3D

 52 55  0  0  0  0  0  0  0  0999 V2000
   -7.1350   17.6310  -32.2940 C   0  0  0  0  0  0  0  0  0  0  0  0
   -7.8300   18.8380  -32.7150 N   0  0  0  0  0  0  0  0  0  0  0  0
   -8.0960   19.9670  -31.8710 C   0  0  0  0  0  0  0  0  0  0  0  0
   -8.8400   19.7990  -30.8680 O   0  0  0  0  0  0  0  0  0  0  0  0
   -7.5940   21.2890  -32.2010 N   0  0  1  0  0  0  0  0  0  0  0  0
   -8.6280   22.3240  -31.9640 C   0  0  0  0  0  0  0  0  0  0  0  0
   -7.9430   23.5340  -31.3120 C   0  0  0  0  0  0  0  0  0  0  0  0
   -6.4660   23.2180  -31.4420 C   0  0  1  0  0  0  0  0  0  0  0  0
   -5.5060   23.8240  -30.3920 C   0  0  2  0  0  0  0  0  0  0  0  0
   -5.2850   25.3210  -30.7060 C   0  0  0  0  0  0  0  0  0  0  0  0
   -3.9210   25.6360  -30.7640 O   0  0  0  0  0  0  0  0  0  0  0  0
   -4.2110   23.0910  -30.3920 N   0  0  0  0  0  0  0  0  0  0  0  0
   -3.2290   23.3730  -29.3370 C   0  0  0  0  0  0  0  0  0  0  0  0
   -3.9770   21.9660  -31.2870 C   0  0  0  0  0  0  0  0  0  0  0  0
   -2.6760   21.5720  -31.6400 C   0  0  0  0  0  0  0  0  0  0  0  0
   -2.4680   20.4730  -32.4760 C   0  0  0  0  0  0  0  0  0  0  0  0
   -3.5560   19.7360  -32.9720 C   0  0  0  0  0  0  0  0  0  0  0  0
   -3.3330   18.5620  -33.8520 C   0  0  0  0  0  0  0  0  0  0  0  0
   -2.0310   18.0730  -34.0750 C   0  0  0  0  0  0  0  0  0  0  0  0
   -1.8230   16.9650  -34.9020 C   0  0  0  0  0  0  0  0  0  0  0  0
   -2.9090   16.3290  -35.5140 C   0  0  0  0  0  0  0  0  0  0  0  0
   -2.6940   15.1860  -36.3620 C   0  0  0  0  0  0  0  0  0  0  0  0
   -2.5200   14.2670  -37.0440 N   0  0  0  0  0  0  0  0  0  0  0  0
   -4.2060   16.8070  -35.2970 C   0  0  0  0  0  0  0  0  0  0  0  0
   -4.4180   17.9160  -34.4720 C   0  0  0  0  0  0  0  0  0  0  0  0
   -4.8610   20.1260  -32.6250 C   0  0  0  0  0  0  0  0  0  0  0  0
   -5.0770   21.2490  -31.8080 C   0  0  0  0  0  0  0  0  0  0  0  0
   -6.4490   21.7080  -31.3710 C   0  0  2  0  0  0  0  0  0  0  0  0
   -7.1096   17.5869  -31.1952 H   0  0  0  0  0  0  0  0  0  0  0  0
   -7.6633   16.7486  -32.6843 H   0  0  0  0  0  0  0  0  0  0  0  0
   -6.1067   17.6450  -32.6843 H   0  0  0  0  0  0  0  0  0  0  0  0
   -7.3080   21.3340  -33.2070 H   0  0  0  0  0  0  0  0  0  0  0  0
   -9.0841   22.6225  -32.9195 H   0  0  0  0  0  0  0  0  0  0  0  0
   -9.4196   21.9321  -31.3083 H   0  0  0  0  0  0  0  0  0  0  0  0
   -8.1947   24.4626  -31.8452 H   0  0  0  0  0  0  0  0  0  0  0  0
   -8.2566   23.6933  -30.2698 H   0  0  0  0  0  0  0  0  0  0  0  0
   -6.0766   23.6714  -32.3655 H   0  0  0  0  0  0  0  0  0  0  0  0
   -5.9514   23.7285  -29.3908 H   0  0  0  0  0  0  0  0  0  0  0  0
   -5.7478   25.5552  -31.6760 H   0  0  0  0  0  0  0  0  0  0  0  0
   -5.7431   25.9145  -29.9011 H   0  0  0  0  0  0  0  0  0  0  0  0
   -3.4870   24.9170  -31.2960 H   0  0  0  0  0  0  0  0  0  0  0  0
   -3.6999   23.2378  -28.3521 H   0  0  0  0  0  0  0  0  0  0  0  0
   -2.3779   22.6830  -29.4343 H   0  0  0  0  0  0  0  0  0  0  0  0
   -2.8737   24.4095  -29.4343 H   0  0  0  0  0  0  0  0  0  0  0  0
   -1.8128   22.1344  -31.2543 H   0  0  0  0  0  0  0  0  0  0  0  0
   -1.4429   20.1818  -32.7486 H   0  0  0  0  0  0  0  0  0  0  0  0
   -1.1725   18.5659  -33.5955 H   0  0  0  0  0  0  0  0  0  0  0  0
   -0.8023   16.5919  -35.0722 H   0  0  0  0  0  0  0  0  0  0  0  0
   -5.0614   16.3089  -35.7768 H   0  0  0  0  0  0  0  0  0  0  0  0
   -5.4406   18.2859  -34.3066 H   0  0  0  0  0  0  0  0  0  0  0  0
   -5.7201   19.5477  -32.9958 H   0  0  0  0  0  0  0  0  0  0  0  0
   -6.5819   21.2539  -30.3780 H   0  0  0  0  0  0  0  0  0  0  0  0
  1  2  1  0
  2  3  1  0
  3  4  2  0
  3  5  1  0
  5  6  1  0
  6  7  1  0
  7  8  1  0
  8  9  1  0
  9 10  1  0
 10 11  1  0
  9 12  1  0
 12 13  1  0
 12 14  1  0
 14 15  2  0
 15 16  1  0
 16 17  2  0
 17 18  1  0
 18 19  2  0
 19 20  1  0
 20 21  2  0
 21 22  1  0
 22 23  3  0
 21 24  1  0
 24 25  2  0
 17 26  1  0
 26 27  2  0
 27 28  1  0
 28  5  1  0
 28  8  1  0
 27 14  1  0
 25 18  1  0
  1 29  1  0
  1 30  1  0
  1 31  1  0
  5 32  1  6
  6 33  1  0
  6 34  1  0
  7 35  1  0
  7 36  1  0
  8 37  1  6
  9 38  1  1
 10 39  1  0
 10 40  1  0
 11 41  1  0
 13 42  1  0
 13 43  1  0
 13 44  1  0
 15 45  1  0
 16 46  1  0
 19 47  1  0
 20 48  1  0
 24 49  1  0
 25 50  1  0
 26 51  1  0
 28 52  1  1
M  CHG  2   2  -1   5   1
M  END
>  <UniqueID>  (32) 
30

>  <SMILES>  (32) 
C[N-]C(=O)[N@H+]1CC[C@H]2C(CO)N(C)c3ccc(-c4ccc(C#N)cc4)cc3C21

>  <Energy>  (32) 
75.18349964445642

>  <Genealogy>  (32) 
C[N-]C(=O)[NH+]1CCC2C(CO)N(C)c3ccc(-c4ccc(C#N)cc4)cc3C21 (protonated)
C[N-]C(=O)[N@H+]1CC[C@H]2C(CO)N(C)c3ccc(-c4ccc(C#N)cc4)cc3C21 (chirality)
C[N-]C(=O)[N@H+]1CC[C@H]2C(CO)N(C)c3ccc(-c4ccc(C#N)cc4)cc3C21 (3D coordinates assigned)
C[N-]C(=O)[N@H+]1CC[C@H]2C(CO)N(C)c3ccc(-c4ccc(C#N)cc4)cc3C21 (nonaromatic ring conformer: 75.18349964445642 kcal/mol)

>  <smiles>  (32) 
CNC(=O)N1CCC2C1c1cc(-c3ccc(C#N)cc3)ccc1N(C)C2CO

>  <score_type>  (32) 
oracle

>  <origin>  (32) 
adg

>  <m_score__min__energy>  (32) 
-8.4800000000000004

>  <m_primary>  (32) 
energy

$$$$
32:0
     RDKit          3D

 51 53  0  0  0  0  0  0  0  0999 V2000
   -4.2450   24.5440  -27.3860 C   0  0  0  0  0  0  0  0  0  0  0  0
   -3.7310   24.1130  -28.6920 N   0  0  0  0  0  0  0  0  0  0  0  0
   -3.5630   22.6540  -28.7130 C   0  0  0  0  0  0  0  0  0  0  0  0
   -4.8460   24.5870  -29.9490 S   0  0  0  0  0  0  0  0  0  0  0  0
   -4.2120   25.6170  -30.8410 O   0  0  0  0  0  0  0  0  0  0  0  0
   -6.0840   25.1780  -29.3360 O   0  0  0  0  0  0  0  0  0  0  0  0
   -5.3030   23.1730  -30.8960 C   0  0  0  0  0  0  0  0  0  0  0  0
   -4.4350   22.6400  -31.8540 C   0  0  0  0  0  0  0  0  0  0  0  0
   -4.7730   21.4650  -32.5220 C   0  0  0  0  0  0  0  0  0  0  0  0
   -5.9850   20.8190  -32.2250 C   0  0  0  0  0  0  0  0  0  0  0  0
   -6.3010   19.5520  -32.8360 N   0  0  0  0  0  0  0  0  0  0  0  0
   -5.8020   19.3260  -34.2160 C   0  0  0  0  0  0  0  0  0  0  0  0
   -6.0570   17.9100  -34.7760 C   0  0  0  0  0  0  0  0  0  0  0  0
   -6.1450   16.8170  -33.6890 C   0  0  0  0  0  0  0  0  0  0  0  0
   -4.8890   16.6240  -32.8920 N   0  0  0  0  0  0  0  0  0  0  0  0
   -3.6280   16.5980  -33.6700 C   0  0  0  0  0  0  0  0  0  0  0  0
   -3.5040   15.3220  -34.5340 C   0  0  0  0  0  0  0  0  0  0  0  0
   -4.4590   14.3300  -34.1900 O   0  0  0  0  0  0  0  0  0  0  0  0
   -4.4610   14.1350  -32.7880 C   0  0  0  0  0  0  0  0  0  0  0  0
   -4.9420   15.4050  -32.0410 C   0  0  0  0  0  0  0  0  0  0  0  0
   -7.3060   17.2460  -32.7730 C   0  0  0  0  0  0  0  0  0  0  0  0
   -6.9510   18.5210  -32.0030 C   0  0  0  0  0  0  0  0  0  0  0  0
   -6.8270   21.3720  -31.2990 N   0  0  0  0  0  0  0  0  0  0  0  0
   -6.5110   22.5180  -30.6380 C   0  0  0  0  0  0  0  0  0  0  0  0
   -3.6665   24.0589  -26.5860 H   0  0  0  0  0  0  0  0  0  0  0  0
   -4.1497   25.6362  -27.2968 H   0  0  0  0  0  0  0  0  0  0  0  0
   -5.3039   24.2598  -27.2968 H   0  0  0  0  0  0  0  0  0  0  0  0
   -3.5194   22.2751  -27.6813 H   0  0  0  0  0  0  0  0  0  0  0  0
   -4.4142   22.1944  -29.2367 H   0  0  0  0  0  0  0  0  0  0  0  0
   -2.6297   22.3999  -29.2367 H   0  0  0  0  0  0  0  0  0  0  0  0
   -3.4859   23.1481  -32.0801 H   0  0  0  0  0  0  0  0  0  0  0  0
   -4.0940   21.0448  -33.2786 H   0  0  0  0  0  0  0  0  0  0  0  0
   -6.2956   20.0503  -34.8807 H   0  0  0  0  0  0  0  0  0  0  0  0
   -4.7097   19.4485  -34.1729 H   0  0  0  0  0  0  0  0  0  0  0  0
   -7.0056   17.9228  -35.3327 H   0  0  0  0  0  0  0  0  0  0  0  0
   -5.1976   17.6583  -35.4148 H   0  0  0  0  0  0  0  0  0  0  0  0
   -6.3047   15.8405  -34.1696 H   0  0  0  0  0  0  0  0  0  0  0  0
   -3.6003   17.4774  -34.3302 H   0  0  0  0  0  0  0  0  0  0  0  0
   -2.7901   16.6074  -32.9574 H   0  0  0  0  0  0  0  0  0  0  0  0
   -3.6473   15.5969  -35.5894 H   0  0  0  0  0  0  0  0  0  0  0  0
   -2.5055   14.8966  -34.3552 H   0  0  0  0  0  0  0  0  0  0  0  0
   -5.1339   13.2998  -32.5438 H   0  0  0  0  0  0  0  0  0  0  0  0
   -3.4321   13.9139  -32.4678 H   0  0  0  0  0  0  0  0  0  0  0  0
   -5.9804   15.2489  -31.7134 H   0  0  0  0  0  0  0  0  0  0  0  0
   -4.2669   15.5651  -31.1874 H   0  0  0  0  0  0  0  0  0  0  0  0
   -8.1993   17.4329  -33.3871 H   0  0  0  0  0  0  0  0  0  0  0  0
   -7.4993   16.4404  -32.0494 H   0  0  0  0  0  0  0  0  0  0  0  0
   -7.8764   18.9440  -31.5850 H   0  0  0  0  0  0  0  0  0  0  0  0
   -6.2312   18.2363  -31.2214 H   0  0  0  0  0  0  0  0  0  0  0  0
   -7.7160   20.8910  -31.0420 H   0  0  0  0  0  0  0  0  0  0  0  0
   -7.2099   22.9319  -29.8962 H   0  0  0  0  0  0  0  0  0  0  0  0
  1  2  1  0
  2  3  1  0
  2  4  1  0
  4  5  2  0
  4  6  2  0
  4  7  1  0
  7  8  2  0
  8  9  1  0
  9 10  2  0
 10 11  1  0
 11 12  1  0
 12 13  1  0
 13 14  1  0
 14 15  1  0
 15 16  1  0
 16 17  1  0
 17 18  1  0
 18 19  1  0
 19 20  1  0
 14 21  1  0
 21 22  1  0
 10 23  1  0
 23 24  2  0
 24  7  1  0
 22 11  1  0
 20 15  1  0
  1 25  1  0
  1 26  1  0
  1 27  1  0
  3 28  1  0
  3 29  1  0
  3 30  1  0
  8 31  1  0
  9 32  1  0
 12 33  1  0
 12 34  1  0
 13 35  1  0
 13 36  1  0
 14 37  1  0
 16 38  1  0
 16 39  1  0
 17 40  1  0
 17 41  1  0
 19 42  1  0
 19 43  1  0
 20 44  1  0
 20 45  1  0
 21 46  1  0
 21 47  1  0
 22 48  1  0
 22 49  1  0
 23 50  1  0
 24 51  1  0
M  CHG  1  23   1
M  END
>  <UniqueID>  (33) 
31

>  <SMILES>  (33) 
CN(C)S(=O)(=O)c1ccc(N2CCC(N3CCOCC3)CC2)[nH+]c1

>  <Energy>  (33) 
74.55348919370591

>  <Genealogy>  (33) 
CN(C)S(=O)(=O)c1ccc(N2CCC(N3CCOCC3)CC2)[nH+]c1 (protonated)
CN(C)S(=O)(=O)c1ccc(N2CCC(N3CCOCC3)CC2)[nH+]c1 (3D coordinates assigned)
CN(C)S(=O)(=O)c1ccc(N2CCC(N3CCOCC3)CC2)[nH+]c1 (nonaromatic ring conformer: 74.55348919370591 kcal/mol)

>  <smiles>  (33) 
CN(C)S(=O)(=O)c1ccc(N2CCC(N3CCOCC3)CC2)nc1

>  <score_type>  (33) 
oracle

>  <origin>  (33) 
adg

>  <m_score__min__energy>  (33) 
-7.3700000000000001

>  <m_primary>  (33) 
energy

$$$$
33:0
     RDKit          3D

 35 36  0  0  0  0  0  0  0  0999 V2000
   -2.0280   24.5230  -28.3730 C   0  0  0  0  0  0  0  0  0  0  0  0
   -3.1860   23.5290  -28.4490 C   0  0  0  0  0  0  0  0  0  0  0  0
   -4.5600   24.2130  -28.4250 C   0  0  0  0  0  0  0  0  0  0  0  0
   -5.0700   24.8000  -30.0370 S   0  0  0  0  0  0  0  0  0  0  0  0
   -6.0610   25.9230  -29.8950 O   0  0  0  0  0  0  0  0  0  0  0  0
   -3.8790   25.3000  -30.8070 O   0  0  0  0  0  0  0  0  0  0  0  0
   -5.8120   23.4680  -30.9160 C   0  0  0  0  0  0  0  0  0  0  0  0
   -7.2040   23.3100  -30.9120 C   0  0  0  0  0  0  0  0  0  0  0  0
   -7.7960   22.2620  -31.6250 C   0  0  0  0  0  0  0  0  0  0  0  0
   -6.9980   21.3550  -32.3460 C   0  0  0  0  0  0  0  0  0  0  0  0
   -7.5550   20.3010  -33.0840 O   0  0  0  0  0  0  0  0  0  0  0  0
   -6.9410   19.0650  -33.3290 C   0  0  0  0  0  0  0  0  0  0  0  0
   -7.1060   17.9660  -32.4640 C   0  0  0  0  0  0  0  0  0  0  0  0
   -6.4620   16.7540  -32.7350 C   0  0  0  0  0  0  0  0  0  0  0  0
   -5.6430   16.6330  -33.8610 C   0  0  0  0  0  0  0  0  0  0  0  0
   -5.4600   17.7270  -34.7130 C   0  0  0  0  0  0  0  0  0  0  0  0
   -6.1020   18.9390  -34.4430 C   0  0  0  0  0  0  0  0  0  0  0  0
   -5.6100   21.5360  -32.3700 C   0  0  0  0  0  0  0  0  0  0  0  0
   -5.0180   22.5840  -31.6590 C   0  0  0  0  0  0  0  0  0  0  0  0
   -1.7893   24.7279  -27.3190 H   0  0  0  0  0  0  0  0  0  0  0  0
   -1.1456   24.0968  -28.8727 H   0  0  0  0  0  0  0  0  0  0  0  0
   -2.3155   25.4598  -28.8727 H   0  0  0  0  0  0  0  0  0  0  0  0
   -3.0956   22.9549  -29.3829 H   0  0  0  0  0  0  0  0  0  0  0  0
   -3.1238   22.8799  -27.5631 H   0  0  0  0  0  0  0  0  0  0  0  0
   -5.3059   23.4908  -28.0617 H   0  0  0  0  0  0  0  0  0  0  0  0
   -4.4832   25.0879  -27.7627 H   0  0  0  0  0  0  0  0  0  0  0  0
   -7.8337   24.0124  -30.3463 H   0  0  0  0  0  0  0  0  0  0  0  0
   -8.8899   22.1467  -31.6219 H   0  0  0  0  0  0  0  0  0  0  0  0
   -7.7433   18.0609  -31.5724 H   0  0  0  0  0  0  0  0  0  0  0  0
   -6.6003   15.8955  -32.0613 H   0  0  0  0  0  0  0  0  0  0  0  0
   -5.1425   15.6776  -34.0771 H   0  0  0  0  0  0  0  0  0  0  0  0
   -4.8106   17.6336  -35.5959 H   0  0  0  0  0  0  0  0  0  0  0  0
   -5.9471   19.7997  -35.1102 H   0  0  0  0  0  0  0  0  0  0  0  0
   -4.9801   20.8480  -32.9530 H   0  0  0  0  0  0  0  0  0  0  0  0
   -3.9261   22.7151  -31.6828 H   0  0  0  0  0  0  0  0  0  0  0  0
  1  2  1  0
  2  3  1  0
  3  4  1  0
  4  5  2  0
  4  6  2  0
  4  7  1  0
  7  8  2  0
  8  9  1  0
  9 10  2  0
 10 11  1  0
 11 12  1  0
 12 13  2  0
 13 14  1  0
 14 15  2  0
 15 16  1  0
 16 17  2  0
 10 18  1  0
 18 19  2  0
 19  7  1  0
 17 12  1  0
  1 20  1  0
  1 21  1  0
  1 22  1  0
  2 23  1  0
  2 24  1  0
  3 25  1  0
  3 26  1  0
  8 27  1  0
  9 28  1  0
 13 29  1  0
 14 30  1  0
 15 31  1  0
 16 32  1  0
 17 33  1  0
 18 34  1  0
 19 35  1  0
M  END
>  <UniqueID>  (34) 
32

>  <SMILES>  (34) 
CCCS(=O)(=O)c1ccc(Oc2ccccc2)cc1

>  <Energy>  (34) 
35.758098251670454

>  <Genealogy>  (34) 
CCCS(=O)(=O)c1ccc(Oc2ccccc2)cc1 (3D coordinates assigned)
CCCS(=O)(=O)c1ccc(Oc2ccccc2)cc1 (optimized conformer: 35.758098251670454 kcal/mol)

>  <smiles>  (34) 
CCCS(=O)(=O)c1ccc(Oc2ccccc2)cc1

>  <score_type>  (34) 
oracle

>  <origin>  (34) 
adg

>  <m_score__min__energy>  (34) 
-7.9900000000000002

>  <m_primary>  (34) 
energy

$$$$
34:0
     RDKit          3D

 49 50  0  0  0  0  0  0  0  0999 V2000
   -9.4610   19.6140  -32.5470 C   0  0  0  0  0  0  0  0  0  0  0  0
   -8.2050   18.9290  -31.9860 C   0  0  0  0  0  0  0  0  0  0  0  0
   -7.2420   18.4680  -33.0190 N   0  0  0  0  0  0  0  0  0  0  0  0
   -6.5560   17.2140  -32.6350 C   0  0  0  0  0  0  0  0  0  0  0  0
   -6.3920   16.3180  -33.8580 C   0  0  0  0  0  0  0  0  0  0  0  0
   -6.2990   19.5040  -33.4980 C   0  0  0  0  0  0  0  0  0  0  0  0
   -5.1180   19.6850  -32.5420 C   0  0  0  0  0  0  0  0  0  0  0  0
   -5.2460   20.9280  -31.8600 O   0  0  0  0  0  0  0  0  0  0  0  0
   -4.8480   22.1400  -32.4300 C   0  0  0  0  0  0  0  0  0  0  0  0
   -4.1180   22.1530  -33.4610 O   0  0  0  0  0  0  0  0  0  0  0  0
   -5.3640   23.4330  -31.8450 C   0  0  1  0  0  0  0  0  0  0  0  0
   -6.7820   23.3240  -31.2860 C   0  0  0  0  0  0  0  0  0  0  0  0
   -7.8060   22.4250  -31.9210 C   0  0  0  0  0  0  0  0  0  0  0  0
   -7.1980   24.1560  -30.3770 N   0  0  0  0  0  0  0  0  0  0  0  0
   -6.3440   25.1290  -29.7750 C   0  0  0  0  0  0  0  0  0  0  0  0
   -6.8250   25.9800  -28.9800 O   0  0  0  0  0  0  0  0  0  0  0  0
   -4.9460   25.1230  -30.0630 N   0  0  0  0  0  0  0  0  0  0  0  0
   -4.3510   24.0210  -30.8170 C   0  0  1  0  0  0  0  0  0  0  0  0
   -3.7780   22.9840  -29.8610 C   0  0  0  0  0  0  0  0  0  0  0  0
   -4.3240   22.8490  -28.5720 C   0  0  0  0  0  0  0  0  0  0  0  0
   -3.7960   21.9210  -27.6700 C   0  0  0  0  0  0  0  0  0  0  0  0
   -2.7130   21.1210  -28.0410 C   0  0  0  0  0  0  0  0  0  0  0  0
   -1.9930   19.8540  -26.8070 Br  0  0  0  0  0  0  0  0  0  0  0  0
   -2.1530   21.2530  -29.3160 C   0  0  0  0  0  0  0  0  0  0  0  0
   -2.6780   22.1810  -30.2200 C   0  0  0  0  0  0  0  0  0  0  0  0
  -10.0931   19.9587  -31.7153 H   0  0  0  0  0  0  0  0  0  0  0  0
   -9.1645   20.4753  -33.1636 H   0  0  0  0  0  0  0  0  0  0  0  0
  -10.0245   18.8983  -33.1636 H   0  0  0  0  0  0  0  0  0  0  0  0
   -7.6881   19.6439  -31.3289 H   0  0  0  0  0  0  0  0  0  0  0  0
   -8.5496   18.0292  -31.4554 H   0  0  0  0  0  0  0  0  0  0  0  0
   -5.5649   17.4521  -32.2215 H   0  0  0  0  0  0  0  0  0  0  0  0
   -7.1575   16.6886  -31.8786 H   0  0  0  0  0  0  0  0  0  0  0  0
   -6.2028   15.2844  -33.5326 H   0  0  0  0  0  0  0  0  0  0  0  0
   -7.3109   16.3499  -34.4618 H   0  0  0  0  0  0  0  0  0  0  0  0
   -5.5440   16.6733  -34.4618 H   0  0  0  0  0  0  0  0  0  0  0  0
   -5.9154   19.2069  -34.4852 H   0  0  0  0  0  0  0  0  0  0  0  0
   -6.8415   20.4592  -33.5550 H   0  0  0  0  0  0  0  0  0  0  0  0
   -5.1098   18.8641  -31.8098 H   0  0  0  0  0  0  0  0  0  0  0  0
   -4.1784   19.6755  -33.1139 H   0  0  0  0  0  0  0  0  0  0  0  0
   -5.4470   24.1494  -32.6756 H   0  0  0  0  0  0  0  0  0  0  0  0
   -8.3850   21.9167  -31.1358 H   0  0  0  0  0  0  0  0  0  0  0  0
   -8.4837   23.0252  -32.5459 H   0  0  0  0  0  0  0  0  0  0  0  0
   -7.2986   21.6753  -32.5459 H   0  0  0  0  0  0  0  0  0  0  0  0
   -4.3220   25.8230  -29.6010 H   0  0  0  0  0  0  0  0  0  0  0  0
   -3.5089   24.3979  -31.4160 H   0  0  0  0  0  0  0  0  0  0  0  0
   -5.1739   23.4792  -28.2711 H   0  0  0  0  0  0  0  0  0  0  0  0
   -4.2343   21.8206  -26.6661 H   0  0  0  0  0  0  0  0  0  0  0  0
   -1.2980   20.6254  -29.6078 H   0  0  0  0  0  0  0  0  0  0  0  0
   -2.2289   22.2848  -31.2188 H   0  0  0  0  0  0  0  0  0  0  0  0
  1  2  1  0
  2  3  1  0
  3  4  1  0
  4  5  1  0
  3  6  1  0
  6  7  1  0
  7  8  1  0
  8  9  1  0
  9 10  2  0
  9 11  1  0
 11 12  1  0
 12 13  1  0
 12 14  2  0
 14 15  1  0
 15 16  2  0
 15 17  1  0
 17 18  1  0
 18 19  1  0
 19 20  2  0
 20 21  1  0
 21 22  2  0
 22 23  1  0
 22 24  1  0
 24 25  2  0
 18 11  1  0
 25 19  1  0
  1 26  1  0
  1 27  1  0
  1 28  1  0
  2 29  1  0
  2 30  1  0
  4 31  1  0
  4 32  1  0
  5 33  1  0
  5 34  1  0
  5 35  1  0
  6 36  1  0
  6 37  1  0
  7 38  1  0
  7 39  1  0
 11 40  1  6
 13 41  1  0
 13 42  1  0
 13 43  1  0
 17 44  1  0
 18 45  1  6
 20 46  1  0
 21 47  1  0
 24 48  1  0
 25 49  1  0
M  END
>  <UniqueID>  (35) 
33

>  <SMILES>  (35) 
CCN(CC)CCOC(=O)[C@H]1C(C)=NC(=O)N[C@H]1c1ccc(Br)cc1

>  <Energy>  (35) 
48.46791778720548

>  <Genealogy>  (35) 
CCN(CC)CCOC(=O)[C@H]1C(C)=NC(=O)N[C@H]1c1ccc(Br)cc1 (chirality)
CCN(CC)CCOC(=O)[C@H]1C(C)=NC(=O)N[C@H]1c1ccc(Br)cc1 (3D coordinates assigned)
CCN(CC)CCOC(=O)[C@H]1C(C)=NC(=O)N[C@H]1c1ccc(Br)cc1 (nonaromatic ring conformer: 48.46791778720548 kcal/mol)

>  <smiles>  (35) 
CCN(CC)CCOC(=O)C1C(C)=NC(=O)NC1c1ccc(Br)cc1

>  <score_type>  (35) 
oracle

>  <origin>  (35) 
adg

>  <m_score__min__energy>  (35) 
-7.7699999999999996

>  <m_primary>  (35) 
energy

$$$$
35:0
     RDKit          3D

 32 33  0  0  0  0  0  0  0  0999 V2000
   -8.7260   19.2570  -31.8260 C   0  0  0  0  0  0  0  0  0  0  0  0
   -8.4500   20.4360  -32.5770 O   0  0  0  0  0  0  0  0  0  0  0  0
   -7.6160   21.4820  -32.1480 C   0  0  0  0  0  0  0  0  0  0  0  0
   -8.1320   22.5990  -31.4630 C   0  0  0  0  0  0  0  0  0  0  0  0
   -7.2960   23.6520  -31.0900 C   0  0  0  0  0  0  0  0  0  0  0  0
   -5.9260   23.6200  -31.3950 C   0  0  0  0  0  0  0  0  0  0  0  0
   -5.0640   24.7090  -31.0180 N   0  0  0  0  0  0  0  0  0  0  0  0
   -3.8410   24.5240  -30.8430 O   0  0  0  0  0  0  0  0  0  0  0  0
   -5.5730   25.9760  -30.8410 O   0  0  0  0  0  0  0  0  0  0  0  0
   -5.4070   22.5040  -32.0710 C   0  0  0  0  0  0  0  0  0  0  0  0
   -6.2350   21.4280  -32.4340 C   0  0  0  0  0  0  0  0  0  0  0  0
   -5.6400   20.2650  -33.1340 C   0  0  0  0  0  0  0  0  0  0  0  0
   -4.4770   19.8850  -32.8260 O   0  0  0  0  0  0  0  0  0  0  0  0
   -6.3820   19.5480  -34.1320 N   0  0  0  0  0  0  0  0  0  0  0  0
   -5.7430   18.5450  -34.9800 C   0  0  0  0  0  0  0  0  0  0  0  0
   -5.3650   17.3410  -34.1760 C   0  0  0  0  0  0  0  0  0  0  0  0
   -5.9770   16.9270  -33.0110 C   0  0  0  0  0  0  0  0  0  0  0  0
   -5.2860   15.8030  -32.6100 C   0  0  0  0  0  0  0  0  0  0  0  0
   -4.2960   15.6050  -33.5520 C   0  0  0  0  0  0  0  0  0  0  0  0
   -4.3680   16.5400  -34.4720 O   0  0  0  0  0  0  0  0  0  0  0  0
   -8.6724   19.4858  -30.7514 H   0  0  0  0  0  0  0  0  0  0  0  0
   -9.7338   18.8922  -32.0734 H   0  0  0  0  0  0  0  0  0  0  0  0
   -7.9848   18.4828  -32.0734 H   0  0  0  0  0  0  0  0  0  0  0  0
   -9.2039   22.6417  -31.2198 H   0  0  0  0  0  0  0  0  0  0  0  0
   -7.7143   24.5154  -30.5519 H   0  0  0  0  0  0  0  0  0  0  0  0
   -4.3361   22.4715  -32.3202 H   0  0  0  0  0  0  0  0  0  0  0  0
   -7.4090   19.7240  -34.2220 H   0  0  0  0  0  0  0  0  0  0  0  0
   -6.4420   18.2446  -35.7745 H   0  0  0  0  0  0  0  0  0  0  0  0
   -4.8326   18.9790  -35.4191 H   0  0  0  0  0  0  0  0  0  0  0  0
   -6.8358   17.3951  -32.5077 H   0  0  0  0  0  0  0  0  0  0  0  0
   -5.4836   15.1882  -31.7195 H   0  0  0  0  0  0  0  0  0  0  0  0
   -3.5591   14.7885  -33.5347 H   0  0  0  0  0  0  0  0  0  0  0  0
  1  2  1  0
  2  3  1  0
  3  4  2  0
  4  5  1  0
  5  6  2  0
  6  7  1  0
  7  8  2  0
  7  9  1  0
  6 10  1  0
 10 11  2  0
 11 12  1  0
 12 13  2  0
 12 14  1  0
 14 15  1  0
 15 16  1  0
 16 17  2  0
 17 18  1  0
 18 19  2  0
 19 20  1  0
 11  3  1  0
 20 16  1  0
  1 21  1  0
  1 22  1  0
  1 23  1  0
  4 24  1  0
  5 25  1  0
 10 26  1  0
 14 27  1  0
 15 28  1  0
 15 29  1  0
 17 30  1  0
 18 31  1  0
 19 32  1  0
M  CHG  2   7   1   9  -1
M  END
>  <UniqueID>  (36) 
34

>  <SMILES>  (36) 
COc1ccc([N+](=O)[O-])cc1C(=O)NCc1ccco1

>  <Energy>  (36) 
60.32624953293659

>  <Genealogy>  (36) 
COc1ccc([N+](=O)[O-])cc1C(=O)NCc1ccco1 (3D coordinates assigned)
COc1ccc([N+](=O)[O-])cc1C(=O)NCc1ccco1 (optimized conformer: 60.32624953293659 kcal/mol)

>  <smiles>  (36) 
COc1ccc([N+](=O)[O-])cc1C(=O)NCc1ccco1

>  <score_type>  (36) 
oracle

>  <origin>  (36) 
adg

>  <m_score__min__energy>  (36) 
-7.1100000000000003

>  <m_primary>  (36) 
energy

$$$$
36:0
     RDKit          3D

 42 45  0  0  0  0  0  0  0  0999 V2000
   -0.9060   26.6030  -24.0180 C   0  0  0  0  0  0  0  0  0  0  0  0
   -1.3740   26.9690  -25.3110 O   0  0  0  0  0  0  0  0  0  0  0  0
   -1.7420   26.0540  -26.3080 C   0  0  0  0  0  0  0  0  0  0  0  0
   -0.9860   25.8690  -27.4810 C   0  0  0  0  0  0  0  0  0  0  0  0
   -1.3950   24.9450  -28.4460 C   0  0  0  0  0  0  0  0  0  0  0  0
   -2.5720   24.2040  -28.2680 C   0  0  0  0  0  0  0  0  0  0  0  0
   -2.9580   23.2430  -29.2660 N   0  0  0  0  0  0  0  0  0  0  0  0
   -3.6970   23.5700  -30.4550 C   0  0  0  0  0  0  0  0  0  0  0  0
   -3.8700   24.7760  -30.7860 O   0  0  0  0  0  0  0  0  0  0  0  0
   -4.1990   22.4960  -31.3400 C   0  0  0  0  0  0  0  0  0  0  0  0
   -5.5790   22.2450  -31.3690 C   0  0  0  0  0  0  0  0  0  0  0  0
   -6.0890   21.2050  -32.1570 C   0  0  0  0  0  0  0  0  0  0  0  0
   -7.5350   20.9260  -32.1870 C   0  0  0  0  0  0  0  0  0  0  0  0
   -8.1210   19.7270  -32.5500 C   0  0  0  0  0  0  0  0  0  0  0  0
   -9.4800   19.9260  -32.4290 C   0  0  0  0  0  0  0  0  0  0  0  0
   -9.6410   21.2290  -32.0020 C   0  0  0  0  0  0  0  0  0  0  0  0
   -8.4650   21.7980  -31.8670 O   0  0  0  0  0  0  0  0  0  0  0  0
   -5.2410   20.4420  -32.8960 N   0  0  0  0  0  0  0  0  0  0  0  0
   -3.9000   20.6540  -32.9060 C   0  0  0  0  0  0  0  0  0  0  0  0
   -3.0810   19.8400  -33.6980 C   0  0  0  0  0  0  0  0  0  0  0  0
   -1.7040   20.0600  -33.7400 C   0  0  0  0  0  0  0  0  0  0  0  0
   -1.1370   21.0990  -32.9980 C   0  0  0  0  0  0  0  0  0  0  0  0
   -1.9430   21.9170  -32.2020 C   0  0  0  0  0  0  0  0  0  0  0  0
   -3.3360   21.6980  -32.1310 C   0  0  0  0  0  0  0  0  0  0  0  0
   -3.3150   24.3720  -27.0870 C   0  0  0  0  0  0  0  0  0  0  0  0
   -2.9040   25.2960  -26.1210 C   0  0  0  0  0  0  0  0  0  0  0  0
   -1.5277   27.0892  -23.2518 H   0  0  0  0  0  0  0  0  0  0  0  0
   -0.9675   25.5109  -23.9013 H   0  0  0  0  0  0  0  0  0  0  0  0
    0.1390   26.9259  -23.9013 H   0  0  0  0  0  0  0  0  0  0  0  0
   -0.0685   26.4549  -27.6387 H   0  0  0  0  0  0  0  0  0  0  0  0
   -0.7891   24.7978  -29.3522 H   0  0  0  0  0  0  0  0  0  0  0  0
   -2.6310   22.2580  -29.1410 H   0  0  0  0  0  0  0  0  0  0  0  0
   -6.2623   22.8664  -30.7715 H   0  0  0  0  0  0  0  0  0  0  0  0
   -7.6096   18.8067  -32.8687 H   0  0  0  0  0  0  0  0  0  0  0  0
  -10.2757   19.1940  -32.6318 H   0  0  0  0  0  0  0  0  0  0  0  0
  -10.6072   21.7164  -31.8048 H   0  0  0  0  0  0  0  0  0  0  0  0
   -3.5245   19.0249  -34.2887 H   0  0  0  0  0  0  0  0  0  0  0  0
   -1.0635   19.4141  -34.3586 H   0  0  0  0  0  0  0  0  0  0  0  0
   -0.0518   21.2738  -33.0406 H   0  0  0  0  0  0  0  0  0  0  0  0
   -1.4891   22.7373  -31.6266 H   0  0  0  0  0  0  0  0  0  0  0  0
   -4.2235   23.7743  -26.9217 H   0  0  0  0  0  0  0  0  0  0  0  0
   -3.4994   25.4284  -25.2056 H   0  0  0  0  0  0  0  0  0  0  0  0
  1  2  1  0
  2  3  1  0
  3  4  2  0
  4  5  1  0
  5  6  2  0
  6  7  1  0
  7  8  1  0
  8  9  2  0
  8 10  1  0
 10 11  2  0
 11 12  1  0
 12 13  1  0
 13 14  2  0
 14 15  1  0
 15 16  2  0
 16 17  1  0
 12 18  2  0
 18 19  1  0
 19 20  2  0
 20 21  1  0
 21 22  2  0
 22 23  1  0
 23 24  2  0
  6 25  1  0
 25 26  2  0
 26  3  1  0
 24 10  1  0
 17 13  1  0
 24 19  1  0
  1 27  1  0
  1 28  1  0
  1 29  1  0
  4 30  1  0
  5 31  1  0
  7 32  1  0
 11 33  1  0
 14 34  1  0
 15 35  1  0
 16 36  1  0
 20 37  1  0
 21 38  1  0
 22 39  1  0
 23 40  1  0
 25 41  1  0
 26 42  1  0
M  END
>  <UniqueID>  (37) 
35

>  <SMILES>  (37) 
COc1ccc(NC(=O)c2cc(-c3ccco3)nc3ccccc23)cc1

>  <Energy>  (37) 
85.44243539768797

>  <Genealogy>  (37) 
COc1ccc(NC(=O)c2cc(-c3ccco3)nc3ccccc23)cc1 (3D coordinates assigned)
COc1ccc(NC(=O)c2cc(-c3ccco3)nc3ccccc23)cc1 (optimized conformer: 85.44243539768797 kcal/mol)

>  <smiles>  (37) 
COc1ccc(NC(=O)c2cc(-c3ccco3)nc3ccccc23)cc1

>  <score_type>  (37) 
oracle

>  <origin>  (37) 
adg

>  <m_score__min__energy>  (37) 
-8.2799999999999994

>  <m_primary>  (37) 
energy

$$$$
37:0
     RDKit          3D

 60 65  0  0  0  0  0  0  0  0999 V2000
   -7.8870   18.5380  -31.9480 C   0  0  0  0  0  0  0  0  0  0  0  0
   -8.0710   19.7940  -32.3940 C   0  0  0  0  0  0  0  0  0  0  0  0
   -7.2100   20.4120  -33.4790 C   0  0  0  0  0  0  0  0  0  0  0  0
   -5.7850   20.4200  -33.0930 N   0  0  0  0  0  0  0  0  0  0  0  0
   -4.9360   19.3890  -33.6480 C   0  0  0  0  0  0  0  0  0  0  0  0
   -3.6730   19.2710  -33.2470 C   0  0  0  0  0  0  0  0  0  0  0  0
   -2.6430   18.4330  -33.8000 C   0  0  0  0  0  0  0  0  0  0  0  0
   -2.8540   17.4570  -34.5680 O   0  0  0  0  0  0  0  0  0  0  0  0
   -1.3130   18.8530  -33.2480 C   0  0  2  0  0  0  0  0  0  0  0  0
   -0.6210   17.6830  -32.5080 C   0  0  0  0  0  0  0  0  0  0  0  0
   -1.7310   19.9480  -32.2820 C   0  0  0  0  0  0  0  0  0  0  0  0
   -3.0720   20.1430  -32.2650 C   0  0  0  0  0  0  0  0  0  0  0  0
   -3.9160   21.1940  -31.6280 C   0  0  0  0  0  0  0  0  0  0  0  0
   -3.5440   21.9000  -30.4640 C   0  0  0  0  0  0  0  0  0  0  0  0
   -4.3060   22.9820  -30.0280 C   0  0  0  0  0  0  0  0  0  0  0  0
   -5.4950   23.3100  -30.6840 C   0  0  0  0  0  0  0  0  0  0  0  0
   -6.5190   24.8130  -30.0930 Br  0  0  0  0  0  0  0  0  0  0  0  0
   -5.9490   22.5260  -31.7510 C   0  0  0  0  0  0  0  0  0  0  0  0
   -5.2180   21.3980  -32.1690 C   0  0  0  0  0  0  0  0  0  0  0  0
   -0.6500   20.8560  -31.7810 C   0  0  0  0  0  0  0  0  0  0  0  0
    0.0230   21.5350  -32.9690 C   0  0  0  0  0  0  0  0  0  0  0  0
    0.2310   20.6300  -34.1790 C   0  0  0  0  0  0  0  0  0  0  0  0
   -0.3940   19.4180  -34.3420 C   0  0  0  0  0  0  0  0  0  0  0  0
   -0.1190   18.5470  -35.5900 C   0  0  0  0  0  0  0  0  0  0  0  0
    0.9840   19.0510  -36.5820 C   0  0  0  0  0  0  0  0  0  0  0  0
    1.9200   20.0680  -35.9180 C   0  0  1  0  0  0  0  0  0  0  0  0
    2.8370   19.3810  -34.8640 C   0  0  0  0  0  0  0  0  0  0  0  0
    2.7800   20.8870  -36.8310 C   0  0  0  0  0  0  0  0  0  0  0  0
    3.4150   20.4160  -37.7640 O   0  0  0  0  0  0  0  0  0  0  0  0
    2.8200   22.3350  -36.4600 C   0  0  0  0  0  0  0  0  0  0  0  0
    1.9290   22.3990  -35.2080 C   0  0  0  0  0  0  0  0  0  0  0  0
    1.0230   21.1640  -35.3450 C   0  0  2  0  0  0  0  0  0  0  0  0
   -8.5378   18.1338  -31.1586 H   0  0  0  0  0  0  0  0  0  0  0  0
   -7.0858   17.9154  -32.3727 H   0  0  0  0  0  0  0  0  0  0  0  0
   -8.8787   20.3972  -31.9538 H   0  0  0  0  0  0  0  0  0  0  0  0
   -7.3273   19.8296  -34.4048 H   0  0  0  0  0  0  0  0  0  0  0  0
   -7.5348   21.4520  -33.6299 H   0  0  0  0  0  0  0  0  0  0  0  0
   -5.3365   18.6991  -34.4054 H   0  0  0  0  0  0  0  0  0  0  0  0
   -0.7095   17.8326  -31.4218 H   0  0  0  0  0  0  0  0  0  0  0  0
   -1.1039   16.7352  -32.7881 H   0  0  0  0  0  0  0  0  0  0  0  0
    0.4422   17.6496  -32.7881 H   0  0  0  0  0  0  0  0  0  0  0  0
   -2.6503   21.5954  -29.8996 H   0  0  0  0  0  0  0  0  0  0  0  0
   -3.9711   23.5784  -29.1665 H   0  0  0  0  0  0  0  0  0  0  0  0
   -6.8834   22.7932  -32.2664 H   0  0  0  0  0  0  0  0  0  0  0  0
   -1.0870   21.6189  -31.1199 H   0  0  0  0  0  0  0  0  0  0  0  0
    0.0933   20.2717  -31.2188 H   0  0  0  0  0  0  0  0  0  0  0  0
   -0.6027   22.3849  -33.2789 H   0  0  0  0  0  0  0  0  0  0  0  0
    1.0241   21.8397  -32.6299 H   0  0  0  0  0  0  0  0  0  0  0  0
    0.1824   17.5493  -35.2381 H   0  0  0  0  0  0  0  0  0  0  0  0
   -1.0549   18.5728  -36.1674 H   0  0  0  0  0  0  0  0  0  0  0  0
    1.5773   18.1899  -36.9233 H   0  0  0  0  0  0  0  0  0  0  0  0
    0.4848   19.5452  -37.4285 H   0  0  0  0  0  0  0  0  0  0  0  0
    2.4911   19.6402  -33.8525 H   0  0  0  0  0  0  0  0  0  0  0  0
    2.7954   18.2899  -34.9974 H   0  0  0  0  0  0  0  0  0  0  0  0
    3.8724   19.7275  -34.9974 H   0  0  0  0  0  0  0  0  0  0  0  0
    3.8469   22.6557  -36.2307 H   0  0  0  0  0  0  0  0  0  0  0  0
    2.4781   22.9981  -37.2684 H   0  0  0  0  0  0  0  0  0  0  0  0
    2.5348   22.3419  -34.2916 H   0  0  0  0  0  0  0  0  0  0  0  0
    1.3621   23.3388  -35.1346 H   0  0  0  0  0  0  0  0  0  0  0  0
    0.1871   21.5089  -35.9713 H   0  0  0  0  0  0  0  0  0  0  0  0
  1  2  2  0
  2  3  1  0
  3  4  1  0
  4  5  1  0
  5  6  2  0
  6  7  1  0
  7  8  2  0
  7  9  1  0
  9 10  1  1
  9 11  1  0
 11 12  2  0
 12 13  1  0
 13 14  2  0
 14 15  1  0
 15 16  2  0
 16 17  1  0
 16 18  1  0
 18 19  2  0
 11 20  1  0
 20 21  1  0
 21 22  1  0
 22 23  2  0
 23 24  1  0
 24 25  1  0
 25 26  1  0
 26 27  1  1
 26 28  1  0
 28 29  2  0
 28 30  1  0
 30 31  1  0
 31 32  1  0
 19  4  1  0
 32 22  1  0
 12  6  1  0
 19 13  1  0
 32 26  1  0
 23  9  1  0
  1 33  1  0
  1 34  1  0
  2 35  1  0
  3 36  1  0
  3 37  1  0
  5 38  1  0
 10 39  1  0
 10 40  1  0
 10 41  1  0
 14 42  1  0
 15 43  1  0
 18 44  1  0
 20 45  1  0
 20 46  1  0
 21 47  1  0
 21 48  1  0
 24 49  1  0
 24 50  1  0
 25 51  1  0
 25 52  1  0
 27 53  1  0
 27 54  1  0
 27 55  1  0
 30 56  1  0
 30 57  1  0
 31 58  1  0
 31 59  1  0
 32 60  1  6
M  END
>  <UniqueID>  (38) 
36

>  <SMILES>  (38) 
C=CCN1C=C2C(=O)[C@]3(C)C(=C2c2ccc(Br)cc21)CCC1=C3CC[C@@]2(C)C(=O)CCC12

>  <Energy>  (38) 
120.68107519175071

>  <Genealogy>  (38) 
C=CCN1C=C2C(=O)[C@]3(C)C(=C2c2ccc(Br)cc21)CCC1=C3CC[C@@]2(C)C(=O)CCC12 (chirality)
C=CCN1C=C2C(=O)[C@]3(C)C(=C2c2ccc(Br)cc21)CCC1=C3CC[C@@]2(C)C(=O)CCC12 (3D coordinates assigned)
C=CCN1C=C2C(=O)[C@]3(C)C(=C2c2ccc(Br)cc21)CCC1=C3CC[C@@]2(C)C(=O)CCC12 (nonaromatic ring conformer: 120.68107519175071 kcal/mol)

>  <smiles>  (38) 
C=CCN1C=C2C(=O)C3(C)C(=C2c2ccc(Br)cc21)CCC1=C3CCC2(C)C(=O)CCC12

>  <score_type>  (38) 
oracle

>  <origin>  (38) 
adg

>  <m_score__min__energy>  (38) 
-10.58

>  <m_primary>  (38) 
energy

$$$$
38:0
     RDKit          3D

 41 43  0  0  0  0  0  0  0  0999 V2000
   -0.2850   26.9910  -23.7470 C   0  0  0  0  0  0  0  0  0  0  0  0
   -0.8620   25.9490  -24.6580 C   0  0  0  0  0  0  0  0  0  0  0  0
   -1.9810   26.2440  -25.4520 C   0  0  0  0  0  0  0  0  0  0  0  0
   -2.4940   25.2840  -26.3300 C   0  0  0  0  0  0  0  0  0  0  0  0
   -1.8850   24.0280  -26.4320 C   0  0  0  0  0  0  0  0  0  0  0  0
   -2.5450   22.7980  -27.5580 S   0  0  0  0  0  0  0  0  0  0  0  0
   -3.6250   23.9890  -28.4180 C   0  0  0  0  0  0  0  0  0  0  0  0
   -2.9030   24.5590  -29.6360 C   0  0  0  0  0  0  0  0  0  0  0  0
   -3.8350   25.2960  -30.4830 N   0  0  0  0  0  0  0  0  0  0  0  0
   -5.2480   25.0570  -30.5080 C   0  0  0  0  0  0  0  0  0  0  0  0
   -6.0360   25.9200  -30.0300 O   0  0  0  0  0  0  0  0  0  0  0  0
   -5.7830   23.8070  -31.0970 C   0  0  0  0  0  0  0  0  0  0  0  0
   -4.9290   22.9110  -31.7660 C   0  0  0  0  0  0  0  0  0  0  0  0
   -5.4290   21.7310  -32.3230 C   0  0  0  0  0  0  0  0  0  0  0  0
   -6.7920   21.4230  -32.2200 C   0  0  0  0  0  0  0  0  0  0  0  0
   -7.3030   20.2400  -32.7760 C   0  0  0  0  0  0  0  0  0  0  0  0
   -8.6650   19.9450  -32.6670 C   0  0  0  0  0  0  0  0  0  0  0  0
   -9.5240   20.8260  -32.0060 C   0  0  0  0  0  0  0  0  0  0  0  0
   -9.0280   22.0080  -31.4480 C   0  0  0  0  0  0  0  0  0  0  0  0
   -7.6630   22.3160  -31.5500 C   0  0  0  0  0  0  0  0  0  0  0  0
   -7.1520   23.4990  -30.9940 C   0  0  0  0  0  0  0  0  0  0  0  0
   -0.7620   23.7330  -25.6520 C   0  0  0  0  0  0  0  0  0  0  0  0
   -0.2460   24.6920  -24.7740 C   0  0  0  0  0  0  0  0  0  0  0  0
   -0.4491   26.6946  -22.7005 H   0  0  0  0  0  0  0  0  0  0  0  0
    0.7944   27.0863  -23.9361 H   0  0  0  0  0  0  0  0  0  0  0  0
   -0.7770   27.9565  -23.9361 H   0  0  0  0  0  0  0  0  0  0  0  0
   -2.4562   27.2337  -25.3835 H   0  0  0  0  0  0  0  0  0  0  0  0
   -3.3781   25.5165  -26.9418 H   0  0  0  0  0  0  0  0  0  0  0  0
   -4.5436   23.4791  -28.7440 H   0  0  0  0  0  0  0  0  0  0  0  0
   -3.8792   24.8094  -27.7307 H   0  0  0  0  0  0  0  0  0  0  0  0
   -2.1053   25.2375  -29.2994 H   0  0  0  0  0  0  0  0  0  0  0  0
   -2.4743   23.7289  -30.2166 H   0  0  0  0  0  0  0  0  0  0  0  0
   -3.8569   23.1417  -31.8514 H   0  0  0  0  0  0  0  0  0  0  0  0
   -4.7496   21.0409  -32.8446 H   0  0  0  0  0  0  0  0  0  0  0  0
   -6.6305   19.5437  -33.2985 H   0  0  0  0  0  0  0  0  0  0  0  0
   -9.0615   19.0162  -33.1031 H   0  0  0  0  0  0  0  0  0  0  0  0
  -10.5950   20.5889  -31.9242 H   0  0  0  0  0  0  0  0  0  0  0  0
   -9.7091   22.6978  -30.9281 H   0  0  0  0  0  0  0  0  0  0  0  0
   -7.8284   24.1922  -30.4726 H   0  0  0  0  0  0  0  0  0  0  0  0
   -0.2839   22.7454  -25.7291 H   0  0  0  0  0  0  0  0  0  0  0  0
    0.6454   24.4609  -24.1723 H   0  0  0  0  0  0  0  0  0  0  0  0
  1  2  1  0
  2  3  2  0
  3  4  1  0
  4  5  2  0
  5  6  1  0
  6  7  1  0
  7  8  1  0
  8  9  1  0
  9 10  1  0
 10 11  2  0
 10 12  1  0
 12 13  2  0
 13 14  1  0
 14 15  2  0
 15 16  1  0
 16 17  2  0
 17 18  1  0
 18 19  2  0
 19 20  1  0
 20 21  2  0
  5 22  1  0
 22 23  2  0
 23  2  1  0
 21 12  1  0
 20 15  1  0
  1 24  1  0
  1 25  1  0
  1 26  1  0
  3 27  1  0
  4 28  1  0
  7 29  1  0
  7 30  1  0
  8 31  1  0
  8 32  1  0
 13 33  1  0
 14 34  1  0
 16 35  1  0
 17 36  1  0
 18 37  1  0
 19 38  1  0
 21 39  1  0
 22 40  1  0
 23 41  1  0
M  CHG  1   9  -1
M  END
>  <UniqueID>  (39) 
37

>  <SMILES>  (39) 
Cc1ccc(SCC[N-]C(=O)c2ccc3ccccc3c2)cc1

>  <Energy>  (39) 
38.40797025908171

>  <Genealogy>  (39) 
Cc1ccc(SCC[N-]C(=O)c2ccc3ccccc3c2)cc1 (protonated)
Cc1ccc(SCC[N-]C(=O)c2ccc3ccccc3c2)cc1 (3D coordinates assigned)
Cc1ccc(SCC[N-]C(=O)c2ccc3ccccc3c2)cc1 (optimized conformer: 38.40797025908171 kcal/mol)

>  <smiles>  (39) 
Cc1ccc(SCCNC(=O)c2ccc3ccccc3c2)cc1

>  <score_type>  (39) 
oracle

>  <origin>  (39) 
adg

>  <m_score__min__energy>  (39) 
-10.85

>  <m_primary>  (39) 
energy

$$$$
39:0
     RDKit          3D

 33 35  0  0  0  0  0  0  0  0999 V2000
   -6.1110   25.5970  -29.0260 N   0  0  0  0  0  0  0  0  0  0  0  0
   -6.5680   24.9440  -30.2470 C   0  0  0  0  0  0  0  0  0  0  0  0
   -5.5130   24.0020  -30.7490 C   0  0  0  0  0  0  0  0  0  0  0  0
   -4.2720   23.9540  -30.1960 N   0  0  0  0  0  0  0  0  0  0  0  0
   -3.6390   23.0460  -30.9590 C   0  0  0  0  0  0  0  0  0  0  0  0
   -2.3300   22.5940  -30.8420 C   0  0  0  0  0  0  0  0  0  0  0  0
   -1.8880   21.6590  -31.7360 N   0  0  0  0  0  0  0  0  0  0  0  0
   -2.6990   21.1710  -32.7300 C   0  0  0  0  0  0  0  0  0  0  0  0
   -4.0250   21.6230  -32.8580 C   0  0  0  0  0  0  0  0  0  0  0  0
   -4.4600   22.5760  -31.9360 C   0  0  0  0  0  0  0  0  0  0  0  0
   -5.6590   23.1800  -31.8270 N   0  0  0  0  0  0  0  0  0  0  0  0
   -6.8570   22.9610  -32.6440 C   0  0  0  0  0  0  0  0  0  0  0  0
   -7.4660   21.6140  -32.3480 C   0  0  0  0  0  0  0  0  0  0  0  0
   -8.5480   21.5020  -31.4580 C   0  0  0  0  0  0  0  0  0  0  0  0
   -9.1110   20.2500  -31.1880 C   0  0  0  0  0  0  0  0  0  0  0  0
   -8.6040   19.1050  -31.8070 C   0  0  0  0  0  0  0  0  0  0  0  0
   -7.5350   19.2090  -32.7000 C   0  0  0  0  0  0  0  0  0  0  0  0
   -6.9680   20.4570  -32.9730 C   0  0  0  0  0  0  0  0  0  0  0  0
   -5.0680   25.6580  -29.0700 H   0  0  0  0  0  0  0  0  0  0  0  0
   -6.3350   24.9740  -28.2150 H   0  0  0  0  0  0  0  0  0  0  0  0
   -7.4892   24.3809  -30.0365 H   0  0  0  0  0  0  0  0  0  0  0  0
   -6.7655   25.7077  -31.0136 H   0  0  0  0  0  0  0  0  0  0  0  0
   -1.6679   22.9780  -30.0519 H   0  0  0  0  0  0  0  0  0  0  0  0
   -0.9080   21.3080  -31.6610 H   0  0  0  0  0  0  0  0  0  0  0  0
   -2.3087   20.4200  -33.4326 H   0  0  0  0  0  0  0  0  0  0  0  0
   -4.6886   21.2427  -33.6486 H   0  0  0  0  0  0  0  0  0  0  0  0
   -7.5939   23.7469  -32.4220 H   0  0  0  0  0  0  0  0  0  0  0  0
   -6.5714   22.9940  -33.7058 H   0  0  0  0  0  0  0  0  0  0  0  0
   -8.9535   22.4017  -30.9721 H   0  0  0  0  0  0  0  0  0  0  0  0
   -9.9546   20.1671  -30.4869 H   0  0  0  0  0  0  0  0  0  0  0  0
   -9.0466   18.1214  -31.5912 H   0  0  0  0  0  0  0  0  0  0  0  0
   -7.1387   18.3071  -33.1893 H   0  0  0  0  0  0  0  0  0  0  0  0
   -6.1287   20.5344  -33.6798 H   0  0  0  0  0  0  0  0  0  0  0  0
  1  2  1  0
  2  3  1  0
  3  4  2  0
  4  5  1  0
  5  6  2  0
  6  7  1  0
  7  8  2  0
  8  9  1  0
  9 10  2  0
 10 11  1  0
 11 12  1  0
 12 13  1  0
 13 14  2  0
 14 15  1  0
 15 16  2  0
 16 17  1  0
 17 18  2  0
 11  3  1  0
 18 13  1  0
 10  5  1  0
  1 19  1  0
  1 20  1  0
  2 21  1  0
  2 22  1  0
  6 23  1  0
  7 24  1  0
  8 25  1  0
  9 26  1  0
 12 27  1  0
 12 28  1  0
 14 29  1  0
 15 30  1  0
 16 31  1  0
 17 32  1  0
 18 33  1  0
M  CHG  1   7   1
M  END
>  <UniqueID>  (40) 
38

>  <SMILES>  (40) 
NCc1nc2c[nH+]ccc2n1Cc1ccccc1

>  <Energy>  (40) 
70.32573533134956

>  <Genealogy>  (40) 
NCc1nc2c[nH+]ccc2n1Cc1ccccc1 (protonated)
NCc1nc2c[nH+]ccc2n1Cc1ccccc1 (3D coordinates assigned)
NCc1nc2c[nH+]ccc2n1Cc1ccccc1 (optimized conformer: 70.32573533134956 kcal/mol)

>  <smiles>  (40) 
NCc1nc2cnccc2n1Cc1ccccc1

>  <score_type>  (40) 
oracle

>  <origin>  (40) 
adg

>  <m_score__min__energy>  (40) 
-6.5700000000000003

>  <m_primary>  (40) 
energy

$$$$
40:0
     RDKit          3D

 41 43  0  0  0  0  0  0  0  0999 V2000
   -1.3011   18.6667  -34.1207 H   0  0  0  0  0  0  0  0  0  0  0  0
   -2.3080   19.0650  -33.9270 C   0  0  0  0  0  0  0  0  0  0  0  0
   -3.3710   18.4160  -34.3990 C   0  0  0  0  0  0  0  0  0  0  0  0
   -3.2239   17.4921  -34.9776 H   0  0  0  0  0  0  0  0  0  0  0  0
   -4.7530   18.9130  -34.1610 C   0  0  0  0  0  0  0  0  0  0  0  0
   -5.7950   18.2740  -34.6200 N   0  0  0  0  0  0  0  0  0  0  0  0
   -6.1230   16.8600  -34.4340 C   0  0  0  0  0  0  0  0  0  0  0  0
   -5.1923   16.2768  -34.3730 H   0  0  0  0  0  0  0  0  0  0  0  0
   -6.7274   16.5182  -35.2872 H   0  0  0  0  0  0  0  0  0  0  0  0
   -6.9330   16.6630  -33.1350 C   0  0  0  0  0  0  0  0  0  0  0  0
   -6.4605   15.8578  -32.5533 H   0  0  0  0  0  0  0  0  0  0  0  0
   -7.9626   16.4234  -33.4393 H   0  0  0  0  0  0  0  0  0  0  0  0
   -7.0140   17.8680  -32.2780 N   0  0  0  0  0  0  0  0  0  0  0  0
   -8.3920   18.2100  -31.8950 C   0  0  0  0  0  0  0  0  0  0  0  0
   -8.4734   18.2302  -30.7982 H   0  0  0  0  0  0  0  0  0  0  0  0
   -8.6503   19.1995  -32.3002 H   0  0  0  0  0  0  0  0  0  0  0  0
   -9.0830   17.4561  -32.3002 H   0  0  0  0  0  0  0  0  0  0  0  0
   -6.1350   17.7920  -31.1010 C   0  0  0  0  0  0  0  0  0  0  0  0
   -6.7426   17.8445  -30.1856 H   0  0  0  0  0  0  0  0  0  0  0  0
   -5.5799   16.8425  -31.1186 H   0  0  0  0  0  0  0  0  0  0  0  0
   -5.4252   18.6321  -31.1186 H   0  0  0  0  0  0  0  0  0  0  0  0
   -4.9430   20.1810  -33.3830 C   0  0  0  0  0  0  0  0  0  0  0  0
   -3.8070   20.8550  -32.8850 C   0  0  0  0  0  0  0  0  0  0  0  0
   -3.9460   22.0070  -32.1670 N   0  0  0  0  0  0  0  0  0  0  0  0
   -3.0790   22.4940  -31.8530 H   0  0  0  0  0  0  0  0  0  0  0  0
   -5.1680   22.5480  -31.8820 C   0  0  0  0  0  0  0  0  0  0  0  0
   -5.2870   23.7390  -31.1150 C   0  0  0  0  0  0  0  0  0  0  0  0
   -4.1490   24.3640  -30.5010 N   0  0  0  0  0  0  0  0  0  0  0  0
   -3.9400   25.5820  -30.6680 O   0  0  0  0  0  0  0  0  0  0  0  0
   -3.1460   23.5850  -29.9710 O   0  0  0  0  0  0  0  0  0  0  0  0
   -6.5530   24.3140  -30.9250 C   0  0  0  0  0  0  0  0  0  0  0  0
   -6.6444   25.2541  -30.3612 H   0  0  0  0  0  0  0  0  0  0  0  0
   -7.6940   23.7080  -31.4420 C   0  0  0  0  0  0  0  0  0  0  0  0
   -8.6796   24.1696  -31.2823 H   0  0  0  0  0  0  0  0  0  0  0  0
   -7.5930   22.5190  -32.1610 C   0  0  0  0  0  0  0  0  0  0  0  0
   -8.5019   22.0374  -32.5508 H   0  0  0  0  0  0  0  0  0  0  0  0
   -6.3360   21.9300  -32.3920 C   0  0  0  0  0  0  0  0  0  0  0  0
   -6.2170   20.7390  -33.1350 C   0  0  0  0  0  0  0  0  0  0  0  0
   -7.2570   20.1780  -33.5780 O   0  0  0  0  0  0  0  0  0  0  0  0
   -2.4580   20.3040  -33.1520 C   0  0  0  0  0  0  0  0  0  0  0  0
   -1.4280   20.8850  -32.7190 O   0  0  0  0  0  0  0  0  0  0  0  0
  1  2  1  0
  2  3  2  0
  3  4  1  0
  3  5  1  0
  5  6  2  0
  6  7  1  0
  7  8  1  0
  7  9  1  0
  7 10  1  0
 10 11  1  0
 10 12  1  0
 10 13  1  0
 13 14  1  0
 14 15  1  0
 14 16  1  0
 14 17  1  0
 13 18  1  0
 18 19  1  0
 18 20  1  0
 18 21  1  0
  5 22  1  0
 22 23  2  0
 23 24  1  0
 24 25  1  0
 24 26  1  0
 26 27  2  0
 27 28  1  0
 28 29  2  0
 28 30  1  0
 27 31  1  0
 31 32  1  0
 31 33  2  0
 33 34  1  0
 33 35  1  0
 35 36  1  0
 35 37  2  0
 37 38  1  0
 38 39  2  0
 23 40  1  0
 40 41  2  0
 40  2  1  0
 38 22  1  0
 37 26  1  0
M  CHG  2  28   1  30  -1
M  END
>  <UniqueID>  (41) 
39

>  <SMILES>  (41) 
CN(C)CC/N=C1\C=CC(=O)c2[nH]c3c([N+](=O)[O-])cccc3c(=O)c21

>  <Energy>  (41) 
60.840095749397015

>  <Genealogy>  (41) 
CN(C)CC/N=C1\C=CC(=O)c2[nH]c3c([N+](=O)[O-])cccc3c(=O)c21 (cis-trans isomerization)
CN(C)CC/N=C1\C=CC(=O)c2[nH]c3c([N+](=O)[O-])cccc3c(=O)c21 (3D coordinates assigned)
CN(C)CC/N=C1\C=CC(=O)c2[nH]c3c([N+](=O)[O-])cccc3c(=O)c21 (nonaromatic ring conformer: 60.840095749397015 kcal/mol)

>  <smiles>  (41) 
CN(C)CCN=C1C=CC(=O)c2[nH]c3c([N+](=O)[O-])cccc3c(=O)c21

>  <score_type>  (41) 
oracle

>  <origin>  (41) 
adg

>  <m_score__min__energy>  (41) 
-8.6199999999999992

>  <m_primary>  (41) 
energy

$$$$
41:0
     RDKit          3D

 41 40  0  0  0  0  0  0  0  0999 V2000
   -2.8070   24.1680  -29.7180 C   0  0  0  0  0  0  0  0  0  0  0  0
   -3.4970   25.1620  -30.4660 O   0  0  0  0  0  0  0  0  0  0  0  0
   -4.8910   25.2760  -30.4630 C   0  0  0  0  0  0  0  0  0  0  0  0
   -5.4440   26.4080  -30.5050 O   0  0  0  0  0  0  0  0  0  0  0  0
   -5.7320   24.0400  -30.4390 C   0  0  0  0  0  0  0  0  0  0  0  0
   -5.6270   23.3280  -31.7250 N   0  0  0  0  0  0  0  0  0  0  0  0
   -6.9330   23.0100  -32.3200 C   0  0  0  0  0  0  0  0  0  0  0  0
   -4.6220   22.2330  -31.7600 C   0  0  0  0  0  0  0  0  0  0  0  0
   -4.4590   21.4480  -33.0980 C   0  0  0  0  0  0  0  0  0  0  0  0
   -4.8620   20.0170  -33.1170 N   0  0  0  0  0  0  0  0  0  0  0  0
   -3.7560   19.0870  -33.3870 C   0  0  0  0  0  0  0  0  0  0  0  0
   -6.1060   19.6610  -33.8340 C   0  0  0  0  0  0  0  0  0  0  0  0
   -6.4980   18.1760  -33.6430 C   0  0  0  0  0  0  0  0  0  0  0  0
   -7.2880   17.8830  -32.4250 N   0  0  0  0  0  0  0  0  0  0  0  0
   -8.3510   18.8640  -32.1630 C   0  0  0  0  0  0  0  0  0  0  0  0
   -6.4610   17.6570  -31.2290 C   0  0  0  0  0  0  0  0  0  0  0  0
   -2.9401   24.3598  -28.6431 H   0  0  0  0  0  0  0  0  0  0  0  0
   -3.2115   23.1756  -29.9663 H   0  0  0  0  0  0  0  0  0  0  0  0
   -1.7359   24.2000  -29.9663 H   0  0  0  0  0  0  0  0  0  0  0  0
   -5.3859   23.3807  -29.6293 H   0  0  0  0  0  0  0  0  0  0  0  0
   -6.7814   24.3231  -30.2701 H   0  0  0  0  0  0  0  0  0  0  0  0
   -7.6666   22.8314  -31.5201 H   0  0  0  0  0  0  0  0  0  0  0  0
   -7.2673   23.8530  -32.9426 H   0  0  0  0  0  0  0  0  0  0  0  0
   -6.8424   22.1077  -32.9426 H   0  0  0  0  0  0  0  0  0  0  0  0
   -3.6446   22.6748  -31.5160 H   0  0  0  0  0  0  0  0  0  0  0  0
   -4.9940   21.4879  -31.0413 H   0  0  0  0  0  0  0  0  0  0  0  0
   -5.0600   21.9680  -33.8585 H   0  0  0  0  0  0  0  0  0  0  0  0
   -3.3741   21.4321  -33.2788 H   0  0  0  0  0  0  0  0  0  0  0  0
   -3.3343   18.7324  -32.4349 H   0  0  0  0  0  0  0  0  0  0  0  0
   -4.1311   18.2289  -33.9641 H   0  0  0  0  0  0  0  0  0  0  0  0
   -2.9750   19.6037  -33.9641 H   0  0  0  0  0  0  0  0  0  0  0  0
   -6.9235   20.2927  -33.4564 H   0  0  0  0  0  0  0  0  0  0  0  0
   -5.9305   19.8241  -34.9076 H   0  0  0  0  0  0  0  0  0  0  0  0
   -7.0912   17.8658  -34.5159 H   0  0  0  0  0  0  0  0  0  0  0  0
   -5.5534   17.6230  -33.5340 H   0  0  0  0  0  0  0  0  0  0  0  0
   -8.4803   18.9833  -31.0772 H   0  0  0  0  0  0  0  0  0  0  0  0
   -8.0749   19.8314  -32.6079 H   0  0  0  0  0  0  0  0  0  0  0  0
   -9.2932   18.5113  -32.6079 H   0  0  0  0  0  0  0  0  0  0  0  0
   -7.0680   17.8229  -30.3268 H   0  0  0  0  0  0  0  0  0  0  0  0
   -6.0851   16.6232  -31.2331 H   0  0  0  0  0  0  0  0  0  0  0  0
   -5.6116   18.3560  -31.2331 H   0  0  0  0  0  0  0  0  0  0  0  0
  1  2  1  0
  2  3  1  0
  3  4  2  0
  3  5  1  0
  5  6  1  0
  6  7  1  0
  6  8  1  0
  8  9  1  0
  9 10  1  0
 10 11  1  0
 10 12  1  0
 12 13  1  0
 13 14  1  0
 14 15  1  0
 14 16  1  0
  1 17  1  0
  1 18  1  0
  1 19  1  0
  5 20  1  0
  5 21  1  0
  7 22  1  0
  7 23  1  0
  7 24  1  0
  8 25  1  0
  8 26  1  0
  9 27  1  0
  9 28  1  0
 11 29  1  0
 11 30  1  0
 11 31  1  0
 12 32  1  0
 12 33  1  0
 13 34  1  0
 13 35  1  0
 15 36  1  0
 15 37  1  0
 15 38  1  0
 16 39  1  0
 16 40  1  0
 16 41  1  0
M  END
>  <UniqueID>  (42) 
40

>  <SMILES>  (42) 
COC(=O)CN(C)CCN(C)CCN(C)C

>  <Energy>  (42) 
54.378993833953295

>  <Genealogy>  (42) 
COC(=O)CN(C)CCN(C)CCN(C)C (3D coordinates assigned)
COC(=O)CN(C)CCN(C)CCN(C)C (optimized conformer: 54.378993833953295 kcal/mol)

>  <smiles>  (42) 
COC(=O)CN(C)CCN(C)CCN(C)C

>  <score_type>  (42) 
oracle

>  <origin>  (42) 
adg

>  <m_score__min__energy>  (42) 
-5.2999999999999998

>  <m_primary>  (42) 
energy

$$$$
42:0
     RDKit          3D

 38 41  0  0  0  0  0  0  0  0999 V2000
   -1.1200   26.8540  -23.8200 C   0  0  0  0  0  0  0  0  0  0  0  0
   -0.7510   25.6680  -24.6610 C   0  0  0  0  0  0  0  0  0  0  0  0
    0.4810   25.0240  -24.4860 C   0  0  0  0  0  0  0  0  0  0  0  0
    0.8260   23.9820  -25.2850 N   0  0  0  0  0  0  0  0  0  0  0  0
    0.0040   23.5250  -26.2660 C   0  0  0  0  0  0  0  0  0  0  0  0
   -1.2450   24.1330  -26.4820 C   0  0  0  0  0  0  0  0  0  0  0  0
   -2.1250   23.7010  -27.5350 N   0  0  0  0  0  0  0  0  0  0  0  0
   -2.5640   24.5500  -28.6080 C   0  0  0  0  0  0  0  0  0  0  0  0
   -1.9320   25.6080  -28.8760 O   0  0  0  0  0  0  0  0  0  0  0  0
   -3.7230   24.1800  -29.4380 C   0  0  0  0  0  0  0  0  0  0  0  0
   -4.2650   24.9080  -30.4940 C   0  0  0  0  0  0  0  0  0  0  0  0
   -5.3260   24.3200  -31.1080 N   0  0  0  0  0  0  0  0  0  0  0  0
   -5.6550   23.1300  -30.5510 C   0  0  0  0  0  0  0  0  0  0  0  0
   -6.7330   22.2650  -31.0780 C   0  0  0  0  0  0  0  0  0  0  0  0
   -8.0430   22.3870  -30.5580 C   0  0  0  0  0  0  0  0  0  0  0  0
   -9.1000   21.5960  -31.0540 C   0  0  0  0  0  0  0  0  0  0  0  0
   -8.8700   20.6590  -32.0720 C   0  0  0  0  0  0  0  0  0  0  0  0
   -7.5740   20.5370  -32.5660 C   0  0  0  0  0  0  0  0  0  0  0  0
   -7.1510   19.6730  -33.5020 N   0  0  0  0  0  0  0  0  0  0  0  0
   -5.8220   19.8780  -33.6230 C   0  0  0  0  0  0  0  0  0  0  0  0
   -5.4000   20.8800  -32.7580 C   0  0  0  0  0  0  0  0  0  0  0  0
   -6.5360   21.3050  -32.0900 C   0  0  0  0  0  0  0  0  0  0  0  0
   -4.6040   22.7540  -29.2880 S   0  0  0  0  0  0  0  0  0  0  0  0
   -1.6030   25.2280  -25.6830 C   0  0  0  0  0  0  0  0  0  0  0  0
   -1.0375   26.5887  -22.7557 H   0  0  0  0  0  0  0  0  0  0  0  0
   -0.4390   27.6883  -24.0438 H   0  0  0  0  0  0  0  0  0  0  0  0
   -2.1542   27.1547  -24.0438 H   0  0  0  0  0  0  0  0  0  0  0  0
    1.1706   25.3636  -23.6991 H   0  0  0  0  0  0  0  0  0  0  0  0
    0.3169   22.6769  -26.8928 H   0  0  0  0  0  0  0  0  0  0  0  0
   -2.3740   22.6870  -27.5740 H   0  0  0  0  0  0  0  0  0  0  0  0
   -3.8655   25.8838  -30.8074 H   0  0  0  0  0  0  0  0  0  0  0  0
   -8.2404   23.1108  -29.7535 H   0  0  0  0  0  0  0  0  0  0  0  0
  -10.1120   21.7147  -30.6395 H   0  0  0  0  0  0  0  0  0  0  0  0
   -9.6883   20.0396  -32.4679 H   0  0  0  0  0  0  0  0  0  0  0  0
   -7.7240   18.9700  -34.0200 H   0  0  0  0  0  0  0  0  0  0  0  0
   -5.1640   19.3276  -34.3115 H   0  0  0  0  0  0  0  0  0  0  0  0
   -4.3748   21.2578  -32.6302 H   0  0  0  0  0  0  0  0  0  0  0  0
   -2.5580   25.7447  -25.8593 H   0  0  0  0  0  0  0  0  0  0  0  0
  1  2  1  0
  2  3  2  0
  3  4  1  0
  4  5  2  0
  5  6  1  0
  6  7  1  0
  7  8  1  0
  8  9  2  0
  8 10  1  0
 10 11  2  0
 11 12  1  0
 12 13  2  0
 13 14  1  0
 14 15  2  0
 15 16  1  0
 16 17  2  0
 17 18  1  0
 18 19  1  0
 19 20  1  0
 20 21  2  0
 21 22  1  0
 13 23  1  0
  6 24  2  0
 24  2  1  0
 23 10  1  0
 22 14  1  0
 22 18  2  0
  1 25  1  0
  1 26  1  0
  1 27  1  0
  3 28  1  0
  5 29  1  0
  7 30  1  0
 11 31  1  0
 15 32  1  0
 16 33  1  0
 17 34  1  0
 19 35  1  0
 20 36  1  0
 21 37  1  0
 24 38  1  0
M  END
>  <UniqueID>  (43) 
41

>  <SMILES>  (43) 
Cc1cncc(NC(=O)c2cnc(-c3cccc4[nH]ccc34)s2)c1

>  <Energy>  (43) 
112.11596169293779

>  <Genealogy>  (43) 
Cc1cncc(NC(=O)c2cnc(-c3cccc4[nH]ccc34)s2)c1 (3D coordinates assigned)
Cc1cncc(NC(=O)c2cnc(-c3cccc4[nH]ccc34)s2)c1 (optimized conformer: 112.11596169293779 kcal/mol)

>  <smiles>  (43) 
Cc1cncc(NC(=O)c2cnc(-c3cccc4[nH]ccc34)s2)c1

>  <score_type>  (43) 
oracle

>  <origin>  (43) 
adg

>  <m_score__min__energy>  (43) 
-8.9000000000000004

>  <m_primary>  (43) 
energy

$$$$
43:0
     RDKit          3D

 31 32  0  0  0  0  0  0  0  0999 V2000
   -6.6600   17.6870  -32.1340 C   0  0  0  0  0  0  0  0  0  0  0  0
   -6.7710   17.7610  -33.6020 N   0  0  0  0  0  0  0  0  0  0  0  0
   -6.5140   16.4440  -34.2110 C   0  0  0  0  0  0  0  0  0  0  0  0
   -5.9200   18.8290  -34.1820 C   0  0  0  0  0  0  0  0  0  0  0  0
   -5.9180   20.1170  -33.3820 C   0  0  0  0  0  0  0  0  0  0  0  0
   -4.7080   20.7390  -33.0400 C   0  0  0  0  0  0  0  0  0  0  0  0
   -4.7050   21.9260  -32.3000 C   0  0  0  0  0  0  0  0  0  0  0  0
   -5.9150   22.5210  -31.8960 C   0  0  0  0  0  0  0  0  0  0  0  0
   -5.9320   23.7440  -31.1300 N   0  0  0  0  0  0  0  0  0  0  0  0
   -6.8500   24.1230  -30.2130 C   0  0  0  0  0  0  0  0  0  0  0  0
   -6.4870   25.3540  -29.7120 C   0  0  0  0  0  0  0  0  0  0  0  0
   -5.3190   25.6720  -30.3730 C   0  0  0  0  0  0  0  0  0  0  0  0
   -5.0010   24.6810  -31.2270 N   0  0  0  0  0  0  0  0  0  0  0  0
   -7.1250   21.8950  -32.2460 C   0  0  0  0  0  0  0  0  0  0  0  0
   -7.1260   20.7090  -32.9860 C   0  0  0  0  0  0  0  0  0  0  0  0
   -7.4918   18.2415  -31.6750 H   0  0  0  0  0  0  0  0  0  0  0  0
   -6.7009   16.6348  -31.8158 H   0  0  0  0  0  0  0  0  0  0  0  0
   -5.7045   18.1294  -31.8158 H   0  0  0  0  0  0  0  0  0  0  0  0
   -7.7650   18.0130  -33.8220 H   0  0  0  0  0  0  0  0  0  0  0  0
   -6.3680   15.6956  -33.4182 H   0  0  0  0  0  0  0  0  0  0  0  0
   -7.3726   16.1546  -34.8347 H   0  0  0  0  0  0  0  0  0  0  0  0
   -5.6096   16.4986  -34.8347 H   0  0  0  0  0  0  0  0  0  0  0  0
   -4.8869   18.4555  -34.2393 H   0  0  0  0  0  0  0  0  0  0  0  0
   -6.3386   19.0685  -35.1706 H   0  0  0  0  0  0  0  0  0  0  0  0
   -3.7548   20.2901  -33.3560 H   0  0  0  0  0  0  0  0  0  0  0  0
   -3.7487   22.3986  -32.0314 H   0  0  0  0  0  0  0  0  0  0  0  0
   -7.7380   23.5454  -29.9165 H   0  0  0  0  0  0  0  0  0  0  0  0
   -7.0127   25.9514  -28.9525 H   0  0  0  0  0  0  0  0  0  0  0  0
   -4.7368   26.5935  -30.2252 H   0  0  0  0  0  0  0  0  0  0  0  0
   -8.0800   22.3432  -31.9343 H   0  0  0  0  0  0  0  0  0  0  0  0
   -8.0811   20.2368  -33.2596 H   0  0  0  0  0  0  0  0  0  0  0  0
  1  2  1  0
  2  3  1  0
  2  4  1  0
  4  5  1  0
  5  6  2  0
  6  7  1  0
  7  8  2  0
  8  9  1  0
  9 10  1  0
 10 11  2  0
 11 12  1  0
 12 13  2  0
  8 14  1  0
 14 15  2  0
 15  5  1  0
 13  9  1  0
  1 16  1  0
  1 17  1  0
  1 18  1  0
  2 19  1  0
  3 20  1  0
  3 21  1  0
  3 22  1  0
  4 23  1  0
  4 24  1  0
  6 25  1  0
  7 26  1  0
 10 27  1  0
 11 28  1  0
 12 29  1  0
 14 30  1  0
 15 31  1  0
M  CHG  1   2   1
M  END
>  <UniqueID>  (44) 
42

>  <SMILES>  (44) 
C[NH+](C)Cc1ccc(-n2cccn2)cc1

>  <Energy>  (44) 
64.74437172763079

>  <Genealogy>  (44) 
C[NH+](C)Cc1ccc(-n2cccn2)cc1 (protonated)
C[NH+](C)Cc1ccc(-n2cccn2)cc1 (3D coordinates assigned)
C[NH+](C)Cc1ccc(-n2cccn2)cc1 (optimized conformer: 64.74437172763079 kcal/mol)

>  <smiles>  (44) 
CN(C)Cc1ccc(-n2cccn2)cc1

>  <score_type>  (44) 
oracle

>  <origin>  (44) 
adg

>  <m_score__min__energy>  (44) 
-5.6399999999999997

>  <m_primary>  (44) 
energy

$$$$
44:0
     RDKit          3D

 48 51  0  0  0  0  0  0  0  0999 V2000
   -3.5930   23.4060  -30.8010 C   0  0  0  0  0  0  0  0  0  0  0  0
   -3.7940   24.6030  -29.9650 N   0  0  0  0  0  0  0  0  0  0  0  0
   -4.0390   24.1890  -28.5730 C   0  0  0  0  0  0  0  0  0  0  0  0
   -4.9210   25.4200  -30.4670 C   0  0  0  0  0  0  0  0  0  0  0  0
   -6.1800   24.5550  -30.6320 C   0  0  0  0  0  0  0  0  0  0  0  0
   -6.4390   24.1800  -32.0970 C   0  0  0  0  0  0  0  0  0  0  0  0
   -6.5930   22.7340  -32.2540 N   0  0  0  0  0  0  0  0  0  0  0  0
   -5.4970   21.9890  -32.6500 O   0  0  0  0  0  0  0  0  0  0  0  0
   -5.5500   20.5940  -32.7560 C   0  0  0  0  0  0  0  0  0  0  0  0
   -4.4080   19.9010  -33.1540 C   0  0  0  0  0  0  0  0  0  0  0  0
   -4.4310   18.5120  -33.2750 C   0  0  0  0  0  0  0  0  0  0  0  0
   -5.6020   17.7870  -33.0030 C   0  0  0  0  0  0  0  0  0  0  0  0
   -5.5720   16.3190  -33.1970 C   0  0  0  0  0  0  0  0  0  0  0  0
   -4.6760   15.5270  -32.4600 C   0  0  0  0  0  0  0  0  0  0  0  0
   -4.6320   14.1440  -32.6590 C   0  0  0  0  0  0  0  0  0  0  0  0
   -5.4750   13.5440  -33.5990 C   0  0  0  0  0  0  0  0  0  0  0  0
   -6.3610   14.3270  -34.3440 C   0  0  0  0  0  0  0  0  0  0  0  0
   -6.4070   15.7110  -34.1500 C   0  0  0  0  0  0  0  0  0  0  0  0
   -6.7670   18.4760  -32.5740 C   0  0  0  0  0  0  0  0  0  0  0  0
   -7.9530   17.7960  -32.2300 C   0  0  0  0  0  0  0  0  0  0  0  0
   -9.0830   18.5030  -31.8160 C   0  0  0  0  0  0  0  0  0  0  0  0
   -9.0530   19.8940  -31.7270 C   0  0  0  0  0  0  0  0  0  0  0  0
   -7.8820   20.5970  -32.0420 C   0  0  0  0  0  0  0  0  0  0  0  0
   -6.7340   19.8930  -32.4590 C   0  0  0  0  0  0  0  0  0  0  0  0
   -7.8240   22.0680  -31.9350 C   0  0  0  0  0  0  0  0  0  0  0  0
   -8.8360   22.7290  -31.5700 O   0  0  0  0  0  0  0  0  0  0  0  0
   -3.4456   22.5280  -30.1549 H   0  0  0  0  0  0  0  0  0  0  0  0
   -4.4774   23.2495  -31.4360 H   0  0  0  0  0  0  0  0  0  0  0  0
   -2.7060   23.5470  -31.4360 H   0  0  0  0  0  0  0  0  0  0  0  0
   -3.6008   24.9295  -27.8877 H   0  0  0  0  0  0  0  0  0  0  0  0
   -5.1225   24.1216  -28.3958 H   0  0  0  0  0  0  0  0  0  0  0  0
   -3.5767   23.2067  -28.3958 H   0  0  0  0  0  0  0  0  0  0  0  0
   -5.1287   26.2291  -29.7513 H   0  0  0  0  0  0  0  0  0  0  0  0
   -4.6474   25.8410  -31.4457 H   0  0  0  0  0  0  0  0  0  0  0  0
   -6.0545   23.6319  -30.0471 H   0  0  0  0  0  0  0  0  0  0  0  0
   -7.0406   25.1408  -30.2767 H   0  0  0  0  0  0  0  0  0  0  0  0
   -7.3589   24.6778  -32.4375 H   0  0  0  0  0  0  0  0  0  0  0  0
   -5.5767   24.5055  -32.6974 H   0  0  0  0  0  0  0  0  0  0  0  0
   -3.4826   20.4534  -33.3741 H   0  0  0  0  0  0  0  0  0  0  0  0
   -3.5212   17.9783  -33.5871 H   0  0  0  0  0  0  0  0  0  0  0  0
   -4.0069   15.9965  -31.7239 H   0  0  0  0  0  0  0  0  0  0  0  0
   -3.9331   13.5270  -32.0751 H   0  0  0  0  0  0  0  0  0  0  0  0
   -5.4410   12.4553  -33.7523 H   0  0  0  0  0  0  0  0  0  0  0  0
   -7.0231   13.8539  -35.0841 H   0  0  0  0  0  0  0  0  0  0  0  0
   -7.0986   16.3256  -34.7449 H   0  0  0  0  0  0  0  0  0  0  0  0
   -7.9882   16.6981  -32.2884 H   0  0  0  0  0  0  0  0  0  0  0  0
  -10.0036   17.9589  -31.5582 H   0  0  0  0  0  0  0  0  0  0  0  0
   -9.9519   20.4420  -31.4083 H   0  0  0  0  0  0  0  0  0  0  0  0
  1  2  1  0
  2  3  1  0
  2  4  1  0
  4  5  1  0
  5  6  1  0
  6  7  1  0
  7  8  1  0
  8  9  1  0
  9 10  1  0
 10 11  2  0
 11 12  1  0
 12 13  1  0
 13 14  2  0
 14 15  1  0
 15 16  2  0
 16 17  1  0
 17 18  2  0
 12 19  2  0
 19 20  1  0
 20 21  2  0
 21 22  1  0
 22 23  2  0
 23 24  1  0
 23 25  1  0
 25 26  2  0
 25  7  1  0
 24  9  2  0
 18 13  1  0
 24 19  1  0
  1 27  1  0
  1 28  1  0
  1 29  1  0
  3 30  1  0
  3 31  1  0
  3 32  1  0
  4 33  1  0
  4 34  1  0
  5 35  1  0
  5 36  1  0
  6 37  1  0
  6 38  1  0
 10 39  1  0
 11 40  1  0
 14 41  1  0
 15 42  1  0
 16 43  1  0
 17 44  1  0
 18 45  1  0
 20 46  1  0
 21 47  1  0
 22 48  1  0
M  END
>  <UniqueID>  (45) 
43

>  <SMILES>  (45) 
CN(C)CCCN1Oc2ccc(-c3ccccc3)c3cccc(c23)C1=O

>  <Energy>  (45) 
60.74484322554689

>  <Genealogy>  (45) 
CN(C)CCCN1Oc2ccc(-c3ccccc3)c3cccc(c23)C1=O (3D coordinates assigned)
CN(C)CCCN1Oc2ccc(-c3ccccc3)c3cccc(c23)C1=O (nonaromatic ring conformer: 60.74484322554689 kcal/mol)

>  <smiles>  (45) 
CN(C)CCCN1Oc2ccc(-c3ccccc3)c3cccc(c23)C1=O

>  <score_type>  (45) 
oracle

>  <origin>  (45) 
adg

>  <m_score__min__energy>  (45) 
-9.0899999999999999

>  <m_primary>  (45) 
energy

$$$$
