0:0
     RDKit          3D

 42 44  0  0  0  0  0  0  0  0999 V2000
   -6.1070   25.9330  -30.1410 O   0  0  0  0  0  0  0  0  0  0  0  0
   -5.3260   25.1150  -30.7010 C   0  0  0  0  0  0  0  0  0  0  0  0
   -3.9000   25.2240  -30.5450 N   0  0  0  0  0  0  0  0  0  0  0  0
   -3.1940   24.8560  -29.5160 C   0  0  0  0  0  0  0  0  0  0  0  0
   -3.7600   23.9850  -28.5750 C   0  0  0  0  0  0  0  0  0  0  0  0
   -3.0080   23.5860  -27.4690 C   0  0  0  0  0  0  0  0  0  0  0  0
   -1.7020   24.0530  -27.3090 C   0  0  0  0  0  0  0  0  0  0  0  0
   -1.1680   24.9200  -28.2650 C   0  0  0  0  0  0  0  0  0  0  0  0
   -1.9160   25.2970  -29.3360 N   0  0  0  0  0  0  0  0  0  0  0  0
   -5.9000   23.9940  -31.5250 C   0  0  2  0  0  0  0  0  0  0  0  0
   -7.4040   23.7990  -31.2220 C   0  0  0  0  0  0  0  0  0  0  0  0
   -7.8590   22.3360  -31.4070 C   0  0  0  0  0  0  0  0  0  0  0  0
   -7.1010   21.6720  -32.4920 N   0  0  2  0  0  0  0  0  0  0  0  0
   -7.6580   20.3830  -32.8620 C   0  0  0  0  0  0  0  0  0  0  0  0
   -8.9070   20.2920  -33.0200 O   0  0  0  0  0  0  0  0  0  0  0  0
   -6.8420   19.1520  -33.0610 C   0  0  0  0  0  0  0  0  0  0  0  0
   -6.7550   18.1360  -32.0890 C   0  0  0  0  0  0  0  0  0  0  0  0
   -5.9620   17.0060  -32.3110 C   0  0  0  0  0  0  0  0  0  0  0  0
   -5.2380   16.8780  -33.4990 C   0  0  0  0  0  0  0  0  0  0  0  0
   -4.2430   15.4590  -33.7740 Cl  0  0  0  0  0  0  0  0  0  0  0  0
   -5.3030   17.8840  -34.4650 C   0  0  0  0  0  0  0  0  0  0  0  0
   -6.0950   19.0160  -34.2470 C   0  0  0  0  0  0  0  0  0  0  0  0
   -5.6430   21.5680  -32.2190 C   0  0  0  0  0  0  0  0  0  0  0  0
   -5.1150   22.6920  -31.3040 C   0  0  0  0  0  0  0  0  0  0  0  0
   -4.7888   23.6188  -28.7071 H   0  0  0  0  0  0  0  0  0  0  0  0
   -3.4439   22.9042  -26.7240 H   0  0  0  0  0  0  0  0  0  0  0  0
   -1.1015   23.7422  -26.4414 H   0  0  0  0  0  0  0  0  0  0  0  0
   -0.1413   25.2982  -28.1513 H   0  0  0  0  0  0  0  0  0  0  0  0
   -5.8042   24.2675  -32.5861 H   0  0  0  0  0  0  0  0  0  0  0  0
   -7.5961   24.0993  -30.1814 H   0  0  0  0  0  0  0  0  0  0  0  0
   -7.9712   24.4180  -31.9327 H   0  0  0  0  0  0  0  0  0  0  0  0
   -7.6951   21.7879  -30.4675 H   0  0  0  0  0  0  0  0  0  0  0  0
   -8.9255   22.3346  -31.6762 H   0  0  0  0  0  0  0  0  0  0  0  0
   -7.2110   22.2890  -33.3350 H   0  0  0  0  0  0  0  0  0  0  0  0
   -7.3156   18.2325  -31.1475 H   0  0  0  0  0  0  0  0  0  0  0  0
   -5.9080   16.2155  -31.5480 H   0  0  0  0  0  0  0  0  0  0  0  0
   -4.7304   17.7861  -35.3991 H   0  0  0  0  0  0  0  0  0  0  0  0
   -6.1348   19.8079  -35.0095 H   0  0  0  0  0  0  0  0  0  0  0  0
   -5.4462   20.6006  -31.7338 H   0  0  0  0  0  0  0  0  0  0  0  0
   -5.1222   21.6596  -33.1836 H   0  0  0  0  0  0  0  0  0  0  0  0
   -5.2213   22.3813  -30.2541 H   0  0  0  0  0  0  0  0  0  0  0  0
   -4.0575   22.8742  -31.5460 H   0  0  0  0  0  0  0  0  0  0  0  0
  1  2  2  0
  2  3  1  0
  3  4  2  3
  4  5  1  0
  5  6  2  0
  6  7  1  0
  7  8  2  0
  8  9  1  0
  2 10  1  0
 10 11  1  0
 11 12  1  0
 12 13  1  0
 13 14  1  0
 14 15  2  0
 14 16  1  0
 16 17  2  0
 17 18  1  0
 18 19  2  0
 19 20  1  0
 19 21  1  0
 21 22  2  0
 13 23  1  0
 23 24  1  0
  9  4  1  0
 24 10  1  0
 22 16  1  0
  5 25  1  0
  6 26  1  0
  7 27  1  0
  8 28  1  0
 10 29  1  6
 11 30  1  0
 11 31  1  0
 12 32  1  0
 12 33  1  0
 13 34  1  6
 17 35  1  0
 18 36  1  0
 21 37  1  0
 22 38  1  0
 23 39  1  0
 23 40  1  0
 24 41  1  0
 24 42  1  0
M  CHG  2   9  -1  13   1
M  END
>  <UniqueID>  (1) 
1

>  <SMILES>  (1) 
O=C(N=c1cccc[n-]1)C1CC[NH+](C(=O)c2ccc(Cl)cc2)CC1

>  <Energy>  (1) 
61.01525476828014

>  <Genealogy>  (1) 
O=C(N=c1cccc[n-]1)C1CC[NH+](C(=O)c2ccc(Cl)cc2)CC1 (protonated)
O=C(N=c1cccc[n-]1)C1CC[NH+](C(=O)c2ccc(Cl)cc2)CC1 (3D coordinates assigned)
O=C(N=c1cccc[n-]1)C1CC[NH+](C(=O)c2ccc(Cl)cc2)CC1 (nonaromatic ring conformer: 61.01525476828014 kcal/mol)

>  <smiles>  (1) 
O=C(N=c1cccc[nH]1)C1CCN(C(=O)c2ccc(Cl)cc2)CC1

>  <score_type>  (1) 
oracle

>  <origin>  (1) 
adg

>  <m_score__min__energy>  (1) 
-10.81

>  <m_primary>  (1) 
energy

$$$$
1:0
     RDKit          3D

 33 35  0  0  0  0  0  0  0  0999 V2000
   -8.7040   19.1690  -31.6410 C   0  0  0  0  0  0  0  0  0  0  0  0
   -7.3160   18.8550  -31.6040 O   0  0  0  0  0  0  0  0  0  0  0  0
   -6.5730   18.3930  -32.7030 C   0  0  0  0  0  0  0  0  0  0  0  0
   -6.8620   17.1650  -33.3310 C   0  0  0  0  0  0  0  0  0  0  0  0
   -6.0970   16.7210  -34.3620 N   0  0  0  0  0  0  0  0  0  0  0  0
   -5.0340   17.4340  -34.8180 C   0  0  0  0  0  0  0  0  0  0  0  0
   -4.7100   18.6590  -34.2370 C   0  0  0  0  0  0  0  0  0  0  0  0
   -5.4890   19.1600  -33.1830 C   0  0  0  0  0  0  0  0  0  0  0  0
   -5.1320   20.4680  -32.5860 C   0  0  0  0  0  0  0  0  0  0  0  0
   -3.7930   20.8160  -32.3300 C   0  0  0  0  0  0  0  0  0  0  0  0
   -3.4990   22.0510  -31.7490 C   0  0  0  0  0  0  0  0  0  0  0  0
   -4.5350   22.9260  -31.4160 C   0  0  0  0  0  0  0  0  0  0  0  0
   -4.2660   24.1310  -30.8490 N   0  0  0  0  0  0  0  0  0  0  0  0
   -5.2590   24.9960  -30.5130 C   0  0  0  0  0  0  0  0  0  0  0  0
   -6.5960   24.6590  -30.7440 C   0  0  0  0  0  0  0  0  0  0  0  0
   -6.9120   23.4210  -31.3250 C   0  0  0  0  0  0  0  0  0  0  0  0
   -8.3460   23.0480  -31.5800 C   0  0  0  0  0  0  0  0  0  0  0  0
   -5.8680   22.5430  -31.6690 C   0  0  0  0  0  0  0  0  0  0  0  0
   -6.1250   21.3330  -32.2380 N   0  0  0  0  0  0  0  0  0  0  0  0
   -9.0878   19.2558  -30.6138 H   0  0  0  0  0  0  0  0  0  0  0  0
   -8.8502   20.1229  -32.1689 H   0  0  0  0  0  0  0  0  0  0  0  0
   -9.2465   18.3709  -32.1689 H   0  0  0  0  0  0  0  0  0  0  0  0
   -7.7135   16.5614  -32.9837 H   0  0  0  0  0  0  0  0  0  0  0  0
   -6.3250   15.8060  -34.8110 H   0  0  0  0  0  0  0  0  0  0  0  0
   -4.4272   17.0433  -35.6482 H   0  0  0  0  0  0  0  0  0  0  0  0
   -3.8455   19.2317  -34.6040 H   0  0  0  0  0  0  0  0  0  0  0  0
   -2.9819   20.1186  -32.5863 H   0  0  0  0  0  0  0  0  0  0  0  0
   -2.4540   22.3340  -31.5541 H   0  0  0  0  0  0  0  0  0  0  0  0
   -5.0096   25.9656  -30.0573 H   0  0  0  0  0  0  0  0  0  0  0  0
   -7.3974   25.3615  -30.4714 H   0  0  0  0  0  0  0  0  0  0  0  0
   -8.8659   22.9128  -30.6201 H   0  0  0  0  0  0  0  0  0  0  0  0
   -8.8367   23.8484  -32.1532 H   0  0  0  0  0  0  0  0  0  0  0  0
   -8.3845   22.1100  -32.1532 H   0  0  0  0  0  0  0  0  0  0  0  0
  1  2  1  0
  2  3  1  0
  3  4  2  0
  4  5  1  0
  5  6  2  0
  6  7  1  0
  7  8  2  0
  8  9  1  0
  9 10  2  0
 10 11  1  0
 11 12  2  0
 12 13  1  0
 13 14  2  0
 14 15  1  0
 15 16  2  0
 16 17  1  0
 16 18  1  0
 18 19  2  0
  8  3  1  0
 19  9  1  0
 18 12  1  0
  1 20  1  0
  1 21  1  0
  1 22  1  0
  4 23  1  0
  5 24  1  0
  6 25  1  0
  7 26  1  0
 10 27  1  0
 11 28  1  0
 14 29  1  0
 15 30  1  0
 17 31  1  0
 17 32  1  0
 17 33  1  0
M  CHG  1   5   1
M  END
>  <UniqueID>  (2) 
2

>  <SMILES>  (2) 
COc1c[nH+]ccc1-c1ccc2nccc(C)c2n1

>  <Energy>  (2) 
43.93361707629934

>  <Genealogy>  (2) 
COc1c[nH+]ccc1-c1ccc2nccc(C)c2n1 (protonated)
COc1c[nH+]ccc1-c1ccc2nccc(C)c2n1 (3D coordinates assigned)
COc1c[nH+]ccc1-c1ccc2nccc(C)c2n1 (optimized conformer: 43.93361707629934 kcal/mol)

>  <smiles>  (2) 
COc1cnccc1-c1ccc2nccc(C)c2n1

>  <score_type>  (2) 
oracle

>  <origin>  (2) 
adg

>  <m_score__min__energy>  (2) 
-6.54

>  <m_primary>  (2) 
energy

$$$$
2:0
     RDKit          3D

 58 58  0  0  0  0  0  0  0  0999 V2000
   -1.7650   21.1230  -33.2890 C   0  0  0  0  0  0  0  0  0  0  0  0
   -3.0660   20.3420  -33.0220 C   0  0  0  0  0  0  0  0  0  0  0  0
   -4.1250   21.0870  -32.2510 N   0  0  1  0  0  0  0  0  0  0  0  0
   -4.4140   20.3590  -30.9820 C   0  0  0  0  0  0  0  0  0  0  0  0
   -3.6140   22.4750  -31.9520 C   0  0  0  0  0  0  0  0  0  0  0  0
   -4.6160   23.4630  -31.3090 C   0  0  0  0  0  0  0  0  0  0  0  0
   -3.9450   24.4000  -30.4960 O   0  0  0  0  0  0  0  0  0  0  0  0
   -4.2530   24.1840  -29.1350 C   0  0  0  0  0  0  0  0  0  0  0  0
   -3.0330   24.5500  -28.2920 C   0  0  0  0  0  0  0  0  0  0  0  0
   -2.0970   25.2920  -29.0520 O   0  0  0  0  0  0  0  0  0  0  0  0
   -1.2310   26.0440  -28.2190 C   0  0  0  0  0  0  0  0  0  0  0  0
   -0.1470   25.1590  -27.5870 C   0  0  0  0  0  0  0  0  0  0  0  0
    0.3940   24.2870  -28.5650 O   0  0  0  0  0  0  0  0  0  0  0  0
    0.2310   22.9260  -28.2160 C   0  0  0  0  0  0  0  0  0  0  0  0
   -0.6280   22.2070  -29.2630 C   0  0  0  0  0  0  0  0  0  0  0  0
   -1.1500   23.1640  -30.2350 N   0  0  0  0  0  0  0  0  0  0  0  0
   -5.3730   21.1800  -33.0860 C   0  0  0  0  0  0  0  0  0  0  0  0
   -6.5550   20.3450  -32.5950 C   0  0  0  0  0  0  0  0  0  0  0  0
   -6.5800   18.9650  -32.8830 C   0  0  0  0  0  0  0  0  0  0  0  0
   -7.6690   18.1780  -32.5070 C   0  0  0  0  0  0  0  0  0  0  0  0
   -8.7480   18.7500  -31.8370 C   0  0  0  0  0  0  0  0  0  0  0  0
   -8.7390   20.1110  -31.5270 C   0  0  0  0  0  0  0  0  0  0  0  0
   -7.6440   20.9160  -31.8800 C   0  0  0  0  0  0  0  0  0  0  0  0
   -7.6510   22.2960  -31.4870 N   0  0  0  0  0  0  0  0  0  0  0  0
   -7.4420   22.6000  -30.2950 O   0  0  0  0  0  0  0  0  0  0  0  0
   -7.5620   23.2820  -32.4440 O   0  0  0  0  0  0  0  0  0  0  0  0
   -1.3013   21.4014  -32.3311 H   0  0  0  0  0  0  0  0  0  0  0  0
   -1.0702   20.4926  -33.8632 H   0  0  0  0  0  0  0  0  0  0  0  0
   -1.9947   22.0327  -33.8632 H   0  0  0  0  0  0  0  0  0  0  0  0
   -3.4939   20.0545  -33.9937 H   0  0  0  0  0  0  0  0  0  0  0  0
   -2.7802   19.4868  -32.3920 H   0  0  0  0  0  0  0  0  0  0  0  0
   -4.1594   21.0003  -30.1253 H   0  0  0  0  0  0  0  0  0  0  0  0
   -5.4826   20.1013  -30.9423 H   0  0  0  0  0  0  0  0  0  0  0  0
   -3.8131   19.4385  -30.9423 H   0  0  0  0  0  0  0  0  0  0  0  0
   -2.7593   22.3747  -31.2669 H   0  0  0  0  0  0  0  0  0  0  0  0
   -3.3698   22.9096  -32.9326 H   0  0  0  0  0  0  0  0  0  0  0  0
   -5.1561   23.9974  -32.1044 H   0  0  0  0  0  0  0  0  0  0  0  0
   -5.3195   22.8939  -30.6835 H   0  0  0  0  0  0  0  0  0  0  0  0
   -5.1063   24.8143  -28.8442 H   0  0  0  0  0  0  0  0  0  0  0  0
   -4.5166   23.1283  -28.9737 H   0  0  0  0  0  0  0  0  0  0  0  0
   -3.3578   25.1539  -27.4319 H   0  0  0  0  0  0  0  0  0  0  0  0
   -2.5511   23.6221  -27.9504 H   0  0  0  0  0  0  0  0  0  0  0  0
   -0.7467   26.8268  -28.8213 H   0  0  0  0  0  0  0  0  0  0  0  0
   -1.8300   26.4863  -27.4093 H   0  0  0  0  0  0  0  0  0  0  0  0
    0.6538   25.7956  -27.1828 H   0  0  0  0  0  0  0  0  0  0  0  0
   -0.5926   24.5631  -26.7769 H   0  0  0  0  0  0  0  0  0  0  0  0
    1.2184   22.4441  -28.1638 H   0  0  0  0  0  0  0  0  0  0  0  0
   -0.2704   22.8649  -27.2388 H   0  0  0  0  0  0  0  0  0  0  0  0
   -0.0133   21.4587  -29.7847 H   0  0  0  0  0  0  0  0  0  0  0  0
   -1.4717   21.7152  -28.7567 H   0  0  0  0  0  0  0  0  0  0  0  0
   -0.6580   24.0770  -30.0980 H   0  0  0  0  0  0  0  0  0  0  0  0
   -2.1570   23.3360  -30.0030 H   0  0  0  0  0  0  0  0  0  0  0  0
   -5.6882   22.2336  -33.1087 H   0  0  0  0  0  0  0  0  0  0  0  0
   -5.1069   20.7763  -34.0740 H   0  0  0  0  0  0  0  0  0  0  0  0
   -5.7317   18.5038  -33.4099 H   0  0  0  0  0  0  0  0  0  0  0  0
   -7.6755   17.1030  -32.7403 H   0  0  0  0  0  0  0  0  0  0  0  0
   -9.6091   18.1278  -31.5516 H   0  0  0  0  0  0  0  0  0  0  0  0
   -9.5968   20.5565  -31.0019 H   0  0  0  0  0  0  0  0  0  0  0  0
  1  2  1  0
  3  2  1  6
  3  4  1  0
  3  5  1  0
  5  6  1  0
  6  7  1  0
  7  8  1  0
  8  9  1  0
  9 10  1  0
 10 11  1  0
 11 12  1  0
 12 13  1  0
 13 14  1  0
 14 15  1  0
 15 16  1  0
  3 17  1  0
 17 18  1  0
 18 19  2  0
 19 20  1  0
 20 21  2  0
 21 22  1  0
 22 23  2  0
 23 24  1  0
 24 25  2  0
 24 26  1  0
 23 18  1  0
  1 27  1  0
  1 28  1  0
  1 29  1  0
  2 30  1  0
  2 31  1  0
  4 32  1  0
  4 33  1  0
  4 34  1  0
  5 35  1  0
  5 36  1  0
  6 37  1  0
  6 38  1  0
  8 39  1  0
  8 40  1  0
  9 41  1  0
  9 42  1  0
 11 43  1  0
 11 44  1  0
 12 45  1  0
 12 46  1  0
 14 47  1  0
 14 48  1  0
 15 49  1  0
 15 50  1  0
 16 51  1  0
 16 52  1  0
 17 53  1  0
 17 54  1  0
 19 55  1  0
 20 56  1  0
 21 57  1  0
 22 58  1  0
M  CHG  3   3   1  24   1  26  -1
M  END
>  <UniqueID>  (3) 
3

>  <SMILES>  (3) 
CC[N@@+](C)(CCOCCOCCOCCN)Cc1ccccc1[N+](=O)[O-]

>  <Energy>  (3) 
79.77818799697638

>  <Genealogy>  (3) 
CC[N@@+](C)(CCOCCOCCOCCN)Cc1ccccc1[N+](=O)[O-] (chirality)
CC[N@@+](C)(CCOCCOCCOCCN)Cc1ccccc1[N+](=O)[O-] (3D coordinates assigned)
CC[N@@+](C)(CCOCCOCCOCCN)Cc1ccccc1[N+](=O)[O-] (optimized conformer: 79.77818799697638 kcal/mol)

>  <smiles>  (3) 
CC[N+](C)(CCOCCOCCOCCN)Cc1ccccc1[N+](=O)[O-]

>  <score_type>  (3) 
oracle

>  <origin>  (3) 
adg

>  <m_score__min__energy>  (3) 
-5.9699999999999998

>  <m_primary>  (3) 
energy

$$$$
3:0
     RDKit          3D

 59 61  0  0  0  0  0  0  0  0999 V2000
   -9.4950   19.5180  -32.3510 C   0  0  0  0  0  0  0  0  0  0  0  0
   -8.3800   18.8880  -31.7290 O   0  0  0  0  0  0  0  0  0  0  0  0
   -7.2030   18.5220  -32.3980 C   0  0  0  0  0  0  0  0  0  0  0  0
   -6.7510   19.3330  -33.4440 C   0  0  0  0  0  0  0  0  0  0  0  0
   -5.5840   19.0100  -34.1420 C   0  0  0  0  0  0  0  0  0  0  0  0
   -4.8400   17.8680  -33.8000 C   0  0  0  0  0  0  0  0  0  0  0  0
   -3.6030   17.5400  -34.5530 C   0  0  0  0  0  0  0  0  0  0  0  0
   -3.6780   16.7710  -35.5500 O   0  0  0  0  0  0  0  0  0  0  0  0
   -2.2530   18.0680  -34.1330 C   0  0  0  0  0  0  0  0  0  0  0  0
   -2.2780   19.5820  -33.8580 C   0  0  0  0  0  0  0  0  0  0  0  0
   -2.0390   19.8830  -32.4280 N   0  0  0  0  0  0  0  0  0  0  0  0
   -0.9690   20.9040  -32.2430 C   0  0  0  0  0  0  0  0  0  0  0  0
   -1.2170   21.8260  -31.0450 C   0  0  0  0  0  0  0  0  0  0  0  0
   -2.5420   22.5890  -31.2480 C   0  0  0  0  0  0  0  0  0  0  0  0
   -2.9410   23.3030  -30.0170 N   0  0  0  0  0  0  0  0  0  0  0  0
   -2.2680   23.0460  -28.7380 C   0  0  0  0  0  0  0  0  0  0  0  0
   -4.0200   24.2610  -30.0260 C   0  0  0  0  0  0  0  0  0  0  0  0
   -3.8840   25.3400  -30.6660 O   0  0  0  0  0  0  0  0  0  0  0  0
   -5.3170   23.9900  -29.3060 C   0  0  0  0  0  0  0  0  0  0  0  0
   -6.3680   23.4560  -30.2440 C   0  0  0  0  0  0  0  0  0  0  0  0
   -7.3480   22.5660  -29.7720 C   0  0  0  0  0  0  0  0  0  0  0  0
   -8.3410   22.0890  -30.6350 C   0  0  0  0  0  0  0  0  0  0  0  0
   -8.3670   22.5030  -31.9690 C   0  0  0  0  0  0  0  0  0  0  0  0
   -7.4020   23.3970  -32.4430 C   0  0  0  0  0  0  0  0  0  0  0  0
   -6.4080   23.8770  -31.5840 C   0  0  0  0  0  0  0  0  0  0  0  0
   -3.6790   21.6740  -31.7660 C   0  0  0  0  0  0  0  0  0  0  0  0
   -3.3070   20.1830  -31.7140 C   0  0  0  0  0  0  0  0  0  0  0  0
   -5.3000   17.0460  -32.7540 C   0  0  0  0  0  0  0  0  0  0  0  0
   -6.4680   17.3710  -32.0580 C   0  0  0  0  0  0  0  0  0  0  0  0
  -10.1766   19.9031  -31.5783 H   0  0  0  0  0  0  0  0  0  0  0  0
   -9.1431   20.3508  -32.9776 H   0  0  0  0  0  0  0  0  0  0  0  0
  -10.0267   18.7869  -32.9776 H   0  0  0  0  0  0  0  0  0  0  0  0
   -7.3193   20.2335  -33.7199 H   0  0  0  0  0  0  0  0  0  0  0  0
   -5.2451   19.6551  -34.9660 H   0  0  0  0  0  0  0  0  0  0  0  0
   -1.9389   17.5471  -33.2165 H   0  0  0  0  0  0  0  0  0  0  0  0
   -1.5492   17.8875  -34.9588 H   0  0  0  0  0  0  0  0  0  0  0  0
   -1.4952   20.0666  -34.4600 H   0  0  0  0  0  0  0  0  0  0  0  0
   -3.2744   19.9629  -34.1267 H   0  0  0  0  0  0  0  0  0  0  0  0
   -0.0116   20.3839  -32.0919 H   0  0  0  0  0  0  0  0  0  0  0  0
   -0.9584   21.5342  -33.1445 H   0  0  0  0  0  0  0  0  0  0  0  0
   -1.2775   21.2246  -30.1260 H   0  0  0  0  0  0  0  0  0  0  0  0
   -0.3894   22.5455  -30.9590 H   0  0  0  0  0  0  0  0  0  0  0  0
   -2.3614   23.3389  -32.0323 H   0  0  0  0  0  0  0  0  0  0  0  0
   -2.9441   23.3042  -27.9096 H   0  0  0  0  0  0  0  0  0  0  0  0
   -1.9982   21.9816  -28.6730 H   0  0  0  0  0  0  0  0  0  0  0  0
   -1.3574   23.6597  -28.6730 H   0  0  0  0  0  0  0  0  0  0  0  0
   -5.1373   23.2501  -28.5121 H   0  0  0  0  0  0  0  0  0  0  0  0
   -5.6814   24.9377  -28.8829 H   0  0  0  0  0  0  0  0  0  0  0  0
   -7.3344   22.2432  -28.7205 H   0  0  0  0  0  0  0  0  0  0  0  0
   -9.1019   21.3873  -30.2626 H   0  0  0  0  0  0  0  0  0  0  0  0
   -9.1469   22.1256  -32.6467 H   0  0  0  0  0  0  0  0  0  0  0  0
   -7.4246   23.7234  -33.4932 H   0  0  0  0  0  0  0  0  0  0  0  0
   -5.6553   24.5863  -31.9586 H   0  0  0  0  0  0  0  0  0  0  0  0
   -4.5725   21.8362  -31.1452 H   0  0  0  0  0  0  0  0  0  0  0  0
   -3.8639   21.9351  -32.8184 H   0  0  0  0  0  0  0  0  0  0  0  0
   -3.1971   19.8843  -30.6611 H   0  0  0  0  0  0  0  0  0  0  0  0
   -4.1105   19.6225  -32.2142 H   0  0  0  0  0  0  0  0  0  0  0  0
   -4.7363   16.1413  -32.4823 H   0  0  0  0  0  0  0  0  0  0  0  0
   -6.8147   16.7231  -31.2395 H   0  0  0  0  0  0  0  0  0  0  0  0
  1  2  1  0
  2  3  1  0
  3  4  2  0
  4  5  1  0
  5  6  2  0
  6  7  1  0
  7  8  2  0
  7  9  1  0
  9 10  1  0
 10 11  1  0
 11 12  1  0
 12 13  1  0
 13 14  1  0
 14 15  1  0
 15 16  1  0
 15 17  1  0
 17 18  2  0
 17 19  1  0
 19 20  1  0
 20 21  2  0
 21 22  1  0
 22 23  2  0
 23 24  1  0
 24 25  2  0
 14 26  1  0
 26 27  1  0
  6 28  1  0
 28 29  2  0
 29  3  1  0
 27 11  1  0
 25 20  1  0
  1 30  1  0
  1 31  1  0
  1 32  1  0
  4 33  1  0
  5 34  1  0
  9 35  1  0
  9 36  1  0
 10 37  1  0
 10 38  1  0
 12 39  1  0
 12 40  1  0
 13 41  1  0
 13 42  1  0
 14 43  1  0
 16 44  1  0
 16 45  1  0
 16 46  1  0
 19 47  1  0
 19 48  1  0
 21 49  1  0
 22 50  1  0
 23 51  1  0
 24 52  1  0
 25 53  1  0
 26 54  1  0
 26 55  1  0
 27 56  1  0
 27 57  1  0
 28 58  1  0
 29 59  1  0
M  END
>  <UniqueID>  (4) 
4

>  <SMILES>  (4) 
COc1ccc(C(=O)CCN2CCC(N(C)C(=O)Cc3ccccc3)CC2)cc1

>  <Energy>  (4) 
70.70538658215777

>  <Genealogy>  (4) 
COc1ccc(C(=O)CCN2CCC(N(C)C(=O)Cc3ccccc3)CC2)cc1 (3D coordinates assigned)
COc1ccc(C(=O)CCN2CCC(N(C)C(=O)Cc3ccccc3)CC2)cc1 (nonaromatic ring conformer: 70.70538658215777 kcal/mol)

>  <smiles>  (4) 
COc1ccc(C(=O)CCN2CCC(N(C)C(=O)Cc3ccccc3)CC2)cc1

>  <score_type>  (4) 
oracle

>  <origin>  (4) 
adg

>  <m_score__min__energy>  (4) 
-9.3900000000000006

>  <m_primary>  (4) 
energy

$$$$
4:0
     RDKit          3D

 53 56  0  0  0  0  0  0  0  0999 V2000
   -1.6110   26.1880  -25.0160 C   0  0  0  0  0  0  0  0  0  0  0  0
   -2.1090   25.5360  -26.2710 C   0  0  0  0  0  0  0  0  0  0  0  0
   -1.3350   25.5760  -27.4400 C   0  0  0  0  0  0  0  0  0  0  0  0
   -1.8090   24.9960  -28.6190 C   0  0  0  0  0  0  0  0  0  0  0  0
   -3.0690   24.3790  -28.6480 C   0  0  0  0  0  0  0  0  0  0  0  0
   -3.5490   23.7720  -29.8600 N   0  0  0  0  0  0  0  0  0  0  0  0
   -4.7240   24.0360  -30.4760 C   0  0  0  0  0  0  0  0  0  0  0  0
   -5.7250   25.0560  -30.0250 C   0  0  0  0  0  0  0  0  0  0  0  0
   -4.8680   23.2400  -31.5940 C   0  0  0  0  0  0  0  0  0  0  0  0
   -3.7480   22.4320  -31.6510 C   0  0  0  0  0  0  0  0  0  0  0  0
   -3.5390   21.3780  -32.6680 C   0  0  0  0  0  0  0  0  0  0  0  0
   -4.0700   21.5190  -33.8030 O   0  0  0  0  0  0  0  0  0  0  0  0
   -2.7890   20.1060  -32.3810 C   0  0  0  0  0  0  0  0  0  0  0  0
   -2.6600   19.0460  -33.8670 S   0  0  0  0  0  0  0  0  0  0  0  0
   -4.3870   18.5740  -33.8590 C   0  0  0  0  0  0  0  0  0  0  0  0
   -5.0520   18.1240  -34.9370 N   0  0  0  0  0  0  0  0  0  0  0  0
   -6.2930   17.8950  -34.5350 N   0  0  0  0  0  0  0  0  0  0  0  0
   -6.3290   18.2120  -33.2270 C   0  0  0  0  0  0  0  0  0  0  0  0
   -7.5540   18.1350  -32.3760 C   0  0  0  0  0  0  0  0  0  0  0  0
   -8.0540   19.5200  -32.0740 C   0  0  0  0  0  0  0  0  0  0  0  0
   -7.1680   20.5080  -31.6100 C   0  0  0  0  0  0  0  0  0  0  0  0
   -7.6240   21.8070  -31.3670 C   0  0  0  0  0  0  0  0  0  0  0  0
   -8.9660   22.1310  -31.5910 C   0  0  0  0  0  0  0  0  0  0  0  0
   -9.8510   21.1580  -32.0630 C   0  0  0  0  0  0  0  0  0  0  0  0
   -9.3980   19.8580  -32.3090 C   0  0  0  0  0  0  0  0  0  0  0  0
   -5.1610   18.6290  -32.8040 O   0  0  0  0  0  0  0  0  0  0  0  0
   -2.9380   22.7970  -30.5770 C   0  0  0  0  0  0  0  0  0  0  0  0
   -1.5540   22.2840  -30.2950 C   0  0  0  0  0  0  0  0  0  0  0  0
   -3.8520   24.3550  -27.4840 C   0  0  0  0  0  0  0  0  0  0  0  0
   -3.3770   24.9350  -26.3040 C   0  0  0  0  0  0  0  0  0  0  0  0
   -2.0161   25.6576  -24.1416 H   0  0  0  0  0  0  0  0  0  0  0  0
   -0.5120   26.1472  -24.9928 H   0  0  0  0  0  0  0  0  0  0  0  0
   -1.9395   27.2375  -24.9928 H   0  0  0  0  0  0  0  0  0  0  0  0
   -0.3504   26.0663  -27.4283 H   0  0  0  0  0  0  0  0  0  0  0  0
   -1.1917   25.0230  -29.5290 H   0  0  0  0  0  0  0  0  0  0  0  0
   -5.7513   25.0828  -28.9256 H   0  0  0  0  0  0  0  0  0  0  0  0
   -5.4382   26.0460  -30.4092 H   0  0  0  0  0  0  0  0  0  0  0  0
   -6.7203   24.7879  -30.4092 H   0  0  0  0  0  0  0  0  0  0  0  0
   -5.7100   23.2471  -32.3018 H   0  0  0  0  0  0  0  0  0  0  0  0
   -1.7761   20.3598  -32.0352 H   0  0  0  0  0  0  0  0  0  0  0  0
   -3.3411   19.5491  -31.6096 H   0  0  0  0  0  0  0  0  0  0  0  0
   -8.3347   17.5736  -32.9102 H   0  0  0  0  0  0  0  0  0  0  0  0
   -7.3088   17.6245  -31.4330 H   0  0  0  0  0  0  0  0  0  0  0  0
   -6.1109   20.2577  -31.4373 H   0  0  0  0  0  0  0  0  0  0  0  0
   -6.9270   22.5746  -30.9995 H   0  0  0  0  0  0  0  0  0  0  0  0
   -9.3250   23.1522  -31.3955 H   0  0  0  0  0  0  0  0  0  0  0  0
  -10.9056   21.4150  -32.2413 H   0  0  0  0  0  0  0  0  0  0  0  0
  -10.0961   19.0970  -32.6879 H   0  0  0  0  0  0  0  0  0  0  0  0
   -1.3988   22.2265  -29.2075 H   0  0  0  0  0  0  0  0  0  0  0  0
   -1.4372   21.2829  -30.7355 H   0  0  0  0  0  0  0  0  0  0  0  0
   -0.8129   22.9672  -30.7355 H   0  0  0  0  0  0  0  0  0  0  0  0
   -4.8431   23.8781  -27.4999 H   0  0  0  0  0  0  0  0  0  0  0  0
   -3.9997   24.9203  -25.3974 H   0  0  0  0  0  0  0  0  0  0  0  0
  1  2  1  0
  2  3  2  0
  3  4  1  0
  4  5  2  0
  5  6  1  0
  6  7  1  0
  7  8  1  0
  7  9  2  0
  9 10  1  0
 10 11  1  0
 11 12  2  0
 11 13  1  0
 13 14  1  0
 14 15  1  0
 15 16  2  0
 16 17  1  0
 17 18  2  0
 18 19  1  0
 19 20  1  0
 20 21  2  0
 21 22  1  0
 22 23  2  0
 23 24  1  0
 24 25  2  0
 18 26  1  0
 10 27  2  0
 27 28  1  0
  5 29  1  0
 29 30  2  0
 30  2  1  0
 27  6  1  0
 26 15  1  0
 25 20  1  0
  1 31  1  0
  1 32  1  0
  1 33  1  0
  3 34  1  0
  4 35  1  0
  8 36  1  0
  8 37  1  0
  8 38  1  0
  9 39  1  0
 13 40  1  0
 13 41  1  0
 19 42  1  0
 19 43  1  0
 21 44  1  0
 22 45  1  0
 23 46  1  0
 24 47  1  0
 25 48  1  0
 28 49  1  0
 28 50  1  0
 28 51  1  0
 29 52  1  0
 30 53  1  0
M  END
>  <UniqueID>  (5) 
5

>  <SMILES>  (5) 
Cc1ccc(-n2c(C)cc(C(=O)CSc3nnc(Cc4ccccc4)o3)c2C)cc1

>  <Energy>  (5) 
117.75533585818405

>  <Genealogy>  (5) 
Cc1ccc(-n2c(C)cc(C(=O)CSc3nnc(Cc4ccccc4)o3)c2C)cc1 (3D coordinates assigned)
Cc1ccc(-n2c(C)cc(C(=O)CSc3nnc(Cc4ccccc4)o3)c2C)cc1 (optimized conformer: 117.75533585818405 kcal/mol)

>  <smiles>  (5) 
Cc1ccc(-n2c(C)cc(C(=O)CSc3nnc(Cc4ccccc4)o3)c2C)cc1

>  <score_type>  (5) 
oracle

>  <origin>  (5) 
adg

>  <m_score__min__energy>  (5) 
-11.33

>  <m_primary>  (5) 
energy

$$$$
5:0
     RDKit          3D

 53 58  0  0  0  0  0  0  0  0999 V2000
    3.1170   18.7250  -33.1700 C   0  0  0  0  0  0  0  0  0  0  0  0
    2.7110   19.2310  -31.9030 O   0  0  0  0  0  0  0  0  0  0  0  0
    1.3870   19.5480  -31.5640 C   0  0  0  0  0  0  0  0  0  0  0  0
    0.5280   20.2390  -32.4400 C   0  0  0  0  0  0  0  0  0  0  0  0
   -0.7850   20.5310  -32.0560 C   0  0  0  0  0  0  0  0  0  0  0  0
   -1.2630   20.1350  -30.7960 C   0  0  0  0  0  0  0  0  0  0  0  0
   -2.6830   20.4610  -30.3840 C   0  0  2  0  0  0  0  0  0  0  0  0
   -3.6280   20.2600  -31.5540 C   0  0  0  0  0  0  0  0  0  0  0  0
   -3.9200   18.9420  -31.9740 C   0  0  0  0  0  0  0  0  0  0  0  0
   -4.7620   18.7690  -33.0640 C   0  0  0  0  0  0  0  0  0  0  0  0
   -5.3030   19.8180  -33.7290 C   0  0  0  0  0  0  0  0  0  0  0  0
   -5.0500   21.1340  -33.3620 C   0  0  0  0  0  0  0  0  0  0  0  0
   -4.2070   21.3700  -32.2540 C   0  0  0  0  0  0  0  0  0  0  0  0
   -3.9130   22.8010  -31.8700 C   0  0  0  0  0  0  0  0  0  0  0  0
   -3.2880   22.8860  -30.5160 C   0  0  0  0  0  0  0  0  0  0  0  0
   -3.0900   24.0110  -29.7430 C   0  0  0  0  0  0  0  0  0  0  0  0
   -3.5040   25.3010  -30.0530 O   0  0  0  0  0  0  0  0  0  0  0  0
   -2.4290   23.6640  -28.6180 N   0  0  0  0  0  0  0  0  0  0  0  0
   -2.0560   24.5160  -27.5230 C   0  0  0  0  0  0  0  0  0  0  0  0
   -3.0450   24.9280  -26.6150 C   0  0  0  0  0  0  0  0  0  0  0  0
   -2.7370   25.8210  -25.5880 C   0  0  0  0  0  0  0  0  0  0  0  0
   -1.4390   26.3130  -25.4560 C   0  0  0  0  0  0  0  0  0  0  0  0
   -0.4410   25.9000  -26.3420 C   0  0  0  0  0  0  0  0  0  0  0  0
   -0.7290   24.9870  -27.3730 C   0  0  0  0  0  0  0  0  0  0  0  0
    0.3340   24.5160  -28.2200 N   0  0  0  0  0  0  0  0  0  0  0  0
    1.5240   24.6430  -27.8670 O   0  0  0  0  0  0  0  0  0  0  0  0
    0.0540   23.7740  -29.3450 O   0  0  0  0  0  0  0  0  0  0  0  0
   -2.2480   22.3290  -28.7260 C   0  0  0  0  0  0  0  0  0  0  0  0
   -1.6520   21.6290  -27.8630 O   0  0  0  0  0  0  0  0  0  0  0  0
   -2.7550   21.8310  -29.8750 N   0  0  0  0  0  0  0  0  0  0  0  0
   -6.0890   19.3520  -34.7650 O   0  0  0  0  0  0  0  0  0  0  0  0
   -6.0400   17.9190  -34.7480 C   0  0  0  0  0  0  0  0  0  0  0  0
   -5.1820   17.5890  -33.6480 O   0  0  0  0  0  0  0  0  0  0  0  0
   -0.4000   19.4510  -29.9230 C   0  0  0  0  0  0  0  0  0  0  0  0
    0.9110   19.1590  -30.3070 C   0  0  0  0  0  0  0  0  0  0  0  0
    3.7993   17.8747  -33.0237 H   0  0  0  0  0  0  0  0  0  0  0  0
    2.2322   18.3926  -33.7327 H   0  0  0  0  0  0  0  0  0  0  0  0
    3.6333   19.5167  -33.7327 H   0  0  0  0  0  0  0  0  0  0  0  0
    0.8910   20.5505  -33.4305 H   0  0  0  0  0  0  0  0  0  0  0  0
   -1.4477   21.0745  -32.7455 H   0  0  0  0  0  0  0  0  0  0  0  0
   -2.9912   19.7788  -29.5780 H   0  0  0  0  0  0  0  0  0  0  0  0
   -3.4907   18.0752  -31.4501 H   0  0  0  0  0  0  0  0  0  0  0  0
   -5.4951   21.9707  -33.9204 H   0  0  0  0  0  0  0  0  0  0  0  0
   -3.2244   23.2355  -32.6096 H   0  0  0  0  0  0  0  0  0  0  0  0
   -4.8631   23.3549  -31.8475 H   0  0  0  0  0  0  0  0  0  0  0  0
   -4.0709   24.5436  -26.7142 H   0  0  0  0  0  0  0  0  0  0  0  0
   -3.5189   26.1371  -24.8818 H   0  0  0  0  0  0  0  0  0  0  0  0
   -1.2007   27.0268  -24.6537 H   0  0  0  0  0  0  0  0  0  0  0  0
    0.5807   26.2927  -26.2324 H   0  0  0  0  0  0  0  0  0  0  0  0
   -7.0452   17.4998  -34.5933 H   0  0  0  0  0  0  0  0  0  0  0  0
   -5.6694   17.5074  -35.6984 H   0  0  0  0  0  0  0  0  0  0  0  0
   -0.7594   19.1433  -28.9300 H   0  0  0  0  0  0  0  0  0  0  0  0
    1.5745   18.6189  -29.6156 H   0  0  0  0  0  0  0  0  0  0  0  0
  1  2  1  0
  2  3  1  0
  3  4  2  0
  4  5  1  0
  5  6  2  0
  6  7  1  0
  7  8  1  0
  8  9  2  0
  9 10  1  0
 10 11  2  0
 11 12  1  0
 12 13  2  0
 13 14  1  0
 14 15  1  0
 15 16  2  0
 16 17  1  0
 16 18  1  0
 18 19  1  0
 19 20  2  0
 20 21  1  0
 21 22  2  0
 22 23  1  0
 23 24  2  0
 24 25  1  0
 25 26  2  0
 25 27  1  0
 18 28  1  0
 28 29  2  0
 28 30  1  0
 11 31  1  0
 31 32  1  0
 32 33  1  0
  6 34  1  0
 34 35  2  0
 35  3  1  0
 30  7  1  0
 13  8  1  0
 30 15  1  0
 33 10  1  0
 24 19  1  0
  1 36  1  0
  1 37  1  0
  1 38  1  0
  4 39  1  0
  5 40  1  0
  7 41  1  1
  9 42  1  0
 12 43  1  0
 14 44  1  0
 14 45  1  0
 20 46  1  0
 21 47  1  0
 22 48  1  0
 23 49  1  0
 32 50  1  0
 32 51  1  0
 34 52  1  0
 35 53  1  0
M  CHG  3  17  -1  25   1  27  -1
M  END
>  <UniqueID>  (6) 
6

>  <SMILES>  (6) 
COc1ccc([C@@H]2c3cc4c(cc3Cc3c([O-])n(-c5ccccc5[N+](=O)[O-])c(=O)n32)OCO4)cc1

>  <Energy>  (6) 
135.77060008129368

>  <Genealogy>  (6) 
COc1ccc(C2c3cc4c(cc3Cc3c([O-])n(-c5ccccc5[N+](=O)[O-])c(=O)n32)OCO4)cc1 (protonated)
COc1ccc([C@@H]2c3cc4c(cc3Cc3c([O-])n(-c5ccccc5[N+](=O)[O-])c(=O)n32)OCO4)cc1 (chirality)
COc1ccc([C@@H]2c3cc4c(cc3Cc3c([O-])n(-c5ccccc5[N+](=O)[O-])c(=O)n32)OCO4)cc1 (3D coordinates assigned)
COc1ccc([C@@H]2c3cc4c(cc3Cc3c([O-])n(-c5ccccc5[N+](=O)[O-])c(=O)n32)OCO4)cc1 (nonaromatic ring conformer: 135.77060008129368 kcal/mol)

>  <smiles>  (6) 
COc1ccc(C2c3cc4c(cc3Cc3c(O)n(-c5ccccc5[N+](=O)[O-])c(=O)n32)OCO4)cc1

>  <score_type>  (6) 
oracle

>  <origin>  (6) 
adg

>  <m_score__min__energy>  (6) 
-10.050000000000001

>  <m_primary>  (6) 
energy

$$$$
6:0
     RDKit          3D

 27 28  0  0  0  0  0  0  0  0999 V2000
   -3.1580   20.8620  -33.3560 C   0  0  0  0  0  0  0  0  0  0  0  0
   -4.6210   20.9330  -33.0750 C   0  0  0  0  0  0  0  0  0  0  0  0
   -5.2330   22.0230  -32.5520 N   0  0  0  0  0  0  0  0  0  0  0  0
   -6.5560   21.8020  -32.3300 C   0  0  0  0  0  0  0  0  0  0  0  0
   -7.4490   22.7430  -31.8000 C   0  0  0  0  0  0  0  0  0  0  0  0
   -6.9800   24.0220  -31.4670 O   0  0  0  0  0  0  0  0  0  0  0  0
   -6.7660   24.4790  -30.1340 C   0  0  0  0  0  0  0  0  0  0  0  0
   -5.3580   25.0500  -30.0050 C   0  0  0  0  0  0  0  0  0  0  0  0
   -4.5740   24.7530  -31.2000 N   0  0  0  0  0  0  0  0  0  0  0  0
   -8.7990   22.3540  -31.6240 C   0  0  0  0  0  0  0  0  0  0  0  0
   -9.2210   21.0560  -31.9710 C   0  0  0  0  0  0  0  0  0  0  0  0
   -8.3120   20.1280  -32.4980 C   0  0  0  0  0  0  0  0  0  0  0  0
   -6.9910   20.5280  -32.6650 C   0  0  0  0  0  0  0  0  0  0  0  0
   -5.6950   19.6370  -33.2570 S   0  0  0  0  0  0  0  0  0  0  0  0
   -2.6032   20.8351  -32.4066 H   0  0  0  0  0  0  0  0  0  0  0  0
   -2.9394   19.9522  -33.9343 H   0  0  0  0  0  0  0  0  0  0  0  0
   -2.8524   21.7464  -33.9343 H   0  0  0  0  0  0  0  0  0  0  0  0
   -4.7410   22.9200  -32.3390 H   0  0  0  0  0  0  0  0  0  0  0  0
   -7.5010   25.2612  -29.8934 H   0  0  0  0  0  0  0  0  0  0  0  0
   -6.8818   23.6357  -29.4373 H   0  0  0  0  0  0  0  0  0  0  0  0
   -5.4202   26.1405  -29.8747 H   0  0  0  0  0  0  0  0  0  0  0  0
   -4.8667   24.5913  -29.1343 H   0  0  0  0  0  0  0  0  0  0  0  0
   -4.2150   25.6550  -31.5890 H   0  0  0  0  0  0  0  0  0  0  0  0
   -5.2260   24.3590  -31.9170 H   0  0  0  0  0  0  0  0  0  0  0  0
   -9.5242   23.0716  -31.2128 H   0  0  0  0  0  0  0  0  0  0  0  0
  -10.2728   20.7679  -31.8273 H   0  0  0  0  0  0  0  0  0  0  0  0
   -8.6346   19.1126  -32.7715 H   0  0  0  0  0  0  0  0  0  0  0  0
  1  2  1  0
  2  3  2  0
  3  4  1  0
  4  5  2  0
  5  6  1  0
  6  7  1  0
  7  8  1  0
  8  9  1  0
  5 10  1  0
 10 11  2  0
 11 12  1  0
 12 13  2  0
 13 14  1  0
 14  2  1  0
 13  4  1  0
  1 15  1  0
  1 16  1  0
  1 17  1  0
  3 18  1  0
  7 19  1  0
  7 20  1  0
  8 21  1  0
  8 22  1  0
  9 23  1  0
  9 24  1  0
 10 25  1  0
 11 26  1  0
 12 27  1  0
M  CHG  1   3   1
M  END
>  <UniqueID>  (7) 
7

>  <SMILES>  (7) 
Cc1[nH+]c2c(OCCN)cccc2s1

>  <Energy>  (7) 
55.23789192139129

>  <Genealogy>  (7) 
Cc1[nH+]c2c(OCCN)cccc2s1 (protonated)
Cc1[nH+]c2c(OCCN)cccc2s1 (3D coordinates assigned)
Cc1[nH+]c2c(OCCN)cccc2s1 (optimized conformer: 55.23789192139129 kcal/mol)

>  <smiles>  (7) 
Cc1nc2c(OCCN)cccc2s1

>  <score_type>  (7) 
oracle

>  <origin>  (7) 
adg

>  <m_score__min__energy>  (7) 
-5.79

>  <m_primary>  (7) 
energy

$$$$
7:0
     RDKit          3D

 65 67  0  0  0  0  0  0  0  0999 V2000
   -6.6150   25.0380  -29.8170 C   0  0  0  0  0  0  0  0  0  0  0  0
   -5.4340   25.5570  -30.6430 C   0  0  0  0  0  0  0  0  0  0  0  0
   -4.3860   24.5170  -30.8170 N   0  0  0  0  0  0  0  0  0  0  0  0
   -3.4190   24.4980  -29.6900 C   0  0  0  0  0  0  0  0  0  0  0  0
   -3.8090   23.4960  -28.6050 C   0  0  0  0  0  0  0  0  0  0  0  0
   -5.0090   23.1760  -30.9640 C   0  0  0  0  0  0  0  0  0  0  0  0
   -4.9020   22.6700  -32.4080 C   0  0  0  0  0  0  0  0  0  0  0  0
   -5.8210   21.5490  -32.6390 N   0  0  0  0  0  0  0  0  0  0  0  0
   -7.1520   21.5140  -32.3700 C   0  0  0  0  0  0  0  0  0  0  0  0
   -7.9600   22.5480  -31.8830 C   0  0  0  0  0  0  0  0  0  0  0  0
   -9.3240   22.2790  -31.6680 C   0  0  0  0  0  0  0  0  0  0  0  0
   -9.8550   20.9990  -31.9400 C   0  0  0  0  0  0  0  0  0  0  0  0
   -9.0300   19.9740  -32.4340 C   0  0  0  0  0  0  0  0  0  0  0  0
   -7.6830   20.2680  -32.6380 C   0  0  0  0  0  0  0  0  0  0  0  0
   -6.6410   19.4940  -33.0950 C   0  0  0  0  0  0  0  0  0  0  0  0
   -6.5940   18.1650  -33.4990 C   0  0  0  0  0  0  0  0  0  0  0  0
   -5.3560   17.6490  -33.9140 C   0  0  0  0  0  0  0  0  0  0  0  0
   -4.1940   18.4610  -33.9280 C   0  0  0  0  0  0  0  0  0  0  0  0
   -2.9490   17.8840  -34.3630 N   0  0  0  0  0  0  0  0  0  0  0  0
   -1.6370   18.2190  -33.8040 C   0  0  0  0  0  0  0  0  0  0  0  0
   -0.9320   19.3260  -34.6160 C   0  0  0  0  0  0  0  0  0  0  0  0
   -1.0390   20.6810  -34.0080 N   0  0  0  0  0  0  0  0  0  0  0  0
    0.1420   21.5450  -34.2790 C   0  0  0  0  0  0  0  0  0  0  0  0
    0.2930   21.9770  -35.7450 C   0  0  0  0  0  0  0  0  0  0  0  0
   -1.3120   20.5870  -32.5480 C   0  0  0  0  0  0  0  0  0  0  0  0
   -1.8170   21.9120  -31.9600 C   0  0  0  0  0  0  0  0  0  0  0  0
   -4.2800   19.8080  -33.5020 C   0  0  0  0  0  0  0  0  0  0  0  0
   -5.5210   20.3000  -33.0860 C   0  0  0  0  0  0  0  0  0  0  0  0
   -6.3857   25.1388  -28.7459 H   0  0  0  0  0  0  0  0  0  0  0  0
   -7.5150   25.6235  -30.0560 H   0  0  0  0  0  0  0  0  0  0  0  0
   -6.7923   23.9790  -30.0560 H   0  0  0  0  0  0  0  0  0  0  0  0
   -5.7996   25.8641  -31.6340 H   0  0  0  0  0  0  0  0  0  0  0  0
   -4.9877   26.4075  -30.1068 H   0  0  0  0  0  0  0  0  0  0  0  0
   -2.4268   24.2276  -30.0804 H   0  0  0  0  0  0  0  0  0  0  0  0
   -3.4140   25.4997  -29.2354 H   0  0  0  0  0  0  0  0  0  0  0  0
   -3.6354   23.9420  -27.6146 H   0  0  0  0  0  0  0  0  0  0  0  0
   -4.8732   23.2380  -28.7096 H   0  0  0  0  0  0  0  0  0  0  0  0
   -3.1992   22.5865  -28.7096 H   0  0  0  0  0  0  0  0  0  0  0  0
   -4.4968   22.4673  -30.2966 H   0  0  0  0  0  0  0  0  0  0  0  0
   -6.0741   23.2560  -30.7010 H   0  0  0  0  0  0  0  0  0  0  0  0
   -5.1537   23.4900  -33.0967 H   0  0  0  0  0  0  0  0  0  0  0  0
   -3.8730   22.3232  -32.5838 H   0  0  0  0  0  0  0  0  0  0  0  0
   -7.5402   23.5431  -31.6742 H   0  0  0  0  0  0  0  0  0  0  0  0
   -9.9825   23.0724  -31.2848 H   0  0  0  0  0  0  0  0  0  0  0  0
  -10.9229   20.8026  -31.7638 H   0  0  0  0  0  0  0  0  0  0  0  0
   -9.4335   18.9742  -32.6521 H   0  0  0  0  0  0  0  0  0  0  0  0
   -7.4976   17.5377  -33.4938 H   0  0  0  0  0  0  0  0  0  0  0  0
   -5.2866   16.5986  -34.2332 H   0  0  0  0  0  0  0  0  0  0  0  0
   -2.9670   17.2120  -35.1630 H   0  0  0  0  0  0  0  0  0  0  0  0
   -1.7696   18.5667  -32.7689 H   0  0  0  0  0  0  0  0  0  0  0  0
   -1.0096   17.3163  -33.8414 H   0  0  0  0  0  0  0  0  0  0  0  0
    0.1339   19.0677  -34.7011 H   0  0  0  0  0  0  0  0  0  0  0  0
   -1.4341   19.3740  -35.5935 H   0  0  0  0  0  0  0  0  0  0  0  0
   -1.8550   21.1700  -34.4480 H   0  0  0  0  0  0  0  0  0  0  0  0
    0.0537   22.4509  -33.6614 H   0  0  0  0  0  0  0  0  0  0  0  0
    1.0310   20.9440  -34.0372 H   0  0  0  0  0  0  0  0  0  0  0  0
    0.6557   23.0147  -35.7860 H   0  0  0  0  0  0  0  0  0  0  0  0
    1.0136   21.3165  -36.2495 H   0  0  0  0  0  0  0  0  0  0  0  0
   -0.6821   21.9092  -36.2495 H   0  0  0  0  0  0  0  0  0  0  0  0
   -2.0752   19.8127  -32.3806 H   0  0  0  0  0  0  0  0  0  0  0  0
   -0.3661   20.3363  -32.0456 H   0  0  0  0  0  0  0  0  0  0  0  0
   -1.7961   21.8573  -30.8616 H   0  0  0  0  0  0  0  0  0  0  0  0
   -1.1691   22.7340  -32.2985 H   0  0  0  0  0  0  0  0  0  0  0  0
   -2.8476   22.0942  -32.2985 H   0  0  0  0  0  0  0  0  0  0  0  0
   -3.3897   20.4540  -33.4983 H   0  0  0  0  0  0  0  0  0  0  0  0
  1  2  1  0
  2  3  1  0
  3  4  1  0
  4  5  1  0
  3  6  1  0
  6  7  1  0
  7  8  1  0
  8  9  1  0
  9 10  2  0
 10 11  1  0
 11 12  2  0
 12 13  1  0
 13 14  2  0
 14 15  1  0
 15 16  2  0
 16 17  1  0
 17 18  2  0
 18 19  1  0
 19 20  1  0
 20 21  1  0
 21 22  1  0
 22 23  1  0
 23 24  1  0
 22 25  1  0
 25 26  1  0
 18 27  1  0
 27 28  2  0
 28  8  1  0
 14  9  1  0
 28 15  1  0
  1 29  1  0
  1 30  1  0
  1 31  1  0
  2 32  1  0
  2 33  1  0
  4 34  1  0
  4 35  1  0
  5 36  1  0
  5 37  1  0
  5 38  1  0
  6 39  1  0
  6 40  1  0
  7 41  1  0
  7 42  1  0
 10 43  1  0
 11 44  1  0
 12 45  1  0
 13 46  1  0
 16 47  1  0
 17 48  1  0
 19 49  1  0
 20 50  1  0
 20 51  1  0
 21 52  1  0
 21 53  1  0
 22 54  1  0
 23 55  1  0
 23 56  1  0
 24 57  1  0
 24 58  1  0
 24 59  1  0
 25 60  1  0
 25 61  1  0
 26 62  1  0
 26 63  1  0
 26 64  1  0
 27 65  1  0
M  CHG  1  22   1
M  END
>  <UniqueID>  (8) 
8

>  <SMILES>  (8) 
CCN(CC)CCn1c2ccccc2c2ccc(NCC[NH+](CC)CC)cc21

>  <Energy>  (8) 
106.64660507552989

>  <Genealogy>  (8) 
CCN(CC)CCn1c2ccccc2c2ccc(NCC[NH+](CC)CC)cc21 (protonated)
CCN(CC)CCn1c2ccccc2c2ccc(NCC[NH+](CC)CC)cc21 (3D coordinates assigned)
CCN(CC)CCn1c2ccccc2c2ccc(NCC[NH+](CC)CC)cc21 (optimized conformer: 106.64660507552989 kcal/mol)

>  <smiles>  (8) 
CCN(CC)CCNc1ccc2c3ccccc3n(CCN(CC)CC)c2c1

>  <score_type>  (8) 
oracle

>  <origin>  (8) 
adg

>  <m_score__min__energy>  (8) 
-8.2400000000000002

>  <m_primary>  (8) 
energy

$$$$
8:0
     RDKit          3D

 36 38  0  0  0  0  0  0  0  0999 V2000
   -5.9149   18.5932  -34.4657 H   0  0  0  0  0  0  0  0  0  0  0  0
   -5.9960   19.4220  -33.7470 C   0  0  0  0  0  0  0  0  0  0  0  0
   -4.8780   20.2100  -33.4600 C   0  0  0  0  0  0  0  0  0  0  0  0
   -3.9180   20.0034  -33.9557 H   0  0  0  0  0  0  0  0  0  0  0  0
   -4.9790   21.2610  -32.5430 C   0  0  0  0  0  0  0  0  0  0  0  0
   -4.0980   21.8816  -32.3226 H   0  0  0  0  0  0  0  0  0  0  0  0
   -6.2000   21.5280  -31.9020 C   0  0  0  0  0  0  0  0  0  0  0  0
   -6.3050   22.6130  -30.9620 N   0  0  0  0  0  0  0  0  0  0  0  0
   -5.1650   23.4430  -30.6650 C   0  0  0  0  0  0  0  0  0  0  0  0
   -4.9710   24.6650  -31.2130 N   0  0  0  0  0  0  0  0  0  0  0  0
   -3.8720   25.2750  -30.7730 N   0  0  0  0  0  0  0  0  0  0  0  0
   -3.1840   24.5510  -29.8630 C   0  0  0  0  0  0  0  0  0  0  0  0
   -2.0810   24.9880  -29.3280 N   0  0  0  0  0  0  0  0  0  0  0  0
   -0.8970   24.2440  -29.0010 C   0  0  0  0  0  0  0  0  0  0  0  0
   -0.0320   24.7850  -28.2620 O   0  0  0  0  0  0  0  0  0  0  0  0
   -0.7180   22.8920  -29.4470 N   0  0  0  0  0  0  0  0  0  0  0  0
   -0.9440   21.6960  -28.6880 C   0  0  0  0  0  0  0  0  0  0  0  0
   -1.6570   21.7910  -27.4850 C   0  0  0  0  0  0  0  0  0  0  0  0
   -2.0118   22.7719  -27.1357 H   0  0  0  0  0  0  0  0  0  0  0  0
   -1.9200   20.6460  -26.7260 C   0  0  0  0  0  0  0  0  0  0  0  0
   -2.4693   20.7303  -25.7767 H   0  0  0  0  0  0  0  0  0  0  0  0
   -1.4860   19.3960  -27.1720 C   0  0  0  0  0  0  0  0  0  0  0  0
   -1.7460   18.2860  -26.4370 F   0  0  0  0  0  0  0  0  0  0  0  0
   -0.7950   19.2870  -28.3830 C   0  0  0  0  0  0  0  0  0  0  0  0
   -0.4596   18.3012  -28.7376 H   0  0  0  0  0  0  0  0  0  0  0  0
   -0.5300   20.4310  -29.1440 C   0  0  0  0  0  0  0  0  0  0  0  0
    0.0036   20.3410  -30.1017 H   0  0  0  0  0  0  0  0  0  0  0  0
   -3.9430   23.0700  -29.5620 S   0  0  0  0  0  0  0  0  0  0  0  0
   -7.5360   22.7790  -30.1860 C   0  0  0  0  0  0  0  0  0  0  0  0
   -7.2996   22.7471  -29.1122 H   0  0  0  0  0  0  0  0  0  0  0  0
   -7.9964   23.7474  -30.4315 H   0  0  0  0  0  0  0  0  0  0  0  0
   -8.2365   21.9672  -30.4315 H   0  0  0  0  0  0  0  0  0  0  0  0
   -7.3210   20.7370  -32.2030 C   0  0  0  0  0  0  0  0  0  0  0  0
   -8.2847   20.9442  -31.7147 H   0  0  0  0  0  0  0  0  0  0  0  0
   -7.2170   19.6870  -33.1210 C   0  0  0  0  0  0  0  0  0  0  0  0
   -8.0975   19.0689  -33.3506 H   0  0  0  0  0  0  0  0  0  0  0  0
  1  2  1  0
  2  3  2  0
  3  4  1  0
  3  5  1  0
  5  6  1  0
  5  7  2  0
  7  8  1  0
  8  9  1  0
  9 10  2  0
 10 11  1  0
 11 12  1  0
 12 13  2  0
 13 14  1  0
 14 15  2  0
 14 16  1  0
 16 17  1  0
 17 18  2  0
 18 19  1  0
 18 20  1  0
 20 21  1  0
 20 22  2  0
 22 23  1  0
 22 24  1  0
 24 25  1  0
 24 26  2  0
 26 27  1  0
 12 28  1  0
  8 29  1  0
 29 30  1  0
 29 31  1  0
 29 32  1  0
  7 33  1  0
 33 34  1  0
 33 35  2  0
 35 36  1  0
 35  2  1  0
 28  9  1  0
 26 17  1  0
M  CHG  2  11  -1  16  -1
M  END
>  <UniqueID>  (9) 
9

>  <SMILES>  (9) 
CN(c1ccccc1)c1n[n-]/c(=N/C(=O)[N-]c2ccc(F)cc2)s1

>  <Energy>  (9) 
85.33941028003156

>  <Genealogy>  (9) 
CN(c1ccccc1)c1n[n-]c(=NC(=O)[N-]c2ccc(F)cc2)s1 (protonated)
CN(c1ccccc1)c1n[n-]/c(=N/C(=O)[N-]c2ccc(F)cc2)s1 (cis-trans isomerization)
CN(c1ccccc1)c1n[n-]/c(=N/C(=O)[N-]c2ccc(F)cc2)s1 (3D coordinates assigned)
CN(c1ccccc1)c1n[n-]/c(=N/C(=O)[N-]c2ccc(F)cc2)s1 (optimized conformer: 85.33941028003156 kcal/mol)

>  <smiles>  (9) 
CN(c1ccccc1)c1n[nH]c(=NC(=O)Nc2ccc(F)cc2)s1

>  <score_type>  (9) 
oracle

>  <origin>  (9) 
adg

>  <m_score__min__energy>  (9) 
-10.140000000000001

>  <m_primary>  (9) 
energy

$$$$
9:0
     RDKit          3D

 42 44  0  0  0  0  0  0  0  0999 V2000
    1.9290   24.9180  -27.4640 C   0  0  0  0  0  0  0  0  0  0  0  0
    0.7190   24.8700  -28.1880 O   0  0  0  0  0  0  0  0  0  0  0  0
   -0.3350   24.4340  -27.3520 C   0  0  0  0  0  0  0  0  0  0  0  0
   -1.6270   25.0600  -27.7730 C   0  0  0  0  0  0  0  0  0  0  0  0
   -2.3430   25.6470  -26.9150 O   0  0  0  0  0  0  0  0  0  0  0  0
   -1.9810   25.0620  -29.1270 O   0  0  0  0  0  0  0  0  0  0  0  0
   -2.7330   24.0560  -29.7480 C   0  0  0  0  0  0  0  0  0  0  0  0
   -2.2980   22.7340  -29.6270 C   0  0  0  0  0  0  0  0  0  0  0  0
   -3.0020   21.6940  -30.2340 C   0  0  0  0  0  0  0  0  0  0  0  0
   -4.1700   21.9600  -30.9690 C   0  0  0  0  0  0  0  0  0  0  0  0
   -4.9160   20.8550  -31.6220 C   0  0  0  0  0  0  0  0  0  0  0  0
   -6.3210   20.8160  -31.5680 C   0  0  0  0  0  0  0  0  0  0  0  0
   -7.0290   19.7790  -32.1810 C   0  0  0  0  0  0  0  0  0  0  0  0
   -6.3460   18.7620  -32.8590 C   0  0  0  0  0  0  0  0  0  0  0  0
   -7.0490   17.7150  -33.4780 C   0  0  0  0  0  0  0  0  0  0  0  0
   -6.3560   16.7050  -34.1510 C   0  0  0  0  0  0  0  0  0  0  0  0
   -4.9600   16.7310  -34.2100 C   0  0  0  0  0  0  0  0  0  0  0  0
   -4.2490   17.7670  -33.5990 C   0  0  0  0  0  0  0  0  0  0  0  0
   -4.9330   18.7890  -32.9210 C   0  0  0  0  0  0  0  0  0  0  0  0
   -4.2290   19.8330  -32.3030 C   0  0  0  0  0  0  0  0  0  0  0  0
   -4.6250   23.2870  -31.0690 C   0  0  0  0  0  0  0  0  0  0  0  0
   -3.9230   24.3410  -30.4490 C   0  0  0  0  0  0  0  0  0  0  0  0
   -4.3940   25.6630  -30.4850 O   0  0  0  0  0  0  0  0  0  0  0  0
   -5.7360   26.0540  -30.2120 C   0  0  0  0  0  0  0  0  0  0  0  0
    1.7117   24.9094  -26.3857 H   0  0  0  0  0  0  0  0  0  0  0  0
    2.5449   24.0436  -27.7209 H   0  0  0  0  0  0  0  0  0  0  0  0
    2.4737   25.8385  -27.7209 H   0  0  0  0  0  0  0  0  0  0  0  0
   -0.4231   23.3397  -27.4205 H   0  0  0  0  0  0  0  0  0  0  0  0
   -0.1152   24.7311  -26.3160 H   0  0  0  0  0  0  0  0  0  0  0  0
   -1.3905   22.5108  -29.0468 H   0  0  0  0  0  0  0  0  0  0  0  0
   -2.6409   20.6595  -30.1368 H   0  0  0  0  0  0  0  0  0  0  0  0
   -6.8678   21.6097  -31.0379 H   0  0  0  0  0  0  0  0  0  0  0  0
   -8.1277   19.7615  -32.1307 H   0  0  0  0  0  0  0  0  0  0  0  0
   -8.1478   17.6901  -33.4329 H   0  0  0  0  0  0  0  0  0  0  0  0
   -6.9106   15.8878  -34.6353 H   0  0  0  0  0  0  0  0  0  0  0  0
   -4.4189   15.9329  -34.7394 H   0  0  0  0  0  0  0  0  0  0  0  0
   -3.1503   17.7821  -33.6492 H   0  0  0  0  0  0  0  0  0  0  0  0
   -3.1302   19.8530  -32.3511 H   0  0  0  0  0  0  0  0  0  0  0  0
   -5.5405   23.5055  -31.6383 H   0  0  0  0  0  0  0  0  0  0  0  0
   -5.8906   26.0991  -29.1239 H   0  0  0  0  0  0  0  0  0  0  0  0
   -5.9257   27.0448  -30.6506 H   0  0  0  0  0  0  0  0  0  0  0  0
   -6.4282   25.3202  -30.6506 H   0  0  0  0  0  0  0  0  0  0  0  0
  1  2  1  0
  2  3  1  0
  3  4  1  0
  4  5  2  0
  4  6  1  0
  6  7  1  0
  7  8  2  0
  8  9  1  0
  9 10  2  0
 10 11  1  0
 11 12  2  0
 12 13  1  0
 13 14  2  0
 14 15  1  0
 15 16  2  0
 16 17  1  0
 17 18  2  0
 18 19  1  0
 19 20  2  0
 10 21  1  0
 21 22  2  0
 22 23  1  0
 23 24  1  0
 22  7  1  0
 20 11  1  0
 19 14  1  0
  1 25  1  0
  1 26  1  0
  1 27  1  0
  3 28  1  0
  3 29  1  0
  8 30  1  0
  9 31  1  0
 12 32  1  0
 13 33  1  0
 15 34  1  0
 16 35  1  0
 17 36  1  0
 18 37  1  0
 20 38  1  0
 21 39  1  0
 24 40  1  0
 24 41  1  0
 24 42  1  0
M  END
>  <UniqueID>  (10) 
10

>  <SMILES>  (10) 
COCC(=O)Oc1ccc(-c2ccc3ccccc3c2)cc1OC

>  <Energy>  (10) 
58.789031096621116

>  <Genealogy>  (10) 
COCC(=O)Oc1ccc(-c2ccc3ccccc3c2)cc1OC (3D coordinates assigned)
COCC(=O)Oc1ccc(-c2ccc3ccccc3c2)cc1OC (optimized conformer: 58.789031096621116 kcal/mol)

>  <smiles>  (10) 
COCC(=O)Oc1ccc(-c2ccc3ccccc3c2)cc1OC

>  <score_type>  (10) 
oracle

>  <origin>  (10) 
adg

>  <m_score__min__energy>  (10) 
-8.3599999999999994

>  <m_primary>  (10) 
energy

$$$$
10:0
     RDKit          3D

 34 36  0  0  0  0  0  0  0  0999 V2000
   -0.6350   27.1320  -23.4770 C   0  0  0  0  0  0  0  0  0  0  0  0
   -0.8100   25.9420  -24.2950 N   0  0  0  0  0  0  0  0  0  0  0  0
   -1.2250   25.9500  -25.5490 N   0  0  0  0  0  0  0  0  0  0  0  0
   -1.1610   24.6530  -25.9220 C   0  0  0  0  0  0  0  0  0  0  0  0
   -1.5350   24.1510  -27.2610 C   0  0  0  0  0  0  0  0  0  0  0  0
   -1.0700   22.9030  -27.7080 C   0  0  0  0  0  0  0  0  0  0  0  0
   -1.4150   22.4360  -28.9780 C   0  0  0  0  0  0  0  0  0  0  0  0
   -2.2340   23.2010  -29.8120 C   0  0  0  0  0  0  0  0  0  0  0  0
   -2.7280   24.4420  -29.3690 C   0  0  0  0  0  0  0  0  0  0  0  0
   -3.5500   25.2720  -30.2030 N   0  0  0  0  0  0  0  0  0  0  0  0
   -4.9570   25.1210  -30.4300 C   0  0  0  0  0  0  0  0  0  0  0  0
   -5.5780   25.9130  -31.1890 O   0  0  0  0  0  0  0  0  0  0  0  0
   -5.6930   24.0070  -29.7610 C   0  0  0  0  0  0  0  0  0  0  0  0
   -6.2630   23.0840  -30.7890 C   0  0  0  0  0  0  0  0  0  0  0  0
   -7.5900   22.6860  -30.8790 C   0  0  0  0  0  0  0  0  0  0  0  0
   -7.8160   21.7510  -31.8970 C   0  0  0  0  0  0  0  0  0  0  0  0
   -6.6680   21.4000  -32.5960 C   0  0  0  0  0  0  0  0  0  0  0  0
   -5.3710   22.2520  -31.9480 S   0  0  0  0  0  0  0  0  0  0  0  0
   -2.3580   24.9170  -28.1050 C   0  0  0  0  0  0  0  0  0  0  0  0
   -0.7000   23.8740  -24.9170 N   0  0  0  0  0  0  0  0  0  0  0  0
   -0.4880   24.7170  -23.9210 N   0  0  0  0  0  0  0  0  0  0  0  0
   -0.6757   26.8550  -22.4132 H   0  0  0  0  0  0  0  0  0  0  0  0
    0.3401   27.5898  -23.6996 H   0  0  0  0  0  0  0  0  0  0  0  0
   -1.4370   27.8511  -23.6996 H   0  0  0  0  0  0  0  0  0  0  0  0
   -0.4311   22.2908  -27.0545 H   0  0  0  0  0  0  0  0  0  0  0  0
   -1.0401   21.4612  -29.3233 H   0  0  0  0  0  0  0  0  0  0  0  0
   -2.4930   22.8330  -30.8158 H   0  0  0  0  0  0  0  0  0  0  0  0
   -5.0002   23.4490  -29.1139 H   0  0  0  0  0  0  0  0  0  0  0  0
   -6.5113   24.4253  -29.1565 H   0  0  0  0  0  0  0  0  0  0  0  0
   -8.3830   23.0662  -30.2182 H   0  0  0  0  0  0  0  0  0  0  0  0
   -8.8088   21.3340  -32.1218 H   0  0  0  0  0  0  0  0  0  0  0  0
   -6.6161   20.6862  -33.4313 H   0  0  0  0  0  0  0  0  0  0  0  0
   -2.7155   25.9013  -27.7683 H   0  0  0  0  0  0  0  0  0  0  0  0
   -0.1130   24.4490  -22.9840 H   0  0  0  0  0  0  0  0  0  0  0  0
  1  2  1  0
  2  3  1  0
  3  4  2  0
  4  5  1  0
  5  6  2  0
  6  7  1  0
  7  8  2  0
  8  9  1  0
  9 10  1  0
 10 11  1  0
 11 12  2  0
 11 13  1  0
 13 14  1  0
 14 15  2  0
 15 16  1  0
 16 17  2  0
 17 18  1  0
  9 19  2  0
  4 20  1  0
 20 21  2  0
 21  2  1  0
 19  5  1  0
 18 14  1  0
  1 22  1  0
  1 23  1  0
  1 24  1  0
  6 25  1  0
  7 26  1  0
  8 27  1  0
 13 28  1  0
 13 29  1  0
 15 30  1  0
 16 31  1  0
 17 32  1  0
 19 33  1  0
 21 34  1  0
M  CHG  2  10  -1  21   1
M  END
>  <UniqueID>  (11) 
11

>  <SMILES>  (11) 
Cn1nc(-c2cccc([N-]C(=O)Cc3cccs3)c2)n[nH+]1

>  <Energy>  (11) 
100.88688800924108

>  <Genealogy>  (11) 
Cn1nc(-c2cccc([N-]C(=O)Cc3cccs3)c2)n[nH+]1 (protonated)
Cn1nc(-c2cccc([N-]C(=O)Cc3cccs3)c2)n[nH+]1 (3D coordinates assigned)
Cn1nc(-c2cccc([N-]C(=O)Cc3cccs3)c2)n[nH+]1 (optimized conformer: 100.88688800924108 kcal/mol)

>  <smiles>  (11) 
Cn1nnc(-c2cccc(NC(=O)Cc3cccs3)c2)n1

>  <score_type>  (11) 
oracle

>  <origin>  (11) 
adg

>  <m_score__min__energy>  (11) 
-10.01

>  <m_primary>  (11) 
energy

$$$$
11:0
     RDKit          3D

 67 71  0  0  0  0  0  0  0  0999 V2000
    1.2650   24.1410  -27.8850 C   0  0  0  0  0  0  0  0  0  0  0  0
    0.4430   25.2830  -27.6650 O   0  0  0  0  0  0  0  0  0  0  0  0
    0.3410   25.9650  -26.4420 C   0  0  0  0  0  0  0  0  0  0  0  0
    1.3760   26.7920  -25.9590 C   0  0  0  0  0  0  0  0  0  0  0  0
    1.2270   27.4760  -24.7500 C   0  0  0  0  0  0  0  0  0  0  0  0
    0.0480   27.3460  -24.0120 C   0  0  0  0  0  0  0  0  0  0  0  0
   -0.9810   26.5260  -24.4770 C   0  0  0  0  0  0  0  0  0  0  0  0
   -0.8400   25.8280  -25.6850 C   0  0  0  0  0  0  0  0  0  0  0  0
   -1.9030   24.9760  -26.1350 N   0  0  0  0  0  0  0  0  0  0  0  0
   -3.2960   25.3760  -25.9010 C   0  0  0  0  0  0  0  0  0  0  0  0
   -4.2490   24.5500  -26.7620 C   0  0  0  0  0  0  0  0  0  0  0  0
   -3.6210   24.3190  -28.0740 N   0  0  0  0  0  0  0  0  0  0  0  0
   -4.5960   23.8480  -29.0740 C   0  0  0  0  0  0  0  0  0  0  0  0
   -4.3150   24.4660  -30.4180 C   0  0  0  0  0  0  0  0  0  0  0  0
   -3.8650   25.6410  -30.4720 O   0  0  0  0  0  0  0  0  0  0  0  0
   -4.6140   23.7820  -31.6430 N   0  0  0  0  0  0  0  0  0  0  0  0
   -5.5710   22.7240  -31.8000 C   0  0  0  0  0  0  0  0  0  0  0  0
   -6.9260   22.9550  -31.5110 C   0  0  0  0  0  0  0  0  0  0  0  0
   -7.8540   21.9180  -31.5870 C   0  0  0  0  0  0  0  0  0  0  0  0
   -7.4360   20.6300  -31.9220 C   0  0  0  0  0  0  0  0  0  0  0  0
   -8.7110   19.2090  -32.0070 Br  0  0  0  0  0  0  0  0  0  0  0  0
   -6.0850   20.3750  -32.1730 C   0  0  0  0  0  0  0  0  0  0  0  0
   -5.1410   21.4160  -32.1170 C   0  0  0  0  0  0  0  0  0  0  0  0
   -3.7140   21.1100  -32.3750 C   0  0  0  0  0  0  0  0  0  0  0  0
   -3.3840   20.5790  -33.4700 O   0  0  0  0  0  0  0  0  0  0  0  0
   -2.6980   21.4090  -31.4030 N   0  0  0  0  0  0  0  0  0  0  0  0
   -1.2980   21.5490  -31.8030 C   0  0  0  0  0  0  0  0  0  0  0  0
   -0.5210   20.3230  -31.3260 C   0  0  0  0  0  0  0  0  0  0  0  0
   -0.8270   19.9860  -29.8850 C   0  0  0  0  0  0  0  0  0  0  0  0
    0.0540   19.1530  -29.1790 C   0  0  0  0  0  0  0  0  0  0  0  0
   -0.2260   18.7810  -27.8620 C   0  0  0  0  0  0  0  0  0  0  0  0
   -1.3920   19.2310  -27.2390 C   0  0  0  0  0  0  0  0  0  0  0  0
   -2.2860   20.0480  -27.9350 C   0  0  0  0  0  0  0  0  0  0  0  0
   -2.0250   20.4190  -29.2620 C   0  0  0  0  0  0  0  0  0  0  0  0
   -2.9890   21.3420  -29.9680 C   0  0  0  0  0  0  0  0  0  0  0  0
   -2.4970   23.3650  -27.9460 C   0  0  0  0  0  0  0  0  0  0  0  0
   -1.5850   23.6770  -26.7380 C   0  0  0  0  0  0  0  0  0  0  0  0
    1.5702   23.7170  -26.9170 H   0  0  0  0  0  0  0  0  0  0  0  0
    0.7009   23.3873  -28.4540 H   0  0  0  0  0  0  0  0  0  0  0  0
    2.1588   24.4367  -28.4540 H   0  0  0  0  0  0  0  0  0  0  0  0
    2.3056   26.8991  -26.5372 H   0  0  0  0  0  0  0  0  0  0  0  0
    2.0394   28.1180  -24.3786 H   0  0  0  0  0  0  0  0  0  0  0  0
   -0.0694   27.8905  -23.0635 H   0  0  0  0  0  0  0  0  0  0  0  0
   -1.9077   26.4266  -23.8928 H   0  0  0  0  0  0  0  0  0  0  0  0
   -3.5424   25.2212  -24.8402 H   0  0  0  0  0  0  0  0  0  0  0  0
   -3.4081   26.4369  -26.1692 H   0  0  0  0  0  0  0  0  0  0  0  0
   -4.4484   23.5854  -26.2722 H   0  0  0  0  0  0  0  0  0  0  0  0
   -5.1993   25.0887  -26.8913 H   0  0  0  0  0  0  0  0  0  0  0  0
   -4.5281   22.7533  -29.1578 H   0  0  0  0  0  0  0  0  0  0  0  0
   -5.6057   24.1423  -28.7518 H   0  0  0  0  0  0  0  0  0  0  0  0
   -7.2576   23.9633  -31.2221 H   0  0  0  0  0  0  0  0  0  0  0  0
   -8.9167   22.1153  -31.3827 H   0  0  0  0  0  0  0  0  0  0  0  0
   -5.7578   19.3533  -32.4160 H   0  0  0  0  0  0  0  0  0  0  0  0
   -1.2329   21.6240  -32.8985 H   0  0  0  0  0  0  0  0  0  0  0  0
   -0.8716   22.4580  -31.3537 H   0  0  0  0  0  0  0  0  0  0  0  0
   -0.7910   19.4634  -31.9571 H   0  0  0  0  0  0  0  0  0  0  0  0
    0.5527   20.5497  -31.4019 H   0  0  0  0  0  0  0  0  0  0  0  0
    0.9713   18.7904  -29.6658 H   0  0  0  0  0  0  0  0  0  0  0  0
    0.4735   18.1322  -27.3145 H   0  0  0  0  0  0  0  0  0  0  0  0
   -1.6065   18.9419  -26.1996 H   0  0  0  0  0  0  0  0  0  0  0  0
   -3.2013   20.4029  -27.4387 H   0  0  0  0  0  0  0  0  0  0  0  0
   -4.0138   20.9684  -29.8260 H   0  0  0  0  0  0  0  0  0  0  0  0
   -2.8835   22.3506  -29.5420 H   0  0  0  0  0  0  0  0  0  0  0  0
   -2.9075   22.3517  -27.8247 H   0  0  0  0  0  0  0  0  0  0  0  0
   -1.8842   23.4493  -28.8556 H   0  0  0  0  0  0  0  0  0  0  0  0
   -1.7171   22.8909  -25.9800 H   0  0  0  0  0  0  0  0  0  0  0  0
   -0.5452   23.7118  -27.0952 H   0  0  0  0  0  0  0  0  0  0  0  0
  1  2  1  0
  2  3  1  0
  3  4  2  0
  4  5  1  0
  5  6  2  0
  6  7  1  0
  7  8  2  0
  8  9  1  0
  9 10  1  0
 10 11  1  0
 11 12  1  0
 12 13  1  0
 13 14  1  0
 14 15  2  0
 14 16  1  0
 16 17  1  0
 17 18  2  0
 18 19  1  0
 19 20  2  0
 20 21  1  0
 20 22  1  0
 22 23  2  0
 23 24  1  0
 24 25  2  0
 24 26  1  0
 26 27  1  0
 27 28  1  0
 28 29  1  0
 29 30  2  0
 30 31  1  0
 31 32  2  0
 32 33  1  0
 33 34  2  0
 34 35  1  0
 12 36  1  0
 36 37  1  0
  8  3  1  0
 37  9  1  0
 23 17  1  0
 35 26  1  0
 34 29  1  0
  1 38  1  0
  1 39  1  0
  1 40  1  0
  4 41  1  0
  5 42  1  0
  6 43  1  0
  7 44  1  0
 10 45  1  0
 10 46  1  0
 11 47  1  0
 11 48  1  0
 13 49  1  0
 13 50  1  0
 18 51  1  0
 19 52  1  0
 22 53  1  0
 27 54  1  0
 27 55  1  0
 28 56  1  0
 28 57  1  0
 30 58  1  0
 31 59  1  0
 32 60  1  0
 33 61  1  0
 35 62  1  0
 35 63  1  0
 36 64  1  0
 36 65  1  0
 37 66  1  0
 37 67  1  0
M  CHG  1  16  -1
M  END
>  <UniqueID>  (12) 
12

>  <SMILES>  (12) 
COc1ccccc1N1CCN(CC(=O)[N-]c2ccc(Br)cc2C(=O)N2CCc3ccccc3C2)CC1

>  <Energy>  (12) 
93.86636915184106

>  <Genealogy>  (12) 
COc1ccccc1N1CCN(CC(=O)[N-]c2ccc(Br)cc2C(=O)N2CCc3ccccc3C2)CC1 (protonated)
COc1ccccc1N1CCN(CC(=O)[N-]c2ccc(Br)cc2C(=O)N2CCc3ccccc3C2)CC1 (3D coordinates assigned)
COc1ccccc1N1CCN(CC(=O)[N-]c2ccc(Br)cc2C(=O)N2CCc3ccccc3C2)CC1 (nonaromatic ring conformer: 93.86636915184106 kcal/mol)

>  <smiles>  (12) 
COc1ccccc1N1CCN(CC(=O)Nc2ccc(Br)cc2C(=O)N2CCc3ccccc3C2)CC1

>  <score_type>  (12) 
oracle

>  <origin>  (12) 
adg

>  <m_score__min__energy>  (12) 
-12.44

>  <m_primary>  (12) 
energy

$$$$
12:0
     RDKit          3D

 20 21  0  0  0  0  0  0  0  0999 V2000
   -7.4350   19.4230  -33.0520 C   0  0  0  0  0  0  0  0  0  0  0  0
   -7.2810   20.7380  -32.3470 C   0  0  0  0  0  0  0  0  0  0  0  0
   -8.4110   21.4170  -31.8650 C   0  0  0  0  0  0  0  0  0  0  0  0
   -8.2780   22.6590  -31.2390 C   0  0  0  0  0  0  0  0  0  0  0  0
   -7.0120   23.2460  -31.0990 C   0  0  0  0  0  0  0  0  0  0  0  0
   -6.8610   24.4910  -30.4750 C   0  0  0  0  0  0  0  0  0  0  0  0
   -5.5850   25.0470  -30.3570 C   0  0  0  0  0  0  0  0  0  0  0  0
   -4.5020   24.3850  -30.8440 N   0  0  0  0  0  0  0  0  0  0  0  0
   -4.6130   23.1770  -31.4560 C   0  0  0  0  0  0  0  0  0  0  0  0
   -5.8720   22.5750  -31.5970 C   0  0  0  0  0  0  0  0  0  0  0  0
   -6.0130   21.3280  -32.2250 C   0  0  0  0  0  0  0  0  0  0  0  0
   -7.5293   18.6174  -32.3089 H   0  0  0  0  0  0  0  0  0  0  0  0
   -8.3363   19.4481  -33.6820 H   0  0  0  0  0  0  0  0  0  0  0  0
   -6.5522   19.2391  -33.6820 H   0  0  0  0  0  0  0  0  0  0  0  0
   -9.4085   20.9680  -31.9810 H   0  0  0  0  0  0  0  0  0  0  0  0
   -9.1687   23.1778  -30.8549 H   0  0  0  0  0  0  0  0  0  0  0  0
   -7.7384   25.0254  -30.0819 H   0  0  0  0  0  0  0  0  0  0  0  0
   -5.4560   26.0240  -29.8683 H   0  0  0  0  0  0  0  0  0  0  0  0
   -3.7153   22.6710  -31.8410 H   0  0  0  0  0  0  0  0  0  0  0  0
   -5.1272   20.8112  -32.6229 H   0  0  0  0  0  0  0  0  0  0  0  0
  1  2  1  0
  2  3  2  0
  3  4  1  0
  4  5  2  0
  5  6  1  0
  6  7  2  0
  7  8  1  0
  8  9  2  0
  9 10  1  0
 10 11  2  0
 11  2  1  0
 10  5  1  0
  1 12  1  0
  1 13  1  0
  1 14  1  0
  3 15  1  0
  4 16  1  0
  6 17  1  0
  7 18  1  0
  9 19  1  0
 11 20  1  0
M  END
>  <UniqueID>  (13) 
13

>  <SMILES>  (13) 
Cc1ccc2ccncc2c1

>  <Energy>  (13) 
23.640162324790285

>  <Genealogy>  (13) 
Cc1ccc2ccncc2c1 (3D coordinates assigned)
Cc1ccc2ccncc2c1 (optimized conformer: 23.640162324790285 kcal/mol)

>  <smiles>  (13) 
Cc1ccc2ccncc2c1

>  <score_type>  (13) 
oracle

>  <origin>  (13) 
adg

>  <m_score__min__energy>  (13) 
-5.8200000000000003

>  <m_primary>  (13) 
energy

$$$$
13:0
     RDKit          3D

 40 41  0  0  0  0  0  0  0  0999 V2000
   -9.3283   20.3091  -32.7017 H   0  0  0  0  0  0  0  0  0  0  0  0
   -8.4850   20.8610  -32.2610 C   0  0  0  0  0  0  0  0  0  0  0  0
   -8.7110   21.7670  -31.2240 C   0  0  0  0  0  0  0  0  0  0  0  0
   -9.7313   21.9246  -30.8442 H   0  0  0  0  0  0  0  0  0  0  0  0
   -7.6420   22.4740  -30.6680 C   0  0  0  0  0  0  0  0  0  0  0  0
   -7.8248   23.1795  -29.8440 H   0  0  0  0  0  0  0  0  0  0  0  0
   -6.3350   22.2920  -31.1520 C   0  0  0  0  0  0  0  0  0  0  0  0
   -5.2360   23.0690  -30.5400 C   0  0  0  0  0  0  0  0  0  0  0  0
   -4.8730   24.2610  -31.0840 N   0  0  0  0  0  0  0  0  0  0  0  0
   -3.8710   24.9850  -30.5820 N   0  0  0  0  0  0  0  0  0  0  0  0
   -3.1510   24.5600  -29.5060 C   0  0  0  0  0  0  0  0  0  0  0  0
   -2.1740   25.2670  -29.0180 N   0  0  0  0  0  0  0  0  0  0  0  0
   -1.1550   24.8180  -28.1070 C   0  0  0  0  0  0  0  0  0  0  0  0
    0.0380   24.6600  -28.4850 O   0  0  0  0  0  0  0  0  0  0  0  0
   -1.5230   24.5400  -26.6830 C   0  0  0  0  0  0  0  0  0  0  0  0
   -2.0685   23.5864  -26.6279 H   0  0  0  0  0  0  0  0  0  0  0  0
   -2.1578   25.3571  -26.3096 H   0  0  0  0  0  0  0  0  0  0  0  0
   -0.3040   24.4550  -25.8490 N   0  0  0  0  0  0  0  0  0  0  0  0
    0.0850   25.7930  -25.3440 C   0  0  0  0  0  0  0  0  0  0  0  0
    0.2573   26.4667  -26.1963 H   0  0  0  0  0  0  0  0  0  0  0  0
    1.0045   25.6974  -24.7478 H   0  0  0  0  0  0  0  0  0  0  0  0
   -1.0210   26.3680  -24.4630 C   0  0  0  0  0  0  0  0  0  0  0  0
   -0.7556   26.2300  -23.4045 H   0  0  0  0  0  0  0  0  0  0  0  0
   -1.1379   27.4411  -24.6748 H   0  0  0  0  0  0  0  0  0  0  0  0
   -1.9665   25.8473  -24.6748 H   0  0  0  0  0  0  0  0  0  0  0  0
   -0.4930   23.4940  -24.7380 C   0  0  0  0  0  0  0  0  0  0  0  0
   -1.0669   23.9768  -23.9333 H   0  0  0  0  0  0  0  0  0  0  0  0
   -1.0383   22.6149  -25.1120 H   0  0  0  0  0  0  0  0  0  0  0  0
    0.8600   23.0470  -24.1940 C   0  0  0  0  0  0  0  0  0  0  0  0
    0.8340   23.0556  -23.0943 H   0  0  0  0  0  0  0  0  0  0  0  0
    1.0791   22.0287  -24.5477 H   0  0  0  0  0  0  0  0  0  0  0  0
    1.6426   23.7343  -24.5477 H   0  0  0  0  0  0  0  0  0  0  0  0
   -3.4680   23.3320  -28.9230 C   0  0  0  0  0  0  0  0  0  0  0  0
   -2.8965   22.9646  -28.0579 H   0  0  0  0  0  0  0  0  0  0  0  0
   -4.5140   22.5760  -29.4460 C   0  0  0  0  0  0  0  0  0  0  0  0
   -4.7705   21.6017  -29.0044 H   0  0  0  0  0  0  0  0  0  0  0  0
   -6.1110   21.3580  -32.1900 C   0  0  0  0  0  0  0  0  0  0  0  0
   -4.4930   20.9780  -32.7760 Cl  0  0  0  0  0  0  0  0  0  0  0  0
   -7.1900   20.6540  -32.7400 C   0  0  0  0  0  0  0  0  0  0  0  0
   -7.0161   19.9343  -33.5535 H   0  0  0  0  0  0  0  0  0  0  0  0
  1  2  1  0
  2  3  2  0
  3  4  1  0
  3  5  1  0
  5  6  1  0
  5  7  2  0
  7  8  1  0
  8  9  2  0
  9 10  1  0
 10 11  1  0
 11 12  2  0
 12 13  1  0
 13 14  2  0
 13 15  1  0
 15 16  1  0
 15 17  1  0
 15 18  1  0
 18 19  1  0
 19 20  1  0
 19 21  1  0
 19 22  1  0
 22 23  1  0
 22 24  1  0
 22 25  1  0
 18 26  1  0
 26 27  1  0
 26 28  1  0
 26 29  1  0
 29 30  1  0
 29 31  1  0
 29 32  1  0
 11 33  1  0
 33 34  1  0
 33 35  2  0
 35 36  1  0
  7 37  1  0
 37 38  1  0
 37 39  2  0
 39 40  1  0
 39  2  1  0
 35  8  1  0
M  CHG  1  10  -1
M  END
>  <UniqueID>  (14) 
14

>  <SMILES>  (14) 
CCN(CC)CC(=O)/N=c1/ccc(-c2ccccc2Cl)n[n-]1

>  <Energy>  (14) 
48.295919836916795

>  <Genealogy>  (14) 
CCN(CC)CC(=O)N=c1ccc(-c2ccccc2Cl)n[n-]1 (protonated)
CCN(CC)CC(=O)/N=c1/ccc(-c2ccccc2Cl)n[n-]1 (cis-trans isomerization)
CCN(CC)CC(=O)/N=c1/ccc(-c2ccccc2Cl)n[n-]1 (3D coordinates assigned)
CCN(CC)CC(=O)/N=c1/ccc(-c2ccccc2Cl)n[n-]1 (optimized conformer: 48.295919836916795 kcal/mol)

>  <smiles>  (14) 
CCN(CC)CC(=O)N=c1ccc(-c2ccccc2Cl)n[nH]1

>  <score_type>  (14) 
oracle

>  <origin>  (14) 
adg

>  <m_score__min__energy>  (14) 
-10.220000000000001

>  <m_primary>  (14) 
energy

$$$$
14:0
     RDKit          3D

 51 54  0  0  0  0  0  0  0  0999 V2000
   -2.0510   21.4770  -30.7300 C   0  0  0  0  0  0  0  0  0  0  0  0
   -3.0290   21.8080  -29.6050 C   0  0  0  0  0  0  0  0  0  0  0  0
   -4.0700   22.7670  -30.0470 N   0  0  0  0  0  0  0  0  0  0  0  0
   -5.2890   22.6620  -29.2210 C   0  0  0  0  0  0  0  0  0  0  0  0
   -6.3780   23.6780  -29.6270 C   0  0  0  0  0  0  0  0  0  0  0  0
   -5.9790   24.5720  -30.7260 N   0  0  0  0  0  0  0  0  0  0  0  0
   -6.4080   24.1740  -32.0840 C   0  0  0  0  0  0  0  0  0  0  0  0
   -7.0400   22.8050  -32.1430 C   0  0  0  0  0  0  0  0  0  0  0  0
   -8.4220   22.6560  -31.9470 C   0  0  0  0  0  0  0  0  0  0  0  0
   -9.0050   21.3860  -31.9440 C   0  0  0  0  0  0  0  0  0  0  0  0
   -8.2120   20.2460  -32.1350 C   0  0  0  0  0  0  0  0  0  0  0  0
   -8.7880   18.9660  -32.1420 C   0  0  0  0  0  0  0  0  0  0  0  0
   -7.9890   17.8380  -32.3550 C   0  0  0  0  0  0  0  0  0  0  0  0
   -6.6150   17.9790  -32.5630 C   0  0  0  0  0  0  0  0  0  0  0  0
   -6.0280   19.2470  -32.5580 C   0  0  0  0  0  0  0  0  0  0  0  0
   -6.8180   20.3880  -32.3450 C   0  0  0  0  0  0  0  0  0  0  0  0
   -6.2430   21.6670  -32.3460 C   0  0  0  0  0  0  0  0  0  0  0  0
   -4.6330   25.1610  -30.6120 C   0  0  0  0  0  0  0  0  0  0  0  0
   -3.5500   24.1550  -30.1360 C   0  0  1  0  0  0  0  0  0  0  0  0
   -2.8370   24.6230  -28.8620 C   0  0  0  0  0  0  0  0  0  0  0  0
   -3.4990   24.5290  -27.6220 C   0  0  0  0  0  0  0  0  0  0  0  0
   -2.8800   24.9710  -26.4490 C   0  0  0  0  0  0  0  0  0  0  0  0
   -1.5930   25.5100  -26.4950 C   0  0  0  0  0  0  0  0  0  0  0  0
   -0.9940   25.9370  -25.3560 F   0  0  0  0  0  0  0  0  0  0  0  0
   -0.9220   25.6050  -27.7150 C   0  0  0  0  0  0  0  0  0  0  0  0
   -1.5360   25.1660  -28.8910 C   0  0  0  0  0  0  0  0  0  0  0  0
   -1.0924   21.1526  -30.2989 H   0  0  0  0  0  0  0  0  0  0  0  0
   -2.4660   20.6693  -31.3508 H   0  0  0  0  0  0  0  0  0  0  0  0
   -1.8901   22.3707  -31.3508 H   0  0  0  0  0  0  0  0  0  0  0  0
   -3.5173   20.8800  -29.2728 H   0  0  0  0  0  0  0  0  0  0  0  0
   -2.4626   22.2715  -28.7838 H   0  0  0  0  0  0  0  0  0  0  0  0
   -5.6988   21.6467  -29.3273 H   0  0  0  0  0  0  0  0  0  0  0  0
   -5.0037   22.8811  -28.1815 H   0  0  0  0  0  0  0  0  0  0  0  0
   -7.2723   23.1201  -29.9416 H   0  0  0  0  0  0  0  0  0  0  0  0
   -6.5645   24.3143  -28.7493 H   0  0  0  0  0  0  0  0  0  0  0  0
   -7.1400   24.9105  -32.4469 H   0  0  0  0  0  0  0  0  0  0  0  0
   -5.5038   24.1382  -32.7095 H   0  0  0  0  0  0  0  0  0  0  0  0
   -9.0508   23.5456  -31.7946 H   0  0  0  0  0  0  0  0  0  0  0  0
  -10.0892   21.2806  -31.7913 H   0  0  0  0  0  0  0  0  0  0  0  0
   -9.8697   18.8498  -31.9797 H   0  0  0  0  0  0  0  0  0  0  0  0
   -8.4441   16.8366  -32.3587 H   0  0  0  0  0  0  0  0  0  0  0  0
   -5.9924   17.0880  -32.7315 H   0  0  0  0  0  0  0  0  0  0  0  0
   -4.9452   19.3515  -32.7212 H   0  0  0  0  0  0  0  0  0  0  0  0
   -5.1606   21.7795  -32.5068 H   0  0  0  0  0  0  0  0  0  0  0  0
   -4.3383   25.5475  -31.5988 H   0  0  0  0  0  0  0  0  0  0  0  0
   -4.6921   25.9536  -29.8515 H   0  0  0  0  0  0  0  0  0  0  0  0
   -2.7736   24.1306  -30.9149 H   0  0  0  0  0  0  0  0  0  0  0  0
   -4.5125   24.1038  -27.5763 H   0  0  0  0  0  0  0  0  0  0  0  0
   -3.4084   24.8939  -25.4873 H   0  0  0  0  0  0  0  0  0  0  0  0
    0.0933   26.0267  -27.7510 H   0  0  0  0  0  0  0  0  0  0  0  0
   -0.9995   25.2447  -29.8481 H   0  0  0  0  0  0  0  0  0  0  0  0
  1  2  1  0
  2  3  1  0
  3  4  1  0
  4  5  1  0
  5  6  1  0
  6  7  1  0
  7  8  1  0
  8  9  2  0
  9 10  1  0
 10 11  2  0
 11 12  1  0
 12 13  2  0
 13 14  1  0
 14 15  2  0
 15 16  1  0
 16 17  2  0
  6 18  1  0
 18 19  1  0
 19 20  1  0
 20 21  2  0
 21 22  1  0
 22 23  2  0
 23 24  1  0
 23 25  1  0
 25 26  2  0
 19  3  1  0
 26 20  1  0
 17  8  1  0
 16 11  1  0
  1 27  1  0
  1 28  1  0
  1 29  1  0
  2 30  1  0
  2 31  1  0
  4 32  1  0
  4 33  1  0
  5 34  1  0
  5 35  1  0
  7 36  1  0
  7 37  1  0
  9 38  1  0
 10 39  1  0
 12 40  1  0
 13 41  1  0
 14 42  1  0
 15 43  1  0
 17 44  1  0
 18 45  1  0
 18 46  1  0
 19 47  1  6
 21 48  1  0
 22 49  1  0
 25 50  1  0
 26 51  1  0
M  END
>  <UniqueID>  (15) 
15

>  <SMILES>  (15) 
CCN1CCN(Cc2ccc3ccccc3c2)C[C@H]1c1ccc(F)cc1

>  <Energy>  (15) 
75.4366872018155

>  <Genealogy>  (15) 
CCN1CCN(Cc2ccc3ccccc3c2)C[C@H]1c1ccc(F)cc1 (chirality)
CCN1CCN(Cc2ccc3ccccc3c2)C[C@H]1c1ccc(F)cc1 (3D coordinates assigned)
CCN1CCN(Cc2ccc3ccccc3c2)C[C@H]1c1ccc(F)cc1 (nonaromatic ring conformer: 75.4366872018155 kcal/mol)

>  <smiles>  (15) 
CCN1CCN(Cc2ccc3ccccc3c2)CC1c1ccc(F)cc1

>  <score_type>  (15) 
oracle

>  <origin>  (15) 
adg

>  <m_score__min__energy>  (15) 
-8.6400000000000006

>  <m_primary>  (15) 
energy

$$$$
15:0
     RDKit          3D

 46 46  0  0  0  0  0  0  0  0999 V2000
   -6.3973   25.6592  -31.5795 H   0  0  0  0  0  0  0  0  0  0  0  0
   -6.1850   24.8110  -30.9120 C   0  0  0  0  0  0  0  0  0  0  0  0
   -4.9090   24.7900  -30.1720 C   0  0  0  0  0  0  0  0  0  0  0  0
   -3.8650   25.2850  -30.6820 O   0  0  0  0  0  0  0  0  0  0  0  0
   -4.8600   24.2120  -28.8620 N   0  0  0  0  0  0  0  0  0  0  0  0
   -5.7400   23.8210  -28.4530 H   0  0  0  0  0  0  0  0  0  0  0  0
   -3.6230   24.1890  -28.0820 C   0  0  0  0  0  0  0  0  0  0  0  0
   -3.6981   24.9267  -27.2695 H   0  0  0  0  0  0  0  0  0  0  0  0
   -2.7855   24.4320  -28.7525 H   0  0  0  0  0  0  0  0  0  0  0  0
   -3.3710   22.8020  -27.4760 C   0  0  0  0  0  0  0  0  0  0  0  0
   -4.3247   22.2568  -27.4195 H   0  0  0  0  0  0  0  0  0  0  0  0
   -2.9389   22.9340  -26.4731 H   0  0  0  0  0  0  0  0  0  0  0  0
   -2.4180   22.0230  -28.2970 N   0  0  0  0  0  0  0  0  0  0  0  0
   -2.3050   22.4970  -29.6970 C   0  0  0  0  0  0  0  0  0  0  0  0
   -1.2595   22.7638  -29.9111 H   0  0  0  0  0  0  0  0  0  0  0  0
   -2.9440   23.3811  -29.8388 H   0  0  0  0  0  0  0  0  0  0  0  0
   -2.7530   21.3840  -30.6470 C   0  0  0  0  0  0  0  0  0  0  0  0
   -3.8509   21.3920  -30.7146 H   0  0  0  0  0  0  0  0  0  0  0  0
   -2.3925   20.4241  -30.2488 H   0  0  0  0  0  0  0  0  0  0  0  0
   -2.1690   21.5730  -32.0430 C   0  0  0  0  0  0  0  0  0  0  0  0
   -1.1253   21.9108  -31.9612 H   0  0  0  0  0  0  0  0  0  0  0  0
   -2.2037   20.6178  -32.5874 H   0  0  0  0  0  0  0  0  0  0  0  0
   -2.7568   22.3268  -32.5874 H   0  0  0  0  0  0  0  0  0  0  0  0
   -2.6420   20.5620  -28.1980 C   0  0  0  0  0  0  0  0  0  0  0  0
   -3.7245   20.3732  -28.2485 H   0  0  0  0  0  0  0  0  0  0  0  0
   -2.0933   20.0974  -29.0306 H   0  0  0  0  0  0  0  0  0  0  0  0
   -2.0970   19.9310  -26.8920 C   0  0  0  0  0  0  0  0  0  0  0  0
   -1.1498   19.4187  -27.1165 H   0  0  0  0  0  0  0  0  0  0  0  0
   -1.9557   20.7425  -26.1630 H   0  0  0  0  0  0  0  0  0  0  0  0
   -3.0660   18.9220  -26.2800 C   0  0  0  0  0  0  0  0  0  0  0  0
   -3.0108   18.9795  -25.1829 H   0  0  0  0  0  0  0  0  0  0  0  0
   -4.0904   19.1519  -26.6081 H   0  0  0  0  0  0  0  0  0  0  0  0
   -2.7949   17.9077  -26.6081 H   0  0  0  0  0  0  0  0  0  0  0  0
   -7.0930   23.8350  -30.8000 C   0  0  0  0  0  0  0  0  0  0  0  0
   -7.9553   23.9949  -30.1360 H   0  0  0  0  0  0  0  0  0  0  0  0
   -6.9920   22.5530  -31.5260 C   0  0  0  0  0  0  0  0  0  0  0  0
   -5.6010   22.0750  -32.3380 S   0  0  0  0  0  0  0  0  0  0  0  0
   -6.1920   20.6130  -32.9120 C   0  0  0  0  0  0  0  0  0  0  0  0
   -5.6336   19.8847  -33.5185 H   0  0  0  0  0  0  0  0  0  0  0  0
   -7.5070   20.4820  -32.4890 C   0  0  0  0  0  0  0  0  0  0  0  0
   -8.1285   19.6055  -32.7246 H   0  0  0  0  0  0  0  0  0  0  0  0
   -7.9730   21.5710  -31.7320 C   0  0  0  0  0  0  0  0  0  0  0  0
   -9.3910   21.6420  -31.2450 C   0  0  0  0  0  0  0  0  0  0  0  0
   -9.4013   21.6425  -30.1450 H   0  0  0  0  0  0  0  0  0  0  0  0
   -9.8605   22.5648  -31.6165 H   0  0  0  0  0  0  0  0  0  0  0  0
   -9.9503   20.7707  -31.6165 H   0  0  0  0  0  0  0  0  0  0  0  0
  1  2  1  0
  2  3  1  0
  3  4  2  0
  3  5  1  0
  5  6  1  0
  5  7  1  0
  7  8  1  0
  7  9  1  0
  7 10  1  0
 10 11  1  0
 10 12  1  0
 10 13  1  0
 13 14  1  0
 14 15  1  0
 14 16  1  0
 14 17  1  0
 17 18  1  0
 17 19  1  0
 17 20  1  0
 20 21  1  0
 20 22  1  0
 20 23  1  0
 13 24  1  0
 24 25  1  0
 24 26  1  0
 24 27  1  0
 27 28  1  0
 27 29  1  0
 27 30  1  0
 30 31  1  0
 30 32  1  0
 30 33  1  0
  2 34  2  0
 34 35  1  0
 34 36  1  0
 36 37  1  0
 37 38  1  0
 38 39  1  0
 38 40  2  0
 40 41  1  0
 40 42  1  0
 42 43  1  0
 43 44  1  0
 43 45  1  0
 43 46  1  0
 42 36  2  0
M  END
>  <UniqueID>  (16) 
16

>  <SMILES>  (16) 
CCCN(CCC)CCNC(=O)/C=C/c1sccc1C

>  <Energy>  (16) 
65.4653668234222

>  <Genealogy>  (16) 
CCCN(CCC)CCNC(=O)/C=C/c1sccc1C (cis-trans isomerization)
CCCN(CCC)CCNC(=O)/C=C/c1sccc1C (3D coordinates assigned)
CCCN(CCC)CCNC(=O)/C=C/c1sccc1C (optimized conformer: 65.4653668234222 kcal/mol)

>  <smiles>  (16) 
CCCN(CCC)CCNC(=O)C=Cc1sccc1C

>  <score_type>  (16) 
oracle

>  <origin>  (16) 
adg

>  <m_score__min__energy>  (16) 
-7.0599999999999996

>  <m_primary>  (16) 
energy

$$$$
16:0
     RDKit          3D

 54 55  0  0  0  0  0  0  0  0999 V2000
   -9.7081   21.0087  -31.1266 H   0  0  0  0  0  0  0  0  0  0  0  0
   -8.7940   21.2820  -31.6740 C   0  0  0  0  0  0  0  0  0  0  0  0
   -8.4770   22.5350  -31.8100 N   0  0  0  0  0  0  0  0  0  0  0  0
   -3.1770   17.9490  -33.3850 C   0  0  0  0  0  0  0  0  0  0  0  0
   -2.2865   17.3078  -33.3079 H   0  0  0  0  0  0  0  0  0  0  0  0
   -3.5911   18.1877  -32.3943 H   0  0  0  0  0  0  0  0  0  0  0  0
   -2.7740   19.2740  -34.0540 C   0  0  0  0  0  0  0  0  0  0  0  0
   -3.1648   19.2904  -35.0821 H   0  0  0  0  0  0  0  0  0  0  0  0
   -1.6762   19.3441  -34.0556 H   0  0  0  0  0  0  0  0  0  0  0  0
   -3.3180   20.4360  -33.3110 N   0  0  0  0  0  0  0  0  0  0  0  0
   -2.3090   21.5170  -33.1540 C   0  0  0  0  0  0  0  0  0  0  0  0
   -2.0950   21.6647  -32.0852 H   0  0  0  0  0  0  0  0  0  0  0  0
   -2.7043   22.4489  -33.5843 H   0  0  0  0  0  0  0  0  0  0  0  0
   -1.0250   21.1320  -33.8790 C   0  0  0  0  0  0  0  0  0  0  0  0
   -0.2435   20.8977  -33.1412 H   0  0  0  0  0  0  0  0  0  0  0  0
   -1.2103   20.2499  -34.5095 H   0  0  0  0  0  0  0  0  0  0  0  0
   -0.6944   21.9705  -34.5095 H   0  0  0  0  0  0  0  0  0  0  0  0
   -3.8750   20.0100  -32.0060 C   0  0  0  0  0  0  0  0  0  0  0  0
   -4.9314   20.3117  -31.9524 H   0  0  0  0  0  0  0  0  0  0  0  0
   -3.7760   18.9172  -31.9281 H   0  0  0  0  0  0  0  0  0  0  0  0
   -3.1160   20.6460  -30.8390 C   0  0  0  0  0  0  0  0  0  0  0  0
   -3.5403   20.2905  -29.8884 H   0  0  0  0  0  0  0  0  0  0  0  0
   -2.0543   20.3639  -30.8949 H   0  0  0  0  0  0  0  0  0  0  0  0
   -3.2080   21.7407  -30.8949 H   0  0  0  0  0  0  0  0  0  0  0  0
   -7.9410   20.2210  -32.2460 C   0  0  0  0  0  0  0  0  0  0  0  0
   -7.8190   18.9960  -31.5710 C   0  0  0  0  0  0  0  0  0  0  0  0
   -8.3616   18.8356  -30.6277 H   0  0  0  0  0  0  0  0  0  0  0  0
   -7.0120   17.9780  -32.0900 C   0  0  0  0  0  0  0  0  0  0  0  0
   -6.9370   17.0160  -31.5619 H   0  0  0  0  0  0  0  0  0  0  0  0
   -6.2990   18.1780  -33.2790 C   0  0  0  0  0  0  0  0  0  0  0  0
   -5.4620   17.0870  -33.8100 C   0  0  0  0  0  0  0  0  0  0  0  0
   -5.9210   16.0955  -33.9374 H   0  0  0  0  0  0  0  0  0  0  0  0
   -4.2090   17.2310  -34.1370 N   0  0  0  0  0  0  0  0  0  0  0  0
   -7.2190   23.1430  -31.4700 C   0  0  0  0  0  0  0  0  0  0  0  0
   -5.9890   22.7000  -31.9980 C   0  0  0  0  0  0  0  0  0  0  0  0
   -5.9659   21.8489  -32.6945 H   0  0  0  0  0  0  0  0  0  0  0  0
   -4.7990   23.3390  -31.6390 C   0  0  0  0  0  0  0  0  0  0  0  0
   -3.8449   22.9916  -32.0621 H   0  0  0  0  0  0  0  0  0  0  0  0
   -4.8100   24.4170  -30.7460 C   0  0  0  0  0  0  0  0  0  0  0  0
   -3.5710   25.0650  -30.4250 N   0  0  0  0  0  0  0  0  0  0  0  0
   -2.6650   24.7060  -29.3720 C   0  0  0  0  0  0  0  0  0  0  0  0
   -1.7300   25.4970  -29.0790 O   0  0  0  0  0  0  0  0  0  0  0  0
   -2.7700   23.4040  -28.6390 C   0  0  0  0  0  0  0  0  0  0  0  0
   -2.7549   23.5912  -27.5551 H   0  0  0  0  0  0  0  0  0  0  0  0
   -3.7113   22.9045  -28.9118 H   0  0  0  0  0  0  0  0  0  0  0  0
   -1.9209   22.7601  -28.9118 H   0  0  0  0  0  0  0  0  0  0  0  0
   -6.0390   24.8870  -30.2550 C   0  0  0  0  0  0  0  0  0  0  0  0
   -6.0636   25.7600  -29.5862 H   0  0  0  0  0  0  0  0  0  0  0  0
   -7.2300   24.2510  -30.6120 C   0  0  0  0  0  0  0  0  0  0  0  0
   -8.1862   24.6234  -30.2158 H   0  0  0  0  0  0  0  0  0  0  0  0
   -6.4440   19.3880  -33.9740 C   0  0  0  0  0  0  0  0  0  0  0  0
   -5.9205   19.5365  -34.9300 H   0  0  0  0  0  0  0  0  0  0  0  0
   -7.2510   20.4060  -33.4570 C   0  0  0  0  0  0  0  0  0  0  0  0
   -7.3466   21.3573  -34.0009 H   0  0  0  0  0  0  0  0  0  0  0  0
  1  2  1  0
  2  3  2  0
  3  4  1  0
  4  5  1  0
  4  6  1  0
  4  7  1  0
  7  8  1  0
  7  9  1  0
  7 10  1  0
 10 11  1  0
 11 12  1  0
 11 13  1  0
 11 14  1  0
 14 15  1  0
 14 16  1  0
 14 17  1  0
 10 18  1  0
 18 19  1  0
 18 20  1  0
 18 21  1  0
 21 22  1  0
 21 23  1  0
 21 24  1  0
  2 25  1  0
 25 26  2  0
 26 27  1  0
 26 28  1  0
 28 29  1  0
 28 30  2  0
 30 31  1  0
 31 32  1  0
 31 33  2  0
 33 34  1  0
 34 35  2  0
 35 36  1  0
 35 37  1  0
 37 38  1  0
 37 39  2  0
 39 40  1  0
 40 41  1  0
 41 42  2  0
 41 43  1  0
 43 44  1  0
 43 45  1  0
 43 46  1  0
 39 47  1  0
 47 48  1  0
 47 49  2  0
 49 50  1  0
 30 51  1  0
 51 52  1  0
 51 53  2  0
 53 54  1  0
 53 25  1  0
 49 34  1  0
M  CHG  1  40  -1
M  END
>  <UniqueID>  (17) 
17

>  <SMILES>  (17) 
CCN(CC)CC/N=C\c1ccc(/C=N/c2ccc([N-]C(C)=O)cc2)cc1

>  <Energy>  (17) 
65.516774629489

>  <Genealogy>  (17) 
CCN(CC)CCN=Cc1ccc(C=Nc2ccc([N-]C(C)=O)cc2)cc1 (protonated)
CCN(CC)CC/N=C\c1ccc(/C=N/c2ccc([N-]C(C)=O)cc2)cc1 (cis-trans isomerization)
CCN(CC)CC/N=C\c1ccc(/C=N/c2ccc([N-]C(C)=O)cc2)cc1 (3D coordinates assigned)
CCN(CC)CC/N=C\c1ccc(/C=N/c2ccc([N-]C(C)=O)cc2)cc1 (optimized conformer: 65.516774629489 kcal/mol)

>  <smiles>  (17) 
CCN(CC)CCN=Cc1ccc(C=Nc2ccc(NC(C)=O)cc2)cc1

>  <score_type>  (17) 
oracle

>  <origin>  (17) 
adg

>  <m_score__min__energy>  (17) 
-10.15

>  <m_primary>  (17) 
energy

$$$$
17:0
     RDKit          3D

 34 35  0  0  0  0  0  0  0  0999 V2000
   -4.5180   16.8650  -34.6000 C   0  0  0  0  0  0  0  0  0  0  0  0
   -5.7210   17.2600  -33.8340 N   0  0  0  0  0  0  0  0  0  0  0  0
   -6.8580   16.3850  -34.2150 C   0  0  0  0  0  0  0  0  0  0  0  0
   -5.4360   17.0150  -32.3950 C   0  0  0  0  0  0  0  0  0  0  0  0
   -6.0460   18.7220  -33.9770 C   0  0  0  0  0  0  0  0  0  0  0  0
   -5.9660   19.6810  -32.7420 C   0  0  1  0  0  0  0  0  0  0  0  0
   -4.8540   20.7640  -32.7890 C   0  0  0  0  0  0  0  0  0  0  0  0
   -5.4850   22.0870  -32.5920 N   0  0  0  0  0  0  0  0  0  0  0  0
   -6.8590   21.7950  -32.3510 C   0  0  0  0  0  0  0  0  0  0  0  0
   -7.8240   22.7420  -31.9920 C   0  0  0  0  0  0  0  0  0  0  0  0
   -9.1200   22.3020  -31.6790 C   0  0  0  0  0  0  0  0  0  0  0  0
   -9.4250   20.9290  -31.7030 C   0  0  0  0  0  0  0  0  0  0  0  0
   -8.4390   19.9950  -32.0560 C   0  0  0  0  0  0  0  0  0  0  0  0
   -7.1730   20.4650  -32.4200 C   0  0  0  0  0  0  0  0  0  0  0  0
   -3.7099   16.5997  -33.9024 H   0  0  0  0  0  0  0  0  0  0  0  0
   -4.7551   15.9975  -35.2335 H   0  0  0  0  0  0  0  0  0  0  0  0
   -4.1948   17.7042  -35.2335 H   0  0  0  0  0  0  0  0  0  0  0  0
   -7.3498   16.0065  -33.3068 H   0  0  0  0  0  0  0  0  0  0  0  0
   -7.5811   16.9618  -34.8103 H   0  0  0  0  0  0  0  0  0  0  0  0
   -6.4856   15.5383  -34.8103 H   0  0  0  0  0  0  0  0  0  0  0  0
   -6.1267   17.6087  -31.7782 H   0  0  0  0  0  0  0  0  0  0  0  0
   -5.5708   15.9465  -32.1713 H   0  0  0  0  0  0  0  0  0  0  0  0
   -4.3998   17.3086  -32.1713 H   0  0  0  0  0  0  0  0  0  0  0  0
   -5.3566   19.1250  -34.7335 H   0  0  0  0  0  0  0  0  0  0  0  0
   -7.1204   18.7134  -34.2128 H   0  0  0  0  0  0  0  0  0  0  0  0
   -5.7730   18.9054  -31.9862 H   0  0  0  0  0  0  0  0  0  0  0  0
   -4.1208   20.5790  -31.9901 H   0  0  0  0  0  0  0  0  0  0  0  0
   -4.3352   20.7324  -33.7584 H   0  0  0  0  0  0  0  0  0  0  0  0
   -5.0750   22.5710  -31.7590 H   0  0  0  0  0  0  0  0  0  0  0  0
   -5.3910   22.6830  -33.4470 H   0  0  0  0  0  0  0  0  0  0  0  0
   -7.5720   23.8121  -31.9556 H   0  0  0  0  0  0  0  0  0  0  0  0
   -9.8986   23.0326  -31.4144 H   0  0  0  0  0  0  0  0  0  0  0  0
  -10.4380   20.5869  -31.4446 H   0  0  0  0  0  0  0  0  0  0  0  0
   -8.6570   18.9169  -32.0466 H   0  0  0  0  0  0  0  0  0  0  0  0
  1  2  1  0
  2  3  1  0
  2  4  1  0
  2  5  1  0
  5  6  1  0
  6  7  1  0
  7  8  1  0
  8  9  1  0
  9 10  2  0
 10 11  1  0
 11 12  2  0
 12 13  1  0
 13 14  2  0
 14  6  1  0
 14  9  1  0
  1 15  1  0
  1 16  1  0
  1 17  1  0
  3 18  1  0
  3 19  1  0
  3 20  1  0
  4 21  1  0
  4 22  1  0
  4 23  1  0
  5 24  1  0
  5 25  1  0
  6 26  1  1
  7 27  1  0
  7 28  1  0
  8 29  1  0
  8 30  1  0
 10 31  1  0
 11 32  1  0
 12 33  1  0
 13 34  1  0
M  CHG  2   2   1   8   1
M  END
>  <UniqueID>  (18) 
18

>  <SMILES>  (18) 
C[N+](C)(C)C[C@H]1C[NH2+]c2ccccc21

>  <Energy>  (18) 
58.80683689108994

>  <Genealogy>  (18) 
C[N+](C)(C)CC1C[NH2+]c2ccccc21 (protonated)
C[N+](C)(C)C[C@H]1C[NH2+]c2ccccc21 (chirality)
C[N+](C)(C)C[C@H]1C[NH2+]c2ccccc21 (3D coordinates assigned)
C[N+](C)(C)C[C@H]1C[NH2+]c2ccccc21 (nonaromatic ring conformer: 58.80683689108994 kcal/mol)

>  <smiles>  (18) 
C[N+](C)(C)CC1CNc2ccccc21

>  <score_type>  (18) 
oracle

>  <origin>  (18) 
adg

>  <m_score__min__energy>  (18) 
-4.6500000000000004

>  <m_primary>  (18) 
energy

$$$$
18:0
     RDKit          3D

 64 68  0  0  0  0  0  0  0  0999 V2000
   -2.5120   14.8769  -34.6878 H   0  0  0  0  0  0  0  0  0  0  0  0
   -3.3280   15.5570  -34.4020 C   0  0  0  0  0  0  0  0  0  0  0  0
   -3.1420   16.9010  -34.4600 N   0  0  0  0  0  0  0  0  0  0  0  0
   -4.1200   17.7840  -34.1200 C   0  0  0  0  0  0  0  0  0  0  0  0
   -3.8430   19.1550  -34.2400 O   0  0  0  0  0  0  0  0  0  0  0  0
   -3.3460   19.9670  -33.2090 C   0  0  0  0  0  0  0  0  0  0  0  0
   -3.9040   19.9510  -31.9190 C   0  0  0  0  0  0  0  0  0  0  0  0
   -4.7926   19.3358  -31.7141 H   0  0  0  0  0  0  0  0  0  0  0  0
   -3.3340   20.7140  -30.8950 C   0  0  0  0  0  0  0  0  0  0  0  0
   -3.7534   20.6698  -29.8790 H   0  0  0  0  0  0  0  0  0  0  0  0
   -2.2320   21.5330  -31.1600 C   0  0  0  0  0  0  0  0  0  0  0  0
   -1.6120   22.2440  -30.0800 N   0  0  0  0  0  0  0  0  0  0  0  0
   -1.7670   22.0010  -28.8080 C   0  0  0  0  0  0  0  0  0  0  0  0
   -1.1430   20.7780  -28.1580 C   0  0  0  0  0  0  0  0  0  0  0  0
   -0.0740   20.7476  -28.4155 H   0  0  0  0  0  0  0  0  0  0  0  0
   -1.6731   19.8905  -28.5341 H   0  0  0  0  0  0  0  0  0  0  0  0
   -1.2820   20.7940  -26.6280 C   0  0  0  0  0  0  0  0  0  0  0  0
   -0.6397   20.0086  -26.2030 H   0  0  0  0  0  0  0  0  0  0  0  0
   -2.3381   20.6167  -26.3767 H   0  0  0  0  0  0  0  0  0  0  0  0
   -0.8690   22.1490  -26.0370 C   0  0  0  0  0  0  0  0  0  0  0  0
    0.2171   22.2751  -26.1573 H   0  0  0  0  0  0  0  0  0  0  0  0
   -1.1498   22.1611  -24.9735 H   0  0  0  0  0  0  0  0  0  0  0  0
   -1.5730   23.2900  -26.7240 C   0  0  0  0  0  0  0  0  0  0  0  0
   -1.4180   24.4240  -26.2920 O   0  0  0  0  0  0  0  0  0  0  0  0
   -2.4680   23.0210  -27.9230 C   0  0  1  0  0  0  0  0  0  0  0  0
   -3.4270   22.6134  -27.5707 H   0  0  0  0  0  0  0  0  0  0  0  0
   -2.8770   24.3060  -28.6930 C   0  0  0  0  0  0  0  0  0  0  0  0
   -3.0344   25.1171  -27.9668 H   0  0  0  0  0  0  0  0  0  0  0  0
   -2.0669   24.5450  -29.3977 H   0  0  0  0  0  0  0  0  0  0  0  0
   -4.1440   24.1220  -29.4960 C   0  0  0  0  0  0  0  0  0  0  0  0
   -4.9630   22.9990  -29.2920 C   0  0  0  0  0  0  0  0  0  0  0  0
   -4.6801   22.2436  -28.5441 H   0  0  0  0  0  0  0  0  0  0  0  0
   -6.1370   22.8370  -30.0360 C   0  0  0  0  0  0  0  0  0  0  0  0
   -6.7717   21.9531  -29.8753 H   0  0  0  0  0  0  0  0  0  0  0  0
   -6.5040   23.7970  -30.9830 C   0  0  0  0  0  0  0  0  0  0  0  0
   -7.4260   23.6670  -31.5687 H   0  0  0  0  0  0  0  0  0  0  0  0
   -5.7010   24.9210  -31.1860 C   0  0  0  0  0  0  0  0  0  0  0  0
   -5.9920   25.6769  -31.9303 H   0  0  0  0  0  0  0  0  0  0  0  0
   -4.5270   25.0870  -30.4440 C   0  0  0  0  0  0  0  0  0  0  0  0
   -3.9003   25.9769  -30.6030 H   0  0  0  0  0  0  0  0  0  0  0  0
   -1.6880   21.5690  -32.4530 C   0  0  0  0  0  0  0  0  0  0  0  0
   -0.8117   22.2001  -32.6624 H   0  0  0  0  0  0  0  0  0  0  0  0
   -2.2570   20.8050  -33.4750 C   0  0  0  0  0  0  0  0  0  0  0  0
   -1.8469   20.8624  -34.4941 H   0  0  0  0  0  0  0  0  0  0  0  0
   -5.3650   17.2990  -33.6450 C   0  0  0  0  0  0  0  0  0  0  0  0
   -6.4350   18.2020  -33.1640 C   0  0  0  0  0  0  0  0  0  0  0  0
   -6.5520   19.5040  -33.6750 C   0  0  0  0  0  0  0  0  0  0  0  0
   -5.8054   19.8812  -34.3894 H   0  0  0  0  0  0  0  0  0  0  0  0
   -7.6130   20.3230  -33.2800 C   0  0  0  0  0  0  0  0  0  0  0  0
   -7.6974   21.3406  -33.6892 H   0  0  0  0  0  0  0  0  0  0  0  0
   -8.5690   19.8610  -32.3690 C   0  0  0  0  0  0  0  0  0  0  0  0
   -9.6330   20.7120  -32.0320 O   0  0  0  0  0  0  0  0  0  0  0  0
   -9.5100   21.8920  -31.2420 C   0  0  0  0  0  0  0  0  0  0  0  0
  -10.4954   22.1575  -30.8315 H   0  0  0  0  0  0  0  0  0  0  0  0
   -9.0300   22.9170  -32.0340 F   0  0  0  0  0  0  0  0  0  0  0  0
   -8.6250   21.6750  -30.2020 F   0  0  0  0  0  0  0  0  0  0  0  0
   -8.4350   18.5660  -31.8320 C   0  0  0  0  0  0  0  0  0  0  0  0
   -9.1709   18.1968  -31.1025 H   0  0  0  0  0  0  0  0  0  0  0  0
   -7.3710   17.7480  -32.2220 C   0  0  0  0  0  0  0  0  0  0  0  0
   -7.2666   16.7426  -31.7881 H   0  0  0  0  0  0  0  0  0  0  0  0
   -5.5700   15.9110  -33.6010 C   0  0  0  0  0  0  0  0  0  0  0  0
   -6.5380   15.5104  -33.2655 H   0  0  0  0  0  0  0  0  0  0  0  0
   -4.5510   15.0380  -33.9810 C   0  0  0  0  0  0  0  0  0  0  0  0
   -4.7110   13.9502  -33.9487 H   0  0  0  0  0  0  0  0  0  0  0  0
  1  2  1  0
  2  3  2  0
  3  4  1  0
  4  5  1  0
  5  6  1  0
  6  7  2  0
  7  8  1  0
  7  9  1  0
  9 10  1  0
  9 11  2  0
 11 12  1  0
 12 13  2  0
 13 14  1  0
 14 15  1  0
 14 16  1  0
 14 17  1  0
 17 18  1  0
 17 19  1  0
 17 20  1  0
 20 21  1  0
 20 22  1  0
 20 23  1  0
 23 24  2  0
 23 25  1  0
 25 26  1  1
 25 27  1  0
 27 28  1  0
 27 29  1  0
 27 30  1  0
 30 31  2  0
 31 32  1  0
 31 33  1  0
 33 34  1  0
 33 35  2  0
 35 36  1  0
 35 37  1  0
 37 38  1  0
 37 39  2  0
 39 40  1  0
 11 41  1  0
 41 42  1  0
 41 43  2  0
 43 44  1  0
  4 45  2  0
 45 46  1  0
 46 47  2  0
 47 48  1  0
 47 49  1  0
 49 50  1  0
 49 51  2  0
 51 52  1  0
 52 53  1  0
 53 54  1  0
 53 55  1  0
 53 56  1  0
 51 57  1  0
 57 58  1  0
 57 59  2  0
 59 60  1  0
 45 61  1  0
 61 62  1  0
 61 63  2  0
 63 64  1  0
 63  2  1  0
 43  6  1  0
 59 46  1  0
 25 13  1  0
 39 30  1  0
M  END
>  <UniqueID>  (19) 
19

>  <SMILES>  (19) 
O=C1CCC/C(=N\c2ccc(Oc3ncccc3-c3ccc(OC(F)F)cc3)cc2)[C@@H]1Cc1ccccc1

>  <Energy>  (19) 
91.1364456202457

>  <Genealogy>  (19) 
O=C1CCCC(=Nc2ccc(Oc3ncccc3-c3ccc(OC(F)F)cc3)cc2)[C@@H]1Cc1ccccc1 (chirality)
O=C1CCC/C(=N\c2ccc(Oc3ncccc3-c3ccc(OC(F)F)cc3)cc2)[C@@H]1Cc1ccccc1 (cis-trans isomerization)
O=C1CCC/C(=N\c2ccc(Oc3ncccc3-c3ccc(OC(F)F)cc3)cc2)[C@@H]1Cc1ccccc1 (3D coordinates assigned)
O=C1CCC/C(=N\c2ccc(Oc3ncccc3-c3ccc(OC(F)F)cc3)cc2)[C@@H]1Cc1ccccc1 (nonaromatic ring conformer: 91.1364456202457 kcal/mol)

>  <smiles>  (19) 
O=C1CCCC(=Nc2ccc(Oc3ncccc3-c3ccc(OC(F)F)cc3)cc2)C1Cc1ccccc1

>  <score_type>  (19) 
oracle

>  <origin>  (19) 
adg

>  <m_score__min__energy>  (19) 
-10.119999999999999

>  <m_primary>  (19) 
energy

$$$$
19:0
     RDKit          3D

 33 34  0  0  0  0  0  0  0  0999 V2000
   -2.8120   23.8240  -28.0810 C   0  0  0  0  0  0  0  0  0  0  0  0
   -2.6020   24.9190  -29.0820 C   0  0  0  0  0  0  0  0  0  0  0  0
   -1.5990   25.6710  -28.9610 O   0  0  0  0  0  0  0  0  0  0  0  0
   -3.5290   25.1660  -30.1480 N   0  0  0  0  0  0  0  0  0  0  0  0
   -4.4930   24.2430  -30.6730 C   0  0  0  0  0  0  0  0  0  0  0  0
   -5.8260   24.6550  -30.7960 C   0  0  0  0  0  0  0  0  0  0  0  0
   -6.7880   23.7910  -31.3280 C   0  0  0  0  0  0  0  0  0  0  0  0
   -6.4300   22.5020  -31.7480 C   0  0  0  0  0  0  0  0  0  0  0  0
   -7.4300   21.6410  -32.3170 N   0  0  0  0  0  0  0  0  0  0  0  0
   -7.1960   20.2800  -32.7220 C   0  0  0  0  0  0  0  0  0  0  0  0
   -6.3170   19.9680  -33.7680 C   0  0  0  0  0  0  0  0  0  0  0  0
   -6.0960   18.6320  -34.1110 C   0  0  0  0  0  0  0  0  0  0  0  0
   -6.7090   17.6270  -33.4170 N   0  0  0  0  0  0  0  0  0  0  0  0
   -6.4950   16.2330  -33.8180 C   0  0  0  0  0  0  0  0  0  0  0  0
   -7.5660   17.9130  -32.3930 C   0  0  0  0  0  0  0  0  0  0  0  0
   -7.8110   19.2370  -32.0210 C   0  0  0  0  0  0  0  0  0  0  0  0
   -5.0820   22.1080  -31.6760 C   0  0  0  0  0  0  0  0  0  0  0  0
   -4.1210   22.9720  -31.1430 C   0  0  0  0  0  0  0  0  0  0  0  0
   -2.7329   24.2365  -27.0643 H   0  0  0  0  0  0  0  0  0  0  0  0
   -3.8107   23.3850  -28.2219 H   0  0  0  0  0  0  0  0  0  0  0  0
   -2.0466   23.0467  -28.2219 H   0  0  0  0  0  0  0  0  0  0  0  0
   -6.1179   25.6648  -30.4720 H   0  0  0  0  0  0  0  0  0  0  0  0
   -7.8324   24.1246  -31.4176 H   0  0  0  0  0  0  0  0  0  0  0  0
   -8.3930   22.0280  -32.4440 H   0  0  0  0  0  0  0  0  0  0  0  0
   -5.8035   20.7715  -34.3164 H   0  0  0  0  0  0  0  0  0  0  0  0
   -5.4233   18.3871  -34.9462 H   0  0  0  0  0  0  0  0  0  0  0  0
   -6.3984   15.6040  -32.9207 H   0  0  0  0  0  0  0  0  0  0  0  0
   -7.3507   15.8883  -34.4171 H   0  0  0  0  0  0  0  0  0  0  0  0
   -5.5753   16.1609  -34.4171 H   0  0  0  0  0  0  0  0  0  0  0  0
   -8.0676   17.0940  -31.8566 H   0  0  0  0  0  0  0  0  0  0  0  0
   -8.4848   19.4587  -31.1802 H   0  0  0  0  0  0  0  0  0  0  0  0
   -4.7822   21.1146  -32.0411 H   0  0  0  0  0  0  0  0  0  0  0  0
   -3.0688   22.6555  -31.0913 H   0  0  0  0  0  0  0  0  0  0  0  0
  1  2  1  0
  2  3  2  0
  2  4  1  0
  4  5  1  0
  5  6  2  0
  6  7  1  0
  7  8  2  0
  8  9  1  0
  9 10  1  0
 10 11  2  0
 11 12  1  0
 12 13  2  0
 13 14  1  0
 13 15  1  0
 15 16  2  0
  8 17  1  0
 17 18  2  0
 18  5  1  0
 16 10  1  0
  1 19  1  0
  1 20  1  0
  1 21  1  0
  6 22  1  0
  7 23  1  0
  9 24  1  0
 11 25  1  0
 12 26  1  0
 14 27  1  0
 14 28  1  0
 14 29  1  0
 15 30  1  0
 16 31  1  0
 17 32  1  0
 18 33  1  0
M  CHG  2   4  -1  13   1
M  END
>  <UniqueID>  (20) 
20

>  <SMILES>  (20) 
CC(=O)[N-]c1ccc(Nc2cc[n+](C)cc2)cc1

>  <Energy>  (20) 
42.08237598374972

>  <Genealogy>  (20) 
CC(=O)[N-]c1ccc(Nc2cc[n+](C)cc2)cc1 (protonated)
CC(=O)[N-]c1ccc(Nc2cc[n+](C)cc2)cc1 (3D coordinates assigned)
CC(=O)[N-]c1ccc(Nc2cc[n+](C)cc2)cc1 (optimized conformer: 42.08237598374972 kcal/mol)

>  <smiles>  (20) 
CC(=O)Nc1ccc(Nc2cc[n+](C)cc2)cc1

>  <score_type>  (20) 
oracle

>  <origin>  (20) 
adg

>  <m_score__min__energy>  (20) 
-8.4299999999999997

>  <m_primary>  (20) 
energy

$$$$
20:0
     RDKit          3D

 42 44  0  0  0  0  0  0  0  0999 V2000
   -3.6440   14.1330  -35.2050 C   0  0  0  0  0  0  0  0  0  0  0  0
   -4.9770   14.5690  -34.9600 O   0  0  0  0  0  0  0  0  0  0  0  0
   -5.3120   15.8010  -34.3790 C   0  0  0  0  0  0  0  0  0  0  0  0
   -6.5870   16.0610  -33.8410 C   0  0  0  0  0  0  0  0  0  0  0  0
   -6.8720   17.3060  -33.2720 C   0  0  0  0  0  0  0  0  0  0  0  0
   -5.8930   18.3140  -33.2320 C   0  0  0  0  0  0  0  0  0  0  0  0
   -6.2000   19.6330  -32.6250 C   0  0  0  0  0  0  0  0  0  0  0  0
   -5.1560   20.4380  -32.1140 C   0  0  0  0  0  0  0  0  0  0  0  0
   -5.5010   21.6660  -31.5670 C   0  0  0  0  0  0  0  0  0  0  0  0
   -4.7010   22.5640  -31.0460 O   0  0  0  0  0  0  0  0  0  0  0  0
   -5.4510   23.5760  -30.6470 C   0  0  0  0  0  0  0  0  0  0  0  0
   -4.9050   24.8220  -30.0170 C   0  0  2  0  0  0  0  0  0  0  0  0
   -5.7330   26.0240  -30.4760 C   0  0  0  0  0  0  0  0  0  0  0  0
   -3.5590   24.9840  -30.4320 O   0  0  0  0  0  0  0  0  0  0  0  0
   -2.7000   24.1640  -29.6710 C   0  0  0  0  0  0  0  0  0  0  0  0
   -6.7930   23.3340  -30.9260 C   0  0  0  0  0  0  0  0  0  0  0  0
   -6.7960   22.0900  -31.5190 C   0  0  0  0  0  0  0  0  0  0  0  0
   -7.8290   21.3000  -32.0240 C   0  0  0  0  0  0  0  0  0  0  0  0
   -9.2550   21.7630  -31.9640 C   0  0  0  0  0  0  0  0  0  0  0  0
   -7.5010   20.0830  -32.5650 N   0  0  0  0  0  0  0  0  0  0  0  0
   -4.6220   18.0490  -33.7710 C   0  0  0  0  0  0  0  0  0  0  0  0
   -4.3390   16.8040  -34.3380 C   0  0  0  0  0  0  0  0  0  0  0  0
   -3.1311   13.9652  -34.2465 H   0  0  0  0  0  0  0  0  0  0  0  0
   -3.6647   13.1948  -35.7789 H   0  0  0  0  0  0  0  0  0  0  0  0
   -3.1063   14.9021  -35.7789 H   0  0  0  0  0  0  0  0  0  0  0  0
   -7.3623   15.2812  -33.8685 H   0  0  0  0  0  0  0  0  0  0  0  0
   -7.8704   17.4983  -32.8522 H   0  0  0  0  0  0  0  0  0  0  0  0
   -4.1087   20.1033  -32.1487 H   0  0  0  0  0  0  0  0  0  0  0  0
   -4.9526   24.7476  -28.9206 H   0  0  0  0  0  0  0  0  0  0  0  0
   -6.1079   26.5683  -29.5967 H   0  0  0  0  0  0  0  0  0  0  0  0
   -5.1035   26.6935  -31.0807 H   0  0  0  0  0  0  0  0  0  0  0  0
   -6.5828   25.6744  -31.0807 H   0  0  0  0  0  0  0  0  0  0  0  0
   -2.8814   24.3372  -28.6000 H   0  0  0  0  0  0  0  0  0  0  0  0
   -2.8945   23.1080  -29.9098 H   0  0  0  0  0  0  0  0  0  0  0  0
   -1.6542   24.4073  -29.9098 H   0  0  0  0  0  0  0  0  0  0  0  0
   -7.6543   23.9865  -30.7202 H   0  0  0  0  0  0  0  0  0  0  0  0
   -9.5640   21.8633  -30.9131 H   0  0  0  0  0  0  0  0  0  0  0  0
   -9.3458   22.7368  -32.4675 H   0  0  0  0  0  0  0  0  0  0  0  0
   -9.9005   21.0283  -32.4675 H   0  0  0  0  0  0  0  0  0  0  0  0
   -8.2700   19.4720  -32.9240 H   0  0  0  0  0  0  0  0  0  0  0  0
   -3.8450   18.8272  -33.7461 H   0  0  0  0  0  0  0  0  0  0  0  0
   -3.3402   16.6109  -34.7565 H   0  0  0  0  0  0  0  0  0  0  0  0
  1  2  1  0
  2  3  1  0
  3  4  2  0
  4  5  1  0
  5  6  2  0
  6  7  1  0
  7  8  2  0
  8  9  1  0
  9 10  1  0
 10 11  1  0
 11 12  1  0
 12 13  1  0
 12 14  1  0
 14 15  1  0
 11 16  2  0
 16 17  1  0
 17 18  1  0
 18 19  1  0
 18 20  2  0
  6 21  1  0
 21 22  2  0
 22  3  1  0
 20  7  1  0
 17  9  2  0
  1 23  1  0
  1 24  1  0
  1 25  1  0
  4 26  1  0
  5 27  1  0
  8 28  1  0
 12 29  1  1
 13 30  1  0
 13 31  1  0
 13 32  1  0
 15 33  1  0
 15 34  1  0
 15 35  1  0
 16 36  1  0
 19 37  1  0
 19 38  1  0
 19 39  1  0
 20 40  1  0
 21 41  1  0
 22 42  1  0
M  CHG  1  20   1
M  END
>  <UniqueID>  (21) 
21

>  <SMILES>  (21) 
COc1ccc(-c2cc3oc([C@H](C)OC)cc3c(C)[nH+]2)cc1

>  <Energy>  (21) 
80.870796371575

>  <Genealogy>  (21) 
COc1ccc(-c2cc3oc(C(C)OC)cc3c(C)[nH+]2)cc1 (protonated)
COc1ccc(-c2cc3oc([C@H](C)OC)cc3c(C)[nH+]2)cc1 (chirality)
COc1ccc(-c2cc3oc([C@H](C)OC)cc3c(C)[nH+]2)cc1 (3D coordinates assigned)
COc1ccc(-c2cc3oc([C@H](C)OC)cc3c(C)[nH+]2)cc1 (optimized conformer: 80.870796371575 kcal/mol)

>  <smiles>  (21) 
COc1ccc(-c2cc3oc(C(C)OC)cc3c(C)n2)cc1

>  <score_type>  (21) 
oracle

>  <origin>  (21) 
adg

>  <m_score__min__energy>  (21) 
-7.0199999999999996

>  <m_primary>  (21) 
energy

$$$$
21:0
     RDKit          3D

 41 44  0  0  0  0  0  0  0  0999 V2000
   -0.1460   27.3040  -24.0060 C   0  0  0  0  0  0  0  0  0  0  0  0
   -0.1950   27.4090  -25.4260 O   0  0  0  0  0  0  0  0  0  0  0  0
   -0.8900   26.5210  -26.2600 C   0  0  0  0  0  0  0  0  0  0  0  0
   -0.5090   26.2790  -27.5930 C   0  0  0  0  0  0  0  0  0  0  0  0
   -1.2360   25.3860  -28.3850 C   0  0  0  0  0  0  0  0  0  0  0  0
   -2.3630   24.7250  -27.8640 C   0  0  0  0  0  0  0  0  0  0  0  0
   -3.1200   23.7940  -28.6610 N   0  0  0  0  0  0  0  0  0  0  0  0
   -3.0340   22.4720  -28.5320 N   0  0  0  0  0  0  0  0  0  0  0  0
   -3.8790   21.8940  -29.4220 C   0  0  0  0  0  0  0  0  0  0  0  0
   -4.5240   22.8950  -30.1190 C   0  0  0  0  0  0  0  0  0  0  0  0
   -5.4780   22.9200  -31.1340 C   0  0  0  0  0  0  0  0  0  0  0  0
   -6.0250   21.7180  -31.6980 N   0  0  0  0  0  0  0  0  0  0  0  0
   -7.4370   21.3990  -31.4610 C   0  0  0  0  0  0  0  0  0  0  0  0
   -7.8550   20.1620  -32.2610 C   0  0  0  0  0  0  0  0  0  0  0  0
   -7.2370   20.2170  -33.5900 N   0  0  0  0  0  0  0  0  0  0  0  0
   -5.7730   20.0540  -33.5220 C   0  0  0  0  0  0  0  0  0  0  0  0
   -5.1430   20.6910  -32.2650 C   0  0  0  0  0  0  0  0  0  0  0  0
   -5.8640   24.1450  -31.6030 N   0  0  0  0  0  0  0  0  0  0  0  0
   -5.3580   25.3060  -31.0800 C   0  0  0  0  0  0  0  0  0  0  0  0
   -4.4300   25.2680  -30.0760 N   0  0  0  0  0  0  0  0  0  0  0  0
   -4.0220   24.0570  -29.6260 C   0  0  0  0  0  0  0  0  0  0  0  0
   -2.7300   24.9580  -26.5290 C   0  0  0  0  0  0  0  0  0  0  0  0
   -2.0030   25.8520  -25.7390 C   0  0  0  0  0  0  0  0  0  0  0  0
   -0.5705   28.2137  -23.5562 H   0  0  0  0  0  0  0  0  0  0  0  0
   -0.7287   26.4288  -23.6827 H   0  0  0  0  0  0  0  0  0  0  0  0
    0.8991   27.1885  -23.6827 H   0  0  0  0  0  0  0  0  0  0  0  0
    0.3661   26.7957  -28.0140 H   0  0  0  0  0  0  0  0  0  0  0  0
   -0.9246   25.1987  -29.4233 H   0  0  0  0  0  0  0  0  0  0  0  0
   -4.0249   20.8130  -29.5637 H   0  0  0  0  0  0  0  0  0  0  0  0
   -7.5879   21.2035  -30.3891 H   0  0  0  0  0  0  0  0  0  0  0  0
   -8.0511   22.2526  -31.7839 H   0  0  0  0  0  0  0  0  0  0  0  0
   -7.5208   19.2544  -31.7369 H   0  0  0  0  0  0  0  0  0  0  0  0
   -8.9501   20.1398  -32.3628 H   0  0  0  0  0  0  0  0  0  0  0  0
   -7.6280   19.4340  -34.1650 H   0  0  0  0  0  0  0  0  0  0  0  0
   -5.5416   18.9786  -33.5212 H   0  0  0  0  0  0  0  0  0  0  0  0
   -5.3479   20.5702  -34.3954 H   0  0  0  0  0  0  0  0  0  0  0  0
   -4.9722   19.9077  -31.5118 H   0  0  0  0  0  0  0  0  0  0  0  0
   -4.1921   21.1644  -32.5509 H   0  0  0  0  0  0  0  0  0  0  0  0
   -5.7006   26.2756  -31.4704 H   0  0  0  0  0  0  0  0  0  0  0  0
   -3.5968   24.4325  -26.1017 H   0  0  0  0  0  0  0  0  0  0  0  0
   -2.3085   26.0316  -24.6976 H   0  0  0  0  0  0  0  0  0  0  0  0
  1  2  1  0
  2  3  1  0
  3  4  2  0
  4  5  1  0
  5  6  2  0
  6  7  1  0
  7  8  1  0
  8  9  2  0
  9 10  1  0
 10 11  2  0
 11 12  1  0
 12 13  1  0
 13 14  1  0
 14 15  1  0
 15 16  1  0
 16 17  1  0
 11 18  1  0
 18 19  2  0
 19 20  1  0
 20 21  2  0
  6 22  1  0
 22 23  2  0
 23  3  1  0
 21  7  1  0
 21 10  1  0
 17 12  1  0
  1 24  1  0
  1 25  1  0
  1 26  1  0
  4 27  1  0
  5 28  1  0
  9 29  1  0
 13 30  1  0
 13 31  1  0
 14 32  1  0
 14 33  1  0
 15 34  1  0
 16 35  1  0
 16 36  1  0
 17 37  1  0
 17 38  1  0
 19 39  1  0
 22 40  1  0
 23 41  1  0
M  END
>  <UniqueID>  (22) 
22

>  <SMILES>  (22) 
COc1ccc(-n2ncc3c(N4CCNCC4)ncnc32)cc1

>  <Energy>  (22) 
97.72706089937434

>  <Genealogy>  (22) 
COc1ccc(-n2ncc3c(N4CCNCC4)ncnc32)cc1 (3D coordinates assigned)
COc1ccc(-n2ncc3c(N4CCNCC4)ncnc32)cc1 (nonaromatic ring conformer: 97.72706089937434 kcal/mol)

>  <smiles>  (22) 
COc1ccc(-n2ncc3c(N4CCNCC4)ncnc32)cc1

>  <score_type>  (22) 
oracle

>  <origin>  (22) 
adg

>  <m_score__min__energy>  (22) 
-7.29

>  <m_primary>  (22) 
energy

$$$$
22:0
     RDKit          3D

 46 46  0  0  0  0  0  0  0  0999 V2000
   -6.5120   17.4960  -31.1930 C   0  0  0  0  0  0  0  0  0  0  0  0
   -6.3210   17.2600  -32.6910 C   0  0  0  0  0  0  0  0  0  0  0  0
   -5.5530   18.3990  -33.3780 C   0  0  0  0  0  0  0  0  0  0  0  0
   -6.4810   19.5020  -33.9150 C   0  0  0  0  0  0  0  0  0  0  0  0
   -6.8670   20.4350  -32.8280 N   0  0  0  0  0  0  0  0  0  0  0  0
   -8.1070   20.3100  -32.2300 C   0  0  0  0  0  0  0  0  0  0  0  0
   -9.1530   19.3390  -32.7130 C   0  0  0  0  0  0  0  0  0  0  0  0
   -8.4400   21.0990  -31.1820 N   0  0  0  0  0  0  0  0  0  0  0  0
   -7.5940   22.0170  -30.6730 C   0  0  0  0  0  0  0  0  0  0  0  0
   -7.9540   22.6870  -29.6690 O   0  0  0  0  0  0  0  0  0  0  0  0
   -6.3300   22.1980  -31.2460 C   0  0  0  0  0  0  0  0  0  0  0  0
   -5.3960   23.1870  -30.6430 C   0  0  0  0  0  0  0  0  0  0  0  0
   -4.5710   23.7830  -31.3920 O   0  0  0  0  0  0  0  0  0  0  0  0
   -5.3950   23.4450  -29.2150 N   0  0  0  0  0  0  0  0  0  0  0  0
   -5.3570   24.9070  -28.9660 C   0  0  0  0  0  0  0  0  0  0  0  0
   -6.4780   25.6440  -29.7060 C   0  0  0  0  0  0  0  0  0  0  0  0
   -4.2340   22.7610  -28.5900 C   0  0  0  0  0  0  0  0  0  0  0  0
   -3.5480   23.6270  -27.5270 C   0  0  0  0  0  0  0  0  0  0  0  0
   -5.9730   21.3840  -32.3570 C   0  0  0  0  0  0  0  0  0  0  0  0
   -4.6460   21.6050  -33.0690 C   0  0  0  0  0  0  0  0  0  0  0  0
   -5.9184   16.7625  -30.6276 H   0  0  0  0  0  0  0  0  0  0  0  0
   -6.1794   18.5127  -30.9366 H   0  0  0  0  0  0  0  0  0  0  0  0
   -7.5757   17.3826  -30.9366 H   0  0  0  0  0  0  0  0  0  0  0  0
   -5.7610   16.3236  -32.8310 H   0  0  0  0  0  0  0  0  0  0  0  0
   -7.3198   17.2095  -33.1491 H   0  0  0  0  0  0  0  0  0  0  0  0
   -4.8604   18.8458  -32.6495 H   0  0  0  0  0  0  0  0  0  0  0  0
   -5.0180   17.9679  -34.2370 H   0  0  0  0  0  0  0  0  0  0  0  0
   -5.9576   20.0625  -34.7036 H   0  0  0  0  0  0  0  0  0  0  0  0
   -7.3903   19.0341  -34.3202 H   0  0  0  0  0  0  0  0  0  0  0  0
   -9.6512   18.8765  -31.8482 H   0  0  0  0  0  0  0  0  0  0  0  0
   -9.8968   19.8740  -33.3217 H   0  0  0  0  0  0  0  0  0  0  0  0
   -8.6747   18.5576  -33.3217 H   0  0  0  0  0  0  0  0  0  0  0  0
   -6.2750   23.0580  -28.7970 H   0  0  0  0  0  0  0  0  0  0  0  0
   -5.4663   25.0864  -27.8862 H   0  0  0  0  0  0  0  0  0  0  0  0
   -4.3951   25.2903  -29.3374 H   0  0  0  0  0  0  0  0  0  0  0  0
   -7.1648   26.0955  -28.9750 H   0  0  0  0  0  0  0  0  0  0  0  0
   -6.0436   26.4333  -30.3371 H   0  0  0  0  0  0  0  0  0  0  0  0
   -7.0304   24.9323  -30.3371 H   0  0  0  0  0  0  0  0  0  0  0  0
   -4.5843   21.8320  -28.1165 H   0  0  0  0  0  0  0  0  0  0  0  0
   -3.4986   22.5573  -29.3822 H   0  0  0  0  0  0  0  0  0  0  0  0
   -3.8304   23.2705  -26.5254 H   0  0  0  0  0  0  0  0  0  0  0  0
   -2.4567   23.5582  -27.6464 H   0  0  0  0  0  0  0  0  0  0  0  0
   -3.8647   24.6736  -27.6464 H   0  0  0  0  0  0  0  0  0  0  0  0
   -3.8478   21.7379  -32.3239 H   0  0  0  0  0  0  0  0  0  0  0  0
   -4.4181   20.7324  -33.6988 H   0  0  0  0  0  0  0  0  0  0  0  0
   -4.7131   22.5043  -33.6988 H   0  0  0  0  0  0  0  0  0  0  0  0
  1  2  1  0
  2  3  1  0
  3  4  1  0
  4  5  1  0
  5  6  1  0
  6  7  1  0
  6  8  2  0
  8  9  1  0
  9 10  2  0
  9 11  1  0
 11 12  1  0
 12 13  2  0
 12 14  1  0
 14 15  1  0
 15 16  1  0
 14 17  1  0
 17 18  1  0
 11 19  2  0
 19 20  1  0
 19  5  1  0
  1 21  1  0
  1 22  1  0
  1 23  1  0
  2 24  1  0
  2 25  1  0
  3 26  1  0
  3 27  1  0
  4 28  1  0
  4 29  1  0
  7 30  1  0
  7 31  1  0
  7 32  1  0
 14 33  1  0
 15 34  1  0
 15 35  1  0
 16 36  1  0
 16 37  1  0
 16 38  1  0
 17 39  1  0
 17 40  1  0
 18 41  1  0
 18 42  1  0
 18 43  1  0
 20 44  1  0
 20 45  1  0
 20 46  1  0
M  CHG  1  14   1
M  END
>  <UniqueID>  (23) 
23

>  <SMILES>  (23) 
CCCCn1c(C)nc(=O)c(C(=O)[NH+](CC)CC)c1C

>  <Energy>  (23) 
53.104072020792806

>  <Genealogy>  (23) 
CCCCn1c(C)nc(=O)c(C(=O)[NH+](CC)CC)c1C (protonated)
CCCCn1c(C)nc(=O)c(C(=O)[NH+](CC)CC)c1C (3D coordinates assigned)
CCCCn1c(C)nc(=O)c(C(=O)[NH+](CC)CC)c1C (optimized conformer: 53.104072020792806 kcal/mol)

>  <smiles>  (23) 
CCCCn1c(C)nc(=O)c(C(=O)N(CC)CC)c1C

>  <score_type>  (23) 
oracle

>  <origin>  (23) 
adg

>  <m_score__min__energy>  (23) 
-5.9699999999999998

>  <m_primary>  (23) 
energy

$$$$
23:0
     RDKit          3D

 36 38  0  0  0  0  0  0  0  0999 V2000
   -7.9379   23.0169  -31.9809 H   0  0  0  0  0  0  0  0  0  0  0  0
   -7.0120   22.4500  -31.8040 C   0  0  0  0  0  0  0  0  0  0  0  0
   -7.0100   21.1440  -32.1510 C   0  0  0  0  0  0  0  0  0  0  0  0
   -5.9380   20.4950  -32.9610 C   0  0  0  0  0  0  0  0  0  0  0  0
   -5.0230   21.1710  -33.5040 O   0  0  0  0  0  0  0  0  0  0  0  0
   -5.9830   19.0320  -33.1760 C   0  0  0  0  0  0  0  0  0  0  0  0
   -4.8470   18.3290  -33.6150 C   0  0  0  0  0  0  0  0  0  0  0  0
   -3.9084   18.8695  -33.8071 H   0  0  0  0  0  0  0  0  0  0  0  0
   -4.9060   16.9470  -33.8080 C   0  0  0  0  0  0  0  0  0  0  0  0
   -4.0127   16.4012  -34.1457 H   0  0  0  0  0  0  0  0  0  0  0  0
   -6.0970   16.2570  -33.5730 C   0  0  0  0  0  0  0  0  0  0  0  0
   -6.1398   15.1684  -33.7253 H   0  0  0  0  0  0  0  0  0  0  0  0
   -7.2340   16.9460  -33.1450 C   0  0  0  0  0  0  0  0  0  0  0  0
   -8.1738   16.4002  -32.9749 H   0  0  0  0  0  0  0  0  0  0  0  0
   -7.1820   18.3330  -32.9310 C   0  0  0  0  0  0  0  0  0  0  0  0
   -8.4310   19.0910  -32.5610 C   0  0  0  0  0  0  0  0  0  0  0  0
   -9.1303   18.4052  -32.0604 H   0  0  0  0  0  0  0  0  0  0  0  0
   -8.8736   19.4978  -33.4822 H   0  0  0  0  0  0  0  0  0  0  0  0
   -8.1200   20.2610  -31.6190 C   0  0  0  0  0  0  0  0  0  0  0  0
   -7.8147   19.8579  -30.6421 H   0  0  0  0  0  0  0  0  0  0  0  0
   -9.0282   20.8754  -31.5321 H   0  0  0  0  0  0  0  0  0  0  0  0
   -5.8770   23.1790  -31.2080 C   0  0  0  0  0  0  0  0  0  0  0  0
   -4.6660   22.5230  -30.9370 C   0  0  0  0  0  0  0  0  0  0  0  0
   -4.5434   21.4641  -31.2086 H   0  0  0  0  0  0  0  0  0  0  0  0
   -3.6150   23.2110  -30.3230 C   0  0  0  0  0  0  0  0  0  0  0  0
   -2.6624   22.6962  -30.1296 H   0  0  0  0  0  0  0  0  0  0  0  0
   -3.7710   24.5610  -29.9510 C   0  0  0  0  0  0  0  0  0  0  0  0
   -2.7460   25.2940  -29.3350 O   0  0  0  0  0  0  0  0  0  0  0  0
   -2.0810   24.8990  -28.1390 C   0  0  0  0  0  0  0  0  0  0  0  0
   -2.6585   25.2420  -27.2679 H   0  0  0  0  0  0  0  0  0  0  0  0
   -1.9941   23.8028  -28.1127 H   0  0  0  0  0  0  0  0  0  0  0  0
   -1.0768   25.3471  -28.1127 H   0  0  0  0  0  0  0  0  0  0  0  0
   -4.9910   25.1990  -30.1970 C   0  0  0  0  0  0  0  0  0  0  0  0
   -5.1246   26.2509  -29.9042 H   0  0  0  0  0  0  0  0  0  0  0  0
   -6.0430   24.5120  -30.8120 C   0  0  0  0  0  0  0  0  0  0  0  0
   -7.0031   25.0201  -30.9850 H   0  0  0  0  0  0  0  0  0  0  0  0
  1  2  1  0
  2  3  2  0
  3  4  1  0
  4  5  2  0
  4  6  1  0
  6  7  2  0
  7  8  1  0
  7  9  1  0
  9 10  1  0
  9 11  2  0
 11 12  1  0
 11 13  1  0
 13 14  1  0
 13 15  2  0
 15 16  1  0
 16 17  1  0
 16 18  1  0
 16 19  1  0
 19 20  1  0
 19 21  1  0
  2 22  1  0
 22 23  2  0
 23 24  1  0
 23 25  1  0
 25 26  1  0
 25 27  2  0
 27 28  1  0
 28 29  1  0
 29 30  1  0
 29 31  1  0
 29 32  1  0
 27 33  1  0
 33 34  1  0
 33 35  2  0
 35 36  1  0
 19  3  1  0
 35 22  1  0
 15  6  1  0
M  END
>  <UniqueID>  (24) 
24

>  <SMILES>  (24) 
COc1ccc(/C=C2/CCc3ccccc3C2=O)cc1

>  <Energy>  (24) 
49.72161402754866

>  <Genealogy>  (24) 
COc1ccc(/C=C2/CCc3ccccc3C2=O)cc1 (cis-trans isomerization)
COc1ccc(/C=C2/CCc3ccccc3C2=O)cc1 (3D coordinates assigned)
COc1ccc(/C=C2/CCc3ccccc3C2=O)cc1 (nonaromatic ring conformer: 49.72161402754866 kcal/mol)

>  <smiles>  (24) 
COc1ccc(C=C2CCc3ccccc3C2=O)cc1

>  <score_type>  (24) 
oracle

>  <origin>  (24) 
adg

>  <m_score__min__energy>  (24) 
-8.9199999999999999

>  <m_primary>  (24) 
energy

$$$$
24:0
     RDKit          3D

 56 57  0  0  0  0  0  0  0  0999 V2000
   -9.1420   21.5150  -31.0700 C   0  0  0  0  0  0  0  0  0  0  0  0
   -9.0730   20.1130  -31.3060 O   0  0  0  0  0  0  0  0  0  0  0  0
   -8.0420   19.4790  -32.0160 C   0  0  0  0  0  0  0  0  0  0  0  0
   -7.5530   18.2070  -31.6630 C   0  0  0  0  0  0  0  0  0  0  0  0
   -6.5210   17.6200  -32.4010 C   0  0  0  0  0  0  0  0  0  0  0  0
   -5.9610   18.2930  -33.4980 C   0  0  0  0  0  0  0  0  0  0  0  0
   -4.8610   17.6500  -34.3100 C   0  0  0  0  0  0  0  0  0  0  0  0
   -3.5210   17.8230  -33.6910 N   0  0  1  0  0  0  0  0  0  0  0  0
   -2.5830   16.8130  -34.2140 C   0  0  0  0  0  0  0  0  0  0  0  0
   -2.9640   19.1980  -33.7940 C   0  0  0  0  0  0  0  0  0  0  0  0
   -3.0160   20.0310  -32.4870 C   0  0  0  0  0  0  0  0  0  0  0  0
   -3.1980   21.5350  -32.7580 C   0  0  0  0  0  0  0  0  0  0  0  0
   -4.6770   21.9310  -32.7690 C   0  0  0  0  0  0  0  0  0  0  0  0
   -4.8870   23.1120  -31.9220 N   0  0  0  0  0  0  0  0  0  0  0  0
   -5.1890   22.7220  -30.5400 C   0  0  0  0  0  0  0  0  0  0  0  0
   -4.0020   23.0270  -29.6660 C   0  0  0  0  0  0  0  0  0  0  0  0
   -3.4510   22.0220  -28.8520 C   0  0  0  0  0  0  0  0  0  0  0  0
   -2.3350   22.2910  -28.0560 C   0  0  0  0  0  0  0  0  0  0  0  0
   -1.7570   23.5600  -28.0670 C   0  0  0  0  0  0  0  0  0  0  0  0
   -2.2870   24.5660  -28.8780 C   0  0  0  0  0  0  0  0  0  0  0  0
   -3.4130   24.3110  -29.6860 C   0  0  0  0  0  0  0  0  0  0  0  0
   -3.9670   25.2960  -30.5210 O   0  0  0  0  0  0  0  0  0  0  0  0
   -5.3140   25.7550  -30.4480 C   0  0  0  0  0  0  0  0  0  0  0  0
   -6.4560   19.5560  -33.8560 C   0  0  0  0  0  0  0  0  0  0  0  0
   -7.4860   20.1450  -33.1170 C   0  0  0  0  0  0  0  0  0  0  0  0
   -9.1513   21.7044  -29.9865 H   0  0  0  0  0  0  0  0  0  0  0  0
   -8.2669   22.0062  -31.5206 H   0  0  0  0  0  0  0  0  0  0  0  0
  -10.0611   21.9179  -31.5206 H   0  0  0  0  0  0  0  0  0  0  0  0
   -7.9844   17.6731  -30.8035 H   0  0  0  0  0  0  0  0  0  0  0  0
   -6.1456   16.6248  -32.1203 H   0  0  0  0  0  0  0  0  0  0  0  0
   -5.0718   16.5741  -34.3999 H   0  0  0  0  0  0  0  0  0  0  0  0
   -4.8407   18.1418  -35.2937 H   0  0  0  0  0  0  0  0  0  0  0  0
   -3.6260   17.6200  -32.6680 H   0  0  0  0  0  0  0  0  0  0  0  0
   -2.0993   16.2922  -33.3744 H   0  0  0  0  0  0  0  0  0  0  0  0
   -3.1330   16.0854  -34.8289 H   0  0  0  0  0  0  0  0  0  0  0  0
   -1.8168   17.3078  -34.8289 H   0  0  0  0  0  0  0  0  0  0  0  0
   -1.9117   19.1166  -34.1040 H   0  0  0  0  0  0  0  0  0  0  0  0
   -3.5961   19.7298  -34.5203 H   0  0  0  0  0  0  0  0  0  0  0  0
   -3.8594   19.6774  -31.8758 H   0  0  0  0  0  0  0  0  0  0  0  0
   -2.0569   19.8974  -31.9652 H   0  0  0  0  0  0  0  0  0  0  0  0
   -2.6818   22.1045  -31.9711 H   0  0  0  0  0  0  0  0  0  0  0  0
   -2.7743   21.7599  -33.7479 H   0  0  0  0  0  0  0  0  0  0  0  0
   -4.9845   22.1624  -33.7995 H   0  0  0  0  0  0  0  0  0  0  0  0
   -5.2774   21.0957  -32.3792 H   0  0  0  0  0  0  0  0  0  0  0  0
   -4.0010   23.6710  -31.9150 H   0  0  0  0  0  0  0  0  0  0  0  0
   -6.0633   23.2854  -30.1820 H   0  0  0  0  0  0  0  0  0  0  0  0
   -5.4082   21.6448  -30.5008 H   0  0  0  0  0  0  0  0  0  0  0  0
   -3.9011   21.0183  -28.8418 H   0  0  0  0  0  0  0  0  0  0  0  0
   -1.9114   21.5003  -27.4193 H   0  0  0  0  0  0  0  0  0  0  0  0
   -0.8812   23.7693  -27.4352 H   0  0  0  0  0  0  0  0  0  0  0  0
   -1.8228   25.5632  -28.8861 H   0  0  0  0  0  0  0  0  0  0  0  0
   -5.6103   25.8560  -29.3935 H   0  0  0  0  0  0  0  0  0  0  0  0
   -5.3961   26.7318  -30.9471 H   0  0  0  0  0  0  0  0  0  0  0  0
   -5.9755   25.0315  -30.9471 H   0  0  0  0  0  0  0  0  0  0  0  0
   -6.0317   20.0851  -34.7220 H   0  0  0  0  0  0  0  0  0  0  0  0
   -7.8630   21.1384  -33.4015 H   0  0  0  0  0  0  0  0  0  0  0  0
  1  2  1  0
  2  3  1  0
  3  4  2  0
  4  5  1  0
  5  6  2  0
  6  7  1  0
  7  8  1  0
  8  9  1  0
  8 10  1  0
 10 11  1  0
 11 12  1  0
 12 13  1  0
 13 14  1  0
 14 15  1  0
 15 16  1  0
 16 17  2  0
 17 18  1  0
 18 19  2  0
 19 20  1  0
 20 21  2  0
 21 22  1  0
 22 23  1  0
  6 24  1  0
 24 25  2  0
 25  3  1  0
 21 16  1  0
  1 26  1  0
  1 27  1  0
  1 28  1  0
  4 29  1  0
  5 30  1  0
  7 31  1  0
  7 32  1  0
  8 33  1  1
  9 34  1  0
  9 35  1  0
  9 36  1  0
 10 37  1  0
 10 38  1  0
 11 39  1  0
 11 40  1  0
 12 41  1  0
 12 42  1  0
 13 43  1  0
 13 44  1  0
 14 45  1  0
 15 46  1  0
 15 47  1  0
 17 48  1  0
 18 49  1  0
 19 50  1  0
 20 51  1  0
 23 52  1  0
 23 53  1  0
 23 54  1  0
 24 55  1  0
 25 56  1  0
M  CHG  1   8   1
M  END
>  <UniqueID>  (25) 
25

>  <SMILES>  (25) 
COc1ccc(C[N@@H+](C)CCCCNCc2ccccc2OC)cc1

>  <Energy>  (25) 
53.02086992359045

>  <Genealogy>  (25) 
COc1ccc(C[NH+](C)CCCCNCc2ccccc2OC)cc1 (protonated)
COc1ccc(C[N@@H+](C)CCCCNCc2ccccc2OC)cc1 (chirality)
COc1ccc(C[N@@H+](C)CCCCNCc2ccccc2OC)cc1 (3D coordinates assigned)
COc1ccc(C[N@@H+](C)CCCCNCc2ccccc2OC)cc1 (optimized conformer: 53.02086992359045 kcal/mol)

>  <smiles>  (25) 
COc1ccc(CN(C)CCCCNCc2ccccc2OC)cc1

>  <score_type>  (25) 
oracle

>  <origin>  (25) 
adg

>  <m_score__min__energy>  (25) 
-7.4500000000000002

>  <m_primary>  (25) 
energy

$$$$
25:0
     RDKit          3D

 56 59  0  0  0  0  0  0  0  0999 V2000
    0.3120   19.0170  -35.7940 C   0  0  0  0  0  0  0  0  0  0  0  0
    0.3470   20.5440  -35.7870 C   0  0  0  0  0  0  0  0  0  0  0  0
   -0.5180   21.0790  -34.7390 N   0  0  0  0  0  0  0  0  0  0  0  0
   -0.3090   20.7500  -33.3580 C   0  0  0  0  0  0  0  0  0  0  0  0
    0.6360   19.9810  -33.0250 O   0  0  0  0  0  0  0  0  0  0  0  0
   -1.2560   21.2760  -32.3050 C   0  0  0  0  0  0  0  0  0  0  0  0
   -2.3290   20.2120  -31.9800 C   0  0  0  0  0  0  0  0  0  0  0  0
   -2.9170   20.4550  -30.5870 C   0  0  0  0  0  0  0  0  0  0  0  0
   -1.8950   20.3010  -29.5220 N   0  0  0  0  0  0  0  0  0  0  0  0
   -2.3140   20.9450  -28.2560 C   0  0  0  0  0  0  0  0  0  0  0  0
   -2.1770   22.4380  -28.3820 C   0  0  0  0  0  0  0  0  0  0  0  0
   -1.2910   23.1460  -27.5540 C   0  0  0  0  0  0  0  0  0  0  0  0
   -1.1930   24.5370  -27.6580 C   0  0  0  0  0  0  0  0  0  0  0  0
   -1.9750   25.2300  -28.5850 C   0  0  0  0  0  0  0  0  0  0  0  0
   -2.8730   24.5420  -29.4120 C   0  0  0  0  0  0  0  0  0  0  0  0
   -3.5990   25.2850  -30.4040 N   0  0  0  0  0  0  0  0  0  0  0  0
   -5.0100   25.2470  -30.6520 C   0  0  0  0  0  0  0  0  0  0  0  0
   -5.7230   26.2740  -30.4880 O   0  0  0  0  0  0  0  0  0  0  0  0
   -5.6280   24.0030  -31.1370 C   0  0  0  0  0  0  0  0  0  0  0  0
   -4.9980   23.0320  -31.9220 C   0  0  0  0  0  0  0  0  0  0  0  0
   -5.8580   21.9780  -32.2590 C   0  0  0  0  0  0  0  0  0  0  0  0
   -5.5290   20.8610  -33.0320 C   0  0  0  0  0  0  0  0  0  0  0  0
   -6.5140   19.8870  -33.2650 C   0  0  0  0  0  0  0  0  0  0  0  0
   -7.8110   20.0390  -32.7280 C   0  0  0  0  0  0  0  0  0  0  0  0
   -8.1330   21.1670  -31.9550 C   0  0  0  0  0  0  0  0  0  0  0  0
   -7.1390   22.1220  -31.7420 C   0  0  0  0  0  0  0  0  0  0  0  0
   -7.2400   23.5510  -30.8650 S   0  0  0  0  0  0  0  0  0  0  0  0
   -2.9690   23.1410  -29.3090 C   0  0  0  0  0  0  0  0  0  0  0  0
   -0.5150   20.6830  -29.9330 C   0  0  0  0  0  0  0  0  0  0  0  0
   -0.5040   21.7540  -31.0360 C   0  0  0  0  0  0  0  0  0  0  0  0
    0.3035   18.6457  -34.7586 H   0  0  0  0  0  0  0  0  0  0  0  0
   -0.5943   18.6734  -36.3142 H   0  0  0  0  0  0  0  0  0  0  0  0
    1.2016   18.6322  -36.3142 H   0  0  0  0  0  0  0  0  0  0  0  0
    1.3792   20.8800  -35.6088 H   0  0  0  0  0  0  0  0  0  0  0  0
   -0.0125   20.9088  -36.7605 H   0  0  0  0  0  0  0  0  0  0  0  0
   -1.3050   21.7190  -34.9920 H   0  0  0  0  0  0  0  0  0  0  0  0
   -1.7649   22.1635  -32.7091 H   0  0  0  0  0  0  0  0  0  0  0  0
   -3.1336   20.2684  -32.7279 H   0  0  0  0  0  0  0  0  0  0  0  0
   -1.8621   19.2162  -32.0015 H   0  0  0  0  0  0  0  0  0  0  0  0
   -3.3233   21.4764  -30.5454 H   0  0  0  0  0  0  0  0  0  0  0  0
   -3.7057   19.7080  -30.4141 H   0  0  0  0  0  0  0  0  0  0  0  0
   -3.3629   20.6898  -28.0447 H   0  0  0  0  0  0  0  0  0  0  0  0
   -1.6762   20.5868  -27.4345 H   0  0  0  0  0  0  0  0  0  0  0  0
   -0.6729   22.6053  -26.8222 H   0  0  0  0  0  0  0  0  0  0  0  0
   -0.4975   25.0875  -27.0074 H   0  0  0  0  0  0  0  0  0  0  0  0
   -1.8853   26.3233  -28.6664 H   0  0  0  0  0  0  0  0  0  0  0  0
   -3.9462   23.0891  -32.2391 H   0  0  0  0  0  0  0  0  0  0  0  0
   -4.5179   20.7468  -33.4500 H   0  0  0  0  0  0  0  0  0  0  0  0
   -6.2734   19.0002  -33.8697 H   0  0  0  0  0  0  0  0  0  0  0  0
   -8.5741   19.2694  -32.9161 H   0  0  0  0  0  0  0  0  0  0  0  0
   -9.1397   21.2934  -31.5301 H   0  0  0  0  0  0  0  0  0  0  0  0
   -3.6678   22.5922  -29.9575 H   0  0  0  0  0  0  0  0  0  0  0  0
    0.0186   21.0756  -29.0549 H   0  0  0  0  0  0  0  0  0  0  0  0
   -0.0254   19.7839  -30.3354 H   0  0  0  0  0  0  0  0  0  0  0  0
   -0.9904   22.6639  -30.6546 H   0  0  0  0  0  0  0  0  0  0  0  0
    0.5423   21.9530  -31.3112 H   0  0  0  0  0  0  0  0  0  0  0  0
  1  2  1  0
  2  3  1  0
  3  4  1  0
  4  5  2  0
  4  6  1  0
  6  7  1  0
  7  8  1  0
  8  9  1  0
  9 10  1  0
 10 11  1  0
 11 12  2  0
 12 13  1  0
 13 14  2  0
 14 15  1  0
 15 16  1  0
 16 17  1  0
 17 18  2  0
 17 19  1  0
 19 20  2  0
 20 21  1  0
 21 22  2  0
 22 23  1  0
 23 24  2  0
 24 25  1  0
 25 26  2  0
 26 27  1  0
 15 28  2  0
  9 29  1  0
 29 30  1  0
 30  6  1  0
 28 11  1  0
 27 19  1  0
 26 21  1  0
  1 31  1  0
  1 32  1  0
  1 33  1  0
  2 34  1  0
  2 35  1  0
  3 36  1  0
  6 37  1  0
  7 38  1  0
  7 39  1  0
  8 40  1  0
  8 41  1  0
 10 42  1  0
 10 43  1  0
 12 44  1  0
 13 45  1  0
 14 46  1  0
 20 47  1  0
 22 48  1  0
 23 49  1  0
 24 50  1  0
 25 51  1  0
 28 52  1  0
 29 53  1  0
 29 54  1  0
 30 55  1  0
 30 56  1  0
M  CHG  1  16  -1
M  END
>  <UniqueID>  (26) 
26

>  <SMILES>  (26) 
CCNC(=O)C1CCN(Cc2cccc([N-]C(=O)c3cc4ccccc4s3)c2)CC1

>  <Energy>  (26) 
97.67415749690664

>  <Genealogy>  (26) 
CCNC(=O)C1CCN(Cc2cccc([N-]C(=O)c3cc4ccccc4s3)c2)CC1 (protonated)
CCNC(=O)C1CCN(Cc2cccc([N-]C(=O)c3cc4ccccc4s3)c2)CC1 (3D coordinates assigned)
CCNC(=O)C1CCN(Cc2cccc([N-]C(=O)c3cc4ccccc4s3)c2)CC1 (nonaromatic ring conformer: 97.67415749690664 kcal/mol)

>  <smiles>  (26) 
CCNC(=O)C1CCN(Cc2cccc(NC(=O)c3cc4ccccc4s3)c2)CC1

>  <score_type>  (26) 
oracle

>  <origin>  (26) 
adg

>  <m_score__min__energy>  (26) 
-11.81

>  <m_primary>  (26) 
energy

$$$$
26:0
     RDKit          3D

 71 76  0  0  0  0  0  0  0  0999 V2000
   -0.5730   20.6040  -30.9160 C   0  0  0  0  0  0  0  0  0  0  0  0
   -0.4080   20.8170  -29.5180 O   0  0  0  0  0  0  0  0  0  0  0  0
   -1.1850   20.1640  -28.5540 C   0  0  0  0  0  0  0  0  0  0  0  0
   -0.7690   18.9760  -28.0310 N   0  0  0  0  0  0  0  0  0  0  0  0
   -1.4740   18.3200  -27.0740 C   0  0  0  0  0  0  0  0  0  0  0  0
   -2.6630   18.8620  -26.5900 C   0  0  0  0  0  0  0  0  0  0  0  0
   -3.1200   20.0750  -27.1040 C   0  0  0  0  0  0  0  0  0  0  0  0
   -2.3900   20.7420  -28.1040 C   0  0  0  0  0  0  0  0  0  0  0  0
   -2.8990   22.0170  -28.6670 C   0  0  0  0  0  0  0  0  0  0  0  0
   -2.2360   23.2260  -28.3990 C   0  0  0  0  0  0  0  0  0  0  0  0
   -2.7240   24.4330  -28.9060 C   0  0  0  0  0  0  0  0  0  0  0  0
   -3.8830   24.4530  -29.6940 C   0  0  0  0  0  0  0  0  0  0  0  0
   -4.3610   25.6290  -30.1880 N   0  0  0  0  0  0  0  0  0  0  0  0
   -5.4840   25.6590  -30.9530 C   0  0  0  0  0  0  0  0  0  0  0  0
   -6.1420   24.5100  -31.2470 N   0  0  0  0  0  0  0  0  0  0  0  0
   -5.7110   23.3070  -30.7840 C   0  0  0  0  0  0  0  0  0  0  0  0
   -6.4500   22.0930  -31.1860 C   0  0  0  0  0  0  0  0  0  0  0  0
   -7.7910   21.9690  -30.8000 C   0  0  0  0  0  0  0  0  0  0  0  0
   -8.5090   20.8140  -31.1090 C   0  0  0  0  0  0  0  0  0  0  0  0
   -7.8930   19.7700  -31.7960 C   0  0  0  0  0  0  0  0  0  0  0  0
   -6.5520   19.8730  -32.1950 C   0  0  0  0  0  0  0  0  0  0  0  0
   -5.9370   18.7630  -32.8710 N   0  0  0  0  0  0  0  0  0  0  0  0
   -5.5730   18.9230  -34.1460 N   0  0  0  0  0  0  0  0  0  0  0  0
   -4.9980   17.9250  -34.8640 C   0  0  0  0  0  0  0  0  0  0  0  0
   -4.7760   16.6830  -34.2660 C   0  0  0  0  0  0  0  0  0  0  0  0
   -4.2020   15.6280  -34.9910 C   0  0  0  0  0  0  0  0  0  0  0  0
   -3.9860   14.3640  -34.3950 C   0  0  0  0  0  0  0  0  0  0  0  0
   -3.3800   13.2200  -35.2350 C   0  0  0  0  0  0  0  0  0  0  0  0
   -4.4300   12.1010  -35.4100 C   0  0  0  0  0  0  0  0  0  0  0  0
   -2.1230   12.5880  -34.5860 C   0  0  0  0  0  0  0  0  0  0  0  0
   -2.9690   13.7560  -36.6240 C   0  0  0  0  0  0  0  0  0  0  0  0
   -4.3610   14.2010  -33.0410 C   0  0  0  0  0  0  0  0  0  0  0  0
   -4.9310   15.2520  -32.3170 C   0  0  0  0  0  0  0  0  0  0  0  0
   -5.1470   16.5000  -32.9220 C   0  0  0  0  0  0  0  0  0  0  0  0
   -5.7360   17.5720  -32.2280 C   0  0  0  0  0  0  0  0  0  0  0  0
   -6.0900   17.4320  -31.0220 O   0  0  0  0  0  0  0  0  0  0  0  0
   -5.8200   21.0520  -31.9130 C   0  0  0  0  0  0  0  0  0  0  0  0
   -4.3770   21.1820  -32.3470 C   0  0  0  0  0  0  0  0  0  0  0  0
   -4.3280   21.5820  -33.6870 O   0  0  0  0  0  0  0  0  0  0  0  0
   -4.5580   23.2450  -29.9760 C   0  0  0  0  0  0  0  0  0  0  0  0
   -4.0660   22.0350  -29.4490 C   0  0  0  0  0  0  0  0  0  0  0  0
   -1.2391   19.7441  -31.0798 H   0  0  0  0  0  0  0  0  0  0  0  0
   -1.0137   21.5017  -31.3742 H   0  0  0  0  0  0  0  0  0  0  0  0
    0.4064   20.4016  -31.3742 H   0  0  0  0  0  0  0  0  0  0  0  0
   -1.1066   17.3607  -26.6807 H   0  0  0  0  0  0  0  0  0  0  0  0
   -3.2354   18.3382  -25.8102 H   0  0  0  0  0  0  0  0  0  0  0  0
   -4.0558   20.5122  -26.7256 H   0  0  0  0  0  0  0  0  0  0  0  0
   -1.3239   23.2225  -27.7841 H   0  0  0  0  0  0  0  0  0  0  0  0
   -2.1959   25.3724  -28.6856 H   0  0  0  0  0  0  0  0  0  0  0  0
   -3.8680   26.5300  -29.9860 H   0  0  0  0  0  0  0  0  0  0  0  0
   -5.8608   26.6191  -31.3353 H   0  0  0  0  0  0  0  0  0  0  0  0
   -8.2801   22.7868  -30.2504 H   0  0  0  0  0  0  0  0  0  0  0  0
   -9.5639   20.7270  -30.8097 H   0  0  0  0  0  0  0  0  0  0  0  0
   -8.4626   18.8579  -32.0273 H   0  0  0  0  0  0  0  0  0  0  0  0
   -4.7084   18.0938  -35.9117 H   0  0  0  0  0  0  0  0  0  0  0  0
   -3.9151   15.7868  -36.0410 H   0  0  0  0  0  0  0  0  0  0  0  0
   -4.7597   11.7496  -34.4211 H   0  0  0  0  0  0  0  0  0  0  0  0
   -5.2940   12.4928  -35.9668 H   0  0  0  0  0  0  0  0  0  0  0  0
   -3.9841   11.2636  -35.9668 H   0  0  0  0  0  0  0  0  0  0  0  0
   -2.2136   12.6336  -33.4907 H   0  0  0  0  0  0  0  0  0  0  0  0
   -2.0349   11.5384  -34.9033 H   0  0  0  0  0  0  0  0  0  0  0  0
   -1.2280   13.1433  -34.9033 H   0  0  0  0  0  0  0  0  0  0  0  0
   -2.3039   14.6234  -36.5002 H   0  0  0  0  0  0  0  0  0  0  0  0
   -2.4425   12.9667  -37.1805 H   0  0  0  0  0  0  0  0  0  0  0  0
   -3.8679   14.0597  -37.1805 H   0  0  0  0  0  0  0  0  0  0  0  0
   -4.2013   13.2301  -32.5491 H   0  0  0  0  0  0  0  0  0  0  0  0
   -5.2126   15.0999  -31.2646 H   0  0  0  0  0  0  0  0  0  0  0  0
   -3.8720   21.9327  -31.7214 H   0  0  0  0  0  0  0  0  0  0  0  0
   -3.8712   20.2117  -32.2349 H   0  0  0  0  0  0  0  0  0  0  0  0
   -5.0110   21.0390  -34.1600 H   0  0  0  0  0  0  0  0  0  0  0  0
   -4.6006   21.0952  -29.6516 H   0  0  0  0  0  0  0  0  0  0  0  0
  1  2  1  0
  2  3  1  0
  3  4  2  0
  4  5  1  0
  5  6  2  0
  6  7  1  0
  7  8  2  0
  8  9  1  0
  9 10  2  0
 10 11  1  0
 11 12  2  0
 12 13  1  0
 13 14  2  0
 14 15  1  0
 15 16  2  0
 16 17  1  0
 17 18  2  0
 18 19  1  0
 19 20  2  0
 20 21  1  0
 21 22  1  0
 22 23  1  0
 23 24  2  0
 24 25  1  0
 25 26  2  0
 26 27  1  0
 27 28  1  0
 28 29  1  0
 28 30  1  0
 28 31  1  0
 27 32  2  0
 32 33  1  0
 33 34  2  0
 34 35  1  0
 35 36  2  0
 21 37  2  0
 37 38  1  0
 38 39  1  0
 16 40  1  0
 40 41  2  0
  8  3  1  0
 41  9  1  0
 40 12  1  0
 37 17  1  0
 35 22  1  0
 34 25  1  0
  1 42  1  0
  1 43  1  0
  1 44  1  0
  5 45  1  0
  6 46  1  0
  7 47  1  0
 10 48  1  0
 11 49  1  0
 13 50  1  0
 14 51  1  0
 18 52  1  0
 19 53  1  0
 20 54  1  0
 24 55  1  0
 26 56  1  0
 29 57  1  0
 29 58  1  0
 29 59  1  0
 30 60  1  0
 30 61  1  0
 30 62  1  0
 31 63  1  0
 31 64  1  0
 31 65  1  0
 32 66  1  0
 33 67  1  0
 38 68  1  0
 38 69  1  0
 39 70  1  0
 41 71  1  0
M  CHG  1  13   1
M  END
>  <UniqueID>  (27) 
27

>  <SMILES>  (27) 
COc1ncccc1-c1ccc2[nH+]cnc(-c3cccc(-n4ncc5cc(C(C)(C)C)ccc5c4=O)c3CO)c2c1

>  <Energy>  (27) 
109.5899194036675

>  <Genealogy>  (27) 
COc1ncccc1-c1ccc2[nH+]cnc(-c3cccc(-n4ncc5cc(C(C)(C)C)ccc5c4=O)c3CO)c2c1 (protonated)
COc1ncccc1-c1ccc2[nH+]cnc(-c3cccc(-n4ncc5cc(C(C)(C)C)ccc5c4=O)c3CO)c2c1 (3D coordinates assigned)
COc1ncccc1-c1ccc2[nH+]cnc(-c3cccc(-n4ncc5cc(C(C)(C)C)ccc5c4=O)c3CO)c2c1 (optimized conformer: 109.5899194036675 kcal/mol)

>  <smiles>  (27) 
COc1ncccc1-c1ccc2ncnc(-c3cccc(-n4ncc5cc(C(C)(C)C)ccc5c4=O)c3CO)c2c1

>  <score_type>  (27) 
oracle

>  <origin>  (27) 
adg

>  <m_score__min__energy>  (27) 
-10.17

>  <m_primary>  (27) 
energy

$$$$
27:0
     RDKit          3D

 34 35  0  0  0  0  0  0  0  0999 V2000
   -1.6030   25.7200  -28.9700 N   0  0  0  0  0  0  0  0  0  0  0  0
   -2.8270   24.5420  -29.2940 S   0  0  0  0  0  0  0  0  0  0  0  0
   -3.5800   24.9230  -30.5370 O   0  0  0  0  0  0  0  0  0  0  0  0
   -3.7820   24.5160  -28.1340 O   0  0  0  0  0  0  0  0  0  0  0  0
   -2.0840   22.9510  -29.5140 C   0  0  0  0  0  0  0  0  0  0  0  0
   -1.2560   22.4440  -28.4990 C   0  0  0  0  0  0  0  0  0  0  0  0
   -0.6250   21.2090  -28.6480 C   0  0  0  0  0  0  0  0  0  0  0  0
   -0.8160   20.4620  -29.8100 C   0  0  0  0  0  0  0  0  0  0  0  0
   -1.6410   20.9480  -30.8260 C   0  0  0  0  0  0  0  0  0  0  0  0
   -2.2830   22.1950  -30.6960 C   0  0  0  0  0  0  0  0  0  0  0  0
   -3.1440   22.6790  -31.7470 N   0  0  0  0  0  0  0  0  0  0  0  0
   -3.5760   21.8600  -32.8800 C   0  0  0  0  0  0  0  0  0  0  0  0
   -4.9980   21.4080  -32.6850 C   0  0  0  0  0  0  0  0  0  0  0  0
   -5.9210   22.2230  -32.0120 C   0  0  0  0  0  0  0  0  0  0  0  0
   -7.2290   21.7780  -31.7960 C   0  0  0  0  0  0  0  0  0  0  0  0
   -7.6290   20.5030  -32.2310 C   0  0  0  0  0  0  0  0  0  0  0  0
   -9.0520   20.0430  -32.0400 C   0  0  0  0  0  0  0  0  0  0  0  0
   -9.1190   19.0470  -31.0800 F   0  0  0  0  0  0  0  0  0  0  0  0
   -9.5660   19.5380  -33.2220 F   0  0  0  0  0  0  0  0  0  0  0  0
   -9.8270   21.1130  -31.6330 F   0  0  0  0  0  0  0  0  0  0  0  0
   -6.7090   19.7000  -32.9270 C   0  0  0  0  0  0  0  0  0  0  0  0
   -5.4020   20.1460  -33.1430 C   0  0  0  0  0  0  0  0  0  0  0  0
   -1.2400   26.0450  -29.8940 H   0  0  0  0  0  0  0  0  0  0  0  0
   -1.1038   23.0262  -27.5782 H   0  0  0  0  0  0  0  0  0  0  0  0
    0.0241   20.8238  -27.8479 H   0  0  0  0  0  0  0  0  0  0  0  0
   -0.3162   19.4890  -29.9262 H   0  0  0  0  0  0  0  0  0  0  0  0
   -1.7912   20.3509  -31.7375 H   0  0  0  0  0  0  0  0  0  0  0  0
   -3.4240   23.6850  -31.7570 H   0  0  0  0  0  0  0  0  0  0  0  0
   -3.5071   22.4532  -33.8038 H   0  0  0  0  0  0  0  0  0  0  0  0
   -2.9258   20.9756  -32.9510 H   0  0  0  0  0  0  0  0  0  0  0  0
   -5.6143   23.2164  -31.6527 H   0  0  0  0  0  0  0  0  0  0  0  0
   -7.9499   22.4306  -31.2819 H   0  0  0  0  0  0  0  0  0  0  0  0
   -7.0195   18.7144  -33.3041 H   0  0  0  0  0  0  0  0  0  0  0  0
   -4.6860   19.5028  -33.6756 H   0  0  0  0  0  0  0  0  0  0  0  0
  1  2  1  0
  2  3  2  0
  2  4  2  0
  2  5  1  0
  5  6  2  0
  6  7  1  0
  7  8  2  0
  8  9  1  0
  9 10  2  0
 10 11  1  0
 11 12  1  0
 12 13  1  0
 13 14  2  0
 14 15  1  0
 15 16  2  0
 16 17  1  0
 17 18  1  0
 17 19  1  0
 17 20  1  0
 16 21  1  0
 21 22  2  0
 10  5  1  0
 22 13  1  0
  1 23  1  0
  6 24  1  0
  7 25  1  0
  8 26  1  0
  9 27  1  0
 11 28  1  0
 12 29  1  0
 12 30  1  0
 14 31  1  0
 15 32  1  0
 21 33  1  0
 22 34  1  0
M  CHG  1   1  -1
M  END
>  <UniqueID>  (28) 
28

>  <SMILES>  (28) 
[NH-]S(=O)(=O)c1ccccc1NCc1ccc(C(F)(F)F)cc1

>  <Energy>  (28) 
35.79817355651707

>  <Genealogy>  (28) 
[NH-]S(=O)(=O)c1ccccc1NCc1ccc(C(F)(F)F)cc1 (protonated)
[NH-]S(=O)(=O)c1ccccc1NCc1ccc(C(F)(F)F)cc1 (3D coordinates assigned)
[NH-]S(=O)(=O)c1ccccc1NCc1ccc(C(F)(F)F)cc1 (optimized conformer: 35.79817355651707 kcal/mol)

>  <smiles>  (28) 
NS(=O)(=O)c1ccccc1NCc1ccc(C(F)(F)F)cc1

>  <score_type>  (28) 
oracle

>  <origin>  (28) 
adg

>  <m_score__min__energy>  (28) 
-9.5500000000000007

>  <m_primary>  (28) 
energy

$$$$
28:0
     RDKit          3D

 51 55  0  0  0  0  0  0  0  0999 V2000
   -5.3760   16.1260  -32.0590 C   0  0  0  0  0  0  0  0  0  0  0  0
   -5.7810   17.4980  -31.5230 C   0  0  0  0  0  0  0  0  0  0  0  0
   -6.1950   18.4040  -32.6020 N   0  0  0  0  0  0  0  0  0  0  0  0
   -7.3550   19.0920  -32.7010 C   0  0  0  0  0  0  0  0  0  0  0  0
   -8.7870   18.8790  -31.6380 S   0  0  0  0  0  0  0  0  0  0  0  0
   -9.4460   20.5580  -31.9260 C   0  0  0  0  0  0  0  0  0  0  0  0
   -8.5600   21.5840  -31.2910 C   0  0  0  0  0  0  0  0  0  0  0  0
   -8.7800   21.9370  -30.1000 O   0  0  0  0  0  0  0  0  0  0  0  0
   -7.4740   22.1570  -32.0360 N   0  0  0  0  0  0  0  0  0  0  0  0
   -6.3610   22.8440  -31.4380 C   0  0  0  0  0  0  0  0  0  0  0  0
   -6.4260   24.2370  -31.2670 C   0  0  0  0  0  0  0  0  0  0  0  0
   -5.3480   24.9350  -30.7110 C   0  0  0  0  0  0  0  0  0  0  0  0
   -4.1930   24.2460  -30.3350 C   0  0  0  0  0  0  0  0  0  0  0  0
   -4.0990   22.8650  -30.5490 C   0  0  0  0  0  0  0  0  0  0  0  0
   -5.1800   22.1630  -31.0890 C   0  0  0  0  0  0  0  0  0  0  0  0
   -2.9100   22.2060  -30.2210 O   0  0  0  0  0  0  0  0  0  0  0  0
   -1.7160   22.9370  -29.9310 C   0  0  0  0  0  0  0  0  0  0  0  0
   -2.0480   24.2010  -29.1260 C   0  0  0  0  0  0  0  0  0  0  0  0
   -3.1150   24.9190  -29.7510 O   0  0  0  0  0  0  0  0  0  0  0  0
   -7.2900   20.0430  -33.6510 N   0  0  0  0  0  0  0  0  0  0  0  0
   -6.0770   19.9830  -34.1760 N   0  0  0  0  0  0  0  0  0  0  0  0
   -5.4210   18.9920  -33.5440 C   0  0  0  0  0  0  0  0  0  0  0  0
   -3.9990   18.7060  -33.7900 C   0  0  0  0  0  0  0  0  0  0  0  0
   -3.4600   17.4930  -34.2030 C   0  0  0  0  0  0  0  0  0  0  0  0
   -2.1140   17.5970  -34.2980 N   0  0  0  0  0  0  0  0  0  0  0  0
   -1.7990   18.8310  -33.9410 N   0  0  0  0  0  0  0  0  0  0  0  0
   -0.5470   19.3480  -33.8640 C   0  0  0  0  0  0  0  0  0  0  0  0
   -0.3980   20.6670  -33.4120 C   0  0  0  0  0  0  0  0  0  0  0  0
   -1.5390   21.4050  -33.0410 C   0  0  0  0  0  0  0  0  0  0  0  0
   -2.8160   20.8290  -33.1330 C   0  0  0  0  0  0  0  0  0  0  0  0
   -2.9020   19.5240  -33.6170 C   0  0  0  0  0  0  0  0  0  0  0  0
   -5.1758   15.4477  -31.2165 H   0  0  0  0  0  0  0  0  0  0  0  0
   -6.1917   15.7169  -32.6732 H   0  0  0  0  0  0  0  0  0  0  0  0
   -4.4689   16.2255  -32.6732 H   0  0  0  0  0  0  0  0  0  0  0  0
   -6.6191   17.3731  -30.8216 H   0  0  0  0  0  0  0  0  0  0  0  0
   -4.9080   17.9404  -31.0208 H   0  0  0  0  0  0  0  0  0  0  0  0
   -9.4991   20.7455  -33.0086 H   0  0  0  0  0  0  0  0  0  0  0  0
  -10.4490   20.6283  -31.4798 H   0  0  0  0  0  0  0  0  0  0  0  0
   -7.5120   22.1010  -33.0780 H   0  0  0  0  0  0  0  0  0  0  0  0
   -7.3308   24.7830  -31.5724 H   0  0  0  0  0  0  0  0  0  0  0  0
   -5.4103   26.0242  -30.5704 H   0  0  0  0  0  0  0  0  0  0  0  0
   -5.1076   21.0760  -31.2415 H   0  0  0  0  0  0  0  0  0  0  0  0
   -1.0350   22.3021  -29.3453 H   0  0  0  0  0  0  0  0  0  0  0  0
   -1.2373   23.2304  -30.8769 H   0  0  0  0  0  0  0  0  0  0  0  0
   -2.3504   23.9143  -28.1080 H   0  0  0  0  0  0  0  0  0  0  0  0
   -1.1572   24.8451  -29.0861 H   0  0  0  0  0  0  0  0  0  0  0  0
   -4.0407   16.5844  -34.4201 H   0  0  0  0  0  0  0  0  0  0  0  0
    0.3294   18.7474  -34.1490 H   0  0  0  0  0  0  0  0  0  0  0  0
    0.6016   21.1216  -33.3477 H   0  0  0  0  0  0  0  0  0  0  0  0
   -1.4290   22.4374  -32.6775 H   0  0  0  0  0  0  0  0  0  0  0  0
   -3.7158   21.3867  -32.8342 H   0  0  0  0  0  0  0  0  0  0  0  0
  1  2  1  0
  2  3  1  0
  3  4  1  0
  4  5  1  0
  5  6  1  0
  6  7  1  0
  7  8  2  0
  7  9  1  0
  9 10  1  0
 10 11  2  0
 11 12  1  0
 12 13  2  0
 13 14  1  0
 14 15  2  0
 14 16  1  0
 16 17  1  0
 17 18  1  0
 18 19  1  0
  4 20  2  0
 20 21  1  0
 21 22  2  0
 22 23  1  0
 23 24  1  0
 24 25  2  0
 25 26  1  0
 26 27  1  0
 27 28  2  0
 28 29  1  0
 29 30  2  0
 30 31  1  0
 22  3  1  0
 31 23  2  0
 15 10  1  0
 31 26  1  0
 19 13  1  0
  1 32  1  0
  1 33  1  0
  1 34  1  0
  2 35  1  0
  2 36  1  0
  6 37  1  0
  6 38  1  0
  9 39  1  0
 11 40  1  0
 12 41  1  0
 15 42  1  0
 17 43  1  0
 17 44  1  0
 18 45  1  0
 18 46  1  0
 24 47  1  0
 27 48  1  0
 28 49  1  0
 29 50  1  0
 30 51  1  0
M  END
>  <UniqueID>  (29) 
29

>  <SMILES>  (29) 
CCn1c(SCC(=O)Nc2ccc3c(c2)OCCO3)nnc1-c1cnn2ccccc12

>  <Energy>  (29) 
129.27461860800398

>  <Genealogy>  (29) 
CCn1c(SCC(=O)Nc2ccc3c(c2)OCCO3)nnc1-c1cnn2ccccc12 (3D coordinates assigned)
CCn1c(SCC(=O)Nc2ccc3c(c2)OCCO3)nnc1-c1cnn2ccccc12 (nonaromatic ring conformer: 129.27461860800398 kcal/mol)

>  <smiles>  (29) 
CCn1c(SCC(=O)Nc2ccc3c(c2)OCCO3)nnc1-c1cnn2ccccc12

>  <score_type>  (29) 
oracle

>  <origin>  (29) 
adg

>  <m_score__min__energy>  (29) 
-9.9299999999999997

>  <m_primary>  (29) 
energy

$$$$
29:0
     RDKit          3D

 39 40  0  0  0  0  0  0  0  0999 V2000
   -3.8640   22.6870  -27.8710 C   0  0  0  0  0  0  0  0  0  0  0  0
   -3.8420   23.9560  -28.7280 C   0  0  0  0  0  0  0  0  0  0  0  0
   -4.9920   24.8380  -28.4580 N   0  0  0  0  0  0  0  0  0  0  0  0
   -5.6620   25.2720  -29.6980 C   0  0  0  0  0  0  0  0  0  0  0  0
   -6.8760   24.3860  -30.0200 C   0  0  0  0  0  0  0  0  0  0  0  0
   -6.9190   24.0220  -31.4390 N   0  0  0  0  0  0  0  0  0  0  0  0
   -6.7440   22.6730  -31.9120 C   0  0  0  0  0  0  0  0  0  0  0  0
   -5.4710   22.2510  -32.3270 C   0  0  0  0  0  0  0  0  0  0  0  0
   -5.2680   20.9490  -32.7910 C   0  0  0  0  0  0  0  0  0  0  0  0
   -6.3360   20.0380  -32.8510 C   0  0  0  0  0  0  0  0  0  0  0  0
   -6.1210   18.6530  -33.3440 C   0  0  0  0  0  0  0  0  0  0  0  0
   -7.0200   17.6240  -33.0030 C   0  0  0  0  0  0  0  0  0  0  0  0
   -6.8160   16.3220  -33.4690 C   0  0  0  0  0  0  0  0  0  0  0  0
   -5.7160   16.0310  -34.2790 C   0  0  0  0  0  0  0  0  0  0  0  0
   -4.8170   17.0420  -34.6230 C   0  0  0  0  0  0  0  0  0  0  0  0
   -5.0170   18.3460  -34.1620 C   0  0  0  0  0  0  0  0  0  0  0  0
   -7.6100   20.4590  -32.4350 C   0  0  0  0  0  0  0  0  0  0  0  0
   -7.8140   21.7620  -31.9700 C   0  0  0  0  0  0  0  0  0  0  0  0
   -3.8592   22.9634  -26.8063 H   0  0  0  0  0  0  0  0  0  0  0  0
   -4.7723   22.1086  -28.0956 H   0  0  0  0  0  0  0  0  0  0  0  0
   -2.9763   22.0775  -28.0956 H   0  0  0  0  0  0  0  0  0  0  0  0
   -2.9153   24.5093  -28.5157 H   0  0  0  0  0  0  0  0  0  0  0  0
   -3.8962   23.6487  -29.7828 H   0  0  0  0  0  0  0  0  0  0  0  0
   -4.6780   25.6670  -27.9020 H   0  0  0  0  0  0  0  0  0  0  0  0
   -5.6770   24.3000  -27.8780 H   0  0  0  0  0  0  0  0  0  0  0  0
   -6.0000   26.3118  -29.5769 H   0  0  0  0  0  0  0  0  0  0  0  0
   -4.9435   25.1887  -30.5267 H   0  0  0  0  0  0  0  0  0  0  0  0
   -6.8169   23.4674  -29.4178 H   0  0  0  0  0  0  0  0  0  0  0  0
   -7.7879   24.9539  -29.7834 H   0  0  0  0  0  0  0  0  0  0  0  0
   -7.0690   24.7740  -32.1500 H   0  0  0  0  0  0  0  0  0  0  0  0
   -4.6248   22.9526  -32.2864 H   0  0  0  0  0  0  0  0  0  0  0  0
   -4.2640   20.6345  -33.1120 H   0  0  0  0  0  0  0  0  0  0  0  0
   -7.8885   17.8463  -32.3657 H   0  0  0  0  0  0  0  0  0  0  0  0
   -7.5234   15.5247  -33.1971 H   0  0  0  0  0  0  0  0  0  0  0  0
   -5.5582   15.0060  -34.6456 H   0  0  0  0  0  0  0  0  0  0  0  0
   -3.9491   16.8117  -35.2584 H   0  0  0  0  0  0  0  0  0  0  0  0
   -4.3066   19.1384  -34.4403 H   0  0  0  0  0  0  0  0  0  0  0  0
   -8.4556   19.7567  -32.4754 H   0  0  0  0  0  0  0  0  0  0  0  0
   -8.8176   22.0764  -31.6476 H   0  0  0  0  0  0  0  0  0  0  0  0
  1  2  1  0
  2  3  1  0
  3  4  1  0
  4  5  1  0
  5  6  1  0
  6  7  1  0
  7  8  2  0
  8  9  1  0
  9 10  2  0
 10 11  1  0
 11 12  2  0
 12 13  1  0
 13 14  2  0
 14 15  1  0
 15 16  2  0
 10 17  1  0
 17 18  2  0
 18  7  1  0
 16 11  1  0
  1 19  1  0
  1 20  1  0
  1 21  1  0
  2 22  1  0
  2 23  1  0
  3 24  1  0
  3 25  1  0
  4 26  1  0
  4 27  1  0
  5 28  1  0
  5 29  1  0
  6 30  1  0
  8 31  1  0
  9 32  1  0
 12 33  1  0
 13 34  1  0
 14 35  1  0
 15 36  1  0
 16 37  1  0
 17 38  1  0
 18 39  1  0
M  CHG  1   3   1
M  END
>  <UniqueID>  (30) 
30

>  <SMILES>  (30) 
CC[NH2+]CCNc1ccc(-c2ccccc2)cc1

>  <Energy>  (30) 
40.22226619920569

>  <Genealogy>  (30) 
CC[NH2+]CCNc1ccc(-c2ccccc2)cc1 (protonated)
CC[NH2+]CCNc1ccc(-c2ccccc2)cc1 (3D coordinates assigned)
CC[NH2+]CCNc1ccc(-c2ccccc2)cc1 (optimized conformer: 40.22226619920569 kcal/mol)

>  <smiles>  (30) 
CCNCCNc1ccc(-c2ccccc2)cc1

>  <score_type>  (30) 
oracle

>  <origin>  (30) 
adg

>  <m_score__min__energy>  (30) 
-6.6399999999999997

>  <m_primary>  (30) 
energy

$$$$
30:0
     RDKit          3D

 30 32  0  0  0  0  0  0  0  0999 V2000
   -9.0940   18.9050  -31.2140 C   0  0  0  0  0  0  0  0  0  0  0  0
   -7.8990   19.0380  -32.1220 C   0  0  0  0  0  0  0  0  0  0  0  0
   -7.2050   17.8780  -32.5110 C   0  0  0  0  0  0  0  0  0  0  0  0
   -6.1020   17.9620  -33.3660 C   0  0  0  0  0  0  0  0  0  0  0  0
   -5.1660   16.3760  -33.8750 Br  0  0  0  0  0  0  0  0  0  0  0  0
   -5.6850   19.2010  -33.8470 C   0  0  0  0  0  0  0  0  0  0  0  0
   -6.3670   20.3620  -33.4790 C   0  0  0  0  0  0  0  0  0  0  0  0
   -7.4760   20.2980  -32.6150 C   0  0  0  0  0  0  0  0  0  0  0  0
   -8.1590   21.5870  -32.2160 C   0  0  0  0  0  0  0  0  0  0  0  0
   -7.9920   21.9060  -30.4220 S   0  0  0  0  0  0  0  0  0  0  0  0
   -6.5820   23.0070  -30.5800 C   0  0  0  0  0  0  0  0  0  0  0  0
   -6.7720   24.3570  -30.5250 N   0  0  0  0  0  0  0  0  0  0  0  0
   -5.7270   25.2320  -30.6290 C   0  0  0  0  0  0  0  0  0  0  0  0
   -4.4570   24.7710  -30.7940 N   0  0  0  0  0  0  0  0  0  0  0  0
   -4.2530   23.4340  -30.8580 C   0  0  0  0  0  0  0  0  0  0  0  0
   -2.7910   22.6400  -31.0520 S   0  0  0  0  0  0  0  0  0  0  0  0
   -3.4730   21.0880  -31.0110 C   0  0  0  0  0  0  0  0  0  0  0  0
   -4.8540   21.1940  -30.8430 C   0  0  0  0  0  0  0  0  0  0  0  0
   -5.2840   22.5240  -30.7590 C   0  0  0  0  0  0  0  0  0  0  0  0
   -8.7637   18.9418  -30.1654 H   0  0  0  0  0  0  0  0  0  0  0  0
   -9.7947   19.7307  -31.4068 H   0  0  0  0  0  0  0  0  0  0  0  0
   -9.5960   17.9454  -31.4068 H   0  0  0  0  0  0  0  0  0  0  0  0
   -7.5330   16.8961  -32.1392 H   0  0  0  0  0  0  0  0  0  0  0  0
   -4.8161   19.2647  -34.5185 H   0  0  0  0  0  0  0  0  0  0  0  0
   -6.0346   21.3358  -33.8679 H   0  0  0  0  0  0  0  0  0  0  0  0
   -7.7031   22.4200  -32.7712 H   0  0  0  0  0  0  0  0  0  0  0  0
   -9.2295   21.4984  -32.4529 H   0  0  0  0  0  0  0  0  0  0  0  0
   -5.9135   26.3149  -30.5791 H   0  0  0  0  0  0  0  0  0  0  0  0
   -2.9140   20.1451  -31.1025 H   0  0  0  0  0  0  0  0  0  0  0  0
   -5.5302   20.3285  -30.7832 H   0  0  0  0  0  0  0  0  0  0  0  0
  1  2  1  0
  2  3  2  0
  3  4  1  0
  4  5  1  0
  4  6  2  0
  6  7  1  0
  7  8  2  0
  8  9  1  0
  9 10  1  0
 10 11  1  0
 11 12  2  0
 12 13  1  0
 13 14  2  0
 14 15  1  0
 15 16  1  0
 16 17  1  0
 17 18  2  0
 18 19  1  0
  8  2  1  0
 19 11  1  0
 19 15  2  0
  1 20  1  0
  1 21  1  0
  1 22  1  0
  3 23  1  0
  6 24  1  0
  7 25  1  0
  9 26  1  0
  9 27  1  0
 13 28  1  0
 17 29  1  0
 18 30  1  0
M  END
>  <UniqueID>  (31) 
31

>  <SMILES>  (31) 
Cc1cc(Br)ccc1CSc1ncnc2sccc12

>  <Energy>  (31) 
62.21061900948264

>  <Genealogy>  (31) 
Cc1cc(Br)ccc1CSc1ncnc2sccc12 (3D coordinates assigned)
Cc1cc(Br)ccc1CSc1ncnc2sccc12 (optimized conformer: 62.21061900948264 kcal/mol)

>  <smiles>  (31) 
Cc1cc(Br)ccc1CSc1ncnc2sccc12

>  <score_type>  (31) 
oracle

>  <origin>  (31) 
adg

>  <m_score__min__energy>  (31) 
-8.0399999999999991

>  <m_primary>  (31) 
energy

$$$$
31:0
     RDKit          3D

 51 53  0  0  0  0  0  0  0  0999 V2000
   -3.4980   24.5670  -27.8790 C   0  0  0  0  0  0  0  0  0  0  0  0
   -4.5750   23.7230  -28.4170 N   0  0  0  0  0  0  0  0  0  0  0  0
   -4.2510   22.3000  -28.2490 C   0  0  0  0  0  0  0  0  0  0  0  0
   -4.8460   24.0860  -30.1040 S   0  0  0  0  0  0  0  0  0  0  0  0
   -3.8850   25.1550  -30.5480 O   0  0  0  0  0  0  0  0  0  0  0  0
   -6.2420   24.6110  -30.2870 O   0  0  0  0  0  0  0  0  0  0  0  0
   -4.6250   22.6530  -31.1100 C   0  0  0  0  0  0  0  0  0  0  0  0
   -3.3650   22.3440  -31.6310 C   0  0  0  0  0  0  0  0  0  0  0  0
   -3.1950   21.2200  -32.4400 C   0  0  0  0  0  0  0  0  0  0  0  0
   -4.2850   20.3890  -32.7450 C   0  0  0  0  0  0  0  0  0  0  0  0
   -4.0940   19.2710  -33.6230 N   0  0  0  0  0  0  0  0  0  0  0  0
   -5.0950   18.8290  -34.5780 C   0  0  0  0  0  0  0  0  0  0  0  0
   -4.6030   17.4810  -35.0900 C   0  0  0  0  0  0  0  0  0  0  0  0
   -3.1380   17.3770  -34.6680 C   0  0  0  0  0  0  0  0  0  0  0  0
   -2.9600   18.3700  -33.5290 C   0  0  0  0  0  0  0  0  0  0  0  0
   -5.5590   20.6940  -32.2170 C   0  0  0  0  0  0  0  0  0  0  0  0
   -6.6920   19.8430  -32.4600 N   0  0  0  0  0  0  0  0  0  0  0  0
   -6.7080   18.4780  -31.9110 C   0  0  0  0  0  0  0  0  0  0  0  0
   -8.1350   17.9170  -31.8440 C   0  0  0  0  0  0  0  0  0  0  0  0
   -9.0980   18.9780  -31.2980 C   0  0  0  0  0  0  0  0  0  0  0  0
   -9.1060   20.2710  -32.1430 C   0  0  0  0  0  0  0  0  0  0  0  0
   -7.9000   20.3900  -33.0900 C   0  0  0  0  0  0  0  0  0  0  0  0
   -5.7160   21.8260  -31.4020 C   0  0  0  0  0  0  0  0  0  0  0  0
   -3.5281   24.5434  -26.7797 H   0  0  0  0  0  0  0  0  0  0  0  0
   -2.5261   24.1876  -28.2274 H   0  0  0  0  0  0  0  0  0  0  0  0
   -3.6341   25.6015  -28.2274 H   0  0  0  0  0  0  0  0  0  0  0  0
   -5.4580   23.9310  -27.8940 H   0  0  0  0  0  0  0  0  0  0  0  0
   -4.1965   22.0605  -27.1768 H   0  0  0  0  0  0  0  0  0  0  0  0
   -5.0327   21.6876  -28.7222 H   0  0  0  0  0  0  0  0  0  0  0  0
   -3.2812   22.0864  -28.7222 H   0  0  0  0  0  0  0  0  0  0  0  0
   -2.5042   22.9896  -31.4022 H   0  0  0  0  0  0  0  0  0  0  0  0
   -2.1990   20.9829  -32.8421 H   0  0  0  0  0  0  0  0  0  0  0  0
   -6.0731   18.7198  -34.0867 H   0  0  0  0  0  0  0  0  0  0  0  0
   -5.2259   19.5528  -35.3959 H   0  0  0  0  0  0  0  0  0  0  0  0
   -5.1885   16.6652  -34.6410 H   0  0  0  0  0  0  0  0  0  0  0  0
   -4.7137   17.4007  -36.1815 H   0  0  0  0  0  0  0  0  0  0  0  0
   -2.9102   16.3569  -34.3252 H   0  0  0  0  0  0  0  0  0  0  0  0
   -2.4600   17.5978  -35.5056 H   0  0  0  0  0  0  0  0  0  0  0  0
   -2.9616   17.8489  -32.5602 H   0  0  0  0  0  0  0  0  0  0  0  0
   -2.0030   18.9077  -33.6006 H   0  0  0  0  0  0  0  0  0  0  0  0
   -6.0974   17.8268  -32.5537 H   0  0  0  0  0  0  0  0  0  0  0  0
   -6.3013   18.5114  -30.8895 H   0  0  0  0  0  0  0  0  0  0  0  0
   -8.4562   17.6203  -32.8534 H   0  0  0  0  0  0  0  0  0  0  0  0
   -8.1458   17.0447  -31.1739 H   0  0  0  0  0  0  0  0  0  0  0  0
  -10.1147   18.5582  -31.2884 H   0  0  0  0  0  0  0  0  0  0  0  0
   -8.7573   19.2454  -30.2869 H   0  0  0  0  0  0  0  0  0  0  0  0
  -10.0258   20.2875  -32.7461 H   0  0  0  0  0  0  0  0  0  0  0  0
   -9.0528   21.1170  -31.4420 H   0  0  0  0  0  0  0  0  0  0  0  0
   -8.1099   19.8320  -34.0144 H   0  0  0  0  0  0  0  0  0  0  0  0
   -7.7311   21.4530  -33.3171 H   0  0  0  0  0  0  0  0  0  0  0  0
   -6.7067   22.0657  -30.9885 H   0  0  0  0  0  0  0  0  0  0  0  0
  1  2  1  0
  2  3  1  0
  2  4  1  0
  4  5  2  0
  4  6  2  0
  4  7  1  0
  7  8  2  0
  8  9  1  0
  9 10  2  0
 10 11  1  0
 11 12  1  0
 12 13  1  0
 13 14  1  0
 14 15  1  0
 10 16  1  0
 16 17  1  0
 17 18  1  0
 18 19  1  0
 19 20  1  0
 20 21  1  0
 21 22  1  0
 16 23  2  0
 23  7  1  0
 15 11  1  0
 22 17  1  0
  1 24  1  0
  1 25  1  0
  1 26  1  0
  2 27  1  0
  3 28  1  0
  3 29  1  0
  3 30  1  0
  8 31  1  0
  9 32  1  0
 12 33  1  0
 12 34  1  0
 13 35  1  0
 13 36  1  0
 14 37  1  0
 14 38  1  0
 15 39  1  0
 15 40  1  0
 18 41  1  0
 18 42  1  0
 19 43  1  0
 19 44  1  0
 20 45  1  0
 20 46  1  0
 21 47  1  0
 21 48  1  0
 22 49  1  0
 22 50  1  0
 23 51  1  0
M  CHG  1   2   1
M  END
>  <UniqueID>  (32) 
32

>  <SMILES>  (32) 
C[NH+](C)S(=O)(=O)c1ccc(N2CCCC2)c(N2CCCCC2)c1

>  <Energy>  (32) 
56.82527130009867

>  <Genealogy>  (32) 
C[NH+](C)S(=O)(=O)c1ccc(N2CCCC2)c(N2CCCCC2)c1 (protonated)
C[NH+](C)S(=O)(=O)c1ccc(N2CCCC2)c(N2CCCCC2)c1 (3D coordinates assigned)
C[NH+](C)S(=O)(=O)c1ccc(N2CCCC2)c(N2CCCCC2)c1 (nonaromatic ring conformer: 56.82527130009867 kcal/mol)

>  <smiles>  (32) 
CN(C)S(=O)(=O)c1ccc(N2CCCC2)c(N2CCCCC2)c1

>  <score_type>  (32) 
oracle

>  <origin>  (32) 
adg

>  <m_score__min__energy>  (32) 
-8.1099999999999994

>  <m_primary>  (32) 
energy

$$$$
32:0
     RDKit          3D

 59 62  0  0  0  0  0  0  0  0999 V2000
   -4.6000   13.3050  -31.1720 C   0  0  0  0  0  0  0  0  0  0  0  0
   -4.0930   13.4070  -32.6060 C   0  0  0  0  0  0  0  0  0  0  0  0
   -4.1470   14.8240  -33.0540 N   0  0  0  0  0  0  0  0  0  0  0  0
   -2.8380   15.2860  -33.5680 C   0  0  0  0  0  0  0  0  0  0  0  0
   -3.0070   16.0710  -34.8690 C   0  0  0  0  0  0  0  0  0  0  0  0
   -5.2090   15.0410  -34.0620 C   0  0  0  0  0  0  0  0  0  0  0  0
   -6.1040   16.2340  -33.6720 C   0  0  0  0  0  0  0  0  0  0  0  0
   -5.7070   16.8330  -32.3850 N   0  0  0  0  0  0  0  0  0  0  0  0
   -5.6180   18.2780  -32.4660 C   0  0  0  0  0  0  0  0  0  0  0  0
   -4.3720   18.8590  -32.7490 C   0  0  0  0  0  0  0  0  0  0  0  0
   -4.2260   20.2360  -32.8540 C   0  0  0  0  0  0  0  0  0  0  0  0
   -5.3220   21.0900  -32.6870 C   0  0  0  0  0  0  0  0  0  0  0  0
   -5.1160   22.5140  -32.7520 N   0  0  0  0  0  0  0  0  0  0  0  0
   -5.2420   23.3720  -31.6020 C   0  0  0  0  0  0  0  0  0  0  0  0
   -6.4080   24.1400  -31.4430 C   0  0  0  0  0  0  0  0  0  0  0  0
   -6.5880   24.9390  -30.3140 C   0  0  0  0  0  0  0  0  0  0  0  0
   -5.6130   24.9820  -29.3200 C   0  0  0  0  0  0  0  0  0  0  0  0
   -4.4370   24.2310  -29.4520 C   0  0  0  0  0  0  0  0  0  0  0  0
   -3.4540   24.2870  -28.4520 C   0  0  0  0  0  0  0  0  0  0  0  0
   -2.2710   23.5570  -28.5870 C   0  0  0  0  0  0  0  0  0  0  0  0
   -2.0570   22.7750  -29.7200 C   0  0  0  0  0  0  0  0  0  0  0  0
   -3.0260   22.7050  -30.7250 C   0  0  0  0  0  0  0  0  0  0  0  0
   -4.2370   23.4190  -30.6010 C   0  0  0  0  0  0  0  0  0  0  0  0
   -6.5980   20.5400  -32.4160 C   0  0  0  0  0  0  0  0  0  0  0  0
   -7.7350   21.3680  -32.2900 C   0  0  0  0  0  0  0  0  0  0  0  0
   -8.9880   20.8220  -32.0210 C   0  0  0  0  0  0  0  0  0  0  0  0
   -9.1370   19.4460  -31.8830 C   0  0  0  0  0  0  0  0  0  0  0  0
   -8.0360   18.6020  -32.0220 C   0  0  0  0  0  0  0  0  0  0  0  0
   -6.7520   19.1250  -32.2980 C   0  0  0  0  0  0  0  0  0  0  0  0
   -3.7655   13.4729  -30.4752 H   0  0  0  0  0  0  0  0  0  0  0  0
   -5.3773   14.0648  -31.0030 H   0  0  0  0  0  0  0  0  0  0  0  0
   -5.0230   12.3038  -31.0030 H   0  0  0  0  0  0  0  0  0  0  0  0
   -3.0546   13.0472  -32.6537 H   0  0  0  0  0  0  0  0  0  0  0  0
   -4.7261   12.7918  -33.2622 H   0  0  0  0  0  0  0  0  0  0  0  0
   -2.3644   15.9339  -32.8157 H   0  0  0  0  0  0  0  0  0  0  0  0
   -2.2095   14.4058  -33.7686 H   0  0  0  0  0  0  0  0  0  0  0  0
   -3.2333   17.1220  -34.6363 H   0  0  0  0  0  0  0  0  0  0  0  0
   -2.0766   16.0169  -35.4534 H   0  0  0  0  0  0  0  0  0  0  0  0
   -3.8327   15.6389  -35.4534 H   0  0  0  0  0  0  0  0  0  0  0  0
   -4.7432   15.2443  -35.0375 H   0  0  0  0  0  0  0  0  0  0  0  0
   -5.8330   14.1366  -34.1145 H   0  0  0  0  0  0  0  0  0  0  0  0
   -6.0323   17.0016  -34.4567 H   0  0  0  0  0  0  0  0  0  0  0  0
   -7.1340   15.8623  -33.5671 H   0  0  0  0  0  0  0  0  0  0  0  0
   -4.7900   16.4260  -32.0820 H   0  0  0  0  0  0  0  0  0  0  0  0
   -6.3860   16.5570  -31.6400 H   0  0  0  0  0  0  0  0  0  0  0  0
   -3.4943   18.2111  -32.8903 H   0  0  0  0  0  0  0  0  0  0  0  0
   -3.2351   20.6614  -33.0714 H   0  0  0  0  0  0  0  0  0  0  0  0
   -4.8690   22.9390  -33.6730 H   0  0  0  0  0  0  0  0  0  0  0  0
   -7.1880   24.1107  -32.2181 H   0  0  0  0  0  0  0  0  0  0  0  0
   -7.5044   25.5381  -30.2080 H   0  0  0  0  0  0  0  0  0  0  0  0
   -5.7666   25.6076  -28.4283 H   0  0  0  0  0  0  0  0  0  0  0  0
   -3.6158   24.9081  -27.5586 H   0  0  0  0  0  0  0  0  0  0  0  0
   -1.5066   23.5996  -27.7971 H   0  0  0  0  0  0  0  0  0  0  0  0
   -1.1195   22.2091  -29.8243 H   0  0  0  0  0  0  0  0  0  0  0  0
   -2.8435   22.0895  -31.6182 H   0  0  0  0  0  0  0  0  0  0  0  0
   -7.6300   22.4569  -32.4056 H   0  0  0  0  0  0  0  0  0  0  0  0
   -9.8625   21.4812  -31.9174 H   0  0  0  0  0  0  0  0  0  0  0  0
  -10.1278   19.0218  -31.6632 H   0  0  0  0  0  0  0  0  0  0  0  0
   -8.1682   17.5152  -31.9155 H   0  0  0  0  0  0  0  0  0  0  0  0
  1  2  1  0
  2  3  1  0
  3  4  1  0
  4  5  1  0
  3  6  1  0
  6  7  1  0
  7  8  1  0
  8  9  1  0
  9 10  2  0
 10 11  1  0
 11 12  2  0
 12 13  1  0
 13 14  1  0
 14 15  2  0
 15 16  1  0
 16 17  2  0
 17 18  1  0
 18 19  2  0
 19 20  1  0
 20 21  2  0
 21 22  1  0
 22 23  2  0
 12 24  1  0
 24 25  2  0
 25 26  1  0
 26 27  2  0
 27 28  1  0
 28 29  2  0
 29  9  1  0
 23 14  1  0
 29 24  1  0
 23 18  1  0
  1 30  1  0
  1 31  1  0
  1 32  1  0
  2 33  1  0
  2 34  1  0
  4 35  1  0
  4 36  1  0
  5 37  1  0
  5 38  1  0
  5 39  1  0
  6 40  1  0
  6 41  1  0
  7 42  1  0
  7 43  1  0
  8 44  1  0
  8 45  1  0
 10 46  1  0
 11 47  1  0
 13 48  1  0
 15 49  1  0
 16 50  1  0
 17 51  1  0
 19 52  1  0
 20 53  1  0
 21 54  1  0
 22 55  1  0
 25 56  1  0
 26 57  1  0
 27 58  1  0
 28 59  1  0
M  CHG  1   8   1
M  END
>  <UniqueID>  (33) 
33

>  <SMILES>  (33) 
CCN(CC)CC[NH2+]c1ccc(Nc2cccc3ccccc23)c2ccccc12

>  <Energy>  (33) 
81.95143563626864

>  <Genealogy>  (33) 
CCN(CC)CC[NH2+]c1ccc(Nc2cccc3ccccc23)c2ccccc12 (protonated)
CCN(CC)CC[NH2+]c1ccc(Nc2cccc3ccccc23)c2ccccc12 (3D coordinates assigned)
CCN(CC)CC[NH2+]c1ccc(Nc2cccc3ccccc23)c2ccccc12 (optimized conformer: 81.95143563626864 kcal/mol)

>  <smiles>  (33) 
CCN(CC)CCNc1ccc(Nc2cccc3ccccc23)c2ccccc12

>  <score_type>  (33) 
oracle

>  <origin>  (33) 
adg

>  <m_score__min__energy>  (33) 
-9.1500000000000004

>  <m_primary>  (33) 
energy

$$$$
33:0
     RDKit          3D

 34 35  0  0  0  0  0  0  0  0999 V2000
   -6.0990   25.4360  -30.2220 C   0  0  0  0  0  0  0  0  0  0  0  0
   -5.5010   24.2330  -30.8880 C   0  0  0  0  0  0  0  0  0  0  0  0
   -4.1540   24.0470  -30.8300 N   0  0  0  0  0  0  0  0  0  0  0  0
   -3.5560   22.9770  -31.4140 C   0  0  0  0  0  0  0  0  0  0  0  0
   -4.3380   22.0370  -32.0940 C   0  0  0  0  0  0  0  0  0  0  0  0
   -3.7170   20.8280  -32.7450 C   0  0  0  0  0  0  0  0  0  0  0  0
   -4.6230   20.2040  -33.7210 N   0  0  0  0  0  0  0  0  0  0  0  0
   -4.7030   18.7400  -33.5760 C   0  0  0  0  0  0  0  0  0  0  0  0
   -6.0960   18.2450  -33.9680 C   0  0  0  0  0  0  0  0  0  0  0  0
   -7.1180   18.8360  -33.1090 N   0  0  0  0  0  0  0  0  0  0  0  0
   -7.7280   18.2300  -32.0740 C   0  0  0  0  0  0  0  0  0  0  0  0
   -8.6670   19.0970  -31.5590 C   0  0  0  0  0  0  0  0  0  0  0  0
   -8.5750   20.2260  -32.3500 C   0  0  0  0  0  0  0  0  0  0  0  0
   -7.6280   20.0430  -33.2920 N   0  0  0  0  0  0  0  0  0  0  0  0
   -5.6840   22.2180  -32.1540 N   0  0  0  0  0  0  0  0  0  0  0  0
   -6.2920   23.2870  -31.5730 C   0  0  0  0  0  0  0  0  0  0  0  0
   -7.7810   23.4240  -31.6770 C   0  0  0  0  0  0  0  0  0  0  0  0
   -6.0402   25.3177  -29.1300 H   0  0  0  0  0  0  0  0  0  0  0  0
   -5.5435   26.3362  -30.5237 H   0  0  0  0  0  0  0  0  0  0  0  0
   -7.1520   25.5366  -30.5237 H   0  0  0  0  0  0  0  0  0  0  0  0
   -2.4650   22.8501  -31.3530 H   0  0  0  0  0  0  0  0  0  0  0  0
   -2.7958   21.1360  -33.2613 H   0  0  0  0  0  0  0  0  0  0  0  0
   -3.5030   20.0896  -31.9582 H   0  0  0  0  0  0  0  0  0  0  0  0
   -5.5800   20.6190  -33.6180 H   0  0  0  0  0  0  0  0  0  0  0  0
   -3.9532   18.2689  -34.2285 H   0  0  0  0  0  0  0  0  0  0  0  0
   -4.5095   18.4725  -32.5267 H   0  0  0  0  0  0  0  0  0  0  0  0
   -6.2972   18.5248  -35.0126 H   0  0  0  0  0  0  0  0  0  0  0  0
   -6.1270   17.1517  -33.8512 H   0  0  0  0  0  0  0  0  0  0  0  0
   -7.5139   17.2169  -31.7029 H   0  0  0  0  0  0  0  0  0  0  0  0
   -9.3410   18.9276  -30.7064 H   0  0  0  0  0  0  0  0  0  0  0  0
   -9.1819   21.1355  -32.2296 H   0  0  0  0  0  0  0  0  0  0  0  0
   -8.2169   23.4641  -30.6678 H   0  0  0  0  0  0  0  0  0  0  0  0
   -8.0271   24.3486  -32.2197 H   0  0  0  0  0  0  0  0  0  0  0  0
   -8.1917   22.5598  -32.2197 H   0  0  0  0  0  0  0  0  0  0  0  0
  1  2  1  0
  2  3  2  0
  3  4  1  0
  4  5  2  0
  5  6  1  0
  6  7  1  0
  7  8  1  0
  8  9  1  0
  9 10  1  0
 10 11  1  0
 11 12  2  0
 12 13  1  0
 13 14  2  0
  5 15  1  0
 15 16  2  0
 16 17  1  0
 16  2  1  0
 14 10  1  0
  1 18  1  0
  1 19  1  0
  1 20  1  0
  4 21  1  0
  6 22  1  0
  6 23  1  0
  7 24  1  0
  8 25  1  0
  8 26  1  0
  9 27  1  0
  9 28  1  0
 11 29  1  0
 12 30  1  0
 13 31  1  0
 17 32  1  0
 17 33  1  0
 17 34  1  0
M  END
>  <UniqueID>  (34) 
34

>  <SMILES>  (34) 
Cc1ncc(CNCCn2cccn2)nc1C

>  <Energy>  (34) 
60.933172200188665

>  <Genealogy>  (34) 
Cc1ncc(CNCCn2cccn2)nc1C (3D coordinates assigned)
Cc1ncc(CNCCn2cccn2)nc1C (optimized conformer: 60.933172200188665 kcal/mol)

>  <smiles>  (34) 
Cc1ncc(CNCCn2cccn2)nc1C

>  <score_type>  (34) 
oracle

>  <origin>  (34) 
adg

>  <m_score__min__energy>  (34) 
-5.9400000000000004

>  <m_primary>  (34) 
energy

$$$$
34:0
     RDKit          3D

 55 58  0  0  0  0  0  0  0  0999 V2000
   -6.7320   25.1100  -29.7370 C   0  0  0  0  0  0  0  0  0  0  0  0
   -5.5540   25.5310  -30.6290 C   0  0  0  0  0  0  0  0  0  0  0  0
   -4.5420   24.4670  -30.8300 N   0  0  0  0  0  0  0  0  0  0  0  0
   -3.9970   23.9250  -29.5680 C   0  0  0  0  0  0  0  0  0  0  0  0
   -2.4780   23.7850  -29.6530 C   0  0  0  0  0  0  0  0  0  0  0  0
   -4.9750   23.4220  -31.7850 C   0  0  0  0  0  0  0  0  0  0  0  0
   -4.9700   22.0640  -31.0830 C   0  0  0  0  0  0  0  0  0  0  0  0
   -5.5730   21.0380  -31.9420 N   0  0  0  0  0  0  0  0  0  0  0  0
   -4.9410   20.1950  -32.8080 C   0  0  0  0  0  0  0  0  0  0  0  0
   -3.5030   20.2510  -33.1290 C   0  0  0  0  0  0  0  0  0  0  0  0
   -2.7950   19.0840  -33.4490 C   0  0  0  0  0  0  0  0  0  0  0  0
   -1.4400   19.1530  -33.7850 C   0  0  0  0  0  0  0  0  0  0  0  0
   -0.7700   20.3880  -33.7930 C   0  0  0  0  0  0  0  0  0  0  0  0
    0.6620   20.4620  -34.1720 C   0  0  0  0  0  0  0  0  0  0  0  0
    1.6300   19.7390  -33.4440 C   0  0  0  0  0  0  0  0  0  0  0  0
    1.2680   18.9390  -32.4090 F   0  0  0  0  0  0  0  0  0  0  0  0
    2.9800   19.8150  -33.8020 C   0  0  0  0  0  0  0  0  0  0  0  0
    3.3770   20.6050  -34.8820 C   0  0  0  0  0  0  0  0  0  0  0  0
    2.4260   21.3230  -35.6110 C   0  0  0  0  0  0  0  0  0  0  0  0
    1.0740   21.2560  -35.2610 C   0  0  0  0  0  0  0  0  0  0  0  0
    0.1760   21.9910  -35.9650 F   0  0  0  0  0  0  0  0  0  0  0  0
   -1.4760   21.5510  -33.4380 C   0  0  0  0  0  0  0  0  0  0  0  0
   -2.8300   21.4800  -33.1010 C   0  0  0  0  0  0  0  0  0  0  0  0
   -5.7510   19.2210  -33.3010 N   0  0  0  0  0  0  0  0  0  0  0  0
   -6.9330   19.4840  -32.7170 C   0  0  0  0  0  0  0  0  0  0  0  0
   -8.1210   18.7690  -32.8550 C   0  0  0  0  0  0  0  0  0  0  0  0
   -9.2340   19.1960  -32.1040 C   0  0  0  0  0  0  0  0  0  0  0  0
   -9.1270   20.3050  -31.2360 C   0  0  0  0  0  0  0  0  0  0  0  0
   -7.9100   21.0020  -31.1140 C   0  0  0  0  0  0  0  0  0  0  0  0
   -6.8310   20.5630  -31.8880 C   0  0  0  0  0  0  0  0  0  0  0  0
   -6.4461   25.2122  -28.6797 H   0  0  0  0  0  0  0  0  0  0  0  0
   -7.5989   25.7540  -29.9463 H   0  0  0  0  0  0  0  0  0  0  0  0
   -6.9944   24.0625  -29.9463 H   0  0  0  0  0  0  0  0  0  0  0  0
   -5.9512   25.8214  -31.6128 H   0  0  0  0  0  0  0  0  0  0  0  0
   -5.0464   26.3614  -30.1163 H   0  0  0  0  0  0  0  0  0  0  0  0
   -4.2514   24.6062  -28.7426 H   0  0  0  0  0  0  0  0  0  0  0  0
   -4.4348   22.9315  -29.3910 H   0  0  0  0  0  0  0  0  0  0  0  0
   -2.0560   23.7461  -28.6379 H   0  0  0  0  0  0  0  0  0  0  0  0
   -2.2246   22.8597  -30.1911 H   0  0  0  0  0  0  0  0  0  0  0  0
   -2.0597   24.6484  -30.1911 H   0  0  0  0  0  0  0  0  0  0  0  0
   -5.9909   23.6479  -32.1414 H   0  0  0  0  0  0  0  0  0  0  0  0
   -4.2857   23.3969  -32.6419 H   0  0  0  0  0  0  0  0  0  0  0  0
   -3.9326   21.7794  -30.8531 H   0  0  0  0  0  0  0  0  0  0  0  0
   -5.5570   22.1411  -30.1559 H   0  0  0  0  0  0  0  0  0  0  0  0
   -3.3076   18.1108  -33.4356 H   0  0  0  0  0  0  0  0  0  0  0  0
   -0.8943   18.2340  -34.0450 H   0  0  0  0  0  0  0  0  0  0  0  0
    3.7313   19.2503  -33.2305 H   0  0  0  0  0  0  0  0  0  0  0  0
    4.4399   20.6623  -35.1594 H   0  0  0  0  0  0  0  0  0  0  0  0
    2.7418   21.9430  -36.4630 H   0  0  0  0  0  0  0  0  0  0  0  0
   -0.9594   22.5221  -33.4255 H   0  0  0  0  0  0  0  0  0  0  0  0
   -3.3706   22.3934  -32.8122 H   0  0  0  0  0  0  0  0  0  0  0  0
   -8.1876   17.9009  -33.5273 H   0  0  0  0  0  0  0  0  0  0  0  0
  -10.1918   18.6626  -32.1942 H   0  0  0  0  0  0  0  0  0  0  0  0
  -10.0012   20.6265  -30.6509 H   0  0  0  0  0  0  0  0  0  0  0  0
   -7.8112   21.8612  -30.4342 H   0  0  0  0  0  0  0  0  0  0  0  0
  1  2  1  0
  2  3  1  0
  3  4  1  0
  4  5  1  0
  3  6  1  0
  6  7  1  0
  7  8  1  0
  8  9  1  0
  9 10  1  0
 10 11  2  0
 11 12  1  0
 12 13  2  0
 13 14  1  0
 14 15  2  0
 15 16  1  0
 15 17  1  0
 17 18  2  0
 18 19  1  0
 19 20  2  0
 20 21  1  0
 13 22  1  0
 22 23  2  0
  9 24  2  0
 24 25  1  0
 25 26  2  0
 26 27  1  0
 27 28  2  0
 28 29  1  0
 29 30  2  0
 30  8  1  0
 23 10  1  0
 30 25  1  0
 20 14  1  0
  1 31  1  0
  1 32  1  0
  1 33  1  0
  2 34  1  0
  2 35  1  0
  4 36  1  0
  4 37  1  0
  5 38  1  0
  5 39  1  0
  5 40  1  0
  6 41  1  0
  6 42  1  0
  7 43  1  0
  7 44  1  0
 11 45  1  0
 12 46  1  0
 17 47  1  0
 18 48  1  0
 19 49  1  0
 22 50  1  0
 23 51  1  0
 26 52  1  0
 27 53  1  0
 28 54  1  0
 29 55  1  0
M  END
>  <UniqueID>  (35) 
35

>  <SMILES>  (35) 
CCN(CC)CCn1c(-c2ccc(-c3c(F)cccc3F)cc2)nc2ccccc21

>  <Energy>  (35) 
106.37613020281367

>  <Genealogy>  (35) 
CCN(CC)CCn1c(-c2ccc(-c3c(F)cccc3F)cc2)nc2ccccc21 (3D coordinates assigned)
CCN(CC)CCn1c(-c2ccc(-c3c(F)cccc3F)cc2)nc2ccccc21 (optimized conformer: 106.37613020281367 kcal/mol)

>  <smiles>  (35) 
CCN(CC)CCn1c(-c2ccc(-c3c(F)cccc3F)cc2)nc2ccccc21

>  <score_type>  (35) 
oracle

>  <origin>  (35) 
adg

>  <m_score__min__energy>  (35) 
-8.8699999999999992

>  <m_primary>  (35) 
energy

$$$$
35:0
     RDKit          3D

 41 43  0  0  0  0  0  0  0  0999 V2000
    0.3080   22.8800  -26.1680 C   0  0  0  0  0  0  0  0  0  0  0  0
   -0.0160   22.1920  -27.4580 C   0  0  0  0  0  0  0  0  0  0  0  0
   -0.0990   20.8330  -27.4810 N   0  0  0  0  0  0  0  0  0  0  0  0
   -0.3720   20.1480  -28.6210 C   0  0  0  0  0  0  0  0  0  0  0  0
   -0.5590   20.8350  -29.8190 C   0  0  0  0  0  0  0  0  0  0  0  0
   -0.4840   22.2280  -29.8290 C   0  0  0  0  0  0  0  0  0  0  0  0
   -0.2380   22.9280  -28.6370 C   0  0  0  0  0  0  0  0  0  0  0  0
   -0.1670   24.3640  -28.6010 N   0  0  0  0  0  0  0  0  0  0  0  0
   -1.2630   25.2770  -28.4470 C   0  0  0  0  0  0  0  0  0  0  0  0
   -1.2320   26.4240  -28.9690 O   0  0  0  0  0  0  0  0  0  0  0  0
   -2.4700   24.8510  -27.6670 C   0  0  0  0  0  0  0  0  0  0  0  0
   -3.1520   23.6380  -28.3090 C   0  0  0  0  0  0  0  0  0  0  0  0
   -4.0910   24.0560  -29.3970 C   0  0  0  0  0  0  0  0  0  0  0  0
   -5.3690   23.6460  -29.4890 N   0  0  0  0  0  0  0  0  0  0  0  0
   -5.7620   24.2690  -30.6210 C   0  0  0  0  0  0  0  0  0  0  0  0
   -7.1190   24.1120  -31.2240 C   0  0  0  0  0  0  0  0  0  0  0  0
   -7.3200   22.7000  -31.7000 C   0  0  0  0  0  0  0  0  0  0  0  0
   -8.5630   22.0640  -31.5400 C   0  0  0  0  0  0  0  0  0  0  0  0
   -8.7430   20.7530  -31.9920 C   0  0  0  0  0  0  0  0  0  0  0  0
   -7.6800   20.0580  -32.5740 C   0  0  0  0  0  0  0  0  0  0  0  0
   -7.8540   18.7820  -32.9960 F   0  0  0  0  0  0  0  0  0  0  0  0
   -6.4360   20.6790  -32.7220 C   0  0  0  0  0  0  0  0  0  0  0  0
   -6.2570   21.9960  -32.2890 C   0  0  0  0  0  0  0  0  0  0  0  0
   -4.7760   24.9930  -31.1860 N   0  0  0  0  0  0  0  0  0  0  0  0
   -3.7600   24.8380  -30.3950 O   0  0  0  0  0  0  0  0  0  0  0  0
    0.0067   22.2402  -25.3255 H   0  0  0  0  0  0  0  0  0  0  0  0
    1.3902   23.0699  -26.1155 H   0  0  0  0  0  0  0  0  0  0  0  0
   -0.2349   23.8352  -26.1155 H   0  0  0  0  0  0  0  0  0  0  0  0
   -0.4456   19.0507  -28.5990 H   0  0  0  0  0  0  0  0  0  0  0  0
   -0.7639   20.2837  -30.7486 H   0  0  0  0  0  0  0  0  0  0  0  0
   -0.6177   22.7786  -30.7718 H   0  0  0  0  0  0  0  0  0  0  0  0
   -2.1608   24.5881  -26.6446 H   0  0  0  0  0  0  0  0  0  0  0  0
   -3.1869   25.6852  -27.6560 H   0  0  0  0  0  0  0  0  0  0  0  0
   -2.3822   22.9772  -28.7341 H   0  0  0  0  0  0  0  0  0  0  0  0
   -3.7297   23.1133  -27.5338 H   0  0  0  0  0  0  0  0  0  0  0  0
   -7.8815   24.3519  -30.4684 H   0  0  0  0  0  0  0  0  0  0  0  0
   -7.2097   24.7945  -32.0819 H   0  0  0  0  0  0  0  0  0  0  0  0
   -9.3954   22.5982  -31.0586 H   0  0  0  0  0  0  0  0  0  0  0  0
   -9.7246   20.2674  -31.8890 H   0  0  0  0  0  0  0  0  0  0  0  0
   -5.5986   20.1314  -33.1790 H   0  0  0  0  0  0  0  0  0  0  0  0
   -5.2784   22.4835  -32.4102 H   0  0  0  0  0  0  0  0  0  0  0  0
  1  2  1  0
  2  3  2  0
  3  4  1  0
  4  5  2  0
  5  6  1  0
  6  7  2  0
  7  8  1  0
  8  9  1  0
  9 10  2  0
  9 11  1  0
 11 12  1  0
 12 13  1  0
 13 14  2  0
 14 15  1  0
 15 16  1  0
 16 17  1  0
 17 18  2  0
 18 19  1  0
 19 20  2  0
 20 21  1  0
 20 22  1  0
 22 23  2  0
 15 24  2  0
 24 25  1  0
  7  2  1  0
 25 13  1  0
 23 17  1  0
  1 26  1  0
  1 27  1  0
  1 28  1  0
  4 29  1  0
  5 30  1  0
  6 31  1  0
 11 32  1  0
 11 33  1  0
 12 34  1  0
 12 35  1  0
 16 36  1  0
 16 37  1  0
 18 38  1  0
 19 39  1  0
 22 40  1  0
 23 41  1  0
M  CHG  1   8  -1
M  END
>  <UniqueID>  (36) 
36

>  <SMILES>  (36) 
Cc1ncccc1[N-]C(=O)CCc1nc(Cc2ccc(F)cc2)no1

>  <Energy>  (36) 
68.52096836519695

>  <Genealogy>  (36) 
Cc1ncccc1[N-]C(=O)CCc1nc(Cc2ccc(F)cc2)no1 (protonated)
Cc1ncccc1[N-]C(=O)CCc1nc(Cc2ccc(F)cc2)no1 (3D coordinates assigned)
Cc1ncccc1[N-]C(=O)CCc1nc(Cc2ccc(F)cc2)no1 (optimized conformer: 68.52096836519695 kcal/mol)

>  <smiles>  (36) 
Cc1ncccc1NC(=O)CCc1nc(Cc2ccc(F)cc2)no1

>  <score_type>  (36) 
oracle

>  <origin>  (36) 
adg

>  <m_score__min__energy>  (36) 
-10.33

>  <m_primary>  (36) 
energy

$$$$
36:0
     RDKit          3D

 39 40  0  0  0  0  0  0  0  0999 V2000
   -8.5690   18.9300  -31.6790 C   0  0  0  0  0  0  0  0  0  0  0  0
   -7.1050   18.6330  -32.0010 C   0  0  0  0  0  0  0  0  0  0  0  0
   -6.4650   19.7740  -32.6750 N   0  0  0  0  0  0  0  0  0  0  0  0
   -7.2690   20.9650  -32.9520 C   0  0  0  0  0  0  0  0  0  0  0  0
   -7.0910   22.0040  -31.8390 C   0  0  0  0  0  0  0  0  0  0  0  0
   -5.6900   22.1830  -31.3980 N   0  0  0  0  0  0  0  0  0  0  0  0
   -5.4990   23.2010  -30.3420 C   0  0  0  0  0  0  0  0  0  0  0  0
   -4.1040   23.8230  -30.4490 C   0  0  0  0  0  0  0  0  0  0  0  0
   -4.1930   25.2070  -30.7370 O   0  0  0  0  0  0  0  0  0  0  0  0
   -5.4940   25.6830  -30.4720 C   0  0  0  0  0  0  0  0  0  0  0  0
   -4.7020   22.2410  -32.4940 C   0  0  0  0  0  0  0  0  0  0  0  0
   -4.2340   20.8790  -32.9860 C   0  0  0  0  0  0  0  0  0  0  0  0
   -2.8840   20.7510  -33.3520 C   0  0  0  0  0  0  0  0  0  0  0  0
   -2.3840   19.5360  -33.8070 C   0  0  0  0  0  0  0  0  0  0  0  0
   -3.2310   18.4380  -33.8850 C   0  0  0  0  0  0  0  0  0  0  0  0
   -4.5340   18.5510  -33.5150 N   0  0  0  0  0  0  0  0  0  0  0  0
   -5.0680   19.7260  -33.0590 C   0  0  0  0  0  0  0  0  0  0  0  0
   -8.7061   18.9578  -30.5879 H   0  0  0  0  0  0  0  0  0  0  0  0
   -8.8488   19.9032  -32.1086 H   0  0  0  0  0  0  0  0  0  0  0  0
   -9.2059   18.1428  -32.1086 H   0  0  0  0  0  0  0  0  0  0  0  0
   -6.5676   18.4222  -31.0647 H   0  0  0  0  0  0  0  0  0  0  0  0
   -7.0664   17.7646  -32.6751 H   0  0  0  0  0  0  0  0  0  0  0  0
   -6.9502   21.4022  -33.9097 H   0  0  0  0  0  0  0  0  0  0  0  0
   -8.3289   20.6750  -33.0016 H   0  0  0  0  0  0  0  0  0  0  0  0
   -7.4637   22.9714  -32.2067 H   0  0  0  0  0  0  0  0  0  0  0  0
   -7.6530   21.6354  -30.9682 H   0  0  0  0  0  0  0  0  0  0  0  0
   -6.2575   23.9894  -30.4566 H   0  0  0  0  0  0  0  0  0  0  0  0
   -5.6014   22.7195  -29.3583 H   0  0  0  0  0  0  0  0  0  0  0  0
   -3.5736   23.6862  -29.4951 H   0  0  0  0  0  0  0  0  0  0  0  0
   -3.5574   23.3268  -31.2645 H   0  0  0  0  0  0  0  0  0  0  0  0
   -5.6492   25.7398  -29.3845 H   0  0  0  0  0  0  0  0  0  0  0  0
   -5.6151   26.6837  -30.9124 H   0  0  0  0  0  0  0  0  0  0  0  0
   -6.2323   24.9968  -30.9124 H   0  0  0  0  0  0  0  0  0  0  0  0
   -5.1573   22.7757  -33.3407 H   0  0  0  0  0  0  0  0  0  0  0  0
   -3.8152   22.7535  -32.0928 H   0  0  0  0  0  0  0  0  0  0  0  0
   -2.2152   21.6212  -33.2779 H   0  0  0  0  0  0  0  0  0  0  0  0
   -1.3282   19.4453  -34.1022 H   0  0  0  0  0  0  0  0  0  0  0  0
   -2.8459   17.4735  -34.2475 H   0  0  0  0  0  0  0  0  0  0  0  0
   -5.1200   17.6900  -33.5730 H   0  0  0  0  0  0  0  0  0  0  0  0
  1  2  1  0
  2  3  1  0
  3  4  1  0
  4  5  1  0
  5  6  1  0
  6  7  1  0
  7  8  1  0
  8  9  1  0
  9 10  1  0
  6 11  1  0
 11 12  1  0
 12 13  2  0
 13 14  1  0
 14 15  2  0
 15 16  1  0
 16 17  2  0
 17  3  1  0
 17 12  1  0
  1 18  1  0
  1 19  1  0
  1 20  1  0
  2 21  1  0
  2 22  1  0
  4 23  1  0
  4 24  1  0
  5 25  1  0
  5 26  1  0
  7 27  1  0
  7 28  1  0
  8 29  1  0
  8 30  1  0
 10 31  1  0
 10 32  1  0
 10 33  1  0
 11 34  1  0
 11 35  1  0
 13 36  1  0
 14 37  1  0
 15 38  1  0
 16 39  1  0
M  CHG  1  16   1
M  END
>  <UniqueID>  (37) 
37

>  <SMILES>  (37) 
CCN1CCN(CCOC)Cc2ccc[nH+]c21

>  <Energy>  (37) 
51.43221072617817

>  <Genealogy>  (37) 
CCN1CCN(CCOC)Cc2ccc[nH+]c21 (protonated)
CCN1CCN(CCOC)Cc2ccc[nH+]c21 (3D coordinates assigned)
CCN1CCN(CCOC)Cc2ccc[nH+]c21 (nonaromatic ring conformer: 51.43221072617817 kcal/mol)

>  <smiles>  (37) 
CCN1CCN(CCOC)Cc2cccnc21

>  <score_type>  (37) 
oracle

>  <origin>  (37) 
adg

>  <m_score__min__energy>  (37) 
-4.7300000000000004

>  <m_primary>  (37) 
energy

$$$$
37:0
     RDKit          3D

 47 50  0  0  0  0  0  0  0  0999 V2000
   -5.2920   15.0480  -33.6510 C   0  0  0  0  0  0  0  0  0  0  0  0
   -6.2150   15.9690  -34.2230 O   0  0  0  0  0  0  0  0  0  0  0  0
   -6.5250   17.2230  -33.6770 C   0  0  0  0  0  0  0  0  0  0  0  0
   -6.0720   18.3680  -34.3410 C   0  0  0  0  0  0  0  0  0  0  0  0
   -6.3570   19.6390  -33.8360 C   0  0  0  0  0  0  0  0  0  0  0  0
   -7.1050   19.7900  -32.6610 C   0  0  0  0  0  0  0  0  0  0  0  0
   -7.3920   21.0960  -32.1290 N   0  0  0  0  0  0  0  0  0  0  0  0
   -8.6110   21.6730  -32.0760 C   0  0  0  0  0  0  0  0  0  0  0  0
   -8.4610   22.9810  -31.6710 C   0  0  0  0  0  0  0  0  0  0  0  0
   -7.1520   23.2270  -31.4880 N   0  0  0  0  0  0  0  0  0  0  0  0
   -6.5220   22.0670  -31.7600 C   0  0  0  0  0  0  0  0  0  0  0  0
   -4.7280   21.9220  -31.7980 S   0  0  0  0  0  0  0  0  0  0  0  0
   -4.4390   22.8370  -30.2400 C   0  0  0  0  0  0  0  0  0  0  0  0
   -4.1920   24.2840  -30.5030 C   0  0  0  0  0  0  0  0  0  0  0  0
   -5.0320   24.9480  -31.1690 O   0  0  0  0  0  0  0  0  0  0  0  0
   -3.0580   24.9220  -29.9030 N   0  0  0  0  0  0  0  0  0  0  0  0
   -2.2490   24.3930  -28.8430 C   0  0  0  0  0  0  0  0  0  0  0  0
   -1.3390   23.3680  -29.1410 C   0  0  0  0  0  0  0  0  0  0  0  0
   -0.5320   22.8210  -28.1380 C   0  0  0  0  0  0  0  0  0  0  0  0
   -0.6220   23.3080  -26.8320 C   0  0  0  0  0  0  0  0  0  0  0  0
   -1.4900   24.3660  -26.5350 C   0  0  0  0  0  0  0  0  0  0  0  0
   -2.3100   24.9030  -27.5320 C   0  0  0  0  0  0  0  0  0  0  0  0
   -1.5190   24.8760  -25.2330 O   0  0  0  0  0  0  0  0  0  0  0  0
   -0.5080   24.5310  -24.2820 C   0  0  0  0  0  0  0  0  0  0  0  0
   -0.1170   23.0560  -24.4340 C   0  0  0  0  0  0  0  0  0  0  0  0
    0.1530   22.7550  -25.8070 O   0  0  0  0  0  0  0  0  0  0  0  0
   -7.5490   18.6410  -31.9860 C   0  0  0  0  0  0  0  0  0  0  0  0
   -7.2670   17.3670  -32.4900 C   0  0  0  0  0  0  0  0  0  0  0  0
   -5.3492   15.1051  -32.5540 H   0  0  0  0  0  0  0  0  0  0  0  0
   -5.5412   14.0279  -33.9786 H   0  0  0  0  0  0  0  0  0  0  0  0
   -4.2725   15.2995  -33.9786 H   0  0  0  0  0  0  0  0  0  0  0  0
   -5.4873   18.2668  -35.2672 H   0  0  0  0  0  0  0  0  0  0  0  0
   -5.9904   20.5303  -34.3663 H   0  0  0  0  0  0  0  0  0  0  0  0
   -9.5650   21.1809  -32.3161 H   0  0  0  0  0  0  0  0  0  0  0  0
   -9.2766   23.7040  -31.5221 H   0  0  0  0  0  0  0  0  0  0  0  0
   -6.7170   24.1370  -31.2200 H   0  0  0  0  0  0  0  0  0  0  0  0
   -5.3240   22.7354  -29.5947 H   0  0  0  0  0  0  0  0  0  0  0  0
   -3.5501   22.4154  -29.7479 H   0  0  0  0  0  0  0  0  0  0  0  0
   -1.2594   22.9914  -30.1715 H   0  0  0  0  0  0  0  0  0  0  0  0
    0.1714   22.0098  -28.3770 H   0  0  0  0  0  0  0  0  0  0  0  0
   -3.0024   25.7235  -27.2923 H   0  0  0  0  0  0  0  0  0  0  0  0
    0.3782   25.1607  -24.4497 H   0  0  0  0  0  0  0  0  0  0  0  0
   -0.8997   24.6951  -23.2673 H   0  0  0  0  0  0  0  0  0  0  0  0
    0.7829   22.8550  -23.8342 H   0  0  0  0  0  0  0  0  0  0  0  0
   -0.9490   22.4265  -24.0855 H   0  0  0  0  0  0  0  0  0  0  0  0
   -8.1232   18.7439  -31.0534 H   0  0  0  0  0  0  0  0  0  0  0  0
   -7.6265   16.4746  -31.9567 H   0  0  0  0  0  0  0  0  0  0  0  0
  1  2  1  0
  2  3  1  0
  3  4  2  0
  4  5  1  0
  5  6  2  0
  6  7  1  0
  7  8  1  0
  8  9  2  0
  9 10  1  0
 10 11  2  0
 11 12  1  0
 12 13  1  0
 13 14  1  0
 14 15  2  0
 14 16  1  0
 16 17  1  0
 17 18  2  0
 18 19  1  0
 19 20  2  0
 20 21  1  0
 21 22  2  0
 21 23  1  0
 23 24  1  0
 24 25  1  0
 25 26  1  0
  6 27  1  0
 27 28  2  0
 28  3  1  0
 11  7  1  0
 22 17  1  0
 26 20  1  0
  1 29  1  0
  1 30  1  0
  1 31  1  0
  4 32  1  0
  5 33  1  0
  8 34  1  0
  9 35  1  0
 10 36  1  0
 13 37  1  0
 13 38  1  0
 18 39  1  0
 19 40  1  0
 22 41  1  0
 24 42  1  0
 24 43  1  0
 25 44  1  0
 25 45  1  0
 27 46  1  0
 28 47  1  0
M  CHG  2  10   1  16  -1
M  END
>  <UniqueID>  (38) 
38

>  <SMILES>  (38) 
COc1ccc(-n2cc[nH+]c2SCC(=O)[N-]c2ccc3c(c2)OCCO3)cc1

>  <Energy>  (38) 
86.20572890168148

>  <Genealogy>  (38) 
COc1ccc(-n2cc[nH+]c2SCC(=O)[N-]c2ccc3c(c2)OCCO3)cc1 (protonated)
COc1ccc(-n2cc[nH+]c2SCC(=O)[N-]c2ccc3c(c2)OCCO3)cc1 (3D coordinates assigned)
COc1ccc(-n2cc[nH+]c2SCC(=O)[N-]c2ccc3c(c2)OCCO3)cc1 (nonaromatic ring conformer: 86.20572890168148 kcal/mol)

>  <smiles>  (38) 
COc1ccc(-n2ccnc2SCC(=O)Nc2ccc3c(c2)OCCO3)cc1

>  <score_type>  (38) 
oracle

>  <origin>  (38) 
adg

>  <m_score__min__energy>  (38) 
-9.6500000000000004

>  <m_primary>  (38) 
energy

$$$$
38:0
     RDKit          3D

 36 38  0  0  0  0  0  0  0  0999 V2000
   -4.8990   15.6860  -32.6120 C   0  0  0  0  0  0  0  0  0  0  0  0
   -5.9760   16.3730  -33.3340 N   0  0  0  0  0  0  0  0  0  0  0  0
   -6.8680   15.6000  -34.2060 C   0  0  0  0  0  0  0  0  0  0  0  0
   -6.1840   17.8030  -33.2210 C   0  0  0  0  0  0  0  0  0  0  0  0
   -5.2700   18.6700  -33.7600 N   0  0  0  0  0  0  0  0  0  0  0  0
   -5.4200   20.0300  -33.6880 C   0  0  0  0  0  0  0  0  0  0  0  0
   -6.5040   20.5740  -33.0640 N   0  0  0  0  0  0  0  0  0  0  0  0
   -7.4120   19.7290  -32.5220 C   0  0  0  0  0  0  0  0  0  0  0  0
   -7.2920   18.3800  -32.5820 C   0  0  0  0  0  0  0  0  0  0  0  0
   -8.3560   17.7980  -31.9930 N   0  0  0  0  0  0  0  0  0  0  0  0
   -9.1040   18.8580  -31.5840 C   0  0  0  0  0  0  0  0  0  0  0  0
   -8.5440   20.0550  -31.8850 N   0  0  0  0  0  0  0  0  0  0  0  0
   -9.1160   21.3830  -31.6780 C   0  0  0  0  0  0  0  0  0  0  0  0
   -8.0190   22.3750  -31.4070 C   0  0  0  0  0  0  0  0  0  0  0  0
   -7.5320   23.1930  -32.4360 C   0  0  0  0  0  0  0  0  0  0  0  0
   -6.5420   24.1450  -32.1740 C   0  0  0  0  0  0  0  0  0  0  0  0
   -6.0310   24.3040  -30.8730 C   0  0  0  0  0  0  0  0  0  0  0  0
   -5.0130   25.2830  -30.5980 N   0  0  0  0  0  0  0  0  0  0  0  0
   -5.3130   26.4850  -30.4360 O   0  0  0  0  0  0  0  0  0  0  0  0
   -3.6910   24.9120  -30.5100 O   0  0  0  0  0  0  0  0  0  0  0  0
   -6.5330   23.4910  -29.8420 C   0  0  0  0  0  0  0  0  0  0  0  0
   -7.5220   22.5390  -30.1060 C   0  0  0  0  0  0  0  0  0  0  0  0
   -5.0601   15.7888  -31.5287 H   0  0  0  0  0  0  0  0  0  0  0  0
   -4.8978   14.6199  -32.8830 H   0  0  0  0  0  0  0  0  0  0  0  0
   -3.9318   16.1343  -32.8830 H   0  0  0  0  0  0  0  0  0  0  0  0
   -7.5566   15.0033  -33.5897 H   0  0  0  0  0  0  0  0  0  0  0  0
   -7.4462   16.2874  -34.8410 H   0  0  0  0  0  0  0  0  0  0  0  0
   -6.2698   14.9299  -34.8410 H   0  0  0  0  0  0  0  0  0  0  0  0
   -4.6609   20.6877  -34.1366 H   0  0  0  0  0  0  0  0  0  0  0  0
  -10.0664   18.7542  -31.0616 H   0  0  0  0  0  0  0  0  0  0  0  0
   -9.6684   21.6870  -32.5794 H   0  0  0  0  0  0  0  0  0  0  0  0
   -9.7990   21.3533  -30.8163 H   0  0  0  0  0  0  0  0  0  0  0  0
   -7.9310   23.0853  -33.4554 H   0  0  0  0  0  0  0  0  0  0  0  0
   -6.1599   24.7743  -32.9913 H   0  0  0  0  0  0  0  0  0  0  0  0
   -6.1445   23.6048  -28.8192 H   0  0  0  0  0  0  0  0  0  0  0  0
   -7.9126   21.9150  -29.2886 H   0  0  0  0  0  0  0  0  0  0  0  0
  1  2  1  0
  2  3  1  0
  2  4  1  0
  4  5  2  0
  5  6  1  0
  6  7  2  0
  7  8  1  0
  8  9  2  0
  9 10  1  0
 10 11  2  0
 11 12  1  0
 12 13  1  0
 13 14  1  0
 14 15  2  0
 15 16  1  0
 16 17  2  0
 17 18  1  0
 18 19  2  0
 18 20  1  0
 17 21  1  0
 21 22  2  0
  9  4  1  0
 22 14  1  0
 12  8  1  0
  1 23  1  0
  1 24  1  0
  1 25  1  0
  3 26  1  0
  3 27  1  0
  3 28  1  0
  6 29  1  0
 11 30  1  0
 13 31  1  0
 13 32  1  0
 15 33  1  0
 16 34  1  0
 21 35  1  0
 22 36  1  0
M  CHG  2  18   1  20  -1
M  END
>  <UniqueID>  (39) 
39

>  <SMILES>  (39) 
CN(C)c1ncnc2c1ncn2Cc1ccc([N+](=O)[O-])cc1

>  <Energy>  (39) 
78.6120039229902

>  <Genealogy>  (39) 
CN(C)c1ncnc2c1ncn2Cc1ccc([N+](=O)[O-])cc1 (3D coordinates assigned)
CN(C)c1ncnc2c1ncn2Cc1ccc([N+](=O)[O-])cc1 (optimized conformer: 78.6120039229902 kcal/mol)

>  <smiles>  (39) 
CN(C)c1ncnc2c1ncn2Cc1ccc([N+](=O)[O-])cc1

>  <score_type>  (39) 
oracle

>  <origin>  (39) 
adg

>  <m_score__min__energy>  (39) 
-8.4100000000000001

>  <m_primary>  (39) 
energy

$$$$
39:0
     RDKit          3D

 38 40  0  0  0  0  0  0  0  0999 V2000
   -5.4630   16.8620  -34.2410 C   0  0  0  0  0  0  0  0  0  0  0  0
   -6.6510   16.8510  -33.4570 O   0  0  0  0  0  0  0  0  0  0  0  0
   -7.2790   18.0000  -32.9550 C   0  0  0  0  0  0  0  0  0  0  0  0
   -8.3210   17.9400  -32.0080 C   0  0  0  0  0  0  0  0  0  0  0  0
   -8.9130   19.1160  -31.5380 C   0  0  0  0  0  0  0  0  0  0  0  0
   -8.4730   20.3600  -32.0030 C   0  0  0  0  0  0  0  0  0  0  0  0
   -9.2290   21.8670  -31.3930 S   0  0  0  0  0  0  0  0  0  0  0  0
   -7.6450   22.6620  -31.1200 C   0  0  0  0  0  0  0  0  0  0  0  0
   -7.0070   23.3320  -32.1700 C   0  0  0  0  0  0  0  0  0  0  0  0
   -5.7770   23.9580  -31.9570 C   0  0  0  0  0  0  0  0  0  0  0  0
   -5.1610   23.9070  -30.6970 C   0  0  0  0  0  0  0  0  0  0  0  0
   -3.9060   24.5800  -30.4980 N   0  0  0  0  0  0  0  0  0  0  0  0
   -3.1320   24.5090  -29.2910 C   0  0  0  0  0  0  0  0  0  0  0  0
   -3.3640   23.6590  -28.3520 N   0  0  0  0  0  0  0  0  0  0  0  0
   -2.3680   23.8150  -27.2990 C   0  0  0  0  0  0  0  0  0  0  0  0
   -1.4280   24.9270  -27.7940 C   0  0  0  0  0  0  0  0  0  0  0  0
   -1.9920   25.3120  -29.0720 N   0  0  0  0  0  0  0  0  0  0  0  0
   -5.8170   23.2470  -29.6400 C   0  0  0  0  0  0  0  0  0  0  0  0
   -7.0490   22.6220  -29.8560 C   0  0  0  0  0  0  0  0  0  0  0  0
   -7.4430   20.4250  -32.9470 C   0  0  0  0  0  0  0  0  0  0  0  0
   -6.8490   19.2510  -33.4180 C   0  0  0  0  0  0  0  0  0  0  0  0
   -4.5858   16.8701  -33.5773 H   0  0  0  0  0  0  0  0  0  0  0  0
   -5.4343   15.9641  -34.8758 H   0  0  0  0  0  0  0  0  0  0  0  0
   -5.4509   17.7603  -34.8758 H   0  0  0  0  0  0  0  0  0  0  0  0
   -8.6696   16.9647  -31.6375 H   0  0  0  0  0  0  0  0  0  0  0  0
   -9.7273   19.0631  -30.8003 H   0  0  0  0  0  0  0  0  0  0  0  0
   -7.4752   23.3656  -33.1648 H   0  0  0  0  0  0  0  0  0  0  0  0
   -5.2874   24.4950  -32.7828 H   0  0  0  0  0  0  0  0  0  0  0  0
   -3.4830   25.0870  -31.3080 H   0  0  0  0  0  0  0  0  0  0  0  0
   -2.8485   24.1085  -26.3540 H   0  0  0  0  0  0  0  0  0  0  0  0
   -1.8275   22.8773  -27.1024 H   0  0  0  0  0  0  0  0  0  0  0  0
   -1.4239   25.7767  -27.0954 H   0  0  0  0  0  0  0  0  0  0  0  0
   -0.3818   24.5963  -27.8727 H   0  0  0  0  0  0  0  0  0  0  0  0
   -1.6180   26.0420  -29.7190 H   0  0  0  0  0  0  0  0  0  0  0  0
   -5.3584   23.2231  -28.6405 H   0  0  0  0  0  0  0  0  0  0  0  0
   -7.5505   22.0975  -29.0293 H   0  0  0  0  0  0  0  0  0  0  0  0
   -7.1000   21.4016  -33.3192 H   0  0  0  0  0  0  0  0  0  0  0  0
   -6.0373   19.3092  -34.1582 H   0  0  0  0  0  0  0  0  0  0  0  0
  1  2  1  0
  2  3  1  0
  3  4  2  0
  4  5  1  0
  5  6  2  0
  6  7  1  0
  7  8  1  0
  8  9  2  0
  9 10  1  0
 10 11  2  0
 11 12  1  0
 12 13  1  0
 13 14  2  0
 14 15  1  0
 15 16  1  0
 16 17  1  0
 11 18  1  0
 18 19  2  0
  6 20  1  0
 20 21  2  0
 21  3  1  0
 19  8  1  0
 17 13  1  0
  1 22  1  0
  1 23  1  0
  1 24  1  0
  4 25  1  0
  5 26  1  0
  9 27  1  0
 10 28  1  0
 12 29  1  0
 15 30  1  0
 15 31  1  0
 16 32  1  0
 16 33  1  0
 17 34  1  0
 18 35  1  0
 19 36  1  0
 20 37  1  0
 21 38  1  0
M  END
>  <UniqueID>  (40) 
40

>  <SMILES>  (40) 
COc1ccc(Sc2ccc(NC3=NCCN3)cc2)cc1

>  <Energy>  (40) 
49.259573172060165

>  <Genealogy>  (40) 
COc1ccc(Sc2ccc(NC3=NCCN3)cc2)cc1 (3D coordinates assigned)
COc1ccc(Sc2ccc(NC3=NCCN3)cc2)cc1 (nonaromatic ring conformer: 49.259573172060165 kcal/mol)

>  <smiles>  (40) 
COc1ccc(Sc2ccc(NC3=NCCN3)cc2)cc1

>  <score_type>  (40) 
oracle

>  <origin>  (40) 
adg

>  <m_score__min__energy>  (40) 
-9.0399999999999991

>  <m_primary>  (40) 
energy

$$$$
40:0
     RDKit          3D

 29 30  0  0  0  0  0  0  0  0999 V2000
   -2.3950   25.2210  -29.3440 N   0  0  0  0  0  0  0  0  0  0  0  0
   -3.5330   24.7720  -30.0770 C   0  0  0  0  0  0  0  0  0  0  0  0
   -4.1410   25.5730  -30.8350 O   0  0  0  0  0  0  0  0  0  0  0  0
   -4.0090   23.3520  -29.9400 C   0  0  0  0  0  0  0  0  0  0  0  0
   -3.5830   22.4390  -31.1260 C   0  0  1  0  0  0  0  0  0  0  0  0
   -2.4960   21.4450  -30.6260 C   0  0  0  0  0  0  0  0  0  0  0  0
   -1.9620   20.5270  -31.7290 C   0  0  0  0  0  0  0  0  0  0  0  0
   -2.0990   21.1290  -33.1230 C   0  0  0  0  0  0  0  0  0  0  0  0
   -3.3660   20.8190  -33.6900 O   0  0  0  0  0  0  0  0  0  0  0  0
   -4.5740   20.9050  -32.9860 C   0  0  0  0  0  0  0  0  0  0  0  0
   -5.6460   20.1590  -33.4910 C   0  0  0  0  0  0  0  0  0  0  0  0
   -6.9230   20.2910  -32.9540 C   0  0  0  0  0  0  0  0  0  0  0  0
   -7.1470   21.1860  -31.9120 C   0  0  0  0  0  0  0  0  0  0  0  0
   -8.9120   21.4200  -31.2200 Br  0  0  0  0  0  0  0  0  0  0  0  0
   -6.0820   21.9080  -31.3680 C   0  0  0  0  0  0  0  0  0  0  0  0
   -4.7570   21.7230  -31.8280 C   0  0  0  0  0  0  0  0  0  0  0  0
   -1.6020   25.7000  -29.8250 H   0  0  0  0  0  0  0  0  0  0  0  0
   -3.5938   22.9334  -29.0114 H   0  0  0  0  0  0  0  0  0  0  0  0
   -5.1086   23.3782  -29.9298 H   0  0  0  0  0  0  0  0  0  0  0  0
   -3.1638   23.0841  -31.9122 H   0  0  0  0  0  0  0  0  0  0  0  0
   -1.6553   22.0240  -30.2161 H   0  0  0  0  0  0  0  0  0  0  0  0
   -2.9660   20.8028  -29.8666 H   0  0  0  0  0  0  0  0  0  0  0  0
   -0.8973   20.3292  -31.5356 H   0  0  0  0  0  0  0  0  0  0  0  0
   -2.5612   19.6048  -31.7084 H   0  0  0  0  0  0  0  0  0  0  0  0
   -1.9931   22.2218  -33.0549 H   0  0  0  0  0  0  0  0  0  0  0  0
   -1.3140   20.7050  -33.7664 H   0  0  0  0  0  0  0  0  0  0  0  0
   -5.4765   19.4596  -34.3229 H   0  0  0  0  0  0  0  0  0  0  0  0
   -7.7534   19.6894  -33.3521 H   0  0  0  0  0  0  0  0  0  0  0  0
   -6.2775   22.6349  -30.5659 H   0  0  0  0  0  0  0  0  0  0  0  0
  1  2  1  0
  2  3  2  0
  2  4  1  0
  4  5  1  0
  5  6  1  0
  6  7  1  0
  7  8  1  0
  8  9  1  0
  9 10  1  0
 10 11  2  0
 11 12  1  0
 12 13  2  0
 13 14  1  0
 13 15  1  0
 15 16  2  0
 16  5  1  0
 16 10  1  0
  1 17  1  0
  4 18  1  0
  4 19  1  0
  5 20  1  6
  6 21  1  0
  6 22  1  0
  7 23  1  0
  7 24  1  0
  8 25  1  0
  8 26  1  0
 11 27  1  0
 12 28  1  0
 15 29  1  0
M  CHG  1   1  -1
M  END
>  <UniqueID>  (41) 
41

>  <SMILES>  (41) 
[NH-]C(=O)C[C@H]1CCCOc2ccc(Br)cc21

>  <Energy>  (41) 
39.0018990372733

>  <Genealogy>  (41) 
[NH-]C(=O)CC1CCCOc2ccc(Br)cc21 (protonated)
[NH-]C(=O)C[C@H]1CCCOc2ccc(Br)cc21 (chirality)
[NH-]C(=O)C[C@H]1CCCOc2ccc(Br)cc21 (3D coordinates assigned)
[NH-]C(=O)C[C@H]1CCCOc2ccc(Br)cc21 (nonaromatic ring conformer: 39.0018990372733 kcal/mol)

>  <smiles>  (41) 
NC(=O)CC1CCCOc2ccc(Br)cc21

>  <score_type>  (41) 
oracle

>  <origin>  (41) 
adg

>  <m_score__min__energy>  (41) 
-7.9199999999999999

>  <m_primary>  (41) 
energy

$$$$
41:0
     RDKit          3D

 56 58  0  0  0  0  0  0  0  0999 V2000
   -7.4180   19.2550  -32.7070 C   0  0  0  0  0  0  0  0  0  0  0  0
   -6.0910   19.4080  -33.4440 C   0  0  0  0  0  0  0  0  0  0  0  0
   -5.6810   20.7750  -33.4670 O   0  0  0  0  0  0  0  0  0  0  0  0
   -4.8130   21.3880  -32.5470 C   0  0  0  0  0  0  0  0  0  0  0  0
   -3.5630   20.8350  -32.2040 C   0  0  0  0  0  0  0  0  0  0  0  0
   -2.7350   21.4770  -31.2830 C   0  0  0  0  0  0  0  0  0  0  0  0
   -3.1350   22.6810  -30.6880 C   0  0  0  0  0  0  0  0  0  0  0  0
   -2.2620   23.3440  -29.6520 C   0  0  0  0  0  0  0  0  0  0  0  0
   -2.7860   24.7380  -29.2900 C   0  0  0  0  0  0  0  0  0  0  0  0
   -1.6880   25.6370  -28.9530 N   0  0  0  0  0  0  0  0  0  0  0  0
   -0.5810   25.2650  -28.1230 C   0  0  0  0  0  0  0  0  0  0  0  0
    0.3310   24.5340  -28.5930 O   0  0  0  0  0  0  0  0  0  0  0  0
   -0.5300   25.7240  -26.7110 C   0  0  0  0  0  0  0  0  0  0  0  0
   -1.1960   26.9040  -26.3400 C   0  0  0  0  0  0  0  0  0  0  0  0
   -1.1800   27.3360  -25.0160 C   0  0  0  0  0  0  0  0  0  0  0  0
   -0.5040   26.5830  -24.0600 C   0  0  0  0  0  0  0  0  0  0  0  0
    0.1440   25.4430  -24.4200 N   0  0  0  0  0  0  0  0  0  0  0  0
    0.1660   25.0040  -25.7140 C   0  0  0  0  0  0  0  0  0  0  0  0
    0.8510   23.8260  -26.0510 O   0  0  0  0  0  0  0  0  0  0  0  0
    0.2470   22.5870  -26.3120 C   0  0  0  0  0  0  0  0  0  0  0  0
    0.5500   21.8380  -27.4650 C   0  0  0  0  0  0  0  0  0  0  0  0
   -0.0870   20.6150  -27.6970 C   0  0  0  0  0  0  0  0  0  0  0  0
   -1.0410   20.1380  -26.7920 C   0  0  0  0  0  0  0  0  0  0  0  0
   -1.8500   18.6110  -27.0920 Cl  0  0  0  0  0  0  0  0  0  0  0  0
   -1.3600   20.8880  -25.6560 C   0  0  0  0  0  0  0  0  0  0  0  0
   -0.7210   22.1100  -25.4210 C   0  0  0  0  0  0  0  0  0  0  0  0
   -4.3840   23.2290  -31.0150 C   0  0  0  0  0  0  0  0  0  0  0  0
   -5.2250   22.5880  -31.9460 C   0  0  0  0  0  0  0  0  0  0  0  0
   -6.4780   23.1140  -32.3010 O   0  0  0  0  0  0  0  0  0  0  0  0
   -7.5610   23.3020  -31.3950 C   0  0  0  0  0  0  0  0  0  0  0  0
   -8.6450   22.2750  -31.6790 C   0  0  0  0  0  0  0  0  0  0  0  0
   -7.2392   19.2756  -31.6218 H   0  0  0  0  0  0  0  0  0  0  0  0
   -8.0887   20.0818  -32.9839 H   0  0  0  0  0  0  0  0  0  0  0  0
   -7.8829   18.2973  -32.9839 H   0  0  0  0  0  0  0  0  0  0  0  0
   -5.3229   18.8093  -32.9326 H   0  0  0  0  0  0  0  0  0  0  0  0
   -6.2196   19.0600  -34.4796 H   0  0  0  0  0  0  0  0  0  0  0  0
   -3.2381   19.8909  -32.6656 H   0  0  0  0  0  0  0  0  0  0  0  0
   -1.7619   21.0353  -31.0222 H   0  0  0  0  0  0  0  0  0  0  0  0
   -2.2458   22.7210  -28.7456 H   0  0  0  0  0  0  0  0  0  0  0  0
   -1.2499   23.4517  -30.0691 H   0  0  0  0  0  0  0  0  0  0  0  0
   -3.3374   25.1493  -30.1484 H   0  0  0  0  0  0  0  0  0  0  0  0
   -3.4469   24.6481  -28.4153 H   0  0  0  0  0  0  0  0  0  0  0  0
   -1.7334   27.4904  -27.0998 H   0  0  0  0  0  0  0  0  0  0  0  0
   -1.6967   28.2635  -24.7284 H   0  0  0  0  0  0  0  0  0  0  0  0
   -0.4940   26.9112  -23.0101 H   0  0  0  0  0  0  0  0  0  0  0  0
    0.6120   24.8870  -23.6710 H   0  0  0  0  0  0  0  0  0  0  0  0
    1.2901   22.2161  -28.1856 H   0  0  0  0  0  0  0  0  0  0  0  0
    0.1625   20.0271  -28.5926 H   0  0  0  0  0  0  0  0  0  0  0  0
   -2.1141   20.5168  -24.9464 H   0  0  0  0  0  0  0  0  0  0  0  0
   -0.9812   22.7000  -24.5298 H   0  0  0  0  0  0  0  0  0  0  0  0
   -4.7095   24.1667  -30.5408 H   0  0  0  0  0  0  0  0  0  0  0  0
   -7.2009   23.1789  -30.3629 H   0  0  0  0  0  0  0  0  0  0  0  0
   -7.9731   24.3140  -31.5220 H   0  0  0  0  0  0  0  0  0  0  0  0
   -9.0472   21.8940  -30.7287 H   0  0  0  0  0  0  0  0  0  0  0  0
   -9.4539   22.7459  -32.2569 H   0  0  0  0  0  0  0  0  0  0  0  0
   -8.2184   21.4419  -32.2569 H   0  0  0  0  0  0  0  0  0  0  0  0
  1  2  1  0
  2  3  1  0
  3  4  1  0
  4  5  2  0
  5  6  1  0
  6  7  2  0
  7  8  1  0
  8  9  1  0
  9 10  1  0
 10 11  1  0
 11 12  2  0
 11 13  1  0
 13 14  2  0
 14 15  1  0
 15 16  2  0
 16 17  1  0
 17 18  2  0
 18 19  1  0
 19 20  1  0
 20 21  2  0
 21 22  1  0
 22 23  2  0
 23 24  1  0
 23 25  1  0
 25 26  2  0
  7 27  1  0
 27 28  2  0
 28 29  1  0
 29 30  1  0
 30 31  1  0
 28  4  1  0
 18 13  1  0
 26 20  1  0
  1 32  1  0
  1 33  1  0
  1 34  1  0
  2 35  1  0
  2 36  1  0
  5 37  1  0
  6 38  1  0
  8 39  1  0
  8 40  1  0
  9 41  1  0
  9 42  1  0
 14 43  1  0
 15 44  1  0
 16 45  1  0
 17 46  1  0
 21 47  1  0
 22 48  1  0
 25 49  1  0
 26 50  1  0
 27 51  1  0
 30 52  1  0
 30 53  1  0
 31 54  1  0
 31 55  1  0
 31 56  1  0
M  CHG  2  10  -1  17   1
M  END
>  <UniqueID>  (42) 
42

>  <SMILES>  (42) 
CCOc1ccc(CC[N-]C(=O)c2ccc[nH+]c2Oc2ccc(Cl)cc2)cc1OCC

>  <Energy>  (42) 
55.640566938623465

>  <Genealogy>  (42) 
CCOc1ccc(CC[N-]C(=O)c2ccc[nH+]c2Oc2ccc(Cl)cc2)cc1OCC (protonated)
CCOc1ccc(CC[N-]C(=O)c2ccc[nH+]c2Oc2ccc(Cl)cc2)cc1OCC (3D coordinates assigned)
CCOc1ccc(CC[N-]C(=O)c2ccc[nH+]c2Oc2ccc(Cl)cc2)cc1OCC (optimized conformer: 55.640566938623465 kcal/mol)

>  <smiles>  (42) 
CCOc1ccc(CCNC(=O)c2cccnc2Oc2ccc(Cl)cc2)cc1OCC

>  <score_type>  (42) 
oracle

>  <origin>  (42) 
adg

>  <m_score__min__energy>  (42) 
-9.75

>  <m_primary>  (42) 
energy

$$$$
42:0
     RDKit          3D

 51 53  0  0  0  0  0  0  0  0999 V2000
    0.8040   24.9290  -26.9490 C   0  0  0  0  0  0  0  0  0  0  0  0
    0.2540   24.5440  -28.2050 O   0  0  0  0  0  0  0  0  0  0  0  0
   -1.0560   24.0770  -28.3870 C   0  0  0  0  0  0  0  0  0  0  0  0
   -1.5770   22.9930  -27.6590 C   0  0  0  0  0  0  0  0  0  0  0  0
   -2.8870   22.5640  -27.8750 C   0  0  0  0  0  0  0  0  0  0  0  0
   -3.7010   23.2070  -28.8210 C   0  0  0  0  0  0  0  0  0  0  0  0
   -5.1120   22.7090  -29.0560 C   0  0  0  0  0  0  0  0  0  0  0  0
   -5.4430   22.6300  -30.5000 N   0  0  0  0  0  0  0  0  0  0  0  0
   -6.9060   22.7160  -30.6770 C   0  0  0  0  0  0  0  0  0  0  0  0
   -7.2910   22.6860  -32.1640 C   0  0  0  0  0  0  0  0  0  0  0  0
   -6.6930   21.5470  -32.8860 N   0  0  0  0  0  0  0  0  0  0  0  0
   -7.5500   20.3570  -33.0700 C   0  0  0  0  0  0  0  0  0  0  0  0
   -6.8000   19.0480  -33.0060 C   0  0  0  0  0  0  0  0  0  0  0  0
   -6.1180   18.5640  -34.1360 C   0  0  0  0  0  0  0  0  0  0  0  0
   -5.4280   17.3490  -34.0770 C   0  0  0  0  0  0  0  0  0  0  0  0
   -5.4280   16.5990  -32.8970 C   0  0  0  0  0  0  0  0  0  0  0  0
   -4.7590   15.4220  -32.8410 F   0  0  0  0  0  0  0  0  0  0  0  0
   -6.1240   17.0610  -31.7760 C   0  0  0  0  0  0  0  0  0  0  0  0
   -6.8150   18.2760  -31.8320 C   0  0  0  0  0  0  0  0  0  0  0  0
   -5.2690   21.2950  -32.5920 C   0  0  0  0  0  0  0  0  0  0  0  0
   -4.9480   21.3700  -31.0920 C   0  0  0  0  0  0  0  0  0  0  0  0
   -3.1890   24.2940  -29.5570 C   0  0  0  0  0  0  0  0  0  0  0  0
   -4.0170   24.9270  -30.5010 O   0  0  0  0  0  0  0  0  0  0  0  0
   -5.2180   25.6240  -30.1870 C   0  0  0  0  0  0  0  0  0  0  0  0
   -1.8640   24.7190  -29.3300 C   0  0  0  0  0  0  0  0  0  0  0  0
    0.1963   24.5036  -26.1367 H   0  0  0  0  0  0  0  0  0  0  0  0
    1.8353   24.5546  -26.8701 H   0  0  0  0  0  0  0  0  0  0  0  0
    0.8052   26.0262  -26.8701 H   0  0  0  0  0  0  0  0  0  0  0  0
   -0.9488   22.4806  -26.9155 H   0  0  0  0  0  0  0  0  0  0  0  0
   -3.2851   21.7153  -27.2995 H   0  0  0  0  0  0  0  0  0  0  0  0
   -5.2126   21.7069  -28.6138 H   0  0  0  0  0  0  0  0  0  0  0  0
   -5.8055   23.4233  -28.5882 H   0  0  0  0  0  0  0  0  0  0  0  0
   -5.0010   23.4410  -30.9960 H   0  0  0  0  0  0  0  0  0  0  0  0
   -7.3793   21.8640  -30.1670 H   0  0  0  0  0  0  0  0  0  0  0  0
   -7.2523   23.6677  -30.2478 H   0  0  0  0  0  0  0  0  0  0  0  0
   -8.3860   22.6160  -32.2423 H   0  0  0  0  0  0  0  0  0  0  0  0
   -6.9073   23.6084  -32.6243 H   0  0  0  0  0  0  0  0  0  0  0  0
   -8.3161   20.3563  -32.2806 H   0  0  0  0  0  0  0  0  0  0  0  0
   -7.9834   20.4281  -34.0785 H   0  0  0  0  0  0  0  0  0  0  0  0
   -6.1271   19.1436  -35.0709 H   0  0  0  0  0  0  0  0  0  0  0  0
   -4.8844   16.9828  -34.9604 H   0  0  0  0  0  0  0  0  0  0  0  0
   -6.1283   16.4686  -30.8492 H   0  0  0  0  0  0  0  0  0  0  0  0
   -7.3731   18.6290  -30.9523 H   0  0  0  0  0  0  0  0  0  0  0  0
   -5.0071   20.2911  -32.9576 H   0  0  0  0  0  0  0  0  0  0  0  0
   -4.6835   22.0785  -33.0953 H   0  0  0  0  0  0  0  0  0  0  0  0
   -5.4259   20.5216  -30.5803 H   0  0  0  0  0  0  0  0  0  0  0  0
   -3.8556   21.3336  -30.9682 H   0  0  0  0  0  0  0  0  0  0  0  0
   -5.3295   25.6887  -29.0946 H   0  0  0  0  0  0  0  0  0  0  0  0
   -5.1754   26.6377  -30.6119 H   0  0  0  0  0  0  0  0  0  0  0  0
   -6.0771   25.0841  -30.6119 H   0  0  0  0  0  0  0  0  0  0  0  0
   -1.4606   25.5672  -29.9026 H   0  0  0  0  0  0  0  0  0  0  0  0
  1  2  1  0
  2  3  1  0
  3  4  2  0
  4  5  1  0
  5  6  2  0
  6  7  1  0
  7  8  1  0
  8  9  1  0
  9 10  1  0
 10 11  1  0
 11 12  1  0
 12 13  1  0
 13 14  2  0
 14 15  1  0
 15 16  2  0
 16 17  1  0
 16 18  1  0
 18 19  2  0
 11 20  1  0
 20 21  1  0
  6 22  1  0
 22 23  1  0
 23 24  1  0
 22 25  2  0
 25  3  1  0
 21  8  1  0
 19 13  1  0
  1 26  1  0
  1 27  1  0
  1 28  1  0
  4 29  1  0
  5 30  1  0
  7 31  1  0
  7 32  1  0
  8 33  1  0
  9 34  1  0
  9 35  1  0
 10 36  1  0
 10 37  1  0
 12 38  1  0
 12 39  1  0
 14 40  1  0
 15 41  1  0
 18 42  1  0
 19 43  1  0
 20 44  1  0
 20 45  1  0
 21 46  1  0
 21 47  1  0
 24 48  1  0
 24 49  1  0
 24 50  1  0
 25 51  1  0
M  CHG  1   8   1
M  END
>  <UniqueID>  (43) 
43

>  <SMILES>  (43) 
COc1ccc(C[NH+]2CCN(Cc3ccc(F)cc3)CC2)c(OC)c1

>  <Energy>  (43) 
60.56485383488612

>  <Genealogy>  (43) 
COc1ccc(C[NH+]2CCN(Cc3ccc(F)cc3)CC2)c(OC)c1 (protonated)
COc1ccc(C[NH+]2CCN(Cc3ccc(F)cc3)CC2)c(OC)c1 (3D coordinates assigned)
COc1ccc(C[NH+]2CCN(Cc3ccc(F)cc3)CC2)c(OC)c1 (nonaromatic ring conformer: 60.56485383488612 kcal/mol)

>  <smiles>  (43) 
COc1ccc(CN2CCN(Cc3ccc(F)cc3)CC2)c(OC)c1

>  <score_type>  (43) 
oracle

>  <origin>  (43) 
adg

>  <m_score__min__energy>  (43) 
-6.9299999999999997

>  <m_primary>  (43) 
energy

$$$$
43:0
     RDKit          3D

 40 41  0  0  0  0  0  0  0  0999 V2000
   -4.0970   21.0160  -33.4410 C   0  0  0  0  0  0  0  0  0  0  0  0
   -4.8870   19.8390  -33.1300 N   0  0  0  0  0  0  0  0  0  0  0  0
   -4.0360   18.6850  -32.9500 C   0  0  0  0  0  0  0  0  0  0  0  0
   -5.8330   19.6020  -34.2080 C   0  0  0  0  0  0  0  0  0  0  0  0
   -5.7390   18.1520  -34.5990 C   0  0  0  0  0  0  0  0  0  0  0  0
   -6.8560   17.4300  -34.2170 O   0  0  0  0  0  0  0  0  0  0  0  0
   -6.8620   17.0210  -32.9050 C   0  0  0  0  0  0  0  0  0  0  0  0
   -7.5560   18.0950  -32.1150 C   0  0  0  0  0  0  0  0  0  0  0  0
   -7.4010   18.1970  -30.8720 O   0  0  0  0  0  0  0  0  0  0  0  0
   -8.4180   19.0430  -32.7310 N   0  0  0  0  0  0  0  0  0  0  0  0
   -9.0810   20.0670  -31.9930 C   0  0  0  0  0  0  0  0  0  0  0  0
   -8.1700   21.1480  -31.5610 C   0  0  0  0  0  0  0  0  0  0  0  0
   -8.4370   22.4500  -31.3020 N   0  0  0  0  0  0  0  0  0  0  0  0
   -7.2650   23.0490  -30.9360 C   0  0  0  0  0  0  0  0  0  0  0  0
   -6.9030   24.3230  -30.5640 C   0  0  0  0  0  0  0  0  0  0  0  0
   -5.5810   24.6050  -30.2440 C   0  0  0  0  0  0  0  0  0  0  0  0
   -4.5970   23.6510  -30.2840 C   0  0  0  0  0  0  0  0  0  0  0  0
   -4.9520   22.3710  -30.6560 C   0  0  0  0  0  0  0  0  0  0  0  0
   -6.2630   22.0800  -30.9750 C   0  0  0  0  0  0  0  0  0  0  0  0
   -6.8390   20.9270  -31.3600 N   0  0  0  0  0  0  0  0  0  0  0  0
   -3.7735   21.4979  -32.5066 H   0  0  0  0  0  0  0  0  0  0  0  0
   -3.2136   20.7206  -34.0261 H   0  0  0  0  0  0  0  0  0  0  0  0
   -4.7051   21.7216  -34.0261 H   0  0  0  0  0  0  0  0  0  0  0  0
   -3.8967   18.4962  -31.8753 H   0  0  0  0  0  0  0  0  0  0  0  0
   -4.5046   17.8072  -33.4188 H   0  0  0  0  0  0  0  0  0  0  0  0
   -3.0589   18.8733  -33.4188 H   0  0  0  0  0  0  0  0  0  0  0  0
   -6.8532   19.8311  -33.8664 H   0  0  0  0  0  0  0  0  0  0  0  0
   -5.6002   20.2457  -35.0690 H   0  0  0  0  0  0  0  0  0  0  0  0
   -5.6328   18.0868  -35.6919 H   0  0  0  0  0  0  0  0  0  0  0  0
   -4.8681   17.7210  -34.0835 H   0  0  0  0  0  0  0  0  0  0  0  0
   -7.4053   16.0695  -32.8081 H   0  0  0  0  0  0  0  0  0  0  0  0
   -5.8373   16.8625  -32.5377 H   0  0  0  0  0  0  0  0  0  0  0  0
   -8.5400   18.9440  -33.7860 H   0  0  0  0  0  0  0  0  0  0  0  0
   -9.8672   20.5032  -32.6268 H   0  0  0  0  0  0  0  0  0  0  0  0
   -9.4959   19.6034  -31.0858 H   0  0  0  0  0  0  0  0  0  0  0  0
   -7.6610   25.1190  -30.5199 H   0  0  0  0  0  0  0  0  0  0  0  0
   -5.3140   25.6302  -29.9480 H   0  0  0  0  0  0  0  0  0  0  0  0
   -3.5565   23.8987  -30.0273 H   0  0  0  0  0  0  0  0  0  0  0  0
   -4.1885   21.5803  -30.6985 H   0  0  0  0  0  0  0  0  0  0  0  0
   -6.3360   20.0060  -31.4840 H   0  0  0  0  0  0  0  0  0  0  0  0
  1  2  1  0
  2  3  1  0
  2  4  1  0
  4  5  1  0
  5  6  1  0
  6  7  1  0
  7  8  1  0
  8  9  2  0
  8 10  1  0
 10 11  1  0
 11 12  1  0
 12 13  2  0
 13 14  1  0
 14 15  2  0
 15 16  1  0
 16 17  2  0
 17 18  1  0
 18 19  2  0
 19 20  1  0
 20 12  1  0
 19 14  1  0
  1 21  1  0
  1 22  1  0
  1 23  1  0
  3 24  1  0
  3 25  1  0
  3 26  1  0
  4 27  1  0
  4 28  1  0
  5 29  1  0
  5 30  1  0
  7 31  1  0
  7 32  1  0
 10 33  1  0
 11 34  1  0
 11 35  1  0
 15 36  1  0
 16 37  1  0
 17 38  1  0
 18 39  1  0
 20 40  1  0
M  END
>  <smiles>  (44) 
CN(C)CCOCC(=O)NCc1nc2ccccc2[nH]1

>  <score_type>  (44) 
oracle

>  <origin>  (44) 
adg

>  <m_score__min__energy>  (44) 
-7.2000000000000002

>  <m_primary>  (44) 
energy

$$$$
44:0
     RDKit          3D

 30 32  0  0  0  0  0  0  0  0999 V2000
   -2.7500   21.1520  -31.5780 C   0  0  0  0  0  0  0  0  0  0  0  0
   -2.8810   21.4910  -33.0570 C   0  0  0  0  0  0  0  0  0  0  0  0
   -4.2670   21.8200  -33.3770 N   0  0  0  0  0  0  0  0  0  0  0  0
   -5.3640   21.1910  -32.7020 C   0  0  0  0  0  0  0  0  0  0  0  0
   -6.1970   21.7640  -31.7470 C   0  0  0  0  0  0  0  0  0  0  0  0
   -6.0880   23.0980  -31.1280 C   0  0  0  0  0  0  0  0  0  0  0  0
   -7.1550   23.8410  -30.6350 C   0  0  0  0  0  0  0  0  0  0  0  0
   -6.7710   25.0630  -30.0700 C   0  0  0  0  0  0  0  0  0  0  0  0
   -5.4020   25.2900  -30.1060 C   0  0  0  0  0  0  0  0  0  0  0  0
   -4.6730   23.9660  -30.8420 S   0  0  0  0  0  0  0  0  0  0  0  0
   -7.1620   20.8740  -31.4040 N   0  0  0  0  0  0  0  0  0  0  0  0
   -6.8940   19.7950  -32.1700 C   0  0  0  0  0  0  0  0  0  0  0  0
   -7.6340   18.6160  -32.1980 C   0  0  0  0  0  0  0  0  0  0  0  0
   -7.2320   17.6130  -33.0950 C   0  0  0  0  0  0  0  0  0  0  0  0
   -6.1220   17.8160  -33.9360 C   0  0  0  0  0  0  0  0  0  0  0  0
   -5.4140   19.0230  -33.8660 C   0  0  0  0  0  0  0  0  0  0  0  0
   -5.8220   19.9570  -32.9650 N   0  0  0  0  0  0  0  0  0  0  0  0
   -3.0815   22.0098  -30.9745 H   0  0  0  0  0  0  0  0  0  0  0  0
   -3.3747   20.2769  -31.3457 H   0  0  0  0  0  0  0  0  0  0  0  0
   -1.6992   20.9244  -31.3457 H   0  0  0  0  0  0  0  0  0  0  0  0
   -2.2394   22.3535  -33.2905 H   0  0  0  0  0  0  0  0  0  0  0  0
   -2.5712   20.6206  -33.6540 H   0  0  0  0  0  0  0  0  0  0  0  0
   -4.4520   22.6670  -33.9590 H   0  0  0  0  0  0  0  0  0  0  0  0
   -8.2001   23.5013  -30.6842 H   0  0  0  0  0  0  0  0  0  0  0  0
   -7.4875   25.7769  -29.6377 H   0  0  0  0  0  0  0  0  0  0  0  0
   -4.8845   26.1807  -29.7203 H   0  0  0  0  0  0  0  0  0  0  0  0
   -8.5040   18.4749  -31.5399 H   0  0  0  0  0  0  0  0  0  0  0  0
   -7.7872   16.6645  -33.1405 H   0  0  0  0  0  0  0  0  0  0  0  0
   -5.8124   17.0325  -34.6433 H   0  0  0  0  0  0  0  0  0  0  0  0
   -4.5512   19.2104  -34.5221 H   0  0  0  0  0  0  0  0  0  0  0  0
  1  2  1  0
  2  3  1  0
  3  4  1  0
  4  5  2  0
  5  6  1  0
  6  7  2  0
  7  8  1  0
  8  9  2  0
  9 10  1  0
  5 11  1  0
 11 12  2  0
 12 13  1  0
 13 14  2  0
 14 15  1  0
 15 16  2  0
 16 17  1  0
 17  4  1  0
 10  6  1  0
 17 12  1  0
  1 18  1  0
  1 19  1  0
  1 20  1  0
  2 21  1  0
  2 22  1  0
  3 23  1  0
  7 24  1  0
  8 25  1  0
  9 26  1  0
 13 27  1  0
 14 28  1  0
 15 29  1  0
 16 30  1  0
M  END
>  <UniqueID>  (45) 
44

>  <SMILES>  (45) 
CCNc1c(-c2cccs2)nc2ccccn12

>  <Energy>  (45) 
95.17153729421929

>  <Genealogy>  (45) 
CCNc1c(-c2cccs2)nc2ccccn12 (3D coordinates assigned)
CCNc1c(-c2cccs2)nc2ccccn12 (optimized conformer: 95.17153729421929 kcal/mol)

>  <smiles>  (45) 
CCNc1c(-c2cccs2)nc2ccccn12

>  <score_type>  (45) 
oracle

>  <origin>  (45) 
adg

>  <m_score__min__energy>  (45) 
-6.54

>  <m_primary>  (45) 
energy

$$$$
