0:0
     RDKit          3D

120127  0  0  0  0  0  0  0  0999 V2000
    2.3040   15.0630  -29.2490 C   0  0  0  0  0  0  0  0  0  0  0  0
    1.8100   15.7460  -28.0230 N   0  0  0  0  0  0  0  0  0  0  0  0
    1.3140   14.6780  -27.1140 C   0  0  0  0  0  0  0  0  0  0  0  0
    0.6300   16.6130  -28.3410 C   0  0  0  0  0  0  0  0  0  0  0  0
   -0.0800   17.2550  -27.1230 C   0  0  0  0  0  0  0  0  0  0  0  0
   -0.5960   18.6730  -27.4240 C   0  0  0  0  0  0  0  0  0  0  0  0
   -2.0200   18.9190  -26.9010 C   0  0  0  0  0  0  0  0  0  0  0  0
   -2.5830   20.2450  -27.4380 C   0  0  0  0  0  0  0  0  0  0  0  0
   -1.9890   21.4930  -26.7170 C   0  0  0  0  0  0  0  0  0  0  0  0
   -1.5290   22.6450  -27.5760 N   0  0  1  0  0  0  0  0  0  0  0  0
   -0.1080   23.0190  -27.3390 C   0  0  0  0  0  0  0  0  0  0  0  0
   -1.7390   22.3580  -29.0380 C   0  0  0  0  0  0  0  0  0  0  0  0
   -2.9590   23.0250  -29.7090 C   0  0  0  0  0  0  0  0  0  0  0  0
   -3.0790   22.6140  -31.1800 C   0  0  0  0  0  0  0  0  0  0  0  0
   -4.4330   22.1100  -31.4500 N   0  0  0  0  0  0  0  0  0  0  0  0
   -4.6970   20.6940  -31.4450 C   0  0  0  0  0  0  0  0  0  0  0  0
   -3.7480   19.8730  -31.3070 O   0  0  0  0  0  0  0  0  0  0  0  0
   -6.0850   20.1980  -31.5930 C   0  0  0  0  0  0  0  0  0  0  0  0
   -6.3520   18.8170  -31.6050 C   0  0  0  0  0  0  0  0  0  0  0  0
   -7.6600   18.3490  -31.7380 C   0  0  0  0  0  0  0  0  0  0  0  0
   -8.7200   19.2470  -31.8560 C   0  0  0  0  0  0  0  0  0  0  0  0
   -8.4790   20.6280  -31.8460 C   0  0  0  0  0  0  0  0  0  0  0  0
   -9.5460   21.5310  -31.9640 C   0  0  0  0  0  0  0  0  0  0  0  0
   -9.3050   22.9060  -31.9650 C   0  0  0  0  0  0  0  0  0  0  0  0
   -8.0040   23.3920  -31.8420 C   0  0  0  0  0  0  0  0  0  0  0  0
   -6.9190   22.5080  -31.7120 C   0  0  0  0  0  0  0  0  0  0  0  0
   -7.1520   21.1150  -31.7150 C   0  0  0  0  0  0  0  0  0  0  0  0
   -5.5390   23.0260  -31.5680 C   0  0  0  0  0  0  0  0  0  0  0  0
   -5.3360   24.2710  -31.5370 O   0  0  0  0  0  0  0  0  0  0  0  0
   -2.4000   23.8410  -27.2840 C   0  0  0  0  0  0  0  0  0  0  0  0
   -1.6890   25.0760  -26.7430 C   0  0  0  0  0  0  0  0  0  0  0  0
   -1.1130   26.0100  -27.6250 C   0  0  0  0  0  0  0  0  0  0  0  0
   -0.5000   27.1660  -27.1330 C   0  0  0  0  0  0  0  0  0  0  0  0
   -0.4810   27.4180  -25.7590 C   0  0  0  0  0  0  0  0  0  0  0  0
   -1.0730   26.5150  -24.8750 C   0  0  0  0  0  0  0  0  0  0  0  0
   -1.6900   25.3580  -25.3640 C   0  0  0  0  0  0  0  0  0  0  0  0
    2.8840   16.5040  -27.2900 C   0  0  0  0  0  0  0  0  0  0  0  0
    4.1150   16.9300  -28.1320 C   0  0  0  0  0  0  0  0  0  0  0  0
    4.0160   18.3950  -28.5730 C   0  0  0  0  0  0  0  0  0  0  0  0
    2.8220   18.6130  -29.3870 N   0  0  0  0  0  0  0  0  0  0  0  0
    1.7950   19.6270  -29.1200 C   0  0  0  0  0  0  0  0  0  0  0  0
    0.9730   19.6270  -30.3780 C   0  0  0  0  0  0  0  0  0  0  0  0
   -0.1360   20.4180  -30.6810 C   0  0  0  0  0  0  0  0  0  0  0  0
   -0.7280   20.2870  -31.9500 C   0  0  0  0  0  0  0  0  0  0  0  0
   -0.1980   19.3830  -32.9030 C   0  0  0  0  0  0  0  0  0  0  0  0
   -0.8250   19.2610  -34.2660 C   0  0  0  0  0  0  0  0  0  0  0  0
   -2.1040   18.5450  -34.1750 N   0  0  0  0  0  0  0  0  0  0  0  0
   -3.2740   19.2520  -34.2240 C   0  0  0  0  0  0  0  0  0  0  0  0
   -4.5050   18.6040  -34.1090 C   0  0  0  0  0  0  0  0  0  0  0  0
   -4.5390   17.2160  -33.9460 C   0  0  0  0  0  0  0  0  0  0  0  0
   -5.7610   16.5330  -33.8310 C   0  0  0  0  0  0  0  0  0  0  0  0
   -5.7750   15.1440  -33.6690 C   0  0  0  0  0  0  0  0  0  0  0  0
   -4.5740   14.4300  -33.6200 C   0  0  0  0  0  0  0  0  0  0  0  0
   -3.3520   15.1000  -33.7320 C   0  0  0  0  0  0  0  0  0  0  0  0
   -3.3280   16.4940  -33.8940 C   0  0  0  0  0  0  0  0  0  0  0  0
   -2.1160   17.1880  -34.0070 C   0  0  0  0  0  0  0  0  0  0  0  0
    0.9170   18.5870  -32.5670 C   0  0  0  0  0  0  0  0  0  0  0  0
    1.4720   18.7340  -31.2980 C   0  0  0  0  0  0  0  0  0  0  0  0
    2.6170   18.0960  -30.7010 C   0  0  0  0  0  0  0  0  0  0  0  0
    3.3500   17.2330  -31.2500 O   0  0  0  0  0  0  0  0  0  0  0  0
    2.9266   14.2022  -28.9636 H   0  0  0  0  0  0  0  0  0  0  0  0
    1.4476   14.7145  -29.8449 H   0  0  0  0  0  0  0  0  0  0  0  0
    2.9031   15.7673  -29.8449 H   0  0  0  0  0  0  0  0  0  0  0  0
    1.4587   14.9895  -26.0690 H   0  0  0  0  0  0  0  0  0  0  0  0
    0.2437   14.5057  -27.3004 H   0  0  0  0  0  0  0  0  0  0  0  0
    1.8729   13.7491  -27.3004 H   0  0  0  0  0  0  0  0  0  0  0  0
    0.9747   17.4252  -28.9979 H   0  0  0  0  0  0  0  0  0  0  0  0
   -0.1136   15.9486  -28.8054 H   0  0  0  0  0  0  0  0  0  0  0  0
   -0.9331   16.6220  -26.8376 H   0  0  0  0  0  0  0  0  0  0  0  0
    0.6556   17.3320  -26.3088 H   0  0  0  0  0  0  0  0  0  0  0  0
    0.0811   19.3998  -26.9514 H   0  0  0  0  0  0  0  0  0  0  0  0
   -0.6236   18.7872  -28.5177 H   0  0  0  0  0  0  0  0  0  0  0  0
   -2.6704   18.0939  -27.2268 H   0  0  0  0  0  0  0  0  0  0  0  0
   -1.9856   18.9721  -25.8028 H   0  0  0  0  0  0  0  0  0  0  0  0
   -2.3508   20.3160  -28.5109 H   0  0  0  0  0  0  0  0  0  0  0  0
   -3.6673   20.2421  -27.2530 H   0  0  0  0  0  0  0  0  0  0  0  0
   -2.7625   21.8787  -26.0365 H   0  0  0  0  0  0  0  0  0  0  0  0
   -1.0733   21.1246  -26.2315 H   0  0  0  0  0  0  0  0  0  0  0  0
    0.0824   23.0691  -26.2568 H   0  0  0  0  0  0  0  0  0  0  0  0
    0.5505   22.2636  -27.7925 H   0  0  0  0  0  0  0  0  0  0  0  0
    0.0933   24.0007  -27.7925 H   0  0  0  0  0  0  0  0  0  0  0  0
   -0.8393   22.6921  -29.5755 H   0  0  0  0  0  0  0  0  0  0  0  0
   -1.9341   21.2769  -29.0945 H   0  0  0  0  0  0  0  0  0  0  0  0
   -3.8719   22.7205  -29.1762 H   0  0  0  0  0  0  0  0  0  0  0  0
   -2.8272   24.1161  -29.6630 H   0  0  0  0  0  0  0  0  0  0  0  0
   -2.8803   23.4865  -31.8198 H   0  0  0  0  0  0  0  0  0  0  0  0
   -2.3479   21.8208  -31.3951 H   0  0  0  0  0  0  0  0  0  0  0  0
   -5.5232   18.1002  -31.5088 H   0  0  0  0  0  0  0  0  0  0  0  0
   -7.8556   17.2666  -31.7498 H   0  0  0  0  0  0  0  0  0  0  0  0
   -9.7487   18.8707  -31.9573 H   0  0  0  0  0  0  0  0  0  0  0  0
  -10.5755   21.1546  -32.0560 H   0  0  0  0  0  0  0  0  0  0  0  0
  -10.1452   23.6091  -32.0633 H   0  0  0  0  0  0  0  0  0  0  0  0
   -7.8250   24.4773  -31.8467 H   0  0  0  0  0  0  0  0  0  0  0  0
   -2.9028   24.1263  -28.2198 H   0  0  0  0  0  0  0  0  0  0  0  0
   -3.0819   23.5197  -26.4829 H   0  0  0  0  0  0  0  0  0  0  0  0
   -1.1456   25.8288  -28.7095 H   0  0  0  0  0  0  0  0  0  0  0  0
   -0.0320   27.8781  -27.8286 H   0  0  0  0  0  0  0  0  0  0  0  0
    0.0009   28.3287  -25.3738 H   0  0  0  0  0  0  0  0  0  0  0  0
   -1.0547   26.7128  -23.7931 H   0  0  0  0  0  0  0  0  0  0  0  0
   -2.1795   24.6636  -24.6653 H   0  0  0  0  0  0  0  0  0  0  0  0
    2.4287   17.4156  -26.8756 H   0  0  0  0  0  0  0  0  0  0  0  0
    3.2716   15.8077  -26.5317 H   0  0  0  0  0  0  0  0  0  0  0  0
    5.0242   16.7999  -27.5266 H   0  0  0  0  0  0  0  0  0  0  0  0
    4.1505   16.3005  -29.0334 H   0  0  0  0  0  0  0  0  0  0  0  0
    3.9667   19.0373  -27.6814 H   0  0  0  0  0  0  0  0  0  0  0  0
    4.9028   18.6424  -29.1750 H   0  0  0  0  0  0  0  0  0  0  0  0
    1.1830   19.3482  -28.2495 H   0  0  0  0  0  0  0  0  0  0  0  0
    2.2171   20.6145  -28.8819 H   0  0  0  0  0  0  0  0  0  0  0  0
   -0.5383   21.1283  -29.9436 H   0  0  0  0  0  0  0  0  0  0  0  0
   -1.6106   20.8921  -32.2047 H   0  0  0  0  0  0  0  0  0  0  0  0
   -1.0001   20.2664  -34.6765 H   0  0  0  0  0  0  0  0  0  0  0  0
   -0.1458   18.6991  -34.9240 H   0  0  0  0  0  0  0  0  0  0  0  0
   -3.2445   20.3437  -34.3555 H   0  0  0  0  0  0  0  0  0  0  0  0
   -5.4408   19.1809  -34.1463 H   0  0  0  0  0  0  0  0  0  0  0  0
   -6.7080   17.0913  -33.8684 H   0  0  0  0  0  0  0  0  0  0  0  0
   -6.7336   14.6118  -33.5799 H   0  0  0  0  0  0  0  0  0  0  0  0
   -4.5905   13.3375  -33.4929 H   0  0  0  0  0  0  0  0  0  0  0  0
   -2.4092   14.5346  -33.6931 H   0  0  0  0  0  0  0  0  0  0  0  0
   -1.1656   16.6362  -33.9601 H   0  0  0  0  0  0  0  0  0  0  0  0
    1.3368   17.8697  -33.2876 H   0  0  0  0  0  0  0  0  0  0  0  0
  1  2  1  0
  2  3  1  0
  2  4  1  0
  4  5  1  0
  5  6  1  0
  6  7  1  0
  7  8  1  0
  8  9  1  0
 10  9  1  1
 10 11  1  0
 10 12  1  0
 12 13  1  0
 13 14  1  0
 14 15  1  0
 15 16  1  0
 16 17  2  0
 16 18  1  0
 18 19  2  0
 19 20  1  0
 20 21  2  0
 21 22  1  0
 22 23  2  0
 23 24  1  0
 24 25  2  0
 25 26  1  0
 26 27  2  0
 26 28  1  0
 28 29  2  0
 10 30  1  0
 30 31  1  0
 31 32  2  0
 32 33  1  0
 33 34  2  0
 34 35  1  0
 35 36  2  0
  2 37  1  0
 37 38  1  0
 38 39  1  0
 39 40  1  0
 40 41  1  0
 41 42  1  0
 42 43  2  0
 43 44  1  0
 44 45  2  0
 45 46  1  0
 46 47  1  0
 47 48  2  0
 48 49  1  0
 49 50  2  0
 50 51  1  0
 51 52  2  0
 52 53  1  0
 53 54  2  0
 54 55  1  0
 55 56  2  0
 45 57  1  0
 57 58  2  0
 58 59  1  0
 59 60  2  0
 28 15  1  0
 36 31  1  0
 59 40  1  0
 27 18  1  0
 58 42  1  0
 27 22  1  0
 56 47  1  0
 55 50  1  0
  1 61  1  0
  1 62  1  0
  1 63  1  0
  3 64  1  0
  3 65  1  0
  3 66  1  0
  4 67  1  0
  4 68  1  0
  5 69  1  0
  5 70  1  0
  6 71  1  0
  6 72  1  0
  7 73  1  0
  7 74  1  0
  8 75  1  0
  8 76  1  0
  9 77  1  0
  9 78  1  0
 11 79  1  0
 11 80  1  0
 11 81  1  0
 12 82  1  0
 12 83  1  0
 13 84  1  0
 13 85  1  0
 14 86  1  0
 14 87  1  0
 19 88  1  0
 20 89  1  0
 21 90  1  0
 23 91  1  0
 24 92  1  0
 25 93  1  0
 30 94  1  0
 30 95  1  0
 32 96  1  0
 33 97  1  0
 34 98  1  0
 35 99  1  0
 36100  1  0
 37101  1  0
 37102  1  0
 38103  1  0
 38104  1  0
 39105  1  0
 39106  1  0
 41107  1  0
 41108  1  0
 43109  1  0
 44110  1  0
 46111  1  0
 46112  1  0
 48113  1  0
 49114  1  0
 51115  1  0
 52116  1  0
 53117  1  0
 54118  1  0
 56119  1  0
 57120  1  0
M  CHG  3   2   1  10   1  47   1
M  END
>  <UniqueID>  (1) 
1

>  <SMILES>  (1) 
C[N+](C)(CCCCCC[N@@+](C)(CCCN1C(=O)c2cccc3cccc(c23)C1=O)Cc1ccccc1)CCCN1Cc2ccc(C[n+]3ccc4ccccc4c3)cc2C1=O

>  <Energy>  (1) 
181.10774765481872

>  <Genealogy>  (1) 
C[N+](C)(CCCCCC[N@@+](C)(CCCN1C(=O)c2cccc3cccc(c23)C1=O)Cc1ccccc1)CCCN1Cc2ccc(C[n+]3ccc4ccccc4c3)cc2C1=O (chirality)
C[N+](C)(CCCCCC[N@@+](C)(CCCN1C(=O)c2cccc3cccc(c23)C1=O)Cc1ccccc1)CCCN1Cc2ccc(C[n+]3ccc4ccccc4c3)cc2C1=O (3D coordinates assigned)
C[N+](C)(CCCCCC[N@@+](C)(CCCN1C(=O)c2cccc3cccc(c23)C1=O)Cc1ccccc1)CCCN1Cc2ccc(C[n+]3ccc4ccccc4c3)cc2C1=O (nonaromatic ring conformer: 181.10774765481872 kcal/mol)

>  <smiles>  (1) 
C[N+](C)(CCCCCC[N+](C)(CCCN1C(=O)c2cccc3cccc(c23)C1=O)Cc1ccccc1)CCCN1Cc2ccc(C[n+]3ccc4ccccc4c3)cc2C1=O

>  <score_type>  (1) 
oracle

>  <origin>  (1) 
adg

>  <m_score__min__energy>  (1) 
-10.279999999999999

>  <m_primary>  (1) 
energy

$$$$
1:0
     RDKit          3D

 43 46  0  0  0  0  0  0  0  0999 V2000
   -0.7920   19.9910  -29.4730 C   0  0  0  0  0  0  0  0  0  0  0  0
   -1.5410   19.6490  -30.6340 O   0  0  0  0  0  0  0  0  0  0  0  0
   -1.2440   20.0920  -31.9340 C   0  0  0  0  0  0  0  0  0  0  0  0
    0.0250   20.6030  -32.2720 C   0  0  0  0  0  0  0  0  0  0  0  0
    0.2870   21.0440  -33.5710 C   0  0  0  0  0  0  0  0  0  0  0  0
   -0.7060   20.9740  -34.5480 C   0  0  0  0  0  0  0  0  0  0  0  0
   -1.9670   20.4660  -34.2290 C   0  0  0  0  0  0  0  0  0  0  0  0
   -2.2500   20.0330  -32.9210 C   0  0  0  0  0  0  0  0  0  0  0  0
   -3.5870   19.4830  -32.5980 C   0  0  0  0  0  0  0  0  0  0  0  0
   -3.8280   18.1750  -32.8800 N   0  0  0  0  0  0  0  0  0  0  0  0
   -5.0420   17.6040  -32.6620 C   0  0  0  0  0  0  0  0  0  0  0  0
   -5.2700   16.1790  -32.9730 C   0  0  0  0  0  0  0  0  0  0  0  0
   -4.5260   15.1660  -32.3420 C   0  0  0  0  0  0  0  0  0  0  0  0
   -4.7750   13.8310  -32.6660 C   0  0  0  0  0  0  0  0  0  0  0  0
   -5.7550   13.5140  -33.6070 C   0  0  0  0  0  0  0  0  0  0  0  0
   -6.4760   14.5430  -34.2140 C   0  0  0  0  0  0  0  0  0  0  0  0
   -6.2210   15.8380  -33.8870 N   0  0  0  0  0  0  0  0  0  0  0  0
   -6.0530   18.3560  -32.1550 N   0  0  0  0  0  0  0  0  0  0  0  0
   -5.8710   19.6660  -31.8500 C   0  0  0  0  0  0  0  0  0  0  0  0
   -4.6240   20.2730  -32.0470 C   0  0  0  0  0  0  0  0  0  0  0  0
   -4.4240   21.6800  -31.6260 C   0  0  0  0  0  0  0  0  0  0  0  0
   -5.3720   22.6600  -31.9660 C   0  0  0  0  0  0  0  0  0  0  0  0
   -5.1850   23.9900  -31.5720 C   0  0  0  0  0  0  0  0  0  0  0  0
   -4.0570   24.3490  -30.8310 C   0  0  0  0  0  0  0  0  0  0  0  0
   -3.8720   25.6700  -30.4430 O   0  0  0  0  0  0  0  0  0  0  0  0
   -3.1150   23.3770  -30.4780 C   0  0  0  0  0  0  0  0  0  0  0  0
   -3.2990   22.0480  -30.8680 C   0  0  0  0  0  0  0  0  0  0  0  0
   -1.3686   19.7277  -28.5740 H   0  0  0  0  0  0  0  0  0  0  0  0
    0.1588   19.4378  -29.4739 H   0  0  0  0  0  0  0  0  0  0  0  0
   -0.5873   21.0718  -29.4739 H   0  0  0  0  0  0  0  0  0  0  0  0
    0.8144   20.6549  -31.5077 H   0  0  0  0  0  0  0  0  0  0  0  0
    1.2786   21.4474  -33.8241 H   0  0  0  0  0  0  0  0  0  0  0  0
   -0.4955   21.3194  -35.5710 H   0  0  0  0  0  0  0  0  0  0  0  0
   -2.7438   20.4041  -35.0054 H   0  0  0  0  0  0  0  0  0  0  0  0
   -3.7553   15.4230  -31.6004 H   0  0  0  0  0  0  0  0  0  0  0  0
   -4.1990   13.0298  -32.1798 H   0  0  0  0  0  0  0  0  0  0  0  0
   -5.9571   12.4646  -33.8675 H   0  0  0  0  0  0  0  0  0  0  0  0
   -7.2513   14.3064  -34.9576 H   0  0  0  0  0  0  0  0  0  0  0  0
   -6.7077   20.2546  -31.4457 H   0  0  0  0  0  0  0  0  0  0  0  0
   -6.2650   22.3806  -32.5444 H   0  0  0  0  0  0  0  0  0  0  0  0
   -5.9277   24.7536  -31.8464 H   0  0  0  0  0  0  0  0  0  0  0  0
   -2.2278   23.6595  -29.8923 H   0  0  0  0  0  0  0  0  0  0  0  0
   -2.5597   21.2859  -30.5804 H   0  0  0  0  0  0  0  0  0  0  0  0
  1  2  1  0
  2  3  1  0
  3  4  2  0
  4  5  1  0
  5  6  2  0
  6  7  1  0
  7  8  2  0
  8  9  1  0
  9 10  2  0
 10 11  1  0
 11 12  1  0
 12 13  2  0
 13 14  1  0
 14 15  2  0
 15 16  1  0
 16 17  2  0
 11 18  2  0
 18 19  1  0
 19 20  2  0
 20 21  1  0
 21 22  2  0
 22 23  1  0
 23 24  2  0
 24 25  1  0
 24 26  1  0
 26 27  2  0
  8  3  1  0
 20  9  1  0
 27 21  1  0
 17 12  1  0
  1 28  1  0
  1 29  1  0
  1 30  1  0
  4 31  1  0
  5 32  1  0
  6 33  1  0
  7 34  1  0
 13 35  1  0
 14 36  1  0
 15 37  1  0
 16 38  1  0
 19 39  1  0
 22 40  1  0
 23 41  1  0
 26 42  1  0
 27 43  1  0
M  CHG  1  25  -1
M  END
>  <UniqueID>  (2) 
2

>  <SMILES>  (2) 
COc1ccccc1-c1nc(-c2ccccn2)ncc1-c1ccc([O-])cc1

>  <Energy>  (2) 
61.654028686267544

>  <Genealogy>  (2) 
COc1ccccc1-c1nc(-c2ccccn2)ncc1-c1ccc([O-])cc1 (protonated)
COc1ccccc1-c1nc(-c2ccccn2)ncc1-c1ccc([O-])cc1 (3D coordinates assigned)
COc1ccccc1-c1nc(-c2ccccn2)ncc1-c1ccc([O-])cc1 (optimized conformer: 61.654028686267544 kcal/mol)

>  <smiles>  (2) 
COc1ccccc1-c1nc(-c2ccccn2)ncc1-c1ccc(O)cc1

>  <score_type>  (2) 
oracle

>  <origin>  (2) 
adg

>  <m_score__min__energy>  (2) 
-9.5099999999999998

>  <m_primary>  (2) 
energy

$$$$
2:0
     RDKit          3D

104110  0  0  0  0  0  0  0  0999 V2000
   -6.1570   24.8930  -29.7160 C   0  0  0  0  0  0  0  0  0  0  0  0
   -5.0260   25.1350  -30.7140 C   0  0  0  0  0  0  0  0  0  0  0  0
   -3.8640   24.2680  -30.4210 N   0  0  0  0  0  0  0  0  0  0  0  0
   -3.2400   24.5400  -29.1040 C   0  0  0  0  0  0  0  0  0  0  0  0
   -3.6950   23.4880  -28.1010 C   0  0  0  0  0  0  0  0  0  0  0  0
   -4.1520   22.8320  -30.6380 C   0  0  0  0  0  0  0  0  0  0  0  0
   -3.5250   22.2640  -31.9280 C   0  0  0  0  0  0  0  0  0  0  0  0
   -4.5490   22.1020  -32.9600 N   0  0  0  0  0  0  0  0  0  0  0  0
   -5.5940   21.1230  -32.8210 C   0  0  0  0  0  0  0  0  0  0  0  0
   -6.8880   21.5200  -32.4390 C   0  0  0  0  0  0  0  0  0  0  0  0
   -7.2090   22.8870  -32.2960 C   0  0  0  0  0  0  0  0  0  0  0  0
   -8.4990   23.2810  -31.9490 C   0  0  0  0  0  0  0  0  0  0  0  0
   -9.4930   22.3270  -31.7660 C   0  0  0  0  0  0  0  0  0  0  0  0
   -9.2010   20.9730  -31.9180 C   0  0  0  0  0  0  0  0  0  0  0  0
   -7.8880   20.5360  -32.2250 C   0  0  0  0  0  0  0  0  0  0  0  0
   -7.5750   19.1930  -32.3360 N   0  0  0  0  0  0  0  0  0  0  0  0
   -8.5170   18.1690  -31.8290 C   0  0  0  0  0  0  0  0  0  0  0  0
   -6.3690   18.8090  -32.8920 C   0  0  0  0  0  0  0  0  0  0  0  0
   -6.1130   17.4640  -33.2600 C   0  0  0  0  0  0  0  0  0  0  0  0
   -4.8660   17.0730  -33.7400 C   0  0  0  0  0  0  0  0  0  0  0  0
   -3.8370   17.9990  -33.8880 C   0  0  0  0  0  0  0  0  0  0  0  0
   -2.5880   17.5340  -34.3320 O   0  0  0  0  0  0  0  0  0  0  0  0
   -1.8870   16.4040  -33.8130 C   0  0  0  0  0  0  0  0  0  0  0  0
   -0.8590   16.8340  -32.7620 C   0  0  0  0  0  0  0  0  0  0  0  0
    0.5070   17.2410  -33.3570 C   0  0  0  0  0  0  0  0  0  0  0  0
    0.9920   18.6310  -33.0730 N   0  0  2  0  0  0  0  0  0  0  0  0
    2.2640   18.7500  -32.3080 C   0  0  0  0  0  0  0  0  0  0  0  0
    2.0240   18.4670  -30.8140 C   0  0  0  0  0  0  0  0  0  0  0  0
    0.8930   19.2530  -30.2390 N   0  0  0  0  0  0  0  0  0  0  0  0
   -0.1220   18.3940  -29.5900 C   0  0  0  0  0  0  0  0  0  0  0  0
   -0.2800   18.6790  -28.0740 C   0  0  0  0  0  0  0  0  0  0  0  0
   -0.7340   20.0560  -27.6650 N   0  0  0  0  0  0  0  0  0  0  0  0
    0.4180   20.9750  -27.4960 C   0  0  0  0  0  0  0  0  0  0  0  0
   -1.7420   20.6440  -28.5750 C   0  0  0  0  0  0  0  0  0  0  0  0
   -3.0840   20.0410  -28.2000 C   0  0  0  0  0  0  0  0  0  0  0  0
   -2.9420   19.6690  -26.7320 C   0  0  0  0  0  0  0  0  0  0  0  0
   -1.4780   19.9370  -26.3840 C   0  0  0  0  0  0  0  0  0  0  0  0
    0.2780   20.1770  -31.2170 C   0  0  0  0  0  0  0  0  0  0  0  0
   -0.0670   19.4390  -32.5340 C   0  0  1  0  0  0  0  0  0  0  0  0
   -0.0360   20.3100  -33.7110 C   0  0  0  0  0  0  0  0  0  0  0  0
   -0.5420   21.4140  -34.3620 C   0  0  0  0  0  0  0  0  0  0  0  0
    0.0390   21.6910  -35.6240 C   0  0  0  0  0  0  0  0  0  0  0  0
    1.0830   20.8760  -36.1670 C   0  0  0  0  0  0  0  0  0  0  0  0
    1.5900   19.7470  -35.4780 C   0  0  0  0  0  0  0  0  0  0  0  0
    0.9980   19.4850  -34.2540 C   0  0  0  0  0  0  0  0  0  0  0  0
   -4.0890   19.3500  -33.5980 C   0  0  0  0  0  0  0  0  0  0  0  0
   -5.3450   19.7680  -33.1100 C   0  0  0  0  0  0  0  0  0  0  0  0
   -5.7659   24.9767  -28.6913 H   0  0  0  0  0  0  0  0  0  0  0  0
   -6.9476   25.6423  -29.8691 H   0  0  0  0  0  0  0  0  0  0  0  0
   -6.5718   23.8858  -29.8691 H   0  0  0  0  0  0  0  0  0  0  0  0
   -5.3897   24.9177  -31.7291 H   0  0  0  0  0  0  0  0  0  0  0  0
   -4.7079   26.1850  -30.6344 H   0  0  0  0  0  0  0  0  0  0  0  0
   -2.1450   24.5038  -29.2023 H   0  0  0  0  0  0  0  0  0  0  0  0
   -3.5433   25.5374  -28.7530 H   0  0  0  0  0  0  0  0  0  0  0  0
   -3.5334   23.8616  -27.0791 H   0  0  0  0  0  0  0  0  0  0  0  0
   -4.7644   23.2779  -28.2498 H   0  0  0  0  0  0  0  0  0  0  0  0
   -3.1158   22.5648  -28.2498 H   0  0  0  0  0  0  0  0  0  0  0  0
   -3.7585   22.2652  -29.7814 H   0  0  0  0  0  0  0  0  0  0  0  0
   -5.2429   22.7337  -30.7394 H   0  0  0  0  0  0  0  0  0  0  0  0
   -2.7505   22.9559  -32.2904 H   0  0  0  0  0  0  0  0  0  0  0  0
   -3.0796   21.2826  -31.7079 H   0  0  0  0  0  0  0  0  0  0  0  0
   -4.3680   22.5200  -33.9000 H   0  0  0  0  0  0  0  0  0  0  0  0
   -6.4326   23.6487  -32.4603 H   0  0  0  0  0  0  0  0  0  0  0  0
   -8.7314   24.3484  -31.8196 H   0  0  0  0  0  0  0  0  0  0  0  0
  -10.5130   22.6417  -31.5004 H   0  0  0  0  0  0  0  0  0  0  0  0
  -10.0034   20.2303  -31.7976 H   0  0  0  0  0  0  0  0  0  0  0  0
   -8.5099   18.1768  -30.7291 H   0  0  0  0  0  0  0  0  0  0  0  0
   -9.5314   18.3929  -32.1907 H   0  0  0  0  0  0  0  0  0  0  0  0
   -8.2094   17.1767  -32.1907 H   0  0  0  0  0  0  0  0  0  0  0  0
   -6.9139   16.7160  -33.1646 H   0  0  0  0  0  0  0  0  0  0  0  0
   -4.6917   16.0198  -34.0055 H   0  0  0  0  0  0  0  0  0  0  0  0
   -2.6082   15.7142  -33.3503 H   0  0  0  0  0  0  0  0  0  0  0  0
   -1.3577   15.9084  -34.6402 H   0  0  0  0  0  0  0  0  0  0  0  0
   -1.2666   17.6933  -32.2093 H   0  0  0  0  0  0  0  0  0  0  0  0
   -0.6798   15.9635  -32.1138 H   0  0  0  0  0  0  0  0  0  0  0  0
    1.2601   16.5414  -32.9653 H   0  0  0  0  0  0  0  0  0  0  0  0
    0.3621   17.2087  -34.4469 H   0  0  0  0  0  0  0  0  0  0  0  0
    2.9919   18.0251  -32.7012 H   0  0  0  0  0  0  0  0  0  0  0  0
    2.6506   19.7739  -32.4182 H   0  0  0  0  0  0  0  0  0  0  0  0
    1.8026   17.3964  -30.6925 H   0  0  0  0  0  0  0  0  0  0  0  0
    2.9354   18.7652  -30.2752 H   0  0  0  0  0  0  0  0  0  0  0  0
   -1.0912   18.5649  -30.0813 H   0  0  0  0  0  0  0  0  0  0  0  0
    0.2145   17.3520  -29.6947 H   0  0  0  0  0  0  0  0  0  0  0  0
   -1.0132   17.9603  -27.6791 H   0  0  0  0  0  0  0  0  0  0  0  0
    0.7376   18.5886  -27.6661 H   0  0  0  0  0  0  0  0  0  0  0  0
    0.6104   21.1285  -26.4239 H   0  0  0  0  0  0  0  0  0  0  0  0
    1.3091   20.5369  -27.9694 H   0  0  0  0  0  0  0  0  0  0  0  0
    0.1889   21.9411  -27.9694 H   0  0  0  0  0  0  0  0  0  0  0  0
   -1.7710   21.7366  -28.4512 H   0  0  0  0  0  0  0  0  0  0  0  0
   -1.4951   20.4297  -29.6253 H   0  0  0  0  0  0  0  0  0  0  0  0
   -3.8915   20.7751  -28.3380 H   0  0  0  0  0  0  0  0  0  0  0  0
   -3.3410   19.1742  -28.8266 H   0  0  0  0  0  0  0  0  0  0  0  0
   -3.6048   20.2904  -26.1119 H   0  0  0  0  0  0  0  0  0  0  0  0
   -3.2207   18.6211  -26.5472 H   0  0  0  0  0  0  0  0  0  0  0  0
   -1.3924   20.8719  -25.8107 H   0  0  0  0  0  0  0  0  0  0  0  0
   -1.0681   19.1217  -25.7698 H   0  0  0  0  0  0  0  0  0  0  0  0
   -0.6438   20.5954  -30.7866 H   0  0  0  0  0  0  0  0  0  0  0  0
    0.9961   20.9794  -31.4418 H   0  0  0  0  0  0  0  0  0  0  0  0
   -1.0030   18.9533  -32.2207 H   0  0  0  0  0  0  0  0  0  0  0  0
   -1.3407   22.0363  -33.9321 H   0  0  0  0  0  0  0  0  0  0  0  0
   -0.3215   22.5549  -36.2017 H   0  0  0  0  0  0  0  0  0  0  0  0
    1.5045   21.1344  -37.1496 H   0  0  0  0  0  0  0  0  0  0  0  0
    2.3976   19.1220  -35.8868 H   0  0  0  0  0  0  0  0  0  0  0  0
   -3.2941   20.0942  -33.7539 H   0  0  0  0  0  0  0  0  0  0  0  0
  1  2  1  0
  2  3  1  0
  3  4  1  0
  4  5  1  0
  3  6  1  0
  6  7  1  0
  7  8  1  0
  8  9  1  0
  9 10  2  0
 10 11  1  0
 11 12  2  0
 12 13  1  0
 13 14  2  0
 14 15  1  0
 15 16  2  0
 16 17  1  0
 16 18  1  0
 18 19  2  0
 19 20  1  0
 20 21  2  0
 21 22  1  0
 22 23  1  0
 23 24  1  0
 24 25  1  0
 26 25  1  6
 26 27  1  0
 27 28  1  0
 28 29  1  0
 29 30  1  0
 30 31  1  0
 31 32  1  0
 32 33  1  0
 32 34  1  0
 34 35  1  0
 35 36  1  0
 36 37  1  0
 29 38  1  0
 38 39  1  0
 39 40  1  0
 40 41  2  0
 41 42  1  0
 42 43  2  0
 43 44  1  0
 44 45  2  0
 21 46  1  0
 46 47  2  0
 47  9  1  0
 15 10  1  0
 47 18  1  0
 39 26  1  0
 45 40  1  0
 45 26  1  0
 37 32  1  0
  1 48  1  0
  1 49  1  0
  1 50  1  0
  2 51  1  0
  2 52  1  0
  4 53  1  0
  4 54  1  0
  5 55  1  0
  5 56  1  0
  5 57  1  0
  6 58  1  0
  6 59  1  0
  7 60  1  0
  7 61  1  0
  8 62  1  0
 11 63  1  0
 12 64  1  0
 13 65  1  0
 14 66  1  0
 17 67  1  0
 17 68  1  0
 17 69  1  0
 19 70  1  0
 20 71  1  0
 23 72  1  0
 23 73  1  0
 24 74  1  0
 24 75  1  0
 25 76  1  0
 25 77  1  0
 27 78  1  0
 27 79  1  0
 28 80  1  0
 28 81  1  0
 30 82  1  0
 30 83  1  0
 31 84  1  0
 31 85  1  0
 33 86  1  0
 33 87  1  0
 33 88  1  0
 34 89  1  0
 34 90  1  0
 35 91  1  0
 35 92  1  0
 36 93  1  0
 36 94  1  0
 37 95  1  0
 37 96  1  0
 38 97  1  0
 38 98  1  0
 39 99  1  1
 41100  1  0
 42101  1  0
 43102  1  0
 44103  1  0
 46104  1  0
M  CHG  3  16   1  26   1  32   1
M  END
>  <UniqueID>  (3) 
3

>  <SMILES>  (3) 
CCN(CC)CCNc1c2ccccc2[n+](C)c2ccc(OCCC[N@+]34CCN(CC[N+]5(C)CCCC5)C[C@H]3c3ccccc34)cc12

>  <Energy>  (3) 
224.47089645845256

>  <Genealogy>  (3) 
CCN(CC)CCNc1c2ccccc2[n+](C)c2ccc(OCCC[N+]34CCN(CC[N+]5(C)CCCC5)CC3c3ccccc34)cc12 (protonated)
CCN(CC)CCNc1c2ccccc2[n+](C)c2ccc(OCCC[N@+]34CCN(CC[N+]5(C)CCCC5)C[C@H]3c3ccccc34)cc12 (chirality)
CCN(CC)CCNc1c2ccccc2[n+](C)c2ccc(OCCC[N@+]34CCN(CC[N+]5(C)CCCC5)C[C@H]3c3ccccc34)cc12 (3D coordinates assigned)
CCN(CC)CCNc1c2ccccc2[n+](C)c2ccc(OCCC[N@+]34CCN(CC[N+]5(C)CCCC5)C[C@H]3c3ccccc34)cc12 (nonaromatic ring conformer: 224.47089645845256 kcal/mol)

>  <smiles>  (3) 
CCN(CC)CCNc1c2ccccc2[n+](C)c2ccc(OCCC[N+]34CC[N+](CC[N+]5(C)CCCC5)CC3c3ccccc34)cc12

>  <score_type>  (3) 
oracle

>  <origin>  (3) 
adg

>  <m_score__min__energy>  (3) 
-10.710000000000001

>  <m_primary>  (3) 
energy

$$$$
3:0
     RDKit          3D

 58 61  0  0  0  0  0  0  0  0999 V2000
    2.0740   22.3650  -35.3920 C   0  0  0  0  0  0  0  0  0  0  0  0
    0.5770   22.3730  -35.7280 C   0  0  0  0  0  0  0  0  0  0  0  0
   -0.1510   21.2180  -35.1420 N   0  0  0  0  0  0  0  0  0  0  0  0
    0.2640   19.9400  -35.7850 C   0  0  0  0  0  0  0  0  0  0  0  0
    0.9210   18.9730  -34.7920 C   0  0  0  0  0  0  0  0  0  0  0  0
   -0.0430   21.1420  -33.6580 C   0  0  0  0  0  0  0  0  0  0  0  0
   -1.3220   20.6800  -32.9170 C   0  0  0  0  0  0  0  0  0  0  0  0
   -2.5160   20.7740  -33.7590 N   0  0  0  0  0  0  0  0  0  0  0  0
   -3.6630   19.9600  -33.4810 C   0  0  0  0  0  0  0  0  0  0  0  0
   -4.7930   20.5230  -32.8680 C   0  0  0  0  0  0  0  0  0  0  0  0
   -5.9490   19.7310  -32.6850 C   0  0  0  0  0  0  0  0  0  0  0  0
   -5.8770   18.3620  -32.8580 N   0  0  0  0  0  0  0  0  0  0  0  0
   -6.8680   17.4750  -32.2170 C   0  0  0  0  0  0  0  0  0  0  0  0
   -4.8110   17.8100  -33.5440 C   0  0  0  0  0  0  0  0  0  0  0  0
   -4.8080   16.4510  -33.9420 C   0  0  0  0  0  0  0  0  0  0  0  0
   -3.7240   15.9070  -34.6310 C   0  0  0  0  0  0  0  0  0  0  0  0
   -2.6250   16.6990  -34.9440 C   0  0  0  0  0  0  0  0  0  0  0  0
   -2.6020   18.0410  -34.5730 C   0  0  0  0  0  0  0  0  0  0  0  0
   -3.6870   18.6120  -33.8750 C   0  0  0  0  0  0  0  0  0  0  0  0
   -7.2090   20.4380  -32.2820 C   0  0  0  0  0  0  0  0  0  0  0  0
   -8.4790   20.0110  -32.7180 C   0  0  0  0  0  0  0  0  0  0  0  0
   -9.6300   20.7070  -32.3390 C   0  0  0  0  0  0  0  0  0  0  0  0
   -9.5280   21.8610  -31.5610 C   0  0  0  0  0  0  0  0  0  0  0  0
   -8.2720   22.3440  -31.1900 C   0  0  0  0  0  0  0  0  0  0  0  0
   -7.1120   21.6580  -31.5790 C   0  0  0  0  0  0  0  0  0  0  0  0
   -5.7520   22.2220  -31.2760 C   0  0  0  0  0  0  0  0  0  0  0  0
   -4.8140   21.9870  -32.4680 C   0  0  0  0  0  0  0  0  0  0  0  0
    2.2046   22.3643  -34.2998 H   0  0  0  0  0  0  0  0  0  0  0  0
    2.5405   21.4643  -35.8177 H   0  0  0  0  0  0  0  0  0  0  0  0
    2.5501   23.2606  -35.8177 H   0  0  0  0  0  0  0  0  0  0  0  0
    0.1344   23.3016  -35.3385 H   0  0  0  0  0  0  0  0  0  0  0  0
    0.4828   22.3033  -36.8217 H   0  0  0  0  0  0  0  0  0  0  0  0
   -1.1720   21.3540  -35.3410 H   0  0  0  0  0  0  0  0  0  0  0  0
   -0.6252   19.4554  -36.2144 H   0  0  0  0  0  0  0  0  0  0  0  0
    1.0060   20.1800  -36.5608 H   0  0  0  0  0  0  0  0  0  0  0  0
    0.7007   19.2972  -33.7642 H   0  0  0  0  0  0  0  0  0  0  0  0
    0.5238   17.9594  -34.9498 H   0  0  0  0  0  0  0  0  0  0  0  0
    2.0096   18.9689  -34.9498 H   0  0  0  0  0  0  0  0  0  0  0  0
    0.7639   20.4356  -33.4131 H   0  0  0  0  0  0  0  0  0  0  0  0
    0.1476   22.1703  -33.3170 H   0  0  0  0  0  0  0  0  0  0  0  0
   -1.1912   19.6336  -32.6041 H   0  0  0  0  0  0  0  0  0  0  0  0
   -1.4675   21.3427  -32.0512 H   0  0  0  0  0  0  0  0  0  0  0  0
   -2.4980   21.2960  -34.6620 H   0  0  0  0  0  0  0  0  0  0  0  0
   -6.7786   17.5550  -31.1236 H   0  0  0  0  0  0  0  0  0  0  0  0
   -7.8809   17.7738  -32.5249 H   0  0  0  0  0  0  0  0  0  0  0  0
   -6.6829   16.4353  -32.5249 H   0  0  0  0  0  0  0  0  0  0  0  0
   -5.6734   15.8149  -33.7043 H   0  0  0  0  0  0  0  0  0  0  0  0
   -3.7387   14.8479  -34.9277 H   0  0  0  0  0  0  0  0  0  0  0  0
   -1.7719   16.2646  -35.4858 H   0  0  0  0  0  0  0  0  0  0  0  0
   -1.7299   18.6616  -34.8265 H   0  0  0  0  0  0  0  0  0  0  0  0
   -8.5651   19.1231  -33.3616 H   0  0  0  0  0  0  0  0  0  0  0  0
  -10.6192   20.3442  -32.6548 H   0  0  0  0  0  0  0  0  0  0  0  0
  -10.4374   22.3901  -31.2401 H   0  0  0  0  0  0  0  0  0  0  0  0
   -8.1918   23.2637  -30.5919 H   0  0  0  0  0  0  0  0  0  0  0  0
   -5.8385   23.3022  -31.0869 H   0  0  0  0  0  0  0  0  0  0  0  0
   -5.3413   21.7216  -30.3867 H   0  0  0  0  0  0  0  0  0  0  0  0
   -5.1610   22.5875  -33.3218 H   0  0  0  0  0  0  0  0  0  0  0  0
   -3.7961   22.2831  -32.1746 H   0  0  0  0  0  0  0  0  0  0  0  0
  1  2  1  0
  2  3  1  0
  3  4  1  0
  4  5  1  0
  3  6  1  0
  6  7  1  0
  7  8  1  0
  8  9  1  0
  9 10  2  0
 10 11  1  0
 11 12  2  0
 12 13  1  0
 12 14  1  0
 14 15  2  0
 15 16  1  0
 16 17  2  0
 17 18  1  0
 18 19  2  0
 11 20  1  0
 20 21  2  0
 21 22  1  0
 22 23  2  0
 23 24  1  0
 24 25  2  0
 25 26  1  0
 26 27  1  0
 19  9  1  0
 25 20  1  0
 27 10  1  0
 19 14  1  0
  1 28  1  0
  1 29  1  0
  1 30  1  0
  2 31  1  0
  2 32  1  0
  3 33  1  0
  4 34  1  0
  4 35  1  0
  5 36  1  0
  5 37  1  0
  5 38  1  0
  6 39  1  0
  6 40  1  0
  7 41  1  0
  7 42  1  0
  8 43  1  0
 13 44  1  0
 13 45  1  0
 13 46  1  0
 15 47  1  0
 16 48  1  0
 17 49  1  0
 18 50  1  0
 21 51  1  0
 22 52  1  0
 23 53  1  0
 24 54  1  0
 26 55  1  0
 26 56  1  0
 27 57  1  0
 27 58  1  0
M  CHG  2   3   1  12   1
M  END
>  <UniqueID>  (4) 
4

>  <SMILES>  (4) 
CC[NH+](CC)CCNc1c2c([n+](C)c3ccccc13)-c1ccccc1CC2

>  <Energy>  (4) 
94.62204576733569

>  <Genealogy>  (4) 
CC[NH+](CC)CCNc1c2c([n+](C)c3ccccc13)-c1ccccc1CC2 (protonated)
CC[NH+](CC)CCNc1c2c([n+](C)c3ccccc13)-c1ccccc1CC2 (3D coordinates assigned)
CC[NH+](CC)CCNc1c2c([n+](C)c3ccccc13)-c1ccccc1CC2 (nonaromatic ring conformer: 94.62204576733569 kcal/mol)

>  <smiles>  (4) 
CCN(CC)CCNc1c2c([n+](C)c3ccccc13)-c1ccccc1CC2

>  <score_type>  (4) 
oracle

>  <origin>  (4) 
adg

>  <m_score__min__energy>  (4) 
-7.5800000000000001

>  <m_primary>  (4) 
energy

$$$$
4:0
     RDKit          3D

 36 38  0  0  0  0  0  0  0  0999 V2000
   -5.8852   24.2648  -32.3677 H   0  0  0  0  0  0  0  0  0  0  0  0
   -5.7990   23.3580  -31.7510 C   0  0  0  0  0  0  0  0  0  0  0  0
   -6.4190   22.2500  -32.1740 C   0  0  0  0  0  0  0  0  0  0  0  0
   -5.8030   21.1380  -32.8210 N   0  0  0  0  0  0  0  0  0  0  0  0
   -6.7620   20.3180  -33.1310 C   0  0  0  0  0  0  0  0  0  0  0  0
   -6.4760   18.6690  -33.7470 S   0  0  0  0  0  0  0  0  0  0  0  0
   -7.3800   17.7830  -32.3990 C   0  0  0  0  0  0  0  0  0  0  0  0
   -7.9449   16.9611  -32.8631 H   0  0  0  0  0  0  0  0  0  0  0  0
   -6.5991   17.4681  -31.6912 H   0  0  0  0  0  0  0  0  0  0  0  0
   -8.3770   18.6160  -31.5530 C   0  0  0  0  0  0  0  0  0  0  0  0
   -9.1511   17.9397  -31.1613 H   0  0  0  0  0  0  0  0  0  0  0  0
   -7.7977   19.0964  -30.7507 H   0  0  0  0  0  0  0  0  0  0  0  0
   -9.0660   19.7360  -32.3450 C   0  0  0  0  0  0  0  0  0  0  0  0
   -9.5400   19.3133  -33.2432 H   0  0  0  0  0  0  0  0  0  0  0  0
   -9.8342   20.2126  -31.7183 H   0  0  0  0  0  0  0  0  0  0  0  0
   -8.0720   20.7270  -32.7390 N   0  0  0  0  0  0  0  0  0  0  0  0
   -7.8350   21.9680  -32.0980 C   0  0  0  0  0  0  0  0  0  0  0  0
   -8.7170   22.6640  -31.5260 O   0  0  0  0  0  0  0  0  0  0  0  0
   -5.0040   23.4390  -30.5040 C   0  0  0  0  0  0  0  0  0  0  0  0
   -5.3630   22.7310  -29.3430 C   0  0  0  0  0  0  0  0  0  0  0  0
   -6.2492   22.0794  -29.3507 H   0  0  0  0  0  0  0  0  0  0  0  0
   -4.5990   22.8520  -28.1810 C   0  0  0  0  0  0  0  0  0  0  0  0
   -4.8783   22.2850  -27.2807 H   0  0  0  0  0  0  0  0  0  0  0  0
   -3.4810   23.6900  -28.1560 C   0  0  0  0  0  0  0  0  0  0  0  0
   -2.8771   23.7722  -27.2403 H   0  0  0  0  0  0  0  0  0  0  0  0
   -3.1260   24.4290  -29.3000 C   0  0  0  0  0  0  0  0  0  0  0  0
   -2.0190   25.2930  -29.3330 O   0  0  0  0  0  0  0  0  0  0  0  0
   -0.9130   25.2630  -28.4300 C   0  0  0  0  0  0  0  0  0  0  0  0
   -0.0365   25.7139  -28.9182 H   0  0  0  0  0  0  0  0  0  0  0  0
   -0.7054   24.2167  -28.1612 H   0  0  0  0  0  0  0  0  0  0  0  0
   -1.2320   26.0410  -27.1570 C   0  0  0  0  0  0  0  0  0  0  0  0
   -0.9804   25.4273  -26.2795 H   0  0  0  0  0  0  0  0  0  0  0  0
   -0.6418   26.9690  -27.1368 H   0  0  0  0  0  0  0  0  0  0  0  0
   -2.3038   26.2876  -27.1368 H   0  0  0  0  0  0  0  0  0  0  0  0
   -3.8960   24.2990  -30.4630 C   0  0  0  0  0  0  0  0  0  0  0  0
   -3.6279   24.8800  -31.3578 H   0  0  0  0  0  0  0  0  0  0  0  0
  1  2  1  0
  2  3  2  0
  3  4  1  0
  4  5  2  0
  5  6  1  0
  6  7  1  0
  7  8  1  0
  7  9  1  0
  7 10  1  0
 10 11  1  0
 10 12  1  0
 10 13  1  0
 13 14  1  0
 13 15  1  0
 13 16  1  0
 16 17  1  0
 17 18  2  0
  2 19  1  0
 19 20  2  0
 20 21  1  0
 20 22  1  0
 22 23  1  0
 22 24  2  0
 24 25  1  0
 24 26  1  0
 26 27  1  0
 27 28  1  0
 28 29  1  0
 28 30  1  0
 28 31  1  0
 31 32  1  0
 31 33  1  0
 31 34  1  0
 26 35  2  0
 35 36  1  0
 17  3  1  0
 35 19  1  0
 16  5  1  0
M  END
>  <UniqueID>  (5) 
5

>  <SMILES>  (5) 
CCOc1cccc(/C=C2\N=C3SCCCN3C2=O)c1

>  <Energy>  (5) 
75.90612791099383

>  <Genealogy>  (5) 
CCOc1cccc(/C=C2\N=C3SCCCN3C2=O)c1 (cis-trans isomerization)
CCOc1cccc(/C=C2\N=C3SCCCN3C2=O)c1 (3D coordinates assigned)
CCOc1cccc(/C=C2\N=C3SCCCN3C2=O)c1 (nonaromatic ring conformer: 75.90612791099383 kcal/mol)

>  <smiles>  (5) 
CCOc1cccc(C=C2N=C3SCCCN3C2=O)c1

>  <score_type>  (5) 
oracle

>  <origin>  (5) 
adg

>  <m_score__min__energy>  (5) 
-8.0199999999999996

>  <m_primary>  (5) 
energy

$$$$
5:0
     RDKit          3D

 57 59  0  0  0  0  0  0  0  0999 V2000
   -1.8130   24.9480  -28.1120 C   0  0  0  0  0  0  0  0  0  0  0  0
   -2.5230   24.3880  -29.3450 C   0  0  0  0  0  0  0  0  0  0  0  0
   -3.9960   24.4210  -29.2020 N   0  0  0  0  0  0  0  0  0  0  0  0
   -4.7170   24.9680  -30.3830 C   0  0  0  0  0  0  0  0  0  0  0  0
   -6.0520   25.6580  -30.0620 C   0  0  0  0  0  0  0  0  0  0  0  0
   -4.5140   23.1030  -28.7700 C   0  0  0  0  0  0  0  0  0  0  0  0
   -4.5610   22.1620  -29.8990 N   0  0  0  0  0  0  0  0  0  0  0  0
   -3.3080   21.4020  -30.0570 C   0  0  0  0  0  0  0  0  0  0  0  0
   -3.2580   20.6300  -31.3900 C   0  0  0  0  0  0  0  0  0  0  0  0
   -3.0900   21.5650  -32.5930 C   0  0  0  0  0  0  0  0  0  0  0  0
   -4.2970   21.5940  -33.4220 N   0  0  0  0  0  0  0  0  0  0  0  0
   -5.4530   20.8010  -33.0940 C   0  0  0  0  0  0  0  0  0  0  0  0
   -5.4720   19.4220  -33.3730 C   0  0  0  0  0  0  0  0  0  0  0  0
   -4.3420   18.7780  -33.9230 C   0  0  0  0  0  0  0  0  0  0  0  0
   -4.3860   17.4290  -34.2630 C   0  0  0  0  0  0  0  0  0  0  0  0
   -5.5520   16.6990  -34.0680 C   0  0  0  0  0  0  0  0  0  0  0  0
   -6.6680   17.3030  -33.4900 C   0  0  0  0  0  0  0  0  0  0  0  0
   -6.6390   18.6630  -33.0850 C   0  0  0  0  0  0  0  0  0  0  0  0
   -7.7080   19.2520  -32.4340 N   0  0  0  0  0  0  0  0  0  0  0  0
   -8.7910   18.4080  -31.8810 C   0  0  0  0  0  0  0  0  0  0  0  0
   -7.7440   20.6230  -32.2620 C   0  0  0  0  0  0  0  0  0  0  0  0
   -8.9200   21.2880  -31.8260 C   0  0  0  0  0  0  0  0  0  0  0  0
   -8.9290   22.6650  -31.6020 C   0  0  0  0  0  0  0  0  0  0  0  0
   -7.7800   23.4150  -31.8190 C   0  0  0  0  0  0  0  0  0  0  0  0
   -6.6240   22.8000  -32.2920 C   0  0  0  0  0  0  0  0  0  0  0  0
   -6.5960   21.4110  -32.5440 C   0  0  0  0  0  0  0  0  0  0  0  0
   -2.2994   24.5644  -27.2030 H   0  0  0  0  0  0  0  0  0  0  0  0
   -0.7582   24.6360  -28.1230 H   0  0  0  0  0  0  0  0  0  0  0  0
   -1.8706   26.0464  -28.1230 H   0  0  0  0  0  0  0  0  0  0  0  0
   -2.2382   24.9884  -30.2216 H   0  0  0  0  0  0  0  0  0  0  0  0
   -2.2176   23.3380  -29.4642 H   0  0  0  0  0  0  0  0  0  0  0  0
   -4.0616   25.7027  -30.8736 H   0  0  0  0  0  0  0  0  0  0  0  0
   -4.9602   24.1068  -31.0227 H   0  0  0  0  0  0  0  0  0  0  0  0
   -6.1781   25.7232  -28.9712 H   0  0  0  0  0  0  0  0  0  0  0  0
   -6.0544   26.6703  -30.4925 H   0  0  0  0  0  0  0  0  0  0  0  0
   -6.8792   25.0745  -30.4925 H   0  0  0  0  0  0  0  0  0  0  0  0
   -3.8554   22.6956  -27.9888 H   0  0  0  0  0  0  0  0  0  0  0  0
   -5.5343   23.2366  -28.3811 H   0  0  0  0  0  0  0  0  0  0  0  0
   -4.7710   22.6930  -30.7760 H   0  0  0  0  0  0  0  0  0  0  0  0
   -2.4616   22.1037  -30.0223 H   0  0  0  0  0  0  0  0  0  0  0  0
   -3.2538   20.6676  -29.2398 H   0  0  0  0  0  0  0  0  0  0  0  0
   -2.4092   19.9308  -31.3631 H   0  0  0  0  0  0  0  0  0  0  0  0
   -4.2123   20.0956  -31.5075 H   0  0  0  0  0  0  0  0  0  0  0  0
   -2.8816   22.5819  -32.2291 H   0  0  0  0  0  0  0  0  0  0  0  0
   -2.2578   21.1912  -33.2075 H   0  0  0  0  0  0  0  0  0  0  0  0
   -4.2490   22.0420  -34.3640 H   0  0  0  0  0  0  0  0  0  0  0  0
   -3.4160   19.3493  -34.0847 H   0  0  0  0  0  0  0  0  0  0  0  0
   -3.4964   16.9401  -34.6867 H   0  0  0  0  0  0  0  0  0  0  0  0
   -5.5948   15.6422  -34.3703 H   0  0  0  0  0  0  0  0  0  0  0  0
   -7.5866   16.7154  -33.3454 H   0  0  0  0  0  0  0  0  0  0  0  0
   -8.7537   18.4371  -30.7820 H   0  0  0  0  0  0  0  0  0  0  0  0
   -9.7642   18.7883  -32.2250 H   0  0  0  0  0  0  0  0  0  0  0  0
   -8.6600   17.3714  -32.2250 H   0  0  0  0  0  0  0  0  0  0  0  0
   -9.8399   20.7076  -31.6620 H   0  0  0  0  0  0  0  0  0  0  0  0
   -9.8482   23.1580  -31.2527 H   0  0  0  0  0  0  0  0  0  0  0  0
   -7.7835   24.4963  -31.6168 H   0  0  0  0  0  0  0  0  0  0  0  0
   -5.7219   23.4033  -32.4715 H   0  0  0  0  0  0  0  0  0  0  0  0
  1  2  1  0
  2  3  1  0
  3  4  1  0
  4  5  1  0
  3  6  1  0
  6  7  1  0
  7  8  1  0
  8  9  1  0
  9 10  1  0
 10 11  1  0
 11 12  1  0
 12 13  2  0
 13 14  1  0
 14 15  2  0
 15 16  1  0
 16 17  2  0
 17 18  1  0
 18 19  2  0
 19 20  1  0
 19 21  1  0
 21 22  2  0
 22 23  1  0
 23 24  2  0
 24 25  1  0
 25 26  2  0
 26 12  1  0
 18 13  1  0
 26 21  1  0
  1 27  1  0
  1 28  1  0
  1 29  1  0
  2 30  1  0
  2 31  1  0
  4 32  1  0
  4 33  1  0
  5 34  1  0
  5 35  1  0
  5 36  1  0
  6 37  1  0
  6 38  1  0
  7 39  1  0
  8 40  1  0
  8 41  1  0
  9 42  1  0
  9 43  1  0
 10 44  1  0
 10 45  1  0
 11 46  1  0
 14 47  1  0
 15 48  1  0
 16 49  1  0
 17 50  1  0
 20 51  1  0
 20 52  1  0
 20 53  1  0
 22 54  1  0
 23 55  1  0
 24 56  1  0
 25 57  1  0
M  CHG  1  19   1
M  END
>  <UniqueID>  (6) 
6

>  <SMILES>  (6) 
CCN(CC)CNCCCNc1c2ccccc2[n+](C)c2ccccc12

>  <Energy>  (6) 
84.39901298784709

>  <Genealogy>  (6) 
CCN(CC)CNCCCNc1c2ccccc2[n+](C)c2ccccc12 (3D coordinates assigned)
CCN(CC)CNCCCNc1c2ccccc2[n+](C)c2ccccc12 (optimized conformer: 84.39901298784709 kcal/mol)

>  <smiles>  (6) 
CCN(CC)CNCCCNc1c2ccccc2[n+](C)c2ccccc12

>  <score_type>  (6) 
oracle

>  <origin>  (6) 
adg

>  <m_score__min__energy>  (6) 
-9.2200000000000006

>  <m_primary>  (6) 
energy

$$$$
6:0
     RDKit          3D

 51 54  0  0  0  0  0  0  0  0999 V2000
   -3.5390   24.1310  -28.2970 C   0  0  0  0  0  0  0  0  0  0  0  0
   -2.9050   23.9630  -29.6840 C   0  0  0  0  0  0  0  0  0  0  0  0
   -3.8760   23.8130  -30.7950 N   0  0  0  0  0  0  0  0  0  0  0  0
   -5.0840   24.6290  -30.5860 C   0  0  0  0  0  0  0  0  0  0  0  0
   -4.2410   22.4160  -31.1210 C   0  0  0  0  0  0  0  0  0  0  0  0
   -3.5710   21.9190  -32.4080 C   0  0  0  0  0  0  0  0  0  0  0  0
   -4.5710   21.5860  -33.4240 N   0  0  0  0  0  0  0  0  0  0  0  0
   -5.7160   20.7780  -33.1030 C   0  0  0  0  0  0  0  0  0  0  0  0
   -6.8910   21.3710  -32.6050 C   0  0  0  0  0  0  0  0  0  0  0  0
   -6.9890   22.7720  -32.4570 C   0  0  0  0  0  0  0  0  0  0  0  0
   -8.1490   23.3570  -31.9540 C   0  0  0  0  0  0  0  0  0  0  0  0
   -9.2300   22.5620  -31.5950 C   0  0  0  0  0  0  0  0  0  0  0  0
   -9.1600   21.1770  -31.7310 C   0  0  0  0  0  0  0  0  0  0  0  0
   -7.9920   20.5480  -32.2330 C   0  0  0  0  0  0  0  0  0  0  0  0
   -7.9070   19.1730  -32.3610 N   0  0  0  0  0  0  0  0  0  0  0  0
   -9.0390   18.3200  -31.9370 C   0  0  0  0  0  0  0  0  0  0  0  0
   -6.7790   18.5930  -32.9000 C   0  0  0  0  0  0  0  0  0  0  0  0
   -6.7180   17.2410  -33.0770 N   0  0  0  0  0  0  0  0  0  0  0  0
   -5.6420   16.6140  -33.6170 C   0  0  0  0  0  0  0  0  0  0  0  0
   -5.6430   15.2230  -33.7690 C   0  0  0  0  0  0  0  0  0  0  0  0
   -4.5360   14.5810  -34.3340 C   0  0  0  0  0  0  0  0  0  0  0  0
   -3.4280   15.3260  -34.7470 C   0  0  0  0  0  0  0  0  0  0  0  0
   -3.4210   16.7170  -34.5980 C   0  0  0  0  0  0  0  0  0  0  0  0
   -4.5280   17.3660  -34.0300 C   0  0  0  0  0  0  0  0  0  0  0  0
   -4.5520   18.7540  -33.8670 C   0  0  0  0  0  0  0  0  0  0  0  0
   -5.6710   19.3840  -33.2850 C   0  0  0  0  0  0  0  0  0  0  0  0
   -2.7842   23.9310  -27.5222 H   0  0  0  0  0  0  0  0  0  0  0  0
   -3.9136   25.1594  -28.1872 H   0  0  0  0  0  0  0  0  0  0  0  0
   -4.3737   23.4230  -28.1872 H   0  0  0  0  0  0  0  0  0  0  0  0
   -2.2858   24.8491  -29.8874 H   0  0  0  0  0  0  0  0  0  0  0  0
   -2.3253   23.0288  -29.6496 H   0  0  0  0  0  0  0  0  0  0  0  0
   -5.2628   24.7498  -29.5074 H   0  0  0  0  0  0  0  0  0  0  0  0
   -4.9430   25.6176  -31.0473 H   0  0  0  0  0  0  0  0  0  0  0  0
   -5.9485   24.1291  -31.0473 H   0  0  0  0  0  0  0  0  0  0  0  0
   -3.9311   21.7670  -30.2887 H   0  0  0  0  0  0  0  0  0  0  0  0
   -5.3295   22.3825  -31.2764 H   0  0  0  0  0  0  0  0  0  0  0  0
   -2.9108   22.7078  -32.7978 H   0  0  0  0  0  0  0  0  0  0  0  0
   -2.9923   21.0130  -32.1750 H   0  0  0  0  0  0  0  0  0  0  0  0
   -4.5740   22.1320  -34.3140 H   0  0  0  0  0  0  0  0  0  0  0  0
   -6.1390   23.4092  -32.7424 H   0  0  0  0  0  0  0  0  0  0  0  0
   -8.2089   24.4495  -31.8410 H   0  0  0  0  0  0  0  0  0  0  0  0
  -10.1455   23.0279  -31.2015 H   0  0  0  0  0  0  0  0  0  0  0  0
  -10.0251   20.5611  -31.4442 H   0  0  0  0  0  0  0  0  0  0  0  0
   -9.0822   18.2875  -30.8383 H   0  0  0  0  0  0  0  0  0  0  0  0
   -9.9787   18.7365  -32.3287 H   0  0  0  0  0  0  0  0  0  0  0  0
   -8.8977   17.3019  -32.3287 H   0  0  0  0  0  0  0  0  0  0  0  0
   -6.5139   14.6346  -33.4444 H   0  0  0  0  0  0  0  0  0  0  0  0
   -4.5376   13.4875  -34.4535 H   0  0  0  0  0  0  0  0  0  0  0  0
   -2.5592   14.8174  -35.1903 H   0  0  0  0  0  0  0  0  0  0  0  0
   -2.5486   17.3014  -34.9257 H   0  0  0  0  0  0  0  0  0  0  0  0
   -3.6931   19.3581  -34.1946 H   0  0  0  0  0  0  0  0  0  0  0  0
  1  2  1  0
  2  3  1  0
  3  4  1  0
  3  5  1  0
  5  6  1  0
  6  7  1  0
  7  8  1  0
  8  9  2  0
  9 10  1  0
 10 11  2  0
 11 12  1  0
 12 13  2  0
 13 14  1  0
 14 15  2  0
 15 16  1  0
 15 17  1  0
 17 18  2  0
 18 19  1  0
 19 20  2  0
 20 21  1  0
 21 22  2  0
 22 23  1  0
 23 24  2  0
 24 25  1  0
 25 26  2  0
 26  8  1  0
 14  9  1  0
 26 17  1  0
 24 19  1  0
  1 27  1  0
  1 28  1  0
  1 29  1  0
  2 30  1  0
  2 31  1  0
  4 32  1  0
  4 33  1  0
  4 34  1  0
  5 35  1  0
  5 36  1  0
  6 37  1  0
  6 38  1  0
  7 39  1  0
 10 40  1  0
 11 41  1  0
 12 42  1  0
 13 43  1  0
 16 44  1  0
 16 45  1  0
 16 46  1  0
 20 47  1  0
 21 48  1  0
 22 49  1  0
 23 50  1  0
 25 51  1  0
M  CHG  1  15   1
M  END
>  <UniqueID>  (7) 
7

>  <SMILES>  (7) 
CCN(C)CCNc1c2ccccc2[n+](C)c2nc3ccccc3cc12

>  <Energy>  (7) 
78.5666079906503

>  <Genealogy>  (7) 
CCN(C)CCNc1c2ccccc2[n+](C)c2nc3ccccc3cc12 (3D coordinates assigned)
CCN(C)CCNc1c2ccccc2[n+](C)c2nc3ccccc3cc12 (optimized conformer: 78.5666079906503 kcal/mol)

>  <smiles>  (7) 
CCN(C)CCNc1c2ccccc2[n+](C)c2nc3ccccc3cc12

>  <score_type>  (7) 
oracle

>  <origin>  (7) 
adg

>  <m_score__min__energy>  (7) 
-9.1600000000000001

>  <m_primary>  (7) 
energy

$$$$
7:0
     RDKit          3D

 76 78  0  0  0  0  0  0  0  0999 V2000
   -1.4990   25.3120  -27.3990 C   0  0  0  0  0  0  0  0  0  0  0  0
   -1.2340   25.0370  -28.8700 C   0  0  0  0  0  0  0  0  0  0  0  0
   -1.7690   23.7700  -29.2130 O   0  0  0  0  0  0  0  0  0  0  0  0
   -1.5980   22.8510  -28.1500 C   0  0  0  0  0  0  0  0  0  0  0  0
   -2.9360   22.1510  -27.8490 C   0  0  0  0  0  0  0  0  0  0  0  0
   -4.0410   22.6750  -28.6670 N   0  0  0  0  0  0  0  0  0  0  0  0
   -4.6060   23.9160  -28.1130 C   0  0  0  0  0  0  0  0  0  0  0  0
   -5.3660   24.6880  -29.1950 C   0  0  0  0  0  0  0  0  0  0  0  0
   -4.5590   24.8650  -30.4780 C   0  0  0  0  0  0  0  0  0  0  0  0
   -4.4870   23.6250  -31.1830 O   0  0  0  0  0  0  0  0  0  0  0  0
   -5.6010   22.8700  -31.5690 C   0  0  0  0  0  0  0  0  0  0  0  0
   -6.8030   23.5520  -31.7470 C   0  0  0  0  0  0  0  0  0  0  0  0
   -7.9800   22.8630  -32.0130 C   0  0  0  0  0  0  0  0  0  0  0  0
   -7.9830   21.4690  -32.0750 C   0  0  0  0  0  0  0  0  0  0  0  0
   -9.1950   20.7930  -32.2970 C   0  0  0  0  0  0  0  0  0  0  0  0
   -9.2280   19.4010  -32.3300 C   0  0  0  0  0  0  0  0  0  0  0  0
   -8.0620   18.6690  -32.1340 C   0  0  0  0  0  0  0  0  0  0  0  0
   -6.8450   19.3250  -31.9190 C   0  0  0  0  0  0  0  0  0  0  0  0
   -6.7730   20.7400  -31.8970 C   0  0  0  0  0  0  0  0  0  0  0  0
   -5.5530   21.4550  -31.6810 C   0  0  0  0  0  0  0  0  0  0  0  0
   -4.2110   20.7460  -31.5810 C   0  0  0  0  0  0  0  0  0  0  0  0
   -3.0640   21.5870  -32.1880 C   0  0  0  0  0  0  0  0  0  0  0  0
   -2.2700   22.2800  -31.1630 N   0  0  0  0  0  0  0  0  0  0  0  0
   -0.8570   21.8470  -31.1840 C   0  0  0  0  0  0  0  0  0  0  0  0
   -0.6940   20.3800  -31.6270 C   0  0  0  0  0  0  0  0  0  0  0  0
   -0.3020   19.4970  -30.4700 C   0  0  0  0  0  0  0  0  0  0  0  0
    0.7110   18.5390  -30.6110 C   0  0  0  0  0  0  0  0  0  0  0  0
    1.1070   17.7650  -29.5210 C   0  0  0  0  0  0  0  0  0  0  0  0
    0.4990   17.9420  -28.2620 C   0  0  0  0  0  0  0  0  0  0  0  0
    0.8810   17.1940  -27.1390 O   0  0  0  0  0  0  0  0  0  0  0  0
    1.0250   15.7770  -27.1250 C   0  0  0  0  0  0  0  0  0  0  0  0
   -0.5180   18.8960  -28.1140 C   0  0  0  0  0  0  0  0  0  0  0  0
   -1.1070   19.0510  -26.8490 O   0  0  0  0  0  0  0  0  0  0  0  0
   -2.5040   18.9320  -26.5920 C   0  0  0  0  0  0  0  0  0  0  0  0
   -0.9170   19.6680  -29.2220 C   0  0  0  0  0  0  0  0  0  0  0  0
   -0.8664   24.6555  -26.7835 H   0  0  0  0  0  0  0  0  0  0  0  0
   -1.2645   26.3630  -27.1744 H   0  0  0  0  0  0  0  0  0  0  0  0
   -2.5579   25.1165  -27.1744 H   0  0  0  0  0  0  0  0  0  0  0  0
   -1.7128   25.8159  -29.4816 H   0  0  0  0  0  0  0  0  0  0  0  0
   -0.1500   25.0423  -29.0566 H   0  0  0  0  0  0  0  0  0  0  0  0
   -0.8475   22.0987  -28.4342 H   0  0  0  0  0  0  0  0  0  0  0  0
   -1.2591   23.3903  -27.2531 H   0  0  0  0  0  0  0  0  0  0  0  0
   -2.8254   21.0756  -28.0523 H   0  0  0  0  0  0  0  0  0  0  0  0
   -3.1823   22.3391  -26.7936 H   0  0  0  0  0  0  0  0  0  0  0  0
   -3.6950   22.8570  -29.6390 H   0  0  0  0  0  0  0  0  0  0  0  0
   -5.2965   23.6656  -27.2942 H   0  0  0  0  0  0  0  0  0  0  0  0
   -3.7850   24.5444  -27.7374 H   0  0  0  0  0  0  0  0  0  0  0  0
   -6.2891   24.1396  -29.4341 H   0  0  0  0  0  0  0  0  0  0  0  0
   -5.5766   25.6917  -28.7972 H   0  0  0  0  0  0  0  0  0  0  0  0
   -5.0465   25.6183  -31.1143 H   0  0  0  0  0  0  0  0  0  0  0  0
   -3.5414   25.1955  -30.2226 H   0  0  0  0  0  0  0  0  0  0  0  0
   -6.8204   24.6496  -31.6761 H   0  0  0  0  0  0  0  0  0  0  0  0
   -8.9147   23.4197  -32.1756 H   0  0  0  0  0  0  0  0  0  0  0  0
  -10.1221   21.3661  -32.4454 H   0  0  0  0  0  0  0  0  0  0  0  0
  -10.1791   18.8791  -32.5116 H   0  0  0  0  0  0  0  0  0  0  0  0
   -8.0966   17.5696  -32.1480 H   0  0  0  0  0  0  0  0  0  0  0  0
   -5.9305   18.7335  -31.7648 H   0  0  0  0  0  0  0  0  0  0  0  0
   -3.9885   20.5550  -30.5208 H   0  0  0  0  0  0  0  0  0  0  0  0
   -4.2803   19.8065  -32.1489 H   0  0  0  0  0  0  0  0  0  0  0  0
   -2.4001   20.9194  -32.7568 H   0  0  0  0  0  0  0  0  0  0  0  0
   -3.5174   22.3533  -32.8339 H   0  0  0  0  0  0  0  0  0  0  0  0
   -2.3400   23.3100  -31.3100 H   0  0  0  0  0  0  0  0  0  0  0  0
   -2.6630   22.0530  -30.2220 H   0  0  0  0  0  0  0  0  0  0  0  0
   -0.3017   22.4899  -31.8828 H   0  0  0  0  0  0  0  0  0  0  0  0
   -0.4672   21.9310  -30.1588 H   0  0  0  0  0  0  0  0  0  0  0  0
   -1.6481   20.0233  -32.0423 H   0  0  0  0  0  0  0  0  0  0  0  0
    0.1027   20.3332  -32.3840 H   0  0  0  0  0  0  0  0  0  0  0  0
    1.1967   18.3968  -31.5876 H   0  0  0  0  0  0  0  0  0  0  0  0
    1.8989   17.0116  -29.6445 H   0  0  0  0  0  0  0  0  0  0  0  0
    1.0610   15.4224  -26.0844 H   0  0  0  0  0  0  0  0  0  0  0  0
    0.1690   15.3164  -27.6399 H   0  0  0  0  0  0  0  0  0  0  0  0
    1.9561   15.4980  -27.6399 H   0  0  0  0  0  0  0  0  0  0  0  0
   -2.6770   18.9173  -25.5058 H   0  0  0  0  0  0  0  0  0  0  0  0
   -3.0327   19.7884  -27.0359 H   0  0  0  0  0  0  0  0  0  0  0  0
   -2.8803   17.9985  -27.0359 H   0  0  0  0  0  0  0  0  0  0  0  0
   -1.7188   20.4122  -29.1071 H   0  0  0  0  0  0  0  0  0  0  0  0
  1  2  1  0
  2  3  1  0
  3  4  1  0
  4  5  1  0
  5  6  1  0
  6  7  1  0
  7  8  1  0
  8  9  1  0
  9 10  1  0
 10 11  1  0
 11 12  2  0
 12 13  1  0
 13 14  2  0
 14 15  1  0
 15 16  2  0
 16 17  1  0
 17 18  2  0
 18 19  1  0
 19 20  2  0
 20 21  1  0
 21 22  1  0
 22 23  1  0
 23 24  1  0
 24 25  1  0
 25 26  1  0
 26 27  2  0
 27 28  1  0
 28 29  2  0
 29 30  1  0
 30 31  1  0
 29 32  1  0
 32 33  1  0
 33 34  1  0
 32 35  2  0
 20 11  1  0
 35 26  1  0
 19 14  1  0
  1 36  1  0
  1 37  1  0
  1 38  1  0
  2 39  1  0
  2 40  1  0
  4 41  1  0
  4 42  1  0
  5 43  1  0
  5 44  1  0
  6 45  1  0
  7 46  1  0
  7 47  1  0
  8 48  1  0
  8 49  1  0
  9 50  1  0
  9 51  1  0
 12 52  1  0
 13 53  1  0
 15 54  1  0
 16 55  1  0
 17 56  1  0
 18 57  1  0
 21 58  1  0
 21 59  1  0
 22 60  1  0
 22 61  1  0
 23 62  1  0
 23 63  1  0
 24 64  1  0
 24 65  1  0
 25 66  1  0
 25 67  1  0
 27 68  1  0
 28 69  1  0
 31 70  1  0
 31 71  1  0
 31 72  1  0
 34 73  1  0
 34 74  1  0
 34 75  1  0
 35 76  1  0
M  CHG  1  23   1
M  END
>  <UniqueID>  (8) 
8

>  <SMILES>  (8) 
CCOCCNCCCOc1ccc2ccccc2c1CC[NH2+]CCc1ccc(OC)c(OC)c1

>  <Energy>  (8) 
85.80118316503962

>  <Genealogy>  (8) 
CCOCCNCCCOc1ccc2ccccc2c1CC[NH2+]CCc1ccc(OC)c(OC)c1 (protonated)
CCOCCNCCCOc1ccc2ccccc2c1CC[NH2+]CCc1ccc(OC)c(OC)c1 (3D coordinates assigned)
CCOCCNCCCOc1ccc2ccccc2c1CC[NH2+]CCc1ccc(OC)c(OC)c1 (optimized conformer: 85.80118316503962 kcal/mol)

>  <smiles>  (8) 
CCOCCNCCCOc1ccc2ccccc2c1CCNCCc1ccc(OC)c(OC)c1

>  <score_type>  (8) 
oracle

>  <origin>  (8) 
adg

>  <m_score__min__energy>  (8) 
-9.2599999999999998

>  <m_primary>  (8) 
energy

$$$$
8:0
     RDKit          3D

 42 44  0  0  0  0  0  0  0  0999 V2000
   -9.2770   18.6660  -32.1560 C   0  0  0  0  0  0  0  0  0  0  0  0
   -8.3170   19.2170  -33.0530 O   0  0  0  0  0  0  0  0  0  0  0  0
   -7.2790   20.0940  -32.6930 C   0  0  0  0  0  0  0  0  0  0  0  0
   -7.5390   21.2210  -31.9040 C   0  0  0  0  0  0  0  0  0  0  0  0
   -6.5150   22.0760  -31.4790 C   0  0  0  0  0  0  0  0  0  0  0  0
   -5.1580   21.7010  -31.7260 C   0  0  0  0  0  0  0  0  0  0  0  0
   -4.9170   20.7200  -32.7240 C   0  0  0  0  0  0  0  0  0  0  0  0
   -3.6230   20.6770  -33.2850 O   0  0  0  0  0  0  0  0  0  0  0  0
   -2.9240   19.5280  -33.7510 C   0  0  0  0  0  0  0  0  0  0  0  0
   -5.9620   19.8590  -33.1490 C   0  0  0  0  0  0  0  0  0  0  0  0
   -5.6380   18.7890  -34.0050 O   0  0  0  0  0  0  0  0  0  0  0  0
   -6.0410   17.4300  -33.8810 C   0  0  0  0  0  0  0  0  0  0  0  0
   -3.9490   22.4260  -31.1040 C   0  0  2  0  0  0  0  0  0  0  0  0
   -2.8960   21.5350  -30.5070 C   0  0  0  0  0  0  0  0  0  0  0  0
   -2.5110   20.4330  -30.9750 O   0  0  0  0  0  0  0  0  0  0  0  0
   -2.3480   22.0640  -29.3560 O   0  0  0  0  0  0  0  0  0  0  0  0
   -2.9630   23.2940  -29.0310 C   0  0  0  0  0  0  0  0  0  0  0  0
   -4.2620   23.2800  -29.8560 C   0  0  1  0  0  0  0  0  0  0  0  0
   -4.8360   24.6720  -30.1800 C   0  0  1  0  0  0  0  0  0  0  0  0
   -3.8590   25.4890  -30.7770 O   0  0  0  0  0  0  0  0  0  0  0  0
   -6.0400   24.5730  -31.1320 C   0  0  0  0  0  0  0  0  0  0  0  0
   -6.9570   23.3800  -30.8200 C   0  0  0  0  0  0  0  0  0  0  0  0
   -8.9578   18.8492  -31.1194 H   0  0  0  0  0  0  0  0  0  0  0  0
  -10.2543   19.1406  -32.3280 H   0  0  0  0  0  0  0  0  0  0  0  0
   -9.3601   17.5827  -32.3280 H   0  0  0  0  0  0  0  0  0  0  0  0
   -8.5760   21.4407  -31.6100 H   0  0  0  0  0  0  0  0  0  0  0  0
   -2.5675   18.9419  -32.8911 H   0  0  0  0  0  0  0  0  0  0  0  0
   -3.5995   18.9102  -34.3610 H   0  0  0  0  0  0  0  0  0  0  0  0
   -2.0649   19.8438  -34.3610 H   0  0  0  0  0  0  0  0  0  0  0  0
   -6.1192   17.1665  -32.8159 H   0  0  0  0  0  0  0  0  0  0  0  0
   -7.0188   17.2918  -34.3656 H   0  0  0  0  0  0  0  0  0  0  0  0
   -5.2966   16.7811  -34.3656 H   0  0  0  0  0  0  0  0  0  0  0  0
   -3.6312   22.9915  -31.9924 H   0  0  0  0  0  0  0  0  0  0  0  0
   -3.1823   23.3508  -27.9546 H   0  0  0  0  0  0  0  0  0  0  0  0
   -2.3252   24.1621  -29.2538 H   0  0  0  0  0  0  0  0  0  0  0  0
   -5.0825   22.8419  -29.2688 H   0  0  0  0  0  0  0  0  0  0  0  0
   -5.1614   25.1150  -29.2272 H   0  0  0  0  0  0  0  0  0  0  0  0
   -4.1690   25.6990  -31.6970 H   0  0  0  0  0  0  0  0  0  0  0  0
   -6.6288   25.4984  -31.0495 H   0  0  0  0  0  0  0  0  0  0  0  0
   -5.6444   24.4265  -32.1479 H   0  0  0  0  0  0  0  0  0  0  0  0
   -6.9729   23.2302  -29.7304 H   0  0  0  0  0  0  0  0  0  0  0  0
   -7.9501   23.6239  -31.2253 H   0  0  0  0  0  0  0  0  0  0  0  0
  1  2  1  0
  2  3  1  0
  3  4  2  0
  4  5  1  0
  5  6  2  0
  6  7  1  0
  7  8  1  0
  8  9  1  0
  7 10  2  0
 10 11  1  0
 11 12  1  0
  6 13  1  0
 13 14  1  0
 14 15  2  0
 14 16  1  0
 16 17  1  0
 17 18  1  0
 18 19  1  0
 19 20  1  0
 19 21  1  0
 21 22  1  0
 10  3  1  0
 18 13  1  0
 22  5  1  0
  1 23  1  0
  1 24  1  0
  1 25  1  0
  4 26  1  0
  9 27  1  0
  9 28  1  0
  9 29  1  0
 12 30  1  0
 12 31  1  0
 12 32  1  0
 13 33  1  6
 17 34  1  0
 17 35  1  0
 18 36  1  1
 19 37  1  1
 20 38  1  0
 21 39  1  0
 21 40  1  0
 22 41  1  0
 22 42  1  0
M  END
>  <UniqueID>  (9) 
9

>  <SMILES>  (9) 
COc1cc2c(c(OC)c1OC)[C@@H]1C(=O)OC[C@H]1C(O)CC2

>  <Energy>  (9) 
79.79788745089508

>  <Genealogy>  (9) 
COc1cc2c(c(OC)c1OC)[C@@H]1C(=O)OC[C@H]1C(O)CC2 (chirality)
COc1cc2c(c(OC)c1OC)[C@@H]1C(=O)OC[C@H]1C(O)CC2 (3D coordinates assigned)
COc1cc2c(c(OC)c1OC)[C@@H]1C(=O)OC[C@H]1C(O)CC2 (nonaromatic ring conformer: 79.79788745089508 kcal/mol)

>  <smiles>  (9) 
COc1cc2c(c(OC)c1OC)C1C(=O)OCC1C(O)CC2

>  <score_type>  (9) 
oracle

>  <origin>  (9) 
adg

>  <m_score__min__energy>  (9) 
-6.4000000000000004

>  <m_primary>  (9) 
energy

$$$$
9:0
     RDKit          3D

 54 55  0  0  0  0  0  0  0  0999 V2000
   -5.4110   16.5870  -32.2880 C   0  0  0  0  0  0  0  0  0  0  0  0
   -5.3350   18.1190  -32.4250 C   0  0  1  0  0  0  0  0  0  0  0  0
   -4.5400   18.5430  -33.6940 C   0  0  0  0  0  0  0  0  0  0  0  0
   -3.0910   18.8160  -33.4740 N   0  0  1  0  0  0  0  0  0  0  0  0
   -2.2360   17.8420  -34.1850 C   0  0  0  0  0  0  0  0  0  0  0  0
   -2.7280   20.2120  -33.8330 C   0  0  0  0  0  0  0  0  0  0  0  0
   -2.2960   21.0840  -32.6190 C   0  0  0  0  0  0  0  0  0  0  0  0
   -1.8030   20.3070  -31.4590 N   0  0  0  0  0  0  0  0  0  0  0  0
   -1.9220   21.0350  -30.1860 C   0  0  0  0  0  0  0  0  0  0  0  0
   -0.4390   19.7890  -31.6540 C   0  0  0  0  0  0  0  0  0  0  0  0
   -6.7000   18.8040  -32.2830 C   0  0  0  0  0  0  0  0  0  0  0  0
   -7.8480   18.0190  -32.0230 C   0  0  0  0  0  0  0  0  0  0  0  0
   -9.1160   18.5950  -31.9470 C   0  0  0  0  0  0  0  0  0  0  0  0
   -9.2730   19.9640  -32.1230 C   0  0  0  0  0  0  0  0  0  0  0  0
   -8.1610   20.7690  -32.3580 C   0  0  0  0  0  0  0  0  0  0  0  0
   -6.8670   20.2170  -32.4300 C   0  0  0  0  0  0  0  0  0  0  0  0
   -5.7100   21.1780  -32.6430 C   0  0  0  0  0  0  0  0  0  0  0  0
   -5.7360   22.3360  -31.6790 C   0  0  0  0  0  0  0  0  0  0  0  0
   -6.4390   23.5090  -32.0050 C   0  0  0  0  0  0  0  0  0  0  0  0
   -6.4710   24.5840  -31.1120 C   0  0  0  0  0  0  0  0  0  0  0  0
   -5.7900   24.5060  -29.8950 C   0  0  0  0  0  0  0  0  0  0  0  0
   -5.8270   25.5480  -29.0280 F   0  0  0  0  0  0  0  0  0  0  0  0
   -5.0650   23.3560  -29.5750 C   0  0  0  0  0  0  0  0  0  0  0  0
   -5.0270   22.2790  -30.4640 C   0  0  0  0  0  0  0  0  0  0  0  0
   -5.4245   16.3144  -31.2224 H   0  0  0  0  0  0  0  0  0  0  0  0
   -6.3284   16.2207  -32.7719 H   0  0  0  0  0  0  0  0  0  0  0  0
   -4.5343   16.1317  -32.7719 H   0  0  0  0  0  0  0  0  0  0  0  0
   -4.7555   18.4920  -31.5677 H   0  0  0  0  0  0  0  0  0  0  0  0
   -4.6252   17.7343  -34.4348 H   0  0  0  0  0  0  0  0  0  0  0  0
   -4.9822   19.4933  -34.0277 H   0  0  0  0  0  0  0  0  0  0  0  0
   -2.8680   18.7260  -32.4580 H   0  0  0  0  0  0  0  0  0  0  0  0
   -1.6949   17.2255  -33.4521 H   0  0  0  0  0  0  0  0  0  0  0  0
   -2.8634   17.1953  -34.8160 H   0  0  0  0  0  0  0  0  0  0  0  0
   -1.5135   18.3804  -34.8160 H   0  0  0  0  0  0  0  0  0  0  0  0
   -1.8944   20.1795  -34.5500 H   0  0  0  0  0  0  0  0  0  0  0  0
   -3.6307   20.6778  -34.2551 H   0  0  0  0  0  0  0  0  0  0  0  0
   -1.4929   21.7599  -32.9480 H   0  0  0  0  0  0  0  0  0  0  0  0
   -3.1938   21.6221  -32.2807 H   0  0  0  0  0  0  0  0  0  0  0  0
   -1.8069   20.3309  -29.3488 H   0  0  0  0  0  0  0  0  0  0  0  0
   -1.1377   21.8041  -30.1287 H   0  0  0  0  0  0  0  0  0  0  0  0
   -2.9104   21.5143  -30.1287 H   0  0  0  0  0  0  0  0  0  0  0  0
    0.0292   19.6112  -30.6746 H   0  0  0  0  0  0  0  0  0  0  0  0
   -0.4823   18.8447  -32.2165 H   0  0  0  0  0  0  0  0  0  0  0  0
    0.1554   20.5240  -32.2165 H   0  0  0  0  0  0  0  0  0  0  0  0
   -7.7385   16.9341  -31.8781 H   0  0  0  0  0  0  0  0  0  0  0  0
   -9.9942   17.9635  -31.7471 H   0  0  0  0  0  0  0  0  0  0  0  0
  -10.2763   20.4126  -32.0767 H   0  0  0  0  0  0  0  0  0  0  0  0
   -8.2953   21.8528  -32.4894 H   0  0  0  0  0  0  0  0  0  0  0  0
   -4.7663   20.6289  -32.5092 H   0  0  0  0  0  0  0  0  0  0  0  0
   -5.7991   21.5879  -33.6599 H   0  0  0  0  0  0  0  0  0  0  0  0
   -6.9665   23.5813  -32.9676 H   0  0  0  0  0  0  0  0  0  0  0  0
   -7.0339   25.4936  -31.3684 H   0  0  0  0  0  0  0  0  0  0  0  0
   -4.5222   23.2981  -28.6200 H   0  0  0  0  0  0  0  0  0  0  0  0
   -4.4406   21.3826  -30.2136 H   0  0  0  0  0  0  0  0  0  0  0  0
  1  2  1  0
  2  3  1  0
  3  4  1  0
  4  5  1  0
  4  6  1  0
  6  7  1  0
  7  8  1  0
  8  9  1  0
  8 10  1  0
  2 11  1  0
 11 12  2  0
 12 13  1  0
 13 14  2  0
 14 15  1  0
 15 16  2  0
 16 17  1  0
 17 18  1  0
 18 19  2  0
 19 20  1  0
 20 21  2  0
 21 22  1  0
 21 23  1  0
 23 24  2  0
 16 11  1  0
 24 18  1  0
  1 25  1  0
  1 26  1  0
  1 27  1  0
  2 28  1  1
  3 29  1  0
  3 30  1  0
  4 31  1  1
  5 32  1  0
  5 33  1  0
  5 34  1  0
  6 35  1  0
  6 36  1  0
  7 37  1  0
  7 38  1  0
  9 39  1  0
  9 40  1  0
  9 41  1  0
 10 42  1  0
 10 43  1  0
 10 44  1  0
 12 45  1  0
 13 46  1  0
 14 47  1  0
 15 48  1  0
 17 49  1  0
 17 50  1  0
 19 51  1  0
 20 52  1  0
 23 53  1  0
 24 54  1  0
M  CHG  1   4   1
M  END
>  <UniqueID>  (10) 
10

>  <SMILES>  (10) 
C[C@@H](C[N@@H+](C)CCN(C)C)c1ccccc1Cc1ccc(F)cc1

>  <Energy>  (10) 
63.688444043999525

>  <Genealogy>  (10) 
CC(C[NH+](C)CCN(C)C)c1ccccc1Cc1ccc(F)cc1 (protonated)
C[C@@H](C[N@@H+](C)CCN(C)C)c1ccccc1Cc1ccc(F)cc1 (chirality)
C[C@@H](C[N@@H+](C)CCN(C)C)c1ccccc1Cc1ccc(F)cc1 (3D coordinates assigned)
C[C@@H](C[N@@H+](C)CCN(C)C)c1ccccc1Cc1ccc(F)cc1 (optimized conformer: 63.688444043999525 kcal/mol)

>  <smiles>  (10) 
CC(CN(C)CCN(C)C)c1ccccc1Cc1ccc(F)cc1

>  <score_type>  (10) 
oracle

>  <origin>  (10) 
adg

>  <m_score__min__energy>  (10) 
-6.7199999999999998

>  <m_primary>  (10) 
energy

$$$$
10:0
     RDKit          3D

 47 50  0  0  0  0  0  0  0  0999 V2000
   -1.0690   12.1500  -30.8840 C   0  0  0  0  0  0  0  0  0  0  0  0
   -2.2130   12.1480  -31.7320 O   0  0  0  0  0  0  0  0  0  0  0  0
   -2.9270   13.2960  -32.1060 C   0  0  0  0  0  0  0  0  0  0  0  0
   -4.2180   13.4630  -31.6040 C   0  0  0  0  0  0  0  0  0  0  0  0
   -4.9670   14.5930  -31.9320 C   0  0  0  0  0  0  0  0  0  0  0  0
   -4.4490   15.5860  -32.7850 C   0  0  0  0  0  0  0  0  0  0  0  0
   -5.2810   16.7850  -33.0920 C   0  0  0  0  0  0  0  0  0  0  0  0
   -5.5610   17.7820  -32.2250 N   0  0  0  0  0  0  0  0  0  0  0  0
   -6.3190   18.6220  -32.9620 C   0  0  0  0  0  0  0  0  0  0  0  0
   -6.8880   19.9090  -32.4850 C   0  0  0  0  0  0  0  0  0  0  0  0
   -8.2740   20.1140  -32.4060 C   0  0  0  0  0  0  0  0  0  0  0  0
   -8.7660   21.3280  -31.9240 C   0  0  0  0  0  0  0  0  0  0  0  0
   -7.9100   22.3030  -31.5280 N   0  0  0  0  0  0  0  0  0  0  0  0
   -6.5580   22.1550  -31.5960 C   0  0  0  0  0  0  0  0  0  0  0  0
   -5.6990   23.2210  -31.1330 N   0  0  0  0  0  0  0  0  0  0  0  0
   -4.3060   22.8900  -30.7960 C   0  0  0  0  0  0  0  0  0  0  0  0
   -3.5760   24.0390  -30.0800 C   0  0  0  0  0  0  0  0  0  0  0  0
   -3.9110   25.2950  -30.6350 O   0  0  0  0  0  0  0  0  0  0  0  0
   -5.2750   25.5500  -30.3950 C   0  0  0  0  0  0  0  0  0  0  0  0
   -6.1390   24.6210  -31.2430 C   0  0  0  0  0  0  0  0  0  0  0  0
   -6.0280   20.9460  -32.0850 C   0  0  0  0  0  0  0  0  0  0  0  0
   -6.4900   18.1530  -34.2170 N   0  0  0  0  0  0  0  0  0  0  0  0
   -5.8390   17.0280  -34.2560 O   0  0  0  0  0  0  0  0  0  0  0  0
   -3.1380   15.4160  -33.3170 C   0  0  0  0  0  0  0  0  0  0  0  0
   -2.5110   16.4170  -34.2620 C   0  0  0  0  0  0  0  0  0  0  0  0
   -2.3890   14.2770  -32.9610 C   0  0  0  0  0  0  0  0  0  0  0  0
   -1.3920   12.1494  -29.8325 H   0  0  0  0  0  0  0  0  0  0  0  0
   -0.4641   11.2529  -31.0822 H   0  0  0  0  0  0  0  0  0  0  0  0
   -0.4672   13.0492  -31.0822 H   0  0  0  0  0  0  0  0  0  0  0  0
   -4.6492   12.6964  -30.9434 H   0  0  0  0  0  0  0  0  0  0  0  0
   -5.9791   14.7102  -31.5174 H   0  0  0  0  0  0  0  0  0  0  0  0
   -5.2710   17.8740  -31.2270 H   0  0  0  0  0  0  0  0  0  0  0  0
   -8.9690   19.3222  -32.7222 H   0  0  0  0  0  0  0  0  0  0  0  0
   -9.8517   21.4947  -31.8650 H   0  0  0  0  0  0  0  0  0  0  0  0
   -4.3037   22.0083  -30.1382 H   0  0  0  0  0  0  0  0  0  0  0  0
   -3.7742   22.6972  -31.7394 H   0  0  0  0  0  0  0  0  0  0  0  0
   -3.8569   24.0324  -29.0165 H   0  0  0  0  0  0  0  0  0  0  0  0
   -2.4933   23.8871  -30.2017 H   0  0  0  0  0  0  0  0  0  0  0  0
   -5.4950   25.3807  -29.3306 H   0  0  0  0  0  0  0  0  0  0  0  0
   -5.4987   26.5934  -30.6620 H   0  0  0  0  0  0  0  0  0  0  0  0
   -7.1825   24.6949  -30.9030 H   0  0  0  0  0  0  0  0  0  0  0  0
   -6.0455   24.9292  -32.2948 H   0  0  0  0  0  0  0  0  0  0  0  0
   -4.9383   20.8127  -32.1542 H   0  0  0  0  0  0  0  0  0  0  0  0
   -2.0151   17.2087  -33.6813 H   0  0  0  0  0  0  0  0  0  0  0  0
   -1.7698   15.9083  -34.8960 H   0  0  0  0  0  0  0  0  0  0  0  0
   -3.2921   16.8619  -34.8960 H   0  0  0  0  0  0  0  0  0  0  0  0
   -1.3701   14.1524  -33.3563 H   0  0  0  0  0  0  0  0  0  0  0  0
  1  2  1  0
  2  3  1  0
  3  4  2  0
  4  5  1  0
  5  6  2  0
  6  7  1  0
  7  8  2  0
  8  9  1  0
  9 10  1  0
 10 11  2  0
 11 12  1  0
 12 13  2  0
 13 14  1  0
 14 15  1  0
 15 16  1  0
 16 17  1  0
 17 18  1  0
 18 19  1  0
 19 20  1  0
 14 21  2  0
  9 22  2  0
 22 23  1  0
  6 24  1  0
 24 25  1  0
 24 26  2  0
 26  3  1  0
 23  7  1  0
 21 10  1  0
 20 15  1  0
  1 27  1  0
  1 28  1  0
  1 29  1  0
  4 30  1  0
  5 31  1  0
  8 32  1  0
 11 33  1  0
 12 34  1  0
 16 35  1  0
 16 36  1  0
 17 37  1  0
 17 38  1  0
 19 39  1  0
 19 40  1  0
 20 41  1  0
 20 42  1  0
 21 43  1  0
 25 44  1  0
 25 45  1  0
 25 46  1  0
 26 47  1  0
M  CHG  1   8   1
M  END
>  <UniqueID>  (11) 
11

>  <SMILES>  (11) 
COc1ccc(-c2[nH+]c(-c3ccnc(N4CCOCC4)c3)no2)c(C)c1

>  <Energy>  (11) 
95.94130372847563

>  <Genealogy>  (11) 
COc1ccc(-c2[nH+]c(-c3ccnc(N4CCOCC4)c3)no2)c(C)c1 (protonated)
COc1ccc(-c2[nH+]c(-c3ccnc(N4CCOCC4)c3)no2)c(C)c1 (3D coordinates assigned)
COc1ccc(-c2[nH+]c(-c3ccnc(N4CCOCC4)c3)no2)c(C)c1 (nonaromatic ring conformer: 95.94130372847563 kcal/mol)

>  <smiles>  (11) 
COc1ccc(-c2nc(-c3ccnc(N4CCOCC4)c3)no2)c(C)c1

>  <score_type>  (11) 
oracle

>  <origin>  (11) 
adg

>  <m_score__min__energy>  (11) 
-8.0500000000000007

>  <m_primary>  (11) 
energy

$$$$
11:0
     RDKit          3D

 38 39  0  0  0  0  0  0  0  0999 V2000
   -2.2210   20.7890  -33.4090 C   0  0  0  0  0  0  0  0  0  0  0  0
   -3.0210   21.8990  -32.7220 C   0  0  0  0  0  0  0  0  0  0  0  0
   -4.4750   21.7000  -32.8410 N   0  0  0  0  0  0  0  0  0  0  0  0
   -4.8120   20.4240  -33.4960 C   0  0  0  0  0  0  0  0  0  0  0  0
   -6.1400   19.9070  -32.9960 C   0  0  0  0  0  0  0  0  0  0  0  0
   -6.4210   18.5320  -33.0700 C   0  0  0  0  0  0  0  0  0  0  0  0
   -7.6560   18.0390  -32.6470 C   0  0  0  0  0  0  0  0  0  0  0  0
   -7.9150   16.7100  -32.7180 F   0  0  0  0  0  0  0  0  0  0  0  0
   -8.6230   18.9120  -32.1500 C   0  0  0  0  0  0  0  0  0  0  0  0
   -8.3630   20.2830  -32.0840 C   0  0  0  0  0  0  0  0  0  0  0  0
   -7.1290   20.7980  -32.5260 C   0  0  0  0  0  0  0  0  0  0  0  0
   -6.8420   22.1740  -32.5090 O   0  0  0  0  0  0  0  0  0  0  0  0
   -7.6480   23.1970  -31.9210 C   0  0  0  0  0  0  0  0  0  0  0  0
   -7.2350   23.4590  -30.4680 C   0  0  0  0  0  0  0  0  0  0  0  0
   -5.8480   23.9100  -30.3790 N   0  0  0  0  0  0  0  0  0  0  0  0
   -4.8210   23.2520  -29.8180 C   0  0  0  0  0  0  0  0  0  0  0  0
   -3.7000   24.0420  -29.9360 C   0  0  0  0  0  0  0  0  0  0  0  0
   -4.0200   25.1900  -30.5710 N   0  0  0  0  0  0  0  0  0  0  0  0
   -5.3390   25.0740  -30.8270 C   0  0  0  0  0  0  0  0  0  0  0  0
   -1.7573   20.1456  -32.6467 H   0  0  0  0  0  0  0  0  0  0  0  0
   -2.8941   20.1868  -34.0369 H   0  0  0  0  0  0  0  0  0  0  0  0
   -1.4368   21.2371  -34.0369 H   0  0  0  0  0  0  0  0  0  0  0  0
   -2.7534   21.9186  -31.6552 H   0  0  0  0  0  0  0  0  0  0  0  0
   -2.7711   22.8484  -33.2182 H   0  0  0  0  0  0  0  0  0  0  0  0
   -4.8630   22.4830  -33.4170 H   0  0  0  0  0  0  0  0  0  0  0  0
   -4.9180   21.7440  -31.8930 H   0  0  0  0  0  0  0  0  0  0  0  0
   -4.8704   20.5797  -34.5834 H   0  0  0  0  0  0  0  0  0  0  0  0
   -4.0313   19.6859  -33.2598 H   0  0  0  0  0  0  0  0  0  0  0  0
   -5.6623   17.8398  -33.4640 H   0  0  0  0  0  0  0  0  0  0  0  0
   -9.5927   18.5203  -31.8091 H   0  0  0  0  0  0  0  0  0  0  0  0
   -9.1276   20.9652  -31.6839 H   0  0  0  0  0  0  0  0  0  0  0  0
   -7.5304   24.1245  -32.5006 H   0  0  0  0  0  0  0  0  0  0  0  0
   -8.6965   22.8646  -31.9314 H   0  0  0  0  0  0  0  0  0  0  0  0
   -7.8908   24.2338  -30.0441 H   0  0  0  0  0  0  0  0  0  0  0  0
   -7.3286   22.5173  -29.9072 H   0  0  0  0  0  0  0  0  0  0  0  0
   -4.8672   22.2586  -29.3478 H   0  0  0  0  0  0  0  0  0  0  0  0
   -2.6970   23.7785  -29.5692 H   0  0  0  0  0  0  0  0  0  0  0  0
   -5.9322   25.8431  -31.3433 H   0  0  0  0  0  0  0  0  0  0  0  0
  1  2  1  0
  2  3  1  0
  3  4  1  0
  4  5  1  0
  5  6  2  0
  6  7  1  0
  7  8  1  0
  7  9  2  0
  9 10  1  0
 10 11  2  0
 11 12  1  0
 12 13  1  0
 13 14  1  0
 14 15  1  0
 15 16  1  0
 16 17  2  0
 17 18  1  0
 18 19  2  0
 11  5  1  0
 19 15  1  0
  1 20  1  0
  1 21  1  0
  1 22  1  0
  2 23  1  0
  2 24  1  0
  3 25  1  0
  3 26  1  0
  4 27  1  0
  4 28  1  0
  6 29  1  0
  9 30  1  0
 10 31  1  0
 13 32  1  0
 13 33  1  0
 14 34  1  0
 14 35  1  0
 16 36  1  0
 17 37  1  0
 19 38  1  0
M  CHG  1   3   1
M  END
>  <UniqueID>  (12) 
12

>  <SMILES>  (12) 
CC[NH2+]Cc1cc(F)ccc1OCCn1ccnc1

>  <Energy>  (12) 
61.534824407899904

>  <Genealogy>  (12) 
CC[NH2+]Cc1cc(F)ccc1OCCn1ccnc1 (protonated)
CC[NH2+]Cc1cc(F)ccc1OCCn1ccnc1 (3D coordinates assigned)
CC[NH2+]Cc1cc(F)ccc1OCCn1ccnc1 (optimized conformer: 61.534824407899904 kcal/mol)

>  <smiles>  (12) 
CCNCc1cc(F)ccc1OCCn1ccnc1

>  <score_type>  (12) 
oracle

>  <origin>  (12) 
adg

>  <m_score__min__energy>  (12) 
-5.71

>  <m_primary>  (12) 
energy

$$$$
12:0
     RDKit          3D

 42 42  0  0  0  0  0  0  0  0999 V2000
   -5.7460   18.1860  -34.6420 C   0  0  0  0  0  0  0  0  0  0  0  0
   -5.4620   19.1230  -33.4680 C   0  0  0  0  0  0  0  0  0  0  0  0
   -6.4520   18.9450  -32.3030 C   0  0  0  0  0  0  0  0  0  0  0  0
   -7.8690   18.5080  -32.7200 C   0  0  0  0  0  0  0  0  0  0  0  0
   -8.9150   19.6120  -32.5140 C   0  0  0  0  0  0  0  0  0  0  0  0
   -8.7380   20.2930  -31.1480 C   0  0  0  0  0  0  0  0  0  0  0  0
   -9.6160   21.5490  -30.9870 C   0  0  0  0  0  0  0  0  0  0  0  0
   -9.2480   22.7050  -31.9300 C   0  0  0  0  0  0  0  0  0  0  0  0
   -7.7770   22.9800  -31.9260 C   0  0  0  0  0  0  0  0  0  0  0  0
   -7.1830   23.9060  -31.1420 N   0  0  0  0  0  0  0  0  0  0  0  0
   -5.8750   23.7950  -31.4260 C   0  0  0  0  0  0  0  0  0  0  0  0
   -4.8380   24.5960  -30.8330 C   0  0  0  0  0  0  0  0  0  0  0  0
   -4.0020   25.2400  -30.3560 N   0  0  0  0  0  0  0  0  0  0  0  0
   -5.7240   22.8030  -32.3680 C   0  0  0  0  0  0  0  0  0  0  0  0
   -4.4910   22.3480  -32.9410 N   0  0  0  0  0  0  0  0  0  0  0  0
   -3.5150   21.5930  -32.1610 C   0  0  0  0  0  0  0  0  0  0  0  0
   -2.5080   20.9110  -33.0800 C   0  0  0  0  0  0  0  0  0  0  0  0
   -6.9070   22.3160  -32.6590 O   0  0  0  0  0  0  0  0  0  0  0  0
   -6.0451   17.1990  -34.2594 H   0  0  0  0  0  0  0  0  0  0  0  0
   -6.5581   18.6029  -35.2557 H   0  0  0  0  0  0  0  0  0  0  0  0
   -4.8391   18.0818  -35.2557 H   0  0  0  0  0  0  0  0  0  0  0  0
   -4.4456   18.9230  -33.0979 H   0  0  0  0  0  0  0  0  0  0  0  0
   -5.5696   20.1539  -33.8364 H   0  0  0  0  0  0  0  0  0  0  0  0
   -6.0455   18.1828  -31.6220 H   0  0  0  0  0  0  0  0  0  0  0  0
   -6.5587   19.9341  -31.8337 H   0  0  0  0  0  0  0  0  0  0  0  0
   -7.8531   18.2328  -33.7849 H   0  0  0  0  0  0  0  0  0  0  0  0
   -8.1546   17.6574  -32.0837 H   0  0  0  0  0  0  0  0  0  0  0  0
   -8.8038   20.3651  -33.3081 H   0  0  0  0  0  0  0  0  0  0  0  0
   -9.9157   19.1567  -32.5507 H   0  0  0  0  0  0  0  0  0  0  0  0
   -9.0058   19.5739  -30.3598 H   0  0  0  0  0  0  0  0  0  0  0  0
   -7.6880   20.6117  -31.0711 H   0  0  0  0  0  0  0  0  0  0  0  0
  -10.6610   21.2657  -31.1813 H   0  0  0  0  0  0  0  0  0  0  0  0
   -9.4550   21.9158  -29.9625 H   0  0  0  0  0  0  0  0  0  0  0  0
   -9.5583   22.4429  -32.9523 H   0  0  0  0  0  0  0  0  0  0  0  0
   -9.7655   23.6100  -31.5790 H   0  0  0  0  0  0  0  0  0  0  0  0
   -7.6380   24.5570  -30.4640 H   0  0  0  0  0  0  0  0  0  0  0  0
   -4.2500   22.6230  -33.9190 H   0  0  0  0  0  0  0  0  0  0  0  0
   -2.9822   22.2792  -31.4863 H   0  0  0  0  0  0  0  0  0  0  0  0
   -4.0437   20.8232  -31.5797 H   0  0  0  0  0  0  0  0  0  0  0  0
   -1.7481   20.3964  -32.4736 H   0  0  0  0  0  0  0  0  0  0  0  0
   -3.0283   20.1786  -33.7148 H   0  0  0  0  0  0  0  0  0  0  0  0
   -2.0210   21.6659  -33.7148 H   0  0  0  0  0  0  0  0  0  0  0  0
  1  2  1  0
  2  3  1  0
  3  4  1  0
  4  5  1  0
  5  6  1  0
  6  7  1  0
  7  8  1  0
  8  9  1  0
  9 10  2  0
 10 11  1  0
 11 12  1  0
 12 13  3  0
 11 14  2  0
 14 15  1  0
 15 16  1  0
 16 17  1  0
 14 18  1  0
 18  9  1  0
  1 19  1  0
  1 20  1  0
  1 21  1  0
  2 22  1  0
  2 23  1  0
  3 24  1  0
  3 25  1  0
  4 26  1  0
  4 27  1  0
  5 28  1  0
  5 29  1  0
  6 30  1  0
  6 31  1  0
  7 32  1  0
  7 33  1  0
  8 34  1  0
  8 35  1  0
 10 36  1  0
 15 37  1  0
 16 38  1  0
 16 39  1  0
 17 40  1  0
 17 41  1  0
 17 42  1  0
M  CHG  1  10   1
M  END
>  <UniqueID>  (13) 
13

>  <SMILES>  (13) 
CCCCCCCCc1[nH+]c(C#N)c(NCC)o1

>  <Energy>  (13) 
51.26721579207773

>  <Genealogy>  (13) 
CCCCCCCCc1[nH+]c(C#N)c(NCC)o1 (protonated)
CCCCCCCCc1[nH+]c(C#N)c(NCC)o1 (3D coordinates assigned)
CCCCCCCCc1[nH+]c(C#N)c(NCC)o1 (optimized conformer: 51.26721579207773 kcal/mol)

>  <smiles>  (13) 
CCCCCCCCc1nc(C#N)c(NCC)o1

>  <score_type>  (13) 
oracle

>  <origin>  (13) 
adg

>  <m_score__min__energy>  (13) 
-5.75

>  <m_primary>  (13) 
energy

$$$$
13:0
     RDKit          3D

 49 52  0  0  0  0  0  0  0  0999 V2000
    0.0550   21.0510  -33.8990 C   0  0  0  0  0  0  0  0  0  0  0  0
   -0.5280   20.8860  -32.5310 C   0  0  0  0  0  0  0  0  0  0  0  0
   -0.1060   21.6510  -31.4870 N   0  0  0  0  0  0  0  0  0  0  0  0
   -0.7660   21.3740  -30.3420 C   0  0  0  0  0  0  0  0  0  0  0  0
   -1.9130   20.1700  -30.5830 S   0  0  0  0  0  0  0  0  0  0  0  0
   -1.5510   19.9870  -32.2160 C   0  0  0  0  0  0  0  0  0  0  0  0
   -2.2630   19.0460  -33.1500 C   0  0  0  0  0  0  0  0  0  0  0  0
   -3.1990   19.7480  -34.0400 N   0  0  0  0  0  0  0  0  0  0  0  0
   -3.6870   21.0010  -33.4500 C   0  0  0  0  0  0  0  0  0  0  0  0
   -5.0490   20.7790  -32.8460 C   0  0  0  0  0  0  0  0  0  0  0  0
   -5.7150   19.5630  -33.0870 C   0  0  0  0  0  0  0  0  0  0  0  0
   -6.9760   19.3680  -32.5320 C   0  0  0  0  0  0  0  0  0  0  0  0
   -7.5530   20.3360  -31.7640 C   0  0  0  0  0  0  0  0  0  0  0  0
   -6.9210   21.5100  -31.5080 N   0  0  0  0  0  0  0  0  0  0  0  0
   -5.6750   21.7520  -32.0180 C   0  0  0  0  0  0  0  0  0  0  0  0
   -5.0280   22.9950  -31.7110 N   0  0  0  0  0  0  0  0  0  0  0  0
   -3.6350   23.0340  -31.2690 C   0  0  0  0  0  0  0  0  0  0  0  0
   -3.5010   24.0300  -30.1140 C   0  0  0  0  0  0  0  0  0  0  0  0
   -4.0490   25.2870  -30.4690 O   0  0  0  0  0  0  0  0  0  0  0  0
   -5.4450   25.1660  -30.6730 C   0  0  0  0  0  0  0  0  0  0  0  0
   -5.7460   24.2600  -31.8710 C   0  0  0  0  0  0  0  0  0  0  0  0
   -8.8900   19.9450  -31.2640 C   0  0  0  0  0  0  0  0  0  0  0  0
   -9.0970   18.5300  -31.8430 C   0  0  0  0  0  0  0  0  0  0  0  0
   -7.8420   18.1740  -32.6660 C   0  0  0  0  0  0  0  0  0  0  0  0
    1.1103   21.3497  -33.8143 H   0  0  0  0  0  0  0  0  0  0  0  0
   -0.0137   20.0981  -34.4442 H   0  0  0  0  0  0  0  0  0  0  0  0
   -0.5029   21.8265  -34.4442 H   0  0  0  0  0  0  0  0  0  0  0  0
   -0.5777   21.8709  -29.3788 H   0  0  0  0  0  0  0  0  0  0  0  0
   -1.5149   18.5233  -33.7642 H   0  0  0  0  0  0  0  0  0  0  0  0
   -2.8441   18.3397  -32.5389 H   0  0  0  0  0  0  0  0  0  0  0  0
   -2.7210   19.9630  -34.9480 H   0  0  0  0  0  0  0  0  0  0  0  0
   -2.9892   21.3331  -32.6672 H   0  0  0  0  0  0  0  0  0  0  0  0
   -3.7559   21.7706  -34.2329 H   0  0  0  0  0  0  0  0  0  0  0  0
   -5.2472   18.7808  -33.7030 H   0  0  0  0  0  0  0  0  0  0  0  0
   -7.3860   22.2270  -30.9060 H   0  0  0  0  0  0  0  0  0  0  0  0
   -3.3286   22.0336  -30.9295 H   0  0  0  0  0  0  0  0  0  0  0  0
   -2.9910   23.3475  -32.1039 H   0  0  0  0  0  0  0  0  0  0  0  0
   -4.0355   23.6384  -29.2360 H   0  0  0  0  0  0  0  0  0  0  0  0
   -2.4335   24.1625  -29.8841 H   0  0  0  0  0  0  0  0  0  0  0  0
   -5.9047   24.7353  -29.7713 H   0  0  0  0  0  0  0  0  0  0  0  0
   -5.8585   26.1651  -30.8753 H   0  0  0  0  0  0  0  0  0  0  0  0
   -6.8274   24.0652  -31.9222 H   0  0  0  0  0  0  0  0  0  0  0  0
   -5.4211   24.7542  -32.7985 H   0  0  0  0  0  0  0  0  0  0  0  0
   -8.9073   19.9253  -30.1643 H   0  0  0  0  0  0  0  0  0  0  0  0
   -9.6803   20.6486  -31.5646 H   0  0  0  0  0  0  0  0  0  0  0  0
   -9.2272   17.8057  -31.0255 H   0  0  0  0  0  0  0  0  0  0  0  0
   -9.9956   18.4998  -32.4767 H   0  0  0  0  0  0  0  0  0  0  0  0
   -7.3452   17.2824  -32.2558 H   0  0  0  0  0  0  0  0  0  0  0  0
   -8.0761   17.9359  -33.7141 H   0  0  0  0  0  0  0  0  0  0  0  0
  1  2  1  0
  2  3  1  0
  3  4  2  0
  4  5  1  0
  5  6  1  0
  6  7  1  0
  7  8  1  0
  8  9  1  0
  9 10  1  0
 10 11  2  0
 11 12  1  0
 12 13  2  0
 13 14  1  0
 14 15  2  0
 15 16  1  0
 16 17  1  0
 17 18  1  0
 18 19  1  0
 19 20  1  0
 20 21  1  0
 13 22  1  0
 22 23  1  0
 23 24  1  0
  6  2  2  0
 15 10  1  0
 21 16  1  0
 24 12  1  0
  1 25  1  0
  1 26  1  0
  1 27  1  0
  4 28  1  0
  7 29  1  0
  7 30  1  0
  8 31  1  0
  9 32  1  0
  9 33  1  0
 11 34  1  0
 14 35  1  0
 17 36  1  0
 17 37  1  0
 18 38  1  0
 18 39  1  0
 20 40  1  0
 20 41  1  0
 21 42  1  0
 21 43  1  0
 22 44  1  0
 22 45  1  0
 23 46  1  0
 23 47  1  0
 24 48  1  0
 24 49  1  0
M  CHG  1  14   1
M  END
>  <UniqueID>  (14) 
14

>  <SMILES>  (14) 
Cc1ncsc1CNCc1cc2c([nH+]c1N1CCOCC1)CCC2

>  <Energy>  (14) 
92.23340207160834

>  <Genealogy>  (14) 
Cc1ncsc1CNCc1cc2c([nH+]c1N1CCOCC1)CCC2 (protonated)
Cc1ncsc1CNCc1cc2c([nH+]c1N1CCOCC1)CCC2 (3D coordinates assigned)
Cc1ncsc1CNCc1cc2c([nH+]c1N1CCOCC1)CCC2 (nonaromatic ring conformer: 92.23340207160834 kcal/mol)

>  <smiles>  (14) 
Cc1ncsc1CNCc1cc2c(nc1N1CCOCC1)CCC2

>  <score_type>  (14) 
oracle

>  <origin>  (14) 
adg

>  <m_score__min__energy>  (14) 
-8.1400000000000006

>  <m_primary>  (14) 
energy

$$$$
14:0
     RDKit          3D

 36 39  0  0  0  0  0  0  0  0999 V2000
   -2.6000   21.6540  -32.1620 C   0  0  0  0  0  0  0  0  0  0  0  0
   -3.5610   22.6880  -31.9720 O   0  0  0  0  0  0  0  0  0  0  0  0
   -4.9490   22.4910  -31.9620 C   0  0  0  0  0  0  0  0  0  0  0  0
   -5.7770   23.6150  -31.9010 C   0  0  0  0  0  0  0  0  0  0  0  0
   -7.1640   23.4790  -31.8980 C   0  0  0  0  0  0  0  0  0  0  0  0
   -7.7510   22.2060  -31.9440 C   0  0  0  0  0  0  0  0  0  0  0  0
   -9.1470   22.0790  -31.9680 C   0  0  0  0  0  0  0  0  0  0  0  0
   -9.7370   20.8180  -32.0350 C   0  0  0  0  0  0  0  0  0  0  0  0
   -8.9430   19.6720  -32.0560 C   0  0  0  0  0  0  0  0  0  0  0  0
   -7.5440   19.7660  -32.0050 C   0  0  0  0  0  0  0  0  0  0  0  0
   -6.7670   18.5080  -31.9680 C   0  0  0  0  0  0  0  0  0  0  0  0
   -6.5550   17.6980  -30.8530 C   0  0  0  0  0  0  0  0  0  0  0  0
   -5.7450   16.6600  -31.1670 N   0  0  0  0  0  0  0  0  0  0  0  0
   -5.4330   16.8230  -32.4630 C   0  0  0  0  0  0  0  0  0  0  0  0
   -4.6110   16.0300  -33.1980 N   0  0  0  0  0  0  0  0  0  0  0  0
   -4.3650   16.3560  -34.5030 C   0  0  0  0  0  0  0  0  0  0  0  0
   -4.9470   17.5080  -35.0780 C   0  0  0  0  0  0  0  0  0  0  0  0
   -5.7910   18.3250  -34.3050 C   0  0  0  0  0  0  0  0  0  0  0  0
   -6.0250   17.9390  -32.9870 C   0  0  0  0  0  0  0  0  0  0  0  0
   -6.9310   21.0470  -31.9770 C   0  0  0  0  0  0  0  0  0  0  0  0
   -5.5300   21.2100  -32.0130 C   0  0  0  0  0  0  0  0  0  0  0  0
   -2.2584   21.2865  -31.1831 H   0  0  0  0  0  0  0  0  0  0  0  0
   -3.0576   20.8270  -32.7248 H   0  0  0  0  0  0  0  0  0  0  0  0
   -1.7418   22.0499  -32.7248 H   0  0  0  0  0  0  0  0  0  0  0  0
   -5.3289   24.6186  -31.8548 H   0  0  0  0  0  0  0  0  0  0  0  0
   -7.8016   24.3745  -31.8594 H   0  0  0  0  0  0  0  0  0  0  0  0
   -9.7794   22.9784  -31.9338 H   0  0  0  0  0  0  0  0  0  0  0  0
  -10.8326   20.7266  -32.0714 H   0  0  0  0  0  0  0  0  0  0  0  0
   -9.4192   18.6821  -32.1133 H   0  0  0  0  0  0  0  0  0  0  0  0
   -6.9860   17.8775  -29.8570 H   0  0  0  0  0  0  0  0  0  0  0  0
   -5.4170   15.9030  -30.5270 H   0  0  0  0  0  0  0  0  0  0  0  0
   -4.1680   15.1850  -32.7720 H   0  0  0  0  0  0  0  0  0  0  0  0
   -3.7083   15.7158  -35.1104 H   0  0  0  0  0  0  0  0  0  0  0  0
   -4.7404   17.7650  -36.1274 H   0  0  0  0  0  0  0  0  0  0  0  0
   -6.2485   19.2332  -34.7245 H   0  0  0  0  0  0  0  0  0  0  0  0
   -4.8826   20.3234  -32.0819 H   0  0  0  0  0  0  0  0  0  0  0  0
  1  2  1  0
  2  3  1  0
  3  4  2  0
  4  5  1  0
  5  6  2  0
  6  7  1  0
  7  8  2  0
  8  9  1  0
  9 10  2  0
 10 11  1  0
 11 12  2  0
 12 13  1  0
 13 14  1  0
 14 15  2  0
 15 16  1  0
 16 17  2  0
 17 18  1  0
 18 19  2  0
 10 20  1  0
 20 21  2  0
 21  3  1  0
 20  6  1  0
 19 11  1  0
 19 14  1  0
  1 22  1  0
  1 23  1  0
  1 24  1  0
  4 25  1  0
  5 26  1  0
  7 27  1  0
  8 28  1  0
  9 29  1  0
 12 30  1  0
 13 31  1  0
 15 32  1  0
 16 33  1  0
 17 34  1  0
 18 35  1  0
 21 36  1  0
M  CHG  1  15   1
M  END
>  <UniqueID>  (15) 
15

>  <SMILES>  (15) 
COc1ccc2cccc(-c3c[nH]c4[nH+]cccc34)c2c1

>  <Energy>  (15) 
84.8209183277072

>  <Genealogy>  (15) 
COc1ccc2cccc(-c3c[nH]c4[nH+]cccc34)c2c1 (protonated)
COc1ccc2cccc(-c3c[nH]c4[nH+]cccc34)c2c1 (3D coordinates assigned)
COc1ccc2cccc(-c3c[nH]c4[nH+]cccc34)c2c1 (optimized conformer: 84.8209183277072 kcal/mol)

>  <smiles>  (15) 
COc1ccc2cccc(-c3c[nH]c4ncccc34)c2c1

>  <score_type>  (15) 
oracle

>  <origin>  (15) 
adg

>  <m_score__min__energy>  (15) 
-7.8099999999999996

>  <m_primary>  (15) 
energy

$$$$
15:0
     RDKit          3D

 47 49  0  0  0  0  0  0  0  0999 V2000
   -4.1410   22.1470  -33.0980 C   0  0  0  0  0  0  0  0  0  0  0  0
   -3.0780   21.4510  -32.3570 N   0  0  0  0  0  0  0  0  0  0  0  0
   -3.5780   20.2530  -31.6450 C   0  0  0  0  0  0  0  0  0  0  0  0
   -3.2300   18.9270  -32.3470 C   0  0  0  0  0  0  0  0  0  0  0  0
   -3.2350   19.1010  -33.8100 N   0  0  0  0  0  0  0  0  0  0  0  0
   -3.1310   17.7890  -34.5020 C   0  0  0  0  0  0  0  0  0  0  0  0
   -4.4560   17.2130  -34.8070 N   0  0  0  0  0  0  0  0  0  0  0  0
   -4.9350   16.1870  -33.8710 C   0  0  0  0  0  0  0  0  0  0  0  0
   -5.5770   16.7960  -32.6270 C   0  0  0  0  0  0  0  0  0  0  0  0
   -6.4540   17.9740  -32.9540 C   0  0  0  0  0  0  0  0  0  0  0  0
   -7.4140   18.3940  -31.9630 N   0  0  0  0  0  0  0  0  0  0  0  0
   -7.9890   19.7080  -31.8520 C   0  0  0  0  0  0  0  0  0  0  0  0
   -7.1510   20.8030  -31.5880 C   0  0  0  0  0  0  0  0  0  0  0  0
   -7.6750   22.0980  -31.5140 C   0  0  0  0  0  0  0  0  0  0  0  0
   -9.0400   22.3120  -31.7200 C   0  0  0  0  0  0  0  0  0  0  0  0
   -9.8810   21.2350  -32.0060 C   0  0  0  0  0  0  0  0  0  0  0  0
   -9.3600   19.9390  -32.0790 C   0  0  0  0  0  0  0  0  0  0  0  0
   -6.3650   18.5890  -34.1030 N   0  0  0  0  0  0  0  0  0  0  0  0
   -5.4940   18.1790  -35.2090 C   0  0  0  0  0  0  0  0  0  0  0  0
   -2.1650   20.0370  -34.2320 C   0  0  0  0  0  0  0  0  0  0  0  0
   -1.9060   21.1660  -33.2070 C   0  0  0  0  0  0  0  0  0  0  0  0
   -4.8431   22.6067  -32.3868 H   0  0  0  0  0  0  0  0  0  0  0  0
   -3.6955   22.9288  -33.7307 H   0  0  0  0  0  0  0  0  0  0  0  0
   -4.6794   21.4260  -33.7307 H   0  0  0  0  0  0  0  0  0  0  0  0
   -3.1376   20.2387  -30.6371 H   0  0  0  0  0  0  0  0  0  0  0  0
   -4.6753   20.3268  -31.6217 H   0  0  0  0  0  0  0  0  0  0  0  0
   -2.2309   18.5982  -32.0250 H   0  0  0  0  0  0  0  0  0  0  0  0
   -3.9831   18.1725  -32.0758 H   0  0  0  0  0  0  0  0  0  0  0  0
   -2.5797   17.9279  -35.4437 H   0  0  0  0  0  0  0  0  0  0  0  0
   -2.6068   17.0934  -33.8302 H   0  0  0  0  0  0  0  0  0  0  0  0
   -5.6798   15.5602  -34.3832 H   0  0  0  0  0  0  0  0  0  0  0  0
   -4.0672   15.5937  -33.5471 H   0  0  0  0  0  0  0  0  0  0  0  0
   -6.1882   16.0269  -32.1321 H   0  0  0  0  0  0  0  0  0  0  0  0
   -4.7684   17.1510  -31.9712 H   0  0  0  0  0  0  0  0  0  0  0  0
   -7.7280   17.6770  -31.2700 H   0  0  0  0  0  0  0  0  0  0  0  0
   -6.0733   20.6413  -31.4381 H   0  0  0  0  0  0  0  0  0  0  0  0
   -7.0122   22.9478  -31.2936 H   0  0  0  0  0  0  0  0  0  0  0  0
   -9.4525   23.3298  -31.6568 H   0  0  0  0  0  0  0  0  0  0  0  0
  -10.9546   21.4058  -32.1741 H   0  0  0  0  0  0  0  0  0  0  0  0
  -10.0248   19.0950  -32.3151 H   0  0  0  0  0  0  0  0  0  0  0  0
   -7.0430   19.3500  -34.3310 H   0  0  0  0  0  0  0  0  0  0  0  0
   -6.1158   17.7181  -35.9906 H   0  0  0  0  0  0  0  0  0  0  0  0
   -4.9774   19.0813  -35.5683 H   0  0  0  0  0  0  0  0  0  0  0  0
   -1.2342   19.4665  -34.3668 H   0  0  0  0  0  0  0  0  0  0  0  0
   -2.4961   20.5129  -35.1668 H   0  0  0  0  0  0  0  0  0  0  0  0
   -1.0679   20.8672  -32.5602 H   0  0  0  0  0  0  0  0  0  0  0  0
   -1.6799   22.0809  -33.7743 H   0  0  0  0  0  0  0  0  0  0  0  0
  1  2  1  0
  2  3  1  0
  3  4  1  0
  4  5  1  0
  5  6  1  0
  6  7  1  0
  7  8  1  0
  8  9  1  0
  9 10  1  0
 10 11  1  0
 11 12  1  0
 12 13  2  0
 13 14  1  0
 14 15  2  0
 15 16  1  0
 16 17  2  0
 10 18  2  0
 18 19  1  0
  5 20  1  0
 20 21  1  0
 21  2  1  0
 19  7  1  0
 17 12  1  0
  1 22  1  0
  1 23  1  0
  1 24  1  0
  3 25  1  0
  3 26  1  0
  4 27  1  0
  4 28  1  0
  6 29  1  0
  6 30  1  0
  8 31  1  0
  8 32  1  0
  9 33  1  0
  9 34  1  0
 11 35  1  0
 13 36  1  0
 14 37  1  0
 15 38  1  0
 16 39  1  0
 17 40  1  0
 18 41  1  0
 19 42  1  0
 19 43  1  0
 20 44  1  0
 20 45  1  0
 21 46  1  0
 21 47  1  0
M  CHG  1  18   1
M  END
>  <UniqueID>  (16) 
16

>  <SMILES>  (16) 
CN1CCN(CN2CCC(Nc3ccccc3)=[NH+]C2)CC1

>  <Energy>  (16) 
71.71932820812157

>  <Genealogy>  (16) 
CN1CCN(CN2CCC(Nc3ccccc3)=[NH+]C2)CC1 (protonated)
CN1CCN(CN2CCC(Nc3ccccc3)=[NH+]C2)CC1 (3D coordinates assigned)
CN1CCN(CN2CCC(Nc3ccccc3)=[NH+]C2)CC1 (nonaromatic ring conformer: 71.71932820812157 kcal/mol)

>  <smiles>  (16) 
CN1CCN(CN2CCC(Nc3ccccc3)=NC2)CC1

>  <score_type>  (16) 
oracle

>  <origin>  (16) 
adg

>  <m_score__min__energy>  (16) 
-6.1200000000000001

>  <m_primary>  (16) 
energy

$$$$
16:0
     RDKit          3D

 30 32  0  0  0  0  0  0  0  0999 V2000
   -6.0140   25.2650  -29.2750 C   0  0  0  0  0  0  0  0  0  0  0  0
   -6.8970   24.9190  -30.4700 C   0  0  0  0  0  0  0  0  0  0  0  0
   -6.3820   23.7190  -31.1590 N   0  0  0  0  0  0  0  0  0  0  0  0
   -5.0390   23.6110  -31.4590 C   0  0  0  0  0  0  0  0  0  0  0  0
   -4.2380   24.5380  -31.1640 O   0  0  0  0  0  0  0  0  0  0  0  0
   -4.5510   22.4980  -32.0740 N   0  0  0  0  0  0  0  0  0  0  0  0
   -5.4100   21.5020  -32.3760 C   0  0  0  0  0  0  0  0  0  0  0  0
   -5.1490   20.2980  -32.9810 C   0  0  0  0  0  0  0  0  0  0  0  0
   -3.9820   19.7230  -33.4730 C   0  0  0  0  0  0  0  0  0  0  0  0
   -4.0830   18.4400  -34.0400 C   0  0  0  0  0  0  0  0  0  0  0  0
   -5.3300   17.7760  -34.0970 C   0  0  0  0  0  0  0  0  0  0  0  0
   -6.4930   18.3850  -33.5890 C   0  0  0  0  0  0  0  0  0  0  0  0
   -6.3720   19.6630  -33.0300 C   0  0  0  0  0  0  0  0  0  0  0  0
   -7.3260   20.4570  -32.4740 N   0  0  0  0  0  0  0  0  0  0  0  0
   -8.7530   20.1610  -32.3220 C   0  0  0  0  0  0  0  0  0  0  0  0
   -6.7160   21.5770  -32.0800 N   0  0  0  0  0  0  0  0  0  0  0  0
   -7.2280   22.6760  -31.4630 C   0  0  0  0  0  0  0  0  0  0  0  0
   -8.4540   22.7350  -31.1710 O   0  0  0  0  0  0  0  0  0  0  0  0
   -6.5581   25.0518  -28.3431 H   0  0  0  0  0  0  0  0  0  0  0  0
   -5.0959   24.6601  -29.3101 H   0  0  0  0  0  0  0  0  0  0  0  0
   -5.7513   26.3326  -29.3101 H   0  0  0  0  0  0  0  0  0  0  0  0
   -7.9214   24.7244  -30.1196 H   0  0  0  0  0  0  0  0  0  0  0  0
   -6.8929   25.7644  -31.1738 H   0  0  0  0  0  0  0  0  0  0  0  0
   -3.0183   20.2508  -33.4207 H   0  0  0  0  0  0  0  0  0  0  0  0
   -3.1846   17.9491  -34.4424 H   0  0  0  0  0  0  0  0  0  0  0  0
   -5.3920   16.7725  -34.5432 H   0  0  0  0  0  0  0  0  0  0  0  0
   -7.4658   17.8732  -33.6299 H   0  0  0  0  0  0  0  0  0  0  0  0
   -9.0047   20.1088  -31.2525 H   0  0  0  0  0  0  0  0  0  0  0  0
   -9.3452   20.9554  -32.7997 H   0  0  0  0  0  0  0  0  0  0  0  0
   -8.9803   19.1966  -32.7997 H   0  0  0  0  0  0  0  0  0  0  0  0
  1  2  1  0
  2  3  1  0
  3  4  1  0
  4  5  2  0
  4  6  1  0
  6  7  2  0
  7  8  1  0
  8  9  2  0
  9 10  1  0
 10 11  2  0
 11 12  1  0
 12 13  2  0
 13 14  1  0
 14 15  1  0
 14 16  1  0
 16 17  1  0
 17 18  2  0
 17  3  1  0
 16  7  1  0
 13  8  1  0
  1 19  1  0
  1 20  1  0
  1 21  1  0
  2 22  1  0
  2 23  1  0
  9 24  1  0
 10 25  1  0
 11 26  1  0
 12 27  1  0
 15 28  1  0
 15 29  1  0
 15 30  1  0
M  END
>  <UniqueID>  (17) 
17

>  <SMILES>  (17) 
CCn1c(=O)nc2c3ccccc3n(C)n2c1=O

>  <Energy>  (17) 
83.57175477813195

>  <Genealogy>  (17) 
CCn1c(=O)nc2c3ccccc3n(C)n2c1=O (3D coordinates assigned)
CCn1c(=O)nc2c3ccccc3n(C)n2c1=O (optimized conformer: 83.57175477813195 kcal/mol)

>  <smiles>  (17) 
CCn1c(=O)nc2c3ccccc3n(C)n2c1=O

>  <score_type>  (17) 
oracle

>  <origin>  (17) 
adg

>  <m_score__min__energy>  (17) 
-7.1100000000000003

>  <m_primary>  (17) 
energy

$$$$
17:0
     RDKit          3D

 27 28  0  0  0  0  0  0  0  0999 V2000
   -6.4560   25.6910  -29.3380 C   0  0  0  0  0  0  0  0  0  0  0  0
   -5.7190   25.4680  -30.6550 C   0  0  0  0  0  0  0  0  0  0  0  0
   -6.0110   24.1050  -31.1970 C   0  0  0  0  0  0  0  0  0  0  0  0
   -7.2110   23.4140  -31.0480 C   0  0  0  0  0  0  0  0  0  0  0  0
   -6.9560   22.2050  -31.6580 C   0  0  0  0  0  0  0  0  0  0  0  0
   -7.7790   21.0930  -31.8300 C   0  0  0  0  0  0  0  0  0  0  0  0
   -8.9670   21.1080  -31.4040 O   0  0  0  0  0  0  0  0  0  0  0  0
   -7.2640   19.9910  -32.4750 N   0  0  0  0  0  0  0  0  0  0  0  0
   -8.0940   18.7990  -32.7120 C   0  0  0  0  0  0  0  0  0  0  0  0
   -7.2330   17.5390  -32.6950 C   0  0  0  0  0  0  0  0  0  0  0  0
   -5.9720   20.0080  -32.9520 C   0  0  0  0  0  0  0  0  0  0  0  0
   -5.1630   21.1390  -32.7660 C   0  0  0  0  0  0  0  0  0  0  0  0
   -5.7000   22.1980  -32.1170 N   0  0  0  0  0  0  0  0  0  0  0  0
   -5.0980   23.3420  -31.8440 N   0  0  0  0  0  0  0  0  0  0  0  0
   -5.7762   25.4853  -28.4980 H   0  0  0  0  0  0  0  0  0  0  0  0
   -6.8015   26.7339  -29.2832 H   0  0  0  0  0  0  0  0  0  0  0  0
   -7.3217   25.0146  -29.2832 H   0  0  0  0  0  0  0  0  0  0  0  0
   -6.0447   26.2245  -31.3842 H   0  0  0  0  0  0  0  0  0  0  0  0
   -4.6372   25.5540  -30.4751 H   0  0  0  0  0  0  0  0  0  0  0  0
   -8.1379   23.7516  -30.5612 H   0  0  0  0  0  0  0  0  0  0  0  0
   -8.8578   18.7267  -31.9237 H   0  0  0  0  0  0  0  0  0  0  0  0
   -8.5748   18.8892  -33.6972 H   0  0  0  0  0  0  0  0  0  0  0  0
   -7.0327   17.2458  -31.6539 H   0  0  0  0  0  0  0  0  0  0  0  0
   -7.7644   16.7248  -33.2094 H   0  0  0  0  0  0  0  0  0  0  0  0
   -6.2813   17.7382  -33.2094 H   0  0  0  0  0  0  0  0  0  0  0  0
   -5.5725   19.1304  -33.4814 H   0  0  0  0  0  0  0  0  0  0  0  0
   -4.1271   21.1641  -33.1353 H   0  0  0  0  0  0  0  0  0  0  0  0
  1  2  1  0
  2  3  1  0
  3  4  1  0
  4  5  2  0
  5  6  1  0
  6  7  2  0
  6  8  1  0
  8  9  1  0
  9 10  1  0
  8 11  1  0
 11 12  2  0
 12 13  1  0
 13 14  1  0
 14  3  2  0
 13  5  1  0
  1 15  1  0
  1 16  1  0
  1 17  1  0
  2 18  1  0
  2 19  1  0
  4 20  1  0
  9 21  1  0
  9 22  1  0
 10 23  1  0
 10 24  1  0
 10 25  1  0
 11 26  1  0
 12 27  1  0
M  END
>  <UniqueID>  (18) 
18

>  <SMILES>  (18) 
CCc1cc2c(=O)n(CC)ccn2n1

>  <Energy>  (18) 
58.42460514361886

>  <Genealogy>  (18) 
CCc1cc2c(=O)n(CC)ccn2n1 (3D coordinates assigned)
CCc1cc2c(=O)n(CC)ccn2n1 (optimized conformer: 58.42460514361886 kcal/mol)

>  <smiles>  (18) 
CCc1cc2c(=O)n(CC)ccn2n1

>  <score_type>  (18) 
oracle

>  <origin>  (18) 
adg

>  <m_score__min__energy>  (18) 
-5.6799999999999997

>  <m_primary>  (18) 
energy

$$$$
18:0
     RDKit          3D

 39 38  0  0  0  0  0  0  0  0999 V2000
   -3.3360   21.1930  -33.1940 C   0  0  0  0  0  0  0  0  0  0  0  0
   -4.1090   21.9850  -32.1360 C   0  0  0  0  0  0  0  0  0  0  0  0
   -5.5520   22.0410  -32.4140 N   0  0  0  0  0  0  0  0  0  0  0  0
   -6.0870   23.4060  -32.3140 C   0  0  0  0  0  0  0  0  0  0  0  0
   -7.1670   23.4790  -31.2290 C   0  0  0  0  0  0  0  0  0  0  0  0
   -8.3950   22.6250  -31.5850 C   0  0  0  0  0  0  0  0  0  0  0  0
   -7.9870   21.3390  -32.1730 N   0  0  0  0  0  0  0  0  0  0  0  0
   -9.1180   20.3860  -32.2580 C   0  0  0  0  0  0  0  0  0  0  0  0
   -8.6610   18.9130  -32.3240 C   0  0  0  0  0  0  0  0  0  0  0  0
   -7.1420   18.7150  -32.2230 C   0  0  0  0  0  0  0  0  0  0  0  0
   -6.4320   19.6180  -33.1420 N   0  0  0  0  0  0  0  0  0  0  0  0
   -5.9280   18.9130  -34.3310 C   0  0  0  0  0  0  0  0  0  0  0  0
   -6.1030   17.3940  -34.2340 C   0  0  0  0  0  0  0  0  0  0  0  0
   -2.6503   20.4905  -32.6977 H   0  0  0  0  0  0  0  0  0  0  0  0
   -4.0439   20.6324  -33.8222 H   0  0  0  0  0  0  0  0  0  0  0  0
   -2.7584   21.8871  -33.8222 H   0  0  0  0  0  0  0  0  0  0  0  0
   -3.9571   21.5067  -31.1571 H   0  0  0  0  0  0  0  0  0  0  0  0
   -3.7272   23.0166  -32.1471 H   0  0  0  0  0  0  0  0  0  0  0  0
   -5.7350   21.6710  -33.3770 H   0  0  0  0  0  0  0  0  0  0  0  0
   -5.2703   24.0975  -32.0594 H   0  0  0  0  0  0  0  0  0  0  0  0
   -6.5325   23.6860  -33.2800 H   0  0  0  0  0  0  0  0  0  0  0  0
   -6.7438   23.1158  -30.2808 H   0  0  0  0  0  0  0  0  0  0  0  0
   -7.4931   24.5260  -31.1421 H   0  0  0  0  0  0  0  0  0  0  0  0
   -8.9784   22.4348  -30.6721 H   0  0  0  0  0  0  0  0  0  0  0  0
   -9.0020   23.1717  -32.3216 H   0  0  0  0  0  0  0  0  0  0  0  0
   -7.5580   21.4990  -33.1150 H   0  0  0  0  0  0  0  0  0  0  0  0
   -7.2460   20.9220  -31.5600 H   0  0  0  0  0  0  0  0  0  0  0  0
   -9.7539   20.5164  -31.3700 H   0  0  0  0  0  0  0  0  0  0  0  0
   -9.6629   20.6038  -33.1884 H   0  0  0  0  0  0  0  0  0  0  0  0
   -9.1349   18.3683  -31.4941 H   0  0  0  0  0  0  0  0  0  0  0  0
   -8.9618   18.5350  -33.3123 H   0  0  0  0  0  0  0  0  0  0  0  0
   -6.8195   18.9238  -31.1923 H   0  0  0  0  0  0  0  0  0  0  0  0
   -6.9042   17.6767  -32.4974 H   0  0  0  0  0  0  0  0  0  0  0  0
   -5.6240   20.0620  -32.6480 H   0  0  0  0  0  0  0  0  0  0  0  0
   -6.4756   19.2750  -35.2136 H   0  0  0  0  0  0  0  0  0  0  0  0
   -4.8504   19.1198  -34.4089 H   0  0  0  0  0  0  0  0  0  0  0  0
   -6.1374   17.0957  -33.1758 H   0  0  0  0  0  0  0  0  0  0  0  0
   -7.0409   17.1006  -34.7283 H   0  0  0  0  0  0  0  0  0  0  0  0
   -5.2564   16.8951  -34.7283 H   0  0  0  0  0  0  0  0  0  0  0  0
  1  2  1  0
  2  3  1  0
  3  4  1  0
  4  5  1  0
  5  6  1  0
  6  7  1  0
  7  8  1  0
  8  9  1  0
  9 10  1  0
 10 11  1  0
 11 12  1  0
 12 13  1  0
  1 14  1  0
  1 15  1  0
  1 16  1  0
  2 17  1  0
  2 18  1  0
  3 19  1  0
  4 20  1  0
  4 21  1  0
  5 22  1  0
  5 23  1  0
  6 24  1  0
  6 25  1  0
  7 26  1  0
  7 27  1  0
  8 28  1  0
  8 29  1  0
  9 30  1  0
  9 31  1  0
 10 32  1  0
 10 33  1  0
 11 34  1  0
 12 35  1  0
 12 36  1  0
 13 37  1  0
 13 38  1  0
 13 39  1  0
M  CHG  1   7   1
M  END
>  <UniqueID>  (19) 
19

>  <SMILES>  (19) 
CCNCCC[NH2+]CCCNCC

>  <Energy>  (19) 
24.460391225882745

>  <Genealogy>  (19) 
CCNCCC[NH2+]CCCNCC (protonated)
CCNCCC[NH2+]CCCNCC (3D coordinates assigned)
CCNCCC[NH2+]CCCNCC (optimized conformer: 24.460391225882745 kcal/mol)

>  <smiles>  (19) 
CCNCCCNCCCNCC

>  <score_type>  (19) 
oracle

>  <origin>  (19) 
adg

>  <m_score__min__energy>  (19) 
-2.9900000000000002

>  <m_primary>  (19) 
energy

$$$$
19:0
     RDKit          3D

 49 51  0  0  0  0  0  0  0  0999 V2000
    0.0060   24.6870  -27.8430 C   0  0  0  0  0  0  0  0  0  0  0  0
   -1.1740   25.5820  -28.2260 C   0  0  0  0  0  0  0  0  0  0  0  0
   -2.4040   24.8430  -28.6030 N   0  0  0  0  0  0  0  0  0  0  0  0
   -3.3050   24.5000  -27.4770 C   0  0  0  0  0  0  0  0  0  0  0  0
   -3.0040   25.2450  -26.1670 C   0  0  0  0  0  0  0  0  0  0  0  0
   -2.2320   23.7960  -29.6330 C   0  0  0  0  0  0  0  0  0  0  0  0
   -3.5150   23.5870  -30.4500 C   0  0  0  0  0  0  0  0  0  0  0  0
   -4.3320   24.8130  -30.4790 N   0  0  0  0  0  0  0  0  0  0  0  0
   -5.7460   24.5750  -30.8250 C   0  0  0  0  0  0  0  0  0  0  0  0
   -5.9330   23.8630  -32.1790 C   0  0  0  0  0  0  0  0  0  0  0  0
   -6.9380   22.7420  -32.1040 C   0  0  0  0  0  0  0  0  0  0  0  0
   -8.2230   22.9710  -31.5740 C   0  0  0  0  0  0  0  0  0  0  0  0
   -9.1380   21.9130  -31.4280 C   0  0  0  0  0  0  0  0  0  0  0  0
   -8.7840   20.6070  -31.7990 C   0  0  0  0  0  0  0  0  0  0  0  0
   -7.5070   20.3730  -32.3210 C   0  0  0  0  0  0  0  0  0  0  0  0
   -6.6090   21.4290  -32.4760 C   0  0  0  0  0  0  0  0  0  0  0  0
   -5.1510   20.8540  -33.1120 S   0  0  0  0  0  0  0  0  0  0  0  0
   -5.6600   19.2500  -33.1850 C   0  0  0  0  0  0  0  0  0  0  0  0
   -4.9330   18.1460  -33.6230 C   0  0  0  0  0  0  0  0  0  0  0  0
   -5.5510   16.8890  -33.5920 C   0  0  0  0  0  0  0  0  0  0  0  0
   -6.8740   16.7570  -33.1270 C   0  0  0  0  0  0  0  0  0  0  0  0
   -7.5910   17.8830  -32.6880 C   0  0  0  0  0  0  0  0  0  0  0  0
   -6.9680   19.1380  -32.7220 C   0  0  0  0  0  0  0  0  0  0  0  0
    0.0820   24.6294  -26.7471 H   0  0  0  0  0  0  0  0  0  0  0  0
   -0.1505   23.6784  -28.2532 H   0  0  0  0  0  0  0  0  0  0  0  0
    0.9350   25.1096  -28.2532 H   0  0  0  0  0  0  0  0  0  0  0  0
   -1.4097   26.2276  -27.3671 H   0  0  0  0  0  0  0  0  0  0  0  0
   -0.8629   26.1499  -29.1152 H   0  0  0  0  0  0  0  0  0  0  0  0
   -4.3360   24.7378  -27.7779 H   0  0  0  0  0  0  0  0  0  0  0  0
   -3.1518   23.4306  -27.2698 H   0  0  0  0  0  0  0  0  0  0  0  0
   -3.2634   24.6031  -25.3122 H   0  0  0  0  0  0  0  0  0  0  0  0
   -1.9339   25.4961  -26.1256 H   0  0  0  0  0  0  0  0  0  0  0  0
   -3.5993   26.1690  -26.1256 H   0  0  0  0  0  0  0  0  0  0  0  0
   -1.4209   24.0950  -30.3133 H   0  0  0  0  0  0  0  0  0  0  0  0
   -1.9916   22.8508  -29.1243 H   0  0  0  0  0  0  0  0  0  0  0  0
   -3.2440   23.3116  -31.4799 H   0  0  0  0  0  0  0  0  0  0  0  0
   -4.1033   22.7866  -29.9774 H   0  0  0  0  0  0  0  0  0  0  0  0
   -4.2660   25.2940  -29.5500 H   0  0  0  0  0  0  0  0  0  0  0  0
   -6.1975   23.9526  -30.0384 H   0  0  0  0  0  0  0  0  0  0  0  0
   -6.2308   25.5591  -30.9058 H   0  0  0  0  0  0  0  0  0  0  0  0
   -6.2787   24.5985  -32.9203 H   0  0  0  0  0  0  0  0  0  0  0  0
   -4.9646   23.4270  -32.4656 H   0  0  0  0  0  0  0  0  0  0  0  0
   -8.5137   23.9878  -31.2712 H   0  0  0  0  0  0  0  0  0  0  0  0
  -10.1399   22.1111  -31.0194 H   0  0  0  0  0  0  0  0  0  0  0  0
   -9.4994   19.7797  -31.6813 H   0  0  0  0  0  0  0  0  0  0  0  0
   -3.9000   18.2580  -33.9841 H   0  0  0  0  0  0  0  0  0  0  0  0
   -4.9999   16.0001  -33.9327 H   0  0  0  0  0  0  0  0  0  0  0  0
   -7.3494   15.7652  -33.1074 H   0  0  0  0  0  0  0  0  0  0  0  0
   -8.6239   17.7811  -32.3238 H   0  0  0  0  0  0  0  0  0  0  0  0
  1  2  1  0
  2  3  1  0
  3  4  1  0
  4  5  1  0
  3  6  1  0
  6  7  1  0
  7  8  1  0
  8  9  1  0
  9 10  1  0
 10 11  1  0
 11 12  2  0
 12 13  1  0
 13 14  2  0
 14 15  1  0
 15 16  2  0
 16 17  1  0
 17 18  1  0
 18 19  2  0
 19 20  1  0
 20 21  2  0
 21 22  1  0
 22 23  2  0
 16 11  1  0
 23 18  1  0
 23 15  1  0
  1 24  1  0
  1 25  1  0
  1 26  1  0
  2 27  1  0
  2 28  1  0
  4 29  1  0
  4 30  1  0
  5 31  1  0
  5 32  1  0
  5 33  1  0
  6 34  1  0
  6 35  1  0
  7 36  1  0
  7 37  1  0
  8 38  1  0
  9 39  1  0
  9 40  1  0
 10 41  1  0
 10 42  1  0
 12 43  1  0
 13 44  1  0
 14 45  1  0
 19 46  1  0
 20 47  1  0
 21 48  1  0
 22 49  1  0
M  END
>  <UniqueID>  (20) 
20

>  <SMILES>  (20) 
CCN(CC)CCNCCc1cccc2c1sc1ccccc12

>  <Energy>  (20) 
90.23136089565276

>  <Genealogy>  (20) 
CCN(CC)CCNCCc1cccc2c1sc1ccccc12 (3D coordinates assigned)
CCN(CC)CCNCCc1cccc2c1sc1ccccc12 (optimized conformer: 90.23136089565276 kcal/mol)

>  <smiles>  (20) 
CCN(CC)CCNCCc1cccc2c1sc1ccccc12

>  <score_type>  (20) 
oracle

>  <origin>  (20) 
adg

>  <m_score__min__energy>  (20) 
-9.0700000000000003

>  <m_primary>  (20) 
energy

$$$$
20:0
     RDKit          3D

 62 64  0  0  0  0  0  0  0  0999 V2000
   -6.4314   24.5386  -32.7203 H   0  0  0  0  0  0  0  0  0  0  0  0
   -6.5960   23.9480  -31.8070 C   0  0  0  0  0  0  0  0  0  0  0  0
   -6.2170   24.4470  -30.6270 C   0  0  0  0  0  0  0  0  0  0  0  0
   -6.6308   24.0212  -29.7010 H   0  0  0  0  0  0  0  0  0  0  0  0
   -5.2350   25.5800  -30.5450 C   0  0  0  0  0  0  0  0  0  0  0  0
   -5.3732   26.1109  -29.5916 H   0  0  0  0  0  0  0  0  0  0  0  0
   -5.4094   26.2647  -31.3881 H   0  0  0  0  0  0  0  0  0  0  0  0
   -3.8580   25.0720  -30.6210 N   0  0  0  0  0  0  0  0  0  0  0  0
   -3.4910   25.2910  -31.5770 H   0  0  0  0  0  0  0  0  0  0  0  0
   -3.8270   23.6100  -30.4570 C   0  0  0  0  0  0  0  0  0  0  0  0
   -3.0035   23.1983  -31.0590 H   0  0  0  0  0  0  0  0  0  0  0  0
   -4.7920   23.2005  -30.7904 H   0  0  0  0  0  0  0  0  0  0  0  0
   -3.6150   23.2230  -28.9860 C   0  0  0  0  0  0  0  0  0  0  0  0
   -4.1344   22.2710  -28.8017 H   0  0  0  0  0  0  0  0  0  0  0  0
   -4.0138   24.0509  -28.3813 H   0  0  0  0  0  0  0  0  0  0  0  0
   -2.1380   23.0530  -28.5830 C   0  0  0  0  0  0  0  0  0  0  0  0
   -1.7995   22.0534  -28.8933 H   0  0  0  0  0  0  0  0  0  0  0  0
   -2.0702   23.1798  -27.4924 H   0  0  0  0  0  0  0  0  0  0  0  0
   -1.2660   24.0650  -29.2100 N   0  0  0  0  0  0  0  0  0  0  0  0
   -1.8260   24.5760  -29.9320 H   0  0  0  0  0  0  0  0  0  0  0  0
   -0.4660   23.6030  -29.6980 H   0  0  0  0  0  0  0  0  0  0  0  0
   -0.7620   25.0480  -28.2240 C   0  0  0  0  0  0  0  0  0  0  0  0
   -0.4951   25.9728  -28.7564 H   0  0  0  0  0  0  0  0  0  0  0  0
    0.1073   24.5958  -27.7241 H   0  0  0  0  0  0  0  0  0  0  0  0
   -1.7950   25.3910  -27.1310 C   0  0  0  0  0  0  0  0  0  0  0  0
   -1.9715   24.4934  -26.5201 H   0  0  0  0  0  0  0  0  0  0  0  0
   -2.7123   25.7276  -27.6362 H   0  0  0  0  0  0  0  0  0  0  0  0
   -1.3320   26.5250  -26.2120 C   0  0  0  0  0  0  0  0  0  0  0  0
   -1.6878   27.4868  -26.6099 H   0  0  0  0  0  0  0  0  0  0  0  0
   -0.2331   26.5299  -26.1636 H   0  0  0  0  0  0  0  0  0  0  0  0
   -1.8780   26.3220  -24.8640 N   0  0  0  0  0  0  0  0  0  0  0  0
   -2.4180   27.1740  -24.5850 H   0  0  0  0  0  0  0  0  0  0  0  0
   -0.8250   26.0670  -23.8680 C   0  0  0  0  0  0  0  0  0  0  0  0
   -0.1974   25.2370  -24.2247 H   0  0  0  0  0  0  0  0  0  0  0  0
   -1.3207   25.8239  -22.9166 H   0  0  0  0  0  0  0  0  0  0  0  0
    0.0690   27.2870  -23.6240 C   0  0  0  0  0  0  0  0  0  0  0  0
    0.1853   27.4458  -22.5418 H   0  0  0  0  0  0  0  0  0  0  0  0
    1.0562   27.1147  -24.0775 H   0  0  0  0  0  0  0  0  0  0  0  0
   -0.3927   28.1765  -24.0775 H   0  0  0  0  0  0  0  0  0  0  0  0
   -7.2320   22.6180  -31.9090 C   0  0  0  0  0  0  0  0  0  0  0  0
   -8.5740   22.5200  -31.5320 C   0  0  0  0  0  0  0  0  0  0  0  0
   -9.0924   23.4017  -31.1272 H   0  0  0  0  0  0  0  0  0  0  0  0
   -9.2590   21.3190  -31.6640 C   0  0  0  0  0  0  0  0  0  0  0  0
  -10.3158   21.2581  -31.3648 H   0  0  0  0  0  0  0  0  0  0  0  0
   -8.6190   20.1910  -32.1720 C   0  0  0  0  0  0  0  0  0  0  0  0
   -9.1835   19.2540  -32.2875 H   0  0  0  0  0  0  0  0  0  0  0  0
   -7.2530   20.2320  -32.5420 C   0  0  0  0  0  0  0  0  0  0  0  0
   -6.5460   21.4630  -32.3780 C   0  0  0  0  0  0  0  0  0  0  0  0
   -5.1670   21.5050  -32.6450 C   0  0  0  0  0  0  0  0  0  0  0  0
   -4.6140   22.4426  -32.4866 H   0  0  0  0  0  0  0  0  0  0  0  0
   -4.4910   20.3840  -33.1050 C   0  0  0  0  0  0  0  0  0  0  0  0
   -3.4094   20.4409  -33.2973 H   0  0  0  0  0  0  0  0  0  0  0  0
   -5.1700   19.1850  -33.3260 C   0  0  0  0  0  0  0  0  0  0  0  0
   -4.4620   18.0770  -33.8180 C   0  0  0  0  0  0  0  0  0  0  0  0
   -3.3845   18.1639  -34.0216 H   0  0  0  0  0  0  0  0  0  0  0  0
   -5.1140   16.8690  -34.0500 C   0  0  0  0  0  0  0  0  0  0  0  0
   -4.5519   16.0048  -34.4338 H   0  0  0  0  0  0  0  0  0  0  0  0
   -6.4770   16.7560  -33.7960 C   0  0  0  0  0  0  0  0  0  0  0  0
   -6.9898   15.8011  -33.9839 H   0  0  0  0  0  0  0  0  0  0  0  0
   -7.2000   17.8460  -33.3040 C   0  0  0  0  0  0  0  0  0  0  0  0
   -8.2775   17.7399  -33.1098 H   0  0  0  0  0  0  0  0  0  0  0  0
   -6.5620   19.0870  -33.0520 C   0  0  0  0  0  0  0  0  0  0  0  0
  1  2  1  0
  2  3  2  0
  3  4  1  0
  3  5  1  0
  5  6  1  0
  5  7  1  0
  5  8  1  0
  8  9  1  0
  8 10  1  0
 10 11  1  0
 10 12  1  0
 10 13  1  0
 13 14  1  0
 13 15  1  0
 13 16  1  0
 16 17  1  0
 16 18  1  0
 16 19  1  0
 19 20  1  0
 19 21  1  0
 19 22  1  0
 22 23  1  0
 22 24  1  0
 22 25  1  0
 25 26  1  0
 25 27  1  0
 25 28  1  0
 28 29  1  0
 28 30  1  0
 28 31  1  0
 31 32  1  0
 31 33  1  0
 33 34  1  0
 33 35  1  0
 33 36  1  0
 36 37  1  0
 36 38  1  0
 36 39  1  0
  2 40  1  0
 40 41  2  0
 41 42  1  0
 41 43  1  0
 43 44  1  0
 43 45  2  0
 45 46  1  0
 45 47  1  0
 47 48  2  0
 48 49  1  0
 49 50  1  0
 49 51  2  0
 51 52  1  0
 51 53  1  0
 53 54  2  0
 54 55  1  0
 54 56  1  0
 56 57  1  0
 56 58  2  0
 58 59  1  0
 58 60  1  0
 60 61  1  0
 60 62  2  0
 48 40  1  0
 62 53  1  0
 62 47  1  0
M  CHG  1  19   1
M  END
>  <UniqueID>  (21) 
21

>  <SMILES>  (21) 
CCNCCC[NH2+]CCCNC/C=C/c1cccc2c1ccc1ccccc12

>  <Energy>  (21) 
68.7451291406447

>  <Genealogy>  (21) 
CCNCCC[NH2+]CCCNCC=Cc1cccc2c1ccc1ccccc12 (protonated)
CCNCCC[NH2+]CCCNC/C=C/c1cccc2c1ccc1ccccc12 (cis-trans isomerization)
CCNCCC[NH2+]CCCNC/C=C/c1cccc2c1ccc1ccccc12 (3D coordinates assigned)
CCNCCC[NH2+]CCCNC/C=C/c1cccc2c1ccc1ccccc12 (optimized conformer: 68.7451291406447 kcal/mol)

>  <smiles>  (21) 
CCNCCCNCCCNCC=Cc1cccc2c1ccc1ccccc12

>  <score_type>  (21) 
oracle

>  <origin>  (21) 
adg

>  <m_score__min__energy>  (21) 
-8.75

>  <m_primary>  (21) 
energy

$$$$
21:0
     RDKit          3D

 43 45  0  0  0  0  0  0  0  0999 V2000
   -1.2450   19.8930  -31.8180 C   0  0  0  0  0  0  0  0  0  0  0  0
   -1.8580   20.1650  -30.4480 C   0  0  0  0  0  0  0  0  0  0  0  0
   -2.4020   21.5330  -30.3870 N   0  0  0  0  0  0  0  0  0  0  0  0
   -1.6400   22.5150  -29.8170 C   0  0  0  0  0  0  0  0  0  0  0  0
   -2.1070   23.8350  -29.7080 C   0  0  0  0  0  0  0  0  0  0  0  0
   -1.2320   24.8660  -29.0870 C   0  0  0  0  0  0  0  0  0  0  0  0
   -1.6170   26.0600  -28.9720 O   0  0  0  0  0  0  0  0  0  0  0  0
    0.0330   24.5270  -28.6200 O   0  0  0  0  0  0  0  0  0  0  0  0
   -3.3960   24.1360  -30.1920 C   0  0  0  0  0  0  0  0  0  0  0  0
   -3.8480   25.3110  -30.1150 O   0  0  0  0  0  0  0  0  0  0  0  0
   -4.1820   23.1190  -30.7600 C   0  0  0  0  0  0  0  0  0  0  0  0
   -5.4770   23.3680  -31.2510 C   0  0  0  0  0  0  0  0  0  0  0  0
   -6.2360   22.3360  -31.8150 C   0  0  0  0  0  0  0  0  0  0  0  0
   -7.6100   22.6330  -32.3530 C   0  0  0  0  0  0  0  0  0  0  0  0
   -5.6960   21.0360  -31.8410 C   0  0  0  0  0  0  0  0  0  0  0  0
   -6.4410   19.9300  -32.3710 N   0  0  0  0  0  0  0  0  0  0  0  0
   -6.1920   19.4690  -33.7400 C   0  0  0  0  0  0  0  0  0  0  0  0
   -6.3180   17.9330  -33.8390 C   0  0  0  0  0  0  0  0  0  0  0  0
   -7.1440   17.3360  -32.7670 N   0  0  0  0  0  0  0  0  0  0  0  0
   -8.2260   18.2280  -32.3290 C   0  0  0  0  0  0  0  0  0  0  0  0
   -7.6410   19.4790  -31.6620 C   0  0  0  0  0  0  0  0  0  0  0  0
   -4.4370   20.8200  -31.3760 N   0  0  0  0  0  0  0  0  0  0  0  0
   -3.6650   21.8090  -30.8450 C   0  0  0  0  0  0  0  0  0  0  0  0
   -0.2462   19.4498  -31.6914 H   0  0  0  0  0  0  0  0  0  0  0  0
   -1.8876   19.1956  -32.3753 H   0  0  0  0  0  0  0  0  0  0  0  0
   -1.1591   20.8375  -32.3753 H   0  0  0  0  0  0  0  0  0  0  0  0
   -2.6690   19.4447  -30.2651 H   0  0  0  0  0  0  0  0  0  0  0  0
   -1.0760   20.0592  -29.6816 H   0  0  0  0  0  0  0  0  0  0  0  0
   -0.6390   22.2655  -29.4353 H   0  0  0  0  0  0  0  0  0  0  0  0
   -5.8967   24.3830  -31.1910 H   0  0  0  0  0  0  0  0  0  0  0  0
   -8.3070   22.7837  -31.5155 H   0  0  0  0  0  0  0  0  0  0  0  0
   -7.5738   23.5441  -32.9684 H   0  0  0  0  0  0  0  0  0  0  0  0
   -7.9533   21.7883  -32.9684 H   0  0  0  0  0  0  0  0  0  0  0  0
   -6.9254   19.9342  -34.4151 H   0  0  0  0  0  0  0  0  0  0  0  0
   -5.1690   19.7555  -34.0254 H   0  0  0  0  0  0  0  0  0  0  0  0
   -6.7734   17.6833  -34.8087 H   0  0  0  0  0  0  0  0  0  0  0  0
   -5.3044   17.5189  -33.7335 H   0  0  0  0  0  0  0  0  0  0  0  0
   -7.5630   16.4440  -33.1190 H   0  0  0  0  0  0  0  0  0  0  0  0
   -6.5360   17.1020  -31.9470 H   0  0  0  0  0  0  0  0  0  0  0  0
   -8.8259   18.5276  -33.2010 H   0  0  0  0  0  0  0  0  0  0  0  0
   -8.8592   17.6962  -31.6036 H   0  0  0  0  0  0  0  0  0  0  0  0
   -8.3929   20.2818  -31.6777 H   0  0  0  0  0  0  0  0  0  0  0  0
   -7.3679   19.2324  -30.6254 H   0  0  0  0  0  0  0  0  0  0  0  0
  1  2  1  0
  2  3  1  0
  3  4  1  0
  4  5  2  0
  5  6  1  0
  6  7  2  0
  6  8  1  0
  5  9  1  0
  9 10  2  0
  9 11  1  0
 11 12  2  0
 12 13  1  0
 13 14  1  0
 13 15  2  0
 15 16  1  0
 16 17  1  0
 17 18  1  0
 18 19  1  0
 19 20  1  0
 20 21  1  0
 15 22  1  0
 22 23  2  0
 23  3  1  0
 23 11  1  0
 21 16  1  0
  1 24  1  0
  1 25  1  0
  1 26  1  0
  2 27  1  0
  2 28  1  0
  4 29  1  0
 12 30  1  0
 14 31  1  0
 14 32  1  0
 14 33  1  0
 17 34  1  0
 17 35  1  0
 18 36  1  0
 18 37  1  0
 19 38  1  0
 19 39  1  0
 20 40  1  0
 20 41  1  0
 21 42  1  0
 21 43  1  0
M  CHG  2   8  -1  19   1
M  END
>  <UniqueID>  (22) 
22

>  <SMILES>  (22) 
CCn1cc(C(=O)[O-])c(=O)c2cc(C)c(N3CC[NH2+]CC3)nc21

>  <Energy>  (22) 
58.400757091537756

>  <Genealogy>  (22) 
CCn1cc(C(=O)[O-])c(=O)c2cc(C)c(N3CC[NH2+]CC3)nc21 (protonated)
CCn1cc(C(=O)[O-])c(=O)c2cc(C)c(N3CC[NH2+]CC3)nc21 (3D coordinates assigned)
CCn1cc(C(=O)[O-])c(=O)c2cc(C)c(N3CC[NH2+]CC3)nc21 (nonaromatic ring conformer: 58.400757091537756 kcal/mol)

>  <smiles>  (22) 
CCn1cc(C(=O)O)c(=O)c2cc(C)c(N3CCNCC3)nc21

>  <score_type>  (22) 
oracle

>  <origin>  (22) 
adg

>  <m_score__min__energy>  (22) 
-8.9299999999999997

>  <m_primary>  (22) 
energy

$$$$
22:0
     RDKit          3D

 43 46  0  0  0  0  0  0  0  0999 V2000
   -9.4910   19.8080  -32.6660 C   0  0  0  0  0  0  0  0  0  0  0  0
   -8.7810   18.6350  -32.0020 C   0  0  0  0  0  0  0  0  0  0  0  0
   -7.3880   18.5700  -32.4420 N   0  0  0  0  0  0  0  0  0  0  0  0
   -6.7910   17.5470  -33.0960 C   0  0  0  0  0  0  0  0  0  0  0  0
   -5.5040   17.8110  -33.4270 N   0  0  0  0  0  0  0  0  0  0  0  0
   -5.3010   19.0620  -32.9650 C   0  0  0  0  0  0  0  0  0  0  0  0
   -4.1390   19.8630  -33.0320 C   0  0  0  0  0  0  0  0  0  0  0  0
   -2.8930   19.4100  -33.6560 N   0  0  0  0  0  0  0  0  0  0  0  0
   -2.6560   17.9670  -33.8770 C   0  0  0  0  0  0  0  0  0  0  0  0
   -1.3380   17.6630  -34.5930 C   0  0  0  0  0  0  0  0  0  0  0  0
   -0.3160   18.5180  -34.1400 O   0  0  0  0  0  0  0  0  0  0  0  0
   -0.5880   19.8160  -34.6080 C   0  0  0  0  0  0  0  0  0  0  0  0
   -1.8310   20.4020  -33.9300 C   0  0  0  0  0  0  0  0  0  0  0  0
   -4.2290   21.1190  -32.4650 N   0  0  0  0  0  0  0  0  0  0  0  0
   -5.3770   21.5950  -31.8700 C   0  0  0  0  0  0  0  0  0  0  0  0
   -5.4020   22.9550  -31.2740 C   0  0  0  0  0  0  0  0  0  0  0  0
   -6.6190   23.5870  -30.9660 C   0  0  0  0  0  0  0  0  0  0  0  0
   -6.6240   24.8670  -30.4090 C   0  0  0  0  0  0  0  0  0  0  0  0
   -5.4100   25.5090  -30.1590 C   0  0  0  0  0  0  0  0  0  0  0  0
   -4.2390   24.8880  -30.4580 N   0  0  0  0  0  0  0  0  0  0  0  0
   -4.2070   23.6430  -31.0040 C   0  0  0  0  0  0  0  0  0  0  0  0
   -6.5280   20.7870  -31.8170 C   0  0  0  0  0  0  0  0  0  0  0  0
   -6.4420   19.5210  -32.3760 C   0  0  0  0  0  0  0  0  0  0  0  0
   -9.8959   20.4770  -31.8924 H   0  0  0  0  0  0  0  0  0  0  0  0
   -8.7765   20.3620  -33.2925 H   0  0  0  0  0  0  0  0  0  0  0  0
  -10.3132   19.4319  -33.2925 H   0  0  0  0  0  0  0  0  0  0  0  0
   -8.8110   18.7637  -30.9100 H   0  0  0  0  0  0  0  0  0  0  0  0
   -9.2897   17.7018  -32.2855 H   0  0  0  0  0  0  0  0  0  0  0  0
   -7.2976   16.6000  -33.3341 H   0  0  0  0  0  0  0  0  0  0  0  0
   -2.6444   17.4632  -32.8992 H   0  0  0  0  0  0  0  0  0  0  0  0
   -3.4661   17.6038  -34.5265 H   0  0  0  0  0  0  0  0  0  0  0  0
   -1.0510   16.6201  -34.3933 H   0  0  0  0  0  0  0  0  0  0  0  0
   -1.4779   17.8208  -35.6726 H   0  0  0  0  0  0  0  0  0  0  0  0
    0.2757   20.4627  -34.3938 H   0  0  0  0  0  0  0  0  0  0  0  0
   -0.7749   19.7632  -35.6907 H   0  0  0  0  0  0  0  0  0  0  0  0
   -1.5236   20.8520  -32.9745 H   0  0  0  0  0  0  0  0  0  0  0  0
   -2.2564   21.1377  -34.6284 H   0  0  0  0  0  0  0  0  0  0  0  0
   -3.4130   21.7650  -32.4930 H   0  0  0  0  0  0  0  0  0  0  0  0
   -7.5703   23.0715  -31.1644 H   0  0  0  0  0  0  0  0  0  0  0  0
   -7.5752   25.3648  -30.1695 H   0  0  0  0  0  0  0  0  0  0  0  0
   -5.4013   26.5176  -29.7200 H   0  0  0  0  0  0  0  0  0  0  0  0
   -3.2403   23.1719  -31.2356 H   0  0  0  0  0  0  0  0  0  0  0  0
   -7.4579   21.1451  -31.3511 H   0  0  0  0  0  0  0  0  0  0  0  0
  1  2  1  0
  2  3  1  0
  3  4  1  0
  4  5  2  0
  5  6  1  0
  6  7  2  0
  7  8  1  0
  8  9  1  0
  9 10  1  0
 10 11  1  0
 11 12  1  0
 12 13  1  0
  7 14  1  0
 14 15  2  0
 15 16  1  0
 16 17  2  0
 17 18  1  0
 18 19  2  0
 19 20  1  0
 20 21  2  0
 15 22  1  0
 22 23  2  0
 23  3  1  0
 23  6  1  0
 13  8  1  0
 21 16  1  0
  1 24  1  0
  1 25  1  0
  1 26  1  0
  2 27  1  0
  2 28  1  0
  4 29  1  0
  9 30  1  0
  9 31  1  0
 10 32  1  0
 10 33  1  0
 12 34  1  0
 12 35  1  0
 13 36  1  0
 13 37  1  0
 14 38  1  0
 17 39  1  0
 18 40  1  0
 19 41  1  0
 21 42  1  0
 22 43  1  0
M  CHG  1  14   1
M  END
>  <UniqueID>  (23) 
23

>  <SMILES>  (23) 
CCn1cnc2c(N3CCOCC3)[nH+]c(-c3cccnc3)cc21

>  <Energy>  (23) 
95.71198251586581

>  <Genealogy>  (23) 
CCn1cnc2c(N3CCOCC3)[nH+]c(-c3cccnc3)cc21 (protonated)
CCn1cnc2c(N3CCOCC3)[nH+]c(-c3cccnc3)cc21 (3D coordinates assigned)
CCn1cnc2c(N3CCOCC3)[nH+]c(-c3cccnc3)cc21 (nonaromatic ring conformer: 95.71198251586581 kcal/mol)

>  <smiles>  (23) 
CCn1cnc2c(N3CCOCC3)nc(-c3cccnc3)cc21

>  <score_type>  (23) 
oracle

>  <origin>  (23) 
adg

>  <m_score__min__energy>  (23) 
-7.0099999999999998

>  <m_primary>  (23) 
energy

$$$$
23:0
     RDKit          3D

 67 70  0  0  0  0  0  0  0  0999 V2000
   -3.8700   22.8750  -29.1280 C   0  0  0  0  0  0  0  0  0  0  0  0
   -3.4920   23.8340  -30.2560 C   0  0  0  0  0  0  0  0  0  0  0  0
   -4.3750   23.7000  -31.3770 O   0  0  0  0  0  0  0  0  0  0  0  0
   -5.6040   23.0230  -31.3610 C   0  0  0  0  0  0  0  0  0  0  0  0
   -6.7610   23.7080  -30.9250 C   0  0  0  0  0  0  0  0  0  0  0  0
   -6.6750   25.0740  -30.6060 O   0  0  0  0  0  0  0  0  0  0  0  0
   -6.1920   25.5930  -29.3730 C   0  0  0  0  0  0  0  0  0  0  0  0
   -7.9840   23.0360  -30.8560 C   0  0  0  0  0  0  0  0  0  0  0  0
   -8.0840   21.7160  -31.2530 C   0  0  0  0  0  0  0  0  0  0  0  0
   -6.9670   21.0060  -31.7460 C   0  0  0  0  0  0  0  0  0  0  0  0
   -5.7010   21.6680  -31.8280 C   0  0  0  0  0  0  0  0  0  0  0  0
   -4.6020   20.9520  -32.4040 C   0  0  0  0  0  0  0  0  0  0  0  0
   -4.8740   19.7410  -33.0890 C   0  0  0  0  0  0  0  0  0  0  0  0
   -3.8880   19.1330  -33.8960 C   0  0  0  0  0  0  0  0  0  0  0  0
   -4.1900   18.0060  -34.6630 C   0  0  0  0  0  0  0  0  0  0  0  0
   -5.4610   17.4460  -34.6100 C   0  0  0  0  0  0  0  0  0  0  0  0
   -6.4350   18.0010  -33.7840 C   0  0  0  0  0  0  0  0  0  0  0  0
   -6.1560   19.1480  -32.9970 C   0  0  0  0  0  0  0  0  0  0  0  0
   -7.1100   19.7050  -32.1800 N   0  0  0  0  0  0  0  0  0  0  0  0
   -8.2930   18.9090  -31.7790 C   0  0  0  0  0  0  0  0  0  0  0  0
   -2.5770   19.6870  -33.9460 N   0  0  0  0  0  0  0  0  0  0  0  0
   -2.1090   20.4720  -32.8140 C   0  0  1  0  0  0  0  0  0  0  0  0
   -0.7460   21.1100  -33.1410 C   0  0  0  0  0  0  0  0  0  0  0  0
   -0.4730   21.0980  -34.5840 N   0  0  0  0  0  0  0  0  0  0  0  0
    0.9790   21.1340  -34.8200 C   0  0  0  0  0  0  0  0  0  0  0  0
    1.6720   19.8610  -34.2780 C   0  0  0  0  0  0  0  0  0  0  0  0
    1.2170   18.5670  -34.8740 N   0  0  0  0  0  0  0  0  0  0  0  0
    0.6960   18.7570  -36.2460 C   0  0  0  0  0  0  0  0  0  0  0  0
    0.1820   17.9140  -34.0330 C   0  0  0  0  0  0  0  0  0  0  0  0
    2.3920   17.6580  -34.9450 C   0  0  0  0  0  0  0  0  0  0  0  0
   -3.1790   21.5190  -32.4510 C   0  0  0  0  0  0  0  0  0  0  0  0
   -3.6800   23.3571  -28.1577 H   0  0  0  0  0  0  0  0  0  0  0  0
   -4.9367   22.6181  -29.2071 H   0  0  0  0  0  0  0  0  0  0  0  0
   -3.2655   21.9594  -29.2071 H   0  0  0  0  0  0  0  0  0  0  0  0
   -3.5453   24.8665  -29.8803 H   0  0  0  0  0  0  0  0  0  0  0  0
   -2.4722   23.5907  -30.5888 H   0  0  0  0  0  0  0  0  0  0  0  0
   -6.6800   25.0686  -28.5382 H   0  0  0  0  0  0  0  0  0  0  0  0
   -5.1038   25.4440  -29.3136 H   0  0  0  0  0  0  0  0  0  0  0  0
   -6.4187   26.6677  -29.3136 H   0  0  0  0  0  0  0  0  0  0  0  0
   -8.8749   23.5621  -30.4825 H   0  0  0  0  0  0  0  0  0  0  0  0
   -9.0563   21.2064  -31.1834 H   0  0  0  0  0  0  0  0  0  0  0  0
   -3.4205   17.5604  -35.3105 H   0  0  0  0  0  0  0  0  0  0  0  0
   -5.6979   16.5629  -35.2216 H   0  0  0  0  0  0  0  0  0  0  0  0
   -7.4346   17.5438  -33.7411 H   0  0  0  0  0  0  0  0  0  0  0  0
   -8.3529   18.8687  -30.6814 H   0  0  0  0  0  0  0  0  0  0  0  0
   -9.2037   19.3787  -32.1789 H   0  0  0  0  0  0  0  0  0  0  0  0
   -8.2009   17.8884  -32.1789 H   0  0  0  0  0  0  0  0  0  0  0  0
   -1.9530   19.4840  -34.7580 H   0  0  0  0  0  0  0  0  0  0  0  0
   -1.9563   19.8271  -31.9360 H   0  0  0  0  0  0  0  0  0  0  0  0
   -0.7457   22.1514  -32.7867 H   0  0  0  0  0  0  0  0  0  0  0  0
    0.0369   20.5227  -32.6389 H   0  0  0  0  0  0  0  0  0  0  0  0
   -0.8840   21.9670  -34.9970 H   0  0  0  0  0  0  0  0  0  0  0  0
    1.1638   21.2088  -35.9018 H   0  0  0  0  0  0  0  0  0  0  0  0
    1.3937   22.0050  -34.2914 H   0  0  0  0  0  0  0  0  0  0  0  0
    2.7513   19.9582  -34.4667 H   0  0  0  0  0  0  0  0  0  0  0  0
    1.4066   19.8079  -33.2118 H   0  0  0  0  0  0  0  0  0  0  0  0
   -0.3364   19.1335  -36.1973 H   0  0  0  0  0  0  0  0  0  0  0  0
    1.3263   19.4832  -36.7803 H   0  0  0  0  0  0  0  0  0  0  0  0
    0.7109   17.7956  -36.7803 H   0  0  0  0  0  0  0  0  0  0  0  0
    0.4232   18.0662  -32.9706 H   0  0  0  0  0  0  0  0  0  0  0  0
   -0.8012   18.3556  -34.2527 H   0  0  0  0  0  0  0  0  0  0  0  0
    0.1573   16.8364  -34.2527 H   0  0  0  0  0  0  0  0  0  0  0  0
    2.7208   17.4036  -33.9266 H   0  0  0  0  0  0  0  0  0  0  0  0
    2.1125   16.7387  -35.4805 H   0  0  0  0  0  0  0  0  0  0  0  0
    3.2117   18.1594  -35.4805 H   0  0  0  0  0  0  0  0  0  0  0  0
   -2.9374   21.9343  -31.4615 H   0  0  0  0  0  0  0  0  0  0  0  0
   -3.1627   22.2838  -33.2414 H   0  0  0  0  0  0  0  0  0  0  0  0
  1  2  1  0
  2  3  1  0
  3  4  1  0
  4  5  2  0
  5  6  1  0
  6  7  1  0
  5  8  1  0
  8  9  2  0
  9 10  1  0
 10 11  2  0
 11 12  1  0
 12 13  2  0
 13 14  1  0
 14 15  2  0
 15 16  1  0
 16 17  2  0
 17 18  1  0
 18 19  2  0
 19 20  1  0
 14 21  1  0
 21 22  1  0
 22 23  1  0
 23 24  1  0
 24 25  1  0
 25 26  1  0
 26 27  1  0
 27 28  1  0
 27 29  1  0
 27 30  1  0
 22 31  1  0
 11  4  1  0
 31 12  1  0
 19 10  1  0
 18 13  1  0
  1 32  1  0
  1 33  1  0
  1 34  1  0
  2 35  1  0
  2 36  1  0
  7 37  1  0
  7 38  1  0
  7 39  1  0
  8 40  1  0
  9 41  1  0
 15 42  1  0
 16 43  1  0
 17 44  1  0
 20 45  1  0
 20 46  1  0
 20 47  1  0
 21 48  1  0
 22 49  1  1
 23 50  1  0
 23 51  1  0
 24 52  1  0
 25 53  1  0
 25 54  1  0
 26 55  1  0
 26 56  1  0
 28 57  1  0
 28 58  1  0
 28 59  1  0
 29 60  1  0
 29 61  1  0
 29 62  1  0
 30 63  1  0
 30 64  1  0
 30 65  1  0
 31 66  1  0
 31 67  1  0
M  CHG  2  19   1  27   1
M  END
>  <UniqueID>  (24) 
24

>  <SMILES>  (24) 
CCOc1c(OC)ccc2c1c1c3c(cccc3[n+]2C)N[C@@H](CNCC[N+](C)(C)C)C1

>  <Energy>  (24) 
105.15132228210943

>  <Genealogy>  (24) 
CCOc1c(OC)ccc2c1c1c3c(cccc3[n+]2C)N[C@@H](CNCC[N+](C)(C)C)C1 (chirality)
CCOc1c(OC)ccc2c1c1c3c(cccc3[n+]2C)N[C@@H](CNCC[N+](C)(C)C)C1 (3D coordinates assigned)
CCOc1c(OC)ccc2c1c1c3c(cccc3[n+]2C)N[C@@H](CNCC[N+](C)(C)C)C1 (nonaromatic ring conformer: 105.15132228210943 kcal/mol)

>  <smiles>  (24) 
CCOc1c(OC)ccc2c1c1c3c(cccc3[n+]2C)NC(CNCC[N+](C)(C)C)C1

>  <score_type>  (24) 
oracle

>  <origin>  (24) 
adg

>  <m_score__min__energy>  (24) 
-7.71

>  <m_primary>  (24) 
energy

$$$$
24:0
     RDKit          3D

 54 57  0  0  0  0  0  0  0  0999 V2000
   -6.8550   25.3020  -29.7270 C   0  0  0  0  0  0  0  0  0  0  0  0
   -5.3700   24.9490  -29.5600 C   0  0  0  0  0  0  0  0  0  0  0  0
   -5.1090   23.5910  -29.0140 N   0  0  2  0  0  0  0  0  0  0  0  0
   -3.9260   23.5860  -28.1330 C   0  0  0  0  0  0  0  0  0  0  0  0
   -4.9790   22.5220  -30.0390 C   0  0  0  0  0  0  0  0  0  0  0  0
   -4.2700   22.9720  -31.3280 C   0  0  0  0  0  0  0  0  0  0  0  0
   -4.9980   22.5300  -32.5200 N   0  0  0  0  0  0  0  0  0  0  0  0
   -5.3300   21.1450  -32.7230 C   0  0  0  0  0  0  0  0  0  0  0  0
   -6.6360   20.6820  -32.4740 C   0  0  0  0  0  0  0  0  0  0  0  0
   -7.6120   21.5250  -31.9020 C   0  0  0  0  0  0  0  0  0  0  0  0
   -8.9170   21.0740  -31.7100 C   0  0  0  0  0  0  0  0  0  0  0  0
   -9.2690   19.7800  -32.0810 C   0  0  0  0  0  0  0  0  0  0  0  0
   -8.3180   18.9240  -32.6340 C   0  0  0  0  0  0  0  0  0  0  0  0
   -6.9820   19.3510  -32.8310 C   0  0  0  0  0  0  0  0  0  0  0  0
   -6.0300   18.5090  -33.3660 N   0  0  0  0  0  0  0  0  0  0  0  0
   -6.4760   17.3970  -34.2320 C   0  0  0  0  0  0  0  0  0  0  0  0
   -4.6970   18.8600  -33.3080 C   0  0  0  0  0  0  0  0  0  0  0  0
   -4.3440   20.2310  -33.1370 C   0  0  0  0  0  0  0  0  0  0  0  0
   -3.0170   20.6590  -33.4120 C   0  0  0  0  0  0  0  0  0  0  0  0
   -2.0310   19.7450  -33.7960 C   0  0  0  0  0  0  0  0  0  0  0  0
   -2.3620   18.3990  -33.8160 C   0  0  0  0  0  0  0  0  0  0  0  0
   -1.5270   17.3130  -33.9380 C   0  0  0  0  0  0  0  0  0  0  0  0
   -2.3140   16.2180  -33.6280 C   0  0  0  0  0  0  0  0  0  0  0  0
   -3.5790   16.6000  -33.3320 N   0  0  0  0  0  0  0  0  0  0  0  0
   -4.5150   15.7420  -32.6060 C   0  0  0  0  0  0  0  0  0  0  0  0
   -3.6260   17.9460  -33.5180 C   0  0  0  0  0  0  0  0  0  0  0  0
   -7.3193   25.4124  -28.7359 H   0  0  0  0  0  0  0  0  0  0  0  0
   -6.9470   26.2470  -30.2823 H   0  0  0  0  0  0  0  0  0  0  0  0
   -7.3625   24.4995  -30.2823 H   0  0  0  0  0  0  0  0  0  0  0  0
   -4.8886   25.0194  -30.5466 H   0  0  0  0  0  0  0  0  0  0  0  0
   -4.9634   25.6608  -28.8265 H   0  0  0  0  0  0  0  0  0  0  0  0
   -5.9230   23.3560  -28.3990 H   0  0  0  0  0  0  0  0  0  0  0  0
   -4.2514   23.5874  -27.0822 H   0  0  0  0  0  0  0  0  0  0  0  0
   -3.3260   22.6853  -28.3299 H   0  0  0  0  0  0  0  0  0  0  0  0
   -3.3184   24.4816  -28.3299 H   0  0  0  0  0  0  0  0  0  0  0  0
   -4.4060   21.6913  -29.6013 H   0  0  0  0  0  0  0  0  0  0  0  0
   -6.0003   22.2292  -30.3239 H   0  0  0  0  0  0  0  0  0  0  0  0
   -4.2038   24.0700  -31.3356 H   0  0  0  0  0  0  0  0  0  0  0  0
   -3.2670   22.5207  -31.3474 H   0  0  0  0  0  0  0  0  0  0  0  0
   -5.4240   23.2480  -33.1480 H   0  0  0  0  0  0  0  0  0  0  0  0
   -7.3405   22.5486  -31.6045 H   0  0  0  0  0  0  0  0  0  0  0  0
   -9.6692   21.7418  -31.2648 H   0  0  0  0  0  0  0  0  0  0  0  0
  -10.3022   19.4310  -31.9373 H   0  0  0  0  0  0  0  0  0  0  0  0
   -8.6091   17.9029  -32.9213 H   0  0  0  0  0  0  0  0  0  0  0  0
   -6.8128   16.5573  -33.6063 H   0  0  0  0  0  0  0  0  0  0  0  0
   -7.3071   17.7375  -34.8671 H   0  0  0  0  0  0  0  0  0  0  0  0
   -5.6399   17.0688  -34.8671 H   0  0  0  0  0  0  0  0  0  0  0  0
   -2.7618   21.7251  -33.3214 H   0  0  0  0  0  0  0  0  0  0  0  0
   -1.0222   20.0841  -34.0741 H   0  0  0  0  0  0  0  0  0  0  0  0
   -0.4640   17.3146  -34.2207 H   0  0  0  0  0  0  0  0  0  0  0  0
   -1.9596   15.1767  -33.6227 H   0  0  0  0  0  0  0  0  0  0  0  0
   -4.3702   15.8748  -31.5237 H   0  0  0  0  0  0  0  0  0  0  0  0
   -5.5463   16.0151  -32.8742 H   0  0  0  0  0  0  0  0  0  0  0  0
   -4.3325   14.6909  -32.8742 H   0  0  0  0  0  0  0  0  0  0  0  0
  1  2  1  0
  2  3  1  0
  3  4  1  0
  3  5  1  0
  5  6  1  0
  6  7  1  0
  7  8  1  0
  8  9  2  0
  9 10  1  0
 10 11  2  0
 11 12  1  0
 12 13  2  0
 13 14  1  0
 14 15  2  0
 15 16  1  0
 15 17  1  0
 17 18  2  0
 18 19  1  0
 19 20  2  0
 20 21  1  0
 21 22  1  0
 22 23  2  0
 23 24  1  0
 24 25  1  0
 24 26  1  0
 18  8  1  0
 26 21  2  0
 14  9  1  0
 26 17  1  0
  1 27  1  0
  1 28  1  0
  1 29  1  0
  2 30  1  0
  2 31  1  0
  3 32  1  1
  4 33  1  0
  4 34  1  0
  4 35  1  0
  5 36  1  0
  5 37  1  0
  6 38  1  0
  6 39  1  0
  7 40  1  0
 10 41  1  0
 11 42  1  0
 12 43  1  0
 13 44  1  0
 16 45  1  0
 16 46  1  0
 16 47  1  0
 19 48  1  0
 20 49  1  0
 22 50  1  0
 23 51  1  0
 25 52  1  0
 25 53  1  0
 25 54  1  0
M  CHG  2   3   1  15   1
M  END
>  <UniqueID>  (25) 
25

>  <SMILES>  (25) 
CC[N@H+](C)CCNc1c2ccccc2[n+](C)c2c1ccc1ccn(C)c12

>  <Energy>  (25) 
131.3702976017245

>  <Genealogy>  (25) 
CC[NH+](C)CCNc1c2ccccc2[n+](C)c2c1ccc1ccn(C)c12 (protonated)
CC[N@H+](C)CCNc1c2ccccc2[n+](C)c2c1ccc1ccn(C)c12 (chirality)
CC[N@H+](C)CCNc1c2ccccc2[n+](C)c2c1ccc1ccn(C)c12 (3D coordinates assigned)
CC[N@H+](C)CCNc1c2ccccc2[n+](C)c2c1ccc1ccn(C)c12 (optimized conformer: 131.3702976017245 kcal/mol)

>  <smiles>  (25) 
CCN(C)CCNc1c2ccccc2[n+](C)c2c1ccc1ccn(C)c12

>  <score_type>  (25) 
oracle

>  <origin>  (25) 
adg

>  <m_score__min__energy>  (25) 
-7.3499999999999996

>  <m_primary>  (25) 
energy

$$$$
25:0
     RDKit          3D

 36 36  0  0  0  0  0  0  0  0999 V2000
   -2.7370   25.4490  -26.0440 C   0  0  0  0  0  0  0  0  0  0  0  0
   -3.5380   24.5230  -26.9690 C   0  0  0  0  0  0  0  0  0  0  0  0
   -2.8020   23.3050  -27.3920 N   0  0  0  0  0  0  0  0  0  0  0  0
   -1.4860   23.1360  -26.7330 C   0  0  0  0  0  0  0  0  0  0  0  0
   -1.1470   21.6630  -26.5160 C   0  0  0  0  0  0  0  0  0  0  0  0
   -2.6980   23.1890  -28.8660 C   0  0  0  0  0  0  0  0  0  0  0  0
   -2.6070   24.5570  -29.4930 C   0  0  0  0  0  0  0  0  0  0  0  0
   -1.6360   25.3080  -29.2090 O   0  0  0  0  0  0  0  0  0  0  0  0
   -3.5770   25.0200  -30.4420 N   0  0  0  0  0  0  0  0  0  0  0  0
   -4.8070   24.3700  -30.7920 C   0  0  0  0  0  0  0  0  0  0  0  0
   -6.0020   24.8320  -30.2240 C   0  0  0  0  0  0  0  0  0  0  0  0
   -7.2160   24.2070  -30.5260 C   0  0  0  0  0  0  0  0  0  0  0  0
   -7.2430   23.1030  -31.3860 C   0  0  0  0  0  0  0  0  0  0  0  0
   -8.8060   22.3070  -31.7650 S   0  0  0  0  0  0  0  0  0  0  0  0
   -8.2420   20.6660  -31.2190 C   0  0  0  0  0  0  0  0  0  0  0  0
   -6.0470   22.6130  -31.9290 C   0  0  0  0  0  0  0  0  0  0  0  0
   -6.0550   21.5280  -32.7420 F   0  0  0  0  0  0  0  0  0  0  0  0
   -4.8320   23.2400  -31.6270 C   0  0  0  0  0  0  0  0  0  0  0  0
   -2.9546   25.1974  -24.9955 H   0  0  0  0  0  0  0  0  0  0  0  0
   -1.6618   25.3191  -26.2367 H   0  0  0  0  0  0  0  0  0  0  0  0
   -3.0204   26.4943  -26.2367 H   0  0  0  0  0  0  0  0  0  0  0  0
   -4.4494   24.2093  -26.4389 H   0  0  0  0  0  0  0  0  0  0  0  0
   -3.7541   25.0965  -27.8825 H   0  0  0  0  0  0  0  0  0  0  0  0
   -0.7096   23.5908  -27.3658 H   0  0  0  0  0  0  0  0  0  0  0  0
   -1.5302   23.6258  -25.7491 H   0  0  0  0  0  0  0  0  0  0  0  0
   -1.0987   21.4529  -25.4373 H   0  0  0  0  0  0  0  0  0  0  0  0
   -1.9243   21.0361  -26.9772 H   0  0  0  0  0  0  0  0  0  0  0  0
   -0.1738   21.4389  -26.9772 H   0  0  0  0  0  0  0  0  0  0  0  0
   -1.7973   22.6118  -29.1220 H   0  0  0  0  0  0  0  0  0  0  0  0
   -3.5940   22.6785  -29.2490 H   0  0  0  0  0  0  0  0  0  0  0  0
   -5.9849   25.6909  -29.5369 H   0  0  0  0  0  0  0  0  0  0  0  0
   -8.1515   24.5837  -30.0868 H   0  0  0  0  0  0  0  0  0  0  0  0
   -8.2295   20.6296  -30.1197 H   0  0  0  0  0  0  0  0  0  0  0  0
   -8.9271   19.8961  -31.6036 H   0  0  0  0  0  0  0  0  0  0  0  0
   -7.2283   20.4800  -31.6036 H   0  0  0  0  0  0  0  0  0  0  0  0
   -3.8936   22.8466  -32.0449 H   0  0  0  0  0  0  0  0  0  0  0  0
  1  2  1  0
  2  3  1  0
  3  4  1  0
  4  5  1  0
  3  6  1  0
  6  7  1  0
  7  8  2  0
  7  9  1  0
  9 10  1  0
 10 11  2  0
 11 12  1  0
 12 13  2  0
 13 14  1  0
 14 15  1  0
 13 16  1  0
 16 17  1  0
 16 18  2  0
 18 10  1  0
  1 19  1  0
  1 20  1  0
  1 21  1  0
  2 22  1  0
  2 23  1  0
  4 24  1  0
  4 25  1  0
  5 26  1  0
  5 27  1  0
  5 28  1  0
  6 29  1  0
  6 30  1  0
 11 31  1  0
 12 32  1  0
 15 33  1  0
 15 34  1  0
 15 35  1  0
 18 36  1  0
M  CHG  1   9  -1
M  END
>  <UniqueID>  (26) 
26

>  <SMILES>  (26) 
CCN(CC)CC(=O)[N-]c1ccc(SC)c(F)c1

>  <Energy>  (26) 
36.62684852921733

>  <Genealogy>  (26) 
CCN(CC)CC(=O)[N-]c1ccc(SC)c(F)c1 (protonated)
CCN(CC)CC(=O)[N-]c1ccc(SC)c(F)c1 (3D coordinates assigned)
CCN(CC)CC(=O)[N-]c1ccc(SC)c(F)c1 (optimized conformer: 36.62684852921733 kcal/mol)

>  <smiles>  (26) 
CCN(CC)CC(=O)Nc1ccc(SC)c(F)c1

>  <score_type>  (26) 
oracle

>  <origin>  (26) 
adg

>  <m_score__min__energy>  (26) 
-7.6799999999999997

>  <m_primary>  (26) 
energy

$$$$
26:0
     RDKit          3D

 70 72  0  0  0  0  0  0  0  0999 V2000
   -6.0880   17.4110  -34.2640 C   0  0  0  0  0  0  0  0  0  0  0  0
   -6.0610   18.9380  -34.3730 C   0  0  0  0  0  0  0  0  0  0  0  0
   -6.3220   19.5670  -33.0540 N   0  0  0  0  0  0  0  0  0  0  0  0
   -5.0550   19.8600  -32.3320 C   0  0  0  0  0  0  0  0  0  0  0  0
   -4.2650   20.9190  -33.0890 C   0  0  0  0  0  0  0  0  0  0  0  0
   -7.2230   18.7080  -32.2530 C   0  0  0  0  0  0  0  0  0  0  0  0
   -8.6590   19.2440  -32.2450 C   0  0  0  0  0  0  0  0  0  0  0  0
   -8.7470   20.2750  -31.2860 O   0  0  0  0  0  0  0  0  0  0  0  0
   -9.4980   21.3610  -31.7930 C   0  0  0  0  0  0  0  0  0  0  0  0
   -8.6450   22.6330  -31.7530 C   0  0  0  0  0  0  0  0  0  0  0  0
   -7.2530   22.3080  -31.7190 O   0  0  0  0  0  0  0  0  0  0  0  0
   -6.2400   23.0990  -31.1530 C   0  0  0  0  0  0  0  0  0  0  0  0
   -6.1220   24.4790  -31.4050 C   0  0  0  0  0  0  0  0  0  0  0  0
   -5.0680   25.2100  -30.8510 C   0  0  0  0  0  0  0  0  0  0  0  0
   -4.1300   24.5810  -30.0280 C   0  0  0  0  0  0  0  0  0  0  0  0
   -3.1220   25.2870  -29.5240 O   0  0  0  0  0  0  0  0  0  0  0  0
   -2.1950   24.7520  -28.7360 C   0  0  0  0  0  0  0  0  0  0  0  0
   -1.1540   25.5510  -28.2570 C   0  0  0  0  0  0  0  0  0  0  0  0
   -0.1670   25.0040  -27.4350 C   0  0  0  0  0  0  0  0  0  0  0  0
   -0.2070   23.6520  -27.0730 C   0  0  0  0  0  0  0  0  0  0  0  0
    0.8160   23.1620  -26.2440 O   0  0  0  0  0  0  0  0  0  0  0  0
    0.8840   23.3110  -24.8250 C   0  0  0  0  0  0  0  0  0  0  0  0
    1.7420   24.5190  -24.4250 C   0  0  0  0  0  0  0  0  0  0  0  0
    0.8710   25.7630  -24.1350 C   0  0  0  0  0  0  0  0  0  0  0  0
    1.5460   26.8140  -23.3340 N   0  0  0  0  0  0  0  0  0  0  0  0
    2.9910   26.8950  -23.6090 C   0  0  0  0  0  0  0  0  0  0  0  0
    0.9070   28.1360  -23.4710 C   0  0  0  0  0  0  0  0  0  0  0  0
   -1.2620   22.8440  -27.5440 C   0  0  0  0  0  0  0  0  0  0  0  0
   -2.2530   23.3840  -28.3840 C   0  0  0  0  0  0  0  0  0  0  0  0
   -3.3050   22.6050  -28.8970 C   0  0  0  0  0  0  0  0  0  0  0  0
   -3.3910   21.3770  -28.6100 O   0  0  0  0  0  0  0  0  0  0  0  0
   -4.2570   23.2050  -29.7380 C   0  0  0  0  0  0  0  0  0  0  0  0
   -5.3200   22.4770  -30.3020 C   0  0  0  0  0  0  0  0  0  0  0  0
   -6.0932   17.1191  -33.2034 H   0  0  0  0  0  0  0  0  0  0  0  0
   -6.9931   17.0243  -34.7551 H   0  0  0  0  0  0  0  0  0  0  0  0
   -5.1971   16.9925  -34.7551 H   0  0  0  0  0  0  0  0  0  0  0  0
   -5.0719   19.2560  -34.7344 H   0  0  0  0  0  0  0  0  0  0  0  0
   -6.8462   19.2545  -35.0753 H   0  0  0  0  0  0  0  0  0  0  0  0
   -5.2868   20.2293  -31.3221 H   0  0  0  0  0  0  0  0  0  0  0  0
   -4.4556   18.9404  -32.2609 H   0  0  0  0  0  0  0  0  0  0  0  0
   -3.7665   21.5873  -32.3714 H   0  0  0  0  0  0  0  0  0  0  0  0
   -3.5090   20.4303  -33.7212 H   0  0  0  0  0  0  0  0  0  0  0  0
   -4.9488   21.5044  -33.7212 H   0  0  0  0  0  0  0  0  0  0  0  0
   -7.2232   17.6947  -32.6811 H   0  0  0  0  0  0  0  0  0  0  0  0
   -6.8551   18.6981  -31.2164 H   0  0  0  0  0  0  0  0  0  0  0  0
   -8.9128   19.6397  -33.2395 H   0  0  0  0  0  0  0  0  0  0  0  0
   -9.3615   18.4355  -31.9945 H   0  0  0  0  0  0  0  0  0  0  0  0
   -9.7934   21.1498  -32.8313 H   0  0  0  0  0  0  0  0  0  0  0  0
  -10.3988   21.5035  -31.1779 H   0  0  0  0  0  0  0  0  0  0  0  0
   -8.8532   23.2356  -32.6494 H   0  0  0  0  0  0  0  0  0  0  0  0
   -8.8979   23.1996  -30.8447 H   0  0  0  0  0  0  0  0  0  0  0  0
   -6.8634   24.9844  -32.0413 H   0  0  0  0  0  0  0  0  0  0  0  0
   -4.9762   26.2853  -31.0636 H   0  0  0  0  0  0  0  0  0  0  0  0
   -1.1118   26.6161  -28.5288 H   0  0  0  0  0  0  0  0  0  0  0  0
    0.6506   25.6418  -27.0679 H   0  0  0  0  0  0  0  0  0  0  0  0
   -0.1337   23.4498  -24.4313 H   0  0  0  0  0  0  0  0  0  0  0  0
    1.3470   22.4057  -24.4055 H   0  0  0  0  0  0  0  0  0  0  0  0
    2.3157   24.2661  -23.5212 H   0  0  0  0  0  0  0  0  0  0  0  0
    2.4143   24.7567  -25.2626 H   0  0  0  0  0  0  0  0  0  0  0  0
    0.5708   26.2040  -25.0970 H   0  0  0  0  0  0  0  0  0  0  0  0
    0.0167   25.4139  -23.5364 H   0  0  0  0  0  0  0  0  0  0  0  0
    1.4450   26.5330  -22.3290 H   0  0  0  0  0  0  0  0  0  0  0  0
    3.5439   26.9260  -22.6586 H   0  0  0  0  0  0  0  0  0  0  0  0
    3.3043   26.0130  -24.1869 H   0  0  0  0  0  0  0  0  0  0  0  0
    3.2037   27.8065  -24.1869 H   0  0  0  0  0  0  0  0  0  0  0  0
    0.7062   28.5514  -22.4725 H   0  0  0  0  0  0  0  0  0  0  0  0
    1.5777   28.8122  -24.0214 H   0  0  0  0  0  0  0  0  0  0  0  0
   -0.0396   28.0305  -24.0214 H   0  0  0  0  0  0  0  0  0  0  0  0
   -1.3106   21.7844  -27.2528 H   0  0  0  0  0  0  0  0  0  0  0  0
   -5.4293   21.4070  -30.0715 H   0  0  0  0  0  0  0  0  0  0  0  0
  1  2  1  0
  2  3  1  0
  3  4  1  0
  4  5  1  0
  3  6  1  0
  6  7  1  0
  7  8  1  0
  8  9  1  0
  9 10  1  0
 10 11  1  0
 11 12  1  0
 12 13  2  0
 13 14  1  0
 14 15  2  0
 15 16  1  0
 16 17  1  0
 17 18  2  0
 18 19  1  0
 19 20  2  0
 20 21  1  0
 21 22  1  0
 22 23  1  0
 23 24  1  0
 24 25  1  0
 25 26  1  0
 25 27  1  0
 20 28  1  0
 28 29  2  0
 29 30  1  0
 30 31  2  0
 30 32  1  0
 32 33  2  0
 33 12  1  0
 32 15  1  0
 29 17  1  0
  1 34  1  0
  1 35  1  0
  1 36  1  0
  2 37  1  0
  2 38  1  0
  4 39  1  0
  4 40  1  0
  5 41  1  0
  5 42  1  0
  5 43  1  0
  6 44  1  0
  6 45  1  0
  7 46  1  0
  7 47  1  0
  9 48  1  0
  9 49  1  0
 10 50  1  0
 10 51  1  0
 13 52  1  0
 14 53  1  0
 18 54  1  0
 19 55  1  0
 22 56  1  0
 22 57  1  0
 23 58  1  0
 23 59  1  0
 24 60  1  0
 24 61  1  0
 25 62  1  0
 26 63  1  0
 26 64  1  0
 26 65  1  0
 27 66  1  0
 27 67  1  0
 27 68  1  0
 28 69  1  0
 33 70  1  0
M  CHG  1  25   1
M  END
>  <UniqueID>  (27) 
27

>  <SMILES>  (27) 
CCN(CC)CCOCCOc1ccc2oc3ccc(OCCC[NH+](C)C)cc3c(=O)c2c1

>  <Energy>  (27) 
77.97551756340056

>  <Genealogy>  (27) 
CCN(CC)CCOCCOc1ccc2oc3ccc(OCCC[NH+](C)C)cc3c(=O)c2c1 (protonated)
CCN(CC)CCOCCOc1ccc2oc3ccc(OCCC[NH+](C)C)cc3c(=O)c2c1 (3D coordinates assigned)
CCN(CC)CCOCCOc1ccc2oc3ccc(OCCC[NH+](C)C)cc3c(=O)c2c1 (optimized conformer: 77.97551756340056 kcal/mol)

>  <smiles>  (27) 
CCN(CC)CCOCCOc1ccc2oc3ccc(OCCCN(C)C)cc3c(=O)c2c1

>  <score_type>  (27) 
oracle

>  <origin>  (27) 
adg

>  <m_score__min__energy>  (27) 
-8.3599999999999994

>  <m_primary>  (27) 
energy

$$$$
27:0
     RDKit          3D

 43 44  0  0  0  0  0  0  0  0999 V2000
   -5.0900   24.5240  -29.0780 C   0  0  0  0  0  0  0  0  0  0  0  0
   -4.1950   24.2180  -30.2800 C   0  0  0  0  0  0  0  0  0  0  0  0
   -4.9920   23.9570  -31.4980 N   0  0  0  0  0  0  0  0  0  0  0  0
   -6.4400   24.1990  -31.2650 C   0  0  0  0  0  0  0  0  0  0  0  0
   -7.3150   23.4160  -32.2530 C   0  0  0  0  0  0  0  0  0  0  0  0
   -7.1170   21.9470  -32.1410 N   0  0  0  0  0  0  0  0  0  0  0  0
   -8.1750   21.3030  -31.3330 C   0  0  0  0  0  0  0  0  0  0  0  0
   -9.3930   20.9510  -32.2080 C   0  0  0  0  0  0  0  0  0  0  0  0
   -9.2630   19.6190  -32.8290 N   0  0  0  0  0  0  0  0  0  0  0  0
   -8.3150   18.7370  -32.1290 C   0  0  0  0  0  0  0  0  0  0  0  0
   -7.2140   18.2460  -33.0370 C   0  0  0  0  0  0  0  0  0  0  0  0
   -6.8870   16.8840  -33.0890 C   0  0  0  0  0  0  0  0  0  0  0  0
   -5.8240   16.4590  -33.8880 C   0  0  0  0  0  0  0  0  0  0  0  0
   -5.1130   17.3620  -34.6170 N   0  0  0  0  0  0  0  0  0  0  0  0
   -5.4150   18.6890  -34.5900 C   0  0  0  0  0  0  0  0  0  0  0  0
   -6.4680   19.1550  -33.8010 C   0  0  0  0  0  0  0  0  0  0  0  0
   -5.7750   21.5800  -31.6290 C   0  0  0  0  0  0  0  0  0  0  0  0
   -4.7120   22.6060  -32.0480 C   0  0  0  0  0  0  0  0  0  0  0  0
   -4.5334   24.3337  -28.1485 H   0  0  0  0  0  0  0  0  0  0  0  0
   -5.3996   25.5790  -29.1105 H   0  0  0  0  0  0  0  0  0  0  0  0
   -5.9807   23.8793  -29.1105 H   0  0  0  0  0  0  0  0  0  0  0  0
   -3.5352   25.0790  -30.4625 H   0  0  0  0  0  0  0  0  0  0  0  0
   -3.6084   23.3158  -30.0521 H   0  0  0  0  0  0  0  0  0  0  0  0
   -6.6928   23.8871  -30.2409 H   0  0  0  0  0  0  0  0  0  0  0  0
   -6.6352   25.2716  -31.4112 H   0  0  0  0  0  0  0  0  0  0  0  0
   -8.3711   23.6470  -32.0500 H   0  0  0  0  0  0  0  0  0  0  0  0
   -7.0259   23.7177  -33.2705 H   0  0  0  0  0  0  0  0  0  0  0  0
   -7.7754   20.3819  -30.8837 H   0  0  0  0  0  0  0  0  0  0  0  0
   -8.4953   22.0039  -30.5481 H   0  0  0  0  0  0  0  0  0  0  0  0
  -10.2962   20.9632  -31.5803 H   0  0  0  0  0  0  0  0  0  0  0  0
   -9.4578   21.6962  -33.0145 H   0  0  0  0  0  0  0  0  0  0  0  0
   -9.0110   19.6880  -33.8420 H   0  0  0  0  0  0  0  0  0  0  0  0
   -7.8637   19.2936  -31.2944 H   0  0  0  0  0  0  0  0  0  0  0  0
   -8.8729   17.8593  -31.7706 H   0  0  0  0  0  0  0  0  0  0  0  0
   -7.4649   16.1539  -32.5034 H   0  0  0  0  0  0  0  0  0  0  0  0
   -5.5605   15.3918  -33.9285 H   0  0  0  0  0  0  0  0  0  0  0  0
   -4.3190   17.0300  -35.2090 H   0  0  0  0  0  0  0  0  0  0  0  0
   -4.8269   19.3970  -35.1924 H   0  0  0  0  0  0  0  0  0  0  0  0
   -6.7109   20.2276  -33.7787 H   0  0  0  0  0  0  0  0  0  0  0  0
   -5.8123   21.5325  -30.5307 H   0  0  0  0  0  0  0  0  0  0  0  0
   -5.4987   20.6039  -32.0544 H   0  0  0  0  0  0  0  0  0  0  0  0
   -3.7308   22.2701  -31.6813 H   0  0  0  0  0  0  0  0  0  0  0  0
   -4.7246   22.6778  -33.1456 H   0  0  0  0  0  0  0  0  0  0  0  0
  1  2  1  0
  2  3  1  0
  3  4  1  0
  4  5  1  0
  5  6  1  0
  6  7  1  0
  7  8  1  0
  8  9  1  0
  9 10  1  0
 10 11  1  0
 11 12  2  0
 12 13  1  0
 13 14  2  0
 14 15  1  0
 15 16  2  0
  6 17  1  0
 17 18  1  0
 18  3  1  0
 16 11  1  0
  1 19  1  0
  1 20  1  0
  1 21  1  0
  2 22  1  0
  2 23  1  0
  4 24  1  0
  4 25  1  0
  5 26  1  0
  5 27  1  0
  7 28  1  0
  7 29  1  0
  8 30  1  0
  8 31  1  0
  9 32  1  0
 10 33  1  0
 10 34  1  0
 12 35  1  0
 13 36  1  0
 14 37  1  0
 15 38  1  0
 16 39  1  0
 17 40  1  0
 17 41  1  0
 18 42  1  0
 18 43  1  0
M  CHG  1  14   1
M  END
>  <UniqueID>  (28) 
28

>  <SMILES>  (28) 
CCN1CCN(CCNCc2cc[nH+]cc2)CC1

>  <Energy>  (28) 
52.38606323697012

>  <Genealogy>  (28) 
CCN1CCN(CCNCc2cc[nH+]cc2)CC1 (protonated)
CCN1CCN(CCNCc2cc[nH+]cc2)CC1 (3D coordinates assigned)
CCN1CCN(CCNCc2cc[nH+]cc2)CC1 (nonaromatic ring conformer: 52.38606323697012 kcal/mol)

>  <smiles>  (28) 
CCN1CCN(CCNCc2ccncc2)CC1

>  <score_type>  (28) 
oracle

>  <origin>  (28) 
adg

>  <m_score__min__energy>  (28) 
-6.6799999999999997

>  <m_primary>  (28) 
energy

$$$$
28:0
     RDKit          3D

 38 39  0  0  0  0  0  0  0  0999 V2000
   -3.9400   23.9900  -27.7520 C   0  0  0  0  0  0  0  0  0  0  0  0
   -4.2360   23.6180  -28.8590 C   0  0  0  0  0  0  0  0  0  0  0  0
   -4.5950   23.1640  -30.2150 C   0  0  0  0  0  0  0  0  0  0  0  0
   -5.1020   24.2500  -31.0830 N   0  0  0  0  0  0  0  0  0  0  0  0
   -5.8740   25.2800  -30.3670 C   0  0  0  0  0  0  0  0  0  0  0  0
   -5.7300   23.7980  -32.3440 C   0  0  0  0  0  0  0  0  0  0  0  0
   -6.4340   22.4740  -32.2300 C   0  0  0  0  0  0  0  0  0  0  0  0
   -7.7820   22.2780  -31.9640 C   0  0  0  0  0  0  0  0  0  0  0  0
   -7.9490   20.9090  -31.9310 C   0  0  0  0  0  0  0  0  0  0  0  0
   -9.1220   20.1990  -31.6890 C   0  0  0  0  0  0  0  0  0  0  0  0
   -9.0520   18.7990  -31.7020 C   0  0  0  0  0  0  0  0  0  0  0  0
   -7.8290   18.1520  -31.9480 C   0  0  0  0  0  0  0  0  0  0  0  0
   -6.6680   18.9140  -32.1810 C   0  0  0  0  0  0  0  0  0  0  0  0
   -5.3530   18.2300  -32.4650 C   0  0  0  0  0  0  0  0  0  0  0  0
   -5.3390   17.5620  -33.8470 C   0  0  0  0  0  0  0  0  0  0  0  0
   -5.7660   18.5180  -34.9600 C   0  0  0  0  0  0  0  0  0  0  0  0
   -6.7840   20.2760  -32.1690 N   0  0  0  0  0  0  0  0  0  0  0  0
   -5.8450   21.2240  -32.3610 C   0  0  0  0  0  0  0  0  0  0  0  0
   -3.6697   24.3297  -26.7413 H   0  0  0  0  0  0  0  0  0  0  0  0
   -3.7005   22.7301  -30.6857 H   0  0  0  0  0  0  0  0  0  0  0  0
   -5.4060   22.4287  -30.1073 H   0  0  0  0  0  0  0  0  0  0  0  0
   -5.7638   25.1330  -29.2824 H   0  0  0  0  0  0  0  0  0  0  0  0
   -5.4987   26.2768  -30.6419 H   0  0  0  0  0  0  0  0  0  0  0  0
   -6.9360   25.1994  -30.6419 H   0  0  0  0  0  0  0  0  0  0  0  0
   -6.4638   24.5553  -32.6571 H   0  0  0  0  0  0  0  0  0  0  0  0
   -4.9202   23.6686  -33.0772 H   0  0  0  0  0  0  0  0  0  0  0  0
   -8.5519   23.0488  -31.8121 H   0  0  0  0  0  0  0  0  0  0  0  0
  -10.0715   20.7191  -31.4942 H   0  0  0  0  0  0  0  0  0  0  0  0
   -9.9588   18.2039  -31.5187 H   0  0  0  0  0  0  0  0  0  0  0  0
   -7.7788   17.0532  -31.9585 H   0  0  0  0  0  0  0  0  0  0  0  0
   -4.5475   18.9780  -32.4239 H   0  0  0  0  0  0  0  0  0  0  0  0
   -5.2071   17.4461  -31.7072 H   0  0  0  0  0  0  0  0  0  0  0  0
   -4.3193   17.2074  -34.0577 H   0  0  0  0  0  0  0  0  0  0  0  0
   -6.0583   16.7301  -33.8249 H   0  0  0  0  0  0  0  0  0  0  0  0
   -6.1765   19.4371  -34.5165 H   0  0  0  0  0  0  0  0  0  0  0  0
   -4.8944   18.7688  -35.5824 H   0  0  0  0  0  0  0  0  0  0  0  0
   -6.5345   18.0363  -35.5824 H   0  0  0  0  0  0  0  0  0  0  0  0
   -4.7844   21.0373  -32.5851 H   0  0  0  0  0  0  0  0  0  0  0  0
  1  2  3  0
  2  3  1  0
  3  4  1  0
  4  5  1  0
  4  6  1  0
  6  7  1  0
  7  8  1  0
  8  9  2  0
  9 10  1  0
 10 11  2  0
 11 12  1  0
 12 13  2  0
 13 14  1  0
 14 15  1  0
 15 16  1  0
 13 17  1  0
 17 18  1  0
 18  7  2  0
 17  9  1  0
  1 19  1  0
  3 20  1  0
  3 21  1  0
  5 22  1  0
  5 23  1  0
  5 24  1  0
  6 25  1  0
  6 26  1  0
  8 27  1  0
 10 28  1  0
 11 29  1  0
 12 30  1  0
 14 31  1  0
 14 32  1  0
 15 33  1  0
 15 34  1  0
 16 35  1  0
 16 36  1  0
 16 37  1  0
 18 38  1  0
M  END
>  <UniqueID>  (29) 
29

>  <SMILES>  (29) 
C#CCN(C)Cc1cc2cccc(CCC)n2c1

>  <Energy>  (29) 
66.23618389367749

>  <Genealogy>  (29) 
C#CCN(C)Cc1cc2cccc(CCC)n2c1 (3D coordinates assigned)
C#CCN(C)Cc1cc2cccc(CCC)n2c1 (optimized conformer: 66.23618389367749 kcal/mol)

>  <smiles>  (29) 
C#CCN(C)Cc1cc2cccc(CCC)n2c1

>  <score_type>  (29) 
oracle

>  <origin>  (29) 
adg

>  <m_score__min__energy>  (29) 
-6.9000000000000004

>  <m_primary>  (29) 
energy

$$$$
29:0
     RDKit          3D

 58 61  0  0  0  0  0  0  0  0999 V2000
   -8.7340   18.8600  -30.9760 O   0  0  0  0  0  0  0  0  0  0  0  0
   -8.2250   19.5340  -32.2190 S   0  0  0  0  0  0  0  0  0  0  0  0
   -9.3950   19.7980  -33.1250 O   0  0  0  0  0  0  0  0  0  0  0  0
   -7.0660   18.4970  -33.0430 C   0  0  0  0  0  0  0  0  0  0  0  0
   -6.3670   18.9680  -34.1640 C   0  0  0  0  0  0  0  0  0  0  0  0
   -5.4710   18.1300  -34.8340 C   0  0  0  0  0  0  0  0  0  0  0  0
   -5.2730   16.8190  -34.3920 C   0  0  0  0  0  0  0  0  0  0  0  0
   -5.9730   16.3430  -33.2800 C   0  0  0  0  0  0  0  0  0  0  0  0
   -6.8710   17.1780  -32.6080 C   0  0  0  0  0  0  0  0  0  0  0  0
   -7.4280   21.0430  -31.7870 C   0  0  0  0  0  0  0  0  0  0  0  0
   -6.2130   21.4070  -32.3820 C   0  0  0  0  0  0  0  0  0  0  0  0
   -5.5700   22.5900  -32.0030 C   0  0  0  0  0  0  0  0  0  0  0  0
   -6.1380   23.4200  -31.0220 C   0  0  0  0  0  0  0  0  0  0  0  0
   -5.4270   24.6640  -30.5610 C   0  0  0  0  0  0  0  0  0  0  0  0
   -4.3170   24.2970  -29.6600 N   0  0  0  0  0  0  0  0  0  0  0  0
   -4.7270   23.2790  -28.6780 C   0  0  0  0  0  0  0  0  0  0  0  0
   -3.6220   23.0870  -27.6170 C   0  0  0  0  0  0  0  0  0  0  0  0
   -2.2830   23.5530  -28.0710 N   0  0  0  0  0  0  0  0  0  0  0  0
   -2.0330   24.9860  -27.7090 C   0  0  0  0  0  0  0  0  0  0  0  0
   -2.6610   25.3000  -26.3100 C   0  0  0  0  0  0  0  0  0  0  0  0
   -1.6300   25.6190  -25.2200 C   0  0  0  0  0  0  0  0  0  0  0  0
   -0.7200   26.7910  -25.6240 C   0  0  0  0  0  0  0  0  0  0  0  0
   -0.3120   26.7610  -27.1100 C   0  0  0  0  0  0  0  0  0  0  0  0
   -0.5310   25.3840  -27.7460 C   0  0  0  0  0  0  0  0  0  0  0  0
   -2.0830   23.1930  -29.4960 C   0  0  0  0  0  0  0  0  0  0  0  0
   -3.1490   23.8180  -30.4240 C   0  0  0  0  0  0  0  0  0  0  0  0
   -7.3520   23.0480  -30.4240 C   0  0  0  0  0  0  0  0  0  0  0  0
   -7.9930   21.8670  -30.8070 C   0  0  0  0  0  0  0  0  0  0  0  0
   -6.5241   19.9981  -34.5164 H   0  0  0  0  0  0  0  0  0  0  0  0
   -4.9209   18.5030  -35.7105 H   0  0  0  0  0  0  0  0  0  0  0  0
   -4.5661   16.1617  -34.9195 H   0  0  0  0  0  0  0  0  0  0  0  0
   -5.8174   15.3108  -32.9332 H   0  0  0  0  0  0  0  0  0  0  0  0
   -7.4255   16.7997  -31.7366 H   0  0  0  0  0  0  0  0  0  0  0  0
   -5.7632   20.7603  -33.1498 H   0  0  0  0  0  0  0  0  0  0  0  0
   -4.6168   22.8713  -32.4744 H   0  0  0  0  0  0  0  0  0  0  0  0
   -5.0273   25.2015  -31.4336 H   0  0  0  0  0  0  0  0  0  0  0  0
   -6.1355   25.3102  -30.0221 H   0  0  0  0  0  0  0  0  0  0  0  0
   -5.6538   23.6042  -28.1828 H   0  0  0  0  0  0  0  0  0  0  0  0
   -4.8947   22.3247  -29.1987 H   0  0  0  0  0  0  0  0  0  0  0  0
   -3.9013   23.6522  -26.7156 H   0  0  0  0  0  0  0  0  0  0  0  0
   -3.5423   22.0075  -27.4210 H   0  0  0  0  0  0  0  0  0  0  0  0
   -2.5220   25.5989  -28.4805 H   0  0  0  0  0  0  0  0  0  0  0  0
   -3.3296   26.1668  -26.4178 H   0  0  0  0  0  0  0  0  0  0  0  0
   -3.1925   24.3920  -25.9890 H   0  0  0  0  0  0  0  0  0  0  0  0
   -2.1608   25.8827  -24.2933 H   0  0  0  0  0  0  0  0  0  0  0  0
   -0.9994   24.7297  -25.0734 H   0  0  0  0  0  0  0  0  0  0  0  0
   -1.2546   27.7321  -25.4275 H   0  0  0  0  0  0  0  0  0  0  0  0
    0.2025   26.7071  -25.0308 H   0  0  0  0  0  0  0  0  0  0  0  0
   -0.9128   27.5027  -27.6568 H   0  0  0  0  0  0  0  0  0  0  0  0
    0.7620   26.9916  -27.1686 H   0  0  0  0  0  0  0  0  0  0  0  0
   -0.1922   25.4129  -28.7921 H   0  0  0  0  0  0  0  0  0  0  0  0
    0.0431   24.6391  -27.1755 H   0  0  0  0  0  0  0  0  0  0  0  0
   -1.0904   23.5461  -29.8123 H   0  0  0  0  0  0  0  0  0  0  0  0
   -2.1708   22.0996  -29.5781 H   0  0  0  0  0  0  0  0  0  0  0  0
   -2.7013   24.6666  -30.9620 H   0  0  0  0  0  0  0  0  0  0  0  0
   -3.4904   23.0445  -31.1276 H   0  0  0  0  0  0  0  0  0  0  0  0
   -7.8007   23.6888  -29.6506 H   0  0  0  0  0  0  0  0  0  0  0  0
   -8.9459   21.5837  -30.3362 H   0  0  0  0  0  0  0  0  0  0  0  0
  1  2  2  0
  2  3  2  0
  2  4  1  0
  4  5  2  0
  5  6  1  0
  6  7  2  0
  7  8  1  0
  8  9  2  0
  2 10  1  0
 10 11  2  0
 11 12  1  0
 12 13  2  0
 13 14  1  0
 14 15  1  0
 15 16  1  0
 16 17  1  0
 17 18  1  0
 18 19  1  0
 19 20  1  0
 20 21  1  0
 21 22  1  0
 22 23  1  0
 23 24  1  0
 18 25  1  0
 25 26  1  0
 13 27  1  0
 27 28  2  0
  9  4  1  0
 28 10  1  0
 26 15  1  0
 24 19  1  0
  5 29  1  0
  6 30  1  0
  7 31  1  0
  8 32  1  0
  9 33  1  0
 11 34  1  0
 12 35  1  0
 14 36  1  0
 14 37  1  0
 16 38  1  0
 16 39  1  0
 17 40  1  0
 17 41  1  0
 19 42  1  0
 20 43  1  0
 20 44  1  0
 21 45  1  0
 21 46  1  0
 22 47  1  0
 22 48  1  0
 23 49  1  0
 23 50  1  0
 24 51  1  0
 24 52  1  0
 25 53  1  0
 25 54  1  0
 26 55  1  0
 26 56  1  0
 27 57  1  0
 28 58  1  0
M  END
>  <UniqueID>  (30) 
30

>  <SMILES>  (30) 
O=S(=O)(c1ccccc1)c1ccc(CN2CCN(C3CCCCC3)CC2)cc1

>  <Energy>  (30) 
81.63482134482196

>  <Genealogy>  (30) 
O=S(=O)(c1ccccc1)c1ccc(CN2CCN(C3CCCCC3)CC2)cc1 (3D coordinates assigned)
O=S(=O)(c1ccccc1)c1ccc(CN2CCN(C3CCCCC3)CC2)cc1 (nonaromatic ring conformer: 81.63482134482196 kcal/mol)

>  <smiles>  (30) 
O=S(=O)(c1ccccc1)c1ccc(CN2CCN(C3CCCCC3)CC2)cc1

>  <score_type>  (30) 
oracle

>  <origin>  (30) 
adg

>  <m_score__min__energy>  (30) 
-10.27

>  <m_primary>  (30) 
energy

$$$$
30:0
     RDKit          3D

 40 41  0  0  0  0  0  0  0  0999 V2000
   -9.6730   21.7280  -30.7780 C   0  0  0  0  0  0  0  0  0  0  0  0
   -8.4350   21.7290  -31.6300 C   0  0  0  0  0  0  0  0  0  0  0  0
   -7.9940   20.5870  -32.1830 C   0  0  0  0  0  0  0  0  0  0  0  0
   -6.7430   20.6030  -33.0310 C   0  0  2  0  0  0  0  0  0  0  0  0
   -6.2500   19.1990  -33.3210 C   0  0  0  0  0  0  0  0  0  0  0  0
   -5.7340   18.8630  -34.5860 C   0  0  0  0  0  0  0  0  0  0  0  0
   -5.3020   17.5610  -34.8530 C   0  0  0  0  0  0  0  0  0  0  0  0
   -5.3650   16.5710  -33.8580 C   0  0  0  0  0  0  0  0  0  0  0  0
   -4.9470   15.1550  -34.1620 C   0  0  0  0  0  0  0  0  0  0  0  0
   -6.0390   14.3930  -34.5430 F   0  0  0  0  0  0  0  0  0  0  0  0
   -4.0230   15.1300  -35.1930 F   0  0  0  0  0  0  0  0  0  0  0  0
   -4.3780   14.5960  -33.0340 F   0  0  0  0  0  0  0  0  0  0  0  0
   -5.9160   16.8970  -32.6070 C   0  0  0  0  0  0  0  0  0  0  0  0
   -6.3480   18.1990  -32.3400 C   0  0  0  0  0  0  0  0  0  0  0  0
   -5.6240   21.4650  -32.3860 C   0  0  0  0  0  0  0  0  0  0  0  0
   -6.1350   22.6960  -31.5820 C   0  0  1  0  0  0  0  0  0  0  0  0
   -5.3630   23.8320  -31.9410 O   0  0  0  0  0  0  0  0  0  0  0  0
   -5.7670   24.9900  -31.2310 C   0  0  0  0  0  0  0  0  0  0  0  0
   -4.8560   25.2300  -30.0280 C   0  0  0  0  0  0  0  0  0  0  0  0
   -3.5210   25.2790  -30.4470 O   0  0  0  0  0  0  0  0  0  0  0  0
   -7.6270   22.9880  -31.8390 C   0  0  0  0  0  0  0  0  0  0  0  0
   -9.3871   21.7282  -29.7158 H   0  0  0  0  0  0  0  0  0  0  0  0
  -10.2698   22.6257  -30.9973 H   0  0  0  0  0  0  0  0  0  0  0  0
  -10.2683   20.8294  -30.9973 H   0  0  0  0  0  0  0  0  0  0  0  0
   -8.5399   19.6461  -32.0197 H   0  0  0  0  0  0  0  0  0  0  0  0
   -7.0096   21.0695  -33.9908 H   0  0  0  0  0  0  0  0  0  0  0  0
   -5.6701   19.6310  -35.3709 H   0  0  0  0  0  0  0  0  0  0  0  0
   -4.9098   17.3094  -35.8494 H   0  0  0  0  0  0  0  0  0  0  0  0
   -6.0079   16.1216  -31.8322 H   0  0  0  0  0  0  0  0  0  0  0  0
   -6.7683   18.4425  -31.3531 H   0  0  0  0  0  0  0  0  0  0  0  0
   -5.0484   20.8238  -31.7023 H   0  0  0  0  0  0  0  0  0  0  0  0
   -5.0209   21.8633  -33.2152 H   0  0  0  0  0  0  0  0  0  0  0  0
   -6.0257   22.4687  -30.5113 H   0  0  0  0  0  0  0  0  0  0  0  0
   -5.7170   25.8606  -31.9014 H   0  0  0  0  0  0  0  0  0  0  0  0
   -6.7965   24.8440  -30.8720 H   0  0  0  0  0  0  0  0  0  0  0  0
   -5.1244   26.1842  -29.5511 H   0  0  0  0  0  0  0  0  0  0  0  0
   -4.9809   24.4080  -29.3078 H   0  0  0  0  0  0  0  0  0  0  0  0
   -3.5110   24.9270  -31.3750 H   0  0  0  0  0  0  0  0  0  0  0  0
   -7.9731   23.7648  -31.1413 H   0  0  0  0  0  0  0  0  0  0  0  0
   -7.7571   23.3370  -32.8740 H   0  0  0  0  0  0  0  0  0  0  0  0
  1  2  1  0
  2  3  2  0
  3  4  1  0
  4  5  1  0
  5  6  2  0
  6  7  1  0
  7  8  2  0
  8  9  1  0
  9 10  1  0
  9 11  1  0
  9 12  1  0
  8 13  1  0
 13 14  2  0
  4 15  1  0
 15 16  1  0
 16 17  1  0
 17 18  1  0
 18 19  1  0
 19 20  1  0
 16 21  1  0
 21  2  1  0
 14  5  1  0
  1 22  1  0
  1 23  1  0
  1 24  1  0
  3 25  1  0
  4 26  1  6
  6 27  1  0
  7 28  1  0
 13 29  1  0
 14 30  1  0
 15 31  1  0
 15 32  1  0
 16 33  1  1
 18 34  1  0
 18 35  1  0
 19 36  1  0
 19 37  1  0
 20 38  1  0
 21 39  1  0
 21 40  1  0
M  END
>  <UniqueID>  (31) 
31

>  <SMILES>  (31) 
CC1=C[C@H](c2ccc(C(F)(F)F)cc2)C[C@@H](OCCO)C1

>  <Energy>  (31) 
42.45571701230131

>  <Genealogy>  (31) 
CC1=C[C@H](c2ccc(C(F)(F)F)cc2)C[C@@H](OCCO)C1 (chirality)
CC1=C[C@H](c2ccc(C(F)(F)F)cc2)C[C@@H](OCCO)C1 (3D coordinates assigned)
CC1=C[C@H](c2ccc(C(F)(F)F)cc2)C[C@@H](OCCO)C1 (nonaromatic ring conformer: 42.45571701230131 kcal/mol)

>  <smiles>  (31) 
CC1=CC(c2ccc(C(F)(F)F)cc2)CC(OCCO)C1

>  <score_type>  (31) 
oracle

>  <origin>  (31) 
adg

>  <m_score__min__energy>  (31) 
-8.4399999999999995

>  <m_primary>  (31) 
energy

$$$$
31:0
     RDKit          3D

 41 41  0  0  0  0  0  0  0  0999 V2000
   -6.6460   17.3810  -32.6210 C   0  0  0  0  0  0  0  0  0  0  0  0
   -7.3540   18.3540  -32.6910 C   0  0  0  0  0  0  0  0  0  0  0  0
   -8.2190   19.5370  -32.7730 C   0  0  0  0  0  0  0  0  0  0  0  0
   -7.6400   20.6450  -31.9880 N   0  0  0  0  0  0  0  0  0  0  0  0
   -8.7020   21.5920  -31.5820 C   0  0  0  0  0  0  0  0  0  0  0  0
   -8.2590   23.0670  -31.5650 C   0  0  0  0  0  0  0  0  0  0  0  0
   -7.1320   23.4010  -30.5630 C   0  0  0  0  0  0  0  0  0  0  0  0
   -6.0640   22.3680  -30.4520 N   0  0  2  0  0  0  0  0  0  0  0  0
   -5.0230   22.7280  -29.4490 C   0  0  0  0  0  0  0  0  0  0  0  0
   -4.2320   24.0500  -29.6810 C   0  0  1  0  0  0  0  0  0  0  0  0
   -2.7230   23.7240  -29.6590 C   0  0  0  0  0  0  0  0  0  0  0  0
   -2.4330   22.2480  -29.9250 C   0  0  0  0  0  0  0  0  0  0  0  0
   -4.5620   24.6060  -30.9440 O   0  0  0  0  0  0  0  0  0  0  0  0
   -5.3400   25.7760  -30.7950 C   0  0  0  0  0  0  0  0  0  0  0  0
   -5.4900   21.9440  -31.7570 C   0  0  0  0  0  0  0  0  0  0  0  0
   -6.5310   21.3060  -32.7170 C   0  0  0  0  0  0  0  0  0  0  0  0
   -5.9999   16.4931  -32.5571 H   0  0  0  0  0  0  0  0  0  0  0  0
   -8.3132   19.8465  -33.8243 H   0  0  0  0  0  0  0  0  0  0  0  0
   -9.2098   19.2871  -32.3659 H   0  0  0  0  0  0  0  0  0  0  0  0
   -9.5413   21.4918  -32.2860 H   0  0  0  0  0  0  0  0  0  0  0  0
   -8.9790   21.3330  -30.5495 H   0  0  0  0  0  0  0  0  0  0  0  0
   -7.9068   23.3287  -32.5737 H   0  0  0  0  0  0  0  0  0  0  0  0
   -9.1367   23.6468  -31.2434 H   0  0  0  0  0  0  0  0  0  0  0  0
   -6.6630   24.3447  -30.8785 H   0  0  0  0  0  0  0  0  0  0  0  0
   -7.6075   23.4604  -29.5729 H   0  0  0  0  0  0  0  0  0  0  0  0
   -6.5090   21.5240  -30.0180 H   0  0  0  0  0  0  0  0  0  0  0  0
   -5.5204   22.8082  -28.4712 H   0  0  0  0  0  0  0  0  0  0  0  0
   -4.2689   21.9310  -29.5272 H   0  0  0  0  0  0  0  0  0  0  0  0
   -4.4888   24.7736  -28.8933 H   0  0  0  0  0  0  0  0  0  0  0  0
   -2.2221   24.3255  -30.4318 H   0  0  0  0  0  0  0  0  0  0  0  0
   -2.3477   23.9593  -28.6521 H   0  0  0  0  0  0  0  0  0  0  0  0
   -2.3286   21.7165  -28.9676 H   0  0  0  0  0  0  0  0  0  0  0  0
   -3.2621   21.8092  -30.4995 H   0  0  0  0  0  0  0  0  0  0  0  0
   -1.4995   22.1555  -30.4995 H   0  0  0  0  0  0  0  0  0  0  0  0
   -5.4813   25.9885  -29.7250 H   0  0  0  0  0  0  0  0  0  0  0  0
   -4.8243   26.6225  -31.2720 H   0  0  0  0  0  0  0  0  0  0  0  0
   -6.3201   25.6278  -31.2720 H   0  0  0  0  0  0  0  0  0  0  0  0
   -5.0579   22.8272  -32.2501 H   0  0  0  0  0  0  0  0  0  0  0  0
   -4.7351   21.1733  -31.5419 H   0  0  0  0  0  0  0  0  0  0  0  0
   -6.9504   22.0951  -33.3584 H   0  0  0  0  0  0  0  0  0  0  0  0
   -6.0139   20.5374  -33.3103 H   0  0  0  0  0  0  0  0  0  0  0  0
  1  2  3  0
  2  3  1  0
  3  4  1  0
  4  5  1  0
  5  6  1  0
  6  7  1  0
  7  8  1  0
  8  9  1  0
  9 10  1  0
 10 11  1  0
 11 12  1  0
 10 13  1  0
 13 14  1  0
  8 15  1  0
 15 16  1  0
 16  4  1  0
  1 17  1  0
  3 18  1  0
  3 19  1  0
  5 20  1  0
  5 21  1  0
  6 22  1  0
  6 23  1  0
  7 24  1  0
  7 25  1  0
  8 26  1  1
  9 27  1  0
  9 28  1  0
 10 29  1  1
 11 30  1  0
 11 31  1  0
 12 32  1  0
 12 33  1  0
 12 34  1  0
 14 35  1  0
 14 36  1  0
 14 37  1  0
 15 38  1  0
 15 39  1  0
 16 40  1  0
 16 41  1  0
M  CHG  1   8   1
M  END
>  <UniqueID>  (32) 
32

>  <SMILES>  (32) 
C#CCN1CCC[N@H+](C[C@@H](CC)OC)CC1

>  <Energy>  (32) 
55.71377341658249

>  <Genealogy>  (32) 
C#CCN1CCC[NH+](CC(CC)OC)CC1 (protonated)
C#CCN1CCC[N@H+](C[C@@H](CC)OC)CC1 (chirality)
C#CCN1CCC[N@H+](C[C@@H](CC)OC)CC1 (3D coordinates assigned)
C#CCN1CCC[N@H+](C[C@@H](CC)OC)CC1 (nonaromatic ring conformer: 55.71377341658249 kcal/mol)

>  <smiles>  (32) 
C#CCN1CCCN(CC(CC)OC)CC1

>  <score_type>  (32) 
oracle

>  <origin>  (32) 
adg

>  <m_score__min__energy>  (32) 
-3.8100000000000001

>  <m_primary>  (32) 
energy

$$$$
32:0
     RDKit          3D

 69 71  0  0  0  0  0  0  0  0999 V2000
   -2.8300   19.8470  -27.1130 C   0  0  0  0  0  0  0  0  0  0  0  0
   -1.9870   20.3690  -28.2710 C   0  0  0  0  0  0  0  0  0  0  0  0
   -2.6670   21.5130  -28.9240 N   0  0  0  0  0  0  0  0  0  0  0  0
   -3.7810   22.0200  -28.0910 C   0  0  0  0  0  0  0  0  0  0  0  0
   -3.4760   23.4360  -27.6100 C   0  0  0  0  0  0  0  0  0  0  0  0
   -1.7030   22.5910  -29.2460 C   0  0  0  0  0  0  0  0  0  0  0  0
   -0.6370   22.0750  -30.2180 C   0  0  0  0  0  0  0  0  0  0  0  0
   -1.1150   20.9440  -30.9210 O   0  0  0  0  0  0  0  0  0  0  0  0
   -0.0790   20.0030  -31.1490 C   0  0  0  0  0  0  0  0  0  0  0  0
   -0.6000   18.8300  -31.9770 C   0  0  0  0  0  0  0  0  0  0  0  0
   -2.0190   18.8910  -32.0320 O   0  0  0  0  0  0  0  0  0  0  0  0
   -2.4720   19.1160  -33.3150 N   0  0  0  0  0  0  0  0  0  0  0  0
   -2.1850   17.9880  -34.2190 C   0  0  0  0  0  0  0  0  0  0  0  0
   -2.1130   20.4480  -33.8460 C   0  0  0  0  0  0  0  0  0  0  0  0
   -2.9580   21.5430  -33.1790 C   0  0  0  0  0  0  0  0  0  0  0  0
   -3.4290   21.1100  -31.8550 N   0  0  0  0  0  0  0  0  0  0  0  0
   -4.8650   21.3170  -31.7330 C   0  0  0  0  0  0  0  0  0  0  0  0
   -5.3760   22.5510  -31.2480 C   0  0  0  0  0  0  0  0  0  0  0  0
   -4.5280   23.6570  -30.9810 C   0  0  0  0  0  0  0  0  0  0  0  0
   -5.0250   24.8250  -30.4120 C   0  0  0  0  0  0  0  0  0  0  0  0
   -6.3700   24.9240  -30.0930 C   0  0  0  0  0  0  0  0  0  0  0  0
   -7.2370   23.8770  -30.3900 C   0  0  0  0  0  0  0  0  0  0  0  0
   -6.7740   22.6940  -31.0230 C   0  0  0  0  0  0  0  0  0  0  0  0
   -7.6480   21.6970  -31.4050 N   0  0  0  0  0  0  0  0  0  0  0  0
   -9.1040   21.9700  -31.4500 C   0  0  0  0  0  0  0  0  0  0  0  0
   -7.1690   20.4640  -31.8000 C   0  0  0  0  0  0  0  0  0  0  0  0
   -8.0380   19.3530  -31.9630 C   0  0  0  0  0  0  0  0  0  0  0  0
   -7.5720   18.1370  -32.4550 C   0  0  0  0  0  0  0  0  0  0  0  0
   -6.2360   17.9900  -32.7940 C   0  0  0  0  0  0  0  0  0  0  0  0
   -5.3450   19.0400  -32.5920 C   0  0  0  0  0  0  0  0  0  0  0  0
   -5.7790   20.2740  -32.0430 C   0  0  0  0  0  0  0  0  0  0  0  0
   -2.3630   20.1362  -26.1600 H   0  0  0  0  0  0  0  0  0  0  0  0
   -3.8405   20.2777  -27.1717 H   0  0  0  0  0  0  0  0  0  0  0  0
   -2.8948   18.7505  -27.1717 H   0  0  0  0  0  0  0  0  0  0  0  0
   -1.0089   20.6973  -27.8894 H   0  0  0  0  0  0  0  0  0  0  0  0
   -1.8514   19.5637  -29.0080 H   0  0  0  0  0  0  0  0  0  0  0  0
   -4.7054   22.0298  -28.6871 H   0  0  0  0  0  0  0  0  0  0  0  0
   -3.9048   21.3627  -27.2177 H   0  0  0  0  0  0  0  0  0  0  0  0
   -3.4715   23.4567  -26.5102 H   0  0  0  0  0  0  0  0  0  0  0  0
   -2.4903   23.7468  -27.9866 H   0  0  0  0  0  0  0  0  0  0  0  0
   -4.2463   24.1251  -27.9866 H   0  0  0  0  0  0  0  0  0  0  0  0
   -2.2399   23.4322  -29.7087 H   0  0  0  0  0  0  0  0  0  0  0  0
   -1.2127   22.9226  -28.3188 H   0  0  0  0  0  0  0  0  0  0  0  0
   -0.3873   22.8694  -30.9368 H   0  0  0  0  0  0  0  0  0  0  0  0
    0.2574   21.7872  -29.6460 H   0  0  0  0  0  0  0  0  0  0  0  0
    0.7431   20.4929  -31.6913 H   0  0  0  0  0  0  0  0  0  0  0  0
    0.2803   19.6252  -30.1804 H   0  0  0  0  0  0  0  0  0  0  0  0
   -0.1894   18.8877  -32.9959 H   0  0  0  0  0  0  0  0  0  0  0  0
   -0.2884   17.8826  -31.5130 H   0  0  0  0  0  0  0  0  0  0  0  0
   -1.9567   17.0909  -33.6248 H   0  0  0  0  0  0  0  0  0  0  0  0
   -3.0624   17.7941  -34.8534 H   0  0  0  0  0  0  0  0  0  0  0  0
   -1.3216   18.2371  -34.8534 H   0  0  0  0  0  0  0  0  0  0  0  0
   -1.0486   20.6414  -33.6468 H   0  0  0  0  0  0  0  0  0  0  0  0
   -2.3068   20.4615  -34.9287 H   0  0  0  0  0  0  0  0  0  0  0  0
   -2.3464   22.4501  -33.0646 H   0  0  0  0  0  0  0  0  0  0  0  0
   -3.8331   21.7466  -33.8136 H   0  0  0  0  0  0  0  0  0  0  0  0
   -3.1730   20.1120  -31.6860 H   0  0  0  0  0  0  0  0  0  0  0  0
   -2.9130   21.6090  -31.0970 H   0  0  0  0  0  0  0  0  0  0  0  0
   -3.4583   23.5895  -31.2284 H   0  0  0  0  0  0  0  0  0  0  0  0
   -4.3498   25.6708  -30.2151 H   0  0  0  0  0  0  0  0  0  0  0  0
   -6.7529   25.8320  -29.6041 H   0  0  0  0  0  0  0  0  0  0  0  0
   -8.3018   23.9679  -30.1292 H   0  0  0  0  0  0  0  0  0  0  0  0
   -9.4952   22.0433  -30.4245 H   0  0  0  0  0  0  0  0  0  0  0  0
   -9.2832   22.9174  -31.9794 H   0  0  0  0  0  0  0  0  0  0  0  0
   -9.6143   21.1519  -31.9794 H   0  0  0  0  0  0  0  0  0  0  0  0
   -9.1000   19.4551  -31.6953 H   0  0  0  0  0  0  0  0  0  0  0  0
   -8.2652   17.2913  -32.5750 H   0  0  0  0  0  0  0  0  0  0  0  0
   -5.8794   17.0421  -33.2233 H   0  0  0  0  0  0  0  0  0  0  0  0
   -4.2866   18.9109  -32.8626 H   0  0  0  0  0  0  0  0  0  0  0  0
  1  2  1  0
  2  3  1  0
  3  4  1  0
  4  5  1  0
  3  6  1  0
  6  7  1  0
  7  8  1  0
  8  9  1  0
  9 10  1  0
 10 11  1  0
 11 12  1  0
 12 13  1  0
 12 14  1  0
 14 15  1  0
 15 16  1  0
 16 17  1  0
 17 18  2  0
 18 19  1  0
 19 20  2  0
 20 21  1  0
 21 22  2  0
 22 23  1  0
 23 24  2  0
 24 25  1  0
 24 26  1  0
 26 27  2  0
 27 28  1  0
 28 29  2  0
 29 30  1  0
 30 31  2  0
 31 17  1  0
 23 18  1  0
 31 26  1  0
  1 32  1  0
  1 33  1  0
  1 34  1  0
  2 35  1  0
  2 36  1  0
  4 37  1  0
  4 38  1  0
  5 39  1  0
  5 40  1  0
  5 41  1  0
  6 42  1  0
  6 43  1  0
  7 44  1  0
  7 45  1  0
  9 46  1  0
  9 47  1  0
 10 48  1  0
 10 49  1  0
 13 50  1  0
 13 51  1  0
 13 52  1  0
 14 53  1  0
 14 54  1  0
 15 55  1  0
 15 56  1  0
 16 57  1  0
 16 58  1  0
 19 59  1  0
 20 60  1  0
 21 61  1  0
 22 62  1  0
 25 63  1  0
 25 64  1  0
 25 65  1  0
 27 66  1  0
 28 67  1  0
 29 68  1  0
 30 69  1  0
M  CHG  2  16   1  24   1
M  END
>  <UniqueID>  (33) 
33

>  <SMILES>  (33) 
CCN(CC)CCOCCON(C)CC[NH2+]c1c2ccccc2[n+](C)c2ccccc12

>  <Energy>  (33) 
106.79750876016355

>  <Genealogy>  (33) 
CCN(CC)CCOCCON(C)CC[NH2+]c1c2ccccc2[n+](C)c2ccccc12 (protonated)
CCN(CC)CCOCCON(C)CC[NH2+]c1c2ccccc2[n+](C)c2ccccc12 (3D coordinates assigned)
CCN(CC)CCOCCON(C)CC[NH2+]c1c2ccccc2[n+](C)c2ccccc12 (optimized conformer: 106.79750876016355 kcal/mol)

>  <smiles>  (33) 
CCN(CC)CCOCCON(C)CCNc1c2ccccc2[n+](C)c2ccccc12

>  <score_type>  (33) 
oracle

>  <origin>  (33) 
adg

>  <m_score__min__energy>  (33) 
-9.8699999999999992

>  <m_primary>  (33) 
energy

$$$$
33:0
     RDKit          3D

 59 62  0  0  0  0  0  0  0  0999 V2000
   -3.7000   17.3320  -34.7130 C   0  0  0  0  0  0  0  0  0  0  0  0
   -4.8900   18.0690  -34.9740 O   0  0  0  0  0  0  0  0  0  0  0  0
   -5.8660   18.3590  -34.0110 C   0  0  0  0  0  0  0  0  0  0  0  0
   -6.6080   17.2850  -33.4670 C   0  0  0  0  0  0  0  0  0  0  0  0
   -7.6090   17.5120  -32.5070 C   0  0  0  0  0  0  0  0  0  0  0  0
   -7.8460   18.8250  -32.1110 C   0  0  0  0  0  0  0  0  0  0  0  0
   -8.7770   19.2570  -31.2410 N   0  0  0  0  0  0  0  0  0  0  0  0
   -8.6640   20.6040  -31.2110 C   0  0  0  0  0  0  0  0  0  0  0  0
   -7.6480   21.0260  -32.0650 C   0  0  0  0  0  0  0  0  0  0  0  0
   -7.2580   22.4470  -32.3530 C   0  0  0  0  0  0  0  0  0  0  0  0
   -7.7440   23.4170  -31.2660 C   0  0  0  0  0  0  0  0  0  0  0  0
   -6.6360   24.3610  -30.7430 C   0  0  0  0  0  0  0  0  0  0  0  0
   -5.5090   23.5990  -30.0330 C   0  0  0  0  0  0  0  0  0  0  0  0
   -4.2310   23.7820  -30.7570 N   0  0  0  0  0  0  0  0  0  0  0  0
   -3.1240   24.2220  -29.9000 C   0  0  0  0  0  0  0  0  0  0  0  0
   -2.6370   23.1380  -28.9210 C   0  0  0  0  0  0  0  0  0  0  0  0
   -2.7970   21.7420  -29.3840 N   0  0  0  0  0  0  0  0  0  0  0  0
   -2.3520   20.6510  -28.5150 C   0  0  0  0  0  0  0  0  0  0  0  0
   -3.1100   20.2570  -27.3870 C   0  0  0  0  0  0  0  0  0  0  0  0
   -2.6760   19.2260  -26.5520 C   0  0  0  0  0  0  0  0  0  0  0  0
   -1.4860   18.5560  -26.8190 C   0  0  0  0  0  0  0  0  0  0  0  0
   -0.7180   18.9000  -27.9380 C   0  0  0  0  0  0  0  0  0  0  0  0
    0.5980   18.2030  -28.1930 C   0  0  0  0  0  0  0  0  0  0  0  0
    1.6340   19.0380  -27.8230 F   0  0  0  0  0  0  0  0  0  0  0  0
    0.7360   17.8770  -29.5310 F   0  0  0  0  0  0  0  0  0  0  0  0
    0.6760   17.0340  -27.4560 F   0  0  0  0  0  0  0  0  0  0  0  0
   -1.1400   19.9600  -28.7630 C   0  0  0  0  0  0  0  0  0  0  0  0
   -3.5060   21.4060  -30.6390 C   0  0  0  0  0  0  0  0  0  0  0  0
   -3.8150   22.6090  -31.5310 C   0  0  0  0  0  0  0  0  0  0  0  0
   -7.1340   19.8740  -32.6310 C   0  0  0  0  0  0  0  0  0  0  0  0
   -6.1300   19.6830  -33.5790 C   0  0  0  0  0  0  0  0  0  0  0  0
   -3.5552   17.2423  -33.6263 H   0  0  0  0  0  0  0  0  0  0  0  0
   -3.7856   16.3286  -35.1555 H   0  0  0  0  0  0  0  0  0  0  0  0
   -2.8398   17.8557  -35.1555 H   0  0  0  0  0  0  0  0  0  0  0  0
   -6.3988   16.2577  -33.7999 H   0  0  0  0  0  0  0  0  0  0  0  0
   -8.1870   16.6782  -32.0820 H   0  0  0  0  0  0  0  0  0  0  0  0
   -9.4650   18.6760  -30.7140 H   0  0  0  0  0  0  0  0  0  0  0  0
   -9.2868   21.2724  -30.5984 H   0  0  0  0  0  0  0  0  0  0  0  0
   -6.1614   22.5070  -32.4159 H   0  0  0  0  0  0  0  0  0  0  0  0
   -7.7317   22.7401  -33.3015 H   0  0  0  0  0  0  0  0  0  0  0  0
   -8.5557   24.0305  -31.6841 H   0  0  0  0  0  0  0  0  0  0  0  0
   -8.0792   22.8073  -30.4139 H   0  0  0  0  0  0  0  0  0  0  0  0
   -6.2092   24.9113  -31.5944 H   0  0  0  0  0  0  0  0  0  0  0  0
   -7.0932   25.0439  -30.0118 H   0  0  0  0  0  0  0  0  0  0  0  0
   -5.4029   23.9809  -29.0069 H   0  0  0  0  0  0  0  0  0  0  0  0
   -5.7586   22.5279  -30.0120 H   0  0  0  0  0  0  0  0  0  0  0  0
   -2.2809   24.5146  -30.5431 H   0  0  0  0  0  0  0  0  0  0  0  0
   -3.4974   25.0609  -29.2943 H   0  0  0  0  0  0  0  0  0  0  0  0
   -1.5678   23.3107  -28.7290 H   0  0  0  0  0  0  0  0  0  0  0  0
   -3.2698   23.2334  -28.0263 H   0  0  0  0  0  0  0  0  0  0  0  0
   -4.0565   20.7714  -27.1645 H   0  0  0  0  0  0  0  0  0  0  0  0
   -3.2788   18.9413  -25.6770 H   0  0  0  0  0  0  0  0  0  0  0  0
   -1.1473   17.7528  -26.1481 H   0  0  0  0  0  0  0  0  0  0  0  0
   -0.5156   20.2581  -29.6182 H   0  0  0  0  0  0  0  0  0  0  0  0
   -2.8799   20.7053  -31.2109 H   0  0  0  0  0  0  0  0  0  0  0  0
   -4.4748   20.9747  -30.3467 H   0  0  0  0  0  0  0  0  0  0  0  0
   -2.9121   22.8655  -32.1046 H   0  0  0  0  0  0  0  0  0  0  0  0
   -4.6468   22.3312  -32.1950 H   0  0  0  0  0  0  0  0  0  0  0  0
   -5.5598   20.5341  -33.9797 H   0  0  0  0  0  0  0  0  0  0  0  0
  1  2  1  0
  2  3  1  0
  3  4  2  0
  4  5  1  0
  5  6  2  0
  6  7  1  0
  7  8  1  0
  8  9  2  0
  9 10  1  0
 10 11  1  0
 11 12  1  0
 12 13  1  0
 13 14  1  0
 14 15  1  0
 15 16  1  0
 16 17  1  0
 17 18  1  0
 18 19  2  0
 19 20  1  0
 20 21  2  0
 21 22  1  0
 22 23  1  0
 23 24  1  0
 23 25  1  0
 23 26  1  0
 22 27  2  0
 17 28  1  0
 28 29  1  0
  9 30  1  0
 30 31  2  0
 31  3  1  0
 30  6  1  0
 29 14  1  0
 27 18  1  0
  1 32  1  0
  1 33  1  0
  1 34  1  0
  4 35  1  0
  5 36  1  0
  7 37  1  0
  8 38  1  0
 10 39  1  0
 10 40  1  0
 11 41  1  0
 11 42  1  0
 12 43  1  0
 12 44  1  0
 13 45  1  0
 13 46  1  0
 15 47  1  0
 15 48  1  0
 16 49  1  0
 16 50  1  0
 19 51  1  0
 20 52  1  0
 21 53  1  0
 27 54  1  0
 28 55  1  0
 28 56  1  0
 29 57  1  0
 29 58  1  0
 31 59  1  0
M  END
>  <UniqueID>  (34) 
34

>  <SMILES>  (34) 
COc1ccc2[nH]cc(CCCCN3CCN(c4cccc(C(F)(F)F)c4)CC3)c2c1

>  <Energy>  (34) 
99.40327991687859

>  <Genealogy>  (34) 
COc1ccc2[nH]cc(CCCCN3CCN(c4cccc(C(F)(F)F)c4)CC3)c2c1 (3D coordinates assigned)
COc1ccc2[nH]cc(CCCCN3CCN(c4cccc(C(F)(F)F)c4)CC3)c2c1 (nonaromatic ring conformer: 99.40327991687859 kcal/mol)

>  <smiles>  (34) 
COc1ccc2[nH]cc(CCCCN3CCN(c4cccc(C(F)(F)F)c4)CC3)c2c1

>  <score_type>  (34) 
oracle

>  <origin>  (34) 
adg

>  <m_score__min__energy>  (34) 
-8.8399999999999999

>  <m_primary>  (34) 
energy

$$$$
34:0
     RDKit          3D

 43 45  0  0  0  0  0  0  0  0999 V2000
   -6.8140   24.7770  -30.0750 C   0  0  0  0  0  0  0  0  0  0  0  0
   -5.6880   25.7250  -30.4730 C   0  0  0  0  0  0  0  0  0  0  0  0
   -4.6300   24.9840  -31.1680 N   0  0  0  0  0  0  0  0  0  0  0  0
   -3.8660   24.1660  -30.2190 C   0  0  0  0  0  0  0  0  0  0  0  0
   -3.7950   22.7170  -30.7070 C   0  0  0  0  0  0  0  0  0  0  0  0
   -4.3100   22.5930  -32.0730 N   0  0  0  0  0  0  0  0  0  0  0  0
   -4.8140   21.3470  -32.5790 C   0  0  0  0  0  0  0  0  0  0  0  0
   -3.9610   20.3770  -33.1560 C   0  0  0  0  0  0  0  0  0  0  0  0
   -2.6030   20.6620  -33.3960 C   0  0  0  0  0  0  0  0  0  0  0  0
   -1.7620   19.7020  -33.9560 C   0  0  0  0  0  0  0  0  0  0  0  0
   -2.2630   18.4490  -34.2980 C   0  0  0  0  0  0  0  0  0  0  0  0
   -3.6090   18.1480  -34.0990 C   0  0  0  0  0  0  0  0  0  0  0  0
   -4.4930   19.1020  -33.5340 C   0  0  0  0  0  0  0  0  0  0  0  0
   -5.8380   18.8240  -33.3570 N   0  0  0  0  0  0  0  0  0  0  0  0
   -6.4000   17.5100  -33.7210 C   0  0  0  0  0  0  0  0  0  0  0  0
   -6.6480   19.8080  -32.8540 C   0  0  0  0  0  0  0  0  0  0  0  0
   -8.3100   19.7400  -32.5550 S   0  0  0  0  0  0  0  0  0  0  0  0
   -8.4290   21.3150  -31.9660 C   0  0  0  0  0  0  0  0  0  0  0  0
   -9.6690   21.9280  -31.4090 C   0  0  0  0  0  0  0  0  0  0  0  0
   -7.1710   21.9050  -31.9730 C   0  0  0  0  0  0  0  0  0  0  0  0
   -6.1740   21.0550  -32.4760 C   0  0  0  0  0  0  0  0  0  0  0  0
   -6.8777   24.7234  -28.9782 H   0  0  0  0  0  0  0  0  0  0  0  0
   -7.7668   25.1489  -30.4799 H   0  0  0  0  0  0  0  0  0  0  0  0
   -6.6099   23.7748  -30.4799 H   0  0  0  0  0  0  0  0  0  0  0  0
   -6.0861   26.5035  -31.1404 H   0  0  0  0  0  0  0  0  0  0  0  0
   -5.2691   26.1882  -29.5675 H   0  0  0  0  0  0  0  0  0  0  0  0
   -3.9710   25.6790  -31.5940 H   0  0  0  0  0  0  0  0  0  0  0  0
   -2.8466   24.5697  -30.1300 H   0  0  0  0  0  0  0  0  0  0  0  0
   -4.3668   24.1906  -29.2399 H   0  0  0  0  0  0  0  0  0  0  0  0
   -2.7474   22.3823  -30.6866 H   0  0  0  0  0  0  0  0  0  0  0  0
   -4.4135   22.0949  -30.0434 H   0  0  0  0  0  0  0  0  0  0  0  0
   -4.5190   23.4700  -32.6030 H   0  0  0  0  0  0  0  0  0  0  0  0
   -2.2015   21.6533  -33.1387 H   0  0  0  0  0  0  0  0  0  0  0  0
   -0.7008   19.9348  -34.1280 H   0  0  0  0  0  0  0  0  0  0  0  0
   -1.5917   17.6912  -34.7283 H   0  0  0  0  0  0  0  0  0  0  0  0
   -3.9910   17.1567  -34.3841 H   0  0  0  0  0  0  0  0  0  0  0  0
   -6.6404   16.9480  -32.8065 H   0  0  0  0  0  0  0  0  0  0  0  0
   -7.3152   17.6542  -34.3140 H   0  0  0  0  0  0  0  0  0  0  0  0
   -5.6636   16.9478  -34.3140 H   0  0  0  0  0  0  0  0  0  0  0  0
   -9.6266   21.9071  -30.3100 H   0  0  0  0  0  0  0  0  0  0  0  0
   -9.7495   22.9697  -31.7531 H   0  0  0  0  0  0  0  0  0  0  0  0
  -10.5456   21.3594  -31.7531 H   0  0  0  0  0  0  0  0  0  0  0  0
   -6.9772   22.9292  -31.6217 H   0  0  0  0  0  0  0  0  0  0  0  0
  1  2  1  0
  2  3  1  0
  3  4  1  0
  4  5  1  0
  5  6  1  0
  6  7  1  0
  7  8  2  0
  8  9  1  0
  9 10  2  0
 10 11  1  0
 11 12  2  0
 12 13  1  0
 13 14  2  0
 14 15  1  0
 14 16  1  0
 16 17  1  0
 17 18  1  0
 18 19  1  0
 18 20  2  0
 20 21  1  0
 21  7  1  0
 13  8  1  0
 21 16  2  0
  1 22  1  0
  1 23  1  0
  1 24  1  0
  2 25  1  0
  2 26  1  0
  3 27  1  0
  4 28  1  0
  4 29  1  0
  5 30  1  0
  5 31  1  0
  6 32  1  0
  9 33  1  0
 10 34  1  0
 11 35  1  0
 12 36  1  0
 15 37  1  0
 15 38  1  0
 15 39  1  0
 19 40  1  0
 19 41  1  0
 19 42  1  0
 20 43  1  0
M  CHG  1  14   1
M  END
>  <UniqueID>  (35) 
35

>  <SMILES>  (35) 
CCNCCNc1c2ccccc2[n+](C)c2sc(C)cc12

>  <Energy>  (35) 
81.00708731021538

>  <Genealogy>  (35) 
CCNCCNc1c2ccccc2[n+](C)c2sc(C)cc12 (3D coordinates assigned)
CCNCCNc1c2ccccc2[n+](C)c2sc(C)cc12 (optimized conformer: 81.00708731021538 kcal/mol)

>  <smiles>  (35) 
CCNCCNc1c2ccccc2[n+](C)c2sc(C)cc12

>  <score_type>  (35) 
oracle

>  <origin>  (35) 
adg

>  <m_score__min__energy>  (35) 
-8.7599999999999998

>  <m_primary>  (35) 
energy

$$$$
35:0
     RDKit          3D

 42 44  0  0  0  0  0  0  0  0999 V2000
   -6.0930   25.5810  -29.5580 C   0  0  0  0  0  0  0  0  0  0  0  0
   -5.2680   25.4800  -30.8320 C   0  0  0  0  0  0  0  0  0  0  0  0
   -3.9090   25.3010  -30.4910 O   0  0  0  0  0  0  0  0  0  0  0  0
   -3.7660   24.2880  -29.5120 C   0  0  0  0  0  0  0  0  0  0  0  0
   -3.8320   22.9140  -30.1740 C   0  0  0  0  0  0  0  0  0  0  0  0
   -3.8130   23.0680  -31.5780 O   0  0  0  0  0  0  0  0  0  0  0  0
   -3.3360   21.8910  -32.2000 C   0  0  0  0  0  0  0  0  0  0  0  0
   -4.1900   21.5620  -33.4260 C   0  0  0  0  0  0  0  0  0  0  0  0
   -5.4340   20.9050  -33.0150 N   0  0  0  0  0  0  0  0  0  0  0  0
   -5.7470   19.5890  -33.1210 C   0  0  0  0  0  0  0  0  0  0  0  0
   -4.9470   18.5490  -33.6070 C   0  0  0  0  0  0  0  0  0  0  0  0
   -5.4920   17.2530  -33.6370 C   0  0  0  0  0  0  0  0  0  0  0  0
   -6.8120   17.0170  -33.1930 C   0  0  0  0  0  0  0  0  0  0  0  0
   -7.6040   18.0760  -32.7160 C   0  0  0  0  0  0  0  0  0  0  0  0
   -7.0390   19.3490  -32.6940 C   0  0  0  0  0  0  0  0  0  0  0  0
   -7.5560   20.5690  -32.3210 C   0  0  0  0  0  0  0  0  0  0  0  0
   -8.8150   20.9300  -31.8420 C   0  0  0  0  0  0  0  0  0  0  0  0
   -9.0480   22.2900  -31.5780 C   0  0  0  0  0  0  0  0  0  0  0  0
   -8.0350   23.2490  -31.8020 C   0  0  0  0  0  0  0  0  0  0  0  0
   -6.7740   22.8570  -32.2890 C   0  0  0  0  0  0  0  0  0  0  0  0
   -6.5570   21.4980  -32.5360 C   0  0  0  0  0  0  0  0  0  0  0  0
   -5.4297   25.4998  -28.6842 H   0  0  0  0  0  0  0  0  0  0  0  0
   -6.6138   26.5496  -29.5342 H   0  0  0  0  0  0  0  0  0  0  0  0
   -6.8321   24.7666  -29.5342 H   0  0  0  0  0  0  0  0  0  0  0  0
   -5.6141   24.6225  -31.4277 H   0  0  0  0  0  0  0  0  0  0  0  0
   -5.3833   26.4015  -31.4216 H   0  0  0  0  0  0  0  0  0  0  0  0
   -2.7958   24.4033  -29.0066 H   0  0  0  0  0  0  0  0  0  0  0  0
   -4.5801   24.3761  -28.7775 H   0  0  0  0  0  0  0  0  0  0  0  0
   -2.9662   22.3130  -29.8590 H   0  0  0  0  0  0  0  0  0  0  0  0
   -4.7596   22.4053  -29.8728 H   0  0  0  0  0  0  0  0  0  0  0  0
   -2.2925   22.0422  -32.5133 H   0  0  0  0  0  0  0  0  0  0  0  0
   -3.3948   21.0567  -31.4855 H   0  0  0  0  0  0  0  0  0  0  0  0
   -4.4302   22.4922  -33.9617 H   0  0  0  0  0  0  0  0  0  0  0  0
   -3.6267   20.8842  -34.0843 H   0  0  0  0  0  0  0  0  0  0  0  0
   -3.9213   18.7397  -33.9556 H   0  0  0  0  0  0  0  0  0  0  0  0
   -4.8846   16.4151  -34.0098 H   0  0  0  0  0  0  0  0  0  0  0  0
   -7.2232   15.9971  -33.2207 H   0  0  0  0  0  0  0  0  0  0  0  0
   -8.6347   17.9052  -32.3719 H   0  0  0  0  0  0  0  0  0  0  0  0
   -9.5986   20.1759  -31.6766 H   0  0  0  0  0  0  0  0  0  0  0  0
  -10.0274   22.6109  -31.1936 H   0  0  0  0  0  0  0  0  0  0  0  0
   -8.2335   24.3108  -31.5941 H   0  0  0  0  0  0  0  0  0  0  0  0
   -5.9819   23.5985  -32.4701 H   0  0  0  0  0  0  0  0  0  0  0  0
  1  2  1  0
  2  3  1  0
  3  4  1  0
  4  5  1  0
  5  6  1  0
  6  7  1  0
  7  8  1  0
  8  9  1  0
  9 10  1  0
 10 11  2  0
 11 12  1  0
 12 13  2  0
 13 14  1  0
 14 15  2  0
 15 16  1  0
 16 17  2  0
 17 18  1  0
 18 19  2  0
 19 20  1  0
 20 21  2  0
 21  9  1  0
 15 10  1  0
 21 16  1  0
  1 22  1  0
  1 23  1  0
  1 24  1  0
  2 25  1  0
  2 26  1  0
  4 27  1  0
  4 28  1  0
  5 29  1  0
  5 30  1  0
  7 31  1  0
  7 32  1  0
  8 33  1  0
  8 34  1  0
 11 35  1  0
 12 36  1  0
 13 37  1  0
 14 38  1  0
 17 39  1  0
 18 40  1  0
 19 41  1  0
 20 42  1  0
M  END
>  <UniqueID>  (36) 
36

>  <SMILES>  (36) 
CCOCCOCCn1c2ccccc2c2ccccc21

>  <Energy>  (36) 
82.09924833575094

>  <Genealogy>  (36) 
CCOCCOCCn1c2ccccc2c2ccccc21 (3D coordinates assigned)
CCOCCOCCn1c2ccccc2c2ccccc21 (optimized conformer: 82.09924833575094 kcal/mol)

>  <smiles>  (36) 
CCOCCOCCn1c2ccccc2c2ccccc21

>  <score_type>  (36) 
oracle

>  <origin>  (36) 
adg

>  <m_score__min__energy>  (36) 
-8.5999999999999996

>  <m_primary>  (36) 
energy

$$$$
36:0
     RDKit          3D

 44 47  0  0  0  0  0  0  0  0999 V2000
   -9.8340   21.5680  -31.6740 C   0  0  0  0  0  0  0  0  0  0  0  0
   -8.6090   21.2060  -30.8460 C   0  0  0  0  0  0  0  0  0  0  0  0
   -7.4410   21.0360  -31.7120 N   0  0  0  0  0  0  0  0  0  0  0  0
   -6.6710   22.0060  -32.2720 C   0  0  0  0  0  0  0  0  0  0  0  0
   -6.9050   23.7660  -32.0060 S   0  0  0  0  0  0  0  0  0  0  0  0
   -6.1840   23.7220  -30.3340 C   0  0  0  0  0  0  0  0  0  0  0  0
   -4.7000   23.9220  -30.4230 C   0  0  0  0  0  0  0  0  0  0  0  0
   -4.2670   25.0280  -30.8410 O   0  0  0  0  0  0  0  0  0  0  0  0
   -3.7860   22.8790  -30.0290 N   0  0  0  0  0  0  0  0  0  0  0  0
   -3.5270   22.4910  -28.6390 C   0  0  0  0  0  0  0  0  0  0  0  0
   -2.6000   21.2550  -28.6950 C   0  0  0  0  0  0  0  0  0  0  0  0
   -2.3710   21.0640  -30.1510 C   0  0  0  0  0  0  0  0  0  0  0  0
   -1.5680   20.1020  -30.7650 C   0  0  0  0  0  0  0  0  0  0  0  0
   -1.4610   20.1110  -32.1650 C   0  0  0  0  0  0  0  0  0  0  0  0
   -2.1470   21.0810  -32.9180 C   0  0  0  0  0  0  0  0  0  0  0  0
   -2.9480   22.0410  -32.2790 C   0  0  0  0  0  0  0  0  0  0  0  0
   -3.0560   22.0000  -30.8800 C   0  0  0  0  0  0  0  0  0  0  0  0
   -5.7090   21.5080  -33.0860 N   0  0  0  0  0  0  0  0  0  0  0  0
   -5.8950   20.1790  -33.0420 C   0  0  0  0  0  0  0  0  0  0  0  0
   -5.1890   19.1880  -33.7200 C   0  0  0  0  0  0  0  0  0  0  0  0
   -5.5950   17.8540  -33.5320 C   0  0  0  0  0  0  0  0  0  0  0  0
   -6.6850   17.5490  -32.6840 C   0  0  0  0  0  0  0  0  0  0  0  0
   -7.3790   18.5750  -32.0150 C   0  0  0  0  0  0  0  0  0  0  0  0
   -6.9460   19.8880  -32.2170 C   0  0  0  0  0  0  0  0  0  0  0  0
  -10.6700   21.8151  -31.0032 H   0  0  0  0  0  0  0  0  0  0  0  0
   -9.6040   22.4366  -32.3086 H   0  0  0  0  0  0  0  0  0  0  0  0
  -10.1131   20.7139  -32.3086 H   0  0  0  0  0  0  0  0  0  0  0  0
   -8.4099   22.0101  -30.1223 H   0  0  0  0  0  0  0  0  0  0  0  0
   -8.8019   20.2612  -30.3168 H   0  0  0  0  0  0  0  0  0  0  0  0
   -6.6258   24.5231  -29.7232 H   0  0  0  0  0  0  0  0  0  0  0  0
   -6.3950   22.7474  -29.8696 H   0  0  0  0  0  0  0  0  0  0  0  0
   -3.0326   23.3130  -28.1006 H   0  0  0  0  0  0  0  0  0  0  0  0
   -4.4631   22.2631  -28.1081 H   0  0  0  0  0  0  0  0  0  0  0  0
   -1.6533   21.4485  -28.1694 H   0  0  0  0  0  0  0  0  0  0  0  0
   -3.0341   20.3693  -28.2081 H   0  0  0  0  0  0  0  0  0  0  0  0
   -1.0305   19.3528  -30.1652 H   0  0  0  0  0  0  0  0  0  0  0  0
   -0.8401   19.3587  -32.6734 H   0  0  0  0  0  0  0  0  0  0  0  0
   -2.0554   21.0875  -34.0142 H   0  0  0  0  0  0  0  0  0  0  0  0
   -3.4791   22.8081  -32.8617 H   0  0  0  0  0  0  0  0  0  0  0  0
   -4.9990   22.0400  -33.6370 H   0  0  0  0  0  0  0  0  0  0  0  0
   -4.3445   19.4392  -34.3786 H   0  0  0  0  0  0  0  0  0  0  0  0
   -5.0609   17.0426  -34.0482 H   0  0  0  0  0  0  0  0  0  0  0  0
   -6.9929   16.5020  -32.5461 H   0  0  0  0  0  0  0  0  0  0  0  0
   -8.2315   18.3511  -31.3569 H   0  0  0  0  0  0  0  0  0  0  0  0
  1  2  1  0
  2  3  1  0
  3  4  1  0
  4  5  1  0
  5  6  1  0
  6  7  1  0
  7  8  2  0
  7  9  1  0
  9 10  1  0
 10 11  1  0
 11 12  1  0
 12 13  2  0
 13 14  1  0
 14 15  2  0
 15 16  1  0
 16 17  2  0
  4 18  2  0
 18 19  1  0
 19 20  2  0
 20 21  1  0
 21 22  2  0
 22 23  1  0
 23 24  2  0
 24  3  1  0
 17  9  1  0
 24 19  1  0
 17 12  1  0
  1 25  1  0
  1 26  1  0
  1 27  1  0
  2 28  1  0
  2 29  1  0
  6 30  1  0
  6 31  1  0
 10 32  1  0
 10 33  1  0
 11 34  1  0
 11 35  1  0
 13 36  1  0
 14 37  1  0
 15 38  1  0
 16 39  1  0
 18 40  1  0
 20 41  1  0
 21 42  1  0
 22 43  1  0
 23 44  1  0
M  CHG  1  18   1
M  END
>  <UniqueID>  (37) 
37

>  <SMILES>  (37) 
CCn1c(SCC(=O)N2CCc3ccccc32)[nH+]c2ccccc21

>  <Energy>  (37) 
93.59729641195743

>  <Genealogy>  (37) 
CCn1c(SCC(=O)N2CCc3ccccc32)[nH+]c2ccccc21 (protonated)
CCn1c(SCC(=O)N2CCc3ccccc32)[nH+]c2ccccc21 (3D coordinates assigned)
CCn1c(SCC(=O)N2CCc3ccccc32)[nH+]c2ccccc21 (nonaromatic ring conformer: 93.59729641195743 kcal/mol)

>  <smiles>  (37) 
CCn1c(SCC(=O)N2CCc3ccccc32)nc2ccccc21

>  <score_type>  (37) 
oracle

>  <origin>  (37) 
adg

>  <m_score__min__energy>  (37) 
-8.6300000000000008

>  <m_primary>  (37) 
energy

$$$$
37:0
     RDKit          3D

 52 54  0  0  0  0  0  0  0  0999 V2000
    0.5480   21.1490  -36.1000 C   0  0  0  0  0  0  0  0  0  0  0  0
   -0.1170   21.8000  -34.8760 C   0  0  0  0  0  0  0  0  0  0  0  0
   -1.1530   20.9690  -34.2020 N   0  0  1  0  0  0  0  0  0  0  0  0
   -0.9850   19.5370  -34.5090 C   0  0  0  0  0  0  0  0  0  0  0  0
   -1.2300   21.1810  -32.7350 C   0  0  0  0  0  0  0  0  0  0  0  0
   -2.5610   21.8320  -32.2870 C   0  0  0  0  0  0  0  0  0  0  0  0
   -3.5980   21.6010  -33.2450 O   0  0  0  0  0  0  0  0  0  0  0  0
   -4.9070   21.2480  -32.8860 C   0  0  0  0  0  0  0  0  0  0  0  0
   -5.8060   22.2090  -32.3760 C   0  0  0  0  0  0  0  0  0  0  0  0
   -5.4530   23.6040  -32.3810 N   0  0  0  0  0  0  0  0  0  0  0  0
   -5.5970   24.4640  -31.2060 C   0  0  0  0  0  0  0  0  0  0  0  0
   -4.6640   24.0160  -30.1130 C   0  0  0  0  0  0  0  0  0  0  0  0
   -5.1030   23.1070  -29.1380 C   0  0  0  0  0  0  0  0  0  0  0  0
   -4.2490   22.7230  -28.0980 C   0  0  0  0  0  0  0  0  0  0  0  0
   -2.9580   23.2550  -28.0190 C   0  0  0  0  0  0  0  0  0  0  0  0
   -2.5230   24.1780  -28.9750 C   0  0  0  0  0  0  0  0  0  0  0  0
   -3.3730   24.5630  -30.0160 C   0  0  0  0  0  0  0  0  0  0  0  0
   -7.0700   21.7980  -31.9240 C   0  0  0  0  0  0  0  0  0  0  0  0
   -7.4580   20.4550  -32.0100 C   0  0  0  0  0  0  0  0  0  0  0  0
   -8.7250   20.0610  -31.5490 C   0  0  0  0  0  0  0  0  0  0  0  0
   -9.1250   18.7280  -31.6480 C   0  0  0  0  0  0  0  0  0  0  0  0
   -8.2700   17.7800  -32.2090 C   0  0  0  0  0  0  0  0  0  0  0  0
   -7.0070   18.1580  -32.6730 C   0  0  0  0  0  0  0  0  0  0  0  0
   -6.5820   19.4990  -32.5810 C   0  0  0  0  0  0  0  0  0  0  0  0
   -5.3080   19.9090  -33.0320 C   0  0  0  0  0  0  0  0  0  0  0  0
   -4.0600   18.6670  -33.8170 Br  0  0  0  0  0  0  0  0  0  0  0  0
    1.2965   20.4162  -35.7642 H   0  0  0  0  0  0  0  0  0  0  0  0
   -0.2167   20.6407  -36.7057 H   0  0  0  0  0  0  0  0  0  0  0  0
    1.0399   21.9243  -36.7057 H   0  0  0  0  0  0  0  0  0  0  0  0
    0.6696   22.0259  -34.1410 H   0  0  0  0  0  0  0  0  0  0  0  0
   -0.6376   22.6939  -35.2500 H   0  0  0  0  0  0  0  0  0  0  0  0
   -2.0790   21.2470  -34.6120 H   0  0  0  0  0  0  0  0  0  0  0  0
   -0.9180   18.9663  -33.5710 H   0  0  0  0  0  0  0  0  0  0  0  0
   -1.8478   19.1834  -35.0925 H   0  0  0  0  0  0  0  0  0  0  0  0
   -0.0638   19.3927  -35.0925 H   0  0  0  0  0  0  0  0  0  0  0  0
   -1.1304   20.2066  -32.2343 H   0  0  0  0  0  0  0  0  0  0  0  0
   -0.4177   21.8695  -32.4590 H   0  0  0  0  0  0  0  0  0  0  0  0
   -2.8631   21.4023  -31.3205 H   0  0  0  0  0  0  0  0  0  0  0  0
   -2.4051   22.9172  -32.1972 H   0  0  0  0  0  0  0  0  0  0  0  0
   -5.0720   24.0170  -33.2640 H   0  0  0  0  0  0  0  0  0  0  0  0
   -5.3586   25.5012  -31.4841 H   0  0  0  0  0  0  0  0  0  0  0  0
   -6.6326   24.4003  -30.8408 H   0  0  0  0  0  0  0  0  0  0  0  0
   -6.1216   22.6951  -29.1915 H   0  0  0  0  0  0  0  0  0  0  0  0
   -4.5934   22.0021  -27.3420 H   0  0  0  0  0  0  0  0  0  0  0  0
   -2.2850   22.9474  -27.2051 H   0  0  0  0  0  0  0  0  0  0  0  0
   -1.5102   24.6019  -28.9079 H   0  0  0  0  0  0  0  0  0  0  0  0
   -3.0305   25.2960  -30.7612 H   0  0  0  0  0  0  0  0  0  0  0  0
   -7.7629   22.5385  -31.4979 H   0  0  0  0  0  0  0  0  0  0  0  0
   -9.4041   20.8058  -31.1085 H   0  0  0  0  0  0  0  0  0  0  0  0
  -10.1171   18.4242  -31.2827 H   0  0  0  0  0  0  0  0  0  0  0  0
   -8.5908   16.7307  -32.2866 H   0  0  0  0  0  0  0  0  0  0  0  0
   -6.3392   17.4030  -33.1135 H   0  0  0  0  0  0  0  0  0  0  0  0
  1  2  1  0
  2  3  1  0
  3  4  1  0
  3  5  1  0
  5  6  1  0
  6  7  1  0
  7  8  1  0
  8  9  2  0
  9 10  1  0
 10 11  1  0
 11 12  1  0
 12 13  2  0
 13 14  1  0
 14 15  2  0
 15 16  1  0
 16 17  2  0
  9 18  1  0
 18 19  2  0
 19 20  1  0
 20 21  2  0
 21 22  1  0
 22 23  2  0
 23 24  1  0
 24 25  2  0
 25 26  1  0
 25  8  1  0
 17 12  1  0
 24 19  1  0
  1 27  1  0
  1 28  1  0
  1 29  1  0
  2 30  1  0
  2 31  1  0
  3 32  1  6
  4 33  1  0
  4 34  1  0
  4 35  1  0
  5 36  1  0
  5 37  1  0
  6 38  1  0
  6 39  1  0
 10 40  1  0
 11 41  1  0
 11 42  1  0
 13 43  1  0
 14 44  1  0
 15 45  1  0
 16 46  1  0
 17 47  1  0
 18 48  1  0
 20 49  1  0
 21 50  1  0
 22 51  1  0
 23 52  1  0
M  CHG  1   3   1
M  END
>  <UniqueID>  (38) 
38

>  <SMILES>  (38) 
CC[N@@H+](C)CCOc1c(NCc2ccccc2)cc2ccccc2c1Br

>  <Energy>  (38) 
67.15944394353063

>  <Genealogy>  (38) 
CC[NH+](C)CCOc1c(NCc2ccccc2)cc2ccccc2c1Br (protonated)
CC[N@@H+](C)CCOc1c(NCc2ccccc2)cc2ccccc2c1Br (chirality)
CC[N@@H+](C)CCOc1c(NCc2ccccc2)cc2ccccc2c1Br (3D coordinates assigned)
CC[N@@H+](C)CCOc1c(NCc2ccccc2)cc2ccccc2c1Br (optimized conformer: 67.15944394353063 kcal/mol)

>  <smiles>  (38) 
CCN(C)CCOc1c(NCc2ccccc2)cc2ccccc2c1Br

>  <score_type>  (38) 
oracle

>  <origin>  (38) 
adg

>  <m_score__min__energy>  (38) 
-7.3399999999999999

>  <m_primary>  (38) 
energy

$$$$
38:0
     RDKit          3D

 37 39  0  0  0  0  0  0  0  0999 V2000
   -3.8700   25.3020  -30.5690 O   0  0  0  0  0  0  0  0  0  0  0  0
   -4.9540   24.7760  -30.1970 C   0  0  0  0  0  0  0  0  0  0  0  0
   -6.0590   24.5810  -31.1890 C   0  0  0  0  0  0  0  0  0  0  0  0
   -5.9990   23.2320  -31.7460 N   0  0  0  0  0  0  0  0  0  0  0  0
   -4.9390   22.6470  -32.3580 C   0  0  0  0  0  0  0  0  0  0  0  0
   -5.2130   21.4040  -32.8350 N   0  0  0  0  0  0  0  0  0  0  0  0
   -6.5060   21.2300  -32.5030 C   0  0  0  0  0  0  0  0  0  0  0  0
   -7.3090   20.1240  -32.7660 C   0  0  0  0  0  0  0  0  0  0  0  0
   -8.6500   20.1700  -32.3390 C   0  0  0  0  0  0  0  0  0  0  0  0
   -9.1490   21.3110  -31.6690 C   0  0  0  0  0  0  0  0  0  0  0  0
   -8.3110   22.4140  -31.4190 C   0  0  0  0  0  0  0  0  0  0  0  0
   -6.9870   22.3290  -31.8520 C   0  0  0  0  0  0  0  0  0  0  0  0
   -5.1190   24.3310  -28.8450 N   0  0  0  0  0  0  0  0  0  0  0  0
   -4.1050   24.5460  -27.8140 C   0  0  0  0  0  0  0  0  0  0  0  0
   -3.3750   23.2420  -27.4750 C   0  0  0  0  0  0  0  0  0  0  0  0
   -2.7860   22.6100  -28.7040 C   0  0  0  0  0  0  0  0  0  0  0  0
   -3.4070   21.5080  -29.3130 C   0  0  0  0  0  0  0  0  0  0  0  0
   -2.8560   20.9690  -30.4770 C   0  0  0  0  0  0  0  0  0  0  0  0
   -1.7010   21.5300  -31.0240 C   0  0  0  0  0  0  0  0  0  0  0  0
   -1.1140   22.6310  -30.3970 C   0  0  0  0  0  0  0  0  0  0  0  0
   -1.6660   23.1450  -29.2650 N   0  0  0  0  0  0  0  0  0  0  0  0
   -7.0277   24.7254  -30.6882 H   0  0  0  0  0  0  0  0  0  0  0  0
   -5.9466   25.3126  -32.0027 H   0  0  0  0  0  0  0  0  0  0  0  0
   -3.9559   23.1303  -32.4582 H   0  0  0  0  0  0  0  0  0  0  0  0
   -6.9093   19.2433  -33.2900 H   0  0  0  0  0  0  0  0  0  0  0  0
   -9.3135   19.3132  -32.5277 H   0  0  0  0  0  0  0  0  0  0  0  0
  -10.1987   21.3367  -31.3411 H   0  0  0  0  0  0  0  0  0  0  0  0
   -8.6857   23.3095  -30.9017 H   0  0  0  0  0  0  0  0  0  0  0  0
   -5.9880   23.8100  -28.5860 H   0  0  0  0  0  0  0  0  0  0  0  0
   -3.3736   25.2826  -28.1780 H   0  0  0  0  0  0  0  0  0  0  0  0
   -4.6044   24.9123  -26.9049 H   0  0  0  0  0  0  0  0  0  0  0  0
   -2.5665   23.4592  -26.7614 H   0  0  0  0  0  0  0  0  0  0  0  0
   -4.1017   22.5409  -27.0387 H   0  0  0  0  0  0  0  0  0  0  0  0
   -4.3188   21.0735  -28.8773 H   0  0  0  0  0  0  0  0  0  0  0  0
   -3.3313   20.1037  -30.9622 H   0  0  0  0  0  0  0  0  0  0  0  0
   -1.2580   21.1095  -31.9389 H   0  0  0  0  0  0  0  0  0  0  0  0
   -0.2043   23.0831  -30.8189 H   0  0  0  0  0  0  0  0  0  0  0  0
  1  2  2  0
  2  3  1  0
  3  4  1  0
  4  5  1  0
  5  6  2  0
  6  7  1  0
  7  8  2  0
  8  9  1  0
  9 10  2  0
 10 11  1  0
 11 12  2  0
  2 13  1  0
 13 14  1  0
 14 15  1  0
 15 16  1  0
 16 17  2  0
 17 18  1  0
 18 19  2  0
 19 20  1  0
 20 21  2  0
 12  4  1  0
 21 16  1  0
 12  7  1  0
  3 22  1  0
  3 23  1  0
  5 24  1  0
  8 25  1  0
  9 26  1  0
 10 27  1  0
 11 28  1  0
 13 29  1  0
 14 30  1  0
 14 31  1  0
 15 32  1  0
 15 33  1  0
 17 34  1  0
 18 35  1  0
 19 36  1  0
 20 37  1  0
M  END
>  <UniqueID>  (39) 
39

>  <SMILES>  (39) 
O=C(Cn1cnc2ccccc21)NCCc1ccccn1

>  <Energy>  (39) 
69.56839415486762

>  <Genealogy>  (39) 
O=C(Cn1cnc2ccccc21)NCCc1ccccn1 (3D coordinates assigned)
O=C(Cn1cnc2ccccc21)NCCc1ccccn1 (optimized conformer: 69.56839415486762 kcal/mol)

>  <smiles>  (39) 
O=C(Cn1cnc2ccccc21)NCCc1ccccn1

>  <score_type>  (39) 
oracle

>  <origin>  (39) 
adg

>  <m_score__min__energy>  (39) 
-8.0600000000000005

>  <m_primary>  (39) 
energy

$$$$
