0:0
     RDKit          3D

 49 52  0  0  0  0  0  0  0  0999 V2000
   -2.5930   20.7180  -33.4660 C   0  0  0  0  0  0  0  0  0  0  0  0
   -2.9590   19.2850  -33.7180 C   0  0  0  0  0  0  0  0  0  0  0  0
   -1.9640   18.3150  -33.8890 C   0  0  0  0  0  0  0  0  0  0  0  0
   -2.3020   17.0230  -34.1500 N   0  0  0  0  0  0  0  0  0  0  0  0
   -3.6010   16.6370  -34.2690 C   0  0  0  0  0  0  0  0  0  0  0  0
   -4.6340   17.5760  -34.1360 C   0  0  0  0  0  0  0  0  0  0  0  0
   -6.0760   17.1630  -34.2720 C   0  0  0  0  0  0  0  0  0  0  0  0
   -6.7960   17.3770  -33.0150 N   0  0  0  0  0  0  0  0  0  0  0  0
   -7.4600   18.6050  -32.6550 C   0  0  0  0  0  0  0  0  0  0  0  0
   -8.8590   18.7330  -32.7010 C   0  0  0  0  0  0  0  0  0  0  0  0
   -9.4710   19.9360  -32.3460 C   0  0  0  0  0  0  0  0  0  0  0  0
   -8.7060   21.0350  -31.9290 C   0  0  0  0  0  0  0  0  0  0  0  0
   -9.4130   22.3050  -31.5330 C   0  0  0  0  0  0  0  0  0  0  0  0
   -7.2940   20.9250  -31.9040 C   0  0  0  0  0  0  0  0  0  0  0  0
   -6.4250   22.0590  -31.5190 C   0  0  0  0  0  0  0  0  0  0  0  0
   -6.7300   23.3770  -31.9530 C   0  0  0  0  0  0  0  0  0  0  0  0
   -5.9040   24.4610  -31.6000 C   0  0  0  0  0  0  0  0  0  0  0  0
   -4.7810   24.1910  -30.8240 C   0  0  0  0  0  0  0  0  0  0  0  0
   -3.8650   25.0640  -30.3680 N   0  0  0  0  0  0  0  0  0  0  0  0
   -2.9810   24.3470  -29.6810 N   0  0  0  0  0  0  0  0  0  0  0  0
   -1.8520   24.9280  -28.9670 C   0  0  0  0  0  0  0  0  0  0  0  0
   -3.3240   23.0380  -29.6750 C   0  0  0  0  0  0  0  0  0  0  0  0
   -4.4780   22.9220  -30.4130 C   0  0  0  0  0  0  0  0  0  0  0  0
   -5.2700   21.8270  -30.7380 C   0  0  0  0  0  0  0  0  0  0  0  0
   -6.6910   19.7040  -32.2500 C   0  0  0  0  0  0  0  0  0  0  0  0
   -4.3010   18.9090  -33.8540 C   0  0  0  0  0  0  0  0  0  0  0  0
   -2.5467   20.8994  -32.3821 H   0  0  0  0  0  0  0  0  0  0  0  0
   -1.6118   20.9303  -33.9156 H   0  0  0  0  0  0  0  0  0  0  0  0
   -3.3522   21.3749  -33.9156 H   0  0  0  0  0  0  0  0  0  0  0  0
   -0.9040   18.5987  -33.8120 H   0  0  0  0  0  0  0  0  0  0  0  0
   -1.5460   16.3120  -34.2640 H   0  0  0  0  0  0  0  0  0  0  0  0
   -3.8423   15.5829  -34.4706 H   0  0  0  0  0  0  0  0  0  0  0  0
   -6.5494   17.7599  -35.0655 H   0  0  0  0  0  0  0  0  0  0  0  0
   -6.1153   16.0931  -34.5246 H   0  0  0  0  0  0  0  0  0  0  0  0
   -6.7780   16.5980  -32.3180 H   0  0  0  0  0  0  0  0  0  0  0  0
   -9.4756   17.8793  -33.0189 H   0  0  0  0  0  0  0  0  0  0  0  0
  -10.5665   20.0232  -32.3938 H   0  0  0  0  0  0  0  0  0  0  0  0
   -9.4525   22.3759  -30.4360 H   0  0  0  0  0  0  0  0  0  0  0  0
   -8.8666   23.1701  -31.9369 H   0  0  0  0  0  0  0  0  0  0  0  0
  -10.4361   22.2963  -31.9369 H   0  0  0  0  0  0  0  0  0  0  0  0
   -7.6221   23.5525  -32.5722 H   0  0  0  0  0  0  0  0  0  0  0  0
   -6.1381   25.4851  -31.9261 H   0  0  0  0  0  0  0  0  0  0  0  0
   -2.0198   24.8416  -27.8833 H   0  0  0  0  0  0  0  0  0  0  0  0
   -0.9309   24.3919  -29.2393 H   0  0  0  0  0  0  0  0  0  0  0  0
   -1.7528   25.9891  -29.2393 H   0  0  0  0  0  0  0  0  0  0  0  0
   -2.7823   22.2218  -29.1746 H   0  0  0  0  0  0  0  0  0  0  0  0
   -5.0068   20.8142  -30.3989 H   0  0  0  0  0  0  0  0  0  0  0  0
   -5.5961   19.6092  -32.2021 H   0  0  0  0  0  0  0  0  0  0  0  0
   -5.0958   19.6607  -33.7394 H   0  0  0  0  0  0  0  0  0  0  0  0
  1  2  1  0
  2  3  2  0
  3  4  1  0
  4  5  2  0
  5  6  1  0
  6  7  1  0
  7  8  1  0
  8  9  1  0
  9 10  2  0
 10 11  1  0
 11 12  2  0
 12 13  1  0
 12 14  1  0
 14 15  1  0
 15 16  1  0
 16 17  2  0
 17 18  1  0
 18 19  2  0
 19 20  1  0
 20 21  1  0
 20 22  1  0
 22 23  2  0
 23 24  1  0
 14 25  2  0
  6 26  2  0
 26  2  1  0
 25  9  1  0
 24 15  2  0
 23 18  1  0
  1 27  1  0
  1 28  1  0
  1 29  1  0
  3 30  1  0
  4 31  1  0
  5 32  1  0
  7 33  1  0
  7 34  1  0
  8 35  1  0
 10 36  1  0
 11 37  1  0
 13 38  1  0
 13 39  1  0
 13 40  1  0
 16 41  1  0
 17 42  1  0
 21 43  1  0
 21 44  1  0
 21 45  1  0
 22 46  1  0
 24 47  1  0
 25 48  1  0
 26 49  1  0
M  CHG  1   4   1
M  END
>  <UniqueID>  (1) 
1

>  <SMILES>  (1) 
Cc1c[nH+]cc(CNc2ccc(C)c(-c3ccc4nn(C)cc4c3)c2)c1

>  <Energy>  (1) 
95.2845690263373

>  <Genealogy>  (1) 
Cc1c[nH+]cc(CNc2ccc(C)c(-c3ccc4nn(C)cc4c3)c2)c1 (protonated)
Cc1c[nH+]cc(CNc2ccc(C)c(-c3ccc4nn(C)cc4c3)c2)c1 (3D coordinates assigned)
Cc1c[nH+]cc(CNc2ccc(C)c(-c3ccc4nn(C)cc4c3)c2)c1 (optimized conformer: 95.2845690263373 kcal/mol)

>  <smiles>  (1) 
Cc1cncc(CNc2ccc(C)c(-c3ccc4nn(C)cc4c3)c2)c1

>  <score_type>  (1) 
oracle

>  <origin>  (1) 
adg

>  <m_score__min__energy>  (1) 
-9.5700000000000003

>  <m_primary>  (1) 
energy

$$$$
1:0
     RDKit          3D

 53 55  0  0  0  0  0  0  0  0999 V2000
   -7.3190   22.6760  -29.6960 C   0  0  0  0  0  0  0  0  0  0  0  0
   -7.0520   23.6550  -30.6740 O   0  0  0  0  0  0  0  0  0  0  0  0
   -7.8440   23.4300  -31.8250 C   0  0  0  0  0  0  0  0  0  0  0  0
   -7.8200   21.9770  -32.2140 C   0  0  0  0  0  0  0  0  0  0  0  0
   -8.8890   21.1610  -32.0760 N   0  0  0  0  0  0  0  0  0  0  0  0
   -8.5050   19.9300  -32.3780 N   0  0  0  0  0  0  0  0  0  0  0  0
   -9.3970   18.7770  -32.3140 C   0  0  0  0  0  0  0  0  0  0  0  0
   -7.1990   19.9360  -32.7170 C   0  0  0  0  0  0  0  0  0  0  0  0
   -6.4210   18.7590  -32.9860 N   0  0  0  0  0  0  0  0  0  0  0  0
   -5.9830   18.5120  -34.3690 C   0  0  0  0  0  0  0  0  0  0  0  0
   -5.2180   17.1820  -34.5390 C   0  0  0  0  0  0  0  0  0  0  0  0
   -5.6780   16.1920  -33.6420 O   0  0  0  0  0  0  0  0  0  0  0  0
   -5.3890   16.6070  -32.3200 C   0  0  0  0  0  0  0  0  0  0  0  0
   -6.3120   17.7540  -31.9220 C   0  0  0  0  0  0  0  0  0  0  0  0
   -6.7130   21.2300  -32.6100 C   0  0  0  0  0  0  0  0  0  0  0  0
   -5.2820   21.6900  -32.7180 C   0  0  0  0  0  0  0  0  0  0  0  0
   -4.8090   22.3040  -31.4690 N   0  0  0  0  0  0  0  0  0  0  0  0
   -3.3500   22.1930  -31.2800 C   0  0  0  0  0  0  0  0  0  0  0  0
   -2.8580   22.9420  -30.0580 C   0  0  0  0  0  0  0  0  0  0  0  0
   -2.0850   22.2770  -29.0930 C   0  0  0  0  0  0  0  0  0  0  0  0
   -1.5950   22.9670  -27.9850 C   0  0  0  0  0  0  0  0  0  0  0  0
   -1.8760   24.3260  -27.8490 C   0  0  0  0  0  0  0  0  0  0  0  0
   -2.6290   24.9620  -28.7840 N   0  0  0  0  0  0  0  0  0  0  0  0
   -3.1290   24.3110  -29.8760 C   0  0  0  0  0  0  0  0  0  0  0  0
   -3.9100   25.0000  -30.8110 O   0  0  0  0  0  0  0  0  0  0  0  0
   -5.1360   25.6360  -30.4730 C   0  0  0  0  0  0  0  0  0  0  0  0
   -7.1991   23.1156  -28.6948 H   0  0  0  0  0  0  0  0  0  0  0  0
   -8.3496   22.3104  -29.8149 H   0  0  0  0  0  0  0  0  0  0  0  0
   -6.6166   21.8378  -29.8149 H   0  0  0  0  0  0  0  0  0  0  0  0
   -8.8810   23.7297  -31.6134 H   0  0  0  0  0  0  0  0  0  0  0  0
   -7.4357   24.0243  -32.6557 H   0  0  0  0  0  0  0  0  0  0  0  0
   -9.5933   18.5232  -31.2618 H   0  0  0  0  0  0  0  0  0  0  0  0
  -10.3454   19.0189  -32.8160 H   0  0  0  0  0  0  0  0  0  0  0  0
   -8.9247   17.9197  -32.8160 H   0  0  0  0  0  0  0  0  0  0  0  0
   -6.8711   18.4893  -35.0177 H   0  0  0  0  0  0  0  0  0  0  0  0
   -5.2913   19.3228  -34.6414 H   0  0  0  0  0  0  0  0  0  0  0  0
   -5.3565   16.8210  -35.5688 H   0  0  0  0  0  0  0  0  0  0  0  0
   -4.1556   17.3697  -34.3245 H   0  0  0  0  0  0  0  0  0  0  0  0
   -5.5393   15.7623  -31.6316 H   0  0  0  0  0  0  0  0  0  0  0  0
   -4.3445   16.9482  -32.2679 H   0  0  0  0  0  0  0  0  0  0  0  0
   -7.3127   17.3491  -31.7106 H   0  0  0  0  0  0  0  0  0  0  0  0
   -5.8875   18.2421  -31.0323 H   0  0  0  0  0  0  0  0  0  0  0  0
   -4.6463   20.8232  -32.9514 H   0  0  0  0  0  0  0  0  0  0  0  0
   -5.2261   22.4477  -33.5134 H   0  0  0  0  0  0  0  0  0  0  0  0
   -5.0700   23.3170  -31.4890 H   0  0  0  0  0  0  0  0  0  0  0  0
   -3.0897   21.1300  -31.1692 H   0  0  0  0  0  0  0  0  0  0  0  0
   -2.8667   22.6415  -32.1605 H   0  0  0  0  0  0  0  0  0  0  0  0
   -1.8648   21.2058  -29.2117 H   0  0  0  0  0  0  0  0  0  0  0  0
   -0.9933   22.4450  -27.2264 H   0  0  0  0  0  0  0  0  0  0  0  0
   -1.4877   24.8836  -26.9840 H   0  0  0  0  0  0  0  0  0  0  0  0
   -5.2333   25.6865  -29.3785 H   0  0  0  0  0  0  0  0  0  0  0  0
   -5.1480   26.6540  -30.8895 H   0  0  0  0  0  0  0  0  0  0  0  0
   -5.9752   25.0595  -30.8895 H   0  0  0  0  0  0  0  0  0  0  0  0
  1  2  1  0
  2  3  1  0
  3  4  1  0
  4  5  2  0
  5  6  1  0
  6  7  1  0
  6  8  1  0
  8  9  1  0
  9 10  1  0
 10 11  1  0
 11 12  1  0
 12 13  1  0
 13 14  1  0
  8 15  2  0
 15 16  1  0
 16 17  1  0
 17 18  1  0
 18 19  1  0
 19 20  2  0
 20 21  1  0
 21 22  2  0
 22 23  1  0
 23 24  2  0
 24 25  1  0
 25 26  1  0
 15  4  1  0
 24 19  1  0
 14  9  1  0
  1 27  1  0
  1 28  1  0
  1 29  1  0
  3 30  1  0
  3 31  1  0
  7 32  1  0
  7 33  1  0
  7 34  1  0
 10 35  1  0
 10 36  1  0
 11 37  1  0
 11 38  1  0
 13 39  1  0
 13 40  1  0
 14 41  1  0
 14 42  1  0
 16 43  1  0
 16 44  1  0
 17 45  1  0
 18 46  1  0
 18 47  1  0
 20 48  1  0
 21 49  1  0
 22 50  1  0
 26 51  1  0
 26 52  1  0
 26 53  1  0
M  END
>  <UniqueID>  (2) 
2

>  <SMILES>  (2) 
COCc1nn(C)c(N2CCOCC2)c1CNCc1cccnc1OC

>  <Energy>  (2) 
90.39496267840516

>  <Genealogy>  (2) 
COCc1nn(C)c(N2CCOCC2)c1CNCc1cccnc1OC (3D coordinates assigned)
COCc1nn(C)c(N2CCOCC2)c1CNCc1cccnc1OC (nonaromatic ring conformer: 90.39496267840516 kcal/mol)

>  <smiles>  (2) 
COCc1nn(C)c(N2CCOCC2)c1CNCc1cccnc1OC

>  <score_type>  (2) 
oracle

>  <origin>  (2) 
adg

>  <m_score__min__energy>  (2) 
-7.5300000000000002

>  <m_primary>  (2) 
energy

$$$$
2:0
     RDKit          3D

 58 62  0  0  0  0  0  0  0  0999 V2000
   -2.9360   21.2370  -29.9180 C   0  0  0  0  0  0  0  0  0  0  0  0
   -3.6210   21.3030  -31.1640 O   0  0  0  0  0  0  0  0  0  0  0  0
   -4.9940   21.5590  -31.3040 C   0  0  0  0  0  0  0  0  0  0  0  0
   -5.5310   22.8470  -31.1470 C   0  0  0  0  0  0  0  0  0  0  0  0
   -6.9000   23.0470  -31.2970 C   0  0  0  0  0  0  0  0  0  0  0  0
   -7.7350   21.9710  -31.6140 C   0  0  0  0  0  0  0  0  0  0  0  0
   -9.1120   22.1670  -31.7760 C   0  0  0  0  0  0  0  0  0  0  0  0
   -9.9370   21.0940  -32.1060 C   0  0  0  0  0  0  0  0  0  0  0  0
   -9.3970   19.8200  -32.2820 C   0  0  0  0  0  0  0  0  0  0  0  0
   -8.0190   19.5940  -32.1220 C   0  0  0  0  0  0  0  0  0  0  0  0
   -7.4800   18.2010  -32.3720 C   0  0  0  0  0  0  0  0  0  0  0  0
   -6.1100   18.2640  -32.9180 N   0  0  0  0  0  0  0  0  0  0  0  0
   -5.2650   17.1980  -32.3490 C   0  0  0  0  0  0  0  0  0  0  0  0
   -3.7830   17.4090  -32.7290 C   0  0  0  0  0  0  0  0  0  0  0  0
   -3.6080   18.4000  -33.9020 C   0  0  0  0  0  0  0  0  0  0  0  0
   -4.6790   18.1320  -34.9770 C   0  0  0  0  0  0  0  0  0  0  0  0
   -6.1110   18.1880  -34.3980 C   0  0  0  0  0  0  0  0  0  0  0  0
   -2.1630   18.3400  -34.5030 C   0  0  0  0  0  0  0  0  0  0  0  0
   -1.6620   19.7100  -34.4420 N   0  0  0  0  0  0  0  0  0  0  0  0
   -0.4250   20.1780  -35.0170 C   0  0  0  0  0  0  0  0  0  0  0  0
    0.4200   19.2860  -35.7000 C   0  0  0  0  0  0  0  0  0  0  0  0
    1.6150   19.7330  -36.2690 C   0  0  0  0  0  0  0  0  0  0  0  0
    1.9880   21.0840  -36.1750 C   0  0  0  0  0  0  0  0  0  0  0  0
    3.2550   21.5530  -36.7790 C   0  0  0  0  0  0  0  0  0  0  0  0
    3.6410   21.1000  -37.8910 O   0  0  0  0  0  0  0  0  0  0  0  0
    4.0380   22.5020  -36.1310 O   0  0  0  0  0  0  0  0  0  0  0  0
    1.1380   21.9800  -35.5060 C   0  0  0  0  0  0  0  0  0  0  0  0
   -0.0580   21.5320  -34.9360 C   0  0  0  0  0  0  0  0  0  0  0  0
   -2.6320   20.4740  -33.7500 C   0  0  0  0  0  0  0  0  0  0  0  0
   -2.4770   21.6750  -33.4060 O   0  0  0  0  0  0  0  0  0  0  0  0
   -3.7460   19.7380  -33.4250 O   0  0  0  0  0  0  0  0  0  0  0  0
   -7.1720   20.6820  -31.7760 C   0  0  0  0  0  0  0  0  0  0  0  0
   -5.8220   20.5180  -31.6030 N   0  0  0  0  0  0  0  0  0  0  0  0
   -3.6632   21.3071  -29.0956 H   0  0  0  0  0  0  0  0  0  0  0  0
   -2.3939   20.2825  -29.8477 H   0  0  0  0  0  0  0  0  0  0  0  0
   -2.2216   22.0705  -29.8477 H   0  0  0  0  0  0  0  0  0  0  0  0
   -4.8722   23.6944  -30.9064 H   0  0  0  0  0  0  0  0  0  0  0  0
   -7.3258   24.0528  -31.1660 H   0  0  0  0  0  0  0  0  0  0  0  0
   -9.5431   23.1701  -31.6424 H   0  0  0  0  0  0  0  0  0  0  0  0
  -11.0187   21.2521  -32.2283 H   0  0  0  0  0  0  0  0  0  0  0  0
  -10.0576   18.9820  -32.5493 H   0  0  0  0  0  0  0  0  0  0  0  0
   -7.4660   17.6433  -31.4240 H   0  0  0  0  0  0  0  0  0  0  0  0
   -8.1295   17.6952  -33.1016 H   0  0  0  0  0  0  0  0  0  0  0  0
   -5.3610   17.2084  -31.2532 H   0  0  0  0  0  0  0  0  0  0  0  0
   -5.5979   16.2311  -32.7542 H   0  0  0  0  0  0  0  0  0  0  0  0
   -3.2466   17.8015  -31.8526 H   0  0  0  0  0  0  0  0  0  0  0  0
   -3.3785   16.4375  -33.0491 H   0  0  0  0  0  0  0  0  0  0  0  0
   -4.5860   18.8915  -35.7673 H   0  0  0  0  0  0  0  0  0  0  0  0
   -4.5138   17.1198  -35.3746 H   0  0  0  0  0  0  0  0  0  0  0  0
   -6.6214   19.0763  -34.7987 H   0  0  0  0  0  0  0  0  0  0  0  0
   -6.6314   17.2639  -34.6899 H   0  0  0  0  0  0  0  0  0  0  0  0
   -1.5257   17.6700  -33.9073 H   0  0  0  0  0  0  0  0  0  0  0  0
   -2.1629   17.9492  -35.5312 H   0  0  0  0  0  0  0  0  0  0  0  0
    0.1377   18.2264  -35.7872 H   0  0  0  0  0  0  0  0  0  0  0  0
    2.2689   19.0216  -36.7947 H   0  0  0  0  0  0  0  0  0  0  0  0
    1.4150   23.0418  -35.4298 H   0  0  0  0  0  0  0  0  0  0  0  0
   -0.7170   22.2457  -34.4199 H   0  0  0  0  0  0  0  0  0  0  0  0
   -5.3780   19.5780  -31.6940 H   0  0  0  0  0  0  0  0  0  0  0  0
  1  2  1  0
  2  3  1  0
  3  4  2  0
  4  5  1  0
  5  6  2  0
  6  7  1  0
  7  8  2  0
  8  9  1  0
  9 10  2  0
 10 11  1  0
 11 12  1  0
 12 13  1  0
 13 14  1  0
 14 15  1  0
 15 16  1  0
 16 17  1  0
 15 18  1  0
 18 19  1  0
 19 20  1  0
 20 21  2  0
 21 22  1  0
 22 23  2  0
 23 24  1  0
 24 25  2  0
 24 26  1  0
 23 27  1  0
 27 28  2  0
 19 29  1  0
 29 30  2  0
 29 31  1  0
 10 32  1  0
 32 33  2  0
 33  3  1  0
 32  6  1  0
 17 12  1  0
 28 20  1  0
 31 15  1  0
  1 34  1  0
  1 35  1  0
  1 36  1  0
  4 37  1  0
  5 38  1  0
  7 39  1  0
  8 40  1  0
  9 41  1  0
 11 42  1  0
 11 43  1  0
 13 44  1  0
 13 45  1  0
 14 46  1  0
 14 47  1  0
 16 48  1  0
 16 49  1  0
 17 50  1  0
 17 51  1  0
 18 52  1  0
 18 53  1  0
 21 54  1  0
 22 55  1  0
 27 56  1  0
 28 57  1  0
 33 58  1  0
M  CHG  2  26  -1  33   1
M  END
>  <UniqueID>  (3) 
3

>  <SMILES>  (3) 
COc1ccc2cccc(CN3CCC4(CC3)CN(c3ccc(C(=O)[O-])cc3)C(=O)O4)c2[nH+]1

>  <Energy>  (3) 
92.86912838491664

>  <Genealogy>  (3) 
COc1ccc2cccc(CN3CCC4(CC3)CN(c3ccc(C(=O)[O-])cc3)C(=O)O4)c2[nH+]1 (protonated)
COc1ccc2cccc(CN3CCC4(CC3)CN(c3ccc(C(=O)[O-])cc3)C(=O)O4)c2[nH+]1 (3D coordinates assigned)
COc1ccc2cccc(CN3CCC4(CC3)CN(c3ccc(C(=O)[O-])cc3)C(=O)O4)c2[nH+]1 (nonaromatic ring conformer: 92.86912838491664 kcal/mol)

>  <smiles>  (3) 
COc1ccc2cccc(CN3CCC4(CC3)CN(c3ccc(C(=O)O)cc3)C(=O)O4)c2n1

>  <score_type>  (3) 
oracle

>  <origin>  (3) 
adg

>  <m_score__min__energy>  (3) 
-10.109999999999999

>  <m_primary>  (3) 
energy

$$$$
3:0
     RDKit          3D

 44 44  0  0  0  0  0  0  0  0999 V2000
   -2.4100   21.6030  -34.3640 H   0  0  0  0  0  0  0  0  0  0  0  0
   -3.2050   21.2950  -33.8540 O   0  0  0  0  0  0  0  0  0  0  0  0
   -2.8140   21.2110  -32.5100 C   0  0  0  0  0  0  0  0  0  0  0  0
   -1.9166   21.8285  -32.3574 H   0  0  0  0  0  0  0  0  0  0  0  0
   -2.6030   20.1580  -32.2721 H   0  0  0  0  0  0  0  0  0  0  0  0
   -3.9270   21.7070  -31.5810 C   0  0  0  0  0  0  0  0  0  0  0  0
   -3.4745   22.2721  -30.7528 H   0  0  0  0  0  0  0  0  0  0  0  0
   -4.4768   20.8308  -31.2067 H   0  0  0  0  0  0  0  0  0  0  0  0
   -4.8750   22.5740  -32.2850 N   0  0  0  0  0  0  0  0  0  0  0  0
   -4.7850   22.6270  -33.3240 H   0  0  0  0  0  0  0  0  0  0  0  0
   -6.1140   23.0340  -31.7150 C   0  0  0  0  0  0  0  0  0  0  0  0
   -7.3380   22.6170  -32.3540 N   0  0  0  0  0  0  0  0  0  0  0  0
   -7.2570   22.0020  -33.1960 H   0  0  0  0  0  0  0  0  0  0  0  0
   -8.6830   23.0480  -31.9700 C   0  0  0  0  0  0  0  0  0  0  0  0
   -8.6027   23.8758  -31.2501 H   0  0  0  0  0  0  0  0  0  0  0  0
   -9.2169   23.3721  -32.8755 H   0  0  0  0  0  0  0  0  0  0  0  0
   -9.4710   21.8990  -31.3260 C   0  0  0  0  0  0  0  0  0  0  0  0
   -8.8788   21.4804  -30.4990 H   0  0  0  0  0  0  0  0  0  0  0  0
  -10.4278   22.3016  -30.9619 H   0  0  0  0  0  0  0  0  0  0  0  0
   -9.7760   20.7790  -32.3380 C   0  0  0  0  0  0  0  0  0  0  0  0
  -10.2919   19.9596  -31.8161 H   0  0  0  0  0  0  0  0  0  0  0  0
  -10.4059   21.2027  -33.1341 H   0  0  0  0  0  0  0  0  0  0  0  0
   -8.5500   20.2490  -32.9610 N   0  0  0  0  0  0  0  0  0  0  0  0
   -8.7530   19.9300  -33.9380 H   0  0  0  0  0  0  0  0  0  0  0  0
   -7.9660   19.1360  -32.2000 C   0  0  0  0  0  0  0  0  0  0  0  0
   -7.4835   19.5273  -31.2922 H   0  0  0  0  0  0  0  0  0  0  0  0
   -8.7612   18.4291  -31.9206 H   0  0  0  0  0  0  0  0  0  0  0  0
   -6.9410   18.4250  -33.0450 C   0  0  0  0  0  0  0  0  0  0  0  0
   -6.8940   17.0210  -33.0690 C   0  0  0  0  0  0  0  0  0  0  0  0
   -7.6233   16.4392  -32.4863 H   0  0  0  0  0  0  0  0  0  0  0  0
   -5.9260   16.3600  -33.8290 C   0  0  0  0  0  0  0  0  0  0  0  0
   -5.8989   15.2605  -33.8473 H   0  0  0  0  0  0  0  0  0  0  0  0
   -4.9920   17.0930  -34.5660 C   0  0  0  0  0  0  0  0  0  0  0  0
   -4.0520   16.4500  -35.3010 F   0  0  0  0  0  0  0  0  0  0  0  0
   -5.0270   18.4910  -34.5430 C   0  0  0  0  0  0  0  0  0  0  0  0
   -4.2924   19.0680  -35.1239 H   0  0  0  0  0  0  0  0  0  0  0  0
   -5.9940   19.1570  -33.7830 C   0  0  0  0  0  0  0  0  0  0  0  0
   -6.0030   20.5160  -33.7630 F   0  0  0  0  0  0  0  0  0  0  0  0
   -6.1280   23.8630  -30.7010 N   0  0  0  0  0  0  0  0  0  0  0  0
   -6.4550   23.5460  -29.7630 H   0  0  0  0  0  0  0  0  0  0  0  0
   -5.7770   25.2780  -30.7950 C   0  0  0  0  0  0  0  0  0  0  0  0
   -5.6728   25.6979  -29.7837 H   0  0  0  0  0  0  0  0  0  0  0  0
   -4.8252   25.3845  -31.3361 H   0  0  0  0  0  0  0  0  0  0  0  0
   -6.5687   25.8170  -31.3361 H   0  0  0  0  0  0  0  0  0  0  0  0
  1  2  1  0
  2  3  1  0
  3  4  1  0
  3  5  1  0
  3  6  1  0
  6  7  1  0
  6  8  1  0
  6  9  1  0
  9 10  1  0
  9 11  1  0
 11 12  1  0
 12 13  1  0
 12 14  1  0
 14 15  1  0
 14 16  1  0
 14 17  1  0
 17 18  1  0
 17 19  1  0
 17 20  1  0
 20 21  1  0
 20 22  1  0
 20 23  1  0
 23 24  1  0
 23 25  1  0
 25 26  1  0
 25 27  1  0
 25 28  1  0
 28 29  2  0
 29 30  1  0
 29 31  1  0
 31 32  1  0
 31 33  2  0
 33 34  1  0
 33 35  1  0
 35 36  1  0
 35 37  2  0
 37 38  1  0
 11 39  2  0
 39 40  1  0
 39 41  1  0
 41 42  1  0
 41 43  1  0
 41 44  1  0
 37 28  1  0
M  CHG  1  39   1
M  END
>  <UniqueID>  (4) 
4

>  <SMILES>  (4) 
C/[NH+]=C(\NCCO)NCCCNCc1ccc(F)cc1F

>  <Energy>  (4) 
39.188832163267456

>  <Genealogy>  (4) 
C[NH+]=C(NCCO)NCCCNCc1ccc(F)cc1F (protonated)
C/[NH+]=C(\NCCO)NCCCNCc1ccc(F)cc1F (cis-trans isomerization)
C/[NH+]=C(\NCCO)NCCCNCc1ccc(F)cc1F (3D coordinates assigned)
C/[NH+]=C(\NCCO)NCCCNCc1ccc(F)cc1F (optimized conformer: 39.188832163267456 kcal/mol)

>  <smiles>  (4) 
CN=C(NCCO)NCCCNCc1ccc(F)cc1F

>  <score_type>  (4) 
oracle

>  <origin>  (4) 
adg

>  <m_score__min__energy>  (4) 
-5.4000000000000004

>  <m_primary>  (4) 
energy

$$$$
4:0
     RDKit          3D

 73 76  0  0  0  0  0  0  0  0999 V2000
   -1.5247   26.3981  -27.9554 H   0  0  0  0  0  0  0  0  0  0  0  0
   -1.6520   25.9260  -26.9700 C   0  0  0  0  0  0  0  0  0  0  0  0
   -2.5100   24.8970  -26.8790 C   0  0  0  0  0  0  0  0  0  0  0  0
   -3.5839   25.1248  -26.8097 H   0  0  0  0  0  0  0  0  0  0  0  0
   -2.0900   23.4430  -26.8660 C   0  0  0  0  0  0  0  0  0  0  0  0
   -2.7614   22.8903  -26.1924 H   0  0  0  0  0  0  0  0  0  0  0  0
   -1.0446   23.4058  -26.5257 H   0  0  0  0  0  0  0  0  0  0  0  0
   -2.1420   22.8140  -28.2030 N   0  0  0  0  0  0  0  0  0  0  0  0
   -0.9640   23.0850  -29.0690 C   0  0  0  0  0  0  0  0  0  0  0  0
   -0.2752   23.7469  -28.5237 H   0  0  0  0  0  0  0  0  0  0  0  0
   -1.3400   23.5473  -29.9936 H   0  0  0  0  0  0  0  0  0  0  0  0
   -0.1960   21.8080  -29.4770 C   0  0  0  0  0  0  0  0  0  0  0  0
    0.3158   21.4104  -28.5882 H   0  0  0  0  0  0  0  0  0  0  0  0
    0.5094   22.0941  -30.2711 H   0  0  0  0  0  0  0  0  0  0  0  0
   -1.0740   20.7390  -30.0340 N   0  0  0  0  0  0  0  0  0  0  0  0
   -0.6840   19.8360  -29.6710 H   0  0  0  0  0  0  0  0  0  0  0  0
   -0.9960   20.6160  -31.5140 C   0  0  0  0  0  0  0  0  0  0  0  0
    0.0241   20.2996  -31.7773 H   0  0  0  0  0  0  0  0  0  0  0  0
   -1.2644   21.6024  -31.9201 H   0  0  0  0  0  0  0  0  0  0  0  0
   -1.9870   19.6070  -32.1360 C   0  0  0  0  0  0  0  0  0  0  0  0
   -2.8126   19.4318  -31.4305 H   0  0  0  0  0  0  0  0  0  0  0  0
   -1.4504   18.6689  -32.3409 H   0  0  0  0  0  0  0  0  0  0  0  0
   -2.5580   20.1410  -33.4530 C   0  0  0  0  0  0  0  0  0  0  0  0
   -1.7332   20.3464  -34.1513 H   0  0  0  0  0  0  0  0  0  0  0  0
   -3.1179   21.0670  -33.2555 H   0  0  0  0  0  0  0  0  0  0  0  0
   -3.6840   18.9030  -34.1920 S   0  0  0  0  0  0  0  0  0  0  0  0
   -5.1720   19.4970  -33.3560 C   0  0  0  0  0  0  0  0  0  0  0  0
   -5.0850   20.6910  -32.7210 N   0  0  0  0  0  0  0  0  0  0  0  0
   -6.1290   21.2420  -32.0600 C   0  0  0  0  0  0  0  0  0  0  0  0
   -5.8990   22.5100  -31.3360 C   0  0  0  0  0  0  0  0  0  0  0  0
   -6.3160   23.7400  -31.8720 C   0  0  0  0  0  0  0  0  0  0  0  0
   -6.8559   23.7674  -32.8300 H   0  0  0  0  0  0  0  0  0  0  0  0
   -6.0450   24.9300  -31.1880 C   0  0  0  0  0  0  0  0  0  0  0  0
   -6.3809   25.8912  -31.6044 H   0  0  0  0  0  0  0  0  0  0  0  0
   -5.3480   24.9000  -29.9760 C   0  0  0  0  0  0  0  0  0  0  0  0
   -5.1325   25.8379  -29.4431 H   0  0  0  0  0  0  0  0  0  0  0  0
   -4.9250   23.6810  -29.4410 C   0  0  0  0  0  0  0  0  0  0  0  0
   -4.3776   23.6588  -28.4871 H   0  0  0  0  0  0  0  0  0  0  0  0
   -5.1980   22.4890  -30.1190 C   0  0  0  0  0  0  0  0  0  0  0  0
   -4.8622   21.5302  -29.6973 H   0  0  0  0  0  0  0  0  0  0  0  0
   -7.3590   20.5680  -32.0450 C   0  0  0  0  0  0  0  0  0  0  0  0
   -8.4990   21.0930  -31.3250 C   0  0  0  0  0  0  0  0  0  0  0  0
   -9.4110   21.5130  -30.7490 N   0  0  0  0  0  0  0  0  0  0  0  0
   -7.4530   19.3350  -32.7130 C   0  0  0  0  0  0  0  0  0  0  0  0
   -8.5580   18.7220  -32.7180 O   0  0  0  0  0  0  0  0  0  0  0  0
   -6.3590   18.7980  -33.3540 N   0  0  0  0  0  0  0  0  0  0  0  0
   -6.4960   17.4970  -34.0480 C   0  0  0  0  0  0  0  0  0  0  0  0
   -6.0186   17.5710  -35.0362 H   0  0  0  0  0  0  0  0  0  0  0  0
   -7.5694   17.2737  -34.1368 H   0  0  0  0  0  0  0  0  0  0  0  0
   -5.8390   16.3480  -33.2660 C   0  0  0  0  0  0  0  0  0  0  0  0
   -4.8284   16.1819  -33.6674 H   0  0  0  0  0  0  0  0  0  0  0  0
   -6.4755   15.4588  -33.3851 H   0  0  0  0  0  0  0  0  0  0  0  0
   -5.7290   16.6390  -31.7720 C   0  0  0  0  0  0  0  0  0  0  0  0
   -6.0616   15.7592  -31.2016 H   0  0  0  0  0  0  0  0  0  0  0  0
   -4.6829   16.8662  -31.5187 H   0  0  0  0  0  0  0  0  0  0  0  0
   -6.3632   17.5014  -31.5187 H   0  0  0  0  0  0  0  0  0  0  0  0
   -2.4780   20.7870  -29.5510 C   0  0  0  0  0  0  0  0  0  0  0  0
   -2.8809   19.7640  -29.5184 H   0  0  0  0  0  0  0  0  0  0  0  0
   -3.0616   21.4133  -30.2418 H   0  0  0  0  0  0  0  0  0  0  0  0
   -2.5640   21.4010  -28.1530 C   0  0  0  0  0  0  0  0  0  0  0  0
   -1.9046   20.8466  -27.4690 H   0  0  0  0  0  0  0  0  0  0  0  0
   -3.6020   21.3436  -27.7934 H   0  0  0  0  0  0  0  0  0  0  0  0
   -0.8670   26.4700  -25.8440 C   0  0  0  0  0  0  0  0  0  0  0  0
    0.1530   27.4150  -26.0660 C   0  0  0  0  0  0  0  0  0  0  0  0
    0.4152   27.7084  -27.0932 H   0  0  0  0  0  0  0  0  0  0  0  0
    0.8330   27.9810  -24.9840 C   0  0  0  0  0  0  0  0  0  0  0  0
    1.6453   28.7010  -25.1623 H   0  0  0  0  0  0  0  0  0  0  0  0
    0.4830   27.6340  -23.6750 C   0  0  0  0  0  0  0  0  0  0  0  0
    1.0211   28.0793  -22.8252 H   0  0  0  0  0  0  0  0  0  0  0  0
   -0.5510   26.7210  -23.4470 C   0  0  0  0  0  0  0  0  0  0  0  0
   -0.8285   26.4523  -22.4170 H   0  0  0  0  0  0  0  0  0  0  0  0
   -1.2340   26.1480  -24.5260 C   0  0  0  0  0  0  0  0  0  0  0  0
   -2.0594   25.4445  -24.3422 H   0  0  0  0  0  0  0  0  0  0  0  0
  1  2  1  0
  2  3  2  0
  3  4  1  0
  3  5  1  0
  5  6  1  0
  5  7  1  0
  5  8  1  0
  8  9  1  0
  9 10  1  0
  9 11  1  0
  9 12  1  0
 12 13  1  0
 12 14  1  0
 12 15  1  0
 15 16  1  0
 15 17  1  0
 17 18  1  0
 17 19  1  0
 17 20  1  0
 20 21  1  0
 20 22  1  0
 20 23  1  0
 23 24  1  0
 23 25  1  0
 23 26  1  0
 26 27  1  0
 27 28  2  0
 28 29  1  0
 29 30  1  0
 30 31  2  0
 31 32  1  0
 31 33  1  0
 33 34  1  0
 33 35  2  0
 35 36  1  0
 35 37  1  0
 37 38  1  0
 37 39  2  0
 39 40  1  0
 29 41  2  0
 41 42  1  0
 42 43  3  0
 41 44  1  0
 44 45  2  0
 44 46  1  0
 46 47  1  0
 47 48  1  0
 47 49  1  0
 47 50  1  0
 50 51  1  0
 50 52  1  0
 50 53  1  0
 53 54  1  0
 53 55  1  0
 53 56  1  0
 15 57  1  0
 57 58  1  0
 57 59  1  0
 57 60  1  0
 60 61  1  0
 60 62  1  0
  2 63  1  0
 63 64  2  0
 64 65  1  0
 64 66  1  0
 66 67  1  0
 66 68  2  0
 68 69  1  0
 68 70  1  0
 70 71  1  0
 70 72  2  0
 72 73  1  0
 60  8  1  0
 72 63  1  0
 46 27  1  0
 39 30  1  0
M  CHG  1  15   1
M  END
>  <UniqueID>  (5) 
5

>  <SMILES>  (5) 
CCCn1c(SCCC[NH+]2CCN(C/C=C\c3ccccc3)CC2)nc(-c2ccccc2)c(C#N)c1=O

>  <Energy>  (5) 
102.06192575176497

>  <Genealogy>  (5) 
CCCn1c(SCCC[NH+]2CCN(CC=Cc3ccccc3)CC2)nc(-c2ccccc2)c(C#N)c1=O (protonated)
CCCn1c(SCCC[NH+]2CCN(C/C=C\c3ccccc3)CC2)nc(-c2ccccc2)c(C#N)c1=O (cis-trans isomerization)
CCCn1c(SCCC[NH+]2CCN(C/C=C\c3ccccc3)CC2)nc(-c2ccccc2)c(C#N)c1=O (3D coordinates assigned)
CCCn1c(SCCC[NH+]2CCN(C/C=C\c3ccccc3)CC2)nc(-c2ccccc2)c(C#N)c1=O (nonaromatic ring conformer: 102.06192575176497 kcal/mol)

>  <smiles>  (5) 
CCCn1c(SCCCN2CCN(CC=Cc3ccccc3)CC2)nc(-c2ccccc2)c(C#N)c1=O

>  <score_type>  (5) 
oracle

>  <origin>  (5) 
adg

>  <m_score__min__energy>  (5) 
-8.7200000000000006

>  <m_primary>  (5) 
energy

$$$$
5:0
     RDKit          3D

 39 41  0  0  0  0  0  0  0  0999 V2000
   -9.0380   18.5190  -31.5760 C   0  0  0  0  0  0  0  0  0  0  0  0
   -7.8270   18.7670  -32.4360 C   0  0  0  0  0  0  0  0  0  0  0  0
   -7.2030   17.6810  -33.0700 C   0  0  0  0  0  0  0  0  0  0  0  0
   -6.0930   17.8840  -33.8890 C   0  0  0  0  0  0  0  0  0  0  0  0
   -5.6150   19.1790  -34.0790 C   0  0  0  0  0  0  0  0  0  0  0  0
   -6.2320   20.2270  -33.4770 N   0  0  0  0  0  0  0  0  0  0  0  0
   -7.3210   20.0690  -32.6730 C   0  0  0  0  0  0  0  0  0  0  0  0
   -7.9400   21.3020  -32.0650 C   0  0  0  0  0  0  0  0  0  0  0  0
   -7.2390   22.5100  -32.5020 N   0  0  0  0  0  0  0  0  0  0  0  0
   -6.4680   23.3650  -31.6300 C   0  0  0  0  0  0  0  0  0  0  0  0
   -7.0870   24.1640  -30.6510 C   0  0  0  0  0  0  0  0  0  0  0  0
   -6.3170   24.9400  -29.7850 C   0  0  0  0  0  0  0  0  0  0  0  0
   -4.9290   24.9190  -29.8980 C   0  0  0  0  0  0  0  0  0  0  0  0
   -4.3370   24.1600  -30.8560 N   0  0  0  0  0  0  0  0  0  0  0  0
   -5.0580   23.4030  -31.7260 C   0  0  0  0  0  0  0  0  0  0  0  0
   -4.3710   22.6560  -32.6880 O   0  0  0  0  0  0  0  0  0  0  0  0
   -3.3420   21.7490  -32.3950 C   0  0  0  0  0  0  0  0  0  0  0  0
   -2.9520   21.4550  -31.0720 C   0  0  0  0  0  0  0  0  0  0  0  0
   -1.9180   20.5460  -30.8290 C   0  0  0  0  0  0  0  0  0  0  0  0
   -1.2690   19.9200  -31.8980 C   0  0  0  0  0  0  0  0  0  0  0  0
   -1.6550   20.2030  -33.2110 C   0  0  0  0  0  0  0  0  0  0  0  0
   -2.6880   21.1120  -33.4570 C   0  0  0  0  0  0  0  0  0  0  0  0
   -8.7526   18.5774  -30.5153 H   0  0  0  0  0  0  0  0  0  0  0  0
   -9.8032   19.2791  -31.7923 H   0  0  0  0  0  0  0  0  0  0  0  0
   -9.4428   17.5193  -31.7923 H   0  0  0  0  0  0  0  0  0  0  0  0
   -7.5923   16.6632  -32.9197 H   0  0  0  0  0  0  0  0  0  0  0  0
   -5.6003   17.0316  -34.3795 H   0  0  0  0  0  0  0  0  0  0  0  0
   -4.7364   19.3520  -34.7178 H   0  0  0  0  0  0  0  0  0  0  0  0
   -8.9937   21.3656  -32.3744 H   0  0  0  0  0  0  0  0  0  0  0  0
   -7.8639   21.2291  -30.9701 H   0  0  0  0  0  0  0  0  0  0  0  0
   -7.2600   22.7110  -33.5260 H   0  0  0  0  0  0  0  0  0  0  0  0
   -8.1838   24.1766  -30.5683 H   0  0  0  0  0  0  0  0  0  0  0  0
   -6.8018   25.5633  -29.0192 H   0  0  0  0  0  0  0  0  0  0  0  0
   -4.3122   25.5172  -29.2112 H   0  0  0  0  0  0  0  0  0  0  0  0
   -3.4630   21.9424  -30.2286 H   0  0  0  0  0  0  0  0  0  0  0  0
   -1.6145   20.3228  -29.7955 H   0  0  0  0  0  0  0  0  0  0  0  0
   -0.4552   19.2053  -31.7055 H   0  0  0  0  0  0  0  0  0  0  0  0
   -1.1453   19.7099  -34.0519 H   0  0  0  0  0  0  0  0  0  0  0  0
   -2.9895   21.3286  -34.4925 H   0  0  0  0  0  0  0  0  0  0  0  0
  1  2  1  0
  2  3  2  0
  3  4  1  0
  4  5  2  0
  5  6  1  0
  6  7  2  0
  7  8  1  0
  8  9  1  0
  9 10  1  0
 10 11  2  0
 11 12  1  0
 12 13  2  0
 13 14  1  0
 14 15  2  0
 15 16  1  0
 16 17  1  0
 17 18  2  0
 18 19  1  0
 19 20  2  0
 20 21  1  0
 21 22  2  0
  7  2  1  0
 15 10  1  0
 22 17  1  0
  1 23  1  0
  1 24  1  0
  1 25  1  0
  3 26  1  0
  4 27  1  0
  5 28  1  0
  8 29  1  0
  8 30  1  0
  9 31  1  0
 11 32  1  0
 12 33  1  0
 13 34  1  0
 18 35  1  0
 19 36  1  0
 20 37  1  0
 21 38  1  0
 22 39  1  0
M  END
>  <UniqueID>  (6) 
6

>  <SMILES>  (6) 
Cc1cccnc1CNc1cccnc1Oc1ccccc1

>  <Energy>  (6) 
51.77947503144871

>  <Genealogy>  (6) 
Cc1cccnc1CNc1cccnc1Oc1ccccc1 (3D coordinates assigned)
Cc1cccnc1CNc1cccnc1Oc1ccccc1 (optimized conformer: 51.77947503144871 kcal/mol)

>  <smiles>  (6) 
Cc1cccnc1CNc1cccnc1Oc1ccccc1

>  <score_type>  (6) 
oracle

>  <origin>  (6) 
adg

>  <m_score__min__energy>  (6) 
-7.7400000000000002

>  <m_primary>  (6) 
energy

$$$$
6:0
     RDKit          3D

 42 44  0  0  0  0  0  0  0  0999 V2000
   -6.8020   17.8060  -31.2230 C   0  0  0  0  0  0  0  0  0  0  0  0
   -7.8890   18.5240  -31.5140 C   0  0  0  0  0  0  0  0  0  0  0  0
   -8.0730   19.1330  -32.8760 C   0  0  0  0  0  0  0  0  0  0  0  0
   -6.8290   19.7760  -33.3330 N   0  0  0  0  0  0  0  0  0  0  0  0
   -6.0980   19.1750  -34.4600 C   0  0  0  0  0  0  0  0  0  0  0  0
   -5.5280   17.8240  -34.0940 C   0  0  0  0  0  0  0  0  0  0  0  0
   -6.3100   16.6650  -34.2460 C   0  0  0  0  0  0  0  0  0  0  0  0
   -5.7970   15.4140  -33.8930 C   0  0  0  0  0  0  0  0  0  0  0  0
   -4.5030   15.3080  -33.3770 C   0  0  0  0  0  0  0  0  0  0  0  0
   -3.7210   16.4530  -33.2110 C   0  0  0  0  0  0  0  0  0  0  0  0
   -4.2310   17.7070  -33.5620 C   0  0  0  0  0  0  0  0  0  0  0  0
   -6.2780   20.9150  -32.6260 C   0  0  0  0  0  0  0  0  0  0  0  0
   -4.9510   21.3240  -32.8540 C   0  0  0  0  0  0  0  0  0  0  0  0
   -4.4160   22.4270  -32.1830 C   0  0  0  0  0  0  0  0  0  0  0  0
   -5.2000   23.1480  -31.2720 C   0  0  0  0  0  0  0  0  0  0  0  0
   -6.5340   22.7630  -31.0490 C   0  0  0  0  0  0  0  0  0  0  0  0
   -7.0610   21.6470  -31.7120 C   0  0  0  0  0  0  0  0  0  0  0  0
   -7.3460   23.5140  -30.1350 N   0  0  0  0  0  0  0  0  0  0  0  0
   -6.9480   24.8580  -29.7170 C   0  0  0  0  0  0  0  0  0  0  0  0
   -5.4510   24.9000  -29.3940 C   0  0  0  0  0  0  0  0  0  0  0  0
   -4.6500   24.2930  -30.5120 C   0  0  0  0  0  0  0  0  0  0  0  0
   -3.4900   24.7250  -30.7520 O   0  0  0  0  0  0  0  0  0  0  0  0
   -6.6843   17.3678  -30.2209 H   0  0  0  0  0  0  0  0  0  0  0  0
   -6.0239   17.6525  -31.9853 H   0  0  0  0  0  0  0  0  0  0  0  0
   -8.6619   18.6723  -30.7455 H   0  0  0  0  0  0  0  0  0  0  0  0
   -8.3543   18.3440  -33.5890 H   0  0  0  0  0  0  0  0  0  0  0  0
   -8.8637   19.8955  -32.8178 H   0  0  0  0  0  0  0  0  0  0  0  0
   -6.7870   19.0540  -35.3089 H   0  0  0  0  0  0  0  0  0  0  0  0
   -5.2635   19.8412  -34.7243 H   0  0  0  0  0  0  0  0  0  0  0  0
   -7.3319   16.7437  -34.6453 H   0  0  0  0  0  0  0  0  0  0  0  0
   -6.4128   14.5116  -34.0216 H   0  0  0  0  0  0  0  0  0  0  0  0
   -4.1000   14.3223  -33.1014 H   0  0  0  0  0  0  0  0  0  0  0  0
   -2.7027   16.3685  -32.8037 H   0  0  0  0  0  0  0  0  0  0  0  0
   -3.6144   18.6070  -33.4213 H   0  0  0  0  0  0  0  0  0  0  0  0
   -4.3269   20.7685  -33.5695 H   0  0  0  0  0  0  0  0  0  0  0  0
   -3.3755   22.7305  -32.3706 H   0  0  0  0  0  0  0  0  0  0  0  0
   -8.0986   21.3387  -31.5165 H   0  0  0  0  0  0  0  0  0  0  0  0
   -8.2680   23.1370  -29.8180 H   0  0  0  0  0  0  0  0  0  0  0  0
   -7.1628   25.5679  -30.5294 H   0  0  0  0  0  0  0  0  0  0  0  0
   -7.5138   25.1311  -28.8141 H   0  0  0  0  0  0  0  0  0  0  0  0
   -5.1408   25.9460  -29.2539 H   0  0  0  0  0  0  0  0  0  0  0  0
   -5.2707   24.3227  -28.4752 H   0  0  0  0  0  0  0  0  0  0  0  0
  1  2  2  0
  2  3  1  0
  3  4  1  0
  4  5  1  0
  5  6  1  0
  6  7  2  0
  7  8  1  0
  8  9  2  0
  9 10  1  0
 10 11  2  0
  4 12  1  0
 12 13  2  0
 13 14  1  0
 14 15  2  0
 15 16  1  0
 16 17  2  0
 16 18  1  0
 18 19  1  0
 19 20  1  0
 20 21  1  0
 21 22  2  0
 11  6  1  0
 17 12  1  0
 21 15  1  0
  1 23  1  0
  1 24  1  0
  2 25  1  0
  3 26  1  0
  3 27  1  0
  5 28  1  0
  5 29  1  0
  7 30  1  0
  8 31  1  0
  9 32  1  0
 10 33  1  0
 11 34  1  0
 13 35  1  0
 14 36  1  0
 17 37  1  0
 18 38  1  0
 19 39  1  0
 19 40  1  0
 20 41  1  0
 20 42  1  0
M  END
>  <UniqueID>  (7) 
7

>  <SMILES>  (7) 
C=CCN(Cc1ccccc1)c1ccc2c(c1)NCCC2=O

>  <Energy>  (7) 
44.25213957057105

>  <Genealogy>  (7) 
C=CCN(Cc1ccccc1)c1ccc2c(c1)NCCC2=O (3D coordinates assigned)
C=CCN(Cc1ccccc1)c1ccc2c(c1)NCCC2=O (nonaromatic ring conformer: 44.25213957057105 kcal/mol)

>  <smiles>  (7) 
C=CCN(Cc1ccccc1)c1ccc2c(c1)NCCC2=O

>  <score_type>  (7) 
oracle

>  <origin>  (7) 
adg

>  <m_score__min__energy>  (7) 
-8.25

>  <m_primary>  (7) 
energy

$$$$
7:0
     RDKit          3D

 75 77  0  0  0  0  0  0  0  0999 V2000
   -5.6630   25.8550  -30.3120 C   0  0  0  0  0  0  0  0  0  0  0  0
   -5.0330   24.9480  -31.2120 O   0  0  0  0  0  0  0  0  0  0  0  0
   -5.5430   23.6870  -31.5550 C   0  0  0  0  0  0  0  0  0  0  0  0
   -4.6420   22.6880  -31.9280 C   0  0  0  0  0  0  0  0  0  0  0  0
   -5.0980   21.4210  -32.2940 C   0  0  0  0  0  0  0  0  0  0  0  0
   -6.4750   21.1280  -32.3240 C   0  0  0  0  0  0  0  0  0  0  0  0
   -7.3860   22.1170  -31.8730 C   0  0  0  0  0  0  0  0  0  0  0  0
   -6.9180   23.3950  -31.5260 C   0  0  0  0  0  0  0  0  0  0  0  0
   -8.8590   21.8290  -31.7680 C   0  0  0  0  0  0  0  0  0  0  0  0
   -9.1050   20.3450  -31.5190 C   0  0  0  0  0  0  0  0  0  0  0  0
   -8.4740   19.5290  -32.6410 C   0  0  0  0  0  0  0  0  0  0  0  0
   -6.9360   19.7250  -32.7290 C   0  0  1  0  0  0  0  0  0  0  0  0
   -6.4380   19.3710  -34.1560 C   0  0  0  0  0  0  0  0  0  0  0  0
   -4.9200   19.0790  -34.1940 C   0  0  0  0  0  0  0  0  0  0  0  0
   -4.5720   17.6430  -34.3340 N   0  0  0  0  0  0  0  0  0  0  0  0
   -5.7370   16.7700  -34.1080 C   0  0  0  0  0  0  0  0  0  0  0  0
   -3.4160   17.1890  -33.5260 C   0  0  0  0  0  0  0  0  0  0  0  0
   -2.0760   17.4340  -34.2430 C   0  0  0  0  0  0  0  0  0  0  0  0
   -1.1140   18.3620  -33.4670 C   0  0  0  0  0  0  0  0  0  0  0  0
   -1.7560   19.3870  -32.6090 N   0  0  0  0  0  0  0  0  0  0  0  0
   -1.8830   20.7110  -33.2350 C   0  0  0  0  0  0  0  0  0  0  0  0
   -1.2480   19.4430  -31.2220 C   0  0  0  0  0  0  0  0  0  0  0  0
   -0.6370   20.8190  -30.9420 C   0  0  0  0  0  0  0  0  0  0  0  0
   -1.6060   21.7060  -30.2010 C   0  0  0  0  0  0  0  0  0  0  0  0
   -2.7250   21.1520  -29.5640 C   0  0  0  0  0  0  0  0  0  0  0  0
   -3.6040   21.9660  -28.8500 C   0  0  0  0  0  0  0  0  0  0  0  0
   -3.3740   23.3510  -28.7530 C   0  0  0  0  0  0  0  0  0  0  0  0
   -4.2420   24.2030  -28.0490 O   0  0  0  0  0  0  0  0  0  0  0  0
   -3.9990   24.6950  -26.7360 C   0  0  0  0  0  0  0  0  0  0  0  0
   -2.2460   23.9110  -29.3730 C   0  0  0  0  0  0  0  0  0  0  0  0
   -2.0350   25.2940  -29.2480 O   0  0  0  0  0  0  0  0  0  0  0  0
   -1.2460   25.8990  -28.2280 C   0  0  0  0  0  0  0  0  0  0  0  0
   -1.3640   23.0830  -30.0940 C   0  0  0  0  0  0  0  0  0  0  0  0
   -5.4514   25.5503  -29.2764 H   0  0  0  0  0  0  0  0  0  0  0  0
   -5.2744   26.8699  -30.4823 H   0  0  0  0  0  0  0  0  0  0  0  0
   -6.7497   25.8451  -30.4823 H   0  0  0  0  0  0  0  0  0  0  0  0
   -3.5629   22.9015  -31.9334 H   0  0  0  0  0  0  0  0  0  0  0  0
   -4.3715   20.6400  -32.5629 H   0  0  0  0  0  0  0  0  0  0  0  0
   -7.6343   24.1751  -31.2286 H   0  0  0  0  0  0  0  0  0  0  0  0
   -9.2812   22.4092  -30.9343 H   0  0  0  0  0  0  0  0  0  0  0  0
   -9.3416   22.1120  -32.7151 H   0  0  0  0  0  0  0  0  0  0  0  0
   -8.6555   20.0553  -30.5577 H   0  0  0  0  0  0  0  0  0  0  0  0
  -10.1877   20.1530  -31.4908 H   0  0  0  0  0  0  0  0  0  0  0  0
   -8.6839   18.4640  -32.4632 H   0  0  0  0  0  0  0  0  0  0  0  0
   -8.9091   19.8750  -33.5902 H   0  0  0  0  0  0  0  0  0  0  0  0
   -6.4854   19.0379  -31.9977 H   0  0  0  0  0  0  0  0  0  0  0  0
   -6.9783   18.4798  -34.5079 H   0  0  0  0  0  0  0  0  0  0  0  0
   -6.6292   20.2395  -34.8034 H   0  0  0  0  0  0  0  0  0  0  0  0
   -4.4871   19.6220  -35.0471 H   0  0  0  0  0  0  0  0  0  0  0  0
   -4.5146   19.4058  -33.2251 H   0  0  0  0  0  0  0  0  0  0  0  0
   -5.8996   16.6481  -33.0269 H   0  0  0  0  0  0  0  0  0  0  0  0
   -6.6292   17.2238  -34.5642 H   0  0  0  0  0  0  0  0  0  0  0  0
   -5.5520   15.7863  -34.5642 H   0  0  0  0  0  0  0  0  0  0  0  0
   -3.4131   17.7367  -32.5721 H   0  0  0  0  0  0  0  0  0  0  0  0
   -3.5204   16.1060  -33.3643 H   0  0  0  0  0  0  0  0  0  0  0  0
   -1.5788   16.4638  -34.3900 H   0  0  0  0  0  0  0  0  0  0  0  0
   -2.3084   17.9362  -35.1937 H   0  0  0  0  0  0  0  0  0  0  0  0
   -0.4825   17.7313  -32.8239 H   0  0  0  0  0  0  0  0  0  0  0  0
   -0.5564   18.9210  -34.2329 H   0  0  0  0  0  0  0  0  0  0  0  0
   -1.9568   21.4809  -32.4528 H   0  0  0  0  0  0  0  0  0  0  0  0
   -0.9996   20.9072  -33.8603 H   0  0  0  0  0  0  0  0  0  0  0  0
   -2.7876   20.7357  -33.8603 H   0  0  0  0  0  0  0  0  0  0  0  0
   -2.0781   19.2641  -30.5227 H   0  0  0  0  0  0  0  0  0  0  0  0
   -0.4751   18.6715  -31.0896 H   0  0  0  0  0  0  0  0  0  0  0  0
    0.2702   20.6915  -30.3331 H   0  0  0  0  0  0  0  0  0  0  0  0
   -0.3952   21.2948  -31.9039 H   0  0  0  0  0  0  0  0  0  0  0  0
   -2.9108   20.0697  -29.6276 H   0  0  0  0  0  0  0  0  0  0  0  0
   -4.4830   21.5225  -28.3594 H   0  0  0  0  0  0  0  0  0  0  0  0
   -4.3601   23.9638  -25.9978 H   0  0  0  0  0  0  0  0  0  0  0  0
   -2.9192   24.8530  -26.5976 H   0  0  0  0  0  0  0  0  0  0  0  0
   -4.5298   25.6485  -26.5976 H   0  0  0  0  0  0  0  0  0  0  0  0
   -1.6322   25.6028  -27.2415 H   0  0  0  0  0  0  0  0  0  0  0  0
   -0.2017   25.5680  -28.3274 H   0  0  0  0  0  0  0  0  0  0  0  0
   -1.2947   26.9934  -28.3274 H   0  0  0  0  0  0  0  0  0  0  0  0
   -0.4778   23.5202  -30.5773 H   0  0  0  0  0  0  0  0  0  0  0  0
  1  2  1  0
  2  3  1  0
  3  4  2  0
  4  5  1  0
  5  6  2  0
  6  7  1  0
  7  8  2  0
  7  9  1  0
  9 10  1  0
 10 11  1  0
 11 12  1  0
 12 13  1  0
 13 14  1  0
 14 15  1  0
 15 16  1  0
 15 17  1  0
 17 18  1  0
 18 19  1  0
 19 20  1  0
 20 21  1  0
 20 22  1  0
 22 23  1  0
 23 24  1  0
 24 25  2  0
 25 26  1  0
 26 27  2  0
 27 28  1  0
 28 29  1  0
 27 30  1  0
 30 31  1  0
 31 32  1  0
 30 33  2  0
  8  3  1  0
 33 24  1  0
 12  6  1  0
  1 34  1  0
  1 35  1  0
  1 36  1  0
  4 37  1  0
  5 38  1  0
  8 39  1  0
  9 40  1  0
  9 41  1  0
 10 42  1  0
 10 43  1  0
 11 44  1  0
 11 45  1  0
 12 46  1  1
 13 47  1  0
 13 48  1  0
 14 49  1  0
 14 50  1  0
 16 51  1  0
 16 52  1  0
 16 53  1  0
 17 54  1  0
 17 55  1  0
 18 56  1  0
 18 57  1  0
 19 58  1  0
 19 59  1  0
 21 60  1  0
 21 61  1  0
 21 62  1  0
 22 63  1  0
 22 64  1  0
 23 65  1  0
 23 66  1  0
 25 67  1  0
 26 68  1  0
 29 69  1  0
 29 70  1  0
 29 71  1  0
 32 72  1  0
 32 73  1  0
 32 74  1  0
 33 75  1  0
M  END
>  <UniqueID>  (8) 
8

>  <SMILES>  (8) 
COc1ccc2c(c1)CCC[C@H]2CCN(C)CCCN(C)CCc1ccc(OC)c(OC)c1

>  <Energy>  (8) 
80.51459908534382

>  <Genealogy>  (8) 
COc1ccc2c(c1)CCC[C@H]2CCN(C)CCCN(C)CCc1ccc(OC)c(OC)c1 (chirality)
COc1ccc2c(c1)CCC[C@H]2CCN(C)CCCN(C)CCc1ccc(OC)c(OC)c1 (3D coordinates assigned)
COc1ccc2c(c1)CCC[C@H]2CCN(C)CCCN(C)CCc1ccc(OC)c(OC)c1 (nonaromatic ring conformer: 80.51459908534382 kcal/mol)

>  <smiles>  (8) 
COc1ccc2c(c1)CCCC2CCN(C)CCCN(C)CCc1ccc(OC)c(OC)c1

>  <score_type>  (8) 
oracle

>  <origin>  (8) 
adg

>  <m_score__min__energy>  (8) 
-10.289999999999999

>  <m_primary>  (8) 
energy

$$$$
8:0
     RDKit          3D

 46 48  0  0  0  0  0  0  0  0999 V2000
   -4.9950   15.7500  -32.4220 C   0  0  0  0  0  0  0  0  0  0  0  0
   -5.4250   17.0650  -31.7460 C   0  0  0  0  0  0  0  0  0  0  0  0
   -6.4900   17.8430  -32.4470 N   0  0  0  0  0  0  0  0  0  0  0  0
   -6.8510   17.3580  -33.8060 C   0  0  0  0  0  0  0  0  0  0  0  0
   -5.8710   17.8470  -34.8780 C   0  0  0  0  0  0  0  0  0  0  0  0
   -7.6790   18.1310  -31.5950 C   0  0  0  0  0  0  0  0  0  0  0  0
   -8.8310   18.8970  -32.2730 C   0  0  0  0  0  0  0  0  0  0  0  0
   -8.3420   20.0490  -33.0330 N   0  0  0  0  0  0  0  0  0  0  0  0
   -7.7640   21.2140  -32.4190 C   0  0  0  0  0  0  0  0  0  0  0  0
   -8.5740   22.2200  -31.8660 C   0  0  0  0  0  0  0  0  0  0  0  0
   -8.0000   23.3460  -31.2730 C   0  0  0  0  0  0  0  0  0  0  0  0
   -6.6110   23.4840  -31.2200 C   0  0  0  0  0  0  0  0  0  0  0  0
   -5.7810   22.4890  -31.7630 C   0  0  0  0  0  0  0  0  0  0  0  0
   -4.3790   22.5930  -31.7360 C   0  0  0  0  0  0  0  0  0  0  0  0
   -3.8230   23.5970  -31.2080 O   0  0  0  0  0  0  0  0  0  0  0  0
   -3.6020   21.5720  -32.3080 C   0  0  0  0  0  0  0  0  0  0  0  0
   -2.1950   21.6150  -32.3210 C   0  0  0  0  0  0  0  0  0  0  0  0
   -1.4660   20.5760  -32.9060 C   0  0  0  0  0  0  0  0  0  0  0  0
   -2.1280   19.4880  -33.4810 C   0  0  0  0  0  0  0  0  0  0  0  0
   -3.5250   19.4330  -33.4740 C   0  0  0  0  0  0  0  0  0  0  0  0
   -4.2660   20.4670  -32.8910 C   0  0  0  0  0  0  0  0  0  0  0  0
   -5.5910   20.4010  -32.8910 O   0  0  0  0  0  0  0  0  0  0  0  0
   -6.3640   21.3470  -32.3630 C   0  0  0  0  0  0  0  0  0  0  0  0
   -4.7511   15.0041  -31.6512 H   0  0  0  0  0  0  0  0  0  0  0  0
   -5.8170   15.3741  -33.0489 H   0  0  0  0  0  0  0  0  0  0  0  0
   -4.1097   15.9324  -33.0489 H   0  0  0  0  0  0  0  0  0  0  0  0
   -5.7940   16.8209  -30.7389 H   0  0  0  0  0  0  0  0  0  0  0  0
   -4.5330   17.7086  -31.7543 H   0  0  0  0  0  0  0  0  0  0  0  0
   -6.0740   18.7940  -32.5960 H   0  0  0  0  0  0  0  0  0  0  0  0
   -6.8496   16.2580  -33.8009 H   0  0  0  0  0  0  0  0  0  0  0  0
   -7.8458   17.7576  -34.0524 H   0  0  0  0  0  0  0  0  0  0  0  0
   -4.9874   18.2879  -34.3933 H   0  0  0  0  0  0  0  0  0  0  0  0
   -5.5601   16.9984  -35.5051 H   0  0  0  0  0  0  0  0  0  0  0  0
   -6.3621   18.6057  -35.5051 H   0  0  0  0  0  0  0  0  0  0  0  0
   -8.0783   17.1696  -31.2397 H   0  0  0  0  0  0  0  0  0  0  0  0
   -7.3153   18.7930  -30.7953 H   0  0  0  0  0  0  0  0  0  0  0  0
   -9.3577   18.2159  -32.9576 H   0  0  0  0  0  0  0  0  0  0  0  0
   -9.5065   19.2663  -31.4873 H   0  0  0  0  0  0  0  0  0  0  0  0
   -8.3620   19.9950  -34.0770 H   0  0  0  0  0  0  0  0  0  0  0  0
   -9.6689   22.1197  -31.9005 H   0  0  0  0  0  0  0  0  0  0  0  0
   -8.6446   24.1282  -30.8455 H   0  0  0  0  0  0  0  0  0  0  0  0
   -6.1658   24.3743  -30.7518 H   0  0  0  0  0  0  0  0  0  0  0  0
   -1.6680   22.4685  -31.8696 H   0  0  0  0  0  0  0  0  0  0  0  0
   -0.3667   20.6148  -32.9138 H   0  0  0  0  0  0  0  0  0  0  0  0
   -1.5489   18.6732  -33.9400 H   0  0  0  0  0  0  0  0  0  0  0  0
   -4.0428   18.5751  -33.9278 H   0  0  0  0  0  0  0  0  0  0  0  0
  1  2  1  0
  2  3  1  0
  3  4  1  0
  4  5  1  0
  3  6  1  0
  6  7  1  0
  7  8  1  0
  8  9  1  0
  9 10  2  0
 10 11  1  0
 11 12  2  0
 12 13  1  0
 13 14  1  0
 14 15  2  0
 14 16  1  0
 16 17  2  0
 17 18  1  0
 18 19  2  0
 19 20  1  0
 20 21  2  0
 21 22  1  0
 22 23  1  0
 23  9  1  0
 23 13  2  0
 21 16  1  0
  1 24  1  0
  1 25  1  0
  1 26  1  0
  2 27  1  0
  2 28  1  0
  3 29  1  0
  4 30  1  0
  4 31  1  0
  5 32  1  0
  5 33  1  0
  5 34  1  0
  6 35  1  0
  6 36  1  0
  7 37  1  0
  7 38  1  0
  8 39  1  0
 10 40  1  0
 11 41  1  0
 12 42  1  0
 17 43  1  0
 18 44  1  0
 19 45  1  0
 20 46  1  0
M  CHG  1   3   1
M  END
>  <UniqueID>  (9) 
9

>  <SMILES>  (9) 
CC[NH+](CC)CCNc1cccc2c(=O)c3ccccc3oc12

>  <Energy>  (9) 
64.71501597046812

>  <Genealogy>  (9) 
CC[NH+](CC)CCNc1cccc2c(=O)c3ccccc3oc12 (protonated)
CC[NH+](CC)CCNc1cccc2c(=O)c3ccccc3oc12 (3D coordinates assigned)
CC[NH+](CC)CCNc1cccc2c(=O)c3ccccc3oc12 (optimized conformer: 64.71501597046812 kcal/mol)

>  <smiles>  (9) 
CCN(CC)CCNc1cccc2c(=O)c3ccccc3oc12

>  <score_type>  (9) 
oracle

>  <origin>  (9) 
adg

>  <m_score__min__energy>  (9) 
-7.5099999999999998

>  <m_primary>  (9) 
energy

$$$$
9:0
     RDKit          3D

 36 38  0  0  0  0  0  0  0  0999 V2000
   -2.0270   21.5270  -31.8130 C   0  0  0  0  0  0  0  0  0  0  0  0
   -2.7990   21.4930  -33.1270 C   0  0  0  0  0  0  0  0  0  0  0  0
   -4.1480   21.8610  -32.9130 O   0  0  0  0  0  0  0  0  0  0  0  0
   -4.5730   21.4640  -31.6250 C   0  0  0  0  0  0  0  0  0  0  0  0
   -6.0020   21.7510  -31.4850 N   0  0  0  0  0  0  0  0  0  0  0  0
   -6.5800   22.8140  -30.8560 C   0  0  0  0  0  0  0  0  0  0  0  0
   -5.8050   23.9090  -30.1550 C   0  0  1  0  0  0  0  0  0  0  0  0
   -4.7070   23.3990  -29.2620 C   0  0  0  0  0  0  0  0  0  0  0  0
   -3.6940   24.5270  -29.3150 C   0  0  0  0  0  0  0  0  0  0  0  0
   -3.8970   25.2930  -30.4830 O   0  0  0  0  0  0  0  0  0  0  0  0
   -5.0490   24.7950  -31.1270 C   0  0  0  0  0  0  0  0  0  0  0  0
   -7.9370   22.7330  -30.8080 N   0  0  0  0  0  0  0  0  0  0  0  0
   -8.2000   21.5770  -31.4440 C   0  0  0  0  0  0  0  0  0  0  0  0
   -9.4470   20.9990  -31.6640 C   0  0  0  0  0  0  0  0  0  0  0  0
   -9.4870   19.7570  -32.3220 C   0  0  0  0  0  0  0  0  0  0  0  0
   -8.2910   19.1270  -32.7330 C   0  0  0  0  0  0  0  0  0  0  0  0
   -7.0440   19.7350  -32.4910 C   0  0  0  0  0  0  0  0  0  0  0  0
   -7.0410   20.9750  -31.8440 C   0  0  0  0  0  0  0  0  0  0  0  0
   -2.7344   21.4958  -30.9712 H   0  0  0  0  0  0  0  0  0  0  0  0
   -1.3552   20.6576  -31.7598 H   0  0  0  0  0  0  0  0  0  0  0  0
   -1.4343   22.4521  -31.7598 H   0  0  0  0  0  0  0  0  0  0  0  0
   -2.3390   22.1966  -33.8365 H   0  0  0  0  0  0  0  0  0  0  0  0
   -2.7668   20.4719  -33.5348 H   0  0  0  0  0  0  0  0  0  0  0  0
   -4.3990   20.3856  -31.4953 H   0  0  0  0  0  0  0  0  0  0  0  0
   -4.0065   22.0156  -30.8603 H   0  0  0  0  0  0  0  0  0  0  0  0
   -6.5920   24.4347  -29.5943 H   0  0  0  0  0  0  0  0  0  0  0  0
   -5.0705   23.2384  -28.2363 H   0  0  0  0  0  0  0  0  0  0  0  0
   -4.2996   22.4271  -29.5774 H   0  0  0  0  0  0  0  0  0  0  0  0
   -3.8154   25.1695  -28.4305 H   0  0  0  0  0  0  0  0  0  0  0  0
   -2.6783   24.1048  -29.3277 H   0  0  0  0  0  0  0  0  0  0  0  0
   -5.6897   25.6328  -31.4394 H   0  0  0  0  0  0  0  0  0  0  0  0
   -4.7602   24.2150  -32.0160 H   0  0  0  0  0  0  0  0  0  0  0  0
  -10.3705   21.4973  -31.3341 H   0  0  0  0  0  0  0  0  0  0  0  0
  -10.4552   19.2730  -32.5179 H   0  0  0  0  0  0  0  0  0  0  0  0
   -8.3342   18.1547  -33.2456 H   0  0  0  0  0  0  0  0  0  0  0  0
   -6.1054   19.2517  -32.7999 H   0  0  0  0  0  0  0  0  0  0  0  0
  1  2  1  0
  2  3  1  0
  3  4  1  0
  4  5  1  0
  5  6  1  0
  6  7  1  0
  7  8  1  0
  8  9  1  0
  9 10  1  0
 10 11  1  0
  6 12  2  0
 12 13  1  0
 13 14  2  0
 14 15  1  0
 15 16  2  0
 16 17  1  0
 17 18  2  0
 18  5  1  0
 11  7  1  0
 18 13  1  0
  1 19  1  0
  1 20  1  0
  1 21  1  0
  2 22  1  0
  2 23  1  0
  4 24  1  0
  4 25  1  0
  7 26  1  1
  8 27  1  0
  8 28  1  0
  9 29  1  0
  9 30  1  0
 11 31  1  0
 11 32  1  0
 14 33  1  0
 15 34  1  0
 16 35  1  0
 17 36  1  0
M  END
>  <UniqueID>  (10) 
10

>  <SMILES>  (10) 
CCOCn1c([C@H]2CCOC2)nc2ccccc21

>  <Energy>  (10) 
74.21693314804484

>  <Genealogy>  (10) 
CCOCn1c([C@H]2CCOC2)nc2ccccc21 (chirality)
CCOCn1c([C@H]2CCOC2)nc2ccccc21 (3D coordinates assigned)
CCOCn1c([C@H]2CCOC2)nc2ccccc21 (nonaromatic ring conformer: 74.21693314804484 kcal/mol)

>  <smiles>  (10) 
CCOCn1c(C2CCOC2)nc2ccccc21

>  <score_type>  (10) 
oracle

>  <origin>  (10) 
adg

>  <m_score__min__energy>  (10) 
-7.0899999999999999

>  <m_primary>  (10) 
energy

$$$$
10:0
     RDKit          3D

 58 60  0  0  0  0  0  0  0  0999 V2000
   -4.3170   17.3380  -35.0260 C   0  0  0  0  0  0  0  0  0  0  0  0
   -4.9880   17.1530  -33.7850 O   0  0  0  0  0  0  0  0  0  0  0  0
   -6.0530   17.9480  -33.3320 C   0  0  0  0  0  0  0  0  0  0  0  0
   -7.0160   17.4710  -32.4220 C   0  0  0  0  0  0  0  0  0  0  0  0
   -8.0580   18.3050  -31.9980 C   0  0  0  0  0  0  0  0  0  0  0  0
   -8.1550   19.6210  -32.4780 C   0  0  0  0  0  0  0  0  0  0  0  0
   -9.2680   20.5250  -32.0010 C   0  0  0  0  0  0  0  0  0  0  0  0
   -8.7750   21.5290  -30.9440 C   0  0  0  0  0  0  0  0  0  0  0  0
   -8.2720   22.8150  -31.5520 C   0  0  0  0  0  0  0  0  0  0  0  0
   -9.0190   23.4550  -32.3440 O   0  0  0  0  0  0  0  0  0  0  0  0
   -6.9500   23.3810  -31.1920 C   0  0  0  0  0  0  0  0  0  0  0  0
   -6.8760   24.5390  -30.4020 C   0  0  0  0  0  0  0  0  0  0  0  0
   -5.6400   25.0700  -30.0320 C   0  0  0  0  0  0  0  0  0  0  0  0
   -4.4460   24.4470  -30.4390 C   0  0  0  0  0  0  0  0  0  0  0  0
   -3.1780   24.9320  -30.0730 O   0  0  0  0  0  0  0  0  0  0  0  0
   -2.4740   24.6120  -28.8710 C   0  0  0  0  0  0  0  0  0  0  0  0
   -3.4130   23.9870  -27.8310 C   0  0  0  0  0  0  0  0  0  0  0  0
   -2.8910   22.6890  -27.3540 N   0  0  0  0  0  0  0  0  0  0  0  0
   -1.4150   22.6570  -27.3650 C   0  0  0  0  0  0  0  0  0  0  0  0
   -0.9090   21.2970  -26.8360 C   0  0  0  0  0  0  0  0  0  0  0  0
   -1.9580   20.3600  -26.6690 O   0  0  0  0  0  0  0  0  0  0  0  0
   -2.7000   20.2580  -27.8660 C   0  0  0  0  0  0  0  0  0  0  0  0
   -3.4220   21.5840  -28.1800 C   0  0  0  0  0  0  0  0  0  0  0  0
   -4.5060   23.2850  -31.2260 C   0  0  0  0  0  0  0  0  0  0  0  0
   -3.2980   22.6820  -31.6130 O   0  0  0  0  0  0  0  0  0  0  0  0
   -3.2010   21.4910  -32.3900 C   0  0  0  0  0  0  0  0  0  0  0  0
   -5.7580   22.7570  -31.6000 C   0  0  0  0  0  0  0  0  0  0  0  0
   -7.1920   20.0950  -33.3800 C   0  0  0  0  0  0  0  0  0  0  0  0
   -6.1530   19.2620  -33.8060 C   0  0  0  0  0  0  0  0  0  0  0  0
   -3.2721   17.6261  -34.8385 H   0  0  0  0  0  0  0  0  0  0  0  0
   -4.3414   16.3996  -35.5995 H   0  0  0  0  0  0  0  0  0  0  0  0
   -4.8188   18.1313  -35.5995 H   0  0  0  0  0  0  0  0  0  0  0  0
   -6.9496   16.4404  -32.0432 H   0  0  0  0  0  0  0  0  0  0  0  0
   -8.8050   17.9269  -31.2846 H   0  0  0  0  0  0  0  0  0  0  0  0
   -9.6683   21.0814  -32.8613 H   0  0  0  0  0  0  0  0  0  0  0  0
  -10.0449   19.8972  -31.5403 H   0  0  0  0  0  0  0  0  0  0  0  0
   -9.6084   21.7630  -30.2653 H   0  0  0  0  0  0  0  0  0  0  0  0
   -7.9339   21.0628  -30.4099 H   0  0  0  0  0  0  0  0  0  0  0  0
   -7.8017   25.0327  -30.0714 H   0  0  0  0  0  0  0  0  0  0  0  0
   -5.5988   25.9818  -29.4180 H   0  0  0  0  0  0  0  0  0  0  0  0
   -1.6704   23.8981  -29.1045 H   0  0  0  0  0  0  0  0  0  0  0  0
   -2.0571   25.5399  -28.4525 H   0  0  0  0  0  0  0  0  0  0  0  0
   -3.5084   24.6720  -26.9756 H   0  0  0  0  0  0  0  0  0  0  0  0
   -4.3925   23.8176  -28.3021 H   0  0  0  0  0  0  0  0  0  0  0  0
   -1.0557   22.8034  -28.3943 H   0  0  0  0  0  0  0  0  0  0  0  0
   -1.0329   23.4597  -26.7172 H   0  0  0  0  0  0  0  0  0  0  0  0
   -0.1804   20.8882  -27.5516 H   0  0  0  0  0  0  0  0  0  0  0  0
   -0.4519   21.4689  -25.8504 H   0  0  0  0  0  0  0  0  0  0  0  0
   -2.0172   20.0149  -28.6935 H   0  0  0  0  0  0  0  0  0  0  0  0
   -3.4545   19.4667  -27.7457 H   0  0  0  0  0  0  0  0  0  0  0  0
   -3.2775   21.8286  -29.2427 H   0  0  0  0  0  0  0  0  0  0  0  0
   -4.4913   21.4613  -27.9528 H   0  0  0  0  0  0  0  0  0  0  0  0
   -3.1302   20.6211  -31.7204 H   0  0  0  0  0  0  0  0  0  0  0  0
   -4.0942   21.3935  -33.0246 H   0  0  0  0  0  0  0  0  0  0  0  0
   -2.3038   21.5393  -33.0246 H   0  0  0  0  0  0  0  0  0  0  0  0
   -5.8031   21.8476  -32.2173 H   0  0  0  0  0  0  0  0  0  0  0  0
   -7.2542   21.1274  -33.7544 H   0  0  0  0  0  0  0  0  0  0  0  0
   -5.4074   19.6422  -34.5199 H   0  0  0  0  0  0  0  0  0  0  0  0
  1  2  1  0
  2  3  1  0
  3  4  2  0
  4  5  1  0
  5  6  2  0
  6  7  1  0
  7  8  1  0
  8  9  1  0
  9 10  2  0
  9 11  1  0
 11 12  2  0
 12 13  1  0
 13 14  2  0
 14 15  1  0
 15 16  1  0
 16 17  1  0
 17 18  1  0
 18 19  1  0
 19 20  1  0
 20 21  1  0
 21 22  1  0
 22 23  1  0
 14 24  1  0
 24 25  1  0
 25 26  1  0
 24 27  2  0
  6 28  1  0
 28 29  2  0
 29  3  1  0
 27 11  1  0
 23 18  1  0
  1 30  1  0
  1 31  1  0
  1 32  1  0
  4 33  1  0
  5 34  1  0
  7 35  1  0
  7 36  1  0
  8 37  1  0
  8 38  1  0
 12 39  1  0
 13 40  1  0
 16 41  1  0
 16 42  1  0
 17 43  1  0
 17 44  1  0
 19 45  1  0
 19 46  1  0
 20 47  1  0
 20 48  1  0
 22 49  1  0
 22 50  1  0
 23 51  1  0
 23 52  1  0
 26 53  1  0
 26 54  1  0
 26 55  1  0
 27 56  1  0
 28 57  1  0
 29 58  1  0
M  END
>  <UniqueID>  (11) 
11

>  <SMILES>  (11) 
COc1ccc(CCC(=O)c2ccc(OCCN3CCOCC3)c(OC)c2)cc1

>  <Energy>  (11) 
66.03655568853235

>  <Genealogy>  (11) 
COc1ccc(CCC(=O)c2ccc(OCCN3CCOCC3)c(OC)c2)cc1 (3D coordinates assigned)
COc1ccc(CCC(=O)c2ccc(OCCN3CCOCC3)c(OC)c2)cc1 (nonaromatic ring conformer: 66.03655568853235 kcal/mol)

>  <smiles>  (11) 
COc1ccc(CCC(=O)c2ccc(OCCN3CCOCC3)c(OC)c2)cc1

>  <score_type>  (11) 
oracle

>  <origin>  (11) 
adg

>  <m_score__min__energy>  (11) 
-9.5500000000000007

>  <m_primary>  (11) 
energy

$$$$
11:0
     RDKit          3D

 64 66  0  0  0  0  0  0  0  0999 V2000
   -9.4560   20.2360  -32.8800 H   0  0  0  0  0  0  0  0  0  0  0  0
   -9.7620   21.0690  -32.3910 O   0  0  0  0  0  0  0  0  0  0  0  0
   -8.8620   21.8840  -31.7090 C   0  0  0  0  0  0  0  0  0  0  0  0
   -8.2920   23.0000  -32.3350 C   0  0  0  0  0  0  0  0  0  0  0  0
   -8.5613   23.2435  -33.3733 H   0  0  0  0  0  0  0  0  0  0  0  0
   -7.3820   23.8050  -31.6440 C   0  0  0  0  0  0  0  0  0  0  0  0
   -6.9427   24.6839  -32.1385 H   0  0  0  0  0  0  0  0  0  0  0  0
   -7.0260   23.4960  -30.3200 C   0  0  0  0  0  0  0  0  0  0  0  0
   -5.9830   24.3120  -29.6000 C   0  0  0  0  0  0  0  0  0  0  0  0
   -5.2651   23.6284  -29.1232 H   0  0  0  0  0  0  0  0  0  0  0  0
   -6.4973   24.9357  -28.8540 H   0  0  0  0  0  0  0  0  0  0  0  0
   -5.2210   25.2450  -30.5500 C   0  0  0  0  0  0  0  0  0  0  0  0
   -5.1811   26.2522  -30.1095 H   0  0  0  0  0  0  0  0  0  0  0  0
   -5.7471   25.2668  -31.5158 H   0  0  0  0  0  0  0  0  0  0  0  0
   -3.8550   24.7660  -30.7740 N   0  0  0  0  0  0  0  0  0  0  0  0
   -3.4910   23.5190  -30.7840 C   0  0  0  0  0  0  0  0  0  0  0  0
   -2.4590   23.0820  -30.0150 N   0  0  0  0  0  0  0  0  0  0  0  0
   -2.1140   21.7680  -30.0020 C   0  0  0  0  0  0  0  0  0  0  0  0
   -1.0220   21.3090  -29.1840 N   0  0  0  0  0  0  0  0  0  0  0  0
   -1.0000   19.9140  -28.7330 C   0  0  0  0  0  0  0  0  0  0  0  0
   -0.9995   19.8841  -27.6334 H   0  0  0  0  0  0  0  0  0  0  0  0
   -1.8900   19.3915  -29.1136 H   0  0  0  0  0  0  0  0  0  0  0  0
   -0.0940   19.4198  -29.1136 H   0  0  0  0  0  0  0  0  0  0  0  0
    0.0650   22.2260  -28.8080 C   0  0  0  0  0  0  0  0  0  0  0  0
    0.5453   22.6086  -29.7207 H   0  0  0  0  0  0  0  0  0  0  0  0
    0.7921   21.6755  -28.1929 H   0  0  0  0  0  0  0  0  0  0  0  0
   -0.4730   23.4070  -27.9910 C   0  0  0  0  0  0  0  0  0  0  0  0
    0.1301   23.5156  -27.0775 H   0  0  0  0  0  0  0  0  0  0  0  0
   -1.5250   23.2061  -27.7400 H   0  0  0  0  0  0  0  0  0  0  0  0
   -0.4090   24.6600  -28.7600 N   0  0  0  0  0  0  0  0  0  0  0  0
   -0.8650   24.4890  -29.6870 H   0  0  0  0  0  0  0  0  0  0  0  0
   -1.1590   25.7330  -28.1030 C   0  0  0  0  0  0  0  0  0  0  0  0
   -1.0802   25.6203  -27.0116 H   0  0  0  0  0  0  0  0  0  0  0  0
   -0.7439   26.7068  -28.4020 H   0  0  0  0  0  0  0  0  0  0  0  0
   -2.2161   25.6777  -28.4020 H   0  0  0  0  0  0  0  0  0  0  0  0
   -2.8120   20.8900  -30.7690 N   0  0  0  0  0  0  0  0  0  0  0  0
   -3.8360   21.3160  -31.5560 C   0  0  0  0  0  0  0  0  0  0  0  0
   -4.5690   20.3810  -32.3760 N   0  0  0  0  0  0  0  0  0  0  0  0
   -4.2190   18.9550  -32.3180 C   0  0  0  0  0  0  0  0  0  0  0  0
   -3.2098   18.8159  -32.7328 H   0  0  0  0  0  0  0  0  0  0  0  0
   -4.2544   18.6297  -31.2678 H   0  0  0  0  0  0  0  0  0  0  0  0
   -5.2120   18.1080  -33.1230 C   0  0  0  0  0  0  0  0  0  0  0  0
   -4.9325   18.1452  -34.1863 H   0  0  0  0  0  0  0  0  0  0  0  0
   -5.1723   17.0771  -32.7413 H   0  0  0  0  0  0  0  0  0  0  0  0
   -6.5970   18.6020  -32.9740 N   0  0  0  0  0  0  0  0  0  0  0  0
   -7.1290   18.5160  -31.5910 C   0  0  0  0  0  0  0  0  0  0  0  0
   -6.5775   17.7343  -31.0481 H   0  0  0  0  0  0  0  0  0  0  0  0
   -6.9994   19.5013  -31.1194 H   0  0  0  0  0  0  0  0  0  0  0  0
   -8.6260   18.1750  -31.5610 C   0  0  0  0  0  0  0  0  0  0  0  0
   -8.7484   17.0835  -31.5002 H   0  0  0  0  0  0  0  0  0  0  0  0
   -9.0848   18.6552  -30.6841 H   0  0  0  0  0  0  0  0  0  0  0  0
   -9.2560   18.6470  -32.7210 O   0  0  0  0  0  0  0  0  0  0  0  0
   -8.5880   18.5620  -33.4500 H   0  0  0  0  0  0  0  0  0  0  0  0
   -6.7480   19.9660  -33.5380 C   0  0  0  0  0  0  0  0  0  0  0  0
   -7.0051   19.8703  -34.6032 H   0  0  0  0  0  0  0  0  0  0  0  0
   -7.5324   20.4624  -32.9478 H   0  0  0  0  0  0  0  0  0  0  0  0
   -5.4860   20.8530  -33.4240 C   0  0  0  0  0  0  0  0  0  0  0  0
   -4.9572   20.8426  -34.3885 H   0  0  0  0  0  0  0  0  0  0  0  0
   -5.8104   21.8695  -33.1566 H   0  0  0  0  0  0  0  0  0  0  0  0
   -4.1680   22.6350  -31.5580 N   0  0  0  0  0  0  0  0  0  0  0  0
   -7.6040   22.3780  -29.6960 C   0  0  0  0  0  0  0  0  0  0  0  0
   -7.3316   22.1270  -28.6602 H   0  0  0  0  0  0  0  0  0  0  0  0
   -8.5240   21.5830  -30.3860 C   0  0  0  0  0  0  0  0  0  0  0  0
   -8.9836   20.7175  -29.8863 H   0  0  0  0  0  0  0  0  0  0  0  0
  1  2  1  0
  2  3  1  0
  3  4  2  0
  4  5  1  0
  4  6  1  0
  6  7  1  0
  6  8  2  0
  8  9  1  0
  9 10  1  0
  9 11  1  0
  9 12  1  0
 12 13  1  0
 12 14  1  0
 12 15  1  0
 15 16  2  0
 16 17  1  0
 17 18  2  0
 18 19  1  0
 19 20  1  0
 20 21  1  0
 20 22  1  0
 20 23  1  0
 19 24  1  0
 24 25  1  0
 24 26  1  0
 24 27  1  0
 27 28  1  0
 27 29  1  0
 27 30  1  0
 30 31  1  0
 30 32  1  0
 32 33  1  0
 32 34  1  0
 32 35  1  0
 18 36  1  0
 36 37  1  0
 37 38  1  0
 38 39  1  0
 39 40  1  0
 39 41  1  0
 39 42  1  0
 42 43  1  0
 42 44  1  0
 42 45  1  0
 45 46  1  0
 46 47  1  0
 46 48  1  0
 46 49  1  0
 49 50  1  0
 49 51  1  0
 49 52  1  0
 52 53  1  0
 45 54  1  0
 54 55  1  0
 54 56  1  0
 54 57  1  0
 57 58  1  0
 57 59  1  0
 37 60  2  0
  8 61  1  0
 61 62  1  0
 61 63  2  0
 63 64  1  0
 63  3  1  0
 60 16  1  0
 57 38  1  0
M  CHG  1  36  -1
M  END
>  <UniqueID>  (12) 
12

>  <SMILES>  (12) 
CNCCN(C)c1n/c(=N\CCc2ccc(O)cc2)nc(N2CCN(CCO)CC2)[n-]1

>  <Energy>  (12) 
62.76890850467124

>  <Genealogy>  (12) 
CNCCN(C)c1nc(=NCCc2ccc(O)cc2)nc(N2CCN(CCO)CC2)[n-]1 (protonated)
CNCCN(C)c1n/c(=N\CCc2ccc(O)cc2)nc(N2CCN(CCO)CC2)[n-]1 (cis-trans isomerization)
CNCCN(C)c1n/c(=N\CCc2ccc(O)cc2)nc(N2CCN(CCO)CC2)[n-]1 (3D coordinates assigned)
CNCCN(C)c1n/c(=N\CCc2ccc(O)cc2)nc(N2CCN(CCO)CC2)[n-]1 (nonaromatic ring conformer: 62.76890850467124 kcal/mol)

>  <smiles>  (12) 
CNCCN(C)c1nc(=NCCc2ccc(O)cc2)nc(N2CCN(CCO)CC2)[nH]1

>  <score_type>  (12) 
oracle

>  <origin>  (12) 
adg

>  <m_score__min__energy>  (12) 
-8.8699999999999992

>  <m_primary>  (12) 
energy

$$$$
12:0
     RDKit          3D

 43 46  0  0  0  0  0  0  0  0999 V2000
   -4.5740   13.1080  -32.9540 C   0  0  0  0  0  0  0  0  0  0  0  0
   -4.7920   14.1300  -33.9190 O   0  0  0  0  0  0  0  0  0  0  0  0
   -5.3390   15.3740  -33.5910 C   0  0  0  0  0  0  0  0  0  0  0  0
   -5.3350   15.7960  -32.2590 C   0  0  0  0  0  0  0  0  0  0  0  0
   -5.8790   17.0400  -31.9310 C   0  0  0  0  0  0  0  0  0  0  0  0
   -6.4060   17.8600  -32.9360 C   0  0  0  0  0  0  0  0  0  0  0  0
   -7.0070   19.1610  -32.6070 C   0  0  0  0  0  0  0  0  0  0  0  0
   -8.3530   19.2350  -32.3890 N   0  0  0  0  0  0  0  0  0  0  0  0
   -8.9610   20.4090  -32.0380 C   0  0  0  0  0  0  0  0  0  0  0  0
   -8.2300   21.5510  -31.9000 N   0  0  0  0  0  0  0  0  0  0  0  0
   -6.8950   21.5030  -32.1330 C   0  0  0  0  0  0  0  0  0  0  0  0
   -6.2620   20.3410  -32.4830 C   0  0  0  0  0  0  0  0  0  0  0  0
   -4.9230   20.6620  -32.6470 C   0  0  0  0  0  0  0  0  0  0  0  0
   -3.7840   19.7680  -33.0250 C   0  0  0  0  0  0  0  0  0  0  0  0
   -4.8160   22.0160  -32.3430 C   0  0  0  0  0  0  0  0  0  0  0  0
   -6.0360   22.5420  -32.0580 N   0  0  0  0  0  0  0  0  0  0  0  0
   -6.3420   23.9050  -31.5860 C   0  0  0  0  0  0  0  0  0  0  0  0
   -7.1830   23.9300  -30.3130 C   0  0  0  0  0  0  0  0  0  0  0  0
   -6.9080   25.2880  -29.6890 C   0  0  0  0  0  0  0  0  0  0  0  0
   -5.4960   25.6720  -30.1220 C   0  0  0  0  0  0  0  0  0  0  0  0
   -5.0820   24.6870  -31.2140 C   0  0  0  0  0  0  0  0  0  0  0  0
   -6.4100   17.3930  -34.2570 C   0  0  0  0  0  0  0  0  0  0  0  0
   -5.8770   16.1780  -34.5520 N   0  0  0  0  0  0  0  0  0  0  0  0
   -4.6646   13.5327  -31.9433 H   0  0  0  0  0  0  0  0  0  0  0  0
   -5.3228   12.3131  -33.0862 H   0  0  0  0  0  0  0  0  0  0  0  0
   -3.5660   12.6879  -33.0862 H   0  0  0  0  0  0  0  0  0  0  0  0
   -4.9070   15.1538  -31.4751 H   0  0  0  0  0  0  0  0  0  0  0  0
   -5.8933   17.3753  -30.8834 H   0  0  0  0  0  0  0  0  0  0  0  0
  -10.0472   20.4315  -31.8660 H   0  0  0  0  0  0  0  0  0  0  0  0
   -3.2989   19.3872  -32.1142 H   0  0  0  0  0  0  0  0  0  0  0  0
   -4.1625   18.9233  -33.6194 H   0  0  0  0  0  0  0  0  0  0  0  0
   -3.0534   20.3363  -33.6194 H   0  0  0  0  0  0  0  0  0  0  0  0
   -3.8732   22.5825  -32.3346 H   0  0  0  0  0  0  0  0  0  0  0  0
   -6.8809   24.3497  -32.4356 H   0  0  0  0  0  0  0  0  0  0  0  0
   -8.2512   23.8235  -30.5528 H   0  0  0  0  0  0  0  0  0  0  0  0
   -6.9298   23.1031  -29.6332 H   0  0  0  0  0  0  0  0  0  0  0  0
   -7.6343   26.0298  -30.0527 H   0  0  0  0  0  0  0  0  0  0  0  0
   -6.9979   25.2534  -28.5932 H   0  0  0  0  0  0  0  0  0  0  0  0
   -5.4876   26.6989  -30.5162 H   0  0  0  0  0  0  0  0  0  0  0  0
   -4.7994   25.6319  -29.2716 H   0  0  0  0  0  0  0  0  0  0  0  0
   -4.6976   25.2293  -32.0904 H   0  0  0  0  0  0  0  0  0  0  0  0
   -4.2831   24.0160  -30.8655 H   0  0  0  0  0  0  0  0  0  0  0  0
   -6.8451   18.0106  -35.0565 H   0  0  0  0  0  0  0  0  0  0  0  0
  1  2  1  0
  2  3  1  0
  3  4  2  0
  4  5  1  0
  5  6  2  0
  6  7  1  0
  7  8  2  0
  8  9  1  0
  9 10  2  0
 10 11  1  0
 11 12  2  0
 12 13  1  0
 13 14  1  0
 13 15  2  0
 15 16  1  0
 16 17  1  0
 17 18  1  0
 18 19  1  0
 19 20  1  0
 20 21  1  0
  6 22  1  0
 22 23  2  0
 23  3  1  0
 12  7  1  0
 21 17  1  0
 16 11  1  0
  1 24  1  0
  1 25  1  0
  1 26  1  0
  4 27  1  0
  5 28  1  0
  9 29  1  0
 14 30  1  0
 14 31  1  0
 14 32  1  0
 15 33  1  0
 17 34  1  0
 18 35  1  0
 18 36  1  0
 19 37  1  0
 19 38  1  0
 20 39  1  0
 20 40  1  0
 21 41  1  0
 21 42  1  0
 22 43  1  0
M  END
>  <UniqueID>  (13) 
13

>  <SMILES>  (13) 
COc1ccc(-c2ncnc3c2c(C)cn3C2CCCC2)cn1

>  <Energy>  (13) 
90.08760983499431

>  <Genealogy>  (13) 
COc1ccc(-c2ncnc3c2c(C)cn3C2CCCC2)cn1 (3D coordinates assigned)
COc1ccc(-c2ncnc3c2c(C)cn3C2CCCC2)cn1 (nonaromatic ring conformer: 90.08760983499431 kcal/mol)

>  <smiles>  (13) 
COc1ccc(-c2ncnc3c2c(C)cn3C2CCCC2)cn1

>  <score_type>  (13) 
oracle

>  <origin>  (13) 
adg

>  <m_score__min__energy>  (13) 
-7.6500000000000004

>  <m_primary>  (13) 
energy

$$$$
13:0
     RDKit          3D

 50 53  0  0  0  0  0  0  0  0999 V2000
    1.9120   23.8990  -27.5510 C   0  0  0  0  0  0  0  0  0  0  0  0
    1.0000   24.9370  -27.8970 O   0  0  0  0  0  0  0  0  0  0  0  0
   -0.3780   24.9110  -27.6310 C   0  0  0  0  0  0  0  0  0  0  0  0
   -1.2970   24.3350  -28.5260 C   0  0  0  0  0  0  0  0  0  0  0  0
   -2.6700   24.2890  -28.2300 C   0  0  0  0  0  0  0  0  0  0  0  0
   -3.5780   23.6320  -29.2000 C   0  0  0  0  0  0  0  0  0  0  0  0
   -3.2000   22.6960  -30.1580 C   0  0  0  0  0  0  0  0  0  0  0  0
   -4.2740   22.1790  -30.8930 C   0  0  0  0  0  0  0  0  0  0  0  0
   -5.5120   22.6930  -30.5060 C   0  0  0  0  0  0  0  0  0  0  0  0
   -6.8400   22.3590  -31.0650 C   0  0  0  0  0  0  0  0  0  0  0  0
   -7.2690   21.0300  -31.2240 C   0  0  0  0  0  0  0  0  0  0  0  0
   -8.5340   20.7740  -31.7570 C   0  0  0  0  0  0  0  0  0  0  0  0
   -9.3600   21.8350  -32.1280 C   0  0  0  0  0  0  0  0  0  0  0  0
   -8.9060   23.1430  -31.9590 C   0  0  0  0  0  0  0  0  0  0  0  0
   -7.6720   23.3740  -31.4380 N   0  0  0  0  0  0  0  0  0  0  0  0
   -5.2540   23.7850  -29.2510 S   0  0  0  0  0  0  0  0  0  0  0  0
   -3.1370   24.8670  -27.0250 C   0  0  0  0  0  0  0  0  0  0  0  0
   -4.6000   24.9070  -26.6690 C   0  0  0  0  0  0  0  0  0  0  0  0
   -2.2140   25.4280  -26.1290 C   0  0  0  0  0  0  0  0  0  0  0  0
   -0.8460   25.4600  -26.4250 C   0  0  0  0  0  0  0  0  0  0  0  0
    0.0670   26.0610  -25.4900 N   0  0  0  0  0  0  0  0  0  0  0  0
    0.0090   27.5020  -25.2180 C   0  0  0  0  0  0  0  0  0  0  0  0
    0.2360   27.8000  -23.7200 C   0  0  0  0  0  0  0  0  0  0  0  0
    1.0310   26.7700  -23.0140 N   0  0  0  0  0  0  0  0  0  0  0  0
    1.9560   26.0550  -23.9030 C   0  0  0  0  0  0  0  0  0  0  0  0
    1.1660   25.2570  -24.9450 C   0  0  0  0  0  0  0  0  0  0  0  0
    1.9805   23.8211  -26.4559 H   0  0  0  0  0  0  0  0  0  0  0  0
    1.5552   22.9444  -27.9649 H   0  0  0  0  0  0  0  0  0  0  0  0
    2.9046   24.1300  -27.9649 H   0  0  0  0  0  0  0  0  0  0  0  0
   -0.9346   23.9128  -29.4749 H   0  0  0  0  0  0  0  0  0  0  0  0
   -2.1560   22.3910  -30.3224 H   0  0  0  0  0  0  0  0  0  0  0  0
   -4.1532   21.4390  -31.6979 H   0  0  0  0  0  0  0  0  0  0  0  0
   -6.6128   20.1974  -30.9306 H   0  0  0  0  0  0  0  0  0  0  0  0
   -8.8786   19.7371  -31.8841 H   0  0  0  0  0  0  0  0  0  0  0  0
  -10.3578   21.6424  -32.5490 H   0  0  0  0  0  0  0  0  0  0  0  0
   -9.5474   23.9887  -32.2477 H   0  0  0  0  0  0  0  0  0  0  0  0
   -4.7111   24.9100  -25.5746 H   0  0  0  0  0  0  0  0  0  0  0  0
   -5.0541   25.8179  -27.0862 H   0  0  0  0  0  0  0  0  0  0  0  0
   -5.1032   24.0223  -27.0862 H   0  0  0  0  0  0  0  0  0  0  0  0
   -2.5714   25.8497  -25.1780 H   0  0  0  0  0  0  0  0  0  0  0  0
    0.7879   28.0093  -25.8063 H   0  0  0  0  0  0  0  0  0  0  0  0
   -0.9900   27.8680  -25.4972 H   0  0  0  0  0  0  0  0  0  0  0  0
    0.7628   28.7619  -23.6348 H   0  0  0  0  0  0  0  0  0  0  0  0
   -0.7562   27.8164  -23.2453 H   0  0  0  0  0  0  0  0  0  0  0  0
    1.5850   27.2290  -22.2530 H   0  0  0  0  0  0  0  0  0  0  0  0
    0.3850   26.0800  -22.5640 H   0  0  0  0  0  0  0  0  0  0  0  0
    2.6046   26.7813  -24.4148 H   0  0  0  0  0  0  0  0  0  0  0  0
    2.5697   25.3638  -23.3067 H   0  0  0  0  0  0  0  0  0  0  0  0
    1.8404   24.9652  -25.7636 H   0  0  0  0  0  0  0  0  0  0  0  0
    0.7443   24.3637  -24.4610 H   0  0  0  0  0  0  0  0  0  0  0  0
  1  2  1  0
  2  3  1  0
  3  4  2  0
  4  5  1  0
  5  6  1  0
  6  7  2  0
  7  8  1  0
  8  9  2  0
  9 10  1  0
 10 11  2  0
 11 12  1  0
 12 13  2  0
 13 14  1  0
 14 15  2  0
  9 16  1  0
  5 17  2  0
 17 18  1  0
 17 19  1  0
 19 20  2  0
 20 21  1  0
 21 22  1  0
 22 23  1  0
 23 24  1  0
 24 25  1  0
 25 26  1  0
 20  3  1  0
 26 21  1  0
 16  6  1  0
 15 10  1  0
  1 27  1  0
  1 28  1  0
  1 29  1  0
  4 30  1  0
  7 31  1  0
  8 32  1  0
 11 33  1  0
 12 34  1  0
 13 35  1  0
 14 36  1  0
 18 37  1  0
 18 38  1  0
 18 39  1  0
 19 40  1  0
 22 41  1  0
 22 42  1  0
 23 43  1  0
 23 44  1  0
 24 45  1  0
 24 46  1  0
 25 47  1  0
 25 48  1  0
 26 49  1  0
 26 50  1  0
M  CHG  1  24   1
M  END
>  <UniqueID>  (14) 
14

>  <SMILES>  (14) 
COc1cc(-c2ccc(-c3ccccn3)s2)c(C)cc1N1CC[NH2+]CC1

>  <Energy>  (14) 
95.29057983160452

>  <Genealogy>  (14) 
COc1cc(-c2ccc(-c3ccccn3)s2)c(C)cc1N1CC[NH2+]CC1 (protonated)
COc1cc(-c2ccc(-c3ccccn3)s2)c(C)cc1N1CC[NH2+]CC1 (3D coordinates assigned)
COc1cc(-c2ccc(-c3ccccn3)s2)c(C)cc1N1CC[NH2+]CC1 (nonaromatic ring conformer: 95.29057983160452 kcal/mol)

>  <smiles>  (14) 
COc1cc(-c2ccc(-c3ccccn3)s2)c(C)cc1N1CCNCC1

>  <score_type>  (14) 
oracle

>  <origin>  (14) 
adg

>  <m_score__min__energy>  (14) 
-9.0199999999999996

>  <m_primary>  (14) 
energy

$$$$
14:0
     RDKit          3D

 21 21  0  0  0  0  0  0  0  0999 V2000
   -7.7584   26.2055  -29.0208 H   0  0  0  0  0  0  0  0  0  0  0  0
   -6.8570   25.6690  -29.3520 C   0  0  0  0  0  0  0  0  0  0  0  0
   -5.8690   25.0810  -29.7150 C   0  0  0  0  0  0  0  0  0  0  0  0
   -4.6660   24.3660  -30.1570 C   0  0  0  0  0  0  0  0  0  0  0  0
   -4.1600   23.6480  -29.0880 F   0  0  0  0  0  0  0  0  0  0  0  0
   -3.7140   25.2790  -30.5720 F   0  0  0  0  0  0  0  0  0  0  0  0
   -4.9960   23.4230  -31.2800 C   0  0  0  0  0  0  0  0  0  0  0  0
   -4.2625   22.6564  -31.5705 H   0  0  0  0  0  0  0  0  0  0  0  0
   -6.1630   23.4940  -31.9360 C   0  0  0  0  0  0  0  0  0  0  0  0
   -6.4150   24.4381  -32.4412 H   0  0  0  0  0  0  0  0  0  0  0  0
   -7.1350   22.3770  -32.0220 C   0  0  0  0  0  0  0  0  0  0  0  0
   -8.4520   22.5950  -31.5790 C   0  0  0  0  0  0  0  0  0  0  0  0
   -8.7353   23.5777  -31.1739 H   0  0  0  0  0  0  0  0  0  0  0  0
   -9.4040   21.5740  -31.6490 C   0  0  0  0  0  0  0  0  0  0  0  0
  -10.4286   21.7534  -31.2913 H   0  0  0  0  0  0  0  0  0  0  0  0
   -9.0570   20.3270  -32.1720 C   0  0  0  0  0  0  0  0  0  0  0  0
   -9.8068   19.5238  -32.2234 H   0  0  0  0  0  0  0  0  0  0  0  0
   -7.7570   20.1000  -32.6300 C   0  0  0  0  0  0  0  0  0  0  0  0
   -7.4854   19.1180  -33.0447 H   0  0  0  0  0  0  0  0  0  0  0  0
   -6.8000   21.1170  -32.5630 C   0  0  0  0  0  0  0  0  0  0  0  0
   -5.7806   20.9343  -32.9338 H   0  0  0  0  0  0  0  0  0  0  0  0
  1  2  1  0
  2  3  3  0
  3  4  1  0
  4  5  1  0
  4  6  1  0
  4  7  1  0
  7  8  1  0
  7  9  2  0
  9 10  1  0
  9 11  1  0
 11 12  2  0
 12 13  1  0
 12 14  1  0
 14 15  1  0
 14 16  2  0
 16 17  1  0
 16 18  1  0
 18 19  1  0
 18 20  2  0
 20 21  1  0
 20 11  1  0
M  END
>  <UniqueID>  (15) 
15

>  <SMILES>  (15) 
C#CC(F)(F)/C=C/c1ccccc1

>  <Energy>  (15) 
17.16182661949992

>  <Genealogy>  (15) 
C#CC(F)(F)/C=C/c1ccccc1 (cis-trans isomerization)
C#CC(F)(F)/C=C/c1ccccc1 (3D coordinates assigned)
C#CC(F)(F)/C=C/c1ccccc1 (optimized conformer: 17.16182661949992 kcal/mol)

>  <smiles>  (15) 
C#CC(F)(F)C=Cc1ccccc1

>  <score_type>  (15) 
oracle

>  <origin>  (15) 
adg

>  <m_score__min__energy>  (15) 
-5.3799999999999999

>  <m_primary>  (15) 
energy

$$$$
15:0
     RDKit          3D

 58 61  0  0  0  0  0  0  0  0999 V2000
   -6.0870   24.8270  -30.0370 C   0  0  0  0  0  0  0  0  0  0  0  0
   -6.8770   23.5260  -30.1590 C   0  0  0  0  0  0  0  0  0  0  0  0
   -7.0970   23.1550  -31.5250 O   0  0  0  0  0  0  0  0  0  0  0  0
   -7.2520   21.8440  -32.0140 C   0  0  0  0  0  0  0  0  0  0  0  0
   -8.5150   21.1910  -32.0450 C   0  0  0  0  0  0  0  0  0  0  0  0
   -9.7520   21.8000  -31.4470 C   0  0  0  0  0  0  0  0  0  0  0  0
   -8.6150   19.9100  -32.6060 C   0  0  0  0  0  0  0  0  0  0  0  0
   -7.4830   19.2450  -33.0590 C   0  0  0  0  0  0  0  0  0  0  0  0
   -6.2300   19.8430  -32.9580 C   0  0  0  0  0  0  0  0  0  0  0  0
   -6.0910   21.1530  -32.4500 C   0  0  0  0  0  0  0  0  0  0  0  0
   -4.7190   21.8200  -32.2960 C   0  0  2  0  0  0  0  0  0  0  0  0
   -3.6200   21.1510  -33.1020 C   0  0  0  0  0  0  0  0  0  0  0  0
   -2.3260   21.5520  -32.3970 C   0  0  0  0  0  0  0  0  0  0  0  0
   -2.6810   22.1490  -31.0940 N   0  0  0  0  0  0  0  0  0  0  0  0
   -1.8630   21.6490  -29.9640 C   0  0  0  0  0  0  0  0  0  0  0  0
   -1.8560   22.6440  -28.7790 C   0  0  2  0  0  0  0  0  0  0  0  0
   -3.2730   23.1510  -28.4350 C   0  0  0  0  0  0  0  0  0  0  0  0
   -3.2430   24.2070  -27.3650 C   0  0  0  0  0  0  0  0  0  0  0  0
   -4.2700   24.3930  -26.6570 O   0  0  0  0  0  0  0  0  0  0  0  0
   -2.0430   25.0520  -27.1780 C   0  0  0  0  0  0  0  0  0  0  0  0
   -1.9950   26.0420  -26.1850 C   0  0  0  0  0  0  0  0  0  0  0  0
   -0.8430   26.8150  -26.0250 C   0  0  0  0  0  0  0  0  0  0  0  0
    0.2580   26.5900  -26.8580 C   0  0  0  0  0  0  0  0  0  0  0  0
    1.4940   27.4200  -26.7190 C   0  0  0  0  0  0  0  0  0  0  0  0
    0.1910   25.6300  -27.8200 N   0  0  0  0  0  0  0  0  0  0  0  0
   -0.9120   24.8510  -27.9900 C   0  0  0  0  0  0  0  0  0  0  0  0
   -0.9330   23.8400  -29.1040 C   0  0  0  0  0  0  0  0  0  0  0  0
   -4.1050   21.8460  -30.9020 C   0  0  0  0  0  0  0  0  0  0  0  0
   -5.9403   25.0686  -28.9739 H   0  0  0  0  0  0  0  0  0  0  0  0
   -5.1081   24.7087  -30.5246 H   0  0  0  0  0  0  0  0  0  0  0  0
   -6.6435   25.6410  -30.5246 H   0  0  0  0  0  0  0  0  0  0  0  0
   -6.3163   22.7224  -29.6591 H   0  0  0  0  0  0  0  0  0  0  0  0
   -7.8588   23.6806  -29.6877 H   0  0  0  0  0  0  0  0  0  0  0  0
   -9.6836   21.7663  -30.3496 H   0  0  0  0  0  0  0  0  0  0  0  0
   -9.8422   22.8455  -31.7768 H   0  0  0  0  0  0  0  0  0  0  0  0
  -10.6356   21.2339  -31.7768 H   0  0  0  0  0  0  0  0  0  0  0  0
   -9.5998   19.4269  -32.6882 H   0  0  0  0  0  0  0  0  0  0  0  0
   -7.5769   18.2414  -33.4995 H   0  0  0  0  0  0  0  0  0  0  0  0
   -5.3362   19.2875  -33.2783 H   0  0  0  0  0  0  0  0  0  0  0  0
   -4.9925   22.8317  -32.6303 H   0  0  0  0  0  0  0  0  0  0  0  0
   -3.7435   20.0580  -33.0945 H   0  0  0  0  0  0  0  0  0  0  0  0
   -3.6318   21.4580  -34.1582 H   0  0  0  0  0  0  0  0  0  0  0  0
   -1.6955   20.6642  -32.2412 H   0  0  0  0  0  0  0  0  0  0  0  0
   -1.7666   22.2753  -33.0085 H   0  0  0  0  0  0  0  0  0  0  0  0
   -2.2771   20.6893  -29.6213 H   0  0  0  0  0  0  0  0  0  0  0  0
   -0.8281   21.5281  -30.3167 H   0  0  0  0  0  0  0  0  0  0  0  0
   -1.4757   22.1066  -27.8977 H   0  0  0  0  0  0  0  0  0  0  0  0
   -3.7293   23.5753  -29.3415 H   0  0  0  0  0  0  0  0  0  0  0  0
   -3.8593   22.2995  -28.0591 H   0  0  0  0  0  0  0  0  0  0  0  0
   -2.8647   26.2093  -25.5326 H   0  0  0  0  0  0  0  0  0  0  0  0
   -0.8017   27.5946  -25.2501 H   0  0  0  0  0  0  0  0  0  0  0  0
    1.7170   27.5698  -25.6523 H   0  0  0  0  0  0  0  0  0  0  0  0
    2.3378   26.9048  -27.2012 H   0  0  0  0  0  0  0  0  0  0  0  0
    1.3364   28.3960  -27.2012 H   0  0  0  0  0  0  0  0  0  0  0  0
   -1.2937   24.3287  -30.0211 H   0  0  0  0  0  0  0  0  0  0  0  0
    0.0894   23.4559  -29.2353 H   0  0  0  0  0  0  0  0  0  0  0  0
   -4.2254   20.8682  -30.4128 H   0  0  0  0  0  0  0  0  0  0  0  0
   -4.5936   22.5936  -30.2598 H   0  0  0  0  0  0  0  0  0  0  0  0
  1  2  1  0
  2  3  1  0
  3  4  1  0
  4  5  2  0
  5  6  1  0
  5  7  1  0
  7  8  2  0
  8  9  1  0
  9 10  2  0
 10 11  1  0
 11 12  1  0
 12 13  1  0
 13 14  1  0
 14 15  1  0
 15 16  1  0
 16 17  1  0
 17 18  1  0
 18 19  2  0
 18 20  1  0
 20 21  2  0
 21 22  1  0
 22 23  2  0
 23 24  1  0
 23 25  1  0
 25 26  2  0
 26 27  1  0
 14 28  1  0
 10  4  1  0
 28 11  1  0
 27 16  1  0
 26 20  1  0
  1 29  1  0
  1 30  1  0
  1 31  1  0
  2 32  1  0
  2 33  1  0
  6 34  1  0
  6 35  1  0
  6 36  1  0
  7 37  1  0
  8 38  1  0
  9 39  1  0
 11 40  1  6
 12 41  1  0
 12 42  1  0
 13 43  1  0
 13 44  1  0
 15 45  1  0
 15 46  1  0
 16 47  1  1
 17 48  1  0
 17 49  1  0
 21 50  1  0
 22 51  1  0
 24 52  1  0
 24 53  1  0
 24 54  1  0
 27 55  1  0
 27 56  1  0
 28 57  1  0
 28 58  1  0
M  END
>  <UniqueID>  (16) 
16

>  <SMILES>  (16) 
CCOc1c(C)cccc1[C@@H]1CCN(C[C@@H]2CC(=O)c3ccc(C)nc3C2)C1

>  <Energy>  (16) 
74.70553158422433

>  <Genealogy>  (16) 
CCOc1c(C)cccc1[C@@H]1CCN(C[C@@H]2CC(=O)c3ccc(C)nc3C2)C1 (chirality)
CCOc1c(C)cccc1[C@@H]1CCN(C[C@@H]2CC(=O)c3ccc(C)nc3C2)C1 (3D coordinates assigned)
CCOc1c(C)cccc1[C@@H]1CCN(C[C@@H]2CC(=O)c3ccc(C)nc3C2)C1 (nonaromatic ring conformer: 74.70553158422433 kcal/mol)

>  <smiles>  (16) 
CCOc1c(C)cccc1C1CCN(CC2CC(=O)c3ccc(C)nc3C2)C1

>  <score_type>  (16) 
oracle

>  <origin>  (16) 
adg

>  <m_score__min__energy>  (16) 
-9.3699999999999992

>  <m_primary>  (16) 
energy

$$$$
16:0
     RDKit          3D

 43 44  0  0  0  0  0  0  0  0999 V2000
   -2.3840   25.2670  -26.5960 C   0  0  0  0  0  0  0  0  0  0  0  0
   -1.4570   25.7570  -27.6960 C   0  0  0  0  0  0  0  0  0  0  0  0
   -2.0270   25.4580  -28.9670 O   0  0  0  0  0  0  0  0  0  0  0  0
   -2.3040   24.1510  -29.3830 C   0  0  0  0  0  0  0  0  0  0  0  0
   -1.5540   23.2010  -29.0240 O   0  0  0  0  0  0  0  0  0  0  0  0
   -3.4780   23.8850  -30.2420 C   0  0  0  0  0  0  0  0  0  0  0  0
   -3.5290   22.7400  -31.0560 C   0  0  0  0  0  0  0  0  0  0  0  0
   -4.6400   22.4950  -31.8660 C   0  0  0  0  0  0  0  0  0  0  0  0
   -5.7270   23.3840  -31.8740 C   0  0  0  0  0  0  0  0  0  0  0  0
   -6.8600   23.1450  -32.7330 N   0  0  0  0  0  0  0  0  0  0  0  0
   -8.1080   23.2290  -31.9570 C   0  0  0  0  0  0  0  0  0  0  0  0
   -8.3940   21.9170  -31.1950 C   0  0  0  0  0  0  0  0  0  0  0  0
   -9.0510   20.8340  -32.0670 C   0  0  0  0  0  0  0  0  0  0  0  0
   -8.0760   19.7670  -32.4910 C   0  0  0  0  0  0  0  0  0  0  0  0
   -7.1000   20.0390  -33.4660 C   0  0  0  0  0  0  0  0  0  0  0  0
   -6.1700   19.0580  -33.8250 C   0  0  0  0  0  0  0  0  0  0  0  0
   -6.2070   17.8010  -33.2160 C   0  0  0  0  0  0  0  0  0  0  0  0
   -7.1730   17.5230  -32.2450 C   0  0  0  0  0  0  0  0  0  0  0  0
   -8.1040   18.5010  -31.8810 C   0  0  0  0  0  0  0  0  0  0  0  0
   -5.6730   24.5360  -31.0720 C   0  0  0  0  0  0  0  0  0  0  0  0
   -4.5610   24.7810  -30.2600 C   0  0  0  0  0  0  0  0  0  0  0  0
   -1.9440   25.4996  -25.6150 H   0  0  0  0  0  0  0  0  0  0  0  0
   -3.3592   25.7674  -26.6884 H   0  0  0  0  0  0  0  0  0  0  0  0
   -2.5198   24.1793  -26.6884 H   0  0  0  0  0  0  0  0  0  0  0  0
   -1.3200   26.8444  -27.6025 H   0  0  0  0  0  0  0  0  0  0  0  0
   -0.4826   25.2549  -27.6044 H   0  0  0  0  0  0  0  0  0  0  0  0
   -2.6874   22.0316  -31.0549 H   0  0  0  0  0  0  0  0  0  0  0  0
   -4.6638   21.5984  -32.5029 H   0  0  0  0  0  0  0  0  0  0  0  0
   -6.8610   23.8440  -33.5100 H   0  0  0  0  0  0  0  0  0  0  0  0
   -6.7790   22.1930  -33.1640 H   0  0  0  0  0  0  0  0  0  0  0  0
   -8.0224   24.0515  -31.2316 H   0  0  0  0  0  0  0  0  0  0  0  0
   -8.9370   23.4071  -32.6577 H   0  0  0  0  0  0  0  0  0  0  0  0
   -7.4421   21.5236  -30.8090 H   0  0  0  0  0  0  0  0  0  0  0  0
   -9.1023   22.1580  -30.3887 H   0  0  0  0  0  0  0  0  0  0  0  0
   -9.8625   20.3628  -31.4930 H   0  0  0  0  0  0  0  0  0  0  0  0
   -9.4306   21.3215  -32.9771 H   0  0  0  0  0  0  0  0  0  0  0  0
   -7.0678   21.0271  -33.9482 H   0  0  0  0  0  0  0  0  0  0  0  0
   -5.4083   19.2764  -34.5880 H   0  0  0  0  0  0  0  0  0  0  0  0
   -5.4758   17.0302  -33.5008 H   0  0  0  0  0  0  0  0  0  0  0  0
   -7.2011   16.5331  -31.7662 H   0  0  0  0  0  0  0  0  0  0  0  0
   -8.8610   18.2787  -31.1145 H   0  0  0  0  0  0  0  0  0  0  0  0
   -6.5101   25.2495  -31.0827 H   0  0  0  0  0  0  0  0  0  0  0  0
   -4.5336   25.6824  -29.6301 H   0  0  0  0  0  0  0  0  0  0  0  0
  1  2  1  0
  2  3  1  0
  3  4  1  0
  4  5  2  0
  4  6  1  0
  6  7  2  0
  7  8  1  0
  8  9  2  0
  9 10  1  0
 10 11  1  0
 11 12  1  0
 12 13  1  0
 13 14  1  0
 14 15  2  0
 15 16  1  0
 16 17  2  0
 17 18  1  0
 18 19  2  0
  9 20  1  0
 20 21  2  0
 21  6  1  0
 19 14  1  0
  1 22  1  0
  1 23  1  0
  1 24  1  0
  2 25  1  0
  2 26  1  0
  7 27  1  0
  8 28  1  0
 10 29  1  0
 10 30  1  0
 11 31  1  0
 11 32  1  0
 12 33  1  0
 12 34  1  0
 13 35  1  0
 13 36  1  0
 15 37  1  0
 16 38  1  0
 17 39  1  0
 18 40  1  0
 19 41  1  0
 20 42  1  0
 21 43  1  0
M  CHG  1  10   1
M  END
>  <UniqueID>  (17) 
17

>  <SMILES>  (17) 
CCOC(=O)c1ccc([NH2+]CCCc2ccccc2)cc1

>  <Energy>  (17) 
35.763724036401555

>  <Genealogy>  (17) 
CCOC(=O)c1ccc([NH2+]CCCc2ccccc2)cc1 (protonated)
CCOC(=O)c1ccc([NH2+]CCCc2ccccc2)cc1 (3D coordinates assigned)
CCOC(=O)c1ccc([NH2+]CCCc2ccccc2)cc1 (optimized conformer: 35.763724036401555 kcal/mol)

>  <smiles>  (17) 
CCOC(=O)c1ccc(NCCCc2ccccc2)cc1

>  <score_type>  (17) 
oracle

>  <origin>  (17) 
adg

>  <m_score__min__energy>  (17) 
-7.5

>  <m_primary>  (17) 
energy

$$$$
17:0
     RDKit          3D

 61 63  0  0  0  0  0  0  0  0999 V2000
    1.0240   23.8010  -36.0240 C   0  0  0  0  0  0  0  0  0  0  0  0
    0.9440   22.3030  -35.7630 C   0  0  0  0  0  0  0  0  0  0  0  0
    0.1660   22.0320  -34.5970 O   0  0  0  0  0  0  0  0  0  0  0  0
   -0.4180   20.7970  -34.2730 C   0  0  0  0  0  0  0  0  0  0  0  0
   -0.0750   19.6830  -35.0480 C   0  0  0  0  0  0  0  0  0  0  0  0
   -0.6720   18.4430  -34.8200 C   0  0  0  0  0  0  0  0  0  0  0  0
   -1.5960   18.2810  -33.7820 C   0  0  0  0  0  0  0  0  0  0  0  0
   -2.1910   17.0220  -33.6170 O   0  0  0  0  0  0  0  0  0  0  0  0
   -3.4980   16.6660  -34.0620 C   0  0  0  0  0  0  0  0  0  0  0  0
   -4.4660   17.7180  -33.6050 C   0  0  0  0  0  0  0  0  0  0  0  0
   -4.8620   18.7420  -34.4800 C   0  0  0  0  0  0  0  0  0  0  0  0
   -5.7980   19.6950  -34.0700 C   0  0  0  0  0  0  0  0  0  0  0  0
   -6.3480   19.6420  -32.7800 C   0  0  0  0  0  0  0  0  0  0  0  0
   -7.3270   20.6650  -32.3430 C   0  0  0  0  0  0  0  0  0  0  0  0
   -8.6240   20.2470  -31.9970 C   0  0  0  0  0  0  0  0  0  0  0  0
   -9.6010   21.1810  -31.6480 C   0  0  0  0  0  0  0  0  0  0  0  0
   -9.2980   22.5450  -31.6440 C   0  0  0  0  0  0  0  0  0  0  0  0
   -8.0110   22.9770  -31.9690 C   0  0  0  0  0  0  0  0  0  0  0  0
   -6.9980   22.0480  -32.2820 C   0  0  0  0  0  0  0  0  0  0  0  0
   -5.6080   22.5550  -32.6170 C   0  0  0  0  0  0  0  0  0  0  0  0
   -4.9810   23.2340  -31.4510 N   0  0  0  0  0  0  0  0  0  0  0  0
   -4.8010   22.2810  -30.3270 C   0  0  0  0  0  0  0  0  0  0  0  0
   -3.7680   21.2180  -30.6890 C   0  0  0  0  0  0  0  0  0  0  0  0
   -5.7640   24.4120  -31.0020 C   0  0  0  0  0  0  0  0  0  0  0  0
   -4.9330   25.3850  -30.1510 C   0  0  0  0  0  0  0  0  0  0  0  0
   -3.5660   25.2880  -30.4470 O   0  0  0  0  0  0  0  0  0  0  0  0
   -5.9790   18.5990  -31.9160 C   0  0  0  0  0  0  0  0  0  0  0  0
   -5.0410   17.6450  -32.3250 C   0  0  0  0  0  0  0  0  0  0  0  0
   -1.9080   19.3840  -32.9660 C   0  0  0  0  0  0  0  0  0  0  0  0
   -1.3320   20.6360  -33.2150 C   0  0  0  0  0  0  0  0  0  0  0  0
    1.0527   24.3392  -35.0651 H   0  0  0  0  0  0  0  0  0  0  0  0
    1.9354   24.0251  -36.5977 H   0  0  0  0  0  0  0  0  0  0  0  0
    0.1417   24.1209  -36.5977 H   0  0  0  0  0  0  0  0  0  0  0  0
    0.4786   21.8104  -36.6295 H   0  0  0  0  0  0  0  0  0  0  0  0
    1.9622   21.9180  -35.6046 H   0  0  0  0  0  0  0  0  0  0  0  0
    0.6744   19.7866  -35.8465 H   0  0  0  0  0  0  0  0  0  0  0  0
   -0.4145   17.5867  -35.4607 H   0  0  0  0  0  0  0  0  0  0  0  0
   -3.5107   16.6035  -35.1601 H   0  0  0  0  0  0  0  0  0  0  0  0
   -3.7824   15.6888  -33.6446 H   0  0  0  0  0  0  0  0  0  0  0  0
   -4.4339   18.7943  -35.4919 H   0  0  0  0  0  0  0  0  0  0  0  0
   -6.1058   20.4920  -34.7629 H   0  0  0  0  0  0  0  0  0  0  0  0
   -8.8709   19.1751  -32.0013 H   0  0  0  0  0  0  0  0  0  0  0  0
  -10.6115   20.8425  -31.3756 H   0  0  0  0  0  0  0  0  0  0  0  0
  -10.0747   23.2794  -31.3844 H   0  0  0  0  0  0  0  0  0  0  0  0
   -7.7850   24.0535  -31.9810 H   0  0  0  0  0  0  0  0  0  0  0  0
   -4.9790   21.7035  -32.9158 H   0  0  0  0  0  0  0  0  0  0  0  0
   -5.6940   23.2839  -33.4363 H   0  0  0  0  0  0  0  0  0  0  0  0
   -4.4588   22.8305  -29.4376 H   0  0  0  0  0  0  0  0  0  0  0  0
   -5.7624   21.7877  -30.1209 H   0  0  0  0  0  0  0  0  0  0  0  0
   -3.3483   20.7861  -29.7685 H   0  0  0  0  0  0  0  0  0  0  0  0
   -4.2496   20.4248  -31.2797 H   0  0  0  0  0  0  0  0  0  0  0  0
   -2.9614   21.6767  -31.2797 H   0  0  0  0  0  0  0  0  0  0  0  0
   -6.1344   24.9475  -31.8886 H   0  0  0  0  0  0  0  0  0  0  0  0
   -6.5900   24.0438  -30.3757 H   0  0  0  0  0  0  0  0  0  0  0  0
   -5.2701   26.4127  -30.3515 H   0  0  0  0  0  0  0  0  0  0  0  0
   -5.0760   25.1256  -29.0916 H   0  0  0  0  0  0  0  0  0  0  0  0
   -3.4960   24.8780  -31.3460 H   0  0  0  0  0  0  0  0  0  0  0  0
   -6.4287   18.5316  -30.9144 H   0  0  0  0  0  0  0  0  0  0  0  0
   -4.7521   16.8335  -31.6409 H   0  0  0  0  0  0  0  0  0  0  0  0
   -2.6089   19.2621  -32.1270 H   0  0  0  0  0  0  0  0  0  0  0  0
   -1.5948   21.4962  -32.5817 H   0  0  0  0  0  0  0  0  0  0  0  0
  1  2  1  0
  2  3  1  0
  3  4  1  0
  4  5  2  0
  5  6  1  0
  6  7  2  0
  7  8  1  0
  8  9  1  0
  9 10  1  0
 10 11  2  0
 11 12  1  0
 12 13  2  0
 13 14  1  0
 14 15  2  0
 15 16  1  0
 16 17  2  0
 17 18  1  0
 18 19  2  0
 19 20  1  0
 20 21  1  0
 21 22  1  0
 22 23  1  0
 21 24  1  0
 24 25  1  0
 25 26  1  0
 13 27  1  0
 27 28  2  0
  7 29  1  0
 29 30  2  0
 30  4  1  0
 28 10  1  0
 19 14  1  0
  1 31  1  0
  1 32  1  0
  1 33  1  0
  2 34  1  0
  2 35  1  0
  5 36  1  0
  6 37  1  0
  9 38  1  0
  9 39  1  0
 11 40  1  0
 12 41  1  0
 15 42  1  0
 16 43  1  0
 17 44  1  0
 18 45  1  0
 20 46  1  0
 20 47  1  0
 22 48  1  0
 22 49  1  0
 23 50  1  0
 23 51  1  0
 23 52  1  0
 24 53  1  0
 24 54  1  0
 25 55  1  0
 25 56  1  0
 26 57  1  0
 27 58  1  0
 28 59  1  0
 29 60  1  0
 30 61  1  0
M  END
>  <UniqueID>  (18) 
18

>  <SMILES>  (18) 
CCOc1ccc(OCc2ccc(-c3ccccc3CN(CC)CCO)cc2)cc1

>  <Energy>  (18) 
70.1159576837323

>  <Genealogy>  (18) 
CCOc1ccc(OCc2ccc(-c3ccccc3CN(CC)CCO)cc2)cc1 (3D coordinates assigned)
CCOc1ccc(OCc2ccc(-c3ccccc3CN(CC)CCO)cc2)cc1 (optimized conformer: 70.1159576837323 kcal/mol)

>  <smiles>  (18) 
CCOc1ccc(OCc2ccc(-c3ccccc3CN(CC)CCO)cc2)cc1

>  <score_type>  (18) 
oracle

>  <origin>  (18) 
adg

>  <m_score__min__energy>  (18) 
-9.3399999999999999

>  <m_primary>  (18) 
energy

$$$$
18:0
     RDKit          3D

 47 49  0  0  0  0  0  0  0  0999 V2000
   -3.0050   24.3830  -27.3650 C   0  0  0  0  0  0  0  0  0  0  0  0
   -2.0680   24.7730  -28.5030 C   0  0  0  0  0  0  0  0  0  0  0  0
   -2.7920   24.9350  -29.7220 O   0  0  0  0  0  0  0  0  0  0  0  0
   -4.0730   24.4210  -29.9910 C   0  0  0  0  0  0  0  0  0  0  0  0
   -5.2480   25.1700  -29.7790 C   0  0  0  0  0  0  0  0  0  0  0  0
   -6.5000   24.6210  -30.0650 C   0  0  0  0  0  0  0  0  0  0  0  0
   -7.6140   25.3710  -29.8700 F   0  0  0  0  0  0  0  0  0  0  0  0
   -6.6020   23.3080  -30.5560 C   0  0  0  0  0  0  0  0  0  0  0  0
   -7.9430   22.7260  -30.9270 C   0  0  0  0  0  0  0  0  0  0  0  0
   -7.8930   21.9980  -32.2760 C   0  0  0  0  0  0  0  0  0  0  0  0
   -8.0010   20.5480  -32.0980 N   0  0  0  0  0  0  0  0  0  0  0  0
   -8.8750   19.8950  -31.2990 C   0  0  0  0  0  0  0  0  0  0  0  0
   -8.7510   18.5550  -31.4020 N   0  0  0  0  0  0  0  0  0  0  0  0
   -7.7690   18.3660  -32.3010 C   0  0  0  0  0  0  0  0  0  0  0  0
   -7.3220   19.5780  -32.7420 C   0  0  0  0  0  0  0  0  0  0  0  0
   -6.1740   19.7310  -33.6820 C   0  0  0  0  0  0  0  0  0  0  0  0
   -6.0500   18.4680  -34.5500 C   0  0  0  0  0  0  0  0  0  0  0  0
   -6.1270   17.2310  -33.7370 N   0  0  0  0  0  0  0  0  0  0  0  0
   -5.3340   16.0690  -34.0790 C   0  0  0  0  0  0  0  0  0  0  0  0
   -3.8590   16.1570  -34.3370 C   0  0  0  0  0  0  0  0  0  0  0  0
   -5.8850   14.9360  -34.1570 O   0  0  0  0  0  0  0  0  0  0  0  0
   -7.2240   17.0520  -32.7590 C   0  0  0  0  0  0  0  0  0  0  0  0
   -5.4330   22.5620  -30.7660 C   0  0  0  0  0  0  0  0  0  0  0  0
   -4.1790   23.1120  -30.4840 C   0  0  0  0  0  0  0  0  0  0  0  0
   -2.7380   22.1500  -30.7740 Cl  0  0  0  0  0  0  0  0  0  0  0  0
   -2.5157   24.5866  -26.4011 H   0  0  0  0  0  0  0  0  0  0  0  0
   -3.9327   24.9697  -27.4365 H   0  0  0  0  0  0  0  0  0  0  0  0
   -3.2425   23.3113  -27.4365 H   0  0  0  0  0  0  0  0  0  0  0  0
   -1.5693   25.7205  -28.2510 H   0  0  0  0  0  0  0  0  0  0  0  0
   -1.3247   23.9734  -28.6377 H   0  0  0  0  0  0  0  0  0  0  0  0
   -5.1784   26.1948  -29.3853 H   0  0  0  0  0  0  0  0  0  0  0  0
   -8.2494   22.0123  -30.1481 H   0  0  0  0  0  0  0  0  0  0  0  0
   -8.6638   23.5527  -31.0105 H   0  0  0  0  0  0  0  0  0  0  0  0
   -8.7272   22.3459  -32.9030 H   0  0  0  0  0  0  0  0  0  0  0  0
   -6.9288   22.2198  -32.7567 H   0  0  0  0  0  0  0  0  0  0  0  0
   -9.6013   20.3967  -30.6426 H   0  0  0  0  0  0  0  0  0  0  0  0
   -9.2970   17.8260  -30.8910 H   0  0  0  0  0  0  0  0  0  0  0  0
   -6.3433   20.6048  -34.3283 H   0  0  0  0  0  0  0  0  0  0  0  0
   -5.2466   19.8736  -33.1078 H   0  0  0  0  0  0  0  0  0  0  0  0
   -6.8666   18.4610  -35.2870 H   0  0  0  0  0  0  0  0  0  0  0  0
   -5.0688   18.4898  -35.0468 H   0  0  0  0  0  0  0  0  0  0  0  0
   -3.3204   16.1891  -33.3784 H   0  0  0  0  0  0  0  0  0  0  0  0
   -3.5340   15.2766  -34.9109 H   0  0  0  0  0  0  0  0  0  0  0  0
   -3.6410   17.0698  -34.9109 H   0  0  0  0  0  0  0  0  0  0  0  0
   -8.0327   16.4744  -33.2306 H   0  0  0  0  0  0  0  0  0  0  0  0
   -6.8226   16.5207  -31.8834 H   0  0  0  0  0  0  0  0  0  0  0  0
   -5.5034   21.5358  -31.1558 H   0  0  0  0  0  0  0  0  0  0  0  0
  1  2  1  0
  2  3  1  0
  3  4  1  0
  4  5  2  0
  5  6  1  0
  6  7  1  0
  6  8  2  0
  8  9  1  0
  9 10  1  0
 10 11  1  0
 11 12  1  0
 12 13  2  0
 13 14  1  0
 14 15  2  0
 15 16  1  0
 16 17  1  0
 17 18  1  0
 18 19  1  0
 19 20  1  0
 19 21  2  0
 18 22  1  0
  8 23  1  0
 23 24  2  0
 24 25  1  0
 24  4  1  0
 15 11  1  0
 22 14  1  0
  1 26  1  0
  1 27  1  0
  1 28  1  0
  2 29  1  0
  2 30  1  0
  5 31  1  0
  9 32  1  0
  9 33  1  0
 10 34  1  0
 10 35  1  0
 12 36  1  0
 13 37  1  0
 16 38  1  0
 16 39  1  0
 17 40  1  0
 17 41  1  0
 20 42  1  0
 20 43  1  0
 20 44  1  0
 22 45  1  0
 22 46  1  0
 23 47  1  0
M  CHG  1  13   1
M  END
>  <UniqueID>  (19) 
19

>  <SMILES>  (19) 
CCOc1cc(F)c(CCn2c[nH+]c3c2CCN(C(C)=O)C3)cc1Cl

>  <Energy>  (19) 
75.29231897121004

>  <Genealogy>  (19) 
CCOc1cc(F)c(CCn2c[nH+]c3c2CCN(C(C)=O)C3)cc1Cl (protonated)
CCOc1cc(F)c(CCn2c[nH+]c3c2CCN(C(C)=O)C3)cc1Cl (3D coordinates assigned)
CCOc1cc(F)c(CCn2c[nH+]c3c2CCN(C(C)=O)C3)cc1Cl (nonaromatic ring conformer: 75.29231897121004 kcal/mol)

>  <smiles>  (19) 
CCOc1cc(F)c(CCn2cnc3c2CCN(C(C)=O)C3)cc1Cl

>  <score_type>  (19) 
oracle

>  <origin>  (19) 
adg

>  <m_score__min__energy>  (19) 
-7.9800000000000004

>  <m_primary>  (19) 
energy

$$$$
19:0
     RDKit          3D

 41 43  0  0  0  0  0  0  0  0999 V2000
   -5.6350   26.0330  -30.4260 C   0  0  0  0  0  0  0  0  0  0  0  0
   -4.2750   25.6490  -30.6030 O   0  0  0  0  0  0  0  0  0  0  0  0
   -3.7910   24.3370  -30.4660 C   0  0  0  0  0  0  0  0  0  0  0  0
   -4.4570   23.2390  -31.0370 C   0  0  0  0  0  0  0  0  0  0  0  0
   -3.9500   21.9430  -30.8930 C   0  0  0  0  0  0  0  0  0  0  0  0
   -4.6530   20.7850  -31.4900 C   0  0  0  0  0  0  0  0  0  0  0  0
   -4.0130   19.7950  -32.1640 N   0  0  0  0  0  0  0  0  0  0  0  0
   -4.9980   18.9670  -32.5380 C   0  0  0  0  0  0  0  0  0  0  0  0
   -4.8570   17.8180  -33.2440 N   0  0  0  0  0  0  0  0  0  0  0  0
   -5.9710   17.0900  -33.5490 C   0  0  0  0  0  0  0  0  0  0  0  0
   -7.2480   17.5280  -33.1340 C   0  0  0  0  0  0  0  0  0  0  0  0
   -7.3790   18.7210  -32.4020 C   0  0  0  0  0  0  0  0  0  0  0  0
   -6.2090   19.4340  -32.1130 C   0  0  0  0  0  0  0  0  0  0  0  0
   -6.0010   20.5950  -31.4430 N   0  0  0  0  0  0  0  0  0  0  0  0
   -6.9000   21.5010  -30.8980 O   0  0  0  0  0  0  0  0  0  0  0  0
   -7.7850   22.3140  -31.6520 C   0  0  0  0  0  0  0  0  0  0  0  0
   -2.7790   21.7440  -30.1520 C   0  0  0  0  0  0  0  0  0  0  0  0
   -2.0940   22.8280  -29.5690 C   0  0  0  0  0  0  0  0  0  0  0  0
   -0.9160   22.6230  -28.8330 O   0  0  0  0  0  0  0  0  0  0  0  0
   -0.7770   21.7110  -27.7480 C   0  0  0  0  0  0  0  0  0  0  0  0
   -2.6090   24.1400  -29.7350 C   0  0  0  0  0  0  0  0  0  0  0  0
   -2.0000   25.2910  -29.1980 O   0  0  0  0  0  0  0  0  0  0  0  0
   -1.4900   25.4460  -27.8770 C   0  0  0  0  0  0  0  0  0  0  0  0
   -5.8611   26.0968  -29.3514 H   0  0  0  0  0  0  0  0  0  0  0  0
   -5.8031   27.0137  -30.8950 H   0  0  0  0  0  0  0  0  0  0  0  0
   -6.2912   25.2850  -30.8950 H   0  0  0  0  0  0  0  0  0  0  0  0
   -5.3864   23.4002  -31.6029 H   0  0  0  0  0  0  0  0  0  0  0  0
   -2.9900   19.6890  -32.3420 H   0  0  0  0  0  0  0  0  0  0  0  0
   -5.8733   16.1560  -34.1218 H   0  0  0  0  0  0  0  0  0  0  0  0
   -8.1404   16.9354  -33.3837 H   0  0  0  0  0  0  0  0  0  0  0  0
   -8.3636   19.0809  -32.0688 H   0  0  0  0  0  0  0  0  0  0  0  0
   -8.4196   22.8970  -30.9684 H   0  0  0  0  0  0  0  0  0  0  0  0
   -7.2032   22.9991  -32.2861 H   0  0  0  0  0  0  0  0  0  0  0  0
   -8.4184   21.6763  -32.2861 H   0  0  0  0  0  0  0  0  0  0  0  0
   -2.3873   20.7242  -30.0229 H   0  0  0  0  0  0  0  0  0  0  0  0
   -0.8603   22.2573  -26.7969 H   0  0  0  0  0  0  0  0  0  0  0  0
   -1.5696   20.9503  -27.8045 H   0  0  0  0  0  0  0  0  0  0  0  0
    0.2062   21.2210  -27.8045 H   0  0  0  0  0  0  0  0  0  0  0  0
   -2.2789   25.2062  -27.1489 H   0  0  0  0  0  0  0  0  0  0  0  0
   -0.6375   24.7664  -27.7310 H   0  0  0  0  0  0  0  0  0  0  0  0
   -1.1598   26.4851  -27.7310 H   0  0  0  0  0  0  0  0  0  0  0  0
  1  2  1  0
  2  3  1  0
  3  4  2  0
  4  5  1  0
  5  6  1  0
  6  7  2  0
  7  8  1  0
  8  9  2  0
  9 10  1  0
 10 11  2  0
 11 12  1  0
 12 13  2  0
 13 14  1  0
 14 15  1  0
 15 16  1  0
  5 17  2  0
 17 18  1  0
 18 19  1  0
 19 20  1  0
 18 21  2  0
 21 22  1  0
 22 23  1  0
 21  3  1  0
 14  6  1  0
 13  8  1  0
  1 24  1  0
  1 25  1  0
  1 26  1  0
  4 27  1  0
  7 28  1  0
 10 29  1  0
 11 30  1  0
 12 31  1  0
 16 32  1  0
 16 33  1  0
 16 34  1  0
 17 35  1  0
 20 36  1  0
 20 37  1  0
 20 38  1  0
 23 39  1  0
 23 40  1  0
 23 41  1  0
M  CHG  1   7   1
M  END
>  <UniqueID>  (20) 
20

>  <SMILES>  (20) 
COc1cc(-c2[nH+]c3ncccc3n2OC)cc(OC)c1OC

>  <Energy>  (20) 
92.81729563963766

>  <Genealogy>  (20) 
COc1cc(-c2[nH+]c3ncccc3n2OC)cc(OC)c1OC (protonated)
COc1cc(-c2[nH+]c3ncccc3n2OC)cc(OC)c1OC (3D coordinates assigned)
COc1cc(-c2[nH+]c3ncccc3n2OC)cc(OC)c1OC (optimized conformer: 92.81729563963766 kcal/mol)

>  <smiles>  (20) 
COc1cc(-c2nc3ncccc3n2OC)cc(OC)c1OC

>  <score_type>  (20) 
oracle

>  <origin>  (20) 
adg

>  <m_score__min__energy>  (20) 
-6.5199999999999996

>  <m_primary>  (20) 
energy

$$$$
20:0
     RDKit          3D

 57 59  0  0  0  0  0  0  0  0999 V2000
   -0.9070   26.4150  -28.0110 C   0  0  0  0  0  0  0  0  0  0  0  0
   -1.6670   25.6770  -28.9630 O   0  0  0  0  0  0  0  0  0  0  0  0
   -2.0170   24.3240  -28.8290 C   0  0  0  0  0  0  0  0  0  0  0  0
   -1.1560   23.3930  -28.2110 C   0  0  0  0  0  0  0  0  0  0  0  0
   -1.5360   22.0550  -28.0770 C   0  0  0  0  0  0  0  0  0  0  0  0
   -2.7800   21.6330  -28.5440 C   0  0  0  0  0  0  0  0  0  0  0  0
   -3.6460   22.5440  -29.1530 C   0  0  0  0  0  0  0  0  0  0  0  0
   -3.2670   23.8890  -29.3160 C   0  0  0  0  0  0  0  0  0  0  0  0
   -4.2380   24.8570  -29.9560 C   0  0  0  0  0  0  0  0  0  0  0  0
   -5.6750   24.6350  -29.4670 C   0  0  0  0  0  0  0  0  0  0  0  0
   -6.6440   24.9410  -30.5280 N   0  0  0  0  0  0  0  0  0  0  0  0
   -6.2460   24.2930  -31.7820 C   0  0  0  0  0  0  0  0  0  0  0  0
   -6.5760   22.8200  -31.7230 C   0  0  0  0  0  0  0  0  0  0  0  0
   -7.8960   22.4410  -31.4280 C   0  0  0  0  0  0  0  0  0  0  0  0
   -8.2580   21.0940  -31.3900 C   0  0  0  0  0  0  0  0  0  0  0  0
   -7.3160   20.0960  -31.6450 C   0  0  0  0  0  0  0  0  0  0  0  0
   -7.7320   18.7580  -31.5790 O   0  0  0  0  0  0  0  0  0  0  0  0
   -7.9270   17.9130  -32.7080 C   0  0  0  0  0  0  0  0  0  0  0  0
   -6.5880   17.5340  -33.2720 C   0  0  0  0  0  0  0  0  0  0  0  0
   -6.1220   18.1510  -34.4440 C   0  0  0  0  0  0  0  0  0  0  0  0
   -4.8600   17.8380  -34.9540 C   0  0  0  0  0  0  0  0  0  0  0  0
   -4.0410   16.8970  -34.3030 C   0  0  0  0  0  0  0  0  0  0  0  0
   -2.6600   16.5700  -34.8100 C   0  0  0  0  0  0  0  0  0  0  0  0
   -1.9360   17.7400  -34.9480 F   0  0  0  0  0  0  0  0  0  0  0  0
   -2.7070   15.9280  -36.0340 F   0  0  0  0  0  0  0  0  0  0  0  0
   -2.0120   15.7440  -33.9070 F   0  0  0  0  0  0  0  0  0  0  0  0
   -4.5020   16.2990  -33.1170 C   0  0  0  0  0  0  0  0  0  0  0  0
   -5.7640   16.6150  -32.6050 C   0  0  0  0  0  0  0  0  0  0  0  0
   -5.9940   20.4620  -31.9630 C   0  0  0  0  0  0  0  0  0  0  0  0
   -5.6170   21.8180  -32.0210 C   0  0  0  0  0  0  0  0  0  0  0  0
   -4.1990   22.1690  -32.3950 C   0  0  0  0  0  0  0  0  0  0  0  0
   -1.2087   26.1221  -26.9945 H   0  0  0  0  0  0  0  0  0  0  0  0
    0.1630   26.2021  -28.1516 H   0  0  0  0  0  0  0  0  0  0  0  0
   -1.0884   27.4908  -28.1516 H   0  0  0  0  0  0  0  0  0  0  0  0
   -0.1777   23.7230  -27.8316 H   0  0  0  0  0  0  0  0  0  0  0  0
   -0.8534   21.3344  -27.6029 H   0  0  0  0  0  0  0  0  0  0  0  0
   -3.0800   20.5806  -28.4326 H   0  0  0  0  0  0  0  0  0  0  0  0
   -4.6314   22.2075  -29.5077 H   0  0  0  0  0  0  0  0  0  0  0  0
   -3.9324   25.8839  -29.7067 H   0  0  0  0  0  0  0  0  0  0  0  0
   -4.2187   24.6897  -31.0430 H   0  0  0  0  0  0  0  0  0  0  0  0
   -5.7936   23.5844  -29.1632 H   0  0  0  0  0  0  0  0  0  0  0  0
   -5.8635   25.3053  -28.6155 H   0  0  0  0  0  0  0  0  0  0  0  0
   -7.5670   24.5330  -30.2470 H   0  0  0  0  0  0  0  0  0  0  0  0
   -6.7878   24.7555  -32.6202 H   0  0  0  0  0  0  0  0  0  0  0  0
   -5.1628   24.4174  -31.9277 H   0  0  0  0  0  0  0  0  0  0  0  0
   -8.6519   23.2139  -31.2249 H   0  0  0  0  0  0  0  0  0  0  0  0
   -9.2963   20.8157  -31.1567 H   0  0  0  0  0  0  0  0  0  0  0  0
   -8.4679   17.0058  -32.4006 H   0  0  0  0  0  0  0  0  0  0  0  0
   -8.5154   18.4428  -33.4716 H   0  0  0  0  0  0  0  0  0  0  0  0
   -6.7548   18.8855  -34.9638 H   0  0  0  0  0  0  0  0  0  0  0  0
   -4.5039   18.3305  -35.8709 H   0  0  0  0  0  0  0  0  0  0  0  0
   -3.8641   15.5761  -32.5873 H   0  0  0  0  0  0  0  0  0  0  0  0
   -6.1123   16.1412  -31.6754 H   0  0  0  0  0  0  0  0  0  0  0  0
   -5.2476   19.6805  -32.1684 H   0  0  0  0  0  0  0  0  0  0  0  0
   -3.6045   22.3162  -31.4813 H   0  0  0  0  0  0  0  0  0  0  0  0
   -3.7632   21.3516  -32.9883 H   0  0  0  0  0  0  0  0  0  0  0  0
   -4.1948   23.0953  -32.9883 H   0  0  0  0  0  0  0  0  0  0  0  0
  1  2  1  0
  2  3  1  0
  3  4  2  0
  4  5  1  0
  5  6  2  0
  6  7  1  0
  7  8  2  0
  8  9  1  0
  9 10  1  0
 10 11  1  0
 11 12  1  0
 12 13  1  0
 13 14  2  0
 14 15  1  0
 15 16  2  0
 16 17  1  0
 17 18  1  0
 18 19  1  0
 19 20  2  0
 20 21  1  0
 21 22  2  0
 22 23  1  0
 23 24  1  0
 23 25  1  0
 23 26  1  0
 22 27  1  0
 27 28  2  0
 16 29  1  0
 29 30  2  0
 30 31  1  0
  8  3  1  0
 30 13  1  0
 28 19  1  0
  1 32  1  0
  1 33  1  0
  1 34  1  0
  4 35  1  0
  5 36  1  0
  6 37  1  0
  7 38  1  0
  9 39  1  0
  9 40  1  0
 10 41  1  0
 10 42  1  0
 11 43  1  0
 12 44  1  0
 12 45  1  0
 14 46  1  0
 15 47  1  0
 18 48  1  0
 18 49  1  0
 20 50  1  0
 21 51  1  0
 27 52  1  0
 28 53  1  0
 29 54  1  0
 31 55  1  0
 31 56  1  0
 31 57  1  0
M  END
>  <UniqueID>  (21) 
21

>  <SMILES>  (21) 
COc1ccccc1CCNCc1ccc(OCc2ccc(C(F)(F)F)cc2)cc1C

>  <Energy>  (21) 
55.2455553101518

>  <Genealogy>  (21) 
COc1ccccc1CCNCc1ccc(OCc2ccc(C(F)(F)F)cc2)cc1C (3D coordinates assigned)
COc1ccccc1CCNCc1ccc(OCc2ccc(C(F)(F)F)cc2)cc1C (optimized conformer: 55.2455553101518 kcal/mol)

>  <smiles>  (21) 
COc1ccccc1CCNCc1ccc(OCc2ccc(C(F)(F)F)cc2)cc1C

>  <score_type>  (21) 
oracle

>  <origin>  (21) 
adg

>  <m_score__min__energy>  (21) 
-9.0999999999999996

>  <m_primary>  (21) 
energy

$$$$
21:0
     RDKit          3D

 39 40  0  0  0  0  0  0  0  0999 V2000
   -4.6380   19.1550  -32.0850 C   0  0  0  0  0  0  0  0  0  0  0  0
   -4.5030   19.6360  -33.4720 N   0  0  0  0  0  0  0  0  0  0  0  0
   -4.8210   18.5400  -34.4020 C   0  0  0  0  0  0  0  0  0  0  0  0
   -3.1380   20.1430  -33.7300 C   0  0  0  0  0  0  0  0  0  0  0  0
   -2.9540   21.5440  -33.1330 C   0  0  0  0  0  0  0  0  0  0  0  0
   -4.2500   22.1230  -32.7760 N   0  0  0  0  0  0  0  0  0  0  0  0
   -4.5070   22.8850  -31.5740 C   0  0  0  0  0  0  0  0  0  0  0  0
   -3.5640   22.9270  -30.5240 C   0  0  0  0  0  0  0  0  0  0  0  0
   -3.8290   23.6430  -29.3560 C   0  0  0  0  0  0  0  0  0  0  0  0
   -5.0340   24.3270  -29.2100 C   0  0  0  0  0  0  0  0  0  0  0  0
   -5.9770   24.3040  -30.2380 C   0  0  0  0  0  0  0  0  0  0  0  0
   -5.7210   23.5990  -31.4220 C   0  0  0  0  0  0  0  0  0  0  0  0
   -6.9670   23.6530  -32.7190 S   0  0  0  0  0  0  0  0  0  0  0  0
   -7.6390   22.0490  -32.2790 C   0  0  0  0  0  0  0  0  0  0  0  0
   -8.5670   21.9350  -31.2350 C   0  0  0  0  0  0  0  0  0  0  0  0
   -9.0840   20.6820  -30.8910 C   0  0  0  0  0  0  0  0  0  0  0  0
   -8.6770   19.5410  -31.5910 C   0  0  0  0  0  0  0  0  0  0  0  0
   -9.1790   18.3260  -31.2560 F   0  0  0  0  0  0  0  0  0  0  0  0
   -7.7560   19.6530  -32.6360 C   0  0  0  0  0  0  0  0  0  0  0  0
   -7.2380   20.9050  -32.9820 C   0  0  0  0  0  0  0  0  0  0  0  0
   -4.4079   19.9748  -31.3886 H   0  0  0  0  0  0  0  0  0  0  0  0
   -5.6681   18.8084  -31.9158 H   0  0  0  0  0  0  0  0  0  0  0  0
   -3.9387   18.3230  -31.9158 H   0  0  0  0  0  0  0  0  0  0  0  0
   -5.0828   17.6378  -33.8297 H   0  0  0  0  0  0  0  0  0  0  0  0
   -5.6715   18.8319  -35.0356 H   0  0  0  0  0  0  0  0  0  0  0  0
   -3.9464   18.3314  -35.0356 H   0  0  0  0  0  0  0  0  0  0  0  0
   -2.4072   19.4584  -33.2747 H   0  0  0  0  0  0  0  0  0  0  0  0
   -2.9836   20.2007  -34.8176 H   0  0  0  0  0  0  0  0  0  0  0  0
   -2.3280   21.4739  -32.2312 H   0  0  0  0  0  0  0  0  0  0  0  0
   -2.4700   22.1889  -33.8812 H   0  0  0  0  0  0  0  0  0  0  0  0
   -5.0200   21.9680  -33.4630 H   0  0  0  0  0  0  0  0  0  0  0  0
   -2.6100   22.3894  -30.6279 H   0  0  0  0  0  0  0  0  0  0  0  0
   -3.0837   23.6675  -28.5474 H   0  0  0  0  0  0  0  0  0  0  0  0
   -5.2417   24.8847  -28.2849 H   0  0  0  0  0  0  0  0  0  0  0  0
   -6.9283   24.8431  -30.1184 H   0  0  0  0  0  0  0  0  0  0  0  0
   -8.8890   22.8320  -30.6857 H   0  0  0  0  0  0  0  0  0  0  0  0
   -9.8107   20.5935  -30.0700 H   0  0  0  0  0  0  0  0  0  0  0  0
   -7.4382   18.7555  -33.1869 H   0  0  0  0  0  0  0  0  0  0  0  0
   -6.5152   20.9919  -33.8066 H   0  0  0  0  0  0  0  0  0  0  0  0
  1  2  1  0
  2  3  1  0
  2  4  1  0
  4  5  1  0
  5  6  1  0
  6  7  1  0
  7  8  2  0
  8  9  1  0
  9 10  2  0
 10 11  1  0
 11 12  2  0
 12 13  1  0
 13 14  1  0
 14 15  2  0
 15 16  1  0
 16 17  2  0
 17 18  1  0
 17 19  1  0
 19 20  2  0
 12  7  1  0
 20 14  1  0
  1 21  1  0
  1 22  1  0
  1 23  1  0
  3 24  1  0
  3 25  1  0
  3 26  1  0
  4 27  1  0
  4 28  1  0
  5 29  1  0
  5 30  1  0
  6 31  1  0
  8 32  1  0
  9 33  1  0
 10 34  1  0
 11 35  1  0
 15 36  1  0
 16 37  1  0
 19 38  1  0
 20 39  1  0
M  END
>  <UniqueID>  (22) 
22

>  <SMILES>  (22) 
CN(C)CCNc1ccccc1Sc1ccc(F)cc1

>  <Energy>  (22) 
34.996584667243596

>  <Genealogy>  (22) 
CN(C)CCNc1ccccc1Sc1ccc(F)cc1 (3D coordinates assigned)
CN(C)CCNc1ccccc1Sc1ccc(F)cc1 (optimized conformer: 34.996584667243596 kcal/mol)

>  <smiles>  (22) 
CN(C)CCNc1ccccc1Sc1ccc(F)cc1

>  <score_type>  (22) 
oracle

>  <origin>  (22) 
adg

>  <m_score__min__energy>  (22) 
-7.5

>  <m_primary>  (22) 
energy

$$$$
22:0
     RDKit          3D

 40 41  0  0  0  0  0  0  0  0999 V2000
   -5.0420   14.9060  -33.3640 C   0  0  0  0  0  0  0  0  0  0  0  0
   -5.6200   15.9510  -33.5200 C   0  0  0  0  0  0  0  0  0  0  0  0
   -6.3270   17.2300  -33.7060 C   0  0  0  0  0  0  0  0  0  0  0  0
   -5.7050   18.3360  -32.9480 N   0  0  0  0  0  0  0  0  0  0  0  0
   -6.5380   18.8440  -31.8280 C   0  0  0  0  0  0  0  0  0  0  0  0
   -7.2560   20.1730  -32.1420 C   0  0  0  0  0  0  0  0  0  0  0  0
   -6.3260   21.2540  -32.7590 C   0  0  0  0  0  0  0  0  0  0  0  0
   -6.2290   22.5170  -31.9100 C   0  0  0  0  0  0  0  0  0  0  0  0
   -4.9540   23.0250  -31.5930 C   0  0  0  0  0  0  0  0  0  0  0  0
   -4.8110   24.1810  -30.8040 C   0  0  0  0  0  0  0  0  0  0  0  0
   -3.5580   24.7160  -30.4710 O   0  0  0  0  0  0  0  0  0  0  0  0
   -2.6750   24.1590  -29.5030 C   0  0  0  0  0  0  0  0  0  0  0  0
   -5.9530   24.8270  -30.3280 C   0  0  0  0  0  0  0  0  0  0  0  0
   -7.2230   24.3360  -30.6280 C   0  0  0  0  0  0  0  0  0  0  0  0
   -7.3780   23.1800  -31.4160 C   0  0  0  0  0  0  0  0  0  0  0  0
   -8.6490   22.6730  -31.7220 O   0  0  0  0  0  0  0  0  0  0  0  0
   -9.4540   21.9010  -30.8360 C   0  0  0  0  0  0  0  0  0  0  0  0
   -4.9340   20.7060  -33.1140 C   0  0  0  0  0  0  0  0  0  0  0  0
   -5.0850   19.3590  -33.8230 C   0  0  0  0  0  0  0  0  0  0  0  0
   -4.5141   13.9515  -33.2215 H   0  0  0  0  0  0  0  0  0  0  0  0
   -6.3172   17.4862  -34.7757 H   0  0  0  0  0  0  0  0  0  0  0  0
   -7.3529   17.1026  -33.3300 H   0  0  0  0  0  0  0  0  0  0  0  0
   -7.2988   18.0862  -31.5896 H   0  0  0  0  0  0  0  0  0  0  0  0
   -5.8590   19.0371  -30.9844 H   0  0  0  0  0  0  0  0  0  0  0  0
   -8.0702   19.9685  -32.8528 H   0  0  0  0  0  0  0  0  0  0  0  0
   -7.6245   20.5733  -31.1860 H   0  0  0  0  0  0  0  0  0  0  0  0
   -6.8095   21.5463  -33.7028 H   0  0  0  0  0  0  0  0  0  0  0  0
   -4.0570   22.5103  -31.9678 H   0  0  0  0  0  0  0  0  0  0  0  0
   -3.0440   24.3918  -28.4932 H   0  0  0  0  0  0  0  0  0  0  0  0
   -2.6286   23.0678  -29.6339 H   0  0  0  0  0  0  0  0  0  0  0  0
   -1.6702   24.5871  -29.6339 H   0  0  0  0  0  0  0  0  0  0  0  0
   -5.8502   25.7316  -29.7106 H   0  0  0  0  0  0  0  0  0  0  0  0
   -8.1127   24.8572  -30.2450 H   0  0  0  0  0  0  0  0  0  0  0  0
   -9.1956   22.1488  -29.7959 H   0  0  0  0  0  0  0  0  0  0  0  0
  -10.5157   22.1273  -31.0140 H   0  0  0  0  0  0  0  0  0  0  0  0
   -9.2723   20.8308  -31.0140 H   0  0  0  0  0  0  0  0  0  0  0  0
   -4.4188   21.4151  -33.7787 H   0  0  0  0  0  0  0  0  0  0  0  0
   -4.3453   20.5736  -32.1943 H   0  0  0  0  0  0  0  0  0  0  0  0
   -5.7172   19.4952  -34.7128 H   0  0  0  0  0  0  0  0  0  0  0  0
   -4.0802   19.0060  -34.0982 H   0  0  0  0  0  0  0  0  0  0  0  0
  1  2  3  0
  2  3  1  0
  3  4  1  0
  4  5  1  0
  5  6  1  0
  6  7  1  0
  7  8  1  0
  8  9  2  0
  9 10  1  0
 10 11  1  0
 11 12  1  0
 10 13  2  0
 13 14  1  0
 14 15  2  0
 15 16  1  0
 16 17  1  0
  7 18  1  0
 18 19  1  0
 19  4  1  0
 15  8  1  0
  1 20  1  0
  3 21  1  0
  3 22  1  0
  5 23  1  0
  5 24  1  0
  6 25  1  0
  6 26  1  0
  7 27  1  0
  9 28  1  0
 12 29  1  0
 12 30  1  0
 12 31  1  0
 13 32  1  0
 14 33  1  0
 17 34  1  0
 17 35  1  0
 17 36  1  0
 18 37  1  0
 18 38  1  0
 19 39  1  0
 19 40  1  0
M  END
>  <UniqueID>  (23) 
23

>  <SMILES>  (23) 
C#CCN1CCC(c2cc(OC)ccc2OC)CC1

>  <Energy>  (23) 
49.03300988392299

>  <Genealogy>  (23) 
C#CCN1CCC(c2cc(OC)ccc2OC)CC1 (3D coordinates assigned)
C#CCN1CCC(c2cc(OC)ccc2OC)CC1 (nonaromatic ring conformer: 49.03300988392299 kcal/mol)

>  <smiles>  (23) 
C#CCN1CCC(c2cc(OC)ccc2OC)CC1

>  <score_type>  (23) 
oracle

>  <origin>  (23) 
adg

>  <m_score__min__energy>  (23) 
-6.79

>  <m_primary>  (23) 
energy

$$$$
23:0
     RDKit          3D

 43 45  0  0  0  0  0  0  0  0999 V2000
   -5.3860   25.9020  -30.4980 C   0  0  0  0  0  0  0  0  0  0  0  0
   -4.1340   25.2810  -30.7700 O   0  0  0  0  0  0  0  0  0  0  0  0
   -3.9240   23.8950  -30.8410 C   0  0  0  0  0  0  0  0  0  0  0  0
   -4.7720   23.0630  -31.6000 C   0  0  0  0  0  0  0  0  0  0  0  0
   -4.5760   21.6740  -31.6340 C   0  0  0  0  0  0  0  0  0  0  0  0
   -5.4630   20.7900  -32.4180 C   0  0  0  0  0  0  0  0  0  0  0  0
   -5.0280   19.9030  -33.2800 O   0  0  0  0  0  0  0  0  0  0  0  0
   -6.0800   19.3100  -33.7980 C   0  0  0  0  0  0  0  0  0  0  0  0
   -7.2400   19.7920  -33.3050 N   0  0  0  0  0  0  0  0  0  0  0  0
   -6.8450   20.7310  -32.4250 C   0  0  0  0  0  0  0  0  0  0  0  0
   -8.0790   21.8660  -31.5020 Br  0  0  0  0  0  0  0  0  0  0  0  0
   -3.5530   21.1100  -30.8630 C   0  0  0  0  0  0  0  0  0  0  0  0
   -2.7040   21.9240  -30.1140 C   0  0  0  0  0  0  0  0  0  0  0  0
   -2.8590   23.3170  -30.1150 C   0  0  0  0  0  0  0  0  0  0  0  0
   -1.9360   24.1100  -29.3420 N   0  0  0  0  0  0  0  0  0  0  0  0
   -1.6020   23.8480  -27.9320 C   0  0  0  0  0  0  0  0  0  0  0  0
   -0.0670   23.8070  -27.7370 C   0  0  0  0  0  0  0  0  0  0  0  0
    0.4180   23.0460  -26.4890 C   0  0  0  0  0  0  0  0  0  0  0  0
    0.4300   23.8470  -25.1690 C   0  0  0  0  0  0  0  0  0  0  0  0
   -0.8900   24.5670  -24.8340 C   0  0  0  0  0  0  0  0  0  0  0  0
   -1.4420   25.5080  -25.9380 C   0  0  0  0  0  0  0  0  0  0  0  0
   -2.3350   24.8500  -27.0060 C   0  0  0  0  0  0  0  0  0  0  0  0
   -5.5309   25.9739  -29.4100 H   0  0  0  0  0  0  0  0  0  0  0  0
   -5.3981   26.9106  -30.9369 H   0  0  0  0  0  0  0  0  0  0  0  0
   -6.1963   25.3013  -30.9369 H   0  0  0  0  0  0  0  0  0  0  0  0
   -5.5983   23.5086  -32.1732 H   0  0  0  0  0  0  0  0  0  0  0  0
   -6.0215   18.5094  -34.5501 H   0  0  0  0  0  0  0  0  0  0  0  0
   -3.4180   20.0184  -30.8478 H   0  0  0  0  0  0  0  0  0  0  0  0
   -1.9026   21.4672  -29.5148 H   0  0  0  0  0  0  0  0  0  0  0  0
   -1.6370   25.0190  -29.7630 H   0  0  0  0  0  0  0  0  0  0  0  0
   -1.9659   22.8517  -27.6404 H   0  0  0  0  0  0  0  0  0  0  0  0
    0.3752   23.3256  -28.6217 H   0  0  0  0  0  0  0  0  0  0  0  0
    0.2500   24.8512  -27.5987 H   0  0  0  0  0  0  0  0  0  0  0  0
   -0.2403   22.1760  -26.3486 H   0  0  0  0  0  0  0  0  0  0  0  0
    1.4686   22.7885  -26.6888 H   0  0  0  0  0  0  0  0  0  0  0  0
    0.6566   23.1501  -24.3487 H   0  0  0  0  0  0  0  0  0  0  0  0
    1.1876   24.6348  -25.2936 H   0  0  0  0  0  0  0  0  0  0  0  0
   -1.6518   23.7996  -24.6320 H   0  0  0  0  0  0  0  0  0  0  0  0
   -0.6687   25.2134  -23.9719 H   0  0  0  0  0  0  0  0  0  0  0  0
   -2.0321   26.2945  -25.4448 H   0  0  0  0  0  0  0  0  0  0  0  0
   -0.5587   25.8780  -26.4791 H   0  0  0  0  0  0  0  0  0  0  0  0
   -3.1452   24.3122  -26.4918 H   0  0  0  0  0  0  0  0  0  0  0  0
   -2.6983   25.6628  -27.6521 H   0  0  0  0  0  0  0  0  0  0  0  0
  1  2  1  0
  2  3  1  0
  3  4  2  0
  4  5  1  0
  5  6  1  0
  6  7  1  0
  7  8  1  0
  8  9  2  0
  9 10  1  0
 10 11  1  0
  5 12  2  0
 12 13  1  0
 13 14  2  0
 14 15  1  0
 15 16  1  0
 16 17  1  0
 17 18  1  0
 18 19  1  0
 19 20  1  0
 20 21  1  0
 21 22  1  0
 14  3  1  0
 22 16  1  0
 10  6  2  0
  1 23  1  0
  1 24  1  0
  1 25  1  0
  4 26  1  0
  8 27  1  0
 12 28  1  0
 13 29  1  0
 15 30  1  0
 16 31  1  0
 17 32  1  0
 17 33  1  0
 18 34  1  0
 18 35  1  0
 19 36  1  0
 19 37  1  0
 20 38  1  0
 20 39  1  0
 21 40  1  0
 21 41  1  0
 22 42  1  0
 22 43  1  0
M  END
>  <UniqueID>  (24) 
24

>  <SMILES>  (24) 
COc1cc(-c2ocnc2Br)ccc1NC1CCCCCC1

>  <Energy>  (24) 
88.83027111831603

>  <Genealogy>  (24) 
COc1cc(-c2ocnc2Br)ccc1NC1CCCCCC1 (3D coordinates assigned)
COc1cc(-c2ocnc2Br)ccc1NC1CCCCCC1 (nonaromatic ring conformer: 88.83027111831603 kcal/mol)

>  <smiles>  (24) 
COc1cc(-c2ocnc2Br)ccc1NC1CCCCCC1

>  <score_type>  (24) 
oracle

>  <origin>  (24) 
adg

>  <m_score__min__energy>  (24) 
-6.96

>  <m_primary>  (24) 
energy

$$$$
24:0
     RDKit          3D

 38 40  0  0  0  0  0  0  0  0999 V2000
    0.0840   25.8700  -25.5040 C   0  0  0  0  0  0  0  0  0  0  0  0
   -1.0590   25.3050  -26.2950 C   0  0  0  0  0  0  0  0  0  0  0  0
   -2.3760   25.4660  -25.8480 C   0  0  0  0  0  0  0  0  0  0  0  0
   -3.4420   24.9820  -26.6070 C   0  0  0  0  0  0  0  0  0  0  0  0
   -3.2120   24.3480  -27.8350 C   0  0  0  0  0  0  0  0  0  0  0  0
   -4.3390   23.8820  -28.5930 N   0  0  0  0  0  0  0  0  0  0  0  0
   -4.5360   24.2370  -29.9710 C   0  0  0  0  0  0  0  0  0  0  0  0
   -3.8680   25.1830  -30.4710 O   0  0  0  0  0  0  0  0  0  0  0  0
   -5.5360   23.5270  -30.8050 C   0  0  0  0  0  0  0  0  0  0  0  0
   -6.8680   23.9720  -30.8650 C   0  0  0  0  0  0  0  0  0  0  0  0
   -7.8060   23.2910  -31.6420 C   0  0  0  0  0  0  0  0  0  0  0  0
   -7.4310   22.1560  -32.3640 C   0  0  0  0  0  0  0  0  0  0  0  0
   -6.1070   21.6860  -32.3160 C   0  0  0  0  0  0  0  0  0  0  0  0
   -5.7200   20.5130  -33.0600 N   0  0  0  0  0  0  0  0  0  0  0  0
   -6.5060   19.6750  -33.7660 C   0  0  0  0  0  0  0  0  0  0  0  0
   -5.7820   18.6880  -34.3270 N   0  0  0  0  0  0  0  0  0  0  0  0
   -4.5180   18.8880  -33.9850 N   0  0  0  0  0  0  0  0  0  0  0  0
   -4.4860   19.9930  -33.2160 C   0  0  0  0  0  0  0  0  0  0  0  0
   -5.1680   22.3780  -31.5280 C   0  0  0  0  0  0  0  0  0  0  0  0
   -1.8830   24.1530  -28.2830 C   0  0  0  0  0  0  0  0  0  0  0  0
   -1.5780   23.4220  -29.5620 C   0  0  0  0  0  0  0  0  0  0  0  0
   -0.8200   24.6630  -27.5190 C   0  0  0  0  0  0  0  0  0  0  0  0
   -0.1268   25.7658  -24.4294 H   0  0  0  0  0  0  0  0  0  0  0  0
    1.0064   25.3241  -25.7513 H   0  0  0  0  0  0  0  0  0  0  0  0
    0.2104   26.9344  -25.7513 H   0  0  0  0  0  0  0  0  0  0  0  0
   -2.5713   25.9767  -24.8935 H   0  0  0  0  0  0  0  0  0  0  0  0
   -4.4717   25.0992  -26.2381 H   0  0  0  0  0  0  0  0  0  0  0  0
   -5.1410   23.4680  -28.0670 H   0  0  0  0  0  0  0  0  0  0  0  0
   -7.1729   24.8626  -30.2959 H   0  0  0  0  0  0  0  0  0  0  0  0
   -8.8450   23.6497  -31.6859 H   0  0  0  0  0  0  0  0  0  0  0  0
   -8.1769   21.6260  -32.9746 H   0  0  0  0  0  0  0  0  0  0  0  0
   -7.5957   19.7835  -33.8700 H   0  0  0  0  0  0  0  0  0  0  0  0
   -3.5723   20.4161  -32.7730 H   0  0  0  0  0  0  0  0  0  0  0  0
   -4.1310   22.0147  -31.4769 H   0  0  0  0  0  0  0  0  0  0  0  0
   -1.1642   22.4301  -29.3277 H   0  0  0  0  0  0  0  0  0  0  0  0
   -2.5023   23.3048  -30.1467 H   0  0  0  0  0  0  0  0  0  0  0  0
   -0.8445   23.9965  -30.1467 H   0  0  0  0  0  0  0  0  0  0  0  0
    0.2119   24.5576  -27.8850 H   0  0  0  0  0  0  0  0  0  0  0  0
  1  2  1  0
  2  3  2  0
  3  4  1  0
  4  5  2  0
  5  6  1  0
  6  7  1  0
  7  8  2  0
  7  9  1  0
  9 10  2  0
 10 11  1  0
 11 12  2  0
 12 13  1  0
 13 14  1  0
 14 15  1  0
 15 16  2  0
 16 17  1  0
 17 18  2  0
 13 19  2  0
  5 20  1  0
 20 21  1  0
 20 22  2  0
 22  2  1  0
 19  9  1  0
 18 14  1  0
  1 23  1  0
  1 24  1  0
  1 25  1  0
  3 26  1  0
  4 27  1  0
  6 28  1  0
 10 29  1  0
 11 30  1  0
 12 31  1  0
 15 32  1  0
 18 33  1  0
 19 34  1  0
 21 35  1  0
 21 36  1  0
 21 37  1  0
 22 38  1  0
M  END
>  <UniqueID>  (25) 
25

>  <SMILES>  (25) 
Cc1ccc(NC(=O)c2cccc(-n3cnnc3)c2)c(C)c1

>  <Energy>  (25) 
84.90647767638222

>  <Genealogy>  (25) 
Cc1ccc(NC(=O)c2cccc(-n3cnnc3)c2)c(C)c1 (3D coordinates assigned)
Cc1ccc(NC(=O)c2cccc(-n3cnnc3)c2)c(C)c1 (optimized conformer: 84.90647767638222 kcal/mol)

>  <smiles>  (25) 
Cc1ccc(NC(=O)c2cccc(-n3cnnc3)c2)c(C)c1

>  <score_type>  (25) 
oracle

>  <origin>  (25) 
adg

>  <m_score__min__energy>  (25) 
-8.9199999999999999

>  <m_primary>  (25) 
energy

$$$$
25:0
     RDKit          3D

 39 40  0  0  0  0  0  0  0  0999 V2000
   -4.5700   15.1520  -32.3400 C   0  0  0  0  0  0  0  0  0  0  0  0
   -5.3680   15.5790  -33.1370 C   0  0  0  0  0  0  0  0  0  0  0  0
   -6.3380   16.0940  -34.1090 C   0  0  0  0  0  0  0  0  0  0  0  0
   -7.2590   16.9790  -33.4720 O   0  0  0  0  0  0  0  0  0  0  0  0
   -6.9790   18.2980  -33.0780 C   0  0  0  0  0  0  0  0  0  0  0  0
   -5.9560   19.0660  -33.6670 C   0  0  0  0  0  0  0  0  0  0  0  0
   -5.7200   20.3760  -33.2370 C   0  0  0  0  0  0  0  0  0  0  0  0
   -6.5080   20.9420  -32.2240 C   0  0  0  0  0  0  0  0  0  0  0  0
   -6.2480   22.3500  -31.7460 C   0  0  0  0  0  0  0  0  0  0  0  0
   -5.0880   22.3910  -30.8340 N   0  0  0  0  0  0  0  0  0  0  0  0
   -3.8020   22.2380  -31.5250 C   0  0  0  0  0  0  0  0  0  0  0  0
   -2.7360   22.9200  -30.6600 C   0  0  2  0  0  0  0  0  0  0  0  0
   -1.7780   21.9860  -30.2340 O   0  0  0  0  0  0  0  0  0  0  0  0
   -3.4970   23.5060  -29.4710 C   0  0  1  0  0  0  0  0  0  0  0  0
   -2.9820   24.7620  -29.1110 O   0  0  0  0  0  0  0  0  0  0  0  0
   -4.9590   23.5550  -29.9360 C   0  0  1  0  0  0  0  0  0  0  0  0
   -5.3500   24.9180  -30.5790 C   0  0  0  0  0  0  0  0  0  0  0  0
   -4.2290   25.6180  -31.0520 O   0  0  0  0  0  0  0  0  0  0  0  0
   -7.5170   20.1710  -31.6280 C   0  0  0  0  0  0  0  0  0  0  0  0
   -7.7520   18.8620  -32.0570 C   0  0  0  0  0  0  0  0  0  0  0  0
   -3.8421   14.7625  -31.6130 H   0  0  0  0  0  0  0  0  0  0  0  0
   -5.8030   16.6371  -34.9020 H   0  0  0  0  0  0  0  0  0  0  0  0
   -6.8950   15.2487  -34.5393 H   0  0  0  0  0  0  0  0  0  0  0  0
   -5.3396   18.6337  -34.4690 H   0  0  0  0  0  0  0  0  0  0  0  0
   -4.9123   20.9653  -33.6956 H   0  0  0  0  0  0  0  0  0  0  0  0
   -6.0460   22.9937  -32.6148 H   0  0  0  0  0  0  0  0  0  0  0  0
   -7.1354   22.7060  -31.2021 H   0  0  0  0  0  0  0  0  0  0  0  0
   -3.5635   21.1708  -31.6446 H   0  0  0  0  0  0  0  0  0  0  0  0
   -3.8410   22.6929  -32.5258 H   0  0  0  0  0  0  0  0  0  0  0  0
   -2.1891   23.6977  -31.2133 H   0  0  0  0  0  0  0  0  0  0  0  0
   -1.5480   22.2260  -29.2980 H   0  0  0  0  0  0  0  0  0  0  0  0
   -3.3995   22.9035  -28.5559 H   0  0  0  0  0  0  0  0  0  0  0  0
   -3.7660   25.3480  -28.9430 H   0  0  0  0  0  0  0  0  0  0  0  0
   -5.6724   23.4914  -29.1011 H   0  0  0  0  0  0  0  0  0  0  0  0
   -6.0326   24.7305  -31.4209 H   0  0  0  0  0  0  0  0  0  0  0  0
   -5.8321   25.5327  -29.8046 H   0  0  0  0  0  0  0  0  0  0  0  0
   -3.5180   24.9460  -31.2210 H   0  0  0  0  0  0  0  0  0  0  0  0
   -8.1265   20.5991  -30.8186 H   0  0  0  0  0  0  0  0  0  0  0  0
   -8.5516   18.2698  -31.5880 H   0  0  0  0  0  0  0  0  0  0  0  0
  1  2  3  0
  2  3  1  0
  3  4  1  0
  4  5  1  0
  5  6  2  0
  6  7  1  0
  7  8  2  0
  8  9  1  0
  9 10  1  0
 10 11  1  0
 11 12  1  0
 12 13  1  0
 12 14  1  0
 14 15  1  0
 14 16  1  0
 16 17  1  0
 17 18  1  0
  8 19  1  0
 19 20  2  0
 20  5  1  0
 16 10  1  0
  1 21  1  0
  3 22  1  0
  3 23  1  0
  6 24  1  0
  7 25  1  0
  9 26  1  0
  9 27  1  0
 11 28  1  0
 11 29  1  0
 12 30  1  6
 13 31  1  0
 14 32  1  1
 15 33  1  0
 16 34  1  1
 17 35  1  0
 17 36  1  0
 18 37  1  0
 19 38  1  0
 20 39  1  0
M  END
>  <UniqueID>  (26) 
26

>  <SMILES>  (26) 
C#CCOc1ccc(CN2C[C@H](O)[C@@H](O)C2CO)cc1

>  <Energy>  (26) 
46.299449082658654

>  <Genealogy>  (26) 
C#CCOc1ccc(CN2C[C@H](O)[C@@H](O)C2CO)cc1 (chirality)
C#CCOc1ccc(CN2C[C@H](O)[C@@H](O)C2CO)cc1 (3D coordinates assigned)
C#CCOc1ccc(CN2C[C@H](O)[C@@H](O)C2CO)cc1 (nonaromatic ring conformer: 46.299449082658654 kcal/mol)

>  <smiles>  (26) 
C#CCOc1ccc(CN2CC(O)C(O)C2CO)cc1

>  <score_type>  (26) 
oracle

>  <origin>  (26) 
adg

>  <m_score__min__energy>  (26) 
-6.5599999999999996

>  <m_primary>  (26) 
energy

$$$$
26:0
     RDKit          3D

 55 59  0  0  0  0  0  0  0  0999 V2000
    0.0770   27.2480  -23.3630 C   0  0  0  0  0  0  0  0  0  0  0  0
   -0.2330   27.6860  -24.6830 O   0  0  0  0  0  0  0  0  0  0  0  0
   -0.7980   26.8710  -25.6740 C   0  0  0  0  0  0  0  0  0  0  0  0
   -0.3420   27.0090  -26.9900 C   0  0  0  0  0  0  0  0  0  0  0  0
   -0.8740   26.2210  -28.0140 C   0  0  0  0  0  0  0  0  0  0  0  0
   -1.8830   25.2830  -27.7420 C   0  0  0  0  0  0  0  0  0  0  0  0
   -2.4140   24.4720  -28.8080 N   0  0  0  0  0  0  0  0  0  0  0  0
   -3.3490   24.8980  -29.6660 N   0  0  0  0  0  0  0  0  0  0  0  0
   -3.5660   23.8380  -30.4680 C   0  0  0  0  0  0  0  0  0  0  0  0
   -4.4280   23.6790  -31.5000 N   0  0  0  0  0  0  0  0  0  0  0  0
   -4.1620   22.3790  -31.8290 C   0  0  0  0  0  0  0  0  0  0  0  0
   -4.7570   21.6230  -32.8350 C   0  0  0  0  0  0  0  0  0  0  0  0
   -4.3390   20.2740  -32.9970 C   0  0  0  0  0  0  0  0  0  0  0  0
   -4.9070   19.4230  -34.0120 N   0  0  0  0  0  0  0  0  0  0  0  0
   -6.1140   18.6140  -33.8400 C   0  0  0  0  0  0  0  0  0  0  0  0
   -6.8600   19.0240  -32.5630 C   0  0  0  0  0  0  0  0  0  0  0  0
   -7.9940   20.0190  -32.8580 C   0  0  0  0  0  0  0  0  0  0  0  0
   -8.4910   20.6460  -31.6100 N   0  0  0  0  0  0  0  0  0  0  0  0
   -7.4590   21.4850  -30.9860 C   0  0  0  0  0  0  0  0  0  0  0  0
   -7.6110   22.8890  -31.5420 C   0  0  0  0  0  0  0  0  0  0  0  0
   -9.0570   22.9810  -31.9850 C   0  0  0  0  0  0  0  0  0  0  0  0
   -9.6120   21.5650  -31.8730 C   0  0  0  0  0  0  0  0  0  0  0  0
   -3.3470   19.7370  -32.1310 C   0  0  0  0  0  0  0  0  0  0  0  0
   -2.7620   20.5200  -31.1190 C   0  0  0  0  0  0  0  0  0  0  0  0
   -3.1960   21.8320  -31.0090 C   0  0  0  0  0  0  0  0  0  0  0  0
   -2.8400   22.7880  -30.1580 N   0  0  0  0  0  0  0  0  0  0  0  0
   -2.1140   23.1770  -29.1100 C   0  0  0  0  0  0  0  0  0  0  0  0
   -1.3210   22.4330  -28.4740 O   0  0  0  0  0  0  0  0  0  0  0  0
   -2.3320   25.1320  -26.4170 C   0  0  0  0  0  0  0  0  0  0  0  0
   -1.7980   25.9210  -25.3930 C   0  0  0  0  0  0  0  0  0  0  0  0
   -0.3983   27.9195  -22.6328 H   0  0  0  0  0  0  0  0  0  0  0  0
   -0.2988   26.2243  -23.2186 H   0  0  0  0  0  0  0  0  0  0  0  0
    1.1674   27.2621  -23.2186 H   0  0  0  0  0  0  0  0  0  0  0  0
    0.4426   27.7447  -27.2204 H   0  0  0  0  0  0  0  0  0  0  0  0
   -0.4993   26.3364  -29.0417 H   0  0  0  0  0  0  0  0  0  0  0  0
   -5.5294   22.0575  -33.4867 H   0  0  0  0  0  0  0  0  0  0  0  0
   -4.4220   19.3600  -34.9360 H   0  0  0  0  0  0  0  0  0  0  0  0
   -6.7743   18.7604  -34.7075 H   0  0  0  0  0  0  0  0  0  0  0  0
   -5.8238   17.5562  -33.7577 H   0  0  0  0  0  0  0  0  0  0  0  0
   -7.2881   18.1245  -32.0965 H   0  0  0  0  0  0  0  0  0  0  0  0
   -6.1413   19.5148  -31.8902 H   0  0  0  0  0  0  0  0  0  0  0  0
   -7.6172   20.8046  -33.5295 H   0  0  0  0  0  0  0  0  0  0  0  0
   -8.8243   19.4731  -33.3298 H   0  0  0  0  0  0  0  0  0  0  0  0
   -7.5948   21.4971  -29.8945 H   0  0  0  0  0  0  0  0  0  0  0  0
   -6.4559   21.0897  -31.2039 H   0  0  0  0  0  0  0  0  0  0  0  0
   -7.3962   23.6377  -30.7653 H   0  0  0  0  0  0  0  0  0  0  0  0
   -6.9123   23.0837  -32.3690 H   0  0  0  0  0  0  0  0  0  0  0  0
   -9.6163   23.6654  -31.3301 H   0  0  0  0  0  0  0  0  0  0  0  0
   -9.1444   23.3722  -33.0094 H   0  0  0  0  0  0  0  0  0  0  0  0
  -10.3360   21.5140  -31.0465 H   0  0  0  0  0  0  0  0  0  0  0  0
  -10.1207   21.2833  -32.8067 H   0  0  0  0  0  0  0  0  0  0  0  0
   -3.0314   18.6905  -32.2546 H   0  0  0  0  0  0  0  0  0  0  0  0
   -1.9950   20.1097  -30.4456 H   0  0  0  0  0  0  0  0  0  0  0  0
   -3.1085   24.3882  -26.1849 H   0  0  0  0  0  0  0  0  0  0  0  0
   -2.1616   25.7984  -24.3621 H   0  0  0  0  0  0  0  0  0  0  0  0
  1  2  1  0
  2  3  1  0
  3  4  2  0
  4  5  1  0
  5  6  2  0
  6  7  1  0
  7  8  1  0
  8  9  2  0
  9 10  1  0
 10 11  1  0
 11 12  2  0
 12 13  1  0
 13 14  1  0
 14 15  1  0
 15 16  1  0
 16 17  1  0
 17 18  1  0
 18 19  1  0
 19 20  1  0
 20 21  1  0
 21 22  1  0
 13 23  2  0
 23 24  1  0
 24 25  2  0
 25 26  1  0
 26 27  1  0
 27 28  2  0
  6 29  1  0
 29 30  2  0
 30  3  1  0
 27  7  1  0
 26  9  1  0
 25 11  1  0
 22 18  1  0
  1 31  1  0
  1 32  1  0
  1 33  1  0
  4 34  1  0
  5 35  1  0
 12 36  1  0
 14 37  1  0
 15 38  1  0
 15 39  1  0
 16 40  1  0
 16 41  1  0
 17 42  1  0
 17 43  1  0
 19 44  1  0
 19 45  1  0
 20 46  1  0
 20 47  1  0
 21 48  1  0
 21 49  1  0
 22 50  1  0
 22 51  1  0
 23 52  1  0
 24 53  1  0
 29 54  1  0
 30 55  1  0
M  CHG  1  10  -1
M  END
>  <UniqueID>  (27) 
27

>  <SMILES>  (27) 
COc1ccc(-n2nc3[n-]c4cc(NCCCN5CCCC5)ccc4n3c2=O)cc1

>  <Energy>  (27) 
169.56722123237694

>  <Genealogy>  (27) 
COc1ccc(-n2nc3[n-]c4cc(NCCCN5CCCC5)ccc4n3c2=O)cc1 (protonated)
COc1ccc(-n2nc3[n-]c4cc(NCCCN5CCCC5)ccc4n3c2=O)cc1 (3D coordinates assigned)
COc1ccc(-n2nc3[n-]c4cc(NCCCN5CCCC5)ccc4n3c2=O)cc1 (nonaromatic ring conformer: 169.56722123237694 kcal/mol)

>  <smiles>  (27) 
COc1ccc(-n2nc3[nH]c4cc(NCCCN5CCCC5)ccc4n3c2=O)cc1

>  <score_type>  (27) 
oracle

>  <origin>  (27) 
adg

>  <m_score__min__energy>  (27) 
-9.6400000000000006

>  <m_primary>  (27) 
energy

$$$$
27:0
     RDKit          3D

 39 41  0  0  0  0  0  0  0  0999 V2000
   -3.4040   19.5880  -32.8500 C   0  0  0  0  0  0  0  0  0  0  0  0
   -3.6870   20.5980  -31.8880 O   0  0  0  0  0  0  0  0  0  0  0  0
   -2.7190   21.2470  -31.1040 C   0  0  0  0  0  0  0  0  0  0  0  0
   -1.4210   20.7210  -30.9420 C   0  0  0  0  0  0  0  0  0  0  0  0
   -0.4910   21.3680  -30.1250 C   0  0  0  0  0  0  0  0  0  0  0  0
   -0.8420   22.5430  -29.4600 C   0  0  0  0  0  0  0  0  0  0  0  0
   -2.1210   23.0800  -29.6150 C   0  0  0  0  0  0  0  0  0  0  0  0
   -3.0620   22.4490  -30.4450 C   0  0  0  0  0  0  0  0  0  0  0  0
   -4.4100   23.0410  -30.5890 C   0  0  0  0  0  0  0  0  0  0  0  0
   -5.4990   22.2220  -30.6820 N   0  0  0  0  0  0  0  0  0  0  0  0
   -6.7650   22.7180  -30.8120 C   0  0  0  0  0  0  0  0  0  0  0  0
   -7.9300   21.7780  -30.9690 C   0  0  0  0  0  0  0  0  0  0  0  0
   -7.5410   20.6160  -31.8400 C   0  0  0  0  0  0  0  0  0  0  0  0
   -6.7800   20.8250  -33.0020 C   0  0  0  0  0  0  0  0  0  0  0  0
   -6.3860   19.7390  -33.7910 C   0  0  0  0  0  0  0  0  0  0  0  0
   -6.7410   18.4390  -33.4200 C   0  0  0  0  0  0  0  0  0  0  0  0
   -7.4860   18.2220  -32.2590 C   0  0  0  0  0  0  0  0  0  0  0  0
   -7.8830   19.3050  -31.4670 C   0  0  0  0  0  0  0  0  0  0  0  0
   -6.9670   24.1030  -30.8640 C   0  0  0  0  0  0  0  0  0  0  0  0
   -5.8730   24.9600  -30.7540 C   0  0  0  0  0  0  0  0  0  0  0  0
   -4.5890   24.4370  -30.6060 C   0  0  0  0  0  0  0  0  0  0  0  0
   -3.5080   25.3010  -30.4650 O   0  0  0  0  0  0  0  0  0  0  0  0
   -3.1420   18.6528  -32.3335 H   0  0  0  0  0  0  0  0  0  0  0  0
   -4.2905   19.4230  -33.4800 H   0  0  0  0  0  0  0  0  0  0  0  0
   -2.5608   19.9076  -33.4800 H   0  0  0  0  0  0  0  0  0  0  0  0
   -1.1386   19.7942  -31.4629 H   0  0  0  0  0  0  0  0  0  0  0  0
    0.5196   20.9504  -30.0058 H   0  0  0  0  0  0  0  0  0  0  0  0
   -0.1096   23.0472  -28.8124 H   0  0  0  0  0  0  0  0  0  0  0  0
   -2.3938   24.0036  -29.0835 H   0  0  0  0  0  0  0  0  0  0  0  0
   -5.3590   21.1860  -30.6710 H   0  0  0  0  0  0  0  0  0  0  0  0
   -8.2333   21.4057  -29.9794 H   0  0  0  0  0  0  0  0  0  0  0  0
   -8.7667   22.3161  -31.4383 H   0  0  0  0  0  0  0  0  0  0  0  0
   -6.4928   21.8463  -33.2927 H   0  0  0  0  0  0  0  0  0  0  0  0
   -5.7964   19.9083  -34.7041 H   0  0  0  0  0  0  0  0  0  0  0  0
   -6.4333   17.5862  -34.0430 H   0  0  0  0  0  0  0  0  0  0  0  0
   -7.7612   17.1979  -31.9666 H   0  0  0  0  0  0  0  0  0  0  0  0
   -8.4644   19.1297  -30.5498 H   0  0  0  0  0  0  0  0  0  0  0  0
   -7.9806   24.5112  -30.9906 H   0  0  0  0  0  0  0  0  0  0  0  0
   -6.0228   26.0493  -30.7840 H   0  0  0  0  0  0  0  0  0  0  0  0
  1  2  1  0
  2  3  1  0
  3  4  2  0
  4  5  1  0
  5  6  2  0
  6  7  1  0
  7  8  2  0
  8  9  1  0
  9 10  2  0
 10 11  1  0
 11 12  1  0
 12 13  1  0
 13 14  2  0
 14 15  1  0
 15 16  2  0
 16 17  1  0
 17 18  2  0
 11 19  2  0
 19 20  1  0
 20 21  2  0
 21 22  1  0
  8  3  1  0
 21  9  1  0
 18 13  1  0
  1 23  1  0
  1 24  1  0
  1 25  1  0
  4 26  1  0
  5 27  1  0
  6 28  1  0
  7 29  1  0
 10 30  1  0
 12 31  1  0
 12 32  1  0
 14 33  1  0
 15 34  1  0
 16 35  1  0
 17 36  1  0
 18 37  1  0
 19 38  1  0
 20 39  1  0
M  CHG  2  10   1  22  -1
M  END
>  <UniqueID>  (28) 
28

>  <SMILES>  (28) 
COc1ccccc1-c1[nH+]c(Cc2ccccc2)ccc1[O-]

>  <Energy>  (28) 
46.722286924059084

>  <Genealogy>  (28) 
COc1ccccc1-c1[nH+]c(Cc2ccccc2)ccc1[O-] (protonated)
COc1ccccc1-c1[nH+]c(Cc2ccccc2)ccc1[O-] (3D coordinates assigned)
COc1ccccc1-c1[nH+]c(Cc2ccccc2)ccc1[O-] (optimized conformer: 46.722286924059084 kcal/mol)

>  <smiles>  (28) 
COc1ccccc1-c1nc(Cc2ccccc2)ccc1O

>  <score_type>  (28) 
oracle

>  <origin>  (28) 
adg

>  <m_score__min__energy>  (28) 
-10.07

>  <m_primary>  (28) 
energy

$$$$
28:0
     RDKit          3D

 26 26  0  0  0  0  0  0  0  0999 V2000
   -6.5320   25.2930  -29.4400 C   0  0  0  0  0  0  0  0  0  0  0  0
   -5.6950   26.0490  -30.4650 C   0  0  0  0  0  0  0  0  0  0  0  0
   -4.4930   25.2750  -30.8020 N   0  0  0  0  0  0  0  0  0  0  0  0
   -4.8180   23.8640  -31.0580 C   0  0  0  0  0  0  0  0  0  0  0  0
   -5.8000   23.7250  -32.2300 C   0  0  0  0  0  0  0  0  0  0  0  0
   -6.5850   22.4360  -32.1480 C   0  0  0  0  0  0  0  0  0  0  0  0
   -7.9200   22.4820  -31.7070 C   0  0  0  0  0  0  0  0  0  0  0  0
   -8.6890   21.3190  -31.6450 C   0  0  0  0  0  0  0  0  0  0  0  0
   -8.1390   20.0940  -32.0260 C   0  0  0  0  0  0  0  0  0  0  0  0
   -9.1090   18.6340  -31.9480 Cl  0  0  0  0  0  0  0  0  0  0  0  0
   -6.8160   20.0320  -32.4720 C   0  0  0  0  0  0  0  0  0  0  0  0
   -6.0350   21.1920  -32.5390 C   0  0  0  0  0  0  0  0  0  0  0  0
   -4.3760   21.0370  -33.1080 Cl  0  0  0  0  0  0  0  0  0  0  0  0
   -6.2158   25.5786  -28.4259 H   0  0  0  0  0  0  0  0  0  0  0  0
   -7.5942   25.5439  -29.5771 H   0  0  0  0  0  0  0  0  0  0  0  0
   -6.3902   24.2108  -29.5771 H   0  0  0  0  0  0  0  0  0  0  0  0
   -6.2916   26.2098  -31.3751 H   0  0  0  0  0  0  0  0  0  0  0  0
   -5.3931   27.0178  -30.0405 H   0  0  0  0  0  0  0  0  0  0  0  0
   -4.0990   25.6750  -31.6860 H   0  0  0  0  0  0  0  0  0  0  0  0
   -3.8925   23.3205  -31.2988 H   0  0  0  0  0  0  0  0  0  0  0  0
   -5.2896   23.4458  -30.1565 H   0  0  0  0  0  0  0  0  0  0  0  0
   -6.5015   24.5721  -32.2104 H   0  0  0  0  0  0  0  0  0  0  0  0
   -5.2208   23.7163  -33.1651 H   0  0  0  0  0  0  0  0  0  0  0  0
   -8.3621   23.4439  -31.4081 H   0  0  0  0  0  0  0  0  0  0  0  0
   -9.7307   21.3678  -31.2951 H   0  0  0  0  0  0  0  0  0  0  0  0
   -6.3854   19.0654  -32.7724 H   0  0  0  0  0  0  0  0  0  0  0  0
  1  2  1  0
  2  3  1  0
  3  4  1  0
  4  5  1  0
  5  6  1  0
  6  7  2  0
  7  8  1  0
  8  9  2  0
  9 10  1  0
  9 11  1  0
 11 12  2  0
 12 13  1  0
 12  6  1  0
  1 14  1  0
  1 15  1  0
  1 16  1  0
  2 17  1  0
  2 18  1  0
  3 19  1  0
  4 20  1  0
  4 21  1  0
  5 22  1  0
  5 23  1  0
  7 24  1  0
  8 25  1  0
 11 26  1  0
M  END
>  <UniqueID>  (29) 
29

>  <SMILES>  (29) 
CCNCCc1ccc(Cl)cc1Cl

>  <Energy>  (29) 
19.315303096111464

>  <Genealogy>  (29) 
CCNCCc1ccc(Cl)cc1Cl (3D coordinates assigned)
CCNCCc1ccc(Cl)cc1Cl (optimized conformer: 19.315303096111464 kcal/mol)

>  <smiles>  (29) 
CCNCCc1ccc(Cl)cc1Cl

>  <score_type>  (29) 
oracle

>  <origin>  (29) 
adg

>  <m_score__min__energy>  (29) 
-6.9800000000000004

>  <m_primary>  (29) 
energy

$$$$
29:0
     RDKit          3D

 41 44  0  0  0  0  0  0  0  0999 V2000
   -1.1040   26.3330  -26.5320 C   0  0  0  0  0  0  0  0  0  0  0  0
   -2.2350   25.8010  -25.9080 C   0  0  0  0  0  0  0  0  0  0  0  0
   -3.0570   24.9030  -26.5950 C   0  0  0  0  0  0  0  0  0  0  0  0
   -2.7600   24.5400  -27.9200 C   0  0  0  0  0  0  0  0  0  0  0  0
   -3.6090   23.5750  -28.6500 C   0  0  0  0  0  0  0  0  0  0  0  0
   -3.2890   22.2730  -28.8080 N   0  0  0  0  0  0  0  0  0  0  0  0
   -4.2390   21.7240  -29.5560 N   0  0  0  0  0  0  0  0  0  0  0  0
   -5.1340   22.6990  -29.8100 C   0  0  0  0  0  0  0  0  0  0  0  0
   -4.7720   23.8580  -29.2710 N   0  0  0  0  0  0  0  0  0  0  0  0
   -5.3160   25.1040  -29.7970 C   0  0  0  0  0  0  0  0  0  0  0  0
   -5.3380   25.0580  -31.2150 O   0  0  0  0  0  0  0  0  0  0  0  0
   -5.9760   23.8980  -31.7720 C   0  0  0  0  0  0  0  0  0  0  0  0
   -6.2390   22.6800  -30.8180 C   0  0  1  0  0  0  0  0  0  0  0  0
   -6.3260   21.3690  -31.5240 N   0  0  0  0  0  0  0  0  0  0  0  0
   -5.2840   21.2270  -32.5790 C   0  0  0  0  0  0  0  0  0  0  0  0
   -5.5690   20.0670  -33.5620 C   0  0  0  0  0  0  0  0  0  0  0  0
   -6.5420   19.0520  -32.9590 C   0  0  0  0  0  0  0  0  0  0  0  0
   -7.8640   19.7280  -32.5650 C   0  0  0  0  0  0  0  0  0  0  0  0
   -7.6640   21.1920  -32.1360 C   0  0  0  0  0  0  0  0  0  0  0  0
   -1.6090   25.0640  -28.5320 C   0  0  0  0  0  0  0  0  0  0  0  0
   -0.7900   25.9620  -27.8420 C   0  0  0  0  0  0  0  0  0  0  0  0
   -0.4609   27.0437  -25.9923 H   0  0  0  0  0  0  0  0  0  0  0  0
   -2.4790   26.0891  -24.8748 H   0  0  0  0  0  0  0  0  0  0  0  0
   -3.9407   24.4783  -26.0962 H   0  0  0  0  0  0  0  0  0  0  0  0
   -6.3400   25.2433  -29.4202 H   0  0  0  0  0  0  0  0  0  0  0  0
   -4.6837   25.9428  -29.4706 H   0  0  0  0  0  0  0  0  0  0  0  0
   -6.9496   24.2186  -32.1711 H   0  0  0  0  0  0  0  0  0  0  0  0
   -5.2605   23.5182  -32.5162 H   0  0  0  0  0  0  0  0  0  0  0  0
   -7.2260   22.7849  -30.3439 H   0  0  0  0  0  0  0  0  0  0  0  0
   -5.2342   22.1657  -33.1503 H   0  0  0  0  0  0  0  0  0  0  0  0
   -4.3337   21.0017  -32.0729 H   0  0  0  0  0  0  0  0  0  0  0  0
   -6.0062   20.4781  -34.4839 H   0  0  0  0  0  0  0  0  0  0  0  0
   -4.6203   19.5529  -33.7759 H   0  0  0  0  0  0  0  0  0  0  0  0
   -6.7466   18.2650  -33.6998 H   0  0  0  0  0  0  0  0  0  0  0  0
   -6.0851   18.6202  -32.0564 H   0  0  0  0  0  0  0  0  0  0  0  0
   -8.5459   19.7018  -33.4277 H   0  0  0  0  0  0  0  0  0  0  0  0
   -8.2810   19.1793  -31.7077 H   0  0  0  0  0  0  0  0  0  0  0  0
   -7.7489   21.8437  -33.0181 H   0  0  0  0  0  0  0  0  0  0  0  0
   -8.4342   21.4573  -31.3968 H   0  0  0  0  0  0  0  0  0  0  0  0
   -1.3512   24.7661  -29.5590 H   0  0  0  0  0  0  0  0  0  0  0  0
    0.1034   26.3775  -28.3311 H   0  0  0  0  0  0  0  0  0  0  0  0
  1  2  2  0
  2  3  1  0
  3  4  2  0
  4  5  1  0
  5  6  2  0
  6  7  1  0
  7  8  2  0
  8  9  1  0
  9 10  1  0
 10 11  1  0
 11 12  1  0
 12 13  1  0
 13 14  1  0
 14 15  1  0
 15 16  1  0
 16 17  1  0
 17 18  1  0
 18 19  1  0
  4 20  1  0
 20 21  2  0
 21  1  1  0
  9  5  1  0
 19 14  1  0
 13  8  1  0
  1 22  1  0
  2 23  1  0
  3 24  1  0
 10 25  1  0
 10 26  1  0
 12 27  1  0
 12 28  1  0
 13 29  1  1
 15 30  1  0
 15 31  1  0
 16 32  1  0
 16 33  1  0
 17 34  1  0
 17 35  1  0
 18 36  1  0
 18 37  1  0
 19 38  1  0
 19 39  1  0
 20 40  1  0
 21 41  1  0
M  END
>  <UniqueID>  (30) 
30

>  <SMILES>  (30) 
c1ccc(-c2nnc3n2COC[C@H]3N2CCCCC2)cc1

>  <Energy>  (30) 
110.77119152903356

>  <Genealogy>  (30) 
c1ccc(-c2nnc3n2COC[C@H]3N2CCCCC2)cc1 (chirality)
c1ccc(-c2nnc3n2COC[C@H]3N2CCCCC2)cc1 (3D coordinates assigned)
c1ccc(-c2nnc3n2COC[C@H]3N2CCCCC2)cc1 (nonaromatic ring conformer: 110.77119152903356 kcal/mol)

>  <smiles>  (30) 
c1ccc(-c2nnc3n2COCC3N2CCCCC2)cc1

>  <score_type>  (30) 
oracle

>  <origin>  (30) 
adg

>  <m_score__min__energy>  (30) 
-7.4800000000000004

>  <m_primary>  (30) 
energy

$$$$
30:0
     RDKit          3D

 86 87  0  0  0  0  0  0  0  0999 V2000
   -3.9020   21.8960  -33.0920 C   0  0  0  0  0  0  0  0  0  0  0  0
   -3.5330   21.5280  -31.6600 C   0  0  0  0  0  0  0  0  0  0  0  0
   -2.0710   21.8900  -31.3590 C   0  0  0  0  0  0  0  0  0  0  0  0
   -1.8490   22.3920  -29.9200 C   0  0  0  0  0  0  0  0  0  0  0  0
   -2.9700   22.0330  -28.9250 C   0  0  0  0  0  0  0  0  0  0  0  0
   -3.8010   23.2490  -28.4840 C   0  0  0  0  0  0  0  0  0  0  0  0
   -3.3460   24.5170  -29.2220 C   0  0  0  0  0  0  0  0  0  0  0  0
   -4.2970   24.9350  -30.3550 C   0  0  0  0  0  0  0  0  0  0  0  0
   -5.7300   25.2120  -29.8610 C   0  0  0  0  0  0  0  0  0  0  0  0
   -6.6910   24.0360  -30.1080 C   0  0  0  0  0  0  0  0  0  0  0  0
   -6.3450   23.1580  -31.3300 C   0  0  0  0  0  0  0  0  0  0  0  0
   -7.4900   23.0420  -32.3610 C   0  0  0  0  0  0  0  0  0  0  0  0
   -8.8680   23.0020  -31.6760 C   0  0  0  0  0  0  0  0  0  0  0  0
   -9.6580   21.7170  -31.9660 C   0  0  0  0  0  0  0  0  0  0  0  0
   -9.0630   20.4850  -31.2640 C   0  0  0  0  0  0  0  0  0  0  0  0
   -8.3730   19.5950  -32.2470 C   0  0  0  0  0  0  0  0  0  0  0  0
   -8.0780   20.0290  -33.3960 O   0  0  0  0  0  0  0  0  0  0  0  0
   -8.1010   18.2710  -31.8910 O   0  0  0  0  0  0  0  0  0  0  0  0
   -6.9090   17.8680  -31.2290 C   0  0  0  0  0  0  0  0  0  0  0  0
   -5.5850   19.0290  -31.6850 S   0  0  0  0  0  0  0  0  0  0  0  0
   -5.4050   18.3880  -33.3510 C   0  0  0  0  0  0  0  0  0  0  0  0
   -6.4370   18.0290  -34.1460 N   0  0  0  0  0  0  0  0  0  0  0  0
   -5.9210   17.4880  -35.2110 O   0  0  0  0  0  0  0  0  0  0  0  0
   -4.6230   17.4640  -35.1580 N   0  0  0  0  0  0  0  0  0  0  0  0
   -3.8090   16.8980  -36.1120 O   0  0  0  0  0  0  0  0  0  0  0  0
   -4.2370   18.0290  -33.9990 C   0  0  0  0  0  0  0  0  0  0  0  0
   -2.8480   18.1280  -33.5040 C   0  0  0  0  0  0  0  0  0  0  0  0
   -2.0870   19.2770  -33.7640 C   0  0  0  0  0  0  0  0  0  0  0  0
   -0.7680   19.3720  -33.3140 C   0  0  0  0  0  0  0  0  0  0  0  0
   -0.1900   18.3200  -32.5820 C   0  0  0  0  0  0  0  0  0  0  0  0
    1.1220   18.3760  -32.0900 O   0  0  0  0  0  0  0  0  0  0  0  0
    1.5110   18.8120  -30.7860 C   0  0  0  0  0  0  0  0  0  0  0  0
    0.3210   19.4210  -30.0260 C   0  0  0  0  0  0  0  0  0  0  0  0
    0.3270   19.0100  -28.6060 N   0  0  0  0  0  0  0  0  0  0  0  0
   -0.9520   19.3370  -27.9440 C   0  0  0  0  0  0  0  0  0  0  0  0
    0.5650   17.5610  -28.5070 C   0  0  0  0  0  0  0  0  0  0  0  0
   -0.9460   17.1660  -32.3420 C   0  0  0  0  0  0  0  0  0  0  0  0
   -2.2650   17.0680  -32.7950 C   0  0  0  0  0  0  0  0  0  0  0  0
   -4.6808   22.6727  -33.0819 H   0  0  0  0  0  0  0  0  0  0  0  0
   -3.0115   22.2764  -33.6139 H   0  0  0  0  0  0  0  0  0  0  0  0
   -4.2800   21.0045  -33.6139 H   0  0  0  0  0  0  0  0  0  0  0  0
   -4.1892   22.0753  -30.9673 H   0  0  0  0  0  0  0  0  0  0  0  0
   -3.6590   20.4426  -31.5331 H   0  0  0  0  0  0  0  0  0  0  0  0
   -1.4508   20.9951  -31.5157 H   0  0  0  0  0  0  0  0  0  0  0  0
   -1.7939   22.7116  -32.0359 H   0  0  0  0  0  0  0  0  0  0  0  0
   -0.9099   21.9567  -29.5477 H   0  0  0  0  0  0  0  0  0  0  0  0
   -1.8286   23.4903  -29.9771 H   0  0  0  0  0  0  0  0  0  0  0  0
   -3.6420   21.3052  -29.4032 H   0  0  0  0  0  0  0  0  0  0  0  0
   -2.4890   21.6222  -28.0251 H   0  0  0  0  0  0  0  0  0  0  0  0
   -4.8614   23.0618  -28.7087 H   0  0  0  0  0  0  0  0  0  0  0  0
   -3.6595   23.3998  -27.4036 H   0  0  0  0  0  0  0  0  0  0  0  0
   -3.2848   25.3408  -28.4957 H   0  0  0  0  0  0  0  0  0  0  0  0
   -2.3708   24.2953  -29.6801 H   0  0  0  0  0  0  0  0  0  0  0  0
   -3.9042   25.8492  -30.8241 H   0  0  0  0  0  0  0  0  0  0  0  0
   -4.3487   24.0996  -31.0687 H   0  0  0  0  0  0  0  0  0  0  0  0
   -5.6949   25.4145  -28.7804 H   0  0  0  0  0  0  0  0  0  0  0  0
   -6.1122   26.0730  -30.4289 H   0  0  0  0  0  0  0  0  0  0  0  0
   -6.6834   23.3952  -29.2140 H   0  0  0  0  0  0  0  0  0  0  0  0
   -7.6750   24.4810  -30.3171 H   0  0  0  0  0  0  0  0  0  0  0  0
   -5.4689   23.5936  -31.8327 H   0  0  0  0  0  0  0  0  0  0  0  0
   -6.1526   22.1436  -30.9505 H   0  0  0  0  0  0  0  0  0  0  0  0
   -7.4519   23.9099  -33.0358 H   0  0  0  0  0  0  0  0  0  0  0  0
   -7.3562   22.1038  -32.9194 H   0  0  0  0  0  0  0  0  0  0  0  0
   -8.7192   23.0817  -30.5890 H   0  0  0  0  0  0  0  0  0  0  0  0
   -9.4546   23.8409  -32.0787 H   0  0  0  0  0  0  0  0  0  0  0  0
  -10.6930   21.8541  -31.6195 H   0  0  0  0  0  0  0  0  0  0  0  0
   -9.6132   21.5363  -33.0501 H   0  0  0  0  0  0  0  0  0  0  0  0
   -8.3373   20.8169  -30.5068 H   0  0  0  0  0  0  0  0  0  0  0  0
   -9.8798   19.9206  -30.7904 H   0  0  0  0  0  0  0  0  0  0  0  0
   -7.0629   17.8879  -30.1400 H   0  0  0  0  0  0  0  0  0  0  0  0
   -6.6363   16.8448  -31.5270 H   0  0  0  0  0  0  0  0  0  0  0  0
   -7.4590   18.1390  -33.9590 H   0  0  0  0  0  0  0  0  0  0  0  0
   -2.5325   20.1104  -34.3270 H   0  0  0  0  0  0  0  0  0  0  0  0
   -0.1786   20.2745  -33.5335 H   0  0  0  0  0  0  0  0  0  0  0  0
    1.8959   17.9511  -30.2197 H   0  0  0  0  0  0  0  0  0  0  0  0
    2.2876   19.5836  -30.8936 H   0  0  0  0  0  0  0  0  0  0  0  0
    0.3826   20.5178  -30.0824 H   0  0  0  0  0  0  0  0  0  0  0  0
   -0.6094   19.0606  -30.4891 H   0  0  0  0  0  0  0  0  0  0  0  0
   -0.8191   19.3030  -26.8526 H   0  0  0  0  0  0  0  0  0  0  0  0
   -1.2723   20.3459  -28.2432 H   0  0  0  0  0  0  0  0  0  0  0  0
   -1.7172   18.6056  -28.2432 H   0  0  0  0  0  0  0  0  0  0  0  0
    0.6130   17.2688  -27.4476 H   0  0  0  0  0  0  0  0  0  0  0  0
   -0.2563   17.0200  -28.9997 H   0  0  0  0  0  0  0  0  0  0  0  0
    1.5162   17.3112  -28.9997 H   0  0  0  0  0  0  0  0  0  0  0  0
   -0.4968   16.3268  -31.7906 H   0  0  0  0  0  0  0  0  0  0  0  0
   -2.8473   16.1565  -32.5946 H   0  0  0  0  0  0  0  0  0  0  0  0
  1  2  1  0
  2  3  1  0
  3  4  1  0
  4  5  1  0
  5  6  1  0
  6  7  1  0
  7  8  1  0
  8  9  1  0
  9 10  1  0
 10 11  1  0
 11 12  1  0
 12 13  1  0
 13 14  1  0
 14 15  1  0
 15 16  1  0
 16 17  2  0
 16 18  1  0
 18 19  1  0
 19 20  1  0
 20 21  1  0
 21 22  2  0
 22 23  1  0
 23 24  1  0
 24 25  1  0
 24 26  2  0
 26 27  1  0
 27 28  2  0
 28 29  1  0
 29 30  2  0
 30 31  1  0
 31 32  1  0
 32 33  1  0
 33 34  1  0
 34 35  1  0
 34 36  1  0
 30 37  1  0
 37 38  2  0
 26 21  1  0
 38 27  1  0
  1 39  1  0
  1 40  1  0
  1 41  1  0
  2 42  1  0
  2 43  1  0
  3 44  1  0
  3 45  1  0
  4 46  1  0
  4 47  1  0
  5 48  1  0
  5 49  1  0
  6 50  1  0
  6 51  1  0
  7 52  1  0
  7 53  1  0
  8 54  1  0
  8 55  1  0
  9 56  1  0
  9 57  1  0
 10 58  1  0
 10 59  1  0
 11 60  1  0
 11 61  1  0
 12 62  1  0
 12 63  1  0
 13 64  1  0
 13 65  1  0
 14 66  1  0
 14 67  1  0
 15 68  1  0
 15 69  1  0
 19 70  1  0
 19 71  1  0
 22 72  1  0
 28 73  1  0
 29 74  1  0
 32 75  1  0
 32 76  1  0
 33 77  1  0
 33 78  1  0
 35 79  1  0
 35 80  1  0
 35 81  1  0
 36 82  1  0
 36 83  1  0
 36 84  1  0
 37 85  1  0
 38 86  1  0
M  CHG  3  22   1  24   1  25  -1
M  END
>  <UniqueID>  (31) 
31

>  <SMILES>  (31) 
CCCCCCCCCCCCCCCC(=O)OCSc1[nH+]o[n+]([O-])c1-c1ccc(OCCN(C)C)cc1

>  <Energy>  (31) 
94.30345159369068

>  <Genealogy>  (31) 
CCCCCCCCCCCCCCCC(=O)OCSc1[nH+]o[n+]([O-])c1-c1ccc(OCCN(C)C)cc1 (protonated)
CCCCCCCCCCCCCCCC(=O)OCSc1[nH+]o[n+]([O-])c1-c1ccc(OCCN(C)C)cc1 (3D coordinates assigned)
CCCCCCCCCCCCCCCC(=O)OCSc1[nH+]o[n+]([O-])c1-c1ccc(OCCN(C)C)cc1 (optimized conformer: 94.30345159369068 kcal/mol)

>  <smiles>  (31) 
CCCCCCCCCCCCCCCC(=O)OCSc1no[n+]([O-])c1-c1ccc(OCCN(C)C)cc1

>  <score_type>  (31) 
oracle

>  <origin>  (31) 
adg

>  <m_score__min__energy>  (31) 
-8.9800000000000004

>  <m_primary>  (31) 
energy

$$$$
31:0
     RDKit          3D

 34 35  0  0  0  0  0  0  0  0999 V2000
   -6.3110   26.0490  -29.3200 C   0  0  0  0  0  0  0  0  0  0  0  0
   -5.6440   25.0800  -30.2470 C   0  0  0  0  0  0  0  0  0  0  0  0
   -4.6100   25.4470  -30.8440 O   0  0  0  0  0  0  0  0  0  0  0  0
   -6.2520   23.8110  -30.3710 N   0  0  0  0  0  0  0  0  0  0  0  0
   -5.7260   22.8740  -31.2360 C   0  0  0  0  0  0  0  0  0  0  0  0
   -4.6220   23.4190  -31.8670 O   0  0  0  0  0  0  0  0  0  0  0  0
   -5.8960   21.6180  -31.7070 C   0  0  0  0  0  0  0  0  0  0  0  0
   -7.5750   21.8420  -31.8190 C   0  0  0  0  0  0  0  0  0  0  0  0
   -8.3690   20.9100  -32.2460 C   0  0  0  0  0  0  0  0  0  0  0  0
   -8.0880   19.6210  -32.6740 C   0  0  0  0  0  0  0  0  0  0  0  0
   -6.7300   19.4120  -32.5940 N   0  0  0  0  0  0  0  0  0  0  0  0
   -6.2230   18.1690  -32.9910 C   0  0  0  0  0  0  0  0  0  0  0  0
   -5.8850   17.2680  -32.0010 C   0  0  0  0  0  0  0  0  0  0  0  0
   -5.3730   16.0180  -32.2480 C   0  0  0  0  0  0  0  0  0  0  0  0
   -5.1910   15.6570  -33.5850 C   0  0  0  0  0  0  0  0  0  0  0  0
   -4.6420   14.3110  -33.8660 C   0  0  0  0  0  0  0  0  0  0  0  0
   -5.5320   16.5620  -34.5570 C   0  0  0  0  0  0  0  0  0  0  0  0
   -6.0450   17.8150  -34.3370 C   0  0  0  0  0  0  0  0  0  0  0  0
   -6.0590   20.4050  -32.1610 C   0  0  0  0  0  0  0  0  0  0  0  0
   -4.6880   20.0200  -32.1620 O   0  0  0  0  0  0  0  0  0  0  0  0
   -6.1103   25.7575  -28.2785 H   0  0  0  0  0  0  0  0  0  0  0  0
   -5.9165   27.0598  -29.5003 H   0  0  0  0  0  0  0  0  0  0  0  0
   -7.3961   26.0414  -29.5003 H   0  0  0  0  0  0  0  0  0  0  0  0
   -7.0930   23.6030  -29.8300 H   0  0  0  0  0  0  0  0  0  0  0  0
   -8.0036   22.8098  -31.5194 H   0  0  0  0  0  0  0  0  0  0  0  0
   -9.4337   21.1852  -32.2731 H   0  0  0  0  0  0  0  0  0  0  0  0
   -8.8293   18.8859  -33.0207 H   0  0  0  0  0  0  0  0  0  0  0  0
   -6.0345   17.5689  -30.9536 H   0  0  0  0  0  0  0  0  0  0  0  0
   -5.1172   15.3306  -31.4282 H   0  0  0  0  0  0  0  0  0  0  0  0
   -4.4317   13.7954  -32.9174 H   0  0  0  0  0  0  0  0  0  0  0  0
   -5.3748   13.7296  -34.4447 H   0  0  0  0  0  0  0  0  0  0  0  0
   -3.7116   14.4080  -34.4447 H   0  0  0  0  0  0  0  0  0  0  0  0
   -5.3812   16.2570  -35.6031 H   0  0  0  0  0  0  0  0  0  0  0  0
   -6.3000   18.4972  -35.1614 H   0  0  0  0  0  0  0  0  0  0  0  0
  1  2  1  0
  2  3  2  0
  2  4  1  0
  4  5  1  0
  5  6  2  0
  5  7  1  0
  7  8  2  0
  8  9  1  0
  9 10  2  0
 10 11  1  0
 11 12  1  0
 12 13  2  0
 13 14  1  0
 14 15  2  0
 15 16  1  0
 15 17  1  0
 17 18  2  0
 11 19  1  0
 19 20  2  0
 19  7  1  0
 18 12  1  0
  1 21  1  0
  1 22  1  0
  1 23  1  0
  4 24  1  0
  8 25  1  0
  9 26  1  0
 10 27  1  0
 13 28  1  0
 14 29  1  0
 16 30  1  0
 16 31  1  0
 16 32  1  0
 17 33  1  0
 18 34  1  0
M  END
>  <UniqueID>  (32) 
32

>  <SMILES>  (32) 
CC(=O)NC(=O)c1cccn(-c2ccc(C)cc2)c1=O

>  <Energy>  (32) 
440.6860940522034

>  <Genealogy>  (32) 
CC(=O)NC(=O)c1cccn(-c2ccc(C)cc2)c1=O (3D coordinates assigned)
CC(=O)NC(=O)c1cccn(-c2ccc(C)cc2)c1=O (optimized conformer: 440.6860940522034 kcal/mol)

>  <smiles>  (32) 
CC(=O)NC(=O)c1cccn(-c2ccc(C)cc2)c1=O

>  <score_type>  (32) 
oracle

>  <origin>  (32) 
adg

>  <m_score__min__energy>  (32) 
-7.9900000000000002

>  <m_primary>  (32) 
energy

$$$$
32:0
     RDKit          3D

 41 41  0  0  0  0  0  0  0  0999 V2000
    0.4170   26.4350  -22.9970 N   0  0  0  0  0  0  0  0  0  0  0  0
   -0.1390   27.1140  -24.1700 C   0  0  0  0  0  0  0  0  0  0  0  0
   -1.4360   26.4520  -24.6620 C   0  0  0  0  0  0  0  0  0  0  0  0
   -1.5110   26.3770  -26.1960 C   0  0  0  0  0  0  0  0  0  0  0  0
   -2.4580   25.2700  -26.6920 C   0  0  0  0  0  0  0  0  0  0  0  0
   -2.1720   24.7530  -28.1200 C   0  0  0  0  0  0  0  0  0  0  0  0
   -2.9850   23.5190  -28.5500 C   0  0  0  0  0  0  0  0  0  0  0  0
   -3.3930   23.5450  -30.0250 C   0  0  0  0  0  0  0  0  0  0  0  0
   -3.6840   24.9330  -30.4170 N   0  0  0  0  0  0  0  0  0  0  0  0
   -5.0890   25.2920  -30.1820 C   0  0  0  0  0  0  0  0  0  0  0  0
   -5.9950   24.1800  -30.6450 C   0  0  0  0  0  0  0  0  0  0  0  0
   -6.8110   23.5060  -29.7200 C   0  0  0  0  0  0  0  0  0  0  0  0
   -7.6230   22.4470  -30.1380 C   0  0  0  0  0  0  0  0  0  0  0  0
   -7.6280   22.0540  -31.4790 C   0  0  0  0  0  0  0  0  0  0  0  0
   -6.8170   22.7160  -32.4040 C   0  0  0  0  0  0  0  0  0  0  0  0
   -6.0020   23.7750  -31.9910 C   0  0  0  0  0  0  0  0  0  0  0  0
    1.0280   27.1040  -22.4740 H   0  0  0  0  0  0  0  0  0  0  0  0
   -0.3500   26.1140  -22.3620 H   0  0  0  0  0  0  0  0  0  0  0  0
    1.0010   25.6220  -23.2930 H   0  0  0  0  0  0  0  0  0  0  0  0
   -0.3531   28.1601  -23.9057 H   0  0  0  0  0  0  0  0  0  0  0  0
    0.6019   27.0501  -24.9806 H   0  0  0  0  0  0  0  0  0  0  0  0
   -1.4877   25.4312  -24.2555 H   0  0  0  0  0  0  0  0  0  0  0  0
   -2.2790   27.0675  -24.3149 H   0  0  0  0  0  0  0  0  0  0  0  0
   -1.8697   27.3441  -26.5783 H   0  0  0  0  0  0  0  0  0  0  0  0
   -0.5024   26.1413  -26.5664 H   0  0  0  0  0  0  0  0  0  0  0  0
   -2.3795   24.4190  -25.9995 H   0  0  0  0  0  0  0  0  0  0  0  0
   -3.4622   25.7179  -26.7240 H   0  0  0  0  0  0  0  0  0  0  0  0
   -2.3918   25.5672  -28.8262 H   0  0  0  0  0  0  0  0  0  0  0  0
   -1.1181   24.4380  -28.1231 H   0  0  0  0  0  0  0  0  0  0  0  0
   -2.3757   22.6206  -28.3723 H   0  0  0  0  0  0  0  0  0  0  0  0
   -3.9111   23.5167  -27.9564 H   0  0  0  0  0  0  0  0  0  0  0  0
   -2.5714   23.1521  -30.6419 H   0  0  0  0  0  0  0  0  0  0  0  0
   -4.2867   22.9214  -30.1745 H   0  0  0  0  0  0  0  0  0  0  0  0
   -3.4890   25.0330  -31.4410 H   0  0  0  0  0  0  0  0  0  0  0  0
   -5.2451   25.4640  -29.1068 H   0  0  0  0  0  0  0  0  0  0  0  0
   -5.3251   26.2059  -30.7468 H   0  0  0  0  0  0  0  0  0  0  0  0
   -6.8109   23.8126  -28.6636 H   0  0  0  0  0  0  0  0  0  0  0  0
   -8.2590   21.9223  -29.4098 H   0  0  0  0  0  0  0  0  0  0  0  0
   -8.2706   21.2233  -31.8063 H   0  0  0  0  0  0  0  0  0  0  0  0
   -6.8194   22.4039  -33.4588 H   0  0  0  0  0  0  0  0  0  0  0  0
   -5.3641   24.2929  -32.7223 H   0  0  0  0  0  0  0  0  0  0  0  0
  1  2  1  0
  2  3  1  0
  3  4  1  0
  4  5  1  0
  5  6  1  0
  6  7  1  0
  7  8  1  0
  8  9  1  0
  9 10  1  0
 10 11  1  0
 11 12  2  0
 12 13  1  0
 13 14  2  0
 14 15  1  0
 15 16  2  0
 16 11  1  0
  1 17  1  0
  1 18  1  0
  1 19  1  0
  2 20  1  0
  2 21  1  0
  3 22  1  0
  3 23  1  0
  4 24  1  0
  4 25  1  0
  5 26  1  0
  5 27  1  0
  6 28  1  0
  6 29  1  0
  7 30  1  0
  7 31  1  0
  8 32  1  0
  8 33  1  0
  9 34  1  0
 10 35  1  0
 10 36  1  0
 12 37  1  0
 13 38  1  0
 14 39  1  0
 15 40  1  0
 16 41  1  0
M  CHG  1   1   1
M  END
>  <UniqueID>  (33) 
33

>  <SMILES>  (33) 
[NH3+]CCCCCCCNCc1ccccc1

>  <Energy>  (33) 
26.224217962077212

>  <Genealogy>  (33) 
[NH3+]CCCCCCCNCc1ccccc1 (protonated)
[NH3+]CCCCCCCNCc1ccccc1 (3D coordinates assigned)
[NH3+]CCCCCCCNCc1ccccc1 (optimized conformer: 26.224217962077212 kcal/mol)

>  <smiles>  (33) 
NCCCCCCCNCc1ccccc1

>  <score_type>  (33) 
oracle

>  <origin>  (33) 
adg

>  <m_score__min__energy>  (33) 
-7.3700000000000001

>  <m_primary>  (33) 
energy

$$$$
33:0
     RDKit          3D

 51 54  0  0  0  0  0  0  0  0999 V2000
   -0.4950   26.0300  -23.6510 C   0  0  0  0  0  0  0  0  0  0  0  0
   -0.5000   26.6040  -24.9540 O   0  0  0  0  0  0  0  0  0  0  0  0
   -1.1290   26.0310  -26.0700 C   0  0  0  0  0  0  0  0  0  0  0  0
   -0.5840   26.1060  -27.3650 C   0  0  0  0  0  0  0  0  0  0  0  0
   -1.2500   25.5200  -28.4460 C   0  0  0  0  0  0  0  0  0  0  0  0
   -2.4710   24.8480  -28.2550 C   0  0  0  0  0  0  0  0  0  0  0  0
   -3.1770   24.2250  -29.4030 C   0  0  0  0  0  0  0  0  0  0  0  0
   -2.5960   23.1510  -30.1010 C   0  0  0  0  0  0  0  0  0  0  0  0
   -3.2570   22.5680  -31.1840 C   0  0  0  0  0  0  0  0  0  0  0  0
   -4.5150   23.0450  -31.5910 C   0  0  0  0  0  0  0  0  0  0  0  0
   -5.1750   22.4750  -32.7420 N   0  0  0  0  0  0  0  0  0  0  0  0
   -5.3570   21.0210  -32.5960 C   0  0  0  0  0  0  0  0  0  0  0  0
   -6.8150   20.6410  -32.4140 C   0  0  0  0  0  0  0  0  0  0  0  0
   -7.7200   21.6170  -31.9630 C   0  0  0  0  0  0  0  0  0  0  0  0
   -9.0820   21.3350  -31.8830 C   0  0  0  0  0  0  0  0  0  0  0  0
   -9.5420   20.0780  -32.2650 C   0  0  0  0  0  0  0  0  0  0  0  0
   -8.6660   19.1370  -32.7040 N   0  0  0  0  0  0  0  0  0  0  0  0
   -7.3270   19.3720  -32.7840 C   0  0  0  0  0  0  0  0  0  0  0  0
   -6.4640   18.2870  -33.2860 C   0  0  0  0  0  0  0  0  0  0  0  0
   -5.7880   18.4450  -34.5060 C   0  0  0  0  0  0  0  0  0  0  0  0
   -4.9820   17.4150  -35.0010 C   0  0  0  0  0  0  0  0  0  0  0  0
   -4.8590   16.2180  -34.2890 C   0  0  0  0  0  0  0  0  0  0  0  0
   -5.5470   16.0480  -33.0850 C   0  0  0  0  0  0  0  0  0  0  0  0
   -6.3530   17.0750  -32.5860 C   0  0  0  0  0  0  0  0  0  0  0  0
   -5.0960   24.1180  -30.8970 C   0  0  0  0  0  0  0  0  0  0  0  0
   -4.4350   24.7010  -29.8120 C   0  0  0  0  0  0  0  0  0  0  0  0
   -3.0090   24.7760  -26.9580 C   0  0  0  0  0  0  0  0  0  0  0  0
   -2.3430   25.3640  -25.8780 C   0  0  0  0  0  0  0  0  0  0  0  0
   -0.5020   26.8312  -22.8973 H   0  0  0  0  0  0  0  0  0  0  0  0
   -1.3877   25.3998  -23.5245 H   0  0  0  0  0  0  0  0  0  0  0  0
    0.4085   25.4155  -23.5245 H   0  0  0  0  0  0  0  0  0  0  0  0
    0.3704   26.6280  -27.5279 H   0  0  0  0  0  0  0  0  0  0  0  0
   -0.8154   25.5851  -29.4544 H   0  0  0  0  0  0  0  0  0  0  0  0
   -1.6128   22.7672  -29.7912 H   0  0  0  0  0  0  0  0  0  0  0  0
   -2.7902   21.7299  -31.7222 H   0  0  0  0  0  0  0  0  0  0  0  0
   -6.0990   22.9400  -32.9010 H   0  0  0  0  0  0  0  0  0  0  0  0
   -4.5930   22.6560  -33.5920 H   0  0  0  0  0  0  0  0  0  0  0  0
   -4.9712   20.5234  -33.4980 H   0  0  0  0  0  0  0  0  0  0  0  0
   -4.8099   20.7008  -31.6970 H   0  0  0  0  0  0  0  0  0  0  0  0
   -7.3502   22.6110  -31.6710 H   0  0  0  0  0  0  0  0  0  0  0  0
   -9.7869   22.0982  -31.5215 H   0  0  0  0  0  0  0  0  0  0  0  0
  -10.6160   19.8463  -32.2114 H   0  0  0  0  0  0  0  0  0  0  0  0
   -5.8925   19.3812  -35.0740 H   0  0  0  0  0  0  0  0  0  0  0  0
   -4.4442   17.5467  -35.9515 H   0  0  0  0  0  0  0  0  0  0  0  0
   -4.2207   15.4104  -34.6767 H   0  0  0  0  0  0  0  0  0  0  0  0
   -5.4541   15.1037  -32.5285 H   0  0  0  0  0  0  0  0  0  0  0  0
   -6.9014   16.9335  -31.6430 H   0  0  0  0  0  0  0  0  0  0  0  0
   -6.0781   24.5027  -31.2091 H   0  0  0  0  0  0  0  0  0  0  0  0
   -4.9028   25.5387  -29.2740 H   0  0  0  0  0  0  0  0  0  0  0  0
   -3.9620   24.2526  -26.7913 H   0  0  0  0  0  0  0  0  0  0  0  0
   -2.7776   25.3013  -24.8694 H   0  0  0  0  0  0  0  0  0  0  0  0
  1  2  1  0
  2  3  1  0
  3  4  2  0
  4  5  1  0
  5  6  2  0
  6  7  1  0
  7  8  2  0
  8  9  1  0
  9 10  2  0
 10 11  1  0
 11 12  1  0
 12 13  1  0
 13 14  2  0
 14 15  1  0
 15 16  2  0
 16 17  1  0
 17 18  2  0
 18 19  1  0
 19 20  2  0
 20 21  1  0
 21 22  2  0
 22 23  1  0
 23 24  2  0
 10 25  1  0
 25 26  2  0
  6 27  1  0
 27 28  2  0
 28  3  1  0
 26  7  1  0
 18 13  1  0
 24 19  1  0
  1 29  1  0
  1 30  1  0
  1 31  1  0
  4 32  1  0
  5 33  1  0
  8 34  1  0
  9 35  1  0
 11 36  1  0
 11 37  1  0
 12 38  1  0
 12 39  1  0
 14 40  1  0
 15 41  1  0
 16 42  1  0
 20 43  1  0
 21 44  1  0
 22 45  1  0
 23 46  1  0
 24 47  1  0
 25 48  1  0
 26 49  1  0
 27 50  1  0
 28 51  1  0
M  CHG  1  11   1
M  END
>  <UniqueID>  (34) 
34

>  <SMILES>  (34) 
COc1ccc(-c2ccc([NH2+]Cc3cccnc3-c3ccccc3)cc2)cc1

>  <Energy>  (34) 
68.5461151660812

>  <Genealogy>  (34) 
COc1ccc(-c2ccc([NH2+]Cc3cccnc3-c3ccccc3)cc2)cc1 (protonated)
COc1ccc(-c2ccc([NH2+]Cc3cccnc3-c3ccccc3)cc2)cc1 (3D coordinates assigned)
COc1ccc(-c2ccc([NH2+]Cc3cccnc3-c3ccccc3)cc2)cc1 (optimized conformer: 68.5461151660812 kcal/mol)

>  <smiles>  (34) 
COc1ccc(-c2ccc(NCc3cccnc3-c3ccccc3)cc2)cc1

>  <score_type>  (34) 
oracle

>  <origin>  (34) 
adg

>  <m_score__min__energy>  (34) 
-9.0099999999999998

>  <m_primary>  (34) 
energy

$$$$
34:0
     RDKit          3D

 47 49  0  0  0  0  0  0  0  0999 V2000
   -3.1060   24.4050  -27.8760 C   0  0  0  0  0  0  0  0  0  0  0  0
   -2.5260   24.3680  -29.2870 C   0  0  0  0  0  0  0  0  0  0  0  0
   -3.4850   24.8300  -30.2410 O   0  0  0  0  0  0  0  0  0  0  0  0
   -4.7010   24.1980  -30.5510 C   0  0  0  0  0  0  0  0  0  0  0  0
   -5.7510   24.8500  -31.2270 C   0  0  0  0  0  0  0  0  0  0  0  0
   -6.9340   24.1640  -31.5200 C   0  0  0  0  0  0  0  0  0  0  0  0
   -7.0870   22.8220  -31.1430 C   0  0  0  0  0  0  0  0  0  0  0  0
   -8.5740   21.9650  -31.5450 S   0  0  0  0  0  0  0  0  0  0  0  0
   -9.4720   22.8970  -32.3130 O   0  0  0  0  0  0  0  0  0  0  0  0
   -9.2840   21.5430  -30.2860 O   0  0  0  0  0  0  0  0  0  0  0  0
   -8.1980   20.5570  -32.5140 N   0  0  0  0  0  0  0  0  0  0  0  0
   -8.4170   19.3370  -31.7010 C   0  0  0  0  0  0  0  0  0  0  0  0
   -7.8160   18.0920  -32.3670 C   0  0  0  0  0  0  0  0  0  0  0  0
   -6.4000   18.3080  -32.6760 N   0  0  0  0  0  0  0  0  0  0  0  0
   -5.5920   17.2190  -33.1520 C   0  0  0  0  0  0  0  0  0  0  0  0
   -5.3200   16.1280  -32.3110 C   0  0  0  0  0  0  0  0  0  0  0  0
   -4.5430   15.0590  -32.7720 C   0  0  0  0  0  0  0  0  0  0  0  0
   -4.0330   15.0720  -34.0740 C   0  0  0  0  0  0  0  0  0  0  0  0
   -4.3050   16.1540  -34.9200 C   0  0  0  0  0  0  0  0  0  0  0  0
   -5.0810   17.2270  -34.4640 C   0  0  0  0  0  0  0  0  0  0  0  0
   -5.3620   18.2530  -35.3070 F   0  0  0  0  0  0  0  0  0  0  0  0
   -5.8330   19.6540  -32.5560 C   0  0  0  0  0  0  0  0  0  0  0  0
   -6.8340   20.6740  -33.1110 C   0  0  0  0  0  0  0  0  0  0  0  0
   -6.0450   22.1720  -30.4700 C   0  0  0  0  0  0  0  0  0  0  0  0
   -4.8620   22.8590  -30.1760 C   0  0  0  0  0  0  0  0  0  0  0  0
   -2.2884   24.3528  -27.1420 H   0  0  0  0  0  0  0  0  0  0  0  0
   -3.6667   25.3407  -27.7345 H   0  0  0  0  0  0  0  0  0  0  0  0
   -3.7810   23.5481  -27.7345 H   0  0  0  0  0  0  0  0  0  0  0  0
   -1.6361   25.0133  -29.3284 H   0  0  0  0  0  0  0  0  0  0  0  0
   -2.2570   23.3297  -29.5311 H   0  0  0  0  0  0  0  0  0  0  0  0
   -5.6400   25.9029  -31.5256 H   0  0  0  0  0  0  0  0  0  0  0  0
   -7.7488   24.6799  -32.0490 H   0  0  0  0  0  0  0  0  0  0  0  0
   -8.8960   20.5440  -33.2970 H   0  0  0  0  0  0  0  0  0  0  0  0
   -7.9465   19.4762  -30.7165 H   0  0  0  0  0  0  0  0  0  0  0  0
   -9.5016   19.1820  -31.6029 H   0  0  0  0  0  0  0  0  0  0  0  0
   -7.9108   17.2348  -31.6841 H   0  0  0  0  0  0  0  0  0  0  0  0
   -8.3580   17.8929  -33.3033 H   0  0  0  0  0  0  0  0  0  0  0  0
   -5.7190   16.1134  -31.2860 H   0  0  0  0  0  0  0  0  0  0  0  0
   -4.3331   14.2069  -32.1088 H   0  0  0  0  0  0  0  0  0  0  0  0
   -3.4188   14.2331  -34.4332 H   0  0  0  0  0  0  0  0  0  0  0  0
   -3.9080   16.1613  -35.9458 H   0  0  0  0  0  0  0  0  0  0  0  0
   -5.6310   19.8751  -31.4975 H   0  0  0  0  0  0  0  0  0  0  0  0
   -4.8933   19.7112  -33.1249 H   0  0  0  0  0  0  0  0  0  0  0  0
   -6.4504   21.6845  -32.9070 H   0  0  0  0  0  0  0  0  0  0  0  0
   -6.9345   20.4750  -34.1882 H   0  0  0  0  0  0  0  0  0  0  0  0
   -6.1568   21.1191  -30.1719 H   0  0  0  0  0  0  0  0  0  0  0  0
   -4.0499   22.3413  -29.6445 H   0  0  0  0  0  0  0  0  0  0  0  0
  1  2  1  0
  2  3  1  0
  3  4  1  0
  4  5  2  0
  5  6  1  0
  6  7  2  0
  7  8  1  0
  8  9  2  0
  8 10  2  0
  8 11  1  0
 11 12  1  0
 12 13  1  0
 13 14  1  0
 14 15  1  0
 15 16  2  0
 16 17  1  0
 17 18  2  0
 18 19  1  0
 19 20  2  0
 20 21  1  0
 14 22  1  0
 22 23  1  0
  7 24  1  0
 24 25  2  0
 25  4  1  0
 23 11  1  0
 20 15  1  0
  1 26  1  0
  1 27  1  0
  1 28  1  0
  2 29  1  0
  2 30  1  0
  5 31  1  0
  6 32  1  0
 11 33  1  0
 12 34  1  0
 12 35  1  0
 13 36  1  0
 13 37  1  0
 16 38  1  0
 17 39  1  0
 18 40  1  0
 19 41  1  0
 22 42  1  0
 22 43  1  0
 23 44  1  0
 23 45  1  0
 24 46  1  0
 25 47  1  0
M  CHG  1  11   1
M  END
>  <UniqueID>  (35) 
35

>  <SMILES>  (35) 
CCOc1ccc(S(=O)(=O)[NH+]2CCN(c3ccccc3F)CC2)cc1

>  <Energy>  (35) 
57.075080062590175

>  <Genealogy>  (35) 
CCOc1ccc(S(=O)(=O)[NH+]2CCN(c3ccccc3F)CC2)cc1 (protonated)
CCOc1ccc(S(=O)(=O)[NH+]2CCN(c3ccccc3F)CC2)cc1 (3D coordinates assigned)
CCOc1ccc(S(=O)(=O)[NH+]2CCN(c3ccccc3F)CC2)cc1 (nonaromatic ring conformer: 57.075080062590175 kcal/mol)

>  <smiles>  (35) 
CCOc1ccc(S(=O)(=O)N2CCN(c3ccccc3F)CC2)cc1

>  <score_type>  (35) 
oracle

>  <origin>  (35) 
adg

>  <m_score__min__energy>  (35) 
-8.1899999999999995

>  <m_primary>  (35) 
energy

$$$$
35:0
     RDKit          3D

 46 47  0  0  0  0  0  0  0  0999 V2000
   -0.4898   26.2417  -27.6085 H   0  0  0  0  0  0  0  0  0  0  0  0
   -0.8720   25.3960  -28.1990 C   0  0  0  0  0  0  0  0  0  0  0  0
   -1.9960   25.5400  -28.9430 N   0  0  0  0  0  0  0  0  0  0  0  0
   -2.5270   24.5430  -29.7040 C   0  0  0  0  0  0  0  0  0  0  0  0
   -3.6140   24.8450  -30.3660 N   0  0  0  0  0  0  0  0  0  0  0  0
   -5.0270   24.8300  -30.0000 C   0  0  0  0  0  0  0  0  0  0  0  0
   -5.3107   25.8145  -29.5996 H   0  0  0  0  0  0  0  0  0  0  0  0
   -5.1957   24.0561  -29.2367 H   0  0  0  0  0  0  0  0  0  0  0  0
   -5.8770   24.5190  -31.2280 C   0  0  0  0  0  0  0  0  0  0  0  0
   -5.2216   24.3636  -32.0976 H   0  0  0  0  0  0  0  0  0  0  0  0
   -6.5563   25.3612  -31.4262 H   0  0  0  0  0  0  0  0  0  0  0  0
   -6.6720   23.2900  -30.9820 N   0  0  0  0  0  0  0  0  0  0  0  0
   -7.8680   23.2240  -31.8520 C   0  0  0  0  0  0  0  0  0  0  0  0
   -7.5515   23.2370  -32.9054 H   0  0  0  0  0  0  0  0  0  0  0  0
   -8.5119   24.0905  -31.6410 H   0  0  0  0  0  0  0  0  0  0  0  0
   -8.6530   21.9440  -31.5780 C   0  0  0  0  0  0  0  0  0  0  0  0
   -8.7442   21.7952  -30.4919 H   0  0  0  0  0  0  0  0  0  0  0  0
   -9.6559   22.0267  -32.0223 H   0  0  0  0  0  0  0  0  0  0  0  0
   -8.1246   21.0876  -32.0223 H   0  0  0  0  0  0  0  0  0  0  0  0
   -5.8490   22.0650  -31.0910 C   0  0  0  0  0  0  0  0  0  0  0  0
   -5.1512   22.0194  -30.2419 H   0  0  0  0  0  0  0  0  0  0  0  0
   -6.5105   21.1862  -31.0812 H   0  0  0  0  0  0  0  0  0  0  0  0
   -5.0550   22.0770  -32.3970 C   0  0  0  0  0  0  0  0  0  0  0  0
   -3.9785   22.0933  -32.1715 H   0  0  0  0  0  0  0  0  0  0  0  0
   -5.2940   21.1751  -32.9797 H   0  0  0  0  0  0  0  0  0  0  0  0
   -5.3211   22.9712  -32.9797 H   0  0  0  0  0  0  0  0  0  0  0  0
   -1.8660   23.2680  -29.7180 C   0  0  0  0  0  0  0  0  0  0  0  0
   -2.3580   22.0310  -30.4300 C   0  0  0  0  0  0  0  0  0  0  0  0
   -3.0164   22.3230  -31.2614 H   0  0  0  0  0  0  0  0  0  0  0  0
   -1.5000   21.4674  -30.8251 H   0  0  0  0  0  0  0  0  0  0  0  0
   -3.0830   21.2160  -29.5120 O   0  0  0  0  0  0  0  0  0  0  0  0
   -2.4960   20.3290  -28.5990 C   0  0  0  0  0  0  0  0  0  0  0  0
   -1.2450   19.7840  -28.9140 C   0  0  0  0  0  0  0  0  0  0  0  0
   -0.7583   20.0473  -29.8647 H   0  0  0  0  0  0  0  0  0  0  0  0
   -0.6100   18.9070  -28.0280 C   0  0  0  0  0  0  0  0  0  0  0  0
    0.3744   18.4865  -28.2814 H   0  0  0  0  0  0  0  0  0  0  0  0
   -1.2260   18.5650  -26.8210 C   0  0  0  0  0  0  0  0  0  0  0  0
   -0.7265   17.8754  -26.1246 H   0  0  0  0  0  0  0  0  0  0  0  0
   -2.4760   19.0990  -26.4990 C   0  0  0  0  0  0  0  0  0  0  0  0
   -2.9605   18.8276  -25.5495 H   0  0  0  0  0  0  0  0  0  0  0  0
   -3.1130   19.9780  -27.3810 C   0  0  0  0  0  0  0  0  0  0  0  0
   -4.0973   20.3962  -27.1238 H   0  0  0  0  0  0  0  0  0  0  0  0
   -0.7040   23.1200  -28.9340 C   0  0  0  0  0  0  0  0  0  0  0  0
   -0.1836   22.1511  -28.9149 H   0  0  0  0  0  0  0  0  0  0  0  0
   -0.2050   24.1800  -28.1840 C   0  0  0  0  0  0  0  0  0  0  0  0
    0.7092   24.0551  -27.5852 H   0  0  0  0  0  0  0  0  0  0  0  0
  1  2  1  0
  2  3  1  0
  3  4  1  0
  4  5  2  0
  5  6  1  0
  6  7  1  0
  6  8  1  0
  6  9  1  0
  9 10  1  0
  9 11  1  0
  9 12  1  0
 12 13  1  0
 13 14  1  0
 13 15  1  0
 13 16  1  0
 16 17  1  0
 16 18  1  0
 16 19  1  0
 12 20  1  0
 20 21  1  0
 20 22  1  0
 20 23  1  0
 23 24  1  0
 23 25  1  0
 23 26  1  0
  4 27  1  0
 27 28  1  0
 28 29  1  0
 28 30  1  0
 28 31  1  0
 31 32  1  0
 32 33  2  0
 33 34  1  0
 33 35  1  0
 35 36  1  0
 35 37  2  0
 37 38  1  0
 37 39  1  0
 39 40  1  0
 39 41  2  0
 41 42  1  0
 27 43  2  0
 43 44  1  0
 43 45  1  0
 45 46  1  0
 45  2  2  0
 41 32  1  0
M  CHG  1   3  -1
M  END
>  <UniqueID>  (36) 
36

>  <SMILES>  (36) 
CCN(CC)CC/N=c1/[n-]cccc1COc1ccccc1

>  <Energy>  (36) 
53.916287847687755

>  <Genealogy>  (36) 
CCN(CC)CCN=c1[n-]cccc1COc1ccccc1 (protonated)
CCN(CC)CC/N=c1/[n-]cccc1COc1ccccc1 (cis-trans isomerization)
CCN(CC)CC/N=c1/[n-]cccc1COc1ccccc1 (3D coordinates assigned)
CCN(CC)CC/N=c1/[n-]cccc1COc1ccccc1 (optimized conformer: 53.916287847687755 kcal/mol)

>  <smiles>  (36) 
CCN(CC)CCN=c1[nH]cccc1COc1ccccc1

>  <score_type>  (36) 
oracle

>  <origin>  (36) 
adg

>  <m_score__min__energy>  (36) 
-8.0099999999999998

>  <m_primary>  (36) 
energy

$$$$
36:0
     RDKit          3D

 42 43  0  0  0  0  0  0  0  0999 V2000
   -1.8480   21.4920  -31.6250 C   0  0  0  0  0  0  0  0  0  0  0  0
   -2.5260   21.5490  -32.9900 C   0  0  0  0  0  0  0  0  0  0  0  0
   -3.9370   21.1160  -32.9000 N   0  0  0  0  0  0  0  0  0  0  0  0
   -4.3330   19.8720  -33.3630 C   0  0  0  0  0  0  0  0  0  0  0  0
   -3.1880   18.7350  -34.1710 S   0  0  0  0  0  0  0  0  0  0  0  0
   -4.4850   17.7970  -35.0550 C   0  0  0  0  0  0  0  0  0  0  0  0
   -4.7440   16.4560  -34.3520 C   0  0  0  0  0  0  0  0  0  0  0  0
   -5.3750   16.6260  -33.0210 N   0  0  0  0  0  0  0  0  0  0  0  0
   -6.8470   16.6850  -33.1190 C   0  0  0  0  0  0  0  0  0  0  0  0
   -4.9850   15.5140  -32.1370 C   0  0  0  0  0  0  0  0  0  0  0  0
   -5.6230   19.4650  -33.2270 N   0  0  0  0  0  0  0  0  0  0  0  0
   -6.5290   20.2920  -32.6650 C   0  0  0  0  0  0  0  0  0  0  0  0
   -8.1550   19.9740  -32.4310 S   0  0  0  0  0  0  0  0  0  0  0  0
   -8.4850   21.4810  -31.7380 C   0  0  0  0  0  0  0  0  0  0  0  0
   -9.8400   21.9000  -31.2640 C   0  0  0  0  0  0  0  0  0  0  0  0
   -7.3090   22.2480  -31.6890 C   0  0  0  0  0  0  0  0  0  0  0  0
   -7.2400   23.6440  -31.1330 C   0  0  0  0  0  0  0  0  0  0  0  0
   -6.2010   21.5520  -32.2230 C   0  0  0  0  0  0  0  0  0  0  0  0
   -4.8690   21.9700  -32.3490 C   0  0  0  0  0  0  0  0  0  0  0  0
   -4.5300   23.1220  -31.9570 O   0  0  0  0  0  0  0  0  0  0  0  0
   -2.6099   21.5561  -30.8342 H   0  0  0  0  0  0  0  0  0  0  0  0
   -1.2978   20.5444  -31.5282 H   0  0  0  0  0  0  0  0  0  0  0  0
   -1.1473   22.3344  -31.5282 H   0  0  0  0  0  0  0  0  0  0  0  0
   -2.4901   22.5819  -33.3665 H   0  0  0  0  0  0  0  0  0  0  0  0
   -1.9945   20.8707  -33.6736 H   0  0  0  0  0  0  0  0  0  0  0  0
   -5.4141   18.3858  -35.0677 H   0  0  0  0  0  0  0  0  0  0  0  0
   -4.1485   17.6030  -36.0842 H   0  0  0  0  0  0  0  0  0  0  0  0
   -5.4099   15.8494  -34.9834 H   0  0  0  0  0  0  0  0  0  0  0  0
   -3.7717   15.9642  -34.2009 H   0  0  0  0  0  0  0  0  0  0  0  0
   -5.0330   17.5140  -32.5830 H   0  0  0  0  0  0  0  0  0  0  0  0
   -7.2813   16.7024  -32.1085 H   0  0  0  0  0  0  0  0  0  0  0  0
   -7.1422   17.5957  -33.6607 H   0  0  0  0  0  0  0  0  0  0  0  0
   -7.2141   15.8008  -33.6607 H   0  0  0  0  0  0  0  0  0  0  0  0
   -5.0939   15.8245  -31.0874 H   0  0  0  0  0  0  0  0  0  0  0  0
   -5.6325   14.6463  -32.3318 H   0  0  0  0  0  0  0  0  0  0  0  0
   -3.9374   15.2408  -32.3318 H   0  0  0  0  0  0  0  0  0  0  0  0
   -9.8582   21.9056  -30.1642 H   0  0  0  0  0  0  0  0  0  0  0  0
  -10.0639   22.9094  -31.6396 H   0  0  0  0  0  0  0  0  0  0  0  0
  -10.5946   21.1932  -31.6396 H   0  0  0  0  0  0  0  0  0  0  0  0
   -7.2421   23.6014  -30.0338 H   0  0  0  0  0  0  0  0  0  0  0  0
   -6.3167   24.1314  -31.4793 H   0  0  0  0  0  0  0  0  0  0  0  0
   -8.1108   24.2201  -31.4793 H   0  0  0  0  0  0  0  0  0  0  0  0
  1  2  1  0
  2  3  1  0
  3  4  1  0
  4  5  1  0
  5  6  1  0
  6  7  1  0
  7  8  1  0
  8  9  1  0
  8 10  1  0
  4 11  2  0
 11 12  1  0
 12 13  1  0
 13 14  1  0
 14 15  1  0
 14 16  2  0
 16 17  1  0
 16 18  1  0
 18 19  1  0
 19 20  2  0
 19  3  1  0
 18 12  2  0
  1 21  1  0
  1 22  1  0
  1 23  1  0
  2 24  1  0
  2 25  1  0
  6 26  1  0
  6 27  1  0
  7 28  1  0
  7 29  1  0
  8 30  1  0
  9 31  1  0
  9 32  1  0
  9 33  1  0
 10 34  1  0
 10 35  1  0
 10 36  1  0
 15 37  1  0
 15 38  1  0
 15 39  1  0
 17 40  1  0
 17 41  1  0
 17 42  1  0
M  CHG  1   8   1
M  END
>  <UniqueID>  (37) 
37

>  <SMILES>  (37) 
CCn1c(SCC[NH+](C)C)nc2sc(C)c(C)c2c1=O

>  <Energy>  (37) 
72.19832569002779

>  <Genealogy>  (37) 
CCn1c(SCC[NH+](C)C)nc2sc(C)c(C)c2c1=O (protonated)
CCn1c(SCC[NH+](C)C)nc2sc(C)c(C)c2c1=O (3D coordinates assigned)
CCn1c(SCC[NH+](C)C)nc2sc(C)c(C)c2c1=O (optimized conformer: 72.19832569002779 kcal/mol)

>  <smiles>  (37) 
CCn1c(SCCN(C)C)nc2sc(C)c(C)c2c1=O

>  <score_type>  (37) 
oracle

>  <origin>  (37) 
adg

>  <m_score__min__energy>  (37) 
-6.6100000000000003

>  <m_primary>  (37) 
energy

$$$$
37:0
     RDKit          3D

 41 42  0  0  0  0  0  0  0  0999 V2000
   -6.8460   15.4570  -34.2000 C   0  0  0  0  0  0  0  0  0  0  0  0
   -5.6580   16.3800  -34.2110 C   0  0  0  0  0  0  0  0  0  0  0  0
   -4.4110   15.8840  -34.6280 C   0  0  0  0  0  0  0  0  0  0  0  0
   -3.2780   16.7030  -34.6090 C   0  0  0  0  0  0  0  0  0  0  0  0
   -1.5880   16.0080  -35.1630 Br  0  0  0  0  0  0  0  0  0  0  0  0
   -3.3800   18.0270  -34.1750 C   0  0  0  0  0  0  0  0  0  0  0  0
   -4.6160   18.5390  -33.7760 C   0  0  0  0  0  0  0  0  0  0  0  0
   -5.7650   17.7370  -33.8180 C   0  0  0  0  0  0  0  0  0  0  0  0
   -7.0200   18.3060  -33.4160 N   0  0  0  0  0  0  0  0  0  0  0  0
   -7.5130   18.2110  -32.0720 C   0  0  0  0  0  0  0  0  0  0  0  0
   -6.9260   17.4830  -31.2260 O   0  0  0  0  0  0  0  0  0  0  0  0
   -8.7130   19.0040  -31.6600 C   0  0  0  0  0  0  0  0  0  0  0  0
   -8.4140   20.4400  -31.7540 N   0  0  0  0  0  0  0  0  0  0  0  0
   -9.1170   21.3790  -30.8770 C   0  0  0  0  0  0  0  0  0  0  0  0
   -7.2600   20.9020  -32.4830 C   0  0  0  0  0  0  0  0  0  0  0  0
   -7.2200   20.7640  -33.7370 O   0  0  0  0  0  0  0  0  0  0  0  0
   -6.1090   21.5280  -31.7950 C   0  0  0  0  0  0  0  0  0  0  0  0
   -5.0170   20.7500  -31.3830 C   0  0  0  0  0  0  0  0  0  0  0  0
   -3.9270   21.3480  -30.7470 C   0  0  0  0  0  0  0  0  0  0  0  0
   -3.9110   22.7270  -30.5260 C   0  0  0  0  0  0  0  0  0  0  0  0
   -4.9900   23.5270  -30.9440 C   0  0  0  0  0  0  0  0  0  0  0  0
   -4.9760   24.9500  -30.7220 N   0  0  0  0  0  0  0  0  0  0  0  0
   -3.9190   25.6030  -30.8420 O   0  0  0  0  0  0  0  0  0  0  0  0
   -6.1300   25.6140  -30.3740 O   0  0  0  0  0  0  0  0  0  0  0  0
   -6.0830   22.9180  -31.5850 C   0  0  0  0  0  0  0  0  0  0  0  0
   -7.1295   15.2367  -33.1603 H   0  0  0  0  0  0  0  0  0  0  0  0
   -7.6896   15.9390  -34.7159 H   0  0  0  0  0  0  0  0  0  0  0  0
   -6.5875   14.5205  -34.7159 H   0  0  0  0  0  0  0  0  0  0  0  0
   -4.3256   14.8427  -34.9722 H   0  0  0  0  0  0  0  0  0  0  0  0
   -2.4856   18.6667  -34.1476 H   0  0  0  0  0  0  0  0  0  0  0  0
   -4.6888   19.5793  -33.4261 H   0  0  0  0  0  0  0  0  0  0  0  0
   -7.6590   18.6700  -34.1580 H   0  0  0  0  0  0  0  0  0  0  0  0
   -9.5565   18.7620  -32.3232 H   0  0  0  0  0  0  0  0  0  0  0  0
   -8.9760   18.7539  -30.6216 H   0  0  0  0  0  0  0  0  0  0  0  0
   -8.9208   21.1170  -29.8268 H   0  0  0  0  0  0  0  0  0  0  0  0
   -8.7601   22.4009  -31.0727 H   0  0  0  0  0  0  0  0  0  0  0  0
  -10.1981   21.3244  -31.0727 H   0  0  0  0  0  0  0  0  0  0  0  0
   -5.0192   19.6646  -31.5616 H   0  0  0  0  0  0  0  0  0  0  0  0
   -3.0778   20.7306  -30.4188 H   0  0  0  0  0  0  0  0  0  0  0  0
   -3.0498   23.1902  -30.0222 H   0  0  0  0  0  0  0  0  0  0  0  0
   -6.9270   23.5356  -31.9259 H   0  0  0  0  0  0  0  0  0  0  0  0
  1  2  1  0
  2  3  2  0
  3  4  1  0
  4  5  1  0
  4  6  2  0
  6  7  1  0
  7  8  2  0
  8  9  1  0
  9 10  1  0
 10 11  2  0
 10 12  1  0
 12 13  1  0
 13 14  1  0
 13 15  1  0
 15 16  2  0
 15 17  1  0
 17 18  2  0
 18 19  1  0
 19 20  2  0
 20 21  1  0
 21 22  1  0
 22 23  2  0
 22 24  1  0
 21 25  2  0
  8  2  1  0
 25 17  1  0
  1 26  1  0
  1 27  1  0
  1 28  1  0
  3 29  1  0
  6 30  1  0
  7 31  1  0
  9 32  1  0
 12 33  1  0
 12 34  1  0
 14 35  1  0
 14 36  1  0
 14 37  1  0
 18 38  1  0
 19 39  1  0
 20 40  1  0
 25 41  1  0
M  CHG  2  22   1  24  -1
M  END
>  <UniqueID>  (38) 
38

>  <SMILES>  (38) 
Cc1cc(Br)ccc1NC(=O)CN(C)C(=O)c1cccc([N+](=O)[O-])c1

>  <Energy>  (38) 
48.79508375857402

>  <Genealogy>  (38) 
Cc1cc(Br)ccc1NC(=O)CN(C)C(=O)c1cccc([N+](=O)[O-])c1 (3D coordinates assigned)
Cc1cc(Br)ccc1NC(=O)CN(C)C(=O)c1cccc([N+](=O)[O-])c1 (optimized conformer: 48.79508375857402 kcal/mol)

>  <smiles>  (38) 
Cc1cc(Br)ccc1NC(=O)CN(C)C(=O)c1cccc([N+](=O)[O-])c1

>  <score_type>  (38) 
oracle

>  <origin>  (38) 
adg

>  <m_score__min__energy>  (38) 
-9.6500000000000004

>  <m_primary>  (38) 
energy

$$$$
38:0
     RDKit          3D

 56 58  0  0  0  0  0  0  0  0999 V2000
   -0.9200   26.4510  -28.2040 C   0  0  0  0  0  0  0  0  0  0  0  0
   -1.6580   25.4420  -28.8860 O   0  0  0  0  0  0  0  0  0  0  0  0
   -1.5380   24.0630  -28.6420 C   0  0  0  0  0  0  0  0  0  0  0  0
   -0.3430   23.3600  -28.9040 C   0  0  0  0  0  0  0  0  0  0  0  0
   -0.2600   21.9860  -28.6500 C   0  0  0  0  0  0  0  0  0  0  0  0
   -1.3630   21.3010  -28.1290 C   0  0  0  0  0  0  0  0  0  0  0  0
   -2.5540   21.9870  -27.8690 C   0  0  0  0  0  0  0  0  0  0  0  0
   -2.6450   23.3650  -28.1190 C   0  0  0  0  0  0  0  0  0  0  0  0
   -4.2110   24.2130  -27.8340 S   0  0  0  0  0  0  0  0  0  0  0  0
   -5.0560   23.5510  -29.3220 C   0  0  0  0  0  0  0  0  0  0  0  0
   -4.4050   23.9950  -30.6430 C   0  0  1  0  0  0  0  0  0  0  0  0
   -3.8780   25.2850  -30.4520 O   0  0  0  0  0  0  0  0  0  0  0  0
   -3.2790   23.0240  -31.0770 C   0  0  0  0  0  0  0  0  0  0  0  0
   -3.7950   21.6920  -31.4940 N   0  0  0  0  0  0  0  0  0  0  0  0
   -5.0810   21.8120  -32.2490 C   0  0  0  0  0  0  0  0  0  0  0  0
   -5.2340   20.8100  -33.4130 C   0  0  0  0  0  0  0  0  0  0  0  0
   -4.5930   19.5370  -33.0790 N   0  0  0  0  0  0  0  0  0  0  0  0
   -5.2660   18.2940  -33.3290 C   0  0  0  0  0  0  0  0  0  0  0  0
   -4.6160   17.2800  -34.0500 C   0  0  0  0  0  0  0  0  0  0  0  0
   -5.2670   16.0720  -34.3100 C   0  0  0  0  0  0  0  0  0  0  0  0
   -6.5670   15.8630  -33.8480 C   0  0  0  0  0  0  0  0  0  0  0  0
   -7.2210   16.8580  -33.1210 C   0  0  0  0  0  0  0  0  0  0  0  0
   -6.5750   18.0840  -32.8500 C   0  0  0  0  0  0  0  0  0  0  0  0
   -7.1920   19.1020  -32.1050 O   0  0  0  0  0  0  0  0  0  0  0  0
   -8.5930   19.1940  -31.8680 C   0  0  0  0  0  0  0  0  0  0  0  0
   -3.2140   19.5380  -32.5780 C   0  0  0  0  0  0  0  0  0  0  0  0
   -2.7530   20.9670  -32.2590 C   0  0  0  0  0  0  0  0  0  0  0  0
   -1.0232   26.3099  -27.1180 H   0  0  0  0  0  0  0  0  0  0  0  0
    0.1416   26.3810  -28.4836 H   0  0  0  0  0  0  0  0  0  0  0  0
   -1.3083   27.4415  -28.4836 H   0  0  0  0  0  0  0  0  0  0  0  0
    0.5283   23.8947  -29.3101 H   0  0  0  0  0  0  0  0  0  0  0  0
    0.6738   21.4440  -28.8603 H   0  0  0  0  0  0  0  0  0  0  0  0
   -1.2936   20.2225  -27.9237 H   0  0  0  0  0  0  0  0  0  0  0  0
   -3.4224   21.4444  -27.4671 H   0  0  0  0  0  0  0  0  0  0  0  0
   -5.0349   22.4522  -29.2750 H   0  0  0  0  0  0  0  0  0  0  0  0
   -6.0818   23.9480  -29.3162 H   0  0  0  0  0  0  0  0  0  0  0  0
   -5.1625   23.9932  -31.4406 H   0  0  0  0  0  0  0  0  0  0  0  0
   -3.7830   25.4290  -29.4720 H   0  0  0  0  0  0  0  0  0  0  0  0
   -2.7361   23.4711  -31.9228 H   0  0  0  0  0  0  0  0  0  0  0  0
   -2.6232   22.8678  -30.2078 H   0  0  0  0  0  0  0  0  0  0  0  0
   -3.9750   21.1300  -30.6280 H   0  0  0  0  0  0  0  0  0  0  0  0
   -5.9099   21.6496  -31.5443 H   0  0  0  0  0  0  0  0  0  0  0  0
   -5.0889   22.8166  -32.6970 H   0  0  0  0  0  0  0  0  0  0  0  0
   -6.3034   20.6379  -33.6047 H   0  0  0  0  0  0  0  0  0  0  0  0
   -4.7515   21.2279  -34.3089 H   0  0  0  0  0  0  0  0  0  0  0  0
   -3.5892   17.4376  -34.4119 H   0  0  0  0  0  0  0  0  0  0  0  0
   -4.7538   15.2836  -34.8802 H   0  0  0  0  0  0  0  0  0  0  0  0
   -7.0774   14.9114  -34.0575 H   0  0  0  0  0  0  0  0  0  0  0  0
   -8.2448   16.6866  -32.7571 H   0  0  0  0  0  0  0  0  0  0  0  0
   -8.7815   19.2064  -30.7843 H   0  0  0  0  0  0  0  0  0  0  0  0
   -8.9810   20.1196  -32.3183 H   0  0  0  0  0  0  0  0  0  0  0  0
   -9.0988   18.3271  -32.3183 H   0  0  0  0  0  0  0  0  0  0  0  0
   -3.1618   18.9292  -31.6633 H   0  0  0  0  0  0  0  0  0  0  0  0
   -2.5559   19.1192  -33.3536 H   0  0  0  0  0  0  0  0  0  0  0  0
   -1.8300   20.9245  -31.6621 H   0  0  0  0  0  0  0  0  0  0  0  0
   -2.5706   21.5003  -33.2036 H   0  0  0  0  0  0  0  0  0  0  0  0
  1  2  1  0
  2  3  1  0
  3  4  2  0
  4  5  1  0
  5  6  2  0
  6  7  1  0
  7  8  2  0
  8  9  1  0
  9 10  1  0
 10 11  1  0
 11 12  1  0
 11 13  1  0
 13 14  1  0
 14 15  1  0
 15 16  1  0
 16 17  1  0
 17 18  1  0
 18 19  2  0
 19 20  1  0
 20 21  2  0
 21 22  1  0
 22 23  2  0
 23 24  1  0
 24 25  1  0
 17 26  1  0
 26 27  1  0
  8  3  1  0
 27 14  1  0
 23 18  1  0
  1 28  1  0
  1 29  1  0
  1 30  1  0
  4 31  1  0
  5 32  1  0
  6 33  1  0
  7 34  1  0
 10 35  1  0
 10 36  1  0
 11 37  1  6
 12 38  1  0
 13 39  1  0
 13 40  1  0
 14 41  1  0
 15 42  1  0
 15 43  1  0
 16 44  1  0
 16 45  1  0
 19 46  1  0
 20 47  1  0
 21 48  1  0
 22 49  1  0
 25 50  1  0
 25 51  1  0
 25 52  1  0
 26 53  1  0
 26 54  1  0
 27 55  1  0
 27 56  1  0
M  CHG  1  14   1
M  END
>  <UniqueID>  (39) 
39

>  <SMILES>  (39) 
COc1ccccc1SC[C@@H](O)C[NH+]1CCN(c2ccccc2OC)CC1

>  <Energy>  (39) 
64.77785925152916

>  <Genealogy>  (39) 
COc1ccccc1SCC(O)C[NH+]1CCN(c2ccccc2OC)CC1 (protonated)
COc1ccccc1SC[C@@H](O)C[NH+]1CCN(c2ccccc2OC)CC1 (chirality)
COc1ccccc1SC[C@@H](O)C[NH+]1CCN(c2ccccc2OC)CC1 (3D coordinates assigned)
COc1ccccc1SC[C@@H](O)C[NH+]1CCN(c2ccccc2OC)CC1 (nonaromatic ring conformer: 64.77785925152916 kcal/mol)

>  <smiles>  (39) 
COc1ccccc1SCC(O)CN1CCN(c2ccccc2OC)CC1

>  <score_type>  (39) 
oracle

>  <origin>  (39) 
adg

>  <m_score__min__energy>  (39) 
-7.54

>  <m_primary>  (39) 
energy

$$$$
39:0
     RDKit          3D

 50 51  0  0  0  0  0  0  0  0999 V2000
   -8.3378   24.1858  -30.8097 H   0  0  0  0  0  0  0  0  0  0  0  0
   -7.2400   24.1290  -30.8500 C   0  0  0  0  0  0  0  0  0  0  0  0
   -6.1690   25.1880  -30.0980 S   0  0  0  0  0  0  0  0  0  0  0  0
   -4.8010   24.3780  -30.6650 C   0  0  0  0  0  0  0  0  0  0  0  0
   -3.5670   24.7360  -30.4580 N   0  0  0  0  0  0  0  0  0  0  0  0
   -2.6660   24.1370  -29.4760 C   0  0  0  0  0  0  0  0  0  0  0  0
   -2.0090   23.4139  -29.9814 H   0  0  0  0  0  0  0  0  0  0  0  0
   -2.0668   24.9336  -29.0109 H   0  0  0  0  0  0  0  0  0  0  0  0
   -3.4650   23.4150  -28.3830 C   0  0  0  0  0  0  0  0  0  0  0  0
   -4.2286   22.7850  -28.8627 H   0  0  0  0  0  0  0  0  0  0  0  0
   -2.7562   22.8151  -27.7933 H   0  0  0  0  0  0  0  0  0  0  0  0
   -4.1630   24.3880  -27.4220 C   0  0  0  0  0  0  0  0  0  0  0  0
   -4.5722   25.2259  -28.0055 H   0  0  0  0  0  0  0  0  0  0  0  0
   -4.9548   23.8295  -26.9012 H   0  0  0  0  0  0  0  0  0  0  0  0
   -3.2180   24.9480  -26.3590 C   0  0  0  0  0  0  0  0  0  0  0  0
   -3.6118   24.7147  -25.3588 H   0  0  0  0  0  0  0  0  0  0  0  0
   -2.2232   24.4935  -26.4766 H   0  0  0  0  0  0  0  0  0  0  0  0
   -3.1390   26.0388  -26.4766 H   0  0  0  0  0  0  0  0  0  0  0  0
   -5.1460   23.3040  -31.4190 N   0  0  0  0  0  0  0  0  0  0  0  0
   -4.1940   22.4410  -32.1250 C   0  0  0  0  0  0  0  0  0  0  0  0
   -3.3336   22.2340  -31.4717 H   0  0  0  0  0  0  0  0  0  0  0  0
   -3.8497   22.9480  -33.0385 H   0  0  0  0  0  0  0  0  0  0  0  0
   -4.8600   21.1540  -32.4930 C   0  0  0  0  0  0  0  0  0  0  0  0
   -4.9810   20.6910  -33.7540 N   0  0  0  0  0  0  0  0  0  0  0  0
   -5.4840   19.4710  -33.6480 N   0  0  0  0  0  0  0  0  0  0  0  0
   -5.6890   18.8500  -34.4630 H   0  0  0  0  0  0  0  0  0  0  0  0
   -5.6550   19.1300  -32.3800 N   0  0  0  0  0  0  0  0  0  0  0  0
   -6.1640   17.8400  -31.9160 C   0  0  0  0  0  0  0  0  0  0  0  0
   -6.1585   17.8303  -30.8161 H   0  0  0  0  0  0  0  0  0  0  0  0
   -5.5144   17.0509  -32.3227 H   0  0  0  0  0  0  0  0  0  0  0  0
   -7.5990   17.5780  -32.4090 C   0  0  0  0  0  0  0  0  0  0  0  0
   -7.8198   16.5089  -32.2741 H   0  0  0  0  0  0  0  0  0  0  0  0
   -7.6323   17.8918  -33.4628 H   0  0  0  0  0  0  0  0  0  0  0  0
   -8.6810   18.3910  -31.6720 C   0  0  0  0  0  0  0  0  0  0  0  0
   -8.2156   18.8485  -30.7865 H   0  0  0  0  0  0  0  0  0  0  0  0
   -9.4835   17.6769  -31.4350 H   0  0  0  0  0  0  0  0  0  0  0  0
   -9.3460   19.5140  -32.4910 C   0  0  0  0  0  0  0  0  0  0  0  0
  -10.4068   19.5621  -32.2038 H   0  0  0  0  0  0  0  0  0  0  0  0
   -9.1881   19.2550  -33.5484 H   0  0  0  0  0  0  0  0  0  0  0  0
   -8.7370   20.9140  -32.2990 C   0  0  0  0  0  0  0  0  0  0  0  0
   -8.7271   21.4282  -33.2714 H   0  0  0  0  0  0  0  0  0  0  0  0
   -7.7228   20.7787  -31.8952 H   0  0  0  0  0  0  0  0  0  0  0  0
   -9.5140   21.7720  -31.3030 C   0  0  0  0  0  0  0  0  0  0  0  0
   -9.2465   21.4766  -30.2777 H   0  0  0  0  0  0  0  0  0  0  0  0
   -9.2619   22.8316  -31.4569 H   0  0  0  0  0  0  0  0  0  0  0  0
  -10.5933   21.6258  -31.4569 H   0  0  0  0  0  0  0  0  0  0  0  0
   -5.2860   20.1750  -31.6190 C   0  0  0  0  0  0  0  0  0  0  0  0
   -5.3174   20.2370  -30.5212 H   0  0  0  0  0  0  0  0  0  0  0  0
   -6.4980   23.1700  -31.5310 C   0  0  0  0  0  0  0  0  0  0  0  0
   -6.9664   22.3645  -32.1156 H   0  0  0  0  0  0  0  0  0  0  0  0
  1  2  1  0
  2  3  1  0
  3  4  1  0
  4  5  2  0
  5  6  1  0
  6  7  1  0
  6  8  1  0
  6  9  1  0
  9 10  1  0
  9 11  1  0
  9 12  1  0
 12 13  1  0
 12 14  1  0
 12 15  1  0
 15 16  1  0
 15 17  1  0
 15 18  1  0
  4 19  1  0
 19 20  1  0
 20 21  1  0
 20 22  1  0
 20 23  1  0
 23 24  1  0
 24 25  2  0
 25 26  1  0
 25 27  1  0
 27 28  1  0
 28 29  1  0
 28 30  1  0
 28 31  1  0
 31 32  1  0
 31 33  1  0
 31 34  1  0
 34 35  1  0
 34 36  1  0
 34 37  1  0
 37 38  1  0
 37 39  1  0
 37 40  1  0
 40 41  1  0
 40 42  1  0
 40 43  1  0
 43 44  1  0
 43 45  1  0
 43 46  1  0
 27 47  1  0
 47 48  1  0
 19 49  1  0
 49 50  1  0
 49  2  2  0
 47 23  2  0
M  CHG  1  25   1
M  END
>  <UniqueID>  (40) 
40

>  <SMILES>  (40) 
CCCCCCn1cc(Cn2ccs/c2=N\CCCC)n[nH+]1

>  <Energy>  (40) 
95.46726924615342

>  <Genealogy>  (40) 
CCCCCCn1cc(Cn2ccsc2=NCCCC)n[nH+]1 (protonated)
CCCCCCn1cc(Cn2ccs/c2=N\CCCC)n[nH+]1 (cis-trans isomerization)
CCCCCCn1cc(Cn2ccs/c2=N\CCCC)n[nH+]1 (3D coordinates assigned)
CCCCCCn1cc(Cn2ccs/c2=N\CCCC)n[nH+]1 (optimized conformer: 95.46726924615342 kcal/mol)

>  <smiles>  (40) 
CCCCCCn1cc(Cn2ccsc2=NCCCC)nn1

>  <score_type>  (40) 
oracle

>  <origin>  (40) 
adg

>  <m_score__min__energy>  (40) 
-7.2999999999999998

>  <m_primary>  (40) 
energy

$$$$
40:0
     RDKit          3D

 36 39  0  0  0  0  0  0  0  0999 V2000
   -1.6370   24.9550  -28.2460 C   0  0  0  0  0  0  0  0  0  0  0  0
   -2.4360   25.2980  -29.3710 O   0  0  0  0  0  0  0  0  0  0  0  0
   -3.5170   24.5280  -29.8160 C   0  0  0  0  0  0  0  0  0  0  0  0
   -4.7440   25.0080  -29.9500 C   0  0  0  0  0  0  0  0  0  0  0  0
   -5.5470   23.9140  -30.4790 C   0  0  0  0  0  0  0  0  0  0  0  0
   -6.9040   23.9070  -30.7670 C   0  0  0  0  0  0  0  0  0  0  0  0
   -7.4810   22.7220  -31.2540 C   0  0  0  0  0  0  0  0  0  0  0  0
   -8.8480   22.6820  -31.5370 C   0  0  0  0  0  0  0  0  0  0  0  0
   -9.4360   21.5160  -32.0160 C   0  0  0  0  0  0  0  0  0  0  0  0
   -8.6780   20.3530  -32.2370 C   0  0  0  0  0  0  0  0  0  0  0  0
   -9.3890   19.1340  -32.7030 C   0  0  0  0  0  0  0  0  0  0  0  0
   -9.4800   18.1170  -31.9640 O   0  0  0  0  0  0  0  0  0  0  0  0
   -7.2750   20.3790  -31.9850 C   0  0  0  0  0  0  0  0  0  0  0  0
   -6.4420   19.2730  -32.2550 C   0  0  0  0  0  0  0  0  0  0  0  0
   -5.0710   19.3340  -32.0140 C   0  0  0  0  0  0  0  0  0  0  0  0
   -4.4900   20.4850  -31.4910 C   0  0  0  0  0  0  0  0  0  0  0  0
   -5.2800   21.6060  -31.1860 C   0  0  0  0  0  0  0  0  0  0  0  0
   -4.7470   22.8030  -30.6510 C   0  0  0  0  0  0  0  0  0  0  0  0
   -3.5160   23.1140  -30.2260 C   0  0  0  0  0  0  0  0  0  0  0  0
   -2.4290   22.2490  -30.1130 O   0  0  0  0  0  0  0  0  0  0  0  0
   -2.2650   21.4230  -28.9650 C   0  0  0  0  0  0  0  0  0  0  0  0
   -6.6790   21.5650  -31.4700 C   0  0  0  0  0  0  0  0  0  0  0  0
   -2.1850   25.1902  -27.3217 H   0  0  0  0  0  0  0  0  0  0  0  0
   -1.4082   23.8794  -28.2730 H   0  0  0  0  0  0  0  0  0  0  0  0
   -0.6996   25.5300  -28.2730 H   0  0  0  0  0  0  0  0  0  0  0  0
   -5.0868   26.0254  -29.7106 H   0  0  0  0  0  0  0  0  0  0  0  0
   -7.5150   24.8094  -30.6174 H   0  0  0  0  0  0  0  0  0  0  0  0
   -9.4644   23.5794  -31.3799 H   0  0  0  0  0  0  0  0  0  0  0  0
  -10.5157   21.5037  -32.2261 H   0  0  0  0  0  0  0  0  0  0  0  0
   -9.8415   19.1191  -33.7055 H   0  0  0  0  0  0  0  0  0  0  0  0
   -6.8808   18.3498  -32.6614 H   0  0  0  0  0  0  0  0  0  0  0  0
   -4.4403   18.4616  -32.2400 H   0  0  0  0  0  0  0  0  0  0  0  0
   -3.4046   20.5175  -31.3151 H   0  0  0  0  0  0  0  0  0  0  0  0
   -2.3856   22.0305  -28.0559 H   0  0  0  0  0  0  0  0  0  0  0  0
   -3.0223   20.6253  -28.9761 H   0  0  0  0  0  0  0  0  0  0  0  0
   -1.2604   20.9751  -28.9761 H   0  0  0  0  0  0  0  0  0  0  0  0
  1  2  1  0
  2  3  1  0
  3  4  2  0
  4  5  1  0
  5  6  2  0
  6  7  1  0
  7  8  2  0
  8  9  1  0
  9 10  2  0
 10 11  1  0
 11 12  2  0
 10 13  1  0
 13 14  1  0
 14 15  2  0
 15 16  1  0
 16 17  2  0
 17 18  1  0
 18 19  2  0
 19 20  1  0
 20 21  1  0
 17 22  1  0
 19  3  1  0
 18  5  1  0
 22  7  1  0
 22 13  2  0
  1 23  1  0
  1 24  1  0
  1 25  1  0
  4 26  1  0
  6 27  1  0
  8 28  1  0
  9 29  1  0
 11 30  1  0
 14 31  1  0
 15 32  1  0
 16 33  1  0
 21 34  1  0
 21 35  1  0
 21 36  1  0
M  END
>  <UniqueID>  (41) 
41

>  <SMILES>  (41) 
COC1=Cc2cc3ccc(C=O)c4cccc(c2=C1OC)c34

>  <Energy>  (41) 
89.1521826050404

>  <Genealogy>  (41) 
COC1=Cc2cc3ccc(C=O)c4cccc(c2=C1OC)c34 (3D coordinates assigned)
COC1=Cc2cc3ccc(C=O)c4cccc(c2=C1OC)c34 (nonaromatic ring conformer: 89.1521826050404 kcal/mol)

>  <smiles>  (41) 
COC1=Cc2cc3ccc(C=O)c4cccc(c2=C1OC)c34

>  <score_type>  (41) 
oracle

>  <origin>  (41) 
adg

>  <m_score__min__energy>  (41) 
-8.6799999999999997

>  <m_primary>  (41) 
energy

$$$$
41:0
     RDKit          3D

 53 55  0  0  0  0  0  0  0  0999 V2000
   -0.4590   26.7690  -23.0280 C   0  0  0  0  0  0  0  0  0  0  0  0
   -0.8080   25.8760  -24.2270 C   0  0  0  0  0  0  0  0  0  0  0  0
   -1.6450   26.5590  -25.2480 N   0  0  0  0  0  0  0  0  0  0  0  0
   -0.7960   27.4780  -26.0710 C   0  0  0  0  0  0  0  0  0  0  0  0
   -0.8330   28.9170  -25.5470 C   0  0  0  0  0  0  0  0  0  0  0  0
   -2.3490   25.5670  -26.1050 C   0  0  0  0  0  0  0  0  0  0  0  0
   -1.7450   25.4790  -27.5210 C   0  0  0  0  0  0  0  0  0  0  0  0
   -2.4110   24.3830  -28.3540 C   0  0  0  0  0  0  0  0  0  0  0  0
   -2.9330   24.9350  -29.5590 O   0  0  0  0  0  0  0  0  0  0  0  0
   -4.1390   24.5400  -30.1570 C   0  0  0  0  0  0  0  0  0  0  0  0
   -5.3010   25.3340  -30.1080 C   0  0  0  0  0  0  0  0  0  0  0  0
   -6.4790   24.8930  -30.7160 C   0  0  0  0  0  0  0  0  0  0  0  0
   -6.5100   23.6640  -31.3800 C   0  0  0  0  0  0  0  0  0  0  0  0
   -5.3560   22.8700  -31.4480 C   0  0  0  0  0  0  0  0  0  0  0  0
   -5.3890   21.5570  -32.1320 C   0  0  0  0  0  0  0  0  0  0  0  0
   -4.2490   21.1550  -32.8480 C   0  0  0  0  0  0  0  0  0  0  0  0
   -4.2050   19.9120  -33.4770 C   0  0  0  0  0  0  0  0  0  0  0  0
   -5.2970   19.0490  -33.4080 C   0  0  0  0  0  0  0  0  0  0  0  0
   -6.4560   19.4300  -32.7170 C   0  0  0  0  0  0  0  0  0  0  0  0
   -7.5590   18.5630  -32.6670 C   0  0  0  0  0  0  0  0  0  0  0  0
   -8.7240   18.9450  -32.0010 C   0  0  0  0  0  0  0  0  0  0  0  0
   -8.8030   20.1950  -31.3860 C   0  0  0  0  0  0  0  0  0  0  0  0
   -7.7120   21.0690  -31.4250 C   0  0  0  0  0  0  0  0  0  0  0  0
   -6.5170   20.6970  -32.0760 C   0  0  0  0  0  0  0  0  0  0  0  0
   -4.1770   23.3100  -30.8240 C   0  0  0  0  0  0  0  0  0  0  0  0
   -0.6705   26.2279  -22.0939 H   0  0  0  0  0  0  0  0  0  0  0  0
    0.6083   27.0326  -23.0655 H   0  0  0  0  0  0  0  0  0  0  0  0
   -1.0648   27.6864  -23.0655 H   0  0  0  0  0  0  0  0  0  0  0  0
    0.1284   25.5514  -24.7042 H   0  0  0  0  0  0  0  0  0  0  0  0
   -1.3936   25.0286  -23.8411 H   0  0  0  0  0  0  0  0  0  0  0  0
   -2.3700   27.1140  -24.7320 H   0  0  0  0  0  0  0  0  0  0  0  0
    0.2432   27.1180  -26.0471 H   0  0  0  0  0  0  0  0  0  0  0  0
   -1.1932   27.4797  -27.0968 H   0  0  0  0  0  0  0  0  0  0  0  0
   -0.8327   28.9068  -24.4470 H   0  0  0  0  0  0  0  0  0  0  0  0
    0.0514   29.4618  -25.9088 H   0  0  0  0  0  0  0  0  0  0  0  0
   -1.7443   29.4157  -25.9088 H   0  0  0  0  0  0  0  0  0  0  0  0
   -2.2799   24.5775  -25.6295 H   0  0  0  0  0  0  0  0  0  0  0  0
   -3.3944   25.8938  -26.2063 H   0  0  0  0  0  0  0  0  0  0  0  0
   -1.8831   26.4454  -28.0280 H   0  0  0  0  0  0  0  0  0  0  0  0
   -0.6772   25.2336  -27.4232 H   0  0  0  0  0  0  0  0  0  0  0  0
   -1.6679   23.6100  -28.5996 H   0  0  0  0  0  0  0  0  0  0  0  0
   -3.2339   23.9393  -27.7744 H   0  0  0  0  0  0  0  0  0  0  0  0
   -5.2811   26.3040  -29.5896 H   0  0  0  0  0  0  0  0  0  0  0  0
   -7.3850   25.5153  -30.6718 H   0  0  0  0  0  0  0  0  0  0  0  0
   -7.4421   23.3183  -31.8507 H   0  0  0  0  0  0  0  0  0  0  0  0
   -3.3818   21.8286  -32.9129 H   0  0  0  0  0  0  0  0  0  0  0  0
   -3.3036   19.6106  -34.0308 H   0  0  0  0  0  0  0  0  0  0  0  0
   -5.2495   18.0651  -33.8975 H   0  0  0  0  0  0  0  0  0  0  0  0
   -7.5046   17.5786  -33.1548 H   0  0  0  0  0  0  0  0  0  0  0  0
   -9.5827   18.2587  -31.9606 H   0  0  0  0  0  0  0  0  0  0  0  0
   -9.7266   20.4940  -30.8687 H   0  0  0  0  0  0  0  0  0  0  0  0
   -7.7863   22.0554  -30.9438 H   0  0  0  0  0  0  0  0  0  0  0  0
   -3.2747   22.6818  -30.8599 H   0  0  0  0  0  0  0  0  0  0  0  0
  1  2  1  0
  2  3  1  0
  3  4  1  0
  4  5  1  0
  3  6  1  0
  6  7  1  0
  7  8  1  0
  8  9  1  0
  9 10  1  0
 10 11  2  0
 11 12  1  0
 12 13  2  0
 13 14  1  0
 14 15  1  0
 15 16  2  0
 16 17  1  0
 17 18  2  0
 18 19  1  0
 19 20  2  0
 20 21  1  0
 21 22  2  0
 22 23  1  0
 23 24  2  0
 14 25  2  0
 25 10  1  0
 24 15  1  0
 24 19  1  0
  1 26  1  0
  1 27  1  0
  1 28  1  0
  2 29  1  0
  2 30  1  0
  3 31  1  0
  4 32  1  0
  4 33  1  0
  5 34  1  0
  5 35  1  0
  5 36  1  0
  6 37  1  0
  6 38  1  0
  7 39  1  0
  7 40  1  0
  8 41  1  0
  8 42  1  0
 11 43  1  0
 12 44  1  0
 13 45  1  0
 16 46  1  0
 17 47  1  0
 18 48  1  0
 20 49  1  0
 21 50  1  0
 22 51  1  0
 23 52  1  0
 25 53  1  0
M  CHG  1   3   1
M  END
>  <UniqueID>  (42) 
42

>  <SMILES>  (42) 
CC[NH+](CC)CCCOc1cccc(-c2cccc3ccccc23)c1

>  <Energy>  (42) 
66.82702347807243

>  <Genealogy>  (42) 
CC[NH+](CC)CCCOc1cccc(-c2cccc3ccccc23)c1 (protonated)
CC[NH+](CC)CCCOc1cccc(-c2cccc3ccccc23)c1 (3D coordinates assigned)
CC[NH+](CC)CCCOc1cccc(-c2cccc3ccccc23)c1 (optimized conformer: 66.82702347807243 kcal/mol)

>  <smiles>  (42) 
CCN(CC)CCCOc1cccc(-c2cccc3ccccc23)c1

>  <score_type>  (42) 
oracle

>  <origin>  (42) 
adg

>  <m_score__min__energy>  (42) 
-9.3100000000000005

>  <m_primary>  (42) 
energy

$$$$
42:0
     RDKit          3D

 37 39  0  0  1  0  0  0  0  0999 V2000
   -3.7160   17.4190  -34.9500 C   0  0  0  0  0  0  0  0  0  0  0  0
   -4.9920   17.9910  -35.1710 O   0  0  0  0  0  0  0  0  0  0  0  0
   -5.7730   18.5040  -34.1520 C   0  0  0  0  0  0  0  0  0  0  0  0
   -5.7250   19.8480  -33.8170 C   0  0  0  0  0  0  0  0  0  0  0  0
   -6.5280   20.2860  -32.7960 C   0  0  0  0  0  0  0  0  0  0  0  0
   -6.5730   21.6750  -32.3460 C   0  0  0  0  0  0  0  0  0  0  0  0
   -7.7040   22.3870  -32.1420 N   0  0  0  0  0  0  0  0  0  0  0  0
   -7.3890   23.6090  -31.7380 N   0  0  0  0  0  0  0  0  0  0  0  0
   -6.0460   23.7310  -31.6640 C   0  0  0  0  0  0  0  0  0  0  0  0
   -5.3690   24.9180  -31.2610 N   0  0  0  0  0  0  0  0  0  0  0  0
   -5.1110   25.1330  -30.0290 C   0  0  0  0  0  0  0  0  0  0  0  0
   -4.1760   24.2570  -29.3100 C   0  0  0  0  0  0  0  0  0  0  0  0
   -4.5970   23.1570  -28.5920 C   0  0  0  0  0  0  0  0  0  0  0  0
   -3.7270   22.3240  -27.9100 C   0  0  0  0  0  0  0  0  0  0  0  0
   -2.3640   22.6160  -27.9530 C   0  0  0  0  0  0  0  0  0  0  0  0
   -1.8970   23.7170  -28.6650 C   0  0  0  0  0  0  0  0  0  0  0  0
   -2.8100   24.5330  -29.3410 C   0  0  0  0  0  0  0  0  0  0  0  0
   -5.5230   22.5160  -32.0460 C   0  0  0  0  0  0  0  0  0  0  0  0
   -4.1300   22.1910  -32.1160 C   0  0  0  0  0  0  0  0  0  0  0  0
   -3.0000   21.9220  -32.1830 N   0  0  0  0  0  0  0  0  0  0  0  0
   -7.3680   19.3990  -32.1180 C   0  0  0  0  0  0  0  0  0  0  0  0
   -7.4190   18.0590  -32.4480 C   0  0  0  0  0  0  0  0  0  0  0  0
   -6.6060   17.6260  -33.4770 C   0  0  0  0  0  0  0  0  0  0  0  0
   -6.6840   15.7660  -33.9290 Br  0  0  0  0  0  0  0  0  0  0  0  0
   -3.5333   17.3371  -33.8684 H   0  0  0  0  0  0  0  0  0  0  0  0
   -3.6790   16.4182  -35.4049 H   0  0  0  0  0  0  0  0  0  0  0  0
   -2.9443   18.0573  -35.4049 H   0  0  0  0  0  0  0  0  0  0  0  0
   -5.0624   20.5424  -34.3543 H   0  0  0  0  0  0  0  0  0  0  0  0
   -8.0860   24.3560  -31.5110 H   0  0  0  0  0  0  0  0  0  0  0  0
   -5.5890   25.9744  -29.5059 H   0  0  0  0  0  0  0  0  0  0  0  0
   -5.6732   22.9315  -28.5600 H   0  0  0  0  0  0  0  0  0  0  0  0
   -4.1008   21.4548  -27.3490 H   0  0  0  0  0  0  0  0  0  0  0  0
   -1.6513   21.9701  -27.4192 H   0  0  0  0  0  0  0  0  0  0  0  0
   -0.8209   23.9431  -28.6958 H   0  0  0  0  0  0  0  0  0  0  0  0
   -2.4452   25.4043  -29.9047 H   0  0  0  0  0  0  0  0  0  0  0  0
   -8.0030   19.7765  -31.3030 H   0  0  0  0  0  0  0  0  0  0  0  0
   -8.0815   17.3635  -31.9120 H   0  0  0  0  0  0  0  0  0  0  0  0
  1  2  1  0
  2  3  1  0
  3  4  2  0
  4  5  1  0
  5  6  1  0
  6  7  2  0
  7  8  1  0
  8  9  1  0
  9 10  1  0
 10 11  2  0
 11 12  1  0
 12 13  2  0
 13 14  1  0
 14 15  2  0
 15 16  1  0
 16 17  2  0
  9 18  2  0
 18 19  1  0
 19 20  3  0
  5 21  2  0
 21 22  1  0
 22 23  2  0
 23 24  1  0
 23  3  1  0
 18  6  1  0
 17 12  1  0
  1 25  1  0
  1 26  1  0
  1 27  1  0
  4 28  1  0
  8 29  1  0
 11 30  1  0
 13 31  1  0
 14 32  1  0
 15 33  1  0
 16 34  1  0
 17 35  1  0
 21 36  1  0
 22 37  1  0
M  END
>  <smiles>  (43) 
COc1cc(-c2n[nH]c(N=Cc3ccccc3)c2C#N)ccc1Br

>  <score_type>  (43) 
oracle

>  <origin>  (43) 
adg

>  <m_score__min__energy>  (43) 
-8.8200000000000003

>  <m_primary>  (43) 
energy

$$$$
43:0
     RDKit          3D

 40 42  0  0  0  0  0  0  0  0999 V2000
   -2.0140   25.2640  -29.2330 O   0  0  0  0  0  0  0  0  0  0  0  0
   -2.8340   24.3930  -29.6310 C   0  0  0  0  0  0  0  0  0  0  0  0
   -3.8890   24.7590  -30.5320 N   0  0  0  0  0  0  0  0  0  0  0  0
   -5.1420   24.0800  -30.6980 C   0  0  0  0  0  0  0  0  0  0  0  0
   -5.7640   23.3890  -29.6410 C   0  0  0  0  0  0  0  0  0  0  0  0
   -6.9750   22.7230  -29.8520 C   0  0  0  0  0  0  0  0  0  0  0  0
   -7.5670   22.7260  -31.1180 C   0  0  0  0  0  0  0  0  0  0  0  0
   -9.2200   21.8120  -31.4040 Br  0  0  0  0  0  0  0  0  0  0  0  0
   -6.9420   23.3910  -32.1780 C   0  0  0  0  0  0  0  0  0  0  0  0
   -5.7310   24.0570  -31.9690 C   0  0  0  0  0  0  0  0  0  0  0  0
   -2.6570   22.9730  -29.2440 C   0  0  0  0  0  0  0  0  0  0  0  0
   -2.4620   22.6610  -27.8860 C   0  0  0  0  0  0  0  0  0  0  0  0
   -2.3620   21.3340  -27.4660 C   0  0  0  0  0  0  0  0  0  0  0  0
   -2.4520   20.2990  -28.3950 C   0  0  0  0  0  0  0  0  0  0  0  0
   -2.6290   20.5870  -29.7490 C   0  0  0  0  0  0  0  0  0  0  0  0
   -2.7280   21.9190  -30.1920 C   0  0  0  0  0  0  0  0  0  0  0  0
   -2.8310   22.1970  -31.6010 N   0  0  0  0  0  0  0  0  0  0  0  0
   -2.5480   21.2010  -32.6350 C   0  0  0  0  0  0  0  0  0  0  0  0
   -3.7920   20.4190  -32.9590 C   0  0  0  0  0  0  0  0  0  0  0  0
   -5.0180   20.7760  -32.3750 C   0  0  0  0  0  0  0  0  0  0  0  0
   -6.1690   20.0270  -32.6390 C   0  0  0  0  0  0  0  0  0  0  0  0
   -6.1010   18.9130  -33.4800 C   0  0  0  0  0  0  0  0  0  0  0  0
   -4.8820   18.5450  -34.0580 C   0  0  0  0  0  0  0  0  0  0  0  0
   -3.7300   19.2930  -33.7960 C   0  0  0  0  0  0  0  0  0  0  0  0
   -5.2957   23.3730  -28.6458 H   0  0  0  0  0  0  0  0  0  0  0  0
   -7.4631   22.1953  -29.0194 H   0  0  0  0  0  0  0  0  0  0  0  0
   -7.4037   23.3899  -33.1764 H   0  0  0  0  0  0  0  0  0  0  0  0
   -5.2366   24.5670  -32.8089 H   0  0  0  0  0  0  0  0  0  0  0  0
   -2.3875   23.4723  -27.1469 H   0  0  0  0  0  0  0  0  0  0  0  0
   -2.2120   21.1046  -26.4007 H   0  0  0  0  0  0  0  0  0  0  0  0
   -2.3834   19.2534  -28.0604 H   0  0  0  0  0  0  0  0  0  0  0  0
   -2.6917   19.7648  -30.4770 H   0  0  0  0  0  0  0  0  0  0  0  0
   -3.1920   23.1280  -31.9100 H   0  0  0  0  0  0  0  0  0  0  0  0
   -2.1927   21.7107  -33.5427 H   0  0  0  0  0  0  0  0  0  0  0  0
   -1.7762   20.5099  -32.2654 H   0  0  0  0  0  0  0  0  0  0  0  0
   -5.0733   21.6483  -31.7072 H   0  0  0  0  0  0  0  0  0  0  0  0
   -7.1284   20.3149  -32.1844 H   0  0  0  0  0  0  0  0  0  0  0  0
   -7.0072   18.3250  -33.6875 H   0  0  0  0  0  0  0  0  0  0  0  0
   -4.8293   17.6671  -34.7187 H   0  0  0  0  0  0  0  0  0  0  0  0
   -2.7712   18.9982  -34.2474 H   0  0  0  0  0  0  0  0  0  0  0  0
  1  2  2  0
  2  3  1  0
  3  4  1  0
  4  5  2  0
  5  6  1  0
  6  7  2  0
  7  8  1  0
  7  9  1  0
  9 10  2  0
  2 11  1  0
 11 12  2  0
 12 13  1  0
 13 14  2  0
 14 15  1  0
 15 16  2  0
 16 17  1  0
 17 18  1  0
 18 19  1  0
 19 20  2  0
 20 21  1  0
 21 22  2  0
 22 23  1  0
 23 24  2  0
 10  4  1  0
 16 11  1  0
 24 19  1  0
  5 25  1  0
  6 26  1  0
  9 27  1  0
 10 28  1  0
 12 29  1  0
 13 30  1  0
 14 31  1  0
 15 32  1  0
 17 33  1  0
 18 34  1  0
 18 35  1  0
 20 36  1  0
 21 37  1  0
 22 38  1  0
 23 39  1  0
 24 40  1  0
M  CHG  1   3  -1
M  END
>  <UniqueID>  (44) 
43

>  <SMILES>  (44) 
O=C([N-]c1ccc(Br)cc1)c1ccccc1NCc1ccccc1

>  <Energy>  (44) 
50.576998977780356

>  <Genealogy>  (44) 
O=C([N-]c1ccc(Br)cc1)c1ccccc1NCc1ccccc1 (protonated)
O=C([N-]c1ccc(Br)cc1)c1ccccc1NCc1ccccc1 (3D coordinates assigned)
O=C([N-]c1ccc(Br)cc1)c1ccccc1NCc1ccccc1 (optimized conformer: 50.576998977780356 kcal/mol)

>  <smiles>  (44) 
O=C(Nc1ccc(Br)cc1)c1ccccc1NCc1ccccc1

>  <score_type>  (44) 
oracle

>  <origin>  (44) 
adg

>  <m_score__min__energy>  (44) 
-10.07

>  <m_primary>  (44) 
energy

$$$$
