0:0
     RDKit          3D

 71 75  0  0  0  0  0  0  0  0999 V2000
   -5.7740   25.9900  -30.1420 C   0  0  0  0  0  0  0  0  0  0  0  0
   -4.6190   25.5670  -30.8330 O   0  0  0  0  0  0  0  0  0  0  0  0
   -4.5340   24.1540  -30.8400 C   0  0  0  0  0  0  0  0  0  0  0  0
   -3.3270   23.6810  -30.0260 C   0  0  0  0  0  0  0  0  0  0  0  0
   -3.2850   24.3820  -28.7350 N   0  0  0  0  0  0  0  0  0  0  0  0
   -1.9080   24.5670  -28.2350 C   0  0  0  0  0  0  0  0  0  0  0  0
   -0.9000   24.0350  -29.2630 C   0  0  0  0  0  0  0  0  0  0  0  0
   -0.9180   22.5050  -29.3490 C   0  0  0  0  0  0  0  0  0  0  0  0
   -0.7500   21.9030  -28.0150 N   0  0  0  0  0  0  0  0  0  0  0  0
   -0.0530   20.6440  -27.8550 C   0  0  0  0  0  0  0  0  0  0  0  0
   -0.3030   19.9140  -26.8550 O   0  0  0  0  0  0  0  0  0  0  0  0
    0.9580   20.1700  -28.8680 C   0  0  0  0  0  0  0  0  0  0  0  0
    0.3420   19.9510  -30.1750 N   0  0  0  0  0  0  0  0  0  0  0  0
   -0.8340   19.3330  -30.4000 C   0  0  0  0  0  0  0  0  0  0  0  0
   -1.0400   19.3150  -31.7640 C   0  0  0  0  0  0  0  0  0  0  0  0
   -2.2270   18.9070  -32.4610 N   0  0  0  0  0  0  0  0  0  0  0  0
   -3.4020   19.7250  -32.5830 C   0  0  0  0  0  0  0  0  0  0  0  0
   -3.3770   20.9330  -32.2260 O   0  0  0  0  0  0  0  0  0  0  0  0
   -4.6610   19.1710  -33.1230 C   0  0  0  0  0  0  0  0  0  0  0  0
   -5.8370   19.8730  -33.3810 C   0  0  0  0  0  0  0  0  0  0  0  0
   -6.7960   19.0290  -33.8360 N   0  0  0  0  0  0  0  0  0  0  0  0
   -6.2580   17.8220  -33.8620 N   0  0  0  0  0  0  0  0  0  0  0  0
   -6.8640   16.6670  -34.2270 C   0  0  0  0  0  0  0  0  0  0  0  0
   -6.1190   15.4830  -34.1480 C   0  0  0  0  0  0  0  0  0  0  0  0
   -4.7890   15.5480  -33.6900 C   0  0  0  0  0  0  0  0  0  0  0  0
   -4.2370   16.7450  -33.3350 N   0  0  0  0  0  0  0  0  0  0  0  0
   -4.9890   17.8690  -33.4410 C   0  0  0  0  0  0  0  0  0  0  0  0
    0.0590   19.9570  -32.3150 C   0  0  0  0  0  0  0  0  0  0  0  0
    0.3320   20.1970  -33.7510 C   0  0  0  0  0  0  0  0  0  0  0  0
    0.9060   21.4140  -34.1600 C   0  0  0  0  0  0  0  0  0  0  0  0
    1.1650   21.6590  -35.5100 C   0  0  0  0  0  0  0  0  0  0  0  0
    1.8810   23.1840  -36.0040 Cl  0  0  0  0  0  0  0  0  0  0  0  0
    0.8460   20.6950  -36.4670 C   0  0  0  0  0  0  0  0  0  0  0  0
    0.2640   19.4870  -36.0790 C   0  0  0  0  0  0  0  0  0  0  0  0
   -0.0020   19.2250  -34.7190 C   0  0  0  0  0  0  0  0  0  0  0  0
   -0.5740   18.0110  -34.2990 O   0  0  0  0  0  0  0  0  0  0  0  0
    0.1560   16.8730  -33.8520 C   0  0  0  0  0  0  0  0  0  0  0  0
   -0.5740   16.1870  -32.8980 F   0  0  0  0  0  0  0  0  0  0  0  0
    1.3460   17.2950  -33.2880 F   0  0  0  0  0  0  0  0  0  0  0  0
    0.8930   20.3250  -31.3200 N   0  0  0  0  0  0  0  0  0  0  0  0
   -1.6350   22.3700  -26.9360 C   0  0  0  0  0  0  0  0  0  0  0  0
   -1.6620   23.9020  -26.8620 C   0  0  0  0  0  0  0  0  0  0  0  0
   -5.5972   25.9253  -29.0582 H   0  0  0  0  0  0  0  0  0  0  0  0
   -6.0038   27.0306  -30.4145 H   0  0  0  0  0  0  0  0  0  0  0  0
   -6.6215   25.3439  -30.4145 H   0  0  0  0  0  0  0  0  0  0  0  0
   -5.4518   23.7348  -30.4019 H   0  0  0  0  0  0  0  0  0  0  0  0
   -4.4164   23.8117  -31.8788 H   0  0  0  0  0  0  0  0  0  0  0  0
   -3.4081   22.5982  -29.8500 H   0  0  0  0  0  0  0  0  0  0  0  0
   -2.4058   23.9002  -30.5858 H   0  0  0  0  0  0  0  0  0  0  0  0
   -3.7680   25.3040  -28.8390 H   0  0  0  0  0  0  0  0  0  0  0  0
   -1.7682   25.6486  -28.0913 H   0  0  0  0  0  0  0  0  0  0  0  0
   -1.1492   24.4488  -30.2512 H   0  0  0  0  0  0  0  0  0  0  0  0
    0.1058   24.3446  -28.9430 H   0  0  0  0  0  0  0  0  0  0  0  0
   -1.8792   22.1791  -29.7730 H   0  0  0  0  0  0  0  0  0  0  0  0
   -0.0858   22.1785  -29.9900 H   0  0  0  0  0  0  0  0  0  0  0  0
    1.7478   20.9292  -28.9674 H   0  0  0  0  0  0  0  0  0  0  0  0
    1.3762   19.2146  -28.5183 H   0  0  0  0  0  0  0  0  0  0  0  0
   -1.5073   18.9183  -29.6353 H   0  0  0  0  0  0  0  0  0  0  0  0
   -2.2300   17.9500  -32.8690 H   0  0  0  0  0  0  0  0  0  0  0  0
   -5.9684   20.9555  -33.2364 H   0  0  0  0  0  0  0  0  0  0  0  0
   -7.9077   16.6588  -34.5744 H   0  0  0  0  0  0  0  0  0  0  0  0
   -6.5649   14.5203  -34.4384 H   0  0  0  0  0  0  0  0  0  0  0  0
   -4.1907   14.6278  -33.6178 H   0  0  0  0  0  0  0  0  0  0  0  0
    1.1531   22.1796  -33.4098 H   0  0  0  0  0  0  0  0  0  0  0  0
    1.0537   20.8875  -37.5299 H   0  0  0  0  0  0  0  0  0  0  0  0
    0.0110   18.7338  -36.8397 H   0  0  0  0  0  0  0  0  0  0  0  0
    0.3522   16.2092  -34.7069 H   0  0  0  0  0  0  0  0  0  0  0  0
   -2.6545   22.0022  -27.1241 H   0  0  0  0  0  0  0  0  0  0  0  0
   -1.2521   21.9826  -25.9803 H   0  0  0  0  0  0  0  0  0  0  0  0
   -2.4662   24.2060  -26.1758 H   0  0  0  0  0  0  0  0  0  0  0  0
   -0.6744   24.2324  -26.5078 H   0  0  0  0  0  0  0  0  0  0  0  0
  1  2  1  0
  2  3  1  0
  3  4  1  0
  4  5  1  0
  5  6  1  0
  6  7  1  0
  7  8  1  0
  8  9  1  0
  9 10  1  0
 10 11  2  0
 10 12  1  0
 12 13  1  0
 13 14  1  0
 14 15  2  0
 15 16  1  0
 16 17  1  0
 17 18  2  0
 17 19  1  0
 19 20  1  0
 20 21  2  0
 21 22  1  0
 22 23  1  0
 23 24  2  0
 24 25  1  0
 25 26  2  0
 26 27  1  0
 15 28  1  0
 28 29  1  0
 29 30  2  0
 30 31  1  0
 31 32  1  0
 31 33  2  0
 33 34  1  0
 34 35  2  0
 35 36  1  0
 36 37  1  0
 37 38  1  0
 37 39  1  0
 28 40  2  0
  9 41  1  0
 41 42  1  0
 42  6  1  0
 40 13  1  0
 27 19  2  0
 35 29  1  0
 27 22  1  0
  1 43  1  0
  1 44  1  0
  1 45  1  0
  3 46  1  0
  3 47  1  0
  4 48  1  0
  4 49  1  0
  5 50  1  0
  6 51  1  0
  7 52  1  0
  7 53  1  0
  8 54  1  0
  8 55  1  0
 12 56  1  0
 12 57  1  0
 14 58  1  0
 16 59  1  0
 20 60  1  0
 23 61  1  0
 24 62  1  0
 25 63  1  0
 30 64  1  0
 33 65  1  0
 34 66  1  0
 37 67  1  0
 41 68  1  0
 41 69  1  0
 42 70  1  0
 42 71  1  0
M  END
>  <UniqueID>  (1) 
1

>  <SMILES>  (1) 
COCCNC1CCN(C(=O)Cn2cc(NC(=O)c3cnn4cccnc34)c(-c3cc(Cl)ccc3OC(F)F)n2)CC1

>  <Energy>  (1) 
150.494626448798

>  <Genealogy>  (1) 
COCCNC1CCN(C(=O)Cn2cc(NC(=O)c3cnn4cccnc34)c(-c3cc(Cl)ccc3OC(F)F)n2)CC1 (3D coordinates assigned)
COCCNC1CCN(C(=O)Cn2cc(NC(=O)c3cnn4cccnc34)c(-c3cc(Cl)ccc3OC(F)F)n2)CC1 (nonaromatic ring conformer: 150.494626448798 kcal/mol)

>  <smiles>  (1) 
COCCNC1CCN(C(=O)Cn2cc(NC(=O)c3cnn4cccnc34)c(-c3cc(Cl)ccc3OC(F)F)n2)CC1

>  <score_type>  (1) 
oracle

>  <origin>  (1) 
adg

>  <m_score__min__energy>  (1) 
-10.02

>  <m_primary>  (1) 
energy

$$$$
1:0
     RDKit          3D

 25 25  0  0  0  0  0  0  0  0999 V2000
   -2.9840   25.3510  -25.9870 C   0  0  0  0  0  0  0  0  0  0  0  0
   -3.0470   24.5540  -26.8890 C   0  0  0  0  0  0  0  0  0  0  0  0
   -3.1190   23.5770  -27.9960 C   0  0  1  0  0  0  0  0  0  0  0  0
   -2.5240   22.2410  -27.5030 C   0  0  0  0  0  0  0  0  0  0  0  0
   -3.3870   21.1730  -27.8410 O   0  0  0  0  0  0  0  0  0  0  0  0
   -2.9150   19.9830  -27.2500 C   0  0  0  0  0  0  0  0  0  0  0  0
   -4.5170   23.3770  -28.2500 O   0  0  0  0  0  0  0  0  0  0  0  0
   -4.8590   23.2410  -29.6170 C   0  0  0  0  0  0  0  0  0  0  0  0
   -4.3910   24.4450  -30.3640 C   0  0  0  0  0  0  0  0  0  0  0  0
   -5.1110   25.0170  -31.2240 O   0  0  0  0  0  0  0  0  0  0  0  0
   -3.1220   24.9140  -30.0690 O   0  0  0  0  0  0  0  0  0  0  0  0
   -2.2930   24.1100  -29.2390 C   0  0  1  0  0  0  0  0  0  0  0  0
   -1.0090   24.8800  -28.8980 C   0  0  0  0  0  0  0  0  0  0  0  0
   -2.9265   26.0784  -25.1638 H   0  0  0  0  0  0  0  0  0  0  0  0
   -1.5443   22.0816  -27.9771 H   0  0  0  0  0  0  0  0  0  0  0  0
   -2.4078   22.2791  -26.4098 H   0  0  0  0  0  0  0  0  0  0  0  0
   -2.9525   20.0776  -26.1547 H   0  0  0  0  0  0  0  0  0  0  0  0
   -3.5470   19.1404  -27.5671 H   0  0  0  0  0  0  0  0  0  0  0  0
   -1.8773   19.8027  -27.5671 H   0  0  0  0  0  0  0  0  0  0  0  0
   -4.3766   22.3424  -30.0289 H   0  0  0  0  0  0  0  0  0  0  0  0
   -5.9504   23.1466  -29.7164 H   0  0  0  0  0  0  0  0  0  0  0  0
   -1.9602   23.2026  -29.7642 H   0  0  0  0  0  0  0  0  0  0  0  0
   -0.8999   24.9454  -27.8054 H   0  0  0  0  0  0  0  0  0  0  0  0
   -0.1417   24.3528  -29.3222 H   0  0  0  0  0  0  0  0  0  0  0  0
   -1.0655   25.8934  -29.3222 H   0  0  0  0  0  0  0  0  0  0  0  0
  1  2  3  0
  3  2  1  1
  3  4  1  0
  4  5  1  0
  5  6  1  0
  3  7  1  0
  7  8  1  0
  8  9  1  0
  9 10  2  0
  9 11  1  0
 11 12  1  0
 12 13  1  0
 12  3  1  0
  1 14  1  0
  4 15  1  0
  4 16  1  0
  6 17  1  0
  6 18  1  0
  6 19  1  0
  8 20  1  0
  8 21  1  0
 12 22  1  6
 13 23  1  0
 13 24  1  0
 13 25  1  0
M  END
>  <UniqueID>  (2) 
2

>  <SMILES>  (2) 
C#C[C@@]1(COC)OCC(=O)O[C@H]1C

>  <Energy>  (2) 
31.852033297302174

>  <Genealogy>  (2) 
C#C[C@@]1(COC)OCC(=O)O[C@H]1C (chirality)
C#C[C@@]1(COC)OCC(=O)O[C@H]1C (3D coordinates assigned)
C#C[C@@]1(COC)OCC(=O)O[C@H]1C (nonaromatic ring conformer: 31.852033297302174 kcal/mol)

>  <smiles>  (2) 
C#CC1(COC)OCC(=O)OC1C

>  <score_type>  (2) 
oracle

>  <origin>  (2) 
adg

>  <m_score__min__energy>  (2) 
-4.5599999999999996

>  <m_primary>  (2) 
energy

$$$$
2:0
     RDKit          3D

 41 43  0  0  0  0  0  0  0  0999 V2000
   -4.1080   24.0490  -27.8670 C   0  0  0  0  0  0  0  0  0  0  0  0
   -3.9130   22.7860  -28.7000 C   0  0  0  0  0  0  0  0  0  0  0  0
   -4.0030   23.0780  -30.1390 N   0  0  0  0  0  0  0  0  0  0  0  0
   -4.7880   24.2020  -30.6040 C   0  0  0  0  0  0  0  0  0  0  0  0
   -4.2200   25.3040  -30.8380 O   0  0  0  0  0  0  0  0  0  0  0  0
   -6.2860   24.1310  -30.7810 C   0  0  0  0  0  0  0  0  0  0  0  0
   -6.6710   23.6180  -32.1700 C   0  0  0  0  0  0  0  0  0  0  0  0
   -7.7240   22.6080  -32.0820 N   0  0  0  0  0  0  0  0  0  0  0  0
   -9.0220   22.8740  -31.9700 N   0  0  0  0  0  0  0  0  0  0  0  0
   -9.7570   21.7640  -31.9320 N   0  0  0  0  0  0  0  0  0  0  0  0
   -8.8720   20.7550  -32.0290 C   0  0  0  0  0  0  0  0  0  0  0  0
   -9.1140   19.3850  -32.0530 C   0  0  0  0  0  0  0  0  0  0  0  0
   -7.9990   18.5310  -32.1710 C   0  0  0  0  0  0  0  0  0  0  0  0
   -6.6910   19.0660  -32.2600 C   0  0  0  0  0  0  0  0  0  0  0  0
   -6.4830   20.4580  -32.2360 C   0  0  0  0  0  0  0  0  0  0  0  0
   -7.6120   21.2690  -32.1220 C   0  0  0  0  0  0  0  0  0  0  0  0
   -3.1990   22.2980  -31.0420 C   0  0  0  0  0  0  0  0  0  0  0  0
   -3.6840   21.9720  -32.3190 C   0  0  0  0  0  0  0  0  0  0  0  0
   -2.8960   21.2300  -33.2030 C   0  0  0  0  0  0  0  0  0  0  0  0
   -1.6120   20.8230  -32.8250 C   0  0  0  0  0  0  0  0  0  0  0  0
   -1.1150   21.1660  -31.5640 C   0  0  0  0  0  0  0  0  0  0  0  0
   -1.9010   21.9100  -30.6790 C   0  0  0  0  0  0  0  0  0  0  0  0
   -4.0685   23.7929  -26.7980 H   0  0  0  0  0  0  0  0  0  0  0  0
   -3.3104   24.7695  -28.1012 H   0  0  0  0  0  0  0  0  0  0  0  0
   -5.0857   24.4954  -28.1012 H   0  0  0  0  0  0  0  0  0  0  0  0
   -2.9220   22.3616  -28.4814 H   0  0  0  0  0  0  0  0  0  0  0  0
   -4.7074   22.0711  -28.4395 H   0  0  0  0  0  0  0  0  0  0  0  0
   -6.7022   23.4515  -30.0226 H   0  0  0  0  0  0  0  0  0  0  0  0
   -6.6919   25.1470  -30.6674 H   0  0  0  0  0  0  0  0  0  0  0  0
   -7.0311   24.4611  -32.7778 H   0  0  0  0  0  0  0  0  0  0  0  0
   -5.7842   23.1604  -32.6328 H   0  0  0  0  0  0  0  0  0  0  0  0
   -9.4250   23.8360  -31.9220 H   0  0  0  0  0  0  0  0  0  0  0  0
  -10.1359   18.9840  -31.9826 H   0  0  0  0  0  0  0  0  0  0  0  0
   -8.1459   17.4411  -32.1941 H   0  0  0  0  0  0  0  0  0  0  0  0
   -5.8296   18.3877  -32.3487 H   0  0  0  0  0  0  0  0  0  0  0  0
   -5.4728   20.8880  -32.3043 H   0  0  0  0  0  0  0  0  0  0  0  0
   -4.6879   22.3019  -32.6246 H   0  0  0  0  0  0  0  0  0  0  0  0
   -3.2857   20.9657  -34.1971 H   0  0  0  0  0  0  0  0  0  0  0  0
   -0.9943   20.2340  -33.5189 H   0  0  0  0  0  0  0  0  0  0  0  0
   -0.1039   20.8500  -31.2677 H   0  0  0  0  0  0  0  0  0  0  0  0
   -1.4999   22.1921  -29.6943 H   0  0  0  0  0  0  0  0  0  0  0  0
  1  2  1  0
  2  3  1  0
  3  4  1  0
  4  5  2  0
  4  6  1  0
  6  7  1  0
  7  8  1  0
  8  9  1  0
  9 10  2  0
 10 11  1  0
 11 12  2  0
 12 13  1  0
 13 14  2  0
 14 15  1  0
 15 16  2  0
  3 17  1  0
 17 18  2  0
 18 19  1  0
 19 20  2  0
 20 21  1  0
 21 22  2  0
 16  8  1  0
 22 17  1  0
 16 11  1  0
  1 23  1  0
  1 24  1  0
  1 25  1  0
  2 26  1  0
  2 27  1  0
  6 28  1  0
  6 29  1  0
  7 30  1  0
  7 31  1  0
  9 32  1  0
 12 33  1  0
 13 34  1  0
 14 35  1  0
 15 36  1  0
 18 37  1  0
 19 38  1  0
 20 39  1  0
 21 40  1  0
 22 41  1  0
M  CHG  1   9   1
M  END
>  <UniqueID>  (3) 
3

>  <SMILES>  (3) 
CCN(C(=O)CCn1[nH+]nc2ccccc21)c1ccccc1

>  <Energy>  (3) 
84.22810511369151

>  <Genealogy>  (3) 
CCN(C(=O)CCn1[nH+]nc2ccccc21)c1ccccc1 (protonated)
CCN(C(=O)CCn1[nH+]nc2ccccc21)c1ccccc1 (3D coordinates assigned)
CCN(C(=O)CCn1[nH+]nc2ccccc21)c1ccccc1 (optimized conformer: 84.22810511369151 kcal/mol)

>  <smiles>  (3) 
CCN(C(=O)CCn1nnc2ccccc21)c1ccccc1

>  <score_type>  (3) 
oracle

>  <origin>  (3) 
adg

>  <m_score__min__energy>  (3) 
-8.1999999999999993

>  <m_primary>  (3) 
energy

$$$$
3:0
     RDKit          3D

 47 49  0  0  0  0  0  0  0  0999 V2000
   -4.7540   23.7020  -30.1640 C   0  0  0  0  0  0  0  0  0  0  0  0
   -4.1130   23.3930  -31.3980 O   0  0  0  0  0  0  0  0  0  0  0  0
   -3.8730   22.0900  -31.8600 C   0  0  0  0  0  0  0  0  0  0  0  0
   -3.2770   21.9280  -33.1150 C   0  0  0  0  0  0  0  0  0  0  0  0
   -3.0020   20.6510  -33.6120 C   0  0  0  0  0  0  0  0  0  0  0  0
   -3.3020   19.5110  -32.8470 C   0  0  0  0  0  0  0  0  0  0  0  0
   -2.9500   18.1300  -33.3500 C   0  0  0  0  0  0  0  0  0  0  0  0
   -4.1260   17.3350  -33.7690 N   0  0  0  0  0  0  0  0  0  0  0  0
   -4.8650   16.6380  -32.6880 C   0  0  0  0  0  0  0  0  0  0  0  0
   -6.3690   16.9570  -32.6640 C   0  0  0  0  0  0  0  0  0  0  0  0
   -6.5920   18.4420  -32.9570 C   0  0  0  0  0  0  0  0  0  0  0  0
   -8.0630   18.8470  -32.7310 C   0  0  0  0  0  0  0  0  0  0  0  0
   -8.1810   20.3260  -32.4570 C   0  0  0  0  0  0  0  0  0  0  0  0
   -7.0760   21.1760  -32.6350 C   0  0  0  0  0  0  0  0  0  0  0  0
   -7.1760   22.5350  -32.3230 C   0  0  0  0  0  0  0  0  0  0  0  0
   -8.3760   23.0540  -31.8280 C   0  0  0  0  0  0  0  0  0  0  0  0
   -9.4760   22.2140  -31.6410 C   0  0  0  0  0  0  0  0  0  0  0  0
   -9.3810   20.8540  -31.9500 C   0  0  0  0  0  0  0  0  0  0  0  0
   -6.1180   18.7730  -34.3900 C   0  0  0  0  0  0  0  0  0  0  0  0
   -4.9370   17.9000  -34.8690 C   0  0  0  0  0  0  0  0  0  0  0  0
   -3.9370   19.6720  -31.6060 C   0  0  0  0  0  0  0  0  0  0  0  0
   -4.2120   20.9480  -31.1090 C   0  0  0  0  0  0  0  0  0  0  0  0
   -4.1097   23.3914  -29.3283 H   0  0  0  0  0  0  0  0  0  0  0  0
   -4.9336   24.7856  -30.1054 H   0  0  0  0  0  0  0  0  0  0  0  0
   -5.7137   23.1676  -30.1054 H   0  0  0  0  0  0  0  0  0  0  0  0
   -3.0225   22.8134  -33.7161 H   0  0  0  0  0  0  0  0  0  0  0  0
   -2.5482   20.5376  -34.6076 H   0  0  0  0  0  0  0  0  0  0  0  0
   -2.2760   18.2354  -34.2129 H   0  0  0  0  0  0  0  0  0  0  0  0
   -2.4782   17.5926  -32.5142 H   0  0  0  0  0  0  0  0  0  0  0  0
   -4.7419   15.5537  -32.8261 H   0  0  0  0  0  0  0  0  0  0  0  0
   -4.4461   16.9891  -31.7334 H   0  0  0  0  0  0  0  0  0  0  0  0
   -6.8819   16.3537  -33.4276 H   0  0  0  0  0  0  0  0  0  0  0  0
   -6.7733   16.7199  -31.6688 H   0  0  0  0  0  0  0  0  0  0  0  0
   -5.9913   19.0338  -32.2507 H   0  0  0  0  0  0  0  0  0  0  0  0
   -8.6462   18.6002  -33.6304 H   0  0  0  0  0  0  0  0  0  0  0  0
   -8.4477   18.2974  -31.8592 H   0  0  0  0  0  0  0  0  0  0  0  0
   -6.1292   20.7705  -33.0211 H   0  0  0  0  0  0  0  0  0  0  0  0
   -6.3093   23.1969  -32.4672 H   0  0  0  0  0  0  0  0  0  0  0  0
   -8.4539   24.1242  -31.5857 H   0  0  0  0  0  0  0  0  0  0  0  0
  -10.4190   22.6234  -31.2498 H   0  0  0  0  0  0  0  0  0  0  0  0
  -10.2481   20.1949  -31.7959 H   0  0  0  0  0  0  0  0  0  0  0  0
   -6.9626   18.6234  -35.0787 H   0  0  0  0  0  0  0  0  0  0  0  0
   -5.7652   19.8148  -34.3800 H   0  0  0  0  0  0  0  0  0  0  0  0
   -5.3404   17.0680  -35.4648 H   0  0  0  0  0  0  0  0  0  0  0  0
   -4.2725   18.5537  -35.4531 H   0  0  0  0  0  0  0  0  0  0  0  0
   -4.2206   18.7856  -31.0196 H   0  0  0  0  0  0  0  0  0  0  0  0
   -4.6952   21.0613  -30.1273 H   0  0  0  0  0  0  0  0  0  0  0  0
  1  2  1  0
  2  3  1  0
  3  4  2  0
  4  5  1  0
  5  6  2  0
  6  7  1  0
  7  8  1  0
  8  9  1  0
  9 10  1  0
 10 11  1  0
 11 12  1  0
 12 13  1  0
 13 14  2  0
 14 15  1  0
 15 16  2  0
 16 17  1  0
 17 18  2  0
 11 19  1  0
 19 20  1  0
  6 21  1  0
 21 22  2  0
 22  3  1  0
 20  8  1  0
 18 13  1  0
  1 23  1  0
  1 24  1  0
  1 25  1  0
  4 26  1  0
  5 27  1  0
  7 28  1  0
  7 29  1  0
  9 30  1  0
  9 31  1  0
 10 32  1  0
 10 33  1  0
 11 34  1  0
 12 35  1  0
 12 36  1  0
 14 37  1  0
 15 38  1  0
 16 39  1  0
 17 40  1  0
 18 41  1  0
 19 42  1  0
 19 43  1  0
 20 44  1  0
 20 45  1  0
 21 46  1  0
 22 47  1  0
M  END
>  <UniqueID>  (4) 
4

>  <SMILES>  (4) 
COc1ccc(CN2CCC(Cc3ccccc3)CC2)cc1

>  <Energy>  (4) 
54.839391273000025

>  <Genealogy>  (4) 
COc1ccc(CN2CCC(Cc3ccccc3)CC2)cc1 (3D coordinates assigned)
COc1ccc(CN2CCC(Cc3ccccc3)CC2)cc1 (nonaromatic ring conformer: 54.839391273000025 kcal/mol)

>  <smiles>  (4) 
COc1ccc(CN2CCC(Cc3ccccc3)CC2)cc1

>  <score_type>  (4) 
oracle

>  <origin>  (4) 
adg

>  <m_score__min__energy>  (4) 
-9.1899999999999995

>  <m_primary>  (4) 
energy

$$$$
4:0
     RDKit          3D

 59 62  0  0  0  0  0  0  0  0999 V2000
   -4.7160   13.1700  -33.0550 C   0  0  0  0  0  0  0  0  0  0  0  0
   -5.3180   14.0960  -33.9530 O   0  0  0  0  0  0  0  0  0  0  0  0
   -5.5340   15.4520  -33.6640 C   0  0  0  0  0  0  0  0  0  0  0  0
   -6.8120   16.0410  -33.7150 C   0  0  0  0  0  0  0  0  0  0  0  0
   -6.9760   17.3980  -33.4210 C   0  0  0  0  0  0  0  0  0  0  0  0
   -5.8680   18.1950  -33.0730 C   0  0  0  0  0  0  0  0  0  0  0  0
   -6.0360   19.5970  -32.7650 N   0  0  0  0  0  0  0  0  0  0  0  0
   -5.1990   20.6000  -33.4440 C   0  0  0  0  0  0  0  0  0  0  0  0
   -5.2080   21.9210  -32.6730 C   0  0  0  0  0  0  0  0  0  0  0  0
   -6.5940   22.3980  -32.4830 N   0  0  0  0  0  0  0  0  0  0  0  0
   -6.6760   23.6840  -31.7570 C   0  0  0  0  0  0  0  0  0  0  0  0
   -6.4570   23.5470  -30.2320 C   0  0  0  0  0  0  0  0  0  0  0  0
   -6.0560   24.8780  -29.5750 C   0  0  0  0  0  0  0  0  0  0  0  0
   -5.1320   25.7170  -30.4680 C   0  0  0  0  0  0  0  0  0  0  0  0
   -3.8740   25.0160  -30.7030 N   0  0  0  0  0  0  0  0  0  0  0  0
   -3.0400   24.5050  -29.6560 C   0  0  0  0  0  0  0  0  0  0  0  0
   -2.3300   25.2930  -28.9740 O   0  0  0  0  0  0  0  0  0  0  0  0
   -3.0270   23.0570  -29.3770 C   0  0  0  0  0  0  0  0  0  0  0  0
   -3.6360   22.0720  -30.1520 C   0  0  0  0  0  0  0  0  0  0  0  0
   -3.4360   20.8500  -29.6070 N   0  0  0  0  0  0  0  0  0  0  0  0
   -2.7010   21.0520  -28.4990 C   0  0  0  0  0  0  0  0  0  0  0  0
   -2.2500   20.0830  -27.6020 C   0  0  0  0  0  0  0  0  0  0  0  0
   -1.4960   20.5110  -26.4950 C   0  0  0  0  0  0  0  0  0  0  0  0
   -1.2110   21.8820  -26.3110 C   0  0  0  0  0  0  0  0  0  0  0  0
   -1.6790   22.8380  -27.2290 C   0  0  0  0  0  0  0  0  0  0  0  0
   -2.4310   22.3860  -28.3200 C   0  0  0  0  0  0  0  0  0  0  0  0
   -7.5680   21.3780  -32.0120 C   0  0  0  0  0  0  0  0  0  0  0  0
   -6.9250   20.0240  -31.6770 C   0  0  0  0  0  0  0  0  0  0  0  0
   -4.5950   17.5990  -33.0180 C   0  0  0  0  0  0  0  0  0  0  0  0
   -4.4340   16.2430  -33.3140 C   0  0  0  0  0  0  0  0  0  0  0  0
   -4.9175   13.4800  -32.0190 H   0  0  0  0  0  0  0  0  0  0  0  0
   -5.1356   12.1677  -33.2260 H   0  0  0  0  0  0  0  0  0  0  0  0
   -3.6296   13.1467  -33.2260 H   0  0  0  0  0  0  0  0  0  0  0  0
   -7.6855   15.4305  -33.9875 H   0  0  0  0  0  0  0  0  0  0  0  0
   -7.9793   17.8472  -33.4618 H   0  0  0  0  0  0  0  0  0  0  0  0
   -4.1666   20.2258  -33.5076 H   0  0  0  0  0  0  0  0  0  0  0  0
   -5.6035   20.7753  -34.4518 H   0  0  0  0  0  0  0  0  0  0  0  0
   -4.7389   21.7698  -31.6896 H   0  0  0  0  0  0  0  0  0  0  0  0
   -4.6477   22.6731  -33.2478 H   0  0  0  0  0  0  0  0  0  0  0  0
   -5.9078   24.3606  -32.1596 H   0  0  0  0  0  0  0  0  0  0  0  0
   -7.6940   24.0739  -31.9038 H   0  0  0  0  0  0  0  0  0  0  0  0
   -7.3912   23.1932  -29.7714 H   0  0  0  0  0  0  0  0  0  0  0  0
   -5.6343   22.8341  -30.0743 H   0  0  0  0  0  0  0  0  0  0  0  0
   -6.9674   25.4576  -29.3666 H   0  0  0  0  0  0  0  0  0  0  0  0
   -5.5069   24.6436  -28.6511 H   0  0  0  0  0  0  0  0  0  0  0  0
   -5.6293   25.9011  -31.4317 H   0  0  0  0  0  0  0  0  0  0  0  0
   -4.9189   26.6707  -29.9630 H   0  0  0  0  0  0  0  0  0  0  0  0
   -4.2002   22.2614  -31.0771 H   0  0  0  0  0  0  0  0  0  0  0  0
   -3.7830   19.9370  -29.9780 H   0  0  0  0  0  0  0  0  0  0  0  0
   -2.4772   19.0178  -27.7560 H   0  0  0  0  0  0  0  0  0  0  0  0
   -1.1258   19.7734  -25.7677 H   0  0  0  0  0  0  0  0  0  0  0  0
   -0.6180   22.2042  -25.4423 H   0  0  0  0  0  0  0  0  0  0  0  0
   -1.4612   23.9078  -27.0944 H   0  0  0  0  0  0  0  0  0  0  0  0
   -8.0633   21.7613  -31.1077 H   0  0  0  0  0  0  0  0  0  0  0  0
   -8.2771   21.2042  -32.8348 H   0  0  0  0  0  0  0  0  0  0  0  0
   -6.3423   20.1191  -30.7489 H   0  0  0  0  0  0  0  0  0  0  0  0
   -7.7190   19.2735  -31.5493 H   0  0  0  0  0  0  0  0  0  0  0  0
   -3.7200   18.2048  -32.7400 H   0  0  0  0  0  0  0  0  0  0  0  0
   -3.4315   15.7923  -33.2714 H   0  0  0  0  0  0  0  0  0  0  0  0
  1  2  1  0
  2  3  1  0
  3  4  2  0
  4  5  1  0
  5  6  2  0
  6  7  1  0
  7  8  1  0
  8  9  1  0
  9 10  1  0
 10 11  1  0
 11 12  1  0
 12 13  1  0
 13 14  1  0
 14 15  1  0
 15 16  1  0
 16 17  2  0
 16 18  1  0
 18 19  2  0
 19 20  1  0
 20 21  1  0
 21 22  2  0
 22 23  1  0
 23 24  2  0
 24 25  1  0
 25 26  2  0
 10 27  1  0
 27 28  1  0
  6 29  1  0
 29 30  2  0
 30  3  1  0
 28  7  1  0
 26 18  1  0
 26 21  1  0
  1 31  1  0
  1 32  1  0
  1 33  1  0
  4 34  1  0
  5 35  1  0
  8 36  1  0
  8 37  1  0
  9 38  1  0
  9 39  1  0
 11 40  1  0
 11 41  1  0
 12 42  1  0
 12 43  1  0
 13 44  1  0
 13 45  1  0
 14 46  1  0
 14 47  1  0
 19 48  1  0
 20 49  1  0
 22 50  1  0
 23 51  1  0
 24 52  1  0
 25 53  1  0
 27 54  1  0
 27 55  1  0
 28 56  1  0
 28 57  1  0
 29 58  1  0
 30 59  1  0
M  CHG  1  15  -1
M  END
>  <UniqueID>  (5) 
5

>  <SMILES>  (5) 
COc1ccc(N2CCN(CCCC[N-]C(=O)c3c[nH]c4ccccc34)CC2)cc1

>  <Energy>  (5) 
100.98734577184096

>  <Genealogy>  (5) 
COc1ccc(N2CCN(CCCC[N-]C(=O)c3c[nH]c4ccccc34)CC2)cc1 (protonated)
COc1ccc(N2CCN(CCCC[N-]C(=O)c3c[nH]c4ccccc34)CC2)cc1 (3D coordinates assigned)
COc1ccc(N2CCN(CCCC[N-]C(=O)c3c[nH]c4ccccc34)CC2)cc1 (nonaromatic ring conformer: 100.98734577184096 kcal/mol)

>  <smiles>  (5) 
COc1ccc(N2CCN(CCCCNC(=O)c3c[nH]c4ccccc34)CC2)cc1

>  <score_type>  (5) 
oracle

>  <origin>  (5) 
adg

>  <m_score__min__energy>  (5) 
-10.69

>  <m_primary>  (5) 
energy

$$$$
5:0
     RDKit          3D

 32 34  0  0  0  0  0  0  0  0999 V2000
   -9.4870   22.7100  -31.9810 C   0  0  0  0  0  0  0  0  0  0  0  0
   -8.8200   21.8120  -30.5440 S   0  0  0  0  0  0  0  0  0  0  0  0
   -7.9600   20.6020  -31.5520 C   0  0  0  0  0  0  0  0  0  0  0  0
   -8.2740   19.2800  -31.5230 N   0  0  0  0  0  0  0  0  0  0  0  0
   -7.4010   18.7470  -32.3950 C   0  0  0  0  0  0  0  0  0  0  0  0
   -7.2740   17.4050  -32.7500 C   0  0  0  0  0  0  0  0  0  0  0  0
   -6.2810   17.0670  -33.6880 C   0  0  0  0  0  0  0  0  0  0  0  0
   -5.4490   18.0660  -34.2410 C   0  0  0  0  0  0  0  0  0  0  0  0
   -5.6030   19.4120  -33.8630 C   0  0  0  0  0  0  0  0  0  0  0  0
   -6.5980   19.7140  -32.9290 C   0  0  0  0  0  0  0  0  0  0  0  0
   -6.9470   20.9040  -32.4070 N   0  0  0  0  0  0  0  0  0  0  0  0
   -6.3760   22.2240  -32.6880 C   0  0  0  0  0  0  0  0  0  0  0  0
   -5.8120   22.8350  -31.4330 C   0  0  0  0  0  0  0  0  0  0  0  0
   -6.2650   24.0900  -30.9920 C   0  0  0  0  0  0  0  0  0  0  0  0
   -5.7310   24.6660  -29.8360 C   0  0  0  0  0  0  0  0  0  0  0  0
   -4.7450   23.9930  -29.1080 C   0  0  0  0  0  0  0  0  0  0  0  0
   -4.2280   24.5540  -27.9870 F   0  0  0  0  0  0  0  0  0  0  0  0
   -4.2950   22.7410  -29.5350 C   0  0  0  0  0  0  0  0  0  0  0  0
   -4.8260   22.1610  -30.6920 C   0  0  0  0  0  0  0  0  0  0  0  0
  -10.1093   23.5478  -31.6333 H   0  0  0  0  0  0  0  0  0  0  0  0
   -8.6563   23.0979  -32.5889 H   0  0  0  0  0  0  0  0  0  0  0  0
  -10.0983   22.0268  -32.5889 H   0  0  0  0  0  0  0  0  0  0  0  0
   -7.9277   16.6364  -32.3118 H   0  0  0  0  0  0  0  0  0  0  0  0
   -6.1517   16.0180  -33.9927 H   0  0  0  0  0  0  0  0  0  0  0  0
   -4.6753   17.7892  -34.9723 H   0  0  0  0  0  0  0  0  0  0  0  0
   -4.9628   20.1994  -34.2875 H   0  0  0  0  0  0  0  0  0  0  0  0
   -5.5725   22.1195  -33.4319 H   0  0  0  0  0  0  0  0  0  0  0  0
   -7.1703   22.8790  -33.0755 H   0  0  0  0  0  0  0  0  0  0  0  0
   -7.0434   24.6214  -31.5592 H   0  0  0  0  0  0  0  0  0  0  0  0
   -6.0870   25.6505  -29.4983 H   0  0  0  0  0  0  0  0  0  0  0  0
   -3.5217   22.2104  -28.9602 H   0  0  0  0  0  0  0  0  0  0  0  0
   -4.4706   21.1740  -31.0230 H   0  0  0  0  0  0  0  0  0  0  0  0
  1  2  1  0
  2  3  1  0
  3  4  2  0
  4  5  1  0
  5  6  2  0
  6  7  1  0
  7  8  2  0
  8  9  1  0
  9 10  2  0
 10 11  1  0
 11 12  1  0
 12 13  1  0
 13 14  2  0
 14 15  1  0
 15 16  2  0
 16 17  1  0
 16 18  1  0
 18 19  2  0
 11  3  1  0
 19 13  1  0
 10  5  1  0
  1 20  1  0
  1 21  1  0
  1 22  1  0
  6 23  1  0
  7 24  1  0
  8 25  1  0
  9 26  1  0
 12 27  1  0
 12 28  1  0
 14 29  1  0
 15 30  1  0
 18 31  1  0
 19 32  1  0
M  END
>  <UniqueID>  (6) 
6

>  <SMILES>  (6) 
CSc1nc2ccccc2n1Cc1ccc(F)cc1

>  <Energy>  (6) 
66.15257080902734

>  <Genealogy>  (6) 
CSc1nc2ccccc2n1Cc1ccc(F)cc1 (3D coordinates assigned)
CSc1nc2ccccc2n1Cc1ccc(F)cc1 (optimized conformer: 66.15257080902734 kcal/mol)

>  <smiles>  (6) 
CSc1nc2ccccc2n1Cc1ccc(F)cc1

>  <score_type>  (6) 
oracle

>  <origin>  (6) 
adg

>  <m_score__min__energy>  (6) 
-6.7800000000000002

>  <m_primary>  (6) 
energy

$$$$
6:0
     RDKit          3D

 42 44  0  0  0  0  0  0  0  0999 V2000
   -1.4560   25.7430  -25.8910 C   0  0  0  0  0  0  0  0  0  0  0  0
   -1.9460   25.3110  -27.2320 C   0  0  0  0  0  0  0  0  0  0  0  0
   -2.9190   24.3630  -27.4710 C   0  0  0  0  0  0  0  0  0  0  0  0
   -3.0580   24.3910  -28.8420 C   0  0  0  0  0  0  0  0  0  0  0  0
   -4.0100   23.5650  -29.6590 C   0  0  0  0  0  0  0  0  0  0  0  0
   -4.1910   24.1140  -31.0100 N   0  0  0  0  0  0  0  0  0  0  0  0
   -5.5690   24.5680  -31.2350 C   0  0  0  0  0  0  0  0  0  0  0  0
   -6.4520   23.3800  -31.5020 C   0  0  0  0  0  0  0  0  0  0  0  0
   -7.8290   23.4580  -31.2610 C   0  0  0  0  0  0  0  0  0  0  0  0
   -8.6510   22.3720  -31.5460 C   0  0  0  0  0  0  0  0  0  0  0  0
   -8.1130   21.2000  -32.0810 C   0  0  0  0  0  0  0  0  0  0  0  0
   -6.7280   21.0880  -32.3470 C   0  0  0  0  0  0  0  0  0  0  0  0
   -6.1630   19.8640  -32.9140 N   0  0  0  0  0  0  0  0  0  0  0  0
   -4.7920   19.8880  -33.4690 C   0  0  0  0  0  0  0  0  0  0  0  0
   -4.3020   18.5200  -33.9510 C   0  0  0  0  0  0  0  0  0  0  0  0
   -5.3410   17.8030  -34.5740 O   0  0  0  0  0  0  0  0  0  0  0  0
   -6.2790   17.4400  -33.5890 C   0  0  0  0  0  0  0  0  0  0  0  0
   -7.0200   18.6680  -33.0570 C   0  0  0  0  0  0  0  0  0  0  0  0
   -5.9120   22.2090  -32.0560 C   0  0  0  0  0  0  0  0  0  0  0  0
   -2.2420   25.2920  -29.3370 O   0  0  0  0  0  0  0  0  0  0  0  0
   -1.5590   25.8730  -28.3940 N   0  0  0  0  0  0  0  0  0  0  0  0
   -2.0349   25.2326  -25.1072 H   0  0  0  0  0  0  0  0  0  0  0  0
   -0.3919   25.4838  -25.7885 H   0  0  0  0  0  0  0  0  0  0  0  0
   -1.5798   26.8312  -25.7885 H   0  0  0  0  0  0  0  0  0  0  0  0
   -3.4547   23.7360  -26.7431 H   0  0  0  0  0  0  0  0  0  0  0  0
   -3.6135   22.5422  -29.7409 H   0  0  0  0  0  0  0  0  0  0  0  0
   -4.9873   23.5720  -29.1543 H   0  0  0  0  0  0  0  0  0  0  0  0
   -3.5390   24.9250  -31.1400 H   0  0  0  0  0  0  0  0  0  0  0  0
   -5.9301   25.0997  -30.3423 H   0  0  0  0  0  0  0  0  0  0  0  0
   -5.5946   25.2454  -32.1013 H   0  0  0  0  0  0  0  0  0  0  0  0
   -8.2620   24.3798  -30.8454 H   0  0  0  0  0  0  0  0  0  0  0  0
   -9.7312   22.4373  -31.3486 H   0  0  0  0  0  0  0  0  0  0  0  0
   -8.7765   20.3502  -32.2992 H   0  0  0  0  0  0  0  0  0  0  0  0
   -4.7737   20.5838  -34.3207 H   0  0  0  0  0  0  0  0  0  0  0  0
   -4.1206   20.2034  -32.6567 H   0  0  0  0  0  0  0  0  0  0  0  0
   -3.4827   18.6644  -34.6707 H   0  0  0  0  0  0  0  0  0  0  0  0
   -3.9530   17.9458  -33.0801 H   0  0  0  0  0  0  0  0  0  0  0  0
   -7.0078   16.7419  -34.0265 H   0  0  0  0  0  0  0  0  0  0  0  0
   -5.7434   16.9654  -32.7537 H   0  0  0  0  0  0  0  0  0  0  0  0
   -7.8380   18.9081  -33.7522 H   0  0  0  0  0  0  0  0  0  0  0  0
   -7.3850   18.4122  -32.0513 H   0  0  0  0  0  0  0  0  0  0  0  0
   -4.8338   22.1606  -32.2685 H   0  0  0  0  0  0  0  0  0  0  0  0
  1  2  1  0
  2  3  1  0
  3  4  2  0
  4  5  1  0
  5  6  1  0
  6  7  1  0
  7  8  1  0
  8  9  2  0
  9 10  1  0
 10 11  2  0
 11 12  1  0
 12 13  1  0
 13 14  1  0
 14 15  1  0
 15 16  1  0
 16 17  1  0
 17 18  1  0
 12 19  2  0
  4 20  1  0
 20 21  1  0
 21  2  2  0
 19  8  1  0
 18 13  1  0
  1 22  1  0
  1 23  1  0
  1 24  1  0
  3 25  1  0
  5 26  1  0
  5 27  1  0
  6 28  1  0
  7 29  1  0
  7 30  1  0
  9 31  1  0
 10 32  1  0
 11 33  1  0
 14 34  1  0
 14 35  1  0
 15 36  1  0
 15 37  1  0
 17 38  1  0
 17 39  1  0
 18 40  1  0
 18 41  1  0
 19 42  1  0
M  END
>  <UniqueID>  (7) 
7

>  <SMILES>  (7) 
Cc1cc(CNCc2cccc(N3CCOCC3)c2)on1

>  <Energy>  (7) 
77.93991984916465

>  <Genealogy>  (7) 
Cc1cc(CNCc2cccc(N3CCOCC3)c2)on1 (3D coordinates assigned)
Cc1cc(CNCc2cccc(N3CCOCC3)c2)on1 (nonaromatic ring conformer: 77.93991984916465 kcal/mol)

>  <smiles>  (7) 
Cc1cc(CNCc2cccc(N3CCOCC3)c2)on1

>  <score_type>  (7) 
oracle

>  <origin>  (7) 
adg

>  <m_score__min__energy>  (7) 
-8.9499999999999993

>  <m_primary>  (7) 
energy

$$$$
7:0
     RDKit          3D

 29 30  0  0  0  0  0  0  0  0999 V2000
   -2.1680   21.2780  -32.9210 C   0  0  0  0  0  0  0  0  0  0  0  0
   -3.5500   21.4980  -32.3940 C   0  0  0  0  0  0  0  0  0  0  0  0
   -4.6450   20.8620  -32.8510 N   0  0  0  0  0  0  0  0  0  0  0  0
   -5.6860   21.1950  -32.0990 N   0  0  0  0  0  0  0  0  0  0  0  0
   -6.9710   20.5520  -32.2010 C   0  0  0  0  0  0  0  0  0  0  0  0
   -7.0840   19.1540  -32.2920 C   0  0  0  0  0  0  0  0  0  0  0  0
   -8.3420   18.5490  -32.3800 C   0  0  0  0  0  0  0  0  0  0  0  0
   -9.4980   19.3310  -32.3730 C   0  0  0  0  0  0  0  0  0  0  0  0
   -9.4000   20.7210  -32.2750 C   0  0  0  0  0  0  0  0  0  0  0  0
   -8.1440   21.3290  -32.1860 C   0  0  0  0  0  0  0  0  0  0  0  0
   -5.2650   22.0540  -31.1370 C   0  0  0  0  0  0  0  0  0  0  0  0
   -6.2650   22.6810  -29.7740 S   0  0  0  0  0  0  0  0  0  0  0  0
   -6.5540   24.3420  -30.4880 C   0  0  0  0  0  0  0  0  0  0  0  0
   -5.3050   25.0810  -30.6860 C   0  0  0  0  0  0  0  0  0  0  0  0
   -4.3180   25.6670  -30.8350 N   0  0  0  0  0  0  0  0  0  0  0  0
   -3.9020   22.2460  -31.2870 C   0  0  0  0  0  0  0  0  0  0  0  0
   -3.0190   22.9790  -30.4180 C   0  0  0  0  0  0  0  0  0  0  0  0
   -2.3090   23.5680  -29.7200 N   0  0  0  0  0  0  0  0  0  0  0  0
   -1.4682   21.1666  -32.0797 H   0  0  0  0  0  0  0  0  0  0  0  0
   -2.1508   20.3658  -33.5355 H   0  0  0  0  0  0  0  0  0  0  0  0
   -1.8684   22.1398  -33.5355 H   0  0  0  0  0  0  0  0  0  0  0  0
   -4.6720   20.1840  -33.6460 H   0  0  0  0  0  0  0  0  0  0  0  0
   -6.1771   18.5315  -32.2940 H   0  0  0  0  0  0  0  0  0  0  0  0
   -8.4204   17.4544  -32.4549 H   0  0  0  0  0  0  0  0  0  0  0  0
  -10.4861   18.8529  -32.4446 H   0  0  0  0  0  0  0  0  0  0  0  0
  -10.3111   21.3374  -32.2678 H   0  0  0  0  0  0  0  0  0  0  0  0
   -8.0723   22.4236  -32.1036 H   0  0  0  0  0  0  0  0  0  0  0  0
   -7.0566   24.2279  -31.4598 H   0  0  0  0  0  0  0  0  0  0  0  0
   -7.1762   24.9110  -29.7816 H   0  0  0  0  0  0  0  0  0  0  0  0
  1  2  1  0
  2  3  2  0
  3  4  1  0
  4  5  1  0
  5  6  2  0
  6  7  1  0
  7  8  2  0
  8  9  1  0
  9 10  2  0
  4 11  1  0
 11 12  1  0
 12 13  1  0
 13 14  1  0
 14 15  3  0
 11 16  2  0
 16 17  1  0
 17 18  3  0
 16  2  1  0
 10  5  1  0
  1 19  1  0
  1 20  1  0
  1 21  1  0
  3 22  1  0
  6 23  1  0
  7 24  1  0
  8 25  1  0
  9 26  1  0
 10 27  1  0
 13 28  1  0
 13 29  1  0
M  CHG  1   3   1
M  END
>  <UniqueID>  (8) 
8

>  <SMILES>  (8) 
Cc1[nH+]n(-c2ccccc2)c(SCC#N)c1C#N

>  <Energy>  (8) 
62.2786393098795

>  <Genealogy>  (8) 
Cc1[nH+]n(-c2ccccc2)c(SCC#N)c1C#N (protonated)
Cc1[nH+]n(-c2ccccc2)c(SCC#N)c1C#N (3D coordinates assigned)
Cc1[nH+]n(-c2ccccc2)c(SCC#N)c1C#N (optimized conformer: 62.2786393098795 kcal/mol)

>  <smiles>  (8) 
Cc1nn(-c2ccccc2)c(SCC#N)c1C#N

>  <score_type>  (8) 
oracle

>  <origin>  (8) 
adg

>  <m_score__min__energy>  (8) 
-6.2699999999999996

>  <m_primary>  (8) 
energy

$$$$
8:0
     RDKit          3D

 58 63  0  0  0  0  0  0  0  0999 V2000
   -3.0610   18.5650  -25.7510 C   0  0  0  0  0  0  0  0  0  0  0  0
   -2.0380   19.3960  -26.2910 O   0  0  0  0  0  0  0  0  0  0  0  0
   -2.1740   20.1740  -27.4510 C   0  0  0  0  0  0  0  0  0  0  0  0
   -2.9300   21.3610  -27.4680 C   0  0  0  0  0  0  0  0  0  0  0  0
   -3.0670   22.1010  -28.6490 C   0  0  0  0  0  0  0  0  0  0  0  0
   -2.4260   21.6820  -29.8210 C   0  0  0  0  0  0  0  0  0  0  0  0
   -1.6480   20.5070  -29.8010 C   0  0  0  0  0  0  0  0  0  0  0  0
   -1.5330   19.7460  -28.6220 C   0  0  0  0  0  0  0  0  0  0  0  0
   -0.7880   18.5570  -28.5740 O   0  0  0  0  0  0  0  0  0  0  0  0
    0.4640   18.4110  -27.9100 C   0  0  0  0  0  0  0  0  0  0  0  0
   -2.6480   22.5430  -31.0580 C   0  0  1  0  0  0  0  0  0  0  0  0
   -2.1980   21.9250  -32.3850 C   0  0  0  0  0  0  0  0  0  0  0  0
   -3.0480   20.7420  -32.7310 C   0  0  0  0  0  0  0  0  0  0  0  0
   -2.5360   19.7410  -33.5660 C   0  0  0  0  0  0  0  0  0  0  0  0
   -3.3470   18.6870  -33.9790 C   0  0  0  0  0  0  0  0  0  0  0  0
   -4.6870   18.6380  -33.5930 C   0  0  0  0  0  0  0  0  0  0  0  0
   -5.2260   19.6370  -32.7580 C   0  0  0  0  0  0  0  0  0  0  0  0
   -4.3910   20.6880  -32.3070 C   0  0  0  0  0  0  0  0  0  0  0  0
   -4.9770   21.7370  -31.3620 C   0  0  2  0  0  0  0  0  0  0  0  0
   -6.3460   22.1530  -31.9530 C   0  0  0  0  0  0  0  0  0  0  0  0
   -7.2500   20.9390  -32.0660 C   0  0  0  0  0  0  0  0  0  0  0  0
   -8.6380   21.0450  -31.8340 C   0  0  0  0  0  0  0  0  0  0  0  0
   -9.1850   22.2960  -31.5050 O   0  0  0  0  0  0  0  0  0  0  0  0
   -9.1460   23.4430  -32.3480 C   0  0  0  0  0  0  0  0  0  0  0  0
   -9.4420   19.8950  -31.9390 C   0  0  0  0  0  0  0  0  0  0  0  0
   -8.8760   18.6620  -32.2590 C   0  0  0  0  0  0  0  0  0  0  0  0
   -7.5090   18.5590  -32.5080 C   0  0  0  0  0  0  0  0  0  0  0  0
   -6.6840   19.6970  -32.4440 C   0  0  0  0  0  0  0  0  0  0  0  0
   -4.0790   22.9160  -31.1600 N   0  0  0  0  0  0  0  0  0  0  0  0
   -4.4830   23.7660  -30.0010 C   0  0  0  0  0  0  0  0  0  0  0  0
   -3.8100   23.4100  -28.6420 C   0  0  0  0  0  0  0  0  0  0  0  0
   -3.0192   18.5990  -24.6523 H   0  0  0  0  0  0  0  0  0  0  0  0
   -4.0432   18.9242  -26.0918 H   0  0  0  0  0  0  0  0  0  0  0  0
   -2.9107   17.5300  -26.0918 H   0  0  0  0  0  0  0  0  0  0  0  0
   -3.4174   21.7104  -26.5458 H   0  0  0  0  0  0  0  0  0  0  0  0
   -1.1267   20.1820  -30.7135 H   0  0  0  0  0  0  0  0  0  0  0  0
    0.3061   18.4294  -26.8215 H   0  0  0  0  0  0  0  0  0  0  0  0
    0.9222   17.4533  -28.1979 H   0  0  0  0  0  0  0  0  0  0  0  0
    1.1303   19.2375  -28.1979 H   0  0  0  0  0  0  0  0  0  0  0  0
   -2.0037   23.4217  -30.9069 H   0  0  0  0  0  0  0  0  0  0  0  0
   -2.2848   22.6780  -33.1822 H   0  0  0  0  0  0  0  0  0  0  0  0
   -1.1536   21.5942  -32.2858 H   0  0  0  0  0  0  0  0  0  0  0  0
   -1.4881   19.7876  -33.8972 H   0  0  0  0  0  0  0  0  0  0  0  0
   -2.9297   17.8900  -34.6120 H   0  0  0  0  0  0  0  0  0  0  0  0
   -5.3267   17.8143  -33.9427 H   0  0  0  0  0  0  0  0  0  0  0  0
   -5.0925   21.3060  -30.3566 H   0  0  0  0  0  0  0  0  0  0  0  0
   -6.8164   22.8980  -31.2945 H   0  0  0  0  0  0  0  0  0  0  0  0
   -6.1927   22.5849  -32.9530 H   0  0  0  0  0  0  0  0  0  0  0  0
   -9.1151   24.3519  -31.7292 H   0  0  0  0  0  0  0  0  0  0  0  0
   -8.2488   23.4010  -32.9830 H   0  0  0  0  0  0  0  0  0  0  0  0
  -10.0440   23.4621  -32.9830 H   0  0  0  0  0  0  0  0  0  0  0  0
  -10.5259   19.9696  -31.7672 H   0  0  0  0  0  0  0  0  0  0  0  0
   -9.5116   17.7660  -32.3152 H   0  0  0  0  0  0  0  0  0  0  0  0
   -7.0715   17.5808  -32.7564 H   0  0  0  0  0  0  0  0  0  0  0  0
   -4.2303   24.8093  -30.2414 H   0  0  0  0  0  0  0  0  0  0  0  0
   -5.5599   23.5921  -29.8596 H   0  0  0  0  0  0  0  0  0  0  0  0
   -3.0985   24.2098  -28.3887 H   0  0  0  0  0  0  0  0  0  0  0  0
   -4.6191   23.3118  -27.9032 H   0  0  0  0  0  0  0  0  0  0  0  0
  1  2  1  0
  2  3  1  0
  3  4  2  0
  4  5  1  0
  5  6  2  0
  6  7  1  0
  7  8  2  0
  8  9  1  0
  9 10  1  0
  6 11  1  0
 11 12  1  0
 12 13  1  0
 13 14  2  0
 14 15  1  0
 15 16  2  0
 16 17  1  0
 17 18  2  0
 18 19  1  0
 19 20  1  0
 20 21  1  0
 21 22  2  0
 22 23  1  0
 23 24  1  0
 22 25  1  0
 25 26  2  0
 26 27  1  0
 27 28  2  0
 19 29  1  0
 29 30  1  0
 30 31  1  0
  8  3  1  0
 29 11  1  0
 31  5  1  0
 18 13  1  0
 28 21  1  0
 28 17  1  0
  1 32  1  0
  1 33  1  0
  1 34  1  0
  4 35  1  0
  7 36  1  0
 10 37  1  0
 10 38  1  0
 10 39  1  0
 11 40  1  1
 12 41  1  0
 12 42  1  0
 14 43  1  0
 15 44  1  0
 16 45  1  0
 19 46  1  1
 20 47  1  0
 20 48  1  0
 24 49  1  0
 24 50  1  0
 24 51  1  0
 25 52  1  0
 26 53  1  0
 27 54  1  0
 30 55  1  0
 30 56  1  0
 31 57  1  0
 31 58  1  0
M  END
>  <UniqueID>  (9) 
9

>  <SMILES>  (9) 
COc1cc2c(cc1OC)[C@H]1Cc3cccc4c3[C@H](Cc3c(OC)cccc3-4)N1CC2

>  <Energy>  (9) 
92.36120795105543

>  <Genealogy>  (9) 
COc1cc2c(cc1OC)[C@H]1Cc3cccc4c3[C@H](Cc3c(OC)cccc3-4)N1CC2 (chirality)
COc1cc2c(cc1OC)[C@H]1Cc3cccc4c3[C@H](Cc3c(OC)cccc3-4)N1CC2 (3D coordinates assigned)
COc1cc2c(cc1OC)[C@H]1Cc3cccc4c3[C@H](Cc3c(OC)cccc3-4)N1CC2 (nonaromatic ring conformer: 92.36120795105543 kcal/mol)

>  <smiles>  (9) 
COc1cc2c(cc1OC)C1Cc3cccc4c3C(Cc3c(OC)cccc3-4)N1CC2

>  <score_type>  (9) 
oracle

>  <origin>  (9) 
adg

>  <m_score__min__energy>  (9) 
-9.5500000000000007

>  <m_primary>  (9) 
energy

$$$$
9:0
     RDKit          3D

 45 48  0  0  1  0  0  0  0  0999 V2000
   -5.4080   25.6540  -30.8450 C   0  0  0  0  0  0  0  0  0  0  0  0
   -4.1520   25.0360  -30.7710 O   0  0  0  0  0  0  0  0  0  0  0  0
   -3.9210   24.0230  -29.8920 C   0  0  0  0  0  0  0  0  0  0  0  0
   -4.0430   24.1490  -28.5030 C   0  0  0  0  0  0  0  0  0  0  0  0
   -3.7960   23.0790  -27.6680 C   0  0  0  0  0  0  0  0  0  0  0  0
   -3.4180   21.8350  -28.1300 C   0  0  0  0  0  0  0  0  0  0  0  0
   -3.2960   21.7100  -29.5080 C   0  0  0  0  0  0  0  0  0  0  0  0
   -3.5430   22.7770  -30.3450 C   0  0  0  0  0  0  0  0  0  0  0  0
   -3.3730   22.4880  -31.8220 C   0  0  0  0  0  0  0  0  0  0  0  0
   -4.6170   22.4870  -32.4820 N   0  0  0  0  0  0  0  0  0  0  0  0
   -5.3790   21.4760  -32.6430 C   0  0  0  0  0  0  0  0  0  0  0  0
   -4.9180   20.3050  -33.0700 N   0  0  0  0  0  0  0  0  0  0  0  0
   -5.7590   19.2830  -33.2110 C   0  0  0  0  0  0  0  0  0  0  0  0
   -5.3190   17.9660  -33.6950 C   0  0  0  0  0  0  0  0  0  0  0  0
   -4.1490   17.8120  -34.4350 C   0  0  0  0  0  0  0  0  0  0  0  0
   -3.7380   16.5620  -34.8740 C   0  0  0  0  0  0  0  0  0  0  0  0
   -4.5180   15.4690  -34.5610 C   0  0  0  0  0  0  0  0  0  0  0  0
   -5.6840   15.5770  -33.8310 C   0  0  0  0  0  0  0  0  0  0  0  0
   -6.0810   16.8300  -33.4000 C   0  0  0  0  0  0  0  0  0  0  0  0
   -7.0910   19.4080  -32.9260 N   0  0  0  0  0  0  0  0  0  0  0  0
   -7.5980   20.5980  -32.4830 C   0  0  0  0  0  0  0  0  0  0  0  0
   -8.9260   20.7650  -32.1830 C   0  0  0  0  0  0  0  0  0  0  0  0
   -9.4060   21.9940  -31.7340 C   0  0  0  0  0  0  0  0  0  0  0  0
   -8.5450   23.0610  -31.5850 C   0  0  0  0  0  0  0  0  0  0  0  0
   -7.2230   22.8530  -31.8960 C   0  0  0  0  0  0  0  0  0  0  0  0
   -6.7200   21.6460  -32.3430 C   0  0  0  0  0  0  0  0  0  0  0  0
   -5.7857   25.8398  -29.8287 H   0  0  0  0  0  0  0  0  0  0  0  0
   -5.3155   26.6094  -31.3822 H   0  0  0  0  0  0  0  0  0  0  0  0
   -6.1085   24.9977  -31.3822 H   0  0  0  0  0  0  0  0  0  0  0  0
   -4.3403   25.1159  -28.0709 H   0  0  0  0  0  0  0  0  0  0  0  0
   -3.9055   23.2243  -26.5832 H   0  0  0  0  0  0  0  0  0  0  0  0
   -3.2250   20.9934  -27.4485 H   0  0  0  0  0  0  0  0  0  0  0  0
   -2.9972   20.7430  -29.9387 H   0  0  0  0  0  0  0  0  0  0  0  0
   -2.7296   23.2607  -32.2681 H   0  0  0  0  0  0  0  0  0  0  0  0
   -2.9156   21.4940  -31.9344 H   0  0  0  0  0  0  0  0  0  0  0  0
   -3.9300   20.2080  -33.2850 H   0  0  0  0  0  0  0  0  0  0  0  0
   -3.5408   18.6965  -34.6753 H   0  0  0  0  0  0  0  0  0  0  0  0
   -2.8127   16.4456  -35.4574 H   0  0  0  0  0  0  0  0  0  0  0  0
   -4.1991   14.4743  -34.9059 H   0  0  0  0  0  0  0  0  0  0  0  0
   -6.2849   14.6858  -33.5969 H   0  0  0  0  0  0  0  0  0  0  0  0
   -7.0082   16.9348  -32.8175 H   0  0  0  0  0  0  0  0  0  0  0  0
   -9.6200   19.9193  -32.2981 H   0  0  0  0  0  0  0  0  0  0  0  0
  -10.4737   22.1132  -31.4980 H   0  0  0  0  0  0  0  0  0  0  0  0
   -8.9024   24.0394  -31.2313 H   0  0  0  0  0  0  0  0  0  0  0  0
   -6.5249   23.6955  -31.7827 H   0  0  0  0  0  0  0  0  0  0  0  0
  1  2  1  0
  2  3  1  0
  3  4  2  0
  4  5  1  0
  5  6  2  0
  6  7  1  0
  7  8  2  0
  8  9  1  0
  9 10  1  0
 10 11  2  0
 11 12  1  0
 12 13  1  0
 13 14  1  0
 14 15  2  0
 15 16  1  0
 16 17  2  0
 17 18  1  0
 18 19  2  0
 13 20  2  0
 20 21  1  0
 21 22  2  0
 22 23  1  0
 23 24  2  0
 24 25  1  0
 25 26  2  0
  8  3  1  0
 26 11  1  0
 19 14  1  0
 26 21  1  0
  1 27  1  0
  1 28  1  0
  1 29  1  0
  4 30  1  0
  5 31  1  0
  6 32  1  0
  7 33  1  0
  9 34  1  0
  9 35  1  0
 12 36  1  0
 15 37  1  0
 16 38  1  0
 17 39  1  0
 18 40  1  0
 19 41  1  0
 22 42  1  0
 23 43  1  0
 24 44  1  0
 25 45  1  0
M  END
>  <smiles>  (10) 
COc1ccccc1CN=c1[nH]c(-c2ccccc2)nc2ccccc12

>  <score_type>  (10) 
oracle

>  <origin>  (10) 
adg

>  <m_score__min__energy>  (10) 
-9.1600000000000001

>  <m_primary>  (10) 
energy

$$$$
10:0
     RDKit          3D

 48 50  0  0  0  0  0  0  0  0999 V2000
   -5.6500   25.6070  -30.4950 C   0  0  0  0  0  0  0  0  0  0  0  0
   -4.5500   24.7480  -30.7680 O   0  0  0  0  0  0  0  0  0  0  0  0
   -4.4860   23.4290  -30.3030 C   0  0  0  0  0  0  0  0  0  0  0  0
   -4.7960   23.1660  -29.1080 O   0  0  0  0  0  0  0  0  0  0  0  0
   -4.0550   22.3460  -31.2150 C   0  0  0  0  0  0  0  0  0  0  0  0
   -3.6230   21.1090  -30.7040 C   0  0  0  0  0  0  0  0  0  0  0  0
   -3.2170   20.0880  -31.5700 C   0  0  0  0  0  0  0  0  0  0  0  0
   -3.2320   20.2890  -32.9580 C   0  0  0  0  0  0  0  0  0  0  0  0
   -2.8260   19.1820  -33.8970 C   0  0  0  0  0  0  0  0  0  0  0  0
   -3.9940   18.3660  -34.2950 N   0  0  0  0  0  0  0  0  0  0  0  0
   -5.2560   19.1440  -34.1920 C   0  0  0  0  0  0  0  0  0  0  0  0
   -6.4780   18.2330  -34.0020 C   0  0  0  0  0  0  0  0  0  0  0  0
   -6.3650   17.4150  -32.7710 N   0  0  0  0  0  0  0  0  0  0  0  0
   -7.2560   17.8370  -31.6650 C   0  0  0  0  0  0  0  0  0  0  0  0
   -7.7300   19.2740  -31.7690 C   0  0  0  0  0  0  0  0  0  0  0  0
   -9.0740   19.5670  -32.0590 C   0  0  0  0  0  0  0  0  0  0  0  0
   -9.5020   20.8940  -32.1660 C   0  0  0  0  0  0  0  0  0  0  0  0
   -8.5980   21.9400  -31.9660 C   0  0  0  0  0  0  0  0  0  0  0  0
   -7.2670   21.6600  -31.6480 C   0  0  0  0  0  0  0  0  0  0  0  0
   -6.8360   20.3350  -31.5400 C   0  0  0  0  0  0  0  0  0  0  0  0
   -4.9760   17.1390  -32.3430 C   0  0  0  0  0  0  0  0  0  0  0  0
   -4.0300   17.0800  -33.5510 C   0  0  0  0  0  0  0  0  0  0  0  0
   -3.6680   21.5190  -33.4700 C   0  0  0  0  0  0  0  0  0  0  0  0
   -4.0740   22.5410  -32.6060 C   0  0  0  0  0  0  0  0  0  0  0  0
   -5.7767   25.7059  -29.4068 H   0  0  0  0  0  0  0  0  0  0  0  0
   -5.4593   26.5976  -30.9335 H   0  0  0  0  0  0  0  0  0  0  0  0
   -6.5649   25.1819  -30.9335 H   0  0  0  0  0  0  0  0  0  0  0  0
   -3.6042   20.9432  -29.6167 H   0  0  0  0  0  0  0  0  0  0  0  0
   -2.8844   19.1228  -31.1603 H   0  0  0  0  0  0  0  0  0  0  0  0
   -2.3722   19.6226  -34.7969 H   0  0  0  0  0  0  0  0  0  0  0  0
   -2.1055   18.5316  -33.3795 H   0  0  0  0  0  0  0  0  0  0  0  0
   -5.1839   19.8259  -33.3319 H   0  0  0  0  0  0  0  0  0  0  0  0
   -5.3897   19.7015  -35.1308 H   0  0  0  0  0  0  0  0  0  0  0  0
   -7.3811   18.8573  -33.9337 H   0  0  0  0  0  0  0  0  0  0  0  0
   -6.5349   17.5511  -34.8632 H   0  0  0  0  0  0  0  0  0  0  0  0
   -8.1389   17.1808  -31.6625 H   0  0  0  0  0  0  0  0  0  0  0  0
   -6.6696   17.7616  -30.7374 H   0  0  0  0  0  0  0  0  0  0  0  0
   -9.7934   18.7474  -32.2026 H   0  0  0  0  0  0  0  0  0  0  0  0
  -10.5521   21.1145  -32.4080 H   0  0  0  0  0  0  0  0  0  0  0  0
   -8.9340   22.9833  -32.0589 H   0  0  0  0  0  0  0  0  0  0  0  0
   -6.5570   22.4837  -31.4823 H   0  0  0  0  0  0  0  0  0  0  0  0
   -5.7904   20.1206  -31.2741 H   0  0  0  0  0  0  0  0  0  0  0  0
   -4.6432   17.9379  -31.6641 H   0  0  0  0  0  0  0  0  0  0  0  0
   -4.9534   16.1651  -31.8320 H   0  0  0  0  0  0  0  0  0  0  0  0
   -3.0153   16.8468  -33.1960 H   0  0  0  0  0  0  0  0  0  0  0  0
   -4.4014   16.3027  -34.2350 H   0  0  0  0  0  0  0  0  0  0  0  0
   -3.6909   21.6813  -34.5577 H   0  0  0  0  0  0  0  0  0  0  0  0
   -4.4104   23.5037  -33.0183 H   0  0  0  0  0  0  0  0  0  0  0  0
  1  2  1  0
  2  3  1  0
  3  4  2  0
  3  5  1  0
  5  6  2  0
  6  7  1  0
  7  8  2  0
  8  9  1  0
  9 10  1  0
 10 11  1  0
 11 12  1  0
 12 13  1  0
 13 14  1  0
 14 15  1  0
 15 16  2  0
 16 17  1  0
 17 18  2  0
 18 19  1  0
 19 20  2  0
 13 21  1  0
 21 22  1  0
  8 23  1  0
 23 24  2  0
 24  5  1  0
 22 10  1  0
 20 15  1  0
  1 25  1  0
  1 26  1  0
  1 27  1  0
  6 28  1  0
  7 29  1  0
  9 30  1  0
  9 31  1  0
 11 32  1  0
 11 33  1  0
 12 34  1  0
 12 35  1  0
 14 36  1  0
 14 37  1  0
 16 38  1  0
 17 39  1  0
 18 40  1  0
 19 41  1  0
 20 42  1  0
 21 43  1  0
 21 44  1  0
 22 45  1  0
 22 46  1  0
 23 47  1  0
 24 48  1  0
M  END
>  <UniqueID>  (11) 
10

>  <SMILES>  (11) 
COC(=O)c1ccc(CN2CCN(Cc3ccccc3)CC2)cc1

>  <Energy>  (11) 
62.4807760934396

>  <Genealogy>  (11) 
COC(=O)c1ccc(CN2CCN(Cc3ccccc3)CC2)cc1 (3D coordinates assigned)
COC(=O)c1ccc(CN2CCN(Cc3ccccc3)CC2)cc1 (nonaromatic ring conformer: 62.4807760934396 kcal/mol)

>  <smiles>  (11) 
COC(=O)c1ccc(CN2CCN(Cc3ccccc3)CC2)cc1

>  <score_type>  (11) 
oracle

>  <origin>  (11) 
adg

>  <m_score__min__energy>  (11) 
-8.2200000000000006

>  <m_primary>  (11) 
energy

$$$$
11:0
     RDKit          3D

 34 36  0  0  0  0  0  0  0  0999 V2000
   -5.7700   16.6280  -32.9980 C   0  0  0  0  0  0  0  0  0  0  0  0
   -6.6740   17.6020  -33.5090 O   0  0  0  0  0  0  0  0  0  0  0  0
   -7.2780   18.6150  -32.7440 C   0  0  0  0  0  0  0  0  0  0  0  0
   -8.5220   18.4180  -32.1200 C   0  0  0  0  0  0  0  0  0  0  0  0
   -9.1110   19.4430  -31.3860 C   0  0  0  0  0  0  0  0  0  0  0  0
   -8.4660   20.6690  -31.2470 C   0  0  0  0  0  0  0  0  0  0  0  0
   -7.1930   20.8900  -31.8150 C   0  0  0  0  0  0  0  0  0  0  0  0
   -6.6200   19.8560  -32.6030 C   0  0  0  0  0  0  0  0  0  0  0  0
   -5.3310   20.0760  -33.2930 C   0  0  0  0  0  0  0  0  0  0  0  0
   -4.5940   21.1580  -33.0630 C   0  0  0  0  0  0  0  0  0  0  0  0
   -5.0400   22.1840  -32.1060 C   0  0  0  0  0  0  0  0  0  0  0  0
   -4.1360   23.0670  -31.6480 C   0  0  0  0  0  0  0  0  0  0  0  0
   -4.4840   24.0780  -30.6410 C   0  0  0  0  0  0  0  0  0  0  0  0
   -3.6130   24.9090  -30.2690 O   0  0  0  0  0  0  0  0  0  0  0  0
   -5.8680   24.1580  -30.0750 C   0  0  0  0  0  0  0  0  0  0  0  0
   -6.6290   22.8370  -30.2650 C   0  0  0  0  0  0  0  0  0  0  0  0
   -6.5210   22.2720  -31.7160 C   0  0  2  0  0  0  0  0  0  0  0  0
   -7.2310   23.2100  -32.7150 C   0  0  0  0  0  0  0  0  0  0  0  0
   -5.7904   16.6500  -31.8984 H   0  0  0  0  0  0  0  0  0  0  0  0
   -6.0689   15.6298  -33.3504 H   0  0  0  0  0  0  0  0  0  0  0  0
   -4.7523   16.8517  -33.3504 H   0  0  0  0  0  0  0  0  0  0  0  0
   -9.0328   17.4482  -32.2124 H   0  0  0  0  0  0  0  0  0  0  0  0
  -10.0913   19.2838  -30.9131 H   0  0  0  0  0  0  0  0  0  0  0  0
   -8.9562   21.4781  -30.6857 H   0  0  0  0  0  0  0  0  0  0  0  0
   -4.9733   19.3262  -34.0140 H   0  0  0  0  0  0  0  0  0  0  0  0
   -3.6395   21.2884  -33.5940 H   0  0  0  0  0  0  0  0  0  0  0  0
   -3.1080   23.0315  -32.0378 H   0  0  0  0  0  0  0  0  0  0  0  0
   -5.8026   24.3818  -29.0000 H   0  0  0  0  0  0  0  0  0  0  0  0
   -6.4139   24.9513  -30.6066 H   0  0  0  0  0  0  0  0  0  0  0  0
   -6.2175   22.0924  -29.5677 H   0  0  0  0  0  0  0  0  0  0  0  0
   -7.6924   23.0399  -30.0701 H   0  0  0  0  0  0  0  0  0  0  0  0
   -7.8048   23.9681  -32.1618 H   0  0  0  0  0  0  0  0  0  0  0  0
   -6.4810   23.7073  -33.3476 H   0  0  0  0  0  0  0  0  0  0  0  0
   -7.9132   22.6232  -33.3476 H   0  0  0  0  0  0  0  0  0  0  0  0
  1  2  1  0
  2  3  1  0
  3  4  2  0
  4  5  1  0
  5  6  2  0
  6  7  1  0
  7  8  2  0
  8  9  1  0
  9 10  2  0
 10 11  1  0
 11 12  2  0
 12 13  1  0
 13 14  2  0
 13 15  1  0
 15 16  1  0
 16 17  1  0
 17 18  1  6
  8  3  1  0
 17 11  1  0
 17  7  1  0
  1 19  1  0
  1 20  1  0
  1 21  1  0
  4 22  1  0
  5 23  1  0
  6 24  1  0
  9 25  1  0
 10 26  1  0
 12 27  1  0
 15 28  1  0
 15 29  1  0
 16 30  1  0
 16 31  1  0
 18 32  1  0
 18 33  1  0
 18 34  1  0
M  END
>  <UniqueID>  (12) 
11

>  <SMILES>  (12) 
COc1cccc2c1C=CC1=CC(=O)CC[C@@]12C

>  <Energy>  (12) 
40.067726507063924

>  <Genealogy>  (12) 
COc1cccc2c1C=CC1=CC(=O)CC[C@@]12C (chirality)
COc1cccc2c1C=CC1=CC(=O)CC[C@@]12C (3D coordinates assigned)
COc1cccc2c1C=CC1=CC(=O)CC[C@@]12C (nonaromatic ring conformer: 40.067726507063924 kcal/mol)

>  <smiles>  (12) 
COc1cccc2c1C=CC1=CC(=O)CCC12C

>  <score_type>  (12) 
oracle

>  <origin>  (12) 
adg

>  <m_score__min__energy>  (12) 
-8.4700000000000006

>  <m_primary>  (12) 
energy

$$$$
12:0
     RDKit          3D

 79 83  0  0  1  0  0  0  0  0999 V2000
   -4.5330   18.9840  -32.7170 C   0  0  0  0  0  0  0  0  0  0  0  0
   -5.2650   19.2940  -34.0300 C   0  0  0  0  0  0  0  0  0  0  0  0
   -6.4740   18.5390  -34.0390 N   0  0  0  0  0  0  0  0  0  0  0  0
   -6.7300   17.6840  -32.9370 C   0  0  0  0  0  0  0  0  0  0  0  0
   -7.7730   18.2090  -31.9620 C   0  0  0  0  0  0  0  0  0  0  0  0
   -8.5660   19.2650  -32.4750 N   0  0  0  0  0  0  0  0  0  0  0  0
   -8.4880   20.5140  -32.2600 C   0  0  0  0  0  0  0  0  0  0  0  0
   -7.2470   21.0700  -32.0640 C   0  0  0  0  0  0  0  0  0  0  0  0
   -7.1250   22.4150  -31.8300 C   0  0  0  0  0  0  0  0  0  0  0  0
   -5.8970   23.0890  -31.6290 N   0  0  0  0  0  0  0  0  0  0  0  0
   -5.7710   24.4610  -31.1960 C   0  0  0  0  0  0  0  0  0  0  0  0
   -5.1250   24.4310  -29.8280 C   0  0  0  0  0  0  0  0  0  0  0  0
   -4.0800   23.3080  -29.7250 C   0  0  0  0  0  0  0  0  0  0  0  0
   -3.2360   23.4360  -28.5500 C   0  0  0  0  0  0  0  0  0  0  0  0
   -2.9050   24.6720  -28.0330 N   0  0  0  0  0  0  0  0  0  0  0  0
   -2.0650   24.5100  -27.0020 C   0  0  0  0  0  0  0  0  0  0  0  0
   -1.4590   25.5350  -26.1370 C   0  0  0  0  0  0  0  0  0  0  0  0
   -1.1770   25.2010  -24.8320 C   0  0  0  0  0  0  0  0  0  0  0  0
   -0.5940   26.1120  -23.9720 C   0  0  0  0  0  0  0  0  0  0  0  0
   -0.3070   27.3660  -24.4770 C   0  0  0  0  0  0  0  0  0  0  0  0
   -0.5930   27.6910  -25.7820 C   0  0  0  0  0  0  0  0  0  0  0  0
   -0.2440   29.0660  -26.2330 C   0  0  0  0  0  0  0  0  0  0  0  0
   -0.3900   29.1100  -27.6060 F   0  0  0  0  0  0  0  0  0  0  0  0
   -1.1480   29.9680  -25.7020 F   0  0  0  0  0  0  0  0  0  0  0  0
    1.0510   29.4060  -25.8920 F   0  0  0  0  0  0  0  0  0  0  0  0
   -1.1800   26.7810  -26.6550 C   0  0  0  0  0  0  0  0  0  0  0  0
   -1.8790   23.1570  -26.8870 C   0  0  0  0  0  0  0  0  0  0  0  0
   -2.6150   22.5020  -27.8570 N   0  0  0  0  0  0  0  0  0  0  0  0
   -2.6360   21.0660  -27.8540 C   0  0  0  0  0  0  0  0  0  0  0  0
   -2.1180   20.4560  -29.1250 C   0  0  0  0  0  0  0  0  0  0  0  0
   -0.7640   20.5650  -29.4810 N   0  0  0  0  0  0  0  0  0  0  0  0
   -0.1560   19.5020  -30.2000 C   0  0  0  0  0  0  0  0  0  0  0  0
    0.0410   19.9450  -31.6450 C   0  0  0  0  0  0  0  0  0  0  0  0
   -0.8490   21.1680  -31.7230 C   0  0  0  0  0  0  0  0  0  0  0  0
   -0.6390   21.7590  -30.3190 C   0  0  0  0  0  0  0  0  0  0  0  0
   -3.5210   23.0490  -31.0490 C   0  0  0  0  0  0  0  0  0  0  0  0
   -4.6440   22.3740  -31.8740 C   0  0  0  0  0  0  0  0  0  0  0  0
   -8.2680   23.1330  -31.8050 N   0  0  0  0  0  0  0  0  0  0  0  0
   -9.4730   22.5740  -31.9970 C   0  0  0  0  0  0  0  0  0  0  0  0
   -9.6020   21.2640  -32.2270 N   0  0  0  0  0  0  0  0  0  0  0  0
   -5.1751   19.2559  -31.8662 H   0  0  0  0  0  0  0  0  0  0  0  0
   -4.2999   17.9099  -32.6719 H   0  0  0  0  0  0  0  0  0  0  0  0
   -3.5994   19.5640  -32.6719 H   0  0  0  0  0  0  0  0  0  0  0  0
   -5.4935   20.3685  -34.0872 H   0  0  0  0  0  0  0  0  0  0  0  0
   -4.6377   19.0284  -34.8936 H   0  0  0  0  0  0  0  0  0  0  0  0
   -7.2740   19.1840  -34.2060 H   0  0  0  0  0  0  0  0  0  0  0  0
   -7.0796   16.7165  -33.3264 H   0  0  0  0  0  0  0  0  0  0  0  0
   -5.7874   17.6056  -32.3755 H   0  0  0  0  0  0  0  0  0  0  0  0
   -8.4397   17.3778  -31.6890 H   0  0  0  0  0  0  0  0  0  0  0  0
   -7.2243   18.6151  -31.0995 H   0  0  0  0  0  0  0  0  0  0  0  0
   -6.3496   20.4345  -32.0949 H   0  0  0  0  0  0  0  0  0  0  0  0
   -5.1405   25.0238  -31.9001 H   0  0  0  0  0  0  0  0  0  0  0  0
   -6.7535   24.9542  -31.1574 H   0  0  0  0  0  0  0  0  0  0  0  0
   -4.6316   25.3968  -29.6440 H   0  0  0  0  0  0  0  0  0  0  0  0
   -5.9089   24.2439  -29.0793 H   0  0  0  0  0  0  0  0  0  0  0  0
   -4.5140   22.3290  -29.4737 H   0  0  0  0  0  0  0  0  0  0  0  0
   -1.4198   24.1920  -24.4675 H   0  0  0  0  0  0  0  0  0  0  0  0
   -0.3676   25.8498  -22.9280 H   0  0  0  0  0  0  0  0  0  0  0  0
    0.1588   28.1179  -23.8229 H   0  0  0  0  0  0  0  0  0  0  0  0
   -1.4084   27.0411  -27.6991 H   0  0  0  0  0  0  0  0  0  0  0  0
   -1.2411   22.6667  -26.1369 H   0  0  0  0  0  0  0  0  0  0  0  0
   -2.0146   20.7106  -27.0188 H   0  0  0  0  0  0  0  0  0  0  0  0
   -3.6872   20.7583  -27.7527 H   0  0  0  0  0  0  0  0  0  0  0  0
   -2.3408   19.3803  -29.0689 H   0  0  0  0  0  0  0  0  0  0  0  0
   -2.6205   21.0519  -29.9012 H   0  0  0  0  0  0  0  0  0  0  0  0
    0.8181   19.2595  -29.7503 H   0  0  0  0  0  0  0  0  0  0  0  0
   -0.7964   18.6083  -30.1641 H   0  0  0  0  0  0  0  0  0  0  0  0
    1.0918   20.2019  -31.8447 H   0  0  0  0  0  0  0  0  0  0  0  0
   -0.2055   19.1689  -32.3845 H   0  0  0  0  0  0  0  0  0  0  0  0
   -0.5172   21.8620  -32.5093 H   0  0  0  0  0  0  0  0  0  0  0  0
   -1.8977   20.9556  -31.9783 H   0  0  0  0  0  0  0  0  0  0  0  0
    0.3560   22.2175  -30.2202 H   0  0  0  0  0  0  0  0  0  0  0  0
   -1.3416   22.5650  -30.0608 H   0  0  0  0  0  0  0  0  0  0  0  0
   -3.2150   23.9928  -31.5239 H   0  0  0  0  0  0  0  0  0  0  0  0
   -2.6307   22.4060  -30.9869 H   0  0  0  0  0  0  0  0  0  0  0  0
   -4.3952   22.4183  -32.9446 H   0  0  0  0  0  0  0  0  0  0  0  0
   -4.7480   21.3203  -31.5759 H   0  0  0  0  0  0  0  0  0  0  0  0
  -10.3722   23.2067  -31.9644 H   0  0  0  0  0  0  0  0  0  0  0  0
  -10.5480   20.8320  -32.3770 H   0  0  0  0  0  0  0  0  0  0  0  0
  1  2  1  0
  2  3  1  0
  3  4  1  0
  4  5  1  0
  5  6  1  0
  6  7  2  0
  7  8  1  0
  8  9  2  0
  9 10  1  0
 10 11  1  0
 11 12  1  0
 12 13  1  0
 13 14  1  0
 14 15  2  0
 15 16  1  0
 16 17  1  0
 17 18  2  0
 18 19  1  0
 19 20  2  0
 20 21  1  0
 21 22  1  0
 22 23  1  0
 22 24  1  0
 22 25  1  0
 21 26  2  0
 16 27  2  0
 27 28  1  0
 28 29  1  0
 29 30  1  0
 30 31  1  0
 31 32  1  0
 32 33  1  0
 33 34  1  0
 34 35  1  0
 13 36  1  0
 36 37  1  0
  9 38  1  0
 38 39  2  0
 39 40  1  0
 40  7  1  0
 37 10  1  0
 28 14  1  0
 35 31  1  0
 26 17  1  0
  1 41  1  0
  1 42  1  0
  1 43  1  0
  2 44  1  0
  2 45  1  0
  3 46  1  0
  4 47  1  0
  4 48  1  0
  5 49  1  0
  5 50  1  0
  8 51  1  0
 11 52  1  0
 11 53  1  0
 12 54  1  0
 12 55  1  0
 13 56  1  0
 18 57  1  0
 19 58  1  0
 20 59  1  0
 26 60  1  0
 27 61  1  0
 29 62  1  0
 29 63  1  0
 30 64  1  0
 30 65  1  0
 32 66  1  0
 32 67  1  0
 33 68  1  0
 33 69  1  0
 34 70  1  0
 34 71  1  0
 35 72  1  0
 35 73  1  0
 36 74  1  0
 36 75  1  0
 37 76  1  0
 37 77  1  0
 39 78  1  0
 40 79  1  0
M  END
>  <smiles>  (13) 
CCNCCN=c1cc(N2CCC(c3nc(-c4cccc(C(F)(F)F)c4)cn3CCN3CCCC3)CC2)nc[nH]1

>  <score_type>  (13) 
oracle

>  <origin>  (13) 
adg

>  <m_score__min__energy>  (13) 
-9.9000000000000004

>  <m_primary>  (13) 
energy

$$$$
13:0
     RDKit          3D

 36 37  0  0  0  0  0  0  0  0999 V2000
   -6.2060   19.1480  -33.8400 C   0  0  0  0  0  0  0  0  0  0  0  0
   -7.2920   19.8040  -32.9950 C   0  0  0  0  0  0  0  0  0  0  0  0
   -6.7880   21.0800  -32.3760 C   0  0  0  0  0  0  0  0  0  0  0  0
   -5.4630   21.4950  -32.5870 C   0  0  0  0  0  0  0  0  0  0  0  0
   -4.9860   22.6640  -31.9870 C   0  0  0  0  0  0  0  0  0  0  0  0
   -5.8260   23.4280  -31.1650 C   0  0  0  0  0  0  0  0  0  0  0  0
   -5.2330   24.9030  -30.4060 S   0  0  0  0  0  0  0  0  0  0  0  0
   -5.7670   26.0900  -31.1580 O   0  0  0  0  0  0  0  0  0  0  0  0
   -5.7020   24.9740  -28.9780 O   0  0  0  0  0  0  0  0  0  0  0  0
   -3.4950   24.9370  -30.4420 N   0  0  0  0  0  0  0  0  0  0  0  0
   -2.9250   23.7870  -29.7360 C   0  0  0  0  0  0  0  0  0  0  0  0
   -1.8450   24.2590  -28.7570 C   0  0  2  0  0  0  0  0  0  0  0  0
   -2.3800   24.3770  -27.3380 C   0  0  0  0  0  0  0  0  0  0  0  0
   -1.5740   25.5060  -26.7800 C   0  0  0  0  0  0  0  0  0  0  0  0
   -1.2340   26.3240  -28.0100 C   0  0  0  0  0  0  0  0  0  0  0  0
   -1.3370   25.5130  -29.1590 O   0  0  0  0  0  0  0  0  0  0  0  0
   -7.1420   23.0070  -30.9390 C   0  0  0  0  0  0  0  0  0  0  0  0
   -7.6210   21.8380  -31.5380 C   0  0  0  0  0  0  0  0  0  0  0  0
   -5.4527   18.6930  -33.1801 H   0  0  0  0  0  0  0  0  0  0  0  0
   -6.6552   18.3701  -34.4748 H   0  0  0  0  0  0  0  0  0  0  0  0
   -5.7264   19.9076  -34.4748 H   0  0  0  0  0  0  0  0  0  0  0  0
   -8.1586   20.0304  -33.6335 H   0  0  0  0  0  0  0  0  0  0  0  0
   -7.5804   19.1112  -32.1907 H   0  0  0  0  0  0  0  0  0  0  0  0
   -4.7975   20.8974  -33.2273 H   0  0  0  0  0  0  0  0  0  0  0  0
   -3.9484   22.9853  -32.1604 H   0  0  0  0  0  0  0  0  0  0  0  0
   -3.7205   23.2696  -29.1798 H   0  0  0  0  0  0  0  0  0  0  0  0
   -2.4752   23.0996  -30.4675 H   0  0  0  0  0  0  0  0  0  0  0  0
   -1.0453   23.5038  -28.7675 H   0  0  0  0  0  0  0  0  0  0  0  0
   -3.4536   24.6166  -27.3368 H   0  0  0  0  0  0  0  0  0  0  0  0
   -2.2915   23.4468  -26.7576 H   0  0  0  0  0  0  0  0  0  0  0  0
   -2.1639   26.0964  -26.0634 H   0  0  0  0  0  0  0  0  0  0  0  0
   -0.6862   25.1708  -26.2237 H   0  0  0  0  0  0  0  0  0  0  0  0
   -1.9341   27.1683  -28.0935 H   0  0  0  0  0  0  0  0  0  0  0  0
   -0.2062   26.7062  -27.9227 H   0  0  0  0  0  0  0  0  0  0  0  0
   -7.8019   23.5985  -30.2874 H   0  0  0  0  0  0  0  0  0  0  0  0
   -8.6546   21.5109  -31.3519 H   0  0  0  0  0  0  0  0  0  0  0  0
  1  2  1  0
  2  3  1  0
  3  4  2  0
  4  5  1  0
  5  6  2  0
  6  7  1  0
  7  8  2  0
  7  9  2  0
  7 10  1  0
 10 11  1  0
 11 12  1  0
 12 13  1  0
 13 14  1  0
 14 15  1  0
 15 16  1  0
  6 17  1  0
 17 18  2  0
 18  3  1  0
 16 12  1  0
  1 19  1  0
  1 20  1  0
  1 21  1  0
  2 22  1  0
  2 23  1  0
  4 24  1  0
  5 25  1  0
 11 26  1  0
 11 27  1  0
 12 28  1  1
 13 29  1  0
 13 30  1  0
 14 31  1  0
 14 32  1  0
 15 33  1  0
 15 34  1  0
 17 35  1  0
 18 36  1  0
M  CHG  1  10  -1
M  END
>  <UniqueID>  (14) 
12

>  <SMILES>  (14) 
CCc1ccc(S(=O)(=O)[N-]C[C@@H]2CCCO2)cc1

>  <Energy>  (14) 
29.662007928233745

>  <Genealogy>  (14) 
CCc1ccc(S(=O)(=O)[N-]CC2CCCO2)cc1 (protonated)
CCc1ccc(S(=O)(=O)[N-]C[C@@H]2CCCO2)cc1 (chirality)
CCc1ccc(S(=O)(=O)[N-]C[C@@H]2CCCO2)cc1 (3D coordinates assigned)
CCc1ccc(S(=O)(=O)[N-]C[C@@H]2CCCO2)cc1 (nonaromatic ring conformer: 29.662007928233745 kcal/mol)

>  <smiles>  (14) 
CCc1ccc(S(=O)(=O)NCC2CCCO2)cc1

>  <score_type>  (14) 
oracle

>  <origin>  (14) 
adg

>  <m_score__min__energy>  (14) 
-9.4700000000000006

>  <m_primary>  (14) 
energy

$$$$
14:0
     RDKit          3D

 46 47  0  0  0  0  0  0  0  0999 V2000
   -3.6760   13.2740  -31.2690 C   0  0  0  0  0  0  0  0  0  0  0  0
   -2.7830   13.9440  -32.3080 C   0  0  0  0  0  0  0  0  0  0  0  0
   -3.5950   14.8000  -33.2010 N   0  0  0  0  0  0  0  0  0  0  0  0
   -3.1810   16.2210  -33.1380 C   0  0  0  0  0  0  0  0  0  0  0  0
   -2.8380   16.7570  -34.5270 C   0  0  0  0  0  0  0  0  0  0  0  0
   -5.0540   14.5870  -33.0230 C   0  0  0  0  0  0  0  0  0  0  0  0
   -5.8920   14.7620  -34.3120 C   0  0  0  0  0  0  0  0  0  0  0  0
   -6.9640   15.7490  -34.1430 N   0  0  0  0  0  0  0  0  0  0  0  0
   -6.7330   17.0910  -33.6730 C   0  0  0  0  0  0  0  0  0  0  0  0
   -5.9590   18.0110  -34.4050 C   0  0  0  0  0  0  0  0  0  0  0  0
   -5.7540   19.3060  -33.9220 C   0  0  0  0  0  0  0  0  0  0  0  0
   -6.3150   19.7110  -32.6980 C   0  0  0  0  0  0  0  0  0  0  0  0
   -6.0970   21.0890  -32.1860 C   0  0  0  0  0  0  0  0  0  0  0  0
   -7.1290   21.7750  -31.5220 C   0  0  0  0  0  0  0  0  0  0  0  0
   -6.9250   23.0710  -31.0400 C   0  0  0  0  0  0  0  0  0  0  0  0
   -5.6840   23.7100  -31.2120 C   0  0  0  0  0  0  0  0  0  0  0  0
   -5.4700   25.0450  -30.7170 N   0  0  0  0  0  0  0  0  0  0  0  0
   -6.3950   25.6760  -30.1650 O   0  0  0  0  0  0  0  0  0  0  0  0
   -4.2400   25.6480  -30.8440 O   0  0  0  0  0  0  0  0  0  0  0  0
   -4.6540   23.0240  -31.8750 C   0  0  0  0  0  0  0  0  0  0  0  0
   -4.8580   21.7280  -32.3580 C   0  0  0  0  0  0  0  0  0  0  0  0
   -7.0870   18.7910  -31.9680 C   0  0  0  0  0  0  0  0  0  0  0  0
   -7.2900   17.4950  -32.4520 C   0  0  0  0  0  0  0  0  0  0  0  0
   -3.3255   13.5369  -30.2600 H   0  0  0  0  0  0  0  0  0  0  0  0
   -4.7123   13.6193  -31.3988 H   0  0  0  0  0  0  0  0  0  0  0  0
   -3.6343   12.1825  -31.3988 H   0  0  0  0  0  0  0  0  0  0  0  0
   -2.0307   14.5624  -31.7965 H   0  0  0  0  0  0  0  0  0  0  0  0
   -2.2849   13.1683  -32.9082 H   0  0  0  0  0  0  0  0  0  0  0  0
   -4.0042   16.8165  -32.7165 H   0  0  0  0  0  0  0  0  0  0  0  0
   -2.2852   16.2957  -32.5041 H   0  0  0  0  0  0  0  0  0  0  0  0
   -2.2475   17.6798  -34.4284 H   0  0  0  0  0  0  0  0  0  0  0  0
   -2.2533   16.0044  -35.0763 H   0  0  0  0  0  0  0  0  0  0  0  0
   -3.7663   16.9727  -35.0763 H   0  0  0  0  0  0  0  0  0  0  0  0
   -5.2084   13.5639  -32.6495 H   0  0  0  0  0  0  0  0  0  0  0  0
   -5.3985   15.3594  -32.3196 H   0  0  0  0  0  0  0  0  0  0  0  0
   -5.2286   15.0943  -35.1241 H   0  0  0  0  0  0  0  0  0  0  0  0
   -6.3571   13.7935  -34.5480 H   0  0  0  0  0  0  0  0  0  0  0  0
   -7.9450   15.4780  -34.3770 H   0  0  0  0  0  0  0  0  0  0  0  0
   -5.5125   17.7084  -35.3637 H   0  0  0  0  0  0  0  0  0  0  0  0
   -5.1480   20.0153  -34.5048 H   0  0  0  0  0  0  0  0  0  0  0  0
   -8.1050   21.2878  -31.3806 H   0  0  0  0  0  0  0  0  0  0  0  0
   -7.7416   23.5953  -30.5220 H   0  0  0  0  0  0  0  0  0  0  0  0
   -3.6776   23.5107  -32.0157 H   0  0  0  0  0  0  0  0  0  0  0  0
   -4.0416   21.2044  -32.8770 H   0  0  0  0  0  0  0  0  0  0  0  0
   -7.5345   19.0925  -31.0095 H   0  0  0  0  0  0  0  0  0  0  0  0
   -7.8936   16.7846  -31.8680 H   0  0  0  0  0  0  0  0  0  0  0  0
  1  2  1  0
  2  3  1  0
  3  4  1  0
  4  5  1  0
  3  6  1  0
  6  7  1  0
  7  8  1  0
  8  9  1  0
  9 10  2  0
 10 11  1  0
 11 12  2  0
 12 13  1  0
 13 14  2  0
 14 15  1  0
 15 16  2  0
 16 17  1  0
 17 18  2  0
 17 19  1  0
 16 20  1  0
 20 21  2  0
 12 22  1  0
 22 23  2  0
 23  9  1  0
 21 13  1  0
  1 24  1  0
  1 25  1  0
  1 26  1  0
  2 27  1  0
  2 28  1  0
  4 29  1  0
  4 30  1  0
  5 31  1  0
  5 32  1  0
  5 33  1  0
  6 34  1  0
  6 35  1  0
  7 36  1  0
  7 37  1  0
  8 38  1  0
 10 39  1  0
 11 40  1  0
 14 41  1  0
 15 42  1  0
 20 43  1  0
 21 44  1  0
 22 45  1  0
 23 46  1  0
M  CHG  2  17   1  19  -1
M  END
>  <UniqueID>  (15) 
13

>  <SMILES>  (15) 
CCN(CC)CCNc1ccc(-c2ccc([N+](=O)[O-])cc2)cc1

>  <Energy>  (15) 
53.37757711235478

>  <Genealogy>  (15) 
CCN(CC)CCNc1ccc(-c2ccc([N+](=O)[O-])cc2)cc1 (3D coordinates assigned)
CCN(CC)CCNc1ccc(-c2ccc([N+](=O)[O-])cc2)cc1 (optimized conformer: 53.37757711235478 kcal/mol)

>  <smiles>  (15) 
CCN(CC)CCNc1ccc(-c2ccc([N+](=O)[O-])cc2)cc1

>  <score_type>  (15) 
oracle

>  <origin>  (15) 
adg

>  <m_score__min__energy>  (15) 
-7.2400000000000002

>  <m_primary>  (15) 
energy

$$$$
15:0
     RDKit          3D

 41 42  0  0  0  0  0  0  0  0999 V2000
   -3.1490   20.8620  -32.2300 C   0  0  0  0  0  0  0  0  0  0  0  0
   -4.2770   21.3390  -33.1370 C   0  0  0  0  0  0  0  0  0  0  0  0
   -5.4400   20.4470  -33.0200 N   0  0  0  0  0  0  0  0  0  0  0  0
   -6.4930   20.8480  -32.2920 N   0  0  0  0  0  0  0  0  0  0  0  0
   -7.5910   20.0570  -32.1160 C   0  0  0  0  0  0  0  0  0  0  0  0
   -8.7710   20.5600  -31.3280 C   0  0  0  0  0  0  0  0  0  0  0  0
   -9.3180   21.8510  -31.9490 C   0  0  0  0  0  0  0  0  0  0  0  0
   -8.3710   23.0320  -31.7340 C   0  0  0  0  0  0  0  0  0  0  0  0
   -7.4720   22.7330  -30.6760 O   0  0  0  0  0  0  0  0  0  0  0  0
   -6.3790   23.5730  -30.6710 N   0  0  0  0  0  0  0  0  0  0  0  0
   -6.6000   24.9240  -30.1200 C   0  0  0  0  0  0  0  0  0  0  0  0
   -5.3720   25.8110  -30.4230 C   0  0  0  0  0  0  0  0  0  0  0  0
   -4.2350   25.0690  -30.8420 O   0  0  0  0  0  0  0  0  0  0  0  0
   -4.0340   23.9580  -29.9900 C   0  0  0  0  0  0  0  0  0  0  0  0
   -5.1460   22.9170  -30.2000 C   0  0  0  0  0  0  0  0  0  0  0  0
   -7.6310   18.8000  -32.7220 C   0  0  0  0  0  0  0  0  0  0  0  0
   -6.5390   18.3690  -33.4650 C   0  0  0  0  0  0  0  0  0  0  0  0
   -5.4320   19.2060  -33.6030 C   0  0  0  0  0  0  0  0  0  0  0  0
   -4.4360   18.8060  -34.2650 O   0  0  0  0  0  0  0  0  0  0  0  0
   -3.4461   20.9876  -31.1784 H   0  0  0  0  0  0  0  0  0  0  0  0
   -2.9432   19.7998  -32.4285 H   0  0  0  0  0  0  0  0  0  0  0  0
   -2.2436   21.4543  -32.4285 H   0  0  0  0  0  0  0  0  0  0  0  0
   -4.5708   22.3580  -32.8449 H   0  0  0  0  0  0  0  0  0  0  0  0
   -3.9247   21.3316  -34.1790 H   0  0  0  0  0  0  0  0  0  0  0  0
   -6.4810   21.7920  -31.8400 H   0  0  0  0  0  0  0  0  0  0  0  0
   -9.5607   19.7943  -31.3295 H   0  0  0  0  0  0  0  0  0  0  0  0
   -8.4486   20.7688  -30.2972 H   0  0  0  0  0  0  0  0  0  0  0  0
   -9.4540   21.6962  -33.0295 H   0  0  0  0  0  0  0  0  0  0  0  0
  -10.2742   22.0868  -31.4591 H   0  0  0  0  0  0  0  0  0  0  0  0
   -7.8020   23.2181  -32.6568 H   0  0  0  0  0  0  0  0  0  0  0  0
   -8.9553   23.9275  -31.4759 H   0  0  0  0  0  0  0  0  0  0  0  0
   -7.4949   25.3665  -30.5819 H   0  0  0  0  0  0  0  0  0  0  0  0
   -6.7443   24.8570  -29.0316 H   0  0  0  0  0  0  0  0  0  0  0  0
   -5.6406   26.5192  -31.2207 H   0  0  0  0  0  0  0  0  0  0  0  0
   -5.1011   26.3243  -29.4886 H   0  0  0  0  0  0  0  0  0  0  0  0
   -3.0600   23.4992  -30.2155 H   0  0  0  0  0  0  0  0  0  0  0  0
   -4.0563   24.2998  -28.9447 H   0  0  0  0  0  0  0  0  0  0  0  0
   -4.8176   22.1814  -30.9490 H   0  0  0  0  0  0  0  0  0  0  0  0
   -5.3512   22.4148  -29.2431 H   0  0  0  0  0  0  0  0  0  0  0  0
   -8.5174   18.1578  -32.6124 H   0  0  0  0  0  0  0  0  0  0  0  0
   -6.5475   17.3769  -33.9400 H   0  0  0  0  0  0  0  0  0  0  0  0
  1  2  1  0
  2  3  1  0
  3  4  1  0
  4  5  2  0
  5  6  1  0
  6  7  1  0
  7  8  1  0
  8  9  1  0
  9 10  1  0
 10 11  1  0
 11 12  1  0
 12 13  1  0
 13 14  1  0
 14 15  1  0
  5 16  1  0
 16 17  2  0
 17 18  1  0
 18 19  2  0
 18  3  1  0
 15 10  1  0
  1 20  1  0
  1 21  1  0
  1 22  1  0
  2 23  1  0
  2 24  1  0
  4 25  1  0
  6 26  1  0
  6 27  1  0
  7 28  1  0
  7 29  1  0
  8 30  1  0
  8 31  1  0
 11 32  1  0
 11 33  1  0
 12 34  1  0
 12 35  1  0
 14 36  1  0
 14 37  1  0
 15 38  1  0
 15 39  1  0
 16 40  1  0
 17 41  1  0
M  CHG  1   4   1
M  END
>  <UniqueID>  (16) 
14

>  <SMILES>  (16) 
CCn1[nH+]c(CCCON2CCOCC2)ccc1=O

>  <Energy>  (16) 
55.51566429557395

>  <Genealogy>  (16) 
CCn1[nH+]c(CCCON2CCOCC2)ccc1=O (protonated)
CCn1[nH+]c(CCCON2CCOCC2)ccc1=O (3D coordinates assigned)
CCn1[nH+]c(CCCON2CCOCC2)ccc1=O (nonaromatic ring conformer: 55.51566429557395 kcal/mol)

>  <smiles>  (16) 
CCn1nc(CCCON2CCOCC2)ccc1=O

>  <score_type>  (16) 
oracle

>  <origin>  (16) 
adg

>  <m_score__min__energy>  (16) 
-6.8700000000000001

>  <m_primary>  (16) 
energy

$$$$
16:0
     RDKit          3D

 33 34  0  0  0  0  0  0  0  0999 V2000
   -0.6330   22.3630  -27.9670 C   0  0  0  0  0  0  0  0  0  0  0  0
   -1.1550   22.7420  -29.2990 N   0  0  0  0  0  0  0  0  0  0  0  0
   -0.3680   22.0460  -30.3370 C   0  0  0  0  0  0  0  0  0  0  0  0
   -0.9730   24.0870  -29.4790 O   0  0  0  0  0  0  0  0  0  0  0  0
   -2.6030   22.3970  -29.3910 C   0  0  0  0  0  0  0  0  0  0  0  0
   -3.1800   22.5200  -30.8180 C   0  0  0  0  0  0  0  0  0  0  0  0
   -4.4530   23.3470  -30.8120 C   0  0  0  0  0  0  0  0  0  0  0  0
   -4.3850   24.7090  -30.4470 C   0  0  0  0  0  0  0  0  0  0  0  0
   -3.1740   25.2990  -30.0990 O   0  0  0  0  0  0  0  0  0  0  0  0
   -5.5430   25.4860  -30.4330 C   0  0  0  0  0  0  0  0  0  0  0  0
   -6.7350   24.9470  -30.7840 N   0  0  0  0  0  0  0  0  0  0  0  0
   -6.8510   23.6500  -31.1690 C   0  0  0  0  0  0  0  0  0  0  0  0
   -8.1080   23.1540  -31.5350 C   0  0  0  0  0  0  0  0  0  0  0  0
   -8.2460   21.8300  -31.9510 C   0  0  0  0  0  0  0  0  0  0  0  0
   -7.1310   20.9950  -32.0070 C   0  0  0  0  0  0  0  0  0  0  0  0
   -5.8700   21.4740  -31.6410 C   0  0  0  0  0  0  0  0  0  0  0  0
   -5.7090   22.8080  -31.2060 C   0  0  0  0  0  0  0  0  0  0  0  0
   -1.2590   22.8175  -27.1850 H   0  0  0  0  0  0  0  0  0  0  0  0
   -0.6537   21.2681  -27.8630 H   0  0  0  0  0  0  0  0  0  0  0  0
    0.4017   22.7217  -27.8630 H   0  0  0  0  0  0  0  0  0  0  0  0
    0.3734   21.3903  -29.8570 H   0  0  0  0  0  0  0  0  0  0  0  0
   -1.0406   21.4419  -30.9636 H   0  0  0  0  0  0  0  0  0  0  0  0
    0.1494   22.7874  -30.9636 H   0  0  0  0  0  0  0  0  0  0  0  0
   -1.7790   24.4520  -29.9350 H   0  0  0  0  0  0  0  0  0  0  0  0
   -2.7352   21.3592  -29.0510 H   0  0  0  0  0  0  0  0  0  0  0  0
   -3.1461   23.1169  -28.7611 H   0  0  0  0  0  0  0  0  0  0  0  0
   -2.4368   23.0057  -31.4675 H   0  0  0  0  0  0  0  0  0  0  0  0
   -3.4141   21.5128  -31.1931 H   0  0  0  0  0  0  0  0  0  0  0  0
   -5.4880   26.5434  -30.1350 H   0  0  0  0  0  0  0  0  0  0  0  0
   -8.9896   23.8106  -31.4943 H   0  0  0  0  0  0  0  0  0  0  0  0
   -9.2360   21.4440  -32.2353 H   0  0  0  0  0  0  0  0  0  0  0  0
   -7.2443   19.9531  -32.3412 H   0  0  0  0  0  0  0  0  0  0  0  0
   -4.9967   20.8072  -31.6921 H   0  0  0  0  0  0  0  0  0  0  0  0
  1  2  1  0
  2  3  1  0
  2  4  1  0
  2  5  1  0
  5  6  1  0
  6  7  1  0
  7  8  2  0
  8  9  1  0
  8 10  1  0
 10 11  2  0
 11 12  1  0
 12 13  2  0
 13 14  1  0
 14 15  2  0
 15 16  1  0
 16 17  2  0
 17  7  1  0
 17 12  1  0
  1 18  1  0
  1 19  1  0
  1 20  1  0
  3 21  1  0
  3 22  1  0
  3 23  1  0
  4 24  1  0
  5 25  1  0
  5 26  1  0
  6 27  1  0
  6 28  1  0
 10 29  1  0
 13 30  1  0
 14 31  1  0
 15 32  1  0
 16 33  1  0
M  CHG  2   2   1   9  -1
M  END
>  <UniqueID>  (17) 
15

>  <SMILES>  (17) 
C[N+](C)(O)CCc1c([O-])cnc2ccccc12

>  <Energy>  (17) 
43.731595963987694

>  <Genealogy>  (17) 
C[N+](C)(O)CCc1c([O-])cnc2ccccc12 (protonated)
C[N+](C)(O)CCc1c([O-])cnc2ccccc12 (3D coordinates assigned)
C[N+](C)(O)CCc1c([O-])cnc2ccccc12 (optimized conformer: 43.731595963987694 kcal/mol)

>  <smiles>  (17) 
C[N+](C)([O-])CCc1c(O)cnc2ccccc12

>  <score_type>  (17) 
oracle

>  <origin>  (17) 
adg

>  <m_score__min__energy>  (17) 
-8.5399999999999991

>  <m_primary>  (17) 
energy

$$$$
17:0
     RDKit          3D

 34 35  0  0  0  0  0  0  0  0999 V2000
   -8.6030   22.4970  -31.6600 C   0  0  0  0  0  0  0  0  0  0  0  0
   -7.4510   21.6590  -32.1410 C   0  0  0  0  0  0  0  0  0  0  0  0
   -7.6520   20.3060  -32.4610 C   0  0  0  0  0  0  0  0  0  0  0  0
   -6.5850   19.5190  -32.9030 C   0  0  0  0  0  0  0  0  0  0  0  0
   -6.8450   17.8300  -33.3000 Cl  0  0  0  0  0  0  0  0  0  0  0  0
   -5.3120   20.0780  -33.0300 C   0  0  0  0  0  0  0  0  0  0  0  0
   -5.1010   21.4210  -32.7140 C   0  0  0  0  0  0  0  0  0  0  0  0
   -6.1660   22.2250  -32.2620 C   0  0  0  0  0  0  0  0  0  0  0  0
   -5.9900   23.5800  -31.9280 O   0  0  0  0  0  0  0  0  0  0  0  0
   -5.9410   24.1080  -30.6020 C   0  0  0  0  0  0  0  0  0  0  0  0
   -4.9540   25.2280  -30.5150 C   0  0  0  0  0  0  0  0  0  0  0  0
   -5.3670   26.4180  -30.4760 O   0  0  0  0  0  0  0  0  0  0  0  0
   -3.5530   24.9350  -30.4460 N   0  0  0  0  0  0  0  0  0  0  0  0
   -2.9500   23.7940  -29.8150 C   0  0  0  0  0  0  0  0  0  0  0  0
   -3.2420   22.4910  -30.2620 C   0  0  0  0  0  0  0  0  0  0  0  0
   -2.7060   21.3790  -29.6110 C   0  0  0  0  0  0  0  0  0  0  0  0
   -1.8900   21.5490  -28.4960 C   0  0  0  0  0  0  0  0  0  0  0  0
   -1.6090   22.8310  -28.0230 C   0  0  0  0  0  0  0  0  0  0  0  0
   -2.1320   23.9680  -28.6700 C   0  0  0  0  0  0  0  0  0  0  0  0
   -1.8180   25.2800  -28.1600 N   0  0  0  0  0  0  0  0  0  0  0  0
   -1.9890   25.5450  -26.9520 O   0  0  0  0  0  0  0  0  0  0  0  0
   -1.2370   26.2340  -28.9640 O   0  0  0  0  0  0  0  0  0  0  0  0
   -8.6156   22.5062  -30.5601 H   0  0  0  0  0  0  0  0  0  0  0  0
   -8.4897   23.5253  -32.0340 H   0  0  0  0  0  0  0  0  0  0  0  0
   -9.5464   22.0726  -32.0340 H   0  0  0  0  0  0  0  0  0  0  0  0
   -8.6544   19.8637  -32.3632 H   0  0  0  0  0  0  0  0  0  0  0  0
   -4.4732   19.4584  -33.3800 H   0  0  0  0  0  0  0  0  0  0  0  0
   -4.0957   21.8550  -32.8186 H   0  0  0  0  0  0  0  0  0  0  0  0
   -6.9376   24.4827  -30.3255 H   0  0  0  0  0  0  0  0  0  0  0  0
   -5.6296   23.3081  -29.9142 H   0  0  0  0  0  0  0  0  0  0  0  0
   -3.8989   22.3482  -31.1327 H   0  0  0  0  0  0  0  0  0  0  0  0
   -2.9286   20.3667  -29.9794 H   0  0  0  0  0  0  0  0  0  0  0  0
   -1.4660   20.6709  -27.9870 H   0  0  0  0  0  0  0  0  0  0  0  0
   -0.9720   22.9555  -27.1349 H   0  0  0  0  0  0  0  0  0  0  0  0
  1  2  1  0
  2  3  2  0
  3  4  1  0
  4  5  1  0
  4  6  2  0
  6  7  1  0
  7  8  2  0
  8  9  1  0
  9 10  1  0
 10 11  1  0
 11 12  2  0
 11 13  1  0
 13 14  1  0
 14 15  2  0
 15 16  1  0
 16 17  2  0
 17 18  1  0
 18 19  2  0
 19 20  1  0
 20 21  2  0
 20 22  1  0
  8  2  1  0
 19 14  1  0
  1 23  1  0
  1 24  1  0
  1 25  1  0
  3 26  1  0
  6 27  1  0
  7 28  1  0
 10 29  1  0
 10 30  1  0
 15 31  1  0
 16 32  1  0
 17 33  1  0
 18 34  1  0
M  CHG  3  13  -1  20   1  22  -1
M  END
>  <UniqueID>  (18) 
16

>  <SMILES>  (18) 
Cc1cc(Cl)ccc1OCC(=O)[N-]c1ccccc1[N+](=O)[O-]

>  <Energy>  (18) 
40.4972279510756

>  <Genealogy>  (18) 
Cc1cc(Cl)ccc1OCC(=O)[N-]c1ccccc1[N+](=O)[O-] (protonated)
Cc1cc(Cl)ccc1OCC(=O)[N-]c1ccccc1[N+](=O)[O-] (3D coordinates assigned)
Cc1cc(Cl)ccc1OCC(=O)[N-]c1ccccc1[N+](=O)[O-] (optimized conformer: 40.4972279510756 kcal/mol)

>  <smiles>  (18) 
Cc1cc(Cl)ccc1OCC(=O)Nc1ccccc1[N+](=O)[O-]

>  <score_type>  (18) 
oracle

>  <origin>  (18) 
adg

>  <m_score__min__energy>  (18) 
-10.109999999999999

>  <m_primary>  (18) 
energy

$$$$
18:0
     RDKit          3D

 42 43  0  0  0  0  0  0  0  0999 V2000
   -3.4960   22.7130  -31.1350 C   0  0  0  0  0  0  0  0  0  0  0  0
   -3.1450   23.7740  -30.0970 C   0  0  0  0  0  0  0  0  0  0  0  0
   -3.6900   25.0280  -30.4710 O   0  0  0  0  0  0  0  0  0  0  0  0
   -4.9310   25.2620  -29.8320 C   0  0  0  0  0  0  0  0  0  0  0  0
   -6.0780   25.1560  -30.8440 C   0  0  0  0  0  0  0  0  0  0  0  0
   -6.4310   23.7390  -31.0750 N   0  0  0  0  0  0  0  0  0  0  0  0
   -7.1770   23.1860  -29.9190 C   0  0  0  0  0  0  0  0  0  0  0  0
   -7.9450   21.9210  -30.3140 C   0  0  0  0  0  0  0  0  0  0  0  0
   -8.9790   22.2340  -31.3240 N   0  0  0  0  0  0  0  0  0  0  0  0
   -9.5390   21.0390  -31.9960 C   0  0  0  0  0  0  0  0  0  0  0  0
   -8.4980   20.0040  -32.3790 C   0  0  0  0  0  0  0  0  0  0  0  0
   -7.3740   20.3750  -33.1370 C   0  0  0  0  0  0  0  0  0  0  0  0
   -6.4150   19.4220  -33.4940 C   0  0  0  0  0  0  0  0  0  0  0  0
   -6.5590   18.0940  -33.0830 C   0  0  0  0  0  0  0  0  0  0  0  0
   -5.2480   16.7950  -33.5720 Br  0  0  0  0  0  0  0  0  0  0  0  0
   -7.6580   17.7220  -32.3050 C   0  0  0  0  0  0  0  0  0  0  0  0
   -8.6200   18.6710  -31.9470 C   0  0  0  0  0  0  0  0  0  0  0  0
   -8.6370   23.3540  -32.2300 C   0  0  0  0  0  0  0  0  0  0  0  0
   -7.1160   23.5330  -32.3800 C   0  0  0  0  0  0  0  0  0  0  0  0
   -3.8021   21.7879  -30.6247 H   0  0  0  0  0  0  0  0  0  0  0  0
   -4.3222   23.0751  -31.7645 H   0  0  0  0  0  0  0  0  0  0  0  0
   -2.6168   22.5109  -31.7645 H   0  0  0  0  0  0  0  0  0  0  0  0
   -3.5558   23.4765  -29.1209 H   0  0  0  0  0  0  0  0  0  0  0  0
   -2.0505   23.8642  -30.0338 H   0  0  0  0  0  0  0  0  0  0  0  0
   -5.0771   24.5148  -29.0381 H   0  0  0  0  0  0  0  0  0  0  0  0
   -4.9265   26.2738  -29.4004 H   0  0  0  0  0  0  0  0  0  0  0  0
   -6.9569   25.6896  -30.4531 H   0  0  0  0  0  0  0  0  0  0  0  0
   -5.7570   25.6039  -31.7960 H   0  0  0  0  0  0  0  0  0  0  0  0
   -6.4657   22.9390  -29.1170 H   0  0  0  0  0  0  0  0  0  0  0  0
   -7.8994   23.9409  -29.5753 H   0  0  0  0  0  0  0  0  0  0  0  0
   -7.2411   21.1867  -30.7328 H   0  0  0  0  0  0  0  0  0  0  0  0
   -8.4359   21.5102  -29.4194 H   0  0  0  0  0  0  0  0  0  0  0  0
  -10.2629   20.5666  -31.3157 H   0  0  0  0  0  0  0  0  0  0  0  0
  -10.0024   21.3866  -32.9311 H   0  0  0  0  0  0  0  0  0  0  0  0
   -7.2480   21.4216  -33.4513 H   0  0  0  0  0  0  0  0  0  0  0  0
   -5.5457   19.7181  -34.0994 H   0  0  0  0  0  0  0  0  0  0  0  0
   -7.7668   16.6790  -31.9730 H   0  0  0  0  0  0  0  0  0  0  0  0
   -9.4767   18.3738  -31.3243 H   0  0  0  0  0  0  0  0  0  0  0  0
   -9.0701   23.1535  -33.2211 H   0  0  0  0  0  0  0  0  0  0  0  0
   -9.0458   24.2782  -31.7956 H   0  0  0  0  0  0  0  0  0  0  0  0
   -6.7010   22.6330  -32.8572 H   0  0  0  0  0  0  0  0  0  0  0  0
   -6.9456   24.4321  -32.9905 H   0  0  0  0  0  0  0  0  0  0  0  0
  1  2  1  0
  2  3  1  0
  3  4  1  0
  4  5  1  0
  5  6  1  0
  6  7  1  0
  7  8  1  0
  8  9  1  0
  9 10  1  0
 10 11  1  0
 11 12  2  0
 12 13  1  0
 13 14  2  0
 14 15  1  0
 14 16  1  0
 16 17  2  0
  9 18  1  0
 18 19  1  0
 19  6  1  0
 17 11  1  0
  1 20  1  0
  1 21  1  0
  1 22  1  0
  2 23  1  0
  2 24  1  0
  4 25  1  0
  4 26  1  0
  5 27  1  0
  5 28  1  0
  7 29  1  0
  7 30  1  0
  8 31  1  0
  8 32  1  0
 10 33  1  0
 10 34  1  0
 12 35  1  0
 13 36  1  0
 16 37  1  0
 17 38  1  0
 18 39  1  0
 18 40  1  0
 19 41  1  0
 19 42  1  0
M  END
>  <UniqueID>  (19) 
17

>  <SMILES>  (19) 
CCOCCN1CCN(Cc2ccc(Br)cc2)CC1

>  <Energy>  (19) 
55.449658417192815

>  <Genealogy>  (19) 
CCOCCN1CCN(Cc2ccc(Br)cc2)CC1 (3D coordinates assigned)
CCOCCN1CCN(Cc2ccc(Br)cc2)CC1 (nonaromatic ring conformer: 55.449658417192815 kcal/mol)

>  <smiles>  (19) 
CCOCCN1CCN(Cc2ccc(Br)cc2)CC1

>  <score_type>  (19) 
oracle

>  <origin>  (19) 
adg

>  <m_score__min__energy>  (19) 
-8.0999999999999996

>  <m_primary>  (19) 
energy

$$$$
19:0
     RDKit          3D

 30 32  0  0  0  0  0  0  0  0999 V2000
   -2.2210   24.1720  -29.3510 C   0  0  0  0  0  0  0  0  0  0  0  0
   -3.1350   24.8710  -30.1890 O   0  0  0  0  0  0  0  0  0  0  0  0
   -4.4950   24.5520  -30.3180 C   0  0  0  0  0  0  0  0  0  0  0  0
   -5.4370   25.4030  -29.7290 C   0  0  0  0  0  0  0  0  0  0  0  0
   -6.8020   25.1230  -29.8230 C   0  0  0  0  0  0  0  0  0  0  0  0
   -7.2390   23.9910  -30.5140 C   0  0  0  0  0  0  0  0  0  0  0  0
   -6.3140   23.1330  -31.1270 C   0  0  0  0  0  0  0  0  0  0  0  0
   -6.7690   21.9630  -31.8270 N   0  0  0  0  0  0  0  0  0  0  0  0
   -8.0560   21.5580  -31.9730 C   0  0  0  0  0  0  0  0  0  0  0  0
   -8.1780   20.4020  -32.6750 N   0  0  0  0  0  0  0  0  0  0  0  0
   -6.9050   20.0920  -32.9780 C   0  0  0  0  0  0  0  0  0  0  0  0
   -6.4540   19.0040  -33.7220 C   0  0  0  0  0  0  0  0  0  0  0  0
   -5.0670   18.8980  -33.9570 C   0  0  0  0  0  0  0  0  0  0  0  0
   -4.5530   17.7920  -34.7220 C   0  0  0  0  0  0  0  0  0  0  0  0
   -4.1400   16.9030  -35.3350 N   0  0  0  0  0  0  0  0  0  0  0  0
   -4.1820   19.8820  -33.4540 C   0  0  0  0  0  0  0  0  0  0  0  0
   -4.6720   20.9690  -32.7080 C   0  0  0  0  0  0  0  0  0  0  0  0
   -6.0490   21.0280  -32.4740 C   0  0  0  0  0  0  0  0  0  0  0  0
   -4.9400   23.4100  -31.0140 C   0  0  0  0  0  0  0  0  0  0  0  0
   -2.4705   24.3628  -28.2968 H   0  0  0  0  0  0  0  0  0  0  0  0
   -2.2887   23.0931  -29.5543 H   0  0  0  0  0  0  0  0  0  0  0  0
   -1.1975   24.5199  -29.5543 H   0  0  0  0  0  0  0  0  0  0  0  0
   -5.0997   26.2993  -29.1878 H   0  0  0  0  0  0  0  0  0  0  0  0
   -7.5341   25.7953  -29.3519 H   0  0  0  0  0  0  0  0  0  0  0  0
   -8.3148   23.7708  -30.5780 H   0  0  0  0  0  0  0  0  0  0  0  0
   -8.9144   22.1108  -31.5637 H   0  0  0  0  0  0  0  0  0  0  0  0
   -7.1558   18.2527  -34.1131 H   0  0  0  0  0  0  0  0  0  0  0  0
   -3.1027   19.7957  -33.6482 H   0  0  0  0  0  0  0  0  0  0  0  0
   -3.9953   21.7457  -32.3221 H   0  0  0  0  0  0  0  0  0  0  0  0
   -4.2067   22.7301  -31.4724 H   0  0  0  0  0  0  0  0  0  0  0  0
  1  2  1  0
  2  3  1  0
  3  4  2  0
  4  5  1  0
  5  6  2  0
  6  7  1  0
  7  8  1  0
  8  9  1  0
  9 10  2  0
 10 11  1  0
 11 12  2  0
 12 13  1  0
 13 14  1  0
 14 15  3  0
 13 16  2  0
 16 17  1  0
 17 18  2  0
  7 19  2  0
 19  3  1  0
 18  8  1  0
 18 11  1  0
  1 20  1  0
  1 21  1  0
  1 22  1  0
  4 23  1  0
  5 24  1  0
  6 25  1  0
  9 26  1  0
 12 27  1  0
 16 28  1  0
 17 29  1  0
 19 30  1  0
M  END
>  <UniqueID>  (20) 
18

>  <SMILES>  (20) 
COc1cccc(-n2cnc3cc(C#N)ccc32)c1

>  <Energy>  (20) 
73.84994132019891

>  <Genealogy>  (20) 
COc1cccc(-n2cnc3cc(C#N)ccc32)c1 (3D coordinates assigned)
COc1cccc(-n2cnc3cc(C#N)ccc32)c1 (optimized conformer: 73.84994132019891 kcal/mol)

>  <smiles>  (20) 
COc1cccc(-n2cnc3cc(C#N)ccc32)c1

>  <score_type>  (20) 
oracle

>  <origin>  (20) 
adg

>  <m_score__min__energy>  (20) 
-7.3200000000000003

>  <m_primary>  (20) 
energy

$$$$
20:0
     RDKit          3D

 45 47  0  0  0  0  0  0  0  0999 V2000
   -9.3970   20.6930  -31.9650 C   0  0  0  0  0  0  0  0  0  0  0  0
   -8.1250   20.0410  -32.4180 C   0  0  0  0  0  0  0  0  0  0  0  0
   -8.0830   18.6610  -32.6660 C   0  0  0  0  0  0  0  0  0  0  0  0
   -6.9080   18.0610  -33.1450 C   0  0  0  0  0  0  0  0  0  0  0  0
   -6.8550   16.5800  -33.3810 C   0  0  0  0  0  0  0  0  0  0  0  0
   -5.7680   18.8470  -33.3610 C   0  0  0  0  0  0  0  0  0  0  0  0
   -5.8050   20.2320  -33.1340 C   0  0  0  0  0  0  0  0  0  0  0  0
   -4.6140   21.0890  -33.4760 C   0  0  0  0  0  0  0  0  0  0  0  0
   -3.7740   21.2930  -32.2900 N   0  0  0  0  0  0  0  0  0  0  0  0
   -4.3740   21.5470  -30.9770 C   0  0  0  0  0  0  0  0  0  0  0  0
   -4.7260   23.0030  -30.8350 C   0  0  0  0  0  0  0  0  0  0  0  0
   -6.0680   23.4080  -30.8020 C   0  0  0  0  0  0  0  0  0  0  0  0
   -6.3880   24.7530  -30.6120 C   0  0  0  0  0  0  0  0  0  0  0  0
   -5.3590   25.6850  -30.4600 C   0  0  0  0  0  0  0  0  0  0  0  0
   -4.0620   25.2800  -30.4990 N   0  0  0  0  0  0  0  0  0  0  0  0
   -3.7260   23.9750  -30.6830 C   0  0  0  0  0  0  0  0  0  0  0  0
   -2.3570   21.0930  -32.3880 C   0  0  0  0  0  0  0  0  0  0  0  0
   -1.6390   20.6240  -31.2810 C   0  0  0  0  0  0  0  0  0  0  0  0
   -0.2620   20.4260  -31.3940 C   0  0  0  0  0  0  0  0  0  0  0  0
    0.3810   20.6950  -32.6030 C   0  0  0  0  0  0  0  0  0  0  0  0
   -0.3670   21.1650  -33.6850 C   0  0  0  0  0  0  0  0  0  0  0  0
   -1.7080   21.3550  -33.5590 N   0  0  0  0  0  0  0  0  0  0  0  0
   -6.9890   20.8220  -32.6680 C   0  0  0  0  0  0  0  0  0  0  0  0
   -9.4292   20.7095  -30.8656 H   0  0  0  0  0  0  0  0  0  0  0  0
   -9.4378   21.7232  -32.3485 H   0  0  0  0  0  0  0  0  0  0  0  0
  -10.2572   20.1246  -32.3485 H   0  0  0  0  0  0  0  0  0  0  0  0
   -8.9762   18.0454  -32.4840 H   0  0  0  0  0  0  0  0  0  0  0  0
   -6.8362   16.0551  -32.4145 H   0  0  0  0  0  0  0  0  0  0  0  0
   -7.7425   16.2675  -33.9508 H   0  0  0  0  0  0  0  0  0  0  0  0
   -5.9474   16.3317  -33.9508 H   0  0  0  0  0  0  0  0  0  0  0  0
   -4.8378   18.3755  -33.7108 H   0  0  0  0  0  0  0  0  0  0  0  0
   -4.0220   20.5915  -34.2584 H   0  0  0  0  0  0  0  0  0  0  0  0
   -4.9686   22.0665  -33.8349 H   0  0  0  0  0  0  0  0  0  0  0  0
   -5.2863   20.9415  -30.8719 H   0  0  0  0  0  0  0  0  0  0  0  0
   -3.6493   21.2768  -30.1948 H   0  0  0  0  0  0  0  0  0  0  0  0
   -6.8694   22.6648  -30.9260 H   0  0  0  0  0  0  0  0  0  0  0  0
   -7.4392   25.0756  -30.5823 H   0  0  0  0  0  0  0  0  0  0  0  0
   -5.5984   26.7479  -30.3086 H   0  0  0  0  0  0  0  0  0  0  0  0
   -2.6665   23.6807  -30.7127 H   0  0  0  0  0  0  0  0  0  0  0  0
   -2.1548   20.4139  -30.3324 H   0  0  0  0  0  0  0  0  0  0  0  0
    0.3149   20.0589  -30.5323 H   0  0  0  0  0  0  0  0  0  0  0  0
    1.4652   20.5386  -32.7028 H   0  0  0  0  0  0  0  0  0  0  0  0
    0.1300   21.3822  -34.6420 H   0  0  0  0  0  0  0  0  0  0  0  0
   -2.2470   21.7080  -34.3810 H   0  0  0  0  0  0  0  0  0  0  0  0
   -7.0260   21.9080  -32.4972 H   0  0  0  0  0  0  0  0  0  0  0  0
  1  2  1  0
  2  3  2  0
  3  4  1  0
  4  5  1  0
  4  6  2  0
  6  7  1  0
  7  8  1  0
  8  9  1  0
  9 10  1  0
 10 11  1  0
 11 12  2  0
 12 13  1  0
 13 14  2  0
 14 15  1  0
 15 16  2  0
  9 17  1  0
 17 18  2  0
 18 19  1  0
 19 20  2  0
 20 21  1  0
 21 22  2  0
  7 23  2  0
 23  2  1  0
 16 11  1  0
 22 17  1  0
  1 24  1  0
  1 25  1  0
  1 26  1  0
  3 27  1  0
  5 28  1  0
  5 29  1  0
  5 30  1  0
  6 31  1  0
  8 32  1  0
  8 33  1  0
 10 34  1  0
 10 35  1  0
 12 36  1  0
 13 37  1  0
 14 38  1  0
 16 39  1  0
 18 40  1  0
 19 41  1  0
 20 42  1  0
 21 43  1  0
 22 44  1  0
 23 45  1  0
M  CHG  1  22   1
M  END
>  <UniqueID>  (21) 
19

>  <SMILES>  (21) 
Cc1cc(C)cc(CN(Cc2cccnc2)c2cccc[nH+]2)c1

>  <Energy>  (21) 
46.567389245202634

>  <Genealogy>  (21) 
Cc1cc(C)cc(CN(Cc2cccnc2)c2cccc[nH+]2)c1 (protonated)
Cc1cc(C)cc(CN(Cc2cccnc2)c2cccc[nH+]2)c1 (3D coordinates assigned)
Cc1cc(C)cc(CN(Cc2cccnc2)c2cccc[nH+]2)c1 (optimized conformer: 46.567389245202634 kcal/mol)

>  <smiles>  (21) 
Cc1cc(C)cc(CN(Cc2cccnc2)c2ccccn2)c1

>  <score_type>  (21) 
oracle

>  <origin>  (21) 
adg

>  <m_score__min__energy>  (21) 
-8.1699999999999999

>  <m_primary>  (21) 
energy

$$$$
21:0
     RDKit          3D

 35 37  0  0  0  0  0  0  0  0999 V2000
   -5.0940   26.3760  -30.4710 O   0  0  0  0  0  0  0  0  0  0  0  0
   -5.0000   25.1190  -30.4970 C   0  0  0  0  0  0  0  0  0  0  0  0
   -6.0970   24.3560  -30.9000 C   0  0  0  0  0  0  0  0  0  0  0  0
   -6.0070   22.9570  -30.9170 C   0  0  0  0  0  0  0  0  0  0  0  0
   -7.1650   22.1280  -31.3360 C   0  0  0  0  0  0  0  0  0  0  0  0
   -8.4140   22.7240  -31.5850 C   0  0  0  0  0  0  0  0  0  0  0  0
   -9.4990   21.9470  -31.9950 C   0  0  0  0  0  0  0  0  0  0  0  0
   -9.3570   20.5670  -32.1540 C   0  0  0  0  0  0  0  0  0  0  0  0
   -8.1270   19.9450  -31.8830 C   0  0  0  0  0  0  0  0  0  0  0  0
   -7.9570   18.4610  -32.0960 C   0  0  0  0  0  0  0  0  0  0  0  0
   -7.4610   18.2050  -33.3630 F   0  0  0  0  0  0  0  0  0  0  0  0
   -9.1840   17.8390  -31.9580 F   0  0  0  0  0  0  0  0  0  0  0  0
   -7.0760   17.9300  -31.1710 F   0  0  0  0  0  0  0  0  0  0  0  0
   -7.0300   20.7360  -31.4980 C   0  0  0  0  0  0  0  0  0  0  0  0
   -4.8010   22.3550  -30.5320 C   0  0  0  0  0  0  0  0  0  0  0  0
   -3.7100   23.1490  -30.1420 C   0  0  0  0  0  0  0  0  0  0  0  0
   -2.4360   22.4930  -29.7570 C   0  0  0  0  0  0  0  0  0  0  0  0
   -1.6520   21.8400  -30.7240 C   0  0  0  0  0  0  0  0  0  0  0  0
   -0.4470   21.2310  -30.3620 C   0  0  0  0  0  0  0  0  0  0  0  0
   -0.0100   21.2750  -29.0350 C   0  0  0  0  0  0  0  0  0  0  0  0
   -0.7780   21.9290  -28.0690 C   0  0  0  0  0  0  0  0  0  0  0  0
   -1.9850   22.5390  -28.4250 C   0  0  0  0  0  0  0  0  0  0  0  0
   -3.8350   24.5120  -30.1260 N   0  0  0  0  0  0  0  0  0  0  0  0
   -2.7890   25.2970  -29.6880 O   0  0  0  0  0  0  0  0  0  0  0  0
   -7.0308   24.8516  -31.2038 H   0  0  0  0  0  0  0  0  0  0  0  0
   -8.5370   23.8095  -31.4559 H   0  0  0  0  0  0  0  0  0  0  0  0
  -10.4701   22.4240  -32.1937 H   0  0  0  0  0  0  0  0  0  0  0  0
  -10.2123   19.9641  -32.4931 H   0  0  0  0  0  0  0  0  0  0  0  0
   -6.0537   20.2610  -31.3211 H   0  0  0  0  0  0  0  0  0  0  0  0
   -4.7089   21.2589  -30.5353 H   0  0  0  0  0  0  0  0  0  0  0  0
   -1.9885   21.8081  -31.7708 H   0  0  0  0  0  0  0  0  0  0  0  0
    0.1584   20.7163  -31.1227 H   0  0  0  0  0  0  0  0  0  0  0  0
    0.9382   20.7948  -28.7517 H   0  0  0  0  0  0  0  0  0  0  0  0
   -0.4325   21.9644  -27.0253 H   0  0  0  0  0  0  0  0  0  0  0  0
   -2.5838   23.0565  -27.6611 H   0  0  0  0  0  0  0  0  0  0  0  0
  1  2  2  0
  2  3  1  0
  3  4  2  0
  4  5  1  0
  5  6  2  0
  6  7  1  0
  7  8  2  0
  8  9  1  0
  9 10  1  0
 10 11  1  0
 10 12  1  0
 10 13  1  0
  9 14  2  0
  4 15  1  0
 15 16  2  0
 16 17  1  0
 17 18  2  0
 18 19  1  0
 19 20  2  0
 20 21  1  0
 21 22  2  0
 16 23  1  0
 23 24  1  0
 23  2  1  0
 14  5  1  0
 22 17  1  0
  3 25  1  0
  6 26  1  0
  7 27  1  0
  8 28  1  0
 14 29  1  0
 15 30  1  0
 18 31  1  0
 19 32  1  0
 20 33  1  0
 21 34  1  0
 22 35  1  0
M  CHG  1  24  -1
M  END
>  <UniqueID>  (22) 
20

>  <SMILES>  (22) 
O=c1cc(-c2cccc(C(F)(F)F)c2)cc(-c2ccccc2)n1[O-]

>  <Energy>  (22) 
51.52285678606804

>  <Genealogy>  (22) 
O=c1cc(-c2cccc(C(F)(F)F)c2)cc(-c2ccccc2)n1[O-] (protonated)
O=c1cc(-c2cccc(C(F)(F)F)c2)cc(-c2ccccc2)n1[O-] (3D coordinates assigned)
O=c1cc(-c2cccc(C(F)(F)F)c2)cc(-c2ccccc2)n1[O-] (optimized conformer: 51.52285678606804 kcal/mol)

>  <smiles>  (22) 
O=c1cc(-c2cccc(C(F)(F)F)c2)cc(-c2ccccc2)n1O

>  <score_type>  (22) 
oracle

>  <origin>  (22) 
adg

>  <m_score__min__energy>  (22) 
-11.32

>  <m_primary>  (22) 
energy

$$$$
22:0
     RDKit          3D

 39 39  0  0  0  0  0  0  0  0999 V2000
   -5.7060   15.1730  -33.9220 C   0  0  0  0  0  0  0  0  0  0  0  0
   -6.8730   16.1730  -33.9830 C   0  0  0  0  0  0  0  0  0  0  0  0
   -6.5590   17.5120  -33.4170 N   0  0  0  0  0  0  0  0  0  0  0  0
   -5.0860   17.7520  -33.3590 C   0  0  0  0  0  0  0  0  0  0  0  0
   -4.5910   18.5860  -34.5450 C   0  0  0  0  0  0  0  0  0  0  0  0
   -7.2270   17.7060  -32.1020 C   0  0  0  0  0  0  0  0  0  0  0  0
   -8.5680   18.4670  -32.2020 C   0  0  0  0  0  0  0  0  0  0  0  0
   -8.4300   19.7280  -32.9350 N   0  0  0  0  0  0  0  0  0  0  0  0
   -7.6360   20.8500  -32.4980 C   0  0  0  0  0  0  0  0  0  0  0  0
   -8.2220   22.0230  -31.9920 C   0  0  0  0  0  0  0  0  0  0  0  0
   -7.4240   23.0890  -31.5780 C   0  0  0  0  0  0  0  0  0  0  0  0
   -6.0290   23.0100  -31.6650 C   0  0  0  0  0  0  0  0  0  0  0  0
   -5.2470   24.1400  -31.2230 C   0  0  0  0  0  0  0  0  0  0  0  0
   -4.6210   25.0460  -30.8670 N   0  0  0  0  0  0  0  0  0  0  0  0
   -5.4180   21.8420  -32.1790 C   0  0  0  0  0  0  0  0  0  0  0  0
   -3.9090   21.7340  -32.2820 C   0  0  0  0  0  0  0  0  0  0  0  0
   -3.2730   22.3580  -31.2230 F   0  0  0  0  0  0  0  0  0  0  0  0
   -3.4800   22.3260  -33.4560 F   0  0  0  0  0  0  0  0  0  0  0  0
   -3.5390   20.4010  -32.2850 F   0  0  0  0  0  0  0  0  0  0  0  0
   -6.2380   20.7730  -32.5920 C   0  0  0  0  0  0  0  0  0  0  0  0
   -5.4590   14.9614  -32.8712 H   0  0  0  0  0  0  0  0  0  0  0  0
   -5.9966   14.2392  -34.4256 H   0  0  0  0  0  0  0  0  0  0  0  0
   -4.8278   15.6032  -34.4256 H   0  0  0  0  0  0  0  0  0  0  0  0
   -7.1612   16.3029  -35.0366 H   0  0  0  0  0  0  0  0  0  0  0  0
   -7.6823   15.7520  -33.3684 H   0  0  0  0  0  0  0  0  0  0  0  0
   -6.9970   18.1900  -34.0870 H   0  0  0  0  0  0  0  0  0  0  0  0
   -4.8501   18.2861  -32.4267 H   0  0  0  0  0  0  0  0  0  0  0  0
   -4.5818   16.7751  -33.3978 H   0  0  0  0  0  0  0  0  0  0  0  0
   -4.0628   19.4760  -34.1723 H   0  0  0  0  0  0  0  0  0  0  0  0
   -3.9051   17.9820  -35.1571 H   0  0  0  0  0  0  0  0  0  0  0  0
   -5.4498   18.8988  -35.1571 H   0  0  0  0  0  0  0  0  0  0  0  0
   -7.4191   16.7176  -31.6591 H   0  0  0  0  0  0  0  0  0  0  0  0
   -6.5530   18.3152  -31.4818 H   0  0  0  0  0  0  0  0  0  0  0  0
   -9.2990   17.8314  -32.7232 H   0  0  0  0  0  0  0  0  0  0  0  0
   -8.9021   18.7024  -31.1807 H   0  0  0  0  0  0  0  0  0  0  0  0
   -8.9710   19.8260  -33.8230 H   0  0  0  0  0  0  0  0  0  0  0  0
   -9.3170   22.1007  -31.9221 H   0  0  0  0  0  0  0  0  0  0  0  0
   -7.8947   23.9999  -31.1796 H   0  0  0  0  0  0  0  0  0  0  0  0
   -5.7736   19.8612  -32.9956 H   0  0  0  0  0  0  0  0  0  0  0  0
  1  2  1  0
  2  3  1  0
  3  4  1  0
  4  5  1  0
  3  6  1  0
  6  7  1  0
  7  8  1  0
  8  9  1  0
  9 10  2  0
 10 11  1  0
 11 12  2  0
 12 13  1  0
 13 14  3  0
 12 15  1  0
 15 16  1  0
 16 17  1  0
 16 18  1  0
 16 19  1  0
 15 20  2  0
 20  9  1  0
  1 21  1  0
  1 22  1  0
  1 23  1  0
  2 24  1  0
  2 25  1  0
  3 26  1  0
  4 27  1  0
  4 28  1  0
  5 29  1  0
  5 30  1  0
  5 31  1  0
  6 32  1  0
  6 33  1  0
  7 34  1  0
  7 35  1  0
  8 36  1  0
 10 37  1  0
 11 38  1  0
 20 39  1  0
M  CHG  1   3   1
M  END
>  <UniqueID>  (23) 
21

>  <SMILES>  (23) 
CC[NH+](CC)CCNc1ccc(C#N)c(C(F)(F)F)c1

>  <Energy>  (23) 
42.288763522649184

>  <Genealogy>  (23) 
CC[NH+](CC)CCNc1ccc(C#N)c(C(F)(F)F)c1 (protonated)
CC[NH+](CC)CCNc1ccc(C#N)c(C(F)(F)F)c1 (3D coordinates assigned)
CC[NH+](CC)CCNc1ccc(C#N)c(C(F)(F)F)c1 (optimized conformer: 42.288763522649184 kcal/mol)

>  <smiles>  (23) 
CCN(CC)CCNc1ccc(C#N)c(C(F)(F)F)c1

>  <score_type>  (23) 
oracle

>  <origin>  (23) 
adg

>  <m_score__min__energy>  (23) 
-5.7400000000000002

>  <m_primary>  (23) 
energy

$$$$
23:0
     RDKit          3D

 34 35  0  0  0  0  0  0  0  0999 V2000
   -8.2190   23.1280  -32.0580 C   0  0  0  0  0  0  0  0  0  0  0  0
   -7.3460   22.1470  -32.6070 O   0  0  0  0  0  0  0  0  0  0  0  0
   -7.4780   20.7630  -32.4110 C   0  0  0  0  0  0  0  0  0  0  0  0
   -8.6190   20.2090  -31.7940 C   0  0  0  0  0  0  0  0  0  0  0  0
   -8.7330   18.8280  -31.6300 C   0  0  0  0  0  0  0  0  0  0  0  0
   -7.7210   17.9820  -32.0810 C   0  0  0  0  0  0  0  0  0  0  0  0
   -6.5830   18.5150  -32.6870 C   0  0  0  0  0  0  0  0  0  0  0  0
   -6.4430   19.9050  -32.8450 C   0  0  0  0  0  0  0  0  0  0  0  0
   -5.1790   20.4590  -33.4710 C   0  0  0  0  0  0  0  0  0  0  0  0
   -4.9250   21.8670  -33.1090 N   0  0  0  0  0  0  0  0  0  0  0  0
   -4.1500   22.0340  -31.8620 C   0  0  0  0  0  0  0  0  0  0  0  0
   -4.6700   23.1610  -31.0050 C   0  0  0  0  0  0  0  0  0  0  0  0
   -4.4610   23.1710  -29.6170 C   0  0  0  0  0  0  0  0  0  0  0  0
   -4.9340   24.2450  -28.8600 C   0  0  0  0  0  0  0  0  0  0  0  0
   -5.6220   25.2850  -29.4850 C   0  0  0  0  0  0  0  0  0  0  0  0
   -5.8350   25.2310  -30.8630 C   0  0  0  0  0  0  0  0  0  0  0  0
   -5.3610   24.1820  -31.5850 N   0  0  0  0  0  0  0  0  0  0  0  0
   -8.1780   23.0819  -30.9597 H   0  0  0  0  0  0  0  0  0  0  0  0
   -7.9059   24.1272  -32.3950 H   0  0  0  0  0  0  0  0  0  0  0  0
   -9.2478   22.9331  -32.3950 H   0  0  0  0  0  0  0  0  0  0  0  0
   -9.4240   20.8698  -31.4399 H   0  0  0  0  0  0  0  0  0  0  0  0
   -9.6244   18.4055  -31.1432 H   0  0  0  0  0  0  0  0  0  0  0  0
   -7.8198   16.8933  -31.9590 H   0  0  0  0  0  0  0  0  0  0  0  0
   -5.7891   17.8425  -33.0440 H   0  0  0  0  0  0  0  0  0  0  0  0
   -4.3260   19.8513  -33.1347 H   0  0  0  0  0  0  0  0  0  0  0  0
   -5.3075   20.4182  -34.5627 H   0  0  0  0  0  0  0  0  0  0  0  0
   -4.3590   22.2840  -33.8860 H   0  0  0  0  0  0  0  0  0  0  0  0
   -5.8190   22.4070  -33.0760 H   0  0  0  0  0  0  0  0  0  0  0  0
   -4.2037   21.0988  -31.2854 H   0  0  0  0  0  0  0  0  0  0  0  0
   -3.1146   22.2777  -32.1422 H   0  0  0  0  0  0  0  0  0  0  0  0
   -3.9294   22.3403  -29.1299 H   0  0  0  0  0  0  0  0  0  0  0  0
   -4.7644   24.2707  -27.7735 H   0  0  0  0  0  0  0  0  0  0  0  0
   -5.9926   26.1383  -28.8981 H   0  0  0  0  0  0  0  0  0  0  0  0
   -6.3874   26.0387  -31.3655 H   0  0  0  0  0  0  0  0  0  0  0  0
  1  2  1  0
  2  3  1  0
  3  4  2  0
  4  5  1  0
  5  6  2  0
  6  7  1  0
  7  8  2  0
  8  9  1  0
  9 10  1  0
 10 11  1  0
 11 12  1  0
 12 13  2  0
 13 14  1  0
 14 15  2  0
 15 16  1  0
 16 17  2  0
  8  3  1  0
 17 12  1  0
  1 18  1  0
  1 19  1  0
  1 20  1  0
  4 21  1  0
  5 22  1  0
  6 23  1  0
  7 24  1  0
  9 25  1  0
  9 26  1  0
 10 27  1  0
 10 28  1  0
 11 29  1  0
 11 30  1  0
 13 31  1  0
 14 32  1  0
 15 33  1  0
 16 34  1  0
M  CHG  1  10   1
M  END
>  <UniqueID>  (24) 
22

>  <SMILES>  (24) 
COc1ccccc1C[NH2+]Cc1ccccn1

>  <Energy>  (24) 
33.77494421331296

>  <Genealogy>  (24) 
COc1ccccc1C[NH2+]Cc1ccccn1 (protonated)
COc1ccccc1C[NH2+]Cc1ccccn1 (3D coordinates assigned)
COc1ccccc1C[NH2+]Cc1ccccn1 (optimized conformer: 33.77494421331296 kcal/mol)

>  <smiles>  (24) 
COc1ccccc1CNCc1ccccn1

>  <score_type>  (24) 
oracle

>  <origin>  (24) 
adg

>  <m_score__min__energy>  (24) 
-5.7699999999999996

>  <m_primary>  (24) 
energy

$$$$
24:0
     RDKit          3D

 51 55  0  0  0  0  0  0  0  0999 V2000
   -9.1340   21.3520  -31.9480 C   0  0  0  0  0  0  0  0  0  0  0  0
   -7.9620   20.4750  -32.2750 C   0  0  0  0  0  0  0  0  0  0  0  0
   -8.1540   19.1120  -32.6190 C   0  0  0  0  0  0  0  0  0  0  0  0
   -7.0570   18.2990  -32.9610 C   0  0  0  0  0  0  0  0  0  0  0  0
   -5.7930   18.8830  -32.9540 C   0  0  0  0  0  0  0  0  0  0  0  0
   -4.6240   18.3090  -33.2740 N   0  0  0  0  0  0  0  0  0  0  0  0
   -3.7370   19.3300  -33.1150 C   0  0  0  0  0  0  0  0  0  0  0  0
   -2.2860   19.1810  -33.3680 C   0  0  0  0  0  0  0  0  0  0  0  0
   -1.6010   18.0360  -32.9310 C   0  0  0  0  0  0  0  0  0  0  0  0
   -0.2310   17.8990  -33.1700 C   0  0  0  0  0  0  0  0  0  0  0  0
    0.4680   18.8990  -33.8490 C   0  0  0  0  0  0  0  0  0  0  0  0
   -0.1970   20.0520  -34.2980 C   0  0  0  0  0  0  0  0  0  0  0  0
    0.5430   21.1160  -35.0230 C   0  0  0  0  0  0  0  0  0  0  0  0
   -0.1080   22.2970  -35.4180 C   0  0  0  0  0  0  0  0  0  0  0  0
    0.5940   23.3040  -36.0890 C   0  0  0  0  0  0  0  0  0  0  0  0
    1.9620   23.1500  -36.3680 C   0  0  0  0  0  0  0  0  0  0  0  0
    2.7130   24.1500  -37.0700 N   0  0  0  0  0  0  0  0  0  0  0  0
    2.7870   25.5450  -36.7440 C   0  0  0  0  0  0  0  0  0  0  0  0
    3.9030   26.1240  -36.6690 O   0  0  0  0  0  0  0  0  0  0  0  0
    1.5530   26.3290  -36.5480 C   0  0  0  0  0  0  0  0  0  0  0  0
    1.4500   27.2960  -35.5360 C   0  0  0  0  0  0  0  0  0  0  0  0
    0.2930   27.9950  -35.3940 N   0  0  0  0  0  0  0  0  0  0  0  0
   -0.7710   27.7850  -36.2150 C   0  0  0  0  0  0  0  0  0  0  0  0
   -2.0400   28.5450  -35.9970 C   0  0  0  0  0  0  0  0  0  0  0  0
   -0.6740   26.8100  -37.2160 C   0  0  0  0  0  0  0  0  0  0  0  0
    0.4830   26.1140  -37.3600 N   0  0  0  0  0  0  0  0  0  0  0  0
    2.6040   21.9600  -36.0050 C   0  0  0  0  0  0  0  0  0  0  0  0
    1.9060   20.9550  -35.3310 C   0  0  0  0  0  0  0  0  0  0  0  0
   -1.5770   20.1830  -34.0540 C   0  0  0  0  0  0  0  0  0  0  0  0
   -4.3030   20.5030  -32.7170 N   0  0  0  0  0  0  0  0  0  0  0  0
   -5.6030   20.1870  -32.6260 C   0  0  0  0  0  0  0  0  0  0  0  0
   -6.6610   21.0260  -32.2860 C   0  0  0  0  0  0  0  0  0  0  0  0
   -9.2395   21.4309  -30.8559 H   0  0  0  0  0  0  0  0  0  0  0  0
   -8.9729   22.3532  -32.3741 H   0  0  0  0  0  0  0  0  0  0  0  0
  -10.0491   20.9150  -32.3741 H   0  0  0  0  0  0  0  0  0  0  0  0
   -9.1686   18.6870  -32.6184 H   0  0  0  0  0  0  0  0  0  0  0  0
   -7.1935   17.2398  -33.2245 H   0  0  0  0  0  0  0  0  0  0  0  0
   -2.1455   17.2428  -32.3978 H   0  0  0  0  0  0  0  0  0  0  0  0
    0.2987   17.0000  -32.8219 H   0  0  0  0  0  0  0  0  0  0  0  0
    1.5462   18.7832  -34.0335 H   0  0  0  0  0  0  0  0  0  0  0  0
   -1.1775   22.4307  -35.1980 H   0  0  0  0  0  0  0  0  0  0  0  0
    0.0720   24.2211  -36.3997 H   0  0  0  0  0  0  0  0  0  0  0  0
    2.2990   27.4867  -34.8630 H   0  0  0  0  0  0  0  0  0  0  0  0
   -2.2215   28.6537  -34.9175 H   0  0  0  0  0  0  0  0  0  0  0  0
   -1.9546   29.5408  -36.4565 H   0  0  0  0  0  0  0  0  0  0  0  0
   -2.8775   27.9997  -36.4565 H   0  0  0  0  0  0  0  0  0  0  0  0
   -1.5279   26.6098  -37.8799 H   0  0  0  0  0  0  0  0  0  0  0  0
    3.6660   21.8153  -36.2524 H   0  0  0  0  0  0  0  0  0  0  0  0
    2.4262   20.0308  -35.0390 H   0  0  0  0  0  0  0  0  0  0  0  0
   -2.1076   21.0806  -34.4044 H   0  0  0  0  0  0  0  0  0  0  0  0
   -6.4896   22.0830  -32.0342 H   0  0  0  0  0  0  0  0  0  0  0  0
  1  2  1  0
  2  3  2  0
  3  4  1  0
  4  5  2  0
  5  6  1  0
  6  7  1  0
  7  8  1  0
  8  9  2  0
  9 10  1  0
 10 11  2  0
 11 12  1  0
 12 13  1  0
 13 14  2  0
 14 15  1  0
 15 16  2  0
 16 17  1  0
 17 18  1  0
 18 19  2  0
 18 20  1  0
 20 21  2  0
 21 22  1  0
 22 23  2  0
 23 24  1  0
 23 25  1  0
 25 26  2  0
 16 27  1  0
 27 28  2  0
 12 29  2  0
  7 30  2  0
 30 31  1  0
 31 32  2  0
 32  2  1  0
 31  5  1  0
 29  8  1  0
 28 13  1  0
 26 20  1  0
  1 33  1  0
  1 34  1  0
  1 35  1  0
  3 36  1  0
  4 37  1  0
  9 38  1  0
 10 39  1  0
 11 40  1  0
 14 41  1  0
 15 42  1  0
 21 43  1  0
 24 44  1  0
 24 45  1  0
 24 46  1  0
 25 47  1  0
 27 48  1  0
 28 49  1  0
 29 50  1  0
 32 51  1  0
M  CHG  2   6  -1  17  -1
M  END
>  <UniqueID>  (25) 
23

>  <SMILES>  (25) 
Cc1ccc2[n-]c(-c3cccc(-c4ccc([N-]C(=O)c5cnc(C)cn5)cc4)c3)nc2c1

>  <Energy>  (25) 
101.85902174061745

>  <Genealogy>  (25) 
Cc1ccc2[n-]c(-c3cccc(-c4ccc([N-]C(=O)c5cnc(C)cn5)cc4)c3)nc2c1 (protonated)
Cc1ccc2[n-]c(-c3cccc(-c4ccc([N-]C(=O)c5cnc(C)cn5)cc4)c3)nc2c1 (3D coordinates assigned)
Cc1ccc2[n-]c(-c3cccc(-c4ccc([N-]C(=O)c5cnc(C)cn5)cc4)c3)nc2c1 (optimized conformer: 101.85902174061745 kcal/mol)

>  <smiles>  (25) 
Cc1ccc2[nH]c(-c3cccc(-c4ccc(NC(=O)c5cnc(C)cn5)cc4)c3)nc2c1

>  <score_type>  (25) 
oracle

>  <origin>  (25) 
adg

>  <m_score__min__energy>  (25) 
-11.92

>  <m_primary>  (25) 
energy

$$$$
25:0
     RDKit          3D

 42 44  0  0  0  0  0  0  0  0999 V2000
   -3.6110   24.2550  -27.2140 C   0  0  0  0  0  0  0  0  0  0  0  0
   -2.3310   24.8040  -27.8390 C   0  0  0  0  0  0  0  0  0  0  0  0
   -2.4540   24.8660  -29.2970 N   0  0  0  0  0  0  0  0  0  0  0  0
   -3.1800   23.9130  -30.0990 C   0  0  0  0  0  0  0  0  0  0  0  0
   -2.5490   22.7940  -30.6900 C   0  0  0  0  0  0  0  0  0  0  0  0
   -3.2850   21.8860  -31.4680 C   0  0  0  0  0  0  0  0  0  0  0  0
   -4.6600   22.0680  -31.6540 C   0  0  0  0  0  0  0  0  0  0  0  0
   -5.2840   23.1540  -31.0380 C   0  0  0  0  0  0  0  0  0  0  0  0
   -4.5640   24.0680  -30.3040 C   0  0  0  0  0  0  0  0  0  0  0  0
   -5.4220   25.1810  -29.8170 C   0  0  0  0  0  0  0  0  0  0  0  0
   -6.8150   24.8800  -30.4000 C   0  0  0  0  0  0  0  0  0  0  0  0
   -6.7260   23.5220  -31.1300 C   0  0  2  0  0  0  0  0  0  0  0  0
   -7.6730   22.5290  -30.5620 N   0  0  0  0  0  0  0  0  0  0  0  0
   -8.6350   21.9000  -31.4890 C   0  0  0  0  0  0  0  0  0  0  0  0
   -8.1450   20.5780  -32.0180 C   0  0  0  0  0  0  0  0  0  0  0  0
   -8.6680   19.3730  -31.5170 C   0  0  0  0  0  0  0  0  0  0  0  0
   -8.2040   18.1480  -32.0050 C   0  0  0  0  0  0  0  0  0  0  0  0
   -7.2070   18.1160  -32.9830 C   0  0  0  0  0  0  0  0  0  0  0  0
   -6.6660   19.3090  -33.4700 C   0  0  0  0  0  0  0  0  0  0  0  0
   -7.1270   20.5370  -32.9850 C   0  0  0  0  0  0  0  0  0  0  0  0
   -3.5282   24.2905  -26.1177 H   0  0  0  0  0  0  0  0  0  0  0  0
   -4.4676   24.8649  -27.5370 H   0  0  0  0  0  0  0  0  0  0  0  0
   -3.7595   23.2140  -27.5370 H   0  0  0  0  0  0  0  0  0  0  0  0
   -2.1432   25.8152  -27.4488 H   0  0  0  0  0  0  0  0  0  0  0  0
   -1.4961   24.1355  -27.5819 H   0  0  0  0  0  0  0  0  0  0  0  0
   -1.9880   25.6720  -29.7700 H   0  0  0  0  0  0  0  0  0  0  0  0
   -1.4713   22.6334  -30.5388 H   0  0  0  0  0  0  0  0  0  0  0  0
   -2.7785   21.0276  -31.9334 H   0  0  0  0  0  0  0  0  0  0  0  0
   -5.2386   21.3678  -32.2745 H   0  0  0  0  0  0  0  0  0  0  0  0
   -5.4554   25.1933  -28.7176 H   0  0  0  0  0  0  0  0  0  0  0  0
   -5.0436   26.1663  -30.1270 H   0  0  0  0  0  0  0  0  0  0  0  0
   -7.5574   24.8237  -29.5903 H   0  0  0  0  0  0  0  0  0  0  0  0
   -7.1257   25.6747  -31.0942 H   0  0  0  0  0  0  0  0  0  0  0  0
   -7.0384   23.5635  -32.1839 H   0  0  0  0  0  0  0  0  0  0  0  0
   -8.2350   23.0130  -29.8230 H   0  0  0  0  0  0  0  0  0  0  0  0
   -9.5835   21.7372  -30.9563 H   0  0  0  0  0  0  0  0  0  0  0  0
   -8.7642   22.5764  -32.3468 H   0  0  0  0  0  0  0  0  0  0  0  0
   -9.4448   19.3942  -30.7385 H   0  0  0  0  0  0  0  0  0  0  0  0
   -8.6245   17.2079  -31.6184 H   0  0  0  0  0  0  0  0  0  0  0  0
   -6.8475   17.1511  -33.3700 H   0  0  0  0  0  0  0  0  0  0  0  0
   -5.8767   19.2821  -34.2357 H   0  0  0  0  0  0  0  0  0  0  0  0
   -6.6910   21.4739  -33.3620 H   0  0  0  0  0  0  0  0  0  0  0  0
  1  2  1  0
  2  3  1  0
  3  4  1  0
  4  5  2  0
  5  6  1  0
  6  7  2  0
  7  8  1  0
  8  9  2  0
  9 10  1  0
 10 11  1  0
 11 12  1  0
 12 13  1  0
 13 14  1  0
 14 15  1  0
 15 16  2  0
 16 17  1  0
 17 18  2  0
 18 19  1  0
 19 20  2  0
  9  4  1  0
 20 15  1  0
 12  8  1  0
  1 21  1  0
  1 22  1  0
  1 23  1  0
  2 24  1  0
  2 25  1  0
  3 26  1  0
  5 27  1  0
  6 28  1  0
  7 29  1  0
 10 30  1  0
 10 31  1  0
 11 32  1  0
 11 33  1  0
 12 34  1  6
 13 35  1  0
 14 36  1  0
 14 37  1  0
 16 38  1  0
 17 39  1  0
 18 40  1  0
 19 41  1  0
 20 42  1  0
M  END
>  <UniqueID>  (26) 
24

>  <SMILES>  (26) 
CCNc1cccc2c1CC[C@@H]2NCc1ccccc1

>  <Energy>  (26) 
52.12724445588109

>  <Genealogy>  (26) 
CCNc1cccc2c1CC[C@@H]2NCc1ccccc1 (chirality)
CCNc1cccc2c1CC[C@@H]2NCc1ccccc1 (3D coordinates assigned)
CCNc1cccc2c1CC[C@@H]2NCc1ccccc1 (nonaromatic ring conformer: 52.12724445588109 kcal/mol)

>  <smiles>  (26) 
CCNc1cccc2c1CCC2NCc1ccccc1

>  <score_type>  (26) 
oracle

>  <origin>  (26) 
adg

>  <m_score__min__energy>  (26) 
-8.5899999999999999

>  <m_primary>  (26) 
energy

$$$$
26:0
     RDKit          3D

 66 69  0  0  0  0  0  0  0  0999 V2000
   -2.9000   18.7810  -26.1530 C   0  0  0  0  0  0  0  0  0  0  0  0
   -1.7760   18.9940  -27.1650 C   0  0  0  0  0  0  0  0  0  0  0  0
   -2.0920   20.1200  -28.0680 N   0  0  0  0  0  0  0  0  0  0  0  0
   -3.1320   20.9870  -27.4690 C   0  0  0  0  0  0  0  0  0  0  0  0
   -3.3140   22.2960  -28.2640 C   0  0  0  0  0  0  0  0  0  0  0  0
   -2.6780   22.1790  -29.5910 N   0  0  0  0  0  0  0  0  0  0  0  0
   -2.9610   23.3630  -30.4270 C   0  0  0  0  0  0  0  0  0  0  0  0
   -4.4440   23.6260  -30.4810 C   0  0  0  0  0  0  0  0  0  0  0  0
   -4.9450   24.8780  -30.0970 C   0  0  0  0  0  0  0  0  0  0  0  0
   -6.3170   25.1330  -30.1520 C   0  0  0  0  0  0  0  0  0  0  0  0
   -7.1990   24.1400  -30.5830 C   0  0  0  0  0  0  0  0  0  0  0  0
   -6.7170   22.8760  -30.9620 C   0  0  0  0  0  0  0  0  0  0  0  0
   -7.6510   21.8240  -31.4300 C   0  0  0  0  0  0  0  0  0  0  0  0
   -7.2420   20.4780  -31.4480 C   0  0  0  0  0  0  0  0  0  0  0  0
   -8.1080   19.4730  -31.9090 C   0  0  0  0  0  0  0  0  0  0  0  0
   -7.6420   18.0370  -31.9710 C   0  0  0  0  0  0  0  0  0  0  0  0
   -7.1870   17.6570  -33.3180 N   0  0  0  0  0  0  0  0  0  0  0  0
   -6.0790   16.6920  -33.2730 C   0  0  0  0  0  0  0  0  0  0  0  0
   -4.9850   17.1130  -34.2560 C   0  0  0  0  0  0  0  0  0  0  0  0
   -4.4310   18.4610  -33.8820 C   0  0  0  0  0  0  0  0  0  0  0  0
   -3.0780   18.5970  -33.5310 C   0  0  0  0  0  0  0  0  0  0  0  0
   -2.5900   19.8480  -33.1540 C   0  0  0  0  0  0  0  0  0  0  0  0
   -3.4490   20.9460  -33.1190 C   0  0  0  0  0  0  0  0  0  0  0  0
   -4.7910   20.7760  -33.4640 C   0  0  0  0  0  0  0  0  0  0  0  0
   -5.2530   19.5510  -33.8360 N   0  0  0  0  0  0  0  0  0  0  0  0
   -9.3920   19.8210  -32.3540 C   0  0  0  0  0  0  0  0  0  0  0  0
   -9.8090   21.1530  -32.3290 C   0  0  0  0  0  0  0  0  0  0  0  0
   -8.9490   22.1520  -31.8700 C   0  0  0  0  0  0  0  0  0  0  0  0
   -9.3930   23.4340  -31.8300 F   0  0  0  0  0  0  0  0  0  0  0  0
   -5.3340   22.6290  -30.9140 C   0  0  0  0  0  0  0  0  0  0  0  0
   -1.2200   21.9910  -29.4400 C   0  0  0  0  0  0  0  0  0  0  0  0
   -0.8910   20.9190  -28.3790 C   0  0  0  0  0  0  0  0  0  0  0  0
   -2.4947   18.8578  -25.1333 H   0  0  0  0  0  0  0  0  0  0  0  0
   -3.6746   19.5483  -26.2984 H   0  0  0  0  0  0  0  0  0  0  0  0
   -3.3402   17.7835  -26.2984 H   0  0  0  0  0  0  0  0  0  0  0  0
   -0.8424   19.2141  -26.6266 H   0  0  0  0  0  0  0  0  0  0  0  0
   -1.6637   18.0797  -27.7661 H   0  0  0  0  0  0  0  0  0  0  0  0
   -4.0872   20.4415  -27.4578 H   0  0  0  0  0  0  0  0  0  0  0  0
   -2.8137   21.2479  -26.4489 H   0  0  0  0  0  0  0  0  0  0  0  0
   -4.3879   22.4970  -28.3922 H   0  0  0  0  0  0  0  0  0  0  0  0
   -2.8411   23.1207  -27.7107 H   0  0  0  0  0  0  0  0  0  0  0  0
   -2.4529   24.2393  -29.9981 H   0  0  0  0  0  0  0  0  0  0  0  0
   -2.5946   23.1752  -31.4471 H   0  0  0  0  0  0  0  0  0  0  0  0
   -4.2551   25.6619  -29.7513 H   0  0  0  0  0  0  0  0  0  0  0  0
   -6.7039   26.1189  -29.8549 H   0  0  0  0  0  0  0  0  0  0  0  0
   -8.2781   24.3488  -30.6261 H   0  0  0  0  0  0  0  0  0  0  0  0
   -6.2343   20.2102  -31.0976 H   0  0  0  0  0  0  0  0  0  0  0  0
   -6.8087   17.9044  -31.2653 H   0  0  0  0  0  0  0  0  0  0  0  0
   -8.4952   17.3939  -31.7092 H   0  0  0  0  0  0  0  0  0  0  0  0
   -7.9850   17.2250  -33.8400 H   0  0  0  0  0  0  0  0  0  0  0  0
   -5.6631   16.6607  -32.2551 H   0  0  0  0  0  0  0  0  0  0  0  0
   -6.4534   15.6958  -33.5511 H   0  0  0  0  0  0  0  0  0  0  0  0
   -4.1742   16.3699  -34.2353 H   0  0  0  0  0  0  0  0  0  0  0  0
   -5.4178   17.1738  -35.2654 H   0  0  0  0  0  0  0  0  0  0  0  0
   -2.4088   17.7243  -33.5532 H   0  0  0  0  0  0  0  0  0  0  0  0
   -1.5302   19.9682  -32.8850 H   0  0  0  0  0  0  0  0  0  0  0  0
   -3.0729   21.9363  -32.8225 H   0  0  0  0  0  0  0  0  0  0  0  0
   -5.4774   21.6351  -33.4351 H   0  0  0  0  0  0  0  0  0  0  0  0
   -6.2620   19.4530  -34.0880 H   0  0  0  0  0  0  0  0  0  0  0  0
  -10.0733   19.0408  -32.7243 H   0  0  0  0  0  0  0  0  0  0  0  0
  -10.8202   21.4166  -32.6727 H   0  0  0  0  0  0  0  0  0  0  0  0
   -4.9451   21.6461  -31.2183 H   0  0  0  0  0  0  0  0  0  0  0  0
   -0.7987   21.6774  -30.4065 H   0  0  0  0  0  0  0  0  0  0  0  0
   -0.7827   22.9453  -29.1113 H   0  0  0  0  0  0  0  0  0  0  0  0
   -0.1038   20.2552  -28.7659 H   0  0  0  0  0  0  0  0  0  0  0  0
   -0.5460   21.4181  -27.4614 H   0  0  0  0  0  0  0  0  0  0  0  0
  1  2  1  0
  2  3  1  0
  3  4  1  0
  4  5  1  0
  5  6  1  0
  6  7  1  0
  7  8  1  0
  8  9  2  0
  9 10  1  0
 10 11  2  0
 11 12  1  0
 12 13  1  0
 13 14  2  0
 14 15  1  0
 15 16  1  0
 16 17  1  0
 17 18  1  0
 18 19  1  0
 19 20  1  0
 20 21  2  0
 21 22  1  0
 22 23  2  0
 23 24  1  0
 24 25  2  0
 15 26  2  0
 26 27  1  0
 27 28  2  0
 28 29  1  0
 12 30  2  0
  6 31  1  0
 31 32  1  0
 32  3  1  0
 30  8  1  0
 28 13  1  0
 25 20  1  0
  1 33  1  0
  1 34  1  0
  1 35  1  0
  2 36  1  0
  2 37  1  0
  4 38  1  0
  4 39  1  0
  5 40  1  0
  5 41  1  0
  7 42  1  0
  7 43  1  0
  9 44  1  0
 10 45  1  0
 11 46  1  0
 14 47  1  0
 16 48  1  0
 16 49  1  0
 17 50  1  0
 18 51  1  0
 18 52  1  0
 19 53  1  0
 19 54  1  0
 21 55  1  0
 22 56  1  0
 23 57  1  0
 24 58  1  0
 25 59  1  0
 26 60  1  0
 27 61  1  0
 30 62  1  0
 31 63  1  0
 31 64  1  0
 32 65  1  0
 32 66  1  0
M  CHG  1  25   1
M  END
>  <UniqueID>  (27) 
25

>  <SMILES>  (27) 
CCN1CCN(Cc2cccc(-c3cc(CNCCc4cccc[nH+]4)ccc3F)c2)CC1

>  <Energy>  (27) 
77.91536544902961

>  <Genealogy>  (27) 
CCN1CCN(Cc2cccc(-c3cc(CNCCc4cccc[nH+]4)ccc3F)c2)CC1 (protonated)
CCN1CCN(Cc2cccc(-c3cc(CNCCc4cccc[nH+]4)ccc3F)c2)CC1 (3D coordinates assigned)
CCN1CCN(Cc2cccc(-c3cc(CNCCc4cccc[nH+]4)ccc3F)c2)CC1 (nonaromatic ring conformer: 77.91536544902961 kcal/mol)

>  <smiles>  (27) 
CCN1CCN(Cc2cccc(-c3cc(CNCCc4ccccn4)ccc3F)c2)CC1

>  <score_type>  (27) 
oracle

>  <origin>  (27) 
adg

>  <m_score__min__energy>  (27) 
-10.08

>  <m_primary>  (27) 
energy

$$$$
27:0
     RDKit          3D

 32 32  0  0  0  0  0  0  0  0999 V2000
   -6.8000   17.5610  -33.4370 C   0  0  0  0  0  0  0  0  0  0  0  0
   -6.8390   19.0000  -33.0350 C   0  0  0  0  0  0  0  0  0  0  0  0
   -5.6690   19.7690  -33.0410 C   0  0  0  0  0  0  0  0  0  0  0  0
   -5.7280   21.1220  -32.6770 C   0  0  0  0  0  0  0  0  0  0  0  0
   -4.4830   21.9780  -32.7050 C   0  0  0  0  0  0  0  0  0  0  0  0
   -4.5860   23.1350  -31.8030 N   0  0  0  0  0  0  0  0  0  0  0  0
   -4.6130   22.7300  -30.3900 C   0  0  0  0  0  0  0  0  0  0  0  0
   -4.9080   23.9360  -29.4910 C   0  0  0  0  0  0  0  0  0  0  0  0
   -5.1260   25.2260  -30.2870 C   0  0  0  0  0  0  0  0  0  0  0  0
   -3.9110   25.6740  -30.8220 O   0  0  0  0  0  0  0  0  0  0  0  0
   -6.9620   21.6830  -32.3220 C   0  0  0  0  0  0  0  0  0  0  0  0
   -8.1120   20.8820  -32.3260 C   0  0  0  0  0  0  0  0  0  0  0  0
   -9.4410   21.4670  -31.9650 C   0  0  0  0  0  0  0  0  0  0  0  0
   -8.0230   19.5730  -32.6860 N   0  0  0  0  0  0  0  0  0  0  0  0
   -6.7829   16.9291  -32.5367 H   0  0  0  0  0  0  0  0  0  0  0  0
   -7.6920   17.3231  -34.0351 H   0  0  0  0  0  0  0  0  0  0  0  0
   -5.8964   17.3717  -34.0351 H   0  0  0  0  0  0  0  0  0  0  0  0
   -4.7096   19.3148  -33.3294 H   0  0  0  0  0  0  0  0  0  0  0  0
   -3.6236   21.3641  -32.3975 H   0  0  0  0  0  0  0  0  0  0  0  0
   -4.3564   22.3578  -33.7296 H   0  0  0  0  0  0  0  0  0  0  0  0
   -3.7650   23.7680  -31.9590 H   0  0  0  0  0  0  0  0  0  0  0  0
   -5.3961   21.9710  -30.2459 H   0  0  0  0  0  0  0  0  0  0  0  0
   -3.6300   22.3169  -30.1196 H   0  0  0  0  0  0  0  0  0  0  0  0
   -5.8155   23.7255  -28.9061 H   0  0  0  0  0  0  0  0  0  0  0  0
   -4.0330   24.0893  -28.8422 H   0  0  0  0  0  0  0  0  0  0  0  0
   -5.8346   25.0326  -31.1058 H   0  0  0  0  0  0  0  0  0  0  0  0
   -5.5301   25.9985  -29.6162 H   0  0  0  0  0  0  0  0  0  0  0  0
   -3.5070   24.8910  -31.2790 H   0  0  0  0  0  0  0  0  0  0  0  0
   -7.0276   22.7448  -32.0421 H   0  0  0  0  0  0  0  0  0  0  0  0
   -9.5377   21.5095  -30.8701 H   0  0  0  0  0  0  0  0  0  0  0  0
   -9.5193   22.4828  -32.3798 H   0  0  0  0  0  0  0  0  0  0  0  0
  -10.2430   20.8387  -32.3798 H   0  0  0  0  0  0  0  0  0  0  0  0
  1  2  1  0
  2  3  2  0
  3  4  1  0
  4  5  1  0
  5  6  1  0
  6  7  1  0
  7  8  1  0
  8  9  1  0
  9 10  1  0
  4 11  2  0
 11 12  1  0
 12 13  1  0
 12 14  2  0
 14  2  1  0
  1 15  1  0
  1 16  1  0
  1 17  1  0
  3 18  1  0
  5 19  1  0
  5 20  1  0
  6 21  1  0
  7 22  1  0
  7 23  1  0
  8 24  1  0
  8 25  1  0
  9 26  1  0
  9 27  1  0
 10 28  1  0
 11 29  1  0
 13 30  1  0
 13 31  1  0
 13 32  1  0
M  END
>  <UniqueID>  (28) 
26

>  <SMILES>  (28) 
Cc1cc(CNCCCO)cc(C)n1

>  <Energy>  (28) 
22.56910659277389

>  <Genealogy>  (28) 
Cc1cc(CNCCCO)cc(C)n1 (3D coordinates assigned)
Cc1cc(CNCCCO)cc(C)n1 (optimized conformer: 22.56910659277389 kcal/mol)

>  <smiles>  (28) 
Cc1cc(CNCCCO)cc(C)n1

>  <score_type>  (28) 
oracle

>  <origin>  (28) 
adg

>  <m_score__min__energy>  (28) 
-6.8899999999999997

>  <m_primary>  (28) 
energy

$$$$
28:0
     RDKit          3D

 38 40  0  0  0  0  0  0  0  0999 V2000
   -5.2180   25.6660  -30.5670 C   0  0  0  0  0  0  0  0  0  0  0  0
   -3.8840   25.1800  -30.4590 O   0  0  0  0  0  0  0  0  0  0  0  0
   -3.4720   24.1880  -29.5550 C   0  0  0  0  0  0  0  0  0  0  0  0
   -3.2240   24.4700  -28.1970 C   0  0  0  0  0  0  0  0  0  0  0  0
   -2.7710   23.4650  -27.3380 C   0  0  0  0  0  0  0  0  0  0  0  0
   -2.5570   22.1740  -27.8230 C   0  0  0  0  0  0  0  0  0  0  0  0
   -2.8070   21.8800  -29.1650 C   0  0  0  0  0  0  0  0  0  0  0  0
   -3.2810   22.8760  -30.0280 C   0  0  0  0  0  0  0  0  0  0  0  0
   -3.5440   22.5550  -31.3990 N   0  0  0  0  0  0  0  0  0  0  0  0
   -2.6240   22.1790  -32.2680 N   0  0  0  0  0  0  0  0  0  0  0  0
   -3.2340   21.8730  -33.4020 N   0  0  0  0  0  0  0  0  0  0  0  0
   -4.5480   22.0150  -33.2880 N   0  0  0  0  0  0  0  0  0  0  0  0
   -4.7330   22.4630  -32.0290 C   0  0  0  0  0  0  0  0  0  0  0  0
   -6.0810   22.5780  -31.3670 C   0  0  0  0  0  0  0  0  0  0  0  0
   -7.2340   22.1930  -32.3020 C   0  0  0  0  0  0  0  0  0  0  0  0
   -7.4810   20.7070  -32.3080 C   0  0  0  0  0  0  0  0  0  0  0  0
   -6.6280   19.8530  -33.0290 C   0  0  0  0  0  0  0  0  0  0  0  0
   -6.8610   18.4750  -33.0460 C   0  0  0  0  0  0  0  0  0  0  0  0
   -7.9330   17.9370  -32.3290 C   0  0  0  0  0  0  0  0  0  0  0  0
   -8.7730   18.7760  -31.5930 C   0  0  0  0  0  0  0  0  0  0  0  0
   -8.5490   20.1560  -31.5800 C   0  0  0  0  0  0  0  0  0  0  0  0
   -5.6354   25.8181  -29.5607 H   0  0  0  0  0  0  0  0  0  0  0  0
   -5.2171   26.6216  -31.1119 H   0  0  0  0  0  0  0  0  0  0  0  0
   -5.8320   24.9338  -31.1119 H   0  0  0  0  0  0  0  0  0  0  0  0
   -3.3878   25.4868  -27.8108 H   0  0  0  0  0  0  0  0  0  0  0  0
   -2.5829   23.6918  -26.2782 H   0  0  0  0  0  0  0  0  0  0  0  0
   -2.1909   21.3870  -27.1472 H   0  0  0  0  0  0  0  0  0  0  0  0
   -2.6311   20.8630  -29.5455 H   0  0  0  0  0  0  0  0  0  0  0  0
   -2.7490   21.5380  -34.2620 H   0  0  0  0  0  0  0  0  0  0  0  0
   -6.1009   21.9127  -30.4912 H   0  0  0  0  0  0  0  0  0  0  0  0
   -6.2222   23.6308  -31.0812 H   0  0  0  0  0  0  0  0  0  0  0  0
   -8.1488   22.7041  -31.9674 H   0  0  0  0  0  0  0  0  0  0  0  0
   -6.9604   22.4969  -33.3232 H   0  0  0  0  0  0  0  0  0  0  0  0
   -5.7739   20.2710  -33.5819 H   0  0  0  0  0  0  0  0  0  0  0  0
   -6.1997   17.8132  -33.6245 H   0  0  0  0  0  0  0  0  0  0  0  0
   -8.1154   16.8523  -32.3442 H   0  0  0  0  0  0  0  0  0  0  0  0
   -9.6119   18.3504  -31.0228 H   0  0  0  0  0  0  0  0  0  0  0  0
   -9.2116   20.8130  -30.9975 H   0  0  0  0  0  0  0  0  0  0  0  0
  1  2  1  0
  2  3  1  0
  3  4  2  0
  4  5  1  0
  5  6  2  0
  6  7  1  0
  7  8  2  0
  8  9  1  0
  9 10  1  0
 10 11  2  0
 11 12  1  0
 12 13  2  0
 13 14  1  0
 14 15  1  0
 15 16  1  0
 16 17  2  0
 17 18  1  0
 18 19  2  0
 19 20  1  0
 20 21  2  0
  8  3  1  0
 13  9  1  0
 21 16  1  0
  1 22  1  0
  1 23  1  0
  1 24  1  0
  4 25  1  0
  5 26  1  0
  6 27  1  0
  7 28  1  0
 11 29  1  0
 14 30  1  0
 14 31  1  0
 15 32  1  0
 15 33  1  0
 17 34  1  0
 18 35  1  0
 19 36  1  0
 20 37  1  0
 21 38  1  0
M  CHG  1  11   1
M  END
>  <UniqueID>  (29) 
27

>  <SMILES>  (29) 
COc1ccccc1-n1n[nH+]nc1CCc1ccccc1

>  <Energy>  (29) 
82.11352145336784

>  <Genealogy>  (29) 
COc1ccccc1-n1n[nH+]nc1CCc1ccccc1 (protonated)
COc1ccccc1-n1n[nH+]nc1CCc1ccccc1 (3D coordinates assigned)
COc1ccccc1-n1n[nH+]nc1CCc1ccccc1 (optimized conformer: 82.11352145336784 kcal/mol)

>  <smiles>  (29) 
COc1ccccc1-n1nnnc1CCc1ccccc1

>  <score_type>  (29) 
oracle

>  <origin>  (29) 
adg

>  <m_score__min__energy>  (29) 
-8.1799999999999997

>  <m_primary>  (29) 
energy

$$$$
29:0
     RDKit          3D

 37 39  0  0  0  0  0  0  0  0999 V2000
   -0.4570   27.1800  -23.2960 C   0  0  0  0  0  0  0  0  0  0  0  0
   -0.5330   26.3730  -24.5590 C   0  0  0  0  0  0  0  0  0  0  0  0
    0.6380   26.0320  -25.2500 C   0  0  0  0  0  0  0  0  0  0  0  0
    0.5700   25.3140  -26.4470 C   0  0  0  0  0  0  0  0  0  0  0  0
   -0.6720   24.9390  -26.9700 C   0  0  0  0  0  0  0  0  0  0  0  0
   -0.7370   24.2460  -28.1320 N   0  0  0  0  0  0  0  0  0  0  0  0
   -1.9260   23.8660  -28.6680 C   0  0  0  0  0  0  0  0  0  0  0  0
   -1.9180   23.0960  -29.9570 C   0  0  0  0  0  0  0  0  0  0  0  0
   -3.1010   24.1830  -28.0350 N   0  0  0  0  0  0  0  0  0  0  0  0
   -4.3330   23.8050  -28.6080 N   0  0  0  0  0  0  0  0  0  0  0  0
   -4.7130   24.2440  -29.9210 C   0  0  0  0  0  0  0  0  0  0  0  0
   -4.0290   25.1320  -30.4980 O   0  0  0  0  0  0  0  0  0  0  0  0
   -5.9100   23.6890  -30.5980 C   0  0  0  0  0  0  0  0  0  0  0  0
   -6.8300   22.8820  -29.9010 C   0  0  0  0  0  0  0  0  0  0  0  0
   -7.9520   22.3610  -30.5540 C   0  0  0  0  0  0  0  0  0  0  0  0
   -8.1660   22.6340  -31.9070 C   0  0  0  0  0  0  0  0  0  0  0  0
   -7.2560   23.4240  -32.6110 C   0  0  0  0  0  0  0  0  0  0  0  0
   -6.1320   23.9470  -31.9640 C   0  0  0  0  0  0  0  0  0  0  0  0
   -3.0810   24.8990  -26.8660 C   0  0  0  0  0  0  0  0  0  0  0  0
   -4.1680   25.2230  -26.3080 O   0  0  0  0  0  0  0  0  0  0  0  0
   -1.8570   25.2870  -26.2960 C   0  0  0  0  0  0  0  0  0  0  0  0
   -1.7820   26.0130  -25.0920 C   0  0  0  0  0  0  0  0  0  0  0  0
   -0.5203   26.5082  -22.4273 H   0  0  0  0  0  0  0  0  0  0  0  0
    0.4967   27.7274  -23.2675 H   0  0  0  0  0  0  0  0  0  0  0  0
   -1.2917   27.8959  -23.2675 H   0  0  0  0  0  0  0  0  0  0  0  0
    1.6169   26.3315  -24.8474 H   0  0  0  0  0  0  0  0  0  0  0  0
    1.4942   25.0434  -26.9786 H   0  0  0  0  0  0  0  0  0  0  0  0
   -1.9068   22.0177  -29.7399 H   0  0  0  0  0  0  0  0  0  0  0  0
   -2.8188   23.3438  -30.5377 H   0  0  0  0  0  0  0  0  0  0  0  0
   -1.0226   23.3624  -30.5377 H   0  0  0  0  0  0  0  0  0  0  0  0
   -5.0500   23.3480  -28.0020 H   0  0  0  0  0  0  0  0  0  0  0  0
   -6.6652   22.6600  -28.8363 H   0  0  0  0  0  0  0  0  0  0  0  0
   -8.6674   21.7349  -30.0007 H   0  0  0  0  0  0  0  0  0  0  0  0
   -9.0512   22.2266  -32.4173 H   0  0  0  0  0  0  0  0  0  0  0  0
   -7.4233   23.6358  -33.6774 H   0  0  0  0  0  0  0  0  0  0  0  0
   -5.4162   24.5644  -32.5265 H   0  0  0  0  0  0  0  0  0  0  0  0
   -2.7050   26.2995  -24.5666 H   0  0  0  0  0  0  0  0  0  0  0  0
  1  2  1  0
  2  3  2  0
  3  4  1  0
  4  5  2  0
  5  6  1  0
  6  7  2  0
  7  8  1  0
  7  9  1  0
  9 10  1  0
 10 11  1  0
 11 12  2  0
 11 13  1  0
 13 14  2  0
 14 15  1  0
 15 16  2  0
 16 17  1  0
 17 18  2  0
  9 19  1  0
 19 20  2  0
 19 21  1  0
 21 22  2  0
 22  2  1  0
 21  5  1  0
 18 13  1  0
  1 23  1  0
  1 24  1  0
  1 25  1  0
  3 26  1  0
  4 27  1  0
  8 28  1  0
  8 29  1  0
  8 30  1  0
 10 31  1  0
 14 32  1  0
 15 33  1  0
 16 34  1  0
 17 35  1  0
 18 36  1  0
 22 37  1  0
M  END
>  <UniqueID>  (30) 
28

>  <SMILES>  (30) 
Cc1ccc2nc(C)n(NC(=O)c3ccccc3)c(=O)c2c1

>  <Energy>  (30) 
51.395110806924535

>  <Genealogy>  (30) 
Cc1ccc2nc(C)n(NC(=O)c3ccccc3)c(=O)c2c1 (3D coordinates assigned)
Cc1ccc2nc(C)n(NC(=O)c3ccccc3)c(=O)c2c1 (optimized conformer: 51.395110806924535 kcal/mol)

>  <smiles>  (30) 
Cc1ccc2nc(C)n(NC(=O)c3ccccc3)c(=O)c2c1

>  <score_type>  (30) 
oracle

>  <origin>  (30) 
adg

>  <m_score__min__energy>  (30) 
-8.1899999999999995

>  <m_primary>  (30) 
energy

$$$$
30:0
     RDKit          3D

 40 43  0  0  1  0  0  0  0  0999 V2000
   -2.2010   24.6130  -28.8680 C   0  0  0  0  0  0  0  0  0  0  0  0
   -3.1010   25.2620  -29.7280 O   0  0  0  0  0  0  0  0  0  0  0  0
   -4.2410   24.6160  -30.1720 C   0  0  0  0  0  0  0  0  0  0  0  0
   -4.1030   23.3520  -30.7350 C   0  0  0  0  0  0  0  0  0  0  0  0
   -5.2160   22.6500  -31.2000 C   0  0  0  0  0  0  0  0  0  0  0  0
   -6.4860   23.1880  -31.1140 C   0  0  0  0  0  0  0  0  0  0  0  0
   -7.6500   22.4510  -31.6030 C   0  0  0  0  0  0  0  0  0  0  0  0
   -8.8560   23.0360  -31.9500 C   0  0  0  0  0  0  0  0  0  0  0  0
   -9.6390   21.9970  -32.3420 N   0  0  0  0  0  0  0  0  0  0  0  0
   -8.9980   20.8640  -32.2530 N   0  0  0  0  0  0  0  0  0  0  0  0
   -9.3560   19.5920  -32.5260 C   0  0  0  0  0  0  0  0  0  0  0  0
   -8.4980   18.5340  -32.3550 C   0  0  0  0  0  0  0  0  0  0  0  0
   -7.2330   18.8160  -31.8850 C   0  0  0  0  0  0  0  0  0  0  0  0
   -6.3650   17.8750  -31.6970 N   0  0  0  0  0  0  0  0  0  0  0  0
   -5.6070   17.3150  -32.7710 C   0  0  0  0  0  0  0  0  0  0  0  0
   -5.0460   16.0440  -32.6730 C   0  0  0  0  0  0  0  0  0  0  0  0
   -4.3120   15.5040  -33.7180 C   0  0  0  0  0  0  0  0  0  0  0  0
   -4.1530   16.2700  -34.8660 C   0  0  0  0  0  0  0  0  0  0  0  0
   -4.7030   17.5350  -34.9810 C   0  0  0  0  0  0  0  0  0  0  0  0
   -5.4380   18.0610  -33.9230 C   0  0  0  0  0  0  0  0  0  0  0  0
   -6.8560   20.0840  -31.6070 N   0  0  0  0  0  0  0  0  0  0  0  0
   -7.7370   21.0870  -31.7920 C   0  0  0  0  0  0  0  0  0  0  0  0
   -6.6010   24.4380  -30.5540 C   0  0  0  0  0  0  0  0  0  0  0  0
   -5.5090   25.1470  -30.0890 C   0  0  0  0  0  0  0  0  0  0  0  0
   -2.4813   24.8151  -27.8237 H   0  0  0  0  0  0  0  0  0  0  0  0
   -2.2336   23.5292  -29.0532 H   0  0  0  0  0  0  0  0  0  0  0  0
   -1.1830   24.9862  -29.0532 H   0  0  0  0  0  0  0  0  0  0  0  0
   -3.1036   22.8995  -30.8149 H   0  0  0  0  0  0  0  0  0  0  0  0
   -5.0801   21.6520  -31.6422 H   0  0  0  0  0  0  0  0  0  0  0  0
   -9.1209   24.1031  -31.9160 H   0  0  0  0  0  0  0  0  0  0  0  0
  -10.6310   22.1830  -32.6610 H   0  0  0  0  0  0  0  0  0  0  0  0
  -10.3720   19.3957  -32.8990 H   0  0  0  0  0  0  0  0  0  0  0  0
   -8.8072   17.5034  -32.5836 H   0  0  0  0  0  0  0  0  0  0  0  0
   -5.1875   15.4594  -31.7520 H   0  0  0  0  0  0  0  0  0  0  0  0
   -3.8692   14.5000  -33.6405 H   0  0  0  0  0  0  0  0  0  0  0  0
   -3.5741   15.8600  -35.7067 H   0  0  0  0  0  0  0  0  0  0  0  0
   -4.5602   18.1199  -35.9016 H   0  0  0  0  0  0  0  0  0  0  0  0
   -5.8820   19.0643  -34.0026 H   0  0  0  0  0  0  0  0  0  0  0  0
   -7.5999   24.8915  -30.4727 H   0  0  0  0  0  0  0  0  0  0  0  0
   -5.6543   26.1445  -29.6486 H   0  0  0  0  0  0  0  0  0  0  0  0
  1  2  1  0
  2  3  1  0
  3  4  2  0
  4  5  1  0
  5  6  2  0
  6  7  1  0
  7  8  2  0
  8  9  1  0
  9 10  1  0
 10 11  1  0
 11 12  2  0
 12 13  1  0
 13 14  2  0
 14 15  1  0
 15 16  2  0
 16 17  1  0
 17 18  2  0
 18 19  1  0
 19 20  2  0
 13 21  1  0
 21 22  2  0
  6 23  1  0
 23 24  2  0
 24  3  1  0
 22  7  1  0
 22 10  1  0
 20 15  1  0
  1 25  1  0
  1 26  1  0
  1 27  1  0
  4 28  1  0
  5 29  1  0
  8 30  1  0
  9 31  1  0
 11 32  1  0
 12 33  1  0
 16 34  1  0
 17 35  1  0
 18 36  1  0
 19 37  1  0
 20 38  1  0
 23 39  1  0
 24 40  1  0
M  END
>  <smiles>  (31) 
COc1ccc(-c2c[nH]n3ccc(=Nc4ccccc4)nc23)cc1

>  <score_type>  (31) 
oracle

>  <origin>  (31) 
adg

>  <m_score__min__energy>  (31) 
-9.0099999999999998

>  <m_primary>  (31) 
energy

$$$$
31:0
     RDKit          3D

 36 37  0  0  0  0  0  0  0  0999 V2000
   -6.1420   19.2470  -33.8430 C   0  0  0  0  0  0  0  0  0  0  0  0
   -6.5190   18.9730  -32.3810 C   0  0  0  0  0  0  0  0  0  0  0  0
   -7.0850   20.1690  -31.7000 N   0  0  0  0  0  0  0  0  0  0  0  0
   -8.4920   19.9300  -31.2820 C   0  0  0  0  0  0  0  0  0  0  0  0
   -9.4800   20.9230  -31.9040 C   0  0  0  0  0  0  0  0  0  0  0  0
   -6.9310   21.3800  -32.5520 C   0  0  0  0  0  0  0  0  0  0  0  0
   -6.1270   22.4760  -31.9040 C   0  0  0  0  0  0  0  0  0  0  0  0
   -6.0210   23.7770  -32.3410 C   0  0  0  0  0  0  0  0  0  0  0  0
   -5.2550   24.4140  -31.4910 O   0  0  0  0  0  0  0  0  0  0  0  0
   -4.8970   23.5500  -30.5640 C   0  0  0  0  0  0  0  0  0  0  0  0
   -4.0280   23.8910  -29.4200 C   0  0  0  0  0  0  0  0  0  0  0  0
   -4.5930   24.1900  -28.1680 C   0  0  0  0  0  0  0  0  0  0  0  0
   -3.7720   24.5120  -27.0820 C   0  0  0  0  0  0  0  0  0  0  0  0
   -2.3830   24.5380  -27.2350 C   0  0  0  0  0  0  0  0  0  0  0  0
   -1.2650   24.9790  -25.7510 Br  0  0  0  0  0  0  0  0  0  0  0  0
   -1.8130   24.2430  -28.4770 C   0  0  0  0  0  0  0  0  0  0  0  0
   -2.6300   23.9200  -29.5660 C   0  0  0  0  0  0  0  0  0  0  0  0
   -5.4160   22.3210  -30.7730 N   0  0  0  0  0  0  0  0  0  0  0  0
   -5.2526   19.8934  -33.8774 H   0  0  0  0  0  0  0  0  0  0  0  0
   -5.9235   18.2955  -34.3498 H   0  0  0  0  0  0  0  0  0  0  0  0
   -6.9796   19.7485  -34.3498 H   0  0  0  0  0  0  0  0  0  0  0  0
   -7.2669   18.1668  -32.3556 H   0  0  0  0  0  0  0  0  0  0  0  0
   -5.5990   18.6914  -31.8478 H   0  0  0  0  0  0  0  0  0  0  0  0
   -6.5180   20.3460  -30.8370 H   0  0  0  0  0  0  0  0  0  0  0  0
   -8.7797   18.9127  -31.5860 H   0  0  0  0  0  0  0  0  0  0  0  0
   -8.5373   20.0616  -30.1908 H   0  0  0  0  0  0  0  0  0  0  0  0
  -10.0132   21.4589  -31.1050 H   0  0  0  0  0  0  0  0  0  0  0  0
   -8.9313   21.6449  -32.5267 H   0  0  0  0  0  0  0  0  0  0  0  0
  -10.2046   20.3779  -32.5267 H   0  0  0  0  0  0  0  0  0  0  0  0
   -6.4292   21.0864  -33.4858 H   0  0  0  0  0  0  0  0  0  0  0  0
   -7.9402   21.7812  -32.7270 H   0  0  0  0  0  0  0  0  0  0  0  0
   -6.4928   24.2031  -33.2387 H   0  0  0  0  0  0  0  0  0  0  0  0
   -5.6855   24.1707  -28.0417 H   0  0  0  0  0  0  0  0  0  0  0  0
   -4.2208   24.7453  -26.1052 H   0  0  0  0  0  0  0  0  0  0  0  0
   -0.7199   24.2649  -28.5983 H   0  0  0  0  0  0  0  0  0  0  0  0
   -2.1764   23.6877  -30.5408 H   0  0  0  0  0  0  0  0  0  0  0  0
  1  2  1  0
  2  3  1  0
  3  4  1  0
  4  5  1  0
  3  6  1  0
  6  7  1  0
  7  8  2  0
  8  9  1  0
  9 10  1  0
 10 11  1  0
 11 12  2  0
 12 13  1  0
 13 14  2  0
 14 15  1  0
 14 16  1  0
 16 17  2  0
 10 18  2  0
 18  7  1  0
 17 11  1  0
  1 19  1  0
  1 20  1  0
  1 21  1  0
  2 22  1  0
  2 23  1  0
  3 24  1  0
  4 25  1  0
  4 26  1  0
  5 27  1  0
  5 28  1  0
  5 29  1  0
  6 30  1  0
  6 31  1  0
  8 32  1  0
 12 33  1  0
 13 34  1  0
 16 35  1  0
 17 36  1  0
M  CHG  1   3   1
M  END
>  <UniqueID>  (32) 
29

>  <SMILES>  (32) 
CC[NH+](CC)Cc1coc(-c2ccc(Br)cc2)n1

>  <Energy>  (32) 
66.61676793343148

>  <Genealogy>  (32) 
CC[NH+](CC)Cc1coc(-c2ccc(Br)cc2)n1 (protonated)
CC[NH+](CC)Cc1coc(-c2ccc(Br)cc2)n1 (3D coordinates assigned)
CC[NH+](CC)Cc1coc(-c2ccc(Br)cc2)n1 (optimized conformer: 66.61676793343148 kcal/mol)

>  <smiles>  (32) 
CCN(CC)Cc1coc(-c2ccc(Br)cc2)n1

>  <score_type>  (32) 
oracle

>  <origin>  (32) 
adg

>  <m_score__min__energy>  (32) 
-5.5499999999999998

>  <m_primary>  (32) 
energy

$$$$
32:0
     RDKit          3D

 47 50  0  0  0  0  0  0  0  0999 V2000
   -5.6300   25.8150  -30.2900 C   0  0  0  0  0  0  0  0  0  0  0  0
   -4.4340   25.1770  -30.8480 N   0  0  0  0  0  0  0  0  0  0  0  0
   -4.6370   23.7450  -31.1240 C   0  0  0  0  0  0  0  0  0  0  0  0
   -5.9090   23.4450  -31.9430 C   0  0  0  0  0  0  0  0  0  0  0  0
   -6.0530   22.0170  -32.2440 N   0  0  0  0  0  0  0  0  0  0  0  0
   -7.2760   21.2880  -32.2190 C   0  0  0  0  0  0  0  0  0  0  0  0
   -8.4120   21.8200  -32.1120 O   0  0  0  0  0  0  0  0  0  0  0  0
   -7.0130   19.8750  -32.3890 C   0  0  0  0  0  0  0  0  0  0  0  0
   -7.8980   18.7950  -32.4900 C   0  0  0  0  0  0  0  0  0  0  0  0
   -9.3770   18.9680  -32.3010 C   0  0  0  0  0  0  0  0  0  0  0  0
   -7.3540   17.5380  -32.8000 C   0  0  0  0  0  0  0  0  0  0  0  0
   -5.9810   17.3960  -33.0640 C   0  0  0  0  0  0  0  0  0  0  0  0
   -5.1000   18.5040  -32.9980 C   0  0  0  0  0  0  0  0  0  0  0  0
   -5.6480   19.7290  -32.5600 C   0  0  0  0  0  0  0  0  0  0  0  0
   -4.9530   21.0470  -32.3430 C   0  0  1  0  0  0  0  0  0  0  0  0
   -3.9730   21.3440  -33.4810 C   0  0  0  0  0  0  0  0  0  0  0  0
   -2.6870   20.6330  -33.1590 C   0  0  0  0  0  0  0  0  0  0  0  0
   -1.5570   21.3860  -32.7960 C   0  0  0  0  0  0  0  0  0  0  0  0
   -0.3920   20.7530  -32.3630 C   0  0  0  0  0  0  0  0  0  0  0  0
   -0.3450   19.3630  -32.2720 C   0  0  0  0  0  0  0  0  0  0  0  0
   -1.4610   18.6020  -32.6210 C   0  0  0  0  0  0  0  0  0  0  0  0
   -2.6460   19.2200  -33.0610 C   0  0  0  0  0  0  0  0  0  0  0  0
   -3.7430   18.3940  -33.5140 N   0  0  0  0  0  0  0  0  0  0  0  0
   -3.4350   17.3700  -34.5210 C   0  0  0  0  0  0  0  0  0  0  0  0
   -5.5808   25.7888  -29.1914 H   0  0  0  0  0  0  0  0  0  0  0  0
   -5.6806   26.8599  -30.6299 H   0  0  0  0  0  0  0  0  0  0  0  0
   -6.5260   25.2750  -30.6299 H   0  0  0  0  0  0  0  0  0  0  0  0
   -4.1490   25.6780  -31.7200 H   0  0  0  0  0  0  0  0  0  0  0  0
   -3.7671   23.3729  -31.6850 H   0  0  0  0  0  0  0  0  0  0  0  0
   -4.7554   23.2442  -30.1518 H   0  0  0  0  0  0  0  0  0  0  0  0
   -6.7864   23.7755  -31.3677 H   0  0  0  0  0  0  0  0  0  0  0  0
   -5.8290   23.9840  -32.8985 H   0  0  0  0  0  0  0  0  0  0  0  0
   -9.6086   18.9951  -31.2260 H   0  0  0  0  0  0  0  0  0  0  0  0
   -9.6988   19.9099  -32.7692 H   0  0  0  0  0  0  0  0  0  0  0  0
   -9.9075   18.1258  -32.7692 H   0  0  0  0  0  0  0  0  0  0  0  0
   -8.0094   16.6553  -32.8366 H   0  0  0  0  0  0  0  0  0  0  0  0
   -5.5823   16.4051  -33.3271 H   0  0  0  0  0  0  0  0  0  0  0  0
   -4.3255   21.0706  -31.4398 H   0  0  0  0  0  0  0  0  0  0  0  0
   -4.3793   20.9744  -34.4341 H   0  0  0  0  0  0  0  0  0  0  0  0
   -3.8060   22.4268  -33.5793 H   0  0  0  0  0  0  0  0  0  0  0  0
   -1.5918   22.4839  -32.8539 H   0  0  0  0  0  0  0  0  0  0  0  0
    0.4906   21.3514  -32.0930 H   0  0  0  0  0  0  0  0  0  0  0  0
    0.5726   18.8657  -31.9248 H   0  0  0  0  0  0  0  0  0  0  0  0
   -1.4139   17.5052  -32.5513 H   0  0  0  0  0  0  0  0  0  0  0  0
   -3.1533   16.4335  -34.0174 H   0  0  0  0  0  0  0  0  0  0  0  0
   -4.3206   17.1961  -35.1499 H   0  0  0  0  0  0  0  0  0  0  0  0
   -2.6004   17.7135  -35.1499 H   0  0  0  0  0  0  0  0  0  0  0  0
  1  2  1  0
  2  3  1  0
  3  4  1  0
  4  5  1  0
  5  6  1  0
  6  7  2  0
  6  8  1  0
  8  9  2  0
  9 10  1  0
  9 11  1  0
 11 12  2  0
 12 13  1  0
 13 14  2  0
 14 15  1  0
 15 16  1  0
 16 17  1  0
 17 18  2  0
 18 19  1  0
 19 20  2  0
 20 21  1  0
 21 22  2  0
 22 23  1  0
 23 24  1  0
 15  5  1  0
 22 17  1  0
 14  8  1  0
 23 13  1  0
  1 25  1  0
  1 26  1  0
  1 27  1  0
  2 28  1  0
  3 29  1  0
  3 30  1  0
  4 31  1  0
  4 32  1  0
 10 33  1  0
 10 34  1  0
 10 35  1  0
 11 36  1  0
 12 37  1  0
 15 38  1  1
 16 39  1  0
 16 40  1  0
 18 41  1  0
 19 42  1  0
 20 43  1  0
 21 44  1  0
 24 45  1  0
 24 46  1  0
 24 47  1  0
M  END
>  <UniqueID>  (33) 
30

>  <SMILES>  (33) 
CNCCN1C(=O)c2c(C)ccc3c2[C@H]1Cc1ccccc1N3C

>  <Energy>  (33) 
86.30446073917756

>  <Genealogy>  (33) 
CNCCN1C(=O)c2c(C)ccc3c2[C@H]1Cc1ccccc1N3C (chirality)
CNCCN1C(=O)c2c(C)ccc3c2[C@H]1Cc1ccccc1N3C (3D coordinates assigned)
CNCCN1C(=O)c2c(C)ccc3c2[C@H]1Cc1ccccc1N3C (nonaromatic ring conformer: 86.30446073917756 kcal/mol)

>  <smiles>  (33) 
CNCCN1C(=O)c2c(C)ccc3c2C1Cc1ccccc1N3C

>  <score_type>  (33) 
oracle

>  <origin>  (33) 
adg

>  <m_score__min__energy>  (33) 
-8.3100000000000005

>  <m_primary>  (33) 
energy

$$$$
33:0
     RDKit          3D

 40 42  0  0  0  0  0  0  0  0999 V2000
   -7.5910   17.2010  -32.9540 F   0  0  0  0  0  0  0  0  0  0  0  0
   -7.4500   18.5320  -32.7370 C   0  0  0  0  0  0  0  0  0  0  0  0
   -6.3520   19.2220  -33.2980 C   0  0  0  0  0  0  0  0  0  0  0  0
   -6.1950   20.6040  -33.0860 C   0  0  0  0  0  0  0  0  0  0  0  0
   -7.1500   21.2550  -32.3050 C   0  0  0  0  0  0  0  0  0  0  0  0
   -7.2940   22.5840  -31.9590 C   0  0  0  0  0  0  0  0  0  0  0  0
   -6.4630   23.7460  -32.4210 C   0  0  0  0  0  0  0  0  0  0  0  0
   -6.0020   24.6230  -31.2500 C   0  0  0  0  0  0  0  0  0  0  0  0
   -4.5320   24.7090  -31.2170 N   0  0  0  0  0  0  0  0  0  0  0  0
   -4.0090   24.5710  -29.8510 C   0  0  0  0  0  0  0  0  0  0  0  0
   -3.8820   23.0890  -29.4950 C   0  0  0  0  0  0  0  0  0  0  0  0
   -3.0520   22.3690  -30.5240 C   0  0  0  0  0  0  0  0  0  0  0  0
   -1.6760   22.1790  -30.3130 C   0  0  0  0  0  0  0  0  0  0  0  0
   -0.8950   21.5500  -31.2880 C   0  0  0  0  0  0  0  0  0  0  0  0
   -1.4800   21.1150  -32.4800 C   0  0  0  0  0  0  0  0  0  0  0  0
   -2.8460   21.3130  -32.7030 C   0  0  0  0  0  0  0  0  0  0  0  0
   -3.6300   21.9430  -31.7310 C   0  0  0  0  0  0  0  0  0  0  0  0
   -8.4700   22.6540  -31.2180 C   0  0  0  0  0  0  0  0  0  0  0  0
   -9.0240   21.4280  -31.0940 N   0  0  0  0  0  0  0  0  0  0  0  0
   -8.2170   20.5860  -31.7620 C   0  0  0  0  0  0  0  0  0  0  0  0
   -8.4010   19.2180  -31.9600 C   0  0  0  0  0  0  0  0  0  0  0  0
   -5.6151   18.6751  -33.9045 H   0  0  0  0  0  0  0  0  0  0  0  0
   -5.3472   21.1530  -33.5217 H   0  0  0  0  0  0  0  0  0  0  0  0
   -5.5769   23.3620  -32.9477 H   0  0  0  0  0  0  0  0  0  0  0  0
   -7.0834   24.3649  -33.0859 H   0  0  0  0  0  0  0  0  0  0  0  0
   -6.4211   25.6332  -31.3675 H   0  0  0  0  0  0  0  0  0  0  0  0
   -6.3531   24.1736  -30.3094 H   0  0  0  0  0  0  0  0  0  0  0  0
   -4.2430   25.6490  -31.5770 H   0  0  0  0  0  0  0  0  0  0  0  0
   -3.0199   25.0482  -29.7882 H   0  0  0  0  0  0  0  0  0  0  0  0
   -4.6991   25.0572  -29.1458 H   0  0  0  0  0  0  0  0  0  0  0  0
   -3.4011   22.9931  -28.5104 H   0  0  0  0  0  0  0  0  0  0  0  0
   -4.8865   22.6414  -29.4715 H   0  0  0  0  0  0  0  0  0  0  0  0
   -1.2115   22.5260  -29.3782 H   0  0  0  0  0  0  0  0  0  0  0  0
    0.1808   21.3976  -31.1162 H   0  0  0  0  0  0  0  0  0  0  0  0
   -0.8652   20.6163  -33.2438 H   0  0  0  0  0  0  0  0  0  0  0  0
   -3.3044   20.9731  -33.6434 H   0  0  0  0  0  0  0  0  0  0  0  0
   -4.7027   22.1053  -31.9125 H   0  0  0  0  0  0  0  0  0  0  0  0
   -8.8895   23.5778  -30.7930 H   0  0  0  0  0  0  0  0  0  0  0  0
   -9.9180   21.1920  -30.6070 H   0  0  0  0  0  0  0  0  0  0  0  0
   -9.2624   18.6921  -31.5225 H   0  0  0  0  0  0  0  0  0  0  0  0
  1  2  1  0
  2  3  2  0
  3  4  1  0
  4  5  2  0
  5  6  1  0
  6  7  1  0
  7  8  1  0
  8  9  1  0
  9 10  1  0
 10 11  1  0
 11 12  1  0
 12 13  2  0
 13 14  1  0
 14 15  2  0
 15 16  1  0
 16 17  2  0
  6 18  2  0
 18 19  1  0
 19 20  1  0
 20 21  2  0
 21  2  1  0
 20  5  1  0
 17 12  1  0
  3 22  1  0
  4 23  1  0
  7 24  1  0
  7 25  1  0
  8 26  1  0
  8 27  1  0
  9 28  1  0
 10 29  1  0
 10 30  1  0
 11 31  1  0
 11 32  1  0
 13 33  1  0
 14 34  1  0
 15 35  1  0
 16 36  1  0
 17 37  1  0
 18 38  1  0
 19 39  1  0
 21 40  1  0
M  END
>  <UniqueID>  (34) 
31

>  <SMILES>  (34) 
Fc1ccc2c(CCNCCc3ccccc3)c[nH]c2c1

>  <Energy>  (34) 
67.56711660342786

>  <Genealogy>  (34) 
Fc1ccc2c(CCNCCc3ccccc3)c[nH]c2c1 (3D coordinates assigned)
Fc1ccc2c(CCNCCc3ccccc3)c[nH]c2c1 (optimized conformer: 67.56711660342786 kcal/mol)

>  <smiles>  (34) 
Fc1ccc2c(CCNCCc3ccccc3)c[nH]c2c1

>  <score_type>  (34) 
oracle

>  <origin>  (34) 
adg

>  <m_score__min__energy>  (34) 
-7.6500000000000004

>  <m_primary>  (34) 
energy

$$$$
34:0
     RDKit          3D

 28 30  0  0  0  0  0  0  0  0999 V2000
   -9.2960   19.3050  -32.7070 Br  0  0  0  0  0  0  0  0  0  0  0  0
   -8.0270   20.5660  -32.0420 C   0  0  0  0  0  0  0  0  0  0  0  0
   -8.4380   21.5870  -31.1800 C   0  0  0  0  0  0  0  0  0  0  0  0
   -7.5120   22.5120  -30.6920 C   0  0  0  0  0  0  0  0  0  0  0  0
   -6.1550   22.4250  -31.0610 C   0  0  0  0  0  0  0  0  0  0  0  0
   -5.1560   23.3960  -30.5530 C   0  0  0  0  0  0  0  0  0  0  0  0
   -4.4580   23.3500  -29.3610 C   0  0  0  0  0  0  0  0  0  0  0  0
   -3.6660   24.4410  -29.3380 N   0  0  0  0  0  0  0  0  0  0  0  0
   -2.7390   24.8470  -28.3100 C   0  0  0  0  0  0  0  0  0  0  0  0
   -3.1580   24.8980  -26.9670 C   0  0  0  0  0  0  0  0  0  0  0  0
   -2.2710   25.2880  -25.9590 C   0  0  0  0  0  0  0  0  0  0  0  0
   -0.9550   25.6310  -26.2760 C   0  0  0  0  0  0  0  0  0  0  0  0
    0.2540   26.1630  -24.8970 Br  0  0  0  0  0  0  0  0  0  0  0  0
   -0.5240   25.5810  -27.6040 C   0  0  0  0  0  0  0  0  0  0  0  0
   -1.4070   25.1920  -28.6160 C   0  0  0  0  0  0  0  0  0  0  0  0
   -3.8700   25.1150  -30.4600 N   0  0  0  0  0  0  0  0  0  0  0  0
   -4.7700   24.5050  -31.2170 N   0  0  0  0  0  0  0  0  0  0  0  0
   -5.7530   21.3930  -31.9280 C   0  0  0  0  0  0  0  0  0  0  0  0
   -6.6840   20.4710  -32.4150 C   0  0  0  0  0  0  0  0  0  0  0  0
   -9.4950   21.6623  -30.8848 H   0  0  0  0  0  0  0  0  0  0  0  0
   -7.8443   23.3132  -30.0155 H   0  0  0  0  0  0  0  0  0  0  0  0
   -4.5337   22.5754  -28.5837 H   0  0  0  0  0  0  0  0  0  0  0  0
   -4.1926   24.6286  -26.7083 H   0  0  0  0  0  0  0  0  0  0  0  0
   -2.6107   25.3247  -24.9134 H   0  0  0  0  0  0  0  0  0  0  0  0
    0.5132   25.8485  -27.8543 H   0  0  0  0  0  0  0  0  0  0  0  0
   -1.0595   25.1549  -29.6590 H   0  0  0  0  0  0  0  0  0  0  0  0
   -4.6971   21.3108  -32.2253 H   0  0  0  0  0  0  0  0  0  0  0  0
   -6.3584   19.6688  -33.0935 H   0  0  0  0  0  0  0  0  0  0  0  0
  1  2  1  0
  2  3  2  0
  3  4  1  0
  4  5  2  0
  5  6  1  0
  6  7  2  0
  7  8  1  0
  8  9  1  0
  9 10  2  0
 10 11  1  0
 11 12  2  0
 12 13  1  0
 12 14  1  0
 14 15  2  0
  8 16  1  0
 16 17  2  0
  5 18  1  0
 18 19  2  0
 19  2  1  0
 17  6  1  0
 15  9  1  0
  3 20  1  0
  4 21  1  0
  7 22  1  0
 10 23  1  0
 11 24  1  0
 14 25  1  0
 15 26  1  0
 18 27  1  0
 19 28  1  0
M  END
>  <UniqueID>  (35) 
32

>  <SMILES>  (35) 
Brc1ccc(-c2cn(-c3ccc(Br)cc3)nn2)cc1

>  <Energy>  (35) 
69.25534045944838

>  <Genealogy>  (35) 
Brc1ccc(-c2cn(-c3ccc(Br)cc3)nn2)cc1 (3D coordinates assigned)
Brc1ccc(-c2cn(-c3ccc(Br)cc3)nn2)cc1 (optimized conformer: 69.25534045944838 kcal/mol)

>  <smiles>  (35) 
Brc1ccc(-c2cn(-c3ccc(Br)cc3)nn2)cc1

>  <score_type>  (35) 
oracle

>  <origin>  (35) 
adg

>  <m_score__min__energy>  (35) 
-8.75

>  <m_primary>  (35) 
energy

$$$$
35:0
     RDKit          3D

 49 51  0  0  0  0  0  0  0  0999 V2000
   -0.7400   25.1870  -28.2210 C   0  0  0  0  0  0  0  0  0  0  0  0
   -2.0670   24.5000  -28.2870 C   0  0  0  0  0  0  0  0  0  0  0  0
   -2.3770   23.4600  -27.4050 C   0  0  0  0  0  0  0  0  0  0  0  0
   -3.5870   22.8500  -27.4920 N   0  0  0  0  0  0  0  0  0  0  0  0
   -4.5090   23.2370  -28.4120 C   0  0  0  0  0  0  0  0  0  0  0  0
   -4.2140   24.2940  -29.2880 C   0  0  0  0  0  0  0  0  0  0  0  0
   -5.1530   24.7250  -30.2930 N   0  0  0  0  0  0  0  0  0  0  0  0
   -5.7510   26.0570  -30.1410 C   0  0  0  0  0  0  0  0  0  0  0  0
   -5.4770   23.8620  -31.4490 C   0  0  0  0  0  0  0  0  0  0  0  0
   -6.9240   23.3150  -31.3630 C   0  0  0  0  0  0  0  0  0  0  0  0
   -6.9730   21.7980  -31.1090 C   0  0  0  0  0  0  0  0  0  0  0  0
   -6.1810   21.0120  -32.0930 N   0  0  0  0  0  0  0  0  0  0  0  0
   -7.0110   20.4940  -33.1980 C   0  0  0  0  0  0  0  0  0  0  0  0
   -6.6540   19.0560  -33.5090 C   0  0  0  0  0  0  0  0  0  0  0  0
   -5.7380   18.7900  -34.5430 C   0  0  0  0  0  0  0  0  0  0  0  0
   -5.3950   17.4770  -34.8700 C   0  0  0  0  0  0  0  0  0  0  0  0
   -5.9610   16.4130  -34.1700 C   0  0  0  0  0  0  0  0  0  0  0  0
   -6.8700   16.6560  -33.1400 C   0  0  0  0  0  0  0  0  0  0  0  0
   -7.2220   17.9720  -32.7910 C   0  0  0  0  0  0  0  0  0  0  0  0
   -8.2190   18.1930  -31.6830 C   0  0  0  0  0  0  0  0  0  0  0  0
   -4.9720   21.7010  -32.6110 C   0  0  0  0  0  0  0  0  0  0  0  0
   -4.4320   22.7450  -31.6300 C   0  0  0  0  0  0  0  0  0  0  0  0
   -2.9910   24.8890  -29.2060 N   0  0  0  0  0  0  0  0  0  0  0  0
   -0.4553   25.3344  -27.1687 H   0  0  0  0  0  0  0  0  0  0  0  0
    0.0185   24.5683  -28.7229 H   0  0  0  0  0  0  0  0  0  0  0  0
   -0.8073   26.1635  -28.7229 H   0  0  0  0  0  0  0  0  0  0  0  0
   -1.6470   23.1389  -26.6474 H   0  0  0  0  0  0  0  0  0  0  0  0
   -5.4809   22.7252  -28.4702 H   0  0  0  0  0  0  0  0  0  0  0  0
   -5.8564   26.2917  -29.0715 H   0  0  0  0  0  0  0  0  0  0  0  0
   -5.1030   26.8065  -30.6188 H   0  0  0  0  0  0  0  0  0  0  0  0
   -6.7417   26.0708  -30.6188 H   0  0  0  0  0  0  0  0  0  0  0  0
   -5.4312   24.4844  -32.3549 H   0  0  0  0  0  0  0  0  0  0  0  0
   -7.4449   23.8263  -30.5400 H   0  0  0  0  0  0  0  0  0  0  0  0
   -7.4083   23.5047  -32.3322 H   0  0  0  0  0  0  0  0  0  0  0  0
   -6.5761   21.5993  -30.1025 H   0  0  0  0  0  0  0  0  0  0  0  0
   -8.0224   21.4840  -31.2094 H   0  0  0  0  0  0  0  0  0  0  0  0
   -8.0710   20.5482  -32.9091 H   0  0  0  0  0  0  0  0  0  0  0  0
   -6.8271   21.1050  -34.0940 H   0  0  0  0  0  0  0  0  0  0  0  0
   -5.2875   19.6251  -35.0995 H   0  0  0  0  0  0  0  0  0  0  0  0
   -4.6775   17.2820  -35.6807 H   0  0  0  0  0  0  0  0  0  0  0  0
   -5.6903   15.3791  -34.4303 H   0  0  0  0  0  0  0  0  0  0  0  0
   -7.3156   15.8103  -32.5957 H   0  0  0  0  0  0  0  0  0  0  0  0
   -7.7171   18.0817  -30.7105 H   0  0  0  0  0  0  0  0  0  0  0  0
   -8.6395   19.2062  -31.7648 H   0  0  0  0  0  0  0  0  0  0  0  0
   -9.0282   17.4524  -31.7648 H   0  0  0  0  0  0  0  0  0  0  0  0
   -4.1891   20.9506  -32.7952 H   0  0  0  0  0  0  0  0  0  0  0  0
   -5.2538   22.2238  -33.5369 H   0  0  0  0  0  0  0  0  0  0  0  0
   -4.2320   22.2681  -30.6591 H   0  0  0  0  0  0  0  0  0  0  0  0
   -3.4990   23.1737  -32.0247 H   0  0  0  0  0  0  0  0  0  0  0  0
  1  2  1  0
  2  3  2  0
  3  4  1  0
  4  5  2  0
  5  6  1  0
  6  7  1  0
  7  8  1  0
  7  9  1  0
  9 10  1  0
 10 11  1  0
 11 12  1  0
 12 13  1  0
 13 14  1  0
 14 15  2  0
 15 16  1  0
 16 17  2  0
 17 18  1  0
 18 19  2  0
 19 20  1  0
 12 21  1  0
 21 22  1  0
  6 23  2  0
 23  2  1  0
 22  9  1  0
 19 14  1  0
  1 24  1  0
  1 25  1  0
  1 26  1  0
  3 27  1  0
  5 28  1  0
  8 29  1  0
  8 30  1  0
  8 31  1  0
  9 32  1  0
 10 33  1  0
 10 34  1  0
 11 35  1  0
 11 36  1  0
 13 37  1  0
 13 38  1  0
 15 39  1  0
 16 40  1  0
 17 41  1  0
 18 42  1  0
 20 43  1  0
 20 44  1  0
 20 45  1  0
 21 46  1  0
 21 47  1  0
 22 48  1  0
 22 49  1  0
M  END
>  <UniqueID>  (36) 
33

>  <SMILES>  (36) 
Cc1cncc(N(C)C2CCN(Cc3ccccc3C)CC2)n1

>  <Energy>  (36) 
63.10343331666188

>  <Genealogy>  (36) 
Cc1cncc(N(C)C2CCN(Cc3ccccc3C)CC2)n1 (3D coordinates assigned)
Cc1cncc(N(C)C2CCN(Cc3ccccc3C)CC2)n1 (nonaromatic ring conformer: 63.10343331666188 kcal/mol)

>  <smiles>  (36) 
Cc1cncc(N(C)C2CCN(Cc3ccccc3C)CC2)n1

>  <score_type>  (36) 
oracle

>  <origin>  (36) 
adg

>  <m_score__min__energy>  (36) 
-8.2200000000000006

>  <m_primary>  (36) 
energy

$$$$
36:0
     RDKit          3D

 43 44  0  0  0  0  0  0  0  0999 V2000
   -3.9600   24.1770  -29.4990 C   0  0  0  0  0  0  0  0  0  0  0  0
   -4.6020   24.5980  -30.7550 N   0  0  0  0  0  0  0  0  0  0  0  0
   -5.6900   25.5540  -30.4930 C   0  0  0  0  0  0  0  0  0  0  0  0
   -5.0400   23.4510  -31.5790 C   0  0  0  0  0  0  0  0  0  0  0  0
   -6.4040   22.9300  -31.2090 C   0  0  0  0  0  0  0  0  0  0  0  0
   -7.3170   22.3190  -32.0430 C   0  0  0  0  0  0  0  0  0  0  0  0
   -8.3490   21.9440  -31.2620 N   0  0  0  0  0  0  0  0  0  0  0  0
   -9.5090   21.1560  -31.6660 C   0  0  0  0  0  0  0  0  0  0  0  0
   -9.0850   20.0000  -32.5790 C   0  0  0  0  0  0  0  0  0  0  0  0
   -8.7270   18.7380  -31.7770 C   0  0  0  0  0  0  0  0  0  0  0  0
   -7.6210   17.9170  -32.4520 C   0  0  0  0  0  0  0  0  0  0  0  0
   -6.4090   18.7160  -32.6540 N   0  0  0  0  0  0  0  0  0  0  0  0
   -5.6550   19.3570  -31.5890 C   0  0  0  0  0  0  0  0  0  0  0  0
   -4.4810   20.0810  -32.2770 C   0  0  0  0  0  0  0  0  0  0  0  0
   -4.4600   19.6220  -33.7440 C   0  0  0  0  0  0  0  0  0  0  0  0
   -5.7120   18.8530  -33.8760 C   0  0  0  0  0  0  0  0  0  0  0  0
   -6.1110   18.3480  -34.9600 O   0  0  0  0  0  0  0  0  0  0  0  0
   -8.0850   22.2940  -30.0130 N   0  0  0  0  0  0  0  0  0  0  0  0
   -6.9100   22.9020  -29.9620 N   0  0  0  0  0  0  0  0  0  0  0  0
   -4.5401   24.5574  -28.6453 H   0  0  0  0  0  0  0  0  0  0  0  0
   -3.9226   23.0785  -29.4566 H   0  0  0  0  0  0  0  0  0  0  0  0
   -2.9376   24.5806  -29.4566 H   0  0  0  0  0  0  0  0  0  0  0  0
   -5.8224   25.6703  -29.4072 H   0  0  0  0  0  0  0  0  0  0  0  0
   -5.4375   26.5278  -30.9380 H   0  0  0  0  0  0  0  0  0  0  0  0
   -6.6232   25.1784  -30.9380 H   0  0  0  0  0  0  0  0  0  0  0  0
   -5.0624   23.7676  -32.6322 H   0  0  0  0  0  0  0  0  0  0  0  0
   -4.3238   22.6348  -31.4032 H   0  0  0  0  0  0  0  0  0  0  0  0
   -7.2217   22.1681  -33.1284 H   0  0  0  0  0  0  0  0  0  0  0  0
   -9.9986   20.7477  -30.7696 H   0  0  0  0  0  0  0  0  0  0  0  0
  -10.2046   21.8060  -32.2170 H   0  0  0  0  0  0  0  0  0  0  0  0
   -9.9141   19.7639  -33.2623 H   0  0  0  0  0  0  0  0  0  0  0  0
   -8.1902   20.3156  -33.1356 H   0  0  0  0  0  0  0  0  0  0  0  0
   -8.3838   19.0396  -30.7764 H   0  0  0  0  0  0  0  0  0  0  0  0
   -9.6271   18.1084  -31.7185 H   0  0  0  0  0  0  0  0  0  0  0  0
   -7.3781   17.0529  -31.8161 H   0  0  0  0  0  0  0  0  0  0  0  0
   -7.9862   17.5875  -33.4359 H   0  0  0  0  0  0  0  0  0  0  0  0
   -6.2885   20.0793  -31.0533 H   0  0  0  0  0  0  0  0  0  0  0  0
   -5.2993   18.6244  -30.8495 H   0  0  0  0  0  0  0  0  0  0  0  0
   -4.6274   21.1700  -32.2250 H   0  0  0  0  0  0  0  0  0  0  0  0
   -3.5295   19.8416  -31.7796 H   0  0  0  0  0  0  0  0  0  0  0  0
   -4.4532   20.4844  -34.4268 H   0  0  0  0  0  0  0  0  0  0  0  0
   -3.5651   19.0353  -33.9991 H   0  0  0  0  0  0  0  0  0  0  0  0
   -6.4630   23.2630  -29.0900 H   0  0  0  0  0  0  0  0  0  0  0  0
  1  2  1  0
  2  3  1  0
  2  4  1  0
  4  5  1  0
  5  6  2  0
  6  7  1  0
  7  8  1  0
  8  9  1  0
  9 10  1  0
 10 11  1  0
 11 12  1  0
 12 13  1  0
 13 14  1  0
 14 15  1  0
 15 16  1  0
 16 17  2  0
  7 18  1  0
 18 19  2  0
 19  5  1  0
 16 12  1  0
  1 20  1  0
  1 21  1  0
  1 22  1  0
  3 23  1  0
  3 24  1  0
  3 25  1  0
  4 26  1  0
  4 27  1  0
  6 28  1  0
  8 29  1  0
  8 30  1  0
  9 31  1  0
  9 32  1  0
 10 33  1  0
 10 34  1  0
 11 35  1  0
 11 36  1  0
 13 37  1  0
 13 38  1  0
 14 39  1  0
 14 40  1  0
 15 41  1  0
 15 42  1  0
 19 43  1  0
M  CHG  1  19   1
M  END
>  <UniqueID>  (37) 
34

>  <SMILES>  (37) 
CN(C)Cc1cn(CCCCN2CCCC2=O)n[nH+]1

>  <Energy>  (37) 
73.99561616883622

>  <Genealogy>  (37) 
CN(C)Cc1cn(CCCCN2CCCC2=O)n[nH+]1 (protonated)
CN(C)Cc1cn(CCCCN2CCCC2=O)n[nH+]1 (3D coordinates assigned)
CN(C)Cc1cn(CCCCN2CCCC2=O)n[nH+]1 (nonaromatic ring conformer: 73.99561616883622 kcal/mol)

>  <smiles>  (37) 
CN(C)Cc1cn(CCCCN2CCCC2=O)nn1

>  <score_type>  (37) 
oracle

>  <origin>  (37) 
adg

>  <m_score__min__energy>  (37) 
-6.7999999999999998

>  <m_primary>  (37) 
energy

$$$$
37:0
     RDKit          3D

 44 47  0  0  0  0  0  0  0  0999 V2000
   -5.7480   18.2030  -34.8610 C   0  0  0  0  0  0  0  0  0  0  0  0
   -5.6540   19.2440  -33.8240 N   0  0  0  0  0  0  0  0  0  0  0  0
   -4.2290   19.5350  -33.5410 C   0  0  0  0  0  0  0  0  0  0  0  0
   -4.0990   20.7770  -32.7180 C   0  0  0  0  0  0  0  0  0  0  0  0
   -4.8430   21.8960  -32.9410 N   0  0  0  0  0  0  0  0  0  0  0  0
   -4.4680   22.6550  -31.8980 C   0  0  0  0  0  0  0  0  0  0  0  0
   -4.9610   23.8780  -31.5940 N   0  0  0  0  0  0  0  0  0  0  0  0
   -4.5270   24.4960  -30.4550 C   0  0  0  0  0  0  0  0  0  0  0  0
   -3.5890   23.8630  -29.6000 C   0  0  0  0  0  0  0  0  0  0  0  0
   -3.1510   24.5010  -28.3360 C   0  0  0  0  0  0  0  0  0  0  0  0
   -4.0120   24.5160  -27.2240 C   0  0  0  0  0  0  0  0  0  0  0  0
   -3.6130   25.1220  -26.0280 C   0  0  0  0  0  0  0  0  0  0  0  0
   -2.3540   25.7160  -25.9300 C   0  0  0  0  0  0  0  0  0  0  0  0
   -1.4880   25.7030  -27.0260 C   0  0  0  0  0  0  0  0  0  0  0  0
   -1.8790   25.0990  -28.2260 C   0  0  0  0  0  0  0  0  0  0  0  0
   -1.0030   25.0690  -29.2620 F   0  0  0  0  0  0  0  0  0  0  0  0
   -3.1160   22.5880  -29.9650 C   0  0  0  0  0  0  0  0  0  0  0  0
   -3.5820   22.0460  -31.1130 N   0  0  0  0  0  0  0  0  0  0  0  0
   -3.3260   20.8520  -31.6060 N   0  0  0  0  0  0  0  0  0  0  0  0
   -6.3880   18.8040  -32.6120 C   0  0  0  0  0  0  0  0  0  0  0  0
   -7.3250   19.8770  -32.1200 C   0  0  0  0  0  0  0  0  0  0  0  0
   -8.6980   19.7930  -32.3970 C   0  0  0  0  0  0  0  0  0  0  0  0
   -9.5480   20.8190  -31.9810 C   0  0  0  0  0  0  0  0  0  0  0  0
   -9.0290   21.9110  -31.2860 C   0  0  0  0  0  0  0  0  0  0  0  0
   -7.6620   21.9550  -31.0070 C   0  0  0  0  0  0  0  0  0  0  0  0
   -6.8430   20.9480  -31.4210 N   0  0  0  0  0  0  0  0  0  0  0  0
   -5.8371   17.2163  -34.3830 H   0  0  0  0  0  0  0  0  0  0  0  0
   -6.6331   18.3883  -35.4874 H   0  0  0  0  0  0  0  0  0  0  0  0
   -4.8441   18.2267  -35.4874 H   0  0  0  0  0  0  0  0  0  0  0  0
   -3.7895   18.6895  -32.9915 H   0  0  0  0  0  0  0  0  0  0  0  0
   -3.7013   19.6844  -34.4945 H   0  0  0  0  0  0  0  0  0  0  0  0
   -4.9092   25.4951  -30.1986 H   0  0  0  0  0  0  0  0  0  0  0  0
   -5.0051   24.0484  -27.2952 H   0  0  0  0  0  0  0  0  0  0  0  0
   -4.2928   25.1303  -25.1633 H   0  0  0  0  0  0  0  0  0  0  0  0
   -2.0435   26.1946  -24.9895 H   0  0  0  0  0  0  0  0  0  0  0  0
   -0.4950   26.1693  -26.9453 H   0  0  0  0  0  0  0  0  0  0  0  0
   -2.3908   22.0502  -29.3366 H   0  0  0  0  0  0  0  0  0  0  0  0
   -6.9705   17.9026  -32.8533 H   0  0  0  0  0  0  0  0  0  0  0  0
   -5.6549   18.5929  -31.8195 H   0  0  0  0  0  0  0  0  0  0  0  0
   -9.1017   18.9246  -32.9382 H   0  0  0  0  0  0  0  0  0  0  0  0
  -10.6245   20.7664  -32.2008 H   0  0  0  0  0  0  0  0  0  0  0  0
   -9.6895   22.7285  -30.9613 H   0  0  0  0  0  0  0  0  0  0  0  0
   -7.2440   22.8067  -30.4503 H   0  0  0  0  0  0  0  0  0  0  0  0
   -5.8220   21.0190  -31.2090 H   0  0  0  0  0  0  0  0  0  0  0  0
  1  2  1  0
  2  3  1  0
  3  4  1  0
  4  5  1  0
  5  6  2  0
  6  7  1  0
  7  8  2  0
  8  9  1  0
  9 10  1  0
 10 11  2  0
 11 12  1  0
 12 13  2  0
 13 14  1  0
 14 15  2  0
 15 16  1  0
  9 17  2  0
 17 18  1  0
 18 19  1  0
  2 20  1  0
 20 21  1  0
 21 22  2  0
 22 23  1  0
 23 24  2  0
 24 25  1  0
 25 26  2  0
 19  4  2  0
 26 21  1  0
 18  6  1  0
 15 10  1  0
  1 27  1  0
  1 28  1  0
  1 29  1  0
  3 30  1  0
  3 31  1  0
  8 32  1  0
 11 33  1  0
 12 34  1  0
 13 35  1  0
 14 36  1  0
 17 37  1  0
 20 38  1  0
 20 39  1  0
 22 40  1  0
 23 41  1  0
 24 42  1  0
 25 43  1  0
 26 44  1  0
M  CHG  1  26   1
M  END
>  <UniqueID>  (38) 
35

>  <SMILES>  (38) 
CN(Cc1nc2ncc(-c3ccccc3F)cn2n1)Cc1cccc[nH+]1

>  <Energy>  (38) 
91.68042435147152

>  <Genealogy>  (38) 
CN(Cc1nc2ncc(-c3ccccc3F)cn2n1)Cc1cccc[nH+]1 (protonated)
CN(Cc1nc2ncc(-c3ccccc3F)cn2n1)Cc1cccc[nH+]1 (3D coordinates assigned)
CN(Cc1nc2ncc(-c3ccccc3F)cn2n1)Cc1cccc[nH+]1 (optimized conformer: 91.68042435147152 kcal/mol)

>  <smiles>  (38) 
CN(Cc1ccccn1)Cc1nc2ncc(-c3ccccc3F)cn2n1

>  <score_type>  (38) 
oracle

>  <origin>  (38) 
adg

>  <m_score__min__energy>  (38) 
-8.25

>  <m_primary>  (38) 
energy

$$$$
38:0
     RDKit          3D

 43 46  0  0  0  0  0  0  0  0999 V2000
   -0.8560   27.2360  -27.8490 C   0  0  0  0  0  0  0  0  0  0  0  0
   -1.1170   25.7800  -28.0570 C   0  0  0  0  0  0  0  0  0  0  0  0
   -1.9830   25.3130  -28.9370 O   0  0  0  0  0  0  0  0  0  0  0  0
   -1.9540   24.0010  -28.8730 C   0  0  0  0  0  0  0  0  0  0  0  0
   -1.0480   23.5910  -27.9270 C   0  0  0  0  0  0  0  0  0  0  0  0
   -0.8040   22.2420  -27.6730 C   0  0  0  0  0  0  0  0  0  0  0  0
   -1.5270   21.2920  -28.4130 C   0  0  0  0  0  0  0  0  0  0  0  0
   -2.4710   21.7020  -29.3860 C   0  0  0  0  0  0  0  0  0  0  0  0
   -3.1880   20.7570  -30.1210 C   0  0  0  0  0  0  0  0  0  0  0  0
   -4.1100   21.1800  -31.0790 C   0  0  0  0  0  0  0  0  0  0  0  0
   -4.3230   22.5120  -31.3160 N   0  0  0  0  0  0  0  0  0  0  0  0
   -5.2990   22.9100  -32.3460 C   0  0  0  0  0  0  0  0  0  0  0  0
   -6.6280   22.1990  -32.1490 C   0  0  0  0  0  0  0  0  0  0  0  0
   -7.6530   22.8900  -31.4720 C   0  0  0  0  0  0  0  0  0  0  0  0
   -8.8930   22.2970  -31.2530 C   0  0  0  0  0  0  0  0  0  0  0  0
   -9.1430   21.0090  -31.7170 C   0  0  0  0  0  0  0  0  0  0  0  0
   -8.1580   20.3160  -32.4190 C   0  0  0  0  0  0  0  0  0  0  0  0
   -6.8960   20.8980  -32.6670 C   0  0  0  0  0  0  0  0  0  0  0  0
   -5.8660   20.1220  -33.4690 C   0  0  0  0  0  0  0  0  0  0  0  0
   -4.7990   20.9200  -33.8450 F   0  0  0  0  0  0  0  0  0  0  0  0
   -6.4500   19.6190  -34.6170 F   0  0  0  0  0  0  0  0  0  0  0  0
   -5.3650   19.0810  -32.7080 F   0  0  0  0  0  0  0  0  0  0  0  0
   -3.6350   23.4670  -30.6060 C   0  0  0  0  0  0  0  0  0  0  0  0
   -3.8420   24.6930  -30.8300 O   0  0  0  0  0  0  0  0  0  0  0  0
   -2.6960   23.0820  -29.6300 C   0  0  0  0  0  0  0  0  0  0  0  0
   -0.5050   24.7320  -27.3760 C   0  0  0  0  0  0  0  0  0  0  0  0
    0.5900   24.8170  -26.3580 C   0  0  0  0  0  0  0  0  0  0  0  0
   -0.8174   27.4513  -26.7710 H   0  0  0  0  0  0  0  0  0  0  0  0
    0.1049   27.5060  -28.3114 H   0  0  0  0  0  0  0  0  0  0  0  0
   -1.6632   27.8229  -28.3114 H   0  0  0  0  0  0  0  0  0  0  0  0
   -0.0682   21.9314  -26.9166 H   0  0  0  0  0  0  0  0  0  0  0  0
   -1.3585   20.2196  -28.2352 H   0  0  0  0  0  0  0  0  0  0  0  0
   -3.0270   19.6830  -29.9458 H   0  0  0  0  0  0  0  0  0  0  0  0
   -4.6752   20.4313  -31.6534 H   0  0  0  0  0  0  0  0  0  0  0  0
   -5.4610   23.9963  -32.2859 H   0  0  0  0  0  0  0  0  0  0  0  0
   -4.8980   22.6313  -33.3316 H   0  0  0  0  0  0  0  0  0  0  0  0
   -7.4703   23.9130  -31.1114 H   0  0  0  0  0  0  0  0  0  0  0  0
   -9.6769   22.8474  -30.7121 H   0  0  0  0  0  0  0  0  0  0  0  0
  -10.1189   20.5373  -31.5296 H   0  0  0  0  0  0  0  0  0  0  0  0
   -8.3673   19.3001  -32.7853 H   0  0  0  0  0  0  0  0  0  0  0  0
    0.1552   24.7832  -25.3481 H   0  0  0  0  0  0  0  0  0  0  0  0
    1.2791   23.9696  -26.4890 H   0  0  0  0  0  0  0  0  0  0  0  0
    1.1400   25.7605  -26.4890 H   0  0  0  0  0  0  0  0  0  0  0  0
  1  2  1  0
  2  3  1  0
  3  4  1  0
  4  5  2  0
  5  6  1  0
  6  7  2  0
  7  8  1  0
  8  9  1  0
  9 10  2  0
 10 11  1  0
 11 12  1  0
 12 13  1  0
 13 14  2  0
 14 15  1  0
 15 16  2  0
 16 17  1  0
 17 18  2  0
 18 19  1  0
 19 20  1  0
 19 21  1  0
 19 22  1  0
 11 23  1  0
 23 24  2  0
 23 25  1  0
  5 26  1  0
 26 27  1  0
 26  2  2  0
 25  4  1  0
 25  8  2  0
 18 13  1  0
  1 28  1  0
  1 29  1  0
  1 30  1  0
  6 31  1  0
  7 32  1  0
  9 33  1  0
 10 34  1  0
 12 35  1  0
 12 36  1  0
 14 37  1  0
 15 38  1  0
 16 39  1  0
 17 40  1  0
 27 41  1  0
 27 42  1  0
 27 43  1  0
M  END
>  <UniqueID>  (39) 
36

>  <SMILES>  (39) 
Cc1oc2c(ccc3ccn(Cc4ccccc4C(F)(F)F)c(=O)c32)c1C

>  <Energy>  (39) 
90.19040600771048

>  <Genealogy>  (39) 
Cc1oc2c(ccc3ccn(Cc4ccccc4C(F)(F)F)c(=O)c32)c1C (3D coordinates assigned)
Cc1oc2c(ccc3ccn(Cc4ccccc4C(F)(F)F)c(=O)c32)c1C (optimized conformer: 90.19040600771048 kcal/mol)

>  <smiles>  (39) 
Cc1oc2c(ccc3ccn(Cc4ccccc4C(F)(F)F)c(=O)c32)c1C

>  <score_type>  (39) 
oracle

>  <origin>  (39) 
adg

>  <m_score__min__energy>  (39) 
-9.0600000000000005

>  <m_primary>  (39) 
energy

$$$$
39:0
     RDKit          3D

 38 40  0  0  1  0  0  0  0  0999 V2000
   -9.3210   19.7050  -32.3430 C   0  0  0  0  0  0  0  0  0  0  0  0
   -8.9550   20.7990  -32.0370 C   0  0  0  0  0  0  0  0  0  0  0  0
   -8.5400   22.1240  -31.6630 C   0  0  0  0  0  0  0  0  0  0  0  0
   -7.3780   22.2500  -30.7370 C   0  0  0  0  0  0  0  0  0  0  0  0
   -6.2410   23.1080  -31.0460 C   0  0  0  0  0  0  0  0  0  0  0  0
   -6.4260   24.4760  -30.8300 C   0  0  0  0  0  0  0  0  0  0  0  0
   -5.2960   25.2740  -30.6270 C   0  0  0  0  0  0  0  0  0  0  0  0
   -5.4780   26.4940  -30.4360 O   0  0  0  0  0  0  0  0  0  0  0  0
   -4.0710   24.8300  -30.6230 O   0  0  0  0  0  0  0  0  0  0  0  0
   -3.8500   23.5600  -30.8340 C   0  0  0  0  0  0  0  0  0  0  0  0
   -2.6110   23.0110  -30.8460 N   0  0  0  0  0  0  0  0  0  0  0  0
   -2.3800   21.7040  -31.0770 C   0  0  0  0  0  0  0  0  0  0  0  0
   -3.4210   20.8230  -31.3330 N   0  0  0  0  0  0  0  0  0  0  0  0
   -4.6240   21.4190  -31.3120 C   0  0  0  0  0  0  0  0  0  0  0  0
   -5.4810   20.9080  -32.0810 N   0  0  0  0  0  0  0  0  0  0  0  0
   -5.9180   20.5610  -33.2530 C   0  0  0  0  0  0  0  0  0  0  0  0
   -5.9870   19.0030  -33.0460 C   0  0  0  0  0  0  0  0  0  0  0  0
   -5.9720   18.4290  -31.8190 C   0  0  0  0  0  0  0  0  0  0  0  0
   -6.0790   17.0340  -31.7380 C   0  0  0  0  0  0  0  0  0  0  0  0
   -6.1920   16.3420  -32.9230 C   0  0  0  0  0  0  0  0  0  0  0  0
   -6.2050   16.9480  -34.1470 C   0  0  0  0  0  0  0  0  0  0  0  0
   -6.0980   18.3390  -34.2210 C   0  0  0  0  0  0  0  0  0  0  0  0
   -6.1090   18.9450  -35.4430 F   0  0  0  0  0  0  0  0  0  0  0  0
   -4.9150   22.7290  -31.0510 C   0  0  0  0  0  0  0  0  0  0  0  0
   -9.6583   18.6967  -32.6250 H   0  0  0  0  0  0  0  0  0  0  0  0
   -8.2831   22.6613  -32.5878 H   0  0  0  0  0  0  0  0  0  0  0  0
   -9.3911   22.5335  -31.0991 H   0  0  0  0  0  0  0  0  0  0  0  0
   -7.7835   22.6072  -29.7789 H   0  0  0  0  0  0  0  0  0  0  0  0
   -6.9322   21.2454  -30.7831 H   0  0  0  0  0  0  0  0  0  0  0  0
   -7.4350   24.9140  -30.8199 H   0  0  0  0  0  0  0  0  0  0  0  0
   -1.3463   21.3280  -31.0624 H   0  0  0  0  0  0  0  0  0  0  0  0
   -3.1880   19.8590  -31.5010 H   0  0  0  0  0  0  0  0  0  0  0  0
   -6.9072   20.9918  -33.4674 H   0  0  0  0  0  0  0  0  0  0  0  0
   -5.3045   20.8962  -34.1023 H   0  0  0  0  0  0  0  0  0  0  0  0
   -5.8783   19.0417  -30.9103 H   0  0  0  0  0  0  0  0  0  0  0  0
   -6.0730   16.5139  -30.7687 H   0  0  0  0  0  0  0  0  0  0  0  0
   -6.2760   15.2460  -32.8819 H   0  0  0  0  0  0  0  0  0  0  0  0
   -6.2986   16.3477  -35.0640 H   0  0  0  0  0  0  0  0  0  0  0  0
  1  2  3  0
  2  3  1  0
  3  4  1  0
  4  5  1  0
  5  6  2  0
  6  7  1  0
  7  8  2  0
  7  9  1  0
  9 10  1  0
 10 11  1  0
 11 12  2  0
 12 13  1  0
 13 14  1  0
 14 15  2  0
 15 16  1  0
 16 17  1  0
 17 18  2  0
 18 19  1  0
 19 20  2  0
 20 21  1  0
 21 22  2  0
 22 23  1  0
 14 24  1  0
 24  5  1  0
 24 10  2  0
 22 17  1  0
  1 25  1  0
  3 26  1  0
  3 27  1  0
  4 28  1  0
  4 29  1  0
  6 30  1  0
 12 31  1  0
 13 32  1  0
 16 33  1  0
 16 34  1  0
 18 35  1  0
 19 36  1  0
 20 37  1  0
 21 38  1  0
M  END
>  <smiles>  (40) 
C#CCCc1cc(=O)oc2nc[nH]c(=NCc3ccccc3F)c12

>  <score_type>  (40) 
oracle

>  <origin>  (40) 
adg

>  <m_score__min__energy>  (40) 
-8.2400000000000002

>  <m_primary>  (40) 
energy

$$$$
40:0
     RDKit          3D

 43 45  0  0  0  0  0  0  0  0999 V2000
   -4.1840   22.5800  -27.7790 C   0  0  0  0  0  0  0  0  0  0  0  0
   -2.6770   22.5440  -27.5130 C   0  0  0  0  0  0  0  0  0  0  0  0
   -1.9990   21.4230  -28.2120 N   0  0  0  0  0  0  0  0  0  0  0  0
   -1.4520   20.4020  -27.2680 C   0  0  0  0  0  0  0  0  0  0  0  0
   -2.5210   19.4040  -26.8080 C   0  0  0  0  0  0  0  0  0  0  0  0
   -0.9580   21.9210  -29.1500 C   0  0  0  0  0  0  0  0  0  0  0  0
   -1.4250   23.0540  -30.0970 C   0  0  0  0  0  0  0  0  0  0  0  0
   -2.7170   22.7490  -30.7120 N   0  0  0  0  0  0  0  0  0  0  0  0
   -3.8560   23.6140  -30.7870 C   0  0  0  0  0  0  0  0  0  0  0  0
   -3.8310   24.8460  -30.5260 O   0  0  0  0  0  0  0  0  0  0  0  0
   -5.0430   22.8510  -31.1510 C   0  0  0  0  0  0  0  0  0  0  0  0
   -6.3580   23.2630  -31.3530 C   0  0  0  0  0  0  0  0  0  0  0  0
   -7.3180   22.2850  -31.6850 C   0  0  0  0  0  0  0  0  0  0  0  0
   -8.6560   22.6460  -31.9020 C   0  0  0  0  0  0  0  0  0  0  0  0
   -9.6030   21.6730  -32.2300 C   0  0  0  0  0  0  0  0  0  0  0  0
   -9.2270   20.3320  -32.3440 C   0  0  0  0  0  0  0  0  0  0  0  0
   -7.8990   19.9500  -32.1310 C   0  0  0  0  0  0  0  0  0  0  0  0
   -6.9330   20.9130  -31.8020 C   0  0  0  0  0  0  0  0  0  0  0  0
   -5.5920   20.5340  -31.5840 C   0  0  0  0  0  0  0  0  0  0  0  0
   -4.6720   21.5290  -31.2630 C   0  0  0  0  0  0  0  0  0  0  0  0
   -3.2460   21.4450  -30.9710 C   0  0  0  0  0  0  0  0  0  0  0  0
   -2.5700   20.3830  -30.9280 O   0  0  0  0  0  0  0  0  0  0  0  0
   -4.7251   22.5929  -26.8214 H   0  0  0  0  0  0  0  0  0  0  0  0
   -4.4335   23.4844  -28.3534 H   0  0  0  0  0  0  0  0  0  0  0  0
   -4.4764   21.6886  -28.3534 H   0  0  0  0  0  0  0  0  0  0  0  0
   -2.2361   23.4913  -27.8568 H   0  0  0  0  0  0  0  0  0  0  0  0
   -2.5335   22.3974  -26.4323 H   0  0  0  0  0  0  0  0  0  0  0  0
   -2.7160   20.9700  -28.8310 H   0  0  0  0  0  0  0  0  0  0  0  0
   -0.6458   19.8494  -27.7727 H   0  0  0  0  0  0  0  0  0  0  0  0
   -1.0800   20.9311  -26.3782 H   0  0  0  0  0  0  0  0  0  0  0  0
   -2.5492   19.3777  -25.7087 H   0  0  0  0  0  0  0  0  0  0  0  0
   -3.5033   19.7156  -27.1926 H   0  0  0  0  0  0  0  0  0  0  0  0
   -2.2775   18.4026  -27.1926 H   0  0  0  0  0  0  0  0  0  0  0  0
   -0.1137   22.2989  -28.5548 H   0  0  0  0  0  0  0  0  0  0  0  0
   -0.6892   21.0706  -29.7938 H   0  0  0  0  0  0  0  0  0  0  0  0
   -1.5164   23.9858  -29.5196 H   0  0  0  0  0  0  0  0  0  0  0  0
   -0.6800   23.1582  -30.8996 H   0  0  0  0  0  0  0  0  0  0  0  0
   -6.6398   24.3219  -31.2562 H   0  0  0  0  0  0  0  0  0  0  0  0
   -8.9606   23.6993  -31.8135 H   0  0  0  0  0  0  0  0  0  0  0  0
  -10.6502   21.9639  -32.3994 H   0  0  0  0  0  0  0  0  0  0  0  0
   -9.9798   19.5729  -32.6027 H   0  0  0  0  0  0  0  0  0  0  0  0
   -7.6109   18.8923  -32.2215 H   0  0  0  0  0  0  0  0  0  0  0  0
   -5.2815   19.4819  -31.6653 H   0  0  0  0  0  0  0  0  0  0  0  0
  1  2  1  0
  2  3  1  0
  3  4  1  0
  4  5  1  0
  3  6  1  0
  6  7  1  0
  7  8  1  0
  8  9  1  0
  9 10  2  0
  9 11  1  0
 11 12  2  0
 12 13  1  0
 13 14  2  0
 14 15  1  0
 15 16  2  0
 16 17  1  0
 17 18  2  0
 18 19  1  0
 19 20  2  0
 20 21  1  0
 21 22  2  0
 21  8  1  0
 20 11  1  0
 18 13  1  0
  1 23  1  0
  1 24  1  0
  1 25  1  0
  2 26  1  0
  2 27  1  0
  3 28  1  0
  4 29  1  0
  4 30  1  0
  5 31  1  0
  5 32  1  0
  5 33  1  0
  6 34  1  0
  6 35  1  0
  7 36  1  0
  7 37  1  0
 12 38  1  0
 14 39  1  0
 15 40  1  0
 16 41  1  0
 17 42  1  0
 19 43  1  0
M  CHG  1   3   1
M  END
>  <UniqueID>  (41) 
37

>  <SMILES>  (41) 
CC[NH+](CC)CCN1C(=O)c2cc3ccccc3cc2C1=O

>  <Energy>  (41) 
82.89055348932864

>  <Genealogy>  (41) 
CC[NH+](CC)CCN1C(=O)c2cc3ccccc3cc2C1=O (protonated)
CC[NH+](CC)CCN1C(=O)c2cc3ccccc3cc2C1=O (3D coordinates assigned)
CC[NH+](CC)CCN1C(=O)c2cc3ccccc3cc2C1=O (nonaromatic ring conformer: 82.89055348932864 kcal/mol)

>  <smiles>  (41) 
CCN(CC)CCN1C(=O)c2cc3ccccc3cc2C1=O

>  <score_type>  (41) 
oracle

>  <origin>  (41) 
adg

>  <m_score__min__energy>  (41) 
-7.0800000000000001

>  <m_primary>  (41) 
energy

$$$$
41:0
     RDKit          3D

 55 57  0  0  1  0  0  0  0  0999 V2000
   -9.3640   19.6380  -32.5900 C   0  0  0  0  0  0  0  0  0  0  0  0
   -9.4470   21.0330  -32.3330 O   0  0  0  0  0  0  0  0  0  0  0  0
   -8.3520   21.7090  -31.8180 C   0  0  0  0  0  0  0  0  0  0  0  0
   -7.3220   22.1440  -32.6400 C   0  0  0  0  0  0  0  0  0  0  0  0
   -6.2450   22.8150  -32.0970 C   0  0  0  0  0  0  0  0  0  0  0  0
   -6.1210   23.0890  -30.7510 C   0  0  0  0  0  0  0  0  0  0  0  0
   -4.7780   23.9270  -30.0670 S   0  0  0  0  0  0  0  0  0  0  0  0
   -4.5420   25.2300  -30.8040 O   0  0  0  0  0  0  0  0  0  0  0  0
   -5.1000   24.2640  -28.6290 O   0  0  0  0  0  0  0  0  0  0  0  0
   -3.2580   23.0080  -30.1010 C   0  0  0  0  0  0  0  0  0  0  0  0
   -2.1970   23.9100  -29.5260 C   0  0  0  0  0  0  0  0  0  0  0  0
   -2.4610   25.2370  -29.2090 O   0  0  0  0  0  0  0  0  0  0  0  0
   -0.9970   23.4910  -29.3000 N   0  0  0  0  0  0  0  0  0  0  0  0
    0.0190   24.3600  -28.9270 O   0  0  0  0  0  0  0  0  0  0  0  0
   -2.9070   22.7760  -31.5360 C   0  0  0  0  0  0  0  0  0  0  0  0
   -2.9730   21.3220  -31.9410 C   0  0  0  0  0  0  0  0  0  0  0  0
   -3.9940   20.6640  -31.1700 N   0  0  0  0  0  0  0  0  0  0  0  0
   -4.5160   19.5550  -31.8640 C   0  0  0  0  0  0  0  0  0  0  0  0
   -5.9870   19.2850  -31.5610 C   0  0  0  0  0  0  0  0  0  0  0  0
   -6.3170   17.9600  -32.2620 C   0  0  0  0  0  0  0  0  0  0  0  0
   -6.1210   18.0060  -33.7380 C   0  0  0  0  0  0  0  0  0  0  0  0
   -4.8290   18.6650  -34.1650 C   0  0  0  0  0  0  0  0  0  0  0  0
   -4.5260   19.8920  -33.3680 C   0  0  0  0  0  0  0  0  0  0  0  0
   -3.4850   20.4850  -29.8600 C   0  0  0  0  0  0  0  0  0  0  0  0
   -3.3360   21.8260  -29.2130 C   0  0  0  0  0  0  0  0  0  0  0  0
   -7.1740   22.6390  -29.9440 C   0  0  0  0  0  0  0  0  0  0  0  0
   -8.2530   21.9680  -30.4790 C   0  0  0  0  0  0  0  0  0  0  0  0
   -9.3314   19.0908  -31.6363 H   0  0  0  0  0  0  0  0  0  0  0  0
  -10.2447   19.3183  -33.1663 H   0  0  0  0  0  0  0  0  0  0  0  0
   -8.4516   19.4250  -33.1663 H   0  0  0  0  0  0  0  0  0  0  0  0
   -7.3638   21.9543  -33.7227 H   0  0  0  0  0  0  0  0  0  0  0  0
   -5.4439   23.1486  -32.7729 H   0  0  0  0  0  0  0  0  0  0  0  0
   -3.3720   25.5560  -28.9360 H   0  0  0  0  0  0  0  0  0  0  0  0
   -0.1100   25.3740  -28.9400 H   0  0  0  0  0  0  0  0  0  0  0  0
   -3.6088   23.3451  -32.1633 H   0  0  0  0  0  0  0  0  0  0  0  0
   -1.8665   23.1051  -31.6737 H   0  0  0  0  0  0  0  0  0  0  0  0
   -3.2151   21.2485  -33.0115 H   0  0  0  0  0  0  0  0  0  0  0  0
   -2.0011   20.8413  -31.7554 H   0  0  0  0  0  0  0  0  0  0  0  0
   -3.8947   18.6964  -31.5693 H   0  0  0  0  0  0  0  0  0  0  0  0
   -6.1453   19.1952  -30.4762 H   0  0  0  0  0  0  0  0  0  0  0  0
   -6.6318   20.1034  -31.9137 H   0  0  0  0  0  0  0  0  0  0  0  0
   -5.6665   17.1753  -31.8483 H   0  0  0  0  0  0  0  0  0  0  0  0
   -7.3826   17.7546  -32.0825 H   0  0  0  0  0  0  0  0  0  0  0  0
   -6.1263   16.9746  -34.1202 H   0  0  0  0  0  0  0  0  0  0  0  0
   -6.9403   18.6137  -34.1497 H   0  0  0  0  0  0  0  0  0  0  0  0
   -4.0061   17.9468  -34.0348 H   0  0  0  0  0  0  0  0  0  0  0  0
   -4.9376   18.9664  -35.2173 H   0  0  0  0  0  0  0  0  0  0  0  0
   -3.5399   20.2819  -33.6604 H   0  0  0  0  0  0  0  0  0  0  0  0
   -5.2996   20.6493  -33.5631 H   0  0  0  0  0  0  0  0  0  0  0  0
   -4.1814   19.8672  -29.2740 H   0  0  0  0  0  0  0  0  0  0  0  0
   -2.5083   19.9808  -29.9042 H   0  0  0  0  0  0  0  0  0  0  0  0
   -4.2010   21.9694  -28.5487 H   0  0  0  0  0  0  0  0  0  0  0  0
   -2.3583   21.7878  -28.7104 H   0  0  0  0  0  0  0  0  0  0  0  0
   -7.1392   22.8250  -28.8604 H   0  0  0  0  0  0  0  0  0  0  0  0
   -9.0578   21.6311  -29.8091 H   0  0  0  0  0  0  0  0  0  0  0  0
  1  2  1  0
  2  3  1  0
  3  4  2  0
  4  5  1  0
  5  6  2  0
  6  7  1  0
  7  8  2  0
  7  9  2  0
  7 10  1  0
 10 11  1  0
 11 12  1  0
 11 13  2  0
 13 14  1  0
 10 15  1  0
 15 16  1  0
 16 17  1  0
 17 18  1  0
 18 19  1  0
 19 20  1  0
 20 21  1  0
 21 22  1  0
 22 23  1  0
 17 24  1  0
 24 25  1  0
  6 26  1  0
 26 27  2  0
 27  3  1  0
 25 10  1  0
 23 18  1  0
  1 28  1  0
  1 29  1  0
  1 30  1  0
  4 31  1  0
  5 32  1  0
 12 33  1  0
 14 34  1  0
 15 35  1  0
 15 36  1  0
 16 37  1  0
 16 38  1  0
 18 39  1  0
 19 40  1  0
 19 41  1  0
 20 42  1  0
 20 43  1  0
 21 44  1  0
 21 45  1  0
 22 46  1  0
 22 47  1  0
 23 48  1  0
 23 49  1  0
 24 50  1  0
 24 51  1  0
 25 52  1  0
 25 53  1  0
 26 54  1  0
 27 55  1  0
M  END
>  <smiles>  (42) 
COc1ccc(S(=O)(=O)C2(C(O)=NO)CCN(C3CCCCC3)CC2)cc1

>  <score_type>  (42) 
oracle

>  <origin>  (42) 
adg

>  <m_score__min__energy>  (42) 
-10.08

>  <m_primary>  (42) 
energy

$$$$
42:0
     RDKit          3D

 54 56  0  0  0  0  0  0  0  0999 V2000
    0.5520   24.6910  -26.7550 C   0  0  0  0  0  0  0  0  0  0  0  0
    0.4430   24.6450  -28.1730 O   0  0  0  0  0  0  0  0  0  0  0  0
   -0.6940   24.2050  -28.8670 C   0  0  0  0  0  0  0  0  0  0  0  0
   -0.6810   23.0640  -29.6910 C   0  0  0  0  0  0  0  0  0  0  0  0
   -1.8410   22.6650  -30.3610 C   0  0  0  0  0  0  0  0  0  0  0  0
   -3.0340   23.3970  -30.2270 C   0  0  0  0  0  0  0  0  0  0  0  0
   -4.2680   22.9620  -30.9360 C   0  0  0  0  0  0  0  0  0  0  0  0
   -5.4820   23.2820  -30.4540 C   0  0  0  0  0  0  0  0  0  0  0  0
   -6.7520   22.9090  -31.1680 C   0  0  0  0  0  0  0  0  0  0  0  0
   -6.5990   21.6430  -31.9810 C   0  0  0  0  0  0  0  0  0  0  0  0
   -7.7110   20.8360  -32.3030 C   0  0  0  0  0  0  0  0  0  0  0  0
   -9.4880   21.2630  -31.7190 Br  0  0  0  0  0  0  0  0  0  0  0  0
   -7.5390   19.6940  -33.0920 C   0  0  0  0  0  0  0  0  0  0  0  0
   -6.2730   19.3470  -33.5880 C   0  0  0  0  0  0  0  0  0  0  0  0
   -6.1140   18.1930  -34.4390 N   0  0  0  0  0  0  0  0  0  0  0  0
   -4.7560   18.1730  -35.0070 C   0  0  0  0  0  0  0  0  0  0  0  0
   -3.9800   16.9060  -34.6060 C   0  0  0  0  0  0  0  0  0  0  0  0
   -3.9150   16.7040  -33.0840 C   0  0  0  0  0  0  0  0  0  0  0  0
   -5.1330   16.0130  -32.6040 N   0  0  0  0  0  0  0  0  0  0  0  0
   -5.7620   16.7720  -31.5110 C   0  0  0  0  0  0  0  0  0  0  0  0
   -4.8210   14.6530  -32.1330 C   0  0  0  0  0  0  0  0  0  0  0  0
   -5.1760   20.1730  -33.3020 C   0  0  0  0  0  0  0  0  0  0  0  0
   -5.3290   21.3100  -32.4950 C   0  0  0  0  0  0  0  0  0  0  0  0
   -4.1510   22.2200  -32.2500 C   0  0  0  0  0  0  0  0  0  0  0  0
   -3.0410   24.5330  -29.3970 C   0  0  0  0  0  0  0  0  0  0  0  0
   -1.8810   24.9300  -28.7260 C   0  0  0  0  0  0  0  0  0  0  0  0
   -0.3721   24.3010  -26.3034 H   0  0  0  0  0  0  0  0  0  0  0  0
    1.4054   24.0763  -26.4327 H   0  0  0  0  0  0  0  0  0  0  0  0
    0.7070   25.7312  -26.4327 H   0  0  0  0  0  0  0  0  0  0  0  0
    0.2461   22.4837  -29.8082 H   0  0  0  0  0  0  0  0  0  0  0  0
   -1.8204   21.7695  -30.9994 H   0  0  0  0  0  0  0  0  0  0  0  0
   -5.5483   23.8352  -29.5055 H   0  0  0  0  0  0  0  0  0  0  0  0
   -7.5463   22.7574  -30.4223 H   0  0  0  0  0  0  0  0  0  0  0  0
   -7.0034   23.7265  -31.8597 H   0  0  0  0  0  0  0  0  0  0  0  0
   -8.4068   19.0601  -33.3266 H   0  0  0  0  0  0  0  0  0  0  0  0
   -6.2830   17.3280  -33.8780 H   0  0  0  0  0  0  0  0  0  0  0  0
   -6.8230   18.2250  -35.2100 H   0  0  0  0  0  0  0  0  0  0  0  0
   -4.8296   18.2117  -36.1039 H   0  0  0  0  0  0  0  0  0  0  0  0
   -4.2109   19.0433  -34.6129 H   0  0  0  0  0  0  0  0  0  0  0  0
   -4.4760   16.0331  -35.0555 H   0  0  0  0  0  0  0  0  0  0  0  0
   -2.9480   17.0209  -34.9691 H   0  0  0  0  0  0  0  0  0  0  0  0
   -3.0320   16.0967  -32.8361 H   0  0  0  0  0  0  0  0  0  0  0  0
   -3.8459   17.6872  -32.5956 H   0  0  0  0  0  0  0  0  0  0  0  0
   -5.4273   16.3681  -30.5441 H   0  0  0  0  0  0  0  0  0  0  0  0
   -5.4729   17.8307  -31.5860 H   0  0  0  0  0  0  0  0  0  0  0  0
   -6.8559   16.6845  -31.5860 H   0  0  0  0  0  0  0  0  0  0  0  0
   -4.8175   14.6377  -31.0331 H   0  0  0  0  0  0  0  0  0  0  0  0
   -5.5816   13.9519  -32.5070 H   0  0  0  0  0  0  0  0  0  0  0  0
   -3.8308   14.3536  -32.5070 H   0  0  0  0  0  0  0  0  0  0  0  0
   -4.1864   19.9268  -33.7145 H   0  0  0  0  0  0  0  0  0  0  0  0
   -3.2325   21.6149  -32.2350 H   0  0  0  0  0  0  0  0  0  0  0  0
   -4.1249   22.9653  -33.0586 H   0  0  0  0  0  0  0  0  0  0  0  0
   -3.9673   25.1136  -29.2751 H   0  0  0  0  0  0  0  0  0  0  0  0
   -1.9022   25.8209  -28.0812 H   0  0  0  0  0  0  0  0  0  0  0  0
  1  2  1  0
  2  3  1  0
  3  4  2  0
  4  5  1  0
  5  6  2  0
  6  7  1  0
  7  8  2  0
  8  9  1  0
  9 10  1  0
 10 11  2  0
 11 12  1  0
 11 13  1  0
 13 14  2  0
 14 15  1  0
 15 16  1  0
 16 17  1  0
 17 18  1  0
 18 19  1  0
 19 20  1  0
 19 21  1  0
 14 22  1  0
 22 23  2  0
 23 24  1  0
  6 25  1  0
 25 26  2  0
 26  3  1  0
 24  7  1  0
 23 10  1  0
  1 27  1  0
  1 28  1  0
  1 29  1  0
  4 30  1  0
  5 31  1  0
  8 32  1  0
  9 33  1  0
  9 34  1  0
 13 35  1  0
 15 36  1  0
 15 37  1  0
 16 38  1  0
 16 39  1  0
 17 40  1  0
 17 41  1  0
 18 42  1  0
 18 43  1  0
 20 44  1  0
 20 45  1  0
 20 46  1  0
 21 47  1  0
 21 48  1  0
 21 49  1  0
 22 50  1  0
 24 51  1  0
 24 52  1  0
 25 53  1  0
 26 54  1  0
M  CHG  1  15   1
M  END
>  <UniqueID>  (43) 
38

>  <SMILES>  (43) 
COc1ccc(C2=CCc3c(Br)cc([NH2+]CCCN(C)C)cc3C2)cc1

>  <Energy>  (43) 
61.76662538998259

>  <Genealogy>  (43) 
COc1ccc(C2=CCc3c(Br)cc([NH2+]CCCN(C)C)cc3C2)cc1 (protonated)
COc1ccc(C2=CCc3c(Br)cc([NH2+]CCCN(C)C)cc3C2)cc1 (3D coordinates assigned)
COc1ccc(C2=CCc3c(Br)cc([NH2+]CCCN(C)C)cc3C2)cc1 (nonaromatic ring conformer: 61.76662538998259 kcal/mol)

>  <smiles>  (43) 
COc1ccc(C2=CCc3c(Br)cc(NCCCN(C)C)cc3C2)cc1

>  <score_type>  (43) 
oracle

>  <origin>  (43) 
adg

>  <m_score__min__energy>  (43) 
-8.0299999999999994

>  <m_primary>  (43) 
energy

$$$$
43:0
     RDKit          3D

 30 32  0  0  0  0  0  0  0  0999 V2000
   -8.7310   19.2920  -32.0180 C   0  0  0  0  0  0  0  0  0  0  0  0
   -8.5880   20.6420  -31.3210 C   0  0  0  0  0  0  0  0  0  0  0  0
   -7.9650   21.6840  -32.2530 C   0  0  0  0  0  0  0  0  0  0  0  0
   -6.6640   22.1050  -31.7400 N   0  0  0  0  0  0  0  0  0  0  0  0
   -5.4950   21.4150  -31.7790 C   0  0  0  0  0  0  0  0  0  0  0  0
   -4.4780   22.0470  -31.1320 N   0  0  0  0  0  0  0  0  0  0  0  0
   -5.0630   23.1690  -30.6710 C   0  0  0  0  0  0  0  0  0  0  0  0
   -4.5220   24.2050  -29.9100 C   0  0  0  0  0  0  0  0  0  0  0  0
   -3.0970   24.1960  -29.5020 C   0  0  0  0  0  0  0  0  0  0  0  0
   -2.3190   23.0820  -29.2350 C   0  0  0  0  0  0  0  0  0  0  0  0
   -1.0730   23.5660  -28.8990 C   0  0  0  0  0  0  0  0  0  0  0  0
   -1.1620   24.9400  -28.9790 C   0  0  0  0  0  0  0  0  0  0  0  0
   -2.3770   25.2830  -29.3390 O   0  0  0  0  0  0  0  0  0  0  0  0
   -5.3680   25.2260  -29.5540 N   0  0  0  0  0  0  0  0  0  0  0  0
   -6.6900   25.2260  -29.9280 C   0  0  0  0  0  0  0  0  0  0  0  0
   -7.2030   24.2020  -30.6710 N   0  0  0  0  0  0  0  0  0  0  0  0
   -6.3670   23.1990  -31.0280 C   0  0  0  0  0  0  0  0  0  0  0  0
   -8.8153   18.4966  -31.2629 H   0  0  0  0  0  0  0  0  0  0  0  0
   -9.6336   19.2978  -32.6468 H   0  0  0  0  0  0  0  0  0  0  0  0
   -7.8473   19.1085  -32.6468 H   0  0  0  0  0  0  0  0  0  0  0  0
   -9.5829   20.9908  -31.0072 H   0  0  0  0  0  0  0  0  0  0  0  0
   -7.9282   20.5156  -30.4500 H   0  0  0  0  0  0  0  0  0  0  0  0
   -7.8366   21.2459  -33.2538 H   0  0  0  0  0  0  0  0  0  0  0  0
   -8.6294   22.5589  -32.3087 H   0  0  0  0  0  0  0  0  0  0  0  0
   -5.3815   20.4436  -32.2825 H   0  0  0  0  0  0  0  0  0  0  0  0
   -2.6310   22.0282  -29.2815 H   0  0  0  0  0  0  0  0  0  0  0  0
   -0.1868   22.9758  -28.6229 H   0  0  0  0  0  0  0  0  0  0  0  0
   -0.3402   25.6415  -28.7726 H   0  0  0  0  0  0  0  0  0  0  0  0
   -5.0240   26.0310  -28.9860 H   0  0  0  0  0  0  0  0  0  0  0  0
   -7.3415   26.0592  -29.6258 H   0  0  0  0  0  0  0  0  0  0  0  0
  1  2  1  0
  2  3  1  0
  3  4  1  0
  4  5  1  0
  5  6  2  0
  6  7  1  0
  7  8  2  0
  8  9  1  0
  9 10  2  0
 10 11  1  0
 11 12  2  0
 12 13  1  0
  8 14  1  0
 14 15  2  0
 15 16  1  0
 16 17  2  0
 17  4  1  0
 17  7  1  0
 13  9  1  0
  1 18  1  0
  1 19  1  0
  1 20  1  0
  2 21  1  0
  2 22  1  0
  3 23  1  0
  3 24  1  0
  5 25  1  0
 10 26  1  0
 11 27  1  0
 12 28  1  0
 14 29  1  0
 15 30  1  0
M  CHG  1  14   1
M  END
>  <UniqueID>  (44) 
39

>  <SMILES>  (44) 
CCCn1cnc2c(-c3ccco3)[nH+]cnc21

>  <Energy>  (44) 
93.36957985516017

>  <Genealogy>  (44) 
CCCn1cnc2c(-c3ccco3)[nH+]cnc21 (protonated)
CCCn1cnc2c(-c3ccco3)[nH+]cnc21 (3D coordinates assigned)
CCCn1cnc2c(-c3ccco3)[nH+]cnc21 (optimized conformer: 93.36957985516017 kcal/mol)

>  <smiles>  (44) 
CCCn1cnc2c(-c3ccco3)ncnc21

>  <score_type>  (44) 
oracle

>  <origin>  (44) 
adg

>  <m_score__min__energy>  (44) 
-6.0999999999999996

>  <m_primary>  (44) 
energy

$$$$
44:0
     RDKit          3D

 61 64  0  0  0  0  0  0  0  0999 V2000
   -1.5030   20.1310  -33.0500 C   0  0  0  0  0  0  0  0  0  0  0  0
   -2.7940   19.7560  -32.5830 O   0  0  0  0  0  0  0  0  0  0  0  0
   -3.7550   19.0790  -33.3530 C   0  0  0  0  0  0  0  0  0  0  0  0
   -3.4660   17.8680  -34.0130 C   0  0  0  0  0  0  0  0  0  0  0  0
   -4.4520   17.2240  -34.7670 C   0  0  0  0  0  0  0  0  0  0  0  0
   -5.7300   17.7780  -34.8720 C   0  0  0  0  0  0  0  0  0  0  0  0
   -6.0280   18.9790  -34.2190 C   0  0  0  0  0  0  0  0  0  0  0  0
   -5.0450   19.6320  -33.4630 C   0  0  0  0  0  0  0  0  0  0  0  0
   -5.3660   20.8710  -32.8220 N   0  0  0  0  0  0  0  0  0  0  0  0
   -6.7690   21.1540  -32.5040 C   0  0  0  0  0  0  0  0  0  0  0  0
   -6.8480   22.1010  -31.3050 C   0  0  0  0  0  0  0  0  0  0  0  0
   -5.9990   23.2760  -31.5580 N   0  0  0  0  0  0  0  0  0  0  0  0
   -6.2570   24.4520  -30.6950 C   0  0  0  0  0  0  0  0  0  0  0  0
   -5.0310   25.1440  -30.0360 C   0  0  2  0  0  0  0  0  0  0  0  0
   -4.1230   25.6500  -30.9830 O   0  0  0  0  0  0  0  0  0  0  0  0
   -4.3430   24.3040  -28.9380 C   0  0  0  0  0  0  0  0  0  0  0  0
   -2.9650   24.1440  -29.2740 O   0  0  0  0  0  0  0  0  0  0  0  0
   -2.2660   22.9290  -29.2090 C   0  0  0  0  0  0  0  0  0  0  0  0
   -1.3090   22.5510  -30.1710 C   0  0  0  0  0  0  0  0  0  0  0  0
   -0.6510   21.3210  -30.0660 C   0  0  0  0  0  0  0  0  0  0  0  0
   -0.9340   20.4490  -28.9950 C   0  0  0  0  0  0  0  0  0  0  0  0
   -0.2520   19.1330  -28.8940 C   0  0  0  0  0  0  0  0  0  0  0  0
    0.3980   18.5710  -30.0120 C   0  0  0  0  0  0  0  0  0  0  0  0
    1.0440   17.3350  -29.9090 C   0  0  0  0  0  0  0  0  0  0  0  0
    1.0460   16.6420  -28.6980 C   0  0  0  0  0  0  0  0  0  0  0  0
    0.4060   17.1870  -27.5850 C   0  0  0  0  0  0  0  0  0  0  0  0
   -0.2370   18.4260  -27.6770 C   0  0  0  0  0  0  0  0  0  0  0  0
   -1.8840   20.8400  -28.0300 C   0  0  0  0  0  0  0  0  0  0  0  0
   -2.5410   22.0660  -28.1430 C   0  0  0  0  0  0  0  0  0  0  0  0
   -4.5790   22.9110  -31.7130 C   0  0  0  0  0  0  0  0  0  0  0  0
   -4.4210   21.9860  -32.9210 C   0  0  0  0  0  0  0  0  0  0  0  0
   -0.8436   20.3225  -32.1907 H   0  0  0  0  0  0  0  0  0  0  0  0
   -1.0833   19.3177  -33.6602 H   0  0  0  0  0  0  0  0  0  0  0  0
   -1.5843   21.0426  -33.6602 H   0  0  0  0  0  0  0  0  0  0  0  0
   -2.4610   17.4276  -33.9348 H   0  0  0  0  0  0  0  0  0  0  0  0
   -4.2205   16.2783  -35.2790 H   0  0  0  0  0  0  0  0  0  0  0  0
   -6.5023   17.2699  -35.4682 H   0  0  0  0  0  0  0  0  0  0  0  0
   -7.0361   19.4117  -34.2992 H   0  0  0  0  0  0  0  0  0  0  0  0
   -7.2527   21.6240  -33.3730 H   0  0  0  0  0  0  0  0  0  0  0  0
   -7.2825   20.2129  -32.2578 H   0  0  0  0  0  0  0  0  0  0  0  0
   -7.8894   22.4243  -31.1598 H   0  0  0  0  0  0  0  0  0  0  0  0
   -6.4987   21.5812  -30.4006 H   0  0  0  0  0  0  0  0  0  0  0  0
   -6.7689   25.2061  -31.3108 H   0  0  0  0  0  0  0  0  0  0  0  0
   -6.8413   24.0564  -29.8512 H   0  0  0  0  0  0  0  0  0  0  0  0
   -5.4480   26.0114  -29.5034 H   0  0  0  0  0  0  0  0  0  0  0  0
   -3.4960   24.9270  -31.2350 H   0  0  0  0  0  0  0  0  0  0  0  0
   -4.4297   24.8193  -27.9701 H   0  0  0  0  0  0  0  0  0  0  0  0
   -4.8259   23.3183  -28.8652 H   0  0  0  0  0  0  0  0  0  0  0  0
   -1.0781   23.2259  -31.0084 H   0  0  0  0  0  0  0  0  0  0  0  0
    0.0920   21.0323  -30.8240 H   0  0  0  0  0  0  0  0  0  0  0  0
    0.3969   19.1085  -30.9717 H   0  0  0  0  0  0  0  0  0  0  0  0
    1.5524   16.9076  -30.7858 H   0  0  0  0  0  0  0  0  0  0  0  0
    1.5512   15.6679  -28.6212 H   0  0  0  0  0  0  0  0  0  0  0  0
    0.4069   16.6401  -26.6306 H   0  0  0  0  0  0  0  0  0  0  0  0
   -0.7342   18.8505  -26.7924 H   0  0  0  0  0  0  0  0  0  0  0  0
   -2.1088   20.1750  -27.1831 H   0  0  0  0  0  0  0  0  0  0  0  0
   -3.2834   22.3570  -27.3853 H   0  0  0  0  0  0  0  0  0  0  0  0
   -3.9808   23.8212  -31.8670 H   0  0  0  0  0  0  0  0  0  0  0  0
   -4.2315   22.3939  -30.8064 H   0  0  0  0  0  0  0  0  0  0  0  0
   -4.6204   22.5524  -33.8427 H   0  0  0  0  0  0  0  0  0  0  0  0
   -3.3949   21.5903  -32.9424 H   0  0  0  0  0  0  0  0  0  0  0  0
  1  2  1  0
  2  3  1  0
  3  4  2  0
  4  5  1  0
  5  6  2  0
  6  7  1  0
  7  8  2  0
  8  9  1  0
  9 10  1  0
 10 11  1  0
 11 12  1  0
 12 13  1  0
 13 14  1  0
 14 15  1  0
 14 16  1  0
 16 17  1  0
 17 18  1  0
 18 19  2  0
 19 20  1  0
 20 21  2  0
 21 22  1  0
 22 23  2  0
 23 24  1  0
 24 25  2  0
 25 26  1  0
 26 27  2  0
 21 28  1  0
 28 29  2  0
 12 30  1  0
 30 31  1  0
  8  3  1  0
 31  9  1  0
 29 18  1  0
 27 22  1  0
  1 32  1  0
  1 33  1  0
  1 34  1  0
  4 35  1  0
  5 36  1  0
  6 37  1  0
  7 38  1  0
 10 39  1  0
 10 40  1  0
 11 41  1  0
 11 42  1  0
 13 43  1  0
 13 44  1  0
 14 45  1  1
 15 46  1  0
 16 47  1  0
 16 48  1  0
 19 49  1  0
 20 50  1  0
 23 51  1  0
 24 52  1  0
 25 53  1  0
 26 54  1  0
 27 55  1  0
 28 56  1  0
 29 57  1  0
 30 58  1  0
 30 59  1  0
 31 60  1  0
 31 61  1  0
M  END
>  <UniqueID>  (45) 
40

>  <SMILES>  (45) 
COc1ccccc1N1CCN(C[C@H](O)COc2ccc(-c3ccccc3)cc2)CC1

>  <Energy>  (45) 
82.68191709652491

>  <Genealogy>  (45) 
COc1ccccc1N1CCN(C[C@H](O)COc2ccc(-c3ccccc3)cc2)CC1 (chirality)
COc1ccccc1N1CCN(C[C@H](O)COc2ccc(-c3ccccc3)cc2)CC1 (3D coordinates assigned)
COc1ccccc1N1CCN(C[C@H](O)COc2ccc(-c3ccccc3)cc2)CC1 (nonaromatic ring conformer: 82.68191709652491 kcal/mol)

>  <smiles>  (45) 
COc1ccccc1N1CCN(CC(O)COc2ccc(-c3ccccc3)cc2)CC1

>  <score_type>  (45) 
oracle

>  <origin>  (45) 
adg

>  <m_score__min__energy>  (45) 
-9.3100000000000005

>  <m_primary>  (45) 
energy

$$$$
45:0
     RDKit          3D

 41 42  0  0  0  0  0  0  0  0999 V2000
   -1.5050   22.2770  -30.1880 C   0  0  0  0  0  0  0  0  0  0  0  0
   -2.7270   22.9090  -30.5550 O   0  0  0  0  0  0  0  0  0  0  0  0
   -3.7660   22.2950  -31.2760 C   0  0  0  0  0  0  0  0  0  0  0  0
   -3.5530   21.8020  -32.5760 C   0  0  0  0  0  0  0  0  0  0  0  0
   -4.5800   21.1800  -33.2780 C   0  0  0  0  0  0  0  0  0  0  0  0
   -5.8450   21.0320  -32.7030 C   0  0  0  0  0  0  0  0  0  0  0  0
   -6.8680   20.3940  -33.4220 C   0  0  0  0  0  0  0  0  0  0  0  0
   -8.1320   20.2330  -32.8560 C   0  0  0  0  0  0  0  0  0  0  0  0
   -8.3880   20.7070  -31.5720 C   0  0  0  0  0  0  0  0  0  0  0  0
   -7.3820   21.3470  -30.8430 C   0  0  0  0  0  0  0  0  0  0  0  0
   -6.0920   21.5240  -31.3930 C   0  0  0  0  0  0  0  0  0  0  0  0
   -5.0420   22.1660  -30.6760 C   0  0  0  0  0  0  0  0  0  0  0  0
   -5.2550   22.6790  -29.2620 C   0  0  0  0  0  0  0  0  0  0  0  0
   -4.7200   24.0510  -29.1140 N   0  0  0  0  0  0  0  0  0  0  0  0
   -3.9820   24.2410  -27.8430 C   0  0  0  0  0  0  0  0  0  0  0  0
   -2.5720   24.8360  -28.0180 C   0  0  0  0  0  0  0  0  0  0  0  0
   -2.3780   25.2490  -29.3430 O   0  0  0  0  0  0  0  0  0  0  0  0
   -5.7310   25.1090  -29.3580 C   0  0  0  0  0  0  0  0  0  0  0  0
   -5.4850   25.7750  -30.7120 C   0  0  0  0  0  0  0  0  0  0  0  0
   -4.2300   25.3960  -31.2070 O   0  0  0  0  0  0  0  0  0  0  0  0
   -1.4278   22.2371  -29.0914 H   0  0  0  0  0  0  0  0  0  0  0  0
   -1.4842   21.2551  -30.5945 H   0  0  0  0  0  0  0  0  0  0  0  0
   -0.6590   22.8506  -30.5945 H   0  0  0  0  0  0  0  0  0  0  0  0
   -2.5628   21.9096  -33.0428 H   0  0  0  0  0  0  0  0  0  0  0  0
   -4.3950   20.8015  -34.2941 H   0  0  0  0  0  0  0  0  0  0  0  0
   -6.6714   20.0191  -34.4373 H   0  0  0  0  0  0  0  0  0  0  0  0
   -8.9283   19.7307  -33.4248 H   0  0  0  0  0  0  0  0  0  0  0  0
   -9.3866   20.5771  -31.1294 H   0  0  0  0  0  0  0  0  0  0  0  0
   -7.5965   21.7172  -29.8296 H   0  0  0  0  0  0  0  0  0  0  0  0
   -6.3322   22.6861  -29.0395 H   0  0  0  0  0  0  0  0  0  0  0  0
   -4.7238   22.0163  -28.5630 H   0  0  0  0  0  0  0  0  0  0  0  0
   -4.5658   24.9183  -27.2024 H   0  0  0  0  0  0  0  0  0  0  0  0
   -3.8525   23.2430  -27.3989 H   0  0  0  0  0  0  0  0  0  0  0  0
   -2.4577   25.7010  -27.3481 H   0  0  0  0  0  0  0  0  0  0  0  0
   -1.8262   24.0661  -27.7710 H   0  0  0  0  0  0  0  0  0  0  0  0
   -2.7420   24.5230  -29.9140 H   0  0  0  0  0  0  0  0  0  0  0  0
   -6.7352   24.6600  -29.3515 H   0  0  0  0  0  0  0  0  0  0  0  0
   -5.6529   25.8684  -28.5660 H   0  0  0  0  0  0  0  0  0  0  0  0
   -6.2664   25.4621  -31.4201 H   0  0  0  0  0  0  0  0  0  0  0  0
   -5.5118   26.8678  -30.5892 H   0  0  0  0  0  0  0  0  0  0  0  0
   -3.9570   24.5970  -30.6830 H   0  0  0  0  0  0  0  0  0  0  0  0
  1  2  1  0
  2  3  1  0
  3  4  2  0
  4  5  1  0
  5  6  2  0
  6  7  1  0
  7  8  2  0
  8  9  1  0
  9 10  2  0
 10 11  1  0
 11 12  2  0
 12 13  1  0
 13 14  1  0
 14 15  1  0
 15 16  1  0
 16 17  1  0
 14 18  1  0
 18 19  1  0
 19 20  1  0
 12  3  1  0
 11  6  1  0
  1 21  1  0
  1 22  1  0
  1 23  1  0
  4 24  1  0
  5 25  1  0
  7 26  1  0
  8 27  1  0
  9 28  1  0
 10 29  1  0
 13 30  1  0
 13 31  1  0
 15 32  1  0
 15 33  1  0
 16 34  1  0
 16 35  1  0
 17 36  1  0
 18 37  1  0
 18 38  1  0
 19 39  1  0
 19 40  1  0
 20 41  1  0
M  END
>  <UniqueID>  (46) 
41

>  <SMILES>  (46) 
COc1ccc2ccccc2c1CN(CCO)CCO

>  <Energy>  (46) 
47.49776985467141

>  <Genealogy>  (46) 
COc1ccc2ccccc2c1CN(CCO)CCO (3D coordinates assigned)
COc1ccc2ccccc2c1CN(CCO)CCO (optimized conformer: 47.49776985467141 kcal/mol)

>  <smiles>  (46) 
COc1ccc2ccccc2c1CN(CCO)CCO

>  <score_type>  (46) 
oracle

>  <origin>  (46) 
adg

>  <m_score__min__energy>  (46) 
-6.8099999999999996

>  <m_primary>  (46) 
energy

$$$$
