0:0
     RDKit          3D

 51 54  0  0  0  0  0  0  0  0999 V2000
    0.7800   19.7520  -31.9750 Cl  0  0  0  0  0  0  0  0  0  0  0  0
   -0.7930   20.4740  -32.2590 C   0  0  0  0  0  0  0  0  0  0  0  0
   -1.5040   20.1690  -33.4240 C   0  0  0  0  0  0  0  0  0  0  0  0
   -2.7590   20.7430  -33.6500 C   0  0  0  0  0  0  0  0  0  0  0  0
   -3.3070   21.6210  -32.7090 C   0  0  0  0  0  0  0  0  0  0  0  0
   -2.6040   21.9310  -31.5330 C   0  0  0  0  0  0  0  0  0  0  0  0
   -3.2010   22.8570  -30.5040 C   0  0  0  0  0  0  0  0  0  0  0  0
   -4.5770   23.4270  -30.9080 C   0  0  1  0  0  0  0  0  0  0  0  0
   -5.7610   22.7070  -30.2030 C   0  0  0  0  0  0  0  0  0  0  0  0
   -7.0250   23.4760  -30.3180 N   0  0  2  0  0  0  0  0  0  0  0  0
   -7.6300   23.3740  -31.6810 C   0  0  0  0  0  0  0  0  0  0  0  0
   -6.9330   22.3340  -32.5850 C   0  0  0  0  0  0  0  0  0  0  0  0
   -7.4060   20.9740  -32.3330 N   0  0  0  0  0  0  0  0  0  0  0  0
   -8.5760   20.6430  -31.5200 C   0  0  0  0  0  0  0  0  0  0  0  0
   -8.6870   19.0980  -31.5440 C   0  0  0  0  0  0  0  0  0  0  0  0
   -7.5900   18.6870  -32.4660 C   0  0  0  0  0  0  0  0  0  0  0  0
   -7.2520   17.3980  -32.8810 C   0  0  0  0  0  0  0  0  0  0  0  0
   -6.1720   17.2410  -33.7660 C   0  0  0  0  0  0  0  0  0  0  0  0
   -5.4580   18.3670  -34.2200 C   0  0  0  0  0  0  0  0  0  0  0  0
   -5.8190   19.6540  -33.7890 C   0  0  0  0  0  0  0  0  0  0  0  0
   -6.8910   19.7810  -32.9000 C   0  0  0  0  0  0  0  0  0  0  0  0
   -6.8400   24.8920  -29.8760 C   0  0  0  0  0  0  0  0  0  0  0  0
   -5.3650   25.2950  -29.7110 C   0  0  0  0  0  0  0  0  0  0  0  0
   -4.5950   24.8470  -30.8070 O   0  0  0  0  0  0  0  0  0  0  0  0
   -1.3380   21.3550  -31.3170 C   0  0  0  0  0  0  0  0  0  0  0  0
   -1.0755   19.4766  -34.1636 H   0  0  0  0  0  0  0  0  0  0  0  0
   -3.3155   20.5039  -34.5682 H   0  0  0  0  0  0  0  0  0  0  0  0
   -4.2940   22.0712  -32.8909 H   0  0  0  0  0  0  0  0  0  0  0  0
   -3.3182   22.3007  -29.5623 H   0  0  0  0  0  0  0  0  0  0  0  0
   -2.5155   23.7114  -30.4035 H   0  0  0  0  0  0  0  0  0  0  0  0
   -4.7362   23.2035  -31.9732 H   0  0  0  0  0  0  0  0  0  0  0  0
   -5.9026   21.7192  -30.6657 H   0  0  0  0  0  0  0  0  0  0  0  0
   -5.5153   22.6136  -29.1349 H   0  0  0  0  0  0  0  0  0  0  0  0
   -7.6970   23.0430  -29.6380 H   0  0  0  0  0  0  0  0  0  0  0  0
   -8.6870   23.0894  -31.5729 H   0  0  0  0  0  0  0  0  0  0  0  0
   -7.5109   24.3554  -32.1634 H   0  0  0  0  0  0  0  0  0  0  0  0
   -7.1326   22.5888  -33.6363 H   0  0  0  0  0  0  0  0  0  0  0  0
   -5.8562   22.3624  -32.3622 H   0  0  0  0  0  0  0  0  0  0  0  0
   -8.4389   21.0007  -30.4889 H   0  0  0  0  0  0  0  0  0  0  0  0
   -9.4871   21.1193  -31.9111 H   0  0  0  0  0  0  0  0  0  0  0  0
   -8.5352   18.6768  -30.5392 H   0  0  0  0  0  0  0  0  0  0  0  0
   -9.6764   18.7436  -31.8689 H   0  0  0  0  0  0  0  0  0  0  0  0
   -7.8180   16.5252  -32.5235 H   0  0  0  0  0  0  0  0  0  0  0  0
   -5.8832   16.2353  -34.1054 H   0  0  0  0  0  0  0  0  0  0  0  0
   -4.6148   18.2379  -34.9145 H   0  0  0  0  0  0  0  0  0  0  0  0
   -5.2718   20.5405  -34.1421 H   0  0  0  0  0  0  0  0  0  0  0  0
   -7.3001   25.5535  -30.6248 H   0  0  0  0  0  0  0  0  0  0  0  0
   -7.3141   24.9873  -28.8880 H   0  0  0  0  0  0  0  0  0  0  0  0
   -5.2961   26.3909  -29.6463 H   0  0  0  0  0  0  0  0  0  0  0  0
   -4.9741   24.8309  -28.7935 H   0  0  0  0  0  0  0  0  0  0  0  0
   -0.7743   21.5980  -30.4042 H   0  0  0  0  0  0  0  0  0  0  0  0
  1  2  1  0
  2  3  2  0
  3  4  1  0
  4  5  2  0
  5  6  1  0
  6  7  1  0
  7  8  1  0
  8  9  1  0
  9 10  1  0
 10 11  1  0
 11 12  1  0
 12 13  1  0
 13 14  1  0
 14 15  1  0
 15 16  1  0
 16 17  2  0
 17 18  1  0
 18 19  2  0
 19 20  1  0
 20 21  2  0
 10 22  1  0
 22 23  1  0
 23 24  1  0
  6 25  2  0
 25  2  1  0
 24  8  1  0
 21 13  1  0
 21 16  1  0
  3 26  1  0
  4 27  1  0
  5 28  1  0
  7 29  1  0
  7 30  1  0
  8 31  1  6
  9 32  1  0
  9 33  1  0
 10 34  1  1
 11 35  1  0
 11 36  1  0
 12 37  1  0
 12 38  1  0
 14 39  1  0
 14 40  1  0
 15 41  1  0
 15 42  1  0
 17 43  1  0
 18 44  1  0
 19 45  1  0
 20 46  1  0
 22 47  1  0
 22 48  1  0
 23 49  1  0
 23 50  1  0
 25 51  1  0
M  CHG  1  10   1
M  END
>  <UniqueID>  (1) 
1

>  <SMILES>  (1) 
Clc1cccc(C[C@H]2C[N@H+](CCN3CCc4ccccc43)CCO2)c1

>  <Energy>  (1) 
81.07628070664911

>  <Genealogy>  (1) 
Clc1cccc(CC2C[NH+](CCN3CCc4ccccc43)CCO2)c1 (protonated)
Clc1cccc(C[C@H]2C[N@H+](CCN3CCc4ccccc43)CCO2)c1 (chirality)
Clc1cccc(C[C@H]2C[N@H+](CCN3CCc4ccccc43)CCO2)c1 (3D coordinates assigned)
Clc1cccc(C[C@H]2C[N@H+](CCN3CCc4ccccc43)CCO2)c1 (nonaromatic ring conformer: 81.07628070664911 kcal/mol)

>  <smiles>  (1) 
Clc1cccc(CC2CN(CCN3CCc4ccccc43)CCO2)c1

>  <score_type>  (1) 
oracle

>  <origin>  (1) 
adg

>  <m_score__min__energy>  (1) 
-9.0299999999999994

>  <m_primary>  (1) 
energy

$$$$
1:0
     RDKit          3D

 51 53  0  0  0  0  0  0  0  0999 V2000
   -0.8140   21.9120  -30.5380 C   0  0  0  0  0  0  0  0  0  0  0  0
   -0.3800   20.9150  -31.6030 C   0  0  0  0  0  0  0  0  0  0  0  0
   -0.8890   21.3320  -32.8500 O   0  0  0  0  0  0  0  0  0  0  0  0
    0.0970   21.1730  -33.8490 C   0  0  0  0  0  0  0  0  0  0  0  0
   -0.4450   20.2780  -34.9680 C   0  0  0  0  0  0  0  0  0  0  0  0
   -1.0850   18.9800  -34.4500 C   0  0  0  0  0  0  0  0  0  0  0  0
   -2.4280   19.2140  -33.9170 N   0  0  0  0  0  0  0  0  0  0  0  0
   -3.5440   18.3680  -34.2270 C   0  0  0  0  0  0  0  0  0  0  0  0
   -3.3920   17.3740  -34.9820 O   0  0  0  0  0  0  0  0  0  0  0  0
   -4.8910   18.6350  -33.6160 C   0  0  0  0  0  0  0  0  0  0  0  0
   -5.3400   20.0930  -33.7800 C   0  0  0  0  0  0  0  0  0  0  0  0
   -5.6000   20.7620  -32.4930 N   0  0  0  0  0  0  0  0  0  0  0  0
   -4.4960   21.3120  -31.7330 C   0  0  0  0  0  0  0  0  0  0  0  0
   -3.3420   20.8160  -31.8600 O   0  0  0  0  0  0  0  0  0  0  0  0
   -4.6690   22.4440  -30.7860 C   0  0  0  0  0  0  0  0  0  0  0  0
   -3.9980   22.4120  -29.5520 C   0  0  0  0  0  0  0  0  0  0  0  0
   -4.1660   23.4450  -28.6240 C   0  0  0  0  0  0  0  0  0  0  0  0
   -5.0050   24.5200  -28.9180 C   0  0  0  0  0  0  0  0  0  0  0  0
   -5.6680   24.5750  -30.1450 C   0  0  0  0  0  0  0  0  0  0  0  0
   -5.4900   23.5550  -31.0910 C   0  0  0  0  0  0  0  0  0  0  0  0
   -6.3400   23.6820  -32.6660 S   0  0  0  0  0  0  0  0  0  0  0  0
   -7.4460   22.3670  -32.1780 C   0  0  0  0  0  0  0  0  0  0  0  0
   -8.7470   22.6630  -31.7550 C   0  0  0  0  0  0  0  0  0  0  0  0
   -9.5810   21.6420  -31.2890 C   0  0  0  0  0  0  0  0  0  0  0  0
   -9.1060   20.3280  -31.2250 C   0  0  0  0  0  0  0  0  0  0  0  0
   -7.8000   20.0340  -31.6290 C   0  0  0  0  0  0  0  0  0  0  0  0
   -6.9630   21.0490  -32.1210 C   0  0  0  0  0  0  0  0  0  0  0  0
   -0.6289   21.4868  -29.5405 H   0  0  0  0  0  0  0  0  0  0  0  0
   -0.2399   22.8433  -30.6519 H   0  0  0  0  0  0  0  0  0  0  0  0
   -1.8869   22.1264  -30.6519 H   0  0  0  0  0  0  0  0  0  0  0  0
    0.7184   20.8753  -31.6466 H   0  0  0  0  0  0  0  0  0  0  0  0
   -0.7655   19.9144  -31.3576 H   0  0  0  0  0  0  0  0  0  0  0  0
    0.3609   22.1574  -34.2629 H   0  0  0  0  0  0  0  0  0  0  0  0
    0.9910   20.7069  -33.4091 H   0  0  0  0  0  0  0  0  0  0  0  0
   -1.2042   20.8420  -35.5298 H   0  0  0  0  0  0  0  0  0  0  0  0
    0.4089   19.9916  -35.5995 H   0  0  0  0  0  0  0  0  0  0  0  0
   -1.1508   18.2596  -35.2786 H   0  0  0  0  0  0  0  0  0  0  0  0
   -0.4565   18.5886  -33.6365 H   0  0  0  0  0  0  0  0  0  0  0  0
   -2.5710   20.0410  -33.2930 H   0  0  0  0  0  0  0  0  0  0  0  0
   -5.6322   17.9824  -34.1005 H   0  0  0  0  0  0  0  0  0  0  0  0
   -4.8116   18.4323  -32.5378 H   0  0  0  0  0  0  0  0  0  0  0  0
   -4.5501   20.6459  -34.3095 H   0  0  0  0  0  0  0  0  0  0  0  0
   -6.2841   20.0858  -34.3445 H   0  0  0  0  0  0  0  0  0  0  0  0
   -3.3349   21.5673  -29.3136 H   0  0  0  0  0  0  0  0  0  0  0  0
   -3.6357   23.4096  -27.6609 H   0  0  0  0  0  0  0  0  0  0  0  0
   -5.1443   25.3254  -28.1818 H   0  0  0  0  0  0  0  0  0  0  0  0
   -6.3328   25.4218  -30.3710 H   0  0  0  0  0  0  0  0  0  0  0  0
   -9.1136   23.6996  -31.7892 H   0  0  0  0  0  0  0  0  0  0  0  0
  -10.6093   21.8719  -30.9732 H   0  0  0  0  0  0  0  0  0  0  0  0
   -9.7608   19.5247  -30.8563 H   0  0  0  0  0  0  0  0  0  0  0  0
   -7.4259   19.0018  -31.5611 H   0  0  0  0  0  0  0  0  0  0  0  0
  1  2  1  0
  2  3  1  0
  3  4  1  0
  4  5  1  0
  5  6  1  0
  6  7  1  0
  7  8  1  0
  8  9  2  0
  8 10  1  0
 10 11  1  0
 11 12  1  0
 12 13  1  0
 13 14  2  0
 13 15  1  0
 15 16  2  0
 16 17  1  0
 17 18  2  0
 18 19  1  0
 19 20  2  0
 20 21  1  0
 21 22  1  0
 22 23  2  0
 23 24  1  0
 24 25  2  0
 25 26  1  0
 26 27  2  0
 27 12  1  0
 20 15  1  0
 27 22  1  0
  1 28  1  0
  1 29  1  0
  1 30  1  0
  2 31  1  0
  2 32  1  0
  4 33  1  0
  4 34  1  0
  5 35  1  0
  5 36  1  0
  6 37  1  0
  6 38  1  0
  7 39  1  0
 10 40  1  0
 10 41  1  0
 11 42  1  0
 11 43  1  0
 16 44  1  0
 17 45  1  0
 18 46  1  0
 19 47  1  0
 23 48  1  0
 24 49  1  0
 25 50  1  0
 26 51  1  0
M  END
>  <UniqueID>  (2) 
2

>  <SMILES>  (2) 
CCOCCCNC(=O)CCN1C(=O)c2ccccc2Sc2ccccc21

>  <Energy>  (2) 
56.93965876997927

>  <Genealogy>  (2) 
CCOCCCNC(=O)CCN1C(=O)c2ccccc2Sc2ccccc21 (3D coordinates assigned)
CCOCCCNC(=O)CCN1C(=O)c2ccccc2Sc2ccccc21 (nonaromatic ring conformer: 56.93965876997927 kcal/mol)

>  <smiles>  (2) 
CCOCCCNC(=O)CCN1C(=O)c2ccccc2Sc2ccccc21

>  <score_type>  (2) 
oracle

>  <origin>  (2) 
adg

>  <m_score__min__energy>  (2) 
-8.1999999999999993

>  <m_primary>  (2) 
energy

$$$$
2:0
     RDKit          3D

 44 46  0  0  0  0  0  0  0  0999 V2000
   -5.0430   17.2110  -33.0540 C   0  0  0  0  0  0  0  0  0  0  0  0
   -5.5900   18.5680  -33.0630 N   0  0  0  0  0  0  0  0  0  0  0  0
   -4.9610   19.7400  -33.3740 C   0  0  0  0  0  0  0  0  0  0  0  0
   -3.6540   19.8690  -33.8700 O   0  0  0  0  0  0  0  0  0  0  0  0
   -2.6770   20.8010  -33.4060 C   0  0  0  0  0  0  0  0  0  0  0  0
   -2.9630   21.2180  -31.9560 C   0  0  0  0  0  0  0  0  0  0  0  0
   -3.5300   22.6510  -31.8630 C   0  0  0  0  0  0  0  0  0  0  0  0
   -4.9290   22.6580  -31.3710 N   0  0  0  0  0  0  0  0  0  0  0  0
   -5.0320   22.6370  -29.8940 C   0  0  0  0  0  0  0  0  0  0  0  0
   -4.5700   23.9570  -29.2470 C   0  0  0  0  0  0  0  0  0  0  0  0
   -4.9100   25.1910  -30.1000 C   0  0  0  0  0  0  0  0  0  0  0  0
   -6.0760   24.9110  -31.0460 C   0  0  0  0  0  0  0  0  0  0  0  0
   -5.7550   23.7320  -31.9890 C   0  0  0  0  0  0  0  0  0  0  0  0
   -5.7390   20.8260  -33.1540 N   0  0  0  0  0  0  0  0  0  0  0  0
   -6.9030   20.3190  -32.7180 C   0  0  0  0  0  0  0  0  0  0  0  0
   -8.0560   21.0120  -32.3570 C   0  0  0  0  0  0  0  0  0  0  0  0
   -9.1610   20.2570  -31.9260 C   0  0  0  0  0  0  0  0  0  0  0  0
   -9.0870   18.8470  -31.8680 C   0  0  0  0  0  0  0  0  0  0  0  0
   -7.9050   18.1780  -32.2390 C   0  0  0  0  0  0  0  0  0  0  0  0
   -6.8210   18.9560  -32.6630 C   0  0  0  0  0  0  0  0  0  0  0  0
   -4.9083   16.8768  -32.0147 H   0  0  0  0  0  0  0  0  0  0  0  0
   -5.7377   16.5322  -33.5703 H   0  0  0  0  0  0  0  0  0  0  0  0
   -4.0717   17.2038  -33.5703 H   0  0  0  0  0  0  0  0  0  0  0  0
   -1.6819   20.3351  -33.4572 H   0  0  0  0  0  0  0  0  0  0  0  0
   -2.7150   21.6967  -34.0434 H   0  0  0  0  0  0  0  0  0  0  0  0
   -3.6941   20.5189  -31.5239 H   0  0  0  0  0  0  0  0  0  0  0  0
   -2.0120   21.1943  -31.4037 H   0  0  0  0  0  0  0  0  0  0  0  0
   -2.9063   23.2367  -31.1716 H   0  0  0  0  0  0  0  0  0  0  0  0
   -3.5198   23.0893  -32.8719 H   0  0  0  0  0  0  0  0  0  0  0  0
   -6.0813   22.4576  -29.6169 H   0  0  0  0  0  0  0  0  0  0  0  0
   -4.3718   21.8377  -29.5262 H   0  0  0  0  0  0  0  0  0  0  0  0
   -5.0622   24.0598  -28.2686 H   0  0  0  0  0  0  0  0  0  0  0  0
   -3.4751   23.9128  -29.1509 H   0  0  0  0  0  0  0  0  0  0  0  0
   -5.1818   26.0228  -29.4335 H   0  0  0  0  0  0  0  0  0  0  0  0
   -4.0277   25.4474  -30.7048 H   0  0  0  0  0  0  0  0  0  0  0  0
   -6.9687   24.6639  -30.4527 H   0  0  0  0  0  0  0  0  0  0  0  0
   -6.2541   25.8085  -31.6565 H   0  0  0  0  0  0  0  0  0  0  0  0
   -6.7052   23.2878  -32.3203 H   0  0  0  0  0  0  0  0  0  0  0  0
   -5.1630   24.1455  -32.8187 H   0  0  0  0  0  0  0  0  0  0  0  0
   -5.4940   21.8290  -33.3080 H   0  0  0  0  0  0  0  0  0  0  0  0
   -8.1005   22.1100  -32.4073 H   0  0  0  0  0  0  0  0  0  0  0  0
  -10.0899   20.7676  -31.6318 H   0  0  0  0  0  0  0  0  0  0  0  0
   -9.9592   18.2679  -31.5305 H   0  0  0  0  0  0  0  0  0  0  0  0
   -7.8356   17.0810  -32.1971 H   0  0  0  0  0  0  0  0  0  0  0  0
  1  2  1  0
  2  3  1  0
  3  4  1  0
  4  5  1  0
  5  6  1  0
  6  7  1  0
  7  8  1  0
  8  9  1  0
  9 10  1  0
 10 11  1  0
 11 12  1  0
 12 13  1  0
  3 14  2  0
 14 15  1  0
 15 16  2  0
 16 17  1  0
 17 18  2  0
 18 19  1  0
 19 20  2  0
 20  2  1  0
 13  8  1  0
 20 15  1  0
  1 21  1  0
  1 22  1  0
  1 23  1  0
  5 24  1  0
  5 25  1  0
  6 26  1  0
  6 27  1  0
  7 28  1  0
  7 29  1  0
  9 30  1  0
  9 31  1  0
 10 32  1  0
 10 33  1  0
 11 34  1  0
 11 35  1  0
 12 36  1  0
 12 37  1  0
 13 38  1  0
 13 39  1  0
 14 40  1  0
 16 41  1  0
 17 42  1  0
 18 43  1  0
 19 44  1  0
M  CHG  1  14   1
M  END
>  <UniqueID>  (3) 
3

>  <SMILES>  (3) 
Cn1c(OCCCN2CCCCC2)[nH+]c2ccccc21

>  <Energy>  (3) 
96.85966846697957

>  <Genealogy>  (3) 
Cn1c(OCCCN2CCCCC2)[nH+]c2ccccc21 (protonated)
Cn1c(OCCCN2CCCCC2)[nH+]c2ccccc21 (3D coordinates assigned)
Cn1c(OCCCN2CCCCC2)[nH+]c2ccccc21 (nonaromatic ring conformer: 96.85966846697957 kcal/mol)

>  <smiles>  (3) 
Cn1c(OCCCN2CCCCC2)nc2ccccc21

>  <score_type>  (3) 
oracle

>  <origin>  (3) 
adg

>  <m_score__min__energy>  (3) 
-6.7800000000000002

>  <m_primary>  (3) 
energy

$$$$
3:0
     RDKit          3D

 40 42  0  0  0  0  0  0  0  0999 V2000
   -9.4970   20.7120  -31.8140 C   0  0  0  0  0  0  0  0  0  0  0  0
   -8.7450   19.3810  -31.7490 C   0  0  0  0  0  0  0  0  0  0  0  0
   -8.2440   18.9520  -33.0680 N   0  0  0  0  0  0  0  0  0  0  0  0
   -7.1620   17.9450  -32.9830 C   0  0  0  0  0  0  0  0  0  0  0  0
   -6.0660   18.1900  -34.0330 C   0  0  0  0  0  0  0  0  0  0  0  0
   -5.7340   19.6120  -34.1040 N   0  0  0  0  0  0  0  0  0  0  0  0
   -4.5690   20.1680  -33.4700 C   0  0  0  0  0  0  0  0  0  0  0  0
   -3.3150   19.5860  -33.7260 C   0  0  0  0  0  0  0  0  0  0  0  0
   -2.1530   20.1310  -33.1840 C   0  0  0  0  0  0  0  0  0  0  0  0
   -2.2190   21.2670  -32.3830 C   0  0  0  0  0  0  0  0  0  0  0  0
   -3.4500   21.8620  -32.1030 C   0  0  0  0  0  0  0  0  0  0  0  0
   -3.4760   22.9400  -31.3270 O   0  0  0  0  0  0  0  0  0  0  0  0
   -4.5990   23.5610  -30.9910 C   0  0  0  0  0  0  0  0  0  0  0  0
   -4.5410   24.6950  -30.1730 C   0  0  0  0  0  0  0  0  0  0  0  0
   -5.7150   25.3550  -29.8030 C   0  0  0  0  0  0  0  0  0  0  0  0
   -6.9530   24.8830  -30.2460 C   0  0  0  0  0  0  0  0  0  0  0  0
   -7.0230   23.7510  -31.0630 C   0  0  0  0  0  0  0  0  0  0  0  0
   -5.8450   23.0800  -31.4470 C   0  0  0  0  0  0  0  0  0  0  0  0
   -5.8690   21.9380  -32.2660 C   0  0  0  0  0  0  0  0  0  0  0  0
   -6.9770   21.4720  -32.6480 O   0  0  0  0  0  0  0  0  0  0  0  0
   -4.6500   21.3170  -32.6330 C   0  0  0  0  0  0  0  0  0  0  0  0
   -9.6989   21.0693  -30.7934 H   0  0  0  0  0  0  0  0  0  0  0  0
   -8.8844   21.4536  -32.3477 H   0  0  0  0  0  0  0  0  0  0  0  0
  -10.4483   20.5700  -32.3477 H   0  0  0  0  0  0  0  0  0  0  0  0
   -7.8902   19.4915  -31.0655 H   0  0  0  0  0  0  0  0  0  0  0  0
   -9.4499   18.6151  -31.3933 H   0  0  0  0  0  0  0  0  0  0  0  0
   -7.9520   19.7910  -33.6220 H   0  0  0  0  0  0  0  0  0  0  0  0
   -9.0510   18.5240  -33.5790 H   0  0  0  0  0  0  0  0  0  0  0  0
   -6.7110   17.9916  -31.9808 H   0  0  0  0  0  0  0  0  0  0  0  0
   -7.6021   16.9552  -33.1746 H   0  0  0  0  0  0  0  0  0  0  0  0
   -5.1659   17.6215  -33.7563 H   0  0  0  0  0  0  0  0  0  0  0  0
   -6.4348   17.8612  -35.0158 H   0  0  0  0  0  0  0  0  0  0  0  0
   -6.3670   20.2430  -34.6430 H   0  0  0  0  0  0  0  0  0  0  0  0
   -3.2506   18.6903  -34.3613 H   0  0  0  0  0  0  0  0  0  0  0  0
   -1.1798   19.6616  -33.3900 H   0  0  0  0  0  0  0  0  0  0  0  0
   -1.2960   21.6983  -31.9683 H   0  0  0  0  0  0  0  0  0  0  0  0
   -3.5680   25.0676  -29.8204 H   0  0  0  0  0  0  0  0  0  0  0  0
   -5.6648   26.2475  -29.1620 H   0  0  0  0  0  0  0  0  0  0  0  0
   -7.8758   25.4039  -29.9509 H   0  0  0  0  0  0  0  0  0  0  0  0
   -8.0007   23.3829  -31.4072 H   0  0  0  0  0  0  0  0  0  0  0  0
  1  2  1  0
  2  3  1  0
  3  4  1  0
  4  5  1  0
  5  6  1  0
  6  7  1  0
  7  8  2  0
  8  9  1  0
  9 10  2  0
 10 11  1  0
 11 12  1  0
 12 13  1  0
 13 14  2  0
 14 15  1  0
 15 16  2  0
 16 17  1  0
 17 18  2  0
 18 19  1  0
 19 20  2  0
 19 21  1  0
 21  7  1  0
 21 11  2  0
 18 13  1  0
  1 22  1  0
  1 23  1  0
  1 24  1  0
  2 25  1  0
  2 26  1  0
  3 27  1  0
  3 28  1  0
  4 29  1  0
  4 30  1  0
  5 31  1  0
  5 32  1  0
  6 33  1  0
  8 34  1  0
  9 35  1  0
 10 36  1  0
 14 37  1  0
 15 38  1  0
 16 39  1  0
 17 40  1  0
M  CHG  1   3   1
M  END
>  <UniqueID>  (4) 
4

>  <SMILES>  (4) 
CC[NH2+]CCNc1cccc2oc3ccccc3c(=O)c12

>  <Energy>  (4) 
55.252351974168825

>  <Genealogy>  (4) 
CC[NH2+]CCNc1cccc2oc3ccccc3c(=O)c12 (protonated)
CC[NH2+]CCNc1cccc2oc3ccccc3c(=O)c12 (3D coordinates assigned)
CC[NH2+]CCNc1cccc2oc3ccccc3c(=O)c12 (optimized conformer: 55.252351974168825 kcal/mol)

>  <smiles>  (4) 
CCNCCNc1cccc2oc3ccccc3c(=O)c12

>  <score_type>  (4) 
oracle

>  <origin>  (4) 
adg

>  <m_score__min__energy>  (4) 
-7.7800000000000002

>  <m_primary>  (4) 
energy

$$$$
4:0
     RDKit          3D

 43 45  0  0  0  0  0  0  0  0999 V2000
   -1.3470   25.4810  -25.9220 C   0  0  0  0  0  0  0  0  0  0  0  0
   -1.9460   25.2230  -27.3030 C   0  0  0  0  0  0  0  0  0  0  0  0
   -2.7300   23.9650  -27.3010 N   0  0  0  0  0  0  0  0  0  0  0  0
   -4.1860   24.2400  -27.2800 C   0  0  0  0  0  0  0  0  0  0  0  0
   -4.6090   24.9500  -25.9910 C   0  0  0  0  0  0  0  0  0  0  0  0
   -2.3700   23.1040  -28.4580 C   0  0  0  0  0  0  0  0  0  0  0  0
   -2.0280   23.9480  -29.6890 C   0  0  0  0  0  0  0  0  0  0  0  0
   -3.1250   24.7750  -30.0810 O   0  0  0  0  0  0  0  0  0  0  0  0
   -4.4150   24.3310  -30.4150 C   0  0  0  0  0  0  0  0  0  0  0  0
   -5.5000   25.2010  -30.1550 C   0  0  0  0  0  0  0  0  0  0  0  0
   -6.8240   24.8210  -30.4430 C   0  0  0  0  0  0  0  0  0  0  0  0
   -7.0350   23.5610  -30.9960 C   0  0  0  0  0  0  0  0  0  0  0  0
   -8.2200   23.0040  -31.3260 N   0  0  0  0  0  0  0  0  0  0  0  0
   -7.9030   21.7800  -31.8040 C   0  0  0  0  0  0  0  0  0  0  0  0
   -8.7820   20.8040  -32.2700 C   0  0  0  0  0  0  0  0  0  0  0  0
   -8.2370   19.5850  -32.7170 C   0  0  0  0  0  0  0  0  0  0  0  0
   -6.8410   19.3690  -32.6870 C   0  0  0  0  0  0  0  0  0  0  0  0
   -5.9720   20.3680  -32.2120 C   0  0  0  0  0  0  0  0  0  0  0  0
   -6.5400   21.5640  -31.7790 C   0  0  0  0  0  0  0  0  0  0  0  0
   -5.9830   22.7110  -31.2600 C   0  0  0  0  0  0  0  0  0  0  0  0
   -4.6620   23.0580  -30.9910 C   0  0  0  0  0  0  0  0  0  0  0  0
   -2.0645   25.1720  -25.1476 H   0  0  0  0  0  0  0  0  0  0  0  0
   -0.4173   24.9035  -25.8119 H   0  0  0  0  0  0  0  0  0  0  0  0
   -1.1278   26.5533  -25.8119 H   0  0  0  0  0  0  0  0  0  0  0  0
   -2.6058   26.0605  -27.5738 H   0  0  0  0  0  0  0  0  0  0  0  0
   -1.1292   25.1325  -28.0342 H   0  0  0  0  0  0  0  0  0  0  0  0
   -4.4408   24.8784  -28.1388 H   0  0  0  0  0  0  0  0  0  0  0  0
   -4.7177   23.2785  -27.3325 H   0  0  0  0  0  0  0  0  0  0  0  0
   -4.2634   24.3700  -25.1226 H   0  0  0  0  0  0  0  0  0  0  0  0
   -4.1621   25.9547  -25.9622 H   0  0  0  0  0  0  0  0  0  0  0  0
   -5.7053   25.0353  -25.9622 H   0  0  0  0  0  0  0  0  0  0  0  0
   -1.4979   22.4892  -28.1905 H   0  0  0  0  0  0  0  0  0  0  0  0
   -3.2331   22.4666  -28.7006 H   0  0  0  0  0  0  0  0  0  0  0  0
   -1.1646   24.5879  -29.4544 H   0  0  0  0  0  0  0  0  0  0  0  0
   -1.7971   23.2659  -30.5205 H   0  0  0  0  0  0  0  0  0  0  0  0
   -5.3051   26.1923  -29.7199 H   0  0  0  0  0  0  0  0  0  0  0  0
   -7.6659   25.4984  -30.2376 H   0  0  0  0  0  0  0  0  0  0  0  0
   -9.1720   23.4220  -31.2280 H   0  0  0  0  0  0  0  0  0  0  0  0
   -9.8676   20.9804  -32.2880 H   0  0  0  0  0  0  0  0  0  0  0  0
   -8.9034   18.7945  -33.0926 H   0  0  0  0  0  0  0  0  0  0  0  0
   -6.4300   18.4110  -33.0382 H   0  0  0  0  0  0  0  0  0  0  0  0
   -4.8837   20.2105  -32.1835 H   0  0  0  0  0  0  0  0  0  0  0  0
   -3.8362   22.3676  -31.2177 H   0  0  0  0  0  0  0  0  0  0  0  0
  1  2  1  0
  2  3  1  0
  3  4  1  0
  4  5  1  0
  3  6  1  0
  6  7  1  0
  7  8  1  0
  8  9  1  0
  9 10  2  0
 10 11  1  0
 11 12  2  0
 12 13  1  0
 13 14  1  0
 14 15  2  0
 15 16  1  0
 16 17  2  0
 17 18  1  0
 18 19  2  0
 19 20  1  0
 20 21  2  0
 21  9  1  0
 20 12  1  0
 19 14  1  0
  1 22  1  0
  1 23  1  0
  1 24  1  0
  2 25  1  0
  2 26  1  0
  4 27  1  0
  4 28  1  0
  5 29  1  0
  5 30  1  0
  5 31  1  0
  6 32  1  0
  6 33  1  0
  7 34  1  0
  7 35  1  0
 10 36  1  0
 11 37  1  0
 13 38  1  0
 15 39  1  0
 16 40  1  0
 17 41  1  0
 18 42  1  0
 21 43  1  0
M  END
>  <UniqueID>  (5) 
5

>  <SMILES>  (5) 
CCN(CC)CCOc1ccc2[nH]c3ccccc3c2c1

>  <Energy>  (5) 
82.73942347592897

>  <Genealogy>  (5) 
CCN(CC)CCOc1ccc2[nH]c3ccccc3c2c1 (3D coordinates assigned)
CCN(CC)CCOc1ccc2[nH]c3ccccc3c2c1 (optimized conformer: 82.73942347592897 kcal/mol)

>  <smiles>  (5) 
CCN(CC)CCOc1ccc2[nH]c3ccccc3c2c1

>  <score_type>  (5) 
oracle

>  <origin>  (5) 
adg

>  <m_score__min__energy>  (5) 
-7.8700000000000001

>  <m_primary>  (5) 
energy

$$$$
5:0
     RDKit          3D

 46 48  0  0  0  0  0  0  0  0999 V2000
    0.6540   22.0450  -35.7480 C   0  0  0  0  0  0  0  0  0  0  0  0
    0.2570   20.7210  -35.1000 C   0  0  0  0  0  0  0  0  0  0  0  0
   -1.0850   20.8020  -34.5050 N   0  0  0  0  0  0  0  0  0  0  0  0
   -1.0510   20.9570  -33.0390 C   0  0  0  0  0  0  0  0  0  0  0  0
   -2.4760   21.1440  -32.5120 C   0  0  0  0  0  0  0  0  0  0  0  0
   -3.4610   21.0100  -33.5960 N   0  0  0  0  0  0  0  0  0  0  0  0
   -4.7960   20.8160  -33.0490 C   0  0  0  0  0  0  0  0  0  0  0  0
   -5.5130   19.6160  -33.3030 C   0  0  0  0  0  0  0  0  0  0  0  0
   -5.0200   18.6280  -34.1940 C   0  0  0  0  0  0  0  0  0  0  0  0
   -5.6790   17.4140  -34.3580 C   0  0  0  0  0  0  0  0  0  0  0  0
   -6.8360   17.1490  -33.6430 C   0  0  0  0  0  0  0  0  0  0  0  0
   -7.3720   18.1170  -32.7990 C   0  0  0  0  0  0  0  0  0  0  0  0
   -6.7590   19.3900  -32.6540 C   0  0  0  0  0  0  0  0  0  0  0  0
   -7.3430   20.3850  -31.8970 N   0  0  0  0  0  0  0  0  0  0  0  0
   -8.7590   20.2590  -31.4810 C   0  0  0  0  0  0  0  0  0  0  0  0
   -6.6310   21.5250  -31.5770 C   0  0  0  0  0  0  0  0  0  0  0  0
   -7.1130   22.4460  -30.6120 C   0  0  0  0  0  0  0  0  0  0  0  0
   -6.4520   23.6440  -30.3620 C   0  0  0  0  0  0  0  0  0  0  0  0
   -5.2930   23.9640  -31.0600 C   0  0  0  0  0  0  0  0  0  0  0  0
   -4.6390   25.2160  -30.8300 N   0  0  0  0  0  0  0  0  0  0  0  0
   -4.7620   23.0480  -31.9720 C   0  0  0  0  0  0  0  0  0  0  0  0
   -5.3850   21.7970  -32.2060 C   0  0  0  0  0  0  0  0  0  0  0  0
    0.8758   22.7847  -34.9646 H   0  0  0  0  0  0  0  0  0  0  0  0
    1.5464   21.8942  -36.3732 H   0  0  0  0  0  0  0  0  0  0  0  0
   -0.1742   22.4101  -36.3732 H   0  0  0  0  0  0  0  0  0  0  0  0
    0.2632   19.9308  -35.8652 H   0  0  0  0  0  0  0  0  0  0  0  0
    0.9789   20.4934  -34.3019 H   0  0  0  0  0  0  0  0  0  0  0  0
   -1.5570   21.6430  -34.9130 H   0  0  0  0  0  0  0  0  0  0  0  0
   -0.6074   20.0583  -32.5855 H   0  0  0  0  0  0  0  0  0  0  0  0
   -0.4451   21.8371  -32.7775 H   0  0  0  0  0  0  0  0  0  0  0  0
   -2.6789   20.3817  -31.7454 H   0  0  0  0  0  0  0  0  0  0  0  0
   -2.5615   22.1536  -32.0838 H   0  0  0  0  0  0  0  0  0  0  0  0
   -3.1960   20.2290  -34.2360 H   0  0  0  0  0  0  0  0  0  0  0  0
   -3.4310   21.8420  -34.2240 H   0  0  0  0  0  0  0  0  0  0  0  0
   -4.1008   18.8254  -34.7650 H   0  0  0  0  0  0  0  0  0  0  0  0
   -5.2810   16.6631  -35.0564 H   0  0  0  0  0  0  0  0  0  0  0  0
   -7.3315   16.1720  -33.7427 H   0  0  0  0  0  0  0  0  0  0  0  0
   -8.2881   17.8919  -32.2332 H   0  0  0  0  0  0  0  0  0  0  0  0
   -8.8194   20.2536  -30.3827 H   0  0  0  0  0  0  0  0  0  0  0  0
   -9.3342   21.1095  -31.8757 H   0  0  0  0  0  0  0  0  0  0  0  0
   -9.1750   19.3203  -31.8757 H   0  0  0  0  0  0  0  0  0  0  0  0
   -8.0281   22.2080  -30.0499 H   0  0  0  0  0  0  0  0  0  0  0  0
   -6.8479   24.3412  -29.6089 H   0  0  0  0  0  0  0  0  0  0  0  0
   -4.1150   25.6960  -31.5960 H   0  0  0  0  0  0  0  0  0  0  0  0
   -4.6740   25.6740  -29.8920 H   0  0  0  0  0  0  0  0  0  0  0  0
   -3.8424   23.3031  -32.5190 H   0  0  0  0  0  0  0  0  0  0  0  0
  1  2  1  0
  2  3  1  0
  3  4  1  0
  4  5  1  0
  5  6  1  0
  6  7  1  0
  7  8  2  0
  8  9  1  0
  9 10  2  0
 10 11  1  0
 11 12  2  0
 12 13  1  0
 13 14  2  0
 14 15  1  0
 14 16  1  0
 16 17  2  0
 17 18  1  0
 18 19  2  0
 19 20  1  0
 19 21  1  0
 21 22  2  0
 22  7  1  0
 13  8  1  0
 22 16  1  0
  1 23  1  0
  1 24  1  0
  1 25  1  0
  2 26  1  0
  2 27  1  0
  3 28  1  0
  4 29  1  0
  4 30  1  0
  5 31  1  0
  5 32  1  0
  6 33  1  0
  6 34  1  0
  9 35  1  0
 10 36  1  0
 11 37  1  0
 12 38  1  0
 15 39  1  0
 15 40  1  0
 15 41  1  0
 17 42  1  0
 18 43  1  0
 20 44  1  0
 20 45  1  0
 21 46  1  0
M  CHG  2   6   1  14   1
M  END
>  <UniqueID>  (6) 
6

>  <SMILES>  (6) 
CCNCC[NH2+]c1c2ccccc2[n+](C)c2ccc(N)cc12

>  <Energy>  (6) 
71.88848277110048

>  <Genealogy>  (6) 
CCNCC[NH2+]c1c2ccccc2[n+](C)c2ccc(N)cc12 (protonated)
CCNCC[NH2+]c1c2ccccc2[n+](C)c2ccc(N)cc12 (3D coordinates assigned)
CCNCC[NH2+]c1c2ccccc2[n+](C)c2ccc(N)cc12 (optimized conformer: 71.88848277110048 kcal/mol)

>  <smiles>  (6) 
CCNCCNc1c2ccccc2[n+](C)c2ccc(N)cc12

>  <score_type>  (6) 
oracle

>  <origin>  (6) 
adg

>  <m_score__min__energy>  (6) 
-7.6900000000000004

>  <m_primary>  (6) 
energy

$$$$
6:0
     RDKit          3D

 34 35  0  0  0  0  0  0  0  0999 V2000
   -9.0956   22.1077  -31.0215 H   0  0  0  0  0  0  0  0  0  0  0  0
   -9.0640   21.2660  -31.7290 C   0  0  0  0  0  0  0  0  0  0  0  0
   -9.9811   20.7019  -31.9539 H   0  0  0  0  0  0  0  0  0  0  0  0
   -7.9120   20.9290  -32.3150 C   0  0  0  0  0  0  0  0  0  0  0  0
   -6.6770   21.5390  -32.1330 C   0  0  0  0  0  0  0  0  0  0  0  0
   -6.3520   22.6780  -31.1970 C   0  0  0  0  0  0  0  0  0  0  0  0
   -7.2487   22.9242  -30.6093 H   0  0  0  0  0  0  0  0  0  0  0  0
   -5.5279   22.3604  -30.5413 H   0  0  0  0  0  0  0  0  0  0  0  0
   -5.9010   23.9270  -31.9640 C   0  0  0  0  0  0  0  0  0  0  0  0
   -5.4110   23.6178  -32.8991 H   0  0  0  0  0  0  0  0  0  0  0  0
   -6.7851   24.5452  -32.1791 H   0  0  0  0  0  0  0  0  0  0  0  0
   -4.9910   24.6920  -31.1950 O   0  0  0  0  0  0  0  0  0  0  0  0
   -5.6530   25.3010  -30.1080 C   0  0  0  0  0  0  0  0  0  0  0  0
   -5.2370   24.9183  -29.1643 H   0  0  0  0  0  0  0  0  0  0  0  0
   -5.5110   26.3907  -30.1561 H   0  0  0  0  0  0  0  0  0  0  0  0
   -6.7271   25.0687  -30.1561 H   0  0  0  0  0  0  0  0  0  0  0  0
   -5.7740   20.8350  -32.9270 C   0  0  0  0  0  0  0  0  0  0  0  0
   -4.2900   21.0780  -32.9690 C   0  0  0  0  0  0  0  0  0  0  0  0
   -3.8997   21.1419  -31.9426 H   0  0  0  0  0  0  0  0  0  0  0  0
   -3.7974   20.2485  -33.4976 H   0  0  0  0  0  0  0  0  0  0  0  0
   -4.0877   22.0212  -33.4976 H   0  0  0  0  0  0  0  0  0  0  0  0
   -6.5190   19.8520  -33.5940 C   0  0  0  0  0  0  0  0  0  0  0  0
   -6.1100   18.9360  -34.4900 C   0  0  0  0  0  0  0  0  0  0  0  0
   -6.1908   19.2035  -35.5539 H   0  0  0  0  0  0  0  0  0  0  0  0
   -5.5650   17.6100  -34.1720 C   0  0  0  0  0  0  0  0  0  0  0  0
   -6.0000   16.6680  -32.8450 S   0  0  0  0  0  0  0  0  0  0  0  0
   -4.8160   15.4980  -33.0760 C   0  0  0  0  0  0  0  0  0  0  0  0
   -4.5630   13.9630  -31.9740 Br  0  0  0  0  0  0  0  0  0  0  0  0
   -4.0400   15.8500  -34.1700 C   0  0  0  0  0  0  0  0  0  0  0  0
   -3.1909   15.2494  -34.5282 H   0  0  0  0  0  0  0  0  0  0  0  0
   -4.4460   17.0470  -34.7730 C   0  0  0  0  0  0  0  0  0  0  0  0
   -3.9311   17.4960  -35.6351 H   0  0  0  0  0  0  0  0  0  0  0  0
   -7.8050   19.9110  -33.1890 N   0  0  0  0  0  0  0  0  0  0  0  0
   -8.5850   19.2900  -33.5090 H   0  0  0  0  0  0  0  0  0  0  0  0
  1  2  1  0
  2  3  1  0
  2  4  2  0
  4  5  1  0
  5  6  1  0
  6  7  1  0
  6  8  1  0
  6  9  1  0
  9 10  1  0
  9 11  1  0
  9 12  1  0
 12 13  1  0
 13 14  1  0
 13 15  1  0
 13 16  1  0
  5 17  2  0
 17 18  1  0
 18 19  1  0
 18 20  1  0
 18 21  1  0
 17 22  1  0
 22 23  2  0
 23 24  1  0
 23 25  1  0
 25 26  1  0
 26 27  1  0
 27 28  1  0
 27 29  2  0
 29 30  1  0
 29 31  1  0
 31 32  1  0
 22 33  1  0
 33 34  1  0
 33  4  1  0
 31 25  2  0
M  END
>  <UniqueID>  (7) 
7

>  <SMILES>  (7) 
C=c1[nH]/c(=C/c2ccc(Br)s2)c(C)c1CCOC

>  <Energy>  (7) 
95.88571316992545

>  <Genealogy>  (7) 
C=c1[nH]/c(=C/c2ccc(Br)s2)c(C)c1CCOC (cis-trans isomerization)
C=c1[nH]/c(=C/c2ccc(Br)s2)c(C)c1CCOC (3D coordinates assigned)
C=c1[nH]/c(=C/c2ccc(Br)s2)c(C)c1CCOC (optimized conformer: 95.88571316992545 kcal/mol)

>  <smiles>  (7) 
C=c1[nH]c(=Cc2ccc(Br)s2)c(C)c1CCOC

>  <score_type>  (7) 
oracle

>  <origin>  (7) 
adg

>  <m_score__min__energy>  (7) 
-7.7000000000000002

>  <m_primary>  (7) 
energy

$$$$
7:0
     RDKit          3D

 52 53  0  0  0  0  0  0  0  0999 V2000
   -5.9710   25.2950  -30.4740 C   0  0  0  0  0  0  0  0  0  0  0  0
   -4.7090   24.4320  -30.4910 C   0  0  0  0  0  0  0  0  0  0  0  0
   -4.1890   24.0940  -29.0810 C   0  0  0  0  0  0  0  0  0  0  0  0
   -2.7530   23.5390  -29.0680 C   0  0  0  0  0  0  0  0  0  0  0  0
   -2.7160   22.0610  -29.1330 N   0  0  0  0  0  0  0  0  0  0  0  0
   -3.0620   21.3550  -27.8750 C   0  0  0  0  0  0  0  0  0  0  0  0
   -1.9200   20.5150  -27.2780 C   0  0  0  0  0  0  0  0  0  0  0  0
   -1.5870   21.4720  -29.8930 C   0  0  0  0  0  0  0  0  0  0  0  0
   -2.0000   20.7660  -31.1940 C   0  0  0  0  0  0  0  0  0  0  0  0
   -2.3410   21.7620  -32.2210 N   0  0  0  0  0  0  0  0  0  0  0  0
   -2.9500   21.1320  -33.3990 C   0  0  0  0  0  0  0  0  0  0  0  0
   -4.3480   20.6900  -33.0650 C   0  0  0  0  0  0  0  0  0  0  0  0
   -4.7870   19.4070  -33.4080 C   0  0  0  0  0  0  0  0  0  0  0  0
   -6.0700   18.9810  -33.0550 C   0  0  0  0  0  0  0  0  0  0  0  0
   -6.5820   17.3580  -33.4930 Cl  0  0  0  0  0  0  0  0  0  0  0  0
   -6.9400   19.8380  -32.3590 C   0  0  0  0  0  0  0  0  0  0  0  0
   -6.4940   21.1310  -31.9970 C   0  0  0  0  0  0  0  0  0  0  0  0
   -5.1980   21.5360  -32.3400 C   0  0  0  0  0  0  0  0  0  0  0  0
   -7.2630   22.0220  -31.2380 O   0  0  0  0  0  0  0  0  0  0  0  0
   -8.6610   21.8910  -31.0130 C   0  0  0  0  0  0  0  0  0  0  0  0
   -9.3880   21.4390  -32.2720 C   0  0  0  0  0  0  0  0  0  0  0  0
   -9.4370   19.9190  -32.3580 C   0  0  0  0  0  0  0  0  0  0  0  0
   -8.1940   19.3370  -31.9880 O   0  0  0  0  0  0  0  0  0  0  0  0
   -6.2641   25.4955  -29.4329 H   0  0  0  0  0  0  0  0  0  0  0  0
   -5.7714   26.2466  -30.9884 H   0  0  0  0  0  0  0  0  0  0  0  0
   -6.7854   24.7638  -30.9884 H   0  0  0  0  0  0  0  0  0  0  0  0
   -4.9348   23.4919  -31.0155 H   0  0  0  0  0  0  0  0  0  0  0  0
   -3.9236   25.0095  -31.0005 H   0  0  0  0  0  0  0  0  0  0  0  0
   -4.2127   25.0105  -28.4731 H   0  0  0  0  0  0  0  0  0  0  0  0
   -4.8420   23.3061  -28.6776 H   0  0  0  0  0  0  0  0  0  0  0  0
   -2.2105   23.9439  -29.9350 H   0  0  0  0  0  0  0  0  0  0  0  0
   -2.2855   23.8437  -28.1200 H   0  0  0  0  0  0  0  0  0  0  0  0
   -3.3603   22.1074  -27.1301 H   0  0  0  0  0  0  0  0  0  0  0  0
   -3.8698   20.6511  -28.1242 H   0  0  0  0  0  0  0  0  0  0  0  0
   -1.9720   20.5533  -26.1799 H   0  0  0  0  0  0  0  0  0  0  0  0
   -2.0178   19.4720  -27.6136 H   0  0  0  0  0  0  0  0  0  0  0  0
   -0.9535   20.9190  -27.6136 H   0  0  0  0  0  0  0  0  0  0  0  0
   -0.8845   22.2794  -30.1473 H   0  0  0  0  0  0  0  0  0  0  0  0
   -1.1390   20.7033  -29.2461 H   0  0  0  0  0  0  0  0  0  0  0  0
   -1.1657   20.1448  -31.5519 H   0  0  0  0  0  0  0  0  0  0  0  0
   -2.8788   20.1340  -30.9983 H   0  0  0  0  0  0  0  0  0  0  0  0
   -3.0490   22.4170  -31.8130 H   0  0  0  0  0  0  0  0  0  0  0  0
   -2.9823   21.8561  -34.2265 H   0  0  0  0  0  0  0  0  0  0  0  0
   -2.3513   20.2591  -33.6985 H   0  0  0  0  0  0  0  0  0  0  0  0
   -4.1182   18.7294  -33.9589 H   0  0  0  0  0  0  0  0  0  0  0  0
   -4.8424   22.5316  -32.0362 H   0  0  0  0  0  0  0  0  0  0  0  0
   -8.8273   21.1490  -30.2182 H   0  0  0  0  0  0  0  0  0  0  0  0
   -9.0573   22.8742  -30.7194 H   0  0  0  0  0  0  0  0  0  0  0  0
  -10.4154   21.8316  -32.2547 H   0  0  0  0  0  0  0  0  0  0  0  0
   -8.8437   21.8222  -33.1477 H   0  0  0  0  0  0  0  0  0  0  0  0
  -10.2212   19.5476  -31.6819 H   0  0  0  0  0  0  0  0  0  0  0  0
   -9.6536   19.6386  -33.3994 H   0  0  0  0  0  0  0  0  0  0  0  0
  1  2  1  0
  2  3  1  0
  3  4  1  0
  4  5  1  0
  5  6  1  0
  6  7  1  0
  5  8  1  0
  8  9  1  0
  9 10  1  0
 10 11  1  0
 11 12  1  0
 12 13  2  0
 13 14  1  0
 14 15  1  0
 14 16  2  0
 16 17  1  0
 17 18  2  0
 17 19  1  0
 19 20  1  0
 20 21  1  0
 21 22  1  0
 22 23  1  0
 18 12  1  0
 23 16  1  0
  1 24  1  0
  1 25  1  0
  1 26  1  0
  2 27  1  0
  2 28  1  0
  3 29  1  0
  3 30  1  0
  4 31  1  0
  4 32  1  0
  6 33  1  0
  6 34  1  0
  7 35  1  0
  7 36  1  0
  7 37  1  0
  8 38  1  0
  8 39  1  0
  9 40  1  0
  9 41  1  0
 10 42  1  0
 11 43  1  0
 11 44  1  0
 13 45  1  0
 18 46  1  0
 20 47  1  0
 20 48  1  0
 21 49  1  0
 21 50  1  0
 22 51  1  0
 22 52  1  0
M  END
>  <UniqueID>  (8) 
8

>  <SMILES>  (8) 
CCCCN(CC)CCNCc1cc(Cl)c2c(c1)OCCCO2

>  <Energy>  (8) 
60.4251580985854

>  <Genealogy>  (8) 
CCCCN(CC)CCNCc1cc(Cl)c2c(c1)OCCCO2 (3D coordinates assigned)
CCCCN(CC)CCNCc1cc(Cl)c2c(c1)OCCCO2 (nonaromatic ring conformer: 60.4251580985854 kcal/mol)

>  <smiles>  (8) 
CCCCN(CC)CCNCc1cc(Cl)c2c(c1)OCCCO2

>  <score_type>  (8) 
oracle

>  <origin>  (8) 
adg

>  <m_score__min__energy>  (8) 
-5.7400000000000002

>  <m_primary>  (8) 
energy

$$$$
8:0
     RDKit          3D

 31 33  0  0  0  0  0  0  0  0999 V2000
   -2.0130   21.9390  -31.6230 C   0  0  0  0  0  0  0  0  0  0  0  0
   -3.4610   21.7610  -31.7950 N   0  0  0  0  0  0  0  0  0  0  0  0
   -3.9270   20.6120  -32.3010 N   0  0  0  0  0  0  0  0  0  0  0  0
   -5.2600   20.3750  -32.4690 C   0  0  0  0  0  0  0  0  0  0  0  0
   -5.6800   19.0570  -33.0000 C   0  0  0  0  0  0  0  0  0  0  0  0
   -5.3220   18.6630  -34.3000 C   0  0  0  0  0  0  0  0  0  0  0  0
   -5.7460   17.4310  -34.8040 C   0  0  0  0  0  0  0  0  0  0  0  0
   -6.5410   16.5890  -34.0190 C   0  0  0  0  0  0  0  0  0  0  0  0
   -6.9520   15.3940  -34.5100 F   0  0  0  0  0  0  0  0  0  0  0  0
   -6.9140   16.9820  -32.7310 C   0  0  0  0  0  0  0  0  0  0  0  0
   -6.4920   18.2150  -32.2230 C   0  0  0  0  0  0  0  0  0  0  0  0
   -6.1880   21.3800  -32.1230 C   0  0  0  0  0  0  0  0  0  0  0  0
   -7.5770   21.2310  -32.3340 C   0  0  0  0  0  0  0  0  0  0  0  0
   -8.4620   22.2470  -31.9690 C   0  0  0  0  0  0  0  0  0  0  0  0
   -7.9810   23.4260  -31.4020 C   0  0  0  0  0  0  0  0  0  0  0  0
   -6.6100   23.6020  -31.2070 C   0  0  0  0  0  0  0  0  0  0  0  0
   -5.7030   22.5870  -31.5720 C   0  0  0  0  0  0  0  0  0  0  0  0
   -4.3180   22.7560  -31.4100 C   0  0  0  0  0  0  0  0  0  0  0  0
   -3.8630   23.8250  -30.9110 O   0  0  0  0  0  0  0  0  0  0  0  0
   -1.7721   21.9686  -30.5501 H   0  0  0  0  0  0  0  0  0  0  0  0
   -1.4817   21.0994  -32.0950 H   0  0  0  0  0  0  0  0  0  0  0  0
   -1.7009   22.8823  -32.0950 H   0  0  0  0  0  0  0  0  0  0  0  0
   -3.2550   19.8550  -32.5640 H   0  0  0  0  0  0  0  0  0  0  0  0
   -4.7054   19.3271  -34.9235 H   0  0  0  0  0  0  0  0  0  0  0  0
   -5.4545   17.1227  -35.8189 H   0  0  0  0  0  0  0  0  0  0  0  0
   -7.5409   16.3203  -32.1152 H   0  0  0  0  0  0  0  0  0  0  0  0
   -6.7968   18.5258  -31.2128 H   0  0  0  0  0  0  0  0  0  0  0  0
   -7.9640   20.3075  -32.7893 H   0  0  0  0  0  0  0  0  0  0  0  0
   -9.5424   22.1167  -32.1294 H   0  0  0  0  0  0  0  0  0  0  0  0
   -8.6834   24.2196  -31.1075 H   0  0  0  0  0  0  0  0  0  0  0  0
   -6.2357   24.5377  -30.7662 H   0  0  0  0  0  0  0  0  0  0  0  0
  1  2  1  0
  2  3  1  0
  3  4  2  0
  4  5  1  0
  5  6  2  0
  6  7  1  0
  7  8  2  0
  8  9  1  0
  8 10  1  0
 10 11  2  0
  4 12  1  0
 12 13  2  0
 13 14  1  0
 14 15  2  0
 15 16  1  0
 16 17  2  0
 17 18  1  0
 18 19  2  0
 18  2  1  0
 11  5  1  0
 17 12  1  0
  1 20  1  0
  1 21  1  0
  1 22  1  0
  3 23  1  0
  6 24  1  0
  7 25  1  0
 10 26  1  0
 11 27  1  0
 13 28  1  0
 14 29  1  0
 15 30  1  0
 16 31  1  0
M  CHG  1   3   1
M  END
>  <UniqueID>  (9) 
9

>  <SMILES>  (9) 
Cn1[nH+]c(-c2ccc(F)cc2)c2ccccc2c1=O

>  <Energy>  (9) 
48.45187288685507

>  <Genealogy>  (9) 
Cn1[nH+]c(-c2ccc(F)cc2)c2ccccc2c1=O (protonated)
Cn1[nH+]c(-c2ccc(F)cc2)c2ccccc2c1=O (3D coordinates assigned)
Cn1[nH+]c(-c2ccc(F)cc2)c2ccccc2c1=O (optimized conformer: 48.45187288685507 kcal/mol)

>  <smiles>  (9) 
Cn1nc(-c2ccc(F)cc2)c2ccccc2c1=O

>  <score_type>  (9) 
oracle

>  <origin>  (9) 
adg

>  <m_score__min__energy>  (9) 
-6.9100000000000001

>  <m_primary>  (9) 
energy

$$$$
9:0
     RDKit          3D

 47 50  0  0  0  0  0  0  0  0999 V2000
   -8.8490   19.2510  -33.7460 H   0  0  0  0  0  0  0  0  0  0  0  0
   -9.4060   19.8050  -33.1380 O   0  0  0  0  0  0  0  0  0  0  0  0
   -8.7830   19.7720  -31.8840 C   0  0  0  0  0  0  0  0  0  0  0  0
   -9.0581   18.8419  -31.3652 H   0  0  0  0  0  0  0  0  0  0  0  0
   -9.1128   20.6403  -31.2947 H   0  0  0  0  0  0  0  0  0  0  0  0
   -7.2850   19.8270  -32.0490 C   0  0  0  0  0  0  0  0  0  0  0  0
   -6.5610   20.8580  -31.4280 C   0  0  0  0  0  0  0  0  0  0  0  0
   -7.0905   21.5964  -30.8080 H   0  0  0  0  0  0  0  0  0  0  0  0
   -5.1680   20.9580  -31.5890 C   0  0  0  0  0  0  0  0  0  0  0  0
   -4.4080   22.0450  -30.9210 C   0  0  0  0  0  0  0  0  0  0  0  0
   -5.0400   23.2700  -30.5810 C   0  0  0  0  0  0  0  0  0  0  0  0
   -6.1051   23.4152  -30.8143 H   0  0  0  0  0  0  0  0  0  0  0  0
   -4.3210   24.2990  -29.9500 C   0  0  0  0  0  0  0  0  0  0  0  0
   -4.8033   25.2508  -29.6827 H   0  0  0  0  0  0  0  0  0  0  0  0
   -2.9780   24.0700  -29.6760 C   0  0  0  0  0  0  0  0  0  0  0  0
   -2.1200   24.9270  -29.0830 N   0  0  0  0  0  0  0  0  0  0  0  0
   -0.9770   24.1930  -29.0790 C   0  0  0  0  0  0  0  0  0  0  0  0
    0.1380   24.6400  -28.5890 N   0  0  0  0  0  0  0  0  0  0  0  0
    0.6460   24.3030  -27.2620 C   0  0  0  0  0  0  0  0  0  0  0  0
    0.3808   23.2631  -27.0206 H   0  0  0  0  0  0  0  0  0  0  0  0
    1.7403   24.4139  -27.2483 H   0  0  0  0  0  0  0  0  0  0  0  0
    0.0340   25.2270  -26.2430 C   0  0  0  0  0  0  0  0  0  0  0  0
   -0.1420   26.5860  -26.5570 C   0  0  0  0  0  0  0  0  0  0  0  0
    0.1525   26.9601  -27.5486 H   0  0  0  0  0  0  0  0  0  0  0  0
   -0.6880   27.4640  -25.6190 C   0  0  0  0  0  0  0  0  0  0  0  0
   -0.8302   28.5238  -25.8771 H   0  0  0  0  0  0  0  0  0  0  0  0
   -1.0540   27.0000  -24.3540 C   0  0  0  0  0  0  0  0  0  0  0  0
   -1.4872   27.6933  -23.6180 H   0  0  0  0  0  0  0  0  0  0  0  0
   -0.8700   25.6550  -24.0230 C   0  0  0  0  0  0  0  0  0  0  0  0
   -1.1550   25.2933  -23.0240 H   0  0  0  0  0  0  0  0  0  0  0  0
   -0.3250   24.7660  -24.9560 C   0  0  0  0  0  0  0  0  0  0  0  0
   -0.0960   23.0870  -24.4770 Cl  0  0  0  0  0  0  0  0  0  0  0  0
   -1.1330   22.9670  -29.6360 N   0  0  0  0  0  0  0  0  0  0  0  0
   -0.4260   22.2070  -29.7630 H   0  0  0  0  0  0  0  0  0  0  0  0
   -2.3950   22.9100  -30.0030 N   0  0  0  0  0  0  0  0  0  0  0  0
   -3.0410   21.8850  -30.6120 C   0  0  0  0  0  0  0  0  0  0  0  0
   -2.5124   20.9524  -30.8588 H   0  0  0  0  0  0  0  0  0  0  0  0
   -4.5070   20.0150  -32.3920 C   0  0  0  0  0  0  0  0  0  0  0  0
   -3.4166   20.0788  -32.5221 H   0  0  0  0  0  0  0  0  0  0  0  0
   -5.2210   18.9970  -33.0270 C   0  0  0  0  0  0  0  0  0  0  0  0
   -4.6893   18.2682  -33.6563 H   0  0  0  0  0  0  0  0  0  0  0  0
   -6.6170   18.8960  -32.8680 C   0  0  0  0  0  0  0  0  0  0  0  0
   -7.3610   17.8910  -33.5080 O   0  0  0  0  0  0  0  0  0  0  0  0
   -6.8610   16.6000  -33.8410 C   0  0  0  0  0  0  0  0  0  0  0  0
   -6.6447   16.0414  -32.9184 H   0  0  0  0  0  0  0  0  0  0  0  0
   -7.6136   16.0563  -34.4309 H   0  0  0  0  0  0  0  0  0  0  0  0
   -5.9385   16.7050  -34.4309 H   0  0  0  0  0  0  0  0  0  0  0  0
  1  2  1  0
  2  3  1  0
  3  4  1  0
  3  5  1  0
  3  6  1  0
  6  7  2  0
  7  8  1  0
  7  9  1  0
  9 10  1  0
 10 11  1  0
 11 12  1  0
 11 13  2  0
 13 14  1  0
 13 15  1  0
 15 16  2  0
 16 17  1  0
 17 18  2  0
 18 19  1  0
 19 20  1  0
 19 21  1  0
 19 22  1  0
 22 23  2  0
 23 24  1  0
 23 25  1  0
 25 26  1  0
 25 27  2  0
 27 28  1  0
 27 29  1  0
 29 30  1  0
 29 31  2  0
 31 32  1  0
 17 33  1  0
 33 34  1  0
 33 35  1  0
 35 36  1  0
 36 37  1  0
  9 38  2  0
 38 39  1  0
 38 40  1  0
 40 41  1  0
 40 42  2  0
 42 43  1  0
 43 44  1  0
 44 45  1  0
 44 46  1  0
 44 47  1  0
 42  6  1  0
 36 10  2  0
 35 15  1  0
 31 22  1  0
M  END
>  <UniqueID>  (10) 
10

>  <SMILES>  (10) 
COc1ccc(-c2ccc3n/c(=N/Cc4ccccc4Cl)[nH]n3c2)cc1CO

>  <Energy>  (10) 
96.18439099235827

>  <Genealogy>  (10) 
COc1ccc(-c2ccc3n/c(=N/Cc4ccccc4Cl)[nH]n3c2)cc1CO (cis-trans isomerization)
COc1ccc(-c2ccc3n/c(=N/Cc4ccccc4Cl)[nH]n3c2)cc1CO (3D coordinates assigned)
COc1ccc(-c2ccc3n/c(=N/Cc4ccccc4Cl)[nH]n3c2)cc1CO (optimized conformer: 96.18439099235827 kcal/mol)

>  <smiles>  (10) 
COc1ccc(-c2ccc3nc(=NCc4ccccc4Cl)[nH]n3c2)cc1CO

>  <score_type>  (10) 
oracle

>  <origin>  (10) 
adg

>  <m_score__min__energy>  (10) 
-8.5

>  <m_primary>  (10) 
energy

$$$$
10:0
     RDKit          3D

 30 29  0  0  0  0  0  0  0  0999 V2000
   -9.4720   21.8730  -31.6010 C   0  0  0  0  0  0  0  0  0  0  0  0
   -8.7420   20.5710  -31.9190 C   0  0  0  0  0  0  0  0  0  0  0  0
   -7.2800   20.8050  -31.9730 N   0  0  0  0  0  0  0  0  0  0  0  0
   -6.6720   20.1270  -33.1380 C   0  0  0  0  0  0  0  0  0  0  0  0
   -6.8560   18.6160  -33.0270 C   0  0  0  0  0  0  0  0  0  0  0  0
   -6.9580   22.2540  -31.9520 C   0  0  0  0  0  0  0  0  0  0  0  0
   -5.4890   22.4690  -32.3150 C   0  0  0  0  0  0  0  0  0  0  0  0
   -5.0250   23.6770  -31.7480 O   0  0  0  0  0  0  0  0  0  0  0  0
   -5.8810   24.1000  -30.7040 C   0  0  0  0  0  0  0  0  0  0  0  0
   -5.3370   25.3750  -30.0660 C   0  0  0  0  0  0  0  0  0  0  0  0
   -4.0790   25.6700  -30.6060 O   0  0  0  0  0  0  0  0  0  0  0  0
   -9.5417   21.9973  -30.5103 H   0  0  0  0  0  0  0  0  0  0  0  0
   -8.9168   22.7193  -32.0318 H   0  0  0  0  0  0  0  0  0  0  0  0
  -10.4836   21.8408  -32.0318 H   0  0  0  0  0  0  0  0  0  0  0  0
   -8.9629   19.8300  -31.1366 H   0  0  0  0  0  0  0  0  0  0  0  0
   -9.0824   20.1977  -32.8961 H   0  0  0  0  0  0  0  0  0  0  0  0
   -7.1554   20.4847  -34.0591 H   0  0  0  0  0  0  0  0  0  0  0  0
   -5.5963   20.3555  -33.1638 H   0  0  0  0  0  0  0  0  0  0  0  0
   -6.8911   18.3279  -31.9660 H   0  0  0  0  0  0  0  0  0  0  0  0
   -7.7963   18.3241  -33.5175 H   0  0  0  0  0  0  0  0  0  0  0  0
   -6.0132   18.1070  -33.5175 H   0  0  0  0  0  0  0  0  0  0  0  0
   -7.5937   22.7789  -32.6803 H   0  0  0  0  0  0  0  0  0  0  0  0
   -7.1418   22.6499  -30.9423 H   0  0  0  0  0  0  0  0  0  0  0  0
   -4.8912   21.6309  -31.9274 H   0  0  0  0  0  0  0  0  0  0  0  0
   -5.3905   22.5215  -33.4093 H   0  0  0  0  0  0  0  0  0  0  0  0
   -6.8835   24.2962  -31.1120 H   0  0  0  0  0  0  0  0  0  0  0  0
   -5.9364   23.3100  -29.9406 H   0  0  0  0  0  0  0  0  0  0  0  0
   -6.0264   26.2082  -30.2673 H   0  0  0  0  0  0  0  0  0  0  0  0
   -5.2435   25.2291  -28.9797 H   0  0  0  0  0  0  0  0  0  0  0  0
   -4.2020   25.6910  -31.5910 H   0  0  0  0  0  0  0  0  0  0  0  0
  1  2  1  0
  2  3  1  0
  3  4  1  0
  4  5  1  0
  3  6  1  0
  6  7  1  0
  7  8  1  0
  8  9  1  0
  9 10  1  0
 10 11  1  0
  1 12  1  0
  1 13  1  0
  1 14  1  0
  2 15  1  0
  2 16  1  0
  4 17  1  0
  4 18  1  0
  5 19  1  0
  5 20  1  0
  5 21  1  0
  6 22  1  0
  6 23  1  0
  7 24  1  0
  7 25  1  0
  9 26  1  0
  9 27  1  0
 10 28  1  0
 10 29  1  0
 11 30  1  0
M  END
>  <UniqueID>  (11) 
11

>  <SMILES>  (11) 
CCN(CC)CCOCCO

>  <Energy>  (11) 
21.733308572293826

>  <Genealogy>  (11) 
CCN(CC)CCOCCO (3D coordinates assigned)
CCN(CC)CCOCCO (optimized conformer: 21.733308572293826 kcal/mol)

>  <smiles>  (11) 
CCN(CC)CCOCCO

>  <score_type>  (11) 
oracle

>  <origin>  (11) 
adg

>  <m_score__min__energy>  (11) 
-5.0499999999999998

>  <m_primary>  (11) 
energy

$$$$
11:0
     RDKit          3D

 66 69  0  0  0  0  0  0  0  0999 V2000
   -2.7810   20.5020  -27.5340 C   0  0  0  0  0  0  0  0  0  0  0  0
   -2.7570   20.7870  -29.0330 C   0  0  0  0  0  0  0  0  0  0  0  0
   -1.4620   20.3710  -29.6230 N   0  0  0  0  0  0  0  0  0  0  0  0
   -0.7680   19.3960  -28.7460 C   0  0  0  0  0  0  0  0  0  0  0  0
    0.5900   19.9410  -28.3140 C   0  0  0  0  0  0  0  0  0  0  0  0
   -0.5980   21.5450  -29.8930 C   0  0  0  0  0  0  0  0  0  0  0  0
   -1.4500   22.7880  -30.1770 C   0  0  0  0  0  0  0  0  0  0  0  0
   -1.2500   23.7770  -29.1810 O   0  0  0  0  0  0  0  0  0  0  0  0
   -2.4360   24.5190  -28.9750 C   0  0  0  0  0  0  0  0  0  0  0  0
   -3.4820   24.1130  -30.0050 C   0  0  0  0  0  0  0  0  0  0  0  0
   -4.0520   25.2700  -30.5780 O   0  0  0  0  0  0  0  0  0  0  0  0
   -5.3570   25.4670  -30.0720 C   0  0  0  0  0  0  0  0  0  0  0  0
   -6.3290   24.5390  -30.7970 C   0  0  0  0  0  0  0  0  0  0  0  0
   -5.6790   23.9000  -31.9420 N   0  0  0  0  0  0  0  0  0  0  0  0
   -5.7740   22.4870  -32.1830 C   0  0  0  0  0  0  0  0  0  0  0  0
   -7.0140   21.8080  -32.1550 C   0  0  0  0  0  0  0  0  0  0  0  0
   -8.2130   22.5090  -31.9150 C   0  0  0  0  0  0  0  0  0  0  0  0
   -9.4390   21.8510  -31.9580 C   0  0  0  0  0  0  0  0  0  0  0  0
   -9.4960   20.4940  -32.2540 C   0  0  0  0  0  0  0  0  0  0  0  0
   -8.3270   19.7720  -32.4920 C   0  0  0  0  0  0  0  0  0  0  0  0
   -7.0580   20.3950  -32.4200 C   0  0  0  0  0  0  0  0  0  0  0  0
   -5.8830   19.6840  -32.6290 N   0  0  0  0  0  0  0  0  0  0  0  0
   -5.8550   18.2130  -32.6320 C   0  0  0  0  0  0  0  0  0  0  0  0
   -4.7200   20.3960  -32.7670 C   0  0  0  0  0  0  0  0  0  0  0  0
   -4.6480   21.7500  -32.5230 C   0  0  0  0  0  0  0  0  0  0  0  0
   -3.4170   22.1960  -32.6580 O   0  0  0  0  0  0  0  0  0  0  0  0
   -2.6750   21.1720  -33.0180 C   0  0  0  0  0  0  0  0  0  0  0  0
   -1.3130   21.1890  -33.3040 C   0  0  0  0  0  0  0  0  0  0  0  0
   -0.7120   19.9940  -33.7310 C   0  0  0  0  0  0  0  0  0  0  0  0
   -1.4810   18.8210  -33.8780 C   0  0  0  0  0  0  0  0  0  0  0  0
   -2.8560   18.8240  -33.5820 C   0  0  0  0  0  0  0  0  0  0  0  0
   -3.4280   20.0150  -33.1180 C   0  0  0  0  0  0  0  0  0  0  0  0
   -2.7013   21.4486  -26.9795 H   0  0  0  0  0  0  0  0  0  0  0  0
   -3.7245   20.0013  -27.2710 H   0  0  0  0  0  0  0  0  0  0  0  0
   -1.9345   19.8506  -27.2710 H   0  0  0  0  0  0  0  0  0  0  0  0
   -3.5714   20.2304  -29.5198 H   0  0  0  0  0  0  0  0  0  0  0  0
   -2.8873   21.8678  -29.1904 H   0  0  0  0  0  0  0  0  0  0  0  0
   -1.3837   19.2087  -27.8539 H   0  0  0  0  0  0  0  0  0  0  0  0
   -0.6156   18.4602  -29.3037 H   0  0  0  0  0  0  0  0  0  0  0  0
    0.6438   19.9626  -27.2155 H   0  0  0  0  0  0  0  0  0  0  0  0
    1.3871   19.2931  -28.7075 H   0  0  0  0  0  0  0  0  0  0  0  0
    0.7181   20.9602  -28.7075 H   0  0  0  0  0  0  0  0  0  0  0  0
    0.0379   21.7353  -29.0158 H   0  0  0  0  0  0  0  0  0  0  0  0
    0.0241   21.3323  -30.7749 H   0  0  0  0  0  0  0  0  0  0  0  0
   -1.1684   23.2014  -31.1567 H   0  0  0  0  0  0  0  0  0  0  0  0
   -2.5104   22.4954  -30.1737 H   0  0  0  0  0  0  0  0  0  0  0  0
   -2.8214   24.3190  -27.9643 H   0  0  0  0  0  0  0  0  0  0  0  0
   -2.2173   25.5917  -29.0818 H   0  0  0  0  0  0  0  0  0  0  0  0
   -3.0064   23.5100  -30.7925 H   0  0  0  0  0  0  0  0  0  0  0  0
   -4.2688   23.5210  -29.5147 H   0  0  0  0  0  0  0  0  0  0  0  0
   -5.3705   25.2432  -28.9951 H   0  0  0  0  0  0  0  0  0  0  0  0
   -5.6589   26.5125  -30.2328 H   0  0  0  0  0  0  0  0  0  0  0  0
   -6.6753   23.7626  -30.0990 H   0  0  0  0  0  0  0  0  0  0  0  0
   -7.1803   25.1334  -31.1605 H   0  0  0  0  0  0  0  0  0  0  0  0
   -5.0350   24.4720  -32.5320 H   0  0  0  0  0  0  0  0  0  0  0  0
   -8.1797   23.5856  -31.6917 H   0  0  0  0  0  0  0  0  0  0  0  0
  -10.3665   22.4072  -31.7569 H   0  0  0  0  0  0  0  0  0  0  0  0
  -10.4705   19.9859  -32.3008 H   0  0  0  0  0  0  0  0  0  0  0  0
   -8.3920   18.7022  -32.7394 H   0  0  0  0  0  0  0  0  0  0  0  0
   -5.8480   17.8443  -31.5957 H   0  0  0  0  0  0  0  0  0  0  0  0
   -6.7460   17.8304  -33.1513 H   0  0  0  0  0  0  0  0  0  0  0  0
   -4.9501   17.8645  -33.1513 H   0  0  0  0  0  0  0  0  0  0  0  0
   -0.7242   22.1122  -33.1985 H   0  0  0  0  0  0  0  0  0  0  0  0
    0.3653   19.9726  -33.9522 H   0  0  0  0  0  0  0  0  0  0  0  0
   -1.0009   17.8950  -34.2274 H   0  0  0  0  0  0  0  0  0  0  0  0
   -3.4646   17.9168  -33.7113 H   0  0  0  0  0  0  0  0  0  0  0  0
  1  2  1  0
  2  3  1  0
  3  4  1  0
  4  5  1  0
  3  6  1  0
  6  7  1  0
  7  8  1  0
  8  9  1  0
  9 10  1  0
 10 11  1  0
 11 12  1  0
 12 13  1  0
 13 14  1  0
 14 15  1  0
 15 16  2  0
 16 17  1  0
 17 18  2  0
 18 19  1  0
 19 20  2  0
 20 21  1  0
 21 22  2  0
 22 23  1  0
 22 24  1  0
 24 25  2  0
 25 26  1  0
 26 27  1  0
 27 28  2  0
 28 29  1  0
 29 30  2  0
 30 31  1  0
 31 32  2  0
 25 15  1  0
 32 27  1  0
 21 16  1  0
 32 24  1  0
  1 33  1  0
  1 34  1  0
  1 35  1  0
  2 36  1  0
  2 37  1  0
  4 38  1  0
  4 39  1  0
  5 40  1  0
  5 41  1  0
  5 42  1  0
  6 43  1  0
  6 44  1  0
  7 45  1  0
  7 46  1  0
  9 47  1  0
  9 48  1  0
 10 49  1  0
 10 50  1  0
 12 51  1  0
 12 52  1  0
 13 53  1  0
 13 54  1  0
 14 55  1  0
 17 56  1  0
 18 57  1  0
 19 58  1  0
 20 59  1  0
 23 60  1  0
 23 61  1  0
 23 62  1  0
 28 63  1  0
 29 64  1  0
 30 65  1  0
 31 66  1  0
M  CHG  1  22   1
M  END
>  <UniqueID>  (12) 
12

>  <SMILES>  (12) 
CCN(CC)CCOCCOCCNc1c2ccccc2[n+](C)c2c1oc1ccccc12

>  <Energy>  (12) 
121.70653746606536

>  <Genealogy>  (12) 
CCN(CC)CCOCCOCCNc1c2ccccc2[n+](C)c2c1oc1ccccc12 (3D coordinates assigned)
CCN(CC)CCOCCOCCNc1c2ccccc2[n+](C)c2c1oc1ccccc12 (optimized conformer: 121.70653746606536 kcal/mol)

>  <smiles>  (12) 
CCN(CC)CCOCCOCCNc1c2ccccc2[n+](C)c2c1oc1ccccc12

>  <score_type>  (12) 
oracle

>  <origin>  (12) 
adg

>  <m_score__min__energy>  (12) 
-9.3699999999999992

>  <m_primary>  (12) 
energy

$$$$
12:0
     RDKit          3D

 42 44  0  0  0  0  0  0  0  0999 V2000
   -6.4450   26.0250  -29.3280 C   0  0  0  0  0  0  0  0  0  0  0  0
   -6.9470   24.6980  -29.8860 C   0  0  0  0  0  0  0  0  0  0  0  0
   -6.0370   24.2060  -30.9310 N   0  0  0  0  0  0  0  0  0  0  0  0
   -6.5880   23.8320  -32.2420 C   0  0  0  0  0  0  0  0  0  0  0  0
   -7.1050   22.4220  -32.2160 C   0  0  0  0  0  0  0  0  0  0  0  0
   -8.3300   22.1170  -31.6040 C   0  0  0  0  0  0  0  0  0  0  0  0
   -8.7780   20.7950  -31.5770 C   0  0  0  0  0  0  0  0  0  0  0  0
   -7.9980   19.7830  -32.1490 C   0  0  0  0  0  0  0  0  0  0  0  0
   -8.4180   18.4450  -32.1390 C   0  0  0  0  0  0  0  0  0  0  0  0
   -7.6130   17.4570  -32.7150 C   0  0  0  0  0  0  0  0  0  0  0  0
   -6.3900   17.7990  -33.3030 C   0  0  0  0  0  0  0  0  0  0  0  0
   -5.9640   19.1300  -33.3170 C   0  0  0  0  0  0  0  0  0  0  0  0
   -6.7630   20.1260  -32.7430 C   0  0  0  0  0  0  0  0  0  0  0  0
   -6.3530   21.4220  -32.7560 N   0  0  0  0  0  0  0  0  0  0  0  0
   -4.6280   24.0540  -30.6320 C   0  0  0  0  0  0  0  0  0  0  0  0
   -3.8400   25.0200  -30.8300 O   0  0  0  0  0  0  0  0  0  0  0  0
   -4.0470   22.7550  -30.1380 C   0  0  0  0  0  0  0  0  0  0  0  0
   -3.0790   22.1750  -31.1380 C   0  0  0  0  0  0  0  0  0  0  0  0
   -3.5110   21.8260  -32.4280 C   0  0  0  0  0  0  0  0  0  0  0  0
   -2.5990   21.2770  -33.3330 C   0  0  0  0  0  0  0  0  0  0  0  0
   -1.3070   21.0750  -32.9640 N   0  0  0  0  0  0  0  0  0  0  0  0
   -0.8640   21.3900  -31.7180 C   0  0  0  0  0  0  0  0  0  0  0  0
   -1.7420   21.9390  -30.7810 C   0  0  0  0  0  0  0  0  0  0  0  0
   -6.4586   25.9891  -28.2287 H   0  0  0  0  0  0  0  0  0  0  0  0
   -5.4171   26.2039  -29.6764 H   0  0  0  0  0  0  0  0  0  0  0  0
   -7.0972   26.8395  -29.6764 H   0  0  0  0  0  0  0  0  0  0  0  0
   -6.9989   23.9590  -29.0729 H   0  0  0  0  0  0  0  0  0  0  0  0
   -7.9451   24.8487  -30.3231 H   0  0  0  0  0  0  0  0  0  0  0  0
   -7.4125   24.5146  -32.4956 H   0  0  0  0  0  0  0  0  0  0  0  0
   -5.7896   23.9029  -32.9953 H   0  0  0  0  0  0  0  0  0  0  0  0
   -8.9342   22.9151  -31.1479 H   0  0  0  0  0  0  0  0  0  0  0  0
   -9.7418   20.5491  -31.1073 H   0  0  0  0  0  0  0  0  0  0  0  0
   -9.3793   18.1730  -31.6787 H   0  0  0  0  0  0  0  0  0  0  0  0
   -7.9423   16.4075  -32.7058 H   0  0  0  0  0  0  0  0  0  0  0  0
   -5.7619   17.0176  -33.7557 H   0  0  0  0  0  0  0  0  0  0  0  0
   -5.0014   19.3949  -33.7788 H   0  0  0  0  0  0  0  0  0  0  0  0
   -3.5185   22.9358  -29.1904 H   0  0  0  0  0  0  0  0  0  0  0  0
   -4.8691   22.0386  -29.9933 H   0  0  0  0  0  0  0  0  0  0  0  0
   -4.5588   21.9836  -32.7234 H   0  0  0  0  0  0  0  0  0  0  0  0
   -2.9280   21.0075  -34.3474 H   0  0  0  0  0  0  0  0  0  0  0  0
    0.1873   21.2122  -31.4475 H   0  0  0  0  0  0  0  0  0  0  0  0
   -1.3880   22.1851  -29.7690 H   0  0  0  0  0  0  0  0  0  0  0  0
  1  2  1  0
  2  3  1  0
  3  4  1  0
  4  5  1  0
  5  6  2  0
  6  7  1  0
  7  8  2  0
  8  9  1  0
  9 10  2  0
 10 11  1  0
 11 12  2  0
 12 13  1  0
 13 14  2  0
  3 15  1  0
 15 16  2  0
 15 17  1  0
 17 18  1  0
 18 19  2  0
 19 20  1  0
 20 21  2  0
 21 22  1  0
 22 23  2  0
 14  5  1  0
 23 18  1  0
 13  8  1  0
  1 24  1  0
  1 25  1  0
  1 26  1  0
  2 27  1  0
  2 28  1  0
  4 29  1  0
  4 30  1  0
  6 31  1  0
  7 32  1  0
  9 33  1  0
 10 34  1  0
 11 35  1  0
 12 36  1  0
 17 37  1  0
 17 38  1  0
 19 39  1  0
 20 40  1  0
 22 41  1  0
 23 42  1  0
M  END
>  <UniqueID>  (13) 
13

>  <SMILES>  (13) 
CCN(Cc1ccc2ccccc2n1)C(=O)Cc1ccncc1

>  <Energy>  (13) 
42.056934473238606

>  <Genealogy>  (13) 
CCN(Cc1ccc2ccccc2n1)C(=O)Cc1ccncc1 (3D coordinates assigned)
CCN(Cc1ccc2ccccc2n1)C(=O)Cc1ccncc1 (optimized conformer: 42.056934473238606 kcal/mol)

>  <smiles>  (13) 
CCN(Cc1ccc2ccccc2n1)C(=O)Cc1ccncc1

>  <score_type>  (13) 
oracle

>  <origin>  (13) 
adg

>  <m_score__min__energy>  (13) 
-8.5399999999999991

>  <m_primary>  (13) 
energy

$$$$
13:0
     RDKit          3D

 57 60  0  0  0  0  0  0  0  0999 V2000
   -8.7490   20.2000  -31.2620 C   0  0  0  0  0  0  0  0  0  0  0  0
   -8.2620   21.3810  -32.0980 C   0  0  0  0  0  0  0  0  0  0  0  0
   -6.8320   21.6210  -31.8760 N   0  0  0  0  0  0  0  0  0  0  0  0
   -5.7960   20.7930  -32.1840 C   0  0  0  0  0  0  0  0  0  0  0  0
   -5.9420   19.4600  -32.7980 C   0  0  0  0  0  0  0  0  0  0  0  0
   -6.0050   18.3180  -31.9840 C   0  0  0  0  0  0  0  0  0  0  0  0
   -6.1280   17.0500  -32.5600 C   0  0  0  0  0  0  0  0  0  0  0  0
   -6.1810   16.9150  -33.9510 C   0  0  0  0  0  0  0  0  0  0  0  0
   -6.1100   18.0480  -34.7660 C   0  0  0  0  0  0  0  0  0  0  0  0
   -5.9890   19.3170  -34.1920 C   0  0  0  0  0  0  0  0  0  0  0  0
   -4.5790   21.3840  -31.8390 C   0  0  0  0  0  0  0  0  0  0  0  0
   -3.1970   20.8890  -32.1600 C   0  0  0  0  0  0  0  0  0  0  0  0
   -3.0380   20.6920  -33.6100 N   0  0  0  0  0  0  0  0  0  0  0  0
   -1.6360   20.4720  -34.0150 C   0  0  0  0  0  0  0  0  0  0  0  0
   -1.3040   18.9700  -34.1560 C   0  0  0  0  0  0  0  0  0  0  0  0
   -2.4240   18.0750  -33.7720 N   0  0  0  0  0  0  0  0  0  0  0  0
   -2.0010   17.0660  -32.7630 C   0  0  0  0  0  0  0  0  0  0  0  0
   -2.8300   15.7760  -32.8700 C   0  0  0  0  0  0  0  0  0  0  0  0
   -2.6960   15.1250  -34.1270 O   0  0  0  0  0  0  0  0  0  0  0  0
   -2.4480   16.0170  -35.2060 C   0  0  0  0  0  0  0  0  0  0  0  0
   -3.0140   17.4330  -34.9790 C   0  0  0  0  0  0  0  0  0  0  0  0
   -4.9040   22.6170  -31.3090 C   0  0  0  0  0  0  0  0  0  0  0  0
   -4.0890   23.6480  -30.8390 C   0  0  0  0  0  0  0  0  0  0  0  0
   -4.7120   24.8210  -30.3790 C   0  0  0  0  0  0  0  0  0  0  0  0
   -6.1180   24.9380  -30.4000 C   0  0  0  0  0  0  0  0  0  0  0  0
   -6.9150   23.8860  -30.8830 C   0  0  0  0  0  0  0  0  0  0  0  0
   -6.2720   22.7290  -31.3420 C   0  0  0  0  0  0  0  0  0  0  0  0
   -8.6495   20.4414  -30.1934 H   0  0  0  0  0  0  0  0  0  0  0  0
   -9.8045   19.9962  -31.4951 H   0  0  0  0  0  0  0  0  0  0  0  0
   -8.1439   19.3115  -31.4951 H   0  0  0  0  0  0  0  0  0  0  0  0
   -8.4301   21.1628  -33.1630 H   0  0  0  0  0  0  0  0  0  0  0  0
   -8.8213   22.2797  -31.7987 H   0  0  0  0  0  0  0  0  0  0  0  0
   -5.9575   18.4211  -30.8899 H   0  0  0  0  0  0  0  0  0  0  0  0
   -6.1831   16.1580  -31.9187 H   0  0  0  0  0  0  0  0  0  0  0  0
   -6.2786   15.9171  -34.4035 H   0  0  0  0  0  0  0  0  0  0  0  0
   -6.1494   17.9412  -35.8601 H   0  0  0  0  0  0  0  0  0  0  0  0
   -5.9305   20.2066  -34.8364 H   0  0  0  0  0  0  0  0  0  0  0  0
   -2.4594   21.6276  -31.8130 H   0  0  0  0  0  0  0  0  0  0  0  0
   -3.0402   19.9254  -31.6532 H   0  0  0  0  0  0  0  0  0  0  0  0
   -3.3710   21.5680  -34.0760 H   0  0  0  0  0  0  0  0  0  0  0  0
   -1.4640   20.9662  -34.9826 H   0  0  0  0  0  0  0  0  0  0  0  0
   -0.9863   20.8919  -33.2330 H   0  0  0  0  0  0  0  0  0  0  0  0
   -1.0422   18.7688  -35.2053 H   0  0  0  0  0  0  0  0  0  0  0  0
   -0.4716   18.7579  -33.4689 H   0  0  0  0  0  0  0  0  0  0  0  0
   -3.1750   18.6680  -33.3420 H   0  0  0  0  0  0  0  0  0  0  0  0
   -0.9404   16.8230  -32.9242 H   0  0  0  0  0  0  0  0  0  0  0  0
   -2.1585   17.4939  -31.7619 H   0  0  0  0  0  0  0  0  0  0  0  0
   -2.5016   15.0833  -32.0811 H   0  0  0  0  0  0  0  0  0  0  0  0
   -3.8876   16.0578  -32.7597 H   0  0  0  0  0  0  0  0  0  0  0  0
   -1.3602   16.0961  -35.3488 H   0  0  0  0  0  0  0  0  0  0  0  0
   -2.9570   15.6040  -36.0894 H   0  0  0  0  0  0  0  0  0  0  0  0
   -2.7875   18.0528  -35.8591 H   0  0  0  0  0  0  0  0  0  0  0  0
   -4.0999   17.3477  -34.8258 H   0  0  0  0  0  0  0  0  0  0  0  0
   -2.9938   23.5458  -30.8289 H   0  0  0  0  0  0  0  0  0  0  0  0
   -4.0998   25.6528  -30.0004 H   0  0  0  0  0  0  0  0  0  0  0  0
   -6.5942   25.8601  -30.0354 H   0  0  0  0  0  0  0  0  0  0  0  0
   -8.0118   23.9686  -30.9001 H   0  0  0  0  0  0  0  0  0  0  0  0
  1  2  1  0
  2  3  1  0
  3  4  1  0
  4  5  1  0
  5  6  2  0
  6  7  1  0
  7  8  2  0
  8  9  1  0
  9 10  2  0
  4 11  2  0
 11 12  1  0
 12 13  1  0
 13 14  1  0
 14 15  1  0
 15 16  1  0
 16 17  1  0
 17 18  1  0
 18 19  1  0
 19 20  1  0
 20 21  1  0
 11 22  1  0
 22 23  2  0
 23 24  1  0
 24 25  2  0
 25 26  1  0
 26 27  2  0
 27  3  1  0
 10  5  1  0
 21 16  1  0
 27 22  1  0
  1 28  1  0
  1 29  1  0
  1 30  1  0
  2 31  1  0
  2 32  1  0
  6 33  1  0
  7 34  1  0
  8 35  1  0
  9 36  1  0
 10 37  1  0
 12 38  1  0
 12 39  1  0
 13 40  1  0
 14 41  1  0
 14 42  1  0
 15 43  1  0
 15 44  1  0
 16 45  1  0
 17 46  1  0
 17 47  1  0
 18 48  1  0
 18 49  1  0
 20 50  1  0
 20 51  1  0
 21 52  1  0
 21 53  1  0
 23 54  1  0
 24 55  1  0
 25 56  1  0
 26 57  1  0
M  CHG  1  16   1
M  END
>  <UniqueID>  (14) 
14

>  <SMILES>  (14) 
CCn1c(-c2ccccc2)c(CNCC[NH+]2CCOCC2)c2ccccc21

>  <Energy>  (14) 
107.94051862648318

>  <Genealogy>  (14) 
CCn1c(-c2ccccc2)c(CNCC[NH+]2CCOCC2)c2ccccc21 (protonated)
CCn1c(-c2ccccc2)c(CNCC[NH+]2CCOCC2)c2ccccc21 (3D coordinates assigned)
CCn1c(-c2ccccc2)c(CNCC[NH+]2CCOCC2)c2ccccc21 (nonaromatic ring conformer: 107.94051862648318 kcal/mol)

>  <smiles>  (14) 
CCn1c(-c2ccccc2)c(CNCCN2CCOCC2)c2ccccc21

>  <score_type>  (14) 
oracle

>  <origin>  (14) 
adg

>  <m_score__min__energy>  (14) 
-8.8100000000000005

>  <m_primary>  (14) 
energy

$$$$
14:0
     RDKit          3D

 45 47  0  0  0  0  0  0  0  0999 V2000
   -7.4600   22.6210  -30.9260 C   0  0  0  0  0  0  0  0  0  0  0  0
   -7.1910   23.1940  -32.3190 C   0  0  0  0  0  0  0  0  0  0  0  0
   -5.7890   23.6290  -32.4760 N   0  0  0  0  0  0  0  0  0  0  0  0
   -4.8700   23.0330  -31.4920 C   0  0  0  0  0  0  0  0  0  0  0  0
   -3.6620   22.3100  -32.1320 C   0  0  0  0  0  0  0  0  0  0  0  0
   -3.9410   21.7610  -33.4720 N   0  0  0  0  0  0  0  0  0  0  0  0
   -3.9800   20.3160  -33.4670 C   0  0  0  0  0  0  0  0  0  0  0  0
   -2.9560   19.4510  -33.8530 C   0  0  0  0  0  0  0  0  0  0  0  0
   -1.5700   19.8020  -34.2150 C   0  0  0  0  0  0  0  0  0  0  0  0
   -1.0680   21.0940  -33.9860 C   0  0  0  0  0  0  0  0  0  0  0  0
    0.2500   21.4090  -34.3310 C   0  0  0  0  0  0  0  0  0  0  0  0
    1.0900   20.4330  -34.8860 C   0  0  0  0  0  0  0  0  0  0  0  0
    2.4910   20.7830  -35.2920 C   0  0  0  0  0  0  0  0  0  0  0  0
    0.5900   19.1410  -35.1090 C   0  0  0  0  0  0  0  0  0  0  0  0
   -0.7270   18.8250  -34.7630 C   0  0  0  0  0  0  0  0  0  0  0  0
   -3.4320   18.1850  -33.9230 N   0  0  0  0  0  0  0  0  0  0  0  0
   -4.7250   18.3080  -33.5650 C   0  0  0  0  0  0  0  0  0  0  0  0
   -5.6470   17.2650  -33.4960 C   0  0  0  0  0  0  0  0  0  0  0  0
   -6.9640   17.5790  -33.1280 C   0  0  0  0  0  0  0  0  0  0  0  0
   -7.3240   18.9080  -32.8420 C   0  0  0  0  0  0  0  0  0  0  0  0
   -9.1160   19.3340  -32.3410 Br  0  0  0  0  0  0  0  0  0  0  0  0
   -6.3560   19.9200  -32.9270 C   0  0  0  0  0  0  0  0  0  0  0  0
   -5.0900   19.5740  -33.2880 N   0  0  0  0  0  0  0  0  0  0  0  0
   -7.1232   23.3384  -30.1631 H   0  0  0  0  0  0  0  0  0  0  0  0
   -8.5381   22.4380  -30.8067 H   0  0  0  0  0  0  0  0  0  0  0  0
   -6.9121   21.6747  -30.8067 H   0  0  0  0  0  0  0  0  0  0  0  0
   -7.4090   22.4201  -33.0697 H   0  0  0  0  0  0  0  0  0  0  0  0
   -7.8373   24.0736  -32.4556 H   0  0  0  0  0  0  0  0  0  0  0  0
   -5.4370   23.4920  -33.4500 H   0  0  0  0  0  0  0  0  0  0  0  0
   -4.4907   23.8341  -30.8406 H   0  0  0  0  0  0  0  0  0  0  0  0
   -5.4409   22.2758  -30.9346 H   0  0  0  0  0  0  0  0  0  0  0  0
   -2.8328   23.0278  -32.2166 H   0  0  0  0  0  0  0  0  0  0  0  0
   -3.4155   21.4584  -31.4809 H   0  0  0  0  0  0  0  0  0  0  0  0
   -4.8690   22.1210  -33.7870 H   0  0  0  0  0  0  0  0  0  0  0  0
   -3.2480   22.1130  -34.1670 H   0  0  0  0  0  0  0  0  0  0  0  0
   -1.7142   21.8607  -33.5336 H   0  0  0  0  0  0  0  0  0  0  0  0
    0.6299   22.4281  -34.1661 H   0  0  0  0  0  0  0  0  0  0  0  0
    3.1058   20.9366  -34.3929 H   0  0  0  0  0  0  0  0  0  0  0  0
    2.9150   19.9632  -35.8904 H   0  0  0  0  0  0  0  0  0  0  0  0
    2.4796   21.7059  -35.8904 H   0  0  0  0  0  0  0  0  0  0  0  0
    1.2373   18.3734  -35.5581 H   0  0  0  0  0  0  0  0  0  0  0  0
   -1.1041   17.8039  -34.9216 H   0  0  0  0  0  0  0  0  0  0  0  0
   -5.3518   16.2298  -33.7226 H   0  0  0  0  0  0  0  0  0  0  0  0
   -7.7188   16.7815  -33.0629 H   0  0  0  0  0  0  0  0  0  0  0  0
   -6.6136   20.9666  -32.7075 H   0  0  0  0  0  0  0  0  0  0  0  0
  1  2  1  0
  2  3  1  0
  3  4  1  0
  4  5  1  0
  5  6  1  0
  6  7  1  0
  7  8  2  0
  8  9  1  0
  9 10  2  0
 10 11  1  0
 11 12  2  0
 12 13  1  0
 12 14  1  0
 14 15  2  0
  8 16  1  0
 16 17  2  0
 17 18  1  0
 18 19  2  0
 19 20  1  0
 20 21  1  0
 20 22  2  0
 22 23  1  0
 23  7  1  0
 15  9  1  0
 23 17  1  0
  1 24  1  0
  1 25  1  0
  1 26  1  0
  2 27  1  0
  2 28  1  0
  3 29  1  0
  4 30  1  0
  4 31  1  0
  5 32  1  0
  5 33  1  0
  6 34  1  0
  6 35  1  0
 10 36  1  0
 11 37  1  0
 13 38  1  0
 13 39  1  0
 13 40  1  0
 14 41  1  0
 15 42  1  0
 18 43  1  0
 19 44  1  0
 22 45  1  0
M  CHG  1   6   1
M  END
>  <UniqueID>  (15) 
15

>  <SMILES>  (15) 
CCNCC[NH2+]c1c(-c2ccc(C)cc2)nc2ccc(Br)cn12

>  <Energy>  (15) 
88.13398871898099

>  <Genealogy>  (15) 
CCNCC[NH2+]c1c(-c2ccc(C)cc2)nc2ccc(Br)cn12 (protonated)
CCNCC[NH2+]c1c(-c2ccc(C)cc2)nc2ccc(Br)cn12 (3D coordinates assigned)
CCNCC[NH2+]c1c(-c2ccc(C)cc2)nc2ccc(Br)cn12 (optimized conformer: 88.13398871898099 kcal/mol)

>  <smiles>  (15) 
CCNCCNc1c(-c2ccc(C)cc2)nc2ccc(Br)cn12

>  <score_type>  (15) 
oracle

>  <origin>  (15) 
adg

>  <m_score__min__energy>  (15) 
-7.5899999999999999

>  <m_primary>  (15) 
energy

$$$$
15:0
     RDKit          3D

 60 63  0  0  0  0  0  0  0  0999 V2000
   -5.7380   17.9670  -35.1440 C   0  0  0  0  0  0  0  0  0  0  0  0
   -5.7750   16.8450  -34.1000 C   0  0  0  0  0  0  0  0  0  0  0  0
   -5.9480   17.3300  -32.7150 N   0  0  0  0  0  0  0  0  0  0  0  0
   -5.6100   16.3840  -31.6340 C   0  0  0  0  0  0  0  0  0  0  0  0
   -4.8210   15.1750  -32.1380 C   0  0  0  0  0  0  0  0  0  0  0  0
   -6.7970   18.4750  -32.4560 C   0  0  0  0  0  0  0  0  0  0  0  0
   -8.1820   18.2660  -32.4560 C   0  0  0  0  0  0  0  0  0  0  0  0
   -9.0660   19.3200  -32.2860 C   0  0  0  0  0  0  0  0  0  0  0  0
   -8.5920   20.6230  -32.1460 C   0  0  0  0  0  0  0  0  0  0  0  0
   -9.5120   21.6770  -32.0140 C   0  0  0  0  0  0  0  0  0  0  0  0
   -9.0670   22.9910  -31.9000 C   0  0  0  0  0  0  0  0  0  0  0  0
   -7.7040   23.2680  -31.9280 C   0  0  0  0  0  0  0  0  0  0  0  0
   -6.7740   22.2340  -32.0530 C   0  0  0  0  0  0  0  0  0  0  0  0
   -7.1930   20.8820  -32.1410 C   0  0  0  0  0  0  0  0  0  0  0  0
   -6.2740   19.7850  -32.2430 C   0  0  0  0  0  0  0  0  0  0  0  0
   -4.7700   19.9800  -32.0310 C   0  0  0  0  0  0  0  0  0  0  0  0
   -3.9850   20.0300  -33.2900 N   0  0  0  0  0  0  0  0  0  0  0  0
   -3.0920   18.8390  -33.3660 C   0  0  0  0  0  0  0  0  0  0  0  0
   -1.8630   19.0760  -34.2510 C   0  0  0  0  0  0  0  0  0  0  0  0
   -1.0980   20.2210  -33.7410 N   0  0  0  0  0  0  0  0  0  0  0  0
    0.3110   20.3450  -34.0330 C   0  0  0  0  0  0  0  0  0  0  0  0
    1.2540   19.6000  -33.3010 C   0  0  0  0  0  0  0  0  0  0  0  0
    2.6190   19.7100  -33.5810 C   0  0  0  0  0  0  0  0  0  0  0  0
    3.0600   20.5670  -34.5920 C   0  0  0  0  0  0  0  0  0  0  0  0
    2.1360   21.3180  -35.3220 C   0  0  0  0  0  0  0  0  0  0  0  0
    0.7680   21.2130  -35.0480 C   0  0  0  0  0  0  0  0  0  0  0  0
   -0.1000   21.9830  -35.7500 F   0  0  0  0  0  0  0  0  0  0  0  0
   -1.8080   21.2690  -32.9980 C   0  0  0  0  0  0  0  0  0  0  0  0
   -3.2700   21.3290  -33.4560 C   0  0  0  0  0  0  0  0  0  0  0  0
   -5.7059   18.9412  -34.6343 H   0  0  0  0  0  0  0  0  0  0  0  0
   -4.8431   17.8528  -35.7734 H   0  0  0  0  0  0  0  0  0  0  0  0
   -6.6384   17.9120  -35.7734 H   0  0  0  0  0  0  0  0  0  0  0  0
   -6.6128   16.1739  -34.3405 H   0  0  0  0  0  0  0  0  0  0  0  0
   -4.8025   16.3328  -34.1429 H   0  0  0  0  0  0  0  0  0  0  0  0
   -5.0054   16.9106  -30.8809 H   0  0  0  0  0  0  0  0  0  0  0  0
   -6.5538   16.0127  -31.2081 H   0  0  0  0  0  0  0  0  0  0  0  0
   -4.4450   14.5988  -31.2797 H   0  0  0  0  0  0  0  0  0  0  0  0
   -5.4774   14.5374  -32.7484 H   0  0  0  0  0  0  0  0  0  0  0  0
   -3.9731   15.5191  -32.7484 H   0  0  0  0  0  0  0  0  0  0  0  0
   -8.5750   17.2478  -32.5933 H   0  0  0  0  0  0  0  0  0  0  0  0
  -10.1486   19.1267  -32.2614 H   0  0  0  0  0  0  0  0  0  0  0  0
  -10.5908   21.4623  -32.0007 H   0  0  0  0  0  0  0  0  0  0  0  0
   -9.7928   23.8100  -31.7878 H   0  0  0  0  0  0  0  0  0  0  0  0
   -7.3565   24.3088  -31.8511 H   0  0  0  0  0  0  0  0  0  0  0  0
   -5.7004   22.4716  -32.0837 H   0  0  0  0  0  0  0  0  0  0  0  0
   -4.6165   20.9252  -31.4897 H   0  0  0  0  0  0  0  0  0  0  0  0
   -4.4119   19.1063  -31.4667 H   0  0  0  0  0  0  0  0  0  0  0  0
   -4.6500   19.9400  -34.0890 H   0  0  0  0  0  0  0  0  0  0  0  0
   -2.7513   18.5893  -32.3503 H   0  0  0  0  0  0  0  0  0  0  0  0
   -3.6708   18.0181  -33.8145 H   0  0  0  0  0  0  0  0  0  0  0  0
   -1.2273   18.1784  -34.2416 H   0  0  0  0  0  0  0  0  0  0  0  0
   -2.1906   19.2865  -35.2798 H   0  0  0  0  0  0  0  0  0  0  0  0
    0.9140   18.9253  -32.5015 H   0  0  0  0  0  0  0  0  0  0  0  0
    3.3471   19.1207  -33.0043 H   0  0  0  0  0  0  0  0  0  0  0  0
    4.1343   20.6504  -34.8131 H   0  0  0  0  0  0  0  0  0  0  0  0
    2.4853   21.9948  -36.1157 H   0  0  0  0  0  0  0  0  0  0  0  0
   -1.7711   21.0430  -31.9221 H   0  0  0  0  0  0  0  0  0  0  0  0
   -1.3269   22.2396  -33.1889 H   0  0  0  0  0  0  0  0  0  0  0  0
   -3.7920   22.0950  -32.8638 H   0  0  0  0  0  0  0  0  0  0  0  0
   -3.2697   21.5705  -34.5292 H   0  0  0  0  0  0  0  0  0  0  0  0
  1  2  1  0
  2  3  1  0
  3  4  1  0
  4  5  1  0
  3  6  1  0
  6  7  2  0
  7  8  1  0
  8  9  2  0
  9 10  1  0
 10 11  2  0
 11 12  1  0
 12 13  2  0
 13 14  1  0
 14 15  2  0
 15 16  1  0
 16 17  1  0
 17 18  1  0
 18 19  1  0
 19 20  1  0
 20 21  1  0
 21 22  2  0
 22 23  1  0
 23 24  2  0
 24 25  1  0
 25 26  2  0
 26 27  1  0
 20 28  1  0
 28 29  1  0
 15  6  1  0
 29 17  1  0
 14  9  1  0
 26 21  1  0
  1 30  1  0
  1 31  1  0
  1 32  1  0
  2 33  1  0
  2 34  1  0
  4 35  1  0
  4 36  1  0
  5 37  1  0
  5 38  1  0
  5 39  1  0
  7 40  1  0
  8 41  1  0
 10 42  1  0
 11 43  1  0
 12 44  1  0
 13 45  1  0
 16 46  1  0
 16 47  1  0
 17 48  1  0
 18 49  1  0
 18 50  1  0
 19 51  1  0
 19 52  1  0
 22 53  1  0
 23 54  1  0
 24 55  1  0
 25 56  1  0
 28 57  1  0
 28 58  1  0
 29 59  1  0
 29 60  1  0
M  CHG  1  17   1
M  END
>  <UniqueID>  (16) 
16

>  <SMILES>  (16) 
CCN(CC)c1ccc2ccccc2c1C[NH+]1CCN(c2ccccc2F)CC1

>  <Energy>  (16) 
89.36685496653642

>  <Genealogy>  (16) 
CCN(CC)c1ccc2ccccc2c1C[NH+]1CCN(c2ccccc2F)CC1 (protonated)
CCN(CC)c1ccc2ccccc2c1C[NH+]1CCN(c2ccccc2F)CC1 (3D coordinates assigned)
CCN(CC)c1ccc2ccccc2c1C[NH+]1CCN(c2ccccc2F)CC1 (nonaromatic ring conformer: 89.36685496653642 kcal/mol)

>  <smiles>  (16) 
CCN(CC)c1ccc2ccccc2c1CN1CCN(c2ccccc2F)CC1

>  <score_type>  (16) 
oracle

>  <origin>  (16) 
adg

>  <m_score__min__energy>  (16) 
-8.1600000000000001

>  <m_primary>  (16) 
energy

$$$$
16:0
     RDKit          3D

 49 51  0  0  0  0  0  0  0  0999 V2000
   -1.0660   23.5390  -28.9450 C   0  0  0  0  0  0  0  0  0  0  0  0
   -1.5800   24.9390  -28.6270 C   0  0  0  0  0  0  0  0  0  0  0  0
   -2.7820   25.2140  -29.3440 O   0  0  0  0  0  0  0  0  0  0  0  0
   -3.9900   24.5430  -29.1160 C   0  0  0  0  0  0  0  0  0  0  0  0
   -4.1920   23.9550  -28.0180 O   0  0  0  0  0  0  0  0  0  0  0  0
   -5.0030   24.4060  -30.2270 C   0  0  2  0  0  0  0  0  0  0  0  0
   -6.4550   24.1640  -29.7310 C   0  0  0  0  0  0  0  0  0  0  0  0
   -7.2530   23.3960  -30.7010 N   0  0  0  0  0  0  0  0  0  0  0  0
   -6.9570   23.8010  -32.0770 C   0  0  0  0  0  0  0  0  0  0  0  0
   -5.5020   23.4410  -32.4420 C   0  0  0  0  0  0  0  0  0  0  0  0
   -4.6010   23.4260  -31.2670 N   0  0  0  0  0  0  0  0  0  0  0  0
   -4.1410   22.0770  -30.8390 C   0  0  0  0  0  0  0  0  0  0  0  0
   -3.1780   21.3900  -31.7900 C   0  0  0  0  0  0  0  0  0  0  0  0
   -1.7990   21.4260  -31.5120 C   0  0  0  0  0  0  0  0  0  0  0  0
   -0.8820   20.8190  -32.3710 C   0  0  0  0  0  0  0  0  0  0  0  0
   -1.3240   20.1980  -33.5370 C   0  0  0  0  0  0  0  0  0  0  0  0
   -2.6840   20.1880  -33.8510 C   0  0  0  0  0  0  0  0  0  0  0  0
   -3.6230   20.7760  -32.9830 C   0  0  0  0  0  0  0  0  0  0  0  0
   -4.9850   20.8230  -33.3210 O   0  0  0  0  0  0  0  0  0  0  0  0
   -5.9780   19.9480  -32.8560 C   0  0  0  0  0  0  0  0  0  0  0  0
   -5.6840   18.6430  -32.4150 C   0  0  0  0  0  0  0  0  0  0  0  0
   -6.7040   17.8170  -31.9330 C   0  0  0  0  0  0  0  0  0  0  0  0
   -8.0190   18.2870  -31.8770 C   0  0  0  0  0  0  0  0  0  0  0  0
   -8.3140   19.5860  -32.2980 C   0  0  0  0  0  0  0  0  0  0  0  0
   -7.2960   20.4150  -32.7790 C   0  0  0  0  0  0  0  0  0  0  0  0
   -0.8679   22.9993  -28.0072 H   0  0  0  0  0  0  0  0  0  0  0  0
   -1.8228   22.9943  -29.5286 H   0  0  0  0  0  0  0  0  0  0  0  0
   -0.1366   23.6134  -29.5286 H   0  0  0  0  0  0  0  0  0  0  0  0
   -1.7792   25.0132  -27.5477 H   0  0  0  0  0  0  0  0  0  0  0  0
   -0.8158   25.6710  -28.9274 H   0  0  0  0  0  0  0  0  0  0  0  0
   -5.0126   25.3942  -30.7102 H   0  0  0  0  0  0  0  0  0  0  0  0
   -6.4174   23.6070  -28.7832 H   0  0  0  0  0  0  0  0  0  0  0  0
   -6.9351   25.1450  -29.6000 H   0  0  0  0  0  0  0  0  0  0  0  0
   -8.2660   23.5840  -30.5140 H   0  0  0  0  0  0  0  0  0  0  0  0
   -7.6420   23.2814  -32.7631 H   0  0  0  0  0  0  0  0  0  0  0  0
   -7.0881   24.8896  -32.1647 H   0  0  0  0  0  0  0  0  0  0  0  0
   -5.4926   22.4430  -32.9045 H   0  0  0  0  0  0  0  0  0  0  0  0
   -5.1331   24.2146  -33.1315 H   0  0  0  0  0  0  0  0  0  0  0  0
   -3.6407   22.1814  -29.8649 H   0  0  0  0  0  0  0  0  0  0  0  0
   -5.0403   21.4444  -30.8060 H   0  0  0  0  0  0  0  0  0  0  0  0
   -1.4398   21.9384  -30.6073 H   0  0  0  0  0  0  0  0  0  0  0  0
    0.1906   20.8309  -32.1273 H   0  0  0  0  0  0  0  0  0  0  0  0
   -0.6008   19.7152  -34.2107 H   0  0  0  0  0  0  0  0  0  0  0  0
   -3.0247   19.7166  -34.7847 H   0  0  0  0  0  0  0  0  0  0  0  0
   -4.6488   18.2726  -32.4499 H   0  0  0  0  0  0  0  0  0  0  0  0
   -6.4711   16.7957  -31.5974 H   0  0  0  0  0  0  0  0  0  0  0  0
   -8.8212   17.6346  -31.5017 H   0  0  0  0  0  0  0  0  0  0  0  0
   -9.3485   19.9571  -32.2510 H   0  0  0  0  0  0  0  0  0  0  0  0
   -7.5319   21.4406  -33.0990 H   0  0  0  0  0  0  0  0  0  0  0  0
  1  2  1  0
  2  3  1  0
  3  4  1  0
  4  5  2  0
  4  6  1  0
  6  7  1  0
  7  8  1  0
  8  9  1  0
  9 10  1  0
 10 11  1  0
 11 12  1  0
 12 13  1  0
 13 14  2  0
 14 15  1  0
 15 16  2  0
 16 17  1  0
 17 18  2  0
 18 19  1  0
 19 20  1  0
 20 21  2  0
 21 22  1  0
 22 23  2  0
 23 24  1  0
 24 25  2  0
 11  6  1  0
 18 13  1  0
 25 20  1  0
  1 26  1  0
  1 27  1  0
  1 28  1  0
  2 29  1  0
  2 30  1  0
  6 31  1  6
  7 32  1  0
  7 33  1  0
  8 34  1  0
  9 35  1  0
  9 36  1  0
 10 37  1  0
 10 38  1  0
 12 39  1  0
 12 40  1  0
 14 41  1  0
 15 42  1  0
 16 43  1  0
 17 44  1  0
 21 45  1  0
 22 46  1  0
 23 47  1  0
 24 48  1  0
 25 49  1  0
M  END
>  <UniqueID>  (17) 
17

>  <SMILES>  (17) 
CCOC(=O)[C@@H]1CNCCN1Cc1ccccc1Oc1ccccc1

>  <Energy>  (17) 
68.75836046508697

>  <Genealogy>  (17) 
CCOC(=O)[C@@H]1CNCCN1Cc1ccccc1Oc1ccccc1 (chirality)
CCOC(=O)[C@@H]1CNCCN1Cc1ccccc1Oc1ccccc1 (3D coordinates assigned)
CCOC(=O)[C@@H]1CNCCN1Cc1ccccc1Oc1ccccc1 (nonaromatic ring conformer: 68.75836046508697 kcal/mol)

>  <smiles>  (17) 
CCOC(=O)C1CNCCN1Cc1ccccc1Oc1ccccc1

>  <score_type>  (17) 
oracle

>  <origin>  (17) 
adg

>  <m_score__min__energy>  (17) 
-8.1300000000000008

>  <m_primary>  (17) 
energy

$$$$
17:0
     RDKit          3D

 33 34  0  0  0  0  0  0  0  0999 V2000
   -3.4720   24.4820  -29.4440 C   0  0  0  0  0  0  0  0  0  0  0  0
   -3.8660   25.3260  -30.5040 O   0  0  0  0  0  0  0  0  0  0  0  0
   -5.2430   25.6380  -30.4010 C   0  0  0  0  0  0  0  0  0  0  0  0
   -6.0790   24.3580  -30.4180 C   0  0  0  0  0  0  0  0  0  0  0  0
   -5.4870   23.3880  -31.3460 N   0  0  0  0  0  0  0  0  0  0  0  0
   -6.4660   22.8960  -32.3300 C   0  0  0  0  0  0  0  0  0  0  0  0
   -6.3190   21.4160  -32.5860 C   0  0  0  0  0  0  0  0  0  0  0  0
   -5.1700   20.7330  -33.0050 C   0  0  0  0  0  0  0  0  0  0  0  0
   -3.8550   21.3460  -33.3690 C   0  0  0  0  0  0  0  0  0  0  0  0
   -5.3890   19.3900  -33.0240 N   0  0  0  0  0  0  0  0  0  0  0  0
   -6.6700   19.3150  -32.6220 C   0  0  0  0  0  0  0  0  0  0  0  0
   -7.6940   18.0050  -32.4210 S   0  0  0  0  0  0  0  0  0  0  0  0
   -8.9860   19.0310  -31.9700 C   0  0  0  0  0  0  0  0  0  0  0  0
   -8.5550   20.3690  -31.9970 C   0  0  0  0  0  0  0  0  0  0  0  0
   -9.4670   21.5310  -31.7570 C   0  0  0  0  0  0  0  0  0  0  0  0
   -7.2500   20.4730  -32.3630 N   0  0  0  0  0  0  0  0  0  0  0  0
   -3.6992   24.9686  -28.4840 H   0  0  0  0  0  0  0  0  0  0  0  0
   -4.0187   23.5298  -29.5108 H   0  0  0  0  0  0  0  0  0  0  0  0
   -2.3910   24.2896  -29.5108 H   0  0  0  0  0  0  0  0  0  0  0  0
   -5.4236   26.1771  -29.4593 H   0  0  0  0  0  0  0  0  0  0  0  0
   -5.5328   26.2664  -31.2561 H   0  0  0  0  0  0  0  0  0  0  0  0
   -6.1056   23.9261  -29.4067 H   0  0  0  0  0  0  0  0  0  0  0  0
   -7.1011   24.5970  -30.7469 H   0  0  0  0  0  0  0  0  0  0  0  0
   -4.6950   23.8530  -31.8460 H   0  0  0  0  0  0  0  0  0  0  0  0
   -7.4796   23.0912  -31.9500 H   0  0  0  0  0  0  0  0  0  0  0  0
   -6.2870   23.4232  -33.2787 H   0  0  0  0  0  0  0  0  0  0  0  0
   -3.3039   21.6029  -32.4523 H   0  0  0  0  0  0  0  0  0  0  0  0
   -3.2676   20.6289  -33.9612 H   0  0  0  0  0  0  0  0  0  0  0  0
   -4.0265   22.2570  -33.9612 H   0  0  0  0  0  0  0  0  0  0  0  0
   -9.9983   18.6956  -31.7003 H   0  0  0  0  0  0  0  0  0  0  0  0
   -9.5878   21.6849  -30.6745 H   0  0  0  0  0  0  0  0  0  0  0  0
   -9.0353   22.4356  -32.2100 H   0  0  0  0  0  0  0  0  0  0  0  0
  -10.4483   21.3266  -32.2100 H   0  0  0  0  0  0  0  0  0  0  0  0
  1  2  1  0
  2  3  1  0
  3  4  1  0
  4  5  1  0
  5  6  1  0
  6  7  1  0
  7  8  2  0
  8  9  1  0
  8 10  1  0
 10 11  2  0
 11 12  1  0
 12 13  1  0
 13 14  2  0
 14 15  1  0
 14 16  1  0
 16  7  1  0
 16 11  1  0
  1 17  1  0
  1 18  1  0
  1 19  1  0
  3 20  1  0
  3 21  1  0
  4 22  1  0
  4 23  1  0
  5 24  1  0
  6 25  1  0
  6 26  1  0
  9 27  1  0
  9 28  1  0
  9 29  1  0
 13 30  1  0
 15 31  1  0
 15 32  1  0
 15 33  1  0
M  END
>  <UniqueID>  (18) 
18

>  <SMILES>  (18) 
COCCNCc1c(C)nc2scc(C)n12

>  <Energy>  (18) 
108.22017345368907

>  <Genealogy>  (18) 
COCCNCc1c(C)nc2scc(C)n12 (3D coordinates assigned)
COCCNCc1c(C)nc2scc(C)n12 (optimized conformer: 108.22017345368907 kcal/mol)

>  <smiles>  (18) 
COCCNCc1c(C)nc2scc(C)n12

>  <score_type>  (18) 
oracle

>  <origin>  (18) 
adg

>  <m_score__min__energy>  (18) 
-6.6799999999999997

>  <m_primary>  (18) 
energy

$$$$
18:0
     RDKit          3D

 50 52  0  0  0  0  0  0  0  0999 V2000
   -6.1220   25.2210  -29.9350 C   0  0  0  0  0  0  0  0  0  0  0  0
   -6.3930   24.5020  -31.2580 C   0  0  0  0  0  0  0  0  0  0  0  0
   -6.4300   23.0270  -31.1370 N   0  0  0  0  0  0  0  0  0  0  0  0
   -7.7300   22.4730  -30.6740 C   0  0  0  0  0  0  0  0  0  0  0  0
   -8.9000   22.6530  -31.6530 C   0  0  0  0  0  0  0  0  0  0  0  0
   -5.2050   22.4400  -30.5500 C   0  0  0  0  0  0  0  0  0  0  0  0
   -3.9790   22.7540  -31.4150 C   0  0  0  0  0  0  0  0  0  0  0  0
   -4.2040   22.3470  -32.8000 N   0  0  0  0  0  0  0  0  0  0  0  0
   -4.0590   20.9750  -33.1850 C   0  0  0  0  0  0  0  0  0  0  0  0
   -2.7950   20.4310  -33.5000 C   0  0  0  0  0  0  0  0  0  0  0  0
   -1.6360   21.2300  -33.4500 C   0  0  0  0  0  0  0  0  0  0  0  0
   -0.3890   20.6920  -33.7630 C   0  0  0  0  0  0  0  0  0  0  0  0
   -0.2740   19.3550  -34.1300 C   0  0  0  0  0  0  0  0  0  0  0  0
   -1.4070   18.5410  -34.1930 C   0  0  0  0  0  0  0  0  0  0  0  0
   -2.6900   19.0540  -33.8850 C   0  0  0  0  0  0  0  0  0  0  0  0
   -3.8230   18.2590  -33.9480 N   0  0  0  0  0  0  0  0  0  0  0  0
   -3.7390   16.8410  -34.3470 C   0  0  0  0  0  0  0  0  0  0  0  0
   -5.0310   18.8150  -33.6250 C   0  0  0  0  0  0  0  0  0  0  0  0
   -6.5510   18.0750  -33.5760 S   0  0  0  0  0  0  0  0  0  0  0  0
   -7.3150   19.4880  -33.0590 C   0  0  0  0  0  0  0  0  0  0  0  0
   -9.0670   19.6220  -32.7130 S   0  0  0  0  0  0  0  0  0  0  0  0
   -8.9710   18.5550  -31.2430 C   0  0  0  0  0  0  0  0  0  0  0  0
   -6.4430   20.5110  -32.9240 N   0  0  0  0  0  0  0  0  0  0  0  0
   -5.1730   20.1400  -33.2440 C   0  0  0  0  0  0  0  0  0  0  0  0
   -6.3734   24.5541  -29.0971 H   0  0  0  0  0  0  0  0  0  0  0  0
   -5.0585   25.4961  -29.8784 H   0  0  0  0  0  0  0  0  0  0  0  0
   -6.7393   26.1297  -29.8784 H   0  0  0  0  0  0  0  0  0  0  0  0
   -7.3641   24.8431  -31.6460 H   0  0  0  0  0  0  0  0  0  0  0  0
   -5.5610   24.7483  -31.9340 H   0  0  0  0  0  0  0  0  0  0  0  0
   -7.5973   21.3957  -30.4957 H   0  0  0  0  0  0  0  0  0  0  0  0
   -7.9985   23.0367  -29.7684 H   0  0  0  0  0  0  0  0  0  0  0  0
   -9.8325   22.7965  -31.0875 H   0  0  0  0  0  0  0  0  0  0  0  0
   -8.7161   23.5334  -32.2863 H   0  0  0  0  0  0  0  0  0  0  0  0
   -8.9892   21.7580  -32.2863 H   0  0  0  0  0  0  0  0  0  0  0  0
   -5.0522   22.8573  -29.5438 H   0  0  0  0  0  0  0  0  0  0  0  0
   -5.3284   21.3482  -30.4986 H   0  0  0  0  0  0  0  0  0  0  0  0
   -3.7833   23.8360  -31.3842 H   0  0  0  0  0  0  0  0  0  0  0  0
   -3.1163   22.1978  -31.0195 H   0  0  0  0  0  0  0  0  0  0  0  0
   -4.6270   23.0130  -33.4860 H   0  0  0  0  0  0  0  0  0  0  0  0
   -1.7159   22.2884  -33.1612 H   0  0  0  0  0  0  0  0  0  0  0  0
    0.5080   21.3272  -33.7197 H   0  0  0  0  0  0  0  0  0  0  0  0
    0.7143   18.9369  -34.3718 H   0  0  0  0  0  0  0  0  0  0  0  0
   -1.3010   17.4861  -34.4862 H   0  0  0  0  0  0  0  0  0  0  0  0
   -3.7015   16.2087  -33.4477 H   0  0  0  0  0  0  0  0  0  0  0  0
   -4.6230   16.5755  -34.9454 H   0  0  0  0  0  0  0  0  0  0  0  0
   -2.8298   16.6817  -34.9454 H   0  0  0  0  0  0  0  0  0  0  0  0
   -9.0268   19.1747  -30.3359 H   0  0  0  0  0  0  0  0  0  0  0  0
   -9.8086   17.8420  -31.2521 H   0  0  0  0  0  0  0  0  0  0  0  0
   -8.0196   18.0030  -31.2521 H   0  0  0  0  0  0  0  0  0  0  0  0
   -6.7220   21.4600  -32.5910 H   0  0  0  0  0  0  0  0  0  0  0  0
  1  2  1  0
  2  3  1  0
  3  4  1  0
  4  5  1  0
  3  6  1  0
  6  7  1  0
  7  8  1  0
  8  9  1  0
  9 10  2  0
 10 11  1  0
 11 12  2  0
 12 13  1  0
 13 14  2  0
 14 15  1  0
 15 16  2  0
 16 17  1  0
 16 18  1  0
 18 19  1  0
 19 20  1  0
 20 21  1  0
 21 22  1  0
 20 23  2  0
 23 24  1  0
 24  9  1  0
 15 10  1  0
 24 18  2  0
  1 25  1  0
  1 26  1  0
  1 27  1  0
  2 28  1  0
  2 29  1  0
  4 30  1  0
  4 31  1  0
  5 32  1  0
  5 33  1  0
  5 34  1  0
  6 35  1  0
  6 36  1  0
  7 37  1  0
  7 38  1  0
  8 39  1  0
 11 40  1  0
 12 41  1  0
 13 42  1  0
 14 43  1  0
 17 44  1  0
 17 45  1  0
 17 46  1  0
 22 47  1  0
 22 48  1  0
 22 49  1  0
 23 50  1  0
M  CHG  2  16   1  23   1
M  END
>  <UniqueID>  (19) 
19

>  <SMILES>  (19) 
CCN(CC)CCNc1c2ccccc2[n+](C)c2sc(SC)[nH+]c12

>  <Energy>  (19) 
100.6331190843749

>  <Genealogy>  (19) 
CCN(CC)CCNc1c2ccccc2[n+](C)c2sc(SC)[nH+]c12 (protonated)
CCN(CC)CCNc1c2ccccc2[n+](C)c2sc(SC)[nH+]c12 (3D coordinates assigned)
CCN(CC)CCNc1c2ccccc2[n+](C)c2sc(SC)[nH+]c12 (optimized conformer: 100.6331190843749 kcal/mol)

>  <smiles>  (19) 
CCN(CC)CCNc1c2ccccc2[n+](C)c2sc(SC)nc12

>  <score_type>  (19) 
oracle

>  <origin>  (19) 
adg

>  <m_score__min__energy>  (19) 
-7.71

>  <m_primary>  (19) 
energy

$$$$
19:0
     RDKit          3D

 64 67  0  0  0  0  0  0  0  0999 V2000
   -0.9200   19.9800  -34.1890 C   0  0  0  0  0  0  0  0  0  0  0  0
   -1.2950   21.1500  -33.4690 O   0  0  0  0  0  0  0  0  0  0  0  0
   -2.5180   21.3230  -32.8010 C   0  0  0  0  0  0  0  0  0  0  0  0
   -3.7240   20.8570  -33.3330 C   0  0  0  0  0  0  0  0  0  0  0  0
   -4.9450   21.1190  -32.6900 C   0  0  0  0  0  0  0  0  0  0  0  0
   -6.1440   20.5460  -33.1560 C   0  0  0  0  0  0  0  0  0  0  0  0
   -6.1240   19.5880  -34.2280 N   0  0  0  0  0  0  0  0  0  0  0  0
   -5.4640   18.2960  -34.0600 C   0  0  0  0  0  0  0  0  0  0  0  0
   -6.5010   17.2080  -33.7670 C   0  0  0  0  0  0  0  0  0  0  0  0
   -6.3140   16.6730  -32.3990 N   0  0  0  0  0  0  0  0  0  0  0  0
   -4.9900   16.0500  -32.2650 C   0  0  0  0  0  0  0  0  0  0  0  0
   -6.4560   17.7410  -31.3930 C   0  0  0  0  0  0  0  0  0  0  0  0
   -7.3570   20.8710  -32.5210 C   0  0  0  0  0  0  0  0  0  0  0  0
   -8.5630   20.2300  -32.8750 C   0  0  0  0  0  0  0  0  0  0  0  0
   -9.7610   20.5740  -32.2490 C   0  0  0  0  0  0  0  0  0  0  0  0
   -9.7770   21.5500  -31.2600 C   0  0  0  0  0  0  0  0  0  0  0  0
   -8.5940   22.1930  -30.8930 C   0  0  0  0  0  0  0  0  0  0  0  0
   -7.3640   21.8720  -31.5180 C   0  0  0  0  0  0  0  0  0  0  0  0
   -6.1930   22.5130  -31.1690 N   0  0  0  0  0  0  0  0  0  0  0  0
   -6.2740   23.8590  -30.5680 C   0  0  0  0  0  0  0  0  0  0  0  0
   -4.9760   21.9970  -31.5770 C   0  0  0  0  0  0  0  0  0  0  0  0
   -3.7380   22.2970  -30.9230 C   0  0  0  0  0  0  0  0  0  0  0  0
   -3.6860   22.8530  -29.5170 C   0  0  0  0  0  0  0  0  0  0  0  0
   -2.5200   21.9630  -31.5560 C   0  0  0  0  0  0  0  0  0  0  0  0
   -1.2960   22.2730  -30.9450 O   0  0  0  0  0  0  0  0  0  0  0  0
   -0.4600   21.2750  -30.3550 C   0  0  0  0  0  0  0  0  0  0  0  0
   -0.8900   20.9680  -28.9480 C   0  0  0  0  0  0  0  0  0  0  0  0
   -1.2480   19.6580  -28.5840 C   0  0  0  0  0  0  0  0  0  0  0  0
   -1.5950   19.3650  -27.2620 C   0  0  0  0  0  0  0  0  0  0  0  0
   -1.5860   20.3730  -26.2960 C   0  0  0  0  0  0  0  0  0  0  0  0
   -1.2270   21.6760  -26.6490 C   0  0  0  0  0  0  0  0  0  0  0  0
   -0.8770   21.9750  -27.9690 C   0  0  0  0  0  0  0  0  0  0  0  0
   -0.6634   19.1794  -33.4796 H   0  0  0  0  0  0  0  0  0  0  0  0
   -1.7588   19.6543  -34.8218 H   0  0  0  0  0  0  0  0  0  0  0  0
   -0.0482   20.2025  -34.8218 H   0  0  0  0  0  0  0  0  0  0  0  0
   -3.7166   20.2773  -34.2678 H   0  0  0  0  0  0  0  0  0  0  0  0
   -6.8490   19.6740  -34.9770 H   0  0  0  0  0  0  0  0  0  0  0  0
   -4.9215   18.0422  -34.9826 H   0  0  0  0  0  0  0  0  0  0  0  0
   -4.7606   18.3586  -33.2166 H   0  0  0  0  0  0  0  0  0  0  0  0
   -7.5104   17.6363  -33.8540 H   0  0  0  0  0  0  0  0  0  0  0  0
   -6.3745   16.3896  -34.4910 H   0  0  0  0  0  0  0  0  0  0  0  0
   -4.7452   15.9348  -31.1988 H   0  0  0  0  0  0  0  0  0  0  0  0
   -4.9992   15.0617  -32.7479 H   0  0  0  0  0  0  0  0  0  0  0  0
   -4.2344   16.6871  -32.7479 H   0  0  0  0  0  0  0  0  0  0  0  0
   -6.3980   17.3050  -30.3847 H   0  0  0  0  0  0  0  0  0  0  0  0
   -5.6477   18.4758  -31.5218 H   0  0  0  0  0  0  0  0  0  0  0  0
   -7.4283   18.2391  -31.5218 H   0  0  0  0  0  0  0  0  0  0  0  0
   -8.5584   19.4515  -33.6521 H   0  0  0  0  0  0  0  0  0  0  0  0
  -10.6955   20.0714  -32.5389 H   0  0  0  0  0  0  0  0  0  0  0  0
  -10.7231   21.8161  -30.7659 H   0  0  0  0  0  0  0  0  0  0  0  0
   -8.6171   22.9612  -30.1060 H   0  0  0  0  0  0  0  0  0  0  0  0
   -6.2688   23.7719  -29.4715 H   0  0  0  0  0  0  0  0  0  0  0  0
   -5.4103   24.4580  -30.8924 H   0  0  0  0  0  0  0  0  0  0  0  0
   -7.2033   24.3501  -30.8924 H   0  0  0  0  0  0  0  0  0  0  0  0
   -3.7631   22.0281  -28.7934 H   0  0  0  0  0  0  0  0  0  0  0  0
   -2.7343   23.3840  -29.3676 H   0  0  0  0  0  0  0  0  0  0  0  0
   -4.5228   23.5512  -29.3676 H   0  0  0  0  0  0  0  0  0  0  0  0
   -0.5189   20.3561  -30.9567 H   0  0  0  0  0  0  0  0  0  0  0  0
    0.5716   21.6560  -30.3286 H   0  0  0  0  0  0  0  0  0  0  0  0
   -1.2550   18.8610  -29.3421 H   0  0  0  0  0  0  0  0  0  0  0  0
   -1.8756   18.3388  -26.9824 H   0  0  0  0  0  0  0  0  0  0  0  0
   -1.8617   20.1410  -25.2567 H   0  0  0  0  0  0  0  0  0  0  0  0
   -1.2197   22.4687  -25.8864 H   0  0  0  0  0  0  0  0  0  0  0  0
   -0.5907   23.0015  -28.2416 H   0  0  0  0  0  0  0  0  0  0  0  0
  1  2  1  0
  2  3  1  0
  3  4  2  0
  4  5  1  0
  5  6  2  0
  6  7  1  0
  7  8  1  0
  8  9  1  0
  9 10  1  0
 10 11  1  0
 10 12  1  0
  6 13  1  0
 13 14  2  0
 14 15  1  0
 15 16  2  0
 16 17  1  0
 17 18  2  0
 18 19  1  0
 19 20  1  0
 19 21  2  0
 21 22  1  0
 22 23  1  0
 22 24  2  0
 24 25  1  0
 25 26  1  0
 26 27  1  0
 27 28  2  0
 28 29  1  0
 29 30  2  0
 30 31  1  0
 31 32  2  0
 24  3  1  0
 32 27  1  0
 21  5  1  0
 18 13  1  0
  1 33  1  0
  1 34  1  0
  1 35  1  0
  4 36  1  0
  7 37  1  0
  8 38  1  0
  8 39  1  0
  9 40  1  0
  9 41  1  0
 11 42  1  0
 11 43  1  0
 11 44  1  0
 12 45  1  0
 12 46  1  0
 12 47  1  0
 14 48  1  0
 15 49  1  0
 16 50  1  0
 17 51  1  0
 20 52  1  0
 20 53  1  0
 20 54  1  0
 23 55  1  0
 23 56  1  0
 23 57  1  0
 26 58  1  0
 26 59  1  0
 28 60  1  0
 29 61  1  0
 30 62  1  0
 31 63  1  0
 32 64  1  0
M  CHG  1  19   1
M  END
>  <UniqueID>  (20) 
20

>  <SMILES>  (20) 
COc1cc2c(NCCN(C)C)c3ccccc3[n+](C)c2c(C)c1OCc1ccccc1

>  <Energy>  (20) 
106.34490099015675

>  <Genealogy>  (20) 
COc1cc2c(NCCN(C)C)c3ccccc3[n+](C)c2c(C)c1OCc1ccccc1 (3D coordinates assigned)
COc1cc2c(NCCN(C)C)c3ccccc3[n+](C)c2c(C)c1OCc1ccccc1 (optimized conformer: 106.34490099015675 kcal/mol)

>  <smiles>  (20) 
COc1cc2c(NCCN(C)C)c3ccccc3[n+](C)c2c(C)c1OCc1ccccc1

>  <score_type>  (20) 
oracle

>  <origin>  (20) 
adg

>  <m_score__min__energy>  (20) 
-8.3300000000000001

>  <m_primary>  (20) 
energy

$$$$
20:0
     RDKit          3D

 68 70  0  0  0  0  0  0  0  0999 V2000
   -0.0450   22.6130  -27.7990 C   0  0  0  0  0  0  0  0  0  0  0  0
    0.3780   24.0800  -27.7210 C   0  0  0  0  0  0  0  0  0  0  0  0
   -0.4830   24.9180  -28.5850 N   0  0  0  0  0  0  0  0  0  0  0  0
   -1.1640   25.9790  -27.8070 C   0  0  0  0  0  0  0  0  0  0  0  0
   -1.2130   25.5950  -26.3300 C   0  0  0  0  0  0  0  0  0  0  0  0
   -1.4540   24.0890  -29.3360 C   0  0  0  0  0  0  0  0  0  0  0  0
   -2.8730   24.6340  -29.1310 C   0  0  0  0  0  0  0  0  0  0  0  0
   -3.4860   24.9430  -30.3680 O   0  0  0  0  0  0  0  0  0  0  0  0
   -4.7570   24.3210  -30.5010 C   0  0  0  0  0  0  0  0  0  0  0  0
   -4.7740   23.0390  -29.6660 C   0  0  0  0  0  0  0  0  0  0  0  0
   -3.6970   22.1900  -30.0310 O   0  0  0  0  0  0  0  0  0  0  0  0
   -4.0960   21.2420  -31.0050 C   0  0  0  0  0  0  0  0  0  0  0  0
   -3.5400   21.6340  -32.3820 C   0  0  0  0  0  0  0  0  0  0  0  0
   -4.5740   21.6250  -33.4360 N   0  0  0  0  0  0  0  0  0  0  0  0
   -5.7210   20.7970  -33.0770 C   0  0  0  0  0  0  0  0  0  0  0  0
   -6.9280   21.3750  -32.5850 C   0  0  0  0  0  0  0  0  0  0  0  0
   -7.0600   22.7690  -32.3520 C   0  0  0  0  0  0  0  0  0  0  0  0
   -8.2730   23.3240  -31.9470 C   0  0  0  0  0  0  0  0  0  0  0  0
   -9.3830   22.5160  -31.7690 C   0  0  0  0  0  0  0  0  0  0  0  0
   -9.2810   21.1410  -31.9520 C   0  0  0  0  0  0  0  0  0  0  0  0
   -8.0470   20.5340  -32.3100 C   0  0  0  0  0  0  0  0  0  0  0  0
   -7.9310   19.1620  -32.4030 N   0  0  0  0  0  0  0  0  0  0  0  0
   -8.9780   18.2930  -31.8150 C   0  0  0  0  0  0  0  0  0  0  0  0
   -6.8250   18.5970  -33.0040 C   0  0  0  0  0  0  0  0  0  0  0  0
   -6.8110   17.2220  -33.3670 C   0  0  0  0  0  0  0  0  0  0  0  0
   -5.6630   16.6190  -33.9030 C   0  0  0  0  0  0  0  0  0  0  0  0
   -5.6170   15.2610  -34.2610 O   0  0  0  0  0  0  0  0  0  0  0  0
   -6.7420   14.3840  -34.2540 C   0  0  0  0  0  0  0  0  0  0  0  0
   -4.5220   17.3880  -34.0930 C   0  0  0  0  0  0  0  0  0  0  0  0
   -4.5250   18.7480  -33.8020 C   0  0  0  0  0  0  0  0  0  0  0  0
   -5.6810   19.3900  -33.2920 C   0  0  0  0  0  0  0  0  0  0  0  0
   -0.1611   22.2103  -26.7820 H   0  0  0  0  0  0  0  0  0  0  0  0
   -1.0021   22.5354  -28.3356 H   0  0  0  0  0  0  0  0  0  0  0  0
    0.7239   22.0377  -28.3356 H   0  0  0  0  0  0  0  0  0  0  0  0
    0.2917   24.4261  -26.6804 H   0  0  0  0  0  0  0  0  0  0  0  0
    1.4186   24.1674  -28.0666 H   0  0  0  0  0  0  0  0  0  0  0  0
   -0.6123   26.9240  -27.9194 H   0  0  0  0  0  0  0  0  0  0  0  0
   -2.1909   26.0990  -28.1827 H   0  0  0  0  0  0  0  0  0  0  0  0
   -1.0978   26.4979  -25.7124 H   0  0  0  0  0  0  0  0  0  0  0  0
   -2.1792   25.1189  -26.1068 H   0  0  0  0  0  0  0  0  0  0  0  0
   -0.3973   24.8915  -26.1068 H   0  0  0  0  0  0  0  0  0  0  0  0
   -1.2044   24.1149  -30.4070 H   0  0  0  0  0  0  0  0  0  0  0  0
   -1.4069   23.0533  -28.9685 H   0  0  0  0  0  0  0  0  0  0  0  0
   -3.4769   23.8759  -28.6108 H   0  0  0  0  0  0  0  0  0  0  0  0
   -2.8093   25.5557  -28.5340 H   0  0  0  0  0  0  0  0  0  0  0  0
   -5.5413   25.0044  -30.1435 H   0  0  0  0  0  0  0  0  0  0  0  0
   -4.9435   24.0788  -31.5577 H   0  0  0  0  0  0  0  0  0  0  0  0
   -4.6836   23.3000  -28.6013 H   0  0  0  0  0  0  0  0  0  0  0  0
   -5.7205   22.5093  -29.8493 H   0  0  0  0  0  0  0  0  0  0  0  0
   -3.7111   20.2500  -30.7262 H   0  0  0  0  0  0  0  0  0  0  0  0
   -5.1946   21.2170  -31.0542 H   0  0  0  0  0  0  0  0  0  0  0  0
   -3.1143   22.6461  -32.3148 H   0  0  0  0  0  0  0  0  0  0  0  0
   -2.7776   20.8903  -32.6572 H   0  0  0  0  0  0  0  0  0  0  0  0
   -4.1540   21.2720  -34.3250 H   0  0  0  0  0  0  0  0  0  0  0  0
   -4.8320   22.5970  -33.7060 H   0  0  0  0  0  0  0  0  0  0  0  0
   -6.1879   23.4243  -32.4938 H   0  0  0  0  0  0  0  0  0  0  0  0
   -8.3484   24.4068  -31.7684 H   0  0  0  0  0  0  0  0  0  0  0  0
  -10.3468   22.9620  -31.4825 H   0  0  0  0  0  0  0  0  0  0  0  0
  -10.1727   20.5113  -31.8170 H   0  0  0  0  0  0  0  0  0  0  0  0
   -8.9204   18.3408  -30.7175 H   0  0  0  0  0  0  0  0  0  0  0  0
   -9.9689   18.6378  -32.1455 H   0  0  0  0  0  0  0  0  0  0  0  0
   -8.8217   17.2556  -32.1455 H   0  0  0  0  0  0  0  0  0  0  0  0
   -7.7195   16.6184  -33.2245 H   0  0  0  0  0  0  0  0  0  0  0  0
   -7.0272   14.1617  -33.2151 H   0  0  0  0  0  0  0  0  0  0  0  0
   -7.5854   14.8653  -34.7707 H   0  0  0  0  0  0  0  0  0  0  0  0
   -6.4810   13.4487  -34.7707 H   0  0  0  0  0  0  0  0  0  0  0  0
   -3.6059   16.9161  -34.4779 H   0  0  0  0  0  0  0  0  0  0  0  0
   -3.6117   19.3373  -33.9711 H   0  0  0  0  0  0  0  0  0  0  0  0
  1  2  1  0
  2  3  1  0
  3  4  1  0
  4  5  1  0
  3  6  1  0
  6  7  1  0
  7  8  1  0
  8  9  1  0
  9 10  1  0
 10 11  1  0
 11 12  1  0
 12 13  1  0
 13 14  1  0
 14 15  1  0
 15 16  2  0
 16 17  1  0
 17 18  2  0
 18 19  1  0
 19 20  2  0
 20 21  1  0
 21 22  2  0
 22 23  1  0
 22 24  1  0
 24 25  2  0
 25 26  1  0
 26 27  1  0
 27 28  1  0
 26 29  2  0
 29 30  1  0
 30 31  2  0
 31 15  1  0
 21 16  1  0
 31 24  1  0
  1 32  1  0
  1 33  1  0
  1 34  1  0
  2 35  1  0
  2 36  1  0
  4 37  1  0
  4 38  1  0
  5 39  1  0
  5 40  1  0
  5 41  1  0
  6 42  1  0
  6 43  1  0
  7 44  1  0
  7 45  1  0
  9 46  1  0
  9 47  1  0
 10 48  1  0
 10 49  1  0
 12 50  1  0
 12 51  1  0
 13 52  1  0
 13 53  1  0
 14 54  1  0
 14 55  1  0
 17 56  1  0
 18 57  1  0
 19 58  1  0
 20 59  1  0
 23 60  1  0
 23 61  1  0
 23 62  1  0
 25 63  1  0
 28 64  1  0
 28 65  1  0
 28 66  1  0
 29 67  1  0
 30 68  1  0
M  CHG  2  14   1  22   1
M  END
>  <UniqueID>  (21) 
21

>  <SMILES>  (21) 
CCN(CC)CCOCCOCC[NH2+]c1c2ccccc2[n+](C)c2cc(OC)ccc12

>  <Energy>  (21) 
100.59887884725181

>  <Genealogy>  (21) 
CCN(CC)CCOCCOCC[NH2+]c1c2ccccc2[n+](C)c2cc(OC)ccc12 (protonated)
CCN(CC)CCOCCOCC[NH2+]c1c2ccccc2[n+](C)c2cc(OC)ccc12 (3D coordinates assigned)
CCN(CC)CCOCCOCC[NH2+]c1c2ccccc2[n+](C)c2cc(OC)ccc12 (optimized conformer: 100.59887884725181 kcal/mol)

>  <smiles>  (21) 
CCN(CC)CCOCCOCCNc1c2ccccc2[n+](C)c2cc(OC)ccc12

>  <score_type>  (21) 
oracle

>  <origin>  (21) 
adg

>  <m_score__min__energy>  (21) 
-8.4499999999999993

>  <m_primary>  (21) 
energy

$$$$
21:0
     RDKit          3D

 52 52  0  0  0  0  0  0  0  0999 V2000
   -8.8720   18.8260  -31.7400 C   0  0  0  0  0  0  0  0  0  0  0  0
   -9.2000   20.0250  -32.6280 C   0  0  0  0  0  0  0  0  0  0  0  0
   -8.4500   21.2230  -32.1970 N   0  0  0  0  0  0  0  0  0  0  0  0
   -9.3460   22.3660  -31.9450 C   0  0  0  0  0  0  0  0  0  0  0  0
   -7.5020   20.9900  -31.0800 C   0  0  0  0  0  0  0  0  0  0  0  0
   -6.1000   21.6680  -31.2540 C   0  0  2  0  0  0  0  0  0  0  0  0
   -6.0740   23.0350  -30.5240 C   0  0  0  0  0  0  0  0  0  0  0  0
   -5.0080   23.8970  -31.0890 N   0  0  0  0  0  0  0  0  0  0  0  0
   -3.6500   23.4080  -30.7600 C   0  0  0  0  0  0  0  0  0  0  0  0
   -3.3790   23.4580  -29.2560 C   0  0  0  0  0  0  0  0  0  0  0  0
   -5.2370   25.3410  -30.8200 C   0  0  0  0  0  0  0  0  0  0  0  0
   -6.1540   25.6260  -29.6220 C   0  0  0  0  0  0  0  0  0  0  0  0
   -5.7780   21.8320  -32.6950 N   0  0  0  0  0  0  0  0  0  0  0  0
   -4.7350   20.8940  -33.1480 C   0  0  0  0  0  0  0  0  0  0  0  0
   -5.2770   19.4890  -33.1960 C   0  0  0  0  0  0  0  0  0  0  0  0
   -5.3410   18.7140  -32.0260 C   0  0  0  0  0  0  0  0  0  0  0  0
   -5.8070   17.3960  -32.0790 C   0  0  0  0  0  0  0  0  0  0  0  0
   -6.2000   16.8420  -33.3000 C   0  0  0  0  0  0  0  0  0  0  0  0
   -6.1250   17.6020  -34.4700 C   0  0  0  0  0  0  0  0  0  0  0  0
   -5.6590   18.9190  -34.4210 C   0  0  0  0  0  0  0  0  0  0  0  0
   -8.9523   19.1197  -30.6830 H   0  0  0  0  0  0  0  0  0  0  0  0
   -9.5801   18.0105  -31.9488 H   0  0  0  0  0  0  0  0  0  0  0  0
   -7.8474   18.4845  -31.9488 H   0  0  0  0  0  0  0  0  0  0  0  0
   -8.9313   19.7870  -33.6678 H   0  0  0  0  0  0  0  0  0  0  0  0
  -10.2763   20.2372  -32.5475 H   0  0  0  0  0  0  0  0  0  0  0  0
   -9.4595   22.5108  -30.8605 H   0  0  0  0  0  0  0  0  0  0  0  0
   -8.9167   23.2742  -32.3932 H   0  0  0  0  0  0  0  0  0  0  0  0
  -10.3304   22.1660  -32.3932 H   0  0  0  0  0  0  0  0  0  0  0  0
   -7.9580   21.3792  -30.1577 H   0  0  0  0  0  0  0  0  0  0  0  0
   -7.3194   19.9057  -31.0506 H   0  0  0  0  0  0  0  0  0  0  0  0
   -5.3338   21.0193  -30.8044 H   0  0  0  0  0  0  0  0  0  0  0  0
   -7.0474   23.5320  -30.6486 H   0  0  0  0  0  0  0  0  0  0  0  0
   -5.8718   22.8677  -29.4558 H   0  0  0  0  0  0  0  0  0  0  0  0
   -3.5523   22.3682  -31.1053 H   0  0  0  0  0  0  0  0  0  0  0  0
   -2.9201   24.0605  -31.2615 H   0  0  0  0  0  0  0  0  0  0  0  0
   -4.3172   23.2849  -28.7084 H   0  0  0  0  0  0  0  0  0  0  0  0
   -2.6495   22.6793  -28.9888 H   0  0  0  0  0  0  0  0  0  0  0  0
   -2.9754   24.4458  -28.9888 H   0  0  0  0  0  0  0  0  0  0  0  0
   -4.2626   25.8137  -30.6274 H   0  0  0  0  0  0  0  0  0  0  0  0
   -5.7439   25.7487  -31.7070 H   0  0  0  0  0  0  0  0  0  0  0  0
   -5.6002   25.4539  -28.6873 H   0  0  0  0  0  0  0  0  0  0  0  0
   -6.4928   26.6718  -29.6602 H   0  0  0  0  0  0  0  0  0  0  0  0
   -7.0259   24.9565  -29.6602 H   0  0  0  0  0  0  0  0  0  0  0  0
   -5.4750   22.8170  -32.8850 H   0  0  0  0  0  0  0  0  0  0  0  0
   -6.6320   21.6470  -33.2710 H   0  0  0  0  0  0  0  0  0  0  0  0
   -4.3963   21.1863  -34.1529 H   0  0  0  0  0  0  0  0  0  0  0  0
   -3.8932   20.9277  -32.4407 H   0  0  0  0  0  0  0  0  0  0  0  0
   -5.0236   19.1450  -31.0650 H   0  0  0  0  0  0  0  0  0  0  0  0
   -5.8640   16.7956  -31.1591 H   0  0  0  0  0  0  0  0  0  0  0  0
   -6.5688   15.8065  -33.3402 H   0  0  0  0  0  0  0  0  0  0  0  0
   -6.4330   17.1635  -35.4307 H   0  0  0  0  0  0  0  0  0  0  0  0
   -5.5913   19.5110  -35.3456 H   0  0  0  0  0  0  0  0  0  0  0  0
  1  2  1  0
  2  3  1  0
  3  4  1  0
  3  5  1  0
  5  6  1  0
  6  7  1  0
  7  8  1  0
  8  9  1  0
  9 10  1  0
  8 11  1  0
 11 12  1  0
  6 13  1  0
 13 14  1  0
 14 15  1  0
 15 16  2  0
 16 17  1  0
 17 18  2  0
 18 19  1  0
 19 20  2  0
 20 15  1  0
  1 21  1  0
  1 22  1  0
  1 23  1  0
  2 24  1  0
  2 25  1  0
  4 26  1  0
  4 27  1  0
  4 28  1  0
  5 29  1  0
  5 30  1  0
  6 31  1  1
  7 32  1  0
  7 33  1  0
  9 34  1  0
  9 35  1  0
 10 36  1  0
 10 37  1  0
 10 38  1  0
 11 39  1  0
 11 40  1  0
 12 41  1  0
 12 42  1  0
 12 43  1  0
 13 44  1  0
 13 45  1  0
 14 46  1  0
 14 47  1  0
 16 48  1  0
 17 49  1  0
 18 50  1  0
 19 51  1  0
 20 52  1  0
M  CHG  1  13   1
M  END
>  <UniqueID>  (22) 
22

>  <SMILES>  (22) 
CCN(C)C[C@H](CN(CC)CC)[NH2+]Cc1ccccc1

>  <Energy>  (22) 
55.65454951784999

>  <Genealogy>  (22) 
CCN(C)CC(CN(CC)CC)[NH2+]Cc1ccccc1 (protonated)
CCN(C)C[C@H](CN(CC)CC)[NH2+]Cc1ccccc1 (chirality)
CCN(C)C[C@H](CN(CC)CC)[NH2+]Cc1ccccc1 (3D coordinates assigned)
CCN(C)C[C@H](CN(CC)CC)[NH2+]Cc1ccccc1 (optimized conformer: 55.65454951784999 kcal/mol)

>  <smiles>  (22) 
CCN(C)CC(CN(CC)CC)NCc1ccccc1

>  <score_type>  (22) 
oracle

>  <origin>  (22) 
adg

>  <m_score__min__energy>  (22) 
-6.3799999999999999

>  <m_primary>  (22) 
energy

$$$$
22:0
     RDKit          3D

 36 38  0  0  0  0  0  0  0  0999 V2000
   -3.9070   17.0430  -35.2830 C   0  0  0  0  0  0  0  0  0  0  0  0
   -5.0560   17.5500  -34.4640 C   0  0  0  0  0  0  0  0  0  0  0  0
   -5.9220   16.6350  -33.8110 C   0  0  0  0  0  0  0  0  0  0  0  0
   -6.9810   17.0980  -33.0060 C   0  0  0  0  0  0  0  0  0  0  0  0
   -7.1370   18.4760  -32.8710 C   0  0  0  0  0  0  0  0  0  0  0  0
   -6.2950   19.3600  -33.4850 C   0  0  0  0  0  0  0  0  0  0  0  0
   -5.2360   18.9400  -34.2850 C   0  0  0  0  0  0  0  0  0  0  0  0
   -6.6460   20.6170  -33.1630 N   0  0  0  0  0  0  0  0  0  0  0  0
   -7.7090   20.4640  -32.3390 C   0  0  0  0  0  0  0  0  0  0  0  0
   -8.5400   21.8530  -31.5560 S   0  0  0  0  0  0  0  0  0  0  0  0
   -7.4940   23.1250  -32.3480 C   0  0  0  0  0  0  0  0  0  0  0  0
   -6.4330   23.6250  -31.4030 C   0  0  0  0  0  0  0  0  0  0  0  0
   -6.7780   24.5310  -30.3870 C   0  0  0  0  0  0  0  0  0  0  0  0
   -5.8110   24.9810  -29.4840 C   0  0  0  0  0  0  0  0  0  0  0  0
   -4.4930   24.5280  -29.5860 C   0  0  0  0  0  0  0  0  0  0  0  0
   -4.1400   23.6250  -30.5910 C   0  0  0  0  0  0  0  0  0  0  0  0
   -5.1020   23.1720  -31.4990 C   0  0  0  0  0  0  0  0  0  0  0  0
   -4.7370   22.2840  -32.4580 F   0  0  0  0  0  0  0  0  0  0  0  0
   -8.0450   19.1600  -32.1500 N   0  0  0  0  0  0  0  0  0  0  0  0
   -9.1090   18.6020  -31.3160 C   0  0  0  0  0  0  0  0  0  0  0  0
   -3.1077   16.6903  -34.6146 H   0  0  0  0  0  0  0  0  0  0  0  0
   -4.2477   16.2117  -35.9176 H   0  0  0  0  0  0  0  0  0  0  0  0
   -3.5226   17.8551  -35.9176 H   0  0  0  0  0  0  0  0  0  0  0  0
   -5.7647   15.5534  -33.9347 H   0  0  0  0  0  0  0  0  0  0  0  0
   -7.6613   16.3961  -32.5014 H   0  0  0  0  0  0  0  0  0  0  0  0
   -4.5615   19.6663  -34.7621 H   0  0  0  0  0  0  0  0  0  0  0  0
   -6.1850   21.5060  -33.4570 H   0  0  0  0  0  0  0  0  0  0  0  0
   -7.0088   22.6895  -33.2340 H   0  0  0  0  0  0  0  0  0  0  0  0
   -8.1337   23.9733  -32.6330 H   0  0  0  0  0  0  0  0  0  0  0  0
   -7.8148   24.8883  -30.3015 H   0  0  0  0  0  0  0  0  0  0  0  0
   -6.0876   25.6926  -28.6921 H   0  0  0  0  0  0  0  0  0  0  0  0
   -3.7331   24.8829  -28.8742 H   0  0  0  0  0  0  0  0  0  0  0  0
   -3.1021   23.2690  -30.6686 H   0  0  0  0  0  0  0  0  0  0  0  0
   -8.8520   18.7368  -30.2550 H   0  0  0  0  0  0  0  0  0  0  0  0
  -10.0548   19.1202  -31.5329 H   0  0  0  0  0  0  0  0  0  0  0  0
   -9.2205   17.5294  -31.5329 H   0  0  0  0  0  0  0  0  0  0  0  0
  1  2  1  0
  2  3  2  0
  3  4  1  0
  4  5  2  0
  5  6  1  0
  6  7  2  0
  6  8  1  0
  8  9  2  0
  9 10  1  0
 10 11  1  0
 11 12  1  0
 12 13  2  0
 13 14  1  0
 14 15  2  0
 15 16  1  0
 16 17  2  0
 17 18  1  0
  9 19  1  0
 19 20  1  0
  7  2  1  0
 17 12  1  0
 19  5  1  0
  1 21  1  0
  1 22  1  0
  1 23  1  0
  3 24  1  0
  4 25  1  0
  7 26  1  0
  8 27  1  0
 11 28  1  0
 11 29  1  0
 13 30  1  0
 14 31  1  0
 15 32  1  0
 16 33  1  0
 20 34  1  0
 20 35  1  0
 20 36  1  0
M  CHG  1   8   1
M  END
>  <UniqueID>  (23) 
23

>  <SMILES>  (23) 
Cc1ccc2c(c1)[nH+]c(SCc1ccccc1F)n2C

>  <Energy>  (23) 
70.08237285805477

>  <Genealogy>  (23) 
Cc1ccc2c(c1)[nH+]c(SCc1ccccc1F)n2C (protonated)
Cc1ccc2c(c1)[nH+]c(SCc1ccccc1F)n2C (3D coordinates assigned)
Cc1ccc2c(c1)[nH+]c(SCc1ccccc1F)n2C (optimized conformer: 70.08237285805477 kcal/mol)

>  <smiles>  (23) 
Cc1ccc2c(c1)nc(SCc1ccccc1F)n2C

>  <score_type>  (23) 
oracle

>  <origin>  (23) 
adg

>  <m_score__min__energy>  (23) 
-7.3300000000000001

>  <m_primary>  (23) 
energy

$$$$
23:0
     RDKit          3D

 21 21  0  0  0  0  0  0  0  0999 V2000
   -6.1210   25.6100  -29.7010 C   0  0  0  0  0  0  0  0  0  0  0  0
   -5.3300   24.9730  -30.8370 C   0  0  0  0  0  0  0  0  0  0  0  0
   -3.9440   25.1890  -30.6500 O   0  0  0  0  0  0  0  0  0  0  0  0
   -3.3500   24.0760  -30.0170 C   0  0  0  0  0  0  0  0  0  0  0  0
   -2.0960   24.5190  -29.3390 C   0  0  0  0  0  0  0  0  0  0  0  0
   -0.9380   23.7880  -29.2250 C   0  0  0  0  0  0  0  0  0  0  0  0
   -0.0570   24.4800  -28.4810 N   0  0  0  0  0  0  0  0  0  0  0  0
   -0.7170   25.6170  -28.1710 C   0  0  0  0  0  0  0  0  0  0  0  0
   -0.1400   26.6750  -27.2910 C   0  0  0  0  0  0  0  0  0  0  0  0
   -1.9760   25.6710  -28.6570 N   0  0  0  0  0  0  0  0  0  0  0  0
   -5.7092   25.2783  -28.7364 H   0  0  0  0  0  0  0  0  0  0  0  0
   -6.0491   26.7053  -29.7733 H   0  0  0  0  0  0  0  0  0  0  0  0
   -7.1758   25.3062  -29.7733 H   0  0  0  0  0  0  0  0  0  0  0  0
   -5.5296   23.8914  -30.8566 H   0  0  0  0  0  0  0  0  0  0  0  0
   -5.6387   25.4297  -31.7889 H   0  0  0  0  0  0  0  0  0  0  0  0
   -4.0450   23.6597  -29.2729 H   0  0  0  0  0  0  0  0  0  0  0  0
   -3.1173   23.3024  -30.7636 H   0  0  0  0  0  0  0  0  0  0  0  0
   -0.7605   22.7978  -29.6700 H   0  0  0  0  0  0  0  0  0  0  0  0
   -0.2911   26.3980  -26.2372 H   0  0  0  0  0  0  0  0  0  0  0  0
    0.9367   26.7734  -27.4935 H   0  0  0  0  0  0  0  0  0  0  0  0
   -0.6403   27.6335  -27.4935 H   0  0  0  0  0  0  0  0  0  0  0  0
  1  2  1  0
  2  3  1  0
  3  4  1  0
  4  5  1  0
  5  6  2  0
  6  7  1  0
  7  8  1  0
  8  9  1  0
  8 10  2  0
 10  5  1  0
  1 11  1  0
  1 12  1  0
  1 13  1  0
  2 14  1  0
  2 15  1  0
  4 16  1  0
  4 17  1  0
  6 18  1  0
  9 19  1  0
  9 20  1  0
  9 21  1  0
M  CHG  1   7  -1
M  END
>  <UniqueID>  (24) 
24

>  <SMILES>  (24) 
CCOCc1c[n-]c(C)n1

>  <Energy>  (24) 
42.931120487409096

>  <Genealogy>  (24) 
CCOCc1c[n-]c(C)n1 (protonated)
CCOCc1c[n-]c(C)n1 (3D coordinates assigned)
CCOCc1c[n-]c(C)n1 (optimized conformer: 42.931120487409096 kcal/mol)

>  <smiles>  (24) 
CCOCc1c[nH]c(C)n1

>  <score_type>  (24) 
oracle

>  <origin>  (24) 
adg

>  <m_score__min__energy>  (24) 
-5.8700000000000001

>  <m_primary>  (24) 
energy

$$$$
24:0
     RDKit          3D

 48 48  0  0  0  0  0  0  0  0999 V2000
   -0.5160   20.8020  -31.5100 C   0  0  0  0  0  0  0  0  0  0  0  0
   -1.6270   21.5230  -32.2830 C   0  0  0  0  0  0  0  0  0  0  0  0
   -1.7830   20.9820  -33.6700 N   0  0  0  0  0  0  0  0  0  0  0  0
   -0.4810   20.9180  -34.3830 C   0  0  0  0  0  0  0  0  0  0  0  0
   -0.1610   19.5110  -34.9020 C   0  0  0  0  0  0  0  0  0  0  0  0
   -2.4020   19.6290  -33.6480 C   0  0  0  0  0  0  0  0  0  0  0  0
   -3.7370   19.6010  -32.8750 C   0  0  0  0  0  0  0  0  0  0  0  0
   -4.8790   20.8620  -33.4360 S   0  0  0  0  0  0  0  0  0  0  0  0
   -4.2210   22.4080  -33.3780 O   0  0  0  0  0  0  0  0  0  0  0  0
   -6.4870   20.7850  -32.7200 C   0  0  0  0  0  0  0  0  0  0  0  0
   -7.3000   19.6770  -33.0050 C   0  0  0  0  0  0  0  0  0  0  0  0
   -8.6080   19.6170  -32.5240 C   0  0  0  0  0  0  0  0  0  0  0  0
   -9.1170   20.6630  -31.7560 C   0  0  0  0  0  0  0  0  0  0  0  0
   -8.3220   21.7760  -31.4690 C   0  0  0  0  0  0  0  0  0  0  0  0
   -6.9990   21.8540  -31.9460 C   0  0  0  0  0  0  0  0  0  0  0  0
   -6.1900   23.0160  -31.6710 N   0  0  0  0  0  0  0  0  0  0  0  0
   -6.6420   24.1010  -30.7960 C   0  0  0  0  0  0  0  0  0  0  0  0
   -5.5420   25.1480  -30.5890 C   0  0  0  0  0  0  0  0  0  0  0  0
   -4.2740   24.6120  -30.9290 O   0  0  0  0  0  0  0  0  0  0  0  0
   -3.7860   23.7980  -29.8850 C   0  0  0  0  0  0  0  0  0  0  0  0
   -0.6889   20.9142  -30.4295 H   0  0  0  0  0  0  0  0  0  0  0  0
   -0.5200   19.7339  -31.7730 H   0  0  0  0  0  0  0  0  0  0  0  0
    0.4578   21.2407  -31.7730 H   0  0  0  0  0  0  0  0  0  0  0  0
   -2.5766   21.3956  -31.7426 H   0  0  0  0  0  0  0  0  0  0  0  0
   -1.3543   22.5859  -32.3601 H   0  0  0  0  0  0  0  0  0  0  0  0
   -2.4050   21.6090  -34.2280 H   0  0  0  0  0  0  0  0  0  0  0  0
   -0.5130   21.6098  -35.2376 H   0  0  0  0  0  0  0  0  0  0  0  0
    0.3055   21.1952  -33.6656 H   0  0  0  0  0  0  0  0  0  0  0  0
   -0.0066   18.8323  -34.0502 H   0  0  0  0  0  0  0  0  0  0  0  0
   -0.9992   19.1465  -35.5140 H   0  0  0  0  0  0  0  0  0  0  0  0
    0.7524   19.5449  -35.5140 H   0  0  0  0  0  0  0  0  0  0  0  0
   -2.5878   19.3095  -34.6840 H   0  0  0  0  0  0  0  0  0  0  0  0
   -1.7045   18.9513  -33.1339 H   0  0  0  0  0  0  0  0  0  0  0  0
   -4.2043   18.6148  -33.0131 H   0  0  0  0  0  0  0  0  0  0  0  0
   -3.5149   19.7976  -31.8158 H   0  0  0  0  0  0  0  0  0  0  0  0
   -4.5790   22.8680  -34.1790 H   0  0  0  0  0  0  0  0  0  0  0  0
   -6.9029   18.8500  -33.6120 H   0  0  0  0  0  0  0  0  0  0  0  0
   -9.2378   18.7442  -32.7508 H   0  0  0  0  0  0  0  0  0  0  0  0
  -10.1475   20.6123  -31.3747 H   0  0  0  0  0  0  0  0  0  0  0  0
   -8.7331   22.5984  -30.8652 H   0  0  0  0  0  0  0  0  0  0  0  0
   -5.2790   23.1290  -32.1700 H   0  0  0  0  0  0  0  0  0  0  0  0
   -7.5174   24.5870  -31.2516 H   0  0  0  0  0  0  0  0  0  0  0  0
   -6.8995   23.6713  -29.8167 H   0  0  0  0  0  0  0  0  0  0  0  0
   -5.7486   26.0205  -31.2262 H   0  0  0  0  0  0  0  0  0  0  0  0
   -5.5295   25.4454  -29.5300 H   0  0  0  0  0  0  0  0  0  0  0  0
   -4.0538   24.2446  -28.9161 H   0  0  0  0  0  0  0  0  0  0  0  0
   -4.2322   22.7956  -29.9625 H   0  0  0  0  0  0  0  0  0  0  0  0
   -2.6916   23.7192  -29.9625 H   0  0  0  0  0  0  0  0  0  0  0  0
  1  2  1  0
  2  3  1  0
  3  4  1  0
  4  5  1  0
  3  6  1  0
  6  7  1  0
  7  8  1  0
  8  9  1  1
  8 10  1  0
 10 11  2  0
 11 12  1  0
 12 13  2  0
 13 14  1  0
 14 15  2  0
 15 16  1  0
 16 17  1  0
 17 18  1  0
 18 19  1  0
 19 20  1  0
 15 10  1  0
  1 21  1  0
  1 22  1  0
  1 23  1  0
  2 24  1  0
  2 25  1  0
  3 26  1  0
  4 27  1  0
  4 28  1  0
  5 29  1  0
  5 30  1  0
  5 31  1  0
  6 32  1  0
  6 33  1  0
  7 34  1  0
  7 35  1  0
  9 36  1  0
 11 37  1  0
 12 38  1  0
 13 39  1  0
 14 40  1  0
 16 41  1  0
 17 42  1  0
 17 43  1  0
 18 44  1  0
 18 45  1  0
 20 46  1  0
 20 47  1  0
 20 48  1  0
M  CHG  2   3   1   8   1
M  END
>  <UniqueID>  (25) 
25

>  <SMILES>  (25) 
CC[NH+](CC)CC[S@+](O)c1ccccc1NCCOC

>  <Energy>  (25) 
42.516542606042954

>  <Genealogy>  (25) 
CC[NH+](CC)CC[S+](O)c1ccccc1NCCOC (protonated)
CC[NH+](CC)CC[S@+](O)c1ccccc1NCCOC (chirality)
CC[NH+](CC)CC[S@+](O)c1ccccc1NCCOC (3D coordinates assigned)
CC[NH+](CC)CC[S@+](O)c1ccccc1NCCOC (optimized conformer: 42.516542606042954 kcal/mol)

>  <smiles>  (25) 
CCN(CC)CC[S+]([O-])c1ccccc1NCCOC

>  <score_type>  (25) 
oracle

>  <origin>  (25) 
adg

>  <m_score__min__energy>  (25) 
-5.4199999999999999

>  <m_primary>  (25) 
energy

$$$$
25:0
     RDKit          3D

 38 39  0  0  0  0  0  0  0  0999 V2000
   -4.2950   22.6290  -32.9170 O   0  0  0  0  0  0  0  0  0  0  0  0
   -5.1930   22.1690  -32.2230 C   0  0  0  0  0  0  0  0  0  0  0  0
   -5.6070   20.7350  -32.5130 C   0  0  0  0  0  0  0  0  0  0  0  0
   -6.9710   20.5080  -33.1800 C   0  0  0  0  0  0  0  0  0  0  0  0
   -8.4650   20.6570  -32.1170 S   0  0  0  0  0  0  0  0  0  0  0  0
   -8.2320   22.3170  -31.3950 C   0  0  0  0  0  0  0  0  0  0  0  0
   -6.9710   22.4180  -30.5220 C   0  0  0  0  0  0  0  0  0  0  0  0
   -5.7660   23.0060  -31.1740 N   0  0  2  0  0  0  0  0  0  0  0  0
   -5.9550   24.4180  -31.6020 C   0  0  0  0  0  0  0  0  0  0  0  0
   -5.3480   25.4210  -30.6070 C   0  0  0  0  0  0  0  0  0  0  0  0
   -3.9090   25.1930  -30.4800 N   0  0  0  0  0  0  0  0  0  0  0  0
   -3.6080   23.9700  -29.2840 S   0  0  0  0  0  0  0  0  0  0  0  0
   -4.9170   23.5010  -28.7150 O   0  0  0  0  0  0  0  0  0  0  0  0
   -2.9070   22.8060  -29.9280 O   0  0  0  0  0  0  0  0  0  0  0  0
   -2.6220   24.6370  -27.9860 C   0  0  0  0  0  0  0  0  0  0  0  0
   -1.2300   24.7390  -28.1280 C   0  0  0  0  0  0  0  0  0  0  0  0
   -0.4590   25.2880  -27.0980 C   0  0  0  0  0  0  0  0  0  0  0  0
   -1.0730   25.7350  -25.9230 C   0  0  0  0  0  0  0  0  0  0  0  0
   -0.0190   26.4880  -24.5200 Br  0  0  0  0  0  0  0  0  0  0  0  0
   -2.4600   25.6290  -25.7770 C   0  0  0  0  0  0  0  0  0  0  0  0
   -3.2330   25.0790  -26.8040 C   0  0  0  0  0  0  0  0  0  0  0  0
   -4.8420   20.2990  -33.1723 H   0  0  0  0  0  0  0  0  0  0  0  0
   -5.7001   20.2663  -31.5222 H   0  0  0  0  0  0  0  0  0  0  0  0
   -7.0684   21.2438  -33.9919 H   0  0  0  0  0  0  0  0  0  0  0  0
   -6.9567   19.4561  -33.5013 H   0  0  0  0  0  0  0  0  0  0  0  0
   -8.1517   23.0476  -32.2134 H   0  0  0  0  0  0  0  0  0  0  0  0
   -9.0983   22.5202  -30.7483 H   0  0  0  0  0  0  0  0  0  0  0  0
   -7.2165   23.0389  -29.6478 H   0  0  0  0  0  0  0  0  0  0  0  0
   -6.6976   21.3809  -30.2775 H   0  0  0  0  0  0  0  0  0  0  0  0
   -5.0390   23.0260  -30.4180 H   0  0  0  0  0  0  0  0  0  0  0  0
   -5.4737   24.5573  -32.5812 H   0  0  0  0  0  0  0  0  0  0  0  0
   -7.0369   24.6101  -31.6523 H   0  0  0  0  0  0  0  0  0  0  0  0
   -5.5238   26.4447  -30.9691 H   0  0  0  0  0  0  0  0  0  0  0  0
   -5.8226   25.2856  -29.6239 H   0  0  0  0  0  0  0  0  0  0  0  0
   -0.7444   24.3869  -29.0501 H   0  0  0  0  0  0  0  0  0  0  0  0
    0.6321   25.3684  -27.2121 H   0  0  0  0  0  0  0  0  0  0  0  0
   -2.9433   25.9788  -24.8529 H   0  0  0  0  0  0  0  0  0  0  0  0
   -4.3231   24.9929  -26.6844 H   0  0  0  0  0  0  0  0  0  0  0  0
  1  2  2  0
  2  3  1  0
  3  4  1  0
  4  5  1  0
  5  6  1  0
  6  7  1  0
  7  8  1  0
  8  9  1  0
  9 10  1  0
 10 11  1  0
 11 12  1  0
 12 13  2  0
 12 14  2  0
 12 15  1  0
 15 16  2  0
 16 17  1  0
 17 18  2  0
 18 19  1  0
 18 20  1  0
 20 21  2  0
  8  2  1  0
 21 15  1  0
  3 22  1  0
  3 23  1  0
  4 24  1  0
  4 25  1  0
  6 26  1  0
  6 27  1  0
  7 28  1  0
  7 29  1  0
  8 30  1  1
  9 31  1  0
  9 32  1  0
 10 33  1  0
 10 34  1  0
 16 35  1  0
 17 36  1  0
 20 37  1  0
 21 38  1  0
M  CHG  2   8   1  11  -1
M  END
>  <UniqueID>  (26) 
26

>  <SMILES>  (26) 
O=C1CCSCC[N@@H+]1CC[N-]S(=O)(=O)c1ccc(Br)cc1

>  <Energy>  (26) 
53.10150618595952

>  <Genealogy>  (26) 
O=C1CCSCC[NH+]1CC[N-]S(=O)(=O)c1ccc(Br)cc1 (protonated)
O=C1CCSCC[N@@H+]1CC[N-]S(=O)(=O)c1ccc(Br)cc1 (chirality)
O=C1CCSCC[N@@H+]1CC[N-]S(=O)(=O)c1ccc(Br)cc1 (3D coordinates assigned)
O=C1CCSCC[N@@H+]1CC[N-]S(=O)(=O)c1ccc(Br)cc1 (nonaromatic ring conformer: 53.10150618595952 kcal/mol)

>  <smiles>  (26) 
O=C1CCSCCN1CCNS(=O)(=O)c1ccc(Br)cc1

>  <score_type>  (26) 
oracle

>  <origin>  (26) 
adg

>  <m_score__min__energy>  (26) 
-6.6600000000000001

>  <m_primary>  (26) 
energy

$$$$
26:0
     RDKit          3D

 53 55  0  0  0  0  0  0  0  0999 V2000
   -1.1360   18.3690  -33.0230 C   0  0  0  0  0  0  0  0  0  0  0  0
   -0.8390   19.1680  -34.2920 C   0  0  0  0  0  0  0  0  0  0  0  0
   -0.9650   20.6240  -34.0540 N   0  0  0  0  0  0  0  0  0  0  0  0
    0.1880   21.3460  -34.6390 C   0  0  0  0  0  0  0  0  0  0  0  0
    0.2490   21.1420  -36.1520 C   0  0  0  0  0  0  0  0  0  0  0  0
   -1.1360   20.9360  -32.6110 C   0  0  0  0  0  0  0  0  0  0  0  0
   -2.5520   21.4760  -32.3750 C   0  0  0  0  0  0  0  0  0  0  0  0
   -3.4760   21.1520  -33.4780 N   0  0  0  0  0  0  0  0  0  0  0  0
   -4.7880   20.7390  -32.9890 C   0  0  0  0  0  0  0  0  0  0  0  0
   -5.6480   21.6480  -32.3050 C   0  0  0  0  0  0  0  0  0  0  0  0
   -5.2770   22.9950  -32.0420 C   0  0  0  0  0  0  0  0  0  0  0  0
   -6.1590   23.8900  -31.4290 C   0  0  0  0  0  0  0  0  0  0  0  0
   -5.7500   25.3190  -31.2050 C   0  0  0  0  0  0  0  0  0  0  0  0
   -7.4450   23.4720  -31.1050 C   0  0  0  0  0  0  0  0  0  0  0  0
   -7.8230   22.1510  -31.3120 C   0  0  0  0  0  0  0  0  0  0  0  0
   -6.9240   21.2020  -31.8590 C   0  0  0  0  0  0  0  0  0  0  0  0
   -7.2790   19.8740  -31.9710 N   0  0  0  0  0  0  0  0  0  0  0  0
   -8.4400   19.3530  -31.2110 C   0  0  0  0  0  0  0  0  0  0  0  0
   -6.5350   19.0190  -32.7550 C   0  0  0  0  0  0  0  0  0  0  0  0
   -7.0260   17.7370  -33.1130 C   0  0  0  0  0  0  0  0  0  0  0  0
   -6.2480   16.8400  -33.8400 C   0  0  0  0  0  0  0  0  0  0  0  0
   -6.8810   15.2570  -34.2550 Cl  0  0  0  0  0  0  0  0  0  0  0  0
   -4.9680   17.1980  -34.2360 C   0  0  0  0  0  0  0  0  0  0  0  0
   -4.4750   18.4670  -33.9450 C   0  0  0  0  0  0  0  0  0  0  0  0
   -5.2540   19.4150  -33.2320 C   0  0  0  0  0  0  0  0  0  0  0  0
   -0.9073   18.9843  -32.1403 H   0  0  0  0  0  0  0  0  0  0  0  0
   -2.1991   18.0868  -33.0078 H   0  0  0  0  0  0  0  0  0  0  0  0
   -0.5153   17.4609  -33.0078 H   0  0  0  0  0  0  0  0  0  0  0  0
    0.1864   18.9466  -34.6228 H   0  0  0  0  0  0  0  0  0  0  0  0
   -1.5683   18.8782  -35.0629 H   0  0  0  0  0  0  0  0  0  0  0  0
    0.0868   22.4201  -34.4243 H   0  0  0  0  0  0  0  0  0  0  0  0
    1.1128   20.9504  -34.1937 H   0  0  0  0  0  0  0  0  0  0  0  0
    0.5579   20.1091  -36.3706 H   0  0  0  0  0  0  0  0  0  0  0  0
   -0.7440   21.3277  -36.5874 H   0  0  0  0  0  0  0  0  0  0  0  0
    0.9770   21.8423  -36.5874 H   0  0  0  0  0  0  0  0  0  0  0  0
   -0.9872   20.0222  -32.0171 H   0  0  0  0  0  0  0  0  0  0  0  0
   -0.3972   21.6920  -32.3068 H   0  0  0  0  0  0  0  0  0  0  0  0
   -2.9455   21.0376  -31.4460 H   0  0  0  0  0  0  0  0  0  0  0  0
   -2.4831   22.5719  -32.3104 H   0  0  0  0  0  0  0  0  0  0  0  0
   -3.0620   20.3910  -34.0610 H   0  0  0  0  0  0  0  0  0  0  0  0
   -3.5100   21.9360  -34.1600 H   0  0  0  0  0  0  0  0  0  0  0  0
   -4.2726   23.3411  -32.3274 H   0  0  0  0  0  0  0  0  0  0  0  0
   -5.6928   25.5190  -30.1248 H   0  0  0  0  0  0  0  0  0  0  0  0
   -4.7655   25.4947  -31.6631 H   0  0  0  0  0  0  0  0  0  0  0  0
   -6.4924   25.9890  -31.6631 H   0  0  0  0  0  0  0  0  0  0  0  0
   -8.1650   24.1890  -30.6837 H   0  0  0  0  0  0  0  0  0  0  0  0
   -8.8424   21.8350  -31.0454 H   0  0  0  0  0  0  0  0  0  0  0  0
   -8.2420   19.4418  -30.1326 H   0  0  0  0  0  0  0  0  0  0  0  0
   -9.3375   19.9347  -31.4682 H   0  0  0  0  0  0  0  0  0  0  0  0
   -8.6021   18.2958  -31.4682 H   0  0  0  0  0  0  0  0  0  0  0  0
   -8.0425   17.4457  -32.8099 H   0  0  0  0  0  0  0  0  0  0  0  0
   -4.3408   16.4775  -34.7814 H   0  0  0  0  0  0  0  0  0  0  0  0
   -3.4616   18.7403  -34.2742 H   0  0  0  0  0  0  0  0  0  0  0  0
  1  2  1  0
  2  3  1  0
  3  4  1  0
  4  5  1  0
  3  6  1  0
  6  7  1  0
  7  8  1  0
  8  9  1  0
  9 10  2  0
 10 11  1  0
 11 12  2  0
 12 13  1  0
 12 14  1  0
 14 15  2  0
 15 16  1  0
 16 17  2  0
 17 18  1  0
 17 19  1  0
 19 20  2  0
 20 21  1  0
 21 22  1  0
 21 23  2  0
 23 24  1  0
 24 25  2  0
 25  9  1  0
 16 10  1  0
 25 19  1  0
  1 26  1  0
  1 27  1  0
  1 28  1  0
  2 29  1  0
  2 30  1  0
  4 31  1  0
  4 32  1  0
  5 33  1  0
  5 34  1  0
  5 35  1  0
  6 36  1  0
  6 37  1  0
  7 38  1  0
  7 39  1  0
  8 40  1  0
  8 41  1  0
 11 42  1  0
 13 43  1  0
 13 44  1  0
 13 45  1  0
 14 46  1  0
 15 47  1  0
 18 48  1  0
 18 49  1  0
 18 50  1  0
 20 51  1  0
 23 52  1  0
 24 53  1  0
M  CHG  2   8   1  17   1
M  END
>  <UniqueID>  (27) 
27

>  <SMILES>  (27) 
CCN(CC)CC[NH2+]c1c2cc(C)ccc2[n+](C)c2cc(Cl)ccc12

>  <Energy>  (27) 
81.44355838944666

>  <Genealogy>  (27) 
CCN(CC)CC[NH2+]c1c2cc(C)ccc2[n+](C)c2cc(Cl)ccc12 (protonated)
CCN(CC)CC[NH2+]c1c2cc(C)ccc2[n+](C)c2cc(Cl)ccc12 (3D coordinates assigned)
CCN(CC)CC[NH2+]c1c2cc(C)ccc2[n+](C)c2cc(Cl)ccc12 (optimized conformer: 81.44355838944666 kcal/mol)

>  <smiles>  (27) 
CCN(CC)CCNc1c2cc(C)ccc2[n+](C)c2cc(Cl)ccc12

>  <score_type>  (27) 
oracle

>  <origin>  (27) 
adg

>  <m_score__min__energy>  (27) 
-8.3599999999999994

>  <m_primary>  (27) 
energy

$$$$
27:0
     RDKit          3D

 43 46  0  0  0  0  0  0  0  0999 V2000
   -3.9130   21.8320  -32.7320 C   0  0  0  0  0  0  0  0  0  0  0  0
   -4.9390   22.8150  -32.7030 O   0  0  0  0  0  0  0  0  0  0  0  0
   -5.2400   23.5670  -31.5610 C   0  0  0  0  0  0  0  0  0  0  0  0
   -4.2430   24.1640  -30.8490 N   0  0  0  0  0  0  0  0  0  0  0  0
   -4.4960   24.9060  -29.7390 C   0  0  0  0  0  0  0  0  0  0  0  0
   -5.8070   25.0780  -29.2980 C   0  0  0  0  0  0  0  0  0  0  0  0
   -6.8500   24.4810  -30.0050 C   0  0  0  0  0  0  0  0  0  0  0  0
   -6.5780   23.7080  -31.1450 C   0  0  0  0  0  0  0  0  0  0  0  0
   -7.7030   23.0550  -31.9090 C   0  0  0  0  0  0  0  0  0  0  0  0
   -7.2030   21.9430  -32.7170 N   0  0  0  0  0  0  0  0  0  0  0  0
   -7.5020   20.5570  -32.4590 C   0  0  0  0  0  0  0  0  0  0  0  0
   -8.5170   20.1580  -31.5620 C   0  0  0  0  0  0  0  0  0  0  0  0
   -8.7570   18.7950  -31.3170 C   0  0  0  0  0  0  0  0  0  0  0  0
   -7.9950   17.8260  -31.9820 C   0  0  0  0  0  0  0  0  0  0  0  0
   -7.0500   18.2410  -32.8680 N   0  0  0  0  0  0  0  0  0  0  0  0
   -6.1660   17.5510  -33.6150 C   0  0  0  0  0  0  0  0  0  0  0  0
   -6.0620   16.0850  -33.7380 C   0  0  0  0  0  0  0  0  0  0  0  0
   -5.0660   15.2510  -33.2540 C   0  0  0  0  0  0  0  0  0  0  0  0
   -5.4030   13.9700  -33.5000 N   0  0  0  0  0  0  0  0  0  0  0  0
   -6.5690   13.9750  -34.1270 N   0  0  0  0  0  0  0  0  0  0  0  0
   -7.3010   12.7700  -34.4900 C   0  0  0  0  0  0  0  0  0  0  0  0
   -7.0140   15.2370  -34.2660 C   0  0  0  0  0  0  0  0  0  0  0  0
   -5.3650   18.4710  -34.2700 C   0  0  0  0  0  0  0  0  0  0  0  0
   -5.7520   19.7270  -33.9530 N   0  0  0  0  0  0  0  0  0  0  0  0
   -6.7800   19.5410  -33.0980 C   0  0  0  0  0  0  0  0  0  0  0  0
   -3.6330   21.5638  -31.7026 H   0  0  0  0  0  0  0  0  0  0  0  0
   -4.2773   20.9372  -33.2579 H   0  0  0  0  0  0  0  0  0  0  0  0
   -3.0346   22.2342  -33.2579 H   0  0  0  0  0  0  0  0  0  0  0  0
   -3.6654   25.3713  -29.1880 H   0  0  0  0  0  0  0  0  0  0  0  0
   -6.0168   25.6789  -28.4008 H   0  0  0  0  0  0  0  0  0  0  0  0
   -7.8886   24.6160  -29.6687 H   0  0  0  0  0  0  0  0  0  0  0  0
   -8.4507   22.6761  -31.1968 H   0  0  0  0  0  0  0  0  0  0  0  0
   -8.1563   23.8017  -32.5775 H   0  0  0  0  0  0  0  0  0  0  0  0
   -6.5390   22.1760  -33.4900 H   0  0  0  0  0  0  0  0  0  0  0  0
   -9.1244   20.9197  -31.0512 H   0  0  0  0  0  0  0  0  0  0  0  0
   -9.5396   18.4907  -30.6064 H   0  0  0  0  0  0  0  0  0  0  0  0
   -8.1570   16.7547  -31.7922 H   0  0  0  0  0  0  0  0  0  0  0  0
   -4.1466   15.5825  -32.7493 H   0  0  0  0  0  0  0  0  0  0  0  0
   -7.6196   12.2455  -33.5771 H   0  0  0  0  0  0  0  0  0  0  0  0
   -8.1858   13.0433  -35.0836 H   0  0  0  0  0  0  0  0  0  0  0  0
   -6.6506   12.1107  -35.0836 H   0  0  0  0  0  0  0  0  0  0  0  0
   -7.9688   15.5397  -34.7206 H   0  0  0  0  0  0  0  0  0  0  0  0
   -4.5366   18.2176  -34.9478 H   0  0  0  0  0  0  0  0  0  0  0  0
  1  2  1  0
  2  3  1  0
  3  4  2  0
  4  5  1  0
  5  6  2  0
  6  7  1  0
  7  8  2  0
  8  9  1  0
  9 10  1  0
 10 11  1  0
 11 12  2  0
 12 13  1  0
 13 14  2  0
 14 15  1  0
 15 16  1  0
 16 17  1  0
 17 18  1  0
 18 19  2  0
 19 20  1  0
 20 21  1  0
 20 22  1  0
 16 23  2  0
 23 24  1  0
 24 25  2  0
  8  3  1  0
 25 11  1  0
 25 15  1  0
 22 17  2  0
  1 26  1  0
  1 27  1  0
  1 28  1  0
  5 29  1  0
  6 30  1  0
  7 31  1  0
  9 32  1  0
  9 33  1  0
 10 34  1  0
 12 35  1  0
 13 36  1  0
 14 37  1  0
 18 38  1  0
 21 39  1  0
 21 40  1  0
 21 41  1  0
 22 42  1  0
 23 43  1  0
M  END
>  <UniqueID>  (28) 
28

>  <SMILES>  (28) 
COc1ncccc1CNc1cccn2c(-c3cnn(C)c3)cnc12

>  <Energy>  (28) 
112.40585181734178

>  <Genealogy>  (28) 
COc1ncccc1CNc1cccn2c(-c3cnn(C)c3)cnc12 (3D coordinates assigned)
COc1ncccc1CNc1cccn2c(-c3cnn(C)c3)cnc12 (optimized conformer: 112.40585181734178 kcal/mol)

>  <smiles>  (28) 
COc1ncccc1CNc1cccn2c(-c3cnn(C)c3)cnc12

>  <score_type>  (28) 
oracle

>  <origin>  (28) 
adg

>  <m_score__min__energy>  (28) 
-8.3599999999999994

>  <m_primary>  (28) 
energy

$$$$
28:0
     RDKit          3D

 31 32  0  0  0  0  0  0  0  0999 V2000
   -9.5509   19.3538  -32.4948 H   0  0  0  0  0  0  0  0  0  0  0  0
   -8.7840   20.1290  -32.3500 C   0  0  0  0  0  0  0  0  0  0  0  0
   -9.0310   21.6440  -31.6620 S   0  0  0  0  0  0  0  0  0  0  0  0
   -7.4350   22.1180  -31.8580 C   0  0  0  0  0  0  0  0  0  0  0  0
   -6.9910   23.2780  -31.4680 N   0  0  0  0  0  0  0  0  0  0  0  0
   -5.6310   23.7340  -31.3950 C   0  0  0  0  0  0  0  0  0  0  0  0
   -4.6950   23.1000  -31.9490 O   0  0  0  0  0  0  0  0  0  0  0  0
   -5.3410   25.0520  -30.7530 C   0  0  0  0  0  0  0  0  0  0  0  0
   -5.6961   25.0371  -29.7120 H   0  0  0  0  0  0  0  0  0  0  0  0
   -5.8571   25.8482  -31.3095 H   0  0  0  0  0  0  0  0  0  0  0  0
   -3.9010   25.3060  -30.7710 N   0  0  0  0  0  0  0  0  0  0  0  0
   -3.4540   24.8260  -31.5920 H   0  0  0  0  0  0  0  0  0  0  0  0
   -3.3700   24.9490  -29.5570 O   0  0  0  0  0  0  0  0  0  0  0  0
   -2.6250   23.7540  -29.6910 C   0  0  0  0  0  0  0  0  0  0  0  0
   -2.3799   23.3609  -28.6933 H   0  0  0  0  0  0  0  0  0  0  0  0
   -3.2200   23.0108  -30.2419 H   0  0  0  0  0  0  0  0  0  0  0  0
   -1.6957   23.9611  -30.2419 H   0  0  0  0  0  0  0  0  0  0  0  0
   -6.6930   21.1360  -32.4260 N   0  0  0  0  0  0  0  0  0  0  0  0
   -5.6740   21.1960  -32.6290 H   0  0  0  0  0  0  0  0  0  0  0  0
   -7.4360   20.0250  -32.7060 C   0  0  0  0  0  0  0  0  0  0  0  0
   -6.8530   18.8080  -33.3230 C   0  0  0  0  0  0  0  0  0  0  0  0
   -5.9350   18.9130  -34.3870 C   0  0  0  0  0  0  0  0  0  0  0  0
   -5.6477   19.9054  -34.7645 H   0  0  0  0  0  0  0  0  0  0  0  0
   -5.3870   17.7650  -34.9660 C   0  0  0  0  0  0  0  0  0  0  0  0
   -4.6700   17.8572  -35.7951 H   0  0  0  0  0  0  0  0  0  0  0  0
   -5.7480   16.5010  -34.4940 C   0  0  0  0  0  0  0  0  0  0  0  0
   -5.3146   15.5988  -34.9503 H   0  0  0  0  0  0  0  0  0  0  0  0
   -6.6590   16.3830  -33.4430 C   0  0  0  0  0  0  0  0  0  0  0  0
   -6.9442   15.3870  -33.0733 H   0  0  0  0  0  0  0  0  0  0  0  0
   -7.2100   17.5280  -32.8590 C   0  0  0  0  0  0  0  0  0  0  0  0
   -7.9274   17.4276  -32.0312 H   0  0  0  0  0  0  0  0  0  0  0  0
  1  2  1  0
  2  3  1  0
  3  4  1  0
  4  5  2  0
  5  6  1  0
  6  7  2  0
  6  8  1  0
  8  9  1  0
  8 10  1  0
  8 11  1  0
 11 12  1  0
 11 13  1  0
 13 14  1  0
 14 15  1  0
 14 16  1  0
 14 17  1  0
  4 18  1  0
 18 19  1  0
 18 20  1  0
 20 21  1  0
 21 22  2  0
 22 23  1  0
 22 24  1  0
 24 25  1  0
 24 26  2  0
 26 27  1  0
 26 28  1  0
 28 29  1  0
 28 30  2  0
 30 31  1  0
 20  2  2  0
 30 21  1  0
M  END
>  <UniqueID>  (29) 
29

>  <SMILES>  (29) 
CONCC(=O)/N=c1\[nH]c(-c2ccccc2)cs1

>  <Energy>  (29) 
72.30567267072247

>  <Genealogy>  (29) 
CONCC(=O)/N=c1\[nH]c(-c2ccccc2)cs1 (cis-trans isomerization)
CONCC(=O)/N=c1\[nH]c(-c2ccccc2)cs1 (3D coordinates assigned)
CONCC(=O)/N=c1\[nH]c(-c2ccccc2)cs1 (optimized conformer: 72.30567267072247 kcal/mol)

>  <smiles>  (29) 
CONCC(=O)N=c1[nH]c(-c2ccccc2)cs1

>  <score_type>  (29) 
oracle

>  <origin>  (29) 
adg

>  <m_score__min__energy>  (29) 
-7.7999999999999998

>  <m_primary>  (29) 
energy

$$$$
29:0
     RDKit          3D

 74 77  0  0  0  0  0  0  0  0999 V2000
   -9.8520   21.0970  -31.9830 C   0  0  0  0  0  0  0  0  0  0  0  0
   -9.1140   19.7840  -31.7050 C   0  0  0  0  0  0  0  0  0  0  0  0
   -8.2010   19.3980  -32.8120 N   0  0  2  0  0  0  0  0  0  0  0  0
   -7.5810   18.0830  -32.5420 C   0  0  0  0  0  0  0  0  0  0  0  0
   -7.1430   20.4310  -33.0090 C   0  0  0  0  0  0  0  0  0  0  0  0
   -6.7930   21.1950  -31.7050 C   0  0  0  0  0  0  0  0  0  0  0  0
   -6.2600   22.6200  -31.9300 C   0  0  0  0  0  0  0  0  0  0  0  0
   -4.9890   22.6120  -32.6620 N   0  0  0  0  0  0  0  0  0  0  0  0
   -3.7800   22.0580  -32.1170 C   0  0  0  0  0  0  0  0  0  0  0  0
   -3.3030   20.8160  -32.5630 C   0  0  0  0  0  0  0  0  0  0  0  0
   -4.0440   20.0350  -33.4760 C   0  0  0  0  0  0  0  0  0  0  0  0
   -3.5990   18.7780  -33.8640 C   0  0  0  0  0  0  0  0  0  0  0  0
   -2.4210   18.2690  -33.3360 C   0  0  0  0  0  0  0  0  0  0  0  0
   -1.6690   19.0210  -32.4330 C   0  0  0  0  0  0  0  0  0  0  0  0
   -2.0760   20.3190  -32.0500 C   0  0  0  0  0  0  0  0  0  0  0  0
   -1.3280   21.0850  -31.1740 N   0  0  0  0  0  0  0  0  0  0  0  0
    0.0810   20.7280  -30.8950 C   0  0  0  0  0  0  0  0  0  0  0  0
   -1.8980   22.1880  -30.5720 C   0  0  0  0  0  0  0  0  0  0  0  0
   -1.3070   22.8080  -29.4430 C   0  0  0  0  0  0  0  0  0  0  0  0
   -1.8950   23.9310  -28.8340 C   0  0  0  0  0  0  0  0  0  0  0  0
   -1.3430   24.5550  -27.7050 O   0  0  0  0  0  0  0  0  0  0  0  0
   -1.9690   24.6060  -26.4250 C   0  0  0  0  0  0  0  0  0  0  0  0
   -0.8800   24.6190  -25.3370 C   0  0  0  0  0  0  0  0  0  0  0  0
   -0.3670   25.9780  -24.9410 N   0  0  0  0  0  0  0  0  0  0  0  0
   -0.8240   26.2900  -23.5640 C   0  0  0  0  0  0  0  0  0  0  0  0
   -0.9450   27.0060  -25.8580 C   0  0  0  0  0  0  0  0  0  0  0  0
   -0.1400   27.1660  -27.1730 C   0  0  0  0  0  0  0  0  0  0  0  0
    0.6850   26.0500  -27.4310 O   0  0  0  0  0  0  0  0  0  0  0  0
    1.6690   25.9100  -26.4220 C   0  0  0  0  0  0  0  0  0  0  0  0
    1.1150   26.0890  -24.9890 C   0  0  0  0  0  0  0  0  0  0  0  0
   -3.0720   24.4470  -29.3590 C   0  0  0  0  0  0  0  0  0  0  0  0
   -3.6820   23.8520  -30.4560 C   0  0  0  0  0  0  0  0  0  0  0  0
   -3.1260   22.7080  -31.0550 C   0  0  0  0  0  0  0  0  0  0  0  0
  -10.1209   21.5754  -31.0297 H   0  0  0  0  0  0  0  0  0  0  0  0
   -9.1996   21.7694  -32.5595 H   0  0  0  0  0  0  0  0  0  0  0  0
  -10.7655   20.8892  -32.5595 H   0  0  0  0  0  0  0  0  0  0  0  0
   -8.5229   19.8998  -30.7846 H   0  0  0  0  0  0  0  0  0  0  0  0
   -9.8698   18.9912  -31.6038 H   0  0  0  0  0  0  0  0  0  0  0  0
   -8.7600   19.2870  -33.6920 H   0  0  0  0  0  0  0  0  0  0  0  0
   -7.5080   17.9282  -31.4554 H   0  0  0  0  0  0  0  0  0  0  0  0
   -8.1993   17.2883  -32.9849 H   0  0  0  0  0  0  0  0  0  0  0  0
   -6.5745   18.0543  -32.9849 H   0  0  0  0  0  0  0  0  0  0  0  0
   -6.2337   19.9354  -33.3800 H   0  0  0  0  0  0  0  0  0  0  0  0
   -7.5312   21.1673  -33.7282 H   0  0  0  0  0  0  0  0  0  0  0  0
   -7.7023   21.2605  -31.0895 H   0  0  0  0  0  0  0  0  0  0  0  0
   -5.9855   20.6302  -31.2161 H   0  0  0  0  0  0  0  0  0  0  0  0
   -7.0013   23.1912  -32.5081 H   0  0  0  0  0  0  0  0  0  0  0  0
   -6.0877   23.0820  -30.9467 H   0  0  0  0  0  0  0  0  0  0  0  0
   -4.9460   23.0660  -33.6000 H   0  0  0  0  0  0  0  0  0  0  0  0
   -4.9865   20.4273  -33.8856 H   0  0  0  0  0  0  0  0  0  0  0  0
   -4.1790   18.1872  -34.5882 H   0  0  0  0  0  0  0  0  0  0  0  0
   -2.0780   17.2664  -33.6312 H   0  0  0  0  0  0  0  0  0  0  0  0
   -0.7451   18.5971  -32.0127 H   0  0  0  0  0  0  0  0  0  0  0  0
    0.2405   20.6876  -29.8074 H   0  0  0  0  0  0  0  0  0  0  0  0
    0.3042   19.7449  -31.3351 H   0  0  0  0  0  0  0  0  0  0  0  0
    0.7454   21.4862  -31.3351 H   0  0  0  0  0  0  0  0  0  0  0  0
   -0.3694   22.4027  -29.0348 H   0  0  0  0  0  0  0  0  0  0  0  0
   -2.5785   25.5185  -26.3482 H   0  0  0  0  0  0  0  0  0  0  0  0
   -2.6177   23.7276  -26.2923 H   0  0  0  0  0  0  0  0  0  0  0  0
   -1.2950   24.1396  -24.4381 H   0  0  0  0  0  0  0  0  0  0  0  0
   -0.0188   24.0884  -25.7693 H   0  0  0  0  0  0  0  0  0  0  0  0
   -0.1422   25.8245  -22.8371 H   0  0  0  0  0  0  0  0  0  0  0  0
   -0.8279   27.3801  -23.4171 H   0  0  0  0  0  0  0  0  0  0  0  0
   -1.8407   25.8966  -23.4171 H   0  0  0  0  0  0  0  0  0  0  0  0
   -1.9742   26.7112  -26.1107 H   0  0  0  0  0  0  0  0  0  0  0  0
   -0.9117   27.9717  -25.3323 H   0  0  0  0  0  0  0  0  0  0  0  0
   -0.8457   27.2858  -28.0083 H   0  0  0  0  0  0  0  0  0  0  0  0
    0.5081   28.0485  -27.0676 H   0  0  0  0  0  0  0  0  0  0  0  0
    2.1088   24.9049  -26.5020 H   0  0  0  0  0  0  0  0  0  0  0  0
    2.4119   26.7052  -26.5828 H   0  0  0  0  0  0  0  0  0  0  0  0
    1.5494   25.3127  -24.3419 H   0  0  0  0  0  0  0  0  0  0  0  0
    1.3891   27.0972  -24.6448 H   0  0  0  0  0  0  0  0  0  0  0  0
   -3.5269   25.3376  -28.9009 H   0  0  0  0  0  0  0  0  0  0  0  0
   -4.6107   24.2808  -30.8607 H   0  0  0  0  0  0  0  0  0  0  0  0
  1  2  1  0
  2  3  1  0
  3  4  1  0
  3  5  1  0
  5  6  1  0
  6  7  1  0
  7  8  1  0
  8  9  1  0
  9 10  2  0
 10 11  1  0
 11 12  2  0
 12 13  1  0
 13 14  2  0
 14 15  1  0
 15 16  2  0
 16 17  1  0
 16 18  1  0
 18 19  2  0
 19 20  1  0
 20 21  1  0
 21 22  1  0
 22 23  1  0
 23 24  1  0
 24 25  1  0
 24 26  1  0
 26 27  1  0
 27 28  1  0
 28 29  1  0
 29 30  1  0
 20 31  2  0
 31 32  1  0
 32 33  2  0
 33  9  1  0
 15 10  1  0
 33 18  1  0
 30 24  1  0
  1 34  1  0
  1 35  1  0
  1 36  1  0
  2 37  1  0
  2 38  1  0
  3 39  1  6
  4 40  1  0
  4 41  1  0
  4 42  1  0
  5 43  1  0
  5 44  1  0
  6 45  1  0
  6 46  1  0
  7 47  1  0
  7 48  1  0
  8 49  1  0
 11 50  1  0
 12 51  1  0
 13 52  1  0
 14 53  1  0
 17 54  1  0
 17 55  1  0
 17 56  1  0
 19 57  1  0
 22 58  1  0
 22 59  1  0
 23 60  1  0
 23 61  1  0
 25 62  1  0
 25 63  1  0
 25 64  1  0
 26 65  1  0
 26 66  1  0
 27 67  1  0
 27 68  1  0
 29 69  1  0
 29 70  1  0
 30 71  1  0
 30 72  1  0
 31 73  1  0
 32 74  1  0
M  CHG  3   3   1  16   1  24   1
M  END
>  <UniqueID>  (30) 
30

>  <SMILES>  (30) 
CC[N@H+](C)CCCNc1c2ccccc2[n+](C)c2cc(OCC[N+]3(C)CCOCC3)ccc12

>  <Energy>  (30) 
124.59796615856371

>  <Genealogy>  (30) 
CC[NH+](C)CCCNc1c2ccccc2[n+](C)c2cc(OCC[N+]3(C)CCOCC3)ccc12 (protonated)
CC[N@H+](C)CCCNc1c2ccccc2[n+](C)c2cc(OCC[N+]3(C)CCOCC3)ccc12 (chirality)
CC[N@H+](C)CCCNc1c2ccccc2[n+](C)c2cc(OCC[N+]3(C)CCOCC3)ccc12 (3D coordinates assigned)
CC[N@H+](C)CCCNc1c2ccccc2[n+](C)c2cc(OCC[N+]3(C)CCOCC3)ccc12 (nonaromatic ring conformer: 124.59796615856371 kcal/mol)

>  <smiles>  (30) 
CCN(C)CCCNc1c2ccccc2[n+](C)c2cc(OCC[N+]3(C)CCOCC3)ccc12

>  <score_type>  (30) 
oracle

>  <origin>  (30) 
adg

>  <m_score__min__energy>  (30) 
-7.1900000000000004

>  <m_primary>  (30) 
energy

$$$$
30:0
     RDKit          3D

 53 55  0  0  0  0  0  0  0  0999 V2000
   -8.2630   23.0470  -31.6250 C   0  0  0  0  0  0  0  0  0  0  0  0
   -7.2530   23.4400  -32.6970 C   0  0  0  0  0  0  0  0  0  0  0  0
   -6.0770   23.9530  -32.1020 O   0  0  0  0  0  0  0  0  0  0  0  0
   -6.3690   24.5480  -30.8560 C   0  0  0  0  0  0  0  0  0  0  0  0
   -5.0700   24.9170  -30.1510 C   0  0  0  0  0  0  0  0  0  0  0  0
   -3.9690   24.3490  -30.8370 O   0  0  0  0  0  0  0  0  0  0  0  0
   -3.3290   23.3740  -30.0390 C   0  0  0  0  0  0  0  0  0  0  0  0
   -3.6270   21.9810  -30.5980 C   0  0  0  0  0  0  0  0  0  0  0  0
   -4.4600   22.0590  -31.8100 N   0  0  0  0  0  0  0  0  0  0  0  0
   -4.3460   20.8340  -32.5890 C   0  0  0  0  0  0  0  0  0  0  0  0
   -3.1130   20.4740  -33.1970 C   0  0  0  0  0  0  0  0  0  0  0  0
   -1.9990   21.3510  -33.1970 C   0  0  0  0  0  0  0  0  0  0  0  0
   -0.7690   20.9480  -33.7070 C   0  0  0  0  0  0  0  0  0  0  0  0
   -0.6110   19.6690  -34.2180 C   0  0  0  0  0  0  0  0  0  0  0  0
   -1.6980   18.8040  -34.2750 C   0  0  0  0  0  0  0  0  0  0  0  0
   -2.9830   19.2040  -33.8260 C   0  0  0  0  0  0  0  0  0  0  0  0
   -4.0840   18.3860  -33.9800 N   0  0  0  0  0  0  0  0  0  0  0  0
   -4.0170   17.2190  -34.8900 C   0  0  0  0  0  0  0  0  0  0  0  0
   -5.2690   18.6840  -33.3360 C   0  0  0  0  0  0  0  0  0  0  0  0
   -6.3310   17.7460  -33.2790 C   0  0  0  0  0  0  0  0  0  0  0  0
   -7.5600   18.0770  -32.7160 C   0  0  0  0  0  0  0  0  0  0  0  0
   -7.7770   19.3530  -32.2040 C   0  0  0  0  0  0  0  0  0  0  0  0
   -9.1030   19.7070  -31.5950 C   0  0  0  0  0  0  0  0  0  0  0  0
   -6.7250   20.2720  -32.1800 C   0  0  0  0  0  0  0  0  0  0  0  0
   -5.4450   19.9420  -32.6970 C   0  0  0  0  0  0  0  0  0  0  0  0
   -7.8263   23.2169  -30.6298 H   0  0  0  0  0  0  0  0  0  0  0  0
   -9.1715   23.6572  -31.7358 H   0  0  0  0  0  0  0  0  0  0  0  0
   -8.5201   21.9832  -31.7358 H   0  0  0  0  0  0  0  0  0  0  0  0
   -6.9986   22.5542  -33.2975 H   0  0  0  0  0  0  0  0  0  0  0  0
   -7.6966   24.2163  -33.3377 H   0  0  0  0  0  0  0  0  0  0  0  0
   -6.9701   25.4554  -31.0152 H   0  0  0  0  0  0  0  0  0  0  0  0
   -6.9338   23.8376  -30.2345 H   0  0  0  0  0  0  0  0  0  0  0  0
   -4.9631   26.0117  -30.1336 H   0  0  0  0  0  0  0  0  0  0  0  0
   -5.0942   24.5284  -29.1222 H   0  0  0  0  0  0  0  0  0  0  0  0
   -2.2429   23.5481  -30.0482 H   0  0  0  0  0  0  0  0  0  0  0  0
   -3.7028   23.4423  -29.0067 H   0  0  0  0  0  0  0  0  0  0  0  0
   -2.6778   21.4839  -30.8467 H   0  0  0  0  0  0  0  0  0  0  0  0
   -4.1762   21.4102  -29.8347 H   0  0  0  0  0  0  0  0  0  0  0  0
   -5.4540   22.2530  -31.5560 H   0  0  0  0  0  0  0  0  0  0  0  0
   -4.2040   22.8910  -32.3850 H   0  0  0  0  0  0  0  0  0  0  0  0
   -2.1090   22.3659  -32.7873 H   0  0  0  0  0  0  0  0  0  0  0  0
    0.0809   21.6464  -33.7048 H   0  0  0  0  0  0  0  0  0  0  0  0
    0.3744   19.3385  -34.5784 H   0  0  0  0  0  0  0  0  0  0  0  0
   -1.5589   17.7893  -34.6762 H   0  0  0  0  0  0  0  0  0  0  0  0
   -3.9639   16.2941  -34.2969 H   0  0  0  0  0  0  0  0  0  0  0  0
   -4.9153   17.1967  -35.5244 H   0  0  0  0  0  0  0  0  0  0  0  0
   -3.1220   17.2996  -35.5244 H   0  0  0  0  0  0  0  0  0  0  0  0
   -6.1803   16.7361  -33.6881 H   0  0  0  0  0  0  0  0  0  0  0  0
   -8.3635   17.3268  -32.6755 H   0  0  0  0  0  0  0  0  0  0  0  0
   -9.0204   19.6849  -30.4983 H   0  0  0  0  0  0  0  0  0  0  0  0
   -9.3984   20.7155  -31.9203 H   0  0  0  0  0  0  0  0  0  0  0  0
   -9.8617   18.9799  -31.9203 H   0  0  0  0  0  0  0  0  0  0  0  0
   -6.8921   21.2714  -31.7518 H   0  0  0  0  0  0  0  0  0  0  0  0
  1  2  1  0
  2  3  1  0
  3  4  1  0
  4  5  1  0
  5  6  1  0
  6  7  1  0
  7  8  1  0
  8  9  1  0
  9 10  1  0
 10 11  2  0
 11 12  1  0
 12 13  2  0
 13 14  1  0
 14 15  2  0
 15 16  1  0
 16 17  2  0
 17 18  1  0
 17 19  1  0
 19 20  2  0
 20 21  1  0
 21 22  2  0
 22 23  1  0
 22 24  1  0
 24 25  2  0
 25 10  1  0
 16 11  1  0
 25 19  1  0
  1 26  1  0
  1 27  1  0
  1 28  1  0
  2 29  1  0
  2 30  1  0
  4 31  1  0
  4 32  1  0
  5 33  1  0
  5 34  1  0
  7 35  1  0
  7 36  1  0
  8 37  1  0
  8 38  1  0
  9 39  1  0
  9 40  1  0
 12 41  1  0
 13 42  1  0
 14 43  1  0
 15 44  1  0
 18 45  1  0
 18 46  1  0
 18 47  1  0
 20 48  1  0
 21 49  1  0
 23 50  1  0
 23 51  1  0
 23 52  1  0
 24 53  1  0
M  CHG  2   9   1  17   1
M  END
>  <UniqueID>  (31) 
31

>  <SMILES>  (31) 
CCOCCOCC[NH2+]c1c2ccccc2[n+](C)c2ccc(C)cc12

>  <Energy>  (31) 
80.03080990507746

>  <Genealogy>  (31) 
CCOCCOCC[NH2+]c1c2ccccc2[n+](C)c2ccc(C)cc12 (protonated)
CCOCCOCC[NH2+]c1c2ccccc2[n+](C)c2ccc(C)cc12 (3D coordinates assigned)
CCOCCOCC[NH2+]c1c2ccccc2[n+](C)c2ccc(C)cc12 (optimized conformer: 80.03080990507746 kcal/mol)

>  <smiles>  (31) 
CCOCCOCCNc1c2ccccc2[n+](C)c2ccc(C)cc12

>  <score_type>  (31) 
oracle

>  <origin>  (31) 
adg

>  <m_score__min__energy>  (31) 
-8.6799999999999997

>  <m_primary>  (31) 
energy

$$$$
