0:0
     RDKit          3D

 48 50  0  0  0  0  0  0  0  0999 V2000
   -2.6760   20.1890  -27.5730 C   0  0  0  0  0  0  0  0  0  0  0  0
   -1.8070   21.4200  -27.8100 C   0  0  0  0  0  0  0  0  0  0  0  0
   -2.2230   22.1090  -29.0520 N   0  0  0  0  0  0  0  0  0  0  0  0
   -2.4590   21.1530  -30.1590 C   0  0  0  0  0  0  0  0  0  0  0  0
   -1.7560   21.5850  -31.4460 C   0  0  0  0  0  0  0  0  0  0  0  0
   -3.3170   23.0940  -28.8370 C   0  0  0  0  0  0  0  0  0  0  0  0
   -2.9600   24.5570  -29.1610 C   0  0  0  0  0  0  0  0  0  0  0  0
   -3.4860   24.9450  -30.4610 N   0  0  0  0  0  0  0  0  0  0  0  0
   -4.8820   25.0890  -30.7400 C   0  0  0  0  0  0  0  0  0  0  0  0
   -5.3860   26.2410  -30.8320 O   0  0  0  0  0  0  0  0  0  0  0  0
   -5.7260   23.8850  -30.9280 C   0  0  0  0  0  0  0  0  0  0  0  0
   -7.0080   23.8150  -30.3570 C   0  0  0  0  0  0  0  0  0  0  0  0
   -7.8000   22.6800  -30.5380 C   0  0  0  0  0  0  0  0  0  0  0  0
   -7.3290   21.6060  -31.2930 C   0  0  0  0  0  0  0  0  0  0  0  0
   -6.0540   21.6530  -31.8840 C   0  0  0  0  0  0  0  0  0  0  0  0
   -5.5800   20.5400  -32.6680 N   0  0  0  0  0  0  0  0  0  0  0  0
   -6.3310   19.7090  -33.4380 C   0  0  0  0  0  0  0  0  0  0  0  0
   -5.4790   18.7880  -33.9980 C   0  0  0  0  0  0  0  0  0  0  0  0
   -5.6980   17.7140  -34.8560 C   0  0  0  0  0  0  0  0  0  0  0  0
   -4.5780   16.9540  -35.2430 C   0  0  0  0  0  0  0  0  0  0  0  0
   -3.2880   17.2800  -34.7620 C   0  0  0  0  0  0  0  0  0  0  0  0
   -3.1070   18.3730  -33.8920 C   0  0  0  0  0  0  0  0  0  0  0  0
   -4.2350   19.1060  -33.5310 C   0  0  0  0  0  0  0  0  0  0  0  0
   -4.3000   20.1740  -32.7180 N   0  0  0  0  0  0  0  0  0  0  0  0
   -5.2560   22.7960  -31.6860 C   0  0  0  0  0  0  0  0  0  0  0  0
   -2.7920   20.0247  -26.4915 H   0  0  0  0  0  0  0  0  0  0  0  0
   -3.6651   20.3452  -28.0283 H   0  0  0  0  0  0  0  0  0  0  0  0
   -2.1976   19.3093  -28.0283 H   0  0  0  0  0  0  0  0  0  0  0  0
   -1.9136   22.1091  -26.9592 H   0  0  0  0  0  0  0  0  0  0  0  0
   -0.7579   21.1046  -27.9092 H   0  0  0  0  0  0  0  0  0  0  0  0
   -2.0799   20.1641  -29.8616 H   0  0  0  0  0  0  0  0  0  0  0  0
   -3.5407   21.1206  -30.3562 H   0  0  0  0  0  0  0  0  0  0  0  0
   -0.8435   22.1457  -31.1949 H   0  0  0  0  0  0  0  0  0  0  0  0
   -1.4891   20.6948  -32.0345 H   0  0  0  0  0  0  0  0  0  0  0  0
   -2.4295   22.2253  -32.0345 H   0  0  0  0  0  0  0  0  0  0  0  0
   -4.1660   22.8028  -29.4728 H   0  0  0  0  0  0  0  0  0  0  0  0
   -3.5423   23.0676  -27.7606 H   0  0  0  0  0  0  0  0  0  0  0  0
   -3.3897   25.2119  -28.3887 H   0  0  0  0  0  0  0  0  0  0  0  0
   -1.8645   24.6547  -29.1821 H   0  0  0  0  0  0  0  0  0  0  0  0
   -7.3895   24.6593  -29.7641 H   0  0  0  0  0  0  0  0  0  0  0  0
   -8.8004   22.6323  -30.0830 H   0  0  0  0  0  0  0  0  0  0  0  0
   -7.9600   20.7151  -31.4272 H   0  0  0  0  0  0  0  0  0  0  0  0
   -7.4197   19.7637  -33.5855 H   0  0  0  0  0  0  0  0  0  0  0  0
   -6.7074   17.4686  -35.2177 H   0  0  0  0  0  0  0  0  0  0  0  0
   -4.7068   16.1002  -35.9245 H   0  0  0  0  0  0  0  0  0  0  0  0
   -2.4213   16.6764  -35.0692 H   0  0  0  0  0  0  0  0  0  0  0  0
   -2.1098   18.6383  -33.5111 H   0  0  0  0  0  0  0  0  0  0  0  0
   -4.2506   22.8386  -32.1302 H   0  0  0  0  0  0  0  0  0  0  0  0
  1  2  1  0
  2  3  1  0
  3  4  1  0
  4  5  1  0
  3  6  1  0
  6  7  1  0
  7  8  1  0
  8  9  1  0
  9 10  2  0
  9 11  1  0
 11 12  2  0
 12 13  1  0
 13 14  2  0
 14 15  1  0
 15 16  1  0
 16 17  1  0
 17 18  2  0
 18 19  1  0
 19 20  2  0
 20 21  1  0
 21 22  2  0
 22 23  1  0
 23 24  2  0
 15 25  2  0
 25 11  1  0
 24 16  1  0
 23 18  1  0
  1 26  1  0
  1 27  1  0
  1 28  1  0
  2 29  1  0
  2 30  1  0
  4 31  1  0
  4 32  1  0
  5 33  1  0
  5 34  1  0
  5 35  1  0
  6 36  1  0
  6 37  1  0
  7 38  1  0
  7 39  1  0
 12 40  1  0
 13 41  1  0
 14 42  1  0
 17 43  1  0
 19 44  1  0
 20 45  1  0
 21 46  1  0
 22 47  1  0
 25 48  1  0
M  CHG  1   8  -1
M  END
>  <UniqueID>  (1) 
1

>  <SMILES>  (1) 
CCN(CC)CC[N-]C(=O)c1cccc(-n2cc3ccccc3n2)c1

>  <Energy>  (1) 
89.09328753270924

>  <Genealogy>  (1) 
CCN(CC)CC[N-]C(=O)c1cccc(-n2cc3ccccc3n2)c1 (protonated)
CCN(CC)CC[N-]C(=O)c1cccc(-n2cc3ccccc3n2)c1 (3D coordinates assigned)
CCN(CC)CC[N-]C(=O)c1cccc(-n2cc3ccccc3n2)c1 (optimized conformer: 89.09328753270924 kcal/mol)

>  <smiles>  (1) 
CCN(CC)CCNC(=O)c1cccc(-n2cc3ccccc3n2)c1

>  <score_type>  (1) 
oracle

>  <origin>  (1) 
adg

>  <m_score__min__energy>  (1) 
-9.5800000000000001

>  <m_primary>  (1) 
energy

$$$$
1:0
     RDKit          3D

 46 50  0  0  0  0  0  0  0  0999 V2000
   -0.6700   19.1830  -32.0980 O   0  0  0  0  0  0  0  0  0  0  0  0
   -1.8110   19.6710  -32.3160 C   0  0  0  0  0  0  0  0  0  0  0  0
   -2.2000   20.8790  -31.7270 C   0  0  0  0  0  0  0  0  0  0  0  0
   -3.5000   21.4020  -31.9890 C   0  0  0  0  0  0  0  0  0  0  0  0
   -3.9420   22.6520  -31.3790 N   0  0  0  0  0  0  0  0  0  0  0  0
   -3.1370   23.2540  -30.2880 C   0  0  0  0  0  0  0  0  0  0  0  0
   -3.7680   24.5500  -29.7390 C   0  0  2  0  0  0  0  0  0  0  0  0
   -4.9770   24.2590  -28.8510 C   0  0  0  0  0  0  0  0  0  0  0  0
   -6.1320   24.3270  -29.8210 C   0  0  0  0  0  0  0  0  0  0  0  0
   -5.4450   24.6520  -31.1470 C   0  0  2  0  0  0  0  0  0  0  0  0
   -5.1060   23.3760  -31.9430 C   0  0  0  0  0  0  0  0  0  0  0  0
   -4.2460   25.3020  -30.8230 O   0  0  0  0  0  0  0  0  0  0  0  0
   -4.3390   20.6950  -32.8210 N   0  0  0  0  0  0  0  0  0  0  0  0
   -3.9180   19.5260  -33.3710 C   0  0  0  0  0  0  0  0  0  0  0  0
   -4.6360   18.7220  -34.1830 N   0  0  0  0  0  0  0  0  0  0  0  0
   -6.0200   18.8820  -34.6310 C   0  0  0  0  0  0  0  0  0  0  0  0
   -6.9330   19.1020  -33.4500 C   0  0  0  0  0  0  0  0  0  0  0  0
   -7.3770   20.4000  -33.1490 C   0  0  0  0  0  0  0  0  0  0  0  0
   -8.2340   20.6230  -32.0670 C   0  0  0  0  0  0  0  0  0  0  0  0
   -8.6500   19.5520  -31.2730 C   0  0  0  0  0  0  0  0  0  0  0  0
   -8.2070   18.2580  -31.5570 C   0  0  0  0  0  0  0  0  0  0  0  0
   -7.3490   18.0280  -32.6370 C   0  0  0  0  0  0  0  0  0  0  0  0
   -6.9260   16.7620  -32.8840 F   0  0  0  0  0  0  0  0  0  0  0  0
   -3.8150   17.6770  -34.4480 C   0  0  0  0  0  0  0  0  0  0  0  0
   -2.6070   17.8750  -33.7920 C   0  0  0  0  0  0  0  0  0  0  0  0
   -2.6960   19.0390  -33.1230 N   0  0  0  0  0  0  0  0  0  0  0  0
   -1.5076   21.4214  -31.0664 H   0  0  0  0  0  0  0  0  0  0  0  0
   -2.1340   23.4859  -30.6755 H   0  0  0  0  0  0  0  0  0  0  0  0
   -3.0921   22.5271  -29.4636 H   0  0  0  0  0  0  0  0  0  0  0  0
   -2.9982   25.0769  -29.1561 H   0  0  0  0  0  0  0  0  0  0  0  0
   -5.0790   25.0170  -28.0604 H   0  0  0  0  0  0  0  0  0  0  0  0
   -4.9077   23.2955  -28.3248 H   0  0  0  0  0  0  0  0  0  0  0  0
   -6.8407   25.1192  -29.5378 H   0  0  0  0  0  0  0  0  0  0  0  0
   -6.7262   23.4019  -29.8547 H   0  0  0  0  0  0  0  0  0  0  0  0
   -6.1125   25.2672  -31.7683 H   0  0  0  0  0  0  0  0  0  0  0  0
   -4.8778   23.6575  -32.9816 H   0  0  0  0  0  0  0  0  0  0  0  0
   -5.9765   22.7057  -31.8897 H   0  0  0  0  0  0  0  0  0  0  0  0
   -5.2980   21.0280  -33.0430 H   0  0  0  0  0  0  0  0  0  0  0  0
   -6.0847   19.7485  -35.3055 H   0  0  0  0  0  0  0  0  0  0  0  0
   -6.3323   17.9685  -35.1582 H   0  0  0  0  0  0  0  0  0  0  0  0
   -7.0482   21.2471  -33.7689 H   0  0  0  0  0  0  0  0  0  0  0  0
   -8.5807   21.6422  -31.8411 H   0  0  0  0  0  0  0  0  0  0  0  0
   -9.3267   19.7275  -30.4237 H   0  0  0  0  0  0  0  0  0  0  0  0
   -8.5344   17.4166  -30.9286 H   0  0  0  0  0  0  0  0  0  0  0  0
   -4.0648   16.8122  -35.0802 H   0  0  0  0  0  0  0  0  0  0  0  0
   -1.7365   17.2030  -33.8151 H   0  0  0  0  0  0  0  0  0  0  0  0
  1  2  2  0
  2  3  1  0
  3  4  2  0
  4  5  1  0
  5  6  1  0
  6  7  1  0
  7  8  1  0
  8  9  1  0
  9 10  1  0
 10 11  1  0
 10 12  1  0
  4 13  1  0
 13 14  2  0
 14 15  1  0
 15 16  1  0
 16 17  1  0
 17 18  2  0
 18 19  1  0
 19 20  2  0
 20 21  1  0
 21 22  2  0
 22 23  1  0
 15 24  1  0
 24 25  2  0
 25 26  1  0
 26  2  1  0
 11  5  1  0
 26 14  1  0
 12  7  1  0
 22 17  1  0
  3 27  1  0
  6 28  1  0
  6 29  1  0
  7 30  1  1
  8 31  1  0
  8 32  1  0
  9 33  1  0
  9 34  1  0
 10 35  1  6
 11 36  1  0
 11 37  1  0
 13 38  1  0
 16 39  1  0
 16 40  1  0
 18 41  1  0
 19 42  1  0
 20 43  1  0
 21 44  1  0
 24 45  1  0
 25 46  1  0
M  CHG  1  13   1
M  END
>  <UniqueID>  (2) 
2

>  <SMILES>  (2) 
O=c1cc(N2C[C@H]3CC[C@@H](C2)O3)[nH+]c2n(Cc3ccccc3F)ccn12

>  <Energy>  (2) 
96.98822820905511

>  <Genealogy>  (2) 
O=c1cc(N2CC3CCC(C2)O3)[nH+]c2n(Cc3ccccc3F)ccn12 (protonated)
O=c1cc(N2C[C@H]3CC[C@@H](C2)O3)[nH+]c2n(Cc3ccccc3F)ccn12 (chirality)
O=c1cc(N2C[C@H]3CC[C@@H](C2)O3)[nH+]c2n(Cc3ccccc3F)ccn12 (3D coordinates assigned)
O=c1cc(N2C[C@H]3CC[C@@H](C2)O3)[nH+]c2n(Cc3ccccc3F)ccn12 (nonaromatic ring conformer: 96.98822820905511 kcal/mol)

>  <smiles>  (2) 
O=c1cc(N2CC3CCC(C2)O3)nc2n(Cc3ccccc3F)ccn12

>  <score_type>  (2) 
oracle

>  <origin>  (2) 
adg

>  <m_score__min__energy>  (2) 
-8.3200000000000003

>  <m_primary>  (2) 
energy

$$$$
2:0
     RDKit          3D

 26 28  0  0  0  0  0  0  0  0999 V2000
   -5.5940   25.3270  -29.9100 C   0  0  0  0  0  0  0  0  0  0  0  0
   -6.8650   24.7790  -30.0730 C   0  0  0  0  0  0  0  0  0  0  0  0
   -7.0320   23.6100  -30.8200 C   0  0  0  0  0  0  0  0  0  0  0  0
   -5.9080   22.9920  -31.4060 C   0  0  0  0  0  0  0  0  0  0  0  0
   -5.9920   21.7470  -32.2160 C   0  0  0  0  0  0  0  0  0  0  0  0
   -7.2020   21.2240  -32.7160 C   0  0  0  0  0  0  0  0  0  0  0  0
   -7.1950   20.0780  -33.4500 N   0  0  0  0  0  0  0  0  0  0  0  0
   -6.0350   19.4170  -33.7160 C   0  0  0  0  0  0  0  0  0  0  0  0
   -6.0280   18.2360  -34.4730 C   0  0  0  0  0  0  0  0  0  0  0  0
   -4.8200   17.5780  -34.7310 C   0  0  0  0  0  0  0  0  0  0  0  0
   -3.6190   18.0950  -34.2360 C   0  0  0  0  0  0  0  0  0  0  0  0
   -3.6180   19.2720  -33.4810 C   0  0  0  0  0  0  0  0  0  0  0  0
   -4.8220   19.9340  -33.2200 C   0  0  0  0  0  0  0  0  0  0  0  0
   -4.8360   21.0770  -32.4880 N   0  0  0  0  0  0  0  0  0  0  0  0
   -4.6810   23.5590  -31.2240 N   0  0  0  0  0  0  0  0  0  0  0  0
   -4.5010   24.6960  -30.5000 C   0  0  0  0  0  0  0  0  0  0  0  0
   -5.4555   26.2467  -29.3226 H   0  0  0  0  0  0  0  0  0  0  0  0
   -7.7371   25.2670  -29.6134 H   0  0  0  0  0  0  0  0  0  0  0  0
   -8.0337   23.1746  -30.9501 H   0  0  0  0  0  0  0  0  0  0  0  0
   -8.1510   21.7418  -32.5130 H   0  0  0  0  0  0  0  0  0  0  0  0
   -8.1040   19.7080  -33.8110 H   0  0  0  0  0  0  0  0  0  0  0  0
   -6.9716   17.8273  -34.8637 H   0  0  0  0  0  0  0  0  0  0  0  0
   -4.8155   16.6519  -35.3246 H   0  0  0  0  0  0  0  0  0  0  0  0
   -2.6720   17.5743  -34.4411 H   0  0  0  0  0  0  0  0  0  0  0  0
   -2.6716   19.6766  -33.0929 H   0  0  0  0  0  0  0  0  0  0  0  0
   -3.4921   25.1176  -30.3802 H   0  0  0  0  0  0  0  0  0  0  0  0
  1  2  2  0
  2  3  1  0
  3  4  2  0
  4  5  1  0
  5  6  2  0
  6  7  1  0
  7  8  2  0
  8  9  1  0
  9 10  2  0
 10 11  1  0
 11 12  2  0
 12 13  1  0
 13 14  2  0
  4 15  1  0
 15 16  2  0
 16  1  1  0
 14  5  1  0
 13  8  1  0
  1 17  1  0
  2 18  1  0
  3 19  1  0
  6 20  1  0
  7 21  1  0
  9 22  1  0
 10 23  1  0
 11 24  1  0
 12 25  1  0
 16 26  1  0
M  CHG  1   7   1
M  END
>  <UniqueID>  (3) 
3

>  <SMILES>  (3) 
c1ccc(-c2c[nH+]c3ccccc3n2)nc1

>  <Energy>  (3) 
36.401678370029565

>  <Genealogy>  (3) 
c1ccc(-c2c[nH+]c3ccccc3n2)nc1 (protonated)
c1ccc(-c2c[nH+]c3ccccc3n2)nc1 (3D coordinates assigned)
c1ccc(-c2c[nH+]c3ccccc3n2)nc1 (optimized conformer: 36.401678370029565 kcal/mol)

>  <smiles>  (3) 
c1ccc(-c2cnc3ccccc3n2)nc1

>  <score_type>  (3) 
oracle

>  <origin>  (3) 
adg

>  <m_score__min__energy>  (3) 
-6.2300000000000004

>  <m_primary>  (3) 
energy

$$$$
3:0
     RDKit          3D

 65 68  0  0  0  0  0  0  0  0999 V2000
   -3.8360   23.1760  -27.7230 C   0  0  0  0  0  0  0  0  0  0  0  0
   -4.5850   24.4630  -28.0420 C   0  0  0  0  0  0  0  0  0  0  0  0
   -4.9950   24.5830  -29.7780 S   0  0  0  0  0  0  0  0  0  0  0  0
   -3.9070   25.2920  -30.5350 O   0  0  0  0  0  0  0  0  0  0  0  0
   -6.2530   25.3950  -29.9050 O   0  0  0  0  0  0  0  0  0  0  0  0
   -5.2970   23.0080  -30.4490 N   0  0  0  0  0  0  0  0  0  0  0  0
   -4.3940   22.2620  -31.2890 C   0  0  0  0  0  0  0  0  0  0  0  0
   -4.4860   22.2710  -32.6910 C   0  0  0  0  0  0  0  0  0  0  0  0
   -3.5680   21.5600  -33.4680 C   0  0  0  0  0  0  0  0  0  0  0  0
   -2.5290   20.8330  -32.8640 C   0  0  0  0  0  0  0  0  0  0  0  0
   -1.5520   20.1020  -33.7080 C   0  0  0  0  0  0  0  0  0  0  0  0
   -0.4230   20.7320  -34.2430 C   0  0  0  0  0  0  0  0  0  0  0  0
    0.4370   20.0080  -35.0630 C   0  0  0  0  0  0  0  0  0  0  0  0
    0.1550   18.6700  -35.3400 C   0  0  0  0  0  0  0  0  0  0  0  0
    0.9300   18.0170  -36.0910 O   0  0  0  0  0  0  0  0  0  0  0  0
   -0.9560   18.0860  -34.7930 N   0  0  0  0  0  0  0  0  0  0  0  0
   -1.3070   16.6900  -35.0810 C   0  0  0  0  0  0  0  0  0  0  0  0
   -1.9140   16.0020  -33.8490 C   0  0  0  0  0  0  0  0  0  0  0  0
   -3.2910   15.3890  -34.1500 C   0  0  0  0  0  0  0  0  0  0  0  0
   -4.3630   16.3800  -33.9100 N   0  0  0  0  0  0  0  0  0  0  0  0
   -4.4920   17.3240  -35.0360 C   0  0  0  0  0  0  0  0  0  0  0  0
   -5.3650   18.5030  -34.5980 C   0  0  0  0  0  0  0  0  0  0  0  0
   -6.4760   18.0400  -33.7530 N   0  0  0  0  0  0  0  0  0  0  0  0
   -7.2180   18.9840  -32.9540 C   0  0  0  0  0  0  0  0  0  0  0  0
   -8.2110   18.5420  -32.0600 C   0  0  0  0  0  0  0  0  0  0  0  0
   -8.9280   19.4620  -31.2870 C   0  0  0  0  0  0  0  0  0  0  0  0
   -8.6690   20.8300  -31.4060 C   0  0  0  0  0  0  0  0  0  0  0  0
   -9.3610   21.7200  -30.6510 F   0  0  0  0  0  0  0  0  0  0  0  0
   -7.6930   21.2810  -32.2980 C   0  0  0  0  0  0  0  0  0  0  0  0
   -6.9740   20.3650  -33.0730 C   0  0  0  0  0  0  0  0  0  0  0  0
   -6.8750   16.6280  -33.8150 C   0  0  0  0  0  0  0  0  0  0  0  0
   -5.6540   15.6980  -33.6450 C   0  0  0  0  0  0  0  0  0  0  0  0
   -1.7750   18.7950  -34.0110 N   0  0  0  0  0  0  0  0  0  0  0  0
   -2.4430   20.8140  -31.4620 C   0  0  0  0  0  0  0  0  0  0  0  0
   -3.3640   21.5220  -30.6860 C   0  0  0  0  0  0  0  0  0  0  0  0
   -3.7649   23.0539  -26.6321 H   0  0  0  0  0  0  0  0  0  0  0  0
   -4.3773   22.3205  -28.1532 H   0  0  0  0  0  0  0  0  0  0  0  0
   -2.8248   23.2240  -28.1532 H   0  0  0  0  0  0  0  0  0  0  0  0
   -5.5146   24.4884  -27.4545 H   0  0  0  0  0  0  0  0  0  0  0  0
   -3.9313   25.3101  -27.7868 H   0  0  0  0  0  0  0  0  0  0  0  0
   -6.2500   22.6160  -30.2760 H   0  0  0  0  0  0  0  0  0  0  0  0
   -5.2878   22.8428  -33.1811 H   0  0  0  0  0  0  0  0  0  0  0  0
   -3.6599   21.5697  -34.5641 H   0  0  0  0  0  0  0  0  0  0  0  0
   -0.2174   21.7889  -34.0177 H   0  0  0  0  0  0  0  0  0  0  0  0
    1.3312   20.4863  -35.4891 H   0  0  0  0  0  0  0  0  0  0  0  0
   -2.0391   16.6665  -35.9017 H   0  0  0  0  0  0  0  0  0  0  0  0
   -0.3897   16.1521  -35.3625 H   0  0  0  0  0  0  0  0  0  0  0  0
   -1.2345   15.2028  -33.5180 H   0  0  0  0  0  0  0  0  0  0  0  0
   -2.0455   16.7632  -33.0659 H   0  0  0  0  0  0  0  0  0  0  0  0
   -3.3227   15.0691  -35.2020 H   0  0  0  0  0  0  0  0  0  0  0  0
   -3.4491   14.5262  -33.4863 H   0  0  0  0  0  0  0  0  0  0  0  0
   -3.4963   17.6900  -35.3268 H   0  0  0  0  0  0  0  0  0  0  0  0
   -4.9546   16.8172  -35.8957 H   0  0  0  0  0  0  0  0  0  0  0  0
   -4.7504   19.2156  -34.0283 H   0  0  0  0  0  0  0  0  0  0  0  0
   -5.7798   18.9885  -35.4937 H   0  0  0  0  0  0  0  0  0  0  0  0
   -8.4248   17.4669  -31.9684 H   0  0  0  0  0  0  0  0  0  0  0  0
   -9.6968   19.1078  -30.5845 H   0  0  0  0  0  0  0  0  0  0  0  0
   -7.4896   22.3580  -32.3910 H   0  0  0  0  0  0  0  0  0  0  0  0
   -6.2129   20.7264  -33.7801 H   0  0  0  0  0  0  0  0  0  0  0  0
   -7.5975   16.4231  -33.0113 H   0  0  0  0  0  0  0  0  0  0  0  0
   -7.3270   16.4353  -34.7991 H   0  0  0  0  0  0  0  0  0  0  0  0
   -5.6441   15.3180  -32.6128 H   0  0  0  0  0  0  0  0  0  0  0  0
   -5.7541   14.8866  -34.3809 H   0  0  0  0  0  0  0  0  0  0  0  0
   -1.6447   20.2375  -30.9717 H   0  0  0  0  0  0  0  0  0  0  0  0
   -3.2814   21.4996  -29.5893 H   0  0  0  0  0  0  0  0  0  0  0  0
  1  2  1  0
  2  3  1  0
  3  4  2  0
  3  5  2  0
  3  6  1  0
  6  7  1  0
  7  8  2  0
  8  9  1  0
  9 10  2  0
 10 11  1  0
 11 12  1  0
 12 13  2  0
 13 14  1  0
 14 15  2  0
 14 16  1  0
 16 17  1  0
 17 18  1  0
 18 19  1  0
 19 20  1  0
 20 21  1  0
 21 22  1  0
 22 23  1  0
 23 24  1  0
 24 25  2  0
 25 26  1  0
 26 27  2  0
 27 28  1  0
 27 29  1  0
 29 30  2  0
 23 31  1  0
 31 32  1  0
 16 33  1  0
 10 34  1  0
 34 35  2  0
 35  7  1  0
 33 11  2  0
 32 20  1  0
 30 24  1  0
  1 36  1  0
  1 37  1  0
  1 38  1  0
  2 39  1  0
  2 40  1  0
  6 41  1  0
  8 42  1  0
  9 43  1  0
 12 44  1  0
 13 45  1  0
 17 46  1  0
 17 47  1  0
 18 48  1  0
 18 49  1  0
 19 50  1  0
 19 51  1  0
 21 52  1  0
 21 53  1  0
 22 54  1  0
 22 55  1  0
 25 56  1  0
 26 57  1  0
 29 58  1  0
 30 59  1  0
 31 60  1  0
 31 61  1  0
 32 62  1  0
 32 63  1  0
 34 64  1  0
 35 65  1  0
M  END
>  <UniqueID>  (4) 
4

>  <SMILES>  (4) 
CCS(=O)(=O)Nc1ccc(-c2ccc(=O)n(CCCN3CCN(c4ccc(F)cc4)CC3)n2)cc1

>  <Energy>  (4) 
77.46564180156874

>  <Genealogy>  (4) 
CCS(=O)(=O)Nc1ccc(-c2ccc(=O)n(CCCN3CCN(c4ccc(F)cc4)CC3)n2)cc1 (3D coordinates assigned)
CCS(=O)(=O)Nc1ccc(-c2ccc(=O)n(CCCN3CCN(c4ccc(F)cc4)CC3)n2)cc1 (nonaromatic ring conformer: 77.46564180156874 kcal/mol)

>  <smiles>  (4) 
CCS(=O)(=O)Nc1ccc(-c2ccc(=O)n(CCCN3CCN(c4ccc(F)cc4)CC3)n2)cc1

>  <score_type>  (4) 
oracle

>  <origin>  (4) 
adg

>  <m_score__min__energy>  (4) 
-10.029999999999999

>  <m_primary>  (4) 
energy

$$$$
4:0
     RDKit          3D

 37 39  0  0  0  0  0  0  0  0999 V2000
    1.8180   28.2850  -22.8870 C   0  0  0  0  0  0  0  0  0  0  0  0
    0.5830   27.5390  -22.6340 N   0  0  0  0  0  0  0  0  0  0  0  0
    0.1780   26.8310  -23.8240 C   0  0  0  0  0  0  0  0  0  0  0  0
   -1.1760   26.7730  -24.1900 C   0  0  0  0  0  0  0  0  0  0  0  0
   -1.5660   26.1090  -25.3570 C   0  0  0  0  0  0  0  0  0  0  0  0
   -0.6090   25.5030  -26.1900 C   0  0  0  0  0  0  0  0  0  0  0  0
   -1.0440   24.7970  -27.4230 C   0  0  0  0  0  0  0  0  0  0  0  0
   -2.3830   24.8180  -27.8520 C   0  0  0  0  0  0  0  0  0  0  0  0
   -2.7570   24.1340  -29.0220 C   0  0  0  0  0  0  0  0  0  0  0  0
   -4.1680   24.1500  -29.4900 C   0  0  0  0  0  0  0  0  0  0  0  0
   -5.0060   23.0390  -29.2770 C   0  0  0  0  0  0  0  0  0  0  0  0
   -6.3320   23.0580  -29.7180 C   0  0  0  0  0  0  0  0  0  0  0  0
   -6.8370   24.1830  -30.3750 C   0  0  0  0  0  0  0  0  0  0  0  0
   -6.0150   25.2910  -30.5920 C   0  0  0  0  0  0  0  0  0  0  0  0
   -4.6870   25.2780  -30.1530 C   0  0  0  0  0  0  0  0  0  0  0  0
   -1.7750   23.4310  -29.7380 C   0  0  0  0  0  0  0  0  0  0  0  0
   -0.4590   23.4210  -29.2770 C   0  0  0  0  0  0  0  0  0  0  0  0
   -0.1280   24.0930  -28.1440 N   0  0  0  0  0  0  0  0  0  0  0  0
    0.7480   25.5640  -25.8200 C   0  0  0  0  0  0  0  0  0  0  0  0
    1.1360   26.2270  -24.6520 C   0  0  0  0  0  0  0  0  0  0  0  0
    2.2805   28.5643  -21.9288 H   0  0  0  0  0  0  0  0  0  0  0  0
    2.5149   27.6567  -23.4611 H   0  0  0  0  0  0  0  0  0  0  0  0
    1.5861   29.1942  -23.4611 H   0  0  0  0  0  0  0  0  0  0  0  0
   -0.1670   28.2070  -22.3390 H   0  0  0  0  0  0  0  0  0  0  0  0
    0.7420   26.8660  -21.8500 H   0  0  0  0  0  0  0  0  0  0  0  0
   -1.9349   27.2530  -23.5547 H   0  0  0  0  0  0  0  0  0  0  0  0
   -2.6315   26.0602  -25.6260 H   0  0  0  0  0  0  0  0  0  0  0  0
   -3.1378   25.3695  -27.2722 H   0  0  0  0  0  0  0  0  0  0  0  0
   -4.6146   22.1503  -28.7602 H   0  0  0  0  0  0  0  0  0  0  0  0
   -6.9796   22.1853  -29.5475 H   0  0  0  0  0  0  0  0  0  0  0  0
   -7.8811   24.1960  -30.7210 H   0  0  0  0  0  0  0  0  0  0  0  0
   -6.4130   26.1763  -31.1095 H   0  0  0  0  0  0  0  0  0  0  0  0
   -4.0448   26.1540  -30.3268 H   0  0  0  0  0  0  0  0  0  0  0  0
   -2.0424   22.8908  -30.6581 H   0  0  0  0  0  0  0  0  0  0  0  0
    0.3128   22.8677  -29.8322 H   0  0  0  0  0  0  0  0  0  0  0  0
    1.5088   25.0863  -26.4548 H   0  0  0  0  0  0  0  0  0  0  0  0
    2.2008   26.2755  -24.3801 H   0  0  0  0  0  0  0  0  0  0  0  0
  1  2  1  0
  2  3  1  0
  3  4  2  0
  4  5  1  0
  5  6  2  0
  6  7  1  0
  7  8  2  0
  8  9  1  0
  9 10  1  0
 10 11  2  0
 11 12  1  0
 12 13  2  0
 13 14  1  0
 14 15  2  0
  9 16  2  0
 16 17  1  0
 17 18  2  0
  6 19  1  0
 19 20  2  0
 20  3  1  0
 18  7  1  0
 15 10  1  0
  1 21  1  0
  1 22  1  0
  1 23  1  0
  2 24  1  0
  2 25  1  0
  4 26  1  0
  5 27  1  0
  8 28  1  0
 11 29  1  0
 12 30  1  0
 13 31  1  0
 14 32  1  0
 15 33  1  0
 16 34  1  0
 17 35  1  0
 19 36  1  0
 20 37  1  0
M  CHG  1   2   1
M  END
>  <UniqueID>  (5) 
5

>  <SMILES>  (5) 
C[NH2+]c1ccc(-c2cc(-c3ccccc3)ccn2)cc1

>  <Energy>  (5) 
49.31814528419038

>  <Genealogy>  (5) 
C[NH2+]c1ccc(-c2cc(-c3ccccc3)ccn2)cc1 (protonated)
C[NH2+]c1ccc(-c2cc(-c3ccccc3)ccn2)cc1 (3D coordinates assigned)
C[NH2+]c1ccc(-c2cc(-c3ccccc3)ccn2)cc1 (optimized conformer: 49.31814528419038 kcal/mol)

>  <smiles>  (5) 
CNc1ccc(-c2cc(-c3ccccc3)ccn2)cc1

>  <score_type>  (5) 
oracle

>  <origin>  (5) 
adg

>  <m_score__min__energy>  (5) 
-7.8399999999999999

>  <m_primary>  (5) 
energy

$$$$
5:0
     RDKit          3D

 36 37  0  0  0  0  0  0  0  0999 V2000
   -8.4949   21.4331  -31.8353 H   0  0  0  0  0  0  0  0  0  0  0  0
   -7.4260   21.2170  -31.9790 C   0  0  0  0  0  0  0  0  0  0  0  0
   -6.5450   22.1450  -31.5730 C   0  0  0  0  0  0  0  0  0  0  0  0
   -6.8320   23.8740  -31.8740 S   0  0  0  0  0  0  0  0  0  0  0  0
   -5.2490   24.1800  -31.0830 C   0  0  0  0  0  0  0  0  0  0  0  0
   -4.7350   25.2870  -31.1380 O   0  0  0  0  0  0  0  0  0  0  0  0
   -4.5800   23.0830  -30.4280 N   0  0  1  0  0  0  0  0  0  0  0  0
   -3.5820   23.0570  -30.7410 H   0  0  0  0  0  0  0  0  0  0  0  0
   -4.7070   23.2230  -28.9580 C   0  0  0  0  0  0  0  0  0  0  0  0
   -4.5928   22.2301  -28.4986 H   0  0  0  0  0  0  0  0  0  0  0  0
   -5.6965   23.6559  -28.7493 H   0  0  0  0  0  0  0  0  0  0  0  0
   -3.6450   24.1720  -28.3560 C   0  0  0  0  0  0  0  0  0  0  0  0
   -3.0447   23.6097  -27.6256 H   0  0  0  0  0  0  0  0  0  0  0  0
   -4.1788   25.0109  -27.8856 H   0  0  0  0  0  0  0  0  0  0  0  0
   -2.7410   24.7360  -29.3740 N   0  0  0  0  0  0  0  0  0  0  0  0
   -3.1150   25.6480  -29.7230 H   0  0  0  0  0  0  0  0  0  0  0  0
   -1.3770   24.9450  -28.8650 C   0  0  0  0  0  0  0  0  0  0  0  0
   -0.8871   25.7347  -29.4536 H   0  0  0  0  0  0  0  0  0  0  0  0
   -0.8140   24.0042  -28.9540 H   0  0  0  0  0  0  0  0  0  0  0  0
   -1.4170   25.3620  -27.3990 C   0  0  0  0  0  0  0  0  0  0  0  0
   -1.3314   24.4697  -26.7615 H   0  0  0  0  0  0  0  0  0  0  0  0
   -0.5802   26.0444  -27.1889 H   0  0  0  0  0  0  0  0  0  0  0  0
   -2.3683   25.8728  -27.1889 H   0  0  0  0  0  0  0  0  0  0  0  0
   -5.2620   21.9120  -30.9020 C   0  0  0  0  0  0  0  0  0  0  0  0
   -4.7260   20.7740  -30.8340 O   0  0  0  0  0  0  0  0  0  0  0  0
   -7.0680   19.9280  -32.6040 C   0  0  0  0  0  0  0  0  0  0  0  0
   -6.1570   19.8670  -33.6740 C   0  0  0  0  0  0  0  0  0  0  0  0
   -5.7295   20.7942  -34.0834 H   0  0  0  0  0  0  0  0  0  0  0  0
   -5.7930   18.6320  -34.2190 C   0  0  0  0  0  0  0  0  0  0  0  0
   -5.0937   18.5903  -35.0671 H   0  0  0  0  0  0  0  0  0  0  0  0
   -6.3170   17.4500  -33.6870 C   0  0  0  0  0  0  0  0  0  0  0  0
   -6.0356   16.4792  -34.1211 H   0  0  0  0  0  0  0  0  0  0  0  0
   -7.1980   17.5020  -32.6040 C   0  0  0  0  0  0  0  0  0  0  0  0
   -7.6038   16.5710  -32.1815 H   0  0  0  0  0  0  0  0  0  0  0  0
   -7.5650   18.7350  -32.0560 C   0  0  0  0  0  0  0  0  0  0  0  0
   -8.2455   18.7702  -31.1925 H   0  0  0  0  0  0  0  0  0  0  0  0
  1  2  1  0
  2  3  2  0
  3  4  1  0
  4  5  1  0
  5  6  2  0
  5  7  1  0
  7  8  1  1
  7  9  1  0
  9 10  1  0
  9 11  1  0
  9 12  1  0
 12 13  1  0
 12 14  1  0
 12 15  1  0
 15 16  1  0
 15 17  1  0
 17 18  1  0
 17 19  1  0
 17 20  1  0
 20 21  1  0
 20 22  1  0
 20 23  1  0
  7 24  1  0
 24 25  2  0
  2 26  1  0
 26 27  2  0
 27 28  1  0
 27 29  1  0
 29 30  1  0
 29 31  2  0
 31 32  1  0
 31 33  1  0
 33 34  1  0
 33 35  2  0
 35 36  1  0
 24  3  1  0
 35 26  1  0
M  CHG  1   7   1
M  END
>  <UniqueID>  (6) 
6

>  <SMILES>  (6) 
CCNCC[N@@H+]1C(=O)S/C(=C/c2ccccc2)C1=O

>  <Energy>  (6) 
59.96906466384675

>  <Genealogy>  (6) 
CCNCC[NH+]1C(=O)SC(=Cc2ccccc2)C1=O (protonated)
CCNCC[N@@H+]1C(=O)SC(=Cc2ccccc2)C1=O (chirality)
CCNCC[N@@H+]1C(=O)S/C(=C/c2ccccc2)C1=O (cis-trans isomerization)
CCNCC[N@@H+]1C(=O)S/C(=C/c2ccccc2)C1=O (3D coordinates assigned)
CCNCC[N@@H+]1C(=O)S/C(=C/c2ccccc2)C1=O (nonaromatic ring conformer: 59.96906466384675 kcal/mol)

>  <smiles>  (6) 
CCNCCN1C(=O)SC(=Cc2ccccc2)C1=O

>  <score_type>  (6) 
oracle

>  <origin>  (6) 
adg

>  <m_score__min__energy>  (6) 
-7.71

>  <m_primary>  (6) 
energy

$$$$
6:0
     RDKit          3D

 61 63  0  0  0  0  0  0  0  0999 V2000
    0.2730   20.3620  -28.9520 H   0  0  0  0  0  0  0  0  0  0  0  0
   -0.4080   20.9170  -28.4540 O   0  0  0  0  0  0  0  0  0  0  0  0
   -1.0580   22.0440  -28.9720 C   0  0  0  0  0  0  0  0  0  0  0  0
   -0.8380   23.3230  -28.4090 C   0  0  0  0  0  0  0  0  0  0  0  0
    0.2000   23.5590  -27.4770 C   0  0  0  0  0  0  0  0  0  0  0  0
    0.8679   22.7340  -27.1884 H   0  0  0  0  0  0  0  0  0  0  0  0
    0.3880   24.8240  -26.9190 C   0  0  0  0  0  0  0  0  0  0  0  0
    1.1964   24.9880  -26.1913 H   0  0  0  0  0  0  0  0  0  0  0  0
   -0.4450   25.8790  -27.2810 C   0  0  0  0  0  0  0  0  0  0  0  0
   -0.3023   26.8721  -26.8301 H   0  0  0  0  0  0  0  0  0  0  0  0
   -1.4590   25.6770  -28.2140 C   0  0  0  0  0  0  0  0  0  0  0  0
   -2.1085   26.5170  -28.5015 H   0  0  0  0  0  0  0  0  0  0  0  0
   -1.6630   24.4070  -28.7950 C   0  0  0  0  0  0  0  0  0  0  0  0
   -2.6810   24.2180  -29.7420 C   0  0  0  0  0  0  0  0  0  0  0  0
   -3.4880   25.3060  -30.0710 O   0  0  0  0  0  0  0  0  0  0  0  0
   -2.8710   22.9580  -30.3630 C   0  0  0  0  0  0  0  0  0  0  0  0
   -3.9280   22.7420  -31.2940 C   0  0  0  0  0  0  0  0  0  0  0  0
   -4.8640   23.7950  -31.5960 N   0  0  0  0  0  0  0  0  0  0  0  0
   -6.1360   23.7890  -31.3320 C   0  0  0  0  0  0  0  0  0  0  0  0
   -6.5127   24.2973  -30.4322 H   0  0  0  0  0  0  0  0  0  0  0  0
   -7.0940   23.0880  -32.2550 C   0  0  0  0  0  0  0  0  0  0  0  0
   -7.9248   23.7727  -32.4806 H   0  0  0  0  0  0  0  0  0  0  0  0
   -6.5295   22.8075  -33.1565 H   0  0  0  0  0  0  0  0  0  0  0  0
   -7.6540   21.8430  -31.6860 N   0  0  0  0  0  0  0  0  0  0  0  0
   -7.3280   20.6590  -32.4990 C   0  0  0  0  0  0  0  0  0  0  0  0
   -7.0949   19.8123  -31.8366 H   0  0  0  0  0  0  0  0  0  0  0  0
   -8.1887   20.4018  -33.1338 H   0  0  0  0  0  0  0  0  0  0  0  0
   -6.4569   20.8786  -33.1338 H   0  0  0  0  0  0  0  0  0  0  0  0
   -9.1060   21.9380  -31.4580 C   0  0  0  0  0  0  0  0  0  0  0  0
   -9.3073   21.9512  -30.3767 H   0  0  0  0  0  0  0  0  0  0  0  0
   -9.4889   22.8631  -31.9135 H   0  0  0  0  0  0  0  0  0  0  0  0
   -9.6062   21.0707  -31.9135 H   0  0  0  0  0  0  0  0  0  0  0  0
   -4.0390   21.5020  -31.9350 C   0  0  0  0  0  0  0  0  0  0  0  0
   -4.8457   21.3407  -32.6652 H   0  0  0  0  0  0  0  0  0  0  0  0
   -3.1510   20.4770  -31.6650 C   0  0  0  0  0  0  0  0  0  0  0  0
   -3.2497   19.5214  -32.2009 H   0  0  0  0  0  0  0  0  0  0  0  0
   -2.1290   20.6340  -30.7220 C   0  0  0  0  0  0  0  0  0  0  0  0
   -1.1640   19.5780  -30.5660 N   0  0  0  0  0  0  0  0  0  0  0  0
   -0.9970   19.1980  -29.6060 H   0  0  0  0  0  0  0  0  0  0  0  0
   -0.2680   19.1080  -31.6270 C   0  0  0  0  0  0  0  0  0  0  0  0
    0.1169   19.9792  -32.1773 H   0  0  0  0  0  0  0  0  0  0  0  0
   -0.8446   18.4414  -32.2851 H   0  0  0  0  0  0  0  0  0  0  0  0
    0.9240   18.3070  -31.0700 C   0  0  0  0  0  0  0  0  0  0  0  0
    1.8325   18.5951  -31.6192 H   0  0  0  0  0  0  0  0  0  0  0  0
    0.7025   17.2372  -31.1980 H   0  0  0  0  0  0  0  0  0  0  0  0
    1.1400   18.5600  -29.6180 N   0  0  0  0  0  0  0  0  0  0  0  0
    2.5860   18.7440  -29.3280 C   0  0  0  0  0  0  0  0  0  0  0  0
    3.0781   19.1628  -30.2182 H   0  0  0  0  0  0  0  0  0  0  0  0
    3.0122   17.7638  -29.0680 H   0  0  0  0  0  0  0  0  0  0  0  0
    2.8070   19.6880  -28.1500 C   0  0  0  0  0  0  0  0  0  0  0  0
    2.6776   19.1352  -27.2078 H   0  0  0  0  0  0  0  0  0  0  0  0
    3.8259   20.1000  -28.1964 H   0  0  0  0  0  0  0  0  0  0  0  0
    2.0769   20.5094  -28.1964 H   0  0  0  0  0  0  0  0  0  0  0  0
    0.6380   17.4360  -28.7830 C   0  0  0  0  0  0  0  0  0  0  0  0
   -0.0360   16.8188  -29.3952 H   0  0  0  0  0  0  0  0  0  0  0  0
    1.5140   16.8686  -28.4356 H   0  0  0  0  0  0  0  0  0  0  0  0
   -0.1230   17.9040  -27.5430 C   0  0  0  0  0  0  0  0  0  0  0  0
    0.4112   17.5755  -26.6393 H   0  0  0  0  0  0  0  0  0  0  0  0
   -0.1935   19.0017  -27.5486 H   0  0  0  0  0  0  0  0  0  0  0  0
   -1.1344   17.4716  -27.5486 H   0  0  0  0  0  0  0  0  0  0  0  0
   -1.9970   21.8770  -30.0280 C   0  0  0  0  0  0  0  0  0  0  0  0
  1  2  1  0
  2  3  1  0
  3  4  2  0
  4  5  1  0
  5  6  1  0
  5  7  2  0
  7  8  1  0
  7  9  1  0
  9 10  1  0
  9 11  2  0
 11 12  1  0
 11 13  1  0
 13 14  2  0
 14 15  1  0
 14 16  1  0
 16 17  2  0
 17 18  1  0
 18 19  2  0
 19 20  1  0
 19 21  1  0
 21 22  1  0
 21 23  1  0
 21 24  1  0
 24 25  1  0
 25 26  1  0
 25 27  1  0
 25 28  1  0
 24 29  1  0
 29 30  1  0
 29 31  1  0
 29 32  1  0
 17 33  1  0
 33 34  1  0
 33 35  2  0
 35 36  1  0
 35 37  1  0
 37 38  1  0
 38 39  1  0
 38 40  1  0
 40 41  1  0
 40 42  1  0
 40 43  1  0
 43 44  1  0
 43 45  1  0
 43 46  1  0
 46 47  1  0
 47 48  1  0
 47 49  1  0
 47 50  1  0
 50 51  1  0
 50 52  1  0
 50 53  1  0
 46 54  1  0
 54 55  1  0
 54 56  1  0
 54 57  1  0
 57 58  1  0
 57 59  1  0
 57 60  1  0
 37 61  2  0
 61  3  1  0
 13  4  1  0
 61 16  1  0
M  CHG  1  15  -1
M  END
>  <UniqueID>  (7) 
7

>  <SMILES>  (7) 
CCN(CC)CCNc1ccc(/N=C/CN(C)C)c2c([O-])c3ccccc3c(O)c12

>  <Energy>  (7) 
88.09897146922748

>  <Genealogy>  (7) 
CCN(CC)CCNc1ccc(N=CCN(C)C)c2c([O-])c3ccccc3c(O)c12 (protonated)
CCN(CC)CCNc1ccc(/N=C/CN(C)C)c2c([O-])c3ccccc3c(O)c12 (cis-trans isomerization)
CCN(CC)CCNc1ccc(/N=C/CN(C)C)c2c([O-])c3ccccc3c(O)c12 (3D coordinates assigned)
CCN(CC)CCNc1ccc(/N=C/CN(C)C)c2c([O-])c3ccccc3c(O)c12 (optimized conformer: 88.09897146922748 kcal/mol)

>  <smiles>  (7) 
CCN(CC)CCNc1ccc(N=CCN(C)C)c2c(O)c3ccccc3c(O)c12

>  <score_type>  (7) 
oracle

>  <origin>  (7) 
adg

>  <m_score__min__energy>  (7) 
-9.9700000000000006

>  <m_primary>  (7) 
energy

$$$$
7:0
     RDKit          3D

 64 67  0  0  0  0  0  0  0  0999 V2000
   -5.1760   25.6580  -30.6430 C   0  0  0  0  0  0  0  0  0  0  0  0
   -3.8810   25.0990  -30.4560 O   0  0  0  0  0  0  0  0  0  0  0  0
   -3.6210   23.9250  -29.7290 C   0  0  0  0  0  0  0  0  0  0  0  0
   -3.3220   23.9570  -28.3530 C   0  0  0  0  0  0  0  0  0  0  0  0
   -3.0460   22.7770  -27.6590 C   0  0  0  0  0  0  0  0  0  0  0  0
   -3.0700   21.5500  -28.3250 C   0  0  0  0  0  0  0  0  0  0  0  0
   -2.6970   19.9370  -27.3720 Br  0  0  0  0  0  0  0  0  0  0  0  0
   -3.3640   21.5030  -29.6890 C   0  0  0  0  0  0  0  0  0  0  0  0
   -3.6380   22.6840  -30.4010 C   0  0  0  0  0  0  0  0  0  0  0  0
   -3.9410   22.6120  -31.8780 C   0  0  0  0  0  0  0  0  0  0  0  0
   -3.2360   21.4930  -32.5360 N   0  0  0  0  0  0  0  0  0  0  0  0
   -4.0240   20.5790  -33.3930 C   0  0  0  0  0  0  0  0  0  0  0  0
   -4.3430   19.2380  -32.7050 C   0  0  0  0  0  0  0  0  0  0  0  0
   -5.4000   19.3220  -31.5910 C   0  0  0  0  0  0  0  0  0  0  0  0
   -6.7450   19.6630  -32.1050 N   0  0  0  0  0  0  0  0  0  0  0  0
   -7.7200   18.6440  -31.6740 C   0  0  0  0  0  0  0  0  0  0  0  0
   -9.1120   18.9540  -32.2690 C   0  0  0  0  0  0  0  0  0  0  0  0
   -9.1970   20.2640  -32.8020 O   0  0  0  0  0  0  0  0  0  0  0  0
   -8.7030   21.1950  -31.8620 C   0  0  0  0  0  0  0  0  0  0  0  0
   -7.1850   21.0080  -31.6630 C   0  0  0  0  0  0  0  0  0  0  0  0
   -1.7920   21.5180  -32.6970 C   0  0  0  0  0  0  0  0  0  0  0  0
   -1.2940   21.4710  -33.8540 O   0  0  0  0  0  0  0  0  0  0  0  0
   -0.8280   21.6290  -31.5370 C   0  0  0  0  0  0  0  0  0  0  0  0
   -0.4150   20.3040  -31.0330 N   0  0  0  0  0  0  0  0  0  0  0  0
   -0.4910   19.2200  -31.8640 C   0  0  0  0  0  0  0  0  0  0  0  0
   -0.1480   17.9800  -31.4260 N   0  0  0  0  0  0  0  0  0  0  0  0
    0.2690   17.7760  -30.1490 C   0  0  0  0  0  0  0  0  0  0  0  0
    0.6330   16.4910  -29.7140 C   0  0  0  0  0  0  0  0  0  0  0  0
    1.0590   16.2900  -28.3990 C   0  0  0  0  0  0  0  0  0  0  0  0
    1.1170   17.3630  -27.5080 C   0  0  0  0  0  0  0  0  0  0  0  0
    0.7510   18.6450  -27.9260 C   0  0  0  0  0  0  0  0  0  0  0  0
    0.3260   18.8620  -29.2530 C   0  0  0  0  0  0  0  0  0  0  0  0
   -0.0440   20.1340  -29.7220 C   0  0  0  0  0  0  0  0  0  0  0  0
   -0.0440   21.1150  -28.9280 O   0  0  0  0  0  0  0  0  0  0  0  0
   -5.6349   25.8561  -29.6631 H   0  0  0  0  0  0  0  0  0  0  0  0
   -5.0912   26.5996  -31.2052 H   0  0  0  0  0  0  0  0  0  0  0  0
   -5.8031   24.9504  -31.2052 H   0  0  0  0  0  0  0  0  0  0  0  0
   -3.3058   24.9194  -27.8206 H   0  0  0  0  0  0  0  0  0  0  0  0
   -2.8092   22.8142  -26.5854 H   0  0  0  0  0  0  0  0  0  0  0  0
   -3.3814   20.5347  -30.2106 H   0  0  0  0  0  0  0  0  0  0  0  0
   -5.0244   22.4762  -32.0116 H   0  0  0  0  0  0  0  0  0  0  0  0
   -3.5961   23.5485  -32.3406 H   0  0  0  0  0  0  0  0  0  0  0  0
   -4.9712   21.0730  -33.6551 H   0  0  0  0  0  0  0  0  0  0  0  0
   -3.4179   20.3570  -34.2837 H   0  0  0  0  0  0  0  0  0  0  0  0
   -4.7078   18.5382  -33.4713 H   0  0  0  0  0  0  0  0  0  0  0  0
   -3.4109   18.9064  -32.2241 H   0  0  0  0  0  0  0  0  0  0  0  0
   -5.4539   18.3479  -31.0828 H   0  0  0  0  0  0  0  0  0  0  0  0
   -5.0942   20.1235  -30.9024 H   0  0  0  0  0  0  0  0  0  0  0  0
   -7.3886   17.6541  -32.0207 H   0  0  0  0  0  0  0  0  0  0  0  0
   -7.7881   18.6532  -30.5761 H   0  0  0  0  0  0  0  0  0  0  0  0
   -9.3203   18.2324  -33.0727 H   0  0  0  0  0  0  0  0  0  0  0  0
   -9.8472   18.8773  -31.4544 H   0  0  0  0  0  0  0  0  0  0  0  0
   -8.8975   22.2147  -32.2259 H   0  0  0  0  0  0  0  0  0  0  0  0
   -9.2106   21.0325  -30.8998 H   0  0  0  0  0  0  0  0  0  0  0  0
   -6.6503   21.7703  -32.2487 H   0  0  0  0  0  0  0  0  0  0  0  0
   -6.9601   21.1119  -30.5913 H   0  0  0  0  0  0  0  0  0  0  0  0
    0.0660   22.1772  -31.8692 H   0  0  0  0  0  0  0  0  0  0  0  0
   -1.3389   22.1595  -30.7199 H   0  0  0  0  0  0  0  0  0  0  0  0
   -0.8343   19.3538  -32.9005 H   0  0  0  0  0  0  0  0  0  0  0  0
   -0.2180   17.1810  -32.0930 H   0  0  0  0  0  0  0  0  0  0  0  0
    0.5825   15.6411  -30.4105 H   0  0  0  0  0  0  0  0  0  0  0  0
    1.3496   15.2832  -28.0646 H   0  0  0  0  0  0  0  0  0  0  0  0
    1.4520   17.1987  -26.4732 H   0  0  0  0  0  0  0  0  0  0  0  0
    0.7944   19.4864  -27.2188 H   0  0  0  0  0  0  0  0  0  0  0  0
  1  2  1  0
  2  3  1  0
  3  4  2  0
  4  5  1  0
  5  6  2  0
  6  7  1  0
  6  8  1  0
  8  9  2  0
  9 10  1  0
 10 11  1  0
 11 12  1  0
 12 13  1  0
 13 14  1  0
 14 15  1  0
 15 16  1  0
 16 17  1  0
 17 18  1  0
 18 19  1  0
 19 20  1  0
 11 21  1  0
 21 22  2  0
 21 23  1  0
 23 24  1  0
 24 25  1  0
 25 26  2  0
 26 27  1  0
 27 28  2  0
 28 29  1  0
 29 30  2  0
 30 31  1  0
 31 32  2  0
 32 33  1  0
 33 34  2  0
  9  3  1  0
 20 15  1  0
 33 24  1  0
 32 27  1  0
  1 35  1  0
  1 36  1  0
  1 37  1  0
  4 38  1  0
  5 39  1  0
  8 40  1  0
 10 41  1  0
 10 42  1  0
 12 43  1  0
 12 44  1  0
 13 45  1  0
 13 46  1  0
 14 47  1  0
 14 48  1  0
 16 49  1  0
 16 50  1  0
 17 51  1  0
 17 52  1  0
 19 53  1  0
 19 54  1  0
 20 55  1  0
 20 56  1  0
 23 57  1  0
 23 58  1  0
 25 59  1  0
 26 60  1  0
 28 61  1  0
 29 62  1  0
 30 63  1  0
 31 64  1  0
M  CHG  1  26   1
M  END
>  <UniqueID>  (8) 
8

>  <SMILES>  (8) 
COc1ccc(Br)cc1CN(CCCN1CCOCC1)C(=O)Cn1c[nH+]c2ccccc2c1=O

>  <Energy>  (8) 
77.3354921826057

>  <Genealogy>  (8) 
COc1ccc(Br)cc1CN(CCCN1CCOCC1)C(=O)Cn1c[nH+]c2ccccc2c1=O (protonated)
COc1ccc(Br)cc1CN(CCCN1CCOCC1)C(=O)Cn1c[nH+]c2ccccc2c1=O (3D coordinates assigned)
COc1ccc(Br)cc1CN(CCCN1CCOCC1)C(=O)Cn1c[nH+]c2ccccc2c1=O (nonaromatic ring conformer: 77.3354921826057 kcal/mol)

>  <smiles>  (8) 
COc1ccc(Br)cc1CN(CCCN1CCOCC1)C(=O)Cn1cnc2ccccc2c1=O

>  <score_type>  (8) 
oracle

>  <origin>  (8) 
adg

>  <m_score__min__energy>  (8) 
-9.4499999999999993

>  <m_primary>  (8) 
energy

$$$$
8:0
     RDKit          3D

 57 60  0  0  0  0  0  0  0  0999 V2000
   -3.8123   25.3238  -28.7905 H   0  0  0  0  0  0  0  0  0  0  0  0
   -3.8610   24.5720  -29.5920 C   0  0  0  0  0  0  0  0  0  0  0  0
   -2.7370   23.9220  -29.9760 N   0  0  0  0  0  0  0  0  0  0  0  0
   -2.7540   22.9470  -30.9200 C   0  0  0  0  0  0  0  0  0  0  0  0
   -1.5650   22.2760  -31.2190 C   0  0  0  0  0  0  0  0  0  0  0  0
   -0.6216   22.6100  -30.7625 H   0  0  0  0  0  0  0  0  0  0  0  0
   -1.5630   21.1790  -32.0970 C   0  0  0  0  0  0  0  0  0  0  0  0
   -0.3880   20.4870  -32.4380 O   0  0  0  0  0  0  0  0  0  0  0  0
    0.5490   20.8790  -33.4410 C   0  0  0  0  0  0  0  0  0  0  0  0
    0.1381   21.7266  -34.0091 H   0  0  0  0  0  0  0  0  0  0  0  0
    1.4911   21.1708  -32.9538 H   0  0  0  0  0  0  0  0  0  0  0  0
    0.8260   19.7140  -34.4010 C   0  0  0  0  0  0  0  0  0  0  0  0
    0.0577   19.7186  -35.1883 H   0  0  0  0  0  0  0  0  0  0  0  0
    1.8362   19.8596  -34.8112 H   0  0  0  0  0  0  0  0  0  0  0  0
    0.8060   18.3360  -33.7020 C   0  0  0  0  0  0  0  0  0  0  0  0
    1.2199   17.5900  -34.3964 H   0  0  0  0  0  0  0  0  0  0  0  0
    1.4025   18.4366  -32.7833 H   0  0  0  0  0  0  0  0  0  0  0  0
   -0.5480   17.8880  -33.2880 N   0  0  0  0  0  0  0  0  0  0  0  0
   -1.1600   18.7320  -33.2080 H   0  0  0  0  0  0  0  0  0  0  0  0
   -1.1550   16.9750  -34.2940 C   0  0  0  0  0  0  0  0  0  0  0  0
   -1.6745   17.5760  -35.0548 H   0  0  0  0  0  0  0  0  0  0  0  0
   -0.3505   16.3785  -34.7489 H   0  0  0  0  0  0  0  0  0  0  0  0
   -2.1630   16.0110  -33.6440 C   0  0  0  0  0  0  0  0  0  0  0  0
   -2.9553   16.6058  -33.1660 H   0  0  0  0  0  0  0  0  0  0  0  0
   -2.5526   15.3629  -34.4429 H   0  0  0  0  0  0  0  0  0  0  0  0
   -1.5830   15.1620  -32.6620 O   0  0  0  0  0  0  0  0  0  0  0  0
   -0.4580   15.7330  -32.0070 C   0  0  0  0  0  0  0  0  0  0  0  0
   -0.4147   15.3372  -30.9816 H   0  0  0  0  0  0  0  0  0  0  0  0
    0.4302   15.4634  -32.5973 H   0  0  0  0  0  0  0  0  0  0  0  0
   -0.5020   17.2700  -31.9340 C   0  0  0  0  0  0  0  0  0  0  0  0
   -1.3983   17.5741  -31.3734 H   0  0  0  0  0  0  0  0  0  0  0  0
    0.4145   17.6143  -31.4325 H   0  0  0  0  0  0  0  0  0  0  0  0
   -2.7730   20.7390  -32.6500 C   0  0  0  0  0  0  0  0  0  0  0  0
   -2.7460   19.6150  -33.4900 O   0  0  0  0  0  0  0  0  0  0  0  0
   -3.9020   18.9090  -33.9360 C   0  0  0  0  0  0  0  0  0  0  0  0
   -4.4760   18.5584  -33.0656 H   0  0  0  0  0  0  0  0  0  0  0  0
   -4.5289   19.5785  -34.5432 H   0  0  0  0  0  0  0  0  0  0  0  0
   -3.5927   18.0455  -34.5432 H   0  0  0  0  0  0  0  0  0  0  0  0
   -3.9680   21.4160  -32.3470 C   0  0  0  0  0  0  0  0  0  0  0  0
   -4.9211   21.0280  -32.7356 H   0  0  0  0  0  0  0  0  0  0  0  0
   -3.9680   22.5850  -31.5530 C   0  0  0  0  0  0  0  0  0  0  0  0
   -5.1400   23.3570  -31.2660 C   0  0  0  0  0  0  0  0  0  0  0  0
   -6.2600   23.2940  -31.9460 N   0  0  0  0  0  0  0  0  0  0  0  0
   -7.2590   22.2650  -31.9920 C   0  0  0  0  0  0  0  0  0  0  0  0
   -8.4450   22.3770  -31.2440 C   0  0  0  0  0  0  0  0  0  0  0  0
   -8.6288   23.2758  -30.6370 H   0  0  0  0  0  0  0  0  0  0  0  0
   -9.3900   21.3480  -31.2710 C   0  0  0  0  0  0  0  0  0  0  0  0
  -10.3265   21.4468  -30.7025 H   0  0  0  0  0  0  0  0  0  0  0  0
   -9.1460   20.1930  -32.0200 C   0  0  0  0  0  0  0  0  0  0  0  0
   -9.8948   19.3877  -32.0482 H   0  0  0  0  0  0  0  0  0  0  0  0
   -7.9510   20.0610  -32.7330 C   0  0  0  0  0  0  0  0  0  0  0  0
   -7.7557   19.1477  -33.3141 H   0  0  0  0  0  0  0  0  0  0  0  0
   -7.0030   21.0900  -32.7080 C   0  0  0  0  0  0  0  0  0  0  0  0
   -6.0541   20.9751  -33.2525 H   0  0  0  0  0  0  0  0  0  0  0  0
   -5.0810   24.2920  -30.2090 C   0  0  0  0  0  0  0  0  0  0  0  0
   -6.2470   25.0460  -29.8060 C   0  0  0  0  0  0  0  0  0  0  0  0
   -7.1800   25.6490  -29.4820 N   0  0  0  0  0  0  0  0  0  0  0  0
  1  2  1  0
  2  3  1  0
  3  4  1  0
  4  5  2  0
  5  6  1  0
  5  7  1  0
  7  8  1  0
  8  9  1  0
  9 10  1  0
  9 11  1  0
  9 12  1  0
 12 13  1  0
 12 14  1  0
 12 15  1  0
 15 16  1  0
 15 17  1  0
 15 18  1  0
 18 19  1  0
 18 20  1  0
 20 21  1  0
 20 22  1  0
 20 23  1  0
 23 24  1  0
 23 25  1  0
 23 26  1  0
 26 27  1  0
 27 28  1  0
 27 29  1  0
 27 30  1  0
 30 31  1  0
 30 32  1  0
  7 33  2  0
 33 34  1  0
 34 35  1  0
 35 36  1  0
 35 37  1  0
 35 38  1  0
 33 39  1  0
 39 40  1  0
 39 41  2  0
 41 42  1  0
 42 43  2  0
 43 44  1  0
 44 45  2  0
 45 46  1  0
 45 47  1  0
 47 48  1  0
 47 49  2  0
 49 50  1  0
 49 51  1  0
 51 52  1  0
 51 53  2  0
 53 54  1  0
 42 55  1  0
 55 56  1  0
 56 57  3  0
 55  2  2  0
 41  4  1  0
 53 44  1  0
 30 18  1  0
M  CHG  2   3  -1  18   1
M  END
>  <UniqueID>  (9) 
9

>  <SMILES>  (9) 
COc1cc2/c(=N\c3ccccc3)c(C#N)c[n-]c2cc1OCCC[NH+]1CCOCC1

>  <Energy>  (9) 
96.54605871004057

>  <Genealogy>  (9) 
COc1cc2c(=Nc3ccccc3)c(C#N)c[n-]c2cc1OCCC[NH+]1CCOCC1 (protonated)
COc1cc2/c(=N\c3ccccc3)c(C#N)c[n-]c2cc1OCCC[NH+]1CCOCC1 (cis-trans isomerization)
COc1cc2/c(=N\c3ccccc3)c(C#N)c[n-]c2cc1OCCC[NH+]1CCOCC1 (3D coordinates assigned)
COc1cc2/c(=N\c3ccccc3)c(C#N)c[n-]c2cc1OCCC[NH+]1CCOCC1 (nonaromatic ring conformer: 96.54605871004057 kcal/mol)

>  <smiles>  (9) 
COc1cc2c(=Nc3ccccc3)c(C#N)c[nH]c2cc1OCCCN1CCOCC1

>  <score_type>  (9) 
oracle

>  <origin>  (9) 
adg

>  <m_score__min__energy>  (9) 
-9.7799999999999994

>  <m_primary>  (9) 
energy

$$$$
9:0
     RDKit          3D

 50 53  0  0  0  0  0  0  0  0999 V2000
   -4.5135   16.6720  -33.5748 H   0  0  0  0  0  0  0  0  0  0  0  0
   -5.1660   17.5340  -33.3720 C   0  0  0  0  0  0  0  0  0  0  0  0
   -5.3730   18.5010  -34.3590 C   0  0  0  0  0  0  0  0  0  0  0  0
   -4.8796   18.4014  -35.3371 H   0  0  0  0  0  0  0  0  0  0  0  0
   -6.2060   19.5950  -34.1060 C   0  0  0  0  0  0  0  0  0  0  0  0
   -6.3595   20.3576  -34.8837 H   0  0  0  0  0  0  0  0  0  0  0  0
   -6.8490   19.7250  -32.8610 C   0  0  0  0  0  0  0  0  0  0  0  0
   -7.7440   20.9110  -32.5690 C   0  0  2  0  0  0  0  0  0  0  0  0
   -7.9148   21.3923  -33.5433 H   0  0  0  0  0  0  0  0  0  0  0  0
   -7.1220   21.8230  -31.6180 N   0  0  0  0  0  0  0  0  0  0  0  0
   -5.9210   22.5600  -31.9160 C   0  0  0  0  0  0  0  0  0  0  0  0
   -5.9640   23.8180  -31.9800 O   0  0  0  0  0  0  0  0  0  0  0  0
   -4.6320   21.8730  -32.1490 C   0  0  0  0  0  0  0  0  0  0  0  0
   -4.0320   21.1070  -31.1440 C   0  0  0  0  0  0  0  0  0  0  0  0
   -4.5148   21.0174  -30.1597 H   0  0  0  0  0  0  0  0  0  0  0  0
   -2.8230   20.4570  -31.3880 C   0  0  0  0  0  0  0  0  0  0  0  0
   -2.3516   19.8540  -30.5980 H   0  0  0  0  0  0  0  0  0  0  0  0
   -2.2110   20.5740  -32.6410 C   0  0  0  0  0  0  0  0  0  0  0  0
   -1.0790   19.9570  -32.8420 N   0  0  0  0  0  0  0  0  0  0  0  0
   -0.2500   20.0170  -34.0130 C   0  0  0  0  0  0  0  0  0  0  0  0
    0.6160   21.1070  -34.2190 C   0  0  0  0  0  0  0  0  0  0  0  0
    0.6227   21.9424  -33.5034 H   0  0  0  0  0  0  0  0  0  0  0  0
    1.4670   21.1350  -35.3260 C   0  0  0  0  0  0  0  0  0  0  0  0
    2.1264   21.9999  -35.4909 H   0  0  0  0  0  0  0  0  0  0  0  0
    1.4810   20.0660  -36.2230 C   0  0  0  0  0  0  0  0  0  0  0  0
    2.1465   20.0925  -37.0984 H   0  0  0  0  0  0  0  0  0  0  0  0
    0.6510   18.9620  -36.0110 C   0  0  0  0  0  0  0  0  0  0  0  0
    0.6731   18.1179  -36.7159 H   0  0  0  0  0  0  0  0  0  0  0  0
   -0.2120   18.9240  -34.9020 C   0  0  0  0  0  0  0  0  0  0  0  0
   -1.0920   17.7260  -34.6750 C   0  0  0  0  0  0  0  0  0  0  0  0
   -1.2139   17.5601  -33.5944 H   0  0  0  0  0  0  0  0  0  0  0  0
   -2.0768   17.9025  -35.1322 H   0  0  0  0  0  0  0  0  0  0  0  0
   -0.6291   16.8391  -35.1322 H   0  0  0  0  0  0  0  0  0  0  0  0
   -2.8350   21.2900  -33.6290 N   0  0  0  0  0  0  0  0  0  0  0  0
   -2.4420   21.3390  -34.5950 H   0  0  0  0  0  0  0  0  0  0  0  0
   -4.0160   21.9310  -33.4070 C   0  0  0  0  0  0  0  0  0  0  0  0
   -4.4902   22.4987  -34.2212 H   0  0  0  0  0  0  0  0  0  0  0  0
   -8.0070   22.1560  -30.5110 C   0  0  0  0  0  0  0  0  0  0  0  0
   -7.6245   21.7292  -29.5721 H   0  0  0  0  0  0  0  0  0  0  0  0
   -8.0821   23.2435  -30.3634 H   0  0  0  0  0  0  0  0  0  0  0  0
   -9.3560   21.5410  -30.8640 C   0  0  0  0  0  0  0  0  0  0  0  0
   -9.8097   21.0766  -29.9760 H   0  0  0  0  0  0  0  0  0  0  0  0
  -10.0640   22.2993  -31.2297 H   0  0  0  0  0  0  0  0  0  0  0  0
   -9.0650   20.4860  -31.9250 C   0  0  0  0  0  0  0  0  0  0  0  0
   -8.9659   19.4927  -31.4630 H   0  0  0  0  0  0  0  0  0  0  0  0
   -9.8763   20.4148  -32.6644 H   0  0  0  0  0  0  0  0  0  0  0  0
   -6.6230   18.7540  -31.8700 C   0  0  0  0  0  0  0  0  0  0  0  0
   -7.1058   18.8537  -30.8866 H   0  0  0  0  0  0  0  0  0  0  0  0
   -5.7880   17.6620  -32.1270 C   0  0  0  0  0  0  0  0  0  0  0  0
   -5.6206   16.9031  -31.3485 H   0  0  0  0  0  0  0  0  0  0  0  0
  1  2  1  0
  2  3  2  0
  3  4  1  0
  3  5  1  0
  5  6  1  0
  5  7  2  0
  7  8  1  0
  8  9  1  6
  8 10  1  0
 10 11  1  0
 11 12  2  0
 11 13  1  0
 13 14  1  0
 14 15  1  0
 14 16  2  0
 16 17  1  0
 16 18  1  0
 18 19  2  0
 19 20  1  0
 20 21  2  0
 21 22  1  0
 21 23  1  0
 23 24  1  0
 23 25  2  0
 25 26  1  0
 25 27  1  0
 27 28  1  0
 27 29  2  0
 29 30  1  0
 30 31  1  0
 30 32  1  0
 30 33  1  0
 18 34  1  0
 34 35  1  0
 34 36  1  0
 36 37  1  0
 10 38  1  0
 38 39  1  0
 38 40  1  0
 38 41  1  0
 41 42  1  0
 41 43  1  0
 41 44  1  0
 44 45  1  0
 44 46  1  0
  7 47  1  0
 47 48  1  0
 47 49  2  0
 49 50  1  0
 49  2  1  0
 44  8  1  0
 36 13  2  0
 29 20  1  0
M  END
>  <UniqueID>  (10) 
10

>  <SMILES>  (10) 
Cc1ccccc1/N=c1/ccc(C(=O)N2CCC[C@@H]2c2ccccc2)c[nH]1

>  <Energy>  (10) 
67.21627428471076

>  <Genealogy>  (10) 
Cc1ccccc1N=c1ccc(C(=O)N2CCC[C@@H]2c2ccccc2)c[nH]1 (chirality)
Cc1ccccc1/N=c1/ccc(C(=O)N2CCC[C@@H]2c2ccccc2)c[nH]1 (cis-trans isomerization)
Cc1ccccc1/N=c1/ccc(C(=O)N2CCC[C@@H]2c2ccccc2)c[nH]1 (3D coordinates assigned)
Cc1ccccc1/N=c1/ccc(C(=O)N2CCC[C@@H]2c2ccccc2)c[nH]1 (nonaromatic ring conformer: 67.21627428471076 kcal/mol)

>  <smiles>  (10) 
Cc1ccccc1N=c1ccc(C(=O)N2CCCC2c2ccccc2)c[nH]1

>  <score_type>  (10) 
oracle

>  <origin>  (10) 
adg

>  <m_score__min__energy>  (10) 
-9.5199999999999996

>  <m_primary>  (10) 
energy

$$$$
10:0
     RDKit          3D

 47 49  0  0  0  0  0  0  0  0999 V2000
   -0.5890   18.6250  -33.1020 C   0  0  0  0  0  0  0  0  0  0  0  0
   -1.3880   19.3100  -34.2170 C   0  0  0  0  0  0  0  0  0  0  0  0
   -1.0910   20.7640  -34.3240 N   0  0  0  0  0  0  0  0  0  0  0  0
    0.2290   20.9920  -34.9720 C   0  0  0  0  0  0  0  0  0  0  0  0
    0.3190   22.3370  -35.7040 C   0  0  0  0  0  0  0  0  0  0  0  0
   -1.2300   21.4350  -33.0020 C   0  0  0  0  0  0  0  0  0  0  0  0
   -2.6200   21.2780  -32.3480 C   0  0  0  0  0  0  0  0  0  0  0  0
   -3.6700   21.3350  -33.3640 N   0  0  0  0  0  0  0  0  0  0  0  0
   -4.9870   20.8160  -33.1260 C   0  0  0  0  0  0  0  0  0  0  0  0
   -5.9860   21.5880  -32.4860 C   0  0  0  0  0  0  0  0  0  0  0  0
   -5.7210   22.9030  -32.0590 C   0  0  0  0  0  0  0  0  0  0  0  0
   -6.7050   23.6550  -31.4220 C   0  0  0  0  0  0  0  0  0  0  0  0
   -7.9670   23.1110  -31.1940 C   0  0  0  0  0  0  0  0  0  0  0  0
   -8.2580   21.8080  -31.5990 C   0  0  0  0  0  0  0  0  0  0  0  0
   -7.2830   21.0140  -32.2470 C   0  0  0  0  0  0  0  0  0  0  0  0
   -7.5550   19.7150  -32.6440 N   0  0  0  0  0  0  0  0  0  0  0  0
   -8.8680   19.0880  -32.4190 C   0  0  0  0  0  0  0  0  0  0  0  0
   -6.5690   19.0090  -33.2700 C   0  0  0  0  0  0  0  0  0  0  0  0
   -6.6610   17.7850  -33.7350 O   0  0  0  0  0  0  0  0  0  0  0  0
   -5.5030   17.4810  -34.2910 C   0  0  0  0  0  0  0  0  0  0  0  0
   -4.6210   18.5480  -34.1820 C   0  0  0  0  0  0  0  0  0  0  0  0
   -5.3280   19.5220  -33.5090 C   0  0  0  0  0  0  0  0  0  0  0  0
   -0.9705   18.9521  -32.1235 H   0  0  0  0  0  0  0  0  0  0  0  0
   -0.6962   17.5339  -33.1913 H   0  0  0  0  0  0  0  0  0  0  0  0
    0.4729   18.8976  -33.1913 H   0  0  0  0  0  0  0  0  0  0  0  0
   -1.1404   18.8285  -35.1745 H   0  0  0  0  0  0  0  0  0  0  0  0
   -2.4557   19.2053  -33.9741 H   0  0  0  0  0  0  0  0  0  0  0  0
   -1.8210   21.1960  -34.9410 H   0  0  0  0  0  0  0  0  0  0  0  0
    1.0087   20.9632  -34.1966 H   0  0  0  0  0  0  0  0  0  0  0  0
    0.3647   20.2009  -35.7242 H   0  0  0  0  0  0  0  0  0  0  0  0
    0.3736   23.1523  -34.9676 H   0  0  0  0  0  0  0  0  0  0  0  0
    1.2201   22.3516  -36.3347 H   0  0  0  0  0  0  0  0  0  0  0  0
   -0.5721   22.4716  -36.3347 H   0  0  0  0  0  0  0  0  0  0  0  0
   -0.4792   21.0095  -32.3199 H   0  0  0  0  0  0  0  0  0  0  0  0
   -1.0876   22.5110  -33.1805 H   0  0  0  0  0  0  0  0  0  0  0  0
   -2.6694   20.3091  -31.8295 H   0  0  0  0  0  0  0  0  0  0  0  0
   -2.7720   22.0982  -31.6310 H   0  0  0  0  0  0  0  0  0  0  0  0
   -3.4990   21.8940  -34.2300 H   0  0  0  0  0  0  0  0  0  0  0  0
   -4.7266   23.3410  -32.2302 H   0  0  0  0  0  0  0  0  0  0  0  0
   -6.4848   24.6827  -31.0976 H   0  0  0  0  0  0  0  0  0  0  0  0
   -8.7389   23.7125  -30.6915 H   0  0  0  0  0  0  0  0  0  0  0  0
   -9.2592   21.3925  -31.4119 H   0  0  0  0  0  0  0  0  0  0  0  0
   -9.0520   19.0001  -31.3381 H   0  0  0  0  0  0  0  0  0  0  0  0
   -9.6535   19.7082  -32.8754 H   0  0  0  0  0  0  0  0  0  0  0  0
   -8.8795   18.0872  -32.8754 H   0  0  0  0  0  0  0  0  0  0  0  0
   -5.2700   16.5196  -34.7720 H   0  0  0  0  0  0  0  0  0  0  0  0
   -3.5863   18.6039  -34.5512 H   0  0  0  0  0  0  0  0  0  0  0  0
  1  2  1  0
  2  3  1  0
  3  4  1  0
  4  5  1  0
  3  6  1  0
  6  7  1  0
  7  8  1  0
  8  9  1  0
  9 10  2  0
 10 11  1  0
 11 12  2  0
 12 13  1  0
 13 14  2  0
 14 15  1  0
 15 16  2  0
 16 17  1  0
 16 18  1  0
 18 19  1  0
 19 20  1  0
 20 21  2  0
 21 22  1  0
 22  9  1  0
 15 10  1  0
 22 18  2  0
  1 23  1  0
  1 24  1  0
  1 25  1  0
  2 26  1  0
  2 27  1  0
  3 28  1  0
  4 29  1  0
  4 30  1  0
  5 31  1  0
  5 32  1  0
  5 33  1  0
  6 34  1  0
  6 35  1  0
  7 36  1  0
  7 37  1  0
  8 38  1  0
 11 39  1  0
 12 40  1  0
 13 41  1  0
 14 42  1  0
 17 43  1  0
 17 44  1  0
 17 45  1  0
 20 46  1  0
 21 47  1  0
M  CHG  2   3   1  16   1
M  END
>  <UniqueID>  (11) 
11

>  <SMILES>  (11) 
CC[NH+](CC)CCNc1c2ccccc2[n+](C)c2occc12

>  <Energy>  (11) 
95.26286381557455

>  <Genealogy>  (11) 
CC[NH+](CC)CCNc1c2ccccc2[n+](C)c2occc12 (protonated)
CC[NH+](CC)CCNc1c2ccccc2[n+](C)c2occc12 (3D coordinates assigned)
CC[NH+](CC)CCNc1c2ccccc2[n+](C)c2occc12 (optimized conformer: 95.26286381557455 kcal/mol)

>  <smiles>  (11) 
CCN(CC)CCNc1c2ccccc2[n+](C)c2occc12

>  <score_type>  (11) 
oracle

>  <origin>  (11) 
adg

>  <m_score__min__energy>  (11) 
-6.2699999999999996

>  <m_primary>  (11) 
energy

$$$$
11:0
     RDKit          3D

 37 38  0  0  0  0  0  0  0  0999 V2000
   -1.4940   26.3280  -26.5510 C   0  0  0  0  0  0  0  0  0  0  0  0
   -0.8440   26.6510  -27.8920 C   0  0  0  0  0  0  0  0  0  0  0  0
   -1.5590   26.0320  -28.9620 O   0  0  0  0  0  0  0  0  0  0  0  0
   -1.9330   24.6780  -29.0300 C   0  0  0  0  0  0  0  0  0  0  0  0
   -1.2100   23.6660  -28.3650 C   0  0  0  0  0  0  0  0  0  0  0  0
   -1.6460   22.3390  -28.4090 C   0  0  0  0  0  0  0  0  0  0  0  0
   -2.8050   22.0050  -29.1070 C   0  0  0  0  0  0  0  0  0  0  0  0
   -3.5260   22.9950  -29.7790 C   0  0  0  0  0  0  0  0  0  0  0  0
   -3.0820   24.3240  -29.7730 C   0  0  0  0  0  0  0  0  0  0  0  0
   -3.8590   25.3060  -30.4710 N   0  0  0  0  0  0  0  0  0  0  0  0
   -5.2530   25.1830  -30.7740 C   0  0  0  0  0  0  0  0  0  0  0  0
   -6.0950   25.9580  -30.2440 O   0  0  0  0  0  0  0  0  0  0  0  0
   -5.7140   24.1170  -31.7160 C   0  0  0  0  0  0  0  0  0  0  0  0
   -7.0980   23.7390  -31.4240 N   0  0  0  0  0  0  0  0  0  0  0  0
   -7.6690   22.4750  -31.8100 C   0  0  0  0  0  0  0  0  0  0  0  0
   -9.0460   22.2590  -31.6300 C   0  0  0  0  0  0  0  0  0  0  0  0
   -9.6280   21.0420  -31.9940 C   0  0  0  0  0  0  0  0  0  0  0  0
   -8.8430   20.0270  -32.5440 C   0  0  0  0  0  0  0  0  0  0  0  0
   -7.4710   20.2250  -32.7280 C   0  0  0  0  0  0  0  0  0  0  0  0
   -6.4850   18.9480  -33.4170 Cl  0  0  0  0  0  0  0  0  0  0  0  0
   -6.8840   21.4430  -32.3640 C   0  0  0  0  0  0  0  0  0  0  0  0
   -0.8335   26.6562  -25.7349 H   0  0  0  0  0  0  0  0  0  0  0  0
   -2.4584   26.8517  -26.4754 H   0  0  0  0  0  0  0  0  0  0  0  0
   -1.6590   25.2431  -26.4754 H   0  0  0  0  0  0  0  0  0  0  0  0
   -0.8446   27.7410  -28.0403 H   0  0  0  0  0  0  0  0  0  0  0  0
    0.1868   26.2670  -27.8868 H   0  0  0  0  0  0  0  0  0  0  0  0
   -0.2969   23.9229  -27.8080 H   0  0  0  0  0  0  0  0  0  0  0  0
   -1.0727   21.5559  -27.8912 H   0  0  0  0  0  0  0  0  0  0  0  0
   -3.1522   20.9615  -29.1288 H   0  0  0  0  0  0  0  0  0  0  0  0
   -4.4483   22.7295  -30.3164 H   0  0  0  0  0  0  0  0  0  0  0  0
   -5.6515   24.4936  -32.7476 H   0  0  0  0  0  0  0  0  0  0  0  0
   -5.0705   23.2330  -31.5957 H   0  0  0  0  0  0  0  0  0  0  0  0
   -7.7070   24.4170  -30.9100 H   0  0  0  0  0  0  0  0  0  0  0  0
   -9.6710   23.0549  -31.1988 H   0  0  0  0  0  0  0  0  0  0  0  0
  -10.7065   20.8834  -31.8469 H   0  0  0  0  0  0  0  0  0  0  0  0
   -9.3040   19.0709  -32.8328 H   0  0  0  0  0  0  0  0  0  0  0  0
   -5.8046   21.5956  -32.5110 H   0  0  0  0  0  0  0  0  0  0  0  0
  1  2  1  0
  2  3  1  0
  3  4  1  0
  4  5  2  0
  5  6  1  0
  6  7  2  0
  7  8  1  0
  8  9  2  0
  9 10  1  0
 10 11  1  0
 11 12  2  0
 11 13  1  0
 13 14  1  0
 14 15  1  0
 15 16  2  0
 16 17  1  0
 17 18  2  0
 18 19  1  0
 19 20  1  0
 19 21  2  0
  9  4  1  0
 21 15  1  0
  1 22  1  0
  1 23  1  0
  1 24  1  0
  2 25  1  0
  2 26  1  0
  5 27  1  0
  6 28  1  0
  7 29  1  0
  8 30  1  0
 13 31  1  0
 13 32  1  0
 14 33  1  0
 16 34  1  0
 17 35  1  0
 18 36  1  0
 21 37  1  0
M  CHG  1  10  -1
M  END
>  <UniqueID>  (12) 
12

>  <SMILES>  (12) 
CCOc1ccccc1[N-]C(=O)CNc1cccc(Cl)c1

>  <Energy>  (12) 
38.93952558203779

>  <Genealogy>  (12) 
CCOc1ccccc1[N-]C(=O)CNc1cccc(Cl)c1 (protonated)
CCOc1ccccc1[N-]C(=O)CNc1cccc(Cl)c1 (3D coordinates assigned)
CCOc1ccccc1[N-]C(=O)CNc1cccc(Cl)c1 (optimized conformer: 38.93952558203779 kcal/mol)

>  <smiles>  (12) 
CCOc1ccccc1NC(=O)CNc1cccc(Cl)c1

>  <score_type>  (12) 
oracle

>  <origin>  (12) 
adg

>  <m_score__min__energy>  (12) 
-10.02

>  <m_primary>  (12) 
energy

$$$$
12:0
     RDKit          3D

 37 38  0  0  0  0  0  0  0  0999 V2000
   -8.9200   22.6890  -32.3210 F   0  0  0  0  0  0  0  0  0  0  0  0
   -9.3240   21.4670  -31.8120 C   0  0  0  0  0  0  0  0  0  0  0  0
  -10.5760   21.1770  -32.3250 F   0  0  0  0  0  0  0  0  0  0  0  0
   -9.4120   21.5590  -30.4360 F   0  0  0  0  0  0  0  0  0  0  0  0
   -8.3350   20.3880  -32.1750 C   0  0  0  0  0  0  0  0  0  0  0  0
   -8.6260   19.0380  -31.9170 C   0  0  0  0  0  0  0  0  0  0  0  0
   -7.6870   18.0440  -32.2040 C   0  0  0  0  0  0  0  0  0  0  0  0
   -6.4430   18.3870  -32.7350 C   0  0  0  0  0  0  0  0  0  0  0  0
   -6.1240   19.7310  -32.9790 C   0  0  0  0  0  0  0  0  0  0  0  0
   -4.7580   20.1020  -33.5050 C   0  0  0  0  0  0  0  0  0  0  0  0
   -4.4990   21.5470  -33.3890 N   0  0  0  0  0  0  0  0  0  0  0  0
   -3.4410   21.8400  -32.4060 C   0  0  0  0  0  0  0  0  0  0  0  0
   -3.9700   21.7710  -30.9640 C   0  0  0  0  0  0  0  0  0  0  0  0
   -4.8560   22.9460  -30.6370 C   0  0  0  0  0  0  0  0  0  0  0  0
   -6.2340   22.7580  -30.4420 C   0  0  0  0  0  0  0  0  0  0  0  0
   -7.0530   23.8410  -30.1060 C   0  0  0  0  0  0  0  0  0  0  0  0
   -6.5000   25.1170  -29.9580 C   0  0  0  0  0  0  0  0  0  0  0  0
   -5.1290   25.3110  -30.1440 C   0  0  0  0  0  0  0  0  0  0  0  0
   -4.3070   24.2300  -30.4800 C   0  0  0  0  0  0  0  0  0  0  0  0
   -7.0690   20.7280  -32.6860 C   0  0  0  0  0  0  0  0  0  0  0  0
   -9.5997   18.7617  -31.4861 H   0  0  0  0  0  0  0  0  0  0  0  0
   -7.9290   16.9885  -32.0109 H   0  0  0  0  0  0  0  0  0  0  0  0
   -5.7092   17.5999  -32.9633 H   0  0  0  0  0  0  0  0  0  0  0  0
   -3.9952   19.5567  -32.9299 H   0  0  0  0  0  0  0  0  0  0  0  0
   -4.7184   19.8329  -34.5709 H   0  0  0  0  0  0  0  0  0  0  0  0
   -4.2370   21.9280  -34.3280 H   0  0  0  0  0  0  0  0  0  0  0  0
   -5.3860   22.0110  -33.0820 H   0  0  0  0  0  0  0  0  0  0  0  0
   -2.6311   21.1051  -32.5242 H   0  0  0  0  0  0  0  0  0  0  0  0
   -3.0761   22.8614  -32.5890 H   0  0  0  0  0  0  0  0  0  0  0  0
   -4.5484   20.8435  -30.8407 H   0  0  0  0  0  0  0  0  0  0  0  0
   -3.1076   21.7922  -30.2816 H   0  0  0  0  0  0  0  0  0  0  0  0
   -6.6711   21.7548  -30.5540 H   0  0  0  0  0  0  0  0  0  0  0  0
   -8.1324   23.6890  -29.9581 H   0  0  0  0  0  0  0  0  0  0  0  0
   -7.1449   25.9684  -29.6950 H   0  0  0  0  0  0  0  0  0  0  0  0
   -4.6953   26.3150  -30.0261 H   0  0  0  0  0  0  0  0  0  0  0  0
   -3.2273   24.3856  -30.6218 H   0  0  0  0  0  0  0  0  0  0  0  0
   -6.8168   21.7848  -32.8577 H   0  0  0  0  0  0  0  0  0  0  0  0
  1  2  1  0
  2  3  1  0
  2  4  1  0
  2  5  1  0
  5  6  2  0
  6  7  1  0
  7  8  2  0
  8  9  1  0
  9 10  1  0
 10 11  1  0
 11 12  1  0
 12 13  1  0
 13 14  1  0
 14 15  2  0
 15 16  1  0
 16 17  2  0
 17 18  1  0
 18 19  2  0
  9 20  2  0
 20  5  1  0
 19 14  1  0
  6 21  1  0
  7 22  1  0
  8 23  1  0
 10 24  1  0
 10 25  1  0
 11 26  1  0
 11 27  1  0
 12 28  1  0
 12 29  1  0
 13 30  1  0
 13 31  1  0
 15 32  1  0
 16 33  1  0
 17 34  1  0
 18 35  1  0
 19 36  1  0
 20 37  1  0
M  CHG  1  11   1
M  END
>  <UniqueID>  (13) 
13

>  <SMILES>  (13) 
FC(F)(F)c1cccc(C[NH2+]CCc2ccccc2)c1

>  <Energy>  (13) 
34.33126395459323

>  <Genealogy>  (13) 
FC(F)(F)c1cccc(C[NH2+]CCc2ccccc2)c1 (protonated)
FC(F)(F)c1cccc(C[NH2+]CCc2ccccc2)c1 (3D coordinates assigned)
FC(F)(F)c1cccc(C[NH2+]CCc2ccccc2)c1 (optimized conformer: 34.33126395459323 kcal/mol)

>  <smiles>  (13) 
FC(F)(F)c1cccc(CNCCc2ccccc2)c1

>  <score_type>  (13) 
oracle

>  <origin>  (13) 
adg

>  <m_score__min__energy>  (13) 
-6.2999999999999998

>  <m_primary>  (13) 
energy

$$$$
13:0
     RDKit          3D

 56 59  0  0  0  0  0  0  0  0999 V2000
   -0.7140   22.9230  -29.1720 C   0  0  0  0  0  0  0  0  0  0  0  0
   -2.0350   23.4760  -29.7040 C   0  0  0  0  0  0  0  0  0  0  0  0
   -2.4040   24.7290  -29.0100 N   0  0  0  0  0  0  0  0  0  0  0  0
   -1.1890   25.4600  -28.5800 C   0  0  0  0  0  0  0  0  0  0  0  0
   -1.2630   25.8300  -27.0980 C   0  0  0  0  0  0  0  0  0  0  0  0
   -3.3290   24.4800  -27.8730 C   0  0  0  0  0  0  0  0  0  0  0  0
   -4.3990   23.4740  -28.3000 C   0  0  0  0  0  0  0  0  0  0  0  0
   -5.3160   24.0730  -29.2130 O   0  0  0  0  0  0  0  0  0  0  0  0
   -5.1390   24.0660  -30.6020 C   0  0  0  0  0  0  0  0  0  0  0  0
   -4.8990   25.1420  -31.2170 O   0  0  0  0  0  0  0  0  0  0  0  0
   -5.2920   22.8060  -31.3630 C   0  0  0  0  0  0  0  0  0  0  0  0
   -4.1420   22.2320  -31.9260 C   0  0  0  0  0  0  0  0  0  0  0  0
   -4.2390   21.0800  -32.7230 C   0  0  0  0  0  0  0  0  0  0  0  0
   -3.0420   20.4580  -33.3430 C   0  0  0  0  0  0  0  0  0  0  0  0
   -3.0450   19.0830  -33.6380 C   0  0  0  0  0  0  0  0  0  0  0  0
   -1.9340   18.4740  -34.2270 C   0  0  0  0  0  0  0  0  0  0  0  0
   -0.7990   19.2320  -34.5420 C   0  0  0  0  0  0  0  0  0  0  0  0
    0.3210   18.6310  -35.1360 C   0  0  0  0  0  0  0  0  0  0  0  0
    1.4460   19.4000  -35.4510 C   0  0  0  0  0  0  0  0  0  0  0  0
    1.4590   20.7710  -35.1790 C   0  0  0  0  0  0  0  0  0  0  0  0
    0.3490   21.3810  -34.5880 C   0  0  0  0  0  0  0  0  0  0  0  0
   -0.7860   20.6200  -34.2640 C   0  0  0  0  0  0  0  0  0  0  0  0
   -1.9060   21.2230  -33.6710 C   0  0  0  0  0  0  0  0  0  0  0  0
   -5.4580   20.5130  -32.9210 N   0  0  0  0  0  0  0  0  0  0  0  0
   -6.5960   21.0170  -32.3800 C   0  0  0  0  0  0  0  0  0  0  0  0
   -7.8140   20.3700  -32.6160 C   0  0  0  0  0  0  0  0  0  0  0  0
   -8.9890   20.8540  -32.0400 C   0  0  0  0  0  0  0  0  0  0  0  0
   -8.9520   21.9770  -31.2140 C   0  0  0  0  0  0  0  0  0  0  0  0
   -7.7420   22.6340  -30.9700 C   0  0  0  0  0  0  0  0  0  0  0  0
   -6.5470   22.1790  -31.5700 C   0  0  0  0  0  0  0  0  0  0  0  0
   -0.7301   22.9297  -28.0721 H   0  0  0  0  0  0  0  0  0  0  0  0
   -0.5772   21.8921  -29.5304 H   0  0  0  0  0  0  0  0  0  0  0  0
    0.1164   23.5490  -29.5304 H   0  0  0  0  0  0  0  0  0  0  0  0
   -1.9328   23.6779  -30.7805 H   0  0  0  0  0  0  0  0  0  0  0  0
   -2.8241   22.7309  -29.5244 H   0  0  0  0  0  0  0  0  0  0  0  0
   -0.3084   24.8224  -28.7473 H   0  0  0  0  0  0  0  0  0  0  0  0
   -1.1134   26.3869  -29.1675 H   0  0  0  0  0  0  0  0  0  0  0  0
   -1.0836   24.9332  -26.4868 H   0  0  0  0  0  0  0  0  0  0  0  0
   -0.4986   26.5876  -26.8706 H   0  0  0  0  0  0  0  0  0  0  0  0
   -2.2600   26.2353  -26.8706 H   0  0  0  0  0  0  0  0  0  0  0  0
   -2.7630   24.0746  -27.0214 H   0  0  0  0  0  0  0  0  0  0  0  0
   -3.8095   25.4240  -27.5765 H   0  0  0  0  0  0  0  0  0  0  0  0
   -3.9138   22.6150  -28.7865 H   0  0  0  0  0  0  0  0  0  0  0  0
   -4.9516   23.1443  -27.4078 H   0  0  0  0  0  0  0  0  0  0  0  0
   -3.1579   22.6875  -31.7418 H   0  0  0  0  0  0  0  0  0  0  0  0
   -3.9336   18.4791  -33.4020 H   0  0  0  0  0  0  0  0  0  0  0  0
   -1.9507   17.3958  -34.4441 H   0  0  0  0  0  0  0  0  0  0  0  0
    0.3143   17.5529  -35.3544 H   0  0  0  0  0  0  0  0  0  0  0  0
    2.3231   18.9245  -35.9142 H   0  0  0  0  0  0  0  0  0  0  0  0
    2.3455   21.3716  -35.4308 H   0  0  0  0  0  0  0  0  0  0  0  0
    0.3644   22.4603  -34.3760 H   0  0  0  0  0  0  0  0  0  0  0  0
   -1.8964   22.3026  -33.4606 H   0  0  0  0  0  0  0  0  0  0  0  0
   -7.8453   19.4771  -33.2576 H   0  0  0  0  0  0  0  0  0  0  0  0
   -9.9460   20.3490  -32.2377 H   0  0  0  0  0  0  0  0  0  0  0  0
   -9.8790   22.3477  -30.7522 H   0  0  0  0  0  0  0  0  0  0  0  0
   -7.7206   23.5110  -30.3064 H   0  0  0  0  0  0  0  0  0  0  0  0
  1  2  1  0
  2  3  1  0
  3  4  1  0
  4  5  1  0
  3  6  1  0
  6  7  1  0
  7  8  1  0
  8  9  1  0
  9 10  2  0
  9 11  1  0
 11 12  2  0
 12 13  1  0
 13 14  1  0
 14 15  2  0
 15 16  1  0
 16 17  2  0
 17 18  1  0
 18 19  2  0
 19 20  1  0
 20 21  2  0
 21 22  1  0
 22 23  2  0
 13 24  2  0
 24 25  1  0
 25 26  2  0
 26 27  1  0
 27 28  2  0
 28 29  1  0
 29 30  2  0
 30 11  1  0
 23 14  1  0
 30 25  1  0
 22 17  1  0
  1 31  1  0
  1 32  1  0
  1 33  1  0
  2 34  1  0
  2 35  1  0
  4 36  1  0
  4 37  1  0
  5 38  1  0
  5 39  1  0
  5 40  1  0
  6 41  1  0
  6 42  1  0
  7 43  1  0
  7 44  1  0
 12 45  1  0
 15 46  1  0
 16 47  1  0
 18 48  1  0
 19 49  1  0
 20 50  1  0
 21 51  1  0
 23 52  1  0
 26 53  1  0
 27 54  1  0
 28 55  1  0
 29 56  1  0
M  END
>  <UniqueID>  (14) 
14

>  <SMILES>  (14) 
CCN(CC)CCOC(=O)c1cc(-c2ccc3ccccc3c2)nc2ccccc12

>  <Energy>  (14) 
73.56347371669953

>  <Genealogy>  (14) 
CCN(CC)CCOC(=O)c1cc(-c2ccc3ccccc3c2)nc2ccccc12 (3D coordinates assigned)
CCN(CC)CCOC(=O)c1cc(-c2ccc3ccccc3c2)nc2ccccc12 (optimized conformer: 73.56347371669953 kcal/mol)

>  <smiles>  (14) 
CCN(CC)CCOC(=O)c1cc(-c2ccc3ccccc3c2)nc2ccccc12

>  <score_type>  (14) 
oracle

>  <origin>  (14) 
adg

>  <m_score__min__energy>  (14) 
-9.1600000000000001

>  <m_primary>  (14) 
energy

$$$$
14:0
     RDKit          3D

 24 25  0  0  0  0  0  0  0  0999 V2000
   -6.6330   24.5520  -32.3250 H   0  0  0  0  0  0  0  0  0  0  0  0
   -7.0300   23.6040  -32.5070 N   0  0  0  0  0  0  0  0  0  0  0  0
   -7.2720   22.7530  -31.5580 C   0  0  0  0  0  0  0  0  0  0  0  0
   -7.8010   21.4190  -31.9060 C   0  0  0  0  0  0  0  0  0  0  0  0
   -6.8820   20.0580  -32.2850 S   0  0  0  0  0  0  0  0  0  0  0  0
   -8.1770   19.0170  -32.5430 C   0  0  0  0  0  0  0  0  0  0  0  0
   -8.1061   17.9571  -32.8287 H   0  0  0  0  0  0  0  0  0  0  0  0
   -9.3510   19.7270  -32.3330 C   0  0  0  0  0  0  0  0  0  0  0  0
  -10.3504   19.2790  -32.4353 H   0  0  0  0  0  0  0  0  0  0  0  0
   -9.1460   21.0660  -31.9790 C   0  0  0  0  0  0  0  0  0  0  0  0
   -9.9669   21.7701  -31.7782 H   0  0  0  0  0  0  0  0  0  0  0  0
   -7.0300   23.1050  -30.1880 N   0  0  0  0  0  0  0  0  0  0  0  0
   -7.2290   22.4100  -29.4340 H   0  0  0  0  0  0  0  0  0  0  0  0
   -6.5350   24.3530  -29.8600 O   0  0  0  0  0  0  0  0  0  0  0  0
   -5.2230   24.7350  -30.1510 C   0  0  0  0  0  0  0  0  0  0  0  0
   -4.9480   25.3250  -31.2310 O   0  0  0  0  0  0  0  0  0  0  0  0
   -4.1520   24.4480  -29.1920 C   0  0  0  0  0  0  0  0  0  0  0  0
   -2.9660   25.0100  -29.2210 O   0  0  0  0  0  0  0  0  0  0  0  0
   -2.2590   24.5310  -28.2260 C   0  0  0  0  0  0  0  0  0  0  0  0
   -0.4620   25.0390  -27.8450 Br  0  0  0  0  0  0  0  0  0  0  0  0
   -3.0040   23.6160  -27.5100 C   0  0  0  0  0  0  0  0  0  0  0  0
   -2.6840   23.0474  -26.6244 H   0  0  0  0  0  0  0  0  0  0  0  0
   -4.2320   23.5620  -28.1340 C   0  0  0  0  0  0  0  0  0  0  0  0
   -5.0955   22.9429  -27.8493 H   0  0  0  0  0  0  0  0  0  0  0  0
  1  2  1  0
  2  3  2  0
  3  4  1  0
  4  5  1  0
  5  6  1  0
  6  7  1  0
  6  8  2  0
  8  9  1  0
  8 10  1  0
 10 11  1  0
  3 12  1  0
 12 13  1  0
 12 14  1  0
 14 15  1  0
 15 16  2  0
 15 17  1  0
 17 18  1  0
 18 19  1  0
 19 20  1  0
 19 21  2  0
 21 22  1  0
 21 23  1  0
 23 24  1  0
 10  4  2  0
 23 17  2  0
M  END
>  <UniqueID>  (15) 
15

>  <SMILES>  (15) 
[H]/N=C(\NOC(=O)c1ccc(Br)o1)c1cccs1

>  <Energy>  (15) 
72.78525835231643

>  <Genealogy>  (15) 
[H]/N=C(\NOC(=O)c1ccc(Br)o1)c1cccs1 (cis-trans isomerization)
[H]/N=C(\NOC(=O)c1ccc(Br)o1)c1cccs1 (3D coordinates assigned)
[H]/N=C(\NOC(=O)c1ccc(Br)o1)c1cccs1 (optimized conformer: 72.78525835231643 kcal/mol)

>  <smiles>  (15) 
N=C(NOC(=O)c1ccc(Br)o1)c1cccs1

>  <score_type>  (15) 
oracle

>  <origin>  (15) 
adg

>  <m_score__min__energy>  (15) 
-6.9100000000000001

>  <m_primary>  (15) 
energy

$$$$
15:0
     RDKit          3D

 29 31  0  0  0  0  0  0  0  0999 V2000
   -6.4530   25.7690  -29.2650 C   0  0  0  0  0  0  0  0  0  0  0  0
   -5.3410   24.6340  -30.0630 S   0  0  0  0  0  0  0  0  0  0  0  0
   -4.3880   25.4010  -31.2150 O   0  0  0  0  0  0  0  0  0  0  0  0
   -6.1900   23.2620  -30.7520 C   0  0  0  0  0  0  0  0  0  0  0  0
   -7.3380   22.7670  -30.1250 C   0  0  0  0  0  0  0  0  0  0  0  0
   -8.0230   21.6790  -30.6730 C   0  0  0  0  0  0  0  0  0  0  0  0
   -7.5610   21.0810  -31.8500 C   0  0  0  0  0  0  0  0  0  0  0  0
   -6.3840   21.5480  -32.4640 C   0  0  0  0  0  0  0  0  0  0  0  0
   -5.7120   22.6510  -31.9190 C   0  0  0  0  0  0  0  0  0  0  0  0
   -5.8020   20.8180  -33.5550 N   0  0  0  0  0  0  0  0  0  0  0  0
   -5.9850   19.3950  -33.6430 C   0  0  0  0  0  0  0  0  0  0  0  0
   -4.9580   18.5830  -34.1470 C   0  0  0  0  0  0  0  0  0  0  0  0
   -5.0660   17.1900  -34.0800 C   0  0  0  0  0  0  0  0  0  0  0  0
   -6.1950   16.6020  -33.5030 C   0  0  0  0  0  0  0  0  0  0  0  0
   -7.2310   17.4030  -33.0150 C   0  0  0  0  0  0  0  0  0  0  0  0
   -7.1380   18.7970  -33.1020 C   0  0  0  0  0  0  0  0  0  0  0  0
   -8.5480   19.8170  -32.6570 S   0  0  0  0  0  0  0  0  0  0  0  0
   -6.3566   25.6706  -28.1737 H   0  0  0  0  0  0  0  0  0  0  0  0
   -6.2036   26.7978  -29.5638 H   0  0  0  0  0  0  0  0  0  0  0  0
   -7.4867   25.5407  -29.5638 H   0  0  0  0  0  0  0  0  0  0  0  0
   -3.5350   24.8980  -31.2160 H   0  0  0  0  0  0  0  0  0  0  0  0
   -7.7025   23.2350  -29.1986 H   0  0  0  0  0  0  0  0  0  0  0  0
   -8.9263   21.2926  -30.1782 H   0  0  0  0  0  0  0  0  0  0  0  0
   -4.8065   23.0382  -32.4090 H   0  0  0  0  0  0  0  0  0  0  0  0
   -5.0220   21.2570  -34.0940 H   0  0  0  0  0  0  0  0  0  0  0  0
   -4.0654   19.0430  -34.5961 H   0  0  0  0  0  0  0  0  0  0  0  0
   -4.2614   16.5566  -34.4819 H   0  0  0  0  0  0  0  0  0  0  0  0
   -6.2683   15.5067  -33.4328 H   0  0  0  0  0  0  0  0  0  0  0  0
   -8.1194   16.9381  -32.5626 H   0  0  0  0  0  0  0  0  0  0  0  0
  1  2  1  0
  2  3  1  6
  2  4  1  0
  4  5  2  0
  5  6  1  0
  6  7  2  0
  7  8  1  0
  8  9  2  0
  8 10  1  0
 10 11  1  0
 11 12  2  0
 12 13  1  0
 13 14  2  0
 14 15  1  0
 15 16  2  0
 16 17  1  0
  9  4  1  0
 16 11  1  0
 17  7  1  0
  1 18  1  0
  1 19  1  0
  1 20  1  0
  3 21  1  0
  5 22  1  0
  6 23  1  0
  9 24  1  0
 10 25  1  0
 12 26  1  0
 13 27  1  0
 14 28  1  0
 15 29  1  0
M  CHG  1   2   1
M  END
>  <UniqueID>  (16) 
16

>  <SMILES>  (16) 
C[S@+](O)c1ccc2c(c1)Nc1ccccc1S2

>  <Energy>  (16) 
41.03592428961887

>  <Genealogy>  (16) 
C[S+](O)c1ccc2c(c1)Nc1ccccc1S2 (protonated)
C[S@+](O)c1ccc2c(c1)Nc1ccccc1S2 (chirality)
C[S@+](O)c1ccc2c(c1)Nc1ccccc1S2 (3D coordinates assigned)
C[S@+](O)c1ccc2c(c1)Nc1ccccc1S2 (nonaromatic ring conformer: 41.03592428961887 kcal/mol)

>  <smiles>  (16) 
C[S+]([O-])c1ccc2c(c1)Nc1ccccc1S2

>  <score_type>  (16) 
oracle

>  <origin>  (16) 
adg

>  <m_score__min__energy>  (16) 
-7.9299999999999997

>  <m_primary>  (16) 
energy

$$$$
16:0
     RDKit          3D

 50 53  0  0  0  0  0  0  0  0999 V2000
   -3.9200   24.1060  -28.2520 C   0  0  0  0  0  0  0  0  0  0  0  0
   -2.9490   24.5900  -29.3260 C   0  0  0  0  0  0  0  0  0  0  0  0
   -2.0120   23.4560  -29.7530 C   0  0  0  0  0  0  0  0  0  0  0  0
   -3.7150   25.0730  -30.4760 N   0  0  0  0  0  0  0  0  0  0  0  0
   -5.0310   24.6360  -30.8440 C   0  0  0  0  0  0  0  0  0  0  0  0
   -6.0180   25.3510  -30.5280 O   0  0  0  0  0  0  0  0  0  0  0  0
   -5.2600   23.3750  -31.5740 C   0  0  0  0  0  0  0  0  0  0  0  0
   -4.2310   22.7200  -32.1970 N   0  0  0  0  0  0  0  0  0  0  0  0
   -4.4140   21.5610  -32.8610 N   0  0  0  0  0  0  0  0  0  0  0  0
   -3.2600   20.9340  -33.5230 C   0  0  0  0  0  0  0  0  0  0  0  0
   -2.1460   20.7260  -32.5340 C   0  0  0  0  0  0  0  0  0  0  0  0
   -2.4320   20.4180  -31.1940 C   0  0  0  0  0  0  0  0  0  0  0  0
   -1.3920   20.1900  -30.2860 C   0  0  0  0  0  0  0  0  0  0  0  0
   -0.0630   20.2590  -30.7120 C   0  0  0  0  0  0  0  0  0  0  0  0
    0.2290   20.5560  -32.0460 C   0  0  0  0  0  0  0  0  0  0  0  0
   -0.8060   20.7860  -32.9560 C   0  0  0  0  0  0  0  0  0  0  0  0
   -5.6690   21.0020  -32.9650 C   0  0  0  0  0  0  0  0  0  0  0  0
   -5.8510   19.9280  -33.5990 O   0  0  0  0  0  0  0  0  0  0  0  0
   -6.7340   21.6650  -32.3580 C   0  0  0  0  0  0  0  0  0  0  0  0
   -6.5310   22.8240  -31.6840 C   0  0  0  0  0  0  0  0  0  0  0  0
   -7.6820   23.2760  -31.1510 N   0  0  0  0  0  0  0  0  0  0  0  0
   -8.5860   22.3430  -31.5420 C   0  0  0  0  0  0  0  0  0  0  0  0
   -8.0410   21.3500  -32.2880 N   0  0  0  0  0  0  0  0  0  0  0  0
   -8.7430   20.1610  -32.7740 C   0  0  0  0  0  0  0  0  0  0  0  0
   -8.5930   19.0200  -31.7610 C   0  0  0  0  0  0  0  0  0  0  0  0
   -7.1740   18.6220  -31.3810 C   0  0  0  0  0  0  0  0  0  0  0  0
   -7.9710   17.7570  -32.3410 C   0  0  0  0  0  0  0  0  0  0  0  0
   -3.5002   24.3152  -27.2570 H   0  0  0  0  0  0  0  0  0  0  0  0
   -4.8804   24.6308  -28.3626 H   0  0  0  0  0  0  0  0  0  0  0  0
   -4.0790   23.0232  -28.3626 H   0  0  0  0  0  0  0  0  0  0  0  0
   -2.3339   25.4069  -28.9207 H   0  0  0  0  0  0  0  0  0  0  0  0
   -1.6036   22.9617  -28.8592 H   0  0  0  0  0  0  0  0  0  0  0  0
   -2.5721   22.7239  -30.3532 H   0  0  0  0  0  0  0  0  0  0  0  0
   -1.1874   23.8681  -30.3532 H   0  0  0  0  0  0  0  0  0  0  0  0
   -3.2790   23.1530  -32.1700 H   0  0  0  0  0  0  0  0  0  0  0  0
   -3.5633   19.9619  -33.9390 H   0  0  0  0  0  0  0  0  0  0  0  0
   -2.9064   21.5928  -34.3298 H   0  0  0  0  0  0  0  0  0  0  0  0
   -3.4773   20.3558  -30.8570 H   0  0  0  0  0  0  0  0  0  0  0  0
   -1.6209   19.9562  -29.2358 H   0  0  0  0  0  0  0  0  0  0  0  0
    0.7536   20.0795  -29.9972 H   0  0  0  0  0  0  0  0  0  0  0  0
    1.2757   20.6088  -32.3802 H   0  0  0  0  0  0  0  0  0  0  0  0
   -0.5718   21.0148  -34.0061 H   0  0  0  0  0  0  0  0  0  0  0  0
   -9.6535   22.3874  -31.2803 H   0  0  0  0  0  0  0  0  0  0  0  0
   -9.8098   20.3948  -32.9055 H   0  0  0  0  0  0  0  0  0  0  0  0
   -8.3103   19.8515  -33.7368 H   0  0  0  0  0  0  0  0  0  0  0  0
   -9.4960   19.2719  -31.1856 H   0  0  0  0  0  0  0  0  0  0  0  0
   -6.3207   19.2100  -31.7499 H   0  0  0  0  0  0  0  0  0  0  0  0
   -6.6436   18.4459  -30.4336 H   0  0  0  0  0  0  0  0  0  0  0  0
   -7.6951   17.7187  -33.4051 H   0  0  0  0  0  0  0  0  0  0  0  0
   -8.2568   16.6954  -32.3767 H   0  0  0  0  0  0  0  0  0  0  0  0
  1  2  1  0
  2  3  1  0
  2  4  1  0
  4  5  1  0
  5  6  2  0
  5  7  1  0
  7  8  2  0
  8  9  1  0
  9 10  1  0
 10 11  1  0
 11 12  2  0
 12 13  1  0
 13 14  2  0
 14 15  1  0
 15 16  2  0
  9 17  1  0
 17 18  2  0
 17 19  1  0
 19 20  2  0
 20 21  1  0
 21 22  2  0
 22 23  1  0
 23 24  1  0
 24 25  1  0
 25 26  1  0
 26 27  1  0
 20  7  1  0
 27 25  1  0
 16 11  1  0
 23 19  1  0
  1 28  1  0
  1 29  1  0
  1 30  1  0
  2 31  1  0
  3 32  1  0
  3 33  1  0
  3 34  1  0
  8 35  1  0
 10 36  1  0
 10 37  1  0
 12 38  1  0
 13 39  1  0
 14 40  1  0
 15 41  1  0
 16 42  1  0
 22 43  1  0
 24 44  1  0
 24 45  1  0
 25 46  1  0
 26 47  1  0
 26 48  1  0
 27 49  1  0
 27 50  1  0
M  CHG  2   4  -1   8   1
M  END
>  <UniqueID>  (17) 
17

>  <SMILES>  (17) 
CC(C)[N-]C(=O)c1[nH+]n(Cc2ccccc2)c(=O)c2c1ncn2CC1CC1

>  <Energy>  (17) 
354.302156354005

>  <Genealogy>  (17) 
CC(C)[N-]C(=O)c1[nH+]n(Cc2ccccc2)c(=O)c2c1ncn2CC1CC1 (protonated)
CC(C)[N-]C(=O)c1[nH+]n(Cc2ccccc2)c(=O)c2c1ncn2CC1CC1 (3D coordinates assigned)
CC(C)[N-]C(=O)c1[nH+]n(Cc2ccccc2)c(=O)c2c1ncn2CC1CC1 (nonaromatic ring conformer: 354.302156354005 kcal/mol)

>  <smiles>  (17) 
CC(C)NC(=O)c1nn(Cc2ccccc2)c(=O)c2c1ncn2CC1CC1

>  <score_type>  (17) 
oracle

>  <origin>  (17) 
adg

>  <m_score__min__energy>  (17) 
-9.0399999999999991

>  <m_primary>  (17) 
energy

$$$$
17:0
     RDKit          3D

 30 31  0  0  0  0  0  0  0  0999 V2000
   -9.0930   21.7580  -32.0700 C   0  0  0  0  0  0  0  0  0  0  0  0
   -7.8860   22.1950  -31.3050 C   0  0  0  0  0  0  0  0  0  0  0  0
   -7.8240   21.9660  -30.0670 O   0  0  0  0  0  0  0  0  0  0  0  0
   -6.7730   22.7790  -31.9990 N   0  0  0  0  0  0  0  0  0  0  0  0
   -5.6480   23.3940  -31.3460 C   0  0  0  0  0  0  0  0  0  0  0  0
   -5.7790   24.6890  -30.8260 C   0  0  0  0  0  0  0  0  0  0  0  0
   -4.7070   25.3010  -30.1710 C   0  0  0  0  0  0  0  0  0  0  0  0
   -3.4920   24.6250  -30.0120 C   0  0  0  0  0  0  0  0  0  0  0  0
   -2.4160   25.2950  -29.3390 N   0  0  0  0  0  0  0  0  0  0  0  0
   -1.3740   24.5740  -28.1570 S   0  0  0  0  0  0  0  0  0  0  0  0
   -1.9840   23.2860  -27.6800 O   0  0  0  0  0  0  0  0  0  0  0  0
   -0.0380   24.2840  -28.7820 O   0  0  0  0  0  0  0  0  0  0  0  0
   -1.1850   25.6560  -26.7890 C   0  0  0  0  0  0  0  0  0  0  0  0
   -1.5120   25.3660  -25.4730 C   0  0  0  0  0  0  0  0  0  0  0  0
   -1.2320   26.4220  -24.5990 C   0  0  0  0  0  0  0  0  0  0  0  0
   -0.6890   27.5370  -25.2260 C   0  0  0  0  0  0  0  0  0  0  0  0
   -0.5540   27.2100  -26.8710 S   0  0  0  0  0  0  0  0  0  0  0  0
   -3.3650   23.3150  -30.5060 C   0  0  0  0  0  0  0  0  0  0  0  0
   -4.4370   22.7040  -31.1630 C   0  0  0  0  0  0  0  0  0  0  0  0
   -9.8884   21.4700  -31.3668 H   0  0  0  0  0  0  0  0  0  0  0  0
   -9.4453   22.5856  -32.7032 H   0  0  0  0  0  0  0  0  0  0  0  0
   -8.8338   20.8966  -32.7032 H   0  0  0  0  0  0  0  0  0  0  0  0
   -6.7420   22.6770  -33.0390 H   0  0  0  0  0  0  0  0  0  0  0  0
   -6.7322   25.2273  -30.9342 H   0  0  0  0  0  0  0  0  0  0  0  0
   -4.8190   26.3220  -29.7773 H   0  0  0  0  0  0  0  0  0  0  0  0
   -1.9454   24.4078  -25.1506 H   0  0  0  0  0  0  0  0  0  0  0  0
   -1.4237   26.3742  -23.5169 H   0  0  0  0  0  0  0  0  0  0  0  0
   -0.3969   28.4747  -24.7307 H   0  0  0  0  0  0  0  0  0  0  0  0
   -2.4191   22.7690  -30.3751 H   0  0  0  0  0  0  0  0  0  0  0  0
   -4.3322   21.6758  -31.5395 H   0  0  0  0  0  0  0  0  0  0  0  0
  1  2  1  0
  2  3  2  0
  2  4  1  0
  4  5  1  0
  5  6  2  0
  6  7  1  0
  7  8  2  0
  8  9  1  0
  9 10  1  0
 10 11  2  0
 10 12  2  0
 10 13  1  0
 13 14  2  0
 14 15  1  0
 15 16  2  0
 16 17  1  0
  8 18  1  0
 18 19  2  0
 19  5  1  0
 17 13  1  0
  1 20  1  0
  1 21  1  0
  1 22  1  0
  4 23  1  0
  6 24  1  0
  7 25  1  0
 14 26  1  0
 15 27  1  0
 16 28  1  0
 18 29  1  0
 19 30  1  0
M  CHG  1   9  -1
M  END
>  <UniqueID>  (18) 
18

>  <SMILES>  (18) 
CC(=O)Nc1ccc([N-]S(=O)(=O)c2cccs2)cc1

>  <Energy>  (18) 
60.83205866476015

>  <Genealogy>  (18) 
CC(=O)Nc1ccc([N-]S(=O)(=O)c2cccs2)cc1 (protonated)
CC(=O)Nc1ccc([N-]S(=O)(=O)c2cccs2)cc1 (3D coordinates assigned)
CC(=O)Nc1ccc([N-]S(=O)(=O)c2cccs2)cc1 (optimized conformer: 60.83205866476015 kcal/mol)

>  <smiles>  (18) 
CC(=O)Nc1ccc(NS(=O)(=O)c2cccs2)cc1

>  <score_type>  (18) 
oracle

>  <origin>  (18) 
adg

>  <m_score__min__energy>  (18) 
-8.4600000000000009

>  <m_primary>  (18) 
energy

$$$$
18:0
     RDKit          3D

 38 40  0  0  0  0  0  0  0  0999 V2000
   -4.2440   24.9170  -26.4180 C   0  0  0  0  0  0  0  0  0  0  0  0
   -2.9950   24.8730  -27.1960 N   0  0  0  0  0  0  0  0  0  0  0  0
   -1.8250   25.1390  -26.3450 C   0  0  0  0  0  0  0  0  0  0  0  0
   -2.8600   23.6350  -27.9960 C   0  0  0  0  0  0  0  0  0  0  0  0
   -2.4320   23.8690  -29.4610 C   0  0  0  0  0  0  0  0  0  0  0  0
   -3.4020   24.7240  -30.1420 N   0  0  0  0  0  0  0  0  0  0  0  0
   -4.7300   24.2760  -30.4550 C   0  0  0  0  0  0  0  0  0  0  0  0
   -5.8380   25.0880  -30.1860 C   0  0  0  0  0  0  0  0  0  0  0  0
   -7.0840   24.6410  -30.4910 N   0  0  0  0  0  0  0  0  0  0  0  0
   -7.2800   23.4190  -31.0530 C   0  0  0  0  0  0  0  0  0  0  0  0
   -6.1750   22.5990  -31.3270 C   0  0  0  0  0  0  0  0  0  0  0  0
   -6.3200   21.2630  -31.9280 C   0  0  0  0  0  0  0  0  0  0  0  0
   -5.4280   20.7640  -32.8200 N   0  0  0  0  0  0  0  0  0  0  0  0
   -5.7780   19.5160  -33.2230 C   0  0  0  0  0  0  0  0  0  0  0  0
   -5.0520   18.7490  -34.1350 C   0  0  0  0  0  0  0  0  0  0  0  0
   -5.5250   17.4680  -34.4660 C   0  0  0  0  0  0  0  0  0  0  0  0
   -6.7100   16.9710  -33.8860 C   0  0  0  0  0  0  0  0  0  0  0  0
   -7.4320   17.7530  -32.9680 C   0  0  0  0  0  0  0  0  0  0  0  0
   -6.9410   19.0180  -32.6570 C   0  0  0  0  0  0  0  0  0  0  0  0
   -7.5760   20.1630  -31.6090 S   0  0  0  0  0  0  0  0  0  0  0  0
   -4.9310   23.0550  -31.0210 N   0  0  0  0  0  0  0  0  0  0  0  0
   -4.0073   24.9087  -25.3438 H   0  0  0  0  0  0  0  0  0  0  0  0
   -4.7973   25.8352  -26.6644 H   0  0  0  0  0  0  0  0  0  0  0  0
   -4.8606   24.0400  -26.6644 H   0  0  0  0  0  0  0  0  0  0  0  0
   -2.1184   25.0723  -25.2870 H   0  0  0  0  0  0  0  0  0  0  0  0
   -1.0417   24.3960  -26.5558 H   0  0  0  0  0  0  0  0  0  0  0  0
   -1.4400   26.1476  -26.5558 H   0  0  0  0  0  0  0  0  0  0  0  0
   -2.1062   22.9944  -27.5150 H   0  0  0  0  0  0  0  0  0  0  0  0
   -3.8568   23.1710  -28.0292 H   0  0  0  0  0  0  0  0  0  0  0  0
   -1.4453   24.3548  -29.4777 H   0  0  0  0  0  0  0  0  0  0  0  0
   -2.3834   22.8998  -29.9789 H   0  0  0  0  0  0  0  0  0  0  0  0
   -3.0920   25.6680  -30.4670 H   0  0  0  0  0  0  0  0  0  0  0  0
   -5.7008   26.0802  -29.7313 H   0  0  0  0  0  0  0  0  0  0  0  0
   -8.2975   23.0755  -31.2912 H   0  0  0  0  0  0  0  0  0  0  0  0
   -4.1277   19.1395  -34.5859 H   0  0  0  0  0  0  0  0  0  0  0  0
   -4.9666   16.8483  -35.1830 H   0  0  0  0  0  0  0  0  0  0  0  0
   -7.0711   15.9669  -34.1531 H   0  0  0  0  0  0  0  0  0  0  0  0
   -8.3579   17.3765  -32.5087 H   0  0  0  0  0  0  0  0  0  0  0  0
  1  2  1  0
  2  3  1  0
  2  4  1  0
  4  5  1  0
  5  6  1  0
  6  7  1  0
  7  8  2  0
  8  9  1  0
  9 10  2  0
 10 11  1  0
 11 12  1  0
 12 13  2  0
 13 14  1  0
 14 15  2  0
 15 16  1  0
 16 17  2  0
 17 18  1  0
 18 19  2  0
 19 20  1  0
 11 21  2  0
 21  7  1  0
 20 12  1  0
 19 14  1  0
  1 22  1  0
  1 23  1  0
  1 24  1  0
  3 25  1  0
  3 26  1  0
  3 27  1  0
  4 28  1  0
  4 29  1  0
  5 30  1  0
  5 31  1  0
  6 32  1  0
  8 33  1  0
 10 34  1  0
 15 35  1  0
 16 36  1  0
 17 37  1  0
 18 38  1  0
M  END
>  <UniqueID>  (19) 
19

>  <SMILES>  (19) 
CN(C)CCNc1cncc(-c2nc3ccccc3s2)n1

>  <Energy>  (19) 
74.87971064073902

>  <Genealogy>  (19) 
CN(C)CCNc1cncc(-c2nc3ccccc3s2)n1 (3D coordinates assigned)
CN(C)CCNc1cncc(-c2nc3ccccc3s2)n1 (optimized conformer: 74.87971064073902 kcal/mol)

>  <smiles>  (19) 
CN(C)CCNc1cncc(-c2nc3ccccc3s2)n1

>  <score_type>  (19) 
oracle

>  <origin>  (19) 
adg

>  <m_score__min__energy>  (19) 
-7.4000000000000004

>  <m_primary>  (19) 
energy

$$$$
19:0
     RDKit          3D

 36 37  0  0  0  0  0  0  0  0999 V2000
   -5.8010   18.4910  -34.2610 C   0  0  0  0  0  0  0  0  0  0  0  0
   -5.7030   19.8710  -34.0680 O   0  0  0  0  0  0  0  0  0  0  0  0
   -5.6740   20.1620  -32.7060 C   0  0  0  0  0  0  0  0  0  0  0  0
   -6.7560   21.1060  -32.3440 C   0  0  0  0  0  0  0  0  0  0  0  0
   -6.5060   22.4450  -32.0660 C   0  0  0  0  0  0  0  0  0  0  0  0
   -5.1130   22.9960  -32.1510 C   0  0  0  0  0  0  0  0  0  0  0  0
   -5.0810   24.1380  -31.2430 N   0  0  0  0  0  0  0  0  0  0  0  0
   -4.3300   24.1120  -30.1890 C   0  0  0  0  0  0  0  0  0  0  0  0
   -4.6710   23.1770  -29.2600 N   0  0  0  0  0  0  0  0  0  0  0  0
   -3.9230   23.0970  -28.1300 C   0  0  0  0  0  0  0  0  0  0  0  0
   -2.8360   23.9390  -27.9130 C   0  0  0  0  0  0  0  0  0  0  0  0
   -2.5670   24.8500  -28.9060 C   0  0  0  0  0  0  0  0  0  0  0  0
   -3.2950   24.9470  -30.0330 N   0  0  0  0  0  0  0  0  0  0  0  0
   -7.5750   23.2730  -31.7200 C   0  0  0  0  0  0  0  0  0  0  0  0
   -8.8560   22.7600  -31.6590 C   0  0  0  0  0  0  0  0  0  0  0  0
   -9.1000   21.4410  -31.9330 C   0  0  0  0  0  0  0  0  0  0  0  0
   -8.0470   20.5970  -32.2800 C   0  0  0  0  0  0  0  0  0  0  0  0
   -8.3090   19.2550  -32.5590 O   0  0  0  0  0  0  0  0  0  0  0  0
   -8.9710   18.4780  -31.6100 C   0  0  0  0  0  0  0  0  0  0  0  0
   -5.8369   17.9858  -33.2845 H   0  0  0  0  0  0  0  0  0  0  0  0
   -6.7175   18.2638  -34.8252 H   0  0  0  0  0  0  0  0  0  0  0  0
   -4.9258   18.1366  -34.8252 H   0  0  0  0  0  0  0  0  0  0  0  0
   -5.8033   19.2302  -32.1358 H   0  0  0  0  0  0  0  0  0  0  0  0
   -4.7067   20.6278  -32.4667 H   0  0  0  0  0  0  0  0  0  0  0  0
   -4.3811   22.2370  -31.8377 H   0  0  0  0  0  0  0  0  0  0  0  0
   -4.8557   23.2892  -33.1795 H   0  0  0  0  0  0  0  0  0  0  0  0
   -4.1823   22.3483  -27.3670 H   0  0  0  0  0  0  0  0  0  0  0  0
   -2.2271   23.8786  -26.9989 H   0  0  0  0  0  0  0  0  0  0  0  0
   -1.7151   25.5330  -28.7728 H   0  0  0  0  0  0  0  0  0  0  0  0
   -3.0490   25.6710  -30.7710 H   0  0  0  0  0  0  0  0  0  0  0  0
   -7.3972   24.3351  -31.4957 H   0  0  0  0  0  0  0  0  0  0  0  0
   -9.6921   23.4207  -31.3864 H   0  0  0  0  0  0  0  0  0  0  0  0
  -10.1260   21.0480  -31.8793 H   0  0  0  0  0  0  0  0  0  0  0  0
   -8.6872   18.8111  -30.6008 H   0  0  0  0  0  0  0  0  0  0  0  0
  -10.0578   18.5873  -31.7401 H   0  0  0  0  0  0  0  0  0  0  0  0
   -8.6905   17.4224  -31.7401 H   0  0  0  0  0  0  0  0  0  0  0  0
  1  2  1  0
  2  3  1  0
  3  4  1  0
  4  5  2  0
  5  6  1  0
  6  7  1  0
  7  8  2  3
  8  9  1  0
  9 10  2  0
 10 11  1  0
 11 12  2  0
 12 13  1  0
  5 14  1  0
 14 15  2  0
 15 16  1  0
 16 17  2  0
 17 18  1  0
 18 19  1  0
 17  4  1  0
 13  8  1  0
  1 20  1  0
  1 21  1  0
  1 22  1  0
  3 23  1  0
  3 24  1  0
  6 25  1  0
  6 26  1  0
 10 27  1  0
 11 28  1  0
 12 29  1  0
 13 30  1  0
 14 31  1  0
 15 32  1  0
 16 33  1  0
 19 34  1  0
 19 35  1  0
 19 36  1  0
M  END
>  <smiles>  (20) 
COCc1c(CN=c2nccc[nH]2)cccc1OC

>  <score_type>  (20) 
oracle

>  <origin>  (20) 
adg

>  <m_score__min__energy>  (20) 
-6.6799999999999997

>  <m_primary>  (20) 
energy

$$$$
20:0
     RDKit          3D

 54 57  0  0  0  0  0  0  0  0999 V2000
   -4.0900   24.9210  -26.4080 C   0  0  0  0  0  0  0  0  0  0  0  0
   -2.7890   25.6280  -26.0370 C   0  0  0  0  0  0  0  0  0  0  0  0
   -1.6590   24.6770  -26.0410 N   0  0  0  0  0  0  0  0  0  0  0  0
   -0.4130   25.2810  -25.5360 C   0  0  0  0  0  0  0  0  0  0  0  0
   -1.4760   23.9910  -27.3430 C   0  0  0  0  0  0  0  0  0  0  0  0
   -1.0390   24.9090  -28.5060 C   0  0  0  0  0  0  0  0  0  0  0  0
   -2.1400   25.3010  -29.3250 O   0  0  0  0  0  0  0  0  0  0  0  0
   -3.1960   24.4680  -29.7300 C   0  0  0  0  0  0  0  0  0  0  0  0
   -4.4010   25.0710  -30.1080 C   0  0  0  0  0  0  0  0  0  0  0  0
   -5.4890   24.2940  -30.5140 C   0  0  0  0  0  0  0  0  0  0  0  0
   -5.3830   22.8950  -30.5630 C   0  0  0  0  0  0  0  0  0  0  0  0
   -6.5100   22.1000  -30.9670 N   0  0  0  0  0  0  0  0  0  0  0  0
   -7.8110   22.3240  -30.6550 C   0  0  0  0  0  0  0  0  0  0  0  0
   -8.6530   21.3910  -31.1670 N   0  0  0  0  0  0  0  0  0  0  0  0
   -7.8260   20.5590  -31.8280 C   0  0  0  0  0  0  0  0  0  0  0  0
   -8.1720   19.4270  -32.5710 C   0  0  0  0  0  0  0  0  0  0  0  0
   -9.6010   18.9930  -32.7130 C   0  0  0  0  0  0  0  0  0  0  0  0
   -7.1320   18.7470  -33.2410 C   0  0  0  0  0  0  0  0  0  0  0  0
   -5.7850   19.1930  -33.1490 C   0  0  0  0  0  0  0  0  0  0  0  0
   -4.7350   18.4930  -33.8480 N   0  0  0  0  0  0  0  0  0  0  0  0
   -3.4260   18.4500  -33.5180 C   0  0  0  0  0  0  0  0  0  0  0  0
   -2.7680   17.6730  -34.4490 C   0  0  0  0  0  0  0  0  0  0  0  0
   -3.6640   17.2380  -35.3520 N   0  0  0  0  0  0  0  0  0  0  0  0
   -4.8490   17.7470  -34.9680 C   0  0  0  0  0  0  0  0  0  0  0  0
   -5.4870   20.3380  -32.3750 C   0  0  0  0  0  0  0  0  0  0  0  0
   -6.5340   20.9820  -31.7150 C   0  0  0  0  0  0  0  0  0  0  0  0
   -4.1800   22.2870  -30.1740 C   0  0  0  0  0  0  0  0  0  0  0  0
   -3.0920   23.0640  -29.7660 C   0  0  0  0  0  0  0  0  0  0  0  0
   -4.6240   24.6308  -25.4911 H   0  0  0  0  0  0  0  0  0  0  0  0
   -4.7206   25.6005  -27.0001 H   0  0  0  0  0  0  0  0  0  0  0  0
   -3.8629   24.0222  -27.0001 H   0  0  0  0  0  0  0  0  0  0  0  0
   -2.5913   26.4269  -26.7668 H   0  0  0  0  0  0  0  0  0  0  0  0
   -2.8918   26.0511  -25.0268 H   0  0  0  0  0  0  0  0  0  0  0  0
   -0.4228   25.2763  -24.4361 H   0  0  0  0  0  0  0  0  0  0  0  0
    0.4486   24.7006  -25.8975 H   0  0  0  0  0  0  0  0  0  0  0  0
   -0.3349   26.3170  -25.8975 H   0  0  0  0  0  0  0  0  0  0  0  0
   -0.7087   23.2133  -27.2146 H   0  0  0  0  0  0  0  0  0  0  0  0
   -2.4614   23.5887  -27.6210 H   0  0  0  0  0  0  0  0  0  0  0  0
   -0.5693   25.8115  -28.0879 H   0  0  0  0  0  0  0  0  0  0  0  0
   -0.3336   24.3458  -29.1346 H   0  0  0  0  0  0  0  0  0  0  0  0
   -4.4925   26.1670  -30.0853 H   0  0  0  0  0  0  0  0  0  0  0  0
   -6.4338   24.7812  -30.7968 H   0  0  0  0  0  0  0  0  0  0  0  0
   -8.1496   23.1765  -30.0478 H   0  0  0  0  0  0  0  0  0  0  0  0
  -10.0442   18.8584  -31.7153 H   0  0  0  0  0  0  0  0  0  0  0  0
  -10.1643   19.7606  -33.2639 H   0  0  0  0  0  0  0  0  0  0  0  0
   -9.6423   18.0418  -33.2639 H   0  0  0  0  0  0  0  0  0  0  0  0
   -7.3675   17.8577  -33.8440 H   0  0  0  0  0  0  0  0  0  0  0  0
   -2.9633   18.9495  -32.6540 H   0  0  0  0  0  0  0  0  0  0  0  0
   -1.6914   17.4474  -34.4520 H   0  0  0  0  0  0  0  0  0  0  0  0
   -3.4770   16.6340  -36.1830 H   0  0  0  0  0  0  0  0  0  0  0  0
   -5.7956   17.5762  -35.5016 H   0  0  0  0  0  0  0  0  0  0  0  0
   -4.4555   20.7117  -32.2952 H   0  0  0  0  0  0  0  0  0  0  0  0
   -4.0923   21.1906  -30.1902 H   0  0  0  0  0  0  0  0  0  0  0  0
   -2.1507   22.5768  -29.4718 H   0  0  0  0  0  0  0  0  0  0  0  0
  1  2  1  0
  2  3  1  0
  3  4  1  0
  3  5  1  0
  5  6  1  0
  6  7  1  0
  7  8  1  0
  8  9  2  0
  9 10  1  0
 10 11  2  0
 11 12  1  0
 12 13  1  0
 13 14  2  0
 14 15  1  0
 15 16  2  0
 16 17  1  0
 16 18  1  0
 18 19  2  0
 19 20  1  0
 20 21  1  0
 21 22  2  0
 22 23  1  0
 23 24  2  0
 19 25  1  0
 25 26  2  0
 11 27  1  0
 27 28  2  0
 28  8  1  0
 26 12  1  0
 26 15  1  0
 24 20  1  0
  1 29  1  0
  1 30  1  0
  1 31  1  0
  2 32  1  0
  2 33  1  0
  4 34  1  0
  4 35  1  0
  4 36  1  0
  5 37  1  0
  5 38  1  0
  6 39  1  0
  6 40  1  0
  9 41  1  0
 10 42  1  0
 13 43  1  0
 17 44  1  0
 17 45  1  0
 17 46  1  0
 18 47  1  0
 21 48  1  0
 22 49  1  0
 23 50  1  0
 24 51  1  0
 25 52  1  0
 27 53  1  0
 28 54  1  0
M  CHG  1  23   1
M  END
>  <UniqueID>  (21) 
20

>  <SMILES>  (21) 
CCN(C)CCOc1ccc(-n2cnc3c(C)cc(-n4cc[nH+]c4)cc32)cc1

>  <Energy>  (21) 
134.1835405993786

>  <Genealogy>  (21) 
CCN(C)CCOc1ccc(-n2cnc3c(C)cc(-n4cc[nH+]c4)cc32)cc1 (protonated)
CCN(C)CCOc1ccc(-n2cnc3c(C)cc(-n4cc[nH+]c4)cc32)cc1 (3D coordinates assigned)
CCN(C)CCOc1ccc(-n2cnc3c(C)cc(-n4cc[nH+]c4)cc32)cc1 (optimized conformer: 134.1835405993786 kcal/mol)

>  <smiles>  (21) 
CCN(C)CCOc1ccc(-n2cnc3c(C)cc(-n4ccnc4)cc32)cc1

>  <score_type>  (21) 
oracle

>  <origin>  (21) 
adg

>  <m_score__min__energy>  (21) 
-8.25

>  <m_primary>  (21) 
energy

$$$$
21:0
     RDKit          3D

 54 56  0  0  0  0  0  0  0  0999 V2000
   -4.3810   17.3466  -34.7892 H   0  0  0  0  0  0  0  0  0  0  0  0
   -4.7380   18.2370  -34.2510 C   0  0  0  0  0  0  0  0  0  0  0  0
   -3.8240   19.0800  -33.6130 C   0  0  0  0  0  0  0  0  0  0  0  0
   -2.7483   18.8534  -33.6508 H   0  0  0  0  0  0  0  0  0  0  0  0
   -4.2750   20.2090  -32.9280 C   0  0  0  0  0  0  0  0  0  0  0  0
   -3.5537   20.8687  -32.4234 H   0  0  0  0  0  0  0  0  0  0  0  0
   -5.6440   20.5050  -32.8810 C   0  0  0  0  0  0  0  0  0  0  0  0
   -6.0950   21.6670  -32.1760 N   0  0  0  0  0  0  0  0  0  0  0  0
   -5.3680   22.9290  -32.3150 C   0  0  0  0  0  0  0  0  0  0  0  0
   -4.4945   22.9220  -31.6465 H   0  0  0  0  0  0  0  0  0  0  0  0
   -5.0378   23.0431  -33.3580 H   0  0  0  0  0  0  0  0  0  0  0  0
   -6.2830   24.1040  -31.9440 C   0  0  0  0  0  0  0  0  0  0  0  0
   -5.6883   25.0291  -31.9649 H   0  0  0  0  0  0  0  0  0  0  0  0
   -7.1035   24.1205  -32.6765 H   0  0  0  0  0  0  0  0  0  0  0  0
   -6.9000   23.9700  -30.5960 N   0  0  0  0  0  0  0  0  0  0  0  0
   -6.2270   24.8140  -29.5890 C   0  0  0  0  0  0  0  0  0  0  0  0
   -6.9675   25.4802  -29.1223 H   0  0  0  0  0  0  0  0  0  0  0  0
   -5.7690   24.1635  -28.8293 H   0  0  0  0  0  0  0  0  0  0  0  0
   -5.1540   25.6410  -30.2280 C   0  0  0  0  0  0  0  0  0  0  0  0
   -5.3720   26.8580  -30.4710 O   0  0  0  0  0  0  0  0  0  0  0  0
   -3.9000   25.0270  -30.5680 N   0  0  0  0  0  0  0  0  0  0  0  0
   -3.0370   24.5360  -29.7290 C   0  0  0  0  0  0  0  0  0  0  0  0
   -2.0850   25.2600  -29.1010 N   0  0  0  0  0  0  0  0  0  0  0  0
   -1.3200   24.4870  -28.2840 C   0  0  0  0  0  0  0  0  0  0  0  0
   -0.2060   25.0840  -27.4840 C   0  0  0  0  0  0  0  0  0  0  0  0
   -0.4218   24.9683  -26.4116 H   0  0  0  0  0  0  0  0  0  0  0  0
    0.7358   24.5697  -27.7260 H   0  0  0  0  0  0  0  0  0  0  0  0
   -0.1127   26.1530  -27.7260 H   0  0  0  0  0  0  0  0  0  0  0  0
   -1.6730   23.1280  -28.2640 C   0  0  0  0  0  0  0  0  0  0  0  0
   -1.0510   22.0370  -27.4910 C   0  0  0  0  0  0  0  0  0  0  0  0
    0.1920   21.8350  -27.5510 O   0  0  0  0  0  0  0  0  0  0  0  0
   -1.8590   21.2260  -26.6870 O   0  0  0  0  0  0  0  0  0  0  0  0
   -2.1040   19.8570  -26.9800 C   0  0  0  0  0  0  0  0  0  0  0  0
   -2.2049   19.2934  -26.0408 H   0  0  0  0  0  0  0  0  0  0  0  0
   -3.0325   19.7673  -27.5630 H   0  0  0  0  0  0  0  0  0  0  0  0
   -1.2643   19.4508  -27.5630 H   0  0  0  0  0  0  0  0  0  0  0  0
   -2.9790   22.9130  -29.3070 S   0  0  0  0  0  0  0  0  0  0  0  0
   -7.0220   22.5750  -30.1050 C   0  0  0  0  0  0  0  0  0  0  0  0
   -6.1071   22.3148  -29.5525 H   0  0  0  0  0  0  0  0  0  0  0  0
   -7.9129   22.5253  -29.4617 H   0  0  0  0  0  0  0  0  0  0  0  0
   -7.2130   21.5660  -31.2390 C   0  0  0  0  0  0  0  0  0  0  0  0
   -7.2509   20.5488  -30.8220 H   0  0  0  0  0  0  0  0  0  0  0  0
   -8.1537   21.7818  -31.7667 H   0  0  0  0  0  0  0  0  0  0  0  0
   -6.5710   19.6620  -33.5180 C   0  0  0  0  0  0  0  0  0  0  0  0
   -7.9350   19.9840  -33.4410 O   0  0  0  0  0  0  0  0  0  0  0  0
   -8.8990   19.2510  -32.6910 C   0  0  0  0  0  0  0  0  0  0  0  0
   -9.4918   18.6214  -33.3708 H   0  0  0  0  0  0  0  0  0  0  0  0
   -9.5663   19.9504  -32.1661 H   0  0  0  0  0  0  0  0  0  0  0  0
   -8.1850   18.3710  -31.6770 C   0  0  0  0  0  0  0  0  0  0  0  0
   -8.4486   18.6958  -30.6596 H   0  0  0  0  0  0  0  0  0  0  0  0
   -8.4924   17.3244  -31.8189 H   0  0  0  0  0  0  0  0  0  0  0  0
   -7.0975   18.4562  -31.8189 H   0  0  0  0  0  0  0  0  0  0  0  0
   -6.1060   18.5240  -34.2060 C   0  0  0  0  0  0  0  0  0  0  0  0
   -6.8221   17.8582  -34.7100 H   0  0  0  0  0  0  0  0  0  0  0  0
  1  2  1  0
  2  3  2  0
  3  4  1  0
  3  5  1  0
  5  6  1  0
  5  7  2  0
  7  8  1  0
  8  9  1  0
  9 10  1  0
  9 11  1  0
  9 12  1  0
 12 13  1  0
 12 14  1  0
 12 15  1  0
 15 16  1  0
 16 17  1  0
 16 18  1  0
 16 19  1  0
 19 20  2  0
 19 21  1  0
 21 22  2  0
 22 23  1  0
 23 24  1  0
 24 25  1  0
 25 26  1  0
 25 27  1  0
 25 28  1  0
 24 29  2  0
 29 30  1  0
 30 31  2  0
 30 32  1  0
 32 33  1  0
 33 34  1  0
 33 35  1  0
 33 36  1  0
 29 37  1  0
 15 38  1  0
 38 39  1  0
 38 40  1  0
 38 41  1  0
 41 42  1  0
 41 43  1  0
  7 44  1  0
 44 45  1  0
 45 46  1  0
 46 47  1  0
 46 48  1  0
 46 49  1  0
 49 50  1  0
 49 51  1  0
 49 52  1  0
 44 53  2  0
 53 54  1  0
 53  2  1  0
 41  8  1  0
 37 22  1  0
M  CHG  1  23  -1
M  END
>  <UniqueID>  (22) 
21

>  <SMILES>  (22) 
CCOc1ccccc1N1CCN(CC(=O)/N=c2\[n-]c(C)c(C(=O)OC)s2)CC1

>  <Energy>  (22) 
92.23417485155002

>  <Genealogy>  (22) 
CCOc1ccccc1N1CCN(CC(=O)N=c2[n-]c(C)c(C(=O)OC)s2)CC1 (protonated)
CCOc1ccccc1N1CCN(CC(=O)/N=c2\[n-]c(C)c(C(=O)OC)s2)CC1 (cis-trans isomerization)
CCOc1ccccc1N1CCN(CC(=O)/N=c2\[n-]c(C)c(C(=O)OC)s2)CC1 (3D coordinates assigned)
CCOc1ccccc1N1CCN(CC(=O)/N=c2\[n-]c(C)c(C(=O)OC)s2)CC1 (nonaromatic ring conformer: 92.23417485155002 kcal/mol)

>  <smiles>  (22) 
CCOc1ccccc1N1CCN(CC(=O)N=c2[nH]c(C)c(C(=O)OC)s2)CC1

>  <score_type>  (22) 
oracle

>  <origin>  (22) 
adg

>  <m_score__min__energy>  (22) 
-10.4

>  <m_primary>  (22) 
energy

$$$$
22:0
     RDKit          3D

 55 57  0  0  0  0  0  0  0  0999 V2000
   -3.4770   21.6570  -27.8780 C   0  0  0  0  0  0  0  0  0  0  0  0
   -4.5350   22.5100  -28.5640 C   0  0  0  0  0  0  0  0  0  0  0  0
   -3.9990   23.8450  -28.8710 N   0  0  0  0  0  0  0  0  0  0  0  0
   -3.1570   24.5320  -27.8880 C   0  0  0  0  0  0  0  0  0  0  0  0
   -4.3510   24.5370  -30.0880 C   0  0  0  0  0  0  0  0  0  0  0  0
   -3.5080   25.2920  -30.6440 O   0  0  0  0  0  0  0  0  0  0  0  0
   -5.7000   24.3720  -30.7270 C   0  0  0  0  0  0  0  0  0  0  0  0
   -5.5570   23.6020  -31.9170 O   0  0  0  0  0  0  0  0  0  0  0  0
   -6.1610   22.3590  -32.1540 C   0  0  0  0  0  0  0  0  0  0  0  0
   -7.5630   22.2110  -32.1490 C   0  0  0  0  0  0  0  0  0  0  0  0
   -8.1430   20.9550  -32.3450 C   0  0  0  0  0  0  0  0  0  0  0  0
   -7.3360   19.8350  -32.5390 C   0  0  0  0  0  0  0  0  0  0  0  0
   -5.9470   19.9670  -32.5490 C   0  0  0  0  0  0  0  0  0  0  0  0
   -5.3460   21.2260  -32.3760 C   0  0  0  0  0  0  0  0  0  0  0  0
   -3.8660   21.3120  -32.3850 C   0  0  0  0  0  0  0  0  0  0  0  0
   -3.0950   21.3790  -33.4930 N   0  0  0  0  0  0  0  0  0  0  0  0
   -1.8340   21.4320  -33.0310 C   0  0  0  0  0  0  0  0  0  0  0  0
   -0.6790   21.5650  -33.8780 C   0  0  0  0  0  0  0  0  0  0  0  0
    0.2520   21.6690  -34.5580 N   0  0  0  0  0  0  0  0  0  0  0  0
   -1.8810   21.3860  -31.6470 C   0  0  0  0  0  0  0  0  0  0  0  0
   -0.7800   21.4050  -30.7170 N   0  0  0  0  0  0  0  0  0  0  0  0
   -0.4620   22.6750  -30.0430 C   0  0  0  0  0  0  0  0  0  0  0  0
   -0.6070   22.5790  -28.5080 C   0  0  0  0  0  0  0  0  0  0  0  0
    0.2770   21.5140  -27.8380 C   0  0  0  0  0  0  0  0  0  0  0  0
   -0.3720   20.1230  -27.7390 C   0  0  0  0  0  0  0  0  0  0  0  0
   -0.7730   19.4770  -29.0810 C   0  0  0  0  0  0  0  0  0  0  0  0
   -0.1320   20.1390  -30.3160 C   0  0  0  0  0  0  0  0  0  0  0  0
   -3.1410   21.3140  -31.2850 O   0  0  0  0  0  0  0  0  0  0  0  0
   -3.5860   21.7449  -26.7869 H   0  0  0  0  0  0  0  0  0  0  0  0
   -3.6040   20.6057  -28.1757 H   0  0  0  0  0  0  0  0  0  0  0  0
   -2.4765   22.0041  -28.1757 H   0  0  0  0  0  0  0  0  0  0  0  0
   -4.8449   22.0203  -29.4990 H   0  0  0  0  0  0  0  0  0  0  0  0
   -5.3973   22.6186  -27.8898 H   0  0  0  0  0  0  0  0  0  0  0  0
   -3.4854   24.2641  -26.8729 H   0  0  0  0  0  0  0  0  0  0  0  0
   -2.1090   24.2279  -28.0266 H   0  0  0  0  0  0  0  0  0  0  0  0
   -3.2446   25.6197  -28.0266 H   0  0  0  0  0  0  0  0  0  0  0  0
   -6.3769   23.8543  -30.0315 H   0  0  0  0  0  0  0  0  0  0  0  0
   -6.1197   25.3592  -30.9706 H   0  0  0  0  0  0  0  0  0  0  0  0
   -8.2046   23.0902  -31.9897 H   0  0  0  0  0  0  0  0  0  0  0  0
   -9.2380   20.8498  -32.3462 H   0  0  0  0  0  0  0  0  0  0  0  0
   -7.7948   18.8459  -32.6844 H   0  0  0  0  0  0  0  0  0  0  0  0
   -5.3163   19.0775  -32.6936 H   0  0  0  0  0  0  0  0  0  0  0  0
   -3.3880   21.3570  -34.4950 H   0  0  0  0  0  0  0  0  0  0  0  0
    0.5749   22.9526  -30.2833 H   0  0  0  0  0  0  0  0  0  0  0  0
   -1.1750   23.4324  -30.4007 H   0  0  0  0  0  0  0  0  0  0  0  0
   -0.3471   23.5578  -28.0786 H   0  0  0  0  0  0  0  0  0  0  0  0
   -1.6481   22.2806  -28.3152 H   0  0  0  0  0  0  0  0  0  0  0  0
    1.2051   21.4203  -28.4210 H   0  0  0  0  0  0  0  0  0  0  0  0
    0.4522   21.8538  -26.8066 H   0  0  0  0  0  0  0  0  0  0  0  0
    0.3421   19.4512  -27.2402 H   0  0  0  0  0  0  0  0  0  0  0  0
   -1.3100   20.2678  -27.1829 H   0  0  0  0  0  0  0  0  0  0  0  0
   -0.4696   18.4199  -29.0595 H   0  0  0  0  0  0  0  0  0  0  0  0
   -1.8608   19.6056  -29.1817 H   0  0  0  0  0  0  0  0  0  0  0  0
    0.9242   20.3465  -30.0894 H   0  0  0  0  0  0  0  0  0  0  0  0
   -0.2524   19.4375  -31.1546 H   0  0  0  0  0  0  0  0  0  0  0  0
  1  2  1  0
  2  3  1  0
  3  4  1  0
  3  5  1  0
  5  6  2  0
  5  7  1  0
  7  8  1  0
  8  9  1  0
  9 10  2  0
 10 11  1  0
 11 12  2  0
 12 13  1  0
 13 14  2  0
 14 15  1  0
 15 16  2  0
 16 17  1  0
 17 18  1  0
 18 19  3  0
 17 20  2  0
 20 21  1  0
 21 22  1  0
 22 23  1  0
 23 24  1  0
 24 25  1  0
 25 26  1  0
 26 27  1  0
 20 28  1  0
 14  9  1  0
 28 15  1  0
 27 21  1  0
  1 29  1  0
  1 30  1  0
  1 31  1  0
  2 32  1  0
  2 33  1  0
  4 34  1  0
  4 35  1  0
  4 36  1  0
  7 37  1  0
  7 38  1  0
 10 39  1  0
 11 40  1  0
 12 41  1  0
 13 42  1  0
 16 43  1  0
 22 44  1  0
 22 45  1  0
 23 46  1  0
 23 47  1  0
 24 48  1  0
 24 49  1  0
 25 50  1  0
 25 51  1  0
 26 52  1  0
 26 53  1  0
 27 54  1  0
 27 55  1  0
M  CHG  1  16   1
M  END
>  <UniqueID>  (23) 
22

>  <SMILES>  (23) 
CCN(C)C(=O)COc1ccccc1-c1[nH+]c(C#N)c(N2CCCCCC2)o1

>  <Energy>  (23) 
90.88188397476729

>  <Genealogy>  (23) 
CCN(C)C(=O)COc1ccccc1-c1[nH+]c(C#N)c(N2CCCCCC2)o1 (protonated)
CCN(C)C(=O)COc1ccccc1-c1[nH+]c(C#N)c(N2CCCCCC2)o1 (3D coordinates assigned)
CCN(C)C(=O)COc1ccccc1-c1[nH+]c(C#N)c(N2CCCCCC2)o1 (nonaromatic ring conformer: 90.88188397476729 kcal/mol)

>  <smiles>  (23) 
CCN(C)C(=O)COc1ccccc1-c1nc(C#N)c(N2CCCCCC2)o1

>  <score_type>  (23) 
oracle

>  <origin>  (23) 
adg

>  <m_score__min__energy>  (23) 
-5.0999999999999996

>  <m_primary>  (23) 
energy

$$$$
23:0
     RDKit          3D

 50 52  0  0  0  0  0  0  0  0999 V2000
   -5.7360   25.9400  -30.4840 C   0  0  0  0  0  0  0  0  0  0  0  0
   -4.9410   24.6500  -30.6120 C   0  0  0  0  0  0  0  0  0  0  0  0
   -3.5540   24.9270  -30.4520 O   0  0  0  0  0  0  0  0  0  0  0  0
   -2.7120   24.1300  -29.6710 C   0  0  0  0  0  0  0  0  0  0  0  0
   -2.6170   24.3240  -28.4270 O   0  0  0  0  0  0  0  0  0  0  0  0
   -1.9450   23.0080  -30.3210 C   0  0  1  0  0  0  0  0  0  0  0  0
   -0.7990   22.5450  -29.3810 C   0  0  0  0  0  0  0  0  0  0  0  0
   -0.3670   21.1410  -29.5950 N   0  0  0  0  0  0  0  0  0  0  0  0
   -1.3390   20.2000  -29.0170 C   0  0  0  0  0  0  0  0  0  0  0  0
    0.0060   20.7650  -30.9780 C   0  0  0  0  0  0  0  0  0  0  0  0
   -0.9100   21.3480  -32.0790 C   0  0  0  0  0  0  0  0  0  0  0  0
   -2.3520   21.0750  -31.8720 N   0  0  0  0  0  0  0  0  0  0  0  0
   -3.1140   21.3050  -33.1180 C   0  0  0  0  0  0  0  0  0  0  0  0
   -4.5660   20.9430  -32.9320 C   0  0  0  0  0  0  0  0  0  0  0  0
   -5.0170   19.6630  -33.2880 C   0  0  0  0  0  0  0  0  0  0  0  0
   -6.3650   19.3230  -33.1520 C   0  0  0  0  0  0  0  0  0  0  0  0
   -7.2830   20.2630  -32.6640 C   0  0  0  0  0  0  0  0  0  0  0  0
   -8.6410   19.9340  -32.5300 C   0  0  0  0  0  0  0  0  0  0  0  0
   -9.5480   20.8830  -32.0490 C   0  0  0  0  0  0  0  0  0  0  0  0
   -9.1090   22.1610  -31.6970 C   0  0  0  0  0  0  0  0  0  0  0  0
   -7.7590   22.5020  -31.8260 C   0  0  0  0  0  0  0  0  0  0  0  0
   -6.8370   21.5590  -32.3080 C   0  0  0  0  0  0  0  0  0  0  0  0
   -5.4800   21.8900  -32.4450 C   0  0  0  0  0  0  0  0  0  0  0  0
   -2.9110   21.8620  -30.7480 C   0  0  0  0  0  0  0  0  0  0  0  0
   -5.8819   26.1767  -29.4197 H   0  0  0  0  0  0  0  0  0  0  0  0
   -5.1860   26.7594  -30.9698 H   0  0  0  0  0  0  0  0  0  0  0  0
   -6.7152   25.8170  -30.9698 H   0  0  0  0  0  0  0  0  0  0  0  0
   -5.2650   23.9415  -29.8354 H   0  0  0  0  0  0  0  0  0  0  0  0
   -5.1140   24.2109  -31.6056 H   0  0  0  0  0  0  0  0  0  0  0  0
   -1.4695   23.3592  -31.2487 H   0  0  0  0  0  0  0  0  0  0  0  0
    0.0682   23.2016  -29.5447 H   0  0  0  0  0  0  0  0  0  0  0  0
   -1.1892   22.6029  -28.3542 H   0  0  0  0  0  0  0  0  0  0  0  0
   -1.2885   20.2489  -27.9192 H   0  0  0  0  0  0  0  0  0  0  0  0
   -2.3523   20.4691  -29.3498 H   0  0  0  0  0  0  0  0  0  0  0  0
   -1.1029   19.1785  -29.3498 H   0  0  0  0  0  0  0  0  0  0  0  0
    1.0312   21.1179  -31.1637 H   0  0  0  0  0  0  0  0  0  0  0  0
   -0.0948   19.6713  -31.0390 H   0  0  0  0  0  0  0  0  0  0  0  0
   -0.7652   22.4380  -32.1078 H   0  0  0  0  0  0  0  0  0  0  0  0
   -0.6258   20.8573  -33.0216 H   0  0  0  0  0  0  0  0  0  0  0  0
   -3.0397   22.3668  -33.3954 H   0  0  0  0  0  0  0  0  0  0  0  0
   -2.6915   20.6715  -33.9118 H   0  0  0  0  0  0  0  0  0  0  0  0
   -4.3036   18.9216  -33.6772 H   0  0  0  0  0  0  0  0  0  0  0  0
   -6.7070   18.3148  -33.4286 H   0  0  0  0  0  0  0  0  0  0  0  0
   -8.9920   18.9281  -32.8038 H   0  0  0  0  0  0  0  0  0  0  0  0
  -10.6117   20.6219  -31.9474 H   0  0  0  0  0  0  0  0  0  0  0  0
   -9.8276   22.9020  -31.3169 H   0  0  0  0  0  0  0  0  0  0  0  0
   -7.4187   23.5108  -31.5494 H   0  0  0  0  0  0  0  0  0  0  0  0
   -5.1313   22.8962  -32.1694 H   0  0  0  0  0  0  0  0  0  0  0  0
   -3.8704   22.3002  -31.0601 H   0  0  0  0  0  0  0  0  0  0  0  0
   -3.0506   21.1887  -29.8894 H   0  0  0  0  0  0  0  0  0  0  0  0
  1  2  1  0
  2  3  1  0
  3  4  1  0
  4  5  2  0
  4  6  1  0
  6  7  1  0
  7  8  1  0
  8  9  1  0
  8 10  1  0
 10 11  1  0
 11 12  1  0
 12 13  1  0
 13 14  1  0
 14 15  2  0
 15 16  1  0
 16 17  2  0
 17 18  1  0
 18 19  2  0
 19 20  1  0
 20 21  2  0
 21 22  1  0
 22 23  2  0
 12 24  1  0
 24  6  1  0
 23 14  1  0
 22 17  1  0
  1 25  1  0
  1 26  1  0
  1 27  1  0
  2 28  1  0
  2 29  1  0
  6 30  1  6
  7 31  1  0
  7 32  1  0
  9 33  1  0
  9 34  1  0
  9 35  1  0
 10 36  1  0
 10 37  1  0
 11 38  1  0
 11 39  1  0
 13 40  1  0
 13 41  1  0
 15 42  1  0
 16 43  1  0
 18 44  1  0
 19 45  1  0
 20 46  1  0
 21 47  1  0
 23 48  1  0
 24 49  1  0
 24 50  1  0
M  END
>  <UniqueID>  (24) 
23

>  <SMILES>  (24) 
CCOC(=O)[C@H]1CN(C)CCN(Cc2ccc3ccccc3c2)C1

>  <Energy>  (24) 
66.12907776510062

>  <Genealogy>  (24) 
CCOC(=O)[C@H]1CN(C)CCN(Cc2ccc3ccccc3c2)C1 (chirality)
CCOC(=O)[C@H]1CN(C)CCN(Cc2ccc3ccccc3c2)C1 (3D coordinates assigned)
CCOC(=O)[C@H]1CN(C)CCN(Cc2ccc3ccccc3c2)C1 (nonaromatic ring conformer: 66.12907776510062 kcal/mol)

>  <smiles>  (24) 
CCOC(=O)C1CN(C)CCN(Cc2ccc3ccccc3c2)C1

>  <score_type>  (24) 
oracle

>  <origin>  (24) 
adg

>  <m_score__min__energy>  (24) 
-6.3399999999999999

>  <m_primary>  (24) 
energy

$$$$
24:0
     RDKit          3D

 52 54  0  0  0  0  0  0  0  0999 V2000
   -6.6340   17.9870  -31.4920 C   0  0  0  0  0  0  0  0  0  0  0  0
   -7.6280   17.9750  -32.6560 C   0  0  0  0  0  0  0  0  0  0  0  0
   -8.3410   19.2530  -32.8070 N   0  0  0  0  0  0  0  0  0  0  0  0
   -8.9820   19.6920  -31.5610 C   0  0  0  0  0  0  0  0  0  0  0  0
   -8.7540   21.1890  -31.3660 C   0  0  0  0  0  0  0  0  0  0  0  0
   -7.6630   21.6550  -32.2190 N   0  0  0  0  0  0  0  0  0  0  0  0
   -6.5720   22.4370  -31.7070 C   0  0  0  0  0  0  0  0  0  0  0  0
   -6.8440   23.6370  -31.0380 C   0  0  0  0  0  0  0  0  0  0  0  0
   -5.8120   24.4420  -30.5420 C   0  0  0  0  0  0  0  0  0  0  0  0
   -6.1590   25.7070  -29.8050 C   0  0  0  0  0  0  0  0  0  0  0  0
   -4.4740   24.0200  -30.6760 C   0  0  0  0  0  0  0  0  0  0  0  0
   -3.4280   24.7730  -30.0470 N   0  0  0  0  0  0  0  0  0  0  0  0
   -2.9820   24.4460  -28.4040 S   0  0  0  0  0  0  0  0  0  0  0  0
   -4.1930   24.6120  -27.5270 O   0  0  0  0  0  0  0  0  0  0  0  0
   -1.9250   25.4160  -27.9530 O   0  0  0  0  0  0  0  0  0  0  0  0
   -2.3730   22.7990  -28.2610 C   0  0  0  0  0  0  0  0  0  0  0  0
   -1.0360   22.5150  -28.5840 C   0  0  0  0  0  0  0  0  0  0  0  0
   -0.5590   21.2040  -28.5120 C   0  0  0  0  0  0  0  0  0  0  0  0
   -1.4120   20.1690  -28.1190 C   0  0  0  0  0  0  0  0  0  0  0  0
   -2.7450   20.4450  -27.7950 C   0  0  0  0  0  0  0  0  0  0  0  0
   -3.2260   21.7570  -27.8660 C   0  0  0  0  0  0  0  0  0  0  0  0
   -4.1750   22.8300  -31.3790 C   0  0  0  0  0  0  0  0  0  0  0  0
   -2.8430   22.4220  -31.5830 C   0  0  0  0  0  0  0  0  0  0  0  0
   -2.5590   21.2260  -32.2430 C   0  0  0  0  0  0  0  0  0  0  0  0
   -3.5930   20.4220  -32.7150 C   0  0  0  0  0  0  0  0  0  0  0  0
   -4.9210   20.8160  -32.5430 C   0  0  0  0  0  0  0  0  0  0  0  0
   -5.2320   22.0280  -31.8900 C   0  0  0  0  0  0  0  0  0  0  0  0
   -7.1845   17.9804  -30.5397 H   0  0  0  0  0  0  0  0  0  0  0  0
   -5.9908   17.0966  -31.5499 H   0  0  0  0  0  0  0  0  0  0  0  0
   -6.0124   18.8927  -31.5499 H   0  0  0  0  0  0  0  0  0  0  0  0
   -7.0785   17.7666  -33.5859 H   0  0  0  0  0  0  0  0  0  0  0  0
   -8.3783   17.1990  -32.4442 H   0  0  0  0  0  0  0  0  0  0  0  0
   -9.0720   19.1540  -33.5500 H   0  0  0  0  0  0  0  0  0  0  0  0
  -10.0620   19.4903  -31.6144 H   0  0  0  0  0  0  0  0  0  0  0  0
   -8.5458   19.1432  -30.7134 H   0  0  0  0  0  0  0  0  0  0  0  0
   -9.6744   21.7324  -31.6260 H   0  0  0  0  0  0  0  0  0  0  0  0
   -8.4885   21.3749  -30.3148 H   0  0  0  0  0  0  0  0  0  0  0  0
   -7.6460   21.3490  -33.2170 H   0  0  0  0  0  0  0  0  0  0  0  0
   -7.8886   23.9528  -30.8997 H   0  0  0  0  0  0  0  0  0  0  0  0
   -6.1092   25.5254  -28.7212 H   0  0  0  0  0  0  0  0  0  0  0  0
   -5.4446   26.4978  -30.0775 H   0  0  0  0  0  0  0  0  0  0  0  0
   -7.1769   26.0226  -30.0775 H   0  0  0  0  0  0  0  0  0  0  0  0
   -3.1170   25.6720  -30.4770 H   0  0  0  0  0  0  0  0  0  0  0  0
   -0.3624   23.3273  -28.8946 H   0  0  0  0  0  0  0  0  0  0  0  0
    0.4891   20.9860  -28.7649 H   0  0  0  0  0  0  0  0  0  0  0  0
   -1.0353   19.1370  -28.0644 H   0  0  0  0  0  0  0  0  0  0  0  0
   -3.4152   19.6300  -27.4843 H   0  0  0  0  0  0  0  0  0  0  0  0
   -4.2744   21.9720  -27.6118 H   0  0  0  0  0  0  0  0  0  0  0  0
   -2.0184   23.0522  -31.2186 H   0  0  0  0  0  0  0  0  0  0  0  0
   -1.5137   20.9170  -32.3910 H   0  0  0  0  0  0  0  0  0  0  0  0
   -3.3630   19.4746  -33.2244 H   0  0  0  0  0  0  0  0  0  0  0  0
   -5.7325   20.1761  -32.9198 H   0  0  0  0  0  0  0  0  0  0  0  0
  1  2  1  0
  2  3  1  0
  3  4  1  0
  4  5  1  0
  5  6  1  0
  6  7  1  0
  7  8  2  0
  8  9  1  0
  9 10  1  0
  9 11  2  0
 11 12  1  0
 12 13  1  0
 13 14  2  0
 13 15  2  0
 13 16  1  0
 16 17  2  0
 17 18  1  0
 18 19  2  0
 19 20  1  0
 20 21  2  0
 11 22  1  0
 22 23  2  0
 23 24  1  0
 24 25  2  0
 25 26  1  0
 26 27  2  0
 27  7  1  0
 21 16  1  0
 27 22  1  0
  1 28  1  0
  1 29  1  0
  1 30  1  0
  2 31  1  0
  2 32  1  0
  3 33  1  0
  4 34  1  0
  4 35  1  0
  5 36  1  0
  5 37  1  0
  6 38  1  0
  8 39  1  0
 10 40  1  0
 10 41  1  0
 10 42  1  0
 12 43  1  0
 17 44  1  0
 18 45  1  0
 19 46  1  0
 20 47  1  0
 21 48  1  0
 23 49  1  0
 24 50  1  0
 25 51  1  0
 26 52  1  0
M  END
>  <UniqueID>  (25) 
24

>  <SMILES>  (25) 
CCNCCNc1cc(C)c(NS(=O)(=O)c2ccccc2)c2ccccc12

>  <Energy>  (25) 
62.684471637093615

>  <Genealogy>  (25) 
CCNCCNc1cc(C)c(NS(=O)(=O)c2ccccc2)c2ccccc12 (3D coordinates assigned)
CCNCCNc1cc(C)c(NS(=O)(=O)c2ccccc2)c2ccccc12 (optimized conformer: 62.684471637093615 kcal/mol)

>  <smiles>  (25) 
CCNCCNc1cc(C)c(NS(=O)(=O)c2ccccc2)c2ccccc12

>  <score_type>  (25) 
oracle

>  <origin>  (25) 
adg

>  <m_score__min__energy>  (25) 
-9.6600000000000001

>  <m_primary>  (25) 
energy

$$$$
25:0
     RDKit          3D

 68 70  0  0  0  0  0  0  0  0999 V2000
    0.6610   22.8280  -27.4240 C   0  0  0  0  0  0  0  0  0  0  0  0
    1.5460   24.0550  -27.6080 C   0  0  0  0  0  0  0  0  0  0  0  0
    0.7660   25.2500  -27.5900 O   0  0  0  0  0  0  0  0  0  0  0  0
    0.1070   25.7890  -26.4690 C   0  0  0  0  0  0  0  0  0  0  0  0
    0.7970   26.5020  -25.4670 C   0  0  0  0  0  0  0  0  0  0  0  0
    0.1160   26.9880  -24.3490 C   0  0  0  0  0  0  0  0  0  0  0  0
   -1.2540   26.7700  -24.2120 C   0  0  0  0  0  0  0  0  0  0  0  0
   -1.9520   26.0680  -25.1960 C   0  0  0  0  0  0  0  0  0  0  0  0
   -1.2840   25.5800  -26.3330 C   0  0  0  0  0  0  0  0  0  0  0  0
   -2.0490   24.8470  -27.3690 C   0  0  0  0  0  0  0  0  0  0  0  0
   -1.8430   25.1160  -28.7330 C   0  0  0  0  0  0  0  0  0  0  0  0
   -2.5560   24.4140  -29.7080 C   0  0  0  0  0  0  0  0  0  0  0  0
   -3.4780   23.4270  -29.3330 C   0  0  0  0  0  0  0  0  0  0  0  0
   -4.2040   22.6640  -30.3680 C   0  0  0  0  0  0  0  0  0  0  0  0
   -3.4970   21.8000  -31.1450 N   0  0  0  0  0  0  0  0  0  0  0  0
   -4.0750   21.0440  -32.1200 C   0  0  0  0  0  0  0  0  0  0  0  0
   -3.1850   20.1440  -32.9550 C   0  0  0  0  0  0  0  0  0  0  0  0
   -1.8220   20.3390  -32.6340 O   0  0  0  0  0  0  0  0  0  0  0  0
   -1.1760   21.0510  -33.6670 C   0  0  0  0  0  0  0  0  0  0  0  0
   -5.4710   21.1360  -32.3460 C   0  0  0  0  0  0  0  0  0  0  0  0
   -6.1280   20.3550  -33.4700 C   0  0  0  0  0  0  0  0  0  0  0  0
   -6.2240   22.0570  -31.5770 C   0  0  0  0  0  0  0  0  0  0  0  0
   -7.6650   22.2310  -31.8430 C   0  0  0  0  0  0  0  0  0  0  0  0
   -8.0750   23.2790  -32.4110 O   0  0  0  0  0  0  0  0  0  0  0  0
   -8.5590   21.2310  -31.4450 O   0  0  0  0  0  0  0  0  0  0  0  0
   -9.1470   20.3030  -32.3530 C   0  0  0  0  0  0  0  0  0  0  0  0
   -9.0910   18.8860  -31.7830 C   0  0  0  0  0  0  0  0  0  0  0  0
   -7.7530   18.5640  -31.4670 O   0  0  0  0  0  0  0  0  0  0  0  0
   -7.2910   17.5670  -32.3480 C   0  0  0  0  0  0  0  0  0  0  0  0
   -5.5910   22.8360  -30.5780 C   0  0  0  0  0  0  0  0  0  0  0  0
   -6.3930   23.8190  -29.7330 C   0  0  0  0  0  0  0  0  0  0  0  0
   -6.1070   25.2640  -30.1370 C   0  0  0  0  0  0  0  0  0  0  0  0
   -3.7110   23.1750  -27.9730 C   0  0  0  0  0  0  0  0  0  0  0  0
   -4.6120   22.2330  -27.5910 F   0  0  0  0  0  0  0  0  0  0  0  0
   -3.0030   23.8830  -26.9970 C   0  0  0  0  0  0  0  0  0  0  0  0
    0.5213   22.6343  -26.3502 H   0  0  0  0  0  0  0  0  0  0  0  0
   -0.3170   23.0074  -27.8945 H   0  0  0  0  0  0  0  0  0  0  0  0
    1.1399   21.9566  -27.8945 H   0  0  0  0  0  0  0  0  0  0  0  0
    2.2833   24.0933  -26.7926 H   0  0  0  0  0  0  0  0  0  0  0  0
    2.0542   23.9804  -28.5807 H   0  0  0  0  0  0  0  0  0  0  0  0
    1.8785   26.6764  -25.5667 H   0  0  0  0  0  0  0  0  0  0  0  0
    0.6626   27.5449  -23.5736 H   0  0  0  0  0  0  0  0  0  0  0  0
   -1.7854   27.1515  -23.3277 H   0  0  0  0  0  0  0  0  0  0  0  0
   -3.0323   25.8953  -25.0812 H   0  0  0  0  0  0  0  0  0  0  0  0
   -1.1158   25.8841  -29.0348 H   0  0  0  0  0  0  0  0  0  0  0  0
   -2.3934   24.6364  -30.7729 H   0  0  0  0  0  0  0  0  0  0  0  0
   -2.4670   21.7180  -30.9820 H   0  0  0  0  0  0  0  0  0  0  0  0
   -3.4531   19.0947  -32.7627 H   0  0  0  0  0  0  0  0  0  0  0  0
   -3.3336   20.3919  -34.0163 H   0  0  0  0  0  0  0  0  0  0  0  0
   -0.4980   21.7982  -33.2289 H   0  0  0  0  0  0  0  0  0  0  0  0
   -0.5980   20.3514  -34.2887 H   0  0  0  0  0  0  0  0  0  0  0  0
   -1.9284   21.5584  -34.2887 H   0  0  0  0  0  0  0  0  0  0  0  0
   -6.7809   19.5788  -33.0443 H   0  0  0  0  0  0  0  0  0  0  0  0
   -6.7268   21.0383  -34.0900 H   0  0  0  0  0  0  0  0  0  0  0  0
   -5.3522   19.8820  -34.0900 H   0  0  0  0  0  0  0  0  0  0  0  0
  -10.1968   20.5820  -32.5263 H   0  0  0  0  0  0  0  0  0  0  0  0
   -8.5864   20.3278  -33.2991 H   0  0  0  0  0  0  0  0  0  0  0  0
   -9.7071   18.8310  -30.8734 H   0  0  0  0  0  0  0  0  0  0  0  0
   -9.4762   18.1734  -32.5272 H   0  0  0  0  0  0  0  0  0  0  0  0
   -6.8980   16.7188  -31.7682 H   0  0  0  0  0  0  0  0  0  0  0  0
   -8.1220   17.2241  -32.9819 H   0  0  0  0  0  0  0  0  0  0  0  0
   -6.4922   17.9794  -32.9819 H   0  0  0  0  0  0  0  0  0  0  0  0
   -7.4655   23.6152  -29.8682 H   0  0  0  0  0  0  0  0  0  0  0  0
   -6.1007   23.6895  -28.6805 H   0  0  0  0  0  0  0  0  0  0  0  0
   -5.9851   25.8800  -29.2338 H   0  0  0  0  0  0  0  0  0  0  0  0
   -5.1839   25.3020  -30.7341 H   0  0  0  0  0  0  0  0  0  0  0  0
   -6.9460   25.6507  -30.7341 H   0  0  0  0  0  0  0  0  0  0  0  0
   -3.1933   23.6848  -25.9319 H   0  0  0  0  0  0  0  0  0  0  0  0
  1  2  1  0
  2  3  1  0
  3  4  1  0
  4  5  2  0
  5  6  1  0
  6  7  2  0
  7  8  1  0
  8  9  2  0
  9 10  1  0
 10 11  2  0
 11 12  1  0
 12 13  2  0
 13 14  1  0
 14 15  2  0
 15 16  1  0
 16 17  1  0
 17 18  1  0
 18 19  1  0
 16 20  2  0
 20 21  1  0
 20 22  1  0
 22 23  1  0
 23 24  2  0
 23 25  1  0
 25 26  1  0
 26 27  1  0
 27 28  1  0
 28 29  1  0
 22 30  2  0
 30 31  1  0
 31 32  1  0
 13 33  1  0
 33 34  1  0
 33 35  2  0
  9  4  1  0
 35 10  1  0
 30 14  1  0
  1 36  1  0
  1 37  1  0
  1 38  1  0
  2 39  1  0
  2 40  1  0
  5 41  1  0
  6 42  1  0
  7 43  1  0
  8 44  1  0
 11 45  1  0
 12 46  1  0
 15 47  1  0
 17 48  1  0
 17 49  1  0
 19 50  1  0
 19 51  1  0
 19 52  1  0
 21 53  1  0
 21 54  1  0
 21 55  1  0
 26 56  1  0
 26 57  1  0
 27 58  1  0
 27 59  1  0
 29 60  1  0
 29 61  1  0
 29 62  1  0
 31 63  1  0
 31 64  1  0
 32 65  1  0
 32 66  1  0
 32 67  1  0
 35 68  1  0
M  CHG  1  15   1
M  END
>  <UniqueID>  (26) 
25

>  <SMILES>  (26) 
CCOc1ccccc1-c1ccc(-c2[nH+]c(COC)c(C)c(C(=O)OCCOC)c2CC)c(F)c1

>  <Energy>  (26) 
90.01990549449832

>  <Genealogy>  (26) 
CCOc1ccccc1-c1ccc(-c2[nH+]c(COC)c(C)c(C(=O)OCCOC)c2CC)c(F)c1 (protonated)
CCOc1ccccc1-c1ccc(-c2[nH+]c(COC)c(C)c(C(=O)OCCOC)c2CC)c(F)c1 (3D coordinates assigned)
CCOc1ccccc1-c1ccc(-c2[nH+]c(COC)c(C)c(C(=O)OCCOC)c2CC)c(F)c1 (optimized conformer: 90.01990549449832 kcal/mol)

>  <smiles>  (26) 
CCOc1ccccc1-c1ccc(-c2nc(COC)c(C)c(C(=O)OCCOC)c2CC)c(F)c1

>  <score_type>  (26) 
oracle

>  <origin>  (26) 
adg

>  <m_score__min__energy>  (26) 
-7.6200000000000001

>  <m_primary>  (26) 
energy

$$$$
26:0
     RDKit          3D

 54 55  0  0  0  0  0  0  0  0999 V2000
   -5.7340   23.2230  -31.9460 C   0  0  0  0  0  0  0  0  0  0  0  0
   -7.1990   23.3050  -31.5450 C   0  0  0  0  0  0  0  0  0  0  0  0
   -7.9490   22.4210  -32.3500 O   0  0  0  0  0  0  0  0  0  0  0  0
   -8.9100   21.7580  -31.5560 C   0  0  0  0  0  0  0  0  0  0  0  0
   -9.4940   20.5820  -32.3390 C   0  0  0  0  0  0  0  0  0  0  0  0
   -9.0250   19.2350  -31.7740 C   0  0  0  0  0  0  0  0  0  0  0  0
   -8.0570   18.6400  -32.6360 O   0  0  0  0  0  0  0  0  0  0  0  0
   -6.7030   19.0090  -32.7220 C   0  0  0  0  0  0  0  0  0  0  0  0
   -6.1260   19.6600  -31.6270 C   0  0  0  0  0  0  0  0  0  0  0  0
   -4.7840   20.0470  -31.6530 C   0  0  0  0  0  0  0  0  0  0  0  0
   -3.9900   19.7740  -32.7780 C   0  0  0  0  0  0  0  0  0  0  0  0
   -2.5380   20.1850  -32.8030 C   0  0  0  0  0  0  0  0  0  0  0  0
   -2.2930   21.5360  -32.1090 C   0  0  0  0  0  0  0  0  0  0  0  0
   -1.1260   21.5160  -31.1050 C   0  0  0  0  0  0  0  0  0  0  0  0
   -1.5320   20.9630  -29.7590 C   0  0  0  0  0  0  0  0  0  0  0  0
   -0.7640   19.9450  -29.1670 C   0  0  0  0  0  0  0  0  0  0  0  0
   -1.1090   19.4330  -27.9160 C   0  0  0  0  0  0  0  0  0  0  0  0
   -2.2260   19.9260  -27.2430 C   0  0  0  0  0  0  0  0  0  0  0  0
   -3.0070   20.9290  -27.8210 C   0  0  0  0  0  0  0  0  0  0  0  0
   -2.6740   21.4540  -29.0870 C   0  0  0  0  0  0  0  0  0  0  0  0
   -3.4460   22.4540  -29.7050 O   0  0  0  0  0  0  0  0  0  0  0  0
   -3.8890   23.6620  -29.0860 C   0  0  0  0  0  0  0  0  0  0  0  0
   -3.2660   24.8520  -29.7460 C   0  0  0  0  0  0  0  0  0  0  0  0
   -2.1550   25.2880  -29.3470 O   0  0  0  0  0  0  0  0  0  0  0  0
   -3.8940   25.4580  -30.8290 O   0  0  0  0  0  0  0  0  0  0  0  0
   -4.5670   19.1300  -33.8830 C   0  0  0  0  0  0  0  0  0  0  0  0
   -5.9110   18.7450  -33.8560 C   0  0  0  0  0  0  0  0  0  0  0  0
   -5.1079   23.1880  -31.0423 H   0  0  0  0  0  0  0  0  0  0  0  0
   -5.5675   22.3141  -32.5429 H   0  0  0  0  0  0  0  0  0  0  0  0
   -5.4671   24.1076  -32.5429 H   0  0  0  0  0  0  0  0  0  0  0  0
   -7.3077   23.0222  -30.4876 H   0  0  0  0  0  0  0  0  0  0  0  0
   -7.5642   24.3332  -31.6847 H   0  0  0  0  0  0  0  0  0  0  0  0
   -8.4331   21.3861  -30.6372 H   0  0  0  0  0  0  0  0  0  0  0  0
   -9.7154   22.4595  -31.2928 H   0  0  0  0  0  0  0  0  0  0  0  0
  -10.5917   20.6282  -32.2855 H   0  0  0  0  0  0  0  0  0  0  0  0
   -9.1464   20.6568  -33.3800 H   0  0  0  0  0  0  0  0  0  0  0  0
   -8.5765   19.3951  -30.7824 H   0  0  0  0  0  0  0  0  0  0  0  0
   -9.8915   18.5620  -31.6949 H   0  0  0  0  0  0  0  0  0  0  0  0
   -6.7355   19.8696  -30.7356 H   0  0  0  0  0  0  0  0  0  0  0  0
   -4.3475   20.5680  -30.7881 H   0  0  0  0  0  0  0  0  0  0  0  0
   -1.9446   19.4132  -32.2909 H   0  0  0  0  0  0  0  0  0  0  0  0
   -2.2407   20.2931  -33.8565 H   0  0  0  0  0  0  0  0  0  0  0  0
   -2.0733   22.2878  -32.8813 H   0  0  0  0  0  0  0  0  0  0  0  0
   -3.2029   21.7726  -31.5380 H   0  0  0  0  0  0  0  0  0  0  0  0
   -0.3187   20.8910  -31.5145 H   0  0  0  0  0  0  0  0  0  0  0  0
   -0.7959   22.5545  -30.9546 H   0  0  0  0  0  0  0  0  0  0  0  0
    0.1162   19.5489  -29.6946 H   0  0  0  0  0  0  0  0  0  0  0  0
   -0.4990   18.6393  -27.4600 H   0  0  0  0  0  0  0  0  0  0  0  0
   -2.4927   19.5240  -26.2544 H   0  0  0  0  0  0  0  0  0  0  0  0
   -3.8880   21.3123  -27.2853 H   0  0  0  0  0  0  0  0  0  0  0  0
   -4.9833   23.7323  -29.1727 H   0  0  0  0  0  0  0  0  0  0  0  0
   -3.5910   23.6476  -28.0272 H   0  0  0  0  0  0  0  0  0  0  0  0
   -3.9582   18.9267  -34.7763 H   0  0  0  0  0  0  0  0  0  0  0  0
   -6.3516   18.2336  -34.7245 H   0  0  0  0  0  0  0  0  0  0  0  0
  1  2  1  0
  2  3  1  0
  3  4  1  0
  4  5  1  0
  5  6  1  0
  6  7  1  0
  7  8  1  0
  8  9  2  0
  9 10  1  0
 10 11  2  0
 11 12  1  0
 12 13  1  0
 13 14  1  0
 14 15  1  0
 15 16  2  0
 16 17  1  0
 17 18  2  0
 18 19  1  0
 19 20  2  0
 20 21  1  0
 21 22  1  0
 22 23  1  0
 23 24  2  0
 23 25  1  0
 11 26  1  0
 26 27  2  0
 27  8  1  0
 20 15  1  0
  1 28  1  0
  1 29  1  0
  1 30  1  0
  2 31  1  0
  2 32  1  0
  4 33  1  0
  4 34  1  0
  5 35  1  0
  5 36  1  0
  6 37  1  0
  6 38  1  0
  9 39  1  0
 10 40  1  0
 12 41  1  0
 12 42  1  0
 13 43  1  0
 13 44  1  0
 14 45  1  0
 14 46  1  0
 16 47  1  0
 17 48  1  0
 18 49  1  0
 19 50  1  0
 22 51  1  0
 22 52  1  0
 26 53  1  0
 27 54  1  0
M  CHG  1  25  -1
M  END
>  <UniqueID>  (27) 
26

>  <SMILES>  (27) 
CCOCCCOc1ccc(CCCc2ccccc2OCC(=O)[O-])cc1

>  <Energy>  (27) 
43.29608905014054

>  <Genealogy>  (27) 
CCOCCCOc1ccc(CCCc2ccccc2OCC(=O)[O-])cc1 (protonated)
CCOCCCOc1ccc(CCCc2ccccc2OCC(=O)[O-])cc1 (3D coordinates assigned)
CCOCCCOc1ccc(CCCc2ccccc2OCC(=O)[O-])cc1 (optimized conformer: 43.29608905014054 kcal/mol)

>  <smiles>  (27) 
CCOCCCOc1ccc(CCCc2ccccc2OCC(=O)O)cc1

>  <score_type>  (27) 
oracle

>  <origin>  (27) 
adg

>  <m_score__min__energy>  (27) 
-9.8000000000000007

>  <m_primary>  (27) 
energy

$$$$
27:0
     RDKit          3D

 39 40  0  0  0  0  0  0  0  0999 V2000
   -6.2680   25.1850  -29.7560 C   0  0  0  0  0  0  0  0  0  0  0  0
   -5.0130   25.5810  -30.5220 C   0  0  0  0  0  0  0  0  0  0  0  0
   -4.0380   24.4650  -30.4850 N   0  0  0  0  0  0  0  0  0  0  0  0
   -3.1180   24.5460  -29.3260 C   0  0  0  0  0  0  0  0  0  0  0  0
   -3.6360   23.8210  -28.0760 C   0  0  0  0  0  0  0  0  0  0  0  0
   -4.6550   23.1280  -30.6340 C   0  0  0  0  0  0  0  0  0  0  0  0
   -4.1280   22.4100  -31.8850 C   0  0  0  0  0  0  0  0  0  0  0  0
   -5.1840   22.0800  -32.7880 O   0  0  0  0  0  0  0  0  0  0  0  0
   -6.5490   21.9890  -32.4620 C   0  0  0  0  0  0  0  0  0  0  0  0
   -7.3490   23.1340  -32.2750 C   0  0  0  0  0  0  0  0  0  0  0  0
   -8.7030   23.0120  -31.9570 C   0  0  0  0  0  0  0  0  0  0  0  0
   -9.2840   21.7530  -31.8190 C   0  0  0  0  0  0  0  0  0  0  0  0
   -8.5120   20.5980  -31.9970 C   0  0  0  0  0  0  0  0  0  0  0  0
   -9.0960   19.3280  -31.8600 C   0  0  0  0  0  0  0  0  0  0  0  0
   -8.3250   18.1780  -32.0400 C   0  0  0  0  0  0  0  0  0  0  0  0
   -6.9700   18.2840  -32.3550 C   0  0  0  0  0  0  0  0  0  0  0  0
   -6.3740   19.5400  -32.4930 C   0  0  0  0  0  0  0  0  0  0  0  0
   -7.1340   20.7120  -32.3170 C   0  0  0  0  0  0  0  0  0  0  0  0
   -6.0727   25.2466  -28.6752 H   0  0  0  0  0  0  0  0  0  0  0  0
   -7.0892   25.8677  -30.0197 H   0  0  0  0  0  0  0  0  0  0  0  0
   -6.5487   24.1546  -30.0197 H   0  0  0  0  0  0  0  0  0  0  0  0
   -5.2761   25.8034  -31.5667 H   0  0  0  0  0  0  0  0  0  0  0  0
   -4.5667   26.4730  -30.0581 H   0  0  0  0  0  0  0  0  0  0  0  0
   -2.1559   24.0973  -29.6142 H   0  0  0  0  0  0  0  0  0  0  0  0
   -3.0229   25.6102  -29.0645 H   0  0  0  0  0  0  0  0  0  0  0  0
   -3.2688   24.3350  -27.1754 H   0  0  0  0  0  0  0  0  0  0  0  0
   -4.7360   23.8264  -28.0784 H   0  0  0  0  0  0  0  0  0  0  0  0
   -3.2744   22.7821  -28.0784 H   0  0  0  0  0  0  0  0  0  0  0  0
   -4.4186   22.5227  -29.7465 H   0  0  0  0  0  0  0  0  0  0  0  0
   -5.7426   23.2557  -30.7376 H   0  0  0  0  0  0  0  0  0  0  0  0
   -3.4120   23.0682  -32.3989 H   0  0  0  0  0  0  0  0  0  0  0  0
   -3.6445   21.4749  -31.5659 H   0  0  0  0  0  0  0  0  0  0  0  0
   -6.9023   24.1337  -32.3806 H   0  0  0  0  0  0  0  0  0  0  0  0
   -9.3147   23.9151  -31.8146 H   0  0  0  0  0  0  0  0  0  0  0  0
  -10.3518   21.6660  -31.5696 H   0  0  0  0  0  0  0  0  0  0  0  0
  -10.1636   19.2392  -31.6102 H   0  0  0  0  0  0  0  0  0  0  0  0
   -8.7872   17.1856  -31.9332 H   0  0  0  0  0  0  0  0  0  0  0  0
   -6.3680   17.3741  -32.4954 H   0  0  0  0  0  0  0  0  0  0  0  0
   -5.3048   19.6137  -32.7406 H   0  0  0  0  0  0  0  0  0  0  0  0
  1  2  1  0
  2  3  1  0
  3  4  1  0
  4  5  1  0
  3  6  1  0
  6  7  1  0
  7  8  1  0
  8  9  1  0
  9 10  2  0
 10 11  1  0
 11 12  2  0
 12 13  1  0
 13 14  2  0
 14 15  1  0
 15 16  2  0
 16 17  1  0
 17 18  2  0
 18  9  1  0
 18 13  1  0
  1 19  1  0
  1 20  1  0
  1 21  1  0
  2 22  1  0
  2 23  1  0
  4 24  1  0
  4 25  1  0
  5 26  1  0
  5 27  1  0
  5 28  1  0
  6 29  1  0
  6 30  1  0
  7 31  1  0
  7 32  1  0
 10 33  1  0
 11 34  1  0
 12 35  1  0
 14 36  1  0
 15 37  1  0
 16 38  1  0
 17 39  1  0
M  END
>  <UniqueID>  (28) 
27

>  <SMILES>  (28) 
CCN(CC)CCOc1cccc2ccccc12

>  <Energy>  (28) 
42.624324363067196

>  <Genealogy>  (28) 
CCN(CC)CCOc1cccc2ccccc12 (3D coordinates assigned)
CCN(CC)CCOc1cccc2ccccc12 (optimized conformer: 42.624324363067196 kcal/mol)

>  <smiles>  (28) 
CCN(CC)CCOc1cccc2ccccc12

>  <score_type>  (28) 
oracle

>  <origin>  (28) 
adg

>  <m_score__min__energy>  (28) 
-7.1100000000000003

>  <m_primary>  (28) 
energy

$$$$
28:0
     RDKit          3D

 42 44  0  0  0  0  0  0  0  0999 V2000
   -9.0580   22.7320  -31.9850 C   0  0  0  0  0  0  0  0  0  0  0  0
   -7.5940   23.1160  -32.1930 C   0  0  0  0  0  0  0  0  0  0  0  0
   -6.6530   22.3690  -31.3340 N   0  0  0  0  0  0  0  0  0  0  0  0
   -5.4420   21.8230  -31.9860 C   0  0  0  0  0  0  0  0  0  0  0  0
   -4.1930   22.6750  -31.7370 C   0  0  0  0  0  0  0  0  0  0  0  0
   -4.1020   23.0060  -30.3200 N   0  0  0  0  0  0  0  0  0  0  0  0
   -3.0970   22.3960  -29.4950 C   0  0  0  0  0  0  0  0  0  0  0  0
   -3.1210   21.0040  -29.3340 C   0  0  0  0  0  0  0  0  0  0  0  0
   -2.1710   20.3610  -28.5450 C   0  0  0  0  0  0  0  0  0  0  0  0
   -1.1800   21.1000  -27.9030 C   0  0  0  0  0  0  0  0  0  0  0  0
   -1.1310   22.4940  -28.0450 C   0  0  0  0  0  0  0  0  0  0  0  0
   -0.1290   23.2220  -27.3920 C   0  0  0  0  0  0  0  0  0  0  0  0
   -0.0630   24.6080  -27.5210 C   0  0  0  0  0  0  0  0  0  0  0  0
   -1.0020   25.2940  -28.3070 C   0  0  0  0  0  0  0  0  0  0  0  0
   -0.9670   26.6900  -28.4590 O   0  0  0  0  0  0  0  0  0  0  0  0
   -0.4700   27.5950  -27.4800 C   0  0  0  0  0  0  0  0  0  0  0  0
   -2.0120   24.5780  -28.9660 C   0  0  0  0  0  0  0  0  0  0  0  0
   -2.9240   25.2920  -29.7360 O   0  0  0  0  0  0  0  0  0  0  0  0
   -2.0940   23.1660  -28.8470 C   0  0  0  0  0  0  0  0  0  0  0  0
   -5.2460   23.6760  -29.7140 C   0  0  0  0  0  0  0  0  0  0  0  0
   -6.5100   22.8370  -29.9360 C   0  0  0  0  0  0  0  0  0  0  0  0
   -9.2728   22.6757  -30.9076 H   0  0  0  0  0  0  0  0  0  0  0  0
   -9.7055   23.4907  -32.4488 H   0  0  0  0  0  0  0  0  0  0  0  0
   -9.2498   21.7532  -32.4488 H   0  0  0  0  0  0  0  0  0  0  0  0
   -7.3312   22.9240  -33.2438 H   0  0  0  0  0  0  0  0  0  0  0  0
   -7.5002   24.1780  -31.9223 H   0  0  0  0  0  0  0  0  0  0  0  0
   -5.2596   20.8109  -31.5956 H   0  0  0  0  0  0  0  0  0  0  0  0
   -5.6260   21.8174  -33.0705 H   0  0  0  0  0  0  0  0  0  0  0  0
   -3.2985   22.1107  -32.0394 H   0  0  0  0  0  0  0  0  0  0  0  0
   -4.2596   23.6020  -32.3254 H   0  0  0  0  0  0  0  0  0  0  0  0
   -3.8999   20.4122  -29.8371 H   0  0  0  0  0  0  0  0  0  0  0  0
   -2.2031   19.2677  -28.4284 H   0  0  0  0  0  0  0  0  0  0  0  0
   -0.4316   20.5870  -27.2811 H   0  0  0  0  0  0  0  0  0  0  0  0
    0.6119   22.6958  -26.7723 H   0  0  0  0  0  0  0  0  0  0  0  0
    0.7300   25.1679  -27.0036 H   0  0  0  0  0  0  0  0  0  0  0  0
   -0.6854   27.2027  -26.4751 H   0  0  0  0  0  0  0  0  0  0  0  0
    0.6171   27.7086  -27.6040 H   0  0  0  0  0  0  0  0  0  0  0  0
   -0.9574   28.5733  -27.6040 H   0  0  0  0  0  0  0  0  0  0  0  0
   -5.0708   23.7955  -28.6346 H   0  0  0  0  0  0  0  0  0  0  0  0
   -5.3778   24.6650  -30.1772 H   0  0  0  0  0  0  0  0  0  0  0  0
   -6.4692   21.9591  -29.2744 H   0  0  0  0  0  0  0  0  0  0  0  0
   -7.3753   23.4783  -29.7124 H   0  0  0  0  0  0  0  0  0  0  0  0
  1  2  1  0
  2  3  1  0
  3  4  1  0
  4  5  1  0
  5  6  1  0
  6  7  1  0
  7  8  2  0
  8  9  1  0
  9 10  2  0
 10 11  1  0
 11 12  2  0
 12 13  1  0
 13 14  2  0
 14 15  1  0
 15 16  1  0
 14 17  1  0
 17 18  1  0
 17 19  2  0
  6 20  1  0
 20 21  1  0
 21  3  1  0
 19  7  1  0
 19 11  1  0
  1 22  1  0
  1 23  1  0
  1 24  1  0
  2 25  1  0
  2 26  1  0
  4 27  1  0
  4 28  1  0
  5 29  1  0
  5 30  1  0
  8 31  1  0
  9 32  1  0
 10 33  1  0
 12 34  1  0
 13 35  1  0
 16 36  1  0
 16 37  1  0
 16 38  1  0
 20 39  1  0
 20 40  1  0
 21 41  1  0
 21 42  1  0
M  CHG  1  18  -1
M  END
>  <UniqueID>  (29) 
28

>  <SMILES>  (29) 
CCN1CCN(c2cccc3ccc(OC)c([O-])c23)CC1

>  <Energy>  (29) 
62.96989602154864

>  <Genealogy>  (29) 
CCN1CCN(c2cccc3ccc(OC)c([O-])c23)CC1 (protonated)
CCN1CCN(c2cccc3ccc(OC)c([O-])c23)CC1 (3D coordinates assigned)
CCN1CCN(c2cccc3ccc(OC)c([O-])c23)CC1 (nonaromatic ring conformer: 62.96989602154864 kcal/mol)

>  <smiles>  (29) 
CCN1CCN(c2cccc3ccc(OC)c(O)c23)CC1

>  <score_type>  (29) 
oracle

>  <origin>  (29) 
adg

>  <m_score__min__energy>  (29) 
-9.7799999999999994

>  <m_primary>  (29) 
energy

$$$$
29:0
     RDKit          3D

 65 68  0  0  0  0  0  0  0  0999 V2000
   -6.5813   23.8894  -30.2785 H   0  0  0  0  0  0  0  0  0  0  0  0
   -5.7330   23.2030  -30.4170 C   0  0  0  0  0  0  0  0  0  0  0  0
   -4.6270   23.3820  -29.6840 C   0  0  0  0  0  0  0  0  0  0  0  0
   -3.6300   24.4220  -29.9200 C   0  0  0  0  0  0  0  0  0  0  0  0
   -3.6750   25.3120  -30.8110 O   0  0  0  0  0  0  0  0  0  0  0  0
   -2.5750   24.2470  -28.9490 C   0  0  0  0  0  0  0  0  0  0  0  0
   -1.4100   24.9890  -28.7750 C   0  0  0  0  0  0  0  0  0  0  0  0
   -1.1874   25.8467  -29.4268 H   0  0  0  0  0  0  0  0  0  0  0  0
   -0.5190   24.6160  -27.7420 C   0  0  0  0  0  0  0  0  0  0  0  0
    0.6770   25.3120  -27.5080 O   0  0  0  0  0  0  0  0  0  0  0  0
    0.8950   26.1910  -26.4090 C   0  0  0  0  0  0  0  0  0  0  0  0
    0.7585   25.6405  -25.4665 H   0  0  0  0  0  0  0  0  0  0  0  0
    1.9192   26.5895  -26.4558 H   0  0  0  0  0  0  0  0  0  0  0  0
    0.1757   27.0219  -26.4558 H   0  0  0  0  0  0  0  0  0  0  0  0
   -0.8240   23.5100  -26.9130 C   0  0  0  0  0  0  0  0  0  0  0  0
    0.0850   23.1720  -25.8980 O   0  0  0  0  0  0  0  0  0  0  0  0
   -0.1920   23.2660  -24.5050 C   0  0  0  0  0  0  0  0  0  0  0  0
    0.6978   22.9641  -23.9330 H   0  0  0  0  0  0  0  0  0  0  0  0
   -0.4553   24.3038  -24.2527 H   0  0  0  0  0  0  0  0  0  0  0  0
   -1.0325   22.6028  -24.2527 H   0  0  0  0  0  0  0  0  0  0  0  0
   -2.0170   22.7810  -27.1210 C   0  0  0  0  0  0  0  0  0  0  0  0
   -2.2628   21.9200  -26.4820 H   0  0  0  0  0  0  0  0  0  0  0  0
   -2.8780   23.1680  -28.1470 C   0  0  0  0  0  0  0  0  0  0  0  0
   -4.1820   22.5250  -28.5230 C   0  0  0  0  0  0  0  0  0  0  0  0
   -4.9035   22.5683  -27.6938 H   0  0  0  0  0  0  0  0  0  0  0  0
   -4.0970   21.4556  -28.7662 H   0  0  0  0  0  0  0  0  0  0  0  0
   -5.8490   22.1120  -31.4060 C   0  0  0  0  0  0  0  0  0  0  0  0
   -4.6960   21.7370  -32.1240 C   0  0  0  0  0  0  0  0  0  0  0  0
   -3.4920   22.4210  -31.8620 O   0  0  0  0  0  0  0  0  0  0  0  0
   -2.1890   21.8370  -31.8230 C   0  0  0  0  0  0  0  0  0  0  0  0
   -1.4341   22.6366  -31.8491 H   0  0  0  0  0  0  0  0  0  0  0  0
   -2.0728   21.1736  -32.6927 H   0  0  0  0  0  0  0  0  0  0  0  0
   -2.0030   21.0110  -30.5450 C   0  0  0  0  0  0  0  0  0  0  0  0
   -2.3579   19.9849  -30.7214 H   0  0  0  0  0  0  0  0  0  0  0  0
   -2.5805   21.4752  -29.7320 H   0  0  0  0  0  0  0  0  0  0  0  0
   -0.5740   20.9740  -30.1600 N   0  0  0  0  0  0  0  0  0  0  0  0
    0.2370   20.3870  -31.2460 C   0  0  0  0  0  0  0  0  0  0  0  0
    1.0560   19.7942  -30.8126 H   0  0  0  0  0  0  0  0  0  0  0  0
   -0.3971   19.7373  -31.8671 H   0  0  0  0  0  0  0  0  0  0  0  0
    0.6561   21.1924  -31.8671 H   0  0  0  0  0  0  0  0  0  0  0  0
   -0.3860   20.2190  -28.8990 C   0  0  0  0  0  0  0  0  0  0  0  0
    0.1719   20.8464  -28.1883 H   0  0  0  0  0  0  0  0  0  0  0  0
    0.1672   19.2972  -29.1320 H   0  0  0  0  0  0  0  0  0  0  0  0
   -1.7300   19.8220  -28.2640 C   0  0  0  0  0  0  0  0  0  0  0  0
   -2.1099   18.9183  -28.7630 H   0  0  0  0  0  0  0  0  0  0  0  0
   -2.4347   20.6575  -28.3875 H   0  0  0  0  0  0  0  0  0  0  0  0
   -1.5830   19.5590  -26.8810 O   0  0  0  0  0  0  0  0  0  0  0  0
   -2.7860   19.0510  -26.3450 C   0  0  0  0  0  0  0  0  0  0  0  0
   -2.7357   19.0722  -25.2464 H   0  0  0  0  0  0  0  0  0  0  0  0
   -3.6293   19.6698  -26.6855 H   0  0  0  0  0  0  0  0  0  0  0  0
   -2.9305   18.0150  -26.6855 H   0  0  0  0  0  0  0  0  0  0  0  0
   -4.7720   20.6890  -33.0590 C   0  0  0  0  0  0  0  0  0  0  0  0
   -3.8717   20.3901  -33.6159 H   0  0  0  0  0  0  0  0  0  0  0  0
   -5.9750   20.0260  -33.2870 C   0  0  0  0  0  0  0  0  0  0  0  0
   -6.0156   19.2033  -34.0161 H   0  0  0  0  0  0  0  0  0  0  0  0
   -7.1330   20.3990  -32.5950 C   0  0  0  0  0  0  0  0  0  0  0  0
   -8.3440   19.7320  -32.8410 C   0  0  0  0  0  0  0  0  0  0  0  0
   -8.3781   18.9094  -33.5705 H   0  0  0  0  0  0  0  0  0  0  0  0
   -9.5050   20.1090  -32.1630 C   0  0  0  0  0  0  0  0  0  0  0  0
  -10.4501   19.5804  -32.3563 H   0  0  0  0  0  0  0  0  0  0  0  0
   -9.4680   21.1550  -31.2410 C   0  0  0  0  0  0  0  0  0  0  0  0
  -10.3862   21.4520  -30.7130 H   0  0  0  0  0  0  0  0  0  0  0  0
   -8.2710   21.8270  -30.9850 C   0  0  0  0  0  0  0  0  0  0  0  0
   -8.2544   22.6536  -30.2595 H   0  0  0  0  0  0  0  0  0  0  0  0
   -7.0820   21.4550  -31.6490 C   0  0  0  0  0  0  0  0  0  0  0  0
  1  2  1  0
  2  3  2  0
  3  4  1  0
  4  5  2  0
  4  6  1  0
  6  7  2  0
  7  8  1  0
  7  9  1  0
  9 10  1  0
 10 11  1  0
 11 12  1  0
 11 13  1  0
 11 14  1  0
  9 15  2  0
 15 16  1  0
 16 17  1  0
 17 18  1  0
 17 19  1  0
 17 20  1  0
 15 21  1  0
 21 22  1  0
 21 23  2  0
 23 24  1  0
 24 25  1  0
 24 26  1  0
  2 27  1  0
 27 28  2  0
 28 29  1  0
 29 30  1  0
 30 31  1  0
 30 32  1  0
 30 33  1  0
 33 34  1  0
 33 35  1  0
 33 36  1  0
 36 37  1  0
 37 38  1  0
 37 39  1  0
 37 40  1  0
 36 41  1  0
 41 42  1  0
 41 43  1  0
 41 44  1  0
 44 45  1  0
 44 46  1  0
 44 47  1  0
 47 48  1  0
 48 49  1  0
 48 50  1  0
 48 51  1  0
 28 52  1  0
 52 53  1  0
 52 54  2  0
 54 55  1  0
 54 56  1  0
 56 57  2  0
 57 58  1  0
 57 59  1  0
 59 60  1  0
 59 61  2  0
 61 62  1  0
 61 63  1  0
 63 64  1  0
 63 65  2  0
 24  3  1  0
 65 27  1  0
 23  6  1  0
 65 56  1  0
M  END
>  <UniqueID>  (30) 
29

>  <SMILES>  (30) 
COCCN(C)CCOc1ccc2ccccc2c1/C=C1\Cc2cc(OC)c(OC)cc2C1=O

>  <Energy>  (30) 
99.76249575802551

>  <Genealogy>  (30) 
COCCN(C)CCOc1ccc2ccccc2c1/C=C1\Cc2cc(OC)c(OC)cc2C1=O (cis-trans isomerization)
COCCN(C)CCOc1ccc2ccccc2c1/C=C1\Cc2cc(OC)c(OC)cc2C1=O (3D coordinates assigned)
COCCN(C)CCOc1ccc2ccccc2c1/C=C1\Cc2cc(OC)c(OC)cc2C1=O (nonaromatic ring conformer: 99.76249575802551 kcal/mol)

>  <smiles>  (30) 
COCCN(C)CCOc1ccc2ccccc2c1C=C1Cc2cc(OC)c(OC)cc2C1=O

>  <score_type>  (30) 
oracle

>  <origin>  (30) 
adg

>  <m_score__min__energy>  (30) 
-9.6600000000000001

>  <m_primary>  (30) 
energy

$$$$
30:0
     RDKit          3D

 42 43  0  0  0  0  0  0  0  0999 V2000
   -0.5020   23.3310  -29.0770 C   0  0  0  0  0  0  0  0  0  0  0  0
    0.0830   24.5460  -28.4830 N   0  0  0  0  0  0  0  0  0  0  0  0
    1.1520   24.1640  -27.5450 C   0  0  0  0  0  0  0  0  0  0  0  0
   -0.9450   25.3470  -27.7840 C   0  0  0  0  0  0  0  0  0  0  0  0
   -2.3490   24.8080  -28.0830 C   0  0  0  0  0  0  0  0  0  0  0  0
   -2.7850   25.2230  -29.3780 O   0  0  0  0  0  0  0  0  0  0  0  0
   -3.7520   24.5740  -30.1620 C   0  0  0  0  0  0  0  0  0  0  0  0
   -3.4910   23.3830  -30.8660 C   0  0  0  0  0  0  0  0  0  0  0  0
   -4.4960   22.7790  -31.6300 C   0  0  0  0  0  0  0  0  0  0  0  0
   -5.7800   23.3490  -31.7000 C   0  0  0  0  0  0  0  0  0  0  0  0
   -6.8390   22.7510  -32.4740 N   0  0  0  0  0  0  0  0  0  0  0  0
   -7.8040   21.7830  -31.9470 C   0  0  0  0  0  0  0  0  0  0  0  0
   -7.4770   20.3920  -32.4220 C   0  0  0  0  0  0  0  0  0  0  0  0
   -6.4410   20.1810  -33.3420 C   0  0  0  0  0  0  0  0  0  0  0  0
   -6.1400   18.8880  -33.7710 C   0  0  0  0  0  0  0  0  0  0  0  0
   -6.8750   17.8110  -33.2690 C   0  0  0  0  0  0  0  0  0  0  0  0
   -6.4760   16.0340  -33.8490 Br  0  0  0  0  0  0  0  0  0  0  0  0
   -7.8720   18.0270  -32.3670 N   0  0  0  0  0  0  0  0  0  0  0  0
   -8.1810   19.2800  -31.9350 C   0  0  0  0  0  0  0  0  0  0  0  0
   -6.0330   24.5380  -30.9990 C   0  0  0  0  0  0  0  0  0  0  0  0
   -5.0290   25.1410  -30.2370 C   0  0  0  0  0  0  0  0  0  0  0  0
   -0.8289   22.6520  -28.2757 H   0  0  0  0  0  0  0  0  0  0  0  0
   -1.3661   23.6066  -29.6994 H   0  0  0  0  0  0  0  0  0  0  0  0
    0.2523   22.8274  -29.6994 H   0  0  0  0  0  0  0  0  0  0  0  0
    0.7961   24.2912  -26.5120 H   0  0  0  0  0  0  0  0  0  0  0  0
    1.4270   23.1120  -27.7112 H   0  0  0  0  0  0  0  0  0  0  0  0
    2.0314   24.8035  -27.7112 H   0  0  0  0  0  0  0  0  0  0  0  0
   -0.7637   25.3002  -26.7001 H   0  0  0  0  0  0  0  0  0  0  0  0
   -0.8831   26.3869  -28.1371 H   0  0  0  0  0  0  0  0  0  0  0  0
   -2.3295   23.7089  -28.0438 H   0  0  0  0  0  0  0  0  0  0  0  0
   -3.0471   25.2049  -27.3313 H   0  0  0  0  0  0  0  0  0  0  0  0
   -2.4922   22.9250  -30.8153 H   0  0  0  0  0  0  0  0  0  0  0  0
   -4.2801   21.8512  -32.1801 H   0  0  0  0  0  0  0  0  0  0  0  0
   -6.9610   23.0510  -33.4670 H   0  0  0  0  0  0  0  0  0  0  0  0
   -7.7741   21.8054  -30.8476 H   0  0  0  0  0  0  0  0  0  0  0  0
   -8.8077   22.0526  -32.3073 H   0  0  0  0  0  0  0  0  0  0  0  0
   -5.8647   21.0356  -33.7262 H   0  0  0  0  0  0  0  0  0  0  0  0
   -5.3317   18.7181  -34.4975 H   0  0  0  0  0  0  0  0  0  0  0  0
   -8.4120   17.2150  -31.9940 H   0  0  0  0  0  0  0  0  0  0  0  0
   -8.9870   19.4219  -31.2000 H   0  0  0  0  0  0  0  0  0  0  0  0
   -7.0303   24.9993  -31.0498 H   0  0  0  0  0  0  0  0  0  0  0  0
   -5.2447   26.0709  -29.6905 H   0  0  0  0  0  0  0  0  0  0  0  0
  1  2  1  0
  2  3  1  0
  2  4  1  0
  4  5  1  0
  5  6  1  0
  6  7  1  0
  7  8  2  0
  8  9  1  0
  9 10  2  0
 10 11  1  0
 11 12  1  0
 12 13  1  0
 13 14  2  0
 14 15  1  0
 15 16  2  0
 16 17  1  0
 16 18  1  0
 18 19  2  0
 10 20  1  0
 20 21  2  0
 21  7  1  0
 19 13  1  0
  1 22  1  0
  1 23  1  0
  1 24  1  0
  3 25  1  0
  3 26  1  0
  3 27  1  0
  4 28  1  0
  4 29  1  0
  5 30  1  0
  5 31  1  0
  8 32  1  0
  9 33  1  0
 11 34  1  0
 12 35  1  0
 12 36  1  0
 14 37  1  0
 15 38  1  0
 18 39  1  0
 19 40  1  0
 20 41  1  0
 21 42  1  0
M  CHG  1  18   1
M  END
>  <UniqueID>  (31) 
30

>  <SMILES>  (31) 
CN(C)CCOc1ccc(NCc2ccc(Br)[nH+]c2)cc1

>  <Energy>  (31) 
40.432401495460816

>  <Genealogy>  (31) 
CN(C)CCOc1ccc(NCc2ccc(Br)[nH+]c2)cc1 (protonated)
CN(C)CCOc1ccc(NCc2ccc(Br)[nH+]c2)cc1 (3D coordinates assigned)
CN(C)CCOc1ccc(NCc2ccc(Br)[nH+]c2)cc1 (optimized conformer: 40.432401495460816 kcal/mol)

>  <smiles>  (31) 
CN(C)CCOc1ccc(NCc2ccc(Br)nc2)cc1

>  <score_type>  (31) 
oracle

>  <origin>  (31) 
adg

>  <m_score__min__energy>  (31) 
-7.71

>  <m_primary>  (31) 
energy

$$$$
31:0
     RDKit          3D

 62 65  0  0  0  0  0  0  0  0999 V2000
    0.3280   22.6080  -35.7130 C   0  0  0  0  0  0  0  0  0  0  0  0
    0.0100   21.9320  -34.5010 O   0  0  0  0  0  0  0  0  0  0  0  0
    0.0000   20.5370  -34.3450 C   0  0  0  0  0  0  0  0  0  0  0  0
    0.9950   19.7180  -34.9220 C   0  0  0  0  0  0  0  0  0  0  0  0
    0.9390   18.3300  -34.7800 C   0  0  0  0  0  0  0  0  0  0  0  0
   -0.1030   17.7410  -34.0630 C   0  0  0  0  0  0  0  0  0  0  0  0
   -1.0890   18.5390  -33.4810 C   0  0  0  0  0  0  0  0  0  0  0  0
   -1.0440   19.9380  -33.6090 C   0  0  0  0  0  0  0  0  0  0  0  0
   -2.0620   20.7460  -32.9870 N   0  0  0  0  0  0  0  0  0  0  0  0
   -1.7390   21.5070  -31.7750 C   0  0  0  0  0  0  0  0  0  0  0  0
   -3.0140   21.8870  -31.0190 C   0  0  0  0  0  0  0  0  0  0  0  0
   -3.9510   22.6050  -31.9080 N   0  0  0  0  0  0  0  0  0  0  0  0
   -5.1920   22.9460  -31.1800 C   0  0  0  0  0  0  0  0  0  0  0  0
   -6.4210   22.3800  -31.9090 C   0  0  0  0  0  0  0  0  0  0  0  0
   -7.1520   21.3080  -31.0850 C   0  0  0  0  0  0  0  0  0  0  0  0
   -7.9030   20.2980  -31.9650 C   0  0  0  0  0  0  0  0  0  0  0  0
   -7.0660   19.1120  -32.2070 N   0  0  0  0  0  0  0  0  0  0  0  0
   -6.9590   18.1630  -31.2290 C   0  0  0  0  0  0  0  0  0  0  0  0
   -6.1810   17.0650  -31.4050 N   0  0  0  0  0  0  0  0  0  0  0  0
   -5.4730   16.8750  -32.5540 C   0  0  0  0  0  0  0  0  0  0  0  0
   -4.6710   15.7270  -32.7290 C   0  0  0  0  0  0  0  0  0  0  0  0
   -4.6160   14.7700  -31.7020 O   0  0  0  0  0  0  0  0  0  0  0  0
   -3.8810   13.5520  -31.7700 C   0  0  0  0  0  0  0  0  0  0  0  0
   -3.9460   15.5680  -33.9270 C   0  0  0  0  0  0  0  0  0  0  0  0
   -4.0210   16.5320  -34.9330 C   0  0  0  0  0  0  0  0  0  0  0  0
   -4.8150   17.6650  -34.7640 C   0  0  0  0  0  0  0  0  0  0  0  0
   -5.5460   17.8460  -33.5780 C   0  0  0  0  0  0  0  0  0  0  0  0
   -6.3580   18.9760  -33.3730 C   0  0  0  0  0  0  0  0  0  0  0  0
   -6.4320   19.8670  -34.2660 O   0  0  0  0  0  0  0  0  0  0  0  0
   -4.2300   21.9040  -33.1960 C   0  0  0  0  0  0  0  0  0  0  0  0
   -3.4640   20.5810  -33.3770 C   0  0  0  0  0  0  0  0  0  0  0  0
    0.7857   23.5810  -35.4810 H   0  0  0  0  0  0  0  0  0  0  0  0
    1.0347   22.0003  -36.2972 H   0  0  0  0  0  0  0  0  0  0  0  0
   -0.5907   22.7650  -36.2972 H   0  0  0  0  0  0  0  0  0  0  0  0
    1.8198   20.1765  -35.4872 H   0  0  0  0  0  0  0  0  0  0  0  0
    1.7178   17.6998  -35.2342 H   0  0  0  0  0  0  0  0  0  0  0  0
   -0.1474   16.6471  -33.9564 H   0  0  0  0  0  0  0  0  0  0  0  0
   -1.9084   18.0691  -32.9173 H   0  0  0  0  0  0  0  0  0  0  0  0
   -1.1016   20.8927  -31.1221 H   0  0  0  0  0  0  0  0  0  0  0  0
   -1.2124   22.4280  -32.0656 H   0  0  0  0  0  0  0  0  0  0  0  0
   -3.4987   20.9730  -30.6452 H   0  0  0  0  0  0  0  0  0  0  0  0
   -2.7459   22.5457  -30.1798 H   0  0  0  0  0  0  0  0  0  0  0  0
   -5.1451   22.5203  -30.1668 H   0  0  0  0  0  0  0  0  0  0  0  0
   -5.2834   24.0410  -31.1294 H   0  0  0  0  0  0  0  0  0  0  0  0
   -7.1198   23.2043  -32.1147 H   0  0  0  0  0  0  0  0  0  0  0  0
   -6.0700   21.9062  -32.8376 H   0  0  0  0  0  0  0  0  0  0  0  0
   -6.4126   20.7651  -30.4779 H   0  0  0  0  0  0  0  0  0  0  0  0
   -7.8953   21.8200  -30.4563 H   0  0  0  0  0  0  0  0  0  0  0  0
   -8.8290   19.9914  -31.4565 H   0  0  0  0  0  0  0  0  0  0  0  0
   -8.1421   20.7707  -32.9290 H   0  0  0  0  0  0  0  0  0  0  0  0
   -7.5111   18.2911  -30.2863 H   0  0  0  0  0  0  0  0  0  0  0  0
   -6.1380   16.3660  -30.6290 H   0  0  0  0  0  0  0  0  0  0  0  0
   -3.6662   13.1960  -30.7516 H   0  0  0  0  0  0  0  0  0  0  0  0
   -4.4735   12.7956  -32.3055 H   0  0  0  0  0  0  0  0  0  0  0  0
   -2.9356   13.7237  -32.3055 H   0  0  0  0  0  0  0  0  0  0  0  0
   -3.3164   14.6774  -34.0700 H   0  0  0  0  0  0  0  0  0  0  0  0
   -3.4507   16.3971  -35.8639 H   0  0  0  0  0  0  0  0  0  0  0  0
   -4.8695   18.4201  -35.5620 H   0  0  0  0  0  0  0  0  0  0  0  0
   -5.3074   21.6874  -33.2438 H   0  0  0  0  0  0  0  0  0  0  0  0
   -3.8924   22.5755  -33.9992 H   0  0  0  0  0  0  0  0  0  0  0  0
   -3.9263   19.8055  -32.7486 H   0  0  0  0  0  0  0  0  0  0  0  0
   -3.5077   20.2850  -34.4355 H   0  0  0  0  0  0  0  0  0  0  0  0
  1  2  1  0
  2  3  1  0
  3  4  2  0
  4  5  1  0
  5  6  2  0
  6  7  1  0
  7  8  2  0
  8  9  1  0
  9 10  1  0
 10 11  1  0
 11 12  1  0
 12 13  1  0
 13 14  1  0
 14 15  1  0
 15 16  1  0
 16 17  1  0
 17 18  1  0
 18 19  2  0
 19 20  1  0
 20 21  2  0
 21 22  1  0
 22 23  1  0
 21 24  1  0
 24 25  2  0
 25 26  1  0
 26 27  2  0
 27 28  1  0
 28 29  2  0
 12 30  1  0
 30 31  1  0
  8  3  1  0
 31  9  1  0
 28 17  1  0
 27 20  1  0
  1 32  1  0
  1 33  1  0
  1 34  1  0
  4 35  1  0
  5 36  1  0
  6 37  1  0
  7 38  1  0
 10 39  1  0
 10 40  1  0
 11 41  1  0
 11 42  1  0
 13 43  1  0
 13 44  1  0
 14 45  1  0
 14 46  1  0
 15 47  1  0
 15 48  1  0
 16 49  1  0
 16 50  1  0
 18 51  1  0
 19 52  1  0
 23 53  1  0
 23 54  1  0
 23 55  1  0
 24 56  1  0
 25 57  1  0
 26 58  1  0
 30 59  1  0
 30 60  1  0
 31 61  1  0
 31 62  1  0
M  CHG  1  19   1
M  END
>  <UniqueID>  (32) 
31

>  <SMILES>  (32) 
COc1ccccc1N1CCN(CCCCn2c[nH+]c3c(OC)cccc3c2=O)CC1

>  <Energy>  (32) 
77.83001427192802

>  <Genealogy>  (32) 
COc1ccccc1N1CCN(CCCCn2c[nH+]c3c(OC)cccc3c2=O)CC1 (protonated)
COc1ccccc1N1CCN(CCCCn2c[nH+]c3c(OC)cccc3c2=O)CC1 (3D coordinates assigned)
COc1ccccc1N1CCN(CCCCn2c[nH+]c3c(OC)cccc3c2=O)CC1 (nonaromatic ring conformer: 77.83001427192802 kcal/mol)

>  <smiles>  (32) 
COc1ccccc1N1CCN(CCCCn2cnc3c(OC)cccc3c2=O)CC1

>  <score_type>  (32) 
oracle

>  <origin>  (32) 
adg

>  <m_score__min__energy>  (32) 
-8.1999999999999993

>  <m_primary>  (32) 
energy

$$$$
32:0
     RDKit          3D

 60 62  0  0  0  0  0  0  0  0999 V2000
   -4.9830   18.7300  -32.6630 C   0  0  0  0  0  0  0  0  0  0  0  0
   -6.0450   18.6790  -31.7200 O   0  0  0  0  0  0  0  0  0  0  0  0
   -7.2920   18.1230  -32.0170 C   0  0  0  0  0  0  0  0  0  0  0  0
   -7.3740   17.0550  -32.6850 O   0  0  0  0  0  0  0  0  0  0  0  0
   -8.5350   18.8430  -31.5880 C   0  0  0  0  0  0  0  0  0  0  0  0
   -9.2540   19.5490  -32.7490 C   0  0  0  0  0  0  0  0  0  0  0  0
   -9.9690   20.8480  -32.3520 C   0  0  0  0  0  0  0  0  0  0  0  0
   -9.0850   21.9710  -32.4310 O   0  0  0  0  0  0  0  0  0  0  0  0
   -7.8630   22.1190  -31.7530 C   0  0  0  0  0  0  0  0  0  0  0  0
   -7.8970   22.6140  -30.4450 C   0  0  0  0  0  0  0  0  0  0  0  0
   -6.7160   22.8010  -29.7220 C   0  0  0  0  0  0  0  0  0  0  0  0
   -5.4710   22.4890  -30.2950 C   0  0  0  0  0  0  0  0  0  0  0  0
   -4.2150   22.6980  -29.5310 C   0  0  0  0  0  0  0  0  0  0  0  0
   -2.9630   22.5090  -30.1450 C   0  0  0  0  0  0  0  0  0  0  0  0
   -1.7830   22.7100  -29.4260 C   0  0  0  0  0  0  0  0  0  0  0  0
   -1.8240   23.1000  -28.0830 C   0  0  0  0  0  0  0  0  0  0  0  0
   -0.6060   23.3010  -27.4140 O   0  0  0  0  0  0  0  0  0  0  0  0
   -0.4740   23.8010  -26.0800 C   0  0  2  0  0  0  0  0  0  0  0  0
   -0.8910   25.1570  -26.0010 O   0  0  0  0  0  0  0  0  0  0  0  0
   -0.0270   26.1040  -26.6300 C   0  0  2  0  0  0  0  0  0  0  0  0
   -0.7340   26.7940  -27.8070 C   0  0  0  0  0  0  0  0  0  0  0  0
   -1.0260   25.8810  -28.8310 O   0  0  0  0  0  0  0  0  0  0  0  0
    1.4040   25.6150  -26.9780 C   0  0  2  0  0  0  0  0  0  0  0  0
    1.4190   24.8870  -28.1820 O   0  0  0  0  0  0  0  0  0  0  0  0
    1.9180   24.7570  -25.8170 C   0  0  2  0  0  0  0  0  0  0  0  0
    3.2110   24.2790  -26.0900 O   0  0  0  0  0  0  0  0  0  0  0  0
    0.9690   23.5680  -25.5510 C   0  0  1  0  0  0  0  0  0  0  0  0
    0.9530   23.2590  -24.1790 O   0  0  0  0  0  0  0  0  0  0  0  0
   -3.0730   23.2880  -27.4620 C   0  0  0  0  0  0  0  0  0  0  0  0
   -4.2550   23.0900  -28.1810 C   0  0  0  0  0  0  0  0  0  0  0  0
   -5.4380   21.9750  -31.6030 C   0  0  0  0  0  0  0  0  0  0  0  0
   -6.6200   21.7830  -32.3230 C   0  0  0  0  0  0  0  0  0  0  0  0
   -4.0216   18.7762  -32.1304 H   0  0  0  0  0  0  0  0  0  0  0  0
   -5.0096   17.8295  -33.2942 H   0  0  0  0  0  0  0  0  0  0  0  0
   -5.0958   19.6238  -33.2942 H   0  0  0  0  0  0  0  0  0  0  0  0
   -9.2257   18.1130  -31.1406 H   0  0  0  0  0  0  0  0  0  0  0  0
   -8.2331   19.6187  -30.8689 H   0  0  0  0  0  0  0  0  0  0  0  0
   -8.5084   19.7883  -33.5215 H   0  0  0  0  0  0  0  0  0  0  0  0
  -10.0316   18.8574  -33.1054 H   0  0  0  0  0  0  0  0  0  0  0  0
  -10.8186   21.0118  -33.0312 H   0  0  0  0  0  0  0  0  0  0  0  0
  -10.3161   20.7507  -31.3127 H   0  0  0  0  0  0  0  0  0  0  0  0
   -8.8638   22.8586  -29.9807 H   0  0  0  0  0  0  0  0  0  0  0  0
   -6.7610   23.1955  -28.6962 H   0  0  0  0  0  0  0  0  0  0  0  0
   -2.9135   22.2005  -31.1997 H   0  0  0  0  0  0  0  0  0  0  0  0
   -0.8118   22.5603  -29.9203 H   0  0  0  0  0  0  0  0  0  0  0  0
   -1.1458   23.2376  -25.4157 H   0  0  0  0  0  0  0  0  0  0  0  0
    0.1756   26.8539  -25.8512 H   0  0  0  0  0  0  0  0  0  0  0  0
   -1.6722   27.2427  -27.4485 H   0  0  0  0  0  0  0  0  0  0  0  0
   -0.0631   27.5665  -28.2109 H   0  0  0  0  0  0  0  0  0  0  0  0
   -0.7240   24.9860  -28.5270 H   0  0  0  0  0  0  0  0  0  0  0  0
    2.0616   26.4850  -27.1221 H   0  0  0  0  0  0  0  0  0  0  0  0
    0.5280   24.4600  -28.2740 H   0  0  0  0  0  0  0  0  0  0  0  0
    1.9524   25.3909  -24.9187 H   0  0  0  0  0  0  0  0  0  0  0  0
    3.3060   24.2530  -27.0780 H   0  0  0  0  0  0  0  0  0  0  0  0
    1.3664   22.7124  -26.1168 H   0  0  0  0  0  0  0  0  0  0  0  0
    0.7130   24.0900  -23.6890 H   0  0  0  0  0  0  0  0  0  0  0  0
   -3.1190   23.5922  -26.4059 H   0  0  0  0  0  0  0  0  0  0  0  0
   -5.2256   23.2422  -27.6863 H   0  0  0  0  0  0  0  0  0  0  0  0
   -4.4721   21.7214  -32.0643 H   0  0  0  0  0  0  0  0  0  0  0  0
   -6.5793   21.3671  -33.3406 H   0  0  0  0  0  0  0  0  0  0  0  0
  1  2  1  0
  2  3  1  0
  3  4  2  0
  3  5  1  0
  5  6  1  0
  6  7  1  0
  7  8  1  0
  8  9  1  0
  9 10  2  0
 10 11  1  0
 11 12  2  0
 12 13  1  0
 13 14  2  0
 14 15  1  0
 15 16  2  0
 16 17  1  0
 17 18  1  0
 18 19  1  0
 19 20  1  0
 20 21  1  0
 21 22  1  0
 20 23  1  0
 23 24  1  0
 23 25  1  0
 25 26  1  0
 25 27  1  0
 27 28  1  0
 16 29  1  0
 29 30  2  0
 12 31  1  0
 31 32  2  0
 32  9  1  0
 30 13  1  0
 27 18  1  0
  1 33  1  0
  1 34  1  0
  1 35  1  0
  5 36  1  0
  5 37  1  0
  6 38  1  0
  6 39  1  0
  7 40  1  0
  7 41  1  0
 10 42  1  0
 11 43  1  0
 14 44  1  0
 15 45  1  0
 18 46  1  1
 20 47  1  1
 21 48  1  0
 21 49  1  0
 22 50  1  0
 23 51  1  6
 24 52  1  0
 25 53  1  1
 26 54  1  0
 27 55  1  6
 28 56  1  0
 29 57  1  0
 30 58  1  0
 31 59  1  0
 32 60  1  0
M  END
>  <UniqueID>  (33) 
32

>  <SMILES>  (33) 
COC(=O)CCCOc1ccc(-c2ccc(O[C@@H]3O[C@H](CO)C(O)C(O)C3O)cc2)cc1

>  <Energy>  (33) 
76.78271271398255

>  <Genealogy>  (33) 
COC(=O)CCCOc1ccc(-c2ccc(O[C@@H]3O[C@H](CO)C(O)C(O)C3O)cc2)cc1 (chirality)
COC(=O)CCCOc1ccc(-c2ccc(O[C@@H]3O[C@H](CO)C(O)C(O)C3O)cc2)cc1 (3D coordinates assigned)
COC(=O)CCCOc1ccc(-c2ccc(O[C@@H]3O[C@H](CO)C(O)C(O)C3O)cc2)cc1 (nonaromatic ring conformer: 76.78271271398255 kcal/mol)

>  <smiles>  (33) 
COC(=O)CCCOc1ccc(-c2ccc(OC3OC(CO)C(O)C(O)C3O)cc2)cc1

>  <score_type>  (33) 
oracle

>  <origin>  (33) 
adg

>  <m_score__min__energy>  (33) 
-6.6200000000000001

>  <m_primary>  (33) 
energy

$$$$
33:0
     RDKit          3D

 35 36  0  0  0  0  0  0  0  0999 V2000
   -3.8520   23.2460  -28.7890 C   0  0  0  0  0  0  0  0  0  0  0  0
   -3.0040   24.1310  -29.6930 C   0  0  0  0  0  0  0  0  0  0  0  0
   -3.8650   25.0560  -30.4410 N   0  0  0  0  0  0  0  0  0  0  0  0
   -5.2930   24.7820  -30.2070 C   0  0  0  0  0  0  0  0  0  0  0  0
   -6.0260   24.5440  -31.5320 C   0  0  0  0  0  0  0  0  0  0  0  0
   -5.9460   23.0950  -31.9720 C   0  0  0  0  0  0  0  0  0  0  0  0
   -4.6860   22.5940  -32.3300 C   0  0  0  0  0  0  0  0  0  0  0  0
   -4.5370   21.2620  -32.7250 C   0  0  0  0  0  0  0  0  0  0  0  0
   -3.1780   20.7320  -33.0740 C   0  0  0  0  0  0  0  0  0  0  0  0
   -5.6150   20.4300  -32.7250 N   0  0  0  0  0  0  0  0  0  0  0  0
   -6.8580   20.8650  -32.3710 C   0  0  0  0  0  0  0  0  0  0  0  0
   -7.9390   19.9680  -32.3800 C   0  0  0  0  0  0  0  0  0  0  0  0
   -9.2130   20.3930  -32.0070 C   0  0  0  0  0  0  0  0  0  0  0  0
   -9.4220   21.7140  -31.6190 C   0  0  0  0  0  0  0  0  0  0  0  0
   -8.3610   22.6220  -31.6030 C   0  0  0  0  0  0  0  0  0  0  0  0
   -7.0610   22.2160  -31.9810 C   0  0  0  0  0  0  0  0  0  0  0  0
   -3.6303   23.4774  -27.7367 H   0  0  0  0  0  0  0  0  0  0  0  0
   -4.9176   23.4321  -28.9887 H   0  0  0  0  0  0  0  0  0  0  0  0
   -3.6206   22.1893  -28.9887 H   0  0  0  0  0  0  0  0  0  0  0  0
   -2.2968   24.7077  -29.0788 H   0  0  0  0  0  0  0  0  0  0  0  0
   -2.4515   23.4979  -30.4029 H   0  0  0  0  0  0  0  0  0  0  0  0
   -3.6650   24.9240  -31.4610 H   0  0  0  0  0  0  0  0  0  0  0  0
   -5.3896   23.8865  -29.5755 H   0  0  0  0  0  0  0  0  0  0  0  0
   -5.7418   25.6532  -29.7074 H   0  0  0  0  0  0  0  0  0  0  0  0
   -7.0836   24.8197  -31.4075 H   0  0  0  0  0  0  0  0  0  0  0  0
   -5.5427   25.1611  -32.3038 H   0  0  0  0  0  0  0  0  0  0  0  0
   -3.8075   23.2553  -32.2996 H   0  0  0  0  0  0  0  0  0  0  0  0
   -2.6209   20.5148  -32.1507 H   0  0  0  0  0  0  0  0  0  0  0  0
   -3.2845   19.8095  -33.6636 H   0  0  0  0  0  0  0  0  0  0  0  0
   -2.6319   21.4830  -33.6636 H   0  0  0  0  0  0  0  0  0  0  0  0
   -5.4790   19.4300  -32.9990 H   0  0  0  0  0  0  0  0  0  0  0  0
   -7.7790   18.9229  -32.6835 H   0  0  0  0  0  0  0  0  0  0  0  0
  -10.0541   19.6842  -32.0191 H   0  0  0  0  0  0  0  0  0  0  0  0
  -10.4287   22.0442  -31.3234 H   0  0  0  0  0  0  0  0  0  0  0  0
   -8.5387   23.6625  -31.2934 H   0  0  0  0  0  0  0  0  0  0  0  0
  1  2  1  0
  2  3  1  0
  3  4  1  0
  4  5  1  0
  5  6  1  0
  6  7  2  0
  7  8  1  0
  8  9  1  0
  8 10  2  0
 10 11  1  0
 11 12  2  0
 12 13  1  0
 13 14  2  0
 14 15  1  0
 15 16  2  0
 16  6  1  0
 16 11  1  0
  1 17  1  0
  1 18  1  0
  1 19  1  0
  2 20  1  0
  2 21  1  0
  3 22  1  0
  4 23  1  0
  4 24  1  0
  5 25  1  0
  5 26  1  0
  7 27  1  0
  9 28  1  0
  9 29  1  0
  9 30  1  0
 10 31  1  0
 12 32  1  0
 13 33  1  0
 14 34  1  0
 15 35  1  0
M  CHG  1  10   1
M  END
>  <UniqueID>  (34) 
33

>  <SMILES>  (34) 
CCNCCc1cc(C)[nH+]c2ccccc12

>  <Energy>  (34) 
34.07536365812602

>  <Genealogy>  (34) 
CCNCCc1cc(C)[nH+]c2ccccc12 (protonated)
CCNCCc1cc(C)[nH+]c2ccccc12 (3D coordinates assigned)
CCNCCc1cc(C)[nH+]c2ccccc12 (optimized conformer: 34.07536365812602 kcal/mol)

>  <smiles>  (34) 
CCNCCc1cc(C)nc2ccccc12

>  <score_type>  (34) 
oracle

>  <origin>  (34) 
adg

>  <m_score__min__energy>  (34) 
-6.8899999999999997

>  <m_primary>  (34) 
energy

$$$$
34:0
     RDKit          3D

 57 60  0  0  0  0  0  0  0  0999 V2000
   -0.8440   15.1140  -36.6580 C   0  0  0  0  0  0  0  0  0  0  0  0
   -0.4540   15.5820  -35.3840 O   0  0  0  0  0  0  0  0  0  0  0  0
   -0.3710   14.5000  -34.4800 C   0  0  0  0  0  0  0  0  0  0  0  0
   -1.5530   13.7050  -34.5650 O   0  0  0  0  0  0  0  0  0  0  0  0
   -2.5910   13.8140  -33.6370 C   0  0  0  0  0  0  0  0  0  0  0  0
   -2.9770   12.6680  -32.9290 C   0  0  0  0  0  0  0  0  0  0  0  0
   -3.9670   12.7460  -31.9480 C   0  0  0  0  0  0  0  0  0  0  0  0
   -4.5830   13.9690  -31.6700 C   0  0  0  0  0  0  0  0  0  0  0  0
   -4.2220   15.1110  -32.3870 C   0  0  0  0  0  0  0  0  0  0  0  0
   -3.2500   15.0420  -33.3970 C   0  0  0  0  0  0  0  0  0  0  0  0
   -2.9370   16.2310  -34.1430 N   0  0  0  0  0  0  0  0  0  0  0  0
   -3.3780   17.5520  -33.7830 C   0  0  0  0  0  0  0  0  0  0  0  0
   -2.5390   18.4420  -33.0920 C   0  0  0  0  0  0  0  0  0  0  0  0
   -3.0010   19.7080  -32.7280 C   0  0  0  0  0  0  0  0  0  0  0  0
   -4.3060   20.1060  -33.0520 C   0  0  0  0  0  0  0  0  0  0  0  0
   -5.1290   19.2520  -33.7970 C   0  0  0  0  0  0  0  0  0  0  0  0
   -4.6650   17.9720  -34.1500 C   0  0  0  0  0  0  0  0  0  0  0  0
   -6.5100   19.6970  -34.1790 C   0  0  0  0  0  0  0  0  0  0  0  0
   -7.3970   19.7400  -32.9400 C   0  0  0  0  0  0  0  0  0  0  0  0
   -7.2140   20.9440  -32.0250 C   0  0  0  0  0  0  0  0  0  0  0  0
   -8.3380   21.2920  -31.2530 C   0  0  0  0  0  0  0  0  0  0  0  0
   -8.2890   22.3230  -30.3230 C   0  0  0  0  0  0  0  0  0  0  0  0
   -7.1040   23.0100  -30.1090 C   0  0  0  0  0  0  0  0  0  0  0  0
   -5.9480   22.6750  -30.8220 C   0  0  0  0  0  0  0  0  0  0  0  0
   -4.6980   23.3760  -30.4600 C   0  0  0  0  0  0  0  0  0  0  0  0
   -4.3150   24.3480  -31.1640 O   0  0  0  0  0  0  0  0  0  0  0  0
   -3.9020   22.9690  -29.3390 N   0  0  0  0  0  0  0  0  0  0  0  0
   -3.4480   23.8540  -28.2680 C   0  0  0  0  0  0  0  0  0  0  0  0
   -2.0180   24.3100  -28.5260 C   0  0  0  0  0  0  0  0  0  0  0  0
   -2.0200   25.5960  -29.0370 F   0  0  0  0  0  0  0  0  0  0  0  0
   -5.9910   21.6660  -31.8300 C   0  0  0  0  0  0  0  0  0  0  0  0
   -4.7710   21.4460  -32.6640 C   0  0  0  0  0  0  0  0  0  0  0  0
   -4.0720   22.4360  -33.0160 O   0  0  0  0  0  0  0  0  0  0  0  0
   -1.5442   14.2737  -36.5414 H   0  0  0  0  0  0  0  0  0  0  0  0
   -1.3358   15.9268  -37.2125 H   0  0  0  0  0  0  0  0  0  0  0  0
    0.0442   14.7769  -37.2125 H   0  0  0  0  0  0  0  0  0  0  0  0
    0.5035   13.8815  -34.7306 H   0  0  0  0  0  0  0  0  0  0  0  0
   -0.2694   14.8899  -33.4565 H   0  0  0  0  0  0  0  0  0  0  0  0
   -2.4976   11.7023  -33.1473 H   0  0  0  0  0  0  0  0  0  0  0  0
   -4.2626   11.8434  -31.3930 H   0  0  0  0  0  0  0  0  0  0  0  0
   -5.3523   14.0319  -30.8863 H   0  0  0  0  0  0  0  0  0  0  0  0
   -4.7035   16.0732  -32.1584 H   0  0  0  0  0  0  0  0  0  0  0  0
   -2.2990   16.1330  -34.9650 H   0  0  0  0  0  0  0  0  0  0  0  0
   -1.5127   18.1397  -32.8364 H   0  0  0  0  0  0  0  0  0  0  0  0
   -2.3379   20.3969  -32.1842 H   0  0  0  0  0  0  0  0  0  0  0  0
   -5.3177   17.2938  -34.7193 H   0  0  0  0  0  0  0  0  0  0  0  0
   -6.4599   20.7000  -34.6278 H   0  0  0  0  0  0  0  0  0  0  0  0
   -6.9333   18.9879  -34.9056 H   0  0  0  0  0  0  0  0  0  0  0  0
   -8.4443   19.7297  -33.2762 H   0  0  0  0  0  0  0  0  0  0  0  0
   -7.1066   18.8658  -32.3388 H   0  0  0  0  0  0  0  0  0  0  0  0
   -9.2768   20.7350  -31.3890 H   0  0  0  0  0  0  0  0  0  0  0  0
   -9.1915   22.5945  -29.7558 H   0  0  0  0  0  0  0  0  0  0  0  0
   -7.0725   23.8259  -29.3719 H   0  0  0  0  0  0  0  0  0  0  0  0
   -4.1062   24.7341  -28.2217 H   0  0  0  0  0  0  0  0  0  0  0  0
   -3.4812   23.3063  -27.3146 H   0  0  0  0  0  0  0  0  0  0  0  0
   -1.4536   24.2933  -27.5820 H   0  0  0  0  0  0  0  0  0  0  0  0
   -1.5465   23.6318  -29.2524 H   0  0  0  0  0  0  0  0  0  0  0  0
  1  2  1  0
  2  3  1  0
  3  4  1  0
  4  5  1  0
  5  6  2  0
  6  7  1  0
  7  8  2  0
  8  9  1  0
  9 10  2  0
 10 11  1  0
 11 12  1  0
 12 13  2  0
 13 14  1  0
 14 15  2  0
 15 16  1  0
 16 17  2  0
 16 18  1  0
 18 19  1  0
 19 20  1  0
 20 21  2  0
 21 22  1  0
 22 23  2  0
 23 24  1  0
 24 25  1  0
 25 26  2  0
 25 27  1  0
 27 28  1  0
 28 29  1  0
 29 30  1  0
 24 31  2  0
 31 32  1  0
 32 33  2  0
 10  5  1  0
 17 12  1  0
 31 20  1  0
 32 15  1  0
  1 34  1  0
  1 35  1  0
  1 36  1  0
  3 37  1  0
  3 38  1  0
  6 39  1  0
  7 40  1  0
  8 41  1  0
  9 42  1  0
 11 43  1  0
 13 44  1  0
 14 45  1  0
 17 46  1  0
 18 47  1  0
 18 48  1  0
 19 49  1  0
 19 50  1  0
 21 51  1  0
 22 52  1  0
 23 53  1  0
 28 54  1  0
 28 55  1  0
 29 56  1  0
 29 57  1  0
M  CHG  1  27  -1
M  END
>  <UniqueID>  (35) 
34

>  <SMILES>  (35) 
COCOc1ccccc1Nc1ccc2c(c1)CCc1cccc(C(=O)[N-]CCF)c1C2=O

>  <Energy>  (35) 
94.22802880456808

>  <Genealogy>  (35) 
COCOc1ccccc1Nc1ccc2c(c1)CCc1cccc(C(=O)[N-]CCF)c1C2=O (protonated)
COCOc1ccccc1Nc1ccc2c(c1)CCc1cccc(C(=O)[N-]CCF)c1C2=O (3D coordinates assigned)
COCOc1ccccc1Nc1ccc2c(c1)CCc1cccc(C(=O)[N-]CCF)c1C2=O (nonaromatic ring conformer: 94.22802880456808 kcal/mol)

>  <smiles>  (35) 
COCOc1ccccc1Nc1ccc2c(c1)CCc1cccc(C(=O)NCCF)c1C2=O

>  <score_type>  (35) 
oracle

>  <origin>  (35) 
adg

>  <m_score__min__energy>  (35) 
-7.8600000000000003

>  <m_primary>  (35) 
energy

$$$$
35:0
     RDKit          3D

 50 52  0  0  0  0  0  0  0  0999 V2000
   -6.1360   25.3910  -29.5640 C   0  0  0  0  0  0  0  0  0  0  0  0
   -5.3250   25.1250  -30.8280 C   0  0  0  0  0  0  0  0  0  0  0  0
   -3.9330   25.0270  -30.5260 O   0  0  0  0  0  0  0  0  0  0  0  0
   -3.1810   23.8400  -30.5010 C   0  0  0  0  0  0  0  0  0  0  0  0
   -2.0920   23.7710  -29.6240 C   0  0  0  0  0  0  0  0  0  0  0  0
   -1.3130   22.6140  -29.5500 C   0  0  0  0  0  0  0  0  0  0  0  0
   -1.6130   21.5130  -30.3540 C   0  0  0  0  0  0  0  0  0  0  0  0
   -2.7010   21.5600  -31.2410 C   0  0  0  0  0  0  0  0  0  0  0  0
   -3.0180   20.3890  -32.0850 C   0  0  0  0  0  0  0  0  0  0  0  0
   -4.1700   20.2570  -32.7790 N   0  0  0  0  0  0  0  0  0  0  0  0
   -4.0320   19.0570  -33.3740 C   0  0  0  0  0  0  0  0  0  0  0  0
   -5.0490   18.4460  -34.3000 C   0  0  0  0  0  0  0  0  0  0  0  0
   -6.3870   19.0310  -34.1150 N   0  0  0  0  0  0  0  0  0  0  0  0
   -7.1730   18.3010  -33.1060 C   0  0  0  0  0  0  0  0  0  0  0  0
   -7.7160   19.2600  -32.0390 C   0  0  0  0  0  0  0  0  0  0  0  0
   -8.0520   20.5650  -32.6550 N   0  0  0  0  0  0  0  0  0  0  0  0
   -7.0520   21.6030  -32.3360 C   0  0  0  0  0  0  0  0  0  0  0  0
   -7.1260   22.0350  -30.8520 C   0  0  0  0  0  0  0  0  0  0  0  0
   -8.3320   21.6450  -30.2190 O   0  0  0  0  0  0  0  0  0  0  0  0
   -9.4330   21.9320  -31.0540 C   0  0  0  0  0  0  0  0  0  0  0  0
   -9.4180   21.0240  -32.3020 C   0  0  0  0  0  0  0  0  0  0  0  0
   -2.8110   18.5150  -33.0430 C   0  0  0  0  0  0  0  0  0  0  0  0
   -2.2120   19.3610  -32.2420 O   0  0  0  0  0  0  0  0  0  0  0  0
   -3.4840   22.7250  -31.3090 C   0  0  0  0  0  0  0  0  0  0  0  0
   -5.5143   25.1871  -28.6798 H   0  0  0  0  0  0  0  0  0  0  0  0
   -6.4594   26.4423  -29.5503 H   0  0  0  0  0  0  0  0  0  0  0  0
   -7.0192   24.7355  -29.5503 H   0  0  0  0  0  0  0  0  0  0  0  0
   -5.6629   24.1815  -31.2814 H   0  0  0  0  0  0  0  0  0  0  0  0
   -5.4762   25.9612  -31.5265 H   0  0  0  0  0  0  0  0  0  0  0  0
   -1.8479   24.6348  -28.9882 H   0  0  0  0  0  0  0  0  0  0  0  0
   -0.4606   22.5703  -28.8561 H   0  0  0  0  0  0  0  0  0  0  0  0
   -0.9949   20.6051  -30.2926 H   0  0  0  0  0  0  0  0  0  0  0  0
   -4.7289   18.6137  -35.3390 H   0  0  0  0  0  0  0  0  0  0  0  0
   -5.1139   17.3720  -34.0713 H   0  0  0  0  0  0  0  0  0  0  0  0
   -6.2990   20.0390  -33.8430 H   0  0  0  0  0  0  0  0  0  0  0  0
   -6.8900   18.9850  -35.0330 H   0  0  0  0  0  0  0  0  0  0  0  0
   -8.0165   17.7976  -33.6011 H   0  0  0  0  0  0  0  0  0  0  0  0
   -6.5199   17.5632  -32.6169 H   0  0  0  0  0  0  0  0  0  0  0  0
   -8.6203   18.8271  -31.5864 H   0  0  0  0  0  0  0  0  0  0  0  0
   -6.9484   19.4124  -31.2659 H   0  0  0  0  0  0  0  0  0  0  0  0
   -6.0474   21.2047  -32.5413 H   0  0  0  0  0  0  0  0  0  0  0  0
   -7.2628   22.4842  -32.9597 H   0  0  0  0  0  0  0  0  0  0  0  0
   -6.2836   21.5781  -30.3120 H   0  0  0  0  0  0  0  0  0  0  0  0
   -7.0834   23.1339  -30.8278 H   0  0  0  0  0  0  0  0  0  0  0  0
  -10.3650   21.7628  -30.4947 H   0  0  0  0  0  0  0  0  0  0  0  0
   -9.3693   22.9814  -31.3775 H   0  0  0  0  0  0  0  0  0  0  0  0
  -10.0461   20.1428  -32.1046 H   0  0  0  0  0  0  0  0  0  0  0  0
   -9.8015   21.6130  -33.1482 H   0  0  0  0  0  0  0  0  0  0  0  0
   -2.4118   17.5496  -33.3875 H   0  0  0  0  0  0  0  0  0  0  0  0
   -4.3403   22.7673  -31.9982 H   0  0  0  0  0  0  0  0  0  0  0  0
  1  2  1  0
  2  3  1  0
  3  4  1  0
  4  5  2  0
  5  6  1  0
  6  7  2  0
  7  8  1  0
  8  9  1  0
  9 10  2  0
 10 11  1  0
 11 12  1  0
 12 13  1  0
 13 14  1  0
 14 15  1  0
 15 16  1  0
 16 17  1  0
 17 18  1  0
 18 19  1  0
 19 20  1  0
 20 21  1  0
 11 22  2  0
 22 23  1  0
  8 24  2  0
 24  4  1  0
 23  9  1  0
 21 16  1  0
  1 25  1  0
  1 26  1  0
  1 27  1  0
  2 28  1  0
  2 29  1  0
  5 30  1  0
  6 31  1  0
  7 32  1  0
 12 33  1  0
 12 34  1  0
 13 35  1  0
 13 36  1  0
 14 37  1  0
 14 38  1  0
 15 39  1  0
 15 40  1  0
 17 41  1  0
 17 42  1  0
 18 43  1  0
 18 44  1  0
 20 45  1  0
 20 46  1  0
 21 47  1  0
 21 48  1  0
 22 49  1  0
 24 50  1  0
M  CHG  1  13   1
M  END
>  <UniqueID>  (36) 
35

>  <SMILES>  (36) 
CCOc1cccc(-c2nc(C[NH2+]CCN3CCOCC3)co2)c1

>  <Energy>  (36) 
87.85052515825939

>  <Genealogy>  (36) 
CCOc1cccc(-c2nc(C[NH2+]CCN3CCOCC3)co2)c1 (protonated)
CCOc1cccc(-c2nc(C[NH2+]CCN3CCOCC3)co2)c1 (3D coordinates assigned)
CCOc1cccc(-c2nc(C[NH2+]CCN3CCOCC3)co2)c1 (nonaromatic ring conformer: 87.85052515825939 kcal/mol)

>  <smiles>  (36) 
CCOc1cccc(-c2nc(CNCCN3CCOCC3)co2)c1

>  <score_type>  (36) 
oracle

>  <origin>  (36) 
adg

>  <m_score__min__energy>  (36) 
-6.9500000000000002

>  <m_primary>  (36) 
energy

$$$$
36:0
     RDKit          3D

 75 78  0  0  0  0  0  0  0  0999 V2000
   -2.1780   23.9930  -28.7620 C   0  0  0  0  0  0  0  0  0  0  0  0
   -3.5890   24.5420  -29.0180 C   0  0  0  0  0  0  0  0  0  0  0  0
   -3.9480   24.6540  -30.4540 N   0  0  0  0  0  0  0  0  0  0  0  0
   -5.1590   25.4690  -30.7080 C   0  0  0  0  0  0  0  0  0  0  0  0
   -6.0980   25.4740  -29.5020 C   0  0  0  0  0  0  0  0  0  0  0  0
   -4.0330   23.3310  -31.1140 C   0  0  0  0  0  0  0  0  0  0  0  0
   -5.4970   22.9280  -31.3000 C   0  0  0  0  0  0  0  0  0  0  0  0
   -5.7000   22.3530  -32.6290 N   0  0  0  0  0  0  0  0  0  0  0  0
   -5.7050   20.9280  -32.8210 C   0  0  0  0  0  0  0  0  0  0  0  0
   -6.8520   20.1740  -32.5120 C   0  0  0  0  0  0  0  0  0  0  0  0
   -7.9880   20.7820  -31.9360 C   0  0  0  0  0  0  0  0  0  0  0  0
   -9.1070   20.0240  -31.5980 C   0  0  0  0  0  0  0  0  0  0  0  0
   -9.1100   18.6520  -31.8180 C   0  0  0  0  0  0  0  0  0  0  0  0
   -8.0060   18.0320  -32.4030 C   0  0  0  0  0  0  0  0  0  0  0  0
   -6.8690   18.7820  -32.7960 C   0  0  0  0  0  0  0  0  0  0  0  0
   -5.7930   18.1920  -33.4350 N   0  0  0  0  0  0  0  0  0  0  0  0
   -5.9280   16.8320  -34.0030 C   0  0  0  0  0  0  0  0  0  0  0  0
   -4.6030   18.8820  -33.5660 C   0  0  0  0  0  0  0  0  0  0  0  0
   -3.4040   18.2340  -33.9580 C   0  0  0  0  0  0  0  0  0  0  0  0
   -2.2120   18.9410  -34.1320 C   0  0  0  0  0  0  0  0  0  0  0  0
   -1.0770   18.2250  -34.5480 O   0  0  0  0  0  0  0  0  0  0  0  0
   -0.0670   17.6900  -33.6920 C   0  0  0  0  0  0  0  0  0  0  0  0
    0.9660   18.7640  -33.2550 C   0  0  0  0  0  0  0  0  0  0  0  0
    0.8340   19.3120  -31.8610 N   0  0  0  0  0  0  0  0  0  0  0  0
    2.1600   19.2890  -31.1870 C   0  0  0  0  0  0  0  0  0  0  0  0
    0.3690   20.7460  -31.9860 C   0  0  0  0  0  0  0  0  0  0  0  0
   -0.7560   21.1610  -31.0150 C   0  0  0  0  0  0  0  0  0  0  0  0
   -0.5290   20.5800  -29.6280 C   0  0  0  0  0  0  0  0  0  0  0  0
   -0.4350   19.0500  -29.6720 C   0  0  0  0  0  0  0  0  0  0  0  0
   -0.1440   18.4910  -31.0830 C   0  0  0  0  0  0  0  0  0  0  0  0
   -2.1880   20.3190  -33.8780 C   0  0  0  0  0  0  0  0  0  0  0  0
   -3.3400   20.9730  -33.4490 C   0  0  0  0  0  0  0  0  0  0  0  0
   -4.5520   20.2730  -33.2860 C   0  0  0  0  0  0  0  0  0  0  0  0
   -2.0022   23.9246  -27.6783 H   0  0  0  0  0  0  0  0  0  0  0  0
   -2.0862   22.9935  -29.2122 H   0  0  0  0  0  0  0  0  0  0  0  0
   -1.4348   24.6676  -29.2122 H   0  0  0  0  0  0  0  0  0  0  0  0
   -4.3133   23.8712  -28.5328 H   0  0  0  0  0  0  0  0  0  0  0  0
   -3.6103   25.5620  -28.6068 H   0  0  0  0  0  0  0  0  0  0  0  0
   -4.8538   26.5029  -30.9269 H   0  0  0  0  0  0  0  0  0  0  0  0
   -5.6969   25.0288  -31.5606 H   0  0  0  0  0  0  0  0  0  0  0  0
   -5.5050   25.4708  -28.5756 H   0  0  0  0  0  0  0  0  0  0  0  0
   -6.7276   26.3755  -29.5313 H   0  0  0  0  0  0  0  0  0  0  0  0
   -6.7372   24.5792  -29.5313 H   0  0  0  0  0  0  0  0  0  0  0  0
   -3.5425   23.3830  -32.0972 H   0  0  0  0  0  0  0  0  0  0  0  0
   -3.5312   22.5820  -30.4838 H   0  0  0  0  0  0  0  0  0  0  0  0
   -5.7682   22.1834  -30.5371 H   0  0  0  0  0  0  0  0  0  0  0  0
   -6.1301   23.8215  -31.1961 H   0  0  0  0  0  0  0  0  0  0  0  0
   -5.5840   22.9770  -33.4600 H   0  0  0  0  0  0  0  0  0  0  0  0
   -7.9899   21.8665  -31.7519 H   0  0  0  0  0  0  0  0  0  0  0  0
   -9.9886   20.5119  -31.1567 H   0  0  0  0  0  0  0  0  0  0  0  0
   -9.9862   18.0527  -31.5298 H   0  0  0  0  0  0  0  0  0  0  0  0
   -8.0178   16.9436  -32.5620 H   0  0  0  0  0  0  0  0  0  0  0  0
   -6.0008   16.0990  -33.1860 H   0  0  0  0  0  0  0  0  0  0  0  0
   -6.8355   16.7818  -34.6226 H   0  0  0  0  0  0  0  0  0  0  0  0
   -5.0480   16.6044  -34.6226 H   0  0  0  0  0  0  0  0  0  0  0  0
   -3.4129   17.1475  -34.1293 H   0  0  0  0  0  0  0  0  0  0  0  0
   -0.5479   17.2758  -32.7936 H   0  0  0  0  0  0  0  0  0  0  0  0
    0.4728   16.9133  -34.2536 H   0  0  0  0  0  0  0  0  0  0  0  0
    1.9670   18.3162  -33.3419 H   0  0  0  0  0  0  0  0  0  0  0  0
    0.7824   19.6226  -33.9176 H   0  0  0  0  0  0  0  0  0  0  0  0
    2.0170   19.2915  -30.0963 H   0  0  0  0  0  0  0  0  0  0  0  0
    2.7062   18.3812  -31.4831 H   0  0  0  0  0  0  0  0  0  0  0  0
    2.7373   20.1773  -31.4831 H   0  0  0  0  0  0  0  0  0  0  0  0
    1.2339   21.4009  -31.8040 H   0  0  0  0  0  0  0  0  0  0  0  0
   -0.0514   20.8425  -32.9979 H   0  0  0  0  0  0  0  0  0  0  0  0
   -0.7819   22.2584  -30.9443 H   0  0  0  0  0  0  0  0  0  0  0  0
   -1.7101   20.7741  -31.4023 H   0  0  0  0  0  0  0  0  0  0  0  0
    0.4086   20.9848  -29.2193 H   0  0  0  0  0  0  0  0  0  0  0  0
   -1.3829   20.8567  -28.9922 H   0  0  0  0  0  0  0  0  0  0  0  0
    0.3734   18.7312  -28.9976 H   0  0  0  0  0  0  0  0  0  0  0  0
   -1.4148   18.6565  -29.3636 H   0  0  0  0  0  0  0  0  0  0  0  0
    0.2617   17.4740  -30.9775 H   0  0  0  0  0  0  0  0  0  0  0  0
   -1.0932   18.5066  -31.6388 H   0  0  0  0  0  0  0  0  0  0  0  0
   -1.2558   20.8860  -34.0180 H   0  0  0  0  0  0  0  0  0  0  0  0
   -3.3034   22.0512  -33.2343 H   0  0  0  0  0  0  0  0  0  0  0  0
  1  2  1  0
  2  3  1  0
  3  4  1  0
  4  5  1  0
  3  6  1  0
  6  7  1  0
  7  8  1  0
  8  9  1  0
  9 10  2  0
 10 11  1  0
 11 12  2  0
 12 13  1  0
 13 14  2  0
 14 15  1  0
 15 16  2  0
 16 17  1  0
 16 18  1  0
 18 19  2  0
 19 20  1  0
 20 21  1  0
 21 22  1  0
 22 23  1  0
 23 24  1  0
 24 25  1  0
 24 26  1  0
 26 27  1  0
 27 28  1  0
 28 29  1  0
 29 30  1  0
 20 31  2  0
 31 32  1  0
 32 33  2  0
 33  9  1  0
 15 10  1  0
 33 18  1  0
 30 24  1  0
  1 34  1  0
  1 35  1  0
  1 36  1  0
  2 37  1  0
  2 38  1  0
  4 39  1  0
  4 40  1  0
  5 41  1  0
  5 42  1  0
  5 43  1  0
  6 44  1  0
  6 45  1  0
  7 46  1  0
  7 47  1  0
  8 48  1  0
 11 49  1  0
 12 50  1  0
 13 51  1  0
 14 52  1  0
 17 53  1  0
 17 54  1  0
 17 55  1  0
 19 56  1  0
 22 57  1  0
 22 58  1  0
 23 59  1  0
 23 60  1  0
 25 61  1  0
 25 62  1  0
 25 63  1  0
 26 64  1  0
 26 65  1  0
 27 66  1  0
 27 67  1  0
 28 68  1  0
 28 69  1  0
 29 70  1  0
 29 71  1  0
 30 72  1  0
 30 73  1  0
 31 74  1  0
 32 75  1  0
M  CHG  2  16   1  24   1
M  END
>  <UniqueID>  (37) 
36

>  <SMILES>  (37) 
CCN(CC)CCNc1c2ccccc2[n+](C)c2cc(OCC[N+]3(C)CCCCC3)ccc12

>  <Energy>  (37) 
121.0157970312835

>  <Genealogy>  (37) 
CCN(CC)CCNc1c2ccccc2[n+](C)c2cc(OCC[N+]3(C)CCCCC3)ccc12 (3D coordinates assigned)
CCN(CC)CCNc1c2ccccc2[n+](C)c2cc(OCC[N+]3(C)CCCCC3)ccc12 (nonaromatic ring conformer: 121.0157970312835 kcal/mol)

>  <smiles>  (37) 
CCN(CC)CCNc1c2ccccc2[n+](C)c2cc(OCC[N+]3(C)CCCCC3)ccc12

>  <score_type>  (37) 
oracle

>  <origin>  (37) 
adg

>  <m_score__min__energy>  (37) 
-8.4900000000000002

>  <m_primary>  (37) 
energy

$$$$
37:0
     RDKit          3D

 41 43  0  0  0  0  0  0  0  0999 V2000
   -3.8740   21.1550  -32.9800 C   0  0  0  0  0  0  0  0  0  0  0  0
   -4.2950   19.8090  -33.4750 C   0  0  0  0  0  0  0  0  0  0  0  0
   -3.4530   18.9530  -34.0850 N   0  0  0  0  0  0  0  0  0  0  0  0
   -4.1430   17.8730  -34.4140 N   0  0  0  0  0  0  0  0  0  0  0  0
   -3.5570   16.7220  -35.0920 C   0  0  0  0  0  0  0  0  0  0  0  0
   -5.4250   18.0060  -34.0070 C   0  0  0  0  0  0  0  0  0  0  0  0
   -6.5050   16.9870  -34.2120 C   0  0  0  0  0  0  0  0  0  0  0  0
   -5.5640   19.2440  -33.3990 C   0  0  0  0  0  0  0  0  0  0  0  0
   -6.7960   19.8380  -32.8410 C   0  0  0  0  0  0  0  0  0  0  0  0
   -7.9130   19.0510  -32.5590 C   0  0  0  0  0  0  0  0  0  0  0  0
   -9.0450   19.6460  -32.0150 C   0  0  0  0  0  0  0  0  0  0  0  0
   -9.0430   21.0170  -31.7610 C   0  0  0  0  0  0  0  0  0  0  0  0
  -10.0700   21.5540  -31.2640 O   0  0  0  0  0  0  0  0  0  0  0  0
   -7.9310   21.7610  -32.0620 N   0  0  0  0  0  0  0  0  0  0  0  0
   -7.8740   23.2040  -31.7710 C   0  0  0  0  0  0  0  0  0  0  0  0
   -6.6950   23.6100  -30.8530 C   0  0  2  0  0  0  0  0  0  0  0  0
   -6.8600   24.8990  -30.0980 C   0  0  0  0  0  0  0  0  0  0  0  0
   -5.4220   25.3070  -29.8510 C   0  0  0  0  0  0  0  0  0  0  0  0
   -4.5990   24.7460  -30.8480 O   0  0  0  0  0  0  0  0  0  0  0  0
   -5.3760   23.8180  -31.5740 C   0  0  0  0  0  0  0  0  0  0  0  0
   -6.8490   21.1730  -32.5860 N   0  0  0  0  0  0  0  0  0  0  0  0
   -3.8733   21.1574  -31.8800 H   0  0  0  0  0  0  0  0  0  0  0  0
   -2.8623   21.3810  -33.3478 H   0  0  0  0  0  0  0  0  0  0  0  0
   -4.5766   21.9172  -33.3478 H   0  0  0  0  0  0  0  0  0  0  0  0
   -3.1910   16.0031  -34.3442 H   0  0  0  0  0  0  0  0  0  0  0  0
   -4.3194   16.2400  -35.7216 H   0  0  0  0  0  0  0  0  0  0  0  0
   -2.7187   17.0550  -35.7216 H   0  0  0  0  0  0  0  0  0  0  0  0
   -6.8724   16.6404  -33.2348 H   0  0  0  0  0  0  0  0  0  0  0  0
   -7.3340   17.4397  -34.7758 H   0  0  0  0  0  0  0  0  0  0  0  0
   -6.1012   16.1331  -34.7758 H   0  0  0  0  0  0  0  0  0  0  0  0
   -7.8978   17.9706  -32.7651 H   0  0  0  0  0  0  0  0  0  0  0  0
   -9.9347   19.0407  -31.7868 H   0  0  0  0  0  0  0  0  0  0  0  0
   -7.7750   23.7462  -32.7230 H   0  0  0  0  0  0  0  0  0  0  0  0
   -8.8001   23.4598  -31.2353 H   0  0  0  0  0  0  0  0  0  0  0  0
   -6.6926   22.7393  -30.1807 H   0  0  0  0  0  0  0  0  0  0  0  0
   -7.3904   25.6503  -30.7015 H   0  0  0  0  0  0  0  0  0  0  0  0
   -7.4568   24.8010  -29.1792 H   0  0  0  0  0  0  0  0  0  0  0  0
   -5.3410   26.4036  -29.8823 H   0  0  0  0  0  0  0  0  0  0  0  0
   -5.1016   24.9448  -28.8630 H   0  0  0  0  0  0  0  0  0  0  0  0
   -5.5655   24.2065  -32.5855 H   0  0  0  0  0  0  0  0  0  0  0  0
   -4.8385   22.8613  -31.6506 H   0  0  0  0  0  0  0  0  0  0  0  0
  1  2  1  0
  2  3  2  0
  3  4  1  0
  4  5  1  0
  4  6  1  0
  6  7  1  0
  6  8  2  0
  8  9  1  0
  9 10  1  0
 10 11  2  0
 11 12  1  0
 12 13  2  0
 12 14  1  0
 14 15  1  0
 15 16  1  0
 16 17  1  0
 17 18  1  0
 18 19  1  0
 19 20  1  0
 14 21  1  0
  8  2  1  0
 21  9  2  0
 20 16  1  0
  1 22  1  0
  1 23  1  0
  1 24  1  0
  5 25  1  0
  5 26  1  0
  5 27  1  0
  7 28  1  0
  7 29  1  0
  7 30  1  0
 10 31  1  0
 11 32  1  0
 15 33  1  0
 15 34  1  0
 16 35  1  1
 17 36  1  0
 17 37  1  0
 18 38  1  0
 18 39  1  0
 20 40  1  0
 20 41  1  0
M  END
>  <UniqueID>  (38) 
37

>  <SMILES>  (38) 
Cc1nn(C)c(C)c1-c1ccc(=O)n(C[C@@H]2CCOC2)n1

>  <Energy>  (38) 
76.73477190467325

>  <Genealogy>  (38) 
Cc1nn(C)c(C)c1-c1ccc(=O)n(C[C@@H]2CCOC2)n1 (chirality)
Cc1nn(C)c(C)c1-c1ccc(=O)n(C[C@@H]2CCOC2)n1 (3D coordinates assigned)
Cc1nn(C)c(C)c1-c1ccc(=O)n(C[C@@H]2CCOC2)n1 (nonaromatic ring conformer: 76.73477190467325 kcal/mol)

>  <smiles>  (38) 
Cc1nn(C)c(C)c1-c1ccc(=O)n(CC2CCOC2)n1

>  <score_type>  (38) 
oracle

>  <origin>  (38) 
adg

>  <m_score__min__energy>  (38) 
-8.75

>  <m_primary>  (38) 
energy

$$$$
38:0
     RDKit          3D

 79 84  0  0  0  0  0  0  0  0999 V2000
    3.3890   19.2280  -30.6540 C   0  0  0  0  0  0  0  0  0  0  0  0
    3.2720   19.0370  -29.2480 O   0  0  0  0  0  0  0  0  0  0  0  0
    2.0700   18.7520  -28.5790 C   0  0  0  0  0  0  0  0  0  0  0  0
    1.1730   19.7640  -28.1890 C   0  0  0  0  0  0  0  0  0  0  0  0
   -0.0160   19.4470  -27.5140 C   0  0  0  0  0  0  0  0  0  0  0  0
   -0.9270   20.4470  -27.1240 C   0  0  0  0  0  0  0  0  0  0  0  0
   -0.6390   21.7950  -27.4000 O   0  0  0  0  0  0  0  0  0  0  0  0
   -1.3780   22.6430  -28.2400 C   0  0  0  0  0  0  0  0  0  0  0  0
   -1.3610   24.0430  -28.0980 C   0  0  0  0  0  0  0  0  0  0  0  0
   -2.1390   24.8470  -28.9330 C   0  0  0  0  0  0  0  0  0  0  0  0
   -2.9880   24.2610  -29.8870 C   0  0  0  0  0  0  0  0  0  0  0  0
   -3.8270   25.0560  -30.7380 N   0  0  0  0  0  0  0  0  0  0  0  0
   -5.2580   25.0970  -30.7000 C   0  0  0  0  0  0  0  0  0  0  0  0
   -5.8280   26.1830  -30.4110 O   0  0  0  0  0  0  0  0  0  0  0  0
   -6.0470   23.9420  -31.0290 N   0  0  0  0  0  0  0  0  0  0  0  0
   -7.3180   23.5850  -30.4040 C   0  0  0  0  0  0  0  0  0  0  0  0
   -7.6210   22.1350  -30.8510 C   0  0  0  0  0  0  0  0  0  0  0  0
   -6.5190   21.7430  -31.7310 N   0  0  0  0  0  0  0  0  0  0  0  0
   -6.4670   20.5180  -32.4950 C   0  0  0  0  0  0  0  0  0  0  0  0
   -5.4450   20.3180  -33.4430 C   0  0  0  0  0  0  0  0  0  0  0  0
   -5.3800   19.1300  -34.1790 C   0  0  0  0  0  0  0  0  0  0  0  0
   -6.3260   18.1260  -33.9740 C   0  0  0  0  0  0  0  0  0  0  0  0
   -7.3360   18.3040  -33.0270 C   0  0  0  0  0  0  0  0  0  0  0  0
   -7.4040   19.4880  -32.2850 C   0  0  0  0  0  0  0  0  0  0  0  0
   -5.5940   22.8170  -31.7560 C   0  0  0  0  0  0  0  0  0  0  0  0
   -4.4630   22.7560  -32.3110 O   0  0  0  0  0  0  0  0  0  0  0  0
   -2.9970   22.8690  -30.0340 C   0  0  0  0  0  0  0  0  0  0  0  0
   -2.2010   22.0660  -29.2140 C   0  0  0  0  0  0  0  0  0  0  0  0
   -2.2470   20.7170  -29.3490 F   0  0  0  0  0  0  0  0  0  0  0  0
   -2.0860   20.0800  -26.4230 C   0  0  0  0  0  0  0  0  0  0  0  0
   -2.3420   18.7340  -26.1630 C   0  0  0  0  0  0  0  0  0  0  0  0
   -1.4670   17.7760  -26.5700 N   0  0  0  0  0  0  0  0  0  0  0  0
   -0.3140   18.0940  -27.2290 C   0  0  0  0  0  0  0  0  0  0  0  0
    0.5770   17.0870  -27.6270 C   0  0  0  0  0  0  0  0  0  0  0  0
    1.7720   17.4110  -28.2970 C   0  0  0  0  0  0  0  0  0  0  0  0
    2.6940   16.4340  -28.7130 O   0  0  0  0  0  0  0  0  0  0  0  0
    2.6500   15.7060  -29.9390 C   0  0  0  0  0  0  0  0  0  0  0  0
    1.2660   15.8200  -30.5890 C   0  0  0  0  0  0  0  0  0  0  0  0
    1.1580   17.0390  -31.5130 C   0  0  0  0  0  0  0  0  0  0  0  0
   -0.2510   17.4970  -31.5900 N   0  0  0  0  0  0  0  0  0  0  0  0
   -0.7340   17.6550  -32.9840 C   0  0  0  0  0  0  0  0  0  0  0  0
   -0.5460   19.0920  -33.5100 C   0  0  0  0  0  0  0  0  0  0  0  0
    0.5040   19.7390  -32.8220 O   0  0  0  0  0  0  0  0  0  0  0  0
    0.1310   19.9640  -31.4720 C   0  0  0  0  0  0  0  0  0  0  0  0
   -0.4980   18.7190  -30.8030 C   0  0  0  0  0  0  0  0  0  0  0  0
    3.9541   20.1505  -30.8529 H   0  0  0  0  0  0  0  0  0  0  0  0
    3.9175   18.3714  -31.0977 H   0  0  0  0  0  0  0  0  0  0  0  0
    2.3858   19.3097  -31.0977 H   0  0  0  0  0  0  0  0  0  0  0  0
    1.4063   20.8148  -28.4157 H   0  0  0  0  0  0  0  0  0  0  0  0
   -0.7310   24.5065  -27.3245 H   0  0  0  0  0  0  0  0  0  0  0  0
   -2.0872   25.9422  -28.8438 H   0  0  0  0  0  0  0  0  0  0  0  0
   -7.2332   23.6374  -29.3085 H   0  0  0  0  0  0  0  0  0  0  0  0
   -8.1213   24.2747  -30.7024 H   0  0  0  0  0  0  0  0  0  0  0  0
   -7.6678   21.4681  -29.9775 H   0  0  0  0  0  0  0  0  0  0  0  0
   -8.5904   22.0676  -31.3664 H   0  0  0  0  0  0  0  0  0  0  0  0
   -4.6914   21.1025  -33.6062 H   0  0  0  0  0  0  0  0  0  0  0  0
   -4.5808   18.9875  -34.9212 H   0  0  0  0  0  0  0  0  0  0  0  0
   -6.2763   17.1950  -34.5578 H   0  0  0  0  0  0  0  0  0  0  0  0
   -8.0806   17.5110  -32.8637 H   0  0  0  0  0  0  0  0  0  0  0  0
   -8.1955   19.6154  -31.5318 H   0  0  0  0  0  0  0  0  0  0  0  0
   -3.6351   22.4045  -30.8002 H   0  0  0  0  0  0  0  0  0  0  0  0
   -2.7905   20.8518  -26.0796 H   0  0  0  0  0  0  0  0  0  0  0  0
   -3.2573   18.4455  -25.6254 H   0  0  0  0  0  0  0  0  0  0  0  0
   -1.6900   16.7770  -26.3560 H   0  0  0  0  0  0  0  0  0  0  0  0
    0.3400   16.0342  -27.4137 H   0  0  0  0  0  0  0  0  0  0  0  0
    3.4063   16.1118  -30.6270 H   0  0  0  0  0  0  0  0  0  0  0  0
    2.8548   14.6461  -29.7279 H   0  0  0  0  0  0  0  0  0  0  0  0
    1.0756   14.9109  -31.1783 H   0  0  0  0  0  0  0  0  0  0  0  0
    0.5245   15.9391  -29.7853 H   0  0  0  0  0  0  0  0  0  0  0  0
    1.7838   17.8523  -31.1170 H   0  0  0  0  0  0  0  0  0  0  0  0
    1.5012   16.7591  -32.5199 H   0  0  0  0  0  0  0  0  0  0  0  0
   -0.1742   16.9650  -33.6325 H   0  0  0  0  0  0  0  0  0  0  0  0
   -1.8110   17.4317  -32.9939 H   0  0  0  0  0  0  0  0  0  0  0  0
   -0.3070   19.0559  -34.5831 H   0  0  0  0  0  0  0  0  0  0  0  0
   -1.4771   19.6545  -33.3466 H   0  0  0  0  0  0  0  0  0  0  0  0
    1.0279   20.2517  -30.9038 H   0  0  0  0  0  0  0  0  0  0  0  0
   -0.6296   20.7587  -31.4689 H   0  0  0  0  0  0  0  0  0  0  0  0
   -0.0611   18.5929  -29.8014 H   0  0  0  0  0  0  0  0  0  0  0  0
   -1.5852   18.8742  -30.7407 H   0  0  0  0  0  0  0  0  0  0  0  0
  1  2  1  0
  2  3  1  0
  3  4  2  0
  4  5  1  0
  5  6  2  0
  6  7  1  0
  7  8  1  0
  8  9  2  0
  9 10  1  0
 10 11  2  0
 11 12  1  0
 12 13  1  0
 13 14  2  0
 13 15  1  0
 15 16  1  0
 16 17  1  0
 17 18  1  0
 18 19  1  0
 19 20  2  0
 20 21  1  0
 21 22  2  0
 22 23  1  0
 23 24  2  0
 18 25  1  0
 25 26  2  0
 11 27  1  0
 27 28  2  0
 28 29  1  0
  6 30  1  0
 30 31  2  0
 31 32  1  0
 32 33  2  0
 33 34  1  0
 34 35  2  0
 35 36  1  0
 36 37  1  0
 37 38  1  0
 38 39  1  0
 39 40  1  0
 40 41  1  0
 41 42  1  0
 42 43  1  0
 43 44  1  0
 44 45  1  0
 35  3  1  0
 45 40  1  0
 33  5  1  0
 28  8  1  0
 25 15  1  0
 24 19  1  0
  1 46  1  0
  1 47  1  0
  1 48  1  0
  4 49  1  0
  9 50  1  0
 10 51  1  0
 16 52  1  0
 16 53  1  0
 17 54  1  0
 17 55  1  0
 20 56  1  0
 21 57  1  0
 22 58  1  0
 23 59  1  0
 24 60  1  0
 27 61  1  0
 30 62  1  0
 31 63  1  0
 32 64  1  0
 34 65  1  0
 37 66  1  0
 37 67  1  0
 38 68  1  0
 38 69  1  0
 39 70  1  0
 39 71  1  0
 41 72  1  0
 41 73  1  0
 42 74  1  0
 42 75  1  0
 44 76  1  0
 44 77  1  0
 45 78  1  0
 45 79  1  0
M  CHG  2  12  -1  32   1
M  END
>  <UniqueID>  (39) 
38

>  <SMILES>  (39) 
COc1cc2c(Oc3ccc([N-]C(=O)N4CCN(c5ccccc5)C4=O)cc3F)cc[nH+]c2cc1OCCCN1CCOCC1

>  <Energy>  (39) 
129.67588696583857

>  <Genealogy>  (39) 
COc1cc2c(Oc3ccc([N-]C(=O)N4CCN(c5ccccc5)C4=O)cc3F)cc[nH+]c2cc1OCCCN1CCOCC1 (protonated)
COc1cc2c(Oc3ccc([N-]C(=O)N4CCN(c5ccccc5)C4=O)cc3F)cc[nH+]c2cc1OCCCN1CCOCC1 (3D coordinates assigned)
COc1cc2c(Oc3ccc([N-]C(=O)N4CCN(c5ccccc5)C4=O)cc3F)cc[nH+]c2cc1OCCCN1CCOCC1 (nonaromatic ring conformer: 129.67588696583857 kcal/mol)

>  <smiles>  (39) 
COc1cc2c(Oc3ccc(NC(=O)N4CCN(c5ccccc5)C4=O)cc3F)ccnc2cc1OCCCN1CCOCC1

>  <score_type>  (39) 
oracle

>  <origin>  (39) 
adg

>  <m_score__min__energy>  (39) 
-9.9100000000000001

>  <m_primary>  (39) 
energy

$$$$
39:0
     RDKit          3D

 37 38  0  0  0  0  0  0  0  0999 V2000
   -0.8700   26.5560  -28.1140 C   0  0  0  0  0  0  0  0  0  0  0  0
   -1.5550   25.6690  -28.9920 O   0  0  0  0  0  0  0  0  0  0  0  0
   -1.4780   24.2670  -28.9280 C   0  0  0  0  0  0  0  0  0  0  0  0
   -0.2460   23.5990  -28.7760 C   0  0  0  0  0  0  0  0  0  0  0  0
   -0.2000   22.2040  -28.7270 C   0  0  0  0  0  0  0  0  0  0  0  0
   -1.3770   21.4610  -28.8250 C   0  0  0  0  0  0  0  0  0  0  0  0
   -2.6040   22.1090  -28.9710 C   0  0  0  0  0  0  0  0  0  0  0  0
   -2.6670   23.5120  -29.0290 C   0  0  0  0  0  0  0  0  0  0  0  0
   -4.0020   24.1970  -29.1670 C   0  0  0  0  0  0  0  0  0  0  0  0
   -3.9700   25.1900  -30.2550 N   0  0  0  0  0  0  0  0  0  0  0  0
   -5.3120   25.5940  -30.7100 C   0  0  0  0  0  0  0  0  0  0  0  0
   -6.4080   24.6410  -30.2030 C   0  0  0  0  0  0  0  0  0  0  0  0
   -6.5760   23.4110  -31.0660 C   0  0  0  0  0  0  0  0  0  0  0  0
   -7.8180   22.7580  -31.1610 C   0  0  0  0  0  0  0  0  0  0  0  0
   -7.9600   21.6250  -31.9680 C   0  0  0  0  0  0  0  0  0  0  0  0
   -6.8620   21.1220  -32.6710 C   0  0  0  0  0  0  0  0  0  0  0  0
   -7.0030   20.0240  -33.4550 F   0  0  0  0  0  0  0  0  0  0  0  0
   -5.6160   21.7430  -32.5550 C   0  0  0  0  0  0  0  0  0  0  0  0
   -5.4700   22.8750  -31.7490 C   0  0  0  0  0  0  0  0  0  0  0  0
   -1.0845   26.2782  -27.0715 H   0  0  0  0  0  0  0  0  0  0  0  0
    0.2127   26.4886  -28.2961 H   0  0  0  0  0  0  0  0  0  0  0  0
   -1.2090   27.5865  -28.2961 H   0  0  0  0  0  0  0  0  0  0  0  0
    0.6846   24.1799  -28.6955 H   0  0  0  0  0  0  0  0  0  0  0  0
    0.7657   21.6902  -28.6110 H   0  0  0  0  0  0  0  0  0  0  0  0
   -1.3375   20.3624  -28.7871 H   0  0  0  0  0  0  0  0  0  0  0  0
   -3.5288   21.5176  -29.0412 H   0  0  0  0  0  0  0  0  0  0  0  0
   -4.7726   23.4440  -29.3885 H   0  0  0  0  0  0  0  0  0  0  0  0
   -4.2323   24.7143  -28.2239 H   0  0  0  0  0  0  0  0  0  0  0  0
   -3.5020   26.0490  -29.8810 H   0  0  0  0  0  0  0  0  0  0  0  0
   -5.5227   26.6070  -30.3367 H   0  0  0  0  0  0  0  0  0  0  0  0
   -5.3196   25.5634  -31.8095 H   0  0  0  0  0  0  0  0  0  0  0  0
   -6.1474   24.3196  -29.1838 H   0  0  0  0  0  0  0  0  0  0  0  0
   -7.3592   25.1927  -30.2327 H   0  0  0  0  0  0  0  0  0  0  0  0
   -8.6819   23.1405  -30.5977 H   0  0  0  0  0  0  0  0  0  0  0  0
   -8.9382   21.1285  -32.0497 H   0  0  0  0  0  0  0  0  0  0  0  0
   -4.7488   21.3403  -33.0988 H   0  0  0  0  0  0  0  0  0  0  0  0
   -4.4830   23.3501  -31.6481 H   0  0  0  0  0  0  0  0  0  0  0  0
  1  2  1  0
  2  3  1  0
  3  4  2  0
  4  5  1  0
  5  6  2  0
  6  7  1  0
  7  8  2  0
  8  9  1  0
  9 10  1  0
 10 11  1  0
 11 12  1  0
 12 13  1  0
 13 14  2  0
 14 15  1  0
 15 16  2  0
 16 17  1  0
 16 18  1  0
 18 19  2  0
  8  3  1  0
 19 13  1  0
  1 20  1  0
  1 21  1  0
  1 22  1  0
  4 23  1  0
  5 24  1  0
  6 25  1  0
  7 26  1  0
  9 27  1  0
  9 28  1  0
 10 29  1  0
 11 30  1  0
 11 31  1  0
 12 32  1  0
 12 33  1  0
 14 34  1  0
 15 35  1  0
 18 36  1  0
 19 37  1  0
M  END
>  <UniqueID>  (40) 
39

>  <SMILES>  (40) 
COc1ccccc1CNCCc1ccc(F)cc1

>  <Energy>  (40) 
33.31701428760599

>  <Genealogy>  (40) 
COc1ccccc1CNCCc1ccc(F)cc1 (3D coordinates assigned)
COc1ccccc1CNCCc1ccc(F)cc1 (optimized conformer: 33.31701428760599 kcal/mol)

>  <smiles>  (40) 
COc1ccccc1CNCCc1ccc(F)cc1

>  <score_type>  (40) 
oracle

>  <origin>  (40) 
adg

>  <m_score__min__energy>  (40) 
-7.7199999999999998

>  <m_primary>  (40) 
energy

$$$$
40:0
     RDKit          3D

 59 62  0  0  0  0  0  0  0  0999 V2000
   -2.8890   23.3280  -28.5390 C   0  0  0  0  0  0  0  0  0  0  0  0
   -3.7160   24.5480  -28.9830 C   0  0  0  0  0  0  0  0  0  0  0  0
   -3.8690   24.6830  -30.4520 N   0  0  0  0  0  0  0  0  0  0  0  0
   -5.1300   25.3470  -30.8430 C   0  0  0  0  0  0  0  0  0  0  0  0
   -6.1070   25.3670  -29.6710 C   0  0  0  0  0  0  0  0  0  0  0  0
   -3.6470   23.4160  -31.1810 C   0  0  0  0  0  0  0  0  0  0  0  0
   -4.9260   22.7440  -31.4260 C   0  0  0  0  0  0  0  0  0  0  0  0
   -5.9860   22.2060  -31.6260 C   0  0  0  0  0  0  0  0  0  0  0  0
   -7.2500   21.5530  -31.8580 C   0  0  0  0  0  0  0  0  0  0  0  0
   -8.4160   22.2120  -31.4420 C   0  0  0  0  0  0  0  0  0  0  0  0
   -9.6700   21.6470  -31.6730 C   0  0  0  0  0  0  0  0  0  0  0  0
   -9.7720   20.4220  -32.3300 C   0  0  0  0  0  0  0  0  0  0  0  0
   -8.6210   19.7530  -32.7510 C   0  0  0  0  0  0  0  0  0  0  0  0
   -7.3440   20.2970  -32.5150 C   0  0  0  0  0  0  0  0  0  0  0  0
   -6.1480   19.5330  -32.9650 C   0  0  0  0  0  0  0  0  0  0  0  0
   -6.3000   18.2850  -33.5010 N   0  0  0  0  0  0  0  0  0  0  0  0
   -5.2090   17.5820  -33.8920 C   0  0  0  0  0  0  0  0  0  0  0  0
   -3.9500   18.0900  -33.7610 C   0  0  0  0  0  0  0  0  0  0  0  0
   -3.7830   19.3630  -33.2090 C   0  0  0  0  0  0  0  0  0  0  0  0
   -2.4850   19.9450  -33.0410 N   0  0  0  0  0  0  0  0  0  0  0  0
   -1.7570   20.4110  -34.2200 C   0  0  0  0  0  0  0  0  0  0  0  0
   -0.2550   20.4360  -33.9220 C   0  0  0  0  0  0  0  0  0  0  0  0
    0.0040   21.1610  -32.7340 O   0  0  0  0  0  0  0  0  0  0  0  0
   -0.5500   20.4770  -31.6270 C   0  0  0  0  0  0  0  0  0  0  0  0
   -2.0800   20.4260  -31.7200 C   0  0  0  0  0  0  0  0  0  0  0  0
   -4.8900   20.0520  -32.8190 N   0  0  0  0  0  0  0  0  0  0  0  0
   -2.9190   17.1440  -34.2490 C   0  0  0  0  0  0  0  0  0  0  0  0
   -3.7290   15.9020  -34.6770 C   0  0  0  0  0  0  0  0  0  0  0  0
   -5.2220   16.2300  -34.4860 C   0  0  0  0  0  0  0  0  0  0  0  0
   -2.8599   23.2850  -27.4402 H   0  0  0  0  0  0  0  0  0  0  0  0
   -3.3515   22.4096  -28.9297 H   0  0  0  0  0  0  0  0  0  0  0  0
   -1.8646   23.4175  -28.9297 H   0  0  0  0  0  0  0  0  0  0  0  0
   -4.7189   24.4638  -28.5390 H   0  0  0  0  0  0  0  0  0  0  0  0
   -3.1690   25.4391  -28.6413 H   0  0  0  0  0  0  0  0  0  0  0  0
   -4.9145   26.3803  -31.1528 H   0  0  0  0  0  0  0  0  0  0  0  0
   -5.5834   24.7892  -31.6757 H   0  0  0  0  0  0  0  0  0  0  0  0
   -5.5454   25.3555  -28.7252 H   0  0  0  0  0  0  0  0  0  0  0  0
   -6.7216   26.2779  -29.7215 H   0  0  0  0  0  0  0  0  0  0  0  0
   -6.7583   24.4820  -29.7215 H   0  0  0  0  0  0  0  0  0  0  0  0
   -3.1589   23.6308  -32.1431 H   0  0  0  0  0  0  0  0  0  0  0  0
   -3.0063   22.7594  -30.5740 H   0  0  0  0  0  0  0  0  0  0  0  0
   -8.3409   23.1823  -30.9294 H   0  0  0  0  0  0  0  0  0  0  0  0
  -10.5785   22.1681  -31.3367 H   0  0  0  0  0  0  0  0  0  0  0  0
  -10.7621   19.9810  -32.5174 H   0  0  0  0  0  0  0  0  0  0  0  0
   -8.7130   18.7893  -33.2733 H   0  0  0  0  0  0  0  0  0  0  0  0
   -1.9515   19.7309  -35.0624 H   0  0  0  0  0  0  0  0  0  0  0  0
   -2.0941   21.4255  -34.4792 H   0  0  0  0  0  0  0  0  0  0  0  0
    0.1073   19.4043  -33.8024 H   0  0  0  0  0  0  0  0  0  0  0  0
    0.2649   20.9267  -34.7580 H   0  0  0  0  0  0  0  0  0  0  0  0
   -0.1568   19.4499  -31.6056 H   0  0  0  0  0  0  0  0  0  0  0  0
   -0.2732   21.0157  -30.7087 H   0  0  0  0  0  0  0  0  0  0  0  0
   -2.4693   19.7447  -30.9491 H   0  0  0  0  0  0  0  0  0  0  0  0
   -2.4852   21.4366  -31.5637 H   0  0  0  0  0  0  0  0  0  0  0  0
   -2.3717   17.5681  -35.1037 H   0  0  0  0  0  0  0  0  0  0  0  0
   -2.1595   16.9138  -33.4873 H   0  0  0  0  0  0  0  0  0  0  0  0
   -3.5284   15.6692  -35.7332 H   0  0  0  0  0  0  0  0  0  0  0  0
   -3.4452   15.0286  -34.0715 H   0  0  0  0  0  0  0  0  0  0  0  0
   -5.7503   16.2303  -35.4508 H   0  0  0  0  0  0  0  0  0  0  0  0
   -5.7439   15.4930  -33.8580 H   0  0  0  0  0  0  0  0  0  0  0  0
  1  2  1  0
  2  3  1  0
  3  4  1  0
  4  5  1  0
  3  6  1  0
  6  7  1  0
  7  8  3  0
  8  9  1  0
  9 10  2  0
 10 11  1  0
 11 12  2  0
 12 13  1  0
 13 14  2  0
 14 15  1  0
 15 16  2  0
 16 17  1  0
 17 18  2  0
 18 19  1  0
 19 20  1  0
 20 21  1  0
 21 22  1  0
 22 23  1  0
 23 24  1  0
 24 25  1  0
 19 26  2  0
 18 27  1  0
 27 28  1  0
 28 29  1  0
 14  9  1  0
 26 15  1  0
 29 17  1  0
 25 20  1  0
  1 30  1  0
  1 31  1  0
  1 32  1  0
  2 33  1  0
  2 34  1  0
  4 35  1  0
  4 36  1  0
  5 37  1  0
  5 38  1  0
  5 39  1  0
  6 40  1  0
  6 41  1  0
 10 42  1  0
 11 43  1  0
 12 44  1  0
 13 45  1  0
 21 46  1  0
 21 47  1  0
 22 48  1  0
 22 49  1  0
 24 50  1  0
 24 51  1  0
 25 52  1  0
 25 53  1  0
 27 54  1  0
 27 55  1  0
 28 56  1  0
 28 57  1  0
 29 58  1  0
 29 59  1  0
M  END
>  <UniqueID>  (41) 
40

>  <SMILES>  (41) 
CCN(CC)CC#Cc1ccccc1-c1nc2c(c(N3CCOCC3)n1)CCC2

>  <Energy>  (41) 
76.6594949205395

>  <Genealogy>  (41) 
CCN(CC)CC#Cc1ccccc1-c1nc2c(c(N3CCOCC3)n1)CCC2 (3D coordinates assigned)
CCN(CC)CC#Cc1ccccc1-c1nc2c(c(N3CCOCC3)n1)CCC2 (nonaromatic ring conformer: 76.6594949205395 kcal/mol)

>  <smiles>  (41) 
CCN(CC)CC#Cc1ccccc1-c1nc2c(c(N3CCOCC3)n1)CCC2

>  <score_type>  (41) 
oracle

>  <origin>  (41) 
adg

>  <m_score__min__energy>  (41) 
-9.1199999999999992

>  <m_primary>  (41) 
energy

$$$$
41:0
     RDKit          3D

 36 38  0  0  0  0  0  0  0  0999 V2000
   -6.0610   25.5480  -29.7790 C   0  0  0  0  0  0  0  0  0  0  0  0
   -4.9900   24.7830  -30.4920 C   0  0  0  0  0  0  0  0  0  0  0  0
   -3.8510   25.3010  -30.6330 O   0  0  0  0  0  0  0  0  0  0  0  0
   -5.2520   23.4350  -31.0260 C   0  0  0  0  0  0  0  0  0  0  0  0
   -6.4910   22.8250  -31.1180 C   0  0  0  0  0  0  0  0  0  0  0  0
   -6.2300   21.5820  -31.6730 C   0  0  0  0  0  0  0  0  0  0  0  0
   -7.2410   20.5230  -31.8850 C   0  0  0  0  0  0  0  0  0  0  0  0
   -6.9480   19.1800  -31.5930 C   0  0  0  0  0  0  0  0  0  0  0  0
   -7.9140   18.1880  -31.7880 C   0  0  0  0  0  0  0  0  0  0  0  0
   -9.1830   18.5290  -32.2650 C   0  0  0  0  0  0  0  0  0  0  0  0
   -9.4890   19.8640  -32.5410 C   0  0  0  0  0  0  0  0  0  0  0  0
   -8.5260   20.8590  -32.3470 C   0  0  0  0  0  0  0  0  0  0  0  0
   -4.8970   21.4810  -31.9060 N   0  0  0  0  0  0  0  0  0  0  0  0
   -4.1930   20.4110  -32.5620 C   0  0  0  0  0  0  0  0  0  0  0  0
   -4.7890   19.7390  -33.6410 C   0  0  0  0  0  0  0  0  0  0  0  0
   -4.1160   18.6920  -34.2780 C   0  0  0  0  0  0  0  0  0  0  0  0
   -2.8470   18.2990  -33.8360 C   0  0  0  0  0  0  0  0  0  0  0  0
   -2.1540   17.2220  -34.4920 C   0  0  0  0  0  0  0  0  0  0  0  0
   -1.5960   16.3570  -35.0210 N   0  0  0  0  0  0  0  0  0  0  0  0
   -2.2540   18.9550  -32.7490 C   0  0  0  0  0  0  0  0  0  0  0  0
   -2.9270   20.0020  -32.1120 C   0  0  0  0  0  0  0  0  0  0  0  0
   -4.3110   22.5990  -31.5080 N   0  0  0  0  0  0  0  0  0  0  0  0
   -5.9214   25.4483  -28.6925 H   0  0  0  0  0  0  0  0  0  0  0  0
   -6.0023   26.6098  -30.0603 H   0  0  0  0  0  0  0  0  0  0  0  0
   -7.0464   25.1481  -30.0603 H   0  0  0  0  0  0  0  0  0  0  0  0
   -7.4663   23.2355  -30.8174 H   0  0  0  0  0  0  0  0  0  0  0  0
   -5.9538   18.9078  -31.2091 H   0  0  0  0  0  0  0  0  0  0  0  0
   -7.6750   17.1376  -31.5657 H   0  0  0  0  0  0  0  0  0  0  0  0
   -9.9401   17.7468  -32.4229 H   0  0  0  0  0  0  0  0  0  0  0  0
  -10.4892   20.1327  -32.9116 H   0  0  0  0  0  0  0  0  0  0  0  0
   -8.7748   21.9098  -32.5568 H   0  0  0  0  0  0  0  0  0  0  0  0
   -5.7897   20.0375  -33.9867 H   0  0  0  0  0  0  0  0  0  0  0  0
   -4.5848   18.1757  -35.1287 H   0  0  0  0  0  0  0  0  0  0  0  0
   -1.2587   18.6462  -32.3968 H   0  0  0  0  0  0  0  0  0  0  0  0
   -2.4621   20.5084  -31.2533 H   0  0  0  0  0  0  0  0  0  0  0  0
   -3.2880   22.7980  -31.5930 H   0  0  0  0  0  0  0  0  0  0  0  0
  1  2  1  0
  2  3  2  0
  2  4  1  0
  4  5  1  0
  5  6  2  0
  6  7  1  0
  7  8  2  0
  8  9  1  0
  9 10  2  0
 10 11  1  0
 11 12  2  0
  6 13  1  0
 13 14  1  0
 14 15  2  0
 15 16  1  0
 16 17  2  0
 17 18  1  0
 18 19  3  0
 17 20  1  0
 20 21  2  0
 13 22  1  0
 22  4  2  0
 12  7  1  0
 21 14  1  0
  1 23  1  0
  1 24  1  0
  1 25  1  0
  5 26  1  0
  8 27  1  0
  9 28  1  0
 10 29  1  0
 11 30  1  0
 12 31  1  0
 15 32  1  0
 16 33  1  0
 20 34  1  0
 21 35  1  0
 22 36  1  0
M  CHG  1  22   1
M  END
>  <UniqueID>  (42) 
41

>  <SMILES>  (42) 
CC(=O)c1cc(-c2ccccc2)n(-c2ccc(C#N)cc2)[nH+]1

>  <Energy>  (42) 
75.47306303188837

>  <Genealogy>  (42) 
CC(=O)c1cc(-c2ccccc2)n(-c2ccc(C#N)cc2)[nH+]1 (protonated)
CC(=O)c1cc(-c2ccccc2)n(-c2ccc(C#N)cc2)[nH+]1 (3D coordinates assigned)
CC(=O)c1cc(-c2ccccc2)n(-c2ccc(C#N)cc2)[nH+]1 (optimized conformer: 75.47306303188837 kcal/mol)

>  <smiles>  (42) 
CC(=O)c1cc(-c2ccccc2)n(-c2ccc(C#N)cc2)n1

>  <score_type>  (42) 
oracle

>  <origin>  (42) 
adg

>  <m_score__min__energy>  (42) 
-7.5599999999999996

>  <m_primary>  (42) 
energy

$$$$
42:0
     RDKit          3D

 37 38  0  0  0  0  0  0  0  0999 V2000
   -3.8580   18.5540  -26.0100 C   0  0  0  0  0  0  0  0  0  0  0  0
   -2.4550   18.4140  -26.2130 O   0  0  0  0  0  0  0  0  0  0  0  0
   -1.6740   19.2880  -26.9830 C   0  0  0  0  0  0  0  0  0  0  0  0
   -0.5390   18.7770  -27.6200 C   0  0  0  0  0  0  0  0  0  0  0  0
    0.2710   19.6060  -28.3980 C   0  0  0  0  0  0  0  0  0  0  0  0
   -0.0460   20.9570  -28.5480 C   0  0  0  0  0  0  0  0  0  0  0  0
   -1.1830   21.4960  -27.9140 C   0  0  0  0  0  0  0  0  0  0  0  0
   -1.5400   22.8870  -28.0460 N   0  0  0  0  0  0  0  0  0  0  0  0
   -2.8280   23.3630  -28.5490 C   0  0  0  0  0  0  0  0  0  0  0  0
   -2.6360   24.5810  -29.4100 C   0  0  0  0  0  0  0  0  0  0  0  0
   -1.6090   25.2920  -29.2450 O   0  0  0  0  0  0  0  0  0  0  0  0
   -3.5560   24.9290  -30.4540 N   0  0  0  0  0  0  0  0  0  0  0  0
   -4.7760   24.2460  -30.7720 C   0  0  0  0  0  0  0  0  0  0  0  0
   -4.7790   23.0510  -31.5080 C   0  0  0  0  0  0  0  0  0  0  0  0
   -5.9830   22.3920  -31.7790 C   0  0  0  0  0  0  0  0  0  0  0  0
   -7.1990   22.9010  -31.2890 C   0  0  0  0  0  0  0  0  0  0  0  0
   -8.5020   22.2200  -31.6250 C   0  0  0  0  0  0  0  0  0  0  0  0
   -9.1240   21.8240  -30.4560 F   0  0  0  0  0  0  0  0  0  0  0  0
   -9.3400   23.0800  -32.3130 F   0  0  0  0  0  0  0  0  0  0  0  0
   -8.2810   21.1060  -32.4170 F   0  0  0  0  0  0  0  0  0  0  0  0
   -7.1890   24.0970  -30.5520 C   0  0  0  0  0  0  0  0  0  0  0  0
   -5.9840   24.7530  -30.2820 C   0  0  0  0  0  0  0  0  0  0  0  0
   -1.9920   20.6520  -27.1350 C   0  0  0  0  0  0  0  0  0  0  0  0
   -4.0721   18.5754  -24.9312 H   0  0  0  0  0  0  0  0  0  0  0  0
   -4.2035   19.4911  -26.4710 H   0  0  0  0  0  0  0  0  0  0  0  0
   -4.3818   17.7037  -26.4710 H   0  0  0  0  0  0  0  0  0  0  0  0
   -0.2824   17.7133  -27.5072 H   0  0  0  0  0  0  0  0  0  0  0  0
    1.1617   19.1933  -28.8943 H   0  0  0  0  0  0  0  0  0  0  0  0
    0.5952   21.6043  -29.1644 H   0  0  0  0  0  0  0  0  0  0  0  0
   -0.8400   23.6110  -27.7680 H   0  0  0  0  0  0  0  0  0  0  0  0
   -3.3005   22.5684  -29.1451 H   0  0  0  0  0  0  0  0  0  0  0  0
   -3.4695   23.6267  -27.6952 H   0  0  0  0  0  0  0  0  0  0  0  0
   -3.8304   22.6306  -31.8734 H   0  0  0  0  0  0  0  0  0  0  0  0
   -5.9785   21.4701  -32.3790 H   0  0  0  0  0  0  0  0  0  0  0  0
   -8.1356   24.5203  -30.1848 H   0  0  0  0  0  0  0  0  0  0  0  0
   -5.9861   25.6738  -29.6803 H   0  0  0  0  0  0  0  0  0  0  0  0
   -2.8841   21.0609  -26.6380 H   0  0  0  0  0  0  0  0  0  0  0  0
  1  2  1  0
  2  3  1  0
  3  4  2  0
  4  5  1  0
  5  6  2  0
  6  7  1  0
  7  8  1  0
  8  9  1  0
  9 10  1  0
 10 11  2  0
 10 12  1  0
 12 13  1  0
 13 14  2  0
 14 15  1  0
 15 16  2  0
 16 17  1  0
 17 18  1  0
 17 19  1  0
 17 20  1  0
 16 21  1  0
 21 22  2  0
  7 23  2  0
 23  3  1  0
 22 13  1  0
  1 24  1  0
  1 25  1  0
  1 26  1  0
  4 27  1  0
  5 28  1  0
  6 29  1  0
  8 30  1  0
  9 31  1  0
  9 32  1  0
 14 33  1  0
 15 34  1  0
 21 35  1  0
 22 36  1  0
 23 37  1  0
M  CHG  1  12  -1
M  END
>  <UniqueID>  (43) 
42

>  <SMILES>  (43) 
COc1cccc(NCC(=O)[N-]c2ccc(C(F)(F)F)cc2)c1

>  <Energy>  (43) 
40.69858949602844

>  <Genealogy>  (43) 
COc1cccc(NCC(=O)[N-]c2ccc(C(F)(F)F)cc2)c1 (protonated)
COc1cccc(NCC(=O)[N-]c2ccc(C(F)(F)F)cc2)c1 (3D coordinates assigned)
COc1cccc(NCC(=O)[N-]c2ccc(C(F)(F)F)cc2)c1 (optimized conformer: 40.69858949602844 kcal/mol)

>  <smiles>  (43) 
COc1cccc(NCC(=O)Nc2ccc(C(F)(F)F)cc2)c1

>  <score_type>  (43) 
oracle

>  <origin>  (43) 
adg

>  <m_score__min__energy>  (43) 
-8.4900000000000002

>  <m_primary>  (43) 
energy

$$$$
