0:0
     RDKit          3D

 33 35  0  0  0  0  0  0  0  0999 V2000
   -9.1220   18.5470  -31.8980 C   0  0  0  0  0  0  0  0  0  0  0  0
   -8.4780   19.6770  -32.5870 N   0  0  0  0  0  0  0  0  0  0  0  0
   -6.9990   19.6400  -32.5850 C   0  0  0  0  0  0  0  0  0  0  0  0
   -6.4240   18.2890  -32.2710 C   0  0  0  0  0  0  0  0  0  0  0  0
   -6.3050   17.7960  -31.0200 N   0  0  0  0  0  0  0  0  0  0  0  0
   -5.7590   16.6010  -31.1640 N   0  0  0  0  0  0  0  0  0  0  0  0
   -5.5550   16.4030  -32.4760 C   0  0  0  0  0  0  0  0  0  0  0  0
   -4.9690   15.1490  -33.0570 C   0  0  0  0  0  0  0  0  0  0  0  0
   -3.4890   14.9520  -32.7680 C   0  0  0  0  0  0  0  0  0  0  0  0
   -4.5250   14.1040  -32.0450 C   0  0  0  0  0  0  0  0  0  0  0  0
   -5.9560   17.4460  -33.1640 O   0  0  0  0  0  0  0  0  0  0  0  0
   -9.0930   20.9980  -32.3330 C   0  0  0  0  0  0  0  0  0  0  0  0
   -8.2130   21.9520  -31.5690 C   0  0  0  0  0  0  0  0  0  0  0  0
   -8.0050   21.9350  -30.1920 C   0  0  0  0  0  0  0  0  0  0  0  0
   -7.1110   22.9190  -29.7550 C   0  0  0  0  0  0  0  0  0  0  0  0
   -6.5990   23.6900  -30.7870 C   0  0  0  0  0  0  0  0  0  0  0  0
   -5.3590   25.1250  -30.6000 Br  0  0  0  0  0  0  0  0  0  0  0  0
   -7.2490   23.1580  -32.2420 S   0  0  0  0  0  0  0  0  0  0  0  0
   -9.0420   18.6873  -30.8099 H   0  0  0  0  0  0  0  0  0  0  0  0
  -10.1829   18.4993  -32.1846 H   0  0  0  0  0  0  0  0  0  0  0  0
   -8.6223   17.6099  -32.1846 H   0  0  0  0  0  0  0  0  0  0  0  0
   -6.6437   19.9446  -33.5805 H   0  0  0  0  0  0  0  0  0  0  0  0
   -6.6639   20.3220  -31.7896 H   0  0  0  0  0  0  0  0  0  0  0  0
   -5.5400   15.9460  -30.3810 H   0  0  0  0  0  0  0  0  0  0  0  0
   -5.6022   15.1354  -33.9564 H   0  0  0  0  0  0  0  0  0  0  0  0
   -2.8365   14.4950  -33.5266 H   0  0  0  0  0  0  0  0  0  0  0  0
   -2.6638   15.6078  -32.4534 H   0  0  0  0  0  0  0  0  0  0  0  0
   -4.6216   13.0339  -32.2809 H   0  0  0  0  0  0  0  0  0  0  0  0
   -4.7592   13.8928  -30.9912 H   0  0  0  0  0  0  0  0  0  0  0  0
   -9.3387   21.4563  -33.3023 H   0  0  0  0  0  0  0  0  0  0  0  0
   -9.9811   20.8186  -31.7092 H   0  0  0  0  0  0  0  0  0  0  0  0
   -8.4947   21.2193  -29.5152 H   0  0  0  0  0  0  0  0  0  0  0  0
   -6.8416   23.0659  -28.6987 H   0  0  0  0  0  0  0  0  0  0  0  0
  1  2  1  0
  2  3  1  0
  3  4  1  0
  4  5  2  0
  5  6  1  0
  6  7  2  0
  7  8  1  0
  8  9  1  0
  9 10  1  0
  7 11  1  0
  2 12  1  0
 12 13  1  0
 13 14  2  0
 14 15  1  0
 15 16  2  0
 16 17  1  0
 16 18  1  0
 11  4  1  0
 18 13  1  0
 10  8  1  0
  1 19  1  0
  1 20  1  0
  1 21  1  0
  3 22  1  0
  3 23  1  0
  6 24  1  0
  8 25  1  0
  9 26  1  0
  9 27  1  0
 10 28  1  0
 10 29  1  0
 12 30  1  0
 12 31  1  0
 14 32  1  0
 15 33  1  0
M  CHG  1   6   1
M  END
>  <UniqueID>  (1) 
1

>  <SMILES>  (1) 
CN(Cc1n[nH+]c(C2CC2)o1)Cc1ccc(Br)s1

>  <Energy>  (1) 
361.7190569128074

>  <Genealogy>  (1) 
CN(Cc1n[nH+]c(C2CC2)o1)Cc1ccc(Br)s1 (protonated)
CN(Cc1n[nH+]c(C2CC2)o1)Cc1ccc(Br)s1 (3D coordinates assigned)
CN(Cc1n[nH+]c(C2CC2)o1)Cc1ccc(Br)s1 (nonaromatic ring conformer: 361.7190569128074 kcal/mol)

>  <smiles>  (1) 
CN(Cc1nnc(C2CC2)o1)Cc1ccc(Br)s1

>  <score_type>  (1) 
oracle

>  <origin>  (1) 
adg

>  <m_score__min__energy>  (1) 
-6.8600000000000003

>  <m_primary>  (1) 
energy

$$$$
1:0
     RDKit          3D

 31 33  0  0  0  0  0  0  0  0999 V2000
    0.9840   25.1020  -26.5250 C   0  0  0  0  0  0  0  0  0  0  0  0
    0.8240   24.6390  -27.8620 O   0  0  0  0  0  0  0  0  0  0  0  0
   -0.3520   24.0650  -28.3670 C   0  0  0  0  0  0  0  0  0  0  0  0
   -0.5410   22.6860  -28.2070 C   0  0  0  0  0  0  0  0  0  0  0  0
   -1.6950   22.0630  -28.6910 C   0  0  0  0  0  0  0  0  0  0  0  0
   -2.6760   22.8200  -29.3450 C   0  0  0  0  0  0  0  0  0  0  0  0
   -3.8430   22.2320  -29.8390 C   0  0  0  0  0  0  0  0  0  0  0  0
   -4.8060   23.0240  -30.4800 C   0  0  0  0  0  0  0  0  0  0  0  0
   -6.0530   22.4040  -30.9970 C   0  0  0  0  0  0  0  0  0  0  0  0
   -7.2960   22.6880  -30.4020 C   0  0  0  0  0  0  0  0  0  0  0  0
   -8.4640   22.0930  -30.8880 C   0  0  0  0  0  0  0  0  0  0  0  0
   -8.4040   21.2080  -31.9680 C   0  0  0  0  0  0  0  0  0  0  0  0
   -7.1730   20.9140  -32.5620 C   0  0  0  0  0  0  0  0  0  0  0  0
   -6.0020   21.5070  -32.0790 C   0  0  0  0  0  0  0  0  0  0  0  0
   -4.5480   24.4050  -30.6140 C   0  0  0  0  0  0  0  0  0  0  0  0
   -5.3640   25.1560  -31.2120 O   0  0  0  0  0  0  0  0  0  0  0  0
   -3.4250   24.9310  -30.1310 O   0  0  0  0  0  0  0  0  0  0  0  0
   -2.4980   24.2080  -29.5110 C   0  0  0  0  0  0  0  0  0  0  0  0
   -1.3410   24.8250  -29.0240 C   0  0  0  0  0  0  0  0  0  0  0  0
    0.7071   24.3008  -25.8239 H   0  0  0  0  0  0  0  0  0  0  0  0
    2.0331   25.3881  -26.3591 H   0  0  0  0  0  0  0  0  0  0  0  0
    0.3353   25.9748  -26.3591 H   0  0  0  0  0  0  0  0  0  0  0  0
    0.2268   22.0873  -27.6951 H   0  0  0  0  0  0  0  0  0  0  0  0
   -1.8327   20.9797  -28.5586 H   0  0  0  0  0  0  0  0  0  0  0  0
   -4.0059   21.1501  -29.7253 H   0  0  0  0  0  0  0  0  0  0  0  0
   -7.3490   23.3818  -29.5500 H   0  0  0  0  0  0  0  0  0  0  0  0
   -9.4325   22.3219  -30.4193 H   0  0  0  0  0  0  0  0  0  0  0  0
   -9.3247   20.7431  -32.3504 H   0  0  0  0  0  0  0  0  0  0  0  0
   -7.1254   20.2154  -33.4103 H   0  0  0  0  0  0  0  0  0  0  0  0
   -5.0356   21.2704  -32.5481 H   0  0  0  0  0  0  0  0  0  0  0  0
   -1.2022   25.9084  -29.1543 H   0  0  0  0  0  0  0  0  0  0  0  0
  1  2  1  0
  2  3  1  0
  3  4  2  0
  4  5  1  0
  5  6  2  0
  6  7  1  0
  7  8  2  0
  8  9  1  0
  9 10  2  0
 10 11  1  0
 11 12  2  0
 12 13  1  0
 13 14  2  0
  8 15  1  0
 15 16  2  0
 15 17  1  0
 17 18  1  0
 18 19  2  0
 19  3  1  0
 18  6  1  0
 14  9  1  0
  1 20  1  0
  1 21  1  0
  1 22  1  0
  4 23  1  0
  5 24  1  0
  7 25  1  0
 10 26  1  0
 11 27  1  0
 12 28  1  0
 13 29  1  0
 14 30  1  0
 19 31  1  0
M  END
>  <UniqueID>  (2) 
2

>  <SMILES>  (2) 
COc1ccc2cc(-c3ccccc3)c(=O)oc2c1

>  <Energy>  (2) 
43.936889458233324

>  <Genealogy>  (2) 
COc1ccc2cc(-c3ccccc3)c(=O)oc2c1 (3D coordinates assigned)
COc1ccc2cc(-c3ccccc3)c(=O)oc2c1 (optimized conformer: 43.936889458233324 kcal/mol)

>  <smiles>  (2) 
COc1ccc2cc(-c3ccccc3)c(=O)oc2c1

>  <score_type>  (2) 
oracle

>  <origin>  (2) 
adg

>  <m_score__min__energy>  (2) 
-7.46

>  <m_primary>  (2) 
energy

$$$$
2:0
     RDKit          3D

 27 28  0  0  0  0  0  0  0  0999 V2000
   -5.4685   25.3331  -31.8792 H   0  0  0  0  0  0  0  0  0  0  0  0
   -5.0310   24.8520  -30.9920 C   0  0  0  0  0  0  0  0  0  0  0  0
   -3.8610   25.3020  -30.4740 N   0  0  0  0  0  0  0  0  0  0  0  0
   -3.2770   24.7450  -29.3790 C   0  0  0  0  0  0  0  0  0  0  0  0
   -2.1510   25.2770  -28.9830 N   0  0  0  0  0  0  0  0  0  0  0  0
   -1.0600   24.7400  -28.1760 C   0  0  0  0  0  0  0  0  0  0  0  0
   -0.0956   25.0181  -28.6260 H   0  0  0  0  0  0  0  0  0  0  0  0
   -1.1320   23.6432  -28.1321 H   0  0  0  0  0  0  0  0  0  0  0  0
   -1.1550   25.3130  -26.7930 C   0  0  0  0  0  0  0  0  0  0  0  0
   -0.1700   25.1040  -25.7750 C   0  0  0  0  0  0  0  0  0  0  0  0
    1.0920   24.3310  -26.0000 C   0  0  0  0  0  0  0  0  0  0  0  0
    1.5340   24.0602  -25.0298 H   0  0  0  0  0  0  0  0  0  0  0  0
    0.8655   23.4165  -26.5678 H   0  0  0  0  0  0  0  0  0  0  0  0
    1.8038   24.9483  -26.5678 H   0  0  0  0  0  0  0  0  0  0  0  0
   -0.4310   25.6690  -24.5620 N   0  0  0  0  0  0  0  0  0  0  0  0
   -1.8950   26.3840  -24.8310 S   0  0  0  0  0  0  0  0  0  0  0  0
   -2.2370   26.0320  -26.4020 N   0  0  0  0  0  0  0  0  0  0  0  0
   -3.0800   26.2940  -26.9590 H   0  0  0  0  0  0  0  0  0  0  0  0
   -3.9370   23.6370  -28.7590 C   0  0  0  0  0  0  0  0  0  0  0  0
   -3.4460   22.8990  -27.5470 C   0  0  0  0  0  0  0  0  0  0  0  0
   -3.7898   23.4157  -26.6388 H   0  0  0  0  0  0  0  0  0  0  0  0
   -3.8420   21.8728  -27.5572 H   0  0  0  0  0  0  0  0  0  0  0  0
   -2.3465   22.8678  -27.5572 H   0  0  0  0  0  0  0  0  0  0  0  0
   -5.1110   23.2010  -29.2960 N   0  0  0  0  0  0  0  0  0  0  0  0
   -5.6710   23.7750  -30.3880 C   0  0  0  0  0  0  0  0  0  0  0  0
   -6.9120   23.2700  -30.9090 C   0  0  0  0  0  0  0  0  0  0  0  0
   -7.9100   22.8630  -31.3280 N   0  0  0  0  0  0  0  0  0  0  0  0
  1  2  1  0
  2  3  1  0
  3  4  1  0
  4  5  2  0
  5  6  1  0
  6  7  1  0
  6  8  1  0
  6  9  1  0
  9 10  1  0
 10 11  1  0
 11 12  1  0
 11 13  1  0
 11 14  1  0
 10 15  2  0
 15 16  1  0
 16 17  1  0
 17 18  1  0
  4 19  1  0
 19 20  1  0
 20 21  1  0
 20 22  1  0
 20 23  1  0
 19 24  2  0
 24 25  1  0
 25 26  1  0
 26 27  3  0
 25  2  2  0
 17  9  2  0
M  CHG  2   3  -1  17   1
M  END
>  <UniqueID>  (3) 
3

>  <SMILES>  (3) 
Cc1ns[nH+]c1C/N=c1/[n-]cc(C#N)nc1C

>  <Energy>  (3) 
71.38344350065023

>  <Genealogy>  (3) 
Cc1ns[nH+]c1CN=c1[n-]cc(C#N)nc1C (protonated)
Cc1ns[nH+]c1C/N=c1/[n-]cc(C#N)nc1C (cis-trans isomerization)
Cc1ns[nH+]c1C/N=c1/[n-]cc(C#N)nc1C (3D coordinates assigned)
Cc1ns[nH+]c1C/N=c1/[n-]cc(C#N)nc1C (optimized conformer: 71.38344350065023 kcal/mol)

>  <smiles>  (3) 
Cc1nsnc1CN=c1[nH]cc(C#N)nc1C

>  <score_type>  (3) 
oracle

>  <origin>  (3) 
adg

>  <m_score__min__energy>  (3) 
-7.1600000000000001

>  <m_primary>  (3) 
energy

$$$$
3:0
     RDKit          3D

 31 33  0  0  0  0  0  0  0  0999 V2000
   -9.1040   19.6150  -32.9090 N   0  0  0  0  0  0  0  0  0  0  0  0
   -7.8940   19.9210  -32.6600 C   0  0  0  0  0  0  0  0  0  0  0  0
   -7.6480   21.1590  -32.1600 N   0  0  0  0  0  0  0  0  0  0  0  0
   -6.4140   21.5940  -31.8610 C   0  0  0  0  0  0  0  0  0  0  0  0
   -6.1350   22.9200  -31.3230 C   0  0  0  0  0  0  0  0  0  0  0  0
   -7.1030   23.7330  -30.7710 C   0  0  0  0  0  0  0  0  0  0  0  0
   -6.8140   24.9440  -30.2880 N   0  0  0  0  0  0  0  0  0  0  0  0
   -5.5400   25.4240  -30.3200 C   0  0  0  0  0  0  0  0  0  0  0  0
   -4.5750   24.6510  -30.8540 N   0  0  0  0  0  0  0  0  0  0  0  0
   -4.8480   23.4300  -31.3460 C   0  0  0  0  0  0  0  0  0  0  0  0
   -5.3760   20.7630  -32.0680 N   0  0  0  0  0  0  0  0  0  0  0  0
   -5.5170   19.5190  -32.5590 C   0  0  0  0  0  0  0  0  0  0  0  0
   -4.4100   18.7180  -32.7480 C   0  0  0  0  0  0  0  0  0  0  0  0
   -4.6130   17.4510  -33.2540 C   0  0  0  0  0  0  0  0  0  0  0  0
   -5.8960   17.0320  -33.5520 C   0  0  0  0  0  0  0  0  0  0  0  0
   -6.1010   15.6770  -34.0930 C   0  0  0  0  0  0  0  0  0  0  0  0
   -7.2380   15.3490  -34.5770 O   0  0  0  0  0  0  0  0  0  0  0  0
   -4.9850   14.6930  -34.0760 C   0  0  0  0  0  0  0  0  0  0  0  0
   -4.4740   14.5500  -32.8020 F   0  0  0  0  0  0  0  0  0  0  0  0
   -5.4290   13.5040  -34.5980 F   0  0  0  0  0  0  0  0  0  0  0  0
   -4.0010   15.1700  -34.9160 F   0  0  0  0  0  0  0  0  0  0  0  0
   -6.9840   17.8440  -33.3580 C   0  0  0  0  0  0  0  0  0  0  0  0
   -6.8040   19.1130  -32.8530 C   0  0  0  0  0  0  0  0  0  0  0  0
   -9.4860   19.4290  -33.8450 H   0  0  0  0  0  0  0  0  0  0  0  0
   -8.4470   21.7860  -32.0060 H   0  0  0  0  0  0  0  0  0  0  0  0
   -8.1418   23.3739  -30.7274 H   0  0  0  0  0  0  0  0  0  0  0  0
   -5.3044   26.4207  -29.9187 H   0  0  0  0  0  0  0  0  0  0  0  0
   -4.0348   22.8257  -31.7743 H   0  0  0  0  0  0  0  0  0  0  0  0
   -3.3996   19.0775  -32.5035 H   0  0  0  0  0  0  0  0  0  0  0  0
   -3.7588   16.7780  -33.4194 H   0  0  0  0  0  0  0  0  0  0  0  0
   -7.9940   17.4843  -33.6041 H   0  0  0  0  0  0  0  0  0  0  0  0
  1  2  2  3
  2  3  1  0
  3  4  1  0
  4  5  1  0
  5  6  2  0
  6  7  1  0
  7  8  2  0
  8  9  1  0
  9 10  2  0
  4 11  2  0
 11 12  1  0
 12 13  2  0
 13 14  1  0
 14 15  2  0
 15 16  1  0
 16 17  2  0
 16 18  1  0
 18 19  1  0
 18 20  1  0
 18 21  1  0
 15 22  1  0
 22 23  2  0
 23  2  1  0
 10  5  1  0
 23 12  1  0
  1 24  1  0
  3 25  1  0
  6 26  1  0
  8 27  1  0
 10 28  1  0
 13 29  1  0
 14 30  1  0
 22 31  1  0
M  END
>  <smiles>  (4) 
N=c1[nH]c(-c2cncnc2)nc2ccc(C(=O)C(F)(F)F)cc12

>  <score_type>  (4) 
oracle

>  <origin>  (4) 
adg

>  <m_score__min__energy>  (4) 
-6.8899999999999997

>  <m_primary>  (4) 
energy

$$$$
4:0
     RDKit          3D

 42 45  0  0  0  0  0  0  0  0999 V2000
   -1.8560   25.0790  -28.0870 C   0  0  0  0  0  0  0  0  0  0  0  0
   -2.5040   25.3010  -29.3380 O   0  0  0  0  0  0  0  0  0  0  0  0
   -3.2170   24.3250  -30.0480 C   0  0  0  0  0  0  0  0  0  0  0  0
   -4.5470   24.5220  -30.4630 C   0  0  0  0  0  0  0  0  0  0  0  0
   -5.2300   23.5030  -31.1350 C   0  0  0  0  0  0  0  0  0  0  0  0
   -4.6000   22.2760  -31.4070 C   0  0  0  0  0  0  0  0  0  0  0  0
   -5.3610   21.1480  -32.0740 C   0  0  1  0  0  0  0  0  0  0  0  0
   -5.2120   19.8310  -31.2620 C   0  0  0  0  0  0  0  0  0  0  0  0
   -6.1340   18.6790  -31.7500 C   0  0  2  0  0  0  0  0  0  0  0  0
   -5.5100   17.8850  -32.8870 C   0  0  0  0  0  0  0  0  0  0  0  0
   -5.3100   18.4690  -34.1550 C   0  0  0  0  0  0  0  0  0  0  0  0
   -4.7240   17.7250  -35.1830 C   0  0  0  0  0  0  0  0  0  0  0  0
   -4.3590   16.3990  -34.9830 C   0  0  0  0  0  0  0  0  0  0  0  0
   -4.5670   15.8040  -33.7390 C   0  0  0  0  0  0  0  0  0  0  0  0
   -5.1320   16.5400  -32.6920 C   0  0  0  0  0  0  0  0  0  0  0  0
   -5.3340   15.9270  -31.4990 F   0  0  0  0  0  0  0  0  0  0  0  0
   -7.4480   19.1980  -32.1390 N   0  0  0  0  0  0  0  0  0  0  0  0
   -8.5530   18.5010  -32.3300 N   0  0  0  0  0  0  0  0  0  0  0  0
   -9.5100   19.3890  -32.6690 C   0  0  0  0  0  0  0  0  0  0  0  0
   -9.0350   20.6610  -32.7080 N   0  0  0  0  0  0  0  0  0  0  0  0
   -7.7420   20.4790  -32.3700 C   0  0  0  0  0  0  0  0  0  0  0  0
   -6.7700   21.5160  -32.2450 N   0  0  0  0  0  0  0  0  0  0  0  0
   -3.2700   22.0870  -30.9920 C   0  0  0  0  0  0  0  0  0  0  0  0
   -2.5880   23.1090  -30.3280 C   0  0  0  0  0  0  0  0  0  0  0  0
   -2.5500   25.3167  -27.2673 H   0  0  0  0  0  0  0  0  0  0  0  0
   -1.5502   24.0249  -28.0144 H   0  0  0  0  0  0  0  0  0  0  0  0
   -0.9680   25.7242  -28.0144 H   0  0  0  0  0  0  0  0  0  0  0  0
   -5.0502   25.4786  -30.2587 H   0  0  0  0  0  0  0  0  0  0  0  0
   -6.2705   23.6633  -31.4539 H   0  0  0  0  0  0  0  0  0  0  0  0
   -4.9328   20.9733  -33.0721 H   0  0  0  0  0  0  0  0  0  0  0  0
   -4.1677   19.4940  -31.3383 H   0  0  0  0  0  0  0  0  0  0  0  0
   -5.5091   20.0597  -30.2279 H   0  0  0  0  0  0  0  0  0  0  0  0
   -6.2631   17.9863  -30.9053 H   0  0  0  0  0  0  0  0  0  0  0  0
   -5.6153   19.5103  -34.3351 H   0  0  0  0  0  0  0  0  0  0  0  0
   -4.5496   18.1947  -36.1623 H   0  0  0  0  0  0  0  0  0  0  0  0
   -3.9077   15.8210  -35.8029 H   0  0  0  0  0  0  0  0  0  0  0  0
   -4.2859   14.7524  -33.5805 H   0  0  0  0  0  0  0  0  0  0  0  0
   -8.6470   17.4590  -32.2420 H   0  0  0  0  0  0  0  0  0  0  0  0
  -10.5526   19.1153  -32.8881 H   0  0  0  0  0  0  0  0  0  0  0  0
   -7.0320   22.4980  -32.4850 H   0  0  0  0  0  0  0  0  0  0  0  0
   -2.7646   21.1305  -31.1911 H   0  0  0  0  0  0  0  0  0  0  0  0
   -1.5428   22.9548  -30.0217 H   0  0  0  0  0  0  0  0  0  0  0  0
  1  2  1  0
  2  3  1  0
  3  4  2  0
  4  5  1  0
  5  6  2  0
  6  7  1  0
  7  8  1  0
  8  9  1  0
  9 10  1  0
 10 11  2  0
 11 12  1  0
 12 13  2  0
 13 14  1  0
 14 15  2  0
 15 16  1  0
  9 17  1  0
 17 18  1  0
 18 19  2  0
 19 20  1  0
 20 21  2  0
 21 22  1  0
  6 23  1  0
 23 24  2  0
 24  3  1  0
 22  7  1  0
 15 10  1  0
 21 17  1  0
  1 25  1  0
  1 26  1  0
  1 27  1  0
  4 28  1  0
  5 29  1  0
  7 30  1  6
  8 31  1  0
  8 32  1  0
  9 33  1  1
 11 34  1  0
 12 35  1  0
 13 36  1  0
 14 37  1  0
 18 38  1  0
 19 39  1  0
 22 40  1  0
 23 41  1  0
 24 42  1  0
M  CHG  1  18   1
M  END
>  <UniqueID>  (5) 
4

>  <SMILES>  (5) 
COc1ccc([C@H]2C[C@H](c3ccccc3F)n3[nH+]cnc3N2)cc1

>  <Energy>  (5) 
83.4333380712769

>  <Genealogy>  (5) 
COc1ccc(C2CC(c3ccccc3F)n3[nH+]cnc3N2)cc1 (protonated)
COc1ccc([C@H]2C[C@H](c3ccccc3F)n3[nH+]cnc3N2)cc1 (chirality)
COc1ccc([C@H]2C[C@H](c3ccccc3F)n3[nH+]cnc3N2)cc1 (3D coordinates assigned)
COc1ccc([C@H]2C[C@H](c3ccccc3F)n3[nH+]cnc3N2)cc1 (nonaromatic ring conformer: 83.4333380712769 kcal/mol)

>  <smiles>  (5) 
COc1ccc(C2CC(c3ccccc3F)n3ncnc3N2)cc1

>  <score_type>  (5) 
oracle

>  <origin>  (5) 
adg

>  <m_score__min__energy>  (5) 
-7.6100000000000003

>  <m_primary>  (5) 
energy

$$$$
5:0
     RDKit          3D

 31 33  0  0  0  0  0  0  0  0999 V2000
   -3.3550   21.8310  -30.9600 C   0  0  0  0  0  0  0  0  0  0  0  0
   -2.6150   21.2200  -29.9080 O   0  0  0  0  0  0  0  0  0  0  0  0
   -2.1120   21.9030  -28.7900 C   0  0  0  0  0  0  0  0  0  0  0  0
   -1.7570   21.1570  -27.6650 C   0  0  0  0  0  0  0  0  0  0  0  0
   -1.2520   21.7830  -26.5260 C   0  0  0  0  0  0  0  0  0  0  0  0
   -1.0920   23.1830  -26.4850 C   0  0  0  0  0  0  0  0  0  0  0  0
   -1.4480   23.9490  -27.6190 C   0  0  0  0  0  0  0  0  0  0  0  0
   -1.9560   23.3000  -28.7640 C   0  0  0  0  0  0  0  0  0  0  0  0
   -1.2890   25.3050  -27.5960 N   0  0  0  0  0  0  0  0  0  0  0  0
   -1.6220   26.0500  -28.7080 O   0  0  0  0  0  0  0  0  0  0  0  0
   -0.8180   25.9340  -26.4780 C   0  0  0  0  0  0  0  0  0  0  0  0
   -0.6820   27.3360  -26.4530 C   0  0  0  0  0  0  0  0  0  0  0  0
   -0.2340   27.9850  -25.3050 C   0  0  0  0  0  0  0  0  0  0  0  0
    0.0720   27.2540  -24.1560 C   0  0  0  0  0  0  0  0  0  0  0  0
    0.5040   27.9310  -22.9720 N   0  0  0  0  0  0  0  0  0  0  0  0
   -0.0540   25.8590  -24.1650 C   0  0  0  0  0  0  0  0  0  0  0  0
   -0.4740   25.1730  -25.3300 C   0  0  0  0  0  0  0  0  0  0  0  0
   -0.5870   23.8010  -25.3710 N   0  0  0  0  0  0  0  0  0  0  0  0
   -0.1760   22.9980  -24.3180 O   0  0  0  0  0  0  0  0  0  0  0  0
   -4.1364   22.4762  -30.5320 H   0  0  0  0  0  0  0  0  0  0  0  0
   -2.6783   22.4370  -31.5804 H   0  0  0  0  0  0  0  0  0  0  0  0
   -3.8220   21.0518  -31.5804 H   0  0  0  0  0  0  0  0  0  0  0  0
   -1.8769   20.0636  -27.6771 H   0  0  0  0  0  0  0  0  0  0  0  0
   -0.9755   21.1779  -25.6500 H   0  0  0  0  0  0  0  0  0  0  0  0
   -2.2334   23.8942  -29.6472 H   0  0  0  0  0  0  0  0  0  0  0  0
   -0.9320   27.9237  -27.3486 H   0  0  0  0  0  0  0  0  0  0  0  0
   -0.1208   29.0792  -25.3038 H   0  0  0  0  0  0  0  0  0  0  0  0
    0.2910   28.9420  -22.8260 H   0  0  0  0  0  0  0  0  0  0  0  0
    1.0440   27.4260  -22.2340 H   0  0  0  0  0  0  0  0  0  0  0  0
    0.1768   25.2881  -23.2535 H   0  0  0  0  0  0  0  0  0  0  0  0
    0.1960   23.3510  -23.4490 H   0  0  0  0  0  0  0  0  0  0  0  0
  1  2  1  0
  2  3  1  0
  3  4  2  0
  4  5  1  0
  5  6  2  0
  6  7  1  0
  7  8  2  0
  7  9  1  0
  9 10  1  0
  9 11  2  0
 11 12  1  0
 12 13  2  0
 13 14  1  0
 14 15  1  0
 14 16  2  0
 16 17  1  0
 17 18  2  0
 18 19  1  0
  8  3  1  0
 17 11  1  0
 18  6  1  0
  1 20  1  0
  1 21  1  0
  1 22  1  0
  4 23  1  0
  5 24  1  0
  8 25  1  0
 12 26  1  0
 13 27  1  0
 15 28  1  0
 15 29  1  0
 16 30  1  0
 19 31  1  0
M  CHG  3   9   1  10  -1  18   1
M  END
>  <UniqueID>  (6) 
5

>  <SMILES>  (6) 
COc1ccc2c(c1)[n+]([O-])c1ccc(N)cc1[n+]2O

>  <Energy>  (6) 
48.22138517852229

>  <Genealogy>  (6) 
COc1ccc2c(c1)[n+]([O-])c1ccc(N)cc1[n+]2O (protonated)
COc1ccc2c(c1)[n+]([O-])c1ccc(N)cc1[n+]2O (3D coordinates assigned)
COc1ccc2c(c1)[n+]([O-])c1ccc(N)cc1[n+]2O (optimized conformer: 48.22138517852229 kcal/mol)

>  <smiles>  (6) 
COc1ccc2c(c1)[n+]([O-])c1ccc(N)cc1[n+]2[O-]

>  <score_type>  (6) 
oracle

>  <origin>  (6) 
adg

>  <m_score__min__energy>  (6) 
-6.6100000000000003

>  <m_primary>  (6) 
energy

$$$$
6:0
     RDKit          3D

 41 44  0  0  0  0  0  0  0  0999 V2000
   -9.0910   18.6430  -32.1640 C   0  0  0  0  0  0  0  0  0  0  0  0
   -9.3310   20.0460  -32.7080 C   0  0  0  0  0  0  0  0  0  0  0  0
   -8.6450   21.0620  -31.8550 C   0  0  0  0  0  0  0  0  0  0  0  0
   -8.0210   22.1530  -32.3380 N   0  0  0  0  0  0  0  0  0  0  0  0
   -7.5350   22.7020  -31.2040 C   0  0  0  0  0  0  0  0  0  0  0  0
   -6.7730   24.0070  -31.1790 C   0  0  1  0  0  0  0  0  0  0  0  0
   -6.9970   24.8530  -29.9280 C   0  0  0  0  0  0  0  0  0  0  0  0
   -5.7440   25.7050  -29.8170 C   0  0  0  0  0  0  0  0  0  0  0  0
   -4.7560   25.1370  -30.8360 C   0  0  0  0  0  0  0  0  0  0  0  0
   -5.3130   23.8820  -31.3640 N   0  0  0  0  0  0  0  0  0  0  0  0
   -4.6600   22.6800  -30.7770 C   0  0  0  0  0  0  0  0  0  0  0  0
   -4.6590   21.4720  -31.6760 C   0  0  0  0  0  0  0  0  0  0  0  0
   -5.7190   20.6380  -31.8290 N   0  0  0  0  0  0  0  0  0  0  0  0
   -5.2760   19.7350  -32.7150 C   0  0  0  0  0  0  0  0  0  0  0  0
   -5.9490   18.6400  -33.2510 C   0  0  0  0  0  0  0  0  0  0  0  0
   -5.2510   17.8400  -34.1780 C   0  0  0  0  0  0  0  0  0  0  0  0
   -3.9180   18.1540  -34.5350 C   0  0  0  0  0  0  0  0  0  0  0  0
   -3.2710   19.2700  -33.9690 C   0  0  0  0  0  0  0  0  0  0  0  0
   -3.9920   20.0370  -33.0590 C   0  0  0  0  0  0  0  0  0  0  0  0
   -3.6180   21.1100  -32.4090 O   0  0  0  0  0  0  0  0  0  0  0  0
   -7.8680   21.9940  -30.1050 N   0  0  0  0  0  0  0  0  0  0  0  0
   -8.5460   20.9820  -30.5520 O   0  0  0  0  0  0  0  0  0  0  0  0
   -9.0957   18.6703  -31.0644 H   0  0  0  0  0  0  0  0  0  0  0  0
   -9.8873   17.9715  -32.5175 H   0  0  0  0  0  0  0  0  0  0  0  0
   -8.1167   18.2744  -32.5175 H   0  0  0  0  0  0  0  0  0  0  0  0
   -8.9375   20.1090  -33.7333 H   0  0  0  0  0  0  0  0  0  0  0  0
  -10.4121   20.2492  -32.7037 H   0  0  0  0  0  0  0  0  0  0  0  0
   -7.2082   24.5148  -32.0524 H   0  0  0  0  0  0  0  0  0  0  0  0
   -7.8893   25.4863  -30.0413 H   0  0  0  0  0  0  0  0  0  0  0  0
   -7.1662   24.2383  -29.0316 H   0  0  0  0  0  0  0  0  0  0  0  0
   -5.9737   26.7548  -30.0517 H   0  0  0  0  0  0  0  0  0  0  0  0
   -5.3299   25.6814  -28.7982 H   0  0  0  0  0  0  0  0  0  0  0  0
   -4.6127   25.8554  -31.6566 H   0  0  0  0  0  0  0  0  0  0  0  0
   -3.7825   24.9504  -30.3590 H   0  0  0  0  0  0  0  0  0  0  0  0
   -3.6161   22.9354  -30.5426 H   0  0  0  0  0  0  0  0  0  0  0  0
   -5.2450   22.4081  -29.8860 H   0  0  0  0  0  0  0  0  0  0  0  0
   -6.6540   20.6820  -31.3670 H   0  0  0  0  0  0  0  0  0  0  0  0
   -6.9849   18.4085  -32.9622 H   0  0  0  0  0  0  0  0  0  0  0  0
   -5.7455   16.9660  -34.6269 H   0  0  0  0  0  0  0  0  0  0  0  0
   -3.3834   17.5222  -35.2595 H   0  0  0  0  0  0  0  0  0  0  0  0
   -2.2350   19.5255  -34.2363 H   0  0  0  0  0  0  0  0  0  0  0  0
  1  2  1  0
  2  3  1  0
  3  4  2  0
  4  5  1  0
  5  6  1  0
  6  7  1  0
  7  8  1  0
  8  9  1  0
  9 10  1  0
 10 11  1  0
 11 12  1  0
 12 13  2  0
 13 14  1  0
 14 15  2  0
 15 16  1  0
 16 17  2  0
 17 18  1  0
 18 19  2  0
 19 20  1  0
  5 21  2  0
 21 22  1  0
 22  3  1  0
 10  6  1  0
 20 12  1  0
 19 14  1  0
  1 23  1  0
  1 24  1  0
  1 25  1  0
  2 26  1  0
  2 27  1  0
  6 28  1  6
  7 29  1  0
  7 30  1  0
  8 31  1  0
  8 32  1  0
  9 33  1  0
  9 34  1  0
 11 35  1  0
 11 36  1  0
 13 37  1  0
 15 38  1  0
 16 39  1  0
 17 40  1  0
 18 41  1  0
M  CHG  1  13   1
M  END
>  <UniqueID>  (7) 
6

>  <SMILES>  (7) 
CCc1nc([C@H]2CCCN2Cc2[nH+]c3ccccc3o2)no1

>  <Energy>  (7) 
120.41229725033529

>  <Genealogy>  (7) 
CCc1nc(C2CCCN2Cc2[nH+]c3ccccc3o2)no1 (protonated)
CCc1nc([C@H]2CCCN2Cc2[nH+]c3ccccc3o2)no1 (chirality)
CCc1nc([C@H]2CCCN2Cc2[nH+]c3ccccc3o2)no1 (3D coordinates assigned)
CCc1nc([C@H]2CCCN2Cc2[nH+]c3ccccc3o2)no1 (nonaromatic ring conformer: 120.41229725033529 kcal/mol)

>  <smiles>  (7) 
CCc1nc(C2CCCN2Cc2nc3ccccc3o2)no1

>  <score_type>  (7) 
oracle

>  <origin>  (7) 
adg

>  <m_score__min__energy>  (7) 
-6.6200000000000001

>  <m_primary>  (7) 
energy

$$$$
7:0
     RDKit          3D

 32 33  0  0  0  0  0  0  0  0999 V2000
   -1.8960   24.9240  -28.6650 C   0  0  0  0  0  0  0  0  0  0  0  0
   -2.8590   25.1200  -29.6950 O   0  0  0  0  0  0  0  0  0  0  0  0
   -3.8980   24.2240  -29.9890 C   0  0  0  0  0  0  0  0  0  0  0  0
   -3.6590   22.9200  -30.4630 C   0  0  0  0  0  0  0  0  0  0  0  0
   -4.7290   22.0650  -30.7430 C   0  0  0  0  0  0  0  0  0  0  0  0
   -6.0510   22.4990  -30.5710 C   0  0  0  0  0  0  0  0  0  0  0  0
   -7.1320   21.5920  -30.8470 N   0  0  0  0  0  0  0  0  0  0  0  0
   -8.3780   21.9810  -31.4460 C   0  0  0  0  0  0  0  0  0  0  0  0
   -8.5230   23.1330  -31.9370 O   0  0  0  0  0  0  0  0  0  0  0  0
   -9.4940   20.9900  -31.5590 C   0  0  0  0  0  0  0  0  0  0  0  0
   -9.3350   20.0110  -33.0930 S   0  0  0  0  0  0  0  0  0  0  0  0
   -7.6290   19.5500  -32.7990 C   0  0  0  0  0  0  0  0  0  0  0  0
   -6.6470   20.0380  -33.6020 N   0  0  0  0  0  0  0  0  0  0  0  0
   -5.3470   19.6980  -33.3960 C   0  0  0  0  0  0  0  0  0  0  0  0
   -5.0090   18.8410  -32.3500 C   0  0  0  0  0  0  0  0  0  0  0  0
   -6.0300   18.3560  -31.5330 C   0  0  0  0  0  0  0  0  0  0  0  0
   -7.3180   18.7180  -31.7710 N   0  0  0  0  0  0  0  0  0  0  0  0
   -6.2870   23.7930  -30.0770 C   0  0  0  0  0  0  0  0  0  0  0  0
   -5.2170   24.6480  -29.7970 C   0  0  0  0  0  0  0  0  0  0  0  0
   -2.3832   25.0232  -27.6838 H   0  0  0  0  0  0  0  0  0  0  0  0
   -1.4595   23.9186  -28.7577 H   0  0  0  0  0  0  0  0  0  0  0  0
   -1.1012   25.6788  -28.7577 H   0  0  0  0  0  0  0  0  0  0  0  0
   -2.6262   22.5726  -30.6136 H   0  0  0  0  0  0  0  0  0  0  0  0
   -4.5322   21.0437  -31.1011 H   0  0  0  0  0  0  0  0  0  0  0  0
   -6.9660   20.5710  -30.6920 H   0  0  0  0  0  0  0  0  0  0  0  0
   -9.4640   20.3121  -30.6932 H   0  0  0  0  0  0  0  0  0  0  0  0
  -10.4494   21.5346  -31.5843 H   0  0  0  0  0  0  0  0  0  0  0  0
   -4.5623   20.0990  -34.0544 H   0  0  0  0  0  0  0  0  0  0  0  0
   -3.9619   18.5540  -32.1731 H   0  0  0  0  0  0  0  0  0  0  0  0
   -5.7930   17.6814  -30.6971 H   0  0  0  0  0  0  0  0  0  0  0  0
   -7.3190   24.1351  -29.9097 H   0  0  0  0  0  0  0  0  0  0  0  0
   -5.4141   25.6633  -29.4223 H   0  0  0  0  0  0  0  0  0  0  0  0
  1  2  1  0
  2  3  1  0
  3  4  2  0
  4  5  1  0
  5  6  2  0
  6  7  1  0
  7  8  1  0
  8  9  2  0
  8 10  1  0
 10 11  1  0
 11 12  1  0
 12 13  2  0
 13 14  1  0
 14 15  2  0
 15 16  1  0
 16 17  2  0
  6 18  1  0
 18 19  2  0
 19  3  1  0
 17 12  1  0
  1 20  1  0
  1 21  1  0
  1 22  1  0
  4 23  1  0
  5 24  1  0
  7 25  1  0
 10 26  1  0
 10 27  1  0
 14 28  1  0
 15 29  1  0
 16 30  1  0
 18 31  1  0
 19 32  1  0
M  END
>  <UniqueID>  (8) 
7

>  <SMILES>  (8) 
COc1ccc(NC(=O)CSc2ncccn2)cc1

>  <Energy>  (8) 
31.198199021851455

>  <Genealogy>  (8) 
COc1ccc(NC(=O)CSc2ncccn2)cc1 (3D coordinates assigned)
COc1ccc(NC(=O)CSc2ncccn2)cc1 (optimized conformer: 31.198199021851455 kcal/mol)

>  <smiles>  (8) 
COc1ccc(NC(=O)CSc2ncccn2)cc1

>  <score_type>  (8) 
oracle

>  <origin>  (8) 
adg

>  <m_score__min__energy>  (8) 
-7.2800000000000002

>  <m_primary>  (8) 
energy

$$$$
8:0
     RDKit          3D

 62 65  0  0  0  0  0  0  0  0999 V2000
   -0.0860   27.1700  -24.0510 C   0  0  0  0  0  0  0  0  0  0  0  0
    0.0310   26.9840  -25.4580 O   0  0  0  0  0  0  0  0  0  0  0  0
   -0.7030   26.0460  -26.2040 C   0  0  0  0  0  0  0  0  0  0  0  0
   -2.0560   25.7620  -25.9300 C   0  0  0  0  0  0  0  0  0  0  0  0
   -2.7480   24.8190  -26.6930 C   0  0  0  0  0  0  0  0  0  0  0  0
   -2.1050   24.1540  -27.7420 C   0  0  0  0  0  0  0  0  0  0  0  0
   -2.8210   23.1860  -28.5210 N   0  0  0  0  0  0  0  0  0  0  0  0
   -3.3500   22.0330  -27.8340 C   0  0  0  0  0  0  0  0  0  0  0  0
   -4.5650   22.0090  -27.4960 O   0  0  0  0  0  0  0  0  0  0  0  0
   -2.5240   20.8550  -27.5560 C   0  0  0  0  0  0  0  0  0  0  0  0
   -1.1530   20.8780  -27.8340 C   0  0  0  0  0  0  0  0  0  0  0  0
   -0.3810   19.7390  -27.6100 C   0  0  0  0  0  0  0  0  0  0  0  0
   -0.9910   18.5850  -27.1130 C   0  0  0  0  0  0  0  0  0  0  0  0
   -2.3270   18.5730  -26.8660 N   0  0  0  0  0  0  0  0  0  0  0  0
   -3.1030   19.6690  -27.0830 C   0  0  0  0  0  0  0  0  0  0  0  0
   -2.9470   23.4100  -29.9800 C   0  0  2  0  0  0  0  0  0  0  0  0
   -4.3710   23.8020  -30.3260 C   0  0  0  0  0  0  0  0  0  0  0  0
   -4.5640   24.9090  -30.8990 O   0  0  0  0  0  0  0  0  0  0  0  0
   -5.4930   22.9620  -30.0090 N   0  0  0  0  0  0  0  0  0  0  0  0
   -6.8470   23.2820  -30.4800 C   0  0  0  0  0  0  0  0  0  0  0  0
   -6.9570   23.1750  -32.0080 C   0  0  0  0  0  0  0  0  0  0  0  0
   -7.8050   21.9490  -32.2960 C   0  0  0  0  0  0  0  0  0  0  0  0
   -8.6740   21.7530  -31.0660 C   0  0  0  0  0  0  0  0  0  0  0  0
   -7.8720   22.3050  -29.8940 C   0  0  0  0  0  0  0  0  0  0  0  0
   -2.3450   22.2810  -30.8220 C   0  0  0  0  0  0  0  0  0  0  0  0
   -0.9620   22.0200  -30.7610 C   0  0  0  0  0  0  0  0  0  0  0  0
   -0.3870   21.0430  -31.5760 C   0  0  0  0  0  0  0  0  0  0  0  0
   -1.1850   20.3590  -32.4900 C   0  0  0  0  0  0  0  0  0  0  0  0
   -2.5030   20.6670  -32.6030 N   0  0  0  0  0  0  0  0  0  0  0  0
   -3.0890   21.6120  -31.8190 C   0  0  0  0  0  0  0  0  0  0  0  0
   -0.7630   24.4350  -28.0260 C   0  0  0  0  0  0  0  0  0  0  0  0
   -0.0530   25.3770  -27.2560 C   0  0  0  0  0  0  0  0  0  0  0  0
    1.2970   25.6760  -27.5050 O   0  0  0  0  0  0  0  0  0  0  0  0
    2.3850   25.2140  -26.7100 C   0  0  0  0  0  0  0  0  0  0  0  0
    0.4295   26.3505  -23.5287 H   0  0  0  0  0  0  0  0  0  0  0  0
    0.3713   28.1298  -23.7687 H   0  0  0  0  0  0  0  0  0  0  0  0
   -1.1492   27.1733  -23.7687 H   0  0  0  0  0  0  0  0  0  0  0  0
   -2.5698   26.2860  -25.1106 H   0  0  0  0  0  0  0  0  0  0  0  0
   -3.8020   24.5986  -26.4683 H   0  0  0  0  0  0  0  0  0  0  0  0
   -0.6855   21.7923  -28.2282 H   0  0  0  0  0  0  0  0  0  0  0  0
    0.6982   19.7490  -27.8226 H   0  0  0  0  0  0  0  0  0  0  0  0
   -0.3889   17.6846  -26.9213 H   0  0  0  0  0  0  0  0  0  0  0  0
   -4.1846   19.6247  -26.8874 H   0  0  0  0  0  0  0  0  0  0  0  0
   -2.3194   24.2682  -30.2621 H   0  0  0  0  0  0  0  0  0  0  0  0
   -5.3190   22.0530  -29.5260 H   0  0  0  0  0  0  0  0  0  0  0  0
   -7.0491   24.3131  -30.1546 H   0  0  0  0  0  0  0  0  0  0  0  0
   -7.4389   24.0749  -32.4180 H   0  0  0  0  0  0  0  0  0  0  0  0
   -5.9637   23.0888  -32.4726 H   0  0  0  0  0  0  0  0  0  0  0  0
   -8.4307   22.1156  -33.1852 H   0  0  0  0  0  0  0  0  0  0  0  0
   -7.1840   21.0642  -32.4998 H   0  0  0  0  0  0  0  0  0  0  0  0
   -9.6203   22.3033  -31.1747 H   0  0  0  0  0  0  0  0  0  0  0  0
   -8.9287   20.6933  -30.9169 H   0  0  0  0  0  0  0  0  0  0  0  0
   -8.5379   22.8299  -29.1932 H   0  0  0  0  0  0  0  0  0  0  0  0
   -7.3740   21.4954  -29.3404 H   0  0  0  0  0  0  0  0  0  0  0  0
   -0.3296   22.5909  -30.0652 H   0  0  0  0  0  0  0  0  0  0  0  0
    0.6863   20.8156  -31.4970 H   0  0  0  0  0  0  0  0  0  0  0  0
   -0.7481   19.5700  -33.1198 H   0  0  0  0  0  0  0  0  0  0  0  0
   -4.1516   21.8572  -31.9628 H   0  0  0  0  0  0  0  0  0  0  0  0
   -0.2599   23.9168  -28.8557 H   0  0  0  0  0  0  0  0  0  0  0  0
    2.1323   25.3213  -25.6448 H   0  0  0  0  0  0  0  0  0  0  0  0
    2.5804   24.1553  -26.9356 H   0  0  0  0  0  0  0  0  0  0  0  0
    3.2825   25.8087  -26.9356 H   0  0  0  0  0  0  0  0  0  0  0  0
  1  2  1  0
  2  3  1  0
  3  4  2  0
  4  5  1  0
  5  6  2  0
  6  7  1  0
  7  8  1  0
  8  9  2  0
  8 10  1  0
 10 11  2  0
 11 12  1  0
 12 13  2  0
 13 14  1  0
 14 15  2  0
  7 16  1  0
 16 17  1  0
 17 18  2  0
 17 19  1  0
 19 20  1  0
 20 21  1  0
 21 22  1  0
 22 23  1  0
 23 24  1  0
 16 25  1  0
 25 26  2  0
 26 27  1  0
 27 28  2  0
 28 29  1  0
 29 30  2  0
  6 31  1  0
 31 32  2  0
 32 33  1  0
 33 34  1  0
 32  3  1  0
 15 10  1  0
 24 20  1  0
 30 25  1  0
  1 35  1  0
  1 36  1  0
  1 37  1  0
  4 38  1  0
  5 39  1  0
 11 40  1  0
 12 41  1  0
 13 42  1  0
 15 43  1  0
 16 44  1  6
 19 45  1  0
 20 46  1  0
 21 47  1  0
 21 48  1  0
 22 49  1  0
 22 50  1  0
 23 51  1  0
 23 52  1  0
 24 53  1  0
 24 54  1  0
 26 55  1  0
 27 56  1  0
 28 57  1  0
 30 58  1  0
 31 59  1  0
 34 60  1  0
 34 61  1  0
 34 62  1  0
M  END
>  <UniqueID>  (9) 
8

>  <SMILES>  (9) 
COc1ccc(N(C(=O)c2cccnc2)[C@H](C(=O)NC2CCCC2)c2cccnc2)cc1OC

>  <Energy>  (9) 
83.13591438129761

>  <Genealogy>  (9) 
COc1ccc(N(C(=O)c2cccnc2)[C@H](C(=O)NC2CCCC2)c2cccnc2)cc1OC (chirality)
COc1ccc(N(C(=O)c2cccnc2)[C@H](C(=O)NC2CCCC2)c2cccnc2)cc1OC (3D coordinates assigned)
COc1ccc(N(C(=O)c2cccnc2)[C@H](C(=O)NC2CCCC2)c2cccnc2)cc1OC (nonaromatic ring conformer: 83.13591438129761 kcal/mol)

>  <smiles>  (9) 
COc1ccc(N(C(=O)c2cccnc2)C(C(=O)NC2CCCC2)c2cccnc2)cc1OC

>  <score_type>  (9) 
oracle

>  <origin>  (9) 
adg

>  <m_score__min__energy>  (9) 
-9.3900000000000006

>  <m_primary>  (9) 
energy

$$$$
9:0
     RDKit          3D

 39 41  0  0  0  0  0  0  0  0999 V2000
   -1.5470   25.5140  -28.1900 C   0  0  0  0  0  0  0  0  0  0  0  0
   -2.3730   25.2870  -29.3280 O   0  0  0  0  0  0  0  0  0  0  0  0
   -2.8610   24.0290  -29.7260 C   0  0  0  0  0  0  0  0  0  0  0  0
   -2.0590   22.8780  -29.6540 C   0  0  0  0  0  0  0  0  0  0  0  0
   -2.5650   21.6390  -30.0330 C   0  0  0  0  0  0  0  0  0  0  0  0
   -3.8690   21.5210  -30.5110 C   0  0  0  0  0  0  0  0  0  0  0  0
   -4.6960   22.6530  -30.6340 C   0  0  0  0  0  0  0  0  0  0  0  0
   -4.1860   23.9220  -30.2040 C   0  0  0  0  0  0  0  0  0  0  0  0
   -5.0160   25.0680  -30.2470 C   0  0  0  0  0  0  0  0  0  0  0  0
   -6.3340   24.9840  -30.6990 C   0  0  0  0  0  0  0  0  0  0  0  0
   -6.8090   23.7530  -31.1320 C   0  0  0  0  0  0  0  0  0  0  0  0
   -8.0370   23.5230  -31.6220 N   0  0  0  0  0  0  0  0  0  0  0  0
   -8.0660   22.2230  -31.9630 C   0  0  0  0  0  0  0  0  0  0  0  0
   -6.8470   21.6150  -31.6940 C   0  0  0  0  0  0  0  0  0  0  0  0
   -6.5670   20.1790  -32.0510 C   0  0  0  0  0  0  0  0  0  0  0  0
   -5.8580   20.0370  -33.4060 C   0  0  0  0  0  0  0  0  0  0  0  0
   -4.6710   20.8850  -33.5180 N   0  0  0  0  0  0  0  0  0  0  0  0
   -3.3520   20.3450  -33.3770 C   0  0  0  0  0  0  0  0  0  0  0  0
   -2.1630   21.2450  -33.4710 C   0  0  0  0  0  0  0  0  0  0  0  0
   -3.1870   19.1150  -33.1500 O   0  0  0  0  0  0  0  0  0  0  0  0
   -6.0290   22.6110  -31.1290 C   0  0  0  0  0  0  0  0  0  0  0  0
   -2.1333   25.3529  -27.2733 H   0  0  0  0  0  0  0  0  0  0  0  0
   -0.6969   24.8162  -28.2089 H   0  0  0  0  0  0  0  0  0  0  0  0
   -1.1729   26.5483  -28.2089 H   0  0  0  0  0  0  0  0  0  0  0  0
   -1.0223   22.9571  -29.2949 H   0  0  0  0  0  0  0  0  0  0  0  0
   -1.9302   20.7441  -29.9548 H   0  0  0  0  0  0  0  0  0  0  0  0
   -4.2562   20.5315  -30.7954 H   0  0  0  0  0  0  0  0  0  0  0  0
   -4.6164   26.0391  -29.9194 H   0  0  0  0  0  0  0  0  0  0  0  0
   -6.9818   25.8729  -30.7119 H   0  0  0  0  0  0  0  0  0  0  0  0
   -8.8100   24.2150  -31.7370 H   0  0  0  0  0  0  0  0  0  0  0  0
   -8.9374   21.7103  -32.3964 H   0  0  0  0  0  0  0  0  0  0  0  0
   -5.9280   19.7397  -31.2708 H   0  0  0  0  0  0  0  0  0  0  0  0
   -7.5332   19.6582  -32.1233 H   0  0  0  0  0  0  0  0  0  0  0  0
   -5.5535   18.9879  -33.5348 H   0  0  0  0  0  0  0  0  0  0  0  0
   -6.5665   20.3556  -34.1848 H   0  0  0  0  0  0  0  0  0  0  0  0
   -4.7620   21.9140  -33.6640 H   0  0  0  0  0  0  0  0  0  0  0  0
   -1.8192   21.5052  -32.4590 H   0  0  0  0  0  0  0  0  0  0  0  0
   -1.3552   20.7300  -34.0116 H   0  0  0  0  0  0  0  0  0  0  0  0
   -2.4393   22.1623  -34.0116 H   0  0  0  0  0  0  0  0  0  0  0  0
  1  2  1  0
  2  3  1  0
  3  4  2  0
  4  5  1  0
  5  6  2  0
  6  7  1  0
  7  8  2  0
  8  9  1  0
  9 10  2  0
 10 11  1  0
 11 12  1  0
 12 13  1  0
 13 14  2  0
 14 15  1  0
 15 16  1  0
 16 17  1  0
 17 18  1  0
 18 19  1  0
 18 20  2  0
 14 21  1  0
  8  3  1  0
 21 11  2  0
 21  7  1  0
  1 22  1  0
  1 23  1  0
  1 24  1  0
  4 25  1  0
  5 26  1  0
  6 27  1  0
  9 28  1  0
 10 29  1  0
 12 30  1  0
 13 31  1  0
 15 32  1  0
 15 33  1  0
 16 34  1  0
 16 35  1  0
 17 36  1  0
 19 37  1  0
 19 38  1  0
 19 39  1  0
M  END
>  <UniqueID>  (10) 
9

>  <SMILES>  (10) 
COc1cccc2c1ccc1[nH]cc(CCNC(C)=O)c12

>  <Energy>  (10) 
78.02373117123264

>  <Genealogy>  (10) 
COc1cccc2c1ccc1[nH]cc(CCNC(C)=O)c12 (3D coordinates assigned)
COc1cccc2c1ccc1[nH]cc(CCNC(C)=O)c12 (optimized conformer: 78.02373117123264 kcal/mol)

>  <smiles>  (10) 
COc1cccc2c1ccc1[nH]cc(CCNC(C)=O)c12

>  <score_type>  (10) 
oracle

>  <origin>  (10) 
adg

>  <m_score__min__energy>  (10) 
-8.7400000000000002

>  <m_primary>  (10) 
energy

$$$$
10:0
     RDKit          3D

 34 36  0  0  0  0  0  0  0  0999 V2000
   -4.4940   25.7170  -29.6280 H   0  0  0  0  0  0  0  0  0  0  0  0
   -3.8590   25.2170  -30.2900 N   0  0  0  0  0  0  0  0  0  0  0  0
   -4.1800   24.0680  -30.8010 C   0  0  0  0  0  0  0  0  0  0  0  0
   -3.2000   23.2380  -31.2410 N   0  0  0  0  0  0  0  0  0  0  0  0
   -3.4560   22.0220  -31.7890 C   0  0  0  0  0  0  0  0  0  0  0  0
   -2.3520   21.2330  -32.2580 N   0  0  0  0  0  0  0  0  0  0  0  0
   -2.2430   20.8990  -33.6850 C   0  0  0  0  0  0  0  0  0  0  0  0
   -2.3586   19.8130  -33.8166 H   0  0  0  0  0  0  0  0  0  0  0  0
   -3.0316   21.4238  -34.2442 H   0  0  0  0  0  0  0  0  0  0  0  0
   -0.8720   21.3330  -34.2110 C   0  0  0  0  0  0  0  0  0  0  0  0
   -0.7532   20.9524  -35.2362 H   0  0  0  0  0  0  0  0  0  0  0  0
   -0.8382   22.4319  -34.1748 H   0  0  0  0  0  0  0  0  0  0  0  0
    0.3000   20.8050  -33.3500 C   0  0  0  0  0  0  0  0  0  0  0  0
    0.8592   20.0660  -33.9426 H   0  0  0  0  0  0  0  0  0  0  0  0
    0.9115   21.6771  -33.0751 H   0  0  0  0  0  0  0  0  0  0  0  0
   -0.1410   20.1380  -32.0360 C   0  0  0  0  0  0  0  0  0  0  0  0
   -0.5215   19.1297  -32.2565 H   0  0  0  0  0  0  0  0  0  0  0  0
    0.7284   20.0888  -31.3639 H   0  0  0  0  0  0  0  0  0  0  0  0
   -1.2430   20.9460  -31.3410 C   0  0  0  0  0  0  0  0  0  0  0  0
   -1.6252   20.3692  -30.4858 H   0  0  0  0  0  0  0  0  0  0  0  0
   -0.8138   21.9015  -31.0051 H   0  0  0  0  0  0  0  0  0  0  0  0
   -4.7890   21.5700  -31.8940 C   0  0  0  0  0  0  0  0  0  0  0  0
   -5.0950   20.2900  -32.3980 C   0  0  0  0  0  0  0  0  0  0  0  0
   -4.2821   19.6190  -32.7127 H   0  0  0  0  0  0  0  0  0  0  0  0
   -6.4200   19.8670  -32.5010 C   0  0  0  0  0  0  0  0  0  0  0  0
   -6.6469   18.8693  -32.9049 H   0  0  0  0  0  0  0  0  0  0  0  0
   -7.4580   20.7040  -32.0940 C   0  0  0  0  0  0  0  0  0  0  0  0
   -9.1210   20.1630  -32.2260 Cl  0  0  0  0  0  0  0  0  0  0  0  0
   -7.1750   21.9690  -31.5720 C   0  0  0  0  0  0  0  0  0  0  0  0
   -7.9991   22.6218  -31.2485 H   0  0  0  0  0  0  0  0  0  0  0  0
   -5.8410   22.4170  -31.4560 C   0  0  0  0  0  0  0  0  0  0  0  0
   -5.5290   23.6830  -30.9050 C   0  0  0  0  0  0  0  0  0  0  0  0
   -6.5680   24.5820  -30.4400 C   0  0  0  0  0  0  0  0  0  0  0  0
   -7.3970   25.2980  -30.0690 N   0  0  0  0  0  0  0  0  0  0  0  0
  1  2  1  0
  2  3  2  0
  3  4  1  0
  4  5  1  0
  5  6  1  0
  6  7  1  0
  7  8  1  0
  7  9  1  0
  7 10  1  0
 10 11  1  0
 10 12  1  0
 10 13  1  0
 13 14  1  0
 13 15  1  0
 13 16  1  0
 16 17  1  0
 16 18  1  0
 16 19  1  0
 19 20  1  0
 19 21  1  0
  5 22  2  0
 22 23  1  0
 23 24  1  0
 23 25  2  0
 25 26  1  0
 25 27  1  0
 27 28  1  0
 27 29  2  0
 29 30  1  0
 29 31  1  0
 31 32  2  0
 32 33  1  0
 33 34  3  0
 32  3  1  0
 19  6  1  0
 31 22  1  0
M  CHG  1   4  -1
M  END
>  <UniqueID>  (11) 
10

>  <SMILES>  (11) 
[H]/N=c1\[n-]c(N2CCCCC2)c2ccc(Cl)cc2c1C#N

>  <Energy>  (11) 
48.67837157279735

>  <Genealogy>  (11) 
N#Cc1c(=N)[n-]c(N2CCCCC2)c2ccc(Cl)cc12 (protonated)
[H]/N=c1\[n-]c(N2CCCCC2)c2ccc(Cl)cc2c1C#N (cis-trans isomerization)
[H]/N=c1\[n-]c(N2CCCCC2)c2ccc(Cl)cc2c1C#N (3D coordinates assigned)
[H]/N=c1\[n-]c(N2CCCCC2)c2ccc(Cl)cc2c1C#N (nonaromatic ring conformer: 48.67837157279735 kcal/mol)

>  <smiles>  (11) 
N#Cc1c(=N)[nH]c(N2CCCCC2)c2ccc(Cl)cc12

>  <score_type>  (11) 
oracle

>  <origin>  (11) 
adg

>  <m_score__min__energy>  (11) 
-8.7599999999999998

>  <m_primary>  (11) 
energy

$$$$
11:0
     RDKit          3D

 44 46  0  0  0  0  0  0  0  0999 V2000
   -3.3210   25.3010  -25.9570 C   0  0  0  0  0  0  0  0  0  0  0  0
   -4.1880   24.5770  -26.9810 C   0  0  0  0  0  0  0  0  0  0  0  0
   -3.3650   24.0630  -28.0790 N   0  0  0  0  0  0  0  0  0  0  0  0
   -2.1640   23.4710  -27.9240 C   0  0  0  0  0  0  0  0  0  0  0  0
   -1.6550   23.1060  -29.1500 C   0  0  0  0  0  0  0  0  0  0  0  0
   -2.5860   23.4840  -30.0940 C   0  0  0  0  0  0  0  0  0  0  0  0
   -3.6470   24.0520  -29.4060 C   0  0  0  0  0  0  0  0  0  0  0  0
   -4.8880   24.6590  -30.0360 C   0  0  0  0  0  0  0  0  0  0  0  0
   -5.7740   23.6770  -30.7000 N   0  0  0  0  0  0  0  0  0  0  0  0
   -6.4970   22.7910  -29.7660 C   0  0  0  0  0  0  0  0  0  0  0  0
   -7.5140   21.9420  -30.5320 C   0  0  0  0  0  0  0  0  0  0  0  0
   -6.8790   21.2540  -31.6620 N   0  0  0  0  0  0  0  0  0  0  0  0
   -7.6740   20.3840  -32.4880 C   0  0  0  0  0  0  0  0  0  0  0  0
   -8.8760   20.6840  -32.7250 O   0  0  0  0  0  0  0  0  0  0  0  0
   -7.1270   19.1430  -33.0750 C   0  0  0  0  0  0  0  0  0  0  0  0
   -7.4740   17.8790  -32.5690 C   0  0  0  0  0  0  0  0  0  0  0  0
   -6.9460   16.7320  -33.1670 C   0  0  0  0  0  0  0  0  0  0  0  0
   -6.0920   16.8510  -34.2640 C   0  0  0  0  0  0  0  0  0  0  0  0
   -5.7830   18.1210  -34.7550 C   0  0  0  0  0  0  0  0  0  0  0  0
   -6.3060   19.2260  -34.1590 N   0  0  0  0  0  0  0  0  0  0  0  0
   -5.4680   21.5160  -31.9700 C   0  0  0  0  0  0  0  0  0  0  0  0
   -5.1780   23.0220  -31.8930 C   0  0  0  0  0  0  0  0  0  0  0  0
   -3.6471   25.0286  -24.9424 H   0  0  0  0  0  0  0  0  0  0  0  0
   -2.2695   25.0090  -26.0949 H   0  0  0  0  0  0  0  0  0  0  0  0
   -3.4208   26.3877  -26.0949 H   0  0  0  0  0  0  0  0  0  0  0  0
   -4.7025   23.7375  -26.4907 H   0  0  0  0  0  0  0  0  0  0  0  0
   -4.9231   25.2861  -27.3894 H   0  0  0  0  0  0  0  0  0  0  0  0
   -1.6636   23.3039  -26.9588 H   0  0  0  0  0  0  0  0  0  0  0  0
   -0.6921   22.6091  -29.3396 H   0  0  0  0  0  0  0  0  0  0  0  0
   -2.5029   23.3589  -31.1837 H   0  0  0  0  0  0  0  0  0  0  0  0
   -5.4636   25.1643  -29.2465 H   0  0  0  0  0  0  0  0  0  0  0  0
   -4.5397   25.3496  -30.8181 H   0  0  0  0  0  0  0  0  0  0  0  0
   -5.7778   22.1300  -29.2603 H   0  0  0  0  0  0  0  0  0  0  0  0
   -7.0261   23.4048  -29.0221 H   0  0  0  0  0  0  0  0  0  0  0  0
   -7.9438   21.1932  -29.8504 H   0  0  0  0  0  0  0  0  0  0  0  0
   -8.3009   22.6043  -30.9220 H   0  0  0  0  0  0  0  0  0  0  0  0
   -8.1553   17.7932  -31.7097 H   0  0  0  0  0  0  0  0  0  0  0  0
   -7.2030   15.7373  -32.7739 H   0  0  0  0  0  0  0  0  0  0  0  0
   -5.6666   15.9536  -34.7371 H   0  0  0  0  0  0  0  0  0  0  0  0
   -5.1167   18.2278  -35.6237 H   0  0  0  0  0  0  0  0  0  0  0  0
   -4.8335   20.9864  -31.2441 H   0  0  0  0  0  0  0  0  0  0  0  0
   -5.2515   21.1609  -32.9883 H   0  0  0  0  0  0  0  0  0  0  0  0
   -4.0879   23.1661  -31.8619 H   0  0  0  0  0  0  0  0  0  0  0  0
   -5.6334   23.4864  -32.7801 H   0  0  0  0  0  0  0  0  0  0  0  0
  1  2  1  0
  2  3  1  0
  3  4  1  0
  4  5  2  0
  5  6  1  0
  6  7  2  0
  7  8  1  0
  8  9  1  0
  9 10  1  0
 10 11  1  0
 11 12  1  0
 12 13  1  0
 13 14  2  0
 13 15  1  0
 15 16  2  0
 16 17  1  0
 17 18  2  0
 18 19  1  0
 19 20  2  0
 12 21  1  0
 21 22  1  0
  7  3  1  0
 22  9  1  0
 20 15  1  0
  1 23  1  0
  1 24  1  0
  1 25  1  0
  2 26  1  0
  2 27  1  0
  4 28  1  0
  5 29  1  0
  6 30  1  0
  8 31  1  0
  8 32  1  0
 10 33  1  0
 10 34  1  0
 11 35  1  0
 11 36  1  0
 16 37  1  0
 17 38  1  0
 18 39  1  0
 19 40  1  0
 21 41  1  0
 21 42  1  0
 22 43  1  0
 22 44  1  0
M  END
>  <UniqueID>  (12) 
11

>  <SMILES>  (12) 
CCn1cccc1CN1CCN(C(=O)c2ccccn2)CC1

>  <Energy>  (12) 
82.28109118017302

>  <Genealogy>  (12) 
CCn1cccc1CN1CCN(C(=O)c2ccccn2)CC1 (3D coordinates assigned)
CCn1cccc1CN1CCN(C(=O)c2ccccn2)CC1 (nonaromatic ring conformer: 82.28109118017302 kcal/mol)

>  <smiles>  (12) 
CCn1cccc1CN1CCN(C(=O)c2ccccn2)CC1

>  <score_type>  (12) 
oracle

>  <origin>  (12) 
adg

>  <m_score__min__energy>  (12) 
-7.4100000000000001

>  <m_primary>  (12) 
energy

$$$$
12:0
     RDKit          3D

 51 54  0  0  0  0  0  0  0  0999 V2000
   -5.2565   26.1732  -31.7660 H   0  0  0  0  0  0  0  0  0  0  0  0
   -4.9790   25.3030  -31.1530 C   0  0  0  0  0  0  0  0  0  0  0  0
   -4.0070   25.4210  -30.2130 N   0  0  0  0  0  0  0  0  0  0  0  0
   -3.6360   24.3760  -29.4310 C   0  0  0  0  0  0  0  0  0  0  0  0
   -2.6330   24.5550  -28.4700 C   0  0  0  0  0  0  0  0  0  0  0  0
   -2.1523   25.5385  -28.3619 H   0  0  0  0  0  0  0  0  0  0  0  0
   -2.2340   23.4910  -27.6420 C   0  0  0  0  0  0  0  0  0  0  0  0
   -1.1680   23.6930  -26.6260 C   0  0  0  0  0  0  0  0  0  0  0  0
   -0.4400   22.4750  -25.7140 S   0  0  0  0  0  0  0  0  0  0  0  0
    0.6010   23.4620  -24.8430 C   0  0  0  0  0  0  0  0  0  0  0  0
    1.3208   23.1293  -24.0807 H   0  0  0  0  0  0  0  0  0  0  0  0
    0.3940   24.7740  -25.2540 C   0  0  0  0  0  0  0  0  0  0  0  0
    1.1560   25.9470  -24.6850 C   0  0  0  0  0  0  0  0  0  0  0  0
    2.2069   25.6484  -24.5567 H   0  0  0  0  0  0  0  0  0  0  0  0
    1.0382   26.7797  -25.3941 H   0  0  0  0  0  0  0  0  0  0  0  0
    0.6410   26.4180  -23.3770 N   0  0  0  0  0  0  0  0  0  0  0  0
    0.9500   25.7190  -22.6590 H   0  0  0  0  0  0  0  0  0  0  0  0
   -0.8310   26.4590  -23.3370 C   0  0  0  0  0  0  0  0  0  0  0  0
   -1.1692   26.4684  -22.2903 H   0  0  0  0  0  0  0  0  0  0  0  0
   -1.1865   27.3674  -23.8454 H   0  0  0  0  0  0  0  0  0  0  0  0
   -1.2365   25.5718  -23.8454 H   0  0  0  0  0  0  0  0  0  0  0  0
    1.2100   27.7210  -22.9870 C   0  0  0  0  0  0  0  0  0  0  0  0
    1.2417   27.7936  -21.8899 H   0  0  0  0  0  0  0  0  0  0  0  0
    2.2295   27.8113  -23.3901 H   0  0  0  0  0  0  0  0  0  0  0  0
    0.5833   28.5302  -23.3901 H   0  0  0  0  0  0  0  0  0  0  0  0
   -0.5870   24.9040  -26.2510 C   0  0  0  0  0  0  0  0  0  0  0  0
   -0.8702   25.8701  -26.6942 H   0  0  0  0  0  0  0  0  0  0  0  0
   -2.8550   22.2380  -27.8000 C   0  0  0  0  0  0  0  0  0  0  0  0
   -2.5492   21.3954  -27.1624 H   0  0  0  0  0  0  0  0  0  0  0  0
   -3.8550   22.0520  -28.7570 C   0  0  0  0  0  0  0  0  0  0  0  0
   -4.3294   21.0655  -28.8653 H   0  0  0  0  0  0  0  0  0  0  0  0
   -4.2610   23.1160  -29.5840 C   0  0  0  0  0  0  0  0  0  0  0  0
   -5.2640   22.9620  -30.5700 C   0  0  0  0  0  0  0  0  0  0  0  0
   -5.8540   21.8040  -30.7130 N   0  0  0  0  0  0  0  0  0  0  0  0
   -5.7650   20.9000  -31.8260 C   0  0  0  0  0  0  0  0  0  0  0  0
   -6.9130   20.2220  -32.2470 C   0  0  0  0  0  0  0  0  0  0  0  0
   -7.8762   20.4193  -31.7538 H   0  0  0  0  0  0  0  0  0  0  0  0
   -6.8440   19.2940  -33.2920 C   0  0  0  0  0  0  0  0  0  0  0  0
   -7.7562   18.7807  -33.6303 H   0  0  0  0  0  0  0  0  0  0  0  0
   -5.6110   19.0150  -33.9120 C   0  0  0  0  0  0  0  0  0  0  0  0
   -5.4880   18.0960  -34.9640 O   0  0  0  0  0  0  0  0  0  0  0  0
   -4.5650   17.0110  -34.9810 C   0  0  0  0  0  0  0  0  0  0  0  0
   -4.3194   16.7223  -33.9484 H   0  0  0  0  0  0  0  0  0  0  0  0
   -5.0155   16.1545  -35.5039 H   0  0  0  0  0  0  0  0  0  0  0  0
   -3.6473   17.3184  -35.5039 H   0  0  0  0  0  0  0  0  0  0  0  0
   -4.4580   19.6700  -33.4630 C   0  0  0  0  0  0  0  0  0  0  0  0
   -3.4885   19.4535  -33.9355 H   0  0  0  0  0  0  0  0  0  0  0  0
   -4.5290   20.5970  -32.4190 C   0  0  0  0  0  0  0  0  0  0  0  0
   -3.6135   21.0906  -32.0610 H   0  0  0  0  0  0  0  0  0  0  0  0
   -5.6270   24.0840  -31.3450 C   0  0  0  0  0  0  0  0  0  0  0  0
   -6.4215   23.9966  -32.1008 H   0  0  0  0  0  0  0  0  0  0  0  0
  1  2  1  0
  2  3  1  0
  3  4  1  0
  4  5  2  0
  5  6  1  0
  5  7  1  0
  7  8  1  0
  8  9  1  0
  9 10  1  0
 10 11  1  0
 10 12  2  0
 12 13  1  0
 13 14  1  0
 13 15  1  0
 13 16  1  0
 16 17  1  0
 16 18  1  0
 18 19  1  0
 18 20  1  0
 18 21  1  0
 16 22  1  0
 22 23  1  0
 22 24  1  0
 22 25  1  0
 12 26  1  0
 26 27  1  0
  7 28  2  0
 28 29  1  0
 28 30  1  0
 30 31  1  0
 30 32  2  0
 32 33  1  0
 33 34  2  0
 34 35  1  0
 35 36  2  0
 36 37  1  0
 36 38  1  0
 38 39  1  0
 38 40  2  0
 40 41  1  0
 41 42  1  0
 42 43  1  0
 42 44  1  0
 42 45  1  0
 40 46  1  0
 46 47  1  0
 46 48  2  0
 48 49  1  0
 33 50  1  0
 50 51  1  0
 50  2  2  0
 32  4  1  0
 48 35  1  0
 26  8  2  0
M  CHG  2   3  -1  16   1
M  END
>  <UniqueID>  (13) 
12

>  <SMILES>  (13) 
COc1ccc(/N=c2\cc[n-]c3cc(-c4cc(C[NH+](C)C)cs4)ccc23)cc1

>  <Energy>  (13) 
98.2981555122385

>  <Genealogy>  (13) 
COc1ccc(N=c2cc[n-]c3cc(-c4cc(C[NH+](C)C)cs4)ccc23)cc1 (protonated)
COc1ccc(/N=c2\cc[n-]c3cc(-c4cc(C[NH+](C)C)cs4)ccc23)cc1 (cis-trans isomerization)
COc1ccc(/N=c2\cc[n-]c3cc(-c4cc(C[NH+](C)C)cs4)ccc23)cc1 (3D coordinates assigned)
COc1ccc(/N=c2\cc[n-]c3cc(-c4cc(C[NH+](C)C)cs4)ccc23)cc1 (optimized conformer: 98.2981555122385 kcal/mol)

>  <smiles>  (13) 
COc1ccc(N=c2cc[nH]c3cc(-c4cc(CN(C)C)cs4)ccc23)cc1

>  <score_type>  (13) 
oracle

>  <origin>  (13) 
adg

>  <m_score__min__energy>  (13) 
-10.15

>  <m_primary>  (13) 
energy

$$$$
13:0
     RDKit          3D

 52 55  0  0  0  0  0  0  0  0999 V2000
    1.1020   25.4100  -36.5550 C   0  0  0  0  0  0  0  0  0  0  0  0
    1.7120   24.2390  -37.0470 O   0  0  0  0  0  0  0  0  0  0  0  0
    1.6320   23.0980  -36.2520 C   0  0  0  0  0  0  0  0  0  0  0  0
    0.4080   22.4810  -36.0010 C   0  0  0  0  0  0  0  0  0  0  0  0
    0.3330   21.3480  -35.2110 C   0  0  0  0  0  0  0  0  0  0  0  0
   -0.8500   20.7330  -34.9510 N   0  0  0  0  0  0  0  0  0  0  0  0
   -0.9230   19.6330  -34.1800 C   0  0  0  0  0  0  0  0  0  0  0  0
   -2.1770   18.9780  -33.8870 N   0  0  0  0  0  0  0  0  0  0  0  0
   -2.4800   17.7270  -34.5260 C   0  0  0  0  0  0  0  0  0  0  0  0
   -3.9350   17.4270  -34.6090 C   0  0  0  0  0  0  0  0  0  0  0  0
   -4.8030   18.3070  -33.8890 N   0  0  0  0  0  0  0  0  0  0  0  0
   -6.1560   17.8320  -33.6820 C   0  0  0  0  0  0  0  0  0  0  0  0
   -6.5150   16.7290  -34.1180 O   0  0  0  0  0  0  0  0  0  0  0  0
   -7.1260   18.6360  -32.9600 C   0  0  0  0  0  0  0  0  0  0  0  0
   -7.3710   19.9700  -33.2230 C   0  0  0  0  0  0  0  0  0  0  0  0
   -8.3210   20.7000  -32.5000 C   0  0  0  0  0  0  0  0  0  0  0  0
   -9.0300   20.0540  -31.4950 C   0  0  0  0  0  0  0  0  0  0  0  0
   -8.7800   18.7100  -31.2350 C   0  0  0  0  0  0  0  0  0  0  0  0
   -7.8420   17.9960  -31.9500 C   0  0  0  0  0  0  0  0  0  0  0  0
   -4.4530   19.5920  -33.3820 C   0  0  0  0  0  0  0  0  0  0  0  0
   -3.0230   19.6480  -32.9300 C   0  0  0  0  0  0  0  0  0  0  0  0
    0.2430   19.1770  -33.6820 N   0  0  0  0  0  0  0  0  0  0  0  0
    1.4420   19.7340  -33.8970 C   0  0  0  0  0  0  0  0  0  0  0  0
    2.4960   19.2310  -33.3670 N   0  0  0  0  0  0  0  0  0  0  0  0
    1.5220   20.8490  -34.6760 C   0  0  0  0  0  0  0  0  0  0  0  0
    2.7320   21.4620  -34.9280 C   0  0  0  0  0  0  0  0  0  0  0  0
    2.8140   22.5910  -35.7130 C   0  0  0  0  0  0  0  0  0  0  0  0
    3.9900   23.2550  -36.0040 O   0  0  0  0  0  0  0  0  0  0  0  0
    4.2970   24.4250  -35.2690 C   0  0  0  0  0  0  0  0  0  0  0  0
    1.1106   25.3936  -35.4552 H   0  0  0  0  0  0  0  0  0  0  0  0
    1.6562   26.2902  -36.9129 H   0  0  0  0  0  0  0  0  0  0  0  0
    0.0631   25.4604  -36.9129 H   0  0  0  0  0  0  0  0  0  0  0  0
   -0.5107   22.9005  -36.4369 H   0  0  0  0  0  0  0  0  0  0  0  0
   -1.6820   21.1730  -35.3970 H   0  0  0  0  0  0  0  0  0  0  0  0
   -2.0733   17.7530  -35.5477 H   0  0  0  0  0  0  0  0  0  0  0  0
   -2.0266   16.9366  -33.9098 H   0  0  0  0  0  0  0  0  0  0  0  0
   -4.2252   17.4628  -35.6694 H   0  0  0  0  0  0  0  0  0  0  0  0
   -4.0596   16.4405  -34.1387 H   0  0  0  0  0  0  0  0  0  0  0  0
   -6.8045   20.4714  -34.0216 H   0  0  0  0  0  0  0  0  0  0  0  0
   -8.5024   21.7619  -32.7225 H   0  0  0  0  0  0  0  0  0  0  0  0
   -9.7834   20.6009  -30.9091 H   0  0  0  0  0  0  0  0  0  0  0  0
   -9.3454   18.2042  -30.4384 H   0  0  0  0  0  0  0  0  0  0  0  0
   -7.6610   16.9344  -31.7261 H   0  0  0  0  0  0  0  0  0  0  0  0
   -4.6044   20.3397  -34.1745 H   0  0  0  0  0  0  0  0  0  0  0  0
   -5.0927   19.7994  -32.5115 H   0  0  0  0  0  0  0  0  0  0  0  0
   -2.7102   20.6987  -32.8400 H   0  0  0  0  0  0  0  0  0  0  0  0
   -2.9325   19.1472  -31.9548 H   0  0  0  0  0  0  0  0  0  0  0  0
    2.4990   18.3230  -32.8440 H   0  0  0  0  0  0  0  0  0  0  0  0
    3.6503   21.0405  -34.4931 H   0  0  0  0  0  0  0  0  0  0  0  0
    4.2398   24.2072  -34.1923 H   0  0  0  0  0  0  0  0  0  0  0  0
    5.3136   24.7606  -35.5217 H   0  0  0  0  0  0  0  0  0  0  0  0
    3.5761   25.2165  -35.5217 H   0  0  0  0  0  0  0  0  0  0  0  0
  1  2  1  0
  2  3  1  0
  3  4  2  0
  4  5  1  0
  5  6  1  0
  6  7  1  0
  7  8  1  0
  8  9  1  0
  9 10  1  0
 10 11  1  0
 11 12  1  0
 12 13  2  0
 12 14  1  0
 14 15  2  0
 15 16  1  0
 16 17  2  0
 17 18  1  0
 18 19  2  0
 11 20  1  0
 20 21  1  0
  7 22  2  0
 22 23  1  0
 23 24  2  3
 23 25  1  0
 25 26  1  0
 26 27  2  0
 27 28  1  0
 28 29  1  0
 27  3  1  0
 25  5  2  0
 21  8  1  0
 19 14  1  0
  1 30  1  0
  1 31  1  0
  1 32  1  0
  4 33  1  0
  6 34  1  0
  9 35  1  0
  9 36  1  0
 10 37  1  0
 10 38  1  0
 15 39  1  0
 16 40  1  0
 17 41  1  0
 18 42  1  0
 19 43  1  0
 20 44  1  0
 20 45  1  0
 21 46  1  0
 21 47  1  0
 24 48  1  0
 26 49  1  0
 29 50  1  0
 29 51  1  0
 29 52  1  0
M  END
>  <smiles>  (14) 
COc1cc2[nH]c(N3CCN(C(=O)c4ccccc4)CC3)nc(=N)c2cc1OC

>  <score_type>  (14) 
oracle

>  <origin>  (14) 
adg

>  <m_score__min__energy>  (14) 
-8.1400000000000006

>  <m_primary>  (14) 
energy

$$$$
14:0
     RDKit          3D

 61 64  0  0  0  0  0  0  0  0999 V2000
   -2.4330   24.4490  -27.8560 C   0  0  0  0  0  0  0  0  0  0  0  0
   -2.3320   24.4800  -29.2750 O   0  0  0  0  0  0  0  0  0  0  0  0
   -3.0520   23.6420  -30.1400 C   0  0  0  0  0  0  0  0  0  0  0  0
   -2.6970   22.2870  -30.3380 C   0  0  0  0  0  0  0  0  0  0  0  0
   -3.4620   21.5070  -31.2040 C   0  0  0  0  0  0  0  0  0  0  0  0
   -4.5340   22.0300  -31.8720 C   0  0  0  0  0  0  0  0  0  0  0  0
   -4.9060   23.3640  -31.7090 C   0  0  0  0  0  0  0  0  0  0  0  0
   -4.1610   24.1810  -30.8290 C   0  0  0  0  0  0  0  0  0  0  0  0
   -4.4870   25.5300  -30.6140 O   0  0  0  0  0  0  0  0  0  0  0  0
   -5.7300   25.9840  -30.0880 C   0  0  0  0  0  0  0  0  0  0  0  0
   -5.1720   21.0320  -32.7590 C   0  0  0  0  0  0  0  0  0  0  0  0
   -4.5030   19.6870  -32.3520 C   0  0  0  0  0  0  0  0  0  0  0  0
   -4.2220   18.8020  -33.5240 N   0  0  0  0  0  0  0  0  0  0  0  0
   -3.9090   17.4070  -33.1220 C   0  0  0  0  0  0  0  0  0  0  0  0
   -5.1480   16.6690  -32.5830 C   0  0  0  0  0  0  0  0  0  0  0  0
   -6.3560   16.8370  -33.4310 N   0  0  0  0  0  0  0  0  0  0  0  0
   -7.5090   17.4300  -32.7120 C   0  0  0  0  0  0  0  0  0  0  0  0
   -7.0320   18.5610  -31.7750 C   0  0  0  0  0  0  0  0  0  0  0  0
   -7.7780   19.8320  -31.9110 N   0  0  0  0  0  0  0  0  0  0  0  0
   -7.4570   20.8290  -30.8760 C   0  0  0  0  0  0  0  0  0  0  0  0
   -8.1730   22.1430  -31.2110 C   0  0  0  0  0  0  0  0  0  0  0  0
   -9.5730   21.9430  -31.2870 O   0  0  0  0  0  0  0  0  0  0  0  0
   -9.8760   21.0240  -32.3210 C   0  0  0  0  0  0  0  0  0  0  0  0
   -9.2340   19.6590  -32.0420 C   0  0  0  0  0  0  0  0  0  0  0  0
   -6.0720   17.5030  -34.7200 C   0  0  0  0  0  0  0  0  0  0  0  0
   -5.3200   18.8400  -34.5400 C   0  0  0  0  0  0  0  0  0  0  0  0
   -3.2240   20.0920  -31.5670 C   0  0  0  0  0  0  0  0  0  0  0  0
   -1.4703   24.7445  -27.4133 H   0  0  0  0  0  0  0  0  0  0  0  0
   -3.2169   25.1479  -27.5288 H   0  0  0  0  0  0  0  0  0  0  0  0
   -2.6898   23.4307  -27.5288 H   0  0  0  0  0  0  0  0  0  0  0  0
   -1.8301   21.8552  -29.8164 H   0  0  0  0  0  0  0  0  0  0  0  0
   -5.7668   23.7743  -32.2574 H   0  0  0  0  0  0  0  0  0  0  0  0
   -5.6902   25.9695  -28.9888 H   0  0  0  0  0  0  0  0  0  0  0  0
   -5.9218   27.0102  -30.4344 H   0  0  0  0  0  0  0  0  0  0  0  0
   -6.5381   25.3230  -30.4344 H   0  0  0  0  0  0  0  0  0  0  0  0
   -6.2583   20.9957  -32.5897 H   0  0  0  0  0  0  0  0  0  0  0  0
   -5.0390   21.2661  -33.8255 H   0  0  0  0  0  0  0  0  0  0  0  0
   -5.1716   19.0737  -31.7301 H   0  0  0  0  0  0  0  0  0  0  0  0
   -3.3560   19.1730  -33.9850 H   0  0  0  0  0  0  0  0  0  0  0  0
   -3.5249   16.8630  -33.9975 H   0  0  0  0  0  0  0  0  0  0  0  0
   -3.1604   17.4458  -32.3170 H   0  0  0  0  0  0  0  0  0  0  0  0
   -4.9137   15.5961  -32.5202 H   0  0  0  0  0  0  0  0  0  0  0  0
   -5.3807   17.1047  -31.6001 H   0  0  0  0  0  0  0  0  0  0  0  0
   -8.2206   17.8406  -33.4435 H   0  0  0  0  0  0  0  0  0  0  0  0
   -7.9960   16.6484  -32.1104 H   0  0  0  0  0  0  0  0  0  0  0  0
   -7.1352   18.2124  -30.7368 H   0  0  0  0  0  0  0  0  0  0  0  0
   -5.9913   18.7797  -32.0563 H   0  0  0  0  0  0  0  0  0  0  0  0
   -7.7951   20.4643  -29.8948 H   0  0  0  0  0  0  0  0  0  0  0  0
   -6.3701   20.9952  -30.8438 H   0  0  0  0  0  0  0  0  0  0  0  0
   -7.9557   22.8831  -30.4268 H   0  0  0  0  0  0  0  0  0  0  0  0
   -7.8131   22.5042  -32.1857 H   0  0  0  0  0  0  0  0  0  0  0  0
  -10.9673   20.9025  -32.3872 H   0  0  0  0  0  0  0  0  0  0  0  0
   -9.4761   21.4147  -33.2683 H   0  0  0  0  0  0  0  0  0  0  0  0
   -9.6415   19.2437  -31.1085 H   0  0  0  0  0  0  0  0  0  0  0  0
   -9.4533   18.9690  -32.8701 H   0  0  0  0  0  0  0  0  0  0  0  0
   -5.4559   16.8316  -35.3361 H   0  0  0  0  0  0  0  0  0  0  0  0
   -7.0356   17.7230  -35.2028 H   0  0  0  0  0  0  0  0  0  0  0  0
   -4.8819   19.1211  -35.5091 H   0  0  0  0  0  0  0  0  0  0  0  0
   -6.0592   19.5682  -34.1750 H   0  0  0  0  0  0  0  0  0  0  0  0
   -3.1047   19.4717  -30.6664 H   0  0  0  0  0  0  0  0  0  0  0  0
   -2.3043   19.9537  -32.1544 H   0  0  0  0  0  0  0  0  0  0  0  0
  1  2  1  0
  2  3  1  0
  3  4  2  0
  4  5  1  0
  5  6  2  0
  6  7  1  0
  7  8  2  0
  8  9  1  0
  9 10  1  0
  6 11  1  0
 11 12  1  0
 12 13  1  0
 13 14  1  0
 14 15  1  0
 15 16  1  0
 16 17  1  0
 17 18  1  0
 18 19  1  0
 19 20  1  0
 20 21  1  0
 21 22  1  0
 22 23  1  0
 23 24  1  0
 16 25  1  0
 25 26  1  0
 12 27  1  0
  8  3  1  0
 26 13  1  0
 27  5  1  0
 24 19  1  0
  1 28  1  0
  1 29  1  0
  1 30  1  0
  4 31  1  0
  7 32  1  0
 10 33  1  0
 10 34  1  0
 10 35  1  0
 11 36  1  0
 11 37  1  0
 12 38  1  0
 13 39  1  0
 14 40  1  0
 14 41  1  0
 15 42  1  0
 15 43  1  0
 17 44  1  0
 17 45  1  0
 18 46  1  0
 18 47  1  0
 20 48  1  0
 20 49  1  0
 21 50  1  0
 21 51  1  0
 23 52  1  0
 23 53  1  0
 24 54  1  0
 24 55  1  0
 25 56  1  0
 25 57  1  0
 26 58  1  0
 26 59  1  0
 27 60  1  0
 27 61  1  0
M  CHG  1  13   1
M  END
>  <UniqueID>  (15) 
13

>  <SMILES>  (15) 
COc1cc2c(cc1OC)CC([NH+]1CCN(CCN3CCOCC3)CC1)C2

>  <Energy>  (15) 
95.09145348135462

>  <Genealogy>  (15) 
COc1cc2c(cc1OC)CC([NH+]1CCN(CCN3CCOCC3)CC1)C2 (protonated)
COc1cc2c(cc1OC)CC([NH+]1CCN(CCN3CCOCC3)CC1)C2 (3D coordinates assigned)
COc1cc2c(cc1OC)CC([NH+]1CCN(CCN3CCOCC3)CC1)C2 (nonaromatic ring conformer: 95.09145348135462 kcal/mol)

>  <smiles>  (15) 
COc1cc2c(cc1OC)CC(N1CCN(CCN3CCOCC3)CC1)C2

>  <score_type>  (15) 
oracle

>  <origin>  (15) 
adg

>  <m_score__min__energy>  (15) 
-7.6799999999999997

>  <m_primary>  (15) 
energy

$$$$
15:0
     RDKit          3D

 20 21  0  0  0  0  0  0  0  0999 V2000
   -9.0830   18.7710  -32.0150 C   0  0  0  0  0  0  0  0  0  0  0  0
   -9.1030   20.1380  -32.3290 O   0  0  0  0  0  0  0  0  0  0  0  0
   -8.0830   21.0390  -32.0820 C   0  0  0  0  0  0  0  0  0  0  0  0
   -6.8440   20.7490  -32.6480 C   0  0  0  0  0  0  0  0  0  0  0  0
   -5.7770   21.5540  -32.4750 N   0  0  0  0  0  0  0  0  0  0  0  0
   -5.9210   22.6660  -31.7350 C   0  0  0  0  0  0  0  0  0  0  0  0
   -4.8400   23.4470  -31.5820 N   0  0  0  0  0  0  0  0  0  0  0  0
   -4.9180   24.5880  -30.8440 C   0  0  0  0  0  0  0  0  0  0  0  0
   -3.8640   25.2980  -30.7280 O   0  0  0  0  0  0  0  0  0  0  0  0
   -6.1110   24.9460  -30.2500 C   0  0  0  0  0  0  0  0  0  0  0  0
   -7.2170   24.1230  -30.4220 C   0  0  0  0  0  0  0  0  0  0  0  0
   -7.1530   22.9690  -31.1640 C   0  0  0  0  0  0  0  0  0  0  0  0
   -8.2300   22.1510  -31.3400 N   0  0  0  0  0  0  0  0  0  0  0  0
   -9.0812   18.6458  -30.9221 H   0  0  0  0  0  0  0  0  0  0  0  0
   -9.9741   18.2845  -32.4383 H   0  0  0  0  0  0  0  0  0  0  0  0
   -8.1780   18.3108  -32.4383 H   0  0  0  0  0  0  0  0  0  0  0  0
   -6.7331   19.8372  -33.2533 H   0  0  0  0  0  0  0  0  0  0  0  0
   -3.9150   23.2020  -32.0230 H   0  0  0  0  0  0  0  0  0  0  0  0
   -6.1849   25.8659  -29.6514 H   0  0  0  0  0  0  0  0  0  0  0  0
   -8.1706   24.4034  -29.9508 H   0  0  0  0  0  0  0  0  0  0  0  0
  1  2  1  0
  2  3  1  0
  3  4  2  0
  4  5  1  0
  5  6  2  0
  6  7  1  0
  7  8  1  0
  8  9  2  0
  8 10  1  0
 10 11  2  0
 11 12  1  0
 12 13  2  0
 13  3  1  0
 12  6  1  0
  1 14  1  0
  1 15  1  0
  1 16  1  0
  4 17  1  0
  7 18  1  0
 10 19  1  0
 11 20  1  0
M  END
>  <smiles>  (16) 
COc1cnc2[nH]c(=O)ccc2n1

>  <score_type>  (16) 
oracle

>  <origin>  (16) 
adg

>  <m_score__min__energy>  (16) 
-5.3700000000000001

>  <m_primary>  (16) 
energy

$$$$
16:0
     RDKit          3D

 36 38  0  0  0  0  0  0  0  0999 V2000
   -2.0530   20.8160  -33.8280 C   0  0  0  0  0  0  0  0  0  0  0  0
   -2.9670   21.4010  -32.8560 N   0  0  0  0  0  0  0  0  0  0  0  0
   -4.3610   21.0500  -32.8270 C   0  0  0  0  0  0  0  0  0  0  0  0
   -4.8310   20.3110  -33.7350 O   0  0  0  0  0  0  0  0  0  0  0  0
   -5.2320   21.5650  -31.7960 N   0  0  0  0  0  0  0  0  0  0  0  0
   -4.7170   22.3010  -30.6810 C   0  0  0  0  0  0  0  0  0  0  0  0
   -3.7760   21.7000  -29.8310 C   0  0  0  0  0  0  0  0  0  0  0  0
   -3.2480   22.4060  -28.7490 C   0  0  0  0  0  0  0  0  0  0  0  0
   -3.6550   23.7200  -28.5090 C   0  0  0  0  0  0  0  0  0  0  0  0
   -2.9810   24.6130  -27.1570 Cl  0  0  0  0  0  0  0  0  0  0  0  0
   -4.5960   24.3240  -29.3470 C   0  0  0  0  0  0  0  0  0  0  0  0
   -5.1530   23.6170  -30.4270 C   0  0  0  0  0  0  0  0  0  0  0  0
   -6.1090   24.3230  -31.3090 C   0  0  0  0  0  0  0  0  0  0  0  0
   -7.1570   23.7740  -31.9420 C   0  0  0  0  0  0  0  0  0  0  0  0
   -7.5690   22.3530  -31.8700 C   0  0  0  0  0  0  0  0  0  0  0  0
   -8.9390   22.0560  -31.9430 C   0  0  0  0  0  0  0  0  0  0  0  0
   -9.3840   20.7320  -31.9160 C   0  0  0  0  0  0  0  0  0  0  0  0
   -8.4660   19.6800  -31.8130 C   0  0  0  0  0  0  0  0  0  0  0  0
   -8.9410   18.2580  -31.8160 C   0  0  0  0  0  0  0  0  0  0  0  0
   -7.0940   19.9670  -31.7830 C   0  0  0  0  0  0  0  0  0  0  0  0
   -6.6390   21.2960  -31.8190 C   0  0  0  0  0  0  0  0  0  0  0  0
   -1.2402   20.2958  -33.3001 H   0  0  0  0  0  0  0  0  0  0  0  0
   -2.5985   20.0988  -34.4589 H   0  0  0  0  0  0  0  0  0  0  0  0
   -1.6302   21.6117  -34.4589 H   0  0  0  0  0  0  0  0  0  0  0  0
   -2.5880   22.1090  -32.1900 H   0  0  0  0  0  0  0  0  0  0  0  0
   -3.4524   20.6656  -30.0187 H   0  0  0  0  0  0  0  0  0  0  0  0
   -2.5120   21.9278  -28.0860 H   0  0  0  0  0  0  0  0  0  0  0  0
   -4.9041   25.3632  -29.1598 H   0  0  0  0  0  0  0  0  0  0  0  0
   -5.9448   25.4001  -31.4600 H   0  0  0  0  0  0  0  0  0  0  0  0
   -7.7655   24.4397  -32.5717 H   0  0  0  0  0  0  0  0  0  0  0  0
   -9.6698   22.8743  -32.0223 H   0  0  0  0  0  0  0  0  0  0  0  0
  -10.4607   20.5151  -31.9760 H   0  0  0  0  0  0  0  0  0  0  0  0
   -9.0578   17.9083  -30.7796 H   0  0  0  0  0  0  0  0  0  0  0  0
   -9.9087   18.1958  -32.3353 H   0  0  0  0  0  0  0  0  0  0  0  0
   -8.2050   17.6266  -32.3353 H   0  0  0  0  0  0  0  0  0  0  0  0
   -6.3665   19.1436  -31.7308 H   0  0  0  0  0  0  0  0  0  0  0  0
  1  2  1  0
  2  3  1  0
  3  4  2  0
  3  5  1  0
  5  6  1  0
  6  7  2  0
  7  8  1  0
  8  9  2  0
  9 10  1  0
  9 11  1  0
 11 12  2  0
 12 13  1  0
 13 14  2  0
 14 15  1  0
 15 16  2  0
 16 17  1  0
 17 18  2  0
 18 19  1  0
 18 20  1  0
 20 21  2  0
 21  5  1  0
 12  6  1  0
 21 15  1  0
  1 22  1  0
  1 23  1  0
  1 24  1  0
  2 25  1  0
  7 26  1  0
  8 27  1  0
 11 28  1  0
 13 29  1  0
 14 30  1  0
 16 31  1  0
 17 32  1  0
 19 33  1  0
 19 34  1  0
 19 35  1  0
 20 36  1  0
M  END
>  <UniqueID>  (17) 
14

>  <SMILES>  (17) 
CNC(=O)N1c2ccc(Cl)cc2C=Cc2ccc(C)cc21

>  <Energy>  (17) 
57.69922691106097

>  <Genealogy>  (17) 
CNC(=O)N1c2ccc(Cl)cc2C=Cc2ccc(C)cc21 (3D coordinates assigned)
CNC(=O)N1c2ccc(Cl)cc2C=Cc2ccc(C)cc21 (nonaromatic ring conformer: 57.69922691106097 kcal/mol)

>  <smiles>  (17) 
CNC(=O)N1c2ccc(Cl)cc2C=Cc2ccc(C)cc21

>  <score_type>  (17) 
oracle

>  <origin>  (17) 
adg

>  <m_score__min__energy>  (17) 
-6.8700000000000001

>  <m_primary>  (17) 
energy

$$$$
17:0
     RDKit          3D

 53 57  0  0  0  0  0  0  0  0999 V2000
   -2.2420   24.7480  -28.6630 C   0  0  0  0  0  0  0  0  0  0  0  0
   -3.0880   25.1990  -29.7150 O   0  0  0  0  0  0  0  0  0  0  0  0
   -4.1940   24.4870  -30.2020 C   0  0  0  0  0  0  0  0  0  0  0  0
   -4.0670   23.1060  -30.3880 C   0  0  0  0  0  0  0  0  0  0  0  0
   -5.1400   22.3520  -30.8720 C   0  0  0  0  0  0  0  0  0  0  0  0
   -6.3620   22.9720  -31.1710 C   0  0  0  0  0  0  0  0  0  0  0  0
   -7.5050   22.1580  -31.7200 C   0  0  0  0  0  0  0  0  0  0  0  0
   -7.0830   20.7650  -31.9730 N   0  0  0  0  0  0  0  0  0  0  0  0
   -8.2530   19.8650  -31.9900 C   0  0  0  0  0  0  0  0  0  0  0  0
   -7.8030   18.3910  -31.9780 C   0  0  0  0  0  0  0  0  0  0  0  0
   -6.3920   18.2050  -32.5780 C   0  0  0  0  0  0  0  0  0  0  0  0
   -6.1670   16.7770  -33.0280 C   0  0  0  0  0  0  0  0  0  0  0  0
   -7.0920   16.1500  -33.8980 C   0  0  0  0  0  0  0  0  0  0  0  0
   -6.8850   14.8280  -34.3180 C   0  0  0  0  0  0  0  0  0  0  0  0
   -5.7510   14.1790  -33.8500 C   0  0  0  0  0  0  0  0  0  0  0  0
   -5.3740   12.9080  -34.1420 N   0  0  0  0  0  0  0  0  0  0  0  0
   -4.2200   12.7860  -33.4410 C   0  0  0  0  0  0  0  0  0  0  0  0
   -3.3860   11.6720  -33.3690 C   0  0  0  0  0  0  0  0  0  0  0  0
   -2.2280   11.7710  -32.5740 C   0  0  0  0  0  0  0  0  0  0  0  0
   -1.9320   12.9670  -31.8770 C   0  0  0  0  0  0  0  0  0  0  0  0
   -2.7910   14.0780  -31.9680 C   0  0  0  0  0  0  0  0  0  0  0  0
   -3.9280   13.9430  -32.7640 C   0  0  0  0  0  0  0  0  0  0  0  0
   -4.9010   14.8200  -33.0270 N   0  0  0  0  0  0  0  0  0  0  0  0
   -5.0660   16.0740  -32.6090 N   0  0  0  0  0  0  0  0  0  0  0  0
   -6.1550   19.2000  -33.7250 C   0  0  0  0  0  0  0  0  0  0  0  0
   -6.3200   20.6600  -33.2440 C   0  0  0  0  0  0  0  0  0  0  0  0
   -6.4930   24.3570  -30.9930 C   0  0  0  0  0  0  0  0  0  0  0  0
   -5.4190   25.1110  -30.5100 C   0  0  0  0  0  0  0  0  0  0  0  0
   -2.7005   24.9924  -27.6934 H   0  0  0  0  0  0  0  0  0  0  0  0
   -2.1084   23.6590  -28.7413 H   0  0  0  0  0  0  0  0  0  0  0  0
   -1.2633   25.2441  -28.7413 H   0  0  0  0  0  0  0  0  0  0  0  0
   -3.1145   22.6093  -30.1513 H   0  0  0  0  0  0  0  0  0  0  0  0
   -5.0255   21.2679  -31.0190 H   0  0  0  0  0  0  0  0  0  0  0  0
   -8.3301   22.1584  -30.9925 H   0  0  0  0  0  0  0  0  0  0  0  0
   -7.8321   22.6054  -32.6702 H   0  0  0  0  0  0  0  0  0  0  0  0
   -8.8730   20.0611  -31.1028 H   0  0  0  0  0  0  0  0  0  0  0  0
   -8.8313   20.0520  -32.9068 H   0  0  0  0  0  0  0  0  0  0  0  0
   -7.7957   18.0316  -30.9384 H   0  0  0  0  0  0  0  0  0  0  0  0
   -8.5100   17.8178  -32.5957 H   0  0  0  0  0  0  0  0  0  0  0  0
   -5.6559   18.4163  -31.7884 H   0  0  0  0  0  0  0  0  0  0  0  0
   -7.9772   16.7026  -34.2460 H   0  0  0  0  0  0  0  0  0  0  0  0
   -7.5939   14.3250  -34.9922 H   0  0  0  0  0  0  0  0  0  0  0  0
   -3.6241   10.7470  -33.9145 H   0  0  0  0  0  0  0  0  0  0  0  0
   -1.5470   10.9109  -32.4938 H   0  0  0  0  0  0  0  0  0  0  0  0
   -1.0237   13.0284  -31.2596 H   0  0  0  0  0  0  0  0  0  0  0  0
   -2.5744   15.0145  -31.4332 H   0  0  0  0  0  0  0  0  0  0  0  0
   -4.3630   16.5110  -31.9710 H   0  0  0  0  0  0  0  0  0  0  0  0
   -5.1348   19.0635  -34.1129 H   0  0  0  0  0  0  0  0  0  0  0  0
   -6.8991   19.0071  -34.5118 H   0  0  0  0  0  0  0  0  0  0  0  0
   -5.3211   21.0947  -33.0912 H   0  0  0  0  0  0  0  0  0  0  0  0
   -6.8868   21.2010  -34.0161 H   0  0  0  0  0  0  0  0  0  0  0  0
   -7.4450   24.8524  -31.2345 H   0  0  0  0  0  0  0  0  0  0  0  0
   -5.5311   26.1963  -30.3699 H   0  0  0  0  0  0  0  0  0  0  0  0
  1  2  1  0
  2  3  1  0
  3  4  2  0
  4  5  1  0
  5  6  2  0
  6  7  1  0
  7  8  1  0
  8  9  1  0
  9 10  1  0
 10 11  1  0
 11 12  1  0
 12 13  1  0
 13 14  2  0
 14 15  1  0
 15 16  2  0
 16 17  1  0
 17 18  2  0
 18 19  1  0
 19 20  2  0
 20 21  1  0
 21 22  2  0
 22 23  1  0
 23 24  1  0
 11 25  1  0
 25 26  1  0
  6 27  1  0
 27 28  2  0
 28  3  1  0
 26  8  1  0
 24 12  2  0
 23 15  1  0
 22 17  1  0
  1 29  1  0
  1 30  1  0
  1 31  1  0
  4 32  1  0
  5 33  1  0
  7 34  1  0
  7 35  1  0
  9 36  1  0
  9 37  1  0
 10 38  1  0
 10 39  1  0
 11 40  1  0
 13 41  1  0
 14 42  1  0
 18 43  1  0
 19 44  1  0
 20 45  1  0
 21 46  1  0
 24 47  1  0
 25 48  1  0
 25 49  1  0
 26 50  1  0
 26 51  1  0
 27 52  1  0
 28 53  1  0
M  CHG  1  24   1
M  END
>  <UniqueID>  (18) 
15

>  <SMILES>  (18) 
COc1ccc(CN2CCC(c3ccc4nc5ccccc5n4[nH+]3)CC2)cc1

>  <Energy>  (18) 
107.92082298286016

>  <Genealogy>  (18) 
COc1ccc(CN2CCC(c3ccc4nc5ccccc5n4[nH+]3)CC2)cc1 (protonated)
COc1ccc(CN2CCC(c3ccc4nc5ccccc5n4[nH+]3)CC2)cc1 (3D coordinates assigned)
COc1ccc(CN2CCC(c3ccc4nc5ccccc5n4[nH+]3)CC2)cc1 (nonaromatic ring conformer: 107.92082298286016 kcal/mol)

>  <smiles>  (18) 
COc1ccc(CN2CCC(c3ccc4nc5ccccc5n4n3)CC2)cc1

>  <score_type>  (18) 
oracle

>  <origin>  (18) 
adg

>  <m_score__min__energy>  (18) 
-8.5999999999999996

>  <m_primary>  (18) 
energy

$$$$
18:0
     RDKit          3D

 41 43  0  0  0  0  0  0  0  0999 V2000
   -6.4850   25.5890  -29.3390 C   0  0  0  0  0  0  0  0  0  0  0  0
   -5.9090   25.4360  -30.7420 C   0  0  0  0  0  0  0  0  0  0  0  0
   -6.2620   24.1210  -31.2970 N   0  0  0  0  0  0  0  0  0  0  0  0
   -7.5630   23.7840  -31.4020 N   0  0  0  0  0  0  0  0  0  0  0  0
   -7.9470   22.5900  -31.8720 N   0  0  0  0  0  0  0  0  0  0  0  0
   -7.0020   21.7050  -32.2510 C   0  0  0  0  0  0  0  0  0  0  0  0
   -7.1390   20.4230  -32.7330 C   0  0  0  0  0  0  0  0  0  0  0  0
   -8.4240   19.6730  -32.9110 C   0  0  0  0  0  0  0  0  0  0  0  0
   -5.8990   19.9040  -32.9190 N   0  0  0  0  0  0  0  0  0  0  0  0
   -5.6050   18.5700  -33.3610 C   0  0  0  0  0  0  0  0  0  0  0  0
   -5.1020   18.3640  -34.6510 C   0  0  0  0  0  0  0  0  0  0  0  0
   -4.8060   17.0730  -35.0940 C   0  0  0  0  0  0  0  0  0  0  0  0
   -5.0110   15.9710  -34.2580 C   0  0  0  0  0  0  0  0  0  0  0  0
   -4.6970   14.6940  -34.7490 O   0  0  0  0  0  0  0  0  0  0  0  0
   -4.9530   13.4790  -34.0530 C   0  0  0  0  0  0  0  0  0  0  0  0
   -5.5210   16.1760  -32.9610 C   0  0  0  0  0  0  0  0  0  0  0  0
   -5.8190   17.4690  -32.5140 C   0  0  0  0  0  0  0  0  0  0  0  0
   -6.4830   17.6840  -30.9010 Cl  0  0  0  0  0  0  0  0  0  0  0  0
   -4.9950   20.8650  -32.5820 C   0  0  0  0  0  0  0  0  0  0  0  0
   -3.5040   20.6970  -32.6100 C   0  0  0  0  0  0  0  0  0  0  0  0
   -5.6810   21.9910  -32.1520 C   0  0  0  0  0  0  0  0  0  0  0  0
   -5.2820   23.2240  -31.6550 C   0  0  0  0  0  0  0  0  0  0  0  0
   -4.0580   23.5030  -31.5300 O   0  0  0  0  0  0  0  0  0  0  0  0
   -5.7010   25.3808  -28.5960 H   0  0  0  0  0  0  0  0  0  0  0  0
   -6.8543   26.6164  -29.2043 H   0  0  0  0  0  0  0  0  0  0  0  0
   -7.3154   24.8803  -29.2043 H   0  0  0  0  0  0  0  0  0  0  0  0
   -6.3176   26.2252  -31.3902 H   0  0  0  0  0  0  0  0  0  0  0  0
   -4.8135   25.5207  -30.6906 H   0  0  0  0  0  0  0  0  0  0  0  0
   -8.3060   24.4570  -31.1070 H   0  0  0  0  0  0  0  0  0  0  0  0
   -8.8448   19.4274  -31.9248 H   0  0  0  0  0  0  0  0  0  0  0  0
   -9.1380   20.2962  -33.4694 H   0  0  0  0  0  0  0  0  0  0  0  0
   -8.2325   18.7448  -33.4694 H   0  0  0  0  0  0  0  0  0  0  0  0
   -4.9391   19.2228  -35.3188 H   0  0  0  0  0  0  0  0  0  0  0  0
   -4.4085   16.9219  -36.1085 H   0  0  0  0  0  0  0  0  0  0  0  0
   -4.9144   13.6622  -32.9691 H   0  0  0  0  0  0  0  0  0  0  0  0
   -5.9501   13.1031  -34.3260 H   0  0  0  0  0  0  0  0  0  0  0  0
   -4.1924   12.7328  -34.3260 H   0  0  0  0  0  0  0  0  0  0  0  0
   -5.6860   15.3156  -32.2958 H   0  0  0  0  0  0  0  0  0  0  0  0
   -3.1205   20.6538  -31.5799 H   0  0  0  0  0  0  0  0  0  0  0  0
   -3.2499   19.7645  -33.1353 H   0  0  0  0  0  0  0  0  0  0  0  0
   -3.0488   21.5495  -33.1353 H   0  0  0  0  0  0  0  0  0  0  0  0
  1  2  1  0
  2  3  1  0
  3  4  1  0
  4  5  2  0
  5  6  1  0
  6  7  2  0
  7  8  1  0
  7  9  1  0
  9 10  1  0
 10 11  2  0
 11 12  1  0
 12 13  2  0
 13 14  1  0
 14 15  1  0
 13 16  1  0
 16 17  2  0
 17 18  1  0
  9 19  1  0
 19 20  1  0
 19 21  2  0
 21 22  1  0
 22 23  2  0
 22  3  1  0
 21  6  1  0
 17 10  1  0
  1 24  1  0
  1 25  1  0
  1 26  1  0
  2 27  1  0
  2 28  1  0
  4 29  1  0
  8 30  1  0
  8 31  1  0
  8 32  1  0
 11 33  1  0
 12 34  1  0
 15 35  1  0
 15 36  1  0
 15 37  1  0
 16 38  1  0
 20 39  1  0
 20 40  1  0
 20 41  1  0
M  CHG  1   4   1
M  END
>  <UniqueID>  (19) 
16

>  <SMILES>  (19) 
CCn1[nH+]nc2c(C)n(-c3ccc(OC)cc3Cl)c(C)c2c1=O

>  <Energy>  (19) 
84.45888327839192

>  <Genealogy>  (19) 
CCn1[nH+]nc2c(C)n(-c3ccc(OC)cc3Cl)c(C)c2c1=O (protonated)
CCn1[nH+]nc2c(C)n(-c3ccc(OC)cc3Cl)c(C)c2c1=O (3D coordinates assigned)
CCn1[nH+]nc2c(C)n(-c3ccc(OC)cc3Cl)c(C)c2c1=O (optimized conformer: 84.45888327839192 kcal/mol)

>  <smiles>  (19) 
CCn1nnc2c(C)n(-c3ccc(OC)cc3Cl)c(C)c2c1=O

>  <score_type>  (19) 
oracle

>  <origin>  (19) 
adg

>  <m_score__min__energy>  (19) 
-7.4199999999999999

>  <m_primary>  (19) 
energy

$$$$
19:0
     RDKit          3D

 42 44  0  0  0  0  0  0  0  0999 V2000
   -3.8660   25.2850  -30.4930 O   0  0  0  0  0  0  0  0  0  0  0  0
   -4.1900   24.0910  -30.2360 C   0  0  0  0  0  0  0  0  0  0  0  0
   -5.4050   23.5420  -30.8800 C   0  0  0  0  0  0  0  0  0  0  0  0
   -6.4490   24.3190  -31.3860 C   0  0  0  0  0  0  0  0  0  0  0  0
   -7.6140   23.2750  -31.9990 S   0  0  0  0  0  0  0  0  0  0  0  0
   -6.7560   21.8810  -31.6010 C   0  0  0  0  0  0  0  0  0  0  0  0
   -7.1940   20.4890  -31.8550 C   0  0  0  0  0  0  0  0  0  0  0  0
   -8.5080   20.0780  -31.5570 C   0  0  0  0  0  0  0  0  0  0  0  0
   -8.9090   18.7610  -31.8010 C   0  0  0  0  0  0  0  0  0  0  0  0
   -8.0070   17.8410  -32.3440 C   0  0  0  0  0  0  0  0  0  0  0  0
   -6.7020   18.2390  -32.6440 C   0  0  0  0  0  0  0  0  0  0  0  0
   -6.2960   19.5540  -32.4010 C   0  0  0  0  0  0  0  0  0  0  0  0
   -5.5860   22.1980  -31.0010 N   0  0  0  0  0  0  0  0  0  0  0  0
   -3.3400   23.2740  -29.3920 N   0  0  0  0  0  0  0  0  0  0  0  0
   -2.0270   23.0560  -30.0480 C   0  0  0  0  0  0  0  0  0  0  0  0
   -0.8560   22.9000  -29.0500 C   0  0  0  0  0  0  0  0  0  0  0  0
   -1.2560   22.2660  -27.7800 N   0  0  0  0  0  0  0  0  0  0  0  0
   -1.4420   20.5300  -27.9280 S   0  0  2  0  0  5  0  0  0  0  0  0
   -0.2280   19.9210  -28.5700 O   0  0  0  0  0  0  0  0  0  0  0  0
   -2.7810   20.1940  -28.8890 O   0  0  0  0  0  0  0  0  0  0  0  0
   -1.6950   19.7680  -26.3360 C   0  0  0  0  0  0  0  0  0  0  0  0
   -3.2580   18.9180  -26.3080 Cl  0  0  0  0  0  0  0  0  0  0  0  0
   -2.4230   22.9060  -27.1260 C   0  0  0  0  0  0  0  0  0  0  0  0
   -3.1920   23.8670  -28.0500 C   0  0  0  0  0  0  0  0  0  0  0  0
   -6.4997   25.4178  -31.3837 H   0  0  0  0  0  0  0  0  0  0  0  0
   -9.2225   20.7971  -31.1300 H   0  0  0  0  0  0  0  0  0  0  0  0
   -9.9368   18.4478  -31.5652 H   0  0  0  0  0  0  0  0  0  0  0  0
   -8.3245   16.8052  -32.5347 H   0  0  0  0  0  0  0  0  0  0  0  0
   -5.9924   17.5158  -33.0724 H   0  0  0  0  0  0  0  0  0  0  0  0
   -5.2665   19.8602  -32.6385 H   0  0  0  0  0  0  0  0  0  0  0  0
   -3.8130   22.3510  -29.2550 H   0  0  0  0  0  0  0  0  0  0  0  0
   -2.0896   22.1419  -30.6567 H   0  0  0  0  0  0  0  0  0  0  0  0
   -1.8171   23.9487  -30.6554 H   0  0  0  0  0  0  0  0  0  0  0  0
   -0.0767   22.2816  -29.5193 H   0  0  0  0  0  0  0  0  0  0  0  0
   -0.4932   23.9106  -28.8110 H   0  0  0  0  0  0  0  0  0  0  0  0
   -2.4200   19.6970  -29.6660 H   0  0  0  0  0  0  0  0  0  0  0  0
   -0.8857   19.0482  -26.1442 H   0  0  0  0  0  0  0  0  0  0  0  0
   -1.6942   20.5469  -25.5593 H   0  0  0  0  0  0  0  0  0  0  0  0
   -3.1125   22.1161  -26.7932 H   0  0  0  0  0  0  0  0  0  0  0  0
   -2.0372   23.5028  -26.2864 H   0  0  0  0  0  0  0  0  0  0  0  0
   -4.1885   24.0593  -27.6258 H   0  0  0  0  0  0  0  0  0  0  0  0
   -2.6313   24.8096  -28.1340 H   0  0  0  0  0  0  0  0  0  0  0  0
  1  2  2  0
  2  3  1  0
  3  4  2  0
  4  5  1  0
  5  6  1  0
  6  7  1  0
  7  8  2  0
  8  9  1  0
  9 10  2  0
 10 11  1  0
 11 12  2  0
  6 13  2  0
  2 14  1  0
 14 15  1  0
 15 16  1  0
 16 17  1  0
 17 18  1  0
 18 19  2  0
 18 20  1  6
 18 21  1  0
 21 22  1  0
 17 23  1  0
 23 24  1  0
 13  3  1  0
 24 14  1  0
 12  7  1  0
  4 25  1  0
  8 26  1  0
  9 27  1  0
 10 28  1  0
 11 29  1  0
 12 30  1  0
 14 31  1  0
 15 32  1  0
 15 33  1  0
 16 34  1  0
 16 35  1  0
 20 36  1  0
 21 37  1  0
 21 38  1  0
 23 39  1  0
 23 40  1  0
 24 41  1  0
 24 42  1  0
M  CHG  2  14   1  18   1
M  END
>  <UniqueID>  (20) 
17

>  <SMILES>  (20) 
O=C(c1csc(-c2ccccc2)n1)[NH+]1CCN([S@+](=O)(O)CCl)CC1

>  <Energy>  (20) 
83.49052998630772

>  <Genealogy>  (20) 
O=C(c1csc(-c2ccccc2)n1)[NH+]1CCN([S+](=O)(O)CCl)CC1 (protonated)
O=C(c1csc(-c2ccccc2)n1)[NH+]1CCN([S@+](=O)(O)CCl)CC1 (chirality)
O=C(c1csc(-c2ccccc2)n1)[NH+]1CCN([S@+](=O)(O)CCl)CC1 (3D coordinates assigned)
O=C(c1csc(-c2ccccc2)n1)[NH+]1CCN([S@+](=O)(O)CCl)CC1 (nonaromatic ring conformer: 83.49052998630772 kcal/mol)

>  <smiles>  (20) 
O=C(c1csc(-c2ccccc2)n1)N1CCN([S+](=O)([O-])CCl)CC1

>  <score_type>  (20) 
oracle

>  <origin>  (20) 
adg

>  <m_score__min__energy>  (20) 
-7.1799999999999997

>  <m_primary>  (20) 
energy

$$$$
20:0
     RDKit          3D

 43 44  0  0  0  0  0  0  0  0999 V2000
   -5.1270   15.9190  -32.5950 C   0  0  0  0  0  0  0  0  0  0  0  0
   -6.1390   16.5750  -33.3510 O   0  0  0  0  0  0  0  0  0  0  0  0
   -6.7160   17.8050  -33.0030 C   0  0  0  0  0  0  0  0  0  0  0  0
   -7.7260   17.9170  -32.0310 C   0  0  0  0  0  0  0  0  0  0  0  0
   -8.2680   19.1660  -31.7200 C   0  0  0  0  0  0  0  0  0  0  0  0
   -7.8090   20.3300  -32.3610 C   0  0  0  0  0  0  0  0  0  0  0  0
   -8.4660   21.6590  -32.0230 C   0  0  1  0  0  0  0  0  0  0  0  0
   -9.8670   21.5260  -31.4000 C   0  0  0  0  0  0  0  0  0  0  0  0
   -7.5690   22.4750  -31.1780 N   0  0  0  0  0  0  0  0  0  0  0  0
   -7.5940   22.3510  -29.7150 C   0  0  0  0  0  0  0  0  0  0  0  0
   -6.5090   23.2570  -31.7720 C   0  0  0  0  0  0  0  0  0  0  0  0
   -6.6930   23.8060  -32.8920 O   0  0  0  0  0  0  0  0  0  0  0  0
   -5.1910   23.4030  -31.1140 C   0  0  0  0  0  0  0  0  0  0  0  0
   -4.2450   22.3770  -31.2240 C   0  0  0  0  0  0  0  0  0  0  0  0
   -3.0270   22.5030  -30.6390 N   0  0  0  0  0  0  0  0  0  0  0  0
   -2.6940   23.6230  -29.9490 C   0  0  0  0  0  0  0  0  0  0  0  0
   -1.3630   23.7230  -29.2830 C   0  0  0  0  0  0  0  0  0  0  0  0
   -3.5970   24.6300  -29.8190 N   0  0  0  0  0  0  0  0  0  0  0  0
   -4.8330   24.5550  -30.3810 C   0  0  0  0  0  0  0  0  0  0  0  0
   -5.7770   25.7070  -30.1960 C   0  0  0  0  0  0  0  0  0  0  0  0
   -6.8100   20.2090  -33.3450 C   0  0  0  0  0  0  0  0  0  0  0  0
   -6.2680   18.9580  -33.6550 C   0  0  0  0  0  0  0  0  0  0  0  0
   -5.3285   16.0496  -31.5215 H   0  0  0  0  0  0  0  0  0  0  0  0
   -5.1237   14.8465  -32.8396 H   0  0  0  0  0  0  0  0  0  0  0  0
   -4.1467   16.3539  -32.8396 H   0  0  0  0  0  0  0  0  0  0  0  0
   -8.0906   17.0174  -31.5136 H   0  0  0  0  0  0  0  0  0  0  0  0
   -9.0638   19.2399  -30.9642 H   0  0  0  0  0  0  0  0  0  0  0  0
   -8.6292   22.1769  -32.9796 H   0  0  0  0  0  0  0  0  0  0  0  0
   -9.7828   21.5340  -30.3033 H   0  0  0  0  0  0  0  0  0  0  0  0
  -10.4946   22.3686  -31.7257 H   0  0  0  0  0  0  0  0  0  0  0  0
  -10.3249   20.5803  -31.7257 H   0  0  0  0  0  0  0  0  0  0  0  0
   -7.3960   23.3329  -29.2604 H   0  0  0  0  0  0  0  0  0  0  0  0
   -8.5828   21.9911  -29.3944 H   0  0  0  0  0  0  0  0  0  0  0  0
   -6.8219   21.6361  -29.3944 H   0  0  0  0  0  0  0  0  0  0  0  0
   -4.4901   21.4645  -31.7872 H   0  0  0  0  0  0  0  0  0  0  0  0
   -1.4976   23.7129  -28.1913 H   0  0  0  0  0  0  0  0  0  0  0  0
   -0.7377   22.8693  -29.5833 H   0  0  0  0  0  0  0  0  0  0  0  0
   -0.8723   24.6605  -29.5833 H   0  0  0  0  0  0  0  0  0  0  0  0
   -5.9266   25.8896  -29.1216 H   0  0  0  0  0  0  0  0  0  0  0  0
   -5.3534   26.6072  -30.6654 H   0  0  0  0  0  0  0  0  0  0  0  0
   -6.7428   25.4686  -30.6654 H   0  0  0  0  0  0  0  0  0  0  0  0
   -6.4531   21.1050  -33.8739 H   0  0  0  0  0  0  0  0  0  0  0  0
   -5.4811   18.8800  -34.4196 H   0  0  0  0  0  0  0  0  0  0  0  0
  1  2  1  0
  2  3  1  0
  3  4  2  0
  4  5  1  0
  5  6  2  0
  6  7  1  0
  7  8  1  0
  7  9  1  0
  9 10  1  0
  9 11  1  0
 11 12  2  0
 11 13  1  0
 13 14  2  0
 14 15  1  0
 15 16  2  0
 16 17  1  0
 16 18  1  0
 18 19  2  0
 19 20  1  0
  6 21  1  0
 21 22  2  0
 22  3  1  0
 19 13  1  0
  1 23  1  0
  1 24  1  0
  1 25  1  0
  4 26  1  0
  5 27  1  0
  7 28  1  6
  8 29  1  0
  8 30  1  0
  8 31  1  0
 10 32  1  0
 10 33  1  0
 10 34  1  0
 14 35  1  0
 17 36  1  0
 17 37  1  0
 17 38  1  0
 20 39  1  0
 20 40  1  0
 20 41  1  0
 21 42  1  0
 22 43  1  0
M  END
>  <UniqueID>  (21) 
18

>  <SMILES>  (21) 
COc1ccc([C@@H](C)N(C)C(=O)c2cnc(C)nc2C)cc1

>  <Energy>  (21) 
47.239343261167335

>  <Genealogy>  (21) 
COc1ccc([C@@H](C)N(C)C(=O)c2cnc(C)nc2C)cc1 (chirality)
COc1ccc([C@@H](C)N(C)C(=O)c2cnc(C)nc2C)cc1 (3D coordinates assigned)
COc1ccc([C@@H](C)N(C)C(=O)c2cnc(C)nc2C)cc1 (optimized conformer: 47.239343261167335 kcal/mol)

>  <smiles>  (21) 
COc1ccc(C(C)N(C)C(=O)c2cnc(C)nc2C)cc1

>  <score_type>  (21) 
oracle

>  <origin>  (21) 
adg

>  <m_score__min__energy>  (21) 
-7.7599999999999998

>  <m_primary>  (21) 
energy

$$$$
21:0
     RDKit          3D

 39 41  0  0  0  0  0  0  0  0999 V2000
  -10.2486   21.1307  -31.2936 H   0  0  0  0  0  0  0  0  0  0  0  0
   -9.1600   21.1790  -31.4440 C   0  0  0  0  0  0  0  0  0  0  0  0
   -8.5180   20.1520  -32.0720 N   0  0  0  0  0  0  0  0  0  0  0  0
   -7.1700   20.1620  -32.2660 C   0  0  0  0  0  0  0  0  0  0  0  0
   -6.5330   19.0530  -32.9280 N   0  0  0  0  0  0  0  0  0  0  0  0
   -6.6900   17.6790  -32.4260 C   0  0  0  0  0  0  0  0  0  0  0  0
   -5.8063   17.4074  -31.8299 H   0  0  0  0  0  0  0  0  0  0  0  0
   -7.5954   17.6270  -31.8034 H   0  0  0  0  0  0  0  0  0  0  0  0
   -6.8320   16.6990  -33.5940 C   0  0  0  0  0  0  0  0  0  0  0  0
   -6.8884   15.6765  -33.1923 H   0  0  0  0  0  0  0  0  0  0  0  0
   -7.7448   16.9661  -34.1466 H   0  0  0  0  0  0  0  0  0  0  0  0
   -5.6470   16.7800  -34.5770 C   0  0  0  0  0  0  0  0  0  0  0  0
   -4.9277   15.9886  -34.3193 H   0  0  0  0  0  0  0  0  0  0  0  0
   -6.0610   16.6590  -35.5889 H   0  0  0  0  0  0  0  0  0  0  0  0
   -4.9110   18.1320  -34.5520 C   0  0  0  0  0  0  0  0  0  0  0  0
   -4.1110   18.0861  -33.7984 H   0  0  0  0  0  0  0  0  0  0  0  0
   -4.5034   18.3136  -35.5574 H   0  0  0  0  0  0  0  0  0  0  0  0
   -5.8480   19.2940  -34.2070 C   0  0  0  0  0  0  0  0  0  0  0  0
   -5.2602   20.2207  -34.1318 H   0  0  0  0  0  0  0  0  0  0  0  0
   -6.6050   19.3829  -35.0002 H   0  0  0  0  0  0  0  0  0  0  0  0
   -6.4600   21.2830  -31.8210 C   0  0  0  0  0  0  0  0  0  0  0  0
   -4.8280   21.6420  -31.9360 S   0  0  0  0  0  0  0  0  0  0  0  0
   -5.0010   23.1260  -31.1570 C   0  0  0  0  0  0  0  0  0  0  0  0
   -3.9480   23.8350  -30.8440 N   0  0  0  0  0  0  0  0  0  0  0  0
   -2.7840   23.5250  -30.0170 C   0  0  0  0  0  0  0  0  0  0  0  0
   -2.0223   24.3061  -30.1572 H   0  0  0  0  0  0  0  0  0  0  0  0
   -2.3841   22.5459  -30.3193 H   0  0  0  0  0  0  0  0  0  0  0  0
   -3.1750   23.4640  -28.5430 C   0  0  0  0  0  0  0  0  0  0  0  0
   -2.2793   23.6037  -27.9200 H   0  0  0  0  0  0  0  0  0  0  0  0
   -3.9022   24.2596  -28.3233 H   0  0  0  0  0  0  0  0  0  0  0  0
   -3.6253   22.4847  -28.3233 H   0  0  0  0  0  0  0  0  0  0  0  0
   -6.3150   23.4030  -30.8560 N   0  0  0  0  0  0  0  0  0  0  0  0
   -6.8360   24.7210  -30.4680 C   0  0  0  0  0  0  0  0  0  0  0  0
   -6.8653   24.7952  -29.3709 H   0  0  0  0  0  0  0  0  0  0  0  0
   -6.1811   25.5074  -30.8713 H   0  0  0  0  0  0  0  0  0  0  0  0
   -7.8516   24.8471  -30.8713 H   0  0  0  0  0  0  0  0  0  0  0  0
   -7.1150   22.3380  -31.2070 C   0  0  0  0  0  0  0  0  0  0  0  0
   -8.4640   22.2650  -31.0010 N   0  0  0  0  0  0  0  0  0  0  0  0
   -8.9930   22.9980  -30.4850 H   0  0  0  0  0  0  0  0  0  0  0  0
  1  2  1  0
  2  3  2  0
  3  4  1  0
  4  5  1  0
  5  6  1  0
  6  7  1  0
  6  8  1  0
  6  9  1  0
  9 10  1  0
  9 11  1  0
  9 12  1  0
 12 13  1  0
 12 14  1  0
 12 15  1  0
 15 16  1  0
 15 17  1  0
 15 18  1  0
 18 19  1  0
 18 20  1  0
  4 21  2  0
 21 22  1  0
 22 23  1  0
 23 24  2  0
 24 25  1  0
 25 26  1  0
 25 27  1  0
 25 28  1  0
 28 29  1  0
 28 30  1  0
 28 31  1  0
 23 32  1  0
 32 33  1  0
 33 34  1  0
 33 35  1  0
 33 36  1  0
 32 37  1  0
 37 38  2  0
 38 39  1  0
 38  2  1  0
 18  5  1  0
 37 21  1  0
M  CHG  1  38   1
M  END
>  <UniqueID>  (22) 
19

>  <SMILES>  (22) 
CC/N=c1/sc2c(N3CCCCC3)nc[nH+]c2n1C

>  <Energy>  (22) 
91.83313845664925

>  <Genealogy>  (22) 
CCN=c1sc2c(N3CCCCC3)nc[nH+]c2n1C (protonated)
CC/N=c1/sc2c(N3CCCCC3)nc[nH+]c2n1C (cis-trans isomerization)
CC/N=c1/sc2c(N3CCCCC3)nc[nH+]c2n1C (3D coordinates assigned)
CC/N=c1/sc2c(N3CCCCC3)nc[nH+]c2n1C (nonaromatic ring conformer: 91.83313845664925 kcal/mol)

>  <smiles>  (22) 
CCN=c1sc2c(N3CCCCC3)ncnc2n1C

>  <score_type>  (22) 
oracle

>  <origin>  (22) 
adg

>  <m_score__min__energy>  (22) 
-6.3399999999999999

>  <m_primary>  (22) 
energy

$$$$
22:0
     RDKit          3D

 39 40  0  0  0  0  0  0  0  0999 V2000
    0.5750   19.6020  -31.6590 C   0  0  0  0  0  0  0  0  0  0  0  0
    0.6090   20.6130  -30.6570 O   0  0  0  0  0  0  0  0  0  0  0  0
   -0.5140   21.0700  -29.9510 C   0  0  0  0  0  0  0  0  0  0  0  0
   -1.2700   20.1370  -29.2360 C   0  0  0  0  0  0  0  0  0  0  0  0
   -2.3940   20.5410  -28.5120 C   0  0  0  0  0  0  0  0  0  0  0  0
   -2.7790   21.8850  -28.4950 C   0  0  0  0  0  0  0  0  0  0  0  0
   -4.1950   22.3350  -27.5510 Cl  0  0  0  0  0  0  0  0  0  0  0  0
   -2.0300   22.8390  -29.2140 C   0  0  0  0  0  0  0  0  0  0  0  0
   -2.4670   24.5500  -29.1860 S   0  0  0  0  0  0  0  0  0  0  0  0
   -1.2320   25.3920  -29.3420 O   0  0  0  0  0  0  0  0  0  0  0  0
   -3.1180   24.9040  -27.8780 O   0  0  0  0  0  0  0  0  0  0  0  0
   -3.5630   24.8880  -30.4810 N   0  0  0  0  0  0  0  0  0  0  0  0
   -4.7240   24.0810  -30.6990 C   0  0  0  0  0  0  0  0  0  0  0  0
   -4.6260   22.8840  -31.4400 C   0  0  0  0  0  0  0  0  0  0  0  0
   -3.3110   22.4190  -32.0010 C   0  0  0  0  0  0  0  0  0  0  0  0
   -5.7620   22.0760  -31.6000 C   0  0  0  0  0  0  0  0  0  0  0  0
   -6.9990   22.4690  -31.0730 C   0  0  0  0  0  0  0  0  0  0  0  0
   -8.1970   21.5770  -31.2170 C   0  0  0  0  0  0  0  0  0  0  0  0
   -7.0950   23.6650  -30.3530 C   0  0  0  0  0  0  0  0  0  0  0  0
   -5.9710   24.4880  -30.1800 C   0  0  0  0  0  0  0  0  0  0  0  0
   -6.1020   25.7630  -29.3890 C   0  0  0  0  0  0  0  0  0  0  0  0
   -0.9000   22.4230  -29.9380 C   0  0  0  0  0  0  0  0  0  0  0  0
    0.5417   18.6122  -31.1802 H   0  0  0  0  0  0  0  0  0  0  0  0
   -0.3191   19.7365  -32.2854 H   0  0  0  0  0  0  0  0  0  0  0  0
    1.4761   19.6762  -32.2854 H   0  0  0  0  0  0  0  0  0  0  0  0
   -0.9776   19.0766  -29.2435 H   0  0  0  0  0  0  0  0  0  0  0  0
   -2.9798   19.7974  -27.9518 H   0  0  0  0  0  0  0  0  0  0  0  0
   -2.6254   22.1766  -31.1756 H   0  0  0  0  0  0  0  0  0  0  0  0
   -3.4721   21.5233  -32.6189 H   0  0  0  0  0  0  0  0  0  0  0  0
   -2.8733   23.2169  -32.6189 H   0  0  0  0  0  0  0  0  0  0  0  0
   -5.6803   21.1240  -32.1450 H   0  0  0  0  0  0  0  0  0  0  0  0
   -8.5696   21.2996  -30.2199 H   0  0  0  0  0  0  0  0  0  0  0  0
   -8.9862   22.1091  -31.7683 H   0  0  0  0  0  0  0  0  0  0  0  0
   -7.9134   20.6684  -31.7683 H   0  0  0  0  0  0  0  0  0  0  0  0
   -8.0605   23.9632  -29.9184 H   0  0  0  0  0  0  0  0  0  0  0  0
   -6.0782   25.5316  -28.3139 H   0  0  0  0  0  0  0  0  0  0  0  0
   -5.2683   26.4361  -29.6377 H   0  0  0  0  0  0  0  0  0  0  0  0
   -7.0552   26.2525  -29.6377 H   0  0  0  0  0  0  0  0  0  0  0  0
   -0.3111   23.1626  -30.5004 H   0  0  0  0  0  0  0  0  0  0  0  0
  1  2  1  0
  2  3  1  0
  3  4  2  0
  4  5  1  0
  5  6  2  0
  6  7  1  0
  6  8  1  0
  8  9  1  0
  9 10  2  0
  9 11  2  0
  9 12  1  0
 12 13  1  0
 13 14  2  0
 14 15  1  0
 14 16  1  0
 16 17  2  0
 17 18  1  0
 17 19  1  0
 19 20  2  0
 20 21  1  0
  8 22  2  0
 22  3  1  0
 20 13  1  0
  1 23  1  0
  1 24  1  0
  1 25  1  0
  4 26  1  0
  5 27  1  0
 15 28  1  0
 15 29  1  0
 15 30  1  0
 16 31  1  0
 18 32  1  0
 18 33  1  0
 18 34  1  0
 19 35  1  0
 21 36  1  0
 21 37  1  0
 21 38  1  0
 22 39  1  0
M  CHG  1  12  -1
M  END
>  <UniqueID>  (23) 
20

>  <SMILES>  (23) 
COc1ccc(Cl)c(S(=O)(=O)[N-]c2c(C)cc(C)cc2C)c1

>  <Energy>  (23) 
47.89620391216951

>  <Genealogy>  (23) 
COc1ccc(Cl)c(S(=O)(=O)[N-]c2c(C)cc(C)cc2C)c1 (protonated)
COc1ccc(Cl)c(S(=O)(=O)[N-]c2c(C)cc(C)cc2C)c1 (3D coordinates assigned)
COc1ccc(Cl)c(S(=O)(=O)[N-]c2c(C)cc(C)cc2C)c1 (optimized conformer: 47.89620391216951 kcal/mol)

>  <smiles>  (23) 
COc1ccc(Cl)c(S(=O)(=O)Nc2c(C)cc(C)cc2C)c1

>  <score_type>  (23) 
oracle

>  <origin>  (23) 
adg

>  <m_score__min__energy>  (23) 
-8.5299999999999994

>  <m_primary>  (23) 
energy

$$$$
23:0
     RDKit          3D

 48 50  0  0  0  0  0  0  0  0999 V2000
   -5.6930   16.6300  -31.7790 C   0  0  0  0  0  0  0  0  0  0  0  0
   -6.2030   18.0600  -31.6050 C   0  0  0  0  0  0  0  0  0  0  0  0
   -7.0850   18.4600  -32.7210 N   0  0  0  0  0  0  0  0  0  0  0  0
   -6.3460   19.2340  -33.7430 C   0  0  0  0  0  0  0  0  0  0  0  0
   -5.7390   18.2880  -34.7730 C   0  0  0  0  0  0  0  0  0  0  0  0
   -8.4800   19.3660  -32.1490 S   0  0  0  0  0  0  0  0  0  0  0  0
   -8.9690   18.7670  -30.8600 O   0  0  0  0  0  0  0  0  0  0  0  0
   -9.6030   19.2680  -33.1450 O   0  0  0  0  0  0  0  0  0  0  0  0
   -8.1090   21.0760  -31.8960 C   0  0  0  0  0  0  0  0  0  0  0  0
   -9.0700   22.0580  -32.1730 C   0  0  0  0  0  0  0  0  0  0  0  0
   -8.7720   23.4070  -31.9720 C   0  0  0  0  0  0  0  0  0  0  0  0
   -7.5170   23.7860  -31.4900 C   0  0  0  0  0  0  0  0  0  0  0  0
   -6.5440   22.8150  -31.1990 C   0  0  0  0  0  0  0  0  0  0  0  0
   -5.2160   23.2310  -30.6890 C   0  0  0  0  0  0  0  0  0  0  0  0
   -4.6610   24.2460  -31.1920 O   0  0  0  0  0  0  0  0  0  0  0  0
   -4.5580   22.4930  -29.6430 N   0  0  0  0  0  0  0  0  0  0  0  0
   -3.2710   22.8470  -29.1060 C   0  0  0  0  0  0  0  0  0  0  0  0
   -2.7170   24.1190  -29.3430 C   0  0  0  0  0  0  0  0  0  0  0  0
   -1.4800   24.4690  -28.7950 C   0  0  0  0  0  0  0  0  0  0  0  0
   -0.7830   23.5630  -27.9930 C   0  0  0  0  0  0  0  0  0  0  0  0
   -1.3270   22.2990  -27.7280 C   0  0  0  0  0  0  0  0  0  0  0  0
   -0.6520   21.3780  -26.9180 C   0  0  0  0  0  0  0  0  0  0  0  0
   -1.2170   20.1260  -26.6700 C   0  0  0  0  0  0  0  0  0  0  0  0
   -2.4540   19.8060  -27.2360 C   0  0  0  0  0  0  0  0  0  0  0  0
   -3.1000   20.7090  -28.0210 N   0  0  0  0  0  0  0  0  0  0  0  0
   -2.5790   21.9410  -28.2800 C   0  0  0  0  0  0  0  0  0  0  0  0
   -6.8450   21.4590  -31.4220 C   0  0  0  0  0  0  0  0  0  0  0  0
   -5.5310   16.1757  -30.7904 H   0  0  0  0  0  0  0  0  0  0  0  0
   -6.4364   16.0408  -32.3359 H   0  0  0  0  0  0  0  0  0  0  0  0
   -4.7445   16.6442  -32.3359 H   0  0  0  0  0  0  0  0  0  0  0  0
   -6.7665   18.1263  -30.6626 H   0  0  0  0  0  0  0  0  0  0  0  0
   -5.3357   18.7364  -31.5911 H   0  0  0  0  0  0  0  0  0  0  0  0
   -7.0370   19.9262  -34.2463 H   0  0  0  0  0  0  0  0  0  0  0  0
   -5.5405   19.8019  -33.2544 H   0  0  0  0  0  0  0  0  0  0  0  0
   -5.2146   17.4708  -34.2561 H   0  0  0  0  0  0  0  0  0  0  0  0
   -6.5381   17.8703  -35.4030 H   0  0  0  0  0  0  0  0  0  0  0  0
   -5.0263   18.8404  -35.4030 H   0  0  0  0  0  0  0  0  0  0  0  0
  -10.0612   21.7651  -32.5496 H   0  0  0  0  0  0  0  0  0  0  0  0
   -9.5283   24.1743  -32.1940 H   0  0  0  0  0  0  0  0  0  0  0  0
   -7.2890   24.8512  -31.3373 H   0  0  0  0  0  0  0  0  0  0  0  0
   -5.0070   21.6270  -29.2730 H   0  0  0  0  0  0  0  0  0  0  0  0
   -3.2625   24.8439  -29.9650 H   0  0  0  0  0  0  0  0  0  0  0  0
   -1.0534   25.4627  -28.9964 H   0  0  0  0  0  0  0  0  0  0  0  0
    0.1931   23.8415  -27.5692 H   0  0  0  0  0  0  0  0  0  0  0  0
    0.3214   21.6404  -26.4780 H   0  0  0  0  0  0  0  0  0  0  0  0
   -0.6929   19.3972  -26.0343 H   0  0  0  0  0  0  0  0  0  0  0  0
   -2.9061   18.8214  -27.0460 H   0  0  0  0  0  0  0  0  0  0  0  0
   -6.0823   20.6917  -31.2229 H   0  0  0  0  0  0  0  0  0  0  0  0
  1  2  1  0
  2  3  1  0
  3  4  1  0
  4  5  1  0
  3  6  1  0
  6  7  2  0
  6  8  2  0
  6  9  1  0
  9 10  2  0
 10 11  1  0
 11 12  2  0
 12 13  1  0
 13 14  1  0
 14 15  2  0
 14 16  1  0
 16 17  1  0
 17 18  2  0
 18 19  1  0
 19 20  2  0
 20 21  1  0
 21 22  2  0
 22 23  1  0
 23 24  2  0
 24 25  1  0
 25 26  2  0
 13 27  2  0
 27  9  1  0
 26 17  1  0
 26 21  1  0
  1 28  1  0
  1 29  1  0
  1 30  1  0
  2 31  1  0
  2 32  1  0
  4 33  1  0
  4 34  1  0
  5 35  1  0
  5 36  1  0
  5 37  1  0
 10 38  1  0
 11 39  1  0
 12 40  1  0
 16 41  1  0
 18 42  1  0
 19 43  1  0
 20 44  1  0
 22 45  1  0
 23 46  1  0
 24 47  1  0
 27 48  1  0
M  END
>  <UniqueID>  (24) 
21

>  <SMILES>  (24) 
CCN(CC)S(=O)(=O)c1cccc(C(=O)Nc2cccc3cccnc23)c1

>  <Energy>  (24) 
59.20191135466526

>  <Genealogy>  (24) 
CCN(CC)S(=O)(=O)c1cccc(C(=O)Nc2cccc3cccnc23)c1 (3D coordinates assigned)
CCN(CC)S(=O)(=O)c1cccc(C(=O)Nc2cccc3cccnc23)c1 (optimized conformer: 59.20191135466526 kcal/mol)

>  <smiles>  (24) 
CCN(CC)S(=O)(=O)c1cccc(C(=O)Nc2cccc3cccnc23)c1

>  <score_type>  (24) 
oracle

>  <origin>  (24) 
adg

>  <m_score__min__energy>  (24) 
-9.5500000000000007

>  <m_primary>  (24) 
energy

$$$$
24:0
     RDKit          3D

 58 61  0  0  0  0  0  0  0  0999 V2000
   -3.0950   20.2390  -33.4850 C   0  0  0  0  0  0  0  0  0  0  0  0
   -2.2880   21.3390  -32.8130 C   0  0  0  0  0  0  0  0  0  0  0  0
   -3.1760   22.2760  -32.2120 O   0  0  0  0  0  0  0  0  0  0  0  0
   -3.6710   22.1240  -30.9130 C   0  0  0  0  0  0  0  0  0  0  0  0
   -4.3060   21.0840  -30.5880 O   0  0  0  0  0  0  0  0  0  0  0  0
   -3.4130   23.1880  -29.8860 C   0  0  2  0  0  0  0  0  0  0  0  0
   -3.6940   24.5070  -30.4590 N   0  0  0  0  0  0  0  0  0  0  0  0
   -4.9680   25.1610  -30.4910 C   0  0  0  0  0  0  0  0  0  0  0  0
   -5.0020   26.4200  -30.4660 O   0  0  0  0  0  0  0  0  0  0  0  0
   -6.2520   24.3840  -30.5370 C   0  0  0  0  0  0  0  0  0  0  0  0
   -6.3770   23.6960  -31.7800 O   0  0  0  0  0  0  0  0  0  0  0  0
   -6.9960   22.4470  -31.9350 C   0  0  0  0  0  0  0  0  0  0  0  0
   -8.2290   22.2390  -31.3130 C   0  0  0  0  0  0  0  0  0  0  0  0
   -8.8910   21.0160  -31.4360 C   0  0  0  0  0  0  0  0  0  0  0  0
   -8.3300   19.9730  -32.1910 C   0  0  0  0  0  0  0  0  0  0  0  0
   -9.0640   18.6630  -32.2970 C   0  0  0  0  0  0  0  0  0  0  0  0
   -7.0740   20.1660  -32.8140 C   0  0  0  0  0  0  0  0  0  0  0  0
   -6.4300   19.0740  -33.6280 C   0  0  0  0  0  0  0  0  0  0  0  0
   -6.4230   21.4060  -32.6880 C   0  0  0  0  0  0  0  0  0  0  0  0
   -1.9610   23.1220  -29.3590 C   0  0  0  0  0  0  0  0  0  0  0  0
   -1.7540   21.8910  -28.5110 C   0  0  0  0  0  0  0  0  0  0  0  0
   -1.8540   20.5520  -28.9020 C   0  0  0  0  0  0  0  0  0  0  0  0
   -1.6410   19.5500  -27.9410 C   0  0  0  0  0  0  0  0  0  0  0  0
   -1.3240   19.8930  -26.6130 C   0  0  0  0  0  0  0  0  0  0  0  0
   -1.2150   21.2410  -26.2340 C   0  0  0  0  0  0  0  0  0  0  0  0
   -1.4370   22.2180  -27.2050 C   0  0  0  0  0  0  0  0  0  0  0  0
   -1.3610   23.6590  -27.1040 C   0  0  0  0  0  0  0  0  0  0  0  0
   -1.0130   24.4590  -26.0130 C   0  0  0  0  0  0  0  0  0  0  0  0
   -0.9390   25.8470  -26.2040 C   0  0  0  0  0  0  0  0  0  0  0  0
   -1.1890   26.4050  -27.4740 C   0  0  0  0  0  0  0  0  0  0  0  0
   -1.5260   25.5800  -28.5580 C   0  0  0  0  0  0  0  0  0  0  0  0
   -1.6340   24.2010  -28.3480 C   0  0  0  0  0  0  0  0  0  0  0  0
   -3.5606   19.6043  -32.7167 H   0  0  0  0  0  0  0  0  0  0  0  0
   -3.8782   20.6898  -34.1122 H   0  0  0  0  0  0  0  0  0  0  0  0
   -2.4299   19.6273  -34.1122 H   0  0  0  0  0  0  0  0  0  0  0  0
   -1.6402   20.8993  -32.0403 H   0  0  0  0  0  0  0  0  0  0  0  0
   -1.6667   21.8500  -33.5632 H   0  0  0  0  0  0  0  0  0  0  0  0
   -4.0831   23.0149  -29.0310 H   0  0  0  0  0  0  0  0  0  0  0  0
   -6.2615   23.6521  -29.7159 H   0  0  0  0  0  0  0  0  0  0  0  0
   -7.0943   25.0836  -30.4321 H   0  0  0  0  0  0  0  0  0  0  0  0
   -8.6831   23.0468  -30.7203 H   0  0  0  0  0  0  0  0  0  0  0  0
   -9.8602   20.8680  -30.9373 H   0  0  0  0  0  0  0  0  0  0  0  0
   -9.2785   18.2802  -31.2883 H   0  0  0  0  0  0  0  0  0  0  0  0
  -10.0085   18.8148  -32.8401 H   0  0  0  0  0  0  0  0  0  0  0  0
   -8.4414   17.9368  -32.8401 H   0  0  0  0  0  0  0  0  0  0  0  0
   -5.9886   18.3256  -32.9534 H   0  0  0  0  0  0  0  0  0  0  0  0
   -7.1892   18.5933  -34.2625 H   0  0  0  0  0  0  0  0  0  0  0  0
   -5.6420   19.5058  -34.2625 H   0  0  0  0  0  0  0  0  0  0  0  0
   -5.4541   21.5639  -33.1842 H   0  0  0  0  0  0  0  0  0  0  0  0
   -1.3564   23.1844  -30.2758 H   0  0  0  0  0  0  0  0  0  0  0  0
   -2.0949   20.2885  -29.9424 H   0  0  0  0  0  0  0  0  0  0  0  0
   -1.7224   18.4912  -28.2278 H   0  0  0  0  0  0  0  0  0  0  0  0
   -1.1607   19.1006  -25.8677 H   0  0  0  0  0  0  0  0  0  0  0  0
   -0.9616   21.5188  -25.2003 H   0  0  0  0  0  0  0  0  0  0  0  0
   -0.8025   24.0125  -25.0300 H   0  0  0  0  0  0  0  0  0  0  0  0
   -0.6846   26.5030  -25.3584 H   0  0  0  0  0  0  0  0  0  0  0  0
   -1.1195   27.4936  -27.6162 H   0  0  0  0  0  0  0  0  0  0  0  0
   -1.7021   26.0099  -29.5551 H   0  0  0  0  0  0  0  0  0  0  0  0
  1  2  1  0
  2  3  1  0
  3  4  1  0
  4  5  2  0
  4  6  1  0
  6  7  1  0
  7  8  1  0
  8  9  2  0
  8 10  1  0
 10 11  1  0
 11 12  1  0
 12 13  2  0
 13 14  1  0
 14 15  2  0
 15 16  1  0
 15 17  1  0
 17 18  1  0
 17 19  2  0
  6 20  1  0
 20 21  1  0
 21 22  2  0
 22 23  1  0
 23 24  2  0
 24 25  1  0
 25 26  2  0
 26 27  1  0
 27 28  2  0
 28 29  1  0
 29 30  2  0
 30 31  1  0
 31 32  2  0
 19 12  1  0
 32 20  1  0
 26 21  1  0
 32 27  1  0
  1 33  1  0
  1 34  1  0
  1 35  1  0
  2 36  1  0
  2 37  1  0
  6 38  1  1
 10 39  1  0
 10 40  1  0
 13 41  1  0
 14 42  1  0
 16 43  1  0
 16 44  1  0
 16 45  1  0
 18 46  1  0
 18 47  1  0
 18 48  1  0
 19 49  1  0
 20 50  1  0
 22 51  1  0
 23 52  1  0
 24 53  1  0
 25 54  1  0
 28 55  1  0
 29 56  1  0
 30 57  1  0
 31 58  1  0
M  CHG  1   7  -1
M  END
>  <UniqueID>  (25) 
22

>  <SMILES>  (25) 
CCOC(=O)[C@H]([N-]C(=O)COc1ccc(C)c(C)c1)C1c2ccccc2-c2ccccc21

>  <Energy>  (25) 
76.61899427870091

>  <Genealogy>  (25) 
CCOC(=O)C([N-]C(=O)COc1ccc(C)c(C)c1)C1c2ccccc2-c2ccccc21 (protonated)
CCOC(=O)[C@H]([N-]C(=O)COc1ccc(C)c(C)c1)C1c2ccccc2-c2ccccc21 (chirality)
CCOC(=O)[C@H]([N-]C(=O)COc1ccc(C)c(C)c1)C1c2ccccc2-c2ccccc21 (3D coordinates assigned)
CCOC(=O)[C@H]([N-]C(=O)COc1ccc(C)c(C)c1)C1c2ccccc2-c2ccccc21 (nonaromatic ring conformer: 76.61899427870091 kcal/mol)

>  <smiles>  (25) 
CCOC(=O)C(NC(=O)COc1ccc(C)c(C)c1)C1c2ccccc2-c2ccccc21

>  <score_type>  (25) 
oracle

>  <origin>  (25) 
adg

>  <m_score__min__energy>  (25) 
-11.289999999999999

>  <m_primary>  (25) 
energy

$$$$
25:0
     RDKit          3D

 49 51  0  0  0  0  0  0  0  0999 V2000
   -1.0650   27.5760  -25.2740 C   0  0  0  0  0  0  0  0  0  0  0  0
   -0.8650   27.0920  -26.6800 C   0  0  0  0  0  0  0  0  0  0  0  0
   -0.1490   27.7840  -27.4560 O   0  0  0  0  0  0  0  0  0  0  0  0
   -1.4800   25.8780  -27.1680 N   0  0  0  0  0  0  0  0  0  0  0  0
   -2.4100   25.0920  -26.3360 C   0  0  0  0  0  0  0  0  0  0  0  0
   -3.5710   24.5500  -27.1810 C   0  0  0  0  0  0  0  0  0  0  0  0
   -3.1110   24.0220  -28.4730 N   0  0  0  0  0  0  0  0  0  0  0  0
   -4.0800   23.6380  -29.4660 C   0  0  0  0  0  0  0  0  0  0  0  0
   -5.0690   24.5420  -29.8820 C   0  0  0  0  0  0  0  0  0  0  0  0
   -5.9930   24.1810  -30.8660 C   0  0  0  0  0  0  0  0  0  0  0  0
   -5.9420   22.9050  -31.4590 C   0  0  0  0  0  0  0  0  0  0  0  0
   -6.8730   22.5020  -32.4830 N   0  0  0  0  0  0  0  0  0  0  0  0
   -7.8260   21.3980  -32.3470 C   0  0  0  0  0  0  0  0  0  0  0  0
   -7.2150   20.0800  -32.7800 C   0  0  0  0  0  0  0  0  0  0  0  0
   -6.0760   20.0980  -33.6100 C   0  0  0  0  0  0  0  0  0  0  0  0
   -5.4990   18.9080  -34.0550 C   0  0  0  0  0  0  0  0  0  0  0  0
   -6.0590   17.6830  -33.7010 C   0  0  0  0  0  0  0  0  0  0  0  0
   -7.2070   17.6430  -32.9080 C   0  0  0  0  0  0  0  0  0  0  0  0
   -7.8070   18.8310  -32.4540 C   0  0  0  0  0  0  0  0  0  0  0  0
   -9.0590   18.7390  -31.6190 C   0  0  0  0  0  0  0  0  0  0  0  0
   -4.9500   22.0030  -31.0430 C   0  0  0  0  0  0  0  0  0  0  0  0
   -4.0270   22.3650  -30.0570 C   0  0  0  0  0  0  0  0  0  0  0  0
   -1.6760   23.9890  -28.7730 C   0  0  0  0  0  0  0  0  0  0  0  0
   -1.0630   25.3610  -28.4830 C   0  0  0  0  0  0  0  0  0  0  0  0
   -0.7427   26.7961  -24.5684 H   0  0  0  0  0  0  0  0  0  0  0  0
   -0.4694   28.4864  -25.1114 H   0  0  0  0  0  0  0  0  0  0  0  0
   -2.1295   27.8004  -25.1114 H   0  0  0  0  0  0  0  0  0  0  0  0
   -1.8664   24.2481  -25.8862 H   0  0  0  0  0  0  0  0  0  0  0  0
   -2.8195   25.7451  -25.5513 H   0  0  0  0  0  0  0  0  0  0  0  0
   -4.0690   23.7425  -26.6242 H   0  0  0  0  0  0  0  0  0  0  0  0
   -4.2635   25.3811  -27.3804 H   0  0  0  0  0  0  0  0  0  0  0  0
   -5.1174   25.5435  -29.4296 H   0  0  0  0  0  0  0  0  0  0  0  0
   -6.7655   24.8986  -31.1795 H   0  0  0  0  0  0  0  0  0  0  0  0
   -6.8850   23.0320  -33.3830 H   0  0  0  0  0  0  0  0  0  0  0  0
   -8.1348   21.3200  -31.2941 H   0  0  0  0  0  0  0  0  0  0  0  0
   -8.6906   21.6067  -32.9943 H   0  0  0  0  0  0  0  0  0  0  0  0
   -5.6370   21.0609  -33.9103 H   0  0  0  0  0  0  0  0  0  0  0  0
   -4.5993   18.9375  -34.6872 H   0  0  0  0  0  0  0  0  0  0  0  0
   -5.5965   16.7467  -34.0464 H   0  0  0  0  0  0  0  0  0  0  0  0
   -7.6468   16.6723  -32.6354 H   0  0  0  0  0  0  0  0  0  0  0  0
   -8.7907   18.7587  -30.5524 H   0  0  0  0  0  0  0  0  0  0  0  0
   -9.7157   19.5913  -31.8477 H   0  0  0  0  0  0  0  0  0  0  0  0
   -9.5841   17.7999  -31.8477 H   0  0  0  0  0  0  0  0  0  0  0  0
   -4.8983   21.0023  -31.4968 H   0  0  0  0  0  0  0  0  0  0  0  0
   -3.2544   21.6481  -29.7422 H   0  0  0  0  0  0  0  0  0  0  0  0
   -1.1875   23.2290  -28.1455 H   0  0  0  0  0  0  0  0  0  0  0  0
   -1.5287   23.7382  -29.8338 H   0  0  0  0  0  0  0  0  0  0  0  0
    0.0333   25.2722  -28.4997 H   0  0  0  0  0  0  0  0  0  0  0  0
   -1.4138   26.0628  -29.2540 H   0  0  0  0  0  0  0  0  0  0  0  0
  1  2  1  0
  2  3  2  0
  2  4  1  0
  4  5  1  0
  5  6  1  0
  6  7  1  0
  7  8  1  0
  8  9  2  0
  9 10  1  0
 10 11  2  0
 11 12  1  0
 12 13  1  0
 13 14  1  0
 14 15  2  0
 15 16  1  0
 16 17  2  0
 17 18  1  0
 18 19  2  0
 19 20  1  0
 11 21  1  0
 21 22  2  0
  7 23  1  0
 23 24  1  0
 24  4  1  0
 22  8  1  0
 19 14  1  0
  1 25  1  0
  1 26  1  0
  1 27  1  0
  5 28  1  0
  5 29  1  0
  6 30  1  0
  6 31  1  0
  9 32  1  0
 10 33  1  0
 12 34  1  0
 13 35  1  0
 13 36  1  0
 15 37  1  0
 16 38  1  0
 17 39  1  0
 18 40  1  0
 20 41  1  0
 20 42  1  0
 20 43  1  0
 21 44  1  0
 22 45  1  0
 23 46  1  0
 23 47  1  0
 24 48  1  0
 24 49  1  0
M  END
>  <UniqueID>  (26) 
23

>  <SMILES>  (26) 
CC(=O)N1CCN(c2ccc(NCc3ccccc3C)cc2)CC1

>  <Energy>  (26) 
55.03432583418581

>  <Genealogy>  (26) 
CC(=O)N1CCN(c2ccc(NCc3ccccc3C)cc2)CC1 (3D coordinates assigned)
CC(=O)N1CCN(c2ccc(NCc3ccccc3C)cc2)CC1 (nonaromatic ring conformer: 55.03432583418581 kcal/mol)

>  <smiles>  (26) 
CC(=O)N1CCN(c2ccc(NCc3ccccc3C)cc2)CC1

>  <score_type>  (26) 
oracle

>  <origin>  (26) 
adg

>  <m_score__min__energy>  (26) 
-8.4900000000000002

>  <m_primary>  (26) 
energy

$$$$
26:0
     RDKit          3D

 29 29  0  0  0  0  0  0  0  0999 V2000
   -5.6880   23.7980  -31.7290 C   0  0  0  0  0  0  0  0  0  0  0  0
   -4.8600   24.6210  -30.8300 N   0  0  0  0  0  0  0  0  0  0  0  0
   -5.6910   25.6710  -30.2200 C   0  0  0  0  0  0  0  0  0  0  0  0
   -4.2310   23.7930  -29.7770 C   0  0  0  0  0  0  0  0  0  0  0  0
   -3.0100   24.4920  -29.1530 C   0  0  0  0  0  0  0  0  0  0  0  0
   -2.9410   24.3620  -27.6240 C   0  0  0  0  0  0  0  0  0  0  0  0
   -1.3890   23.5850  -27.0430 S   0  0  0  0  0  0  0  0  0  0  0  0
   -1.0150   24.8480  -25.8280 C   0  0  0  0  0  0  0  0  0  0  0  0
   -0.2230   24.5530  -24.7130 C   0  0  0  0  0  0  0  0  0  0  0  0
    0.0370   25.5270  -23.8000 N   0  0  0  0  0  0  0  0  0  0  0  0
   -0.4660   26.7810  -23.9520 C   0  0  0  0  0  0  0  0  0  0  0  0
   -1.2640   27.0740  -25.0590 C   0  0  0  0  0  0  0  0  0  0  0  0
   -1.5230   26.1010  -25.9720 N   0  0  0  0  0  0  0  0  0  0  0  0
   -6.3428   23.1471  -31.1310 H   0  0  0  0  0  0  0  0  0  0  0  0
   -6.3028   24.4532  -32.3636 H   0  0  0  0  0  0  0  0  0  0  0  0
   -5.0365   23.1792  -32.3636 H   0  0  0  0  0  0  0  0  0  0  0  0
   -5.6313   25.5955  -29.1242 H   0  0  0  0  0  0  0  0  0  0  0  0
   -5.3272   26.6586  -30.5399 H   0  0  0  0  0  0  0  0  0  0  0  0
   -6.7358   25.5438  -30.5399 H   0  0  0  0  0  0  0  0  0  0  0  0
   -4.9717   23.5981  -28.9874 H   0  0  0  0  0  0  0  0  0  0  0  0
   -3.8889   22.8550  -30.2386 H   0  0  0  0  0  0  0  0  0  0  0  0
   -2.0990   24.0483  -29.5811 H   0  0  0  0  0  0  0  0  0  0  0  0
   -3.1008   25.5642  -29.3815 H   0  0  0  0  0  0  0  0  0  0  0  0
   -3.0168   25.3668  -27.1828 H   0  0  0  0  0  0  0  0  0  0  0  0
   -3.7719   23.7129  -27.3106 H   0  0  0  0  0  0  0  0  0  0  0  0
    0.1862   23.5412  -24.5758 H   0  0  0  0  0  0  0  0  0  0  0  0
    0.6310   25.3080  -22.9690 H   0  0  0  0  0  0  0  0  0  0  0  0
   -0.2454   27.5598  -23.2071 H   0  0  0  0  0  0  0  0  0  0  0  0
   -1.6798   28.0838  -25.1914 H   0  0  0  0  0  0  0  0  0  0  0  0
  1  2  1  0
  2  3  1  0
  2  4  1  0
  4  5  1  0
  5  6  1  0
  6  7  1  0
  7  8  1  0
  8  9  2  0
  9 10  1  0
 10 11  2  0
 11 12  1  0
 12 13  2  0
 13  8  1  0
  1 14  1  0
  1 15  1  0
  1 16  1  0
  3 17  1  0
  3 18  1  0
  3 19  1  0
  4 20  1  0
  4 21  1  0
  5 22  1  0
  5 23  1  0
  6 24  1  0
  6 25  1  0
  9 26  1  0
 10 27  1  0
 11 28  1  0
 12 29  1  0
M  CHG  1  10   1
M  END
>  <UniqueID>  (27) 
24

>  <SMILES>  (27) 
CN(C)CCCSc1c[nH+]ccn1

>  <Energy>  (27) 
21.982075604715263

>  <Genealogy>  (27) 
CN(C)CCCSc1c[nH+]ccn1 (protonated)
CN(C)CCCSc1c[nH+]ccn1 (3D coordinates assigned)
CN(C)CCCSc1c[nH+]ccn1 (optimized conformer: 21.982075604715263 kcal/mol)

>  <smiles>  (27) 
CN(C)CCCSc1cnccn1

>  <score_type>  (27) 
oracle

>  <origin>  (27) 
adg

>  <m_score__min__energy>  (27) 
-5.2599999999999998

>  <m_primary>  (27) 
energy

$$$$
27:0
     RDKit          3D

 38 40  0  0  0  0  0  0  0  0999 V2000
   -0.5590   22.9762  -27.9293 H   0  0  0  0  0  0  0  0  0  0  0  0
   -1.3500   23.3280  -28.6080 C   0  0  0  0  0  0  0  0  0  0  0  0
   -1.9180   22.4760  -29.4940 N   0  0  0  0  0  0  0  0  0  0  0  0
   -2.9050   22.8650  -30.3440 C   0  0  0  0  0  0  0  0  0  0  0  0
   -3.4250   21.8360  -31.2570 C   0  0  0  0  0  0  0  0  0  0  0  0
   -2.9940   21.7970  -32.5920 C   0  0  0  0  0  0  0  0  0  0  0  0
   -2.2382   22.5133  -32.9464 H   0  0  0  0  0  0  0  0  0  0  0  0
   -3.5240   20.8490  -33.4720 C   0  0  0  0  0  0  0  0  0  0  0  0
   -3.1709   20.8076  -34.5130 H   0  0  0  0  0  0  0  0  0  0  0  0
   -4.5030   19.9530  -33.0300 C   0  0  0  0  0  0  0  0  0  0  0  0
   -4.9152   19.2039  -33.7220 H   0  0  0  0  0  0  0  0  0  0  0  0
   -4.9580   20.0090  -31.7090 C   0  0  0  0  0  0  0  0  0  0  0  0
   -5.7323   19.3080  -31.3641 H   0  0  0  0  0  0  0  0  0  0  0  0
   -4.4290   20.9560  -30.8260 C   0  0  0  0  0  0  0  0  0  0  0  0
   -4.8007   21.0109  -29.7922 H   0  0  0  0  0  0  0  0  0  0  0  0
   -3.3640   24.2160  -30.2940 C   0  0  0  0  0  0  0  0  0  0  0  0
   -4.3120   24.7110  -31.0470 N   0  0  0  0  0  0  0  0  0  0  0  0
   -5.7160   24.9800  -30.7510 C   0  0  0  0  0  0  0  0  0  0  0  0
   -5.8217   25.2689  -29.6949 H   0  0  0  0  0  0  0  0  0  0  0  0
   -6.0799   25.8002  -31.3872 H   0  0  0  0  0  0  0  0  0  0  0  0
   -6.5170   23.7380  -31.0160 C   0  0  0  0  0  0  0  0  0  0  0  0
   -6.6040   23.2160  -32.3180 C   0  0  0  0  0  0  0  0  0  0  0  0
   -6.0597   23.7019  -33.1412 H   0  0  0  0  0  0  0  0  0  0  0  0
   -7.3810   22.0800  -32.5700 C   0  0  0  0  0  0  0  0  0  0  0  0
   -7.4394   21.6696  -33.5889 H   0  0  0  0  0  0  0  0  0  0  0  0
   -8.0830   21.4660  -31.5290 C   0  0  0  0  0  0  0  0  0  0  0  0
   -8.6907   20.5711  -31.7285 H   0  0  0  0  0  0  0  0  0  0  0  0
   -8.0130   21.9890  -30.2340 C   0  0  0  0  0  0  0  0  0  0  0  0
   -8.5675   21.5062  -29.4158 H   0  0  0  0  0  0  0  0  0  0  0  0
   -7.2390   23.1250  -29.9780 C   0  0  0  0  0  0  0  0  0  0  0  0
   -7.1951   23.5403  -28.9604 H   0  0  0  0  0  0  0  0  0  0  0  0
   -2.7770   25.0590  -29.3920 N   0  0  0  0  0  0  0  0  0  0  0  0
   -3.1080   26.0500  -29.3360 H   0  0  0  0  0  0  0  0  0  0  0  0
   -1.7760   24.6550  -28.5630 C   0  0  0  0  0  0  0  0  0  0  0  0
   -1.1870   25.6060  -27.5620 C   0  0  0  0  0  0  0  0  0  0  0  0
   -1.4073   25.2504  -26.5447 H   0  0  0  0  0  0  0  0  0  0  0  0
   -0.0975   25.6594  -27.7039 H   0  0  0  0  0  0  0  0  0  0  0  0
   -1.6246   26.6052  -27.7039 H   0  0  0  0  0  0  0  0  0  0  0  0
  1  2  1  0
  2  3  1  0
  3  4  2  0
  4  5  1  0
  5  6  2  0
  6  7  1  0
  6  8  1  0
  8  9  1  0
  8 10  2  0
 10 11  1  0
 10 12  1  0
 12 13  1  0
 12 14  2  0
 14 15  1  0
  4 16  1  0
 16 17  2  0
 17 18  1  0
 18 19  1  0
 18 20  1  0
 18 21  1  0
 21 22  2  0
 22 23  1  0
 22 24  1  0
 24 25  1  0
 24 26  2  0
 26 27  1  0
 26 28  1  0
 28 29  1  0
 28 30  2  0
 30 31  1  0
 16 32  1  0
 32 33  1  0
 32 34  1  0
 34 35  1  0
 35 36  1  0
 35 37  1  0
 35 38  1  0
 34  2  2  0
 14  5  1  0
 30 21  1  0
M  END
>  <UniqueID>  (28) 
25

>  <SMILES>  (28) 
Cc1cnc(-c2ccccc2)/c(=N\Cc2ccccc2)[nH]1

>  <Energy>  (28) 
55.38098206244496

>  <Genealogy>  (28) 
Cc1cnc(-c2ccccc2)/c(=N\Cc2ccccc2)[nH]1 (cis-trans isomerization)
Cc1cnc(-c2ccccc2)/c(=N\Cc2ccccc2)[nH]1 (3D coordinates assigned)
Cc1cnc(-c2ccccc2)/c(=N\Cc2ccccc2)[nH]1 (optimized conformer: 55.38098206244496 kcal/mol)

>  <smiles>  (28) 
Cc1cnc(-c2ccccc2)c(=NCc2ccccc2)[nH]1

>  <score_type>  (28) 
oracle

>  <origin>  (28) 
adg

>  <m_score__min__energy>  (28) 
-7.6299999999999999

>  <m_primary>  (28) 
energy

$$$$
28:0
     RDKit          3D

 32 34  0  0  0  0  0  0  0  0999 V2000
   -1.8220   25.6730  -28.9700 O   0  0  0  0  0  0  0  0  0  0  0  0
   -2.7110   24.8900  -29.3950 C   0  0  0  0  0  0  0  0  0  0  0  0
   -3.5110   25.2760  -30.4630 O   0  0  0  0  0  0  0  0  0  0  0  0
   -2.9300   23.5600  -28.7290 C   0  0  0  0  0  0  0  0  0  0  0  0
   -2.2550   22.3900  -29.5030 C   0  0  1  0  0  0  0  0  0  0  0  0
   -1.9300   21.1150  -28.7140 C   0  0  0  0  0  0  0  0  0  0  0  0
   -2.4200   20.9600  -27.3940 C   0  0  0  0  0  0  0  0  0  0  0  0
   -2.0600   19.8700  -26.6060 C   0  0  0  0  0  0  0  0  0  0  0  0
   -1.2160   18.8930  -27.1110 C   0  0  0  0  0  0  0  0  0  0  0  0
   -0.7560   18.9820  -28.4200 C   0  0  0  0  0  0  0  0  0  0  0  0
   -1.0960   20.0690  -29.2520 C   0  0  0  0  0  0  0  0  0  0  0  0
   -0.6890   19.8840  -30.7170 C   0  0  0  0  0  0  0  0  0  0  0  0
   -0.5080   21.3690  -31.7640 S   0  0  0  0  0  0  0  0  0  0  0  0
   -2.2840   21.5810  -31.8880 C   0  0  0  0  0  0  0  0  0  0  0  0
   -2.9460   21.1910  -33.0570 C   0  0  0  0  0  0  0  0  0  0  0  0
   -4.3390   21.2440  -33.1230 C   0  0  0  0  0  0  0  0  0  0  0  0
   -5.0750   21.6600  -32.0120 C   0  0  0  0  0  0  0  0  0  0  0  0
   -4.4190   22.0400  -30.8380 C   0  0  0  0  0  0  0  0  0  0  0  0
   -3.0100   22.0380  -30.7730 C   0  0  0  0  0  0  0  0  0  0  0  0
   -2.5100   23.6003  -27.7132 H   0  0  0  0  0  0  0  0  0  0  0  0
   -4.0131   23.3688  -28.7102 H   0  0  0  0  0  0  0  0  0  0  0  0
   -1.2699   22.8165  -29.7432 H   0  0  0  0  0  0  0  0  0  0  0  0
   -3.1012   21.7189  -26.9816 H   0  0  0  0  0  0  0  0  0  0  0  0
   -2.4464   19.7838  -25.5797 H   0  0  0  0  0  0  0  0  0  0  0  0
   -0.9105   18.0480  -26.4765 H   0  0  0  0  0  0  0  0  0  0  0  0
   -0.1106   18.1845  -28.8168 H   0  0  0  0  0  0  0  0  0  0  0  0
    0.2798   19.3630  -30.7218 H   0  0  0  0  0  0  0  0  0  0  0  0
   -1.5334   19.3396  -31.1648 H   0  0  0  0  0  0  0  0  0  0  0  0
   -2.3678   20.8421  -33.9253 H   0  0  0  0  0  0  0  0  0  0  0  0
   -4.8570   20.9580  -34.0503 H   0  0  0  0  0  0  0  0  0  0  0  0
   -6.1735   21.6887  -32.0608 H   0  0  0  0  0  0  0  0  0  0  0  0
   -5.0057   22.3429  -29.9582 H   0  0  0  0  0  0  0  0  0  0  0  0
  1  2  2  0
  2  3  1  0
  2  4  1  0
  4  5  1  0
  5  6  1  0
  6  7  2  0
  7  8  1  0
  8  9  2  0
  9 10  1  0
 10 11  2  0
 11 12  1  0
 12 13  1  0
 13 14  1  0
 14 15  2  0
 15 16  1  0
 16 17  2  0
 17 18  1  0
 18 19  2  0
 19  5  1  0
 11  6  1  0
 19 14  1  0
  4 20  1  0
  4 21  1  0
  5 22  1  6
  7 23  1  0
  8 24  1  0
  9 25  1  0
 10 26  1  0
 12 27  1  0
 12 28  1  0
 15 29  1  0
 16 30  1  0
 17 31  1  0
 18 32  1  0
M  CHG  1   3  -1
M  END
>  <UniqueID>  (29) 
26

>  <SMILES>  (29) 
O=C([O-])C[C@H]1c2ccccc2CSc2ccccc21

>  <Energy>  (29) 
53.3869778419002

>  <Genealogy>  (29) 
O=C([O-])CC1c2ccccc2CSc2ccccc21 (protonated)
O=C([O-])C[C@H]1c2ccccc2CSc2ccccc21 (chirality)
O=C([O-])C[C@H]1c2ccccc2CSc2ccccc21 (3D coordinates assigned)
O=C([O-])C[C@H]1c2ccccc2CSc2ccccc21 (nonaromatic ring conformer: 53.3869778419002 kcal/mol)

>  <smiles>  (29) 
O=C(O)CC1c2ccccc2CSc2ccccc21

>  <score_type>  (29) 
oracle

>  <origin>  (29) 
adg

>  <m_score__min__energy>  (29) 
-9.6799999999999997

>  <m_primary>  (29) 
energy

$$$$
29:0
     RDKit          3D

 55 57  0  0  0  0  0  0  0  0999 V2000
   -2.7320   19.2880  -26.5240 C   0  0  0  0  0  0  0  0  0  0  0  0
   -1.2780   19.7130  -26.7290 C   0  0  0  0  0  0  0  0  0  0  0  0
   -1.1050   21.2430  -26.7380 C   0  0  0  0  0  0  0  0  0  0  0  0
   -0.5830   21.7990  -28.0780 C   0  0  0  0  0  0  0  0  0  0  0  0
   -1.5400   22.7360  -28.7080 N   0  0  0  0  0  0  0  0  0  0  0  0
   -2.7160   22.2820  -29.2760 C   0  0  0  0  0  0  0  0  0  0  0  0
   -3.0870   20.8910  -29.2340 N   0  0  0  0  0  0  0  0  0  0  0  0
   -3.5870   23.1970  -29.9040 C   0  0  0  0  0  0  0  0  0  0  0  0
   -4.8230   22.7550  -30.4940 N   0  0  0  0  0  0  0  0  0  0  0  0
   -6.0960   23.1430  -29.8650 C   0  0  0  0  0  0  0  0  0  0  0  0
   -7.2670   22.6610  -30.6820 C   0  0  0  0  0  0  0  0  0  0  0  0
   -7.7230   21.3390  -30.5600 C   0  0  0  0  0  0  0  0  0  0  0  0
   -8.8470   20.9110  -31.2760 C   0  0  0  0  0  0  0  0  0  0  0  0
   -9.5250   21.8020  -32.1120 C   0  0  0  0  0  0  0  0  0  0  0  0
   -9.0810   23.1210  -32.2350 C   0  0  0  0  0  0  0  0  0  0  0  0
   -7.9570   23.5520  -31.5230 C   0  0  0  0  0  0  0  0  0  0  0  0
   -4.7890   22.2460  -31.8420 C   0  0  0  0  0  0  0  0  0  0  0  0
   -4.6360   23.0480  -32.8030 O   0  0  0  0  0  0  0  0  0  0  0  0
   -4.8880   20.8000  -32.1220 C   0  0  0  0  0  0  0  0  0  0  0  0
   -4.4460   19.9720  -31.2810 O   0  0  0  0  0  0  0  0  0  0  0  0
   -5.4200   20.3380  -33.3760 N   0  0  0  0  0  0  0  0  0  0  0  0
   -5.7800   18.9700  -33.6400 C   0  0  0  0  0  0  0  0  0  0  0  0
   -6.7960   18.3640  -32.8900 C   0  0  0  0  0  0  0  0  0  0  0  0
   -7.1390   17.0310  -33.1230 C   0  0  0  0  0  0  0  0  0  0  0  0
   -6.4490   16.3070  -34.0970 C   0  0  0  0  0  0  0  0  0  0  0  0
   -5.4480   16.8990  -34.8020 N   0  0  0  0  0  0  0  0  0  0  0  0
   -5.0970   18.1970  -34.5960 C   0  0  0  0  0  0  0  0  0  0  0  0
   -3.2390   24.5490  -29.9240 C   0  0  0  0  0  0  0  0  0  0  0  0
   -3.9870   25.3960  -30.4800 O   0  0  0  0  0  0  0  0  0  0  0  0
   -2.0880   24.9550  -29.3460 N   0  0  0  0  0  0  0  0  0  0  0  0
   -1.2450   24.0800  -28.7450 C   0  0  0  0  0  0  0  0  0  0  0  0
   -0.1840   24.5270  -28.2310 O   0  0  0  0  0  0  0  0  0  0  0  0
   -2.9473   19.2251  -25.4471 H   0  0  0  0  0  0  0  0  0  0  0  0
   -3.3995   20.0286  -26.9887 H   0  0  0  0  0  0  0  0  0  0  0  0
   -2.8955   18.3045  -26.9887 H   0  0  0  0  0  0  0  0  0  0  0  0
   -0.6701   19.2943  -25.9135 H   0  0  0  0  0  0  0  0  0  0  0  0
   -0.9551   19.3350  -27.7103 H   0  0  0  0  0  0  0  0  0  0  0  0
   -2.0811   21.7043  -26.5271 H   0  0  0  0  0  0  0  0  0  0  0  0
   -0.3524   21.4863  -25.9736 H   0  0  0  0  0  0  0  0  0  0  0  0
    0.3636   22.3290  -27.8964 H   0  0  0  0  0  0  0  0  0  0  0  0
   -0.4428   20.9499  -28.7630 H   0  0  0  0  0  0  0  0  0  0  0  0
   -3.7110   20.4850  -28.5080 H   0  0  0  0  0  0  0  0  0  0  0  0
   -2.7590   20.2200  -29.9630 H   0  0  0  0  0  0  0  0  0  0  0  0
   -6.1511   22.6997  -28.8598 H   0  0  0  0  0  0  0  0  0  0  0  0
   -6.1379   24.2405  -29.8031 H   0  0  0  0  0  0  0  0  0  0  0  0
   -7.1947   20.6363  -29.8988 H   0  0  0  0  0  0  0  0  0  0  0  0
   -9.1968   19.8725  -31.1805 H   0  0  0  0  0  0  0  0  0  0  0  0
  -10.4087   21.4648  -32.6735 H   0  0  0  0  0  0  0  0  0  0  0  0
   -9.6163   23.8215  -32.8928 H   0  0  0  0  0  0  0  0  0  0  0  0
   -7.6115   24.5917  -31.6213 H   0  0  0  0  0  0  0  0  0  0  0  0
   -5.4780   21.0160  -34.1690 H   0  0  0  0  0  0  0  0  0  0  0  0
   -7.3246   18.9396  -32.1159 H   0  0  0  0  0  0  0  0  0  0  0  0
   -7.9451   16.5557  -32.5448 H   0  0  0  0  0  0  0  0  0  0  0  0
   -6.7149   15.2580  -34.2942 H   0  0  0  0  0  0  0  0  0  0  0  0
   -4.2773   18.6430  -35.1784 H   0  0  0  0  0  0  0  0  0  0  0  0
  1  2  1  0
  2  3  1  0
  3  4  1  0
  4  5  1  0
  5  6  1  0
  6  7  1  0
  6  8  2  0
  8  9  1  0
  9 10  1  0
 10 11  1  0
 11 12  2  0
 12 13  1  0
 13 14  2  0
 14 15  1  0
 15 16  2  0
  9 17  1  0
 17 18  2  0
 17 19  1  0
 19 20  2  0
 19 21  1  0
 21 22  1  0
 22 23  2  0
 23 24  1  0
 24 25  2  0
 25 26  1  0
 26 27  2  0
  8 28  1  0
 28 29  2  0
 28 30  1  0
 30 31  1  0
 31 32  2  0
 31  5  1  0
 16 11  1  0
 27 22  1  0
  1 33  1  0
  1 34  1  0
  1 35  1  0
  2 36  1  0
  2 37  1  0
  3 38  1  0
  3 39  1  0
  4 40  1  0
  4 41  1  0
  7 42  1  0
  7 43  1  0
 10 44  1  0
 10 45  1  0
 12 46  1  0
 13 47  1  0
 14 48  1  0
 15 49  1  0
 16 50  1  0
 21 51  1  0
 23 52  1  0
 24 53  1  0
 25 54  1  0
 27 55  1  0
M  CHG  1  30  -1
M  END
>  <UniqueID>  (30) 
27

>  <SMILES>  (30) 
CCCCn1c(N)c(N(Cc2ccccc2)C(=O)C(=O)Nc2cccnc2)c(=O)[n-]c1=O

>  <Energy>  (30) 
72.06583914406187

>  <Genealogy>  (30) 
CCCCn1c(N)c(N(Cc2ccccc2)C(=O)C(=O)Nc2cccnc2)c(=O)[n-]c1=O (protonated)
CCCCn1c(N)c(N(Cc2ccccc2)C(=O)C(=O)Nc2cccnc2)c(=O)[n-]c1=O (3D coordinates assigned)
CCCCn1c(N)c(N(Cc2ccccc2)C(=O)C(=O)Nc2cccnc2)c(=O)[n-]c1=O (optimized conformer: 72.06583914406187 kcal/mol)

>  <smiles>  (30) 
CCCCn1c(N)c(N(Cc2ccccc2)C(=O)C(=O)Nc2cccnc2)c(=O)[nH]c1=O

>  <score_type>  (30) 
oracle

>  <origin>  (30) 
adg

>  <m_score__min__energy>  (30) 
-9.9399999999999995

>  <m_primary>  (30) 
energy

$$$$
30:0
     RDKit          3D

 43 45  0  0  1  0  0  0  0  0999 V2000
   -1.9620   22.2510  -28.2660 C   0  0  0  0  0  0  0  0  0  0  0  0
   -0.9420   21.9880  -29.3530 C   0  0  0  0  0  0  0  0  0  0  0  0
   -1.5070   21.2330  -30.4490 N   0  0  0  0  0  0  0  0  0  0  0  0
   -1.0780   20.0530  -30.9500 C   0  0  0  0  0  0  0  0  0  0  0  0
   -1.8960   19.7210  -31.9580 N   0  0  0  0  0  0  0  0  0  0  0  0
   -2.8080   20.6630  -32.0840 C   0  0  0  0  0  0  0  0  0  0  0  0
   -3.8600   20.7940  -32.9550 C   0  0  0  0  0  0  0  0  0  0  0  0
   -4.0560   19.8950  -33.8170 N   0  0  0  0  0  0  0  0  0  0  0  0
   -4.8530   18.7250  -33.7610 C   0  0  0  0  0  0  0  0  0  0  0  0
   -6.1820   18.9680  -33.0950 C   0  0  0  0  0  0  0  0  0  0  0  0
   -6.6800   18.1060  -32.1280 C   0  0  0  0  0  0  0  0  0  0  0  0
   -7.8930   18.3060  -31.5020 C   0  0  0  0  0  0  0  0  0  0  0  0
   -8.6610   19.4020  -31.8370 C   0  0  0  0  0  0  0  0  0  0  0  0
   -8.1860   20.2540  -32.7820 C   0  0  0  0  0  0  0  0  0  0  0  0
   -6.9720   20.0530  -33.4070 C   0  0  0  0  0  0  0  0  0  0  0  0
   -4.6520   21.8730  -32.8650 N   0  0  0  0  0  0  0  0  0  0  0  0
   -4.4440   22.8320  -31.9430 C   0  0  0  0  0  0  0  0  0  0  0  0
   -5.2490   23.8380  -31.9220 N   0  0  0  0  0  0  0  0  0  0  0  0
   -5.9110   24.2160  -30.7030 C   0  0  0  0  0  0  0  0  0  0  0  0
   -5.1300   25.2980  -29.9630 C   0  0  0  0  0  0  0  0  0  0  0  0
   -3.9040   25.4610  -30.6340 O   0  0  0  0  0  0  0  0  0  0  0  0
   -3.4120   22.7060  -31.0870 N   0  0  0  0  0  0  0  0  0  0  0  0
   -2.6040   21.6430  -31.1500 C   0  0  0  0  0  0  0  0  0  0  0  0
   -1.4879   22.1288  -27.2810 H   0  0  0  0  0  0  0  0  0  0  0  0
   -2.3454   23.2774  -28.3635 H   0  0  0  0  0  0  0  0  0  0  0  0
   -2.7939   21.5380  -28.3635 H   0  0  0  0  0  0  0  0  0  0  0  0
   -0.5742   22.9511  -29.7365 H   0  0  0  0  0  0  0  0  0  0  0  0
   -0.1231   21.3969  -28.9173 H   0  0  0  0  0  0  0  0  0  0  0  0
   -0.2146   19.4713  -30.5948 H   0  0  0  0  0  0  0  0  0  0  0  0
   -5.0314   18.3694  -34.7866 H   0  0  0  0  0  0  0  0  0  0  0  0
   -4.3101   17.9771  -33.1643 H   0  0  0  0  0  0  0  0  0  0  0  0
   -6.0821   17.2259  -31.8488 H   0  0  0  0  0  0  0  0  0  0  0  0
   -8.2459   17.5955  -30.7400 H   0  0  0  0  0  0  0  0  0  0  0  0
   -9.6319   19.5810  -31.3518 H   0  0  0  0  0  0  0  0  0  0  0  0
   -8.7880   21.1323  -33.0581 H   0  0  0  0  0  0  0  0  0  0  0  0
   -6.6294   20.7709  -34.1668 H   0  0  0  0  0  0  0  0  0  0  0  0
   -5.4400   21.9670  -33.5200 H   0  0  0  0  0  0  0  0  0  0  0  0
   -6.9140   24.5984  -30.9432 H   0  0  0  0  0  0  0  0  0  0  0  0
   -5.9784   23.3302  -30.0544 H   0  0  0  0  0  0  0  0  0  0  0  0
   -5.6934   26.2427  -29.9732 H   0  0  0  0  0  0  0  0  0  0  0  0
   -4.9650   25.0111  -28.9140 H   0  0  0  0  0  0  0  0  0  0  0  0
   -4.1310   25.6700  -31.5940 H   0  0  0  0  0  0  0  0  0  0  0  0
   -3.2590   23.4520  -30.3790 H   0  0  0  0  0  0  0  0  0  0  0  0
  1  2  1  0
  2  3  1  0
  3  4  1  0
  4  5  2  0
  5  6  1  0
  6  7  1  0
  7  8  2  0
  8  9  1  0
  9 10  1  0
 10 11  2  0
 11 12  1  0
 12 13  2  0
 13 14  1  0
 14 15  2  0
  7 16  1  0
 16 17  1  0
 17 18  2  0
 18 19  1  0
 19 20  1  0
 20 21  1  0
 17 22  1  0
 22 23  1  0
 23  3  1  0
 23  6  2  0
 15 10  1  0
  1 24  1  0
  1 25  1  0
  1 26  1  0
  2 27  1  0
  2 28  1  0
  4 29  1  0
  9 30  1  0
  9 31  1  0
 11 32  1  0
 12 33  1  0
 13 34  1  0
 14 35  1  0
 15 36  1  0
 16 37  1  0
 19 38  1  0
 19 39  1  0
 20 40  1  0
 20 41  1  0
 21 42  1  0
 22 43  1  0
M  END
>  <smiles>  (31) 
CCn1cnc2c(=NCc3ccccc3)[nH]c(=NCCO)[nH]c21

>  <score_type>  (31) 
oracle

>  <origin>  (31) 
adg

>  <m_score__min__energy>  (31) 
-7.6900000000000004

>  <m_primary>  (31) 
energy

$$$$
31:0
     RDKit          3D

 45 47  0  0  0  0  0  0  0  0999 V2000
   -0.8600   26.7520  -28.1050 C   0  0  0  0  0  0  0  0  0  0  0  0
   -1.3800   25.6940  -28.9030 O   0  0  0  0  0  0  0  0  0  0  0  0
   -1.2740   24.3290  -28.5870 C   0  0  0  0  0  0  0  0  0  0  0  0
   -0.1320   23.8070  -27.9470 C   0  0  0  0  0  0  0  0  0  0  0  0
   -0.0270   22.4400  -27.6860 C   0  0  0  0  0  0  0  0  0  0  0  0
   -1.0540   21.5740  -28.0620 C   0  0  0  0  0  0  0  0  0  0  0  0
   -0.9160   19.8560  -27.7400 Cl  0  0  0  0  0  0  0  0  0  0  0  0
   -2.1950   22.0790  -28.6910 C   0  0  0  0  0  0  0  0  0  0  0  0
   -2.3250   23.4540  -28.9440 C   0  0  0  0  0  0  0  0  0  0  0  0
   -3.5220   23.9380  -29.5790 N   0  0  0  0  0  0  0  0  0  0  0  0
   -4.7770   23.4730  -29.4340 C   0  0  0  0  0  0  0  0  0  0  0  0
   -5.5620   24.2040  -30.3010 C   0  0  0  0  0  0  0  0  0  0  0  0
   -7.0510   24.1290  -30.4720 C   0  0  0  0  0  0  0  0  0  0  0  0
   -7.6020   22.6880  -30.4920 C   0  0  0  0  0  0  0  0  0  0  0  0
   -7.9270   22.1680  -31.8380 N   0  0  0  0  0  0  0  0  0  0  0  0
   -9.2120   21.4510  -31.9780 C   0  0  0  0  0  0  0  0  0  0  0  0
   -9.0720   19.9140  -31.9480 C   0  0  0  0  0  0  0  0  0  0  0  0
   -7.6660   19.4890  -31.8370 N   0  0  0  0  0  0  0  0  0  0  0  0
   -7.5690   18.0260  -31.9510 C   0  0  0  0  0  0  0  0  0  0  0  0
   -6.8700   20.1380  -32.8870 C   0  0  0  0  0  0  0  0  0  0  0  0
   -6.7900   21.6500  -32.6300 C   0  0  0  0  0  0  0  0  0  0  0  0
   -4.7760   25.1040  -30.9250 N   0  0  0  0  0  0  0  0  0  0  0  0
   -3.5440   24.9090  -30.4800 N   0  0  0  0  0  0  0  0  0  0  0  0
   -0.9825   26.5028  -27.0406 H   0  0  0  0  0  0  0  0  0  0  0  0
    0.2082   26.8892  -28.3289 H   0  0  0  0  0  0  0  0  0  0  0  0
   -1.4039   27.6815  -28.3289 H   0  0  0  0  0  0  0  0  0  0  0  0
    0.6837   24.4829  -27.6506 H   0  0  0  0  0  0  0  0  0  0  0  0
    0.8676   22.0446  -27.1827 H   0  0  0  0  0  0  0  0  0  0  0  0
   -3.0000   21.3920  -28.9912 H   0  0  0  0  0  0  0  0  0  0  0  0
   -5.1098   22.6706  -28.7591 H   0  0  0  0  0  0  0  0  0  0  0  0
   -7.5238   24.6699  -29.6390 H   0  0  0  0  0  0  0  0  0  0  0  0
   -7.2849   24.5758  -31.4496 H   0  0  0  0  0  0  0  0  0  0  0  0
   -6.8469   22.0264  -30.0425 H   0  0  0  0  0  0  0  0  0  0  0  0
   -8.5481   22.7099  -29.9312 H   0  0  0  0  0  0  0  0  0  0  0  0
   -9.8714   21.7557  -31.1520 H   0  0  0  0  0  0  0  0  0  0  0  0
   -9.6226   21.7170  -32.9632 H   0  0  0  0  0  0  0  0  0  0  0  0
   -9.6301   19.5236  -31.0842 H   0  0  0  0  0  0  0  0  0  0  0  0
   -9.4725   19.5183  -32.8930 H   0  0  0  0  0  0  0  0  0  0  0  0
   -7.5395   17.5810  -30.9455 H   0  0  0  0  0  0  0  0  0  0  0  0
   -8.4437   17.6419  -32.4964 H   0  0  0  0  0  0  0  0  0  0  0  0
   -6.6513   17.7608  -32.4964 H   0  0  0  0  0  0  0  0  0  0  0  0
   -5.8546   19.7149  -32.8877 H   0  0  0  0  0  0  0  0  0  0  0  0
   -7.3490   19.9633  -33.8617 H   0  0  0  0  0  0  0  0  0  0  0  0
   -5.8586   21.8631  -32.0850 H   0  0  0  0  0  0  0  0  0  0  0  0
   -6.8196   22.1498  -33.6094 H   0  0  0  0  0  0  0  0  0  0  0  0
  1  2  1  0
  2  3  1  0
  3  4  2  0
  4  5  1  0
  5  6  2  0
  6  7  1  0
  6  8  1  0
  8  9  2  0
  9 10  1  0
 10 11  1  0
 11 12  2  0
 12 13  1  0
 13 14  1  0
 14 15  1  0
 15 16  1  0
 16 17  1  0
 17 18  1  0
 18 19  1  0
 18 20  1  0
 20 21  1  0
 12 22  1  0
 22 23  2  0
  9  3  1  0
 23 10  1  0
 21 15  1  0
  1 24  1  0
  1 25  1  0
  1 26  1  0
  4 27  1  0
  5 28  1  0
  8 29  1  0
 11 30  1  0
 13 31  1  0
 13 32  1  0
 14 33  1  0
 14 34  1  0
 16 35  1  0
 16 36  1  0
 17 37  1  0
 17 38  1  0
 19 39  1  0
 19 40  1  0
 19 41  1  0
 20 42  1  0
 20 43  1  0
 21 44  1  0
 21 45  1  0
M  END
>  <UniqueID>  (32) 
28

>  <SMILES>  (32) 
COc1ccc(Cl)cc1-n1cc(CCN2CCN(C)CC2)nn1

>  <Energy>  (32) 
98.42311370580676

>  <Genealogy>  (32) 
COc1ccc(Cl)cc1-n1cc(CCN2CCN(C)CC2)nn1 (3D coordinates assigned)
COc1ccc(Cl)cc1-n1cc(CCN2CCN(C)CC2)nn1 (nonaromatic ring conformer: 98.42311370580676 kcal/mol)

>  <smiles>  (32) 
COc1ccc(Cl)cc1-n1cc(CCN2CCN(C)CC2)nn1

>  <score_type>  (32) 
oracle

>  <origin>  (32) 
adg

>  <m_score__min__energy>  (32) 
-9.2699999999999996

>  <m_primary>  (32) 
energy

$$$$
32:0
     RDKit          3D

 55 58  0  0  0  0  0  0  0  0999 V2000
   -6.1190   24.5440  -28.5960 H   0  0  0  0  0  0  0  0  0  0  0  0
   -5.8510   24.3100  -29.5770 N   0  0  0  0  0  0  0  0  0  0  0  0
   -5.2070   23.2320  -29.9200 C   0  0  0  0  0  0  0  0  0  0  0  0
   -3.8670   22.9730  -29.4490 N   0  0  0  0  0  0  0  0  0  0  0  0
   -3.2340   23.8930  -28.5440 C   0  0  0  0  0  0  0  0  0  0  0  0
   -2.0480   24.5410  -28.9160 C   0  0  0  0  0  0  0  0  0  0  0  0
   -1.6075   24.3547  -29.9066 H   0  0  0  0  0  0  0  0  0  0  0  0
   -1.4250   25.4230  -28.0300 C   0  0  0  0  0  0  0  0  0  0  0  0
   -0.4937   25.9272  -28.3275 H   0  0  0  0  0  0  0  0  0  0  0  0
   -1.9750   25.6710  -26.7670 C   0  0  0  0  0  0  0  0  0  0  0  0
   -1.3110   26.5660  -25.9140 O   0  0  0  0  0  0  0  0  0  0  0  0
   -1.1790   26.3880  -24.5070 C   0  0  0  0  0  0  0  0  0  0  0  0
   -1.7553   27.1651  -23.9834 H   0  0  0  0  0  0  0  0  0  0  0  0
   -1.5613   25.3957  -24.2255 H   0  0  0  0  0  0  0  0  0  0  0  0
   -0.1185   26.4657  -24.2255 H   0  0  0  0  0  0  0  0  0  0  0  0
   -3.1670   25.0190  -26.3950 C   0  0  0  0  0  0  0  0  0  0  0  0
   -3.6089   25.2063  -25.4053 H   0  0  0  0  0  0  0  0  0  0  0  0
   -3.7900   24.1340  -27.2810 C   0  0  0  0  0  0  0  0  0  0  0  0
   -4.7195   23.6256  -26.9851 H   0  0  0  0  0  0  0  0  0  0  0  0
   -3.1290   21.8280  -29.9500 C   0  0  0  0  0  0  0  0  0  0  0  0
   -3.5680   21.1460  -31.0420 C   0  0  0  0  0  0  0  0  0  0  0  0
   -2.6480   20.1720  -31.7040 C   0  0  0  0  0  0  0  0  0  0  0  0
   -2.8740   19.7710  -32.8780 O   0  0  0  0  0  0  0  0  0  0  0  0
   -1.4280   19.6610  -30.9990 C   0  0  0  0  0  0  0  0  0  0  0  0
   -0.6868   19.3439  -31.7474 H   0  0  0  0  0  0  0  0  0  0  0  0
   -1.7213   18.8131  -30.3625 H   0  0  0  0  0  0  0  0  0  0  0  0
   -0.8060   20.7530  -30.1050 C   0  0  0  0  0  0  0  0  0  0  0  0
   -0.1840   21.8790  -30.9650 C   0  0  0  0  0  0  0  0  0  0  0  0
    0.2421   22.6504  -30.3066 H   0  0  0  0  0  0  0  0  0  0  0  0
    0.6102   21.4593  -31.5999 H   0  0  0  0  0  0  0  0  0  0  0  0
   -0.9621   22.3278  -31.5999 H   0  0  0  0  0  0  0  0  0  0  0  0
    0.3050   20.1240  -29.2400 C   0  0  0  0  0  0  0  0  0  0  0  0
    0.0629   20.2610  -28.1758 H   0  0  0  0  0  0  0  0  0  0  0  0
    0.3798   19.0496  -29.4636 H   0  0  0  0  0  0  0  0  0  0  0  0
    1.2648   20.6127  -29.4636 H   0  0  0  0  0  0  0  0  0  0  0  0
   -1.9080   21.3250  -29.1850 C   0  0  0  0  0  0  0  0  0  0  0  0
   -1.4848   22.1632  -28.6120 H   0  0  0  0  0  0  0  0  0  0  0  0
   -2.2458   20.5068  -28.5320 H   0  0  0  0  0  0  0  0  0  0  0  0
   -4.8900   21.5230  -31.7190 C   0  0  1  0  0  0  0  0  0  0  0  0
   -4.6230   22.2590  -32.4917 H   0  0  0  0  0  0  0  0  0  0  0  0
   -5.5550   20.3190  -32.3750 C   0  0  0  0  0  0  0  0  0  0  0  0
   -6.2270   19.3670  -31.5860 C   0  0  0  0  0  0  0  0  0  0  0  0
   -6.2830   19.5013  -30.4957 H   0  0  0  0  0  0  0  0  0  0  0  0
   -6.8240   18.2510  -32.1810 C   0  0  0  0  0  0  0  0  0  0  0  0
   -7.3529   17.5143  -31.5585 H   0  0  0  0  0  0  0  0  0  0  0  0
   -6.7500   18.0700  -33.5640 C   0  0  0  0  0  0  0  0  0  0  0  0
   -7.2210   17.1917  -34.0296 H   0  0  0  0  0  0  0  0  0  0  0  0
   -6.0780   19.0040  -34.3560 C   0  0  0  0  0  0  0  0  0  0  0  0
   -6.0202   18.8602  -35.4450 H   0  0  0  0  0  0  0  0  0  0  0  0
   -5.4790   20.1210  -33.7670 C   0  0  0  0  0  0  0  0  0  0  0  0
   -4.9451   20.8497  -34.3946 H   0  0  0  0  0  0  0  0  0  0  0  0
   -5.8940   22.1770  -30.7400 C   0  0  2  0  0  0  0  0  0  0  0  0
   -6.2769   21.4109  -30.0497 H   0  0  0  0  0  0  0  0  0  0  0  0
   -7.0460   22.7310  -31.4830 C   0  0  0  0  0  0  0  0  0  0  0  0
   -7.9460   23.1660  -32.0670 N   0  0  0  0  0  0  0  0  0  0  0  0
  1  2  1  0
  2  3  2  0
  3  4  1  0
  4  5  1  0
  5  6  2  0
  6  7  1  0
  6  8  1  0
  8  9  1  0
  8 10  2  0
 10 11  1  0
 11 12  1  0
 12 13  1  0
 12 14  1  0
 12 15  1  0
 10 16  1  0
 16 17  1  0
 16 18  2  0
 18 19  1  0
  4 20  1  0
 20 21  2  0
 21 22  1  0
 22 23  2  0
 22 24  1  0
 24 25  1  0
 24 26  1  0
 24 27  1  0
 27 28  1  0
 28 29  1  0
 28 30  1  0
 28 31  1  0
 27 32  1  0
 32 33  1  0
 32 34  1  0
 32 35  1  0
 27 36  1  0
 36 37  1  0
 36 38  1  0
 21 39  1  0
 39 40  1  6
 39 41  1  0
 41 42  2  0
 42 43  1  0
 42 44  1  0
 44 45  1  0
 44 46  2  0
 46 47  1  0
 46 48  1  0
 48 49  1  0
 48 50  2  0
 50 51  1  0
 39 52  1  0
 52 53  1  1
 52 54  1  0
 54 55  3  0
 52  3  1  0
 18  5  1  0
 36 20  1  0
 50 41  1  0
M  END
>  <UniqueID>  (33) 
29

>  <SMILES>  (33) 
[H]/N=C1/[C@@H](C#N)[C@H](c2ccccc2)C2=C(CC(C)(C)CC2=O)N1c1ccc(OC)cc1

>  <Energy>  (33) 
71.48975635755221

>  <Genealogy>  (33) 
COc1ccc(N2C(=N)[C@@H](C#N)[C@H](c3ccccc3)C3=C2CC(C)(C)CC3=O)cc1 (chirality)
[H]/N=C1/[C@@H](C#N)[C@H](c2ccccc2)C2=C(CC(C)(C)CC2=O)N1c1ccc(OC)cc1 (cis-trans isomerization)
[H]/N=C1/[C@@H](C#N)[C@H](c2ccccc2)C2=C(CC(C)(C)CC2=O)N1c1ccc(OC)cc1 (3D coordinates assigned)
[H]/N=C1/[C@@H](C#N)[C@H](c2ccccc2)C2=C(CC(C)(C)CC2=O)N1c1ccc(OC)cc1 (nonaromatic ring conformer: 71.48975635755221 kcal/mol)

>  <smiles>  (33) 
COc1ccc(N2C(=N)C(C#N)C(c3ccccc3)C3=C2CC(C)(C)CC3=O)cc1

>  <score_type>  (33) 
oracle

>  <origin>  (33) 
adg

>  <m_score__min__energy>  (33) 
-8.3399999999999999

>  <m_primary>  (33) 
energy

$$$$
33:0
     RDKit          3D

 33 34  0  0  0  0  0  0  0  0999 V2000
   -0.7790   22.8380  -27.4120 H   0  0  0  0  0  0  0  0  0  0  0  0
   -0.8560   22.5350  -28.3770 O   0  0  0  0  0  0  0  0  0  0  0  0
   -1.9980   22.7950  -29.1310 C   0  0  0  0  0  0  0  0  0  0  0  0
   -2.7670   21.7300  -29.6060 C   0  0  0  0  0  0  0  0  0  0  0  0
   -2.4640   20.6959  -29.3850 H   0  0  0  0  0  0  0  0  0  0  0  0
   -3.9200   21.9700  -30.3610 C   0  0  0  0  0  0  0  0  0  0  0  0
   -4.6710   20.8910  -30.8150 O   0  0  0  0  0  0  0  0  0  0  0  0
   -4.3180   23.2920  -30.6440 C   0  0  0  0  0  0  0  0  0  0  0  0
   -5.5340   23.5430  -31.4530 C   0  0  0  0  0  0  0  0  0  0  0  0
   -5.4020   23.8170  -32.6770 O   0  0  0  0  0  0  0  0  0  0  0  0
   -6.8990   23.4910  -30.8890 C   0  0  0  0  0  0  0  0  0  0  0  0
   -7.1082   24.0494  -29.9646 H   0  0  0  0  0  0  0  0  0  0  0  0
   -7.8940   22.7920  -31.4560 C   0  0  0  0  0  0  0  0  0  0  0  0
   -8.8497   23.3057  -31.6371 H   0  0  0  0  0  0  0  0  0  0  0  0
   -7.7810   21.3670  -31.8530 C   0  0  0  0  0  0  0  0  0  0  0  0
   -8.6420   20.4340  -31.2540 C   0  0  0  0  0  0  0  0  0  0  0  0
   -9.3816   20.7728  -30.5136 H   0  0  0  0  0  0  0  0  0  0  0  0
   -8.5690   19.0780  -31.5890 C   0  0  0  0  0  0  0  0  0  0  0  0
   -9.2556   18.3600  -31.1167 H   0  0  0  0  0  0  0  0  0  0  0  0
   -7.6230   18.6280  -32.5260 C   0  0  0  0  0  0  0  0  0  0  0  0
   -7.5110   17.2800  -32.8970 O   0  0  0  0  0  0  0  0  0  0  0  0
   -6.3650   16.7110  -33.5180 C   0  0  0  0  0  0  0  0  0  0  0  0
   -5.6640   16.3629  -32.7451 H   0  0  0  0  0  0  0  0  0  0  0  0
   -6.6718   15.8605  -34.1446 H   0  0  0  0  0  0  0  0  0  0  0  0
   -5.8729   17.4694  -34.1446 H   0  0  0  0  0  0  0  0  0  0  0  0
   -6.7540   19.5540  -33.1140 C   0  0  0  0  0  0  0  0  0  0  0  0
   -6.0074   19.2115  -33.8457 H   0  0  0  0  0  0  0  0  0  0  0  0
   -6.8250   20.9100  -32.7810 C   0  0  0  0  0  0  0  0  0  0  0  0
   -6.1300   21.6243  -33.2466 H   0  0  0  0  0  0  0  0  0  0  0  0
   -3.5270   24.3620  -30.1780 C   0  0  0  0  0  0  0  0  0  0  0  0
   -3.8640   25.6780  -30.4790 O   0  0  0  0  0  0  0  0  0  0  0  0
   -2.3800   24.1110  -29.4190 C   0  0  0  0  0  0  0  0  0  0  0  0
   -1.7751   24.9509  -29.0465 H   0  0  0  0  0  0  0  0  0  0  0  0
  1  2  1  0
  2  3  1  0
  3  4  2  0
  4  5  1  0
  4  6  1  0
  6  7  1  0
  6  8  2  0
  8  9  1  0
  9 10  2  0
  9 11  1  0
 11 12  1  0
 11 13  2  0
 13 14  1  0
 13 15  1  0
 15 16  2  0
 16 17  1  0
 16 18  1  0
 18 19  1  0
 18 20  2  0
 20 21  1  0
 21 22  1  0
 22 23  1  0
 22 24  1  0
 22 25  1  0
 20 26  1  0
 26 27  1  0
 26 28  2  0
 28 29  1  0
  8 30  1  0
 30 31  1  0
 30 32  2  0
 32 33  1  0
 32  3  1  0
 28 15  1  0
M  CHG  2   7  -1  31  -1
M  END
>  <UniqueID>  (34) 
30

>  <SMILES>  (34) 
COc1ccc(/C=C/C(=O)c2c([O-])cc(O)cc2[O-])cc1

>  <Energy>  (34) 
42.220358190461994

>  <Genealogy>  (34) 
COc1ccc(C=CC(=O)c2c([O-])cc(O)cc2[O-])cc1 (protonated)
COc1ccc(/C=C/C(=O)c2c([O-])cc(O)cc2[O-])cc1 (cis-trans isomerization)
COc1ccc(/C=C/C(=O)c2c([O-])cc(O)cc2[O-])cc1 (3D coordinates assigned)
COc1ccc(/C=C/C(=O)c2c([O-])cc(O)cc2[O-])cc1 (optimized conformer: 42.220358190461994 kcal/mol)

>  <smiles>  (34) 
COc1ccc(C=CC(=O)c2c(O)cc(O)cc2O)cc1

>  <score_type>  (34) 
oracle

>  <origin>  (34) 
adg

>  <m_score__min__energy>  (34) 
-10.02

>  <m_primary>  (34) 
energy

$$$$
34:0
     RDKit          3D

 51 53  0  0  1  0  0  0  0  0999 V2000
   -1.2560   21.1600  -31.9130 C   0  0  0  0  0  0  0  0  0  0  0  0
   -1.5820   21.6820  -30.6350 O   0  0  0  0  0  0  0  0  0  0  0  0
   -2.7160   22.4790  -30.5350 C   0  0  0  0  0  0  0  0  0  0  0  0
   -3.9140   22.0400  -31.0560 C   0  0  0  0  0  0  0  0  0  0  0  0
   -5.0000   22.8780  -30.9220 C   0  0  0  0  0  0  0  0  0  0  0  0
   -6.1630   22.4700  -31.4160 N   0  0  0  0  0  0  0  0  0  0  0  0
   -7.2950   23.1730  -31.3570 C   0  0  0  0  0  0  0  0  0  0  0  0
   -8.3390   22.7410  -31.8280 N   0  0  0  0  0  0  0  0  0  0  0  0
   -9.0920   21.6000  -31.7750 C   0  0  0  0  0  0  0  0  0  0  0  0
   -8.7030   20.3000  -31.2140 C   0  0  0  0  0  0  0  0  0  0  0  0
   -7.5090   19.7980  -31.9390 N   0  0  0  0  0  0  0  0  0  0  0  0
   -7.5230   18.3240  -31.8380 C   0  0  0  0  0  0  0  0  0  0  0  0
   -6.4380   17.7670  -32.7060 C   0  0  0  0  0  0  0  0  0  0  0  0
   -5.5350   18.7400  -33.2170 N   0  0  0  0  0  0  0  0  0  0  0  0
   -4.4280   19.0380  -32.3450 C   0  0  0  0  0  0  0  0  0  0  0  0
   -6.1170   19.8780  -33.8460 C   0  0  0  0  0  0  0  0  0  0  0  0
   -7.5600   20.0530  -33.3460 C   0  0  0  0  0  0  0  0  0  0  0  0
   -7.2380   24.3840  -30.7510 N   0  0  0  0  0  0  0  0  0  0  0  0
   -6.1080   24.8830  -30.2220 C   0  0  0  0  0  0  0  0  0  0  0  0
   -6.1310   26.0200  -29.6730 N   0  0  0  0  0  0  0  0  0  0  0  0
   -4.9520   24.1070  -30.3070 C   0  0  0  0  0  0  0  0  0  0  0  0
   -3.7570   24.5450  -29.7890 C   0  0  0  0  0  0  0  0  0  0  0  0
   -2.6660   23.7210  -29.9140 C   0  0  0  0  0  0  0  0  0  0  0  0
   -1.4360   24.1040  -29.4130 O   0  0  0  0  0  0  0  0  0  0  0  0
   -0.8180   23.5560  -28.2770 C   0  0  0  0  0  0  0  0  0  0  0  0
   -0.6768   20.2325  -31.7934 H   0  0  0  0  0  0  0  0  0  0  0  0
   -2.1810   20.9456  -32.4683 H   0  0  0  0  0  0  0  0  0  0  0  0
   -0.6574   21.8971  -32.4683 H   0  0  0  0  0  0  0  0  0  0  0  0
   -3.9996   21.0642  -31.5565 H   0  0  0  0  0  0  0  0  0  0  0  0
   -6.2080   21.5540  -31.8790 H   0  0  0  0  0  0  0  0  0  0  0  0
   -9.9978   21.8861  -31.2203 H   0  0  0  0  0  0  0  0  0  0  0  0
   -9.0818   21.3369  -32.8430 H   0  0  0  0  0  0  0  0  0  0  0  0
   -8.4645   20.4156  -30.1464 H   0  0  0  0  0  0  0  0  0  0  0  0
   -9.5318   19.5852  -31.3236 H   0  0  0  0  0  0  0  0  0  0  0  0
   -7.3508   18.0240  -30.7938 H   0  0  0  0  0  0  0  0  0  0  0  0
   -8.4987   17.9376  -32.1678 H   0  0  0  0  0  0  0  0  0  0  0  0
   -5.8620   17.0412  -32.1132 H   0  0  0  0  0  0  0  0  0  0  0  0
   -6.9348   17.3130  -33.5761 H   0  0  0  0  0  0  0  0  0  0  0  0
   -4.7525   18.9507  -31.2976 H   0  0  0  0  0  0  0  0  0  0  0  0
   -3.6096   18.3282  -32.5357 H   0  0  0  0  0  0  0  0  0  0  0  0
   -4.0765   20.0627  -32.5357 H   0  0  0  0  0  0  0  0  0  0  0  0
   -5.5308   20.7750  -33.5975 H   0  0  0  0  0  0  0  0  0  0  0  0
   -6.1200   19.7347  -34.9366 H   0  0  0  0  0  0  0  0  0  0  0  0
   -7.9125   21.0770  -33.5389 H   0  0  0  0  0  0  0  0  0  0  0  0
   -8.2558   19.3733  -33.8596 H   0  0  0  0  0  0  0  0  0  0  0  0
   -8.1130   24.9870  -30.6800 H   0  0  0  0  0  0  0  0  0  0  0  0
   -5.6480   26.3930  -28.8630 H   0  0  0  0  0  0  0  0  0  0  0  0
   -3.6772   25.5226  -29.2911 H   0  0  0  0  0  0  0  0  0  0  0  0
   -1.2843   23.9695  -27.3706 H   0  0  0  0  0  0  0  0  0  0  0  0
   -0.9387   22.4627  -28.2854 H   0  0  0  0  0  0  0  0  0  0  0  0
    0.2530   23.8067  -28.2854 H   0  0  0  0  0  0  0  0  0  0  0  0
  1  2  1  0
  2  3  1  0
  3  4  2  0
  4  5  1  0
  5  6  1  0
  6  7  1  0
  7  8  2  0
  8  9  1  0
  9 10  1  0
 10 11  1  0
 11 12  1  0
 12 13  1  0
 13 14  1  0
 14 15  1  0
 14 16  1  0
 16 17  1  0
  7 18  1  0
 18 19  1  0
 19 20  2  3
 19 21  1  0
 21 22  1  0
 22 23  2  0
 23 24  1  0
 24 25  1  0
 23  3  1  0
 21  5  2  0
 17 11  1  0
  1 26  1  0
  1 27  1  0
  1 28  1  0
  4 29  1  0
  6 30  1  0
  9 31  1  0
  9 32  1  0
 10 33  1  0
 10 34  1  0
 12 35  1  0
 12 36  1  0
 13 37  1  0
 13 38  1  0
 15 39  1  0
 15 40  1  0
 15 41  1  0
 16 42  1  0
 16 43  1  0
 17 44  1  0
 17 45  1  0
 18 46  1  0
 20 47  1  0
 22 48  1  0
 25 49  1  0
 25 50  1  0
 25 51  1  0
M  END
>  <smiles>  (35) 
COc1cc2[nH]c(=NCCN3CCN(C)CC3)[nH]c(=N)c2cc1OC

>  <score_type>  (35) 
oracle

>  <origin>  (35) 
adg

>  <m_score__min__energy>  (35) 
-6.8399999999999999

>  <m_primary>  (35) 
energy

$$$$
35:0
     RDKit          3D

 45 48  0  0  0  0  0  0  0  0999 V2000
    0.8230   20.0420  -28.4970 Cl  0  0  0  0  0  0  0  0  0  0  0  0
   -0.7800   19.8840  -27.7920 C   0  0  0  0  0  0  0  0  0  0  0  0
   -1.0740   18.7390  -27.0400 C   0  0  0  0  0  0  0  0  0  0  0  0
   -2.3520   18.5550  -26.5070 C   0  0  0  0  0  0  0  0  0  0  0  0
   -3.3460   19.5120  -26.7260 C   0  0  0  0  0  0  0  0  0  0  0  0
   -3.0610   20.6560  -27.4740 C   0  0  0  0  0  0  0  0  0  0  0  0
   -1.7770   20.8560  -28.0060 C   0  0  0  0  0  0  0  0  0  0  0  0
   -1.5020   22.0500  -28.7560 N   0  0  0  0  0  0  0  0  0  0  0  0
   -1.6720   22.0640  -30.2100 C   0  0  0  0  0  0  0  0  0  0  0  0
   -2.7370   23.1000  -30.6240 C   0  0  0  0  0  0  0  0  0  0  0  0
   -2.8490   24.2630  -29.7010 N   0  0  0  0  0  0  0  0  0  0  0  0
   -4.0490   24.1690  -28.8400 C   0  0  0  0  0  0  0  0  0  0  0  0
   -5.2810   23.9140  -29.6530 C   0  0  0  0  0  0  0  0  0  0  0  0
   -6.2020   24.8640  -30.0460 C   0  0  0  0  0  0  0  0  0  0  0  0
   -7.1470   24.1840  -30.7830 C   0  0  0  0  0  0  0  0  0  0  0  0
   -6.7430   22.8570  -30.7950 C   0  0  0  0  0  0  0  0  0  0  0  0
   -7.4240   21.7220  -31.4590 C   0  0  0  0  0  0  0  0  0  0  0  0
   -6.6600   20.7350  -32.1040 C   0  0  0  0  0  0  0  0  0  0  0  0
   -7.3000   19.6630  -32.7300 C   0  0  0  0  0  0  0  0  0  0  0  0
   -8.6560   19.5750  -32.7160 N   0  0  0  0  0  0  0  0  0  0  0  0
   -9.4230   20.5130  -32.1010 C   0  0  0  0  0  0  0  0  0  0  0  0
   -8.8250   21.6010  -31.4620 C   0  0  0  0  0  0  0  0  0  0  0  0
   -5.6260   22.7330  -30.1110 O   0  0  0  0  0  0  0  0  0  0  0  0
   -1.6010   24.5090  -28.9410 C   0  0  0  0  0  0  0  0  0  0  0  0
   -1.2240   23.3090  -28.0580 C   0  0  0  0  0  0  0  0  0  0  0  0
   -0.2950   17.9816  -26.8686 H   0  0  0  0  0  0  0  0  0  0  0  0
   -2.5760   17.6558  -25.9143 H   0  0  0  0  0  0  0  0  0  0  0  0
   -4.3532   19.3642  -26.3091 H   0  0  0  0  0  0  0  0  0  0  0  0
   -3.8473   21.4054  -27.6476 H   0  0  0  0  0  0  0  0  0  0  0  0
   -0.7133   22.3227  -30.6832 H   0  0  0  0  0  0  0  0  0  0  0  0
   -2.0022   21.0671  -30.5372 H   0  0  0  0  0  0  0  0  0  0  0  0
   -2.4803   23.4775  -31.6248 H   0  0  0  0  0  0  0  0  0  0  0  0
   -3.7074   22.5826  -30.5994 H   0  0  0  0  0  0  0  0  0  0  0  0
   -3.9138   23.3440  -28.1251 H   0  0  0  0  0  0  0  0  0  0  0  0
   -4.1732   25.1251  -28.3103 H   0  0  0  0  0  0  0  0  0  0  0  0
   -6.1851   25.9400  -29.8182 H   0  0  0  0  0  0  0  0  0  0  0  0
   -8.0408   24.6076  -31.2644 H   0  0  0  0  0  0  0  0  0  0  0  0
   -5.5624   20.8062  -32.1159 H   0  0  0  0  0  0  0  0  0  0  0  0
   -6.7050   18.8881  -33.2355 H   0  0  0  0  0  0  0  0  0  0  0  0
  -10.5186   20.4149  -32.1066 H   0  0  0  0  0  0  0  0  0  0  0  0
   -9.4465   22.3595  -30.9636 H   0  0  0  0  0  0  0  0  0  0  0  0
   -0.7831   24.6990  -29.6516 H   0  0  0  0  0  0  0  0  0  0  0  0
   -1.7654   25.3771  -28.2858 H   0  0  0  0  0  0  0  0  0  0  0  0
   -0.1520   23.3599  -27.8166 H   0  0  0  0  0  0  0  0  0  0  0  0
   -1.8227   23.3441  -27.1358 H   0  0  0  0  0  0  0  0  0  0  0  0
  1  2  1  0
  2  3  2  0
  3  4  1  0
  4  5  2  0
  5  6  1  0
  6  7  2  0
  7  8  1  0
  8  9  1  0
  9 10  1  0
 10 11  1  0
 11 12  1  0
 12 13  1  0
 13 14  2  0
 14 15  1  0
 15 16  2  0
 16 17  1  0
 17 18  2  0
 18 19  1  0
 19 20  2  0
 20 21  1  0
 21 22  2  0
 16 23  1  0
 11 24  1  0
 24 25  1  0
  7  2  1  0
 25  8  1  0
 23 13  1  0
 22 17  1  0
  3 26  1  0
  4 27  1  0
  5 28  1  0
  6 29  1  0
  9 30  1  0
  9 31  1  0
 10 32  1  0
 10 33  1  0
 12 34  1  0
 12 35  1  0
 14 36  1  0
 15 37  1  0
 18 38  1  0
 19 39  1  0
 21 40  1  0
 22 41  1  0
 24 42  1  0
 24 43  1  0
 25 44  1  0
 25 45  1  0
M  END
>  <UniqueID>  (36) 
31

>  <SMILES>  (36) 
Clc1ccccc1N1CCN(Cc2ccc(-c3ccncc3)o2)CC1

>  <Energy>  (36) 
90.35862653813905

>  <Genealogy>  (36) 
Clc1ccccc1N1CCN(Cc2ccc(-c3ccncc3)o2)CC1 (3D coordinates assigned)
Clc1ccccc1N1CCN(Cc2ccc(-c3ccncc3)o2)CC1 (nonaromatic ring conformer: 90.35862653813905 kcal/mol)

>  <smiles>  (36) 
Clc1ccccc1N1CCN(Cc2ccc(-c3ccncc3)o2)CC1

>  <score_type>  (36) 
oracle

>  <origin>  (36) 
adg

>  <m_score__min__energy>  (36) 
-8.3599999999999994

>  <m_primary>  (36) 
energy

$$$$
36:0
     RDKit          3D

 64 67  0  0  0  0  0  0  0  0999 V2000
   -8.2340   20.5730  -32.2840 C   0  0  0  0  0  0  0  0  0  0  0  0
   -8.4870   21.8270  -31.4490 C   0  0  0  0  0  0  0  0  0  0  0  0
   -7.5910   23.0090  -31.8720 C   0  0  0  0  0  0  0  0  0  0  0  0
   -6.3110   23.1430  -31.0310 C   0  0  0  0  0  0  0  0  0  0  0  0
   -5.0330   22.9210  -31.8450 C   0  0  0  0  0  0  0  0  0  0  0  0
   -3.9140   23.4780  -31.1600 O   0  0  0  0  0  0  0  0  0  0  0  0
   -3.9570   24.7000  -30.4770 C   0  0  0  0  0  0  0  0  0  0  0  0
   -4.7340   25.6190  -30.8490 O   0  0  0  0  0  0  0  0  0  0  0  0
   -3.1050   24.9170  -29.3530 N   0  0  0  0  0  0  0  0  0  0  0  0
   -3.4350   24.1950  -27.8140 S   0  0  0  0  0  0  0  0  0  0  0  0
   -3.8160   22.7590  -28.0440 O   0  0  0  0  0  0  0  0  0  0  0  0
   -4.5830   24.9180  -27.1670 O   0  0  0  0  0  0  0  0  0  0  0  0
   -2.0060   24.3160  -26.7700 C   0  0  0  0  0  0  0  0  0  0  0  0
   -2.0250   25.2420  -25.7160 C   0  0  0  0  0  0  0  0  0  0  0  0
   -0.8920   25.4510  -24.9290 C   0  0  0  0  0  0  0  0  0  0  0  0
    0.2750   24.7320  -25.1820 C   0  0  0  0  0  0  0  0  0  0  0  0
    0.3040   23.7860  -26.2060 C   0  0  0  0  0  0  0  0  0  0  0  0
   -0.8320   23.5520  -26.9970 C   0  0  0  0  0  0  0  0  0  0  0  0
   -0.7670   22.4960  -28.0270 C   0  0  0  0  0  0  0  0  0  0  0  0
   -0.7110   21.1450  -27.6530 C   0  0  0  0  0  0  0  0  0  0  0  0
   -0.6420   20.1460  -28.6270 C   0  0  0  0  0  0  0  0  0  0  0  0
   -0.6180   20.4840  -29.9890 C   0  0  0  0  0  0  0  0  0  0  0  0
   -0.5190   19.4120  -31.0410 C   0  0  0  0  0  0  0  0  0  0  0  0
   -0.6720   19.9930  -32.3790 N   0  0  0  0  0  0  0  0  0  0  0  0
   -1.8270   20.3600  -33.0010 C   0  0  0  0  0  0  0  0  0  0  0  0
   -3.1930   20.2370  -32.3980 C   0  0  0  0  0  0  0  0  0  0  0  0
   -1.6220   20.7880  -34.2720 N   0  0  0  0  0  0  0  0  0  0  0  0
   -0.2950   20.6870  -34.4470 C   0  0  0  0  0  0  0  0  0  0  0  0
    0.4500   20.9860  -35.5860 C   0  0  0  0  0  0  0  0  0  0  0  0
   -0.1440   21.4600  -36.7090 F   0  0  0  0  0  0  0  0  0  0  0  0
    1.8400   20.7790  -35.5340 C   0  0  0  0  0  0  0  0  0  0  0  0
    2.4440   20.2780  -34.3580 C   0  0  0  0  0  0  0  0  0  0  0  0
    1.6640   19.9820  -33.2240 C   0  0  0  0  0  0  0  0  0  0  0  0
    0.2860   20.2030  -33.3060 C   0  0  0  0  0  0  0  0  0  0  0  0
   -0.6600   21.8380  -30.3620 C   0  0  0  0  0  0  0  0  0  0  0  0
   -0.7310   22.8360  -29.3870 C   0  0  0  0  0  0  0  0  0  0  0  0
   -8.0612   19.7164  -31.6160 H   0  0  0  0  0  0  0  0  0  0  0  0
   -9.1097   20.3722  -32.9186 H   0  0  0  0  0  0  0  0  0  0  0  0
   -7.3489   20.7275  -32.9186 H   0  0  0  0  0  0  0  0  0  0  0  0
   -9.5399   22.1227  -31.5668 H   0  0  0  0  0  0  0  0  0  0  0  0
   -8.2494   21.5853  -30.4025 H   0  0  0  0  0  0  0  0  0  0  0  0
   -7.3026   22.8676  -32.9241 H   0  0  0  0  0  0  0  0  0  0  0  0
   -8.1756   23.9280  -31.7182 H   0  0  0  0  0  0  0  0  0  0  0  0
   -6.2800   24.1541  -30.5989 H   0  0  0  0  0  0  0  0  0  0  0  0
   -6.3452   22.3648  -30.2543 H   0  0  0  0  0  0  0  0  0  0  0  0
   -4.8736   21.8417  -31.9851 H   0  0  0  0  0  0  0  0  0  0  0  0
   -5.1385   23.4134  -32.8230 H   0  0  0  0  0  0  0  0  0  0  0  0
   -2.9438   25.8098  -25.5077 H   0  0  0  0  0  0  0  0  0  0  0  0
   -0.9197   26.1834  -24.1087 H   0  0  0  0  0  0  0  0  0  0  0  0
    1.1737   24.9110  -24.5734 H   0  0  0  0  0  0  0  0  0  0  0  0
    1.2263   23.2173  -26.3959 H   0  0  0  0  0  0  0  0  0  0  0  0
   -0.7215   20.8711  -26.5877 H   0  0  0  0  0  0  0  0  0  0  0  0
   -0.6063   19.0889  -28.3249 H   0  0  0  0  0  0  0  0  0  0  0  0
    0.4635   18.9227  -30.9685 H   0  0  0  0  0  0  0  0  0  0  0  0
   -1.3205   18.6766  -30.8776 H   0  0  0  0  0  0  0  0  0  0  0  0
   -3.1116   20.2443  -31.3010 H   0  0  0  0  0  0  0  0  0  0  0  0
   -3.8157   21.0827  -32.7251 H   0  0  0  0  0  0  0  0  0  0  0  0
   -3.6546   19.2937  -32.7251 H   0  0  0  0  0  0  0  0  0  0  0  0
   -2.3360   21.1050  -34.9640 H   0  0  0  0  0  0  0  0  0  0  0  0
    2.4605   21.0081  -36.4129 H   0  0  0  0  0  0  0  0  0  0  0  0
    3.5319   20.1182  -34.3288 H   0  0  0  0  0  0  0  0  0  0  0  0
    2.1233   19.5901  -32.3045 H   0  0  0  0  0  0  0  0  0  0  0  0
   -0.6369   22.1135  -31.4267 H   0  0  0  0  0  0  0  0  0  0  0  0
   -0.7588   23.8938  -29.6876 H   0  0  0  0  0  0  0  0  0  0  0  0
  1  2  1  0
  2  3  1  0
  3  4  1  0
  4  5  1  0
  5  6  1  0
  6  7  1  0
  7  8  2  0
  7  9  1  0
  9 10  1  0
 10 11  2  0
 10 12  2  0
 10 13  1  0
 13 14  2  0
 14 15  1  0
 15 16  2  0
 16 17  1  0
 17 18  2  0
 18 19  1  0
 19 20  2  0
 20 21  1  0
 21 22  2  0
 22 23  1  0
 23 24  1  0
 24 25  1  0
 25 26  1  0
 25 27  2  0
 27 28  1  0
 28 29  2  0
 29 30  1  0
 29 31  1  0
 31 32  2  0
 32 33  1  0
 33 34  2  0
 22 35  1  0
 35 36  2  0
 18 13  1  0
 36 19  1  0
 34 24  1  0
 34 28  1  0
  1 37  1  0
  1 38  1  0
  1 39  1  0
  2 40  1  0
  2 41  1  0
  3 42  1  0
  3 43  1  0
  4 44  1  0
  4 45  1  0
  5 46  1  0
  5 47  1  0
 14 48  1  0
 15 49  1  0
 16 50  1  0
 17 51  1  0
 20 52  1  0
 21 53  1  0
 23 54  1  0
 23 55  1  0
 26 56  1  0
 26 57  1  0
 26 58  1  0
 27 59  1  0
 31 60  1  0
 32 61  1  0
 33 62  1  0
 35 63  1  0
 36 64  1  0
M  CHG  2   9  -1  27   1
M  END
>  <UniqueID>  (37) 
32

>  <SMILES>  (37) 
CCCCCOC(=O)[N-]S(=O)(=O)c1ccccc1-c1ccc(Cn2c(C)[nH+]c3c(F)cccc32)cc1

>  <Energy>  (37) 
106.05707586448243

>  <Genealogy>  (37) 
CCCCCOC(=O)[N-]S(=O)(=O)c1ccccc1-c1ccc(Cn2c(C)[nH+]c3c(F)cccc32)cc1 (protonated)
CCCCCOC(=O)[N-]S(=O)(=O)c1ccccc1-c1ccc(Cn2c(C)[nH+]c3c(F)cccc32)cc1 (3D coordinates assigned)
CCCCCOC(=O)[N-]S(=O)(=O)c1ccccc1-c1ccc(Cn2c(C)[nH+]c3c(F)cccc32)cc1 (optimized conformer: 106.05707586448243 kcal/mol)

>  <smiles>  (37) 
CCCCCOC(=O)NS(=O)(=O)c1ccccc1-c1ccc(Cn2c(C)nc3c(F)cccc32)cc1

>  <score_type>  (37) 
oracle

>  <origin>  (37) 
adg

>  <m_score__min__energy>  (37) 
-10.27

>  <m_primary>  (37) 
energy

$$$$
37:0
     RDKit          3D

 67 70  0  0  0  0  0  0  0  0999 V2000
   -1.0940   22.2690  -30.4440 C   0  0  0  0  0  0  0  0  0  0  0  0
   -2.1950   22.0630  -31.3240 O   0  0  0  0  0  0  0  0  0  0  0  0
   -2.3730   20.9200  -32.1190 C   0  0  0  0  0  0  0  0  0  0  0  0
   -1.3970   19.9040  -32.1850 C   0  0  0  0  0  0  0  0  0  0  0  0
   -1.6020   18.7770  -32.9830 C   0  0  0  0  0  0  0  0  0  0  0  0
   -2.7760   18.6480  -33.7230 C   0  0  0  0  0  0  0  0  0  0  0  0
   -3.7510   19.6440  -33.6680 C   0  0  0  0  0  0  0  0  0  0  0  0
   -3.5610   20.7840  -32.8680 C   0  0  0  0  0  0  0  0  0  0  0  0
   -4.6310   21.8510  -32.8170 C   0  0  0  0  0  0  0  0  0  0  0  0
   -5.7790   21.4040  -31.9960 N   0  0  0  0  0  0  0  0  0  0  0  0
   -6.8050   20.7360  -32.8320 C   0  0  0  0  0  0  0  0  0  0  0  0
   -7.7880   19.9340  -31.9660 C   0  0  0  0  0  0  0  0  0  0  0  0
   -8.2380   18.6340  -32.6740 C   0  0  0  0  0  0  0  0  0  0  0  0
   -7.1820   17.6050  -32.8050 N   0  0  0  0  0  0  0  0  0  0  0  0
   -6.4790   17.6330  -34.1030 C   0  0  0  0  0  0  0  0  0  0  0  0
   -5.2770   16.6680  -34.0880 C   0  0  0  0  0  0  0  0  0  0  0  0
   -5.4400   15.6870  -33.0830 O   0  0  0  0  0  0  0  0  0  0  0  0
   -5.3680   16.2860  -31.7970 C   0  0  0  0  0  0  0  0  0  0  0  0
   -6.2360   17.5580  -31.6800 C   0  0  0  0  0  0  0  0  0  0  0  0
   -6.3610   22.5400  -31.2490 C   0  0  0  0  0  0  0  0  0  0  0  0
   -5.2750   23.3750  -30.6500 C   0  0  0  0  0  0  0  0  0  0  0  0
   -4.6680   23.0940  -29.4810 N   0  0  0  0  0  0  0  0  0  0  0  0
   -3.7710   24.1000  -29.4040 C   0  0  0  0  0  0  0  0  0  0  0  0
   -2.7890   24.2490  -28.2770 C   0  0  0  0  0  0  0  0  0  0  0  0
   -3.5020   24.6540  -26.9640 C   0  0  0  0  0  0  0  0  0  0  0  0
   -2.5700   25.3670  -25.9580 C   0  0  0  0  0  0  0  0  0  0  0  0
   -1.1040   24.9630  -26.1470 C   0  0  0  0  0  0  0  0  0  0  0  0
   -0.5930   25.3210  -27.5580 C   0  0  0  0  0  0  0  0  0  0  0  0
   -1.6880   25.2580  -28.6430 C   0  0  0  0  0  0  0  0  0  0  0  0
   -3.8390   24.9370  -30.4590 N   0  0  0  0  0  0  0  0  0  0  0  0
   -4.7830   24.4540  -31.2070 O   0  0  0  0  0  0  0  0  0  0  0  0
   -1.4404   22.2042  -29.4020 H   0  0  0  0  0  0  0  0  0  0  0  0
   -0.3305   21.4981  -30.6252 H   0  0  0  0  0  0  0  0  0  0  0  0
   -0.6609   23.2638  -30.6252 H   0  0  0  0  0  0  0  0  0  0  0  0
   -0.4680   20.0002  -31.6038 H   0  0  0  0  0  0  0  0  0  0  0  0
   -0.8355   17.9893  -33.0278 H   0  0  0  0  0  0  0  0  0  0  0  0
   -2.9340   17.7592  -34.3515 H   0  0  0  0  0  0  0  0  0  0  0  0
   -4.6751   19.5365  -34.2549 H   0  0  0  0  0  0  0  0  0  0  0  0
   -4.2075   22.7660  -32.3772 H   0  0  0  0  0  0  0  0  0  0  0  0
   -4.9837   22.0465  -33.8404 H   0  0  0  0  0  0  0  0  0  0  0  0
   -7.3623   21.4993  -33.3949 H   0  0  0  0  0  0  0  0  0  0  0  0
   -6.2982   20.0421  -33.5188 H   0  0  0  0  0  0  0  0  0  0  0  0
   -7.2970   19.6725  -31.0170 H   0  0  0  0  0  0  0  0  0  0  0  0
   -8.6779   20.5558  -31.7885 H   0  0  0  0  0  0  0  0  0  0  0  0
   -9.0696   18.2006  -32.0990 H   0  0  0  0  0  0  0  0  0  0  0  0
   -8.5229   18.9196  -33.6974 H   0  0  0  0  0  0  0  0  0  0  0  0
   -7.1759   17.3305  -34.8985 H   0  0  0  0  0  0  0  0  0  0  0  0
   -6.1129   18.6538  -34.2869 H   0  0  0  0  0  0  0  0  0  0  0  0
   -5.1983   16.1730  -35.0672 H   0  0  0  0  0  0  0  0  0  0  0  0
   -4.3629   17.2428  -33.8781 H   0  0  0  0  0  0  0  0  0  0  0  0
   -5.7118   15.5559  -31.0495 H   0  0  0  0  0  0  0  0  0  0  0  0
   -4.3222   16.5819  -31.6275 H   0  0  0  0  0  0  0  0  0  0  0  0
   -6.7932   17.5369  -30.7318 H   0  0  0  0  0  0  0  0  0  0  0  0
   -5.5906   18.4484  -31.7034 H   0  0  0  0  0  0  0  0  0  0  0  0
   -6.9581   23.1584  -31.9353 H   0  0  0  0  0  0  0  0  0  0  0  0
   -6.9997   22.1498  -30.4429 H   0  0  0  0  0  0  0  0  0  0  0  0
   -2.3134   23.2713  -28.1097 H   0  0  0  0  0  0  0  0  0  0  0  0
   -4.3321   25.3318  -27.2120 H   0  0  0  0  0  0  0  0  0  0  0  0
   -3.8525   23.7283  -26.4843 H   0  0  0  0  0  0  0  0  0  0  0  0
   -2.6598   26.4541  -26.0998 H   0  0  0  0  0  0  0  0  0  0  0  0
   -2.8756   25.0712  -24.9436 H   0  0  0  0  0  0  0  0  0  0  0  0
   -0.4899   25.4888  -25.4010 H   0  0  0  0  0  0  0  0  0  0  0  0
   -1.0287   23.8729  -26.0204 H   0  0  0  0  0  0  0  0  0  0  0  0
   -0.1866   26.3428  -27.5323 H   0  0  0  0  0  0  0  0  0  0  0  0
    0.1703   24.5752  -27.8247 H   0  0  0  0  0  0  0  0  0  0  0  0
   -2.1395   26.2550  -28.7530 H   0  0  0  0  0  0  0  0  0  0  0  0
   -1.2216   24.9324  -29.5845 H   0  0  0  0  0  0  0  0  0  0  0  0
  1  2  1  0
  2  3  1  0
  3  4  2  0
  4  5  1  0
  5  6  2  0
  6  7  1  0
  7  8  2  0
  8  9  1  0
  9 10  1  0
 10 11  1  0
 11 12  1  0
 12 13  1  0
 13 14  1  0
 14 15  1  0
 15 16  1  0
 16 17  1  0
 17 18  1  0
 18 19  1  0
 10 20  1  0
 20 21  1  0
 21 22  2  0
 22 23  1  0
 23 24  1  0
 24 25  1  0
 25 26  1  0
 26 27  1  0
 27 28  1  0
 28 29  1  0
 23 30  2  0
 30 31  1  0
  8  3  1  0
 19 14  1  0
 31 21  1  0
 29 24  1  0
  1 32  1  0
  1 33  1  0
  1 34  1  0
  4 35  1  0
  5 36  1  0
  6 37  1  0
  7 38  1  0
  9 39  1  0
  9 40  1  0
 11 41  1  0
 11 42  1  0
 12 43  1  0
 12 44  1  0
 13 45  1  0
 13 46  1  0
 15 47  1  0
 15 48  1  0
 16 49  1  0
 16 50  1  0
 18 51  1  0
 18 52  1  0
 19 53  1  0
 19 54  1  0
 20 55  1  0
 20 56  1  0
 24 57  1  0
 25 58  1  0
 25 59  1  0
 26 60  1  0
 26 61  1  0
 27 62  1  0
 27 63  1  0
 28 64  1  0
 28 65  1  0
 29 66  1  0
 29 67  1  0
M  END
>  <UniqueID>  (38) 
33

>  <SMILES>  (38) 
COc1ccccc1CN(CCCN1CCOCC1)Cc1nc(C2CCCCC2)no1

>  <Energy>  (38) 
109.06786565131445

>  <Genealogy>  (38) 
COc1ccccc1CN(CCCN1CCOCC1)Cc1nc(C2CCCCC2)no1 (3D coordinates assigned)
COc1ccccc1CN(CCCN1CCOCC1)Cc1nc(C2CCCCC2)no1 (nonaromatic ring conformer: 109.06786565131445 kcal/mol)

>  <smiles>  (38) 
COc1ccccc1CN(CCCN1CCOCC1)Cc1nc(C2CCCCC2)no1

>  <score_type>  (38) 
oracle

>  <origin>  (38) 
adg

>  <m_score__min__energy>  (38) 
-9.7300000000000004

>  <m_primary>  (38) 
energy

$$$$
38:0
     RDKit          3D

 34 36  0  0  0  0  0  0  0  0999 V2000
   -4.5150   14.2760  -33.4190 F   0  0  0  0  0  0  0  0  0  0  0  0
   -4.3570   15.2220  -32.4200 C   0  0  0  0  0  0  0  0  0  0  0  0
   -3.0220   15.5890  -32.3810 F   0  0  0  0  0  0  0  0  0  0  0  0
   -4.7050   14.6590  -31.2070 F   0  0  0  0  0  0  0  0  0  0  0  0
   -5.2320   16.4230  -32.6800 C   0  0  0  0  0  0  0  0  0  0  0  0
   -5.2880   16.9990  -33.9610 C   0  0  0  0  0  0  0  0  0  0  0  0
   -6.1340   18.0820  -34.2150 C   0  0  0  0  0  0  0  0  0  0  0  0
   -6.9510   18.6020  -33.1960 C   0  0  0  0  0  0  0  0  0  0  0  0
   -7.8480   19.6960  -33.4680 N   0  0  0  0  0  0  0  0  0  0  0  0
   -7.5900   20.7740  -32.5460 C   0  0  0  0  0  0  0  0  0  0  0  0
   -8.5880   21.1990  -31.6530 C   0  0  0  0  0  0  0  0  0  0  0  0
   -8.3330   22.2200  -30.7340 C   0  0  0  0  0  0  0  0  0  0  0  0
   -7.0720   22.8300  -30.6890 C   0  0  0  0  0  0  0  0  0  0  0  0
   -6.8050   23.8550  -29.7690 C   0  0  0  0  0  0  0  0  0  0  0  0
   -5.5410   24.4530  -29.7310 C   0  0  0  0  0  0  0  0  0  0  0  0
   -4.5380   24.0320  -30.6080 C   0  0  0  0  0  0  0  0  0  0  0  0
   -4.7910   23.0120  -31.5290 C   0  0  0  0  0  0  0  0  0  0  0  0
   -6.0550   22.4040  -31.5790 C   0  0  0  0  0  0  0  0  0  0  0  0
   -6.3210   21.3780  -32.4980 C   0  0  0  0  0  0  0  0  0  0  0  0
   -6.9210   18.0040  -31.9250 C   0  0  0  0  0  0  0  0  0  0  0  0
   -6.0740   16.9210  -31.6710 C   0  0  0  0  0  0  0  0  0  0  0  0
   -4.6614   16.5944  -34.7694 H   0  0  0  0  0  0  0  0  0  0  0  0
   -6.1608   18.5306  -35.2190 H   0  0  0  0  0  0  0  0  0  0  0  0
   -7.7250   20.0280  -34.4540 H   0  0  0  0  0  0  0  0  0  0  0  0
   -8.8420   19.3770  -33.3810 H   0  0  0  0  0  0  0  0  0  0  0  0
   -9.5795   20.7234  -31.6776 H   0  0  0  0  0  0  0  0  0  0  0  0
   -9.1246   22.5462  -30.0434 H   0  0  0  0  0  0  0  0  0  0  0  0
   -7.5913   24.1891  -29.0761 H   0  0  0  0  0  0  0  0  0  0  0  0
   -5.3361   25.2569  -29.0087 H   0  0  0  0  0  0  0  0  0  0  0  0
   -3.5456   24.5052  -30.5733 H   0  0  0  0  0  0  0  0  0  0  0  0
   -3.9973   22.6847  -32.2167 H   0  0  0  0  0  0  0  0  0  0  0  0
   -5.5309   21.0434  -33.1863 H   0  0  0  0  0  0  0  0  0  0  0  0
   -7.5684   18.3906  -31.1241 H   0  0  0  0  0  0  0  0  0  0  0  0
   -6.0666   16.4555  -30.6744 H   0  0  0  0  0  0  0  0  0  0  0  0
  1  2  1  0
  2  3  1  0
  2  4  1  0
  2  5  1  0
  5  6  2  0
  6  7  1  0
  7  8  2  0
  8  9  1  0
  9 10  1  0
 10 11  2  0
 11 12  1  0
 12 13  2  0
 13 14  1  0
 14 15  2  0
 15 16  1  0
 16 17  2  0
 17 18  1  0
 18 19  2  0
  8 20  1  0
 20 21  2  0
 21  5  1  0
 19 10  1  0
 18 13  1  0
  6 22  1  0
  7 23  1  0
  9 24  1  0
  9 25  1  0
 11 26  1  0
 12 27  1  0
 14 28  1  0
 15 29  1  0
 16 30  1  0
 17 31  1  0
 19 32  1  0
 20 33  1  0
 21 34  1  0
M  CHG  1   9   1
M  END
>  <UniqueID>  (39) 
34

>  <SMILES>  (39) 
FC(F)(F)c1ccc([NH2+]c2ccc3ccccc3c2)cc1

>  <Energy>  (39) 
41.87977122258348

>  <Genealogy>  (39) 
FC(F)(F)c1ccc([NH2+]c2ccc3ccccc3c2)cc1 (protonated)
FC(F)(F)c1ccc([NH2+]c2ccc3ccccc3c2)cc1 (3D coordinates assigned)
FC(F)(F)c1ccc([NH2+]c2ccc3ccccc3c2)cc1 (optimized conformer: 41.87977122258348 kcal/mol)

>  <smiles>  (39) 
FC(F)(F)c1ccc(Nc2ccc3ccccc3c2)cc1

>  <score_type>  (39) 
oracle

>  <origin>  (39) 
adg

>  <m_score__min__energy>  (39) 
-7.0099999999999998

>  <m_primary>  (39) 
energy

$$$$
39:0
     RDKit          3D

 44 46  0  0  0  0  0  0  0  0999 V2000
   -4.1080   17.3150  -34.4990 C   0  0  0  0  0  0  0  0  0  0  0  0
   -4.2680   18.7110  -34.6110 O   0  0  0  0  0  0  0  0  0  0  0  0
   -3.2600   19.3600  -33.8660 C   0  0  0  0  0  0  0  0  0  0  0  0
   -3.6680   19.4220  -32.3930 C   0  0  0  0  0  0  0  0  0  0  0  0
   -4.8670   20.2700  -32.2100 N   0  0  0  0  0  0  0  0  0  0  0  0
   -4.7420   21.6090  -31.9160 C   0  0  0  0  0  0  0  0  0  0  0  0
   -3.1390   22.4010  -31.6940 S   0  0  0  0  0  0  0  0  0  0  0  0
   -3.5680   23.0810  -30.0600 C   0  0  0  0  0  0  0  0  0  0  0  0
   -3.4810   24.5690  -30.1090 C   0  0  0  0  0  0  0  0  0  0  0  0
   -4.2630   25.2210  -30.8530 O   0  0  0  0  0  0  0  0  0  0  0  0
   -2.4750   25.2420  -29.3470 N   0  0  0  0  0  0  0  0  0  0  0  0
   -1.9060   24.6880  -28.1280 C   0  0  0  0  0  0  0  0  0  0  0  0
   -1.4050   25.8000  -27.2670 C   0  0  0  0  0  0  0  0  0  0  0  0
   -1.5930   25.9130  -25.9050 C   0  0  0  0  0  0  0  0  0  0  0  0
   -0.9920   27.1000  -25.5470 C   0  0  0  0  0  0  0  0  0  0  0  0
   -0.4800   27.6370  -26.7100 C   0  0  0  0  0  0  0  0  0  0  0  0
   -0.7460   26.8410  -27.7200 O   0  0  0  0  0  0  0  0  0  0  0  0
   -5.8440   22.3900  -31.7870 N   0  0  0  0  0  0  0  0  0  0  0  0
   -7.0920   21.8890  -31.9390 C   0  0  0  0  0  0  0  0  0  0  0  0
   -8.2040   22.7270  -31.7960 C   0  0  0  0  0  0  0  0  0  0  0  0
   -9.4940   22.2120  -31.9560 C   0  0  0  0  0  0  0  0  0  0  0  0
   -9.6740   20.8600  -32.2600 C   0  0  0  0  0  0  0  0  0  0  0  0
   -8.5680   20.0180  -32.4060 C   0  0  0  0  0  0  0  0  0  0  0  0
   -7.2650   20.5290  -32.2450 C   0  0  0  0  0  0  0  0  0  0  0  0
   -6.1190   19.7260  -32.3830 C   0  0  0  0  0  0  0  0  0  0  0  0
   -6.2500   18.5040  -32.6700 O   0  0  0  0  0  0  0  0  0  0  0  0
   -4.0758   17.0337  -33.4361 H   0  0  0  0  0  0  0  0  0  0  0  0
   -4.9540   16.8087  -34.9868 H   0  0  0  0  0  0  0  0  0  0  0  0
   -3.1694   17.0132  -34.9868 H   0  0  0  0  0  0  0  0  0  0  0  0
   -2.3174   18.8010  -33.9613 H   0  0  0  0  0  0  0  0  0  0  0  0
   -3.1234   20.3817  -34.2499 H   0  0  0  0  0  0  0  0  0  0  0  0
   -3.8893   18.4047  -32.0379 H   0  0  0  0  0  0  0  0  0  0  0  0
   -2.8385   19.8591  -31.8177 H   0  0  0  0  0  0  0  0  0  0  0  0
   -4.5924   22.7811  -29.7943 H   0  0  0  0  0  0  0  0  0  0  0  0
   -2.8683   22.6949  -29.3041 H   0  0  0  0  0  0  0  0  0  0  0  0
   -2.6785   24.1230  -27.5858 H   0  0  0  0  0  0  0  0  0  0  0  0
   -1.0735   24.0156  -28.3826 H   0  0  0  0  0  0  0  0  0  0  0  0
   -2.1133   25.2044  -25.2438 H   0  0  0  0  0  0  0  0  0  0  0  0
   -0.9324   27.5324  -24.5373 H   0  0  0  0  0  0  0  0  0  0  0  0
    0.0681   28.5881  -26.7806 H   0  0  0  0  0  0  0  0  0  0  0  0
   -8.0629   23.7915  -31.5576 H   0  0  0  0  0  0  0  0  0  0  0  0
  -10.3673   22.8712  -31.8426 H   0  0  0  0  0  0  0  0  0  0  0  0
  -10.6898   20.4569  -32.3849 H   0  0  0  0  0  0  0  0  0  0  0  0
   -8.7151   18.9548  -32.6469 H   0  0  0  0  0  0  0  0  0  0  0  0
  1  2  1  0
  2  3  1  0
  3  4  1  0
  4  5  1  0
  5  6  1  0
  6  7  1  0
  7  8  1  0
  8  9  1  0
  9 10  2  0
  9 11  1  0
 11 12  1  0
 12 13  1  0
 13 14  2  0
 14 15  1  0
 15 16  2  0
 16 17  1  0
  6 18  2  0
 18 19  1  0
 19 20  2  0
 20 21  1  0
 21 22  2  0
 22 23  1  0
 23 24  2  0
 24 25  1  0
 25 26  2  0
 25  5  1  0
 17 13  1  0
 24 19  1  0
  1 27  1  0
  1 28  1  0
  1 29  1  0
  3 30  1  0
  3 31  1  0
  4 32  1  0
  4 33  1  0
  8 34  1  0
  8 35  1  0
 12 36  1  0
 12 37  1  0
 14 38  1  0
 15 39  1  0
 16 40  1  0
 20 41  1  0
 21 42  1  0
 22 43  1  0
 23 44  1  0
M  CHG  1  11  -1
M  END
>  <UniqueID>  (40) 
35

>  <SMILES>  (40) 
COCCn1c(SCC(=O)[N-]Cc2ccco2)nc2ccccc2c1=O

>  <Energy>  (40) 
69.73799741272862

>  <Genealogy>  (40) 
COCCn1c(SCC(=O)[N-]Cc2ccco2)nc2ccccc2c1=O (protonated)
COCCn1c(SCC(=O)[N-]Cc2ccco2)nc2ccccc2c1=O (3D coordinates assigned)
COCCn1c(SCC(=O)[N-]Cc2ccco2)nc2ccccc2c1=O (optimized conformer: 69.73799741272862 kcal/mol)

>  <smiles>  (40) 
COCCn1c(SCC(=O)NCc2ccco2)nc2ccccc2c1=O

>  <score_type>  (40) 
oracle

>  <origin>  (40) 
adg

>  <m_score__min__energy>  (40) 
-10.550000000000001

>  <m_primary>  (40) 
energy

$$$$
40:0
     RDKit          3D

 30 31  0  0  0  0  0  0  0  0999 V2000
   -4.2400   24.2270  -27.2580 C   0  0  0  0  0  0  0  0  0  0  0  0
   -4.0720   23.9750  -28.6870 N   0  0  0  0  0  0  0  0  0  0  0  0
   -3.0760   23.0460  -29.1360 C   0  0  0  0  0  0  0  0  0  0  0  0
   -3.4510   21.7330  -29.4590 C   0  0  0  0  0  0  0  0  0  0  0  0
   -2.4960   20.8170  -29.9090 C   0  0  0  0  0  0  0  0  0  0  0  0
   -1.1600   21.2030  -30.0350 C   0  0  0  0  0  0  0  0  0  0  0  0
   -0.7740   22.5060  -29.7080 C   0  0  0  0  0  0  0  0  0  0  0  0
   -1.7240   23.4320  -29.2570 C   0  0  0  0  0  0  0  0  0  0  0  0
   -1.2940   24.7590  -28.8940 C   0  0  0  0  0  0  0  0  0  0  0  0
   -0.9480   25.8250  -28.6020 N   0  0  0  0  0  0  0  0  0  0  0  0
   -5.1400   24.7300  -29.8310 S   0  0  0  0  0  0  0  0  0  0  0  0
   -4.3490   25.5210  -30.8350 O   0  0  0  0  0  0  0  0  0  0  0  0
   -6.0640   25.6600  -29.0950 O   0  0  0  0  0  0  0  0  0  0  0  0
   -6.0560   23.4910  -30.6790 C   0  0  0  0  0  0  0  0  0  0  0  0
   -7.2390   22.9890  -30.1230 C   0  0  0  0  0  0  0  0  0  0  0  0
   -7.9650   22.0080  -30.7980 C   0  0  0  0  0  0  0  0  0  0  0  0
   -7.4970   21.5360  -32.0270 C   0  0  0  0  0  0  0  0  0  0  0  0
   -6.3440   22.0300  -32.5520 N   0  0  0  0  0  0  0  0  0  0  0  0
   -5.6200   22.9870  -31.9120 C   0  0  0  0  0  0  0  0  0  0  0  0
   -3.7194   23.4461  -26.6843 H   0  0  0  0  0  0  0  0  0  0  0  0
   -3.8163   25.2105  -27.0068 H   0  0  0  0  0  0  0  0  0  0  0  0
   -5.3109   24.2141  -27.0068 H   0  0  0  0  0  0  0  0  0  0  0  0
   -4.5016   21.4231  -29.3576 H   0  0  0  0  0  0  0  0  0  0  0  0
   -2.7974   19.7904  -30.1643 H   0  0  0  0  0  0  0  0  0  0  0  0
   -0.4107   20.4811  -30.3919 H   0  0  0  0  0  0  0  0  0  0  0  0
    0.2799   22.8057  -29.8051 H   0  0  0  0  0  0  0  0  0  0  0  0
   -7.5957   23.3683  -29.1540 H   0  0  0  0  0  0  0  0  0  0  0  0
   -8.8959   21.6102  -30.3676 H   0  0  0  0  0  0  0  0  0  0  0  0
   -8.0618   20.7641  -32.5703 H   0  0  0  0  0  0  0  0  0  0  0  0
   -4.6909   23.3660  -32.3627 H   0  0  0  0  0  0  0  0  0  0  0  0
  1  2  1  0
  2  3  1  0
  3  4  2  0
  4  5  1  0
  5  6  2  0
  6  7  1  0
  7  8  2  0
  8  9  1  0
  9 10  3  0
  2 11  1  0
 11 12  2  0
 11 13  2  0
 11 14  1  0
 14 15  2  0
 15 16  1  0
 16 17  2  0
 17 18  1  0
 18 19  2  0
  8  3  1  0
 19 14  1  0
  1 20  1  0
  1 21  1  0
  1 22  1  0
  4 23  1  0
  5 24  1  0
  6 25  1  0
  7 26  1  0
 15 27  1  0
 16 28  1  0
 17 29  1  0
 19 30  1  0
M  END
>  <UniqueID>  (41) 
36

>  <SMILES>  (41) 
CN(c1ccccc1C#N)S(=O)(=O)c1cccnc1

>  <Energy>  (41) 
36.74701557224534

>  <Genealogy>  (41) 
CN(c1ccccc1C#N)S(=O)(=O)c1cccnc1 (3D coordinates assigned)
CN(c1ccccc1C#N)S(=O)(=O)c1cccnc1 (optimized conformer: 36.74701557224534 kcal/mol)

>  <smiles>  (41) 
CN(c1ccccc1C#N)S(=O)(=O)c1cccnc1

>  <score_type>  (41) 
oracle

>  <origin>  (41) 
adg

>  <m_score__min__energy>  (41) 
-6.9000000000000004

>  <m_primary>  (41) 
energy

$$$$
41:0
     RDKit          3D

 39 41  0  0  0  0  0  0  0  0999 V2000
   -9.1050   20.7400  -32.2010 C   0  0  0  0  0  0  0  0  0  0  0  0
   -7.8480   21.5020  -31.9510 C   0  0  0  0  0  0  0  0  0  0  0  0
   -6.6610   21.3600  -32.6560 C   0  0  0  0  0  0  0  0  0  0  0  0
   -5.6200   22.1470  -32.1480 C   0  0  0  0  0  0  0  0  0  0  0  0
   -5.9850   22.8940  -31.0310 C   0  0  0  0  0  0  0  0  0  0  0  0
   -5.0980   23.7930  -30.2730 C   0  0  0  0  0  0  0  0  0  0  0  0
   -4.4510   24.6830  -30.8880 O   0  0  0  0  0  0  0  0  0  0  0  0
   -4.9980   23.6850  -28.8430 N   0  0  0  0  0  0  0  0  0  0  0  0
   -3.9660   24.3120  -28.0610 C   0  0  0  0  0  0  0  0  0  0  0  0
   -4.2450   24.7080  -26.7460 C   0  0  0  0  0  0  0  0  0  0  0  0
   -3.2540   25.3000  -25.9580 C   0  0  0  0  0  0  0  0  0  0  0  0
   -1.9590   25.4890  -26.4660 C   0  0  0  0  0  0  0  0  0  0  0  0
   -0.9430   26.1070  -25.6550 N   0  0  0  0  0  0  0  0  0  0  0  0
   -0.2040   27.2650  -26.1710 C   0  0  0  0  0  0  0  0  0  0  0  0
    0.6140   27.9160  -25.0530 C   0  0  0  0  0  0  0  0  0  0  0  0
   -0.1280   27.8910  -23.8550 O   0  0  0  0  0  0  0  0  0  0  0  0
   -0.1620   26.5740  -23.3320 C   0  0  0  0  0  0  0  0  0  0  0  0
   -0.5430   25.4980  -24.3780 C   0  0  0  0  0  0  0  0  0  0  0  0
   -1.6750   25.0770  -27.7790 C   0  0  0  0  0  0  0  0  0  0  0  0
   -2.6660   24.4850  -28.5660 C   0  0  0  0  0  0  0  0  0  0  0  0
   -7.6010   22.5700  -30.6770 S   0  0  0  0  0  0  0  0  0  0  0  0
   -9.5628   20.4625  -31.2401 H   0  0  0  0  0  0  0  0  0  0  0  0
   -9.8054   21.3657  -32.7737 H   0  0  0  0  0  0  0  0  0  0  0  0
   -8.8742   19.8296  -32.7737 H   0  0  0  0  0  0  0  0  0  0  0  0
   -6.5492   20.6962  -33.5260 H   0  0  0  0  0  0  0  0  0  0  0  0
   -4.6123   22.1726  -32.5884 H   0  0  0  0  0  0  0  0  0  0  0  0
   -5.7680   23.2000  -28.3290 H   0  0  0  0  0  0  0  0  0  0  0  0
   -5.2516   24.5517  -26.3308 H   0  0  0  0  0  0  0  0  0  0  0  0
   -3.4904   25.6201  -24.9325 H   0  0  0  0  0  0  0  0  0  0  0  0
    0.4743   26.9349  -26.9716 H   0  0  0  0  0  0  0  0  0  0  0  0
   -0.9214   28.0007  -26.5635 H   0  0  0  0  0  0  0  0  0  0  0  0
    1.5534   27.3608  -24.9145 H   0  0  0  0  0  0  0  0  0  0  0  0
    0.8414   28.9579  -25.3228 H   0  0  0  0  0  0  0  0  0  0  0  0
    0.8344   26.3330  -22.9332 H   0  0  0  0  0  0  0  0  0  0  0  0
   -0.9407   26.5568  -22.5553 H   0  0  0  0  0  0  0  0  0  0  0  0
    0.3243   24.8436  -24.5500 H   0  0  0  0  0  0  0  0  0  0  0  0
   -1.3955   24.9230  -23.9874 H   0  0  0  0  0  0  0  0  0  0  0  0
   -0.6651   25.2216  -28.1902 H   0  0  0  0  0  0  0  0  0  0  0  0
   -2.4273   24.1523  -29.5870 H   0  0  0  0  0  0  0  0  0  0  0  0
  1  2  1  0
  2  3  2  0
  3  4  1  0
  4  5  2  0
  5  6  1  0
  6  7  2  0
  6  8  1  0
  8  9  1  0
  9 10  2  0
 10 11  1  0
 11 12  2  0
 12 13  1  0
 13 14  1  0
 14 15  1  0
 15 16  1  0
 16 17  1  0
 17 18  1  0
 12 19  1  0
 19 20  2  0
  5 21  1  0
 21  2  1  0
 20  9  1  0
 18 13  1  0
  1 22  1  0
  1 23  1  0
  1 24  1  0
  3 25  1  0
  4 26  1  0
  8 27  1  0
 10 28  1  0
 11 29  1  0
 14 30  1  0
 14 31  1  0
 15 32  1  0
 15 33  1  0
 17 34  1  0
 17 35  1  0
 18 36  1  0
 18 37  1  0
 19 38  1  0
 20 39  1  0
M  END
>  <UniqueID>  (42) 
37

>  <SMILES>  (42) 
Cc1ccc(C(=O)Nc2ccc(N3CCOCC3)cc2)s1

>  <Energy>  (42) 
78.77657841433069

>  <Genealogy>  (42) 
Cc1ccc(C(=O)Nc2ccc(N3CCOCC3)cc2)s1 (3D coordinates assigned)
Cc1ccc(C(=O)Nc2ccc(N3CCOCC3)cc2)s1 (nonaromatic ring conformer: 78.77657841433069 kcal/mol)

>  <smiles>  (42) 
Cc1ccc(C(=O)Nc2ccc(N3CCOCC3)cc2)s1

>  <score_type>  (42) 
oracle

>  <origin>  (42) 
adg

>  <m_score__min__energy>  (42) 
-7.6699999999999999

>  <m_primary>  (42) 
energy

$$$$
42:0
     RDKit          3D

 35 38  0  0  0  0  0  0  0  0999 V2000
   -1.6130   25.6040  -29.2020 O   0  0  0  0  0  0  0  0  0  0  0  0
   -2.6580   24.9060  -29.2980 C   0  0  0  0  0  0  0  0  0  0  0  0
   -3.4850   24.9920  -30.4690 N   0  0  0  0  0  0  0  0  0  0  0  0
   -4.8630   24.6010  -30.5710 C   0  0  0  0  0  0  0  0  0  0  0  0
   -5.8950   25.3560  -29.9860 C   0  0  0  0  0  0  0  0  0  0  0  0
   -7.2200   24.9310  -30.0960 C   0  0  0  0  0  0  0  0  0  0  0  0
   -7.5280   23.7510  -30.7800 C   0  0  0  0  0  0  0  0  0  0  0  0
   -6.5060   22.9710  -31.3500 C   0  0  0  0  0  0  0  0  0  0  0  0
   -6.8030   21.7110  -32.0690 C   0  0  0  0  0  0  0  0  0  0  0  0
   -5.8900   20.8210  -32.5100 N   0  0  0  0  0  0  0  0  0  0  0  0
   -6.6550   19.8680  -33.0760 C   0  0  0  0  0  0  0  0  0  0  0  0
   -6.1230   18.6590  -33.7130 C   0  0  0  0  0  0  0  0  0  0  0  0
   -6.5170   17.3620  -33.4450 C   0  0  0  0  0  0  0  0  0  0  0  0
   -5.7560   16.5670  -34.2760 C   0  0  0  0  0  0  0  0  0  0  0  0
   -4.9470   17.4250  -34.9940 C   0  0  0  0  0  0  0  0  0  0  0  0
   -5.1890   18.6660  -34.6370 O   0  0  0  0  0  0  0  0  0  0  0  0
   -7.9680   20.1620  -32.9890 N   0  0  0  0  0  0  0  0  0  0  0  0
   -8.0180   21.3020  -32.3630 O   0  0  0  0  0  0  0  0  0  0  0  0
   -5.1730   23.4050  -31.2310 C   0  0  0  0  0  0  0  0  0  0  0  0
   -2.9810   23.9400  -28.1940 C   0  0  0  0  0  0  0  0  0  0  0  0
   -2.4750   24.2600  -26.7930 C   0  0  0  0  0  0  0  0  0  0  0  0
   -3.9310   24.5200  -27.1530 C   0  0  0  0  0  0  0  0  0  0  0  0
   -5.6580   26.2819  -29.4415 H   0  0  0  0  0  0  0  0  0  0  0  0
   -8.0256   25.5271  -29.6425 H   0  0  0  0  0  0  0  0  0  0  0  0
   -8.5763   23.4308  -30.8728 H   0  0  0  0  0  0  0  0  0  0  0  0
   -4.8480   20.8440  -32.4380 H   0  0  0  0  0  0  0  0  0  0  0  0
   -7.2773   17.0330  -32.7214 H   0  0  0  0  0  0  0  0  0  0  0  0
   -5.7872   15.4700  -34.3516 H   0  0  0  0  0  0  0  0  0  0  0  0
   -4.2109   17.1161  -35.7508 H   0  0  0  0  0  0  0  0  0  0  0  0
   -4.3637   22.7972  -31.6619 H   0  0  0  0  0  0  0  0  0  0  0  0
   -2.9255   23.0414  -28.8260 H   0  0  0  0  0  0  0  0  0  0  0  0
   -2.2167   23.4441  -26.1020 H   0  0  0  0  0  0  0  0  0  0  0  0
   -1.6551   24.8676  -26.3823 H   0  0  0  0  0  0  0  0  0  0  0  0
   -4.7246   23.8919  -26.7222 H   0  0  0  0  0  0  0  0  0  0  0  0
   -4.5987   25.3931  -27.1103 H   0  0  0  0  0  0  0  0  0  0  0  0
  1  2  2  0
  2  3  1  0
  3  4  1  0
  4  5  2  0
  5  6  1  0
  6  7  2  0
  7  8  1  0
  8  9  1  0
  9 10  2  0
 10 11  1  0
 11 12  1  0
 12 13  2  0
 13 14  1  0
 14 15  2  0
 15 16  1  0
 11 17  2  0
 17 18  1  0
  8 19  2  0
  2 20  1  0
 20 21  1  0
 21 22  1  0
 19  4  1  0
 22 20  1  0
 18  9  1  0
 16 12  1  0
  5 23  1  0
  6 24  1  0
  7 25  1  0
 10 26  1  0
 13 27  1  0
 14 28  1  0
 15 29  1  0
 19 30  1  0
 20 31  1  0
 21 32  1  0
 21 33  1  0
 22 34  1  0
 22 35  1  0
M  CHG  2   3  -1  10   1
M  END
>  <UniqueID>  (43) 
38

>  <SMILES>  (43) 
O=C([N-]c1cccc(-c2[nH+]c(-c3ccco3)no2)c1)C1CC1

>  <Energy>  (43) 
366.95163863759393

>  <Genealogy>  (43) 
O=C([N-]c1cccc(-c2[nH+]c(-c3ccco3)no2)c1)C1CC1 (protonated)
O=C([N-]c1cccc(-c2[nH+]c(-c3ccco3)no2)c1)C1CC1 (3D coordinates assigned)
O=C([N-]c1cccc(-c2[nH+]c(-c3ccco3)no2)c1)C1CC1 (nonaromatic ring conformer: 366.95163863759393 kcal/mol)

>  <smiles>  (43) 
O=C(Nc1cccc(-c2nc(-c3ccco3)no2)c1)C1CC1

>  <score_type>  (43) 
oracle

>  <origin>  (43) 
adg

>  <m_score__min__energy>  (43) 
-9.4100000000000001

>  <m_primary>  (43) 
energy

$$$$
43:0
     RDKit          3D

 32 34  0  0  0  0  0  0  0  0999 V2000
   -6.8420   25.2910  -29.7190 C   0  0  0  0  0  0  0  0  0  0  0  0
   -5.8580   24.2800  -30.2510 C   0  0  0  0  0  0  0  0  0  0  0  0
   -4.4840   24.5070  -30.0640 C   0  0  0  0  0  0  0  0  0  0  0  0
   -3.5380   23.5990  -30.5400 C   0  0  0  0  0  0  0  0  0  0  0  0
   -3.9450   22.4480  -31.2100 C   0  0  0  0  0  0  0  0  0  0  0  0
   -5.3080   22.1910  -31.4120 C   0  0  0  0  0  0  0  0  0  0  0  0
   -5.7090   21.0290  -32.0890 C   0  0  0  0  0  0  0  0  0  0  0  0
   -7.0690   20.7570  -32.2910 C   0  0  0  0  0  0  0  0  0  0  0  0
   -7.4910   19.5330  -33.0570 C   0  0  0  0  0  0  0  0  0  0  0  0
   -6.8360   18.3520  -32.5060 N   0  0  0  0  0  0  0  0  0  0  0  0
   -5.9510   17.5520  -33.1320 C   0  0  0  0  0  0  0  0  0  0  0  0
   -5.5120   16.6090  -32.2270 C   0  0  0  0  0  0  0  0  0  0  0  0
   -6.1150   16.8340  -31.0440 N   0  0  0  0  0  0  0  0  0  0  0  0
   -6.9090   17.9040  -31.2370 C   0  0  0  0  0  0  0  0  0  0  0  0
   -8.0300   21.6670  -31.8340 C   0  0  0  0  0  0  0  0  0  0  0  0
   -7.6450   22.8270  -31.1580 C   0  0  0  0  0  0  0  0  0  0  0  0
   -6.2820   23.1090  -30.9340 C   0  0  0  0  0  0  0  0  0  0  0  0
   -6.8261   25.2746  -28.6192 H   0  0  0  0  0  0  0  0  0  0  0  0
   -6.5653   26.2944  -30.0748 H   0  0  0  0  0  0  0  0  0  0  0  0
   -7.8525   25.0415  -30.0748 H   0  0  0  0  0  0  0  0  0  0  0  0
   -4.1501   25.4121  -29.5356 H   0  0  0  0  0  0  0  0  0  0  0  0
   -2.4663   23.7929  -30.3855 H   0  0  0  0  0  0  0  0  0  0  0  0
   -3.1930   21.7369  -31.5826 H   0  0  0  0  0  0  0  0  0  0  0  0
   -4.9502   20.3264  -32.4639 H   0  0  0  0  0  0  0  0  0  0  0  0
   -8.5819   19.4136  -32.9815 H   0  0  0  0  0  0  0  0  0  0  0  0
   -7.2016   19.6485  -34.1120 H   0  0  0  0  0  0  0  0  0  0  0  0
   -5.6340   17.6364  -34.1819 H   0  0  0  0  0  0  0  0  0  0  0  0
   -4.7895   15.8064  -32.4364 H   0  0  0  0  0  0  0  0  0  0  0  0
   -5.9820   16.3000  -30.1580 H   0  0  0  0  0  0  0  0  0  0  0  0
   -7.5386   18.3561  -30.4565 H   0  0  0  0  0  0  0  0  0  0  0  0
   -9.0974   21.4666  -32.0089 H   0  0  0  0  0  0  0  0  0  0  0  0
   -8.4126   23.5272  -30.7969 H   0  0  0  0  0  0  0  0  0  0  0  0
  1  2  1  0
  2  3  2  0
  3  4  1  0
  4  5  2  0
  5  6  1  0
  6  7  2  0
  7  8  1  0
  8  9  1  0
  9 10  1  0
 10 11  1  0
 11 12  2  0
 12 13  1  0
 13 14  2  0
  8 15  2  0
 15 16  1  0
 16 17  2  0
 17  2  1  0
 17  6  1  0
 14 10  1  0
  1 18  1  0
  1 19  1  0
  1 20  1  0
  3 21  1  0
  4 22  1  0
  5 23  1  0
  7 24  1  0
  9 25  1  0
  9 26  1  0
 11 27  1  0
 12 28  1  0
 13 29  1  0
 14 30  1  0
 15 31  1  0
 16 32  1  0
M  CHG  1  13   1
M  END
>  <UniqueID>  (44) 
39

>  <SMILES>  (44) 
Cc1cccc2cc(Cn3cc[nH+]c3)ccc12

>  <Energy>  (44) 
67.1359829806651

>  <Genealogy>  (44) 
Cc1cccc2cc(Cn3cc[nH+]c3)ccc12 (protonated)
Cc1cccc2cc(Cn3cc[nH+]c3)ccc12 (3D coordinates assigned)
Cc1cccc2cc(Cn3cc[nH+]c3)ccc12 (optimized conformer: 67.1359829806651 kcal/mol)

>  <smiles>  (44) 
Cc1cccc2cc(Cn3ccnc3)ccc12

>  <score_type>  (44) 
oracle

>  <origin>  (44) 
adg

>  <m_score__min__energy>  (44) 
-6.5599999999999996

>  <m_primary>  (44) 
energy

$$$$
44:0
     RDKit          3D

 63 66  0  0  0  0  0  0  0  0999 V2000
   -2.7320   19.8820  -27.4080 C   0  0  0  0  0  0  0  0  0  0  0  0
   -2.2860   21.1290  -28.1670 C   0  0  0  0  0  0  0  0  0  0  0  0
   -2.7700   22.3560  -27.5000 N   0  0  0  0  0  0  0  0  0  0  0  0
   -4.1840   22.6440  -27.8120 C   0  0  0  0  0  0  0  0  0  0  0  0
   -1.8920   23.5260  -27.7410 C   0  0  0  0  0  0  0  0  0  0  0  0
   -1.8070   23.9750  -29.2120 C   0  0  0  0  0  0  0  0  0  0  0  0
   -2.8700   24.9250  -29.5230 N   0  0  0  0  0  0  0  0  0  0  0  0
   -3.9010   24.7190  -30.4980 C   0  0  0  0  0  0  0  0  0  0  0  0
   -4.6340   25.6940  -30.8080 O   0  0  0  0  0  0  0  0  0  0  0  0
   -4.1490   23.3900  -31.1090 C   0  0  0  0  0  0  0  0  0  0  0  0
   -3.0700   22.6490  -31.4740 N   0  0  0  0  0  0  0  0  0  0  0  0
   -3.1600   21.4270  -31.9980 N   0  0  0  0  0  0  0  0  0  0  0  0
   -1.9300   20.7880  -32.3890 C   0  0  0  0  0  0  0  0  0  0  0  0
   -1.5260   20.7250  -33.7330 C   0  0  0  0  0  0  0  0  0  0  0  0
   -0.3320   20.0830  -34.0590 C   0  0  0  0  0  0  0  0  0  0  0  0
    0.4430   19.4960  -33.0570 C   0  0  0  0  0  0  0  0  0  0  0  0
    0.0010   19.5430  -31.7250 C   0  0  0  0  0  0  0  0  0  0  0  0
    0.7690   18.9410  -30.6630 N   0  0  0  0  0  0  0  0  0  0  0  0
    2.1690   19.3210  -30.4380 C   0  0  0  0  0  0  0  0  0  0  0  0
    2.6130   18.9600  -29.0100 C   0  0  0  0  0  0  0  0  0  0  0  0
    1.5520   19.2390  -28.0160 N   0  0  0  0  0  0  0  0  0  0  0  0
    1.3410   20.6850  -27.8340 C   0  0  0  0  0  0  0  0  0  0  0  0
    0.2750   18.5240  -28.2860 C   0  0  0  0  0  0  0  0  0  0  0  0
    0.1470   18.0010  -29.7260 C   0  0  0  0  0  0  0  0  0  0  0  0
   -1.1680   20.1810  -31.4370 N   0  0  0  0  0  0  0  0  0  0  0  0
   -4.3850   20.8510  -32.2060 C   0  0  0  0  0  0  0  0  0  0  0  0
   -4.4730   19.7150  -32.7510 O   0  0  0  0  0  0  0  0  0  0  0  0
   -5.5520   21.5470  -31.8440 C   0  0  0  0  0  0  0  0  0  0  0  0
   -6.8280   20.9820  -32.0420 C   0  0  0  0  0  0  0  0  0  0  0  0
   -7.9780   21.7040  -31.7230 C   0  0  0  0  0  0  0  0  0  0  0  0
   -7.8740   22.9980  -31.2190 C   0  0  0  0  0  0  0  0  0  0  0  0
   -6.6190   23.5750  -31.0150 C   0  0  0  0  0  0  0  0  0  0  0  0
   -5.4400   22.8500  -31.3010 C   0  0  0  0  0  0  0  0  0  0  0  0
   -2.6655   20.0680  -26.3259 H   0  0  0  0  0  0  0  0  0  0  0  0
   -3.7716   19.6421  -27.6756 H   0  0  0  0  0  0  0  0  0  0  0  0
   -2.0803   19.0372  -27.6756 H   0  0  0  0  0  0  0  0  0  0  0  0
   -1.1870   21.1514  -28.2080 H   0  0  0  0  0  0  0  0  0  0  0  0
   -2.7086   21.0916  -29.1819 H   0  0  0  0  0  0  0  0  0  0  0  0
   -4.7499   22.7593  -26.8758 H   0  0  0  0  0  0  0  0  0  0  0  0
   -4.2485   23.5737  -28.3963 H   0  0  0  0  0  0  0  0  0  0  0  0
   -4.6070   21.8136  -28.3963 H   0  0  0  0  0  0  0  0  0  0  0  0
   -2.2741   24.3692  -27.1469 H   0  0  0  0  0  0  0  0  0  0  0  0
   -0.8767   23.2173  -27.4513 H   0  0  0  0  0  0  0  0  0  0  0  0
   -0.8322   24.4534  -29.3879 H   0  0  0  0  0  0  0  0  0  0  0  0
   -1.9209   23.0924  -29.8585 H   0  0  0  0  0  0  0  0  0  0  0  0
   -2.1458   21.1779  -34.5208 H   0  0  0  0  0  0  0  0  0  0  0  0
   -0.0003   20.0389  -35.1069 H   0  0  0  0  0  0  0  0  0  0  0  0
    1.3923   19.0006  -33.3090 H   0  0  0  0  0  0  0  0  0  0  0  0
    2.8070   18.7888  -31.1589 H   0  0  0  0  0  0  0  0  0  0  0  0
    2.2637   20.4088  -30.5711 H   0  0  0  0  0  0  0  0  0  0  0  0
    2.8610   17.8889  -28.9746 H   0  0  0  0  0  0  0  0  0  0  0  0
    3.4877   19.5776  -28.7581 H   0  0  0  0  0  0  0  0  0  0  0  0
    1.3070   20.9182  -26.7595 H   0  0  0  0  0  0  0  0  0  0  0  0
    2.1679   21.2381  -28.3033 H   0  0  0  0  0  0  0  0  0  0  0  0
    0.3905   20.9788  -28.3033 H   0  0  0  0  0  0  0  0  0  0  0  0
    0.2054   17.6678  -27.5990 H   0  0  0  0  0  0  0  0  0  0  0  0
   -0.5363   19.2517  -28.1370 H   0  0  0  0  0  0  0  0  0  0  0  0
    0.6483   17.0250  -29.8040 H   0  0  0  0  0  0  0  0  0  0  0  0
   -0.9190   17.8968  -29.9766 H   0  0  0  0  0  0  0  0  0  0  0  0
   -6.9175   19.9647  -32.4509 H   0  0  0  0  0  0  0  0  0  0  0  0
   -8.9692   21.2503  -31.8699 H   0  0  0  0  0  0  0  0  0  0  0  0
   -8.7842   23.5678  -30.9806 H   0  0  0  0  0  0  0  0  0  0  0  0
   -6.5473   24.6024  -30.6285 H   0  0  0  0  0  0  0  0  0  0  0  0
  1  2  1  0
  2  3  1  0
  3  4  1  0
  3  5  1  0
  5  6  1  0
  6  7  1  0
  7  8  1  0
  8  9  2  0
  8 10  1  0
 10 11  2  0
 11 12  1  0
 12 13  1  0
 13 14  2  0
 14 15  1  0
 15 16  2  0
 16 17  1  0
 17 18  1  0
 18 19  1  0
 19 20  1  0
 20 21  1  0
 21 22  1  0
 21 23  1  0
 23 24  1  0
 17 25  2  0
 12 26  1  0
 26 27  2  0
 26 28  1  0
 28 29  2  0
 29 30  1  0
 30 31  2  0
 31 32  1  0
 32 33  2  0
 33 10  1  0
 25 13  1  0
 33 28  1  0
 24 18  1  0
  1 34  1  0
  1 35  1  0
  1 36  1  0
  2 37  1  0
  2 38  1  0
  4 39  1  0
  4 40  1  0
  4 41  1  0
  5 42  1  0
  5 43  1  0
  6 44  1  0
  6 45  1  0
 14 46  1  0
 15 47  1  0
 16 48  1  0
 19 49  1  0
 19 50  1  0
 20 51  1  0
 20 52  1  0
 22 53  1  0
 22 54  1  0
 22 55  1  0
 23 56  1  0
 23 57  1  0
 24 58  1  0
 24 59  1  0
 29 60  1  0
 30 61  1  0
 31 62  1  0
 32 63  1  0
M  CHG  1   7  -1
M  END
>  <UniqueID>  (45) 
40

>  <SMILES>  (45) 
CCN(C)CC[N-]C(=O)c1nn(-c2cccc(N3CCN(C)CC3)n2)c(=O)c2ccccc12

>  <Energy>  (45) 
92.48618926682845

>  <Genealogy>  (45) 
CCN(C)CC[N-]C(=O)c1nn(-c2cccc(N3CCN(C)CC3)n2)c(=O)c2ccccc12 (protonated)
CCN(C)CC[N-]C(=O)c1nn(-c2cccc(N3CCN(C)CC3)n2)c(=O)c2ccccc12 (3D coordinates assigned)
CCN(C)CC[N-]C(=O)c1nn(-c2cccc(N3CCN(C)CC3)n2)c(=O)c2ccccc12 (nonaromatic ring conformer: 92.48618926682845 kcal/mol)

>  <smiles>  (45) 
CCN(C)CCNC(=O)c1nn(-c2cccc(N3CCN(C)CC3)n2)c(=O)c2ccccc12

>  <score_type>  (45) 
oracle

>  <origin>  (45) 
adg

>  <m_score__min__energy>  (45) 
-10.390000000000001

>  <m_primary>  (45) 
energy

$$$$
45:0
     RDKit          3D

 47 46  0  0  0  0  0  0  0  0999 V2000
   -1.9010   19.6130  -33.7840 C   0  0  0  0  0  0  0  0  0  0  0  0
   -2.8580   20.1610  -33.0900 C   0  0  0  0  0  0  0  0  0  0  0  0
   -3.8210   20.7130  -32.4090 C   0  0  0  0  0  0  0  0  0  0  0  0
   -4.6170   21.8530  -32.9910 C   0  0  0  0  0  0  0  0  0  0  0  0
   -6.0250   21.8150  -32.5480 N   0  0  0  0  0  0  0  0  0  0  0  0
   -6.3900   23.0310  -31.7920 C   0  0  0  0  0  0  0  0  0  0  0  0
   -7.8840   23.3590  -31.9620 C   0  0  0  0  0  0  0  0  0  0  0  0
   -8.7810   22.1690  -31.5880 C   0  0  0  0  0  0  0  0  0  0  0  0
   -8.4230   20.9690  -32.3580 N   0  0  0  0  0  0  0  0  0  0  0  0
   -9.4900   19.9540  -32.3630 C   0  0  0  0  0  0  0  0  0  0  0  0
   -9.0610   18.7400  -31.5360 C   0  0  0  0  0  0  0  0  0  0  0  0
   -7.9940   17.8770  -32.2510 C   0  0  0  0  0  0  0  0  0  0  0  0
   -6.6310   18.5810  -32.3390 C   0  0  0  0  0  0  0  0  0  0  0  0
   -6.5880   19.4720  -33.5130 N   0  0  0  0  0  0  0  0  0  0  0  0
   -5.7740   18.9290  -34.6210 C   0  0  0  0  0  0  0  0  0  0  0  0
   -5.6420   17.3970  -34.5680 C   0  0  0  0  0  0  0  0  0  0  0  0
   -4.1840   16.9310  -34.6160 C   0  0  0  0  0  0  0  0  0  0  0  0
   -1.0726   19.1023  -33.2711 H   0  0  0  0  0  0  0  0  0  0  0  0
   -1.9215   19.6610  -34.8828 H   0  0  0  0  0  0  0  0  0  0  0  0
   -4.0557   20.3439  -31.3997 H   0  0  0  0  0  0  0  0  0  0  0  0
   -4.1670   22.8036  -32.6688 H   0  0  0  0  0  0  0  0  0  0  0  0
   -4.5987   21.7610  -34.0870 H   0  0  0  0  0  0  0  0  0  0  0  0
   -6.6330   21.7560  -33.4000 H   0  0  0  0  0  0  0  0  0  0  0  0
   -6.1890   20.9570  -31.9650 H   0  0  0  0  0  0  0  0  0  0  0  0
   -6.1765   22.8688  -30.7252 H   0  0  0  0  0  0  0  0  0  0  0  0
   -5.7999   23.8746  -32.1794 H   0  0  0  0  0  0  0  0  0  0  0  0
   -8.1364   24.2113  -31.3141 H   0  0  0  0  0  0  0  0  0  0  0  0
   -8.0609   23.5980  -33.0210 H   0  0  0  0  0  0  0  0  0  0  0  0
   -8.6639   21.9549  -30.5154 H   0  0  0  0  0  0  0  0  0  0  0  0
   -9.8234   22.4329  -31.8200 H   0  0  0  0  0  0  0  0  0  0  0  0
   -7.5720   20.5480  -31.9220 H   0  0  0  0  0  0  0  0  0  0  0  0
  -10.4048   20.3849  -31.9300 H   0  0  0  0  0  0  0  0  0  0  0  0
   -9.6814   19.6362  -33.3986 H   0  0  0  0  0  0  0  0  0  0  0  0
   -8.6452   19.0939  -30.5811 H   0  0  0  0  0  0  0  0  0  0  0  0
   -9.9502   18.1105  -31.3842 H   0  0  0  0  0  0  0  0  0  0  0  0
   -7.8700   16.9364  -31.6943 H   0  0  0  0  0  0  0  0  0  0  0  0
   -8.3438   17.6957  -33.2780 H   0  0  0  0  0  0  0  0  0  0  0  0
   -6.4701   19.1748  -31.4271 H   0  0  0  0  0  0  0  0  0  0  0  0
   -5.8423   17.8207  -32.4388 H   0  0  0  0  0  0  0  0  0  0  0  0
   -7.5650   19.6750  -33.8300 H   0  0  0  0  0  0  0  0  0  0  0  0
   -6.2467   19.2084  -35.5742 H   0  0  0  0  0  0  0  0  0  0  0  0
   -4.7629   19.3522  -34.5277 H   0  0  0  0  0  0  0  0  0  0  0  0
   -6.0969   17.0360  -33.6338 H   0  0  0  0  0  0  0  0  0  0  0  0
   -6.1527   16.9872  -35.4519 H   0  0  0  0  0  0  0  0  0  0  0  0
   -3.8040   16.8095  -33.5909 H   0  0  0  0  0  0  0  0  0  0  0  0
   -4.1238   15.9689  -35.1458 H   0  0  0  0  0  0  0  0  0  0  0  0
   -3.5770   17.6799  -35.1458 H   0  0  0  0  0  0  0  0  0  0  0  0
  1  2  2  0
  2  3  2  0
  3  4  1  0
  4  5  1  0
  5  6  1  0
  6  7  1  0
  7  8  1  0
  8  9  1  0
  9 10  1  0
 10 11  1  0
 11 12  1  0
 12 13  1  0
 13 14  1  0
 14 15  1  0
 15 16  1  0
 16 17  1  0
  1 18  1  0
  1 19  1  0
  3 20  1  0
  4 21  1  0
  4 22  1  0
  5 23  1  0
  5 24  1  0
  6 25  1  0
  6 26  1  0
  7 27  1  0
  7 28  1  0
  8 29  1  0
  8 30  1  0
  9 31  1  0
 10 32  1  0
 10 33  1  0
 11 34  1  0
 11 35  1  0
 12 36  1  0
 12 37  1  0
 13 38  1  0
 13 39  1  0
 14 40  1  0
 15 41  1  0
 15 42  1  0
 16 43  1  0
 16 44  1  0
 17 45  1  0
 17 46  1  0
 17 47  1  0
M  CHG  1   5   1
M  END
>  <UniqueID>  (46) 
41

>  <SMILES>  (46) 
C=C=CC[NH2+]CCCNCCCCNCCC

>  <Energy>  (46) 
27.641716449576492

>  <Genealogy>  (46) 
C=C=CC[NH2+]CCCNCCCCNCCC (protonated)
C=C=CC[NH2+]CCCNCCCCNCCC (3D coordinates assigned)
C=C=CC[NH2+]CCCNCCCCNCCC (optimized conformer: 27.641716449576492 kcal/mol)

>  <smiles>  (46) 
C=C=CCNCCCNCCCCNCCC

>  <score_type>  (46) 
oracle

>  <origin>  (46) 
adg

>  <m_score__min__energy>  (46) 
-4.8899999999999997

>  <m_primary>  (46) 
energy

$$$$
46:0
     RDKit          3D

 67 70  0  0  0  0  0  0  0  0999 V2000
    4.3820   19.7650  -34.4370 C   0  0  0  0  0  0  0  0  0  0  0  0
    3.2170   20.4450  -34.8960 O   0  0  0  0  0  0  0  0  0  0  0  0
    1.9330   20.2640  -34.3610 C   0  0  0  0  0  0  0  0  0  0  0  0
    1.7140   19.6490  -33.1150 C   0  0  0  0  0  0  0  0  0  0  0  0
    0.4140   19.4930  -32.6240 C   0  0  0  0  0  0  0  0  0  0  0  0
   -0.6890   19.9520  -33.3650 C   0  0  0  0  0  0  0  0  0  0  0  0
   -2.0970   19.7770  -32.8270 C   0  0  2  0  0  0  0  0  0  0  0  0
   -3.0060   19.1830  -33.9240 C   0  0  0  0  0  0  0  0  0  0  0  0
   -4.4270   19.2710  -33.5360 N   0  0  2  0  0  0  0  0  0  0  0  0
   -5.2650   18.5450  -34.5050 C   0  0  0  0  0  0  0  0  0  0  0  0
   -4.8480   20.6850  -33.4630 C   0  0  0  0  0  0  0  0  0  0  0  0
   -3.9760   21.4760  -32.5180 C   0  0  0  0  0  0  0  0  0  0  0  0
   -4.4750   22.6580  -31.9480 C   0  0  0  0  0  0  0  0  0  0  0  0
   -3.6770   23.4290  -31.0820 C   0  0  0  0  0  0  0  0  0  0  0  0
   -4.1200   24.6180  -30.4790 O   0  0  0  0  0  0  0  0  0  0  0  0
   -5.2800   24.7800  -29.6580 C   0  0  0  0  0  0  0  0  0  0  0  0
   -6.5650   24.7520  -30.4950 C   0  0  0  0  0  0  0  0  0  0  0  0
   -7.2430   23.3740  -30.5050 C   0  0  0  0  0  0  0  0  0  0  0  0
   -8.0230   23.1340  -31.8050 C   0  0  0  0  0  0  0  0  0  0  0  0
   -8.0430   21.6960  -32.1540 N   0  0  0  0  0  0  0  0  0  0  0  0
   -7.1200   20.9300  -31.2860 C   0  0  0  0  0  0  0  0  0  0  0  0
   -7.2820   19.4020  -31.4560 C   0  0  0  0  0  0  0  0  0  0  0  0
   -8.0670   19.0520  -32.7230 C   0  0  0  0  0  0  0  0  0  0  0  0
   -9.4450   19.7350  -32.7220 C   0  0  0  0  0  0  0  0  0  0  0  0
   -9.4070   21.1350  -32.0800 C   0  0  0  0  0  0  0  0  0  0  0  0
   -2.3820   22.9940  -30.7850 C   0  0  0  0  0  0  0  0  0  0  0  0
   -1.8740   21.8260  -31.3550 C   0  0  0  0  0  0  0  0  0  0  0  0
   -2.6490   21.0730  -32.2540 C   0  0  0  0  0  0  0  0  0  0  0  0
   -0.4650   20.5580  -34.6140 C   0  0  0  0  0  0  0  0  0  0  0  0
    0.8350   20.7150  -35.1030 C   0  0  0  0  0  0  0  0  0  0  0  0
    4.3933   19.7584  -33.3371 H   0  0  0  0  0  0  0  0  0  0  0  0
    4.3733   18.7301  -34.8098 H   0  0  0  0  0  0  0  0  0  0  0  0
    5.2788   20.2815  -34.8098 H   0  0  0  0  0  0  0  0  0  0  0  0
    2.5693   19.2892  -32.5242 H   0  0  0  0  0  0  0  0  0  0  0  0
    0.2531   19.0073  -31.6502 H   0  0  0  0  0  0  0  0  0  0  0  0
   -2.0678   19.0666  -31.9877 H   0  0  0  0  0  0  0  0  0  0  0  0
   -2.8530   19.7410  -34.8595 H   0  0  0  0  0  0  0  0  0  0  0  0
   -2.7444   18.1234  -34.0611 H   0  0  0  0  0  0  0  0  0  0  0  0
   -4.5620   18.8230  -32.5980 H   0  0  0  0  0  0  0  0  0  0  0  0
   -5.9895   17.9173  -33.9654 H   0  0  0  0  0  0  0  0  0  0  0  0
   -5.8039   19.2665  -35.1367 H   0  0  0  0  0  0  0  0  0  0  0  0
   -4.6277   17.9088  -35.1367 H   0  0  0  0  0  0  0  0  0  0  0  0
   -4.7815   21.1296  -34.4669 H   0  0  0  0  0  0  0  0  0  0  0  0
   -5.8812   20.7176  -33.0868 H   0  0  0  0  0  0  0  0  0  0  0  0
   -5.4993   22.9847  -32.1804 H   0  0  0  0  0  0  0  0  0  0  0  0
   -5.3144   23.9635  -28.9216 H   0  0  0  0  0  0  0  0  0  0  0  0
   -5.2151   25.7561  -29.1550 H   0  0  0  0  0  0  0  0  0  0  0  0
   -7.2702   25.4870  -30.0797 H   0  0  0  0  0  0  0  0  0  0  0  0
   -6.2879   24.9906  -31.5324 H   0  0  0  0  0  0  0  0  0  0  0  0
   -6.4715   22.5965  -30.4035 H   0  0  0  0  0  0  0  0  0  0  0  0
   -7.9541   23.3358  -29.6666 H   0  0  0  0  0  0  0  0  0  0  0  0
   -9.0567   23.4869  -31.6746 H   0  0  0  0  0  0  0  0  0  0  0  0
   -7.5272   23.6849  -32.6178 H   0  0  0  0  0  0  0  0  0  0  0  0
   -6.0859   21.2059  -31.5398 H   0  0  0  0  0  0  0  0  0  0  0  0
   -7.3589   21.1782  -30.2413 H   0  0  0  0  0  0  0  0  0  0  0  0
   -6.2844   18.9426  -31.5167 H   0  0  0  0  0  0  0  0  0  0  0  0
   -7.8413   19.0186  -30.5899 H   0  0  0  0  0  0  0  0  0  0  0  0
   -7.4990   19.3885  -33.6029 H   0  0  0  0  0  0  0  0  0  0  0  0
   -8.2152   17.9625  -32.7545 H   0  0  0  0  0  0  0  0  0  0  0  0
   -9.7915   19.8325  -33.7614 H   0  0  0  0  0  0  0  0  0  0  0  0
  -10.1276   19.1115  -32.1259 H   0  0  0  0  0  0  0  0  0  0  0  0
  -10.1019   21.7987  -32.6154 H   0  0  0  0  0  0  0  0  0  0  0  0
   -9.7031   21.0524  -31.0238 H   0  0  0  0  0  0  0  0  0  0  0  0
   -1.7567   23.5789  -30.0944 H   0  0  0  0  0  0  0  0  0  0  0  0
   -0.8580   21.4915  -31.0985 H   0  0  0  0  0  0  0  0  0  0  0  0
   -1.3191   20.9111  -35.2106 H   0  0  0  0  0  0  0  0  0  0  0  0
    0.9965   21.1968  -36.0786 H   0  0  0  0  0  0  0  0  0  0  0  0
  1  2  1  0
  2  3  1  0
  3  4  2  0
  4  5  1  0
  5  6  2  0
  6  7  1  0
  7  8  1  0
  8  9  1  0
  9 10  1  0
  9 11  1  0
 11 12  1  0
 12 13  2  0
 13 14  1  0
 14 15  1  0
 15 16  1  0
 16 17  1  0
 17 18  1  0
 18 19  1  0
 19 20  1  0
 20 21  1  0
 21 22  1  0
 22 23  1  0
 23 24  1  0
 24 25  1  0
 14 26  2  0
 26 27  1  0
 27 28  2  0
  6 29  1  0
 29 30  2  0
 30  3  1  0
 28  7  1  0
 28 12  1  0
 25 20  1  0
  1 31  1  0
  1 32  1  0
  1 33  1  0
  4 34  1  0
  5 35  1  0
  7 36  1  1
  8 37  1  0
  8 38  1  0
  9 39  1  1
 10 40  1  0
 10 41  1  0
 10 42  1  0
 11 43  1  0
 11 44  1  0
 13 45  1  0
 16 46  1  0
 16 47  1  0
 17 48  1  0
 17 49  1  0
 18 50  1  0
 18 51  1  0
 19 52  1  0
 19 53  1  0
 21 54  1  0
 21 55  1  0
 22 56  1  0
 22 57  1  0
 23 58  1  0
 23 59  1  0
 24 60  1  0
 24 61  1  0
 25 62  1  0
 25 63  1  0
 26 64  1  0
 27 65  1  0
 29 66  1  0
 30 67  1  0
M  CHG  1   9   1
M  END
>  <UniqueID>  (47) 
42

>  <SMILES>  (47) 
COc1ccc([C@@H]2C[N@H+](C)Cc3cc(OCCCCN4CCCCC4)ccc32)cc1

>  <Energy>  (47) 
74.1803748528677

>  <Genealogy>  (47) 
COc1ccc(C2C[NH+](C)Cc3cc(OCCCCN4CCCCC4)ccc32)cc1 (protonated)
COc1ccc([C@@H]2C[N@H+](C)Cc3cc(OCCCCN4CCCCC4)ccc32)cc1 (chirality)
COc1ccc([C@@H]2C[N@H+](C)Cc3cc(OCCCCN4CCCCC4)ccc32)cc1 (3D coordinates assigned)
COc1ccc([C@@H]2C[N@H+](C)Cc3cc(OCCCCN4CCCCC4)ccc32)cc1 (nonaromatic ring conformer: 74.1803748528677 kcal/mol)

>  <smiles>  (47) 
COc1ccc(C2CN(C)Cc3cc(OCCCCN4CCCCC4)ccc32)cc1

>  <score_type>  (47) 
oracle

>  <origin>  (47) 
adg

>  <m_score__min__energy>  (47) 
-8.6899999999999995

>  <m_primary>  (47) 
energy

$$$$
47:0
     RDKit          3D

 23 24  0  0  0  0  0  0  0  0999 V2000
   -4.1950   25.5610  -30.6090 N   0  0  0  0  0  0  0  0  0  0  0  0
   -5.6440   25.4450  -30.4740 C   0  0  0  0  0  0  0  0  0  0  0  0
   -6.1270   24.1180  -30.9780 C   0  0  0  0  0  0  0  0  0  0  0  0
   -7.4550   23.7350  -31.1120 C   0  0  0  0  0  0  0  0  0  0  0  0
   -7.6100   22.4630  -31.6780 C   0  0  0  0  0  0  0  0  0  0  0  0
   -6.4010   21.8520  -32.0020 C   0  0  0  0  0  0  0  0  0  0  0  0
   -6.2290   20.5240  -32.6160 C   0  0  0  0  0  0  0  0  0  0  0  0
   -5.5060   20.2880  -33.7380 N   0  0  0  0  0  0  0  0  0  0  0  0
   -5.5060   18.9770  -34.0970 C   0  0  0  0  0  0  0  0  0  0  0  0
   -6.2400   18.1580  -33.2480 C   0  0  0  0  0  0  0  0  0  0  0  0
   -6.4070   16.7450  -33.3920 N   0  0  0  0  0  0  0  0  0  0  0  0
   -7.2340   16.2890  -34.2060 O   0  0  0  0  0  0  0  0  0  0  0  0
   -5.6560   15.8760  -32.6320 O   0  0  0  0  0  0  0  0  0  0  0  0
   -6.9050   19.0980  -32.0190 S   0  0  0  0  0  0  0  0  0  0  0  0
   -5.1450   22.8960  -31.5850 S   0  0  0  0  0  0  0  0  0  0  0  0
   -3.8750   26.4130  -30.0940 H   0  0  0  0  0  0  0  0  0  0  0  0
   -3.9600   25.6920  -31.6200 H   0  0  0  0  0  0  0  0  0  0  0  0
   -5.9156   25.5471  -29.4130 H   0  0  0  0  0  0  0  0  0  0  0  0
   -6.1159   26.2391  -31.0712 H   0  0  0  0  0  0  0  0  0  0  0  0
   -8.3009   24.3673  -30.8044 H   0  0  0  0  0  0  0  0  0  0  0  0
   -8.5897   21.9932  -31.8496 H   0  0  0  0  0  0  0  0  0  0  0  0
   -4.9990   21.0210  -34.2800 H   0  0  0  0  0  0  0  0  0  0  0  0
   -4.9723   18.5982  -34.9811 H   0  0  0  0  0  0  0  0  0  0  0  0
  1  2  1  0
  2  3  1  0
  3  4  2  0
  4  5  1  0
  5  6  2  0
  6  7  1  0
  7  8  2  0
  8  9  1  0
  9 10  2  0
 10 11  1  0
 11 12  2  0
 11 13  1  0
 10 14  1  0
  6 15  1  0
 15  3  1  0
 14  7  1  0
  1 16  1  0
  1 17  1  0
  2 18  1  0
  2 19  1  0
  4 20  1  0
  5 21  1  0
  8 22  1  0
  9 23  1  0
M  CHG  3   8   1  11   1  13  -1
M  END
>  <UniqueID>  (48) 
43

>  <SMILES>  (48) 
NCc1ccc(-c2[nH+]cc([N+](=O)[O-])s2)s1

>  <Energy>  (48) 
76.927481324389

>  <Genealogy>  (48) 
NCc1ccc(-c2[nH+]cc([N+](=O)[O-])s2)s1 (protonated)
NCc1ccc(-c2[nH+]cc([N+](=O)[O-])s2)s1 (3D coordinates assigned)
NCc1ccc(-c2[nH+]cc([N+](=O)[O-])s2)s1 (optimized conformer: 76.927481324389 kcal/mol)

>  <smiles>  (48) 
NCc1ccc(-c2ncc([N+](=O)[O-])s2)s1

>  <score_type>  (48) 
oracle

>  <origin>  (48) 
adg

>  <m_score__min__energy>  (48) 
-6.6799999999999997

>  <m_primary>  (48) 
energy

$$$$
