0:0
     RDKit          3D

 62 64  0  0  0  0  0  0  0  0999 V2000
   -3.4780   18.8180  -26.1470 C   0  0  0  0  0  0  0  0  0  0  0  0
   -2.0520   18.6750  -26.7120 C   0  0  0  0  0  0  0  0  0  0  0  0
   -1.6080   19.7930  -27.5910 N   0  0  0  0  0  0  0  0  0  0  0  0
   -2.1540   21.0990  -27.1360 C   0  0  0  0  0  0  0  0  0  0  0  0
   -3.1250   21.7120  -28.1540 C   0  0  0  0  0  0  0  0  0  0  0  0
   -0.1270   19.8390  -27.7430 C   0  0  0  0  0  0  0  0  0  0  0  0
    0.3180   19.6820  -29.2060 C   0  0  0  0  0  0  0  0  0  0  0  0
   -0.8320   19.6090  -30.0330 O   0  0  0  0  0  0  0  0  0  0  0  0
   -0.9770   20.7640  -30.8390 C   0  0  0  0  0  0  0  0  0  0  0  0
   -2.3980   20.8800  -31.4100 C   0  0  0  0  0  0  0  0  0  0  0  0
   -2.4350   20.5650  -32.9110 C   0  0  0  0  0  0  0  0  0  0  0  0
   -3.6020   21.1790  -33.5400 N   0  0  0  0  0  0  0  0  0  0  0  0
   -4.9250   20.8430  -33.0930 C   0  0  0  0  0  0  0  0  0  0  0  0
   -5.4650   19.5820  -33.3910 C   0  0  0  0  0  0  0  0  0  0  0  0
   -4.7240   18.6390  -34.1340 C   0  0  0  0  0  0  0  0  0  0  0  0
   -5.2310   17.3640  -34.3710 C   0  0  0  0  0  0  0  0  0  0  0  0
   -6.4750   17.0050  -33.8640 C   0  0  0  0  0  0  0  0  0  0  0  0
   -7.2330   17.9280  -33.1430 C   0  0  0  0  0  0  0  0  0  0  0  0
   -6.7630   19.2490  -32.9230 C   0  0  0  0  0  0  0  0  0  0  0  0
   -7.5230   20.1920  -32.2550 N   0  0  0  0  0  0  0  0  0  0  0  0
   -8.9630   19.9470  -32.0160 C   0  0  0  0  0  0  0  0  0  0  0  0
   -6.9450   21.3790  -31.8390 C   0  0  0  0  0  0  0  0  0  0  0  0
   -7.6050   22.2580  -30.9450 C   0  0  0  0  0  0  0  0  0  0  0  0
   -7.0390   23.4780  -30.5800 C   0  0  0  0  0  0  0  0  0  0  0  0
   -5.7930   23.8660  -31.0820 C   0  0  0  0  0  0  0  0  0  0  0  0
   -5.2230   25.1350  -30.7120 N   0  0  0  0  0  0  0  0  0  0  0  0
   -5.9430   26.0540  -30.2690 O   0  0  0  0  0  0  0  0  0  0  0  0
   -3.8700   25.3560  -30.8350 O   0  0  0  0  0  0  0  0  0  0  0  0
   -5.1030   22.9890  -31.9330 C   0  0  0  0  0  0  0  0  0  0  0  0
   -5.6500   21.7400  -32.2930 C   0  0  0  0  0  0  0  0  0  0  0  0
   -3.4389   18.8141  -25.0477 H   0  0  0  0  0  0  0  0  0  0  0  0
   -3.9170   19.7647  -26.4949 H   0  0  0  0  0  0  0  0  0  0  0  0
   -4.0963   17.9774  -26.4949 H   0  0  0  0  0  0  0  0  0  0  0  0
   -1.3541   18.6096  -25.8643 H   0  0  0  0  0  0  0  0  0  0  0  0
   -2.0599   17.7732  -27.3419 H   0  0  0  0  0  0  0  0  0  0  0  0
   -2.0300   19.5940  -28.5300 H   0  0  0  0  0  0  0  0  0  0  0  0
   -2.6871   20.9476  -26.1858 H   0  0  0  0  0  0  0  0  0  0  0  0
   -1.3092   21.7934  -27.0171 H   0  0  0  0  0  0  0  0  0  0  0  0
   -3.9388   22.2257  -27.6212 H   0  0  0  0  0  0  0  0  0  0  0  0
   -2.5867   22.4343  -28.7853 H   0  0  0  0  0  0  0  0  0  0  0  0
   -3.5456   20.9154  -28.7853 H   0  0  0  0  0  0  0  0  0  0  0  0
    0.2369   20.8058  -27.3651 H   0  0  0  0  0  0  0  0  0  0  0  0
    0.2946   18.9982  -27.1726 H   0  0  0  0  0  0  0  0  0  0  0  0
    0.9296   20.5476  -29.5004 H   0  0  0  0  0  0  0  0  0  0  0  0
    0.9143   18.7643  -29.3167 H   0  0  0  0  0  0  0  0  0  0  0  0
   -0.7636   21.6541  -30.2290 H   0  0  0  0  0  0  0  0  0  0  0  0
   -0.2731   20.6868  -31.6808 H   0  0  0  0  0  0  0  0  0  0  0  0
   -3.0533   20.1723  -30.8812 H   0  0  0  0  0  0  0  0  0  0  0  0
   -2.7402   21.9158  -31.2689 H   0  0  0  0  0  0  0  0  0  0  0  0
   -1.5223   20.9560  -33.3844 H   0  0  0  0  0  0  0  0  0  0  0  0
   -2.4962   19.4745  -33.0416 H   0  0  0  0  0  0  0  0  0  0  0  0
   -3.5050   21.7390  -34.4180 H   0  0  0  0  0  0  0  0  0  0  0  0
   -3.7353   18.9139  -34.5302 H   0  0  0  0  0  0  0  0  0  0  0  0
   -4.6474   16.6407  -34.9594 H   0  0  0  0  0  0  0  0  0  0  0  0
   -6.8629   15.9895  -34.0320 H   0  0  0  0  0  0  0  0  0  0  0  0
   -8.2107   17.6271  -32.7385 H   0  0  0  0  0  0  0  0  0  0  0  0
   -9.1546   19.9144  -30.9333 H   0  0  0  0  0  0  0  0  0  0  0  0
   -9.5529   20.7577  -32.4685 H   0  0  0  0  0  0  0  0  0  0  0  0
   -9.2516   18.9868  -32.4685 H   0  0  0  0  0  0  0  0  0  0  0  0
   -8.5831   21.9719  -30.5310 H   0  0  0  0  0  0  0  0  0  0  0  0
   -7.5783   24.1430  -29.8894 H   0  0  0  0  0  0  0  0  0  0  0  0
   -4.1180   23.2810  -32.3262 H   0  0  0  0  0  0  0  0  0  0  0  0
  1  2  1  0
  2  3  1  0
  3  4  1  0
  4  5  1  0
  3  6  1  0
  6  7  1  0
  7  8  1  0
  8  9  1  0
  9 10  1  0
 10 11  1  0
 11 12  1  0
 12 13  1  0
 13 14  2  0
 14 15  1  0
 15 16  2  0
 16 17  1  0
 17 18  2  0
 18 19  1  0
 19 20  2  0
 20 21  1  0
 20 22  1  0
 22 23  2  0
 23 24  1  0
 24 25  2  0
 25 26  1  0
 26 27  2  0
 26 28  1  0
 25 29  1  0
 29 30  2  0
 30 13  1  0
 19 14  1  0
 30 22  1  0
  1 31  1  0
  1 32  1  0
  1 33  1  0
  2 34  1  0
  2 35  1  0
  3 36  1  0
  4 37  1  0
  4 38  1  0
  5 39  1  0
  5 40  1  0
  5 41  1  0
  6 42  1  0
  6 43  1  0
  7 44  1  0
  7 45  1  0
  9 46  1  0
  9 47  1  0
 10 48  1  0
 10 49  1  0
 11 50  1  0
 11 51  1  0
 12 52  1  0
 15 53  1  0
 16 54  1  0
 17 55  1  0
 18 56  1  0
 21 57  1  0
 21 58  1  0
 21 59  1  0
 23 60  1  0
 24 61  1  0
 29 62  1  0
M  CHG  4   3   1  20   1  26   1  28  -1
M  END
>  <UniqueID>  (1) 
1

>  <SMILES>  (1) 
CC[NH+](CC)CCOCCCNc1c2ccccc2[n+](C)c2ccc([N+](=O)[O-])cc12

>  <Energy>  (1) 
90.98860714089908

>  <Genealogy>  (1) 
CC[NH+](CC)CCOCCCNc1c2ccccc2[n+](C)c2ccc([N+](=O)[O-])cc12 (protonated)
CC[NH+](CC)CCOCCCNc1c2ccccc2[n+](C)c2ccc([N+](=O)[O-])cc12 (3D coordinates assigned)
CC[NH+](CC)CCOCCCNc1c2ccccc2[n+](C)c2ccc([N+](=O)[O-])cc12 (optimized conformer: 90.98860714089908 kcal/mol)

>  <smiles>  (1) 
CCN(CC)CCOCCCNc1c2ccccc2[n+](C)c2ccc([N+](=O)[O-])cc12

>  <score_type>  (1) 
oracle

>  <origin>  (1) 
adg

>  <m_score__min__energy>  (1) 
-8.8100000000000005

>  <m_primary>  (1) 
energy

$$$$
1:0
     RDKit          3D

 57 60  0  0  0  0  0  0  0  0999 V2000
   -6.1650   25.7130  -29.5700 C   0  0  0  0  0  0  0  0  0  0  0  0
   -4.9610   25.6830  -30.5050 C   0  0  0  0  0  0  0  0  0  0  0  0
   -4.6220   24.2730  -30.8350 N   0  0  0  0  0  0  0  0  0  0  0  0
   -3.3310   23.8650  -30.2340 C   0  0  0  0  0  0  0  0  0  0  0  0
   -3.5420   22.8440  -29.1170 C   0  0  0  0  0  0  0  0  0  0  0  0
   -5.6990   23.3420  -30.4320 C   0  0  0  0  0  0  0  0  0  0  0  0
   -6.6970   23.1290  -31.5770 C   0  0  0  0  0  0  0  0  0  0  0  0
   -6.0350   22.4900  -32.7140 N   0  0  0  0  0  0  0  0  0  0  0  0
   -5.8650   21.0630  -32.7640 C   0  0  0  0  0  0  0  0  0  0  0  0
   -6.9530   20.2050  -32.5200 C   0  0  0  0  0  0  0  0  0  0  0  0
   -8.2260   20.7230  -32.1940 C   0  0  0  0  0  0  0  0  0  0  0  0
   -9.3030   19.8750  -31.9570 C   0  0  0  0  0  0  0  0  0  0  0  0
   -9.1350   18.4970  -32.0380 C   0  0  0  0  0  0  0  0  0  0  0  0
   -7.8910   17.9590  -32.3640 C   0  0  0  0  0  0  0  0  0  0  0  0
   -6.7740   18.7960  -32.6190 C   0  0  0  0  0  0  0  0  0  0  0  0
   -5.5390   18.2740  -32.9580 N   0  0  0  0  0  0  0  0  0  0  0  0
   -5.3690   16.8110  -33.0950 C   0  0  0  0  0  0  0  0  0  0  0  0
   -4.4620   19.1080  -33.1550 C   0  0  0  0  0  0  0  0  0  0  0  0
   -3.2320   18.5900  -33.4440 N   0  0  0  0  0  0  0  0  0  0  0  0
   -2.1300   19.3580  -33.6320 C   0  0  0  0  0  0  0  0  0  0  0  0
   -0.8990   18.7600  -33.9280 C   0  0  0  0  0  0  0  0  0  0  0  0
    0.2410   19.5540  -34.1260 C   0  0  0  0  0  0  0  0  0  0  0  0
    1.5680   18.9120  -34.4040 C   0  0  0  0  0  0  0  0  0  0  0  0
    0.1460   20.9480  -33.9940 C   0  0  0  0  0  0  0  0  0  0  0  0
   -1.0820   21.5490  -33.6980 C   0  0  0  0  0  0  0  0  0  0  0  0
   -2.2260   20.7560  -33.5200 C   0  0  0  0  0  0  0  0  0  0  0  0
   -3.4660   21.3270  -33.2220 C   0  0  0  0  0  0  0  0  0  0  0  0
   -4.6040   20.5120  -33.0520 C   0  0  0  0  0  0  0  0  0  0  0  0
   -5.8188   25.7044  -28.5259 H   0  0  0  0  0  0  0  0  0  0  0  0
   -6.7501   26.6260  -29.7547 H   0  0  0  0  0  0  0  0  0  0  0  0
   -6.7948   24.8303  -29.7547 H   0  0  0  0  0  0  0  0  0  0  0  0
   -5.2017   26.2279  -31.4297 H   0  0  0  0  0  0  0  0  0  0  0  0
   -4.1018   26.1596  -30.0104 H   0  0  0  0  0  0  0  0  0  0  0  0
   -2.6970   23.4182  -31.0140 H   0  0  0  0  0  0  0  0  0  0  0  0
   -2.8480   24.7558  -29.8061 H   0  0  0  0  0  0  0  0  0  0  0  0
   -3.4392   23.3415  -28.1413 H   0  0  0  0  0  0  0  0  0  0  0  0
   -4.5489   22.4095  -29.2028 H   0  0  0  0  0  0  0  0  0  0  0  0
   -2.7898   22.0460  -29.2028 H   0  0  0  0  0  0  0  0  0  0  0  0
   -5.2541   22.3741  -30.1576 H   0  0  0  0  0  0  0  0  0  0  0  0
   -6.2354   23.7757  -29.5752 H   0  0  0  0  0  0  0  0  0  0  0  0
   -7.5188   22.4867  -31.2275 H   0  0  0  0  0  0  0  0  0  0  0  0
   -7.0914   24.1055  -31.8947 H   0  0  0  0  0  0  0  0  0  0  0  0
   -5.4560   23.0880  -33.3460 H   0  0  0  0  0  0  0  0  0  0  0  0
   -8.3677   21.8118  -32.1266 H   0  0  0  0  0  0  0  0  0  0  0  0
  -10.2881   20.2948  -31.7054 H   0  0  0  0  0  0  0  0  0  0  0  0
   -9.9871   17.8289  -31.8441 H   0  0  0  0  0  0  0  0  0  0  0  0
   -7.7733   16.8670  -32.4246 H   0  0  0  0  0  0  0  0  0  0  0  0
   -5.3158   16.3529  -32.0963 H   0  0  0  0  0  0  0  0  0  0  0  0
   -6.2245   16.3924  -33.6453 H   0  0  0  0  0  0  0  0  0  0  0  0
   -4.4403   16.5997  -33.6453 H   0  0  0  0  0  0  0  0  0  0  0  0
   -0.8254   17.6652  -34.0055 H   0  0  0  0  0  0  0  0  0  0  0  0
    2.0654   18.6714  -33.4528 H   0  0  0  0  0  0  0  0  0  0  0  0
    1.4147   17.9884  -34.9815 H   0  0  0  0  0  0  0  0  0  0  0  0
    2.1970   19.6054  -34.9815 H   0  0  0  0  0  0  0  0  0  0  0  0
    1.0426   21.5718  -34.1241 H   0  0  0  0  0  0  0  0  0  0  0  0
   -1.1509   22.6429  -33.6048 H   0  0  0  0  0  0  0  0  0  0  0  0
   -3.5549   22.4186  -33.1194 H   0  0  0  0  0  0  0  0  0  0  0  0
  1  2  1  0
  2  3  1  0
  3  4  1  0
  4  5  1  0
  3  6  1  0
  6  7  1  0
  7  8  1  0
  8  9  1  0
  9 10  2  0
 10 11  1  0
 11 12  2  0
 12 13  1  0
 13 14  2  0
 14 15  1  0
 15 16  2  0
 16 17  1  0
 16 18  1  0
 18 19  2  0
 19 20  1  0
 20 21  2  0
 21 22  1  0
 22 23  1  0
 22 24  2  0
 24 25  1  0
 25 26  2  0
 26 27  1  0
 27 28  2  0
 28  9  1  0
 15 10  1  0
 28 18  1  0
 26 20  1  0
  1 29  1  0
  1 30  1  0
  1 31  1  0
  2 32  1  0
  2 33  1  0
  4 34  1  0
  4 35  1  0
  5 36  1  0
  5 37  1  0
  5 38  1  0
  6 39  1  0
  6 40  1  0
  7 41  1  0
  7 42  1  0
  8 43  1  0
 11 44  1  0
 12 45  1  0
 13 46  1  0
 14 47  1  0
 17 48  1  0
 17 49  1  0
 17 50  1  0
 21 51  1  0
 23 52  1  0
 23 53  1  0
 23 54  1  0
 24 55  1  0
 25 56  1  0
 27 57  1  0
M  CHG  1  16   1
M  END
>  <UniqueID>  (2) 
2

>  <SMILES>  (2) 
CCN(CC)CCNc1c2ccccc2[n+](C)c2nc3cc(C)ccc3cc12

>  <Energy>  (2) 
80.60331453025117

>  <Genealogy>  (2) 
CCN(CC)CCNc1c2ccccc2[n+](C)c2nc3cc(C)ccc3cc12 (3D coordinates assigned)
CCN(CC)CCNc1c2ccccc2[n+](C)c2nc3cc(C)ccc3cc12 (optimized conformer: 80.60331453025117 kcal/mol)

>  <smiles>  (2) 
CCN(CC)CCNc1c2ccccc2[n+](C)c2nc3cc(C)ccc3cc12

>  <score_type>  (2) 
oracle

>  <origin>  (2) 
adg

>  <m_score__min__energy>  (2) 
-9.3699999999999992

>  <m_primary>  (2) 
energy

$$$$
2:0
     RDKit          3D

 48 49  0  0  0  0  0  0  0  0999 V2000
   -2.9620   23.2990  -27.8570 C   0  0  0  0  0  0  0  0  0  0  0  0
   -3.7850   22.0050  -27.8980 C   0  0  0  0  0  0  0  0  0  0  0  0
   -2.9740   20.8340  -28.3260 N   0  0  0  0  0  0  0  0  0  0  0  0
   -2.3130   20.1750  -27.1580 C   0  0  0  0  0  0  0  0  0  0  0  0
   -3.1100   18.9680  -26.6550 C   0  0  0  0  0  0  0  0  0  0  0  0
   -1.9740   21.2710  -29.3360 C   0  0  0  0  0  0  0  0  0  0  0  0
   -2.2950   20.8260  -30.7850 C   0  0  0  0  0  0  0  0  0  0  0  0
   -2.0480   21.8790  -31.8780 C   0  0  0  0  0  0  0  0  0  0  0  0
   -3.0220   21.7920  -32.9710 N   0  0  0  0  0  0  0  0  0  0  0  0
   -4.3820   21.3500  -32.7920 C   0  0  0  0  0  0  0  0  0  0  0  0
   -4.7190   20.0140  -33.0860 C   0  0  0  0  0  0  0  0  0  0  0  0
   -3.3360   18.7720  -33.6120 Br  0  0  0  0  0  0  0  0  0  0  0  0
   -6.0570   19.5870  -33.0300 C   0  0  0  0  0  0  0  0  0  0  0  0
   -6.4880   17.7760  -33.5480 Br  0  0  0  0  0  0  0  0  0  0  0  0
   -7.0610   20.4740  -32.5810 C   0  0  0  0  0  0  0  0  0  0  0  0
   -8.4090   20.0660  -32.4950 C   0  0  0  0  0  0  0  0  0  0  0  0
   -9.3780   20.9150  -31.9660 C   0  0  0  0  0  0  0  0  0  0  0  0
   -9.0210   22.1720  -31.4920 C   0  0  0  0  0  0  0  0  0  0  0  0
   -7.6980   22.6020  -31.5780 C   0  0  0  0  0  0  0  0  0  0  0  0
   -6.7080   21.7890  -32.1680 C   0  0  0  0  0  0  0  0  0  0  0  0
   -5.3700   22.2380  -32.3140 C   0  0  0  0  0  0  0  0  0  0  0  0
   -4.9810   23.5400  -31.9530 O   0  0  0  0  0  0  0  0  0  0  0  0
   -5.0410   24.0510  -30.6210 C   0  0  0  0  0  0  0  0  0  0  0  0
   -2.7802   23.5849  -26.8105 H   0  0  0  0  0  0  0  0  0  0  0  0
   -2.0000   23.1380  -28.3656 H   0  0  0  0  0  0  0  0  0  0  0  0
   -3.5157   24.1020  -28.3656 H   0  0  0  0  0  0  0  0  0  0  0  0
   -4.1864   21.8090  -26.8928 H   0  0  0  0  0  0  0  0  0  0  0  0
   -4.5919   22.1424  -28.6328 H   0  0  0  0  0  0  0  0  0  0  0  0
   -3.6380   20.1780  -28.7930 H   0  0  0  0  0  0  0  0  0  0  0  0
   -1.3106   19.8378  -27.4606 H   0  0  0  0  0  0  0  0  0  0  0  0
   -2.2554   20.9091  -26.3409 H   0  0  0  0  0  0  0  0  0  0  0  0
   -3.1131   18.9633  -25.5550 H   0  0  0  0  0  0  0  0  0  0  0  0
   -4.1442   19.0318  -27.0243 H   0  0  0  0  0  0  0  0  0  0  0  0
   -2.6452   18.0420  -27.0243 H   0  0  0  0  0  0  0  0  0  0  0  0
   -1.9221   22.3696  -29.3165 H   0  0  0  0  0  0  0  0  0  0  0  0
   -1.0214   20.7932  -29.0634 H   0  0  0  0  0  0  0  0  0  0  0  0
   -1.6724   19.9487  -31.0145 H   0  0  0  0  0  0  0  0  0  0  0  0
   -3.3761   20.6240  -30.8032 H   0  0  0  0  0  0  0  0  0  0  0  0
   -2.1138   22.8795  -31.4255 H   0  0  0  0  0  0  0  0  0  0  0  0
   -1.0507   21.6925  -32.3030 H   0  0  0  0  0  0  0  0  0  0  0  0
   -2.7730   22.2900  -33.8550 H   0  0  0  0  0  0  0  0  0  0  0  0
   -8.6979   19.0657  -32.8499 H   0  0  0  0  0  0  0  0  0  0  0  0
  -10.4281   20.5902  -31.9232 H   0  0  0  0  0  0  0  0  0  0  0  0
   -9.7840   22.8285  -31.0483 H   0  0  0  0  0  0  0  0  0  0  0  0
   -7.4220   23.5896  -31.1800 H   0  0  0  0  0  0  0  0  0  0  0  0
   -4.9436   23.2214  -29.9053 H   0  0  0  0  0  0  0  0  0  0  0  0
   -4.2208   24.7674  -30.4658 H   0  0  0  0  0  0  0  0  0  0  0  0
   -6.0048   24.5579  -30.4658 H   0  0  0  0  0  0  0  0  0  0  0  0
  1  2  1  0
  2  3  1  0
  3  4  1  0
  4  5  1  0
  3  6  1  0
  6  7  1  0
  7  8  1  0
  8  9  1  0
  9 10  1  0
 10 11  2  0
 11 12  1  0
 11 13  1  0
 13 14  1  0
 13 15  2  0
 15 16  1  0
 16 17  2  0
 17 18  1  0
 18 19  2  0
 19 20  1  0
 20 21  2  0
 21 22  1  0
 22 23  1  0
 21 10  1  0
 20 15  1  0
  1 24  1  0
  1 25  1  0
  1 26  1  0
  2 27  1  0
  2 28  1  0
  3 29  1  0
  4 30  1  0
  4 31  1  0
  5 32  1  0
  5 33  1  0
  5 34  1  0
  6 35  1  0
  6 36  1  0
  7 37  1  0
  7 38  1  0
  8 39  1  0
  8 40  1  0
  9 41  1  0
 16 42  1  0
 17 43  1  0
 18 44  1  0
 19 45  1  0
 23 46  1  0
 23 47  1  0
 23 48  1  0
M  CHG  1   3   1
M  END
>  <UniqueID>  (3) 
3

>  <SMILES>  (3) 
CC[NH+](CC)CCCNc1c(Br)c(Br)c2ccccc2c1OC

>  <Energy>  (3) 
67.11952129119642

>  <Genealogy>  (3) 
CC[NH+](CC)CCCNc1c(Br)c(Br)c2ccccc2c1OC (protonated)
CC[NH+](CC)CCCNc1c(Br)c(Br)c2ccccc2c1OC (3D coordinates assigned)
CC[NH+](CC)CCCNc1c(Br)c(Br)c2ccccc2c1OC (optimized conformer: 67.11952129119642 kcal/mol)

>  <smiles>  (3) 
CCN(CC)CCCNc1c(Br)c(Br)c2ccccc2c1OC

>  <score_type>  (3) 
oracle

>  <origin>  (3) 
adg

>  <m_score__min__energy>  (3) 
-7.7999999999999998

>  <m_primary>  (3) 
energy

$$$$
3:0
     RDKit          3D

 57 59  0  0  0  0  0  0  0  0999 V2000
   -5.8870   23.1880  -32.1440 C   0  0  0  0  0  0  0  0  0  0  0  0
   -5.9750   21.8810  -32.7060 O   0  0  0  0  0  0  0  0  0  0  0  0
   -7.0080   20.9680  -32.4370 C   0  0  0  0  0  0  0  0  0  0  0  0
   -8.1480   21.3280  -31.6910 C   0  0  0  0  0  0  0  0  0  0  0  0
   -9.1500   20.3860  -31.4380 C   0  0  0  0  0  0  0  0  0  0  0  0
   -9.0260   19.0830  -31.9220 C   0  0  0  0  0  0  0  0  0  0  0  0
   -7.8990   18.7150  -32.6620 C   0  0  0  0  0  0  0  0  0  0  0  0
   -6.8820   19.6550  -32.9250 C   0  0  0  0  0  0  0  0  0  0  0  0
   -5.7310   19.3320  -33.6670 O   0  0  0  0  0  0  0  0  0  0  0  0
   -4.7510   18.3580  -33.3040 C   0  0  0  0  0  0  0  0  0  0  0  0
   -3.3570   18.9860  -33.0920 C   0  0  0  0  0  0  0  0  0  0  0  0
   -3.4050   20.4420  -32.7690 N   0  0  2  0  0  0  0  0  0  0  0  0
   -2.1700   21.1150  -33.2610 C   0  0  0  0  0  0  0  0  0  0  0  0
   -0.8800   20.6940  -32.5250 C   0  0  0  0  0  0  0  0  0  0  0  0
   -0.5490   21.5770  -31.2990 C   0  0  0  0  0  0  0  0  0  0  0  0
   -1.5520   21.4100  -30.2210 N   0  0  0  0  0  0  0  0  0  0  0  0
   -1.1620   22.1400  -28.9980 C   0  0  0  0  0  0  0  0  0  0  0  0
   -1.4880   21.3240  -27.7780 C   0  0  0  0  0  0  0  0  0  0  0  0
   -2.2970   20.2090  -27.7250 C   0  0  0  0  0  0  0  0  0  0  0  0
   -2.3110   19.7650  -26.4540 N   0  0  0  0  0  0  0  0  0  0  0  0
   -2.9950   18.5720  -25.9770 C   0  0  0  0  0  0  0  0  0  0  0  0
   -1.5340   20.5260  -25.6950 N   0  0  0  0  0  0  0  0  0  0  0  0
   -1.0230   21.4920  -26.4830 C   0  0  0  0  0  0  0  0  0  0  0  0
   -0.0930   22.5580  -25.9990 C   0  0  0  0  0  0  0  0  0  0  0  0
   -2.9070   21.8200  -30.6500 C   0  0  0  0  0  0  0  0  0  0  0  0
   -3.7260   20.6980  -31.3350 C   0  0  0  0  0  0  0  0  0  0  0  0
   -5.8918   23.1162  -31.0464 H   0  0  0  0  0  0  0  0  0  0  0  0
   -4.9545   23.6679  -32.4760 H   0  0  0  0  0  0  0  0  0  0  0  0
   -6.7467   23.7885  -32.4760 H   0  0  0  0  0  0  0  0  0  0  0  0
   -8.2500   22.3535  -31.3064 H   0  0  0  0  0  0  0  0  0  0  0  0
  -10.0382   20.6728  -30.8560 H   0  0  0  0  0  0  0  0  0  0  0  0
   -9.8162   18.3447  -31.7208 H   0  0  0  0  0  0  0  0  0  0  0  0
   -7.8051   17.6867  -33.0411 H   0  0  0  0  0  0  0  0  0  0  0  0
   -5.0656   17.8698  -32.3698 H   0  0  0  0  0  0  0  0  0  0  0  0
   -4.6736   17.6330  -34.1276 H   0  0  0  0  0  0  0  0  0  0  0  0
   -2.8608   18.4611  -32.2624 H   0  0  0  0  0  0  0  0  0  0  0  0
   -2.8069   18.8818  -34.0388 H   0  0  0  0  0  0  0  0  0  0  0  0
   -4.1930   20.8670  -33.3160 H   0  0  0  0  0  0  0  0  0  0  0  0
   -2.0505   20.8777  -34.3284 H   0  0  0  0  0  0  0  0  0  0  0  0
   -2.3021   22.1909  -33.0740 H   0  0  0  0  0  0  0  0  0  0  0  0
   -0.9981   19.6551  -32.1833 H   0  0  0  0  0  0  0  0  0  0  0  0
   -0.0503   20.8088  -33.2380 H   0  0  0  0  0  0  0  0  0  0  0  0
    0.4413   21.2945  -30.9123 H   0  0  0  0  0  0  0  0  0  0  0  0
   -0.5596   22.6293  -31.6194 H   0  0  0  0  0  0  0  0  0  0  0  0
   -0.0804   22.3390  -29.0233 H   0  0  0  0  0  0  0  0  0  0  0  0
   -1.7182   23.0880  -28.9540 H   0  0  0  0  0  0  0  0  0  0  0  0
   -2.8364   19.7607  -28.5724 H   0  0  0  0  0  0  0  0  0  0  0  0
   -2.9983   18.5663  -24.8770 H   0  0  0  0  0  0  0  0  0  0  0  0
   -4.0310   18.5708  -26.3467 H   0  0  0  0  0  0  0  0  0  0  0  0
   -2.4727   17.6773  -26.3467 H   0  0  0  0  0  0  0  0  0  0  0  0
   -0.0856   22.5664  -24.8991 H   0  0  0  0  0  0  0  0  0  0  0  0
    0.9222   22.3555  -26.3709 H   0  0  0  0  0  0  0  0  0  0  0  0
   -0.4314   23.5364  -26.3709 H   0  0  0  0  0  0  0  0  0  0  0  0
   -3.4616   22.1583  -29.7624 H   0  0  0  0  0  0  0  0  0  0  0  0
   -2.7731   22.6142  -31.3992 H   0  0  0  0  0  0  0  0  0  0  0  0
   -3.5516   19.7653  -30.7786 H   0  0  0  0  0  0  0  0  0  0  0  0
   -4.7714   21.0398  -31.3197 H   0  0  0  0  0  0  0  0  0  0  0  0
  1  2  1  0
  2  3  1  0
  3  4  2  0
  4  5  1  0
  5  6  2  0
  6  7  1  0
  7  8  2  0
  8  9  1  0
  9 10  1  0
 10 11  1  0
 11 12  1  0
 12 13  1  0
 13 14  1  0
 14 15  1  0
 15 16  1  0
 16 17  1  0
 17 18  1  0
 18 19  2  0
 19 20  1  0
 20 21  1  0
 20 22  1  0
 22 23  2  0
 23 24  1  0
 16 25  1  0
 25 26  1  0
  8  3  1  0
 26 12  1  0
 23 18  1  0
  1 27  1  0
  1 28  1  0
  1 29  1  0
  4 30  1  0
  5 31  1  0
  6 32  1  0
  7 33  1  0
 10 34  1  0
 10 35  1  0
 11 36  1  0
 11 37  1  0
 12 38  1  6
 13 39  1  0
 13 40  1  0
 14 41  1  0
 14 42  1  0
 15 43  1  0
 15 44  1  0
 17 45  1  0
 17 46  1  0
 19 47  1  0
 21 48  1  0
 21 49  1  0
 21 50  1  0
 24 51  1  0
 24 52  1  0
 24 53  1  0
 25 54  1  0
 25 55  1  0
 26 56  1  0
 26 57  1  0
M  CHG  1  12   1
M  END
>  <UniqueID>  (4) 
4

>  <SMILES>  (4) 
COc1ccccc1OCC[N@@H+]1CCCN(Cc2cn(C)nc2C)CC1

>  <Energy>  (4) 
102.84363064339914

>  <Genealogy>  (4) 
COc1ccccc1OCC[NH+]1CCCN(Cc2cn(C)nc2C)CC1 (protonated)
COc1ccccc1OCC[N@@H+]1CCCN(Cc2cn(C)nc2C)CC1 (chirality)
COc1ccccc1OCC[N@@H+]1CCCN(Cc2cn(C)nc2C)CC1 (3D coordinates assigned)
COc1ccccc1OCC[N@@H+]1CCCN(Cc2cn(C)nc2C)CC1 (nonaromatic ring conformer: 102.84363064339914 kcal/mol)

>  <smiles>  (4) 
COc1ccccc1OCCN1CCCN(Cc2cn(C)nc2C)CC1

>  <score_type>  (4) 
oracle

>  <origin>  (4) 
adg

>  <m_score__min__energy>  (4) 
-5.3099999999999996

>  <m_primary>  (4) 
energy

$$$$
4:0
     RDKit          3D

 71 74  0  0  0  0  0  0  0  0999 V2000
   -0.7870   22.6610  -25.9680 C   0  0  0  0  0  0  0  0  0  0  0  0
   -0.9430   23.9640  -26.7590 C   0  0  0  0  0  0  0  0  0  0  0  0
   -2.3620   24.2460  -27.1260 N   0  0  0  0  0  0  0  0  0  0  0  0
   -2.9810   25.3000  -26.2790 C   0  0  0  0  0  0  0  0  0  0  0  0
   -1.9570   26.0680  -25.4420 C   0  0  0  0  0  0  0  0  0  0  0  0
   -2.5070   24.5710  -28.5720 C   0  0  0  0  0  0  0  0  0  0  0  0
   -3.9510   24.5480  -29.1190 C   0  0  0  0  0  0  0  0  0  0  0  0
   -3.9990   25.0550  -30.4370 O   0  0  0  0  0  0  0  0  0  0  0  0
   -5.3440   25.2070  -30.8420 C   0  0  0  0  0  0  0  0  0  0  0  0
   -5.7490   24.0280  -31.7250 C   0  0  0  0  0  0  0  0  0  0  0  0
   -4.9290   22.8490  -31.4450 N   0  0  0  0  0  0  0  0  0  0  0  0
   -5.1760   21.5810  -32.0740 C   0  0  0  0  0  0  0  0  0  0  0  0
   -6.4830   21.0570  -32.0820 C   0  0  0  0  0  0  0  0  0  0  0  0
   -7.5320   21.7070  -31.3960 C   0  0  0  0  0  0  0  0  0  0  0  0
   -8.8100   21.1540  -31.3590 C   0  0  0  0  0  0  0  0  0  0  0  0
   -9.0630   19.9450  -31.9940 C   0  0  0  0  0  0  0  0  0  0  0  0
   -8.0500   19.2980  -32.7000 C   0  0  0  0  0  0  0  0  0  0  0  0
   -6.7510   19.8600  -32.7940 C   0  0  0  0  0  0  0  0  0  0  0  0
   -5.7630   19.2780  -33.5620 N   0  0  0  0  0  0  0  0  0  0  0  0
   -6.1160   18.2530  -34.5680 C   0  0  0  0  0  0  0  0  0  0  0  0
   -4.4450   19.6650  -33.4010 C   0  0  0  0  0  0  0  0  0  0  0  0
   -3.3870   18.9040  -33.9570 C   0  0  0  0  0  0  0  0  0  0  0  0
   -2.0630   19.2890  -33.8010 C   0  0  0  0  0  0  0  0  0  0  0  0
   -1.7440   20.4080  -33.0490 C   0  0  0  0  0  0  0  0  0  0  0  0
   -2.7500   21.1660  -32.4270 C   0  0  0  0  0  0  0  0  0  0  0  0
   -2.4120   22.2280  -31.5700 O   0  0  0  0  0  0  0  0  0  0  0  0
   -1.3190   22.2570  -30.6510 C   0  0  0  0  0  0  0  0  0  0  0  0
   -1.5680   21.3280  -29.4930 C   0  0  0  0  0  0  0  0  0  0  0  0
   -2.8260   21.3030  -28.8680 C   0  0  0  0  0  0  0  0  0  0  0  0
   -3.0590   20.4470  -27.7880 C   0  0  0  0  0  0  0  0  0  0  0  0
   -2.0360   19.6180  -27.3190 C   0  0  0  0  0  0  0  0  0  0  0  0
   -0.7780   19.6460  -27.9270 C   0  0  0  0  0  0  0  0  0  0  0  0
   -0.5420   20.5010  -29.0080 C   0  0  0  0  0  0  0  0  0  0  0  0
   -4.1190   20.8260  -32.6400 C   0  0  0  0  0  0  0  0  0  0  0  0
   -0.8133   22.8808  -24.8905 H   0  0  0  0  0  0  0  0  0  0  0  0
   -1.6096   21.9766  -26.2228 H   0  0  0  0  0  0  0  0  0  0  0  0
    0.1739   22.1902  -26.2228 H   0  0  0  0  0  0  0  0  0  0  0  0
   -0.5657   24.7957  -26.1459 H   0  0  0  0  0  0  0  0  0  0  0  0
   -0.3721   23.8572  -27.6932 H   0  0  0  0  0  0  0  0  0  0  0  0
   -2.9270   23.3730  -26.9930 H   0  0  0  0  0  0  0  0  0  0  0  0
   -3.5054   26.0126  -26.9326 H   0  0  0  0  0  0  0  0  0  0  0  0
   -3.6699   24.8009  -25.5816 H   0  0  0  0  0  0  0  0  0  0  0  0
   -2.1656   25.9116  -24.3733 H   0  0  0  0  0  0  0  0  0  0  0  0
   -0.9456   25.7039  -25.6753 H   0  0  0  0  0  0  0  0  0  0  0  0
   -2.0233   27.1409  -25.6753 H   0  0  0  0  0  0  0  0  0  0  0  0
   -2.0993   25.5796  -28.7348 H   0  0  0  0  0  0  0  0  0  0  0  0
   -1.9671   23.7806  -29.1139 H   0  0  0  0  0  0  0  0  0  0  0  0
   -4.3200   23.5117  -29.1181 H   0  0  0  0  0  0  0  0  0  0  0  0
   -4.5805   25.1806  -28.4759 H   0  0  0  0  0  0  0  0  0  0  0  0
   -5.9924   25.2392  -29.9540 H   0  0  0  0  0  0  0  0  0  0  0  0
   -5.4512   26.1429  -31.4100 H   0  0  0  0  0  0  0  0  0  0  0  0
   -6.8046   23.7838  -31.5351 H   0  0  0  0  0  0  0  0  0  0  0  0
   -5.5993   24.3138  -32.7766 H   0  0  0  0  0  0  0  0  0  0  0  0
   -4.2530   22.8970  -30.6500 H   0  0  0  0  0  0  0  0  0  0  0  0
   -7.3378   22.6614  -30.8847 H   0  0  0  0  0  0  0  0  0  0  0  0
   -9.6193   21.6752  -30.8266 H   0  0  0  0  0  0  0  0  0  0  0  0
  -10.0660   19.4966  -31.9397 H   0  0  0  0  0  0  0  0  0  0  0  0
   -8.2612   18.3370  -33.1917 H   0  0  0  0  0  0  0  0  0  0  0  0
   -6.4332   17.3319  -34.0572 H   0  0  0  0  0  0  0  0  0  0  0  0
   -6.9379   18.6248  -35.1975 H   0  0  0  0  0  0  0  0  0  0  0  0
   -5.2395   18.0399  -35.1975 H   0  0  0  0  0  0  0  0  0  0  0  0
   -3.6197   17.9902  -34.5234 H   0  0  0  0  0  0  0  0  0  0  0  0
   -1.2629   18.7029  -34.2767 H   0  0  0  0  0  0  0  0  0  0  0  0
   -0.6911   20.7063  -32.9377 H   0  0  0  0  0  0  0  0  0  0  0  0
   -0.4016   21.9456  -31.1721 H   0  0  0  0  0  0  0  0  0  0  0  0
   -1.2114   23.2811  -30.2640 H   0  0  0  0  0  0  0  0  0  0  0  0
   -3.6308   21.9597  -29.2301 H   0  0  0  0  0  0  0  0  0  0  0  0
   -4.0480   20.4257  -27.3068 H   0  0  0  0  0  0  0  0  0  0  0  0
   -2.2213   18.9429  -26.4705 H   0  0  0  0  0  0  0  0  0  0  0  0
    0.0270   18.9951  -27.5550 H   0  0  0  0  0  0  0  0  0  0  0  0
    0.4512   20.5259  -29.4803 H   0  0  0  0  0  0  0  0  0  0  0  0
  1  2  1  0
  2  3  1  0
  3  4  1  0
  4  5  1  0
  3  6  1  0
  6  7  1  0
  7  8  1  0
  8  9  1  0
  9 10  1  0
 10 11  1  0
 11 12  1  0
 12 13  2  0
 13 14  1  0
 14 15  2  0
 15 16  1  0
 16 17  2  0
 17 18  1  0
 18 19  2  0
 19 20  1  0
 19 21  1  0
 21 22  2  0
 22 23  1  0
 23 24  2  0
 24 25  1  0
 25 26  1  0
 26 27  1  0
 27 28  1  0
 28 29  2  0
 29 30  1  0
 30 31  2  0
 31 32  1  0
 32 33  2  0
 25 34  2  0
 34 12  1  0
 18 13  1  0
 34 21  1  0
 33 28  1  0
  1 35  1  0
  1 36  1  0
  1 37  1  0
  2 38  1  0
  2 39  1  0
  3 40  1  0
  4 41  1  0
  4 42  1  0
  5 43  1  0
  5 44  1  0
  5 45  1  0
  6 46  1  0
  6 47  1  0
  7 48  1  0
  7 49  1  0
  9 50  1  0
  9 51  1  0
 10 52  1  0
 10 53  1  0
 11 54  1  0
 14 55  1  0
 15 56  1  0
 16 57  1  0
 17 58  1  0
 20 59  1  0
 20 60  1  0
 20 61  1  0
 22 62  1  0
 23 63  1  0
 24 64  1  0
 27 65  1  0
 27 66  1  0
 29 67  1  0
 30 68  1  0
 31 69  1  0
 32 70  1  0
 33 71  1  0
M  CHG  2   3   1  19   1
M  END
>  <UniqueID>  (5) 
5

>  <SMILES>  (5) 
CC[NH+](CC)CCOCCNc1c2ccccc2[n+](C)c2cccc(OCc3ccccc3)c12

>  <Energy>  (5) 
99.88385588113553

>  <Genealogy>  (5) 
CC[NH+](CC)CCOCCNc1c2ccccc2[n+](C)c2cccc(OCc3ccccc3)c12 (protonated)
CC[NH+](CC)CCOCCNc1c2ccccc2[n+](C)c2cccc(OCc3ccccc3)c12 (3D coordinates assigned)
CC[NH+](CC)CCOCCNc1c2ccccc2[n+](C)c2cccc(OCc3ccccc3)c12 (optimized conformer: 99.88385588113553 kcal/mol)

>  <smiles>  (5) 
CCN(CC)CCOCCNc1c2ccccc2[n+](C)c2cccc(OCc3ccccc3)c12

>  <score_type>  (5) 
oracle

>  <origin>  (5) 
adg

>  <m_score__min__energy>  (5) 
-7.7300000000000004

>  <m_primary>  (5) 
energy

$$$$
5:0
     RDKit          3D

 56 59  0  0  0  0  0  0  0  0999 V2000
   -5.0593   25.0637  -31.3944 H   0  0  0  0  0  0  0  0  0  0  0  0
   -5.8770   24.3460  -31.2320 C   0  0  0  0  0  0  0  0  0  0  0  0
   -6.2210   23.9600  -29.9340 C   0  0  0  0  0  0  0  0  0  0  0  0
   -5.6757   24.3774  -29.0747 H   0  0  0  0  0  0  0  0  0  0  0  0
   -7.2560   23.0450  -29.7250 C   0  0  0  0  0  0  0  0  0  0  0  0
   -7.5290   22.7511  -28.7008 H   0  0  0  0  0  0  0  0  0  0  0  0
   -7.9480   22.5000  -30.8160 C   0  0  0  0  0  0  0  0  0  0  0  0
   -9.0890   21.5510  -30.5890 C   0  0  0  0  0  0  0  0  0  0  0  0
  -10.0145   22.1198  -30.4158 H   0  0  0  0  0  0  0  0  0  0  0  0
   -8.8847   20.9235  -29.7090 H   0  0  0  0  0  0  0  0  0  0  0  0
   -9.2380   20.7390  -31.7340 O   0  0  0  0  0  0  0  0  0  0  0  0
   -8.7690   19.4260  -31.4800 C   0  0  0  0  0  0  0  0  0  0  0  0
   -9.6256   18.7766  -31.2465 H   0  0  0  0  0  0  0  0  0  0  0  0
   -8.0702   19.4607  -30.6312 H   0  0  0  0  0  0  0  0  0  0  0  0
   -8.0250   18.8590  -32.7080 C   0  0  1  0  0  0  0  0  0  0  0  0
   -8.8128   18.4516  -33.3587 H   0  0  0  0  0  0  0  0  0  0  0  0
   -7.2320   19.9800  -33.4680 C   0  0  0  0  0  0  0  0  0  0  0  0
   -7.2508   20.9110  -32.8824 H   0  0  0  0  0  0  0  0  0  0  0  0
   -7.6919   20.1709  -34.4488 H   0  0  0  0  0  0  0  0  0  0  0  0
   -5.8430   19.5280  -33.6390 N   0  0  0  0  0  0  0  0  0  0  0  0
   -5.2120   19.3370  -32.3640 C   0  0  0  0  0  0  0  0  0  0  0  0
   -4.1790   20.0530  -32.0110 N   0  0  0  0  0  0  0  0  0  0  0  0
   -3.3080   19.5510  -31.7180 H   0  0  0  0  0  0  0  0  0  0  0  0
   -4.1770   21.5150  -31.9140 C   0  0  0  0  0  0  0  0  0  0  0  0
   -5.1047   21.8487  -31.4262 H   0  0  0  0  0  0  0  0  0  0  0  0
   -4.1114   21.9433  -32.9251 H   0  0  0  0  0  0  0  0  0  0  0  0
   -2.9920   21.9780  -31.1030 C   0  0  0  0  0  0  0  0  0  0  0  0
   -3.1780   22.9040  -30.0600 C   0  0  0  0  0  0  0  0  0  0  0  0
   -4.1810   23.3101  -29.8622 H   0  0  0  0  0  0  0  0  0  0  0  0
   -2.0970   23.3110  -29.2740 C   0  0  0  0  0  0  0  0  0  0  0  0
   -2.2513   24.0322  -28.4578 H   0  0  0  0  0  0  0  0  0  0  0  0
   -0.8220   22.8030  -29.5240 C   0  0  0  0  0  0  0  0  0  0  0  0
    0.0274   23.1231  -28.9027 H   0  0  0  0  0  0  0  0  0  0  0  0
   -0.6210   21.8890  -30.5610 C   0  0  0  0  0  0  0  0  0  0  0  0
    0.3881   21.4964  -30.7548 H   0  0  0  0  0  0  0  0  0  0  0  0
   -1.7020   21.4660  -31.3610 C   0  0  0  0  0  0  0  0  0  0  0  0
   -1.5300   20.5470  -32.4130 O   0  0  0  0  0  0  0  0  0  0  0  0
   -1.0620   20.8840  -33.7150 C   0  0  0  0  0  0  0  0  0  0  0  0
   -0.1720   21.5249  -33.6302 H   0  0  0  0  0  0  0  0  0  0  0  0
   -0.8014   19.9649  -34.2603 H   0  0  0  0  0  0  0  0  0  0  0  0
   -1.8511   21.4226  -34.2603 H   0  0  0  0  0  0  0  0  0  0  0  0
   -5.8380   18.2410  -31.5240 C   0  0  0  0  0  0  0  0  0  0  0  0
   -5.1061   17.4424  -31.3329 H   0  0  0  0  0  0  0  0  0  0  0  0
   -6.1690   18.6249  -30.5477 H   0  0  0  0  0  0  0  0  0  0  0  0
   -7.0380   17.6870  -32.3520 C   0  0  2  0  0  0  0  0  0  0  0  0
   -7.5612   16.9095  -31.7761 H   0  0  0  0  0  0  0  0  0  0  0  0
   -6.4660   17.1490  -33.7010 C   0  0  0  0  0  0  0  0  0  0  0  0
   -5.7481   16.3405  -33.4987 H   0  0  0  0  0  0  0  0  0  0  0  0
   -7.2886   16.7617  -34.3202 H   0  0  0  0  0  0  0  0  0  0  0  0
   -5.7450   18.3080  -34.4580 C   0  0  0  0  0  0  0  0  0  0  0  0
   -4.6874   18.0489  -34.6139 H   0  0  0  0  0  0  0  0  0  0  0  0
   -6.2169   18.4711  -35.4382 H   0  0  0  0  0  0  0  0  0  0  0  0
   -7.6100   22.9040  -32.1180 C   0  0  0  0  0  0  0  0  0  0  0  0
   -8.1626   22.4994  -32.9788 H   0  0  0  0  0  0  0  0  0  0  0  0
   -6.5720   23.8200  -32.3230 C   0  0  0  0  0  0  0  0  0  0  0  0
   -6.3033   24.1260  -33.3448 H   0  0  0  0  0  0  0  0  0  0  0  0
  1  2  1  0
  2  3  2  0
  3  4  1  0
  3  5  1  0
  5  6  1  0
  5  7  2  0
  7  8  1  0
  8  9  1  0
  8 10  1  0
  8 11  1  0
 11 12  1  0
 12 13  1  0
 12 14  1  0
 12 15  1  0
 15 16  1  6
 15 17  1  0
 17 18  1  0
 17 19  1  0
 17 20  1  0
 20 21  1  0
 21 22  2  0
 22 23  1  0
 22 24  1  0
 24 25  1  0
 24 26  1  0
 24 27  1  0
 27 28  2  0
 28 29  1  0
 28 30  1  0
 30 31  1  0
 30 32  2  0
 32 33  1  0
 32 34  1  0
 34 35  1  0
 34 36  2  0
 36 37  1  0
 37 38  1  0
 38 39  1  0
 38 40  1  0
 38 41  1  0
 21 42  1  0
 42 43  1  0
 42 44  1  0
 42 45  1  0
 45 46  1  1
 45 47  1  0
 47 48  1  0
 47 49  1  0
 47 50  1  0
 50 51  1  0
 50 52  1  0
  7 53  1  0
 53 54  1  0
 53 55  2  0
 55 56  1  0
 55  2  1  0
 45 15  1  0
 50 20  1  0
 36 27  1  0
M  CHG  1  22   1
M  END
>  <UniqueID>  (6) 
6

>  <SMILES>  (6) 
COc1ccccc1C/[NH+]=C1\C[C@@H]2CCN1C[C@@H]2COCc1ccccc1

>  <Energy>  (6) 
90.38609137440965

>  <Genealogy>  (6) 
COc1ccccc1C[NH+]=C1CC2CCN1CC2COCc1ccccc1 (protonated)
COc1ccccc1C[NH+]=C1C[C@@H]2CCN1C[C@@H]2COCc1ccccc1 (chirality)
COc1ccccc1C/[NH+]=C1\C[C@@H]2CCN1C[C@@H]2COCc1ccccc1 (cis-trans isomerization)
COc1ccccc1C/[NH+]=C1\C[C@@H]2CCN1C[C@@H]2COCc1ccccc1 (3D coordinates assigned)
COc1ccccc1C/[NH+]=C1\C[C@@H]2CCN1C[C@@H]2COCc1ccccc1 (nonaromatic ring conformer: 90.38609137440965 kcal/mol)

>  <smiles>  (6) 
COc1ccccc1CN=C1CC2CCN1CC2COCc1ccccc1

>  <score_type>  (6) 
oracle

>  <origin>  (6) 
adg

>  <m_score__min__energy>  (6) 
-7.6500000000000004

>  <m_primary>  (6) 
energy

$$$$
6:0
     RDKit          3D

 52 53  0  0  0  0  0  0  0  0999 V2000
   -8.0830   19.9990  -32.1080 C   0  0  0  0  0  0  0  0  0  0  0  0
   -6.9310   20.1780  -33.0900 C   0  0  0  0  0  0  0  0  0  0  0  0
   -5.6540   19.7630  -32.4630 N   0  0  0  0  0  0  0  0  0  0  0  0
   -5.7340   18.3710  -31.9630 C   0  0  0  0  0  0  0  0  0  0  0  0
   -6.0900   17.3960  -33.0860 C   0  0  0  0  0  0  0  0  0  0  0  0
   -4.5290   19.9070  -33.4220 C   0  0  0  0  0  0  0  0  0  0  0  0
   -3.4210   20.7920  -32.8430 C   0  0  0  0  0  0  0  0  0  0  0  0
   -3.6840   21.0950  -31.4380 N   0  0  0  0  0  0  0  0  0  0  0  0
   -3.7740   22.4510  -30.9880 C   0  0  0  0  0  0  0  0  0  0  0  0
   -4.9460   23.1590  -30.8020 C   0  0  0  0  0  0  0  0  0  0  0  0
   -6.2810   22.8610  -31.0660 C   0  0  0  0  0  0  0  0  0  0  0  0
   -7.2470   23.8220  -30.7070 C   0  0  0  0  0  0  0  0  0  0  0  0
   -6.8570   25.0360  -30.0930 C   0  0  0  0  0  0  0  0  0  0  0  0
   -5.4990   25.3020  -29.8290 C   0  0  0  0  0  0  0  0  0  0  0  0
   -4.5680   24.3350  -30.2070 C   0  0  0  0  0  0  0  0  0  0  0  0
   -3.2370   24.3290  -30.0250 N   0  0  0  0  0  0  0  0  0  0  0  0
   -2.5070   25.2980  -29.3740 O   0  0  0  0  0  0  0  0  0  0  0  0
   -2.7430   23.1850  -30.4920 N   0  0  0  0  0  0  0  0  0  0  0  0
   -1.3650   22.7340  -30.2780 C   0  0  0  0  0  0  0  0  0  0  0  0
   -1.3240   21.5990  -29.2490 C   0  0  0  0  0  0  0  0  0  0  0  0
   -2.4640   21.7020  -28.3120 N   0  0  0  0  0  0  0  0  0  0  0  0
   -2.6680   20.4230  -27.6110 C   0  0  0  0  0  0  0  0  0  0  0  0
   -2.2370   22.7760  -27.3260 C   0  0  0  0  0  0  0  0  0  0  0  0
   -7.6999   20.0585  -31.0786 H   0  0  0  0  0  0  0  0  0  0  0  0
   -8.8281   20.7921  -32.2684 H   0  0  0  0  0  0  0  0  0  0  0  0
   -8.5523   19.0172  -32.2684 H   0  0  0  0  0  0  0  0  0  0  0  0
   -7.1150   19.5612  -33.9820 H   0  0  0  0  0  0  0  0  0  0  0  0
   -6.8632   21.2386  -33.3738 H   0  0  0  0  0  0  0  0  0  0  0  0
   -4.7604   18.0868  -31.5372 H   0  0  0  0  0  0  0  0  0  0  0  0
   -6.5230   18.3220  -31.1980 H   0  0  0  0  0  0  0  0  0  0  0  0
   -6.4366   16.4468  -32.6513 H   0  0  0  0  0  0  0  0  0  0  0  0
   -6.8884   17.8280  -33.7072 H   0  0  0  0  0  0  0  0  0  0  0  0
   -5.2011   17.2119  -33.7072 H   0  0  0  0  0  0  0  0  0  0  0  0
   -4.1155   18.9119  -33.6428 H   0  0  0  0  0  0  0  0  0  0  0  0
   -4.9101   20.3794  -34.3394 H   0  0  0  0  0  0  0  0  0  0  0  0
   -2.4585   20.2658  -32.9250 H   0  0  0  0  0  0  0  0  0  0  0  0
   -3.3895   21.7350  -33.4085 H   0  0  0  0  0  0  0  0  0  0  0  0
   -4.2370   20.3910  -30.8990 H   0  0  0  0  0  0  0  0  0  0  0  0
   -6.5704   21.9102  -31.5375 H   0  0  0  0  0  0  0  0  0  0  0  0
   -8.3113   23.6273  -30.9053 H   0  0  0  0  0  0  0  0  0  0  0  0
   -7.6211   25.7785  -29.8195 H   0  0  0  0  0  0  0  0  0  0  0  0
   -5.1848   26.2374  -29.3429 H   0  0  0  0  0  0  0  0  0  0  0  0
   -0.9502   22.3735  -31.2309 H   0  0  0  0  0  0  0  0  0  0  0  0
   -0.7697   23.5781  -29.8997 H   0  0  0  0  0  0  0  0  0  0  0  0
   -1.3740   20.6336  -29.7739 H   0  0  0  0  0  0  0  0  0  0  0  0
   -0.3876   21.6739  -28.6767 H   0  0  0  0  0  0  0  0  0  0  0  0
   -2.6410   20.5921  -26.5244 H   0  0  0  0  0  0  0  0  0  0  0  0
   -3.6446   20.0023  -27.8925 H   0  0  0  0  0  0  0  0  0  0  0  0
   -1.8707   19.7193  -27.8925 H   0  0  0  0  0  0  0  0  0  0  0  0
   -2.3239   22.3648  -26.3094 H   0  0  0  0  0  0  0  0  0  0  0  0
   -1.2302   23.1962  -27.4668 H   0  0  0  0  0  0  0  0  0  0  0  0
   -2.9877   23.5676  -27.4668 H   0  0  0  0  0  0  0  0  0  0  0  0
  1  2  1  0
  2  3  1  0
  3  4  1  0
  4  5  1  0
  3  6  1  0
  6  7  1  0
  7  8  1  0
  8  9  1  0
  9 10  2  0
 10 11  1  0
 11 12  2  0
 12 13  1  0
 13 14  2  0
 14 15  1  0
 15 16  2  0
 16 17  1  0
 16 18  1  0
 18 19  1  0
 19 20  1  0
 20 21  1  0
 21 22  1  0
 21 23  1  0
 18  9  1  0
 15 10  1  0
  1 24  1  0
  1 25  1  0
  1 26  1  0
  2 27  1  0
  2 28  1  0
  4 29  1  0
  4 30  1  0
  5 31  1  0
  5 32  1  0
  5 33  1  0
  6 34  1  0
  6 35  1  0
  7 36  1  0
  7 37  1  0
  8 38  1  0
 11 39  1  0
 12 40  1  0
 13 41  1  0
 14 42  1  0
 19 43  1  0
 19 44  1  0
 20 45  1  0
 20 46  1  0
 22 47  1  0
 22 48  1  0
 22 49  1  0
 23 50  1  0
 23 51  1  0
 23 52  1  0
M  CHG  2  16   1  17  -1
M  END
>  <UniqueID>  (7) 
7

>  <SMILES>  (7) 
CCN(CC)CCNc1c2ccccc2[n+]([O-])n1CCN(C)C

>  <Energy>  (7) 
90.33673147631484

>  <Genealogy>  (7) 
CCN(CC)CCNc1c2ccccc2[n+]([O-])n1CCN(C)C (3D coordinates assigned)
CCN(CC)CCNc1c2ccccc2[n+]([O-])n1CCN(C)C (optimized conformer: 90.33673147631484 kcal/mol)

>  <smiles>  (7) 
CCN(CC)CCNc1c2ccccc2[n+]([O-])n1CCN(C)C

>  <score_type>  (7) 
oracle

>  <origin>  (7) 
adg

>  <m_score__min__energy>  (7) 
-7.7199999999999998

>  <m_primary>  (7) 
energy

$$$$
7:0
     RDKit          3D

 36 37  0  0  1  0  0  0  0  0999 V2000
   -5.6190   16.2240  -33.1300 C   0  0  0  0  0  0  0  0  0  0  0  0
   -6.2370   17.1570  -33.9970 O   0  0  0  0  0  0  0  0  0  0  0  0
   -6.5410   18.4160  -33.4820 C   0  0  0  0  0  0  0  0  0  0  0  0
   -5.6060   19.4370  -33.5160 C   0  0  0  0  0  0  0  0  0  0  0  0
   -5.9260   20.6860  -32.9990 C   0  0  0  0  0  0  0  0  0  0  0  0
   -5.0010   21.5830  -33.0690 N   0  0  0  0  0  0  0  0  0  0  0  0
   -4.2180   21.9130  -31.9050 C   0  0  0  0  0  0  0  0  0  0  0  0
   -4.8630   23.0230  -31.1110 C   0  0  1  0  0  0  0  0  0  0  0  0
   -3.8500   23.9520  -30.5040 C   0  0  0  0  0  0  0  0  0  0  0  0
   -4.3040   25.3110  -30.7080 N   0  0  0  0  0  0  0  0  0  0  0  0
   -5.7080   25.2010  -31.1110 C   0  0  0  0  0  0  0  0  0  0  0  0
   -5.6300   23.9780  -32.0020 C   0  0  2  0  0  0  0  0  0  0  0  0
   -6.8970   23.4900  -32.3120 O   0  0  0  0  0  0  0  0  0  0  0  0
   -7.1340   20.9150  -32.4660 N   0  0  0  0  0  0  0  0  0  0  0  0
   -8.0310   19.9240  -32.4370 C   0  0  0  0  0  0  0  0  0  0  0  0
   -9.2790   20.1750  -31.8810 O   0  0  0  0  0  0  0  0  0  0  0  0
   -9.4690   21.4330  -31.2580 C   0  0  0  0  0  0  0  0  0  0  0  0
   -7.7500   18.6960  -32.9320 N   0  0  0  0  0  0  0  0  0  0  0  0
   -5.8097   16.5119  -32.0856 H   0  0  0  0  0  0  0  0  0  0  0  0
   -6.0323   15.2216  -33.3154 H   0  0  0  0  0  0  0  0  0  0  0  0
   -4.5348   16.2136  -33.3154 H   0  0  0  0  0  0  0  0  0  0  0  0
   -4.6117   19.2593  -33.9516 H   0  0  0  0  0  0  0  0  0  0  0  0
   -4.1287   21.0209  -31.2677 H   0  0  0  0  0  0  0  0  0  0  0  0
   -3.2259   22.2528  -32.2370 H   0  0  0  0  0  0  0  0  0  0  0  0
   -5.4809   22.4899  -30.3735 H   0  0  0  0  0  0  0  0  0  0  0  0
   -3.7561   23.7484  -29.4271 H   0  0  0  0  0  0  0  0  0  0  0  0
   -2.8677   23.8044  -30.9765 H   0  0  0  0  0  0  0  0  0  0  0  0
   -3.8110   25.6390  -31.5900 H   0  0  0  0  0  0  0  0  0  0  0  0
   -6.3690   25.0356  -30.2474 H   0  0  0  0  0  0  0  0  0  0  0  0
   -6.1242   26.0988  -31.5914 H   0  0  0  0  0  0  0  0  0  0  0  0
   -5.1627   24.1565  -32.9817 H   0  0  0  0  0  0  0  0  0  0  0  0
   -6.7970   22.9160  -33.1120 H   0  0  0  0  0  0  0  0  0  0  0  0
   -7.3510   21.8460  -32.0890 H   0  0  0  0  0  0  0  0  0  0  0  0
   -9.4501   21.3076  -30.1653 H   0  0  0  0  0  0  0  0  0  0  0  0
   -8.6642   22.1182  -31.5625 H   0  0  0  0  0  0  0  0  0  0  0  0
  -10.4403   21.8500  -31.5625 H   0  0  0  0  0  0  0  0  0  0  0  0
  1  2  1  0
  2  3  1  0
  3  4  2  0
  4  5  1  0
  5  6  2  0
  6  7  1  0
  7  8  1  0
  8  9  1  0
  9 10  1  0
 10 11  1  0
 11 12  1  0
 12 13  1  0
  5 14  1  0
 14 15  1  0
 15 16  1  0
 16 17  1  0
 15 18  2  0
 18  3  1  0
 12  8  1  0
  1 19  1  0
  1 20  1  0
  1 21  1  0
  4 22  1  0
  7 23  1  0
  7 24  1  0
  8 25  1  1
  9 26  1  0
  9 27  1  0
 10 28  1  0
 11 29  1  0
 11 30  1  0
 12 31  1  6
 13 32  1  0
 14 33  1  0
 17 34  1  0
 17 35  1  0
 17 36  1  0
M  END
>  <smiles>  (8) 
COc1cc(=NCC2CNCC2O)[nH]c(OC)n1

>  <score_type>  (8) 
oracle

>  <origin>  (8) 
adg

>  <m_score__min__energy>  (8) 
-6.6299999999999999

>  <m_primary>  (8) 
energy

$$$$
8:0
     RDKit          3D

 61 64  0  0  0  0  0  0  0  0999 V2000
   -4.5440   13.5010  -34.2010 C   0  0  0  0  0  0  0  0  0  0  0  0
   -4.5660   14.9500  -33.9390 N   0  0  0  0  0  0  0  0  0  0  0  0
   -3.6530   15.6470  -34.8690 C   0  0  0  0  0  0  0  0  0  0  0  0
   -2.8510   16.6870  -34.1310 C   0  0  0  0  0  0  0  0  0  0  0  0
   -1.9670   16.3150  -33.1030 C   0  0  0  0  0  0  0  0  0  0  0  0
   -1.2100   17.2870  -32.4420 C   0  0  0  0  0  0  0  0  0  0  0  0
   -1.3270   18.6320  -32.8000 C   0  0  0  0  0  0  0  0  0  0  0  0
   -2.2040   19.0100  -33.8210 C   0  0  0  0  0  0  0  0  0  0  0  0
   -2.9650   18.0420  -34.4850 C   0  0  0  0  0  0  0  0  0  0  0  0
   -5.9450   15.4750  -34.0510 C   0  0  0  0  0  0  0  0  0  0  0  0
   -5.9890   16.9120  -33.6060 C   0  0  0  0  0  0  0  0  0  0  0  0
   -5.9050   17.2220  -32.2400 C   0  0  0  0  0  0  0  0  0  0  0  0
   -5.9520   18.5520  -31.8140 C   0  0  0  0  0  0  0  0  0  0  0  0
   -6.0760   19.5950  -32.7480 C   0  0  0  0  0  0  0  0  0  0  0  0
   -6.1090   21.0060  -32.2960 C   0  0  0  0  0  0  0  0  0  0  0  0
   -7.2720   21.5380  -31.7120 C   0  0  0  0  0  0  0  0  0  0  0  0
   -7.2890   22.8540  -31.2420 C   0  0  0  0  0  0  0  0  0  0  0  0
   -6.1400   23.6530  -31.3350 C   0  0  0  0  0  0  0  0  0  0  0  0
   -6.1130   25.0290  -30.7200 C   0  0  0  0  0  0  0  0  0  0  0  0
   -4.7910   25.3180  -30.1400 N   0  0  0  0  0  0  0  0  0  0  0  0
   -4.5230   24.5380  -28.9180 C   0  0  0  0  0  0  0  0  0  0  0  0
   -3.5010   23.4580  -29.1710 C   0  0  0  0  0  0  0  0  0  0  0  0
   -2.2330   23.7820  -29.6830 C   0  0  0  0  0  0  0  0  0  0  0  0
   -1.2710   22.7840  -29.8620 C   0  0  0  0  0  0  0  0  0  0  0  0
   -1.5700   21.4560  -29.5450 C   0  0  0  0  0  0  0  0  0  0  0  0
   -0.6320   20.4930  -29.7100 F   0  0  0  0  0  0  0  0  0  0  0  0
   -2.8370   21.1230  -29.0590 C   0  0  0  0  0  0  0  0  0  0  0  0
   -3.8020   22.1180  -28.8790 C   0  0  0  0  0  0  0  0  0  0  0  0
   -4.9890   23.1360  -31.9490 C   0  0  0  0  0  0  0  0  0  0  0  0
   -4.9730   21.8230  -32.4240 C   0  0  0  0  0  0  0  0  0  0  0  0
   -6.1560   19.2800  -34.1150 C   0  0  0  0  0  0  0  0  0  0  0  0
   -6.1160   17.9500  -34.5410 C   0  0  0  0  0  0  0  0  0  0  0  0
   -4.5357   12.9557  -33.2457 H   0  0  0  0  0  0  0  0  0  0  0  0
   -5.4380   13.2188  -34.7765 H   0  0  0  0  0  0  0  0  0  0  0  0
   -3.6419   13.2461  -34.7765 H   0  0  0  0  0  0  0  0  0  0  0  0
   -2.9685   14.9151  -35.3226 H   0  0  0  0  0  0  0  0  0  0  0  0
   -4.2474   16.1415  -35.6514 H   0  0  0  0  0  0  0  0  0  0  0  0
   -1.8707   15.2569  -32.8181 H   0  0  0  0  0  0  0  0  0  0  0  0
   -0.5202   16.9916  -31.6376 H   0  0  0  0  0  0  0  0  0  0  0  0
   -0.7290   19.3939  -32.2785 H   0  0  0  0  0  0  0  0  0  0  0  0
   -2.2957   20.0694  -34.1025 H   0  0  0  0  0  0  0  0  0  0  0  0
   -3.6551   18.3427  -35.2871 H   0  0  0  0  0  0  0  0  0  0  0  0
   -6.2759   15.4080  -35.0979 H   0  0  0  0  0  0  0  0  0  0  0  0
   -6.6104   14.8788  -33.4093 H   0  0  0  0  0  0  0  0  0  0  0  0
   -5.8016   16.4140  -31.5008 H   0  0  0  0  0  0  0  0  0  0  0  0
   -5.8916   18.7843  -30.7405 H   0  0  0  0  0  0  0  0  0  0  0  0
   -8.1741   20.9146  -31.6245 H   0  0  0  0  0  0  0  0  0  0  0  0
   -8.2073   23.2649  -30.7973 H   0  0  0  0  0  0  0  0  0  0  0  0
   -6.3368   25.7753  -31.4965 H   0  0  0  0  0  0  0  0  0  0  0  0
   -6.8657   25.0714  -29.9190 H   0  0  0  0  0  0  0  0  0  0  0  0
   -4.7880   26.3290  -29.8690 H   0  0  0  0  0  0  0  0  0  0  0  0
   -4.1443   25.2140  -28.1372 H   0  0  0  0  0  0  0  0  0  0  0  0
   -5.4609   24.0607  -28.5978 H   0  0  0  0  0  0  0  0  0  0  0  0
   -1.9969   24.8243  -29.9437 H   0  0  0  0  0  0  0  0  0  0  0  0
   -0.2764   23.0443  -30.2532 H   0  0  0  0  0  0  0  0  0  0  0  0
   -3.0753   20.0766  -28.8178 H   0  0  0  0  0  0  0  0  0  0  0  0
   -4.8019   21.8500  -28.5069 H   0  0  0  0  0  0  0  0  0  0  0  0
   -4.0951   23.7680  -32.0566 H   0  0  0  0  0  0  0  0  0  0  0  0
   -4.0652   21.4257  -32.9015 H   0  0  0  0  0  0  0  0  0  0  0  0
   -6.2509   20.0874  -34.8560 H   0  0  0  0  0  0  0  0  0  0  0  0
   -6.1844   17.7159  -35.6136 H   0  0  0  0  0  0  0  0  0  0  0  0
  1  2  1  0
  2  3  1  0
  3  4  1  0
  4  5  2  0
  5  6  1  0
  6  7  2  0
  7  8  1  0
  8  9  2  0
  2 10  1  0
 10 11  1  0
 11 12  2  0
 12 13  1  0
 13 14  2  0
 14 15  1  0
 15 16  2  0
 16 17  1  0
 17 18  2  0
 18 19  1  0
 19 20  1  0
 20 21  1  0
 21 22  1  0
 22 23  2  0
 23 24  1  0
 24 25  2  0
 25 26  1  0
 25 27  1  0
 27 28  2  0
 18 29  1  0
 29 30  2  0
 14 31  1  0
 31 32  2  0
  9  4  1  0
 32 11  1  0
 30 15  1  0
 28 22  1  0
  1 33  1  0
  1 34  1  0
  1 35  1  0
  3 36  1  0
  3 37  1  0
  5 38  1  0
  6 39  1  0
  7 40  1  0
  8 41  1  0
  9 42  1  0
 10 43  1  0
 10 44  1  0
 12 45  1  0
 13 46  1  0
 16 47  1  0
 17 48  1  0
 19 49  1  0
 19 50  1  0
 20 51  1  0
 21 52  1  0
 21 53  1  0
 23 54  1  0
 24 55  1  0
 27 56  1  0
 28 57  1  0
 29 58  1  0
 30 59  1  0
 31 60  1  0
 32 61  1  0
M  END
>  <UniqueID>  (9) 
8

>  <SMILES>  (9) 
CN(Cc1ccccc1)Cc1ccc(-c2ccc(CNCc3ccc(F)cc3)cc2)cc1

>  <Energy>  (9) 
66.52736604980794

>  <Genealogy>  (9) 
CN(Cc1ccccc1)Cc1ccc(-c2ccc(CNCc3ccc(F)cc3)cc2)cc1 (3D coordinates assigned)
CN(Cc1ccccc1)Cc1ccc(-c2ccc(CNCc3ccc(F)cc3)cc2)cc1 (optimized conformer: 66.52736604980794 kcal/mol)

>  <smiles>  (9) 
CN(Cc1ccccc1)Cc1ccc(-c2ccc(CNCc3ccc(F)cc3)cc2)cc1

>  <score_type>  (9) 
oracle

>  <origin>  (9) 
adg

>  <m_score__min__energy>  (9) 
-9.5999999999999996

>  <m_primary>  (9) 
energy

$$$$
9:0
     RDKit          3D

 57 59  0  0  0  0  0  0  0  0999 V2000
   -3.8220   22.3310  -28.1750 C   0  0  0  0  0  0  0  0  0  0  0  0
   -2.5690   21.7610  -27.4910 C   0  0  0  0  0  0  0  0  0  0  0  0
   -2.1980   20.3920  -27.9380 N   0  0  0  0  0  0  0  0  0  0  0  0
   -2.1120   19.4430  -26.7880 C   0  0  0  0  0  0  0  0  0  0  0  0
   -3.4880   18.9160  -26.3660 C   0  0  0  0  0  0  0  0  0  0  0  0
   -0.9560   20.4170  -28.7550 C   0  0  0  0  0  0  0  0  0  0  0  0
   -1.2290   20.7000  -30.2370 C   0  0  0  0  0  0  0  0  0  0  0  0
   -2.6250   20.6830  -30.4560 O   0  0  0  0  0  0  0  0  0  0  0  0
   -2.9180   20.3160  -31.7920 C   0  0  0  0  0  0  0  0  0  0  0  0
   -3.0500   21.5540  -32.6810 C   0  0  0  0  0  0  0  0  0  0  0  0
   -4.3250   21.5560  -33.4050 N   0  0  0  0  0  0  0  0  0  0  0  0
   -5.4560   20.7890  -32.9560 C   0  0  0  0  0  0  0  0  0  0  0  0
   -5.6140   19.4360  -33.3500 C   0  0  0  0  0  0  0  0  0  0  0  0
   -4.5780   18.7510  -34.0200 C   0  0  0  0  0  0  0  0  0  0  0  0
   -4.7360   17.4260  -34.4180 C   0  0  0  0  0  0  0  0  0  0  0  0
   -5.9200   16.7520  -34.1430 C   0  0  0  0  0  0  0  0  0  0  0  0
   -6.9500   17.3900  -33.4560 C   0  0  0  0  0  0  0  0  0  0  0  0
   -6.8230   18.7390  -33.0370 C   0  0  0  0  0  0  0  0  0  0  0  0
   -7.8270   19.3710  -32.3300 N   0  0  0  0  0  0  0  0  0  0  0  0
   -9.0980   18.6800  -32.0310 C   0  0  0  0  0  0  0  0  0  0  0  0
   -7.6100   20.6440  -31.8760 C   0  0  0  0  0  0  0  0  0  0  0  0
   -8.6400   21.5740  -30.9190 S   0  0  0  0  0  0  0  0  0  0  0  0
   -7.6340   22.9120  -30.8250 C   0  0  0  0  0  0  0  0  0  0  0  0
   -6.4660   22.6570  -31.5430 C   0  0  0  0  0  0  0  0  0  0  0  0
   -5.3520   23.6600  -31.5660 C   0  0  0  0  0  0  0  0  0  0  0  0
   -6.4530   21.3690  -32.1480 C   0  0  0  0  0  0  0  0  0  0  0  0
   -4.5410   22.6581  -27.4094 H   0  0  0  0  0  0  0  0  0  0  0  0
   -3.5390   23.1890  -28.8025 H   0  0  0  0  0  0  0  0  0  0  0  0
   -4.2828   21.5539  -28.8025 H   0  0  0  0  0  0  0  0  0  0  0  0
   -1.7246   22.4334  -27.7029 H   0  0  0  0  0  0  0  0  0  0  0  0
   -2.8000   21.6906  -26.4178 H   0  0  0  0  0  0  0  0  0  0  0  0
   -2.9810   20.0980  -28.5710 H   0  0  0  0  0  0  0  0  0  0  0  0
   -1.4805   18.5906  -27.0790 H   0  0  0  0  0  0  0  0  0  0  0  0
   -1.6829   19.9869  -25.9336 H   0  0  0  0  0  0  0  0  0  0  0  0
   -3.5505   18.8921  -25.2680 H   0  0  0  0  0  0  0  0  0  0  0  0
   -4.2717   19.5776  -26.7635 H   0  0  0  0  0  0  0  0  0  0  0  0
   -3.6293   17.9001  -26.7635 H   0  0  0  0  0  0  0  0  0  0  0  0
   -0.2926   21.2020  -28.3631 H   0  0  0  0  0  0  0  0  0  0  0  0
   -0.4927   19.4217  -28.6864 H   0  0  0  0  0  0  0  0  0  0  0  0
   -0.8251   21.6874  -30.5050 H   0  0  0  0  0  0  0  0  0  0  0  0
   -0.7446   19.9326  -30.8587 H   0  0  0  0  0  0  0  0  0  0  0  0
   -2.1069   19.6806  -32.1772 H   0  0  0  0  0  0  0  0  0  0  0  0
   -3.8728   19.7699  -31.8054 H   0  0  0  0  0  0  0  0  0  0  0  0
   -2.9937   22.4546  -32.0519 H   0  0  0  0  0  0  0  0  0  0  0  0
   -2.2326   21.5419  -33.4170 H   0  0  0  0  0  0  0  0  0  0  0  0
   -4.4460   22.2140  -34.2060 H   0  0  0  0  0  0  0  0  0  0  0  0
   -3.6320   19.2712  -34.2309 H   0  0  0  0  0  0  0  0  0  0  0  0
   -3.9225   16.9119  -34.9509 H   0  0  0  0  0  0  0  0  0  0  0  0
   -6.0443   15.7090  -34.4697 H   0  0  0  0  0  0  0  0  0  0  0  0
   -7.8761   16.8392  -33.2350 H   0  0  0  0  0  0  0  0  0  0  0  0
   -9.2290   18.6088  -30.9412 H   0  0  0  0  0  0  0  0  0  0  0  0
   -9.9347   19.2474  -32.4646 H   0  0  0  0  0  0  0  0  0  0  0  0
   -9.0767   17.6693  -32.4646 H   0  0  0  0  0  0  0  0  0  0  0  0
   -7.8593   23.8425  -30.2834 H   0  0  0  0  0  0  0  0  0  0  0  0
   -5.0677   23.9160  -30.5347 H   0  0  0  0  0  0  0  0  0  0  0  0
   -4.4845   23.2325  -32.0901 H   0  0  0  0  0  0  0  0  0  0  0  0
   -5.6864   24.5675  -32.0901 H   0  0  0  0  0  0  0  0  0  0  0  0
  1  2  1  0
  2  3  1  0
  3  4  1  0
  4  5  1  0
  3  6  1  0
  6  7  1  0
  7  8  1  0
  8  9  1  0
  9 10  1  0
 10 11  1  0
 11 12  1  0
 12 13  2  0
 13 14  1  0
 14 15  2  0
 15 16  1  0
 16 17  2  0
 17 18  1  0
 18 19  2  0
 19 20  1  0
 19 21  1  0
 21 22  1  0
 22 23  1  0
 23 24  2  0
 24 25  1  0
 24 26  1  0
 26 12  1  0
 18 13  1  0
 26 21  2  0
  1 27  1  0
  1 28  1  0
  1 29  1  0
  2 30  1  0
  2 31  1  0
  3 32  1  0
  4 33  1  0
  4 34  1  0
  5 35  1  0
  5 36  1  0
  5 37  1  0
  6 38  1  0
  6 39  1  0
  7 40  1  0
  7 41  1  0
  9 42  1  0
  9 43  1  0
 10 44  1  0
 10 45  1  0
 11 46  1  0
 14 47  1  0
 15 48  1  0
 16 49  1  0
 17 50  1  0
 20 51  1  0
 20 52  1  0
 20 53  1  0
 23 54  1  0
 25 55  1  0
 25 56  1  0
 25 57  1  0
M  CHG  2   3   1  19   1
M  END
>  <UniqueID>  (10) 
9

>  <SMILES>  (10) 
CC[NH+](CC)CCOCCNc1c2ccccc2[n+](C)c2scc(C)c12

>  <Energy>  (10) 
110.66540767403667

>  <Genealogy>  (10) 
CC[NH+](CC)CCOCCNc1c2ccccc2[n+](C)c2scc(C)c12 (protonated)
CC[NH+](CC)CCOCCNc1c2ccccc2[n+](C)c2scc(C)c12 (3D coordinates assigned)
CC[NH+](CC)CCOCCNc1c2ccccc2[n+](C)c2scc(C)c12 (optimized conformer: 110.66540767403667 kcal/mol)

>  <smiles>  (10) 
CCN(CC)CCOCCNc1c2ccccc2[n+](C)c2scc(C)c12

>  <score_type>  (10) 
oracle

>  <origin>  (10) 
adg

>  <m_score__min__energy>  (10) 
-7.3700000000000001

>  <m_primary>  (10) 
energy

$$$$
10:0
     RDKit          3D

 72 74  0  0  0  0  0  0  0  0999 V2000
   -8.3420   20.0300  -32.5110 C   0  0  0  0  0  0  0  0  0  0  0  0
   -7.0640   20.0570  -33.3610 C   0  0  0  0  0  0  0  0  0  0  0  0
   -6.1570   18.8930  -33.1550 N   0  0  0  0  0  0  0  0  0  0  0  0
   -6.7760   17.8010  -32.3540 C   0  0  0  0  0  0  0  0  0  0  0  0
   -5.7470   16.8500  -31.7330 C   0  0  0  0  0  0  0  0  0  0  0  0
   -5.6430   18.3790  -34.4570 C   0  0  0  0  0  0  0  0  0  0  0  0
   -4.1120   18.2000  -34.4780 C   0  0  0  0  0  0  0  0  0  0  0  0
   -3.5490   18.4840  -33.2090 O   0  0  0  0  0  0  0  0  0  0  0  0
   -2.4010   19.3030  -33.3220 C   0  0  0  0  0  0  0  0  0  0  0  0
   -2.8170   20.7720  -33.4330 C   0  0  0  0  0  0  0  0  0  0  0  0
   -4.0350   20.9950  -32.7460 O   0  0  0  0  0  0  0  0  0  0  0  0
   -3.9130   20.6620  -31.3780 C   0  0  0  0  0  0  0  0  0  0  0  0
   -4.0820   21.8570  -30.5390 N   0  0  0  0  0  0  0  0  0  0  0  0
   -3.1830   22.3400  -29.6360 C   0  0  0  0  0  0  0  0  0  0  0  0
   -1.8250   21.7430  -29.4000 C   0  0  0  0  0  0  0  0  0  0  0  0
   -3.6400   23.5450  -29.0950 C   0  0  0  0  0  0  0  0  0  0  0  0
   -2.8880   24.4840  -28.1940 C   0  0  0  0  0  0  0  0  0  0  0  0
   -1.8780   25.2100  -28.9730 N   0  0  0  0  0  0  0  0  0  0  0  0
   -0.7650   25.6710  -28.1290 C   0  0  0  0  0  0  0  0  0  0  0  0
   -0.5720   24.7940  -26.9140 C   0  0  0  0  0  0  0  0  0  0  0  0
   -0.0710   23.4900  -27.0480 C   0  0  0  0  0  0  0  0  0  0  0  0
    0.1120   22.6850  -25.9200 C   0  0  0  0  0  0  0  0  0  0  0  0
   -0.1840   23.1790  -24.6410 C   0  0  0  0  0  0  0  0  0  0  0  0
   -0.0290   22.3000  -23.4370 C   0  0  0  0  0  0  0  0  0  0  0  0
   -0.6910   24.4800  -24.5070 C   0  0  0  0  0  0  0  0  0  0  0  0
   -0.8790   25.2850  -25.6340 C   0  0  0  0  0  0  0  0  0  0  0  0
   -4.8550   23.7900  -29.7070 C   0  0  0  0  0  0  0  0  0  0  0  0
   -5.7280   24.8740  -29.5940 C   0  0  0  0  0  0  0  0  0  0  0  0
   -6.8910   24.8680  -30.3820 C   0  0  0  0  0  0  0  0  0  0  0  0
   -7.1490   23.8020  -31.2680 C   0  0  0  0  0  0  0  0  0  0  0  0
   -6.2480   22.7280  -31.3740 C   0  0  0  0  0  0  0  0  0  0  0  0
   -5.1000   22.7480  -30.5700 C   0  0  0  0  0  0  0  0  0  0  0  0
   -8.0731   20.0357  -31.4444 H   0  0  0  0  0  0  0  0  0  0  0  0
   -8.9533   20.9154  -32.7398 H   0  0  0  0  0  0  0  0  0  0  0  0
   -8.9154   19.1195  -32.7398 H   0  0  0  0  0  0  0  0  0  0  0  0
   -7.3574   20.0799  -34.4209 H   0  0  0  0  0  0  0  0  0  0  0  0
   -6.5014   20.9494  -33.0495 H   0  0  0  0  0  0  0  0  0  0  0  0
   -5.3440   19.2610  -32.6070 H   0  0  0  0  0  0  0  0  0  0  0  0
   -7.3673   18.2534  -31.5442 H   0  0  0  0  0  0  0  0  0  0  0  0
   -7.3993   17.2066  -33.0383 H   0  0  0  0  0  0  0  0  0  0  0  0
   -5.8094   16.9077  -30.6363 H   0  0  0  0  0  0  0  0  0  0  0  0
   -5.9561   15.8203  -32.0585 H   0  0  0  0  0  0  0  0  0  0  0  0
   -4.7369   17.1395  -32.0585 H   0  0  0  0  0  0  0  0  0  0  0  0
   -6.1116   17.4042  -34.6575 H   0  0  0  0  0  0  0  0  0  0  0  0
   -5.8953   19.1248  -35.2252 H   0  0  0  0  0  0  0  0  0  0  0  0
   -3.8752   17.1613  -34.7521 H   0  0  0  0  0  0  0  0  0  0  0  0
   -3.6879   18.8995  -35.2135 H   0  0  0  0  0  0  0  0  0  0  0  0
   -1.7687   19.1694  -32.4318 H   0  0  0  0  0  0  0  0  0  0  0  0
   -1.8396   19.0168  -34.2236 H   0  0  0  0  0  0  0  0  0  0  0  0
   -2.0321   21.4049  -32.9933 H   0  0  0  0  0  0  0  0  0  0  0  0
   -2.9558   21.0235  -34.4948 H   0  0  0  0  0  0  0  0  0  0  0  0
   -4.6847   19.9234  -31.1152 H   0  0  0  0  0  0  0  0  0  0  0  0
   -2.9111   20.2434  -31.2023 H   0  0  0  0  0  0  0  0  0  0  0  0
   -1.6427   21.6628  -28.3182 H   0  0  0  0  0  0  0  0  0  0  0  0
   -1.7804   20.7423  -29.8545 H   0  0  0  0  0  0  0  0  0  0  0  0
   -1.0575   22.3867  -29.8545 H   0  0  0  0  0  0  0  0  0  0  0  0
   -3.5903   25.2021  -27.7454 H   0  0  0  0  0  0  0  0  0  0  0  0
   -2.3919   23.9085  -27.3986 H   0  0  0  0  0  0  0  0  0  0  0  0
   -1.5040   24.5790  -29.7210 H   0  0  0  0  0  0  0  0  0  0  0  0
    0.1598   25.6604  -28.7246 H   0  0  0  0  0  0  0  0  0  0  0  0
   -1.0030   26.6865  -27.7794 H   0  0  0  0  0  0  0  0  0  0  0  0
    0.1789   23.0995  -28.0455 H   0  0  0  0  0  0  0  0  0  0  0  0
    0.4902   21.6586  -26.0360 H   0  0  0  0  0  0  0  0  0  0  0  0
   -0.1358   22.9054  -22.5248 H   0  0  0  0  0  0  0  0  0  0  0  0
   -0.8032   21.5187  -23.4513 H   0  0  0  0  0  0  0  0  0  0  0  0
    0.9658   21.8307  -23.4513 H   0  0  0  0  0  0  0  0  0  0  0  0
   -0.9421   24.8689  -23.5092 H   0  0  0  0  0  0  0  0  0  0  0  0
   -1.2689   26.3071  -25.5183 H   0  0  0  0  0  0  0  0  0  0  0  0
   -5.5117   25.7070  -28.9090 H   0  0  0  0  0  0  0  0  0  0  0  0
   -7.6055   25.7010  -30.3072 H   0  0  0  0  0  0  0  0  0  0  0  0
   -8.0623   23.8107  -31.8810 H   0  0  0  0  0  0  0  0  0  0  0  0
   -6.4385   21.8960  -32.0679 H   0  0  0  0  0  0  0  0  0  0  0  0
  1  2  1  0
  2  3  1  0
  3  4  1  0
  4  5  1  0
  3  6  1  0
  6  7  1  0
  7  8  1  0
  8  9  1  0
  9 10  1  0
 10 11  1  0
 11 12  1  0
 12 13  1  0
 13 14  1  0
 14 15  1  0
 14 16  2  0
 16 17  1  0
 17 18  1  0
 18 19  1  0
 19 20  1  0
 20 21  2  0
 21 22  1  0
 22 23  2  0
 23 24  1  0
 23 25  1  0
 25 26  2  0
 16 27  1  0
 27 28  2  0
 28 29  1  0
 29 30  2  0
 30 31  1  0
 31 32  2  0
 32 13  1  0
 26 20  1  0
 32 27  1  0
  1 33  1  0
  1 34  1  0
  1 35  1  0
  2 36  1  0
  2 37  1  0
  3 38  1  0
  4 39  1  0
  4 40  1  0
  5 41  1  0
  5 42  1  0
  5 43  1  0
  6 44  1  0
  6 45  1  0
  7 46  1  0
  7 47  1  0
  9 48  1  0
  9 49  1  0
 10 50  1  0
 10 51  1  0
 12 52  1  0
 12 53  1  0
 15 54  1  0
 15 55  1  0
 15 56  1  0
 17 57  1  0
 17 58  1  0
 18 59  1  0
 19 60  1  0
 19 61  1  0
 21 62  1  0
 22 63  1  0
 24 64  1  0
 24 65  1  0
 24 66  1  0
 25 67  1  0
 26 68  1  0
 28 69  1  0
 29 70  1  0
 30 71  1  0
 31 72  1  0
M  CHG  1   3   1
M  END
>  <UniqueID>  (11) 
10

>  <SMILES>  (11) 
CC[NH+](CC)CCOCCOCn1c(C)c(CNCc2ccc(C)cc2)c2ccccc21

>  <Energy>  (11) 
109.99672913952888

>  <Genealogy>  (11) 
CC[NH+](CC)CCOCCOCn1c(C)c(CNCc2ccc(C)cc2)c2ccccc21 (protonated)
CC[NH+](CC)CCOCCOCn1c(C)c(CNCc2ccc(C)cc2)c2ccccc21 (3D coordinates assigned)
CC[NH+](CC)CCOCCOCn1c(C)c(CNCc2ccc(C)cc2)c2ccccc21 (optimized conformer: 109.99672913952888 kcal/mol)

>  <smiles>  (11) 
CCN(CC)CCOCCOCn1c(C)c(CNCc2ccc(C)cc2)c2ccccc21

>  <score_type>  (11) 
oracle

>  <origin>  (11) 
adg

>  <m_score__min__energy>  (11) 
-9.4100000000000001

>  <m_primary>  (11) 
energy

$$$$
11:0
     RDKit          3D

 57 60  0  0  0  0  0  0  0  0999 V2000
   -9.1330   18.6890  -31.9820 C   0  0  0  0  0  0  0  0  0  0  0  0
   -8.2270   19.8870  -31.8720 C   0  0  0  0  0  0  0  0  0  0  0  0
   -8.6310   20.9840  -31.0980 C   0  0  0  0  0  0  0  0  0  0  0  0
   -7.7960   22.0880  -30.9350 C   0  0  0  0  0  0  0  0  0  0  0  0
   -6.5400   22.1360  -31.5630 C   0  0  0  0  0  0  0  0  0  0  0  0
   -5.6450   23.2550  -31.3550 N   0  0  0  0  0  0  0  0  0  0  0  0
   -6.1240   24.5640  -30.9130 C   0  0  0  0  0  0  0  0  0  0  0  0
   -5.6310   24.8210  -29.4840 C   0  0  0  0  0  0  0  0  0  0  0  0
   -4.2380   24.3540  -29.2540 N   0  0  0  0  0  0  0  0  0  0  0  0
   -4.0740   23.4360  -28.1060 C   0  0  0  0  0  0  0  0  0  0  0  0
   -3.0480   22.3200  -28.3620 C   0  0  0  0  0  0  0  0  0  0  0  0
   -1.6170   22.8540  -28.4180 C   0  0  0  0  0  0  0  0  0  0  0  0
   -1.0950   22.9990  -27.0580 N   0  0  0  0  0  0  0  0  0  0  0  0
   -0.8910   21.9960  -26.1670 C   0  0  0  0  0  0  0  0  0  0  0  0
   -0.5650   22.4360  -24.9230 N   0  0  0  0  0  0  0  0  0  0  0  0
   -0.5830   23.7720  -25.0730 C   0  0  0  0  0  0  0  0  0  0  0  0
   -0.3610   24.6930  -24.1080 N   0  0  0  0  0  0  0  0  0  0  0  0
   -0.4590   26.0180  -24.4320 C   0  0  0  0  0  0  0  0  0  0  0  0
   -0.7980   26.4090  -25.7120 N   0  0  0  0  0  0  0  0  0  0  0  0
   -0.8710   27.8390  -26.0340 C   0  0  0  0  0  0  0  0  0  0  0  0
   -1.0260   25.4660  -26.6860 C   0  0  0  0  0  0  0  0  0  0  0  0
   -1.3330   25.8080  -27.8610 O   0  0  0  0  0  0  0  0  0  0  0  0
   -0.9070   24.1200  -26.3400 C   0  0  0  0  0  0  0  0  0  0  0  0
   -3.4490   24.0130  -30.4620 C   0  0  0  0  0  0  0  0  0  0  0  0
   -4.1910   23.0700  -31.4330 C   0  0  0  0  0  0  0  0  0  0  0  0
   -6.1400   21.0450  -32.3560 C   0  0  0  0  0  0  0  0  0  0  0  0
   -6.9630   19.9160  -32.5050 C   0  0  0  0  0  0  0  0  0  0  0  0
   -6.4860   18.7620  -33.3480 C   0  0  0  0  0  0  0  0  0  0  0  0
   -9.3993   18.3369  -30.9745 H   0  0  0  0  0  0  0  0  0  0  0  0
  -10.0471   18.9693  -32.5259 H   0  0  0  0  0  0  0  0  0  0  0  0
   -8.6144   17.8858  -32.5259 H   0  0  0  0  0  0  0  0  0  0  0  0
   -9.6186   20.9732  -30.6137 H   0  0  0  0  0  0  0  0  0  0  0  0
   -8.1237   22.9305  -30.3082 H   0  0  0  0  0  0  0  0  0  0  0  0
   -5.7346   25.3445  -31.5832 H   0  0  0  0  0  0  0  0  0  0  0  0
   -7.2236   24.5837  -30.9354 H   0  0  0  0  0  0  0  0  0  0  0  0
   -5.6744   25.9025  -29.2880 H   0  0  0  0  0  0  0  0  0  0  0  0
   -6.2835   24.2526  -28.8050 H   0  0  0  0  0  0  0  0  0  0  0  0
   -3.7434   24.0213  -27.2353 H   0  0  0  0  0  0  0  0  0  0  0  0
   -5.0466   22.9516  -27.9345 H   0  0  0  0  0  0  0  0  0  0  0  0
   -3.1188   21.5806  -27.5507 H   0  0  0  0  0  0  0  0  0  0  0  0
   -3.2780   21.8667  -29.3375 H   0  0  0  0  0  0  0  0  0  0  0  0
   -0.9851   22.1504  -28.9799 H   0  0  0  0  0  0  0  0  0  0  0  0
   -1.6112   23.8335  -28.9186 H   0  0  0  0  0  0  0  0  0  0  0  0
   -0.9807   20.9308  -26.4262 H   0  0  0  0  0  0  0  0  0  0  0  0
   -0.1190   24.4010  -23.1350 H   0  0  0  0  0  0  0  0  0  0  0  0
   -0.2655   26.7812  -23.6638 H   0  0  0  0  0  0  0  0  0  0  0  0
   -0.9008   28.4235  -25.1026 H   0  0  0  0  0  0  0  0  0  0  0  0
    0.0135   28.1284  -26.6204 H   0  0  0  0  0  0  0  0  0  0  0  0
   -1.7804   28.0369  -26.6204 H   0  0  0  0  0  0  0  0  0  0  0  0
   -3.2087   24.9443  -30.9958 H   0  0  0  0  0  0  0  0  0  0  0  0
   -2.5466   23.4840  -30.1217 H   0  0  0  0  0  0  0  0  0  0  0  0
   -3.8583   23.2804  -32.4601 H   0  0  0  0  0  0  0  0  0  0  0  0
   -3.9591   22.0322  -31.1517 H   0  0  0  0  0  0  0  0  0  0  0  0
   -5.1668   21.0763  -32.8679 H   0  0  0  0  0  0  0  0  0  0  0  0
   -6.1482   17.9449  -32.6936 H   0  0  0  0  0  0  0  0  0  0  0  0
   -7.3108   18.4062  -33.9829 H   0  0  0  0  0  0  0  0  0  0  0  0
   -5.6507   19.0924  -33.9829 H   0  0  0  0  0  0  0  0  0  0  0  0
  1  2  1  0
  2  3  2  0
  3  4  1  0
  4  5  2  0
  5  6  1  0
  6  7  1  0
  7  8  1  0
  8  9  1  0
  9 10  1  0
 10 11  1  0
 11 12  1  0
 12 13  1  0
 13 14  1  0
 14 15  2  0
 15 16  1  0
 16 17  1  0
 17 18  2  0
 18 19  1  0
 19 20  1  0
 19 21  1  0
 21 22  2  0
 21 23  1  0
  9 24  1  0
 24 25  1  0
  5 26  1  0
 26 27  2  0
 27 28  1  0
 27  2  1  0
 25  6  1  0
 23 13  1  0
 23 16  2  0
  1 29  1  0
  1 30  1  0
  1 31  1  0
  3 32  1  0
  4 33  1  0
  7 34  1  0
  7 35  1  0
  8 36  1  0
  8 37  1  0
 10 38  1  0
 10 39  1  0
 11 40  1  0
 11 41  1  0
 12 42  1  0
 12 43  1  0
 14 44  1  0
 17 45  1  0
 18 46  1  0
 20 47  1  0
 20 48  1  0
 20 49  1  0
 24 50  1  0
 24 51  1  0
 25 52  1  0
 25 53  1  0
 26 54  1  0
 28 55  1  0
 28 56  1  0
 28 57  1  0
M  CHG  1  17   1
M  END
>  <UniqueID>  (12) 
11

>  <SMILES>  (12) 
Cc1ccc(N2CCN(CCCn3cnc4[nH+]cn(C)c(=O)c43)CC2)cc1C

>  <Energy>  (12) 
108.5524113482332

>  <Genealogy>  (12) 
Cc1ccc(N2CCN(CCCn3cnc4[nH+]cn(C)c(=O)c43)CC2)cc1C (protonated)
Cc1ccc(N2CCN(CCCn3cnc4[nH+]cn(C)c(=O)c43)CC2)cc1C (3D coordinates assigned)
Cc1ccc(N2CCN(CCCn3cnc4[nH+]cn(C)c(=O)c43)CC2)cc1C (nonaromatic ring conformer: 108.5524113482332 kcal/mol)

>  <smiles>  (12) 
Cc1ccc(N2CCN(CCCn3cnc4ncn(C)c(=O)c43)CC2)cc1C

>  <score_type>  (12) 
oracle

>  <origin>  (12) 
adg

>  <m_score__min__energy>  (12) 
-8.9499999999999993

>  <m_primary>  (12) 
energy

$$$$
12:0
     RDKit          3D

 48 49  0  0  0  0  0  0  0  0999 V2000
   -2.7710   20.6240  -28.3870 C   0  0  0  0  0  0  0  0  0  0  0  0
   -3.4370   20.9800  -29.7270 C   0  0  0  0  0  0  0  0  0  0  0  0
   -3.0940   22.3340  -30.2380 N   0  0  0  0  0  0  0  0  0  0  0  0
   -1.9040   22.2980  -31.1390 C   0  0  0  0  0  0  0  0  0  0  0  0
   -1.8080   20.9840  -31.9230 C   0  0  0  0  0  0  0  0  0  0  0  0
   -2.9370   23.3000  -29.1170 C   0  0  0  0  0  0  0  0  0  0  0  0
   -3.8220   24.5460  -29.2600 C   0  0  0  0  0  0  0  0  0  0  0  0
   -4.0810   24.8000  -30.6260 O   0  0  0  0  0  0  0  0  0  0  0  0
   -5.3850   25.3240  -30.7980 C   0  0  0  0  0  0  0  0  0  0  0  0
   -6.4280   24.2390  -30.5200 C   0  0  0  0  0  0  0  0  0  0  0  0
   -6.0430   23.0040  -31.1220 O   0  0  0  0  0  0  0  0  0  0  0  0
   -6.9220   21.9990  -31.5620 C   0  0  0  0  0  0  0  0  0  0  0  0
   -8.2960   21.9930  -31.2370 C   0  0  0  0  0  0  0  0  0  0  0  0
   -9.1150   20.9590  -31.7120 C   0  0  0  0  0  0  0  0  0  0  0  0
   -8.5730   19.9430  -32.5040 C   0  0  0  0  0  0  0  0  0  0  0  0
   -7.2120   19.9920  -32.8040 C   0  0  0  0  0  0  0  0  0  0  0  0
   -6.4380   20.9900  -32.3420 N   0  0  0  0  0  0  0  0  0  0  0  0
   -5.0610   20.8390  -32.7720 C   0  0  0  0  0  0  0  0  0  0  0  0
   -5.0390   19.5510  -33.6170 C   0  0  0  0  0  0  0  0  0  0  0  0
   -6.4750   19.0060  -33.6240 C   0  0  0  0  0  0  0  0  0  0  0  0
   -3.4090   20.9651  -27.5584 H   0  0  0  0  0  0  0  0  0  0  0  0
   -2.6372   19.5341  -28.3222 H   0  0  0  0  0  0  0  0  0  0  0  0
   -1.7904   21.1183  -28.3222 H   0  0  0  0  0  0  0  0  0  0  0  0
   -3.1223   20.2387  -30.4763 H   0  0  0  0  0  0  0  0  0  0  0  0
   -4.5229   20.9743  -29.5514 H   0  0  0  0  0  0  0  0  0  0  0  0
   -3.9360   22.6270  -30.7880 H   0  0  0  0  0  0  0  0  0  0  0  0
   -1.9755   23.1317  -31.8531 H   0  0  0  0  0  0  0  0  0  0  0  0
   -1.0042   22.3825  -30.5120 H   0  0  0  0  0  0  0  0  0  0  0  0
   -1.7464   20.1408  -31.2193 H   0  0  0  0  0  0  0  0  0  0  0  0
   -2.7001   20.8688  -32.5561 H   0  0  0  0  0  0  0  0  0  0  0  0
   -0.9086   20.9996  -32.5561 H   0  0  0  0  0  0  0  0  0  0  0  0
   -3.2001   22.7909  -28.1781 H   0  0  0  0  0  0  0  0  0  0  0  0
   -1.8912   23.6409  -29.1250 H   0  0  0  0  0  0  0  0  0  0  0  0
   -4.7734   24.3796  -28.7335 H   0  0  0  0  0  0  0  0  0  0  0  0
   -3.3011   25.4112  -28.8240 H   0  0  0  0  0  0  0  0  0  0  0  0
   -5.5358   26.1611  -30.1004 H   0  0  0  0  0  0  0  0  0  0  0  0
   -5.4982   25.6756  -31.8341 H   0  0  0  0  0  0  0  0  0  0  0  0
   -6.5211   24.0975  -29.4331 H   0  0  0  0  0  0  0  0  0  0  0  0
   -7.3908   24.5559  -30.9472 H   0  0  0  0  0  0  0  0  0  0  0  0
   -8.7212   22.7945  -30.6151 H   0  0  0  0  0  0  0  0  0  0  0  0
  -10.1859   20.9474  -31.4609 H   0  0  0  0  0  0  0  0  0  0  0  0
   -9.2043   19.1250  -32.8813 H   0  0  0  0  0  0  0  0  0  0  0  0
   -4.7494   21.7027  -33.3777 H   0  0  0  0  0  0  0  0  0  0  0  0
   -4.3685   20.7824  -31.9192 H   0  0  0  0  0  0  0  0  0  0  0  0
   -4.7134   19.7760  -34.6434 H   0  0  0  0  0  0  0  0  0  0  0  0
   -4.3372   18.8143  -33.1990 H   0  0  0  0  0  0  0  0  0  0  0  0
   -6.8766   18.9644  -34.6472 H   0  0  0  0  0  0  0  0  0  0  0  0
   -6.5497   17.9792  -33.2365 H   0  0  0  0  0  0  0  0  0  0  0  0
  1  2  1  0
  2  3  1  0
  3  4  1  0
  4  5  1  0
  3  6  1  0
  6  7  1  0
  7  8  1  0
  8  9  1  0
  9 10  1  0
 10 11  1  0
 11 12  1  0
 12 13  2  0
 13 14  1  0
 14 15  2  0
 15 16  1  0
 16 17  2  0
 17 18  1  0
 18 19  1  0
 19 20  1  0
 17 12  1  0
 20 16  1  0
  1 21  1  0
  1 22  1  0
  1 23  1  0
  2 24  1  0
  2 25  1  0
  3 26  1  0
  4 27  1  0
  4 28  1  0
  5 29  1  0
  5 30  1  0
  5 31  1  0
  6 32  1  0
  6 33  1  0
  7 34  1  0
  7 35  1  0
  9 36  1  0
  9 37  1  0
 10 38  1  0
 10 39  1  0
 13 40  1  0
 14 41  1  0
 15 42  1  0
 18 43  1  0
 18 44  1  0
 19 45  1  0
 19 46  1  0
 20 47  1  0
 20 48  1  0
M  CHG  2   3   1  17   1
M  END
>  <UniqueID>  (13) 
12

>  <SMILES>  (13) 
CC[NH+](CC)CCOCCOc1cccc2[n+]1CCC2

>  <Energy>  (13) 
57.48678318510596

>  <Genealogy>  (13) 
CC[NH+](CC)CCOCCOc1cccc2[n+]1CCC2 (protonated)
CC[NH+](CC)CCOCCOc1cccc2[n+]1CCC2 (3D coordinates assigned)
CC[NH+](CC)CCOCCOc1cccc2[n+]1CCC2 (nonaromatic ring conformer: 57.48678318510596 kcal/mol)

>  <smiles>  (13) 
CCN(CC)CCOCCOc1cccc2[n+]1CCC2

>  <score_type>  (13) 
oracle

>  <origin>  (13) 
adg

>  <m_score__min__energy>  (13) 
-5.2300000000000004

>  <m_primary>  (13) 
energy

$$$$
13:0
     RDKit          3D

 40 40  0  0  0  0  0  0  0  0999 V2000
   -1.5360   25.6000  -27.1270 C   0  0  0  0  0  0  0  0  0  0  0  0
   -1.2640   25.2930  -28.6000 C   0  0  0  0  0  0  0  0  0  0  0  0
   -1.9140   24.0260  -29.0050 N   0  0  0  0  0  0  0  0  0  0  0  0
   -2.6800   23.4370  -27.8820 C   0  0  0  0  0  0  0  0  0  0  0  0
   -4.1770   23.6800  -28.0540 C   0  0  0  0  0  0  0  0  0  0  0  0
   -0.9340   23.0600  -29.5710 C   0  0  0  0  0  0  0  0  0  0  0  0
   -1.5360   22.3300  -30.7750 C   0  0  0  0  0  0  0  0  0  0  0  0
   -2.9560   22.6440  -30.9240 N   0  0  0  0  0  0  0  0  0  0  0  0
   -3.7870   22.0150  -31.9130 C   0  0  0  0  0  0  0  0  0  0  0  0
   -3.2640   21.2910  -32.8050 O   0  0  0  0  0  0  0  0  0  0  0  0
   -5.2510   22.2330  -31.9270 C   0  0  0  0  0  0  0  0  0  0  0  0
   -6.0980   21.1530  -32.2390 C   0  0  0  0  0  0  0  0  0  0  0  0
   -7.4850   21.3210  -32.2630 C   0  0  0  0  0  0  0  0  0  0  0  0
   -8.5270   19.9690  -32.6690 Cl  0  0  0  0  0  0  0  0  0  0  0  0
   -8.0410   22.5650  -31.9670 C   0  0  0  0  0  0  0  0  0  0  0  0
   -7.2170   23.6430  -31.6390 C   0  0  0  0  0  0  0  0  0  0  0  0
   -5.8150   23.4870  -31.6040 C   0  0  0  0  0  0  0  0  0  0  0  0
   -4.9700   24.5440  -31.2300 O   0  0  0  0  0  0  0  0  0  0  0  0
   -5.3710   25.6710  -30.4580 C   0  0  0  0  0  0  0  0  0  0  0  0
   -0.9387   24.9258  -26.4956 H   0  0  0  0  0  0  0  0  0  0  0  0
   -1.2602   26.6431  -26.9129 H   0  0  0  0  0  0  0  0  0  0  0  0
   -2.6047   25.4519  -26.9129 H   0  0  0  0  0  0  0  0  0  0  0  0
   -1.6584   26.1134  -29.2175 H   0  0  0  0  0  0  0  0  0  0  0  0
   -0.1780   25.1919  -28.7429 H   0  0  0  0  0  0  0  0  0  0  0  0
   -2.4930   22.3535  -27.8482 H   0  0  0  0  0  0  0  0  0  0  0  0
   -2.3528   23.9140  -26.9464 H   0  0  0  0  0  0  0  0  0  0  0  0
   -4.6520   23.7571  -27.0648 H   0  0  0  0  0  0  0  0  0  0  0  0
   -4.3350   24.6156  -28.6106 H   0  0  0  0  0  0  0  0  0  0  0  0
   -4.6229   22.8425  -28.6106 H   0  0  0  0  0  0  0  0  0  0  0  0
   -0.0328   23.6037  -29.8907 H   0  0  0  0  0  0  0  0  0  0  0  0
   -0.6762   22.3205  -28.7986 H   0  0  0  0  0  0  0  0  0  0  0  0
   -1.0022   22.6385  -31.6860 H   0  0  0  0  0  0  0  0  0  0  0  0
   -1.4324   21.2467  -30.6147 H   0  0  0  0  0  0  0  0  0  0  0  0
   -3.3490   23.4240  -30.3500 H   0  0  0  0  0  0  0  0  0  0  0  0
   -5.6642   20.1679  -32.4660 H   0  0  0  0  0  0  0  0  0  0  0  0
   -9.1327   22.6974  -31.9920 H   0  0  0  0  0  0  0  0  0  0  0  0
   -7.6637   24.6209  -31.4062 H   0  0  0  0  0  0  0  0  0  0  0  0
   -5.2858   25.4314  -29.3878 H   0  0  0  0  0  0  0  0  0  0  0  0
   -4.7224   26.5272  -30.6949 H   0  0  0  0  0  0  0  0  0  0  0  0
   -6.4147   25.9251  -30.6949 H   0  0  0  0  0  0  0  0  0  0  0  0
  1  2  1  0
  2  3  1  0
  3  4  1  0
  4  5  1  0
  3  6  1  0
  6  7  1  0
  7  8  1  0
  8  9  1  0
  9 10  2  0
  9 11  1  0
 11 12  2  0
 12 13  1  0
 13 14  1  0
 13 15  2  0
 15 16  1  0
 16 17  2  0
 17 18  1  0
 18 19  1  0
 17 11  1  0
  1 20  1  0
  1 21  1  0
  1 22  1  0
  2 23  1  0
  2 24  1  0
  4 25  1  0
  4 26  1  0
  5 27  1  0
  5 28  1  0
  5 29  1  0
  6 30  1  0
  6 31  1  0
  7 32  1  0
  7 33  1  0
  8 34  1  0
 12 35  1  0
 15 36  1  0
 16 37  1  0
 19 38  1  0
 19 39  1  0
 19 40  1  0
M  END
>  <UniqueID>  (14) 
13

>  <SMILES>  (14) 
CCN(CC)CCNC(=O)c1cc(Cl)ccc1OC

>  <Energy>  (14) 
36.16534325639007

>  <Genealogy>  (14) 
CCN(CC)CCNC(=O)c1cc(Cl)ccc1OC (3D coordinates assigned)
CCN(CC)CCNC(=O)c1cc(Cl)ccc1OC (optimized conformer: 36.16534325639007 kcal/mol)

>  <smiles>  (14) 
CCN(CC)CCNC(=O)c1cc(Cl)ccc1OC

>  <score_type>  (14) 
oracle

>  <origin>  (14) 
adg

>  <m_score__min__energy>  (14) 
-6.8499999999999996

>  <m_primary>  (14) 
energy

$$$$
14:0
     RDKit          3D

 42 43  0  0  0  0  0  0  0  0999 V2000
    0.6820   21.5670  -35.1180 C   0  0  0  0  0  0  0  0  0  0  0  0
   -0.0530   20.8780  -33.9650 C   0  0  0  0  0  0  0  0  0  0  0  0
   -1.5160   20.8790  -34.1460 N   0  0  0  0  0  0  0  0  0  0  0  0
   -2.2310   21.2680  -32.9170 C   0  0  0  0  0  0  0  0  0  0  0  0
   -3.5840   21.9350  -33.2310 C   0  0  0  0  0  0  0  0  0  0  0  0
   -4.4960   21.8940  -32.0720 N   0  0  0  0  0  0  0  0  0  0  0  0
   -4.0440   22.5110  -30.8110 C   0  0  0  0  0  0  0  0  0  0  0  0
   -4.8210   23.7560  -30.4980 C   0  0  0  0  0  0  0  0  0  0  0  0
   -6.0250   23.8240  -29.8250 C   0  0  0  0  0  0  0  0  0  0  0  0
   -6.3580   25.1600  -29.7940 C   0  0  0  0  0  0  0  0  0  0  0  0
   -5.3430   25.8230  -30.4530 C   0  0  0  0  0  0  0  0  0  0  0  0
   -4.4450   24.9600  -30.8640 O   0  0  0  0  0  0  0  0  0  0  0  0
   -5.7480   21.1530  -32.1400 C   0  0  0  0  0  0  0  0  0  0  0  0
   -5.7600   19.7420  -32.1280 C   0  0  0  0  0  0  0  0  0  0  0  0
   -6.9620   19.0330  -32.2060 C   0  0  0  0  0  0  0  0  0  0  0  0
   -8.1810   19.7120  -32.3070 C   0  0  0  0  0  0  0  0  0  0  0  0
   -9.4720   18.9500  -32.3510 C   0  0  0  0  0  0  0  0  0  0  0  0
   -8.1880   21.1120  -32.2950 C   0  0  0  0  0  0  0  0  0  0  0  0
   -6.9880   21.8240  -32.2160 C   0  0  0  0  0  0  0  0  0  0  0  0
    1.4278   22.2661  -34.7117 H   0  0  0  0  0  0  0  0  0  0  0  0
    1.1874   20.8097  -35.7353 H   0  0  0  0  0  0  0  0  0  0  0  0
   -0.0411   22.1202  -35.7353 H   0  0  0  0  0  0  0  0  0  0  0  0
    0.2933   19.8361  -33.8987 H   0  0  0  0  0  0  0  0  0  0  0  0
    0.1699   21.4382  -33.0449 H   0  0  0  0  0  0  0  0  0  0  0  0
   -1.7770   21.5220  -34.9300 H   0  0  0  0  0  0  0  0  0  0  0  0
   -1.7970   19.9090  -34.4130 H   0  0  0  0  0  0  0  0  0  0  0  0
   -2.4095   20.3690  -32.3088 H   0  0  0  0  0  0  0  0  0  0  0  0
   -1.6087   21.9945  -32.3739 H   0  0  0  0  0  0  0  0  0  0  0  0
   -3.4078   22.9847  -33.5087 H   0  0  0  0  0  0  0  0  0  0  0  0
   -4.0549   21.3818  -34.0569 H   0  0  0  0  0  0  0  0  0  0  0  0
   -4.1794   21.7897  -29.9916 H   0  0  0  0  0  0  0  0  0  0  0  0
   -2.9842   22.7843  -30.9212 H   0  0  0  0  0  0  0  0  0  0  0  0
   -6.5984   22.9860  -29.4020 H   0  0  0  0  0  0  0  0  0  0  0  0
   -7.2524   25.6080  -29.3364 H   0  0  0  0  0  0  0  0  0  0  0  0
   -5.2944   26.9107  -30.6099 H   0  0  0  0  0  0  0  0  0  0  0  0
   -4.8099   19.1923  -32.0562 H   0  0  0  0  0  0  0  0  0  0  0  0
   -6.9494   17.9332  -32.1878 H   0  0  0  0  0  0  0  0  0  0  0  0
   -9.8138   18.7482  -31.3251 H   0  0  0  0  0  0  0  0  0  0  0  0
  -10.2311   19.5449  -32.8801 H   0  0  0  0  0  0  0  0  0  0  0  0
   -9.3180   17.9980  -32.8801 H   0  0  0  0  0  0  0  0  0  0  0  0
   -9.1434   21.6546  -32.3480 H   0  0  0  0  0  0  0  0  0  0  0  0
   -7.0099   22.9238  -32.2130 H   0  0  0  0  0  0  0  0  0  0  0  0
  1  2  1  0
  2  3  1  0
  3  4  1  0
  4  5  1  0
  5  6  1  0
  6  7  1  0
  7  8  1  0
  8  9  2  0
  9 10  1  0
 10 11  2  0
 11 12  1  0
  6 13  1  0
 13 14  2  0
 14 15  1  0
 15 16  2  0
 16 17  1  0
 16 18  1  0
 18 19  2  0
 12  8  1  0
 19 13  1  0
  1 20  1  0
  1 21  1  0
  1 22  1  0
  2 23  1  0
  2 24  1  0
  3 25  1  0
  3 26  1  0
  4 27  1  0
  4 28  1  0
  5 29  1  0
  5 30  1  0
  7 31  1  0
  7 32  1  0
  9 33  1  0
 10 34  1  0
 11 35  1  0
 14 36  1  0
 15 37  1  0
 17 38  1  0
 17 39  1  0
 17 40  1  0
 18 41  1  0
 19 42  1  0
M  CHG  1   3   1
M  END
>  <UniqueID>  (15) 
14

>  <SMILES>  (15) 
CC[NH2+]CCN(Cc1ccco1)c1ccc(C)cc1

>  <Energy>  (15) 
65.68725704465415

>  <Genealogy>  (15) 
CC[NH2+]CCN(Cc1ccco1)c1ccc(C)cc1 (protonated)
CC[NH2+]CCN(Cc1ccco1)c1ccc(C)cc1 (3D coordinates assigned)
CC[NH2+]CCN(Cc1ccco1)c1ccc(C)cc1 (optimized conformer: 65.68725704465415 kcal/mol)

>  <smiles>  (15) 
CCNCCN(Cc1ccco1)c1ccc(C)cc1

>  <score_type>  (15) 
oracle

>  <origin>  (15) 
adg

>  <m_score__min__energy>  (15) 
-6.4400000000000004

>  <m_primary>  (15) 
energy

$$$$
15:0
     RDKit          3D

 57 60  0  0  0  0  0  0  0  0999 V2000
   -6.7140   25.0710  -29.9510 C   0  0  0  0  0  0  0  0  0  0  0  0
   -5.3900   25.6340  -30.4650 C   0  0  0  0  0  0  0  0  0  0  0  0
   -4.4460   24.5580  -30.8410 N   0  0  0  0  0  0  0  0  0  0  0  0
   -3.4450   24.1790  -29.8130 C   0  0  0  0  0  0  0  0  0  0  0  0
   -4.0450   23.6150  -28.5230 C   0  0  0  0  0  0  0  0  0  0  0  0
   -5.0470   23.4180  -31.5770 C   0  0  0  0  0  0  0  0  0  0  0  0
   -4.0690   22.2680  -31.8890 C   0  0  0  0  0  0  0  0  0  0  0  0
   -4.4780   21.5800  -33.1120 N   0  0  0  0  0  0  0  0  0  0  0  0
   -5.1430   20.3090  -33.0400 C   0  0  0  0  0  0  0  0  0  0  0  0
   -4.4290   19.1270  -33.2870 C   0  0  0  0  0  0  0  0  0  0  0  0
   -5.0800   17.8830  -33.1710 C   0  0  0  0  0  0  0  0  0  0  0  0
   -6.4580   17.8350  -33.0730 N   0  0  0  0  0  0  0  0  0  0  0  0
   -7.1900   16.6040  -33.4370 C   0  0  0  0  0  0  0  0  0  0  0  0
   -7.1620   18.9740  -32.7360 C   0  0  0  0  0  0  0  0  0  0  0  0
   -8.5400   18.9240  -32.4070 C   0  0  0  0  0  0  0  0  0  0  0  0
   -9.2360   20.0820  -32.0580 C   0  0  0  0  0  0  0  0  0  0  0  0
   -8.5820   21.3080  -32.0150 C   0  0  0  0  0  0  0  0  0  0  0  0
   -7.2250   21.3860  -32.3250 C   0  0  0  0  0  0  0  0  0  0  0  0
   -6.5060   20.2320  -32.6990 C   0  0  0  0  0  0  0  0  0  0  0  0
   -4.2120   16.6630  -33.2010 C   0  0  0  0  0  0  0  0  0  0  0  0
   -4.5230   15.5260  -32.4320 C   0  0  0  0  0  0  0  0  0  0  0  0
   -3.6800   14.4170  -32.4620 C   0  0  0  0  0  0  0  0  0  0  0  0
   -2.5170   14.4520  -33.2230 C   0  0  0  0  0  0  0  0  0  0  0  0
   -2.1870   15.6180  -33.9140 C   0  0  0  0  0  0  0  0  0  0  0  0
   -3.0070   16.7130  -33.8610 N   0  0  0  0  0  0  0  0  0  0  0  0
   -2.5950   17.9560  -34.5260 C   0  0  0  0  0  0  0  0  0  0  0  0
   -2.9600   19.1640  -33.6550 C   0  0  0  0  0  0  0  0  0  0  0  0
   -6.7107   25.0724  -28.8510 H   0  0  0  0  0  0  0  0  0  0  0  0
   -7.5438   25.6941  -30.3160 H   0  0  0  0  0  0  0  0  0  0  0  0
   -6.8408   24.0411  -30.3160 H   0  0  0  0  0  0  0  0  0  0  0  0
   -5.5876   26.2594  -31.3481 H   0  0  0  0  0  0  0  0  0  0  0  0
   -4.9324   26.2246  -29.6577 H   0  0  0  0  0  0  0  0  0  0  0  0
   -2.7801   23.4166  -30.2451 H   0  0  0  0  0  0  0  0  0  0  0  0
   -2.9157   25.1024  -29.5352 H   0  0  0  0  0  0  0  0  0  0  0  0
   -3.5518   24.0786  -27.6559 H   0  0  0  0  0  0  0  0  0  0  0  0
   -5.1224   23.8349  -28.4929 H   0  0  0  0  0  0  0  0  0  0  0  0
   -3.8921   22.5261  -28.4929 H   0  0  0  0  0  0  0  0  0  0  0  0
   -5.8700   23.0132  -30.9697 H   0  0  0  0  0  0  0  0  0  0  0  0
   -5.3811   23.8147  -32.5470 H   0  0  0  0  0  0  0  0  0  0  0  0
   -3.0567   22.6772  -32.0227 H   0  0  0  0  0  0  0  0  0  0  0  0
   -4.0756   21.5525  -31.0535 H   0  0  0  0  0  0  0  0  0  0  0  0
   -4.6380   22.1640  -33.9630 H   0  0  0  0  0  0  0  0  0  0  0  0
   -7.5022   16.0790  -32.5222 H   0  0  0  0  0  0  0  0  0  0  0  0
   -8.0783   16.8674  -34.0299 H   0  0  0  0  0  0  0  0  0  0  0  0
   -6.5344   15.9493  -34.0299 H   0  0  0  0  0  0  0  0  0  0  0  0
   -9.0678   17.9591  -32.4271 H   0  0  0  0  0  0  0  0  0  0  0  0
  -10.3074   20.0245  -31.8157 H   0  0  0  0  0  0  0  0  0  0  0  0
   -9.1354   22.2169  -31.7363 H   0  0  0  0  0  0  0  0  0  0  0  0
   -6.7103   22.3570  -32.2774 H   0  0  0  0  0  0  0  0  0  0  0  0
   -5.4294   15.5129  -31.8088 H   0  0  0  0  0  0  0  0  0  0  0  0
   -3.9341   13.5157  -31.8848 H   0  0  0  0  0  0  0  0  0  0  0  0
   -1.8635   13.5690  -33.2797 H   0  0  0  0  0  0  0  0  0  0  0  0
   -1.2608   15.6579  -34.5060 H   0  0  0  0  0  0  0  0  0  0  0  0
   -1.5071   17.9391  -34.6876 H   0  0  0  0  0  0  0  0  0  0  0  0
   -3.1150   18.0376  -35.4919 H   0  0  0  0  0  0  0  0  0  0  0  0
   -2.3558   19.1437  -32.7360 H   0  0  0  0  0  0  0  0  0  0  0  0
   -2.7577   20.0853  -34.2209 H   0  0  0  0  0  0  0  0  0  0  0  0
  1  2  1  0
  2  3  1  0
  3  4  1  0
  4  5  1  0
  3  6  1  0
  6  7  1  0
  7  8  1  0
  8  9  1  0
  9 10  2  0
 10 11  1  0
 11 12  2  0
 12 13  1  0
 12 14  1  0
 14 15  2  0
 15 16  1  0
 16 17  2  0
 17 18  1  0
 18 19  2  0
 11 20  1  0
 20 21  2  0
 21 22  1  0
 22 23  2  0
 23 24  1  0
 24 25  2  0
 25 26  1  0
 26 27  1  0
 19  9  1  0
 25 20  1  0
 27 10  1  0
 19 14  1  0
  1 28  1  0
  1 29  1  0
  1 30  1  0
  2 31  1  0
  2 32  1  0
  4 33  1  0
  4 34  1  0
  5 35  1  0
  5 36  1  0
  5 37  1  0
  6 38  1  0
  6 39  1  0
  7 40  1  0
  7 41  1  0
  8 42  1  0
 13 43  1  0
 13 44  1  0
 13 45  1  0
 15 46  1  0
 16 47  1  0
 17 48  1  0
 18 49  1  0
 21 50  1  0
 22 51  1  0
 23 52  1  0
 24 53  1  0
 26 54  1  0
 26 55  1  0
 27 56  1  0
 27 57  1  0
M  CHG  2  12   1  25   1
M  END
>  <UniqueID>  (16) 
15

>  <SMILES>  (16) 
CCN(CC)CCNc1c2c([n+](C)c3ccccc13)-c1cccc[n+]1CC2

>  <Energy>  (16) 
94.21363410553907

>  <Genealogy>  (16) 
CCN(CC)CCNc1c2c([n+](C)c3ccccc13)-c1cccc[n+]1CC2 (3D coordinates assigned)
CCN(CC)CCNc1c2c([n+](C)c3ccccc13)-c1cccc[n+]1CC2 (nonaromatic ring conformer: 94.21363410553907 kcal/mol)

>  <smiles>  (16) 
CCN(CC)CCNc1c2c([n+](C)c3ccccc13)-c1cccc[n+]1CC2

>  <score_type>  (16) 
oracle

>  <origin>  (16) 
adg

>  <m_score__min__energy>  (16) 
-8.3900000000000006

>  <m_primary>  (16) 
energy

$$$$
16:0
     RDKit          3D

 36 38  0  0  0  0  0  0  0  0999 V2000
   -7.5434   24.3531  -30.6941 H   0  0  0  0  0  0  0  0  0  0  0  0
   -6.7950   23.5550  -30.8080 C   0  0  0  0  0  0  0  0  0  0  0  0
   -5.5400   23.7880  -30.3840 C   0  0  0  0  0  0  0  0  0  0  0  0
   -4.8220   22.7970  -29.7040 O   0  0  0  0  0  0  0  0  0  0  0  0
   -3.5180   22.9990  -29.2360 C   0  0  0  0  0  0  0  0  0  0  0  0
   -2.8500   21.9670  -28.5700 C   0  0  0  0  0  0  0  0  0  0  0  0
   -3.3494   20.9992  -28.4154 H   0  0  0  0  0  0  0  0  0  0  0  0
   -1.5470   22.1640  -28.1000 C   0  0  0  0  0  0  0  0  0  0  0  0
   -1.0236   21.3510  -27.5755 H   0  0  0  0  0  0  0  0  0  0  0  0
   -0.9090   23.3930  -28.2960 C   0  0  0  0  0  0  0  0  0  0  0  0
    0.1160   23.5444  -27.9267 H   0  0  0  0  0  0  0  0  0  0  0  0
   -1.5710   24.4290  -28.9600 C   0  0  0  0  0  0  0  0  0  0  0  0
   -1.0682   25.3956  -29.1115 H   0  0  0  0  0  0  0  0  0  0  0  0
   -2.8740   24.2360  -29.4320 C   0  0  0  0  0  0  0  0  0  0  0  0
   -3.5580   25.2920  -30.1140 N   0  0  0  0  0  0  0  0  0  0  0  0
   -4.8870   25.0990  -30.5990 C   0  0  0  0  0  0  0  0  0  0  0  0
   -5.4750   26.0390  -31.1980 O   0  0  0  0  0  0  0  0  0  0  0  0
   -7.2050   22.3100  -31.4040 N   0  0  0  0  0  0  0  0  0  0  0  0
   -8.6040   22.1650  -31.8160 C   0  0  0  0  0  0  0  0  0  0  0  0
   -8.7508   22.6515  -32.7916 H   0  0  0  0  0  0  0  0  0  0  0  0
   -9.2566   22.6378  -31.0673 H   0  0  0  0  0  0  0  0  0  0  0  0
   -8.9540   20.6770  -31.9300 C   0  0  0  0  0  0  0  0  0  0  0  0
  -10.0016   20.5841  -32.2523 H   0  0  0  0  0  0  0  0  0  0  0  0
   -8.7938   20.2181  -30.9432 H   0  0  0  0  0  0  0  0  0  0  0  0
   -8.0890   19.9650  -32.9070 N   0  0  0  0  0  0  0  0  0  0  0  0
   -8.5510   20.0360  -33.8450 H   0  0  0  0  0  0  0  0  0  0  0  0
   -8.0270   18.5300  -32.5750 C   0  0  0  0  0  0  0  0  0  0  0  0
   -8.0217   18.4064  -31.4820 H   0  0  0  0  0  0  0  0  0  0  0  0
   -8.9038   18.0176  -32.9976 H   0  0  0  0  0  0  0  0  0  0  0  0
   -7.1092   18.0952  -32.9976 H   0  0  0  0  0  0  0  0  0  0  0  0
   -6.7180   20.5360  -33.0470 C   0  0  0  0  0  0  0  0  0  0  0  0
   -6.7188   21.2460  -33.8872 H   0  0  0  0  0  0  0  0  0  0  0  0
   -6.0291   19.6956  -33.2178 H   0  0  0  0  0  0  0  0  0  0  0  0
   -6.2390   21.2710  -31.7870 C   0  0  0  0  0  0  0  0  0  0  0  0
   -5.2639   21.7387  -31.9884 H   0  0  0  0  0  0  0  0  0  0  0  0
   -6.1471   20.5471  -30.9638 H   0  0  0  0  0  0  0  0  0  0  0  0
  1  2  1  0
  2  3  2  0
  3  4  1  0
  4  5  1  0
  5  6  2  0
  6  7  1  0
  6  8  1  0
  8  9  1  0
  8 10  2  0
 10 11  1  0
 10 12  1  0
 12 13  1  0
 12 14  2  0
 14 15  1  0
 15 16  1  0
 16 17  2  0
  2 18  1  0
 18 19  1  0
 19 20  1  0
 19 21  1  0
 19 22  1  0
 22 23  1  0
 22 24  1  0
 22 25  1  0
 25 26  1  0
 25 27  1  0
 27 28  1  0
 27 29  1  0
 27 30  1  0
 25 31  1  0
 31 32  1  0
 31 33  1  0
 31 34  1  0
 34 35  1  0
 34 36  1  0
 16  3  1  0
 34 18  1  0
 14  5  1  0
M  CHG  2  15  -1  25   1
M  END
>  <UniqueID>  (17) 
16

>  <SMILES>  (17) 
C[NH+]1CCN(/C=C2\Oc3ccccc3[N-]C2=O)CC1

>  <Energy>  (17) 
46.04902859388983

>  <Genealogy>  (17) 
C[NH+]1CCN(C=C2Oc3ccccc3[N-]C2=O)CC1 (protonated)
C[NH+]1CCN(/C=C2\Oc3ccccc3[N-]C2=O)CC1 (cis-trans isomerization)
C[NH+]1CCN(/C=C2\Oc3ccccc3[N-]C2=O)CC1 (3D coordinates assigned)
C[NH+]1CCN(/C=C2\Oc3ccccc3[N-]C2=O)CC1 (nonaromatic ring conformer: 46.04902859388983 kcal/mol)

>  <smiles>  (17) 
CN1CCN(C=C2Oc3ccccc3NC2=O)CC1

>  <score_type>  (17) 
oracle

>  <origin>  (17) 
adg

>  <m_score__min__energy>  (17) 
-8.3499999999999996

>  <m_primary>  (17) 
energy

$$$$
17:0
     RDKit          3D

 77 81  0  0  0  0  0  0  0  0999 V2000
   -4.2350   22.3020  -27.6090 C   0  0  0  0  0  0  0  0  0  0  0  0
   -3.0300   23.0650  -28.0970 C   0  0  0  0  0  0  0  0  0  0  0  0
   -2.7830   24.3520  -27.5820 C   0  0  0  0  0  0  0  0  0  0  0  0
   -1.6770   25.0880  -28.0060 C   0  0  0  0  0  0  0  0  0  0  0  0
   -0.8020   24.5540  -28.9500 C   0  0  0  0  0  0  0  0  0  0  0  0
   -1.0250   23.2780  -29.4660 C   0  0  0  0  0  0  0  0  0  0  0  0
   -2.1220   22.5090  -29.0340 C   0  0  0  0  0  0  0  0  0  0  0  0
   -2.2890   21.1050  -29.5820 C   0  0  0  0  0  0  0  0  0  0  0  0
   -1.0670   20.6120  -30.2370 N   0  0  0  0  0  0  0  0  0  0  0  0
   -0.9780   19.8910  -31.3970 C   0  0  0  0  0  0  0  0  0  0  0  0
   -2.1310   19.4640  -32.2000 C   0  0  0  0  0  0  0  0  0  0  0  0
   -2.0560   18.3030  -32.9800 C   0  0  0  0  0  0  0  0  0  0  0  0
   -3.1320   17.9330  -33.7930 C   0  0  0  0  0  0  0  0  0  0  0  0
   -4.2990   18.7080  -33.8250 C   0  0  0  0  0  0  0  0  0  0  0  0
   -5.3510   18.3040  -34.6600 O   0  0  0  0  0  0  0  0  0  0  0  0
   -6.5360   17.6580  -34.1970 C   0  0  0  0  0  0  0  0  0  0  0  0
   -6.3810   17.2520  -32.7260 C   0  0  0  0  0  0  0  0  0  0  0  0
   -6.8220   18.3000  -31.7790 N   0  0  0  0  0  0  0  0  0  0  0  0
   -7.9680   19.1150  -32.2390 C   0  0  0  0  0  0  0  0  0  0  0  0
   -7.6160   20.5750  -32.6110 C   0  0  0  0  0  0  0  0  0  0  0  0
   -8.4330   21.6340  -31.8420 C   0  0  0  0  0  0  0  0  0  0  0  0
   -7.8440   21.9440  -30.4560 C   0  0  0  0  0  0  0  0  0  0  0  0
   -6.6870   22.8990  -30.5720 C   0  0  0  0  0  0  0  0  0  0  0  0
   -6.8550   24.2550  -30.2490 C   0  0  0  0  0  0  0  0  0  0  0  0
   -5.7790   25.1340  -30.3890 C   0  0  0  0  0  0  0  0  0  0  0  0
   -4.5790   24.6780  -30.8410 N   0  0  0  0  0  0  0  0  0  0  0  0
   -4.3890   23.3700  -31.1650 C   0  0  0  0  0  0  0  0  0  0  0  0
   -5.4400   22.4570  -31.0440 C   0  0  0  0  0  0  0  0  0  0  0  0
   -4.3780   19.8630  -33.0230 C   0  0  0  0  0  0  0  0  0  0  0  0
   -3.2970   20.2370  -32.2180 C   0  0  0  0  0  0  0  0  0  0  0  0
    0.3010   19.3480  -31.5690 C   0  0  0  0  0  0  0  0  0  0  0  0
    0.9940   19.7950  -30.4720 C   0  0  0  0  0  0  0  0  0  0  0  0
    0.1730   20.5280  -29.7020 C   0  0  0  0  0  0  0  0  0  0  0  0
    0.5370   20.4080  -28.4050 N   0  0  0  0  0  0  0  0  0  0  0  0
   -0.1640   20.8500  -27.1990 C   0  0  0  0  0  0  0  0  0  0  0  0
    1.6070   19.5660  -28.4600 C   0  0  0  0  0  0  0  0  0  0  0  0
    2.1780   19.1080  -27.4350 O   0  0  0  0  0  0  0  0  0  0  0  0
    1.9220   19.1740  -29.7250 N   0  0  0  0  0  0  0  0  0  0  0  0
    2.7350   18.0250  -30.1110 C   0  0  0  0  0  0  0  0  0  0  0  0
   -4.2444   22.2960  -26.5091 H   0  0  0  0  0  0  0  0  0  0  0  0
   -5.1504   22.7854  -27.9809 H   0  0  0  0  0  0  0  0  0  0  0  0
   -4.1895   21.2678  -27.9809 H   0  0  0  0  0  0  0  0  0  0  0  0
   -3.4696   24.7813  -26.8375 H   0  0  0  0  0  0  0  0  0  0  0  0
   -1.4950   26.0918  -27.5946 H   0  0  0  0  0  0  0  0  0  0  0  0
    0.0654   25.1397  -29.2884 H   0  0  0  0  0  0  0  0  0  0  0  0
   -0.3360   22.8678  -30.2190 H   0  0  0  0  0  0  0  0  0  0  0  0
   -2.5427   20.4292  -28.7520 H   0  0  0  0  0  0  0  0  0  0  0  0
   -3.0883   21.1315  -30.3373 H   0  0  0  0  0  0  0  0  0  0  0  0
   -1.1491   17.6811  -32.9530 H   0  0  0  0  0  0  0  0  0  0  0  0
   -3.0617   17.0265  -34.4122 H   0  0  0  0  0  0  0  0  0  0  0  0
   -7.3873   18.3477  -34.2953 H   0  0  0  0  0  0  0  0  0  0  0  0
   -6.7106   16.7553  -34.8008 H   0  0  0  0  0  0  0  0  0  0  0  0
   -6.9805   16.3469  -32.5488 H   0  0  0  0  0  0  0  0  0  0  0  0
   -5.3092   17.0816  -32.5467 H   0  0  0  0  0  0  0  0  0  0  0  0
   -6.0150   18.9290  -31.5680 H   0  0  0  0  0  0  0  0  0  0  0  0
   -7.0870   17.8480  -30.8710 H   0  0  0  0  0  0  0  0  0  0  0  0
   -8.3989   18.6296  -33.1271 H   0  0  0  0  0  0  0  0  0  0  0  0
   -8.6688   19.1706  -31.3929 H   0  0  0  0  0  0  0  0  0  0  0  0
   -6.5495   20.7387  -32.3970 H   0  0  0  0  0  0  0  0  0  0  0  0
   -7.8586   20.6987  -33.6768 H   0  0  0  0  0  0  0  0  0  0  0  0
   -8.4512   22.5619  -32.4325 H   0  0  0  0  0  0  0  0  0  0  0  0
   -9.4445   21.2290  -31.6909 H   0  0  0  0  0  0  0  0  0  0  0  0
   -8.6236   22.3960  -29.8251 H   0  0  0  0  0  0  0  0  0  0  0  0
   -7.4853   21.0065  -30.0061 H   0  0  0  0  0  0  0  0  0  0  0  0
   -7.8271   24.6223  -29.8883 H   0  0  0  0  0  0  0  0  0  0  0  0
   -5.9015   26.1969  -30.1335 H   0  0  0  0  0  0  0  0  0  0  0  0
   -3.4058   23.0306  -31.5230 H   0  0  0  0  0  0  0  0  0  0  0  0
   -5.2921   21.4015  -31.3160 H   0  0  0  0  0  0  0  0  0  0  0  0
   -5.2932   20.4732  -33.0297 H   0  0  0  0  0  0  0  0  0  0  0  0
   -3.3639   21.1423  -31.5967 H   0  0  0  0  0  0  0  0  0  0  0  0
    0.6647   18.7127  -32.3900 H   0  0  0  0  0  0  0  0  0  0  0  0
    0.3834   20.5049  -26.3095 H   0  0  0  0  0  0  0  0  0  0  0  0
   -0.2221   21.9484  -27.1905 H   0  0  0  0  0  0  0  0  0  0  0  0
   -1.1802   20.4290  -27.1905 H   0  0  0  0  0  0  0  0  0  0  0  0
    3.0977   17.5124  -29.2078 H   0  0  0  0  0  0  0  0  0  0  0  0
    2.1269   17.3295  -30.7081 H   0  0  0  0  0  0  0  0  0  0  0  0
    3.5932   18.3671  -30.7081 H   0  0  0  0  0  0  0  0  0  0  0  0
  1  2  1  0
  2  3  2  0
  3  4  1  0
  4  5  2  0
  5  6  1  0
  6  7  2  0
  7  8  1  0
  8  9  1  0
  9 10  1  0
 10 11  1  0
 11 12  2  0
 12 13  1  0
 13 14  2  0
 14 15  1  0
 15 16  1  0
 16 17  1  0
 17 18  1  0
 18 19  1  0
 19 20  1  0
 20 21  1  0
 21 22  1  0
 22 23  1  0
 23 24  2  0
 24 25  1  0
 25 26  2  0
 26 27  1  0
 27 28  2  0
 14 29  1  0
 29 30  2  0
 10 31  2  0
 31 32  1  0
 32 33  2  0
 33 34  1  0
 34 35  1  0
 34 36  1  0
 36 37  2  0
 36 38  1  0
 38 39  1  0
  7  2  1  0
 33  9  1  0
 30 11  1  0
 38 32  1  0
 28 23  1  0
  1 40  1  0
  1 41  1  0
  1 42  1  0
  3 43  1  0
  4 44  1  0
  5 45  1  0
  6 46  1  0
  8 47  1  0
  8 48  1  0
 12 49  1  0
 13 50  1  0
 16 51  1  0
 16 52  1  0
 17 53  1  0
 17 54  1  0
 18 55  1  0
 18 56  1  0
 19 57  1  0
 19 58  1  0
 20 59  1  0
 20 60  1  0
 21 61  1  0
 21 62  1  0
 22 63  1  0
 22 64  1  0
 24 65  1  0
 25 66  1  0
 27 67  1  0
 28 68  1  0
 29 69  1  0
 30 70  1  0
 31 71  1  0
 35 72  1  0
 35 73  1  0
 35 74  1  0
 39 75  1  0
 39 76  1  0
 39 77  1  0
M  CHG  1  18   1
M  END
>  <UniqueID>  (18) 
17

>  <SMILES>  (18) 
Cc1ccccc1Cn1c(-c2ccc(OCC[NH2+]CCCCc3ccncc3)cc2)cc2c1n(C)c(=O)n2C

>  <Energy>  (18) 
176.842385045356

>  <Genealogy>  (18) 
Cc1ccccc1Cn1c(-c2ccc(OCC[NH2+]CCCCc3ccncc3)cc2)cc2c1n(C)c(=O)n2C (protonated)
Cc1ccccc1Cn1c(-c2ccc(OCC[NH2+]CCCCc3ccncc3)cc2)cc2c1n(C)c(=O)n2C (3D coordinates assigned)
Cc1ccccc1Cn1c(-c2ccc(OCC[NH2+]CCCCc3ccncc3)cc2)cc2c1n(C)c(=O)n2C (optimized conformer: 176.842385045356 kcal/mol)

>  <smiles>  (18) 
Cc1ccccc1Cn1c(-c2ccc(OCCNCCCCc3ccncc3)cc2)cc2c1n(C)c(=O)n2C

>  <score_type>  (18) 
oracle

>  <origin>  (18) 
adg

>  <m_score__min__energy>  (18) 
-8.5700000000000003

>  <m_primary>  (18) 
energy

$$$$
18:0
     RDKit          3D

 40 41  0  0  0  0  0  0  0  0999 V2000
   -9.4550   20.3980  -32.3120 C   0  0  0  0  0  0  0  0  0  0  0  0
   -9.0510   19.0580  -32.4940 O   0  0  0  0  0  0  0  0  0  0  0  0
   -8.1790   18.6540  -31.4530 C   0  0  0  0  0  0  0  0  0  0  0  0
   -6.8400   18.1490  -32.0180 C   0  0  0  0  0  0  0  0  0  0  0  0
   -6.8720   18.0130  -33.5030 N   0  0  2  0  0  0  0  0  0  0  0  0
   -6.8570   16.5890  -33.8900 C   0  0  0  0  0  0  0  0  0  0  0  0
   -5.7360   18.7160  -34.1440 C   0  0  0  0  0  0  0  0  0  0  0  0
   -5.3800   19.9770  -33.4040 C   0  0  0  0  0  0  0  0  0  0  0  0
   -6.2680   21.0000  -33.0750 C   0  0  0  0  0  0  0  0  0  0  0  0
   -5.6610   22.0090  -32.3150 C   0  0  0  0  0  0  0  0  0  0  0  0
   -6.2560   23.1610  -31.8170 C   0  0  0  0  0  0  0  0  0  0  0  0
   -7.4850   23.3710  -32.0220 O   0  0  0  0  0  0  0  0  0  0  0  0
   -5.4960   24.0580  -31.1050 N   0  0  0  0  0  0  0  0  0  0  0  0
   -6.1180   25.2760  -30.5590 C   0  0  0  0  0  0  0  0  0  0  0  0
   -4.1660   23.7880  -30.8410 C   0  0  0  0  0  0  0  0  0  0  0  0
   -3.4850   24.6090  -30.1630 O   0  0  0  0  0  0  0  0  0  0  0  0
   -3.5750   22.6350  -31.3070 N   0  0  0  0  0  0  0  0  0  0  0  0
   -2.1520   22.3500  -31.0660 C   0  0  0  0  0  0  0  0  0  0  0  0
   -4.3270   21.7820  -32.0540 C   0  0  0  0  0  0  0  0  0  0  0  0
   -3.8560   20.3250  -32.7580 S   0  0  0  0  0  0  0  0  0  0  0  0
   -9.5214   20.6181  -31.2363 H   0  0  0  0  0  0  0  0  0  0  0  0
   -8.7193   21.0694  -32.7789 H   0  0  0  0  0  0  0  0  0  0  0  0
  -10.4392   20.5509  -32.7789 H   0  0  0  0  0  0  0  0  0  0  0  0
   -7.9891   19.5112  -30.7903 H   0  0  0  0  0  0  0  0  0  0  0  0
   -8.6554   17.8336  -30.8963 H   0  0  0  0  0  0  0  0  0  0  0  0
   -6.0483   18.8619  -31.7443 H   0  0  0  0  0  0  0  0  0  0  0  0
   -6.6466   17.1538  -31.5913 H   0  0  0  0  0  0  0  0  0  0  0  0
   -7.7590   18.4130  -33.8930 H   0  0  0  0  0  0  0  0  0  0  0  0
   -6.8504   15.9632  -32.9854 H   0  0  0  0  0  0  0  0  0  0  0  0
   -7.7528   16.3617  -34.4866 H   0  0  0  0  0  0  0  0  0  0  0  0
   -5.9566   16.3806  -34.4866 H   0  0  0  0  0  0  0  0  0  0  0  0
   -4.8619   18.0483  -34.1537 H   0  0  0  0  0  0  0  0  0  0  0  0
   -6.0318   18.9883  -35.1679 H   0  0  0  0  0  0  0  0  0  0  0  0
   -7.3255   21.0137  -33.3777 H   0  0  0  0  0  0  0  0  0  0  0  0
   -6.0980   25.2368  -29.4599 H   0  0  0  0  0  0  0  0  0  0  0  0
   -5.5604   26.1590  -30.9046 H   0  0  0  0  0  0  0  0  0  0  0  0
   -7.1602   25.3420  -30.9046 H   0  0  0  0  0  0  0  0  0  0  0  0
   -1.9639   22.3123  -29.9829 H   0  0  0  0  0  0  0  0  0  0  0  0
   -1.8904   21.3816  -31.5175 H   0  0  0  0  0  0  0  0  0  0  0  0
   -1.5377   23.1429  -31.5175 H   0  0  0  0  0  0  0  0  0  0  0  0
  1  2  1  0
  2  3  1  0
  3  4  1  0
  4  5  1  0
  5  6  1  0
  5  7  1  0
  7  8  1  0
  8  9  2  0
  9 10  1  0
 10 11  1  0
 11 12  2  0
 11 13  1  0
 13 14  1  0
 13 15  1  0
 15 16  2  0
 15 17  1  0
 17 18  1  0
 17 19  1  0
 19 20  1  0
 20  8  1  0
 19 10  2  0
  1 21  1  0
  1 22  1  0
  1 23  1  0
  3 24  1  0
  3 25  1  0
  4 26  1  0
  4 27  1  0
  5 28  1  6
  6 29  1  0
  6 30  1  0
  6 31  1  0
  7 32  1  0
  7 33  1  0
  9 34  1  0
 14 35  1  0
 14 36  1  0
 14 37  1  0
 18 38  1  0
 18 39  1  0
 18 40  1  0
M  CHG  1   5   1
M  END
>  <UniqueID>  (19) 
18

>  <SMILES>  (19) 
COCC[N@H+](C)Cc1cc2c(=O)n(C)c(=O)n(C)c2s1

>  <Energy>  (19) 
80.67757253902033

>  <Genealogy>  (19) 
COCC[NH+](C)Cc1cc2c(=O)n(C)c(=O)n(C)c2s1 (protonated)
COCC[N@H+](C)Cc1cc2c(=O)n(C)c(=O)n(C)c2s1 (chirality)
COCC[N@H+](C)Cc1cc2c(=O)n(C)c(=O)n(C)c2s1 (3D coordinates assigned)
COCC[N@H+](C)Cc1cc2c(=O)n(C)c(=O)n(C)c2s1 (optimized conformer: 80.67757253902033 kcal/mol)

>  <smiles>  (19) 
COCCN(C)Cc1cc2c(=O)n(C)c(=O)n(C)c2s1

>  <score_type>  (19) 
oracle

>  <origin>  (19) 
adg

>  <m_score__min__energy>  (19) 
-6.0899999999999999

>  <m_primary>  (19) 
energy

$$$$
19:0
     RDKit          3D

 52 54  0  0  0  0  0  0  0  0999 V2000
   -6.2260   25.2970  -29.5780 C   0  0  0  0  0  0  0  0  0  0  0  0
   -5.3390   25.5930  -30.7800 C   0  0  0  0  0  0  0  0  0  0  0  0
   -3.9450   25.2560  -30.4640 N   0  0  0  0  0  0  0  0  0  0  0  0
   -3.8400   24.2240  -29.4200 C   0  0  0  0  0  0  0  0  0  0  0  0
   -2.3810   23.8220  -29.1310 C   0  0  0  0  0  0  0  0  0  0  0  0
   -1.8760   22.7700  -30.1240 C   0  0  0  0  0  0  0  0  0  0  0  0
   -2.6850   21.5470  -30.0380 N   0  0  0  0  0  0  0  0  0  0  0  0
   -3.0530   21.0840  -31.3800 C   0  0  0  0  0  0  0  0  0  0  0  0
   -3.5100   22.2680  -32.2390 C   0  0  0  0  0  0  0  0  0  0  0  0
   -4.1860   21.8010  -33.4570 N   0  0  0  0  0  0  0  0  0  0  0  0
   -5.2910   20.9290  -33.1130 C   0  0  0  0  0  0  0  0  0  0  0  0
   -6.5130   21.4080  -32.5530 C   0  0  0  0  0  0  0  0  0  0  0  0
   -6.7360   22.7850  -32.3320 C   0  0  0  0  0  0  0  0  0  0  0  0
   -7.9300   23.2350  -31.7710 C   0  0  0  0  0  0  0  0  0  0  0  0
   -8.9270   22.3320  -31.4230 C   0  0  0  0  0  0  0  0  0  0  0  0
   -8.7490   20.9670  -31.6420 C   0  0  0  0  0  0  0  0  0  0  0  0
   -7.5540   20.4710  -32.2150 C   0  0  0  0  0  0  0  0  0  0  0  0
   -7.3850   19.1180  -32.4590 N   0  0  0  0  0  0  0  0  0  0  0  0
   -8.4230   18.1270  -32.1290 C   0  0  0  0  0  0  0  0  0  0  0  0
   -6.2210   18.7020  -33.0310 C   0  0  0  0  0  0  0  0  0  0  0  0
   -5.9060   17.4690  -33.3490 O   0  0  0  0  0  0  0  0  0  0  0  0
   -4.7000   17.4870  -33.8830 C   0  0  0  0  0  0  0  0  0  0  0  0
   -4.2090   18.7850  -33.9150 C   0  0  0  0  0  0  0  0  0  0  0  0
   -5.2080   19.5560  -33.3540 C   0  0  0  0  0  0  0  0  0  0  0  0
   -5.6631   25.4848  -28.6518 H   0  0  0  0  0  0  0  0  0  0  0  0
   -7.1121   25.9481  -29.6070 H   0  0  0  0  0  0  0  0  0  0  0  0
   -6.5435   24.2442  -29.6070 H   0  0  0  0  0  0  0  0  0  0  0  0
   -5.6745   24.9923  -31.6383 H   0  0  0  0  0  0  0  0  0  0  0  0
   -5.4072   26.6627  -31.0273 H   0  0  0  0  0  0  0  0  0  0  0  0
   -3.4700   24.9180  -31.3340 H   0  0  0  0  0  0  0  0  0  0  0  0
   -4.2887   24.6124  -28.4939 H   0  0  0  0  0  0  0  0  0  0  0  0
   -4.3676   23.3289  -29.7812 H   0  0  0  0  0  0  0  0  0  0  0  0
   -1.7439   24.7157  -29.2037 H   0  0  0  0  0  0  0  0  0  0  0  0
   -2.3383   23.3886  -28.1209 H   0  0  0  0  0  0  0  0  0  0  0  0
   -1.9412   23.1755  -31.1445 H   0  0  0  0  0  0  0  0  0  0  0  0
   -0.8326   22.5228  -29.8785 H   0  0  0  0  0  0  0  0  0  0  0  0
   -2.0940   20.8070  -29.5900 H   0  0  0  0  0  0  0  0  0  0  0  0
   -2.1813   20.6071  -31.8520 H   0  0  0  0  0  0  0  0  0  0  0  0
   -3.8770   20.3599  -31.2975 H   0  0  0  0  0  0  0  0  0  0  0  0
   -4.2063   22.8886  -31.6559 H   0  0  0  0  0  0  0  0  0  0  0  0
   -2.6255   22.8536  -32.5301 H   0  0  0  0  0  0  0  0  0  0  0  0
   -4.5380   22.6270  -33.9930 H   0  0  0  0  0  0  0  0  0  0  0  0
   -3.5170   21.3160  -34.0950 H   0  0  0  0  0  0  0  0  0  0  0  0
   -5.9572   23.5119  -32.6062 H   0  0  0  0  0  0  0  0  0  0  0  0
   -8.0838   24.3111  -31.6028 H   0  0  0  0  0  0  0  0  0  0  0  0
   -9.8619   22.6963  -30.9722 H   0  0  0  0  0  0  0  0  0  0  0  0
   -9.5493   20.2649  -31.3653 H   0  0  0  0  0  0  0  0  0  0  0  0
   -8.5134   18.0407  -31.0361 H   0  0  0  0  0  0  0  0  0  0  0  0
   -9.3857   18.4496  -32.5522 H   0  0  0  0  0  0  0  0  0  0  0  0
   -8.1453   17.1504  -32.5522 H   0  0  0  0  0  0  0  0  0  0  0  0
   -4.1610   16.6011  -34.2501 H   0  0  0  0  0  0  0  0  0  0  0  0
   -3.2372   19.1249  -34.3023 H   0  0  0  0  0  0  0  0  0  0  0  0
  1  2  1  0
  2  3  1  0
  3  4  1  0
  4  5  1  0
  5  6  1  0
  6  7  1  0
  7  8  1  0
  8  9  1  0
  9 10  1  0
 10 11  1  0
 11 12  2  0
 12 13  1  0
 13 14  2  0
 14 15  1  0
 15 16  2  0
 16 17  1  0
 17 18  2  0
 18 19  1  0
 18 20  1  0
 20 21  1  0
 21 22  1  0
 22 23  2  0
 23 24  1  0
 24 11  1  0
 17 12  1  0
 24 20  2  0
  1 25  1  0
  1 26  1  0
  1 27  1  0
  2 28  1  0
  2 29  1  0
  3 30  1  0
  4 31  1  0
  4 32  1  0
  5 33  1  0
  5 34  1  0
  6 35  1  0
  6 36  1  0
  7 37  1  0
  8 38  1  0
  8 39  1  0
  9 40  1  0
  9 41  1  0
 10 42  1  0
 10 43  1  0
 13 44  1  0
 14 45  1  0
 15 46  1  0
 16 47  1  0
 19 48  1  0
 19 49  1  0
 19 50  1  0
 22 51  1  0
 23 52  1  0
M  CHG  2  10   1  18   1
M  END
>  <UniqueID>  (20) 
19

>  <SMILES>  (20) 
CCNCCCNCC[NH2+]c1c2ccccc2[n+](C)c2occc12

>  <Energy>  (20) 
88.03224959668268

>  <Genealogy>  (20) 
CCNCCCNCC[NH2+]c1c2ccccc2[n+](C)c2occc12 (protonated)
CCNCCCNCC[NH2+]c1c2ccccc2[n+](C)c2occc12 (3D coordinates assigned)
CCNCCCNCC[NH2+]c1c2ccccc2[n+](C)c2occc12 (optimized conformer: 88.03224959668268 kcal/mol)

>  <smiles>  (20) 
CCNCCCNCCNc1c2ccccc2[n+](C)c2occc12

>  <score_type>  (20) 
oracle

>  <origin>  (20) 
adg

>  <m_score__min__energy>  (20) 
-7.4000000000000004

>  <m_primary>  (20) 
energy

$$$$
20:0
     RDKit          3D

 66 68  0  0  0  0  0  0  0  0999 V2000
   -9.1030   19.3570  -32.3370 C   0  0  0  0  0  0  0  0  0  0  0  0
   -7.6960   19.8840  -32.6210 C   0  0  0  0  0  0  0  0  0  0  0  0
   -6.7060   18.7860  -32.5980 N   0  0  0  0  0  0  0  0  0  0  0  0
   -5.9740   18.7910  -31.3200 C   0  0  0  0  0  0  0  0  0  0  0  0
   -7.3180   17.4590  -32.8540 C   0  0  0  0  0  0  0  0  0  0  0  0
   -6.4800   16.6810  -33.8710 C   0  0  0  0  0  0  0  0  0  0  0  0
   -5.9180   17.5980  -34.8770 N   0  0  0  0  0  0  0  0  0  0  0  0
   -4.6170   17.1280  -35.3700 C   0  0  0  0  0  0  0  0  0  0  0  0
   -3.5160   17.7720  -34.5760 C   0  0  0  0  0  0  0  0  0  0  0  0
   -2.2170   17.2470  -34.6180 C   0  0  0  0  0  0  0  0  0  0  0  0
   -1.1840   17.8690  -33.9140 C   0  0  0  0  0  0  0  0  0  0  0  0
   -1.4360   19.0250  -33.1720 C   0  0  0  0  0  0  0  0  0  0  0  0
   -2.7290   19.5770  -33.1290 C   0  0  0  0  0  0  0  0  0  0  0  0
   -2.9970   20.8120  -32.3490 C   0  0  0  0  0  0  0  0  0  0  0  0
   -1.9730   21.4230  -31.6020 C   0  0  0  0  0  0  0  0  0  0  0  0
   -2.2260   22.5890  -30.8730 C   0  0  0  0  0  0  0  0  0  0  0  0
   -3.5030   23.1610  -30.8750 C   0  0  0  0  0  0  0  0  0  0  0  0
   -3.7970   24.6450  -29.9720 S   0  0  0  0  0  0  0  0  0  0  0  0
   -4.4420   25.6760  -30.8570 O   0  0  0  0  0  0  0  0  0  0  0  0
   -4.7330   24.3440  -28.8350 O   0  0  0  0  0  0  0  0  0  0  0  0
   -2.3070   25.2720  -29.3340 N   0  0  0  0  0  0  0  0  0  0  0  0
   -2.0160   24.7300  -28.0030 C   0  0  0  0  0  0  0  0  0  0  0  0
   -0.8270   23.7710  -28.0750 C   0  0  0  0  0  0  0  0  0  0  0  0
   -1.1760   22.4560  -27.5000 N   0  0  0  0  0  0  0  0  0  0  0  0
   -2.6150   22.1980  -27.5830 C   0  0  0  0  0  0  0  0  0  0  0  0
   -2.7890   20.6880  -27.5830 C   0  0  0  0  0  0  0  0  0  0  0  0
   -1.4390   20.1260  -27.9970 C   0  0  0  0  0  0  0  0  0  0  0  0
   -0.5490   21.3380  -28.2170 C   0  0  0  0  0  0  0  0  0  0  0  0
   -4.5280   22.5600  -31.6180 C   0  0  0  0  0  0  0  0  0  0  0  0
   -4.2780   21.3940  -32.3480 C   0  0  0  0  0  0  0  0  0  0  0  0
   -3.7650   18.9430  -33.8410 C   0  0  0  0  0  0  0  0  0  0  0  0
   -9.2600   19.2982  -31.2499 H   0  0  0  0  0  0  0  0  0  0  0  0
   -9.8456   20.0379  -32.7784 H   0  0  0  0  0  0  0  0  0  0  0  0
   -9.2156   18.3558  -32.7784 H   0  0  0  0  0  0  0  0  0  0  0  0
   -7.6831   20.3597  -33.6127 H   0  0  0  0  0  0  0  0  0  0  0  0
   -7.4301   20.6130  -31.8414 H   0  0  0  0  0  0  0  0  0  0  0  0
   -6.6917   18.7861  -30.4864 H   0  0  0  0  0  0  0  0  0  0  0  0
   -5.3357   17.8972  -31.2596 H   0  0  0  0  0  0  0  0  0  0  0  0
   -5.3479   19.6934  -31.2596 H   0  0  0  0  0  0  0  0  0  0  0  0
   -7.3656   16.8925  -31.9123 H   0  0  0  0  0  0  0  0  0  0  0  0
   -8.3317   17.6016  -33.2565 H   0  0  0  0  0  0  0  0  0  0  0  0
   -5.6591   16.1681  -33.3485 H   0  0  0  0  0  0  0  0  0  0  0  0
   -7.1225   15.9450  -34.3764 H   0  0  0  0  0  0  0  0  0  0  0  0
   -5.7670   18.5300  -34.4240 H   0  0  0  0  0  0  0  0  0  0  0  0
   -4.5568   16.0351  -35.2603 H   0  0  0  0  0  0  0  0  0  0  0  0
   -4.5087   17.3975  -36.4310 H   0  0  0  0  0  0  0  0  0  0  0  0
   -2.0107   16.3417  -35.2077 H   0  0  0  0  0  0  0  0  0  0  0  0
   -0.1685   17.4472  -33.9439 H   0  0  0  0  0  0  0  0  0  0  0  0
   -0.6176   19.5072  -32.6173 H   0  0  0  0  0  0  0  0  0  0  0  0
   -0.9661   20.9801  -31.5915 H   0  0  0  0  0  0  0  0  0  0  0  0
   -1.4169   23.0591  -30.2948 H   0  0  0  0  0  0  0  0  0  0  0  0
   -1.7759   25.5565  -27.3180 H   0  0  0  0  0  0  0  0  0  0  0  0
   -2.8975   24.1839  -27.6358 H   0  0  0  0  0  0  0  0  0  0  0  0
   -0.5345   23.6381  -29.1270 H   0  0  0  0  0  0  0  0  0  0  0  0
    0.0052   24.1983  -27.4964 H   0  0  0  0  0  0  0  0  0  0  0  0
   -3.1297   22.6389  -26.7166 H   0  0  0  0  0  0  0  0  0  0  0  0
   -3.0454   22.6458  -28.4909 H   0  0  0  0  0  0  0  0  0  0  0  0
   -3.0624   20.3321  -26.5787 H   0  0  0  0  0  0  0  0  0  0  0  0
   -3.5913   20.3687  -28.2644 H   0  0  0  0  0  0  0  0  0  0  0  0
   -1.0283   19.4858  -27.2023 H   0  0  0  0  0  0  0  0  0  0  0  0
   -1.5142   19.5036  -28.9009 H   0  0  0  0  0  0  0  0  0  0  0  0
    0.4576   21.1472  -27.8164 H   0  0  0  0  0  0  0  0  0  0  0  0
   -0.4442   21.5634  -29.2885 H   0  0  0  0  0  0  0  0  0  0  0  0
   -5.5329   23.0072  -31.6269 H   0  0  0  0  0  0  0  0  0  0  0  0
   -5.0894   20.9279  -32.9262 H   0  0  0  0  0  0  0  0  0  0  0  0
   -4.7791   19.3687  -33.8216 H   0  0  0  0  0  0  0  0  0  0  0  0
  1  2  1  0
  2  3  1  0
  3  4  1  0
  3  5  1  0
  5  6  1  0
  6  7  1  0
  7  8  1  0
  8  9  1  0
  9 10  2  0
 10 11  1  0
 11 12  2  0
 12 13  1  0
 13 14  1  0
 14 15  2  0
 15 16  1  0
 16 17  2  0
 17 18  1  0
 18 19  2  0
 18 20  2  0
 18 21  1  0
 21 22  1  0
 22 23  1  0
 23 24  1  0
 24 25  1  0
 25 26  1  0
 26 27  1  0
 27 28  1  0
 17 29  1  0
 29 30  2  0
 13 31  2  0
 31  9  1  0
 30 14  1  0
 28 24  1  0
  1 32  1  0
  1 33  1  0
  1 34  1  0
  2 35  1  0
  2 36  1  0
  4 37  1  0
  4 38  1  0
  4 39  1  0
  5 40  1  0
  5 41  1  0
  6 42  1  0
  6 43  1  0
  7 44  1  0
  8 45  1  0
  8 46  1  0
 10 47  1  0
 11 48  1  0
 12 49  1  0
 15 50  1  0
 16 51  1  0
 22 52  1  0
 22 53  1  0
 23 54  1  0
 23 55  1  0
 25 56  1  0
 25 57  1  0
 26 58  1  0
 26 59  1  0
 27 60  1  0
 27 61  1  0
 28 62  1  0
 28 63  1  0
 29 64  1  0
 30 65  1  0
 31 66  1  0
M  CHG  1  21  -1
M  END
>  <UniqueID>  (21) 
20

>  <SMILES>  (21) 
CCN(C)CCNCc1cccc(-c2ccc(S(=O)(=O)[N-]CCN3CCCC3)cc2)c1

>  <Energy>  (21) 
69.46662996940105

>  <Genealogy>  (21) 
CCN(C)CCNCc1cccc(-c2ccc(S(=O)(=O)[N-]CCN3CCCC3)cc2)c1 (protonated)
CCN(C)CCNCc1cccc(-c2ccc(S(=O)(=O)[N-]CCN3CCCC3)cc2)c1 (3D coordinates assigned)
CCN(C)CCNCc1cccc(-c2ccc(S(=O)(=O)[N-]CCN3CCCC3)cc2)c1 (nonaromatic ring conformer: 69.46662996940105 kcal/mol)

>  <smiles>  (21) 
CCN(C)CCNCc1cccc(-c2ccc(S(=O)(=O)NCCN3CCCC3)cc2)c1

>  <score_type>  (21) 
oracle

>  <origin>  (21) 
adg

>  <m_score__min__energy>  (21) 
-10.24

>  <m_primary>  (21) 
energy

$$$$
21:0
     RDKit          3D

 45 47  0  0  0  0  0  0  0  0999 V2000
   -6.7750   17.1040  -32.6730 C   0  0  0  0  0  0  0  0  0  0  0  0
   -5.7550   17.9130  -31.8670 C   0  0  0  0  0  0  0  0  0  0  0  0
   -4.7140   18.5030  -32.7450 N   0  0  0  0  0  0  0  0  0  0  0  0
   -5.2000   18.7010  -34.1300 C   0  0  0  0  0  0  0  0  0  0  0  0
   -4.6320   17.6250  -35.0520 C   0  0  0  0  0  0  0  0  0  0  0  0
   -4.1060   19.7320  -32.1780 C   0  0  0  0  0  0  0  0  0  0  0  0
   -4.6920   21.0500  -32.7370 C   0  0  0  0  0  0  0  0  0  0  0  0
   -5.8010   21.5100  -31.8950 N   0  0  0  0  0  0  0  0  0  0  0  0
   -5.8070   22.5550  -31.0220 C   0  0  0  0  0  0  0  0  0  0  0  0
   -4.6070   23.2880  -30.5950 C   0  0  0  0  0  0  0  0  0  0  0  0
   -3.3720   22.7370  -30.3350 C   0  0  0  0  0  0  0  0  0  0  0  0
   -2.5600   23.7980  -29.9800 C   0  0  0  0  0  0  0  0  0  0  0  0
   -3.2390   24.9220  -30.0380 O   0  0  0  0  0  0  0  0  0  0  0  0
   -4.4670   24.6540  -30.4160 C   0  0  0  0  0  0  0  0  0  0  0  0
   -5.5120   25.7040  -30.6240 C   0  0  0  0  0  0  0  0  0  0  0  0
   -7.0510   22.8920  -30.5870 N   0  0  0  0  0  0  0  0  0  0  0  0
   -7.8400   22.0040  -31.2180 C   0  0  0  0  0  0  0  0  0  0  0  0
   -9.2280   21.9040  -31.1460 C   0  0  0  0  0  0  0  0  0  0  0  0
   -9.8550   20.9160  -31.9290 C   0  0  0  0  0  0  0  0  0  0  0  0
   -9.0870   20.0660  -32.7590 C   0  0  0  0  0  0  0  0  0  0  0  0
   -7.6860   20.1960  -32.8120 C   0  0  0  0  0  0  0  0  0  0  0  0
   -7.0970   21.1760  -32.0100 C   0  0  0  0  0  0  0  0  0  0  0  0
   -7.4470   16.5710  -31.9842 H   0  0  0  0  0  0  0  0  0  0  0  0
   -7.3635   17.7836  -33.3069 H   0  0  0  0  0  0  0  0  0  0  0  0
   -6.2473   16.3762  -33.3069 H   0  0  0  0  0  0  0  0  0  0  0  0
   -6.2785   18.7234  -31.3386 H   0  0  0  0  0  0  0  0  0  0  0  0
   -5.2623   17.2355  -31.1541 H   0  0  0  0  0  0  0  0  0  0  0  0
   -6.2985   18.6442  -34.1403 H   0  0  0  0  0  0  0  0  0  0  0  0
   -4.8692   19.6876  -34.4867 H   0  0  0  0  0  0  0  0  0  0  0  0
   -4.2032   16.8126  -34.4469 H   0  0  0  0  0  0  0  0  0  0  0  0
   -5.4360   17.2242  -35.6867 H   0  0  0  0  0  0  0  0  0  0  0  0
   -3.8475   18.0628  -35.6867 H   0  0  0  0  0  0  0  0  0  0  0  0
   -4.2601   19.7214  -31.0889 H   0  0  0  0  0  0  0  0  0  0  0  0
   -3.0430   19.7159  -32.4603 H   0  0  0  0  0  0  0  0  0  0  0  0
   -3.9055   21.8189  -32.7535 H   0  0  0  0  0  0  0  0  0  0  0  0
   -5.0657   20.8722  -33.7562 H   0  0  0  0  0  0  0  0  0  0  0  0
   -3.0907   21.6754  -30.3968 H   0  0  0  0  0  0  0  0  0  0  0  0
   -1.5018   23.7140  -29.6916 H   0  0  0  0  0  0  0  0  0  0  0  0
   -5.8699   26.0636  -29.6480 H   0  0  0  0  0  0  0  0  0  0  0  0
   -5.0807   26.5438  -31.1885 H   0  0  0  0  0  0  0  0  0  0  0  0
   -6.3539   25.2767  -31.1885 H   0  0  0  0  0  0  0  0  0  0  0  0
   -9.8138   22.5740  -30.4995 H   0  0  0  0  0  0  0  0  0  0  0  0
  -10.9488   20.8044  -31.8951 H   0  0  0  0  0  0  0  0  0  0  0  0
   -9.5878   19.2983  -33.3671 H   0  0  0  0  0  0  0  0  0  0  0  0
   -7.0776   19.5493  -33.4614 H   0  0  0  0  0  0  0  0  0  0  0  0
  1  2  1  0
  2  3  1  0
  3  4  1  0
  4  5  1  0
  3  6  1  0
  6  7  1  0
  7  8  1  0
  8  9  1  0
  9 10  1  0
 10 11  1  0
 11 12  2  0
 12 13  1  0
 13 14  1  0
 14 15  1  0
  9 16  2  0
 16 17  1  0
 17 18  2  0
 18 19  1  0
 19 20  2  0
 20 21  1  0
 21 22  2  0
 22  8  1  0
 14 10  2  0
 22 17  1  0
  1 23  1  0
  1 24  1  0
  1 25  1  0
  2 26  1  0
  2 27  1  0
  4 28  1  0
  4 29  1  0
  5 30  1  0
  5 31  1  0
  5 32  1  0
  6 33  1  0
  6 34  1  0
  7 35  1  0
  7 36  1  0
 11 37  1  0
 12 38  1  0
 15 39  1  0
 15 40  1  0
 15 41  1  0
 18 42  1  0
 19 43  1  0
 20 44  1  0
 21 45  1  0
M  END
>  <UniqueID>  (22) 
21

>  <SMILES>  (22) 
CCN(CC)CCn1c(-c2ccoc2C)nc2ccccc21

>  <Energy>  (22) 
114.38357048053793

>  <Genealogy>  (22) 
CCN(CC)CCn1c(-c2ccoc2C)nc2ccccc21 (3D coordinates assigned)
CCN(CC)CCn1c(-c2ccoc2C)nc2ccccc21 (optimized conformer: 114.38357048053793 kcal/mol)

>  <smiles>  (22) 
CCN(CC)CCn1c(-c2ccoc2C)nc2ccccc21

>  <score_type>  (22) 
oracle

>  <origin>  (22) 
adg

>  <m_score__min__energy>  (22) 
-7.6600000000000001

>  <m_primary>  (22) 
energy

$$$$
22:0
     RDKit          3D

 58 60  0  0  0  0  0  0  0  0999 V2000
    2.1735   26.1237  -26.4684 H   0  0  0  0  0  0  0  0  0  0  0  0
    1.3240   25.7230  -27.0410 C   0  0  0  0  0  0  0  0  0  0  0  0
    1.3810   24.4280  -27.5590 C   0  0  0  0  0  0  0  0  0  0  0  0
    2.2740   23.8080  -27.3909 H   0  0  0  0  0  0  0  0  0  0  0  0
    0.3050   23.9180  -28.2910 C   0  0  0  0  0  0  0  0  0  0  0  0
    0.3539   22.8942  -28.6902 H   0  0  0  0  0  0  0  0  0  0  0  0
   -0.8410   24.7030  -28.5220 C   0  0  0  0  0  0  0  0  0  0  0  0
   -1.9760   24.1410  -29.3000 C   0  0  0  0  0  0  0  0  0  0  0  0
   -3.0610   24.9240  -29.5450 N   0  0  0  0  0  0  0  0  0  0  0  0
   -4.1370   24.4840  -30.2440 C   0  0  0  0  0  0  0  0  0  0  0  0
   -5.2180   25.3450  -30.4630 C   0  0  0  0  0  0  0  0  0  0  0  0
   -5.1919   26.3704  -30.0658 H   0  0  0  0  0  0  0  0  0  0  0  0
   -6.3290   24.9060  -31.1840 C   0  0  0  0  0  0  0  0  0  0  0  0
   -7.1767   25.5861  -31.3539 H   0  0  0  0  0  0  0  0  0  0  0  0
   -6.3670   23.6060  -31.6900 C   0  0  0  0  0  0  0  0  0  0  0  0
   -7.2442   23.2654  -32.2596 H   0  0  0  0  0  0  0  0  0  0  0  0
   -5.2950   22.7350  -31.4760 C   0  0  0  0  0  0  0  0  0  0  0  0
   -5.3329   21.7113  -31.8768 H   0  0  0  0  0  0  0  0  0  0  0  0
   -4.1640   23.1630  -30.7480 C   0  0  0  0  0  0  0  0  0  0  0  0
   -3.0610   22.3140  -30.5060 C   0  0  0  0  0  0  0  0  0  0  0  0
   -3.0880   21.0860  -30.9570 N   0  0  0  0  0  0  0  0  0  0  0  0
   -2.2780   20.4910  -32.0240 C   0  0  2  0  0  0  0  0  0  0  0  0
   -1.6570   19.6749  -31.6261 H   0  0  0  0  0  0  0  0  0  0  0  0
   -1.3400   21.5530  -32.6170 C   0  0  0  0  0  0  0  0  0  0  0  0
   -0.8510   22.1066  -31.8019 H   0  0  0  0  0  0  0  0  0  0  0  0
   -0.5754   21.0619  -33.2369 H   0  0  0  0  0  0  0  0  0  0  0  0
   -1.9218   22.2510  -33.2369 H   0  0  0  0  0  0  0  0  0  0  0  0
   -3.2260   19.9280  -33.1010 C   0  0  0  0  0  0  0  0  0  0  0  0
   -2.7912   18.9994  -33.4993 H   0  0  0  0  0  0  0  0  0  0  0  0
   -3.3339   20.6989  -33.8782 H   0  0  0  0  0  0  0  0  0  0  0  0
   -4.6440   19.6160  -32.5600 C   0  0  0  0  0  0  0  0  0  0  0  0
   -4.7197   19.9992  -31.5317 H   0  0  0  0  0  0  0  0  0  0  0  0
   -4.7807   18.5253  -32.6011 H   0  0  0  0  0  0  0  0  0  0  0  0
   -5.7640   20.2560  -33.4080 C   0  0  0  0  0  0  0  0  0  0  0  0
   -5.3873   20.4102  -34.4299 H   0  0  0  0  0  0  0  0  0  0  0  0
   -6.0415   21.2067  -32.9292 H   0  0  0  0  0  0  0  0  0  0  0  0
   -6.9900   19.4100  -33.4740 N   0  0  0  0  0  0  0  0  0  0  0  0
   -7.3050   19.3400  -34.4710 H   0  0  0  0  0  0  0  0  0  0  0  0
   -6.7010   18.0390  -32.9770 C   0  0  0  0  0  0  0  0  0  0  0  0
   -7.5549   17.6931  -32.3759 H   0  0  0  0  0  0  0  0  0  0  0  0
   -5.7803   18.0853  -32.3768 H   0  0  0  0  0  0  0  0  0  0  0  0
   -6.4670   17.0440  -34.1200 C   0  0  0  0  0  0  0  0  0  0  0  0
   -6.2341   16.0535  -33.7020 H   0  0  0  0  0  0  0  0  0  0  0  0
   -7.3738   16.9767  -34.7390 H   0  0  0  0  0  0  0  0  0  0  0  0
   -5.6252   17.3880  -34.7390 H   0  0  0  0  0  0  0  0  0  0  0  0
   -8.0870   20.0290  -32.6790 C   0  0  0  0  0  0  0  0  0  0  0  0
   -7.6760   20.8720  -32.1042 H   0  0  0  0  0  0  0  0  0  0  0  0
   -8.8649   20.3648  -33.3805 H   0  0  0  0  0  0  0  0  0  0  0  0
   -8.7280   19.0340  -31.7060 C   0  0  0  0  0  0  0  0  0  0  0  0
   -8.5247   19.3495  -30.6720 H   0  0  0  0  0  0  0  0  0  0  0  0
   -9.8148   19.0055  -31.8737 H   0  0  0  0  0  0  0  0  0  0  0  0
   -8.3047   18.0327  -31.8737 H   0  0  0  0  0  0  0  0  0  0  0  0
   -1.9670   22.8160  -29.7710 C   0  0  0  0  0  0  0  0  0  0  0  0
   -1.1024   22.1679  -29.5651 H   0  0  0  0  0  0  0  0  0  0  0  0
   -0.8910   26.0040  -27.9800 C   0  0  0  0  0  0  0  0  0  0  0  0
   -1.7857   26.6254  -28.1328 H   0  0  0  0  0  0  0  0  0  0  0  0
    0.1900   26.5100  -27.2490 C   0  0  0  0  0  0  0  0  0  0  0  0
    0.1459   27.5293  -26.8378 H   0  0  0  0  0  0  0  0  0  0  0  0
  1  2  1  0
  2  3  2  0
  3  4  1  0
  3  5  1  0
  5  6  1  0
  5  7  2  0
  7  8  1  0
  8  9  1  0
  9 10  1  0
 10 11  2  0
 11 12  1  0
 11 13  1  0
 13 14  1  0
 13 15  2  0
 15 16  1  0
 15 17  1  0
 17 18  1  0
 17 19  2  0
 19 20  1  0
 20 21  2  0
 21 22  1  0
 22 23  1  1
 22 24  1  0
 24 25  1  0
 24 26  1  0
 24 27  1  0
 22 28  1  0
 28 29  1  0
 28 30  1  0
 28 31  1  0
 31 32  1  0
 31 33  1  0
 31 34  1  0
 34 35  1  0
 34 36  1  0
 34 37  1  0
 37 38  1  0
 37 39  1  0
 39 40  1  0
 39 41  1  0
 39 42  1  0
 42 43  1  0
 42 44  1  0
 42 45  1  0
 37 46  1  0
 46 47  1  0
 46 48  1  0
 46 49  1  0
 49 50  1  0
 49 51  1  0
 49 52  1  0
 20 53  1  0
 53 54  1  0
  7 55  1  0
 55 56  1  0
 55 57  2  0
 57 58  1  0
 57  2  1  0
 53  8  2  0
 19 10  1  0
M  CHG  2   9  -1  37   1
M  END
>  <UniqueID>  (23) 
22

>  <SMILES>  (23) 
CC[NH+](CC)CCC[C@@H](C)/N=c1\cc(-c2ccccc2)[n-]c2ccccc12

>  <Energy>  (23) 
69.55179752323198

>  <Genealogy>  (23) 
CC[NH+](CC)CCCC(C)N=c1cc(-c2ccccc2)[n-]c2ccccc12 (protonated)
CC[NH+](CC)CCC[C@@H](C)N=c1cc(-c2ccccc2)[n-]c2ccccc12 (chirality)
CC[NH+](CC)CCC[C@@H](C)/N=c1\cc(-c2ccccc2)[n-]c2ccccc12 (cis-trans isomerization)
CC[NH+](CC)CCC[C@@H](C)/N=c1\cc(-c2ccccc2)[n-]c2ccccc12 (3D coordinates assigned)
CC[NH+](CC)CCC[C@@H](C)/N=c1\cc(-c2ccccc2)[n-]c2ccccc12 (optimized conformer: 69.55179752323198 kcal/mol)

>  <smiles>  (23) 
CCN(CC)CCCC(C)N=c1cc(-c2ccccc2)[nH]c2ccccc12

>  <score_type>  (23) 
oracle

>  <origin>  (23) 
adg

>  <m_score__min__energy>  (23) 
-9.1600000000000001

>  <m_primary>  (23) 
energy

$$$$
23:0
     RDKit          3D

 45 47  0  0  0  0  0  0  0  0999 V2000
   -6.8240   15.4660  -34.2350 C   0  0  0  0  0  0  0  0  0  0  0  0
   -6.3830   16.9240  -34.2190 C   0  0  0  0  0  0  0  0  0  0  0  0
   -6.2190   17.4810  -32.7950 C   0  0  0  0  0  0  0  0  0  0  0  0
   -6.5060   18.9310  -32.7170 N   0  0  0  0  0  0  0  0  0  0  0  0
   -5.5080   19.8830  -32.8800 C   0  0  0  0  0  0  0  0  0  0  0  0
   -3.7980   19.4450  -33.2510 S   0  0  0  0  0  0  0  0  0  0  0  0
   -3.0790   20.4620  -31.9160 C   0  0  0  0  0  0  0  0  0  0  0  0
   -2.6920   21.8550  -32.4150 C   0  0  0  0  0  0  0  0  0  0  0  0
   -3.2370   22.8750  -31.5740 O   0  0  0  0  0  0  0  0  0  0  0  0
   -3.0070   23.0430  -30.1970 C   0  0  0  0  0  0  0  0  0  0  0  0
   -2.4720   22.0230  -29.3810 C   0  0  0  0  0  0  0  0  0  0  0  0
   -2.2630   22.2470  -28.0180 C   0  0  0  0  0  0  0  0  0  0  0  0
   -2.5750   23.4840  -27.4560 C   0  0  0  0  0  0  0  0  0  0  0  0
   -3.0960   24.5040  -28.2530 C   0  0  0  0  0  0  0  0  0  0  0  0
   -3.3140   24.2910  -29.6280 C   0  0  0  0  0  0  0  0  0  0  0  0
   -3.8380   25.2920  -30.4620 O   0  0  0  0  0  0  0  0  0  0  0  0
   -5.2170   25.4360  -30.7820 C   0  0  0  0  0  0  0  0  0  0  0  0
   -5.7840   21.2120  -32.7270 N   0  0  0  0  0  0  0  0  0  0  0  0
   -7.0410   21.6160  -32.4390 C   0  0  0  0  0  0  0  0  0  0  0  0
   -7.4430   22.9410  -32.2660 C   0  0  0  0  0  0  0  0  0  0  0  0
   -8.8010   23.0470  -31.9650 C   0  0  0  0  0  0  0  0  0  0  0  0
   -9.4790   21.4950  -31.9150 S   0  0  0  0  0  0  0  0  0  0  0  0
   -8.0470   20.6980  -32.2800 C   0  0  0  0  0  0  0  0  0  0  0  0
   -7.7850   19.3410  -32.4050 C   0  0  0  0  0  0  0  0  0  0  0  0
   -8.7140   18.5080  -32.2170 O   0  0  0  0  0  0  0  0  0  0  0  0
   -6.9333   15.1046  -33.2018 H   0  0  0  0  0  0  0  0  0  0  0  0
   -7.7883   15.3803  -34.7574 H   0  0  0  0  0  0  0  0  0  0  0  0
   -6.0689   14.8602  -34.7574 H   0  0  0  0  0  0  0  0  0  0  0  0
   -5.4184   17.0053  -34.7415 H   0  0  0  0  0  0  0  0  0  0  0  0
   -7.1674   17.5129  -34.7169 H   0  0  0  0  0  0  0  0  0  0  0  0
   -6.9106   16.9480  -32.1259 H   0  0  0  0  0  0  0  0  0  0  0  0
   -5.1710   17.3311  -32.4961 H   0  0  0  0  0  0  0  0  0  0  0  0
   -3.8184   20.5650  -31.1081 H   0  0  0  0  0  0  0  0  0  0  0  0
   -2.1689   19.9611  -31.5544 H   0  0  0  0  0  0  0  0  0  0  0  0
   -1.5955   21.9424  -32.4206 H   0  0  0  0  0  0  0  0  0  0  0  0
   -3.0966   21.9867  -33.4294 H   0  0  0  0  0  0  0  0  0  0  0  0
   -2.2184   21.0470  -29.8205 H   0  0  0  0  0  0  0  0  0  0  0  0
   -1.8514   21.4456  -27.3869 H   0  0  0  0  0  0  0  0  0  0  0  0
   -2.4102   23.6563  -26.3822 H   0  0  0  0  0  0  0  0  0  0  0  0
   -3.3376   25.4792  -27.8052 H   0  0  0  0  0  0  0  0  0  0  0  0
   -5.8043   25.4973  -29.8539 H   0  0  0  0  0  0  0  0  0  0  0  0
   -5.3631   26.3543  -31.3697 H   0  0  0  0  0  0  0  0  0  0  0  0
   -5.5496   24.5677  -31.3697 H   0  0  0  0  0  0  0  0  0  0  0  0
   -6.7663   23.8035  -32.3566 H   0  0  0  0  0  0  0  0  0  0  0  0
   -9.3443   23.9870  -31.7885 H   0  0  0  0  0  0  0  0  0  0  0  0
  1  2  1  0
  2  3  1  0
  3  4  1  0
  4  5  1  0
  5  6  1  0
  6  7  1  0
  7  8  1  0
  8  9  1  0
  9 10  1  0
 10 11  2  0
 11 12  1  0
 12 13  2  0
 13 14  1  0
 14 15  2  0
 15 16  1  0
 16 17  1  0
  5 18  2  0
 18 19  1  0
 19 20  1  0
 20 21  2  0
 21 22  1  0
 22 23  1  0
 23 24  1  0
 24 25  2  0
 24  4  1  0
 15 10  1  0
 23 19  2  0
  1 26  1  0
  1 27  1  0
  1 28  1  0
  2 29  1  0
  2 30  1  0
  3 31  1  0
  3 32  1  0
  7 33  1  0
  7 34  1  0
  8 35  1  0
  8 36  1  0
 11 37  1  0
 12 38  1  0
 13 39  1  0
 14 40  1  0
 17 41  1  0
 17 42  1  0
 17 43  1  0
 20 44  1  0
 21 45  1  0
M  END
>  <UniqueID>  (24) 
23

>  <SMILES>  (24) 
CCCn1c(SCCOc2ccccc2OC)nc2ccsc2c1=O

>  <Energy>  (24) 
78.04720151035531

>  <Genealogy>  (24) 
CCCn1c(SCCOc2ccccc2OC)nc2ccsc2c1=O (3D coordinates assigned)
CCCn1c(SCCOc2ccccc2OC)nc2ccsc2c1=O (optimized conformer: 78.04720151035531 kcal/mol)

>  <smiles>  (24) 
CCCn1c(SCCOc2ccccc2OC)nc2ccsc2c1=O

>  <score_type>  (24) 
oracle

>  <origin>  (24) 
adg

>  <m_score__min__energy>  (24) 
-9.2300000000000004

>  <m_primary>  (24) 
energy

$$$$
24:0
     RDKit          3D

 40 43  0  0  1  0  0  0  0  0999 V2000
   -3.3460   24.1190  -29.7640 C   0  0  0  0  0  0  0  0  0  0  0  0
   -4.2340   24.4760  -30.8030 O   0  0  0  0  0  0  0  0  0  0  0  0
   -5.4870   23.9070  -30.9610 C   0  0  0  0  0  0  0  0  0  0  0  0
   -6.0470   23.1930  -29.9240 C   0  0  0  0  0  0  0  0  0  0  0  0
   -7.2950   22.6270  -30.0840 C   0  0  0  0  0  0  0  0  0  0  0  0
   -8.0550   22.7070  -31.2110 C   0  0  0  0  0  0  0  0  0  0  0  0
   -9.2970   22.0700  -31.5220 C   0  0  0  0  0  0  0  0  0  0  0  0
   -9.5180   20.9030  -32.0280 C   0  0  0  0  0  0  0  0  0  0  0  0
   -8.7640   19.6910  -31.8870 C   0  0  0  0  0  0  0  0  0  0  0  0
   -8.9990   18.4700  -31.4120 N   0  0  0  0  0  0  0  0  0  0  0  0
   -7.9670   17.6490  -31.6280 N   0  0  0  0  0  0  0  0  0  0  0  0
   -6.9980   18.3110  -32.2630 C   0  0  0  0  0  0  0  0  0  0  0  0
   -5.7600   17.9270  -32.7100 C   0  0  0  0  0  0  0  0  0  0  0  0
   -4.9670   18.8600  -33.3520 C   0  0  0  0  0  0  0  0  0  0  0  0
   -3.6810   18.4580  -33.8130 C   0  0  0  0  0  0  0  0  0  0  0  0
   -3.1440   17.3220  -34.3070 C   0  0  0  0  0  0  0  0  0  0  0  0
   -1.8600   17.2650  -34.6610 C   0  0  0  0  0  0  0  0  0  0  0  0
   -1.0870   18.4060  -34.5080 C   0  0  0  0  0  0  0  0  0  0  0  0
   -2.2150   19.6590  -33.8240 S   0  0  0  0  0  0  0  0  0  0  0  0
   -5.3910   20.1530  -33.5510 C   0  0  0  0  0  0  0  0  0  0  0  0
   -6.6430   20.4830  -33.0830 C   0  0  0  0  0  0  0  0  0  0  0  0
   -7.4730   19.5900  -32.4360 C   0  0  0  0  0  0  0  0  0  0  0  0
   -7.4760   23.4390  -32.2640 C   0  0  0  0  0  0  0  0  0  0  0  0
   -6.2340   24.0070  -32.1140 C   0  0  0  0  0  0  0  0  0  0  0  0
   -3.8232   24.3109  -28.7917 H   0  0  0  0  0  0  0  0  0  0  0  0
   -3.0967   23.0507  -29.8456 H   0  0  0  0  0  0  0  0  0  0  0  0
   -2.4266   24.7174  -29.8456 H   0  0  0  0  0  0  0  0  0  0  0  0
   -5.5029   23.0751  -28.9753 H   0  0  0  0  0  0  0  0  0  0  0  0
   -7.7092   22.0663  -29.2331 H   0  0  0  0  0  0  0  0  0  0  0  0
  -10.1967   22.6615  -31.2969 H   0  0  0  0  0  0  0  0  0  0  0  0
  -10.4155   20.8271  -32.6594 H   0  0  0  0  0  0  0  0  0  0  0  0
   -9.8360   18.1370  -30.9000 H   0  0  0  0  0  0  0  0  0  0  0  0
   -5.4046   16.8967  -32.5607 H   0  0  0  0  0  0  0  0  0  0  0  0
   -3.7763   16.4289  -34.4192 H   0  0  0  0  0  0  0  0  0  0  0  0
   -1.4256   16.3381  -35.0635 H   0  0  0  0  0  0  0  0  0  0  0  0
   -0.0205   18.5275  -34.7486 H   0  0  0  0  0  0  0  0  0  0  0  0
   -4.7568   20.8921  -34.0623 H   0  0  0  0  0  0  0  0  0  0  0  0
   -7.0006   21.5124  -33.2326 H   0  0  0  0  0  0  0  0  0  0  0  0
   -8.0206   23.5571  -33.2124 H   0  0  0  0  0  0  0  0  0  0  0  0
   -5.8139   24.5715  -32.9595 H   0  0  0  0  0  0  0  0  0  0  0  0
  1  2  1  0
  2  3  1  0
  3  4  2  0
  4  5  1  0
  5  6  2  0
  6  7  1  0
  7  8  2  0
  8  9  1  0
  9 10  1  0
 10 11  1  0
 11 12  2  0
 12 13  1  0
 13 14  2  0
 14 15  1  0
 15 16  2  0
 16 17  1  0
 17 18  2  0
 18 19  1  0
 14 20  1  0
 20 21  2  0
 21 22  1  0
  6 23  1  0
 23 24  2  0
 24  3  1  0
 22  9  2  0
 22 12  1  0
 19 15  1  0
  1 25  1  0
  1 26  1  0
  1 27  1  0
  4 28  1  0
  5 29  1  0
  7 30  1  0
  8 31  1  0
 10 32  1  0
 13 33  1  0
 16 34  1  0
 17 35  1  0
 18 36  1  0
 20 37  1  0
 21 38  1  0
 23 39  1  0
 24 40  1  0
M  END
>  <smiles>  (25) 
COc1ccc(C=Cc2[nH]nc3cc(-c4cccs4)ccc23)cc1

>  <score_type>  (25) 
oracle

>  <origin>  (25) 
adg

>  <m_score__min__energy>  (25) 
-9.3699999999999992

>  <m_primary>  (25) 
energy

$$$$
25:0
     RDKit          3D

 53 55  0  0  0  0  0  0  0  0999 V2000
   -1.6800   21.8450  -29.4840 C   0  0  0  0  0  0  0  0  0  0  0  0
   -3.1950   21.6840  -29.5680 C   0  0  0  0  0  0  0  0  0  0  0  0
   -3.9000   22.4540  -28.4380 C   0  0  0  0  0  0  0  0  0  0  0  0
   -4.6010   23.7280  -28.9520 C   0  0  0  0  0  0  0  0  0  0  0  0
   -3.7680   24.5200  -29.9710 C   0  0  0  0  0  0  0  0  0  0  0  0
   -4.5340   24.7570  -31.2020 N   0  0  0  0  0  0  0  0  0  0  0  0
   -5.9680   24.8720  -30.9130 C   0  0  0  0  0  0  0  0  0  0  0  0
   -6.7080   23.6060  -31.3680 C   0  0  0  0  0  0  0  0  0  0  0  0
   -6.1870   23.1100  -32.6530 N   0  0  0  0  0  0  0  0  0  0  0  0
   -5.9730   21.6710  -32.5950 C   0  0  0  0  0  0  0  0  0  0  0  0
   -4.6740   21.1210  -32.7650 C   0  0  0  0  0  0  0  0  0  0  0  0
   -3.5240   21.9430  -32.8580 C   0  0  0  0  0  0  0  0  0  0  0  0
   -2.2710   21.3990  -33.1270 C   0  0  0  0  0  0  0  0  0  0  0  0
   -2.1320   20.0310  -33.3120 C   0  0  0  0  0  0  0  0  0  0  0  0
   -3.2350   19.1930  -33.1760 C   0  0  0  0  0  0  0  0  0  0  0  0
   -4.5150   19.7080  -32.8440 C   0  0  0  0  0  0  0  0  0  0  0  0
   -5.5880   18.8700  -32.6110 N   0  0  0  0  0  0  0  0  0  0  0  0
   -5.3570   17.4210  -32.3970 C   0  0  0  0  0  0  0  0  0  0  0  0
   -6.8660   19.3830  -32.5190 C   0  0  0  0  0  0  0  0  0  0  0  0
   -8.0040   18.5340  -32.5180 C   0  0  0  0  0  0  0  0  0  0  0  0
   -9.2860   19.0420  -32.3230 C   0  0  0  0  0  0  0  0  0  0  0  0
   -9.4700   20.4030  -32.1280 C   0  0  0  0  0  0  0  0  0  0  0  0
   -8.3820   21.2690  -32.1830 C   0  0  0  0  0  0  0  0  0  0  0  0
   -7.0730   20.7870  -32.4320 C   0  0  0  0  0  0  0  0  0  0  0  0
   -1.3727   21.8777  -28.4283 H   0  0  0  0  0  0  0  0  0  0  0  0
   -1.1926   20.9936  -29.9816 H   0  0  0  0  0  0  0  0  0  0  0  0
   -1.3825   22.7798  -29.9816 H   0  0  0  0  0  0  0  0  0  0  0  0
   -3.5436   22.0702  -30.5372 H   0  0  0  0  0  0  0  0  0  0  0  0
   -3.4379   20.6160  -29.4659 H   0  0  0  0  0  0  0  0  0  0  0  0
   -4.6522   21.7970  -27.9770 H   0  0  0  0  0  0  0  0  0  0  0  0
   -3.1353   22.7595  -27.7087 H   0  0  0  0  0  0  0  0  0  0  0  0
   -5.5478   23.4354  -29.4293 H   0  0  0  0  0  0  0  0  0  0  0  0
   -4.7558   24.3839  -28.0826 H   0  0  0  0  0  0  0  0  0  0  0  0
   -3.4850   25.4876  -29.5308 H   0  0  0  0  0  0  0  0  0  0  0  0
   -2.8706   23.9355  -30.2221 H   0  0  0  0  0  0  0  0  0  0  0  0
   -4.2200   25.6760  -31.5960 H   0  0  0  0  0  0  0  0  0  0  0  0
   -6.1101   25.0058  -29.8305 H   0  0  0  0  0  0  0  0  0  0  0  0
   -6.3737   25.7378  -31.4569 H   0  0  0  0  0  0  0  0  0  0  0  0
   -6.5813   22.8239  -30.6049 H   0  0  0  0  0  0  0  0  0  0  0  0
   -7.7712   23.8556  -31.4994 H   0  0  0  0  0  0  0  0  0  0  0  0
   -6.8270   23.3530  -33.4400 H   0  0  0  0  0  0  0  0  0  0  0  0
   -5.3110   23.6180  -32.9060 H   0  0  0  0  0  0  0  0  0  0  0  0
   -3.6227   23.0292  -32.7153 H   0  0  0  0  0  0  0  0  0  0  0  0
   -1.3902   22.0546  -33.1929 H   0  0  0  0  0  0  0  0  0  0  0  0
   -1.1489   19.6082  -33.5665 H   0  0  0  0  0  0  0  0  0  0  0  0
   -3.1121   18.1106  -33.3288 H   0  0  0  0  0  0  0  0  0  0  0  0
   -5.3234   17.2105  -31.3178 H   0  0  0  0  0  0  0  0  0  0  0  0
   -6.1750   16.8474  -32.8572 H   0  0  0  0  0  0  0  0  0  0  0  0
   -4.4012   17.1302  -32.8572 H   0  0  0  0  0  0  0  0  0  0  0  0
   -7.8704   17.4534  -32.6744 H   0  0  0  0  0  0  0  0  0  0  0  0
  -10.1524   18.3642  -32.3236 H   0  0  0  0  0  0  0  0  0  0  0  0
  -10.4772   20.7983  -31.9296 H   0  0  0  0  0  0  0  0  0  0  0  0
   -8.5410   22.3467  -32.0305 H   0  0  0  0  0  0  0  0  0  0  0  0
  1  2  1  0
  2  3  1  0
  3  4  1  0
  4  5  1  0
  5  6  1  0
  6  7  1  0
  7  8  1  0
  8  9  1  0
  9 10  1  0
 10 11  2  0
 11 12  1  0
 12 13  2  0
 13 14  1  0
 14 15  2  0
 15 16  1  0
 16 17  2  0
 17 18  1  0
 17 19  1  0
 19 20  2  0
 20 21  1  0
 21 22  2  0
 22 23  1  0
 23 24  2  0
 24 10  1  0
 16 11  1  0
 24 19  1  0
  1 25  1  0
  1 26  1  0
  1 27  1  0
  2 28  1  0
  2 29  1  0
  3 30  1  0
  3 31  1  0
  4 32  1  0
  4 33  1  0
  5 34  1  0
  5 35  1  0
  6 36  1  0
  7 37  1  0
  7 38  1  0
  8 39  1  0
  8 40  1  0
  9 41  1  0
  9 42  1  0
 12 43  1  0
 13 44  1  0
 14 45  1  0
 15 46  1  0
 18 47  1  0
 18 48  1  0
 18 49  1  0
 20 50  1  0
 21 51  1  0
 22 52  1  0
 23 53  1  0
M  CHG  2   9   1  17   1
M  END
>  <UniqueID>  (26) 
24

>  <SMILES>  (26) 
CCCCCNCC[NH2+]c1c2ccccc2[n+](C)c2ccccc12

>  <Energy>  (26) 
72.78068735301723

>  <Genealogy>  (26) 
CCCCCNCC[NH2+]c1c2ccccc2[n+](C)c2ccccc12 (protonated)
CCCCCNCC[NH2+]c1c2ccccc2[n+](C)c2ccccc12 (3D coordinates assigned)
CCCCCNCC[NH2+]c1c2ccccc2[n+](C)c2ccccc12 (optimized conformer: 72.78068735301723 kcal/mol)

>  <smiles>  (26) 
CCCCCNCCNc1c2ccccc2[n+](C)c2ccccc12

>  <score_type>  (26) 
oracle

>  <origin>  (26) 
adg

>  <m_score__min__energy>  (26) 
-7.7599999999999998

>  <m_primary>  (26) 
energy

$$$$
26:0
     RDKit          3D

 55 58  0  0  0  0  0  0  0  0999 V2000
   -1.2061   19.8599  -27.6087 H   0  0  0  0  0  0  0  0  0  0  0  0
   -1.0580   20.6300  -28.3800 C   0  0  0  0  0  0  0  0  0  0  0  0
   -0.7640   20.2470  -29.6870 C   0  0  0  0  0  0  0  0  0  0  0  0
   -0.6827   19.1789  -29.9370 H   0  0  0  0  0  0  0  0  0  0  0  0
   -0.5710   21.2110  -30.6860 C   0  0  0  0  0  0  0  0  0  0  0  0
   -0.2600   20.8020  -32.0790 C   0  0  0  0  0  0  0  0  0  0  0  0
    0.8460   19.9810  -32.3590 C   0  0  0  0  0  0  0  0  0  0  0  0
    1.4957   19.6379  -31.5404 H   0  0  0  0  0  0  0  0  0  0  0  0
    1.1220   19.6000  -33.6730 C   0  0  0  0  0  0  0  0  0  0  0  0
    1.9861   18.9562  -33.8941 H   0  0  0  0  0  0  0  0  0  0  0  0
    0.2920   20.0430  -34.7040 C   0  0  0  0  0  0  0  0  0  0  0  0
    0.6290   19.5710  -36.3600 Cl  0  0  0  0  0  0  0  0  0  0  0  0
   -0.7750   20.8410  -34.4250 N   0  0  0  0  0  0  0  0  0  0  0  0
   -1.3870   21.1720  -35.2040 H   0  0  0  0  0  0  0  0  0  0  0  0
   -1.0650   21.2240  -33.1520 C   0  0  0  0  0  0  0  0  0  0  0  0
   -1.9356   21.8685  -32.9608 H   0  0  0  0  0  0  0  0  0  0  0  0
   -0.6840   22.5700  -30.3500 C   0  0  0  0  0  0  0  0  0  0  0  0
   -0.5336   23.3322  -31.1287 H   0  0  0  0  0  0  0  0  0  0  0  0
   -0.9860   22.9760  -29.0360 C   0  0  0  0  0  0  0  0  0  0  0  0
   -1.1040   24.4300  -28.7340 C   0  0  0  0  0  0  0  0  0  0  0  0
   -0.1170   25.0620  -28.2710 O   0  0  0  0  0  0  0  0  0  0  0  0
   -2.3550   25.1020  -28.9680 N   0  0  0  0  0  0  0  0  0  0  0  0
   -3.4810   24.5820  -29.3640 C   0  0  0  0  0  0  0  0  0  0  0  0
   -3.9380   24.7590  -30.6270 N   0  0  0  0  0  0  0  0  0  0  0  0
   -5.1260   24.1250  -30.8090 C   0  0  0  0  0  0  0  0  0  0  0  0
   -5.8430   24.1240  -32.0070 C   0  0  0  0  0  0  0  0  0  0  0  0
   -5.4605   24.6566  -32.8902 H   0  0  0  0  0  0  0  0  0  0  0  0
   -7.0630   23.4290  -32.0620 C   0  0  0  0  0  0  0  0  0  0  0  0
   -7.6432   23.4176  -32.9965 H   0  0  0  0  0  0  0  0  0  0  0  0
   -7.5490   22.7460  -30.9280 C   0  0  0  0  0  0  0  0  0  0  0  0
   -8.5053   22.2052  -30.9829 H   0  0  0  0  0  0  0  0  0  0  0  0
   -6.8180   22.7530  -29.7290 C   0  0  0  0  0  0  0  0  0  0  0  0
   -7.1868   22.2237  -28.8380 H   0  0  0  0  0  0  0  0  0  0  0  0
   -5.6120   23.4500  -29.7010 C   0  0  0  0  0  0  0  0  0  0  0  0
   -4.5370   23.6330  -28.4270 S   0  0  0  0  0  0  0  0  0  0  0  0
   -1.1680   21.9910  -28.0340 C   0  0  0  0  0  0  0  0  0  0  0  0
   -1.4520   22.3950  -26.7160 O   0  0  0  0  0  0  0  0  0  0  0  0
   -0.8510   21.8750  -25.5300 C   0  0  0  0  0  0  0  0  0  0  0  0
   -0.0054   21.2282  -25.8068 H   0  0  0  0  0  0  0  0  0  0  0  0
   -1.6047   21.2983  -24.9738 H   0  0  0  0  0  0  0  0  0  0  0  0
   -0.3440   23.0130  -24.6400 C   0  0  0  0  0  0  0  0  0  0  0  0
    0.6680   22.7678  -24.2854 H   0  0  0  0  0  0  0  0  0  0  0  0
   -1.0350   23.1264  -23.7916 H   0  0  0  0  0  0  0  0  0  0  0  0
   -0.2970   24.3420  -25.4110 C   0  0  0  0  0  0  0  0  0  0  0  0
    0.3399   24.2154  -26.2989 H   0  0  0  0  0  0  0  0  0  0  0  0
    0.1083   25.1117  -24.7377 H   0  0  0  0  0  0  0  0  0  0  0  0
   -1.6390   24.7760  -25.8450 N   0  0  0  0  0  0  0  0  0  0  0  0
   -1.8120   24.5640  -26.8570 H   0  0  0  0  0  0  0  0  0  0  0  0
   -1.9090   26.1970  -25.5780 C   0  0  0  0  0  0  0  0  0  0  0  0
   -2.9907   26.3283  -25.4275 H   0  0  0  0  0  0  0  0  0  0  0  0
   -1.5479   26.7739  -26.4422 H   0  0  0  0  0  0  0  0  0  0  0  0
   -1.1750   26.7100  -24.3370 C   0  0  0  0  0  0  0  0  0  0  0  0
   -1.6885   26.3511  -23.4328 H   0  0  0  0  0  0  0  0  0  0  0  0
   -0.1400   26.3376  -24.3431 H   0  0  0  0  0  0  0  0  0  0  0  0
   -1.1690   27.8100  -24.3431 H   0  0  0  0  0  0  0  0  0  0  0  0
  1  2  1  0
  2  3  2  0
  3  4  1  0
  3  5  1  0
  5  6  1  0
  6  7  2  0
  7  8  1  0
  7  9  1  0
  9 10  1  0
  9 11  2  0
 11 12  1  0
 11 13  1  0
 13 14  1  0
 13 15  2  0
 15 16  1  0
  5 17  2  0
 17 18  1  0
 17 19  1  0
 19 20  1  0
 20 21  2  0
 20 22  1  0
 22 23  2  0
 23 24  1  0
 24 25  1  0
 25 26  2  0
 26 27  1  0
 26 28  1  0
 28 29  1  0
 28 30  2  0
 30 31  1  0
 30 32  1  0
 32 33  1  0
 32 34  2  0
 34 35  1  0
 19 36  2  0
 36 37  1  0
 37 38  1  0
 38 39  1  0
 38 40  1  0
 38 41  1  0
 41 42  1  0
 41 43  1  0
 41 44  1  0
 44 45  1  0
 44 46  1  0
 44 47  1  0
 47 48  1  0
 47 49  1  0
 49 50  1  0
 49 51  1  0
 49 52  1  0
 52 53  1  0
 52 54  1  0
 52 55  1  0
 36  2  1  0
 15  6  1  0
 35 23  1  0
 34 25  1  0
M  CHG  2  13   1  24  -1
M  END
>  <UniqueID>  (27) 
25

>  <SMILES>  (27) 
CCNCCCOc1ccc(-c2ccc(Cl)[nH+]c2)cc1C(=O)/N=c1/[n-]c2ccccc2s1

>  <Energy>  (27) 
102.55464576769259

>  <Genealogy>  (27) 
CCNCCCOc1ccc(-c2ccc(Cl)[nH+]c2)cc1C(=O)N=c1[n-]c2ccccc2s1 (protonated)
CCNCCCOc1ccc(-c2ccc(Cl)[nH+]c2)cc1C(=O)/N=c1/[n-]c2ccccc2s1 (cis-trans isomerization)
CCNCCCOc1ccc(-c2ccc(Cl)[nH+]c2)cc1C(=O)/N=c1/[n-]c2ccccc2s1 (3D coordinates assigned)
CCNCCCOc1ccc(-c2ccc(Cl)[nH+]c2)cc1C(=O)/N=c1/[n-]c2ccccc2s1 (optimized conformer: 102.55464576769259 kcal/mol)

>  <smiles>  (27) 
CCNCCCOc1ccc(-c2ccc(Cl)nc2)cc1C(=O)N=c1[nH]c2ccccc2s1

>  <score_type>  (27) 
oracle

>  <origin>  (27) 
adg

>  <m_score__min__energy>  (27) 
-10.81

>  <m_primary>  (27) 
energy

$$$$
27:0
     RDKit          3D

 38 40  0  0  0  0  0  0  0  0999 V2000
   -5.4505   19.1927  -34.0490 H   0  0  0  0  0  0  0  0  0  0  0  0
   -4.4710   18.7290  -33.8600 C   0  0  0  0  0  0  0  0  0  0  0  0
   -3.3010   19.3290  -34.2090 N   0  0  0  0  0  0  0  0  0  0  0  0
   -2.2310   18.5770  -33.8740 C   0  0  0  0  0  0  0  0  0  0  0  0
   -1.0140   18.9580  -34.1340 N   0  0  0  0  0  0  0  0  0  0  0  0
   -0.5600   20.2890  -34.4250 C   0  0  0  0  0  0  0  0  0  0  0  0
   -0.7550   20.8180  -35.5530 O   0  0  0  0  0  0  0  0  0  0  0  0
    0.1680   21.0580  -33.3710 C   0  0  0  0  0  0  0  0  0  0  0  0
    0.0604   22.1348  -33.5685 H   0  0  0  0  0  0  0  0  0  0  0  0
    1.2305   20.7741  -33.3921 H   0  0  0  0  0  0  0  0  0  0  0  0
   -0.5140   20.6780  -31.7200 S   0  0  0  0  0  0  0  0  0  0  0  0
   -2.0370   21.5990  -31.9700 C   0  0  0  0  0  0  0  0  0  0  0  0
   -2.7350   22.2300  -31.0030 N   0  0  0  0  0  0  0  0  0  0  0  0
   -2.4760   22.2070  -29.5580 C   0  0  0  0  0  0  0  0  0  0  0  0
   -3.0948   22.9746  -29.0702 H   0  0  0  0  0  0  0  0  0  0  0  0
   -1.4072   22.4077  -29.3923 H   0  0  0  0  0  0  0  0  0  0  0  0
   -2.8100   20.8450  -28.9600 C   0  0  0  0  0  0  0  0  0  0  0  0
   -2.7934   20.9125  -27.8622 H   0  0  0  0  0  0  0  0  0  0  0  0
   -3.8111   20.5338  -29.2932 H   0  0  0  0  0  0  0  0  0  0  0  0
   -2.0665   20.1060  -29.2932 H   0  0  0  0  0  0  0  0  0  0  0  0
   -3.8210   22.7010  -31.6650 C   0  0  0  0  0  0  0  0  0  0  0  0
   -4.9500   23.4410  -31.0600 C   0  0  0  0  0  0  0  0  0  0  0  0
   -6.2330   22.8680  -31.0180 C   0  0  0  0  0  0  0  0  0  0  0  0
   -6.4011   21.8712  -31.4517 H   0  0  0  0  0  0  0  0  0  0  0  0
   -7.2970   23.5580  -30.4280 C   0  0  0  0  0  0  0  0  0  0  0  0
   -8.3004   23.1077  -30.4086 H   0  0  0  0  0  0  0  0  0  0  0  0
   -7.0870   24.8170  -29.8640 C   0  0  0  0  0  0  0  0  0  0  0  0
   -7.9259   25.3596  -29.4039 H   0  0  0  0  0  0  0  0  0  0  0  0
   -5.8130   25.3890  -29.8830 C   0  0  0  0  0  0  0  0  0  0  0  0
   -5.6496   26.3788  -29.4319 H   0  0  0  0  0  0  0  0  0  0  0  0
   -4.7440   24.7070  -30.4740 C   0  0  0  0  0  0  0  0  0  0  0  0
   -3.4860   25.3000  -30.4900 O   0  0  0  0  0  0  0  0  0  0  0  0
   -3.7870   22.3650  -32.9730 N   0  0  0  0  0  0  0  0  0  0  0  0
   -2.6700   21.6800  -33.1520 N   0  0  0  0  0  0  0  0  0  0  0  0
   -2.3650   21.2660  -34.0590 H   0  0  0  0  0  0  0  0  0  0  0  0
   -2.6990   17.1310  -33.1380 S   0  0  0  0  0  0  0  0  0  0  0  0
   -4.3400   17.4870  -33.2470 C   0  0  0  0  0  0  0  0  0  0  0  0
   -5.1645   16.8495  -32.8953 H   0  0  0  0  0  0  0  0  0  0  0  0
  1  2  1  0
  2  3  1  0
  3  4  1  0
  4  5  2  0
  5  6  1  0
  6  7  2  0
  6  8  1  0
  8  9  1  0
  8 10  1  0
  8 11  1  0
 11 12  1  0
 12 13  1  0
 13 14  1  0
 14 15  1  0
 14 16  1  0
 14 17  1  0
 17 18  1  0
 17 19  1  0
 17 20  1  0
 13 21  1  0
 21 22  1  0
 22 23  2  0
 23 24  1  0
 23 25  1  0
 25 26  1  0
 25 27  2  0
 27 28  1  0
 27 29  1  0
 29 30  1  0
 29 31  2  0
 31 32  1  0
 21 33  2  0
 33 34  1  0
 34 35  1  0
  4 36  1  0
 36 37  1  0
 37 38  1  0
 37  2  2  0
 34 12  2  0
 31 22  1  0
M  CHG  3   3  -1  32  -1  34   1
M  END
>  <UniqueID>  (28) 
26

>  <SMILES>  (28) 
CCn1c(-c2ccccc2[O-])n[nH+]c1SCC(=O)/N=c1/[n-]ccs1

>  <Energy>  (28) 
107.36281356649626

>  <Genealogy>  (28) 
CCn1c(-c2ccccc2[O-])n[nH+]c1SCC(=O)N=c1[n-]ccs1 (protonated)
CCn1c(-c2ccccc2[O-])n[nH+]c1SCC(=O)/N=c1/[n-]ccs1 (cis-trans isomerization)
CCn1c(-c2ccccc2[O-])n[nH+]c1SCC(=O)/N=c1/[n-]ccs1 (3D coordinates assigned)
CCn1c(-c2ccccc2[O-])n[nH+]c1SCC(=O)/N=c1/[n-]ccs1 (optimized conformer: 107.36281356649626 kcal/mol)

>  <smiles>  (28) 
CCn1c(SCC(=O)N=c2[nH]ccs2)nnc1-c1ccccc1O

>  <score_type>  (28) 
oracle

>  <origin>  (28) 
adg

>  <m_score__min__energy>  (28) 
-10.51

>  <m_primary>  (28) 
energy

$$$$
28:0
     RDKit          3D

 72 74  0  0  0  0  0  0  0  0999 V2000
   -5.6349   26.5992  -30.4847 H   0  0  0  0  0  0  0  0  0  0  0  0
   -5.5300   25.5070  -30.4070 C   0  0  0  0  0  0  0  0  0  0  0  0
   -5.5030   24.8280  -31.5190 N   0  0  0  0  0  0  0  0  0  0  0  0
   -5.8670   23.4570  -31.7380 C   0  0  0  0  0  0  0  0  0  0  0  0
   -7.1670   23.0550  -31.4330 C   0  0  0  0  0  0  0  0  0  0  0  0
   -7.8653   23.7715  -30.9757 H   0  0  0  0  0  0  0  0  0  0  0  0
   -7.5910   21.7530  -31.7020 C   0  0  0  0  0  0  0  0  0  0  0  0
   -8.6242   21.4613  -31.4625 H   0  0  0  0  0  0  0  0  0  0  0  0
   -6.7150   20.8000  -32.2780 C   0  0  0  0  0  0  0  0  0  0  0  0
   -5.4080   21.2240  -32.6260 C   0  0  0  0  0  0  0  0  0  0  0  0
   -5.0110   22.5550  -32.3810 C   0  0  0  0  0  0  0  0  0  0  0  0
   -4.0129   22.8896  -32.7002 H   0  0  0  0  0  0  0  0  0  0  0  0
   -4.5310   20.3160  -33.2480 C   0  0  0  0  0  0  0  0  0  0  0  0
   -3.1470   20.6550  -33.4360 N   0  0  0  0  0  0  0  0  0  0  0  0
   -2.7500   20.6850  -34.4010 H   0  0  0  0  0  0  0  0  0  0  0  0
   -2.2530   20.8250  -32.2910 C   0  0  0  0  0  0  0  0  0  0  0  0
   -2.3116   19.9330  -31.6500 H   0  0  0  0  0  0  0  0  0  0  0  0
   -2.5620   21.7173  -31.7268 H   0  0  0  0  0  0  0  0  0  0  0  0
   -0.7960   21.0140  -32.7680 C   0  0  0  0  0  0  0  0  0  0  0  0
   -0.1408   20.4252  -32.1092 H   0  0  0  0  0  0  0  0  0  0  0  0
   -0.5936   22.0944  -32.7268 H   0  0  0  0  0  0  0  0  0  0  0  0
   -0.5410   20.5920  -34.1730 N   0  0  0  0  0  0  0  0  0  0  0  0
    0.2050   21.6040  -34.9560 C   0  0  0  0  0  0  0  0  0  0  0  0
    1.2231   21.6910  -34.5487 H   0  0  0  0  0  0  0  0  0  0  0  0
   -0.3317   22.5612  -34.8806 H   0  0  0  0  0  0  0  0  0  0  0  0
    0.2930   21.2200  -36.4350 C   0  0  0  0  0  0  0  0  0  0  0  0
    0.5379   20.1512  -36.5224 H   0  0  0  0  0  0  0  0  0  0  0  0
   -0.6733   21.4158  -36.9228 H   0  0  0  0  0  0  0  0  0  0  0  0
    1.0776   21.8170  -36.9228 H   0  0  0  0  0  0  0  0  0  0  0  0
    0.0880   19.2530  -34.3090 C   0  0  0  0  0  0  0  0  0  0  0  0
    0.7985   19.2843  -35.1481 H   0  0  0  0  0  0  0  0  0  0  0  0
    0.5853   19.0273  -33.3541 H   0  0  0  0  0  0  0  0  0  0  0  0
   -0.9240   18.1340  -34.5700 C   0  0  0  0  0  0  0  0  0  0  0  0
   -1.2849   17.7349  -33.6106 H   0  0  0  0  0  0  0  0  0  0  0  0
   -1.7732   18.5340  -35.1435 H   0  0  0  0  0  0  0  0  0  0  0  0
   -0.4409   17.3292  -35.1435 H   0  0  0  0  0  0  0  0  0  0  0  0
   -5.0130   19.0680  -33.6700 C   0  0  0  0  0  0  0  0  0  0  0  0
   -4.1920   18.1860  -34.4060 C   0  0  0  0  0  0  0  0  0  0  0  0
   -3.1560   18.4730  -34.6390 H   0  0  0  0  0  0  0  0  0  0  0  0
   -4.6810   16.9560  -34.8400 C   0  0  0  0  0  0  0  0  0  0  0  0
   -4.0296   16.2752  -35.4076 H   0  0  0  0  0  0  0  0  0  0  0  0
   -5.9900   16.5880  -34.5570 C   0  0  0  0  0  0  0  0  0  0  0  0
   -6.3783   15.6238  -34.9168 H   0  0  0  0  0  0  0  0  0  0  0  0
   -6.8140   17.4370  -33.8180 C   0  0  0  0  0  0  0  0  0  0  0  0
   -7.8525   17.1382  -33.6124 H   0  0  0  0  0  0  0  0  0  0  0  0
   -6.3360   18.6790  -33.3270 C   0  0  0  0  0  0  0  0  0  0  0  0
   -7.1170   19.5000  -32.5320 N   0  0  0  0  0  0  0  0  0  0  0  0
   -8.3680   18.9780  -31.9360 C   0  0  0  0  0  0  0  0  0  0  0  0
   -8.2925   19.0095  -30.8390 H   0  0  0  0  0  0  0  0  0  0  0  0
   -9.2162   19.5973  -32.2631 H   0  0  0  0  0  0  0  0  0  0  0  0
   -8.5245   17.9395  -32.2631 H   0  0  0  0  0  0  0  0  0  0  0  0
   -5.4290   24.9170  -29.0200 C   0  0  0  0  0  0  0  0  0  0  0  0
   -4.9952   25.6761  -28.3525 H   0  0  0  0  0  0  0  0  0  0  0  0
   -6.4474   24.6239  -28.7252 H   0  0  0  0  0  0  0  0  0  0  0  0
   -4.5620   23.6500  -28.9380 C   0  0  0  0  0  0  0  0  0  0  0  0
   -5.0860   22.9044  -28.3219 H   0  0  0  0  0  0  0  0  0  0  0  0
   -4.4025   23.2897  -29.9650 H   0  0  0  0  0  0  0  0  0  0  0  0
   -3.1770   23.9160  -28.3180 C   0  0  0  0  0  0  0  0  0  0  0  0
   -3.2436   24.8159  -27.6889 H   0  0  0  0  0  0  0  0  0  0  0  0
   -2.9039   23.0223  -27.7378 H   0  0  0  0  0  0  0  0  0  0  0  0
   -2.0680   24.1340  -29.3670 C   0  0  0  0  0  0  0  0  0  0  0  0
   -1.7634   23.1556  -29.7668 H   0  0  0  0  0  0  0  0  0  0  0  0
   -2.4765   24.7836  -30.1551 H   0  0  0  0  0  0  0  0  0  0  0  0
   -0.8760   24.8080  -28.8010 N   0  0  0  0  0  0  0  0  0  0  0  0
   -1.2420   25.6820  -27.6690 C   0  0  0  0  0  0  0  0  0  0  0  0
   -1.0257   25.1655  -26.7222 H   0  0  0  0  0  0  0  0  0  0  0  0
   -0.6581   26.6128  -27.7207 H   0  0  0  0  0  0  0  0  0  0  0  0
   -2.3149   25.9189  -27.7207 H   0  0  0  0  0  0  0  0  0  0  0  0
    0.0950   23.7990  -28.3400 C   0  0  0  0  0  0  0  0  0  0  0  0
    0.1116   23.7817  -27.2403 H   0  0  0  0  0  0  0  0  0  0  0  0
   -0.1982   22.8084  -28.7179 H   0  0  0  0  0  0  0  0  0  0  0  0
    1.0961   24.0540  -28.7179 H   0  0  0  0  0  0  0  0  0  0  0  0
  1  2  1  0
  2  3  2  0
  3  4  1  0
  4  5  2  0
  5  6  1  0
  5  7  1  0
  7  8  1  0
  7  9  2  0
  9 10  1  0
 10 11  2  0
 11 12  1  0
 10 13  1  0
 13 14  1  0
 14 15  1  0
 14 16  1  0
 16 17  1  0
 16 18  1  0
 16 19  1  0
 19 20  1  0
 19 21  1  0
 19 22  1  0
 22 23  1  0
 23 24  1  0
 23 25  1  0
 23 26  1  0
 26 27  1  0
 26 28  1  0
 26 29  1  0
 22 30  1  0
 30 31  1  0
 30 32  1  0
 30 33  1  0
 33 34  1  0
 33 35  1  0
 33 36  1  0
 13 37  2  0
 37 38  1  0
 38 39  1  0
 38 40  2  0
 40 41  1  0
 40 42  1  0
 42 43  1  0
 42 44  2  0
 44 45  1  0
 44 46  1  0
 46 47  2  0
 47 48  1  0
 48 49  1  0
 48 50  1  0
 48 51  1  0
  2 52  1  0
 52 53  1  0
 52 54  1  0
 52 55  1  0
 55 56  1  0
 55 57  1  0
 55 58  1  0
 58 59  1  0
 58 60  1  0
 58 61  1  0
 61 62  1  0
 61 63  1  0
 61 64  1  0
 64 65  1  0
 65 66  1  0
 65 67  1  0
 65 68  1  0
 64 69  1  0
 69 70  1  0
 69 71  1  0
 69 72  1  0
 11  4  1  0
 46 37  1  0
 47  9  1  0
M  CHG  1  47   1
M  END
>  <UniqueID>  (29) 
27

>  <SMILES>  (29) 
CCN(CC)CCNc1c2ccccc2[n+](C)c2ccc(/N=C\CCCCN(C)C)cc12

>  <Energy>  (29) 
102.12546918974498

>  <Genealogy>  (29) 
CCN(CC)CCNc1c2ccccc2[n+](C)c2ccc(/N=C\CCCCN(C)C)cc12 (cis-trans isomerization)
CCN(CC)CCNc1c2ccccc2[n+](C)c2ccc(/N=C\CCCCN(C)C)cc12 (3D coordinates assigned)
CCN(CC)CCNc1c2ccccc2[n+](C)c2ccc(/N=C\CCCCN(C)C)cc12 (optimized conformer: 102.12546918974498 kcal/mol)

>  <smiles>  (29) 
CCN(CC)CCNc1c2ccccc2[n+](C)c2ccc(N=CCCCCN(C)C)cc12

>  <score_type>  (29) 
oracle

>  <origin>  (29) 
adg

>  <m_score__min__energy>  (29) 
-9.25

>  <m_primary>  (29) 
energy

$$$$
29:0
     RDKit          3D

 62 64  0  0  0  0  0  0  0  0999 V2000
   -6.5320   25.6800  -29.4370 C   0  0  0  0  0  0  0  0  0  0  0  0
   -5.4340   24.8770  -30.1510 C   0  0  0  0  0  0  0  0  0  0  0  0
   -4.8950   23.7090  -29.3970 N   0  0  0  0  0  0  0  0  0  0  0  0
   -3.6310   23.9550  -28.6540 C   0  0  0  0  0  0  0  0  0  0  0  0
   -3.8730   24.1960  -27.1590 C   0  0  0  0  0  0  0  0  0  0  0  0
   -4.8670   22.4450  -30.1840 C   0  0  0  0  0  0  0  0  0  0  0  0
   -3.9260   22.4240  -31.4120 C   0  0  0  0  0  0  0  0  0  0  0  0
   -4.6290   22.0230  -32.6330 N   0  0  0  0  0  0  0  0  0  0  0  0
   -5.6930   21.0580  -32.5730 C   0  0  0  0  0  0  0  0  0  0  0  0
   -7.0080   21.4800  -32.3160 C   0  0  0  0  0  0  0  0  0  0  0  0
   -7.3140   22.8500  -32.1590 C   0  0  0  0  0  0  0  0  0  0  0  0
   -8.6260   23.2680  -31.9550 C   0  0  0  0  0  0  0  0  0  0  0  0
   -9.6550   22.3350  -31.9120 C   0  0  0  0  0  0  0  0  0  0  0  0
   -9.3750   20.9740  -32.0390 C   0  0  0  0  0  0  0  0  0  0  0  0
   -8.0430   20.5140  -32.2050 C   0  0  0  0  0  0  0  0  0  0  0  0
   -7.7410   19.1660  -32.2660 N   0  0  0  0  0  0  0  0  0  0  0  0
   -8.7450   18.1660  -31.8390 C   0  0  0  0  0  0  0  0  0  0  0  0
   -6.4910   18.7560  -32.6930 C   0  0  0  0  0  0  0  0  0  0  0  0
   -6.2290   17.4040  -33.0380 C   0  0  0  0  0  0  0  0  0  0  0  0
   -4.9450   16.9510  -33.4280 C   0  0  0  0  0  0  0  0  0  0  0  0
   -4.7270   15.5260  -33.7570 N   0  0  0  0  0  0  0  0  0  0  0  0
   -4.2270   14.8120  -32.5570 C   0  0  0  0  0  0  0  0  0  0  0  0
   -5.9610   14.8310  -34.2080 C   0  0  0  0  0  0  0  0  0  0  0  0
   -3.7320   15.4140  -34.8520 C   0  0  0  0  0  0  0  0  0  0  0  0
   -3.9180   17.9200  -33.5020 C   0  0  0  0  0  0  0  0  0  0  0  0
   -4.1670   19.2590  -33.2160 C   0  0  0  0  0  0  0  0  0  0  0  0
   -5.4410   19.6950  -32.8190 C   0  0  0  0  0  0  0  0  0  0  0  0
   -6.4050   25.5871  -28.3483 H   0  0  0  0  0  0  0  0  0  0  0  0
   -6.4584   26.7389  -29.7257 H   0  0  0  0  0  0  0  0  0  0  0  0
   -7.5188   25.2890  -29.7257 H   0  0  0  0  0  0  0  0  0  0  0  0
   -5.8494   24.5050  -31.0992 H   0  0  0  0  0  0  0  0  0  0  0  0
   -4.5887   25.5696  -30.2764 H   0  0  0  0  0  0  0  0  0  0  0  0
   -5.6180   23.5140  -28.6630 H   0  0  0  0  0  0  0  0  0  0  0  0
   -2.9762   23.0787  -28.7697 H   0  0  0  0  0  0  0  0  0  0  0  0
   -3.1664   24.8610  -29.0703 H   0  0  0  0  0  0  0  0  0  0  0  0
   -3.2145   23.5402  -26.5706 H   0  0  0  0  0  0  0  0  0  0  0  0
   -3.6553   25.2467  -26.9170 H   0  0  0  0  0  0  0  0  0  0  0  0
   -4.9228   23.9739  -26.9170 H   0  0  0  0  0  0  0  0  0  0  0  0
   -4.5540   21.6358  -29.5078 H   0  0  0  0  0  0  0  0  0  0  0  0
   -5.8827   22.3293  -30.5902 H   0  0  0  0  0  0  0  0  0  0  0  0
   -3.5081   23.4312  -31.5569 H   0  0  0  0  0  0  0  0  0  0  0  0
   -3.1312   21.6884  -31.2194 H   0  0  0  0  0  0  0  0  0  0  0  0
   -4.5580   22.6110  -33.4930 H   0  0  0  0  0  0  0  0  0  0  0  0
   -6.5060   23.5954  -32.1984 H   0  0  0  0  0  0  0  0  0  0  0  0
   -8.8485   24.3377  -31.8277 H   0  0  0  0  0  0  0  0  0  0  0  0
  -10.6939   22.6706  -31.7774 H   0  0  0  0  0  0  0  0  0  0  0  0
  -10.1995   20.2465  -32.0100 H   0  0  0  0  0  0  0  0  0  0  0  0
   -8.7817   18.1294  -30.7402 H   0  0  0  0  0  0  0  0  0  0  0  0
   -9.7336   18.4490  -32.2297 H   0  0  0  0  0  0  0  0  0  0  0  0
   -8.4659   17.1763  -32.2297 H   0  0  0  0  0  0  0  0  0  0  0  0
   -7.0560   16.6796  -33.0009 H   0  0  0  0  0  0  0  0  0  0  0  0
   -4.5847   15.3228  -31.6508 H   0  0  0  0  0  0  0  0  0  0  0  0
   -4.5984   13.7766  -32.5651 H   0  0  0  0  0  0  0  0  0  0  0  0
   -3.1270   14.8070  -32.5651 H   0  0  0  0  0  0  0  0  0  0  0  0
   -6.5396   14.5051  -33.3311 H   0  0  0  0  0  0  0  0  0  0  0  0
   -6.5691   15.5193  -34.8134 H   0  0  0  0  0  0  0  0  0  0  0  0
   -5.6876   13.9542  -34.8134 H   0  0  0  0  0  0  0  0  0  0  0  0
   -2.7256   15.3007  -34.4227 H   0  0  0  0  0  0  0  0  0  0  0  0
   -3.9669   14.5366  -35.4725 H   0  0  0  0  0  0  0  0  0  0  0  0
   -3.7659   16.3216  -35.4725 H   0  0  0  0  0  0  0  0  0  0  0  0
   -2.9031   17.6096  -33.7911 H   0  0  0  0  0  0  0  0  0  0  0  0
   -3.3496   19.9900  -33.3027 H   0  0  0  0  0  0  0  0  0  0  0  0
  1  2  1  0
  2  3  1  0
  3  4  1  0
  4  5  1  0
  3  6  1  0
  6  7  1  0
  7  8  1  0
  8  9  1  0
  9 10  2  0
 10 11  1  0
 11 12  2  0
 12 13  1  0
 13 14  2  0
 14 15  1  0
 15 16  2  0
 16 17  1  0
 16 18  1  0
 18 19  2  0
 19 20  1  0
 20 21  1  0
 21 22  1  0
 21 23  1  0
 21 24  1  0
 20 25  2  0
 25 26  1  0
 26 27  2  0
 27  9  1  0
 15 10  1  0
 27 18  1  0
  1 28  1  0
  1 29  1  0
  1 30  1  0
  2 31  1  0
  2 32  1  0
  3 33  1  0
  4 34  1  0
  4 35  1  0
  5 36  1  0
  5 37  1  0
  5 38  1  0
  6 39  1  0
  6 40  1  0
  7 41  1  0
  7 42  1  0
  8 43  1  0
 11 44  1  0
 12 45  1  0
 13 46  1  0
 14 47  1  0
 17 48  1  0
 17 49  1  0
 17 50  1  0
 19 51  1  0
 22 52  1  0
 22 53  1  0
 22 54  1  0
 23 55  1  0
 23 56  1  0
 23 57  1  0
 24 58  1  0
 24 59  1  0
 24 60  1  0
 25 61  1  0
 26 62  1  0
M  CHG  3   3   1  16   1  21   1
M  END
>  <UniqueID>  (30) 
28

>  <SMILES>  (30) 
CC[NH+](CC)CCNc1c2ccccc2[n+](C)c2cc([N+](C)(C)C)ccc12

>  <Energy>  (30) 
111.65051499883154

>  <Genealogy>  (30) 
CC[NH+](CC)CCNc1c2ccccc2[n+](C)c2cc([N+](C)(C)C)ccc12 (protonated)
CC[NH+](CC)CCNc1c2ccccc2[n+](C)c2cc([N+](C)(C)C)ccc12 (3D coordinates assigned)
CC[NH+](CC)CCNc1c2ccccc2[n+](C)c2cc([N+](C)(C)C)ccc12 (optimized conformer: 111.65051499883154 kcal/mol)

>  <smiles>  (30) 
CCN(CC)CCNc1c2ccccc2[n+](C)c2cc([N+](C)(C)C)ccc12

>  <score_type>  (30) 
oracle

>  <origin>  (30) 
adg

>  <m_score__min__energy>  (30) 
-6.9400000000000004

>  <m_primary>  (30) 
energy

$$$$
30:0
     RDKit          3D

 73 76  0  0  0  0  0  0  0  0999 V2000
   -2.7990   24.2970  -28.5670 C   0  0  0  0  0  0  0  0  0  0  0  0
   -4.1780   24.2070  -27.9080 C   0  0  0  0  0  0  0  0  0  0  0  0
   -5.2130   24.9300  -28.6750 N   0  0  0  0  0  0  0  0  0  0  0  0
   -4.8840   25.0760  -30.1080 C   0  0  0  0  0  0  0  0  0  0  0  0
   -5.9660   24.4930  -31.0340 C   0  0  0  0  0  0  0  0  0  0  0  0
   -6.4170   23.1830  -30.5640 N   0  0  0  0  0  0  0  0  0  0  0  0
   -6.1950   21.9910  -31.3350 C   0  0  0  0  0  0  0  0  0  0  0  0
   -7.2850   21.2630  -31.8440 C   0  0  0  0  0  0  0  0  0  0  0  0
   -8.6100   21.6400  -31.5380 C   0  0  0  0  0  0  0  0  0  0  0  0
   -9.6880   20.8880  -31.9990 C   0  0  0  0  0  0  0  0  0  0  0  0
   -9.4670   19.7390  -32.7490 C   0  0  0  0  0  0  0  0  0  0  0  0
   -8.1660   19.3430  -33.0590 C   0  0  0  0  0  0  0  0  0  0  0  0
   -7.0470   20.1100  -32.6390 C   0  0  0  0  0  0  0  0  0  0  0  0
   -5.7530   19.7440  -32.9600 N   0  0  0  0  0  0  0  0  0  0  0  0
   -5.5060   18.7360  -34.0170 C   0  0  0  0  0  0  0  0  0  0  0  0
   -4.6860   20.3370  -32.3100 C   0  0  0  0  0  0  0  0  0  0  0  0
   -3.3690   19.8140  -32.4040 C   0  0  0  0  0  0  0  0  0  0  0  0
   -2.2800   20.4670  -31.8030 C   0  0  0  0  0  0  0  0  0  0  0  0
   -0.9590   19.9990  -31.9030 O   0  0  0  0  0  0  0  0  0  0  0  0
    0.1910   20.5620  -31.2680 C   0  0  0  0  0  0  0  0  0  0  0  0
    0.8390   19.5950  -30.2330 C   0  0  0  0  0  0  0  0  0  0  0  0
    0.4580   19.7870  -28.7850 N   0  0  0  0  0  0  0  0  0  0  0  0
    1.7100   19.7860  -27.9750 C   0  0  0  0  0  0  0  0  0  0  0  0
   -0.2620   21.1070  -28.6350 C   0  0  0  0  0  0  0  0  0  0  0  0
   -1.0040   21.3930  -27.3130 C   0  0  0  0  0  0  0  0  0  0  0  0
   -2.4670   20.9440  -27.2780 C   0  0  0  0  0  0  0  0  0  0  0  0
   -2.5870   19.4210  -27.2960 C   0  0  0  0  0  0  0  0  0  0  0  0
   -1.2490   18.6950  -27.1340 C   0  0  0  0  0  0  0  0  0  0  0  0
   -0.4000   18.5960  -28.4310 C   0  0  0  0  0  0  0  0  0  0  0  0
   -2.5030   21.6280  -31.0670 C   0  0  0  0  0  0  0  0  0  0  0  0
   -3.7870   22.1370  -30.9190 C   0  0  0  0  0  0  0  0  0  0  0  0
   -4.8930   21.4950  -31.5160 C   0  0  0  0  0  0  0  0  0  0  0  0
   -2.0233   24.3476  -27.7887 H   0  0  0  0  0  0  0  0  0  0  0  0
   -2.6330   23.4078  -29.1929 H   0  0  0  0  0  0  0  0  0  0  0  0
   -2.7500   25.2003  -29.1929 H   0  0  0  0  0  0  0  0  0  0  0  0
   -4.4668   23.1481  -27.8347 H   0  0  0  0  0  0  0  0  0  0  0  0
   -4.1077   24.6734  -26.9142 H   0  0  0  0  0  0  0  0  0  0  0  0
   -5.3520   25.8720  -28.2420 H   0  0  0  0  0  0  0  0  0  0  0  0
   -6.1270   24.4270  -28.5850 H   0  0  0  0  0  0  0  0  0  0  0  0
   -4.7682   26.1463  -30.3341 H   0  0  0  0  0  0  0  0  0  0  0  0
   -3.9555   24.5155  -30.2920 H   0  0  0  0  0  0  0  0  0  0  0  0
   -6.8247   25.1800  -31.0590 H   0  0  0  0  0  0  0  0  0  0  0  0
   -5.5354   24.3724  -32.0390 H   0  0  0  0  0  0  0  0  0  0  0  0
   -6.7630   23.0850  -29.5810 H   0  0  0  0  0  0  0  0  0  0  0  0
   -8.7935   22.5374  -30.9289 H   0  0  0  0  0  0  0  0  0  0  0  0
  -10.7162   21.2041  -31.7690 H   0  0  0  0  0  0  0  0  0  0  0  0
  -10.3206   19.1401  -33.0992 H   0  0  0  0  0  0  0  0  0  0  0  0
   -8.0041   18.4219  -33.6381 H   0  0  0  0  0  0  0  0  0  0  0  0
   -5.2687   17.7677  -33.5520 H   0  0  0  0  0  0  0  0  0  0  0  0
   -6.4053   18.6321  -34.6419 H   0  0  0  0  0  0  0  0  0  0  0  0
   -4.6606   19.0596  -34.6419 H   0  0  0  0  0  0  0  0  0  0  0  0
   -3.1983   18.8793  -32.9582 H   0  0  0  0  0  0  0  0  0  0  0  0
    0.9369   20.8028  -32.0398 H   0  0  0  0  0  0  0  0  0  0  0  0
   -0.1358   21.4607  -30.7243 H   0  0  0  0  0  0  0  0  0  0  0  0
    0.5598   18.5695  -30.5166 H   0  0  0  0  0  0  0  0  0  0  0  0
    1.9169   19.8103  -30.2762 H   0  0  0  0  0  0  0  0  0  0  0  0
    1.4545   19.7862  -26.9051 H   0  0  0  0  0  0  0  0  0  0  0  0
    2.2988   18.8874  -28.2112 H   0  0  0  0  0  0  0  0  0  0  0  0
    2.3002   20.6837  -28.2112 H   0  0  0  0  0  0  0  0  0  0  0  0
    0.4866   21.9023  -28.7662 H   0  0  0  0  0  0  0  0  0  0  0  0
   -1.0612   21.0659  -29.3897 H   0  0  0  0  0  0  0  0  0  0  0  0
   -0.4693   20.8748  -26.5033 H   0  0  0  0  0  0  0  0  0  0  0  0
   -1.0171   22.4871  -27.2001 H   0  0  0  0  0  0  0  0  0  0  0  0
   -2.9369   21.3285  -26.3607 H   0  0  0  0  0  0  0  0  0  0  0  0
   -2.9705   21.3400  -28.1722 H   0  0  0  0  0  0  0  0  0  0  0  0
   -3.2496   19.1154  -26.4728 H   0  0  0  0  0  0  0  0  0  0  0  0
   -2.9860   19.1422  -28.2825 H   0  0  0  0  0  0  0  0  0  0  0  0
   -0.6575   19.2323  -26.3781 H   0  0  0  0  0  0  0  0  0  0  0  0
   -1.4906   17.6622  -26.8426 H   0  0  0  0  0  0  0  0  0  0  0  0
    0.2666   17.7274  -28.3250 H   0  0  0  0  0  0  0  0  0  0  0  0
   -1.1345   18.5224  -29.2465 H   0  0  0  0  0  0  0  0  0  0  0  0
   -1.6540   22.1471  -30.5982 H   0  0  0  0  0  0  0  0  0  0  0  0
   -3.9437   23.0521  -30.3290 H   0  0  0  0  0  0  0  0  0  0  0  0
  1  2  1  0
  2  3  1  0
  3  4  1  0
  4  5  1  0
  5  6  1  0
  6  7  1  0
  7  8  2  0
  8  9  1  0
  9 10  2  0
 10 11  1  0
 11 12  2  0
 12 13  1  0
 13 14  2  0
 14 15  1  0
 14 16  1  0
 16 17  2  0
 17 18  1  0
 18 19  1  0
 19 20  1  0
 20 21  1  0
 21 22  1  0
 22 23  1  0
 22 24  1  0
 24 25  1  0
 25 26  1  0
 26 27  1  0
 27 28  1  0
 28 29  1  0
 18 30  2  0
 30 31  1  0
 31 32  2  0
 32  7  1  0
 13  8  1  0
 32 16  1  0
 29 22  1  0
  1 33  1  0
  1 34  1  0
  1 35  1  0
  2 36  1  0
  2 37  1  0
  3 38  1  0
  3 39  1  0
  4 40  1  0
  4 41  1  0
  5 42  1  0
  5 43  1  0
  6 44  1  0
  9 45  1  0
 10 46  1  0
 11 47  1  0
 12 48  1  0
 15 49  1  0
 15 50  1  0
 15 51  1  0
 17 52  1  0
 20 53  1  0
 20 54  1  0
 21 55  1  0
 21 56  1  0
 23 57  1  0
 23 58  1  0
 23 59  1  0
 24 60  1  0
 24 61  1  0
 25 62  1  0
 25 63  1  0
 26 64  1  0
 26 65  1  0
 27 66  1  0
 27 67  1  0
 28 68  1  0
 28 69  1  0
 29 70  1  0
 29 71  1  0
 30 72  1  0
 31 73  1  0
M  CHG  3   3   1  14   1  22   1
M  END
>  <UniqueID>  (31) 
29

>  <SMILES>  (31) 
CC[NH2+]CCNc1c2ccccc2[n+](C)c2cc(OCC[N+]3(C)CCCCCC3)ccc12

>  <Energy>  (31) 
125.68849008350888

>  <Genealogy>  (31) 
CC[NH2+]CCNc1c2ccccc2[n+](C)c2cc(OCC[N+]3(C)CCCCCC3)ccc12 (protonated)
CC[NH2+]CCNc1c2ccccc2[n+](C)c2cc(OCC[N+]3(C)CCCCCC3)ccc12 (3D coordinates assigned)
CC[NH2+]CCNc1c2ccccc2[n+](C)c2cc(OCC[N+]3(C)CCCCCC3)ccc12 (nonaromatic ring conformer: 125.68849008350888 kcal/mol)

>  <smiles>  (31) 
CCNCCNc1c2ccccc2[n+](C)c2cc(OCC[N+]3(C)CCCCCC3)ccc12

>  <score_type>  (31) 
oracle

>  <origin>  (31) 
adg

>  <m_score__min__energy>  (31) 
-5.9299999999999997

>  <m_primary>  (31) 
energy

$$$$
31:0
     RDKit          3D

 80 83  0  0  0  0  0  0  0  0999 V2000
   -6.1080   25.2970  -30.2910 C   0  0  0  0  0  0  0  0  0  0  0  0
   -5.5500   24.1330  -31.1110 C   0  0  0  0  0  0  0  0  0  0  0  0
   -6.4600   23.7620  -32.2980 C   0  0  0  0  0  0  0  0  0  0  0  0
   -7.0840   22.4350  -32.1410 N   0  0  0  0  0  0  0  0  0  0  0  0
   -8.1410   22.4270  -31.1180 C   0  0  0  0  0  0  0  0  0  0  0  0
   -9.4570   21.9010  -31.7030 C   0  0  0  0  0  0  0  0  0  0  0  0
   -9.2300   20.8520  -32.6260 O   0  0  0  0  0  0  0  0  0  0  0  0
   -9.2520   19.5860  -31.9890 C   0  0  0  0  0  0  0  0  0  0  0  0
   -7.9020   18.8850  -32.2000 C   0  0  0  0  0  0  0  0  0  0  0  0
   -7.0720   19.4840  -33.2680 N   0  0  0  0  0  0  0  0  0  0  0  0
   -5.7420   18.8930  -33.3770 C   0  0  0  0  0  0  0  0  0  0  0  0
   -5.5920   17.5130  -33.6940 C   0  0  0  0  0  0  0  0  0  0  0  0
   -6.7110   16.6720  -33.9180 C   0  0  0  0  0  0  0  0  0  0  0  0
   -6.5560   15.3110  -34.1660 C   0  0  0  0  0  0  0  0  0  0  0  0
   -5.2900   14.7510  -34.2010 C   0  0  0  0  0  0  0  0  0  0  0  0
   -4.1680   15.5540  -34.0150 C   0  0  0  0  0  0  0  0  0  0  0  0
   -4.2890   16.9500  -33.7960 C   0  0  0  0  0  0  0  0  0  0  0  0
   -3.1740   17.7500  -33.6730 N   0  0  0  0  0  0  0  0  0  0  0  0
   -1.8550   17.2460  -34.1180 C   0  0  0  0  0  0  0  0  0  0  0  0
   -3.2900   19.0340  -33.1840 C   0  0  0  0  0  0  0  0  0  0  0  0
   -2.1470   19.7560  -32.7470 C   0  0  0  0  0  0  0  0  0  0  0  0
   -2.2380   21.0930  -32.3400 C   0  0  0  0  0  0  0  0  0  0  0  0
   -1.1240   21.8420  -31.9340 O   0  0  0  0  0  0  0  0  0  0  0  0
   -0.6380   21.9300  -30.5990 C   0  0  0  0  0  0  0  0  0  0  0  0
   -1.4980   22.9080  -29.7710 C   0  0  0  0  0  0  0  0  0  0  0  0
   -1.6350   22.6170  -28.2980 N   0  0  0  0  0  0  0  0  0  0  0  0
   -0.4970   21.7690  -27.8550 C   0  0  0  0  0  0  0  0  0  0  0  0
   -1.5660   23.9220  -27.5390 C   0  0  0  0  0  0  0  0  0  0  0  0
   -2.9260   24.4640  -27.0400 C   0  0  0  0  0  0  0  0  0  0  0  0
   -4.0610   24.1780  -28.0200 C   0  0  0  0  0  0  0  0  0  0  0  0
   -4.1630   22.6810  -28.3620 C   0  0  0  0  0  0  0  0  0  0  0  0
   -2.8990   21.8910  -27.9730 C   0  0  0  0  0  0  0  0  0  0  0  0
   -3.4750   21.7170  -32.3430 C   0  0  0  0  0  0  0  0  0  0  0  0
   -4.6230   21.0200  -32.7060 C   0  0  0  0  0  0  0  0  0  0  0  0
   -4.5680   19.6560  -33.0920 C   0  0  0  0  0  0  0  0  0  0  0  0
   -6.0014   25.0746  -29.2190 H   0  0  0  0  0  0  0  0  0  0  0  0
   -5.5521   26.2151  -30.5321 H   0  0  0  0  0  0  0  0  0  0  0  0
   -7.1719   25.4386  -30.5321 H   0  0  0  0  0  0  0  0  0  0  0  0
   -4.5607   24.4166  -31.4993 H   0  0  0  0  0  0  0  0  0  0  0  0
   -5.4869   23.2563  -30.4496 H   0  0  0  0  0  0  0  0  0  0  0  0
   -7.2551   24.5175  -32.3820 H   0  0  0  0  0  0  0  0  0  0  0  0
   -5.8331   23.7307  -33.2014 H   0  0  0  0  0  0  0  0  0  0  0  0
   -7.4880   22.1150  -33.0500 H   0  0  0  0  0  0  0  0  0  0  0  0
   -7.8319   21.7793  -30.2844 H   0  0  0  0  0  0  0  0  0  0  0  0
   -8.2979   23.4564  -30.7634 H   0  0  0  0  0  0  0  0  0  0  0  0
  -10.0882   21.5263  -30.8837 H   0  0  0  0  0  0  0  0  0  0  0  0
   -9.9543   22.7266  -32.2332 H   0  0  0  0  0  0  0  0  0  0  0  0
   -9.4314   19.7202  -30.9121 H   0  0  0  0  0  0  0  0  0  0  0  0
  -10.0562   18.9718  -32.4202 H   0  0  0  0  0  0  0  0  0  0  0  0
   -7.3376   18.9308  -31.2569 H   0  0  0  0  0  0  0  0  0  0  0  0
   -8.1248   17.8538  -32.5115 H   0  0  0  0  0  0  0  0  0  0  0  0
   -7.5720   19.3810  -34.1800 H   0  0  0  0  0  0  0  0  0  0  0  0
   -7.0560   20.5180  -33.1560 H   0  0  0  0  0  0  0  0  0  0  0  0
   -7.7225   17.1037  -33.8954 H   0  0  0  0  0  0  0  0  0  0  0  0
   -7.4407   14.6793  -34.3344 H   0  0  0  0  0  0  0  0  0  0  0  0
   -5.1708   13.6715  -34.3758 H   0  0  0  0  0  0  0  0  0  0  0  0
   -3.1679   15.0967  -34.0384 H   0  0  0  0  0  0  0  0  0  0  0  0
   -1.2371   17.0099  -33.2391 H   0  0  0  0  0  0  0  0  0  0  0  0
   -1.9945   16.3378  -34.7228 H   0  0  0  0  0  0  0  0  0  0  0  0
   -1.3533   18.0158  -34.7228 H   0  0  0  0  0  0  0  0  0  0  0  0
   -1.1686   19.2536  -32.7279 H   0  0  0  0  0  0  0  0  0  0  0  0
   -0.6751   20.9336  -30.1344 H   0  0  0  0  0  0  0  0  0  0  0  0
    0.3974   22.3008  -30.6223 H   0  0  0  0  0  0  0  0  0  0  0  0
   -1.0532   23.9090  -29.8720 H   0  0  0  0  0  0  0  0  0  0  0  0
   -2.5152   22.8108  -30.1783 H   0  0  0  0  0  0  0  0  0  0  0  0
   -0.4641   21.7445  -26.7558 H   0  0  0  0  0  0  0  0  0  0  0  0
   -0.6291   20.7474  -28.2407 H   0  0  0  0  0  0  0  0  0  0  0  0
    0.4442   22.1877  -28.2407 H   0  0  0  0  0  0  0  0  0  0  0  0
   -0.9167   23.7731  -26.6636 H   0  0  0  0  0  0  0  0  0  0  0  0
   -1.1805   24.6689  -28.2486 H   0  0  0  0  0  0  0  0  0  0  0  0
   -3.1633   23.9896  -26.0763 H   0  0  0  0  0  0  0  0  0  0  0  0
   -2.8359   25.5558  -26.9403 H   0  0  0  0  0  0  0  0  0  0  0  0
   -5.0099   24.5050  -27.5698 H   0  0  0  0  0  0  0  0  0  0  0  0
   -3.8528   24.7260  -28.9508 H   0  0  0  0  0  0  0  0  0  0  0  0
   -5.0227   22.2555  -27.8236 H   0  0  0  0  0  0  0  0  0  0  0  0
   -4.2820   22.5983  -29.4524 H   0  0  0  0  0  0  0  0  0  0  0  0
   -2.9247   21.6992  -26.8902 H   0  0  0  0  0  0  0  0  0  0  0  0
   -2.9018   20.9577  -28.5551 H   0  0  0  0  0  0  0  0  0  0  0  0
   -3.5503   22.7759  -32.0550 H   0  0  0  0  0  0  0  0  0  0  0  0
   -5.5937   21.5374  -32.6935 H   0  0  0  0  0  0  0  0  0  0  0  0
  1  2  1  0
  2  3  1  0
  3  4  1  0
  4  5  1  0
  5  6  1  0
  6  7  1  0
  7  8  1  0
  8  9  1  0
  9 10  1  0
 10 11  1  0
 11 12  2  0
 12 13  1  0
 13 14  2  0
 14 15  1  0
 15 16  2  0
 16 17  1  0
 17 18  2  0
 18 19  1  0
 18 20  1  0
 20 21  2  0
 21 22  1  0
 22 23  1  0
 23 24  1  0
 24 25  1  0
 25 26  1  0
 26 27  1  0
 26 28  1  0
 28 29  1  0
 29 30  1  0
 30 31  1  0
 31 32  1  0
 22 33  2  0
 33 34  1  0
 34 35  2  0
 35 11  1  0
 17 12  1  0
 35 20  1  0
 32 26  1  0
  1 36  1  0
  1 37  1  0
  1 38  1  0
  2 39  1  0
  2 40  1  0
  3 41  1  0
  3 42  1  0
  4 43  1  0
  5 44  1  0
  5 45  1  0
  6 46  1  0
  6 47  1  0
  8 48  1  0
  8 49  1  0
  9 50  1  0
  9 51  1  0
 10 52  1  0
 10 53  1  0
 13 54  1  0
 14 55  1  0
 15 56  1  0
 16 57  1  0
 19 58  1  0
 19 59  1  0
 19 60  1  0
 21 61  1  0
 24 62  1  0
 24 63  1  0
 25 64  1  0
 25 65  1  0
 27 66  1  0
 27 67  1  0
 27 68  1  0
 28 69  1  0
 28 70  1  0
 29 71  1  0
 29 72  1  0
 30 73  1  0
 30 74  1  0
 31 75  1  0
 31 76  1  0
 32 77  1  0
 32 78  1  0
 33 79  1  0
 34 80  1  0
M  CHG  3  10   1  18   1  26   1
M  END
>  <UniqueID>  (32) 
30

>  <SMILES>  (32) 
CCCNCCOCC[NH2+]c1c2ccccc2[n+](C)c2cc(OCC[N+]3(C)CCCCC3)ccc12

>  <Energy>  (32) 
128.42203182359685

>  <Genealogy>  (32) 
CCCNCCOCC[NH2+]c1c2ccccc2[n+](C)c2cc(OCC[N+]3(C)CCCCC3)ccc12 (protonated)
CCCNCCOCC[NH2+]c1c2ccccc2[n+](C)c2cc(OCC[N+]3(C)CCCCC3)ccc12 (3D coordinates assigned)
CCCNCCOCC[NH2+]c1c2ccccc2[n+](C)c2cc(OCC[N+]3(C)CCCCC3)ccc12 (nonaromatic ring conformer: 128.42203182359685 kcal/mol)

>  <smiles>  (32) 
CCCNCCOCCNc1c2ccccc2[n+](C)c2cc(OCC[N+]3(C)CCCCC3)ccc12

>  <score_type>  (32) 
oracle

>  <origin>  (32) 
adg

>  <m_score__min__energy>  (32) 
-8.8100000000000005

>  <m_primary>  (32) 
energy

$$$$
32:0
     RDKit          3D

 52 54  0  0  0  0  0  0  0  0999 V2000
   -6.5210   25.3090  -29.7490 C   0  0  0  0  0  0  0  0  0  0  0  0
   -5.2390   25.6970  -30.4720 C   0  0  0  0  0  0  0  0  0  0  0  0
   -4.3360   24.5220  -30.5470 N   0  0  0  0  0  0  0  0  0  0  0  0
   -3.2480   24.5740  -29.5430 C   0  0  0  0  0  0  0  0  0  0  0  0
   -3.6900   24.1620  -28.1300 C   0  0  0  0  0  0  0  0  0  0  0  0
   -5.0550   23.2290  -30.5350 C   0  0  0  0  0  0  0  0  0  0  0  0
   -4.0850   22.0590  -30.7770 C   0  0  0  0  0  0  0  0  0  0  0  0
   -3.5670   22.0070  -32.2340 C   0  0  0  0  0  0  0  0  0  0  0  0
   -4.6230   21.7940  -33.2490 N   0  0  0  0  0  0  0  0  0  0  0  0
   -5.1400   20.4400  -33.2600 C   0  0  0  0  0  0  0  0  0  0  0  0
   -6.4760   20.1490  -32.8340 C   0  0  0  0  0  0  0  0  0  0  0  0
   -7.3150   21.1510  -32.2910 C   0  0  0  0  0  0  0  0  0  0  0  0
   -8.6140   20.8610  -31.8820 C   0  0  0  0  0  0  0  0  0  0  0  0
   -9.1090   19.5690  -31.9900 C   0  0  0  0  0  0  0  0  0  0  0  0
   -8.3130   18.5540  -32.5120 C   0  0  0  0  0  0  0  0  0  0  0  0
   -6.9900   18.8120  -32.9520 C   0  0  0  0  0  0  0  0  0  0  0  0
   -6.2020   17.8000  -33.4740 N   0  0  0  0  0  0  0  0  0  0  0  0
   -6.7390   16.4400  -33.6770 C   0  0  0  0  0  0  0  0  0  0  0  0
   -4.9010   18.0840  -33.7820 C   0  0  0  0  0  0  0  0  0  0  0  0
   -3.8930   17.2210  -34.1820 C   0  0  0  0  0  0  0  0  0  0  0  0
   -2.7950   17.9130  -34.3660 O   0  0  0  0  0  0  0  0  0  0  0  0
   -3.0280   19.1810  -34.1120 C   0  0  0  0  0  0  0  0  0  0  0  0
   -1.9970   20.1640  -34.2450 N   0  0  0  0  0  0  0  0  0  0  0  0
   -4.3640   19.3500  -33.7130 C   0  0  0  0  0  0  0  0  0  0  0  0
   -6.3583   25.3582  -28.6622 H   0  0  0  0  0  0  0  0  0  0  0  0
   -7.3257   26.0038  -30.0311 H   0  0  0  0  0  0  0  0  0  0  0  0
   -6.8054   24.2845  -30.0311 H   0  0  0  0  0  0  0  0  0  0  0  0
   -5.4811   26.0384  -31.4893 H   0  0  0  0  0  0  0  0  0  0  0  0
   -4.7395   26.5076  -29.9213 H   0  0  0  0  0  0  0  0  0  0  0  0
   -2.4443   23.8963  -29.8667 H   0  0  0  0  0  0  0  0  0  0  0  0
   -2.9161   25.6210  -29.4831 H   0  0  0  0  0  0  0  0  0  0  0  0
   -3.0979   24.7139  -27.3851 H   0  0  0  0  0  0  0  0  0  0  0  0
   -4.7566   24.3956  -27.9967 H   0  0  0  0  0  0  0  0  0  0  0  0
   -3.5318   23.0816  -27.9967 H   0  0  0  0  0  0  0  0  0  0  0  0
   -5.5420   23.0968  -29.5576 H   0  0  0  0  0  0  0  0  0  0  0  0
   -5.8047   23.2363  -31.3399 H   0  0  0  0  0  0  0  0  0  0  0  0
   -3.2244   22.1693  -30.1009 H   0  0  0  0  0  0  0  0  0  0  0  0
   -4.6346   21.1256  -30.5854 H   0  0  0  0  0  0  0  0  0  0  0  0
   -3.0641   22.9600  -32.4550 H   0  0  0  0  0  0  0  0  0  0  0  0
   -2.8906   21.1418  -32.2970 H   0  0  0  0  0  0  0  0  0  0  0  0
   -4.2420   22.0300  -34.1920 H   0  0  0  0  0  0  0  0  0  0  0  0
   -5.3790   22.4920  -33.1270 H   0  0  0  0  0  0  0  0  0  0  0  0
   -6.9339   22.1779  -32.1902 H   0  0  0  0  0  0  0  0  0  0  0  0
   -9.2503   21.6590  -31.4717 H   0  0  0  0  0  0  0  0  0  0  0  0
  -10.1349   19.3463  -31.6616 H   0  0  0  0  0  0  0  0  0  0  0  0
   -8.7172   17.5335  -32.5846 H   0  0  0  0  0  0  0  0  0  0  0  0
   -6.9248   15.9696  -32.7002 H   0  0  0  0  0  0  0  0  0  0  0  0
   -7.6816   16.4984  -34.2410 H   0  0  0  0  0  0  0  0  0  0  0  0
   -6.0108   15.8387  -34.2410 H   0  0  0  0  0  0  0  0  0  0  0  0
   -3.9971   16.1349  -34.3219 H   0  0  0  0  0  0  0  0  0  0  0  0
   -1.0610   19.9590  -33.8310 H   0  0  0  0  0  0  0  0  0  0  0  0
   -2.0210   20.9140  -34.9640 H   0  0  0  0  0  0  0  0  0  0  0  0
  1  2  1  0
  2  3  1  0
  3  4  1  0
  4  5  1  0
  3  6  1  0
  6  7  1  0
  7  8  1  0
  8  9  1  0
  9 10  1  0
 10 11  2  0
 11 12  1  0
 12 13  2  0
 13 14  1  0
 14 15  2  0
 15 16  1  0
 16 17  2  0
 17 18  1  0
 17 19  1  0
 19 20  2  0
 20 21  1  0
 21 22  1  0
 22 23  1  0
 22 24  2  0
 24 10  1  0
 16 11  1  0
 24 19  1  0
  1 25  1  0
  1 26  1  0
  1 27  1  0
  2 28  1  0
  2 29  1  0
  4 30  1  0
  4 31  1  0
  5 32  1  0
  5 33  1  0
  5 34  1  0
  6 35  1  0
  6 36  1  0
  7 37  1  0
  7 38  1  0
  8 39  1  0
  8 40  1  0
  9 41  1  0
  9 42  1  0
 12 43  1  0
 13 44  1  0
 14 45  1  0
 15 46  1  0
 18 47  1  0
 18 48  1  0
 18 49  1  0
 20 50  1  0
 23 51  1  0
 23 52  1  0
M  CHG  2   9   1  17   1
M  END
>  <UniqueID>  (33) 
31

>  <SMILES>  (33) 
CCN(CC)CCC[NH2+]c1c2ccccc2[n+](C)c2coc(N)c12

>  <Energy>  (33) 
109.11022065174568

>  <Genealogy>  (33) 
CCN(CC)CCC[NH2+]c1c2ccccc2[n+](C)c2coc(N)c12 (protonated)
CCN(CC)CCC[NH2+]c1c2ccccc2[n+](C)c2coc(N)c12 (3D coordinates assigned)
CCN(CC)CCC[NH2+]c1c2ccccc2[n+](C)c2coc(N)c12 (optimized conformer: 109.11022065174568 kcal/mol)

>  <smiles>  (33) 
CCN(CC)CCCNc1c2ccccc2[n+](C)c2coc(N)c12

>  <score_type>  (33) 
oracle

>  <origin>  (33) 
adg

>  <m_score__min__energy>  (33) 
-7.4199999999999999

>  <m_primary>  (33) 
energy

$$$$
33:0
     RDKit          3D

 54 56  0  0  0  0  0  0  0  0999 V2000
   -5.8990   25.5210  -30.1170 C   0  0  0  0  0  0  0  0  0  0  0  0
   -4.6450   25.0140  -30.8290 C   0  0  0  0  0  0  0  0  0  0  0  0
   -4.6600   23.5380  -30.9390 N   0  0  0  0  0  0  0  0  0  0  0  0
   -5.2940   22.9350  -29.7450 C   0  0  0  0  0  0  0  0  0  0  0  0
   -4.2780   22.7330  -28.6190 C   0  0  0  0  0  0  0  0  0  0  0  0
   -3.3000   22.9890  -31.1840 C   0  0  0  0  0  0  0  0  0  0  0  0
   -3.3780   21.9150  -32.2770 C   0  0  0  0  0  0  0  0  0  0  0  0
   -4.5270   22.1000  -33.1860 N   0  0  0  0  0  0  0  0  0  0  0  0
   -5.5910   21.1290  -32.9500 C   0  0  0  0  0  0  0  0  0  0  0  0
   -6.8860   21.5370  -32.5130 C   0  0  0  0  0  0  0  0  0  0  0  0
   -7.2360   22.9040  -32.3520 C   0  0  0  0  0  0  0  0  0  0  0  0
   -8.5230   23.2820  -31.9810 C   0  0  0  0  0  0  0  0  0  0  0  0
   -9.4990   22.3220  -31.7710 C   0  0  0  0  0  0  0  0  0  0  0  0
   -9.1860   20.9730  -31.9010 C   0  0  0  0  0  0  0  0  0  0  0  0
   -7.8740   20.5480  -32.2340 C   0  0  0  0  0  0  0  0  0  0  0  0
   -7.5590   19.2070  -32.2990 N   0  0  0  0  0  0  0  0  0  0  0  0
   -8.4660   18.2030  -31.6960 C   0  0  0  0  0  0  0  0  0  0  0  0
   -6.3860   18.8000  -32.9000 C   0  0  0  0  0  0  0  0  0  0  0  0
   -6.1770   17.4410  -33.2530 C   0  0  0  0  0  0  0  0  0  0  0  0
   -4.9700   17.0130  -33.7940 C   0  0  0  0  0  0  0  0  0  0  0  0
   -3.9410   17.9200  -34.0060 C   0  0  0  0  0  0  0  0  0  0  0  0
   -2.3820   17.3600  -34.6950 S   0  0  0  0  0  0  0  0  0  0  0  0
   -1.4880   18.8700  -34.2110 C   0  0  0  0  0  0  0  0  0  0  0  0
   -4.1330   19.2700  -33.7150 C   0  0  0  0  0  0  0  0  0  0  0  0
   -5.3620   19.7440  -33.1890 C   0  0  0  0  0  0  0  0  0  0  0  0
   -5.7519   25.4615  -29.0285 H   0  0  0  0  0  0  0  0  0  0  0  0
   -6.0871   26.5658  -30.4051 H   0  0  0  0  0  0  0  0  0  0  0  0
   -6.7604   24.9005  -30.4051 H   0  0  0  0  0  0  0  0  0  0  0  0
   -4.6028   25.4499  -31.8381 H   0  0  0  0  0  0  0  0  0  0  0  0
   -3.7632   25.3137  -30.2436 H   0  0  0  0  0  0  0  0  0  0  0  0
   -6.0949   23.6002  -29.3900 H   0  0  0  0  0  0  0  0  0  0  0  0
   -5.7007   21.9524  -30.0264 H   0  0  0  0  0  0  0  0  0  0  0  0
   -4.7831   22.8334  -27.6470 H   0  0  0  0  0  0  0  0  0  0  0  0
   -3.8354   21.7293  -28.7002 H   0  0  0  0  0  0  0  0  0  0  0  0
   -3.4851   23.4911  -28.7002 H   0  0  0  0  0  0  0  0  0  0  0  0
   -2.6301   23.7981  -31.5106 H   0  0  0  0  0  0  0  0  0  0  0  0
   -2.9087   22.5446  -30.2570 H   0  0  0  0  0  0  0  0  0  0  0  0
   -2.4523   21.9505  -32.8702 H   0  0  0  0  0  0  0  0  0  0  0  0
   -3.5074   20.9442  -31.7761 H   0  0  0  0  0  0  0  0  0  0  0  0
   -4.2070   22.1260  -34.1760 H   0  0  0  0  0  0  0  0  0  0  0  0
   -4.9100   23.0630  -33.0580 H   0  0  0  0  0  0  0  0  0  0  0  0
   -6.4748   23.6793  -32.5239 H   0  0  0  0  0  0  0  0  0  0  0  0
   -8.7660   24.3473  -31.8541 H   0  0  0  0  0  0  0  0  0  0  0  0
  -10.5212   22.6262  -31.5015 H   0  0  0  0  0  0  0  0  0  0  0  0
   -9.9720   20.2200  -31.7423 H   0  0  0  0  0  0  0  0  0  0  0  0
   -8.4075   18.2678  -30.5995 H   0  0  0  0  0  0  0  0  0  0  0  0
   -9.4985   18.3999  -32.0204 H   0  0  0  0  0  0  0  0  0  0  0  0
   -8.1655   17.1958  -32.0204 H   0  0  0  0  0  0  0  0  0  0  0  0
   -6.9859   16.7124  -33.0954 H   0  0  0  0  0  0  0  0  0  0  0  0
   -4.8302   15.9535  -34.0545 H   0  0  0  0  0  0  0  0  0  0  0  0
   -1.4484   18.9369  -33.1137 H   0  0  0  0  0  0  0  0  0  0  0  0
   -0.4648   18.8352  -34.6134 H   0  0  0  0  0  0  0  0  0  0  0  0
   -2.0105   19.7504  -34.6134 H   0  0  0  0  0  0  0  0  0  0  0  0
   -3.3146   19.9821  -33.8971 H   0  0  0  0  0  0  0  0  0  0  0  0
  1  2  1  0
  2  3  1  0
  3  4  1  0
  4  5  1  0
  3  6  1  0
  6  7  1  0
  7  8  1  0
  8  9  1  0
  9 10  2  0
 10 11  1  0
 11 12  2  0
 12 13  1  0
 13 14  2  0
 14 15  1  0
 15 16  2  0
 16 17  1  0
 16 18  1  0
 18 19  2  0
 19 20  1  0
 20 21  2  0
 21 22  1  0
 22 23  1  0
 21 24  1  0
 24 25  2  0
 25  9  1  0
 15 10  1  0
 25 18  1  0
  1 26  1  0
  1 27  1  0
  1 28  1  0
  2 29  1  0
  2 30  1  0
  4 31  1  0
  4 32  1  0
  5 33  1  0
  5 34  1  0
  5 35  1  0
  6 36  1  0
  6 37  1  0
  7 38  1  0
  7 39  1  0
  8 40  1  0
  8 41  1  0
 11 42  1  0
 12 43  1  0
 13 44  1  0
 14 45  1  0
 17 46  1  0
 17 47  1  0
 17 48  1  0
 19 49  1  0
 20 50  1  0
 23 51  1  0
 23 52  1  0
 23 53  1  0
 24 54  1  0
M  CHG  2   8   1  16   1
M  END
>  <UniqueID>  (34) 
32

>  <SMILES>  (34) 
CCN(CC)CC[NH2+]c1c2ccccc2[n+](C)c2ccc(SC)cc12

>  <Energy>  (34) 
78.57416944270815

>  <Genealogy>  (34) 
CCN(CC)CC[NH2+]c1c2ccccc2[n+](C)c2ccc(SC)cc12 (protonated)
CCN(CC)CC[NH2+]c1c2ccccc2[n+](C)c2ccc(SC)cc12 (3D coordinates assigned)
CCN(CC)CC[NH2+]c1c2ccccc2[n+](C)c2ccc(SC)cc12 (optimized conformer: 78.57416944270815 kcal/mol)

>  <smiles>  (34) 
CCN(CC)CCNc1c2ccccc2[n+](C)c2ccc(SC)cc12

>  <score_type>  (34) 
oracle

>  <origin>  (34) 
adg

>  <m_score__min__energy>  (34) 
-8.5700000000000003

>  <m_primary>  (34) 
energy

$$$$
34:0
     RDKit          3D

 50 52  0  0  0  0  0  0  0  0999 V2000
   -1.2710   26.0630  -26.4300 C   0  0  0  0  0  0  0  0  0  0  0  0
   -0.7430   25.9140  -27.8610 C   0  0  0  0  0  0  0  0  0  0  0  0
   -1.8020   25.5620  -28.8200 N   0  0  0  0  0  0  0  0  0  0  0  0
   -1.8970   24.1130  -29.0360 C   0  0  0  0  0  0  0  0  0  0  0  0
   -2.8820   23.8220  -30.1630 C   0  0  0  0  0  0  0  0  0  0  0  0
   -3.6020   24.9990  -30.4580 O   0  0  0  0  0  0  0  0  0  0  0  0
   -4.8350   24.9860  -29.7690 C   0  0  0  0  0  0  0  0  0  0  0  0
   -5.6850   23.8190  -30.2690 C   0  0  0  0  0  0  0  0  0  0  0  0
   -5.2750   23.4020  -31.6120 N   0  0  0  0  0  0  0  0  0  0  0  0
   -5.6270   22.1160  -32.1490 C   0  0  0  0  0  0  0  0  0  0  0  0
   -6.9650   21.6840  -32.1520 C   0  0  0  0  0  0  0  0  0  0  0  0
   -8.0080   22.5640  -31.7940 C   0  0  0  0  0  0  0  0  0  0  0  0
   -9.3360   22.1450  -31.8320 C   0  0  0  0  0  0  0  0  0  0  0  0
   -9.6480   20.8570  -32.2500 C   0  0  0  0  0  0  0  0  0  0  0  0
   -8.6350   19.9740  -32.6210 C   0  0  0  0  0  0  0  0  0  0  0  0
   -7.2700   20.3570  -32.5580 C   0  0  0  0  0  0  0  0  0  0  0  0
   -6.2530   19.4860  -32.9010 N   0  0  0  0  0  0  0  0  0  0  0  0
   -6.5320   18.0390  -33.0350 C   0  0  0  0  0  0  0  0  0  0  0  0
   -4.9720   19.9660  -33.1020 C   0  0  0  0  0  0  0  0  0  0  0  0
   -3.9660   19.1750  -33.7130 C   0  0  0  0  0  0  0  0  0  0  0  0
   -2.6650   19.6570  -33.8660 C   0  0  0  0  0  0  0  0  0  0  0  0
   -2.3380   20.9360  -33.4360 C   0  0  0  0  0  0  0  0  0  0  0  0
   -3.3140   21.7520  -32.8690 C   0  0  0  0  0  0  0  0  0  0  0  0
   -4.6360   21.2870  -32.7050 C   0  0  0  0  0  0  0  0  0  0  0  0
   -0.4654   25.8356  -25.7164 H   0  0  0  0  0  0  0  0  0  0  0  0
   -1.6194   27.0945  -26.2733 H   0  0  0  0  0  0  0  0  0  0  0  0
   -2.1072   25.3658  -26.2733 H   0  0  0  0  0  0  0  0  0  0  0  0
   -0.2898   26.8673  -28.1705 H   0  0  0  0  0  0  0  0  0  0  0  0
   -0.0071   25.0964  -27.8616 H   0  0  0  0  0  0  0  0  0  0  0  0
   -1.6110   26.0330  -29.7360 H   0  0  0  0  0  0  0  0  0  0  0  0
   -0.9063   23.7183  -29.3059 H   0  0  0  0  0  0  0  0  0  0  0  0
   -2.2492   23.6305  -28.1123 H   0  0  0  0  0  0  0  0  0  0  0  0
   -2.3327   23.4917  -31.0570 H   0  0  0  0  0  0  0  0  0  0  0  0
   -3.5776   23.0281  -29.8534 H   0  0  0  0  0  0  0  0  0  0  0  0
   -4.6513   24.8704  -28.6906 H   0  0  0  0  0  0  0  0  0  0  0  0
   -5.3668   25.9316  -29.9508 H   0  0  0  0  0  0  0  0  0  0  0  0
   -5.5702   22.9700  -29.5790 H   0  0  0  0  0  0  0  0  0  0  0  0
   -6.7346   24.1456  -30.3110 H   0  0  0  0  0  0  0  0  0  0  0  0
   -4.6420   24.0250  -32.1640 H   0  0  0  0  0  0  0  0  0  0  0  0
   -7.7701   23.5915  -31.4817 H   0  0  0  0  0  0  0  0  0  0  0  0
  -10.1385   22.8344  -31.5308 H   0  0  0  0  0  0  0  0  0  0  0  0
  -10.6985   20.5329  -32.2883 H   0  0  0  0  0  0  0  0  0  0  0  0
   -8.8980   18.9639  -32.9682 H   0  0  0  0  0  0  0  0  0  0  0  0
   -6.6189   17.5882  -32.0354 H   0  0  0  0  0  0  0  0  0  0  0  0
   -7.4741   17.8966  -33.5846 H   0  0  0  0  0  0  0  0  0  0  0  0
   -5.7103   17.5565  -33.5846 H   0  0  0  0  0  0  0  0  0  0  0  0
   -4.2149   18.1655  -34.0721 H   0  0  0  0  0  0  0  0  0  0  0  0
   -1.8960   19.0212  -34.3290 H   0  0  0  0  0  0  0  0  0  0  0  0
   -1.3073   21.3051  -33.5432 H   0  0  0  0  0  0  0  0  0  0  0  0
   -3.0513   22.7700  -32.5455 H   0  0  0  0  0  0  0  0  0  0  0  0
  1  2  1  0
  2  3  1  0
  3  4  1  0
  4  5  1  0
  5  6  1  0
  6  7  1  0
  7  8  1  0
  8  9  1  0
  9 10  1  0
 10 11  2  0
 11 12  1  0
 12 13  2  0
 13 14  1  0
 14 15  2  0
 15 16  1  0
 16 17  2  0
 17 18  1  0
 17 19  1  0
 19 20  2  0
 20 21  1  0
 21 22  2  0
 22 23  1  0
 23 24  2  0
 24 10  1  0
 16 11  1  0
 24 19  1  0
  1 25  1  0
  1 26  1  0
  1 27  1  0
  2 28  1  0
  2 29  1  0
  3 30  1  0
  4 31  1  0
  4 32  1  0
  5 33  1  0
  5 34  1  0
  7 35  1  0
  7 36  1  0
  8 37  1  0
  8 38  1  0
  9 39  1  0
 12 40  1  0
 13 41  1  0
 14 42  1  0
 15 43  1  0
 18 44  1  0
 18 45  1  0
 18 46  1  0
 20 47  1  0
 21 48  1  0
 22 49  1  0
 23 50  1  0
M  CHG  1  17   1
M  END
>  <UniqueID>  (35) 
33

>  <SMILES>  (35) 
CCNCCOCCNc1c2ccccc2[n+](C)c2ccccc12

>  <Energy>  (35) 
70.05129498329649

>  <Genealogy>  (35) 
CCNCCOCCNc1c2ccccc2[n+](C)c2ccccc12 (3D coordinates assigned)
CCNCCOCCNc1c2ccccc2[n+](C)c2ccccc12 (optimized conformer: 70.05129498329649 kcal/mol)

>  <smiles>  (35) 
CCNCCOCCNc1c2ccccc2[n+](C)c2ccccc12

>  <score_type>  (35) 
oracle

>  <origin>  (35) 
adg

>  <m_score__min__energy>  (35) 
-9.2100000000000009

>  <m_primary>  (35) 
energy

$$$$
