0:0
     RDKit          3D

 35 36  0  0  0  0  0  0  0  0999 V2000
   -4.1290   21.1740  -33.0750 C   0  0  0  0  0  0  0  0  0  0  0  0
   -5.3200   20.7390  -33.7210 O   0  0  0  0  0  0  0  0  0  0  0  0
   -5.9380   19.4970  -33.5040 C   0  0  0  0  0  0  0  0  0  0  0  0
   -5.4940   18.3230  -34.1470 C   0  0  0  0  0  0  0  0  0  0  0  0
   -6.1470   17.1090  -33.9290 C   0  0  0  0  0  0  0  0  0  0  0  0
   -7.2470   17.0480  -33.0730 C   0  0  0  0  0  0  0  0  0  0  0  0
   -7.6940   18.2020  -32.4270 C   0  0  0  0  0  0  0  0  0  0  0  0
   -7.0420   19.4290  -32.6320 C   0  0  0  0  0  0  0  0  0  0  0  0
   -7.5060   20.6070  -31.9500 N   0  0  0  0  0  0  0  0  0  0  0  0
   -6.7070   21.1450  -30.8450 C   0  0  0  0  0  0  0  0  0  0  0  0
   -7.3570   22.4070  -30.2610 C   0  0  0  0  0  0  0  0  0  0  0  0
   -7.9480   23.2630  -31.3180 N   0  0  0  0  0  0  0  0  0  0  0  0
   -6.9440   23.7950  -32.2760 C   0  0  0  0  0  0  0  0  0  0  0  0
   -5.7180   24.2530  -31.5990 C   0  0  0  0  0  0  0  0  0  0  0  0
   -4.7550   24.6150  -31.0690 N   0  0  0  0  0  0  0  0  0  0  0  0
   -9.0520   22.5640  -32.0340 C   0  0  0  0  0  0  0  0  0  0  0  0
   -8.9020   21.0270  -32.1030 C   0  0  0  0  0  0  0  0  0  0  0  0
   -4.2643   21.1246  -31.9845 H   0  0  0  0  0  0  0  0  0  0  0  0
   -3.2929   20.5232  -33.3706 H   0  0  0  0  0  0  0  0  0  0  0  0
   -3.9091   22.2105  -33.3706 H   0  0  0  0  0  0  0  0  0  0  0  0
   -4.6281   18.3644  -34.8242 H   0  0  0  0  0  0  0  0  0  0  0  0
   -5.7934   16.1977  -34.4335 H   0  0  0  0  0  0  0  0  0  0  0  0
   -7.7622   16.0904  -32.9071 H   0  0  0  0  0  0  0  0  0  0  0  0
   -8.5621   18.1500  -31.7534 H   0  0  0  0  0  0  0  0  0  0  0  0
   -6.6261   20.3835  -30.0553 H   0  0  0  0  0  0  0  0  0  0  0  0
   -5.7105   21.4090  -31.2287 H   0  0  0  0  0  0  0  0  0  0  0  0
   -8.1507   22.1071  -29.5609 H   0  0  0  0  0  0  0  0  0  0  0  0
   -6.5757   22.9876  -29.7487 H   0  0  0  0  0  0  0  0  0  0  0  0
   -8.3730   24.0910  -30.8350 H   0  0  0  0  0  0  0  0  0  0  0  0
   -6.6793   23.0007  -32.9894 H   0  0  0  0  0  0  0  0  0  0  0  0
   -7.3906   24.6600  -32.7882 H   0  0  0  0  0  0  0  0  0  0  0  0
   -9.9956   22.7939  -31.5176 H   0  0  0  0  0  0  0  0  0  0  0  0
   -9.0292   22.9266  -33.0723 H   0  0  0  0  0  0  0  0  0  0  0  0
   -9.4998   20.5748  -31.2979 H   0  0  0  0  0  0  0  0  0  0  0  0
   -9.2519   20.6942  -33.0913 H   0  0  0  0  0  0  0  0  0  0  0  0
  1  2  1  0
  2  3  1  0
  3  4  2  0
  4  5  1  0
  5  6  2  0
  6  7  1  0
  7  8  2  0
  8  9  1  0
  9 10  1  0
 10 11  1  0
 11 12  1  0
 12 13  1  0
 13 14  1  0
 14 15  3  0
 12 16  1  0
 16 17  1  0
  8  3  1  0
 17  9  1  0
  1 18  1  0
  1 19  1  0
  1 20  1  0
  4 21  1  0
  5 22  1  0
  6 23  1  0
  7 24  1  0
 10 25  1  0
 10 26  1  0
 11 27  1  0
 11 28  1  0
 12 29  1  0
 13 30  1  0
 13 31  1  0
 16 32  1  0
 16 33  1  0
 17 34  1  0
 17 35  1  0
M  CHG  1  12   1
M  END
>  <UniqueID>  (1) 
1

>  <SMILES>  (1) 
COc1ccccc1N1CC[NH+](CC#N)CC1

>  <Energy>  (1) 
47.174546787909605

>  <Genealogy>  (1) 
COc1ccccc1N1CC[NH+](CC#N)CC1 (protonated)
COc1ccccc1N1CC[NH+](CC#N)CC1 (3D coordinates assigned)
COc1ccccc1N1CC[NH+](CC#N)CC1 (nonaromatic ring conformer: 47.174546787909605 kcal/mol)

>  <smiles>  (1) 
COc1ccccc1N1CCN(CC#N)CC1

>  <score_type>  (1) 
oracle

>  <origin>  (1) 
adg

>  <m_score__min__energy>  (1) 
-5.1900000000000004

>  <m_primary>  (1) 
energy

$$$$
1:0
     RDKit          3D

 63 67  0  0  0  0  0  0  0  0999 V2000
   -1.2240   26.1040  -24.5270 C   0  0  0  0  0  0  0  0  0  0  0  0
   -1.7540   25.6720  -25.8930 C   0  0  0  0  0  0  0  0  0  0  0  0
   -0.6280   25.3140  -26.8740 C   0  0  0  0  0  0  0  0  0  0  0  0
   -0.9450   24.0900  -27.6390 N   0  0  0  0  0  0  0  0  0  0  0  0
   -1.6150   24.1780  -28.8390 C   0  0  0  0  0  0  0  0  0  0  0  0
   -1.9640   25.2920  -29.3230 O   0  0  0  0  0  0  0  0  0  0  0  0
   -1.9000   23.0100  -29.5200 C   0  0  0  0  0  0  0  0  0  0  0  0
   -2.5140   22.8540  -30.7010 N   0  0  0  0  0  0  0  0  0  0  0  0
   -2.4950   21.5030  -30.8590 C   0  0  0  0  0  0  0  0  0  0  0  0
   -3.0900   20.8350  -32.0210 C   0  0  0  0  0  0  0  0  0  0  0  0
   -2.4660   19.9670  -32.9000 C   0  0  0  0  0  0  0  0  0  0  0  0
   -3.3910   19.4980  -33.7570 N   0  0  0  0  0  0  0  0  0  0  0  0
   -4.5640   20.0290  -33.4490 N   0  0  0  0  0  0  0  0  0  0  0  0
   -5.8230   19.7020  -34.1150 C   0  0  0  0  0  0  0  0  0  0  0  0
   -6.9400   19.5330  -33.1060 C   0  0  0  0  0  0  0  0  0  0  0  0
   -7.7170   20.6560  -32.7620 C   0  0  0  0  0  0  0  0  0  0  0  0
   -8.7840   20.5370  -31.8660 C   0  0  0  0  0  0  0  0  0  0  0  0
   -9.0950   19.2980  -31.3050 C   0  0  0  0  0  0  0  0  0  0  0  0
   -8.3350   18.1730  -31.6320 C   0  0  0  0  0  0  0  0  0  0  0  0
   -7.2500   18.2750  -32.5210 C   0  0  0  0  0  0  0  0  0  0  0  0
   -6.4860   17.0510  -32.8420 C   0  0  0  0  0  0  0  0  0  0  0  0
   -5.3950   16.6740  -32.0410 C   0  0  0  0  0  0  0  0  0  0  0  0
   -4.6900   15.4990  -32.3220 C   0  0  0  0  0  0  0  0  0  0  0  0
   -5.0620   14.7010  -33.4080 C   0  0  0  0  0  0  0  0  0  0  0  0
   -6.1350   15.0810  -34.2210 C   0  0  0  0  0  0  0  0  0  0  0  0
   -6.8440   16.2550  -33.9420 C   0  0  0  0  0  0  0  0  0  0  0  0
   -4.4150   20.8660  -32.4050 C   0  0  0  0  0  0  0  0  0  0  0  0
   -1.9070   20.8230  -29.8390 N   0  0  0  0  0  0  0  0  0  0  0  0
   -1.5430   21.8130  -29.0120 C   0  0  0  0  0  0  0  0  0  0  0  0
   -0.8970   21.6910  -27.8210 N   0  0  0  0  0  0  0  0  0  0  0  0
   -0.5050   20.3640  -27.3190 C   0  0  0  0  0  0  0  0  0  0  0  0
   -1.5390   19.8460  -26.3140 C   0  0  0  0  0  0  0  0  0  0  0  0
   -2.7200   19.1900  -27.0250 C   0  0  0  0  0  0  0  0  0  0  0  0
   -0.5810   22.8480  -27.1380 C   0  0  0  0  0  0  0  0  0  0  0  0
    0.0510   22.7740  -26.0470 O   0  0  0  0  0  0  0  0  0  0  0  0
   -1.8156   25.6218  -23.7349 H   0  0  0  0  0  0  0  0  0  0  0  0
   -0.1699   25.8045  -24.4312 H   0  0  0  0  0  0  0  0  0  0  0  0
   -1.3048   27.1968  -24.4312 H   0  0  0  0  0  0  0  0  0  0  0  0
   -2.3985   24.7907  -25.7588 H   0  0  0  0  0  0  0  0  0  0  0  0
   -2.3114   26.5194  -26.3186 H   0  0  0  0  0  0  0  0  0  0  0  0
   -0.4875   26.1484  -27.5768 H   0  0  0  0  0  0  0  0  0  0  0  0
    0.2892   25.1312  -26.2949 H   0  0  0  0  0  0  0  0  0  0  0  0
   -1.3975   19.7055  -32.8982 H   0  0  0  0  0  0  0  0  0  0  0  0
   -3.2280   18.8020  -34.5180 H   0  0  0  0  0  0  0  0  0  0  0  0
   -6.0847   20.5140  -34.8094 H   0  0  0  0  0  0  0  0  0  0  0  0
   -5.6964   18.7555  -34.6611 H   0  0  0  0  0  0  0  0  0  0  0  0
   -7.4823   21.6363  -33.2024 H   0  0  0  0  0  0  0  0  0  0  0  0
   -9.3801   21.4232  -31.6026 H   0  0  0  0  0  0  0  0  0  0  0  0
   -9.9388   19.2073  -30.6052 H   0  0  0  0  0  0  0  0  0  0  0  0
   -8.5874   17.1978  -31.1901 H   0  0  0  0  0  0  0  0  0  0  0  0
   -5.0946   17.3043  -31.1910 H   0  0  0  0  0  0  0  0  0  0  0  0
   -3.8417   15.2024  -31.6876 H   0  0  0  0  0  0  0  0  0  0  0  0
   -4.5106   13.7738  -33.6233 H   0  0  0  0  0  0  0  0  0  0  0  0
   -6.4217   14.4567  -35.0801 H   0  0  0  0  0  0  0  0  0  0  0  0
   -7.6838   16.5549  -34.5860 H   0  0  0  0  0  0  0  0  0  0  0  0
   -5.2094   21.4683  -31.9401 H   0  0  0  0  0  0  0  0  0  0  0  0
   -0.4375   19.6625  -28.1636 H   0  0  0  0  0  0  0  0  0  0  0  0
    0.4703   20.4464  -26.8169 H   0  0  0  0  0  0  0  0  0  0  0  0
   -1.0602   19.1058  -25.6560 H   0  0  0  0  0  0  0  0  0  0  0  0
   -1.9145   20.6991  -25.7298 H   0  0  0  0  0  0  0  0  0  0  0  0
   -3.4259   18.7979  -26.2780 H   0  0  0  0  0  0  0  0  0  0  0  0
   -3.2287   19.9349  -27.6546 H   0  0  0  0  0  0  0  0  0  0  0  0
   -2.3564   18.3646  -27.6546 H   0  0  0  0  0  0  0  0  0  0  0  0
  1  2  1  0
  2  3  1  0
  3  4  1  0
  4  5  1  0
  5  6  2  0
  5  7  1  0
  7  8  1  0
  8  9  1  0
  9 10  1  0
 10 11  1  0
 11 12  2  0
 12 13  1  0
 13 14  1  0
 14 15  1  0
 15 16  2  0
 16 17  1  0
 17 18  2  0
 18 19  1  0
 19 20  2  0
 20 21  1  0
 21 22  2  0
 22 23  1  0
 23 24  2  0
 24 25  1  0
 25 26  2  0
 13 27  1  0
  9 28  2  0
 28 29  1  0
 29 30  1  0
 30 31  1  0
 31 32  1  0
 32 33  1  0
 30 34  1  0
 34 35  2  0
 34  4  1  0
 29  7  2  0
 27 10  2  0
 20 15  1  0
 26 21  1  0
  1 36  1  0
  1 37  1  0
  1 38  1  0
  2 39  1  0
  2 40  1  0
  3 41  1  0
  3 42  1  0
 11 43  1  0
 12 44  1  0
 14 45  1  0
 14 46  1  0
 16 47  1  0
 17 48  1  0
 18 49  1  0
 19 50  1  0
 22 51  1  0
 23 52  1  0
 24 53  1  0
 25 54  1  0
 26 55  1  0
 27 56  1  0
 31 57  1  0
 31 58  1  0
 32 59  1  0
 32 60  1  0
 33 61  1  0
 33 62  1  0
 33 63  1  0
M  CHG  2   8  -1  12   1
M  END
>  <UniqueID>  (2) 
2

>  <SMILES>  (2) 
CCCn1c(=O)c2[n-]c(-c3c[nH+]n(Cc4ccccc4-c4ccccc4)c3)nc2n(CCC)c1=O

>  <Energy>  (2) 
135.47982184402505

>  <Genealogy>  (2) 
CCCn1c(=O)c2[n-]c(-c3c[nH+]n(Cc4ccccc4-c4ccccc4)c3)nc2n(CCC)c1=O (protonated)
CCCn1c(=O)c2[n-]c(-c3c[nH+]n(Cc4ccccc4-c4ccccc4)c3)nc2n(CCC)c1=O (3D coordinates assigned)
CCCn1c(=O)c2[n-]c(-c3c[nH+]n(Cc4ccccc4-c4ccccc4)c3)nc2n(CCC)c1=O (optimized conformer: 135.47982184402505 kcal/mol)

>  <smiles>  (2) 
CCCn1c(=O)c2[nH]c(-c3cnn(Cc4ccccc4-c4ccccc4)c3)nc2n(CCC)c1=O

>  <score_type>  (2) 
oracle

>  <origin>  (2) 
adg

>  <m_score__min__energy>  (2) 
-10.43

>  <m_primary>  (2) 
energy

$$$$
2:0
     RDKit          3D

 22 23  0  0  0  0  0  0  0  0999 V2000
   -9.2100   18.9190  -32.3620 C   0  0  0  0  0  0  0  0  0  0  0  0
   -8.4170   20.1790  -32.1080 C   0  0  0  0  0  0  0  0  0  0  0  0
   -9.0440   21.2390  -31.4370 C   0  0  0  0  0  0  0  0  0  0  0  0
   -8.3490   22.4220  -31.2070 C   0  0  0  0  0  0  0  0  0  0  0  0
   -7.0330   22.5470  -31.6350 C   0  0  0  0  0  0  0  0  0  0  0  0
   -6.0920   24.1830  -31.3120 Br  0  0  0  0  0  0  0  0  0  0  0  0
   -6.4140   21.4700  -32.2850 C   0  0  0  0  0  0  0  0  0  0  0  0
   -5.2110   21.5830  -32.6510 O   0  0  0  0  0  0  0  0  0  0  0  0
   -7.1040   20.3030  -32.5070 N   0  0  0  0  0  0  0  0  0  0  0  0
   -6.4310   19.2090  -33.1590 C   0  0  0  0  0  0  0  0  0  0  0  0
   -6.3980   19.0410  -34.4990 N   0  0  0  0  0  0  0  0  0  0  0  0
   -5.7010   17.9320  -34.8600 C   0  0  0  0  0  0  0  0  0  0  0  0
   -5.1740   17.2030  -33.7990 C   0  0  0  0  0  0  0  0  0  0  0  0
   -5.6000   17.9800  -32.3650 S   0  0  0  0  0  0  0  0  0  0  0  0
   -9.4954   18.4655  -31.4013 H   0  0  0  0  0  0  0  0  0  0  0  0
  -10.1162   19.1653  -32.9348 H   0  0  0  0  0  0  0  0  0  0  0  0
   -8.5959   18.2085  -32.9348 H   0  0  0  0  0  0  0  0  0  0  0  0
  -10.0837   21.1352  -31.0931 H   0  0  0  0  0  0  0  0  0  0  0  0
   -8.8407   23.2574  -30.6870 H   0  0  0  0  0  0  0  0  0  0  0  0
   -6.8650   19.6780  -35.1810 H   0  0  0  0  0  0  0  0  0  0  0  0
   -5.5641   17.6338  -35.9099 H   0  0  0  0  0  0  0  0  0  0  0  0
   -4.5819   16.2796  -33.8814 H   0  0  0  0  0  0  0  0  0  0  0  0
  1  2  1  0
  2  3  2  0
  3  4  1  0
  4  5  2  0
  5  6  1  0
  5  7  1  0
  7  8  2  0
  7  9  1  0
  9 10  1  0
 10 11  2  0
 11 12  1  0
 12 13  2  0
 13 14  1  0
  9  2  1  0
 14 10  1  0
  1 15  1  0
  1 16  1  0
  1 17  1  0
  3 18  1  0
  4 19  1  0
 11 20  1  0
 12 21  1  0
 13 22  1  0
M  CHG  1  11   1
M  END
>  <UniqueID>  (3) 
3

>  <SMILES>  (3) 
Cc1ccc(Br)c(=O)n1-c1[nH+]ccs1

>  <Energy>  (3) 
62.35624415022674

>  <Genealogy>  (3) 
Cc1ccc(Br)c(=O)n1-c1[nH+]ccs1 (protonated)
Cc1ccc(Br)c(=O)n1-c1[nH+]ccs1 (3D coordinates assigned)
Cc1ccc(Br)c(=O)n1-c1[nH+]ccs1 (optimized conformer: 62.35624415022674 kcal/mol)

>  <smiles>  (3) 
Cc1ccc(Br)c(=O)n1-c1nccs1

>  <score_type>  (3) 
oracle

>  <origin>  (3) 
adg

>  <m_score__min__energy>  (3) 
-6.3399999999999999

>  <m_primary>  (3) 
energy

$$$$
3:0
     RDKit          3D

 42 45  0  0  0  0  0  0  0  0999 V2000
   -6.5541   20.0380  -33.0996 H   0  0  0  0  0  0  0  0  0  0  0  0
   -6.5890   20.9400  -32.4710 C   0  0  0  0  0  0  0  0  0  0  0  0
   -5.4970   21.8090  -32.4380 C   0  0  0  0  0  0  0  0  0  0  0  0
   -4.6145   21.6025  -33.0614 H   0  0  0  0  0  0  0  0  0  0  0  0
   -5.5190   22.9430  -31.6150 C   0  0  0  0  0  0  0  0  0  0  0  0
   -4.3700   23.8050  -31.5920 N   0  0  0  0  0  0  0  0  0  0  0  0
   -3.5510   23.9100  -30.6150 N   0  0  0  0  0  0  0  0  0  0  0  0
   -2.4170   23.0560  -30.3940 C   0  0  0  0  0  0  0  0  0  0  0  0
   -1.5690   23.0760  -29.2860 C   0  0  0  0  0  0  0  0  0  0  0  0
   -1.6610   23.9850  -28.1200 C   0  0  0  0  0  0  0  0  0  0  0  0
   -0.5110   24.6370  -27.6470 C   0  0  0  0  0  0  0  0  0  0  0  0
    0.4544   24.4725  -28.1479 H   0  0  0  0  0  0  0  0  0  0  0  0
   -0.5830   25.4940  -26.5440 C   0  0  0  0  0  0  0  0  0  0  0  0
    0.3256   25.9955  -26.1793 H   0  0  0  0  0  0  0  0  0  0  0  0
   -1.8140   25.7170  -25.8990 C   0  0  0  0  0  0  0  0  0  0  0  0
   -1.9380   26.5660  -24.7890 O   0  0  0  0  0  0  0  0  0  0  0  0
   -0.9030   26.8060  -23.8400 C   0  0  0  0  0  0  0  0  0  0  0  0
   -1.3096   26.7117  -22.8223 H   0  0  0  0  0  0  0  0  0  0  0  0
   -0.0972   26.0709  -23.9825 H   0  0  0  0  0  0  0  0  0  0  0  0
   -0.5030   27.8207  -23.9825 H   0  0  0  0  0  0  0  0  0  0  0  0
   -2.9600   25.0750  -26.3760 C   0  0  0  0  0  0  0  0  0  0  0  0
   -3.9267   25.2452  -25.8794 H   0  0  0  0  0  0  0  0  0  0  0  0
   -2.8890   24.2180  -27.4790 C   0  0  0  0  0  0  0  0  0  0  0  0
   -3.8002   23.7235  -27.8467 H   0  0  0  0  0  0  0  0  0  0  0  0
   -0.6470   22.0880  -29.3950 N   0  0  0  0  0  0  0  0  0  0  0  0
    0.1200   21.8600  -28.7230 H   0  0  0  0  0  0  0  0  0  0  0  0
   -0.8880   21.4770  -30.5690 C   0  0  0  0  0  0  0  0  0  0  0  0
   -0.1700   20.4220  -31.1310 C   0  0  0  0  0  0  0  0  0  0  0  0
    0.6779   19.9660  -30.5989 H   0  0  0  0  0  0  0  0  0  0  0  0
   -0.5640   19.9590  -32.4000 C   0  0  0  0  0  0  0  0  0  0  0  0
   -0.0273   19.1198  -32.8666 H   0  0  0  0  0  0  0  0  0  0  0  0
   -1.6440   20.5650  -33.0780 C   0  0  0  0  0  0  0  0  0  0  0  0
   -1.9378   20.1996  -34.0731 H   0  0  0  0  0  0  0  0  0  0  0  0
   -2.3470   21.6320  -32.4910 C   0  0  0  0  0  0  0  0  0  0  0  0
   -3.1781   22.1233  -33.0181 H   0  0  0  0  0  0  0  0  0  0  0  0
   -1.9550   22.0470  -31.2170 C   0  0  0  0  0  0  0  0  0  0  0  0
   -6.6890   23.2490  -30.8870 C   0  0  0  0  0  0  0  0  0  0  0  0
   -6.8590   24.7600  -30.0050 Cl  0  0  0  0  0  0  0  0  0  0  0  0
   -7.7800   22.3730  -30.9270 C   0  0  0  0  0  0  0  0  0  0  0  0
   -8.6841   22.5975  -30.3420 H   0  0  0  0  0  0  0  0  0  0  0  0
   -7.7260   21.2140  -31.7070 C   0  0  0  0  0  0  0  0  0  0  0  0
   -9.0980   20.1210  -31.7510 Cl  0  0  0  0  0  0  0  0  0  0  0  0
  1  2  1  0
  2  3  2  0
  3  4  1  0
  3  5  1  0
  5  6  1  0
  6  7  2  0
  7  8  1  0
  8  9  2  0
  9 10  1  0
 10 11  2  0
 11 12  1  0
 11 13  1  0
 13 14  1  0
 13 15  2  0
 15 16  1  0
 16 17  1  0
 17 18  1  0
 17 19  1  0
 17 20  1  0
 15 21  1  0
 21 22  1  0
 21 23  2  0
 23 24  1  0
  9 25  1  0
 25 26  1  0
 25 27  1  0
 27 28  2  0
 28 29  1  0
 28 30  1  0
 30 31  1  0
 30 32  2  0
 32 33  1  0
 32 34  1  0
 34 35  1  0
 34 36  2  0
  5 37  2  0
 37 38  1  0
 37 39  1  0
 39 40  1  0
 39 41  2  0
 41 42  1  0
 41  2  1  0
 36  8  1  0
 23 10  1  0
 36 27  1  0
M  END
>  <UniqueID>  (4) 
4

>  <SMILES>  (4) 
COc1ccc(-c2[nH]c3ccccc3c2/N=N\c2ccc(Cl)cc2Cl)cc1

>  <Energy>  (4) 
98.66180655459205

>  <Genealogy>  (4) 
COc1ccc(-c2[nH]c3ccccc3c2/N=N\c2ccc(Cl)cc2Cl)cc1 (cis-trans isomerization)
COc1ccc(-c2[nH]c3ccccc3c2/N=N\c2ccc(Cl)cc2Cl)cc1 (3D coordinates assigned)
COc1ccc(-c2[nH]c3ccccc3c2/N=N\c2ccc(Cl)cc2Cl)cc1 (optimized conformer: 98.66180655459205 kcal/mol)

>  <smiles>  (4) 
COc1ccc(-c2[nH]c3ccccc3c2N=Nc2ccc(Cl)cc2Cl)cc1

>  <score_type>  (4) 
oracle

>  <origin>  (4) 
adg

>  <m_score__min__energy>  (4) 
-9

>  <m_primary>  (4) 
energy

$$$$
4:0
     RDKit          3D

 30 31  0  0  0  0  0  0  0  0999 V2000
   -4.9490   17.9460  -34.9690 C   0  0  0  0  0  0  0  0  0  0  0  0
   -5.8470   18.5470  -33.9910 N   0  0  0  0  0  0  0  0  0  0  0  0
   -6.8570   17.9200  -33.3570 C   0  0  0  0  0  0  0  0  0  0  0  0
   -7.5360   18.8540  -32.6010 C   0  0  0  0  0  0  0  0  0  0  0  0
   -8.9350   18.5540  -31.5860 Cl  0  0  0  0  0  0  0  0  0  0  0  0
   -6.8770   20.0550  -32.8220 C   0  0  0  0  0  0  0  0  0  0  0  0
   -7.2460   21.3780  -32.2860 C   0  0  0  0  0  0  0  0  0  0  0  0
   -8.4620   21.6370  -32.0710 O   0  0  0  0  0  0  0  0  0  0  0  0
   -6.2460   22.3720  -31.9970 N   0  0  0  0  0  0  0  0  0  0  0  0
   -6.5550   23.7980  -32.1630 C   0  0  0  0  0  0  0  0  0  0  0  0
   -6.5010   24.5210  -30.8090 C   0  0  0  0  0  0  0  0  0  0  0  0
   -5.3660   24.0170  -29.8880 C   0  0  0  0  0  0  0  0  0  0  0  0
   -4.3240   23.1750  -30.6350 C   0  0  0  0  0  0  0  0  0  0  0  0
   -4.9970   21.9780  -31.3230 C   0  0  0  0  0  0  0  0  0  0  0  0
   -5.8660   19.8340  -33.6840 N   0  0  0  0  0  0  0  0  0  0  0  0
   -4.1447   17.4077  -34.4461 H   0  0  0  0  0  0  0  0  0  0  0  0
   -5.5118   17.2419  -35.5995 H   0  0  0  0  0  0  0  0  0  0  0  0
   -4.5127   18.7347  -35.5995 H   0  0  0  0  0  0  0  0  0  0  0  0
   -7.0986   16.8493  -33.4293 H   0  0  0  0  0  0  0  0  0  0  0  0
   -5.8200   24.2507  -32.8447 H   0  0  0  0  0  0  0  0  0  0  0  0
   -7.5686   23.8964  -32.5788 H   0  0  0  0  0  0  0  0  0  0  0  0
   -6.3496   25.5949  -30.9931 H   0  0  0  0  0  0  0  0  0  0  0  0
   -7.4514   24.3170  -30.2941 H   0  0  0  0  0  0  0  0  0  0  0  0
   -4.8613   24.8875  -29.4436 H   0  0  0  0  0  0  0  0  0  0  0  0
   -5.8227   23.3745  -29.1208 H   0  0  0  0  0  0  0  0  0  0  0  0
   -3.8304   23.7992  -31.3945 H   0  0  0  0  0  0  0  0  0  0  0  0
   -3.5828   22.8015  -29.9131 H   0  0  0  0  0  0  0  0  0  0  0  0
   -4.3053   21.5599  -32.0691 H   0  0  0  0  0  0  0  0  0  0  0  0
   -5.2422   21.2317  -30.5530 H   0  0  0  0  0  0  0  0  0  0  0  0
   -5.2310   20.5510  -34.1010 H   0  0  0  0  0  0  0  0  0  0  0  0
  1  2  1  0
  2  3  1  0
  3  4  2  0
  4  5  1  0
  4  6  1  0
  6  7  1  0
  7  8  2  0
  7  9  1  0
  9 10  1  0
 10 11  1  0
 11 12  1  0
 12 13  1  0
 13 14  1  0
  6 15  2  0
 15  2  1  0
 14  9  1  0
  1 16  1  0
  1 17  1  0
  1 18  1  0
  3 19  1  0
 10 20  1  0
 10 21  1  0
 11 22  1  0
 11 23  1  0
 12 24  1  0
 12 25  1  0
 13 26  1  0
 13 27  1  0
 14 28  1  0
 14 29  1  0
 15 30  1  0
M  CHG  1  15   1
M  END
>  <UniqueID>  (5) 
5

>  <SMILES>  (5) 
Cn1cc(Cl)c(C(=O)N2CCCCC2)[nH+]1

>  <Energy>  (5) 
64.17835361246868

>  <Genealogy>  (5) 
Cn1cc(Cl)c(C(=O)N2CCCCC2)[nH+]1 (protonated)
Cn1cc(Cl)c(C(=O)N2CCCCC2)[nH+]1 (3D coordinates assigned)
Cn1cc(Cl)c(C(=O)N2CCCCC2)[nH+]1 (nonaromatic ring conformer: 64.17835361246868 kcal/mol)

>  <smiles>  (5) 
Cn1cc(Cl)c(C(=O)N2CCCCC2)n1

>  <score_type>  (5) 
oracle

>  <origin>  (5) 
adg

>  <m_score__min__energy>  (5) 
-5.7300000000000004

>  <m_primary>  (5) 
energy

$$$$
5:0
     RDKit          3D

 34 34  0  0  0  0  0  0  0  0999 V2000
   -4.4980   21.6480  -32.9950 C   0  0  0  0  0  0  0  0  0  0  0  0
   -5.8910   21.0010  -32.9660 C   0  0  1  0  0  0  0  0  0  0  0  0
   -5.8590   19.4970  -32.5820 C   0  0  0  0  0  0  0  0  0  0  0  0
   -6.8380   18.6580  -33.3190 N   0  0  0  0  0  0  0  0  0  0  0  0
   -6.1280   17.8240  -34.3060 C   0  0  0  0  0  0  0  0  0  0  0  0
   -7.6200   17.7900  -32.4160 C   0  0  0  0  0  0  0  0  0  0  0  0
   -6.7960   21.7420  -32.0580 N   0  0  0  0  0  0  0  0  0  0  0  0
   -8.2080   21.4650  -31.9660 C   0  0  0  0  0  0  0  0  0  0  0  0
   -8.7610   20.6130  -32.7110 O   0  0  0  0  0  0  0  0  0  0  0  0
   -6.2650   22.8140  -31.2560 C   0  0  0  0  0  0  0  0  0  0  0  0
   -5.5150   22.5330  -30.1010 C   0  0  0  0  0  0  0  0  0  0  0  0
   -5.0000   23.5750  -29.3230 C   0  0  0  0  0  0  0  0  0  0  0  0
   -5.2270   24.9040  -29.6930 C   0  0  0  0  0  0  0  0  0  0  0  0
   -5.9690   25.1920  -30.8420 C   0  0  0  0  0  0  0  0  0  0  0  0
   -6.4860   24.1530  -31.6220 C   0  0  0  0  0  0  0  0  0  0  0  0
   -4.1478   21.8107  -31.9650 H   0  0  0  0  0  0  0  0  0  0  0  0
   -3.7960   20.9837  -33.5204 H   0  0  0  0  0  0  0  0  0  0  0  0
   -4.5527   22.6129  -33.5204 H   0  0  0  0  0  0  0  0  0  0  0  0
   -6.2773   21.0586  -33.9943 H   0  0  0  0  0  0  0  0  0  0  0  0
   -4.8500   19.1102  -32.7875 H   0  0  0  0  0  0  0  0  0  0  0  0
   -6.1306   19.4374  -31.5177 H   0  0  0  0  0  0  0  0  0  0  0  0
   -7.4990   19.2700  -33.8530 H   0  0  0  0  0  0  0  0  0  0  0  0
   -5.5014   17.0880  -33.7810 H   0  0  0  0  0  0  0  0  0  0  0  0
   -6.8603   17.2987  -34.9367 H   0  0  0  0  0  0  0  0  0  0  0  0
   -5.4926   18.4631  -34.9367 H   0  0  0  0  0  0  0  0  0  0  0  0
   -7.3897   18.0457  -31.3712 H   0  0  0  0  0  0  0  0  0  0  0  0
   -8.6937   17.9400  -32.6020 H   0  0  0  0  0  0  0  0  0  0  0  0
   -7.3592   16.7377  -32.6020 H   0  0  0  0  0  0  0  0  0  0  0  0
   -8.8159   22.0099  -31.2287 H   0  0  0  0  0  0  0  0  0  0  0  0
   -5.3322   21.4887  -29.8076 H   0  0  0  0  0  0  0  0  0  0  0  0
   -4.4157   23.3486  -28.4189 H   0  0  0  0  0  0  0  0  0  0  0  0
   -4.8218   25.7227  -29.0801 H   0  0  0  0  0  0  0  0  0  0  0  0
   -6.1465   26.2378  -31.1331 H   0  0  0  0  0  0  0  0  0  0  0  0
   -7.0683   24.3846  -32.5261 H   0  0  0  0  0  0  0  0  0  0  0  0
  1  2  1  0
  2  3  1  0
  3  4  1  0
  4  5  1  0
  4  6  1  0
  2  7  1  0
  7  8  1  0
  8  9  2  0
  7 10  1  0
 10 11  2  0
 11 12  1  0
 12 13  2  0
 13 14  1  0
 14 15  2  0
 15 10  1  0
  1 16  1  0
  1 17  1  0
  1 18  1  0
  2 19  1  6
  3 20  1  0
  3 21  1  0
  4 22  1  0
  5 23  1  0
  5 24  1  0
  5 25  1  0
  6 26  1  0
  6 27  1  0
  6 28  1  0
  8 29  1  0
 11 30  1  0
 12 31  1  0
 13 32  1  0
 14 33  1  0
 15 34  1  0
M  CHG  1   4   1
M  END
>  <UniqueID>  (6) 
6

>  <SMILES>  (6) 
C[C@@H](C[NH+](C)C)N(C=O)c1ccccc1

>  <Energy>  (6) 
37.79941479318059

>  <Genealogy>  (6) 
CC(C[NH+](C)C)N(C=O)c1ccccc1 (protonated)
C[C@@H](C[NH+](C)C)N(C=O)c1ccccc1 (chirality)
C[C@@H](C[NH+](C)C)N(C=O)c1ccccc1 (3D coordinates assigned)
C[C@@H](C[NH+](C)C)N(C=O)c1ccccc1 (optimized conformer: 37.79941479318059 kcal/mol)

>  <smiles>  (6) 
CC(CN(C)C)N(C=O)c1ccccc1

>  <score_type>  (6) 
oracle

>  <origin>  (6) 
adg

>  <m_score__min__energy>  (6) 
-4.7800000000000002

>  <m_primary>  (6) 
energy

$$$$
6:0
     RDKit          3D

 55 56  0  0  0  0  0  0  0  0999 V2000
    0.0130   24.4040  -28.9530 N   0  0  0  0  0  0  0  0  0  0  0  0
   -0.1110   22.9920  -28.5950 C   0  0  0  0  0  0  0  0  0  0  0  0
   -1.2180   22.7800  -27.5520 C   0  0  0  0  0  0  0  0  0  0  0  0
   -2.2770   21.7300  -27.9370 C   0  0  0  0  0  0  0  0  0  0  0  0
   -3.4180   22.2290  -28.8460 C   0  0  0  0  0  0  0  0  0  0  0  0
   -2.9480   23.0320  -30.0850 C   0  0  1  0  0  0  0  0  0  0  0  0
   -3.6320   22.5760  -31.2990 N   0  0  0  0  0  0  0  0  0  0  0  0
   -3.4830   21.2380  -31.7950 C   0  0  0  0  0  0  0  0  0  0  0  0
   -2.8360   20.3810  -31.1330 O   0  0  0  0  0  0  0  0  0  0  0  0
   -4.0480   20.8570  -33.1300 C   0  0  0  0  0  0  0  0  0  0  0  0
   -5.0070   19.7100  -32.9700 C   0  0  0  0  0  0  0  0  0  0  0  0
   -5.6200   19.4630  -31.7300 C   0  0  0  0  0  0  0  0  0  0  0  0
   -6.5350   18.4150  -31.5940 C   0  0  0  0  0  0  0  0  0  0  0  0
   -6.8580   17.6180  -32.6950 C   0  0  0  0  0  0  0  0  0  0  0  0
   -6.2640   17.8670  -33.9360 C   0  0  0  0  0  0  0  0  0  0  0  0
   -5.3440   18.9110  -34.0750 C   0  0  0  0  0  0  0  0  0  0  0  0
   -3.1160   24.5320  -29.9390 C   0  0  0  0  0  0  0  0  0  0  0  0
   -2.4630   25.1200  -29.0350 O   0  0  0  0  0  0  0  0  0  0  0  0
   -3.9060   25.3370  -30.8290 N   0  0  0  0  0  0  0  0  0  0  0  0
   -5.3150   25.6890  -30.6940 C   0  0  0  0  0  0  0  0  0  0  0  0
   -5.9960   24.7110  -29.7400 C   0  0  0  0  0  0  0  0  0  0  0  0
   -6.6850   23.6120  -30.5070 C   0  0  0  0  0  0  0  0  0  0  0  0
   -7.4900   22.6750  -29.8380 C   0  0  0  0  0  0  0  0  0  0  0  0
   -8.1540   21.6750  -30.5560 C   0  0  0  0  0  0  0  0  0  0  0  0
   -8.0300   21.6130  -31.9460 C   0  0  0  0  0  0  0  0  0  0  0  0
   -7.2440   22.5510  -32.6210 C   0  0  0  0  0  0  0  0  0  0  0  0
   -6.5770   23.5500  -31.9070 C   0  0  0  0  0  0  0  0  0  0  0  0
   -0.4720   24.9710  -28.2220 H   0  0  0  0  0  0  0  0  0  0  0  0
   -0.5230   24.5560  -29.8380 H   0  0  0  0  0  0  0  0  0  0  0  0
   -0.3529   22.4125  -29.4982 H   0  0  0  0  0  0  0  0  0  0  0  0
    0.8436   22.6563  -28.1637 H   0  0  0  0  0  0  0  0  0  0  0  0
   -0.7452   22.4601  -26.6117 H   0  0  0  0  0  0  0  0  0  0  0  0
   -1.7501   23.7389  -27.4666 H   0  0  0  0  0  0  0  0  0  0  0  0
   -1.7639   20.9092  -28.4594 H   0  0  0  0  0  0  0  0  0  0  0  0
   -2.7565   21.4298  -26.9936 H   0  0  0  0  0  0  0  0  0  0  0  0
   -3.9843   21.3542  -29.1981 H   0  0  0  0  0  0  0  0  0  0  0  0
   -4.0237   22.9174  -28.2384 H   0  0  0  0  0  0  0  0  0  0  0  0
   -1.8688   22.8360  -30.1682 H   0  0  0  0  0  0  0  0  0  0  0  0
   -4.2560   23.2320  -31.8230 H   0  0  0  0  0  0  0  0  0  0  0  0
   -4.5785   21.7188  -33.5612 H   0  0  0  0  0  0  0  0  0  0  0  0
   -3.2281   20.5538  -33.7977 H   0  0  0  0  0  0  0  0  0  0  0  0
   -5.3791   20.0964  -30.8635 H   0  0  0  0  0  0  0  0  0  0  0  0
   -7.0018   18.2174  -30.6178 H   0  0  0  0  0  0  0  0  0  0  0  0
   -7.5794   16.7948  -32.5856 H   0  0  0  0  0  0  0  0  0  0  0  0
   -6.5205   17.2413  -34.8036 H   0  0  0  0  0  0  0  0  0  0  0  0
   -4.8823   19.1073  -35.0539 H   0  0  0  0  0  0  0  0  0  0  0  0
   -5.4009   26.7103  -30.2946 H   0  0  0  0  0  0  0  0  0  0  0  0
   -5.8012   25.6378  -31.6794 H   0  0  0  0  0  0  0  0  0  0  0  0
   -5.2392   24.2682  -29.0758 H   0  0  0  0  0  0  0  0  0  0  0  0
   -6.7480   25.2567  -29.1511 H   0  0  0  0  0  0  0  0  0  0  0  0
   -7.5986   22.7280  -28.7447 H   0  0  0  0  0  0  0  0  0  0  0  0
   -8.7741   20.9371  -30.0259 H   0  0  0  0  0  0  0  0  0  0  0  0
   -8.5514   20.8253  -32.5097 H   0  0  0  0  0  0  0  0  0  0  0  0
   -7.1503   22.5028  -33.7159 H   0  0  0  0  0  0  0  0  0  0  0  0
   -5.9651   24.2907  -32.4427 H   0  0  0  0  0  0  0  0  0  0  0  0
  1  2  1  0
  2  3  1  0
  3  4  1  0
  4  5  1  0
  5  6  1  0
  6  7  1  0
  7  8  1  0
  8  9  2  0
  8 10  1  0
 10 11  1  0
 11 12  2  0
 12 13  1  0
 13 14  2  0
 14 15  1  0
 15 16  2  0
  6 17  1  0
 17 18  2  0
 17 19  1  0
 19 20  1  0
 20 21  1  0
 21 22  1  0
 22 23  2  0
 23 24  1  0
 24 25  2  0
 25 26  1  0
 26 27  2  0
 16 11  1  0
 27 22  1  0
  1 28  1  0
  1 29  1  0
  2 30  1  0
  2 31  1  0
  3 32  1  0
  3 33  1  0
  4 34  1  0
  4 35  1  0
  5 36  1  0
  5 37  1  0
  6 38  1  6
  7 39  1  0
 10 40  1  0
 10 41  1  0
 12 42  1  0
 13 43  1  0
 14 44  1  0
 15 45  1  0
 16 46  1  0
 20 47  1  0
 20 48  1  0
 21 49  1  0
 21 50  1  0
 23 51  1  0
 24 52  1  0
 25 53  1  0
 26 54  1  0
 27 55  1  0
M  CHG  1  19  -1
M  END
>  <UniqueID>  (7) 
7

>  <SMILES>  (7) 
NCCCC[C@@H](NC(=O)Cc1ccccc1)C(=O)[N-]CCc1ccccc1

>  <Energy>  (7) 
41.5769129680237

>  <Genealogy>  (7) 
NCCCCC(NC(=O)Cc1ccccc1)C(=O)[N-]CCc1ccccc1 (protonated)
NCCCC[C@@H](NC(=O)Cc1ccccc1)C(=O)[N-]CCc1ccccc1 (chirality)
NCCCC[C@@H](NC(=O)Cc1ccccc1)C(=O)[N-]CCc1ccccc1 (3D coordinates assigned)
NCCCC[C@@H](NC(=O)Cc1ccccc1)C(=O)[N-]CCc1ccccc1 (optimized conformer: 41.5769129680237 kcal/mol)

>  <smiles>  (7) 
NCCCCC(NC(=O)Cc1ccccc1)C(=O)NCCc1ccccc1

>  <score_type>  (7) 
oracle

>  <origin>  (7) 
adg

>  <m_score__min__energy>  (7) 
-10.42

>  <m_primary>  (7) 
energy

$$$$
7:0
     RDKit          3D

 43 45  0  0  0  0  0  0  0  0999 V2000
   -6.7901   23.7402  -29.7900 H   0  0  0  0  0  0  0  0  0  0  0  0
   -5.8870   23.5170  -30.3770 C   0  0  0  0  0  0  0  0  0  0  0  0
   -6.0150   23.3140  -31.6930 C   0  0  0  0  0  0  0  0  0  0  0  0
   -5.2239   23.6707  -32.3690 H   0  0  0  0  0  0  0  0  0  0  0  0
   -7.2150   22.6090  -32.2750 C   0  0  0  0  0  0  0  0  0  0  0  0
   -7.3690   22.9728  -33.3016 H   0  0  0  0  0  0  0  0  0  0  0  0
   -8.0711   22.8325  -31.6215 H   0  0  0  0  0  0  0  0  0  0  0  0
   -7.0700   21.1380  -32.3160 N   0  0  0  0  0  0  0  0  0  0  0  0
   -8.1610   20.4230  -31.6370 C   0  0  0  0  0  0  0  0  0  0  0  0
   -9.1256   20.8573  -31.9386 H   0  0  0  0  0  0  0  0  0  0  0  0
   -8.0357   20.5186  -30.5483 H   0  0  0  0  0  0  0  0  0  0  0  0
   -8.1280   18.9320  -32.0240 C   0  0  0  0  0  0  0  0  0  0  0  0
   -8.7627   18.7878  -32.9107 H   0  0  0  0  0  0  0  0  0  0  0  0
   -8.4914   18.3629  -31.1556 H   0  0  0  0  0  0  0  0  0  0  0  0
   -6.7650   18.4340  -32.3350 N   0  0  0  0  0  0  0  0  0  0  0  0
   -6.4940   18.4130  -33.7820 C   0  0  0  0  0  0  0  0  0  0  0  0
   -5.4103   18.3290  -33.9509 H   0  0  0  0  0  0  0  0  0  0  0  0
   -7.0040   17.5517  -34.2381 H   0  0  0  0  0  0  0  0  0  0  0  0
   -6.8652   19.3426  -34.2381 H   0  0  0  0  0  0  0  0  0  0  0  0
   -5.7160   19.1580  -31.5880 C   0  0  0  0  0  0  0  0  0  0  0  0
   -4.7338   18.7656  -31.8901 H   0  0  0  0  0  0  0  0  0  0  0  0
   -5.9027   19.0018  -30.5153 H   0  0  0  0  0  0  0  0  0  0  0  0
   -5.7430   20.6800  -31.8510 C   0  0  0  0  0  0  0  0  0  0  0  0
   -4.9945   20.9209  -32.6202 H   0  0  0  0  0  0  0  0  0  0  0  0
   -5.5191   21.1927  -30.9039 H   0  0  0  0  0  0  0  0  0  0  0  0
   -4.5860   23.4550  -29.6750 C   0  0  0  0  0  0  0  0  0  0  0  0
   -4.2700   22.2790  -28.9530 C   0  0  0  0  0  0  0  0  0  0  0  0
   -4.9924   21.4499  -28.9258 H   0  0  0  0  0  0  0  0  0  0  0  0
   -3.0470   22.1540  -28.2700 C   0  0  0  0  0  0  0  0  0  0  0  0
   -2.7610   20.9960  -27.5580 O   0  0  0  0  0  0  0  0  0  0  0  0
   -2.1440   23.2220  -28.3320 C   0  0  0  0  0  0  0  0  0  0  0  0
   -2.4360   24.3570  -29.0510 C   0  0  0  0  0  0  0  0  0  0  0  0
   -1.3570   25.2120  -28.9470 C   0  0  0  0  0  0  0  0  0  0  0  0
   -1.2439   26.2087  -29.3985 H   0  0  0  0  0  0  0  0  0  0  0  0
   -0.4480   24.5370  -28.1480 C   0  0  0  0  0  0  0  0  0  0  0  0
    0.7980   25.0340  -27.7820 O   0  0  0  0  0  0  0  0  0  0  0  0
   -0.9200   23.3250  -27.7690 N   0  0  0  0  0  0  0  0  0  0  0  0
   -0.2290   22.3420  -26.9370 C   0  0  0  0  0  0  0  0  0  0  0  0
   -0.3952   22.5784  -25.8756 H   0  0  0  0  0  0  0  0  0  0  0  0
   -0.6206   21.3374  -27.1546 H   0  0  0  0  0  0  0  0  0  0  0  0
    0.8489   22.3704  -27.1546 H   0  0  0  0  0  0  0  0  0  0  0  0
   -3.6360   24.5070  -29.7440 C   0  0  0  0  0  0  0  0  0  0  0  0
   -3.8610   25.6500  -30.5060 O   0  0  0  0  0  0  0  0  0  0  0  0
  1  2  1  0
  2  3  2  0
  3  4  1  0
  3  5  1  0
  5  6  1  0
  5  7  1  0
  5  8  1  0
  8  9  1  0
  9 10  1  0
  9 11  1  0
  9 12  1  0
 12 13  1  0
 12 14  1  0
 12 15  1  0
 15 16  1  0
 16 17  1  0
 16 18  1  0
 16 19  1  0
 15 20  1  0
 20 21  1  0
 20 22  1  0
 20 23  1  0
 23 24  1  0
 23 25  1  0
  2 26  1  0
 26 27  2  0
 27 28  1  0
 27 29  1  0
 29 30  1  0
 29 31  2  0
 31 32  1  0
 32 33  1  0
 33 34  1  0
 33 35  2  0
 35 36  1  0
 35 37  1  0
 37 38  1  0
 38 39  1  0
 38 40  1  0
 38 41  1  0
 32 42  2  0
 42 43  1  0
 23  8  1  0
 42 26  1  0
 37 31  1  0
M  CHG  3  30  -1  36  -1  43  -1
M  END
>  <UniqueID>  (8) 
8

>  <SMILES>  (8) 
CN1CCN(C/C=C/c2cc([O-])c3c(cc([O-])n3C)c2[O-])CC1

>  <Energy>  (8) 
95.16126335757176

>  <Genealogy>  (8) 
CN1CCN(CC=Cc2cc([O-])c3c(cc([O-])n3C)c2[O-])CC1 (protonated)
CN1CCN(C/C=C/c2cc([O-])c3c(cc([O-])n3C)c2[O-])CC1 (cis-trans isomerization)
CN1CCN(C/C=C/c2cc([O-])c3c(cc([O-])n3C)c2[O-])CC1 (3D coordinates assigned)
CN1CCN(C/C=C/c2cc([O-])c3c(cc([O-])n3C)c2[O-])CC1 (nonaromatic ring conformer: 95.16126335757176 kcal/mol)

>  <smiles>  (8) 
CN1CCN(CC=Cc2cc(O)c3c(cc(O)n3C)c2O)CC1

>  <score_type>  (8) 
oracle

>  <origin>  (8) 
adg

>  <m_score__min__energy>  (8) 
-11.460000000000001

>  <m_primary>  (8) 
energy

$$$$
8:0
     RDKit          3D

 43 45  0  0  0  0  0  0  0  0999 V2000
   -8.7260   19.0240  -32.6790 C   0  0  0  0  0  0  0  0  0  0  0  0
   -8.2300   20.2750  -33.1460 O   0  0  0  0  0  0  0  0  0  0  0  0
   -7.4010   21.1300  -32.4030 C   0  0  0  0  0  0  0  0  0  0  0  0
   -6.0050   21.1570  -32.5870 C   0  0  0  0  0  0  0  0  0  0  0  0
   -5.2070   22.0170  -31.8300 C   0  0  0  0  0  0  0  0  0  0  0  0
   -5.7870   22.8650  -30.8820 C   0  0  0  0  0  0  0  0  0  0  0  0
   -4.7640   23.9240  -29.9130 S   0  0  0  0  0  0  0  0  0  0  0  0
   -3.9550   24.7840  -30.8440 O   0  0  0  0  0  0  0  0  0  0  0  0
   -5.6210   24.8240  -29.0650 O   0  0  0  0  0  0  0  0  0  0  0  0
   -3.6810   22.9870  -28.9060 N   0  0  0  0  0  0  0  0  0  0  0  0
   -3.8460   23.2990  -27.4710 C   0  0  0  0  0  0  0  0  0  0  0  0
   -3.1800   24.6260  -27.0660 C   0  0  0  0  0  0  0  0  0  0  0  0
   -1.7540   24.8110  -27.6520 C   0  0  0  0  0  0  0  0  0  0  0  0
   -1.2690   23.5280  -28.3460 C   0  0  0  0  0  0  0  0  0  0  0  0
   -2.2820   23.0500  -29.4000 C   0  0  0  0  0  0  0  0  0  0  0  0
   -1.7790   25.8560  -28.6060 O   0  0  0  0  0  0  0  0  0  0  0  0
   -0.8560   26.8020  -28.1710 C   0  0  0  0  0  0  0  0  0  0  0  0
   -0.5320   26.4530  -26.7530 C   0  0  0  0  0  0  0  0  0  0  0  0
   -0.8580   25.1110  -26.6010 O   0  0  0  0  0  0  0  0  0  0  0  0
   -7.1740   22.8420  -30.6880 C   0  0  0  0  0  0  0  0  0  0  0  0
   -7.9850   21.9820  -31.4460 C   0  0  0  0  0  0  0  0  0  0  0  0
   -9.4720   21.9600  -31.2240 C   0  0  0  0  0  0  0  0  0  0  0  0
   -8.7284   19.0181  -31.5790 H   0  0  0  0  0  0  0  0  0  0  0  0
   -9.7512   18.8750  -33.0487 H   0  0  0  0  0  0  0  0  0  0  0  0
   -8.0814   18.2129  -33.0487 H   0  0  0  0  0  0  0  0  0  0  0  0
   -5.5398   20.4956  -33.3327 H   0  0  0  0  0  0  0  0  0  0  0  0
   -4.1174   22.0273  -31.9802 H   0  0  0  0  0  0  0  0  0  0  0  0
   -4.9211   23.3632  -27.2472 H   0  0  0  0  0  0  0  0  0  0  0  0
   -3.3562   22.4963  -26.9003 H   0  0  0  0  0  0  0  0  0  0  0  0
   -3.8115   25.4541  -27.4201 H   0  0  0  0  0  0  0  0  0  0  0  0
   -3.0793   24.6149  -25.9707 H   0  0  0  0  0  0  0  0  0  0  0  0
   -0.3060   23.7283  -28.8385 H   0  0  0  0  0  0  0  0  0  0  0  0
   -1.1589   22.7406  -27.5858 H   0  0  0  0  0  0  0  0  0  0  0  0
   -2.2470   23.7434  -30.2532 H   0  0  0  0  0  0  0  0  0  0  0  0
   -1.9949   22.0247  -29.6764 H   0  0  0  0  0  0  0  0  0  0  0  0
    0.0522   26.7606  -28.7903 H   0  0  0  0  0  0  0  0  0  0  0  0
   -1.2622   27.8213  -28.2486 H   0  0  0  0  0  0  0  0  0  0  0  0
    0.5389   26.6101  -26.5566 H   0  0  0  0  0  0  0  0  0  0  0  0
   -1.0910   27.0843  -26.0466 H   0  0  0  0  0  0  0  0  0  0  0  0
   -7.6313   23.5024  -29.9365 H   0  0  0  0  0  0  0  0  0  0  0  0
   -9.6815   21.9569  -30.1441 H   0  0  0  0  0  0  0  0  0  0  0  0
   -9.9244   22.8515  -31.6827 H   0  0  0  0  0  0  0  0  0  0  0  0
   -9.8979   21.0555  -31.6827 H   0  0  0  0  0  0  0  0  0  0  0  0
  1  2  1  0
  2  3  1  0
  3  4  2  0
  4  5  1  0
  5  6  2  0
  6  7  1  0
  7  8  2  0
  7  9  2  0
  7 10  1  0
 10 11  1  0
 11 12  1  0
 12 13  1  0
 13 14  1  0
 14 15  1  0
 13 16  1  0
 16 17  1  0
 17 18  1  0
 18 19  1  0
  6 20  1  0
 20 21  2  0
 21 22  1  0
 21  3  1  0
 15 10  1  0
 19 13  1  0
  1 23  1  0
  1 24  1  0
  1 25  1  0
  4 26  1  0
  5 27  1  0
 11 28  1  0
 11 29  1  0
 12 30  1  0
 12 31  1  0
 14 32  1  0
 14 33  1  0
 15 34  1  0
 15 35  1  0
 17 36  1  0
 17 37  1  0
 18 38  1  0
 18 39  1  0
 20 40  1  0
 22 41  1  0
 22 42  1  0
 22 43  1  0
M  END
>  <UniqueID>  (9) 
9

>  <SMILES>  (9) 
COc1ccc(S(=O)(=O)N2CCC3(CC2)OCCO3)cc1C

>  <Energy>  (9) 
47.50960388830207

>  <Genealogy>  (9) 
COc1ccc(S(=O)(=O)N2CCC3(CC2)OCCO3)cc1C (3D coordinates assigned)
COc1ccc(S(=O)(=O)N2CCC3(CC2)OCCO3)cc1C (nonaromatic ring conformer: 47.50960388830207 kcal/mol)

>  <smiles>  (9) 
COc1ccc(S(=O)(=O)N2CCC3(CC2)OCCO3)cc1C

>  <score_type>  (9) 
oracle

>  <origin>  (9) 
adg

>  <m_score__min__energy>  (9) 
-8.2300000000000004

>  <m_primary>  (9) 
energy

$$$$
9:0
     RDKit          3D

 63 67  0  0  0  0  0  0  0  0999 V2000
   -5.3520   25.7880  -30.4690 C   0  0  0  0  0  0  0  0  0  0  0  0
   -4.0310   25.2580  -30.4670 O   0  0  0  0  0  0  0  0  0  0  0  0
   -3.7200   23.9060  -30.2670 C   0  0  0  0  0  0  0  0  0  0  0  0
   -3.7810   23.3970  -28.9650 C   0  0  0  0  0  0  0  0  0  0  0  0
   -3.4950   22.0530  -28.7160 C   0  0  0  0  0  0  0  0  0  0  0  0
   -3.1320   21.2060  -29.7660 C   0  0  0  0  0  0  0  0  0  0  0  0
   -3.0400   21.7040  -31.0760 C   0  0  0  0  0  0  0  0  0  0  0  0
   -2.6710   20.8150  -32.2000 C   0  0  0  0  0  0  0  0  0  0  0  0
   -1.3950   20.6980  -32.6320 N   0  0  0  0  0  0  0  0  0  0  0  0
   -1.4780   19.8660  -33.6910 C   0  0  0  0  0  0  0  0  0  0  0  0
   -0.3190   19.4660  -34.5070 C   0  0  0  0  0  0  0  0  0  0  0  0
   -0.0480   18.2410  -34.6260 O   0  0  0  0  0  0  0  0  0  0  0  0
    0.5150   20.4420  -35.1520 N   0  0  0  0  0  0  0  0  0  0  0  0
    1.9750   20.3140  -35.0510 C   0  0  0  0  0  0  0  0  0  0  0  0
    2.7020   21.2920  -35.9830 C   0  0  0  0  0  0  0  0  0  0  0  0
    2.1000   22.6330  -35.9110 N   0  0  0  0  0  0  0  0  0  0  0  0
    2.9250   23.8080  -36.0620 C   0  0  0  0  0  0  0  0  0  0  0  0
    4.1920   23.7170  -36.6660 C   0  0  0  0  0  0  0  0  0  0  0  0
    4.9930   24.8520  -36.8070 C   0  0  0  0  0  0  0  0  0  0  0  0
    4.5430   26.0910  -36.3490 C   0  0  0  0  0  0  0  0  0  0  0  0
    3.2880   26.2080  -35.7410 C   0  0  0  0  0  0  0  0  0  0  0  0
    2.8840   27.4750  -35.2930 O   0  0  0  0  0  0  0  0  0  0  0  0
    1.5810   28.0190  -35.4870 C   0  0  0  0  0  0  0  0  0  0  0  0
    2.4820   25.0620  -35.5980 C   0  0  0  0  0  0  0  0  0  0  0  0
    0.6360   22.7840  -35.8690 C   0  0  0  0  0  0  0  0  0  0  0  0
   -0.0720   21.4410  -36.0530 C   0  0  0  0  0  0  0  0  0  0  0  0
   -2.7900   19.5020  -33.8970 C   0  0  0  0  0  0  0  0  0  0  0  0
   -3.5400   20.0900  -32.9490 N   0  0  0  0  0  0  0  0  0  0  0  0
   -4.9470   19.8690  -32.7470 C   0  0  0  0  0  0  0  0  0  0  0  0
   -5.8410   20.9520  -32.6840 C   0  0  0  0  0  0  0  0  0  0  0  0
   -7.2050   20.7280  -32.4710 C   0  0  0  0  0  0  0  0  0  0  0  0
   -7.6840   19.4260  -32.3090 C   0  0  0  0  0  0  0  0  0  0  0  0
   -6.8000   18.3440  -32.3520 C   0  0  0  0  0  0  0  0  0  0  0  0
   -5.4360   18.5630  -32.5640 C   0  0  0  0  0  0  0  0  0  0  0  0
   -3.3520   23.0500  -31.3250 C   0  0  0  0  0  0  0  0  0  0  0  0
   -5.6936   25.9251  -29.4324 H   0  0  0  0  0  0  0  0  0  0  0  0
   -5.3572   26.7578  -30.9881 H   0  0  0  0  0  0  0  0  0  0  0  0
   -6.0261   25.0907  -30.9881 H   0  0  0  0  0  0  0  0  0  0  0  0
   -4.0562   24.0602  -28.1317 H   0  0  0  0  0  0  0  0  0  0  0  0
   -3.5557   21.6602  -27.6903 H   0  0  0  0  0  0  0  0  0  0  0  0
   -2.9176   20.1458  -29.5661 H   0  0  0  0  0  0  0  0  0  0  0  0
    2.2788   20.5190  -34.0139 H   0  0  0  0  0  0  0  0  0  0  0  0
    2.2486   19.2915  -35.3503 H   0  0  0  0  0  0  0  0  0  0  0  0
    3.7589   21.3553  -35.6847 H   0  0  0  0  0  0  0  0  0  0  0  0
    2.6153   20.9232  -37.0157 H   0  0  0  0  0  0  0  0  0  0  0  0
    4.5546   22.7444  -37.0300 H   0  0  0  0  0  0  0  0  0  0  0  0
    5.9823   24.7692  -37.2808 H   0  0  0  0  0  0  0  0  0  0  0  0
    5.1786   26.9810  -36.4666 H   0  0  0  0  0  0  0  0  0  0  0  0
    1.1155   28.2133  -34.5095 H   0  0  0  0  0  0  0  0  0  0  0  0
    1.6569   28.9606  -36.0506 H   0  0  0  0  0  0  0  0  0  0  0  0
    0.9649   27.3029  -36.0506 H   0  0  0  0  0  0  0  0  0  0  0  0
    1.4956   25.1471  -35.1187 H   0  0  0  0  0  0  0  0  0  0  0  0
    0.3484   23.2092  -34.8961 H   0  0  0  0  0  0  0  0  0  0  0  0
    0.3341   23.4487  -36.6918 H   0  0  0  0  0  0  0  0  0  0  0  0
   -1.1413   21.5572  -35.8224 H   0  0  0  0  0  0  0  0  0  0  0  0
    0.0484   21.1065  -37.0940 H   0  0  0  0  0  0  0  0  0  0  0  0
   -3.1598   18.8447  -34.6977 H   0  0  0  0  0  0  0  0  0  0  0  0
   -5.4664   21.9794  -32.8027 H   0  0  0  0  0  0  0  0  0  0  0  0
   -7.9016   21.5784  -32.4310 H   0  0  0  0  0  0  0  0  0  0  0  0
   -8.7580   19.2519  -32.1474 H   0  0  0  0  0  0  0  0  0  0  0  0
   -7.1781   17.3196  -32.2189 H   0  0  0  0  0  0  0  0  0  0  0  0
   -4.7418   17.7101  -32.5878 H   0  0  0  0  0  0  0  0  0  0  0  0
   -3.3090   23.4394  -32.3529 H   0  0  0  0  0  0  0  0  0  0  0  0
  1  2  1  0
  2  3  1  0
  3  4  2  0
  4  5  1  0
  5  6  2  0
  6  7  1  0
  7  8  1  0
  8  9  2  0
  9 10  1  0
 10 11  1  0
 11 12  2  0
 11 13  1  0
 13 14  1  0
 14 15  1  0
 15 16  1  0
 16 17  1  0
 17 18  2  0
 18 19  1  0
 19 20  2  0
 20 21  1  0
 21 22  1  0
 22 23  1  0
 21 24  2  0
 16 25  1  0
 25 26  1  0
 10 27  2  0
 27 28  1  0
 28 29  1  0
 29 30  2  0
 30 31  1  0
 31 32  2  0
 32 33  1  0
 33 34  2  0
  7 35  2  0
 35  3  1  0
 28  8  1  0
 34 29  1  0
 26 13  1  0
 24 17  1  0
  1 36  1  0
  1 37  1  0
  1 38  1  0
  4 39  1  0
  5 40  1  0
  6 41  1  0
 14 42  1  0
 14 43  1  0
 15 44  1  0
 15 45  1  0
 18 46  1  0
 19 47  1  0
 20 48  1  0
 23 49  1  0
 23 50  1  0
 23 51  1  0
 24 52  1  0
 25 53  1  0
 25 54  1  0
 26 55  1  0
 26 56  1  0
 27 57  1  0
 30 58  1  0
 31 59  1  0
 32 60  1  0
 33 61  1  0
 34 62  1  0
 35 63  1  0
M  END
>  <UniqueID>  (10) 
10

>  <SMILES>  (10) 
COc1cccc(-c2nc(C(=O)N3CCN(c4cccc(OC)c4)CC3)cn2-c2ccccc2)c1

>  <Energy>  (10) 
112.06743012804458

>  <Genealogy>  (10) 
COc1cccc(-c2nc(C(=O)N3CCN(c4cccc(OC)c4)CC3)cn2-c2ccccc2)c1 (3D coordinates assigned)
COc1cccc(-c2nc(C(=O)N3CCN(c4cccc(OC)c4)CC3)cn2-c2ccccc2)c1 (nonaromatic ring conformer: 112.06743012804458 kcal/mol)

>  <smiles>  (10) 
COc1cccc(-c2nc(C(=O)N3CCN(c4cccc(OC)c4)CC3)cn2-c2ccccc2)c1

>  <score_type>  (10) 
oracle

>  <origin>  (10) 
adg

>  <m_score__min__energy>  (10) 
-9.1899999999999995

>  <m_primary>  (10) 
energy

$$$$
10:0
     RDKit          3D

 45 47  0  0  0  0  0  0  0  0999 V2000
   -1.1930   25.9880  -27.7310 C   0  0  0  0  0  0  0  0  0  0  0  0
   -1.9070   25.6780  -28.9230 O   0  0  0  0  0  0  0  0  0  0  0  0
   -2.1490   24.3760  -29.3880 C   0  0  0  0  0  0  0  0  0  0  0  0
   -1.3600   23.2820  -28.9880 C   0  0  0  0  0  0  0  0  0  0  0  0
   -1.6300   22.0030  -29.4720 C   0  0  0  0  0  0  0  0  0  0  0  0
   -2.6890   21.7840  -30.3690 C   0  0  0  0  0  0  0  0  0  0  0  0
   -2.9850   20.3940  -30.9170 C   0  0  2  0  0  0  0  0  0  0  0  0
   -2.1800   20.0850  -32.1770 C   0  0  0  0  0  0  0  0  0  0  0  0
   -3.1750   20.1750  -33.3190 C   0  0  0  0  0  0  0  0  0  0  0  0
   -4.4940   19.8950  -32.7480 N   0  0  0  0  0  0  0  0  0  0  0  0
   -5.6480   20.4380  -33.5040 C   0  0  0  0  0  0  0  0  0  0  0  0
   -6.7970   20.9370  -32.6460 C   0  0  0  0  0  0  0  0  0  0  0  0
   -6.8410   22.2780  -32.2230 C   0  0  0  0  0  0  0  0  0  0  0  0
   -7.8940   22.7350  -31.4240 C   0  0  0  0  0  0  0  0  0  0  0  0
   -8.9260   21.8650  -31.0620 C   0  0  0  0  0  0  0  0  0  0  0  0
   -8.9150   20.5430  -31.5120 C   0  0  0  0  0  0  0  0  0  0  0  0
   -7.8640   20.0830  -32.3110 C   0  0  0  0  0  0  0  0  0  0  0  0
   -4.4570   20.2250  -31.3170 C   0  0  0  0  0  0  0  0  0  0  0  0
   -3.4790   22.8770  -30.7660 C   0  0  0  0  0  0  0  0  0  0  0  0
   -3.2130   24.1720  -30.2790 C   0  0  0  0  0  0  0  0  0  0  0  0
   -3.9850   25.2820  -30.6580 O   0  0  0  0  0  0  0  0  0  0  0  0
   -5.3940   25.3850  -30.4830 C   0  0  0  0  0  0  0  0  0  0  0  0
   -1.8056   25.7220  -26.8570 H   0  0  0  0  0  0  0  0  0  0  0  0
   -0.2532   25.4169  -27.7075 H   0  0  0  0  0  0  0  0  0  0  0  0
   -0.9685   27.0646  -27.7075 H   0  0  0  0  0  0  0  0  0  0  0  0
   -0.5249   23.4369  -28.2890 H   0  0  0  0  0  0  0  0  0  0  0  0
   -1.0073   21.1560  -29.1482 H   0  0  0  0  0  0  0  0  0  0  0  0
   -2.7160   19.7145  -30.0948 H   0  0  0  0  0  0  0  0  0  0  0  0
   -1.3736   20.8214  -32.3094 H   0  0  0  0  0  0  0  0  0  0  0  0
   -1.7019   19.0956  -32.1262 H   0  0  0  0  0  0  0  0  0  0  0  0
   -3.1580   21.1832  -33.7586 H   0  0  0  0  0  0  0  0  0  0  0  0
   -2.9284   19.4594  -34.1172 H   0  0  0  0  0  0  0  0  0  0  0  0
   -5.2899   21.2779  -34.1174 H   0  0  0  0  0  0  0  0  0  0  0  0
   -6.0472   19.6033  -34.0989 H   0  0  0  0  0  0  0  0  0  0  0  0
   -6.0418   22.9718  -32.5227 H   0  0  0  0  0  0  0  0  0  0  0  0
   -7.9099   23.7798  -31.0803 H   0  0  0  0  0  0  0  0  0  0  0  0
   -9.7470   22.2215  -30.4226 H   0  0  0  0  0  0  0  0  0  0  0  0
   -9.7345   19.8626  -31.2374 H   0  0  0  0  0  0  0  0  0  0  0  0
   -7.8712   19.0468  -32.6801 H   0  0  0  0  0  0  0  0  0  0  0  0
   -5.0052   21.1609  -31.1337 H   0  0  0  0  0  0  0  0  0  0  0  0
   -4.9289   19.4273  -30.7245 H   0  0  0  0  0  0  0  0  0  0  0  0
   -4.3140   22.7194  -31.4645 H   0  0  0  0  0  0  0  0  0  0  0  0
   -5.6298   25.4022  -29.4087 H   0  0  0  0  0  0  0  0  0  0  0  0
   -5.7550   26.3119  -30.9525 H   0  0  0  0  0  0  0  0  0  0  0  0
   -5.8860   24.5204  -30.9525 H   0  0  0  0  0  0  0  0  0  0  0  0
  1  2  1  0
  2  3  1  0
  3  4  2  0
  4  5  1  0
  5  6  2  0
  6  7  1  0
  7  8  1  0
  8  9  1  0
  9 10  1  0
 10 11  1  0
 11 12  1  0
 12 13  2  0
 13 14  1  0
 14 15  2  0
 15 16  1  0
 16 17  2  0
 10 18  1  0
  6 19  1  0
 19 20  2  0
 20 21  1  0
 21 22  1  0
 20  3  1  0
 18  7  1  0
 17 12  1  0
  1 23  1  0
  1 24  1  0
  1 25  1  0
  4 26  1  0
  5 27  1  0
  7 28  1  1
  8 29  1  0
  8 30  1  0
  9 31  1  0
  9 32  1  0
 11 33  1  0
 11 34  1  0
 13 35  1  0
 14 36  1  0
 15 37  1  0
 16 38  1  0
 17 39  1  0
 18 40  1  0
 18 41  1  0
 19 42  1  0
 22 43  1  0
 22 44  1  0
 22 45  1  0
M  END
>  <UniqueID>  (11) 
11

>  <SMILES>  (11) 
COc1ccc([C@@H]2CCN(Cc3ccccc3)C2)cc1OC

>  <Energy>  (11) 
53.34372003916724

>  <Genealogy>  (11) 
COc1ccc([C@@H]2CCN(Cc3ccccc3)C2)cc1OC (chirality)
COc1ccc([C@@H]2CCN(Cc3ccccc3)C2)cc1OC (3D coordinates assigned)
COc1ccc([C@@H]2CCN(Cc3ccccc3)C2)cc1OC (nonaromatic ring conformer: 53.34372003916724 kcal/mol)

>  <smiles>  (11) 
COc1ccc(C2CCN(Cc3ccccc3)C2)cc1OC

>  <score_type>  (11) 
oracle

>  <origin>  (11) 
adg

>  <m_score__min__energy>  (11) 
-8.6500000000000004

>  <m_primary>  (11) 
energy

$$$$
11:0
     RDKit          3D

 23 23  0  0  0  0  0  0  0  0999 V2000
   -4.0060   24.5440  -27.0820 C   0  0  0  0  0  0  0  0  0  0  0  0
   -3.1960   23.8120  -28.1480 C   0  0  0  0  0  0  0  0  0  0  0  0
   -2.8070   24.7160  -29.3230 C   0  0  0  0  0  0  0  0  0  0  0  0
   -1.6970   25.5950  -28.9650 N   0  0  0  0  0  0  0  0  0  0  0  0
   -0.6160   25.2150  -28.1070 C   0  0  0  0  0  0  0  0  0  0  0  0
    0.3500   24.5430  -28.5630 O   0  0  0  0  0  0  0  0  0  0  0  0
   -0.6370   25.6180  -26.6890 C   0  0  0  0  0  0  0  0  0  0  0  0
   -0.0950   24.8000  -25.6840 C   0  0  0  0  0  0  0  0  0  0  0  0
   -0.1380   25.2120  -24.3880 N   0  0  0  0  0  0  0  0  0  0  0  0
   -0.6980   26.4030  -24.0480 C   0  0  0  0  0  0  0  0  0  0  0  0
   -1.2370   27.2190  -25.0430 C   0  0  0  0  0  0  0  0  0  0  0  0
   -1.1950   26.8080  -26.3370 N   0  0  0  0  0  0  0  0  0  0  0  0
   -3.6631   24.2341  -26.0838 H   0  0  0  0  0  0  0  0  0  0  0  0
   -3.8672   25.6292  -27.1969 H   0  0  0  0  0  0  0  0  0  0  0  0
   -5.0716   24.2964  -27.1969 H   0  0  0  0  0  0  0  0  0  0  0  0
   -2.2773   23.4221  -27.6854 H   0  0  0  0  0  0  0  0  0  0  0  0
   -3.8268   23.0038  -28.5465 H   0  0  0  0  0  0  0  0  0  0  0  0
   -2.5078   24.0884  -30.1754 H   0  0  0  0  0  0  0  0  0  0  0  0
   -3.6746   25.3386  -29.5870 H   0  0  0  0  0  0  0  0  0  0  0  0
    0.3610   23.8331  -25.9429 H   0  0  0  0  0  0  0  0  0  0  0  0
    0.2660   24.6020  -23.6420 H   0  0  0  0  0  0  0  0  0  0  0  0
   -0.7260   26.7213  -22.9954 H   0  0  0  0  0  0  0  0  0  0  0  0
   -1.6917   28.1861  -24.7821 H   0  0  0  0  0  0  0  0  0  0  0  0
  1  2  1  0
  2  3  1  0
  3  4  1  0
  4  5  1  0
  5  6  2  0
  5  7  1  0
  7  8  2  0
  8  9  1  0
  9 10  2  0
 10 11  1  0
 11 12  2  0
 12  7  1  0
  1 13  1  0
  1 14  1  0
  1 15  1  0
  2 16  1  0
  2 17  1  0
  3 18  1  0
  3 19  1  0
  8 20  1  0
  9 21  1  0
 10 22  1  0
 11 23  1  0
M  CHG  2   4  -1   9   1
M  END
>  <UniqueID>  (12) 
12

>  <SMILES>  (12) 
CCC[N-]C(=O)c1c[nH+]ccn1

>  <Energy>  (12) 
16.74059879757148

>  <Genealogy>  (12) 
CCC[N-]C(=O)c1c[nH+]ccn1 (protonated)
CCC[N-]C(=O)c1c[nH+]ccn1 (3D coordinates assigned)
CCC[N-]C(=O)c1c[nH+]ccn1 (optimized conformer: 16.74059879757148 kcal/mol)

>  <smiles>  (12) 
CCCNC(=O)c1cnccn1

>  <score_type>  (12) 
oracle

>  <origin>  (12) 
adg

>  <m_score__min__energy>  (12) 
-6.1200000000000001

>  <m_primary>  (12) 
energy

$$$$
12:0
     RDKit          3D

 40 42  0  0  0  0  0  0  0  0999 V2000
   -7.5610   17.6990  -32.7130 C   0  0  0  0  0  0  0  0  0  0  0  0
   -7.6480   19.1640  -32.4000 C   0  0  0  0  0  0  0  0  0  0  0  0
   -8.6880   19.6570  -31.5950 C   0  0  0  0  0  0  0  0  0  0  0  0
   -8.7870   21.0260  -31.3340 C   0  0  0  0  0  0  0  0  0  0  0  0
   -7.8500   21.9210  -31.8740 C   0  0  0  0  0  0  0  0  0  0  0  0
   -7.9830   23.3940  -31.6190 C   0  0  0  0  0  0  0  0  0  0  0  0
   -6.6560   24.0180  -31.6610 N   0  0  0  0  0  0  0  0  0  0  0  0
   -6.4140   24.8740  -30.4880 C   0  0  0  0  0  0  0  0  0  0  0  0
   -5.0680   24.5240  -29.8600 C   0  0  0  0  0  0  0  0  0  0  0  0
   -4.0780   24.3260  -30.8690 O   0  0  0  0  0  0  0  0  0  0  0  0
   -3.4400   23.0970  -31.1030 C   0  0  0  0  0  0  0  0  0  0  0  0
   -3.9030   22.1620  -32.0600 C   0  0  0  0  0  0  0  0  0  0  0  0
   -3.2010   20.9540  -32.2670 C   0  0  0  0  0  0  0  0  0  0  0  0
   -2.0760   20.6720  -31.5470 N   0  0  0  0  0  0  0  0  0  0  0  0
   -1.6410   21.5660  -30.6270 C   0  0  0  0  0  0  0  0  0  0  0  0
   -0.5670   21.4180  -29.8350 N   0  0  0  0  0  0  0  0  0  0  0  0
   -0.5280   22.5290  -29.0650 C   0  0  0  0  0  0  0  0  0  0  0  0
   -1.5830   23.3770  -29.3820 C   0  0  0  0  0  0  0  0  0  0  0  0
   -1.9460   24.8950  -28.5890 Cl  0  0  0  0  0  0  0  0  0  0  0  0
   -2.2890   22.7480  -30.3900 C   0  0  0  0  0  0  0  0  0  0  0  0
   -6.8320   21.4310  -32.7060 C   0  0  0  0  0  0  0  0  0  0  0  0
   -6.7320   20.0620  -32.9680 C   0  0  0  0  0  0  0  0  0  0  0  0
   -7.5269   17.1251  -31.7752 H   0  0  0  0  0  0  0  0  0  0  0  0
   -8.4427   17.3958  -33.2966 H   0  0  0  0  0  0  0  0  0  0  0  0
   -6.6496   17.5022  -33.2966 H   0  0  0  0  0  0  0  0  0  0  0  0
   -9.4271   18.9629  -31.1685 H   0  0  0  0  0  0  0  0  0  0  0  0
   -9.6037   21.4046  -30.7018 H   0  0  0  0  0  0  0  0  0  0  0  0
   -8.6245   23.8436  -32.3912 H   0  0  0  0  0  0  0  0  0  0  0  0
   -8.4338   23.5560  -30.6288 H   0  0  0  0  0  0  0  0  0  0  0  0
   -5.9430   23.2510  -31.6700 H   0  0  0  0  0  0  0  0  0  0  0  0
   -6.4076   25.9286  -30.8009 H   0  0  0  0  0  0  0  0  0  0  0  0
   -7.2124   24.7109  -29.7491 H   0  0  0  0  0  0  0  0  0  0  0  0
   -4.7524   25.3458  -29.2005 H   0  0  0  0  0  0  0  0  0  0  0  0
   -5.1773   23.5935  -29.2837 H   0  0  0  0  0  0  0  0  0  0  0  0
   -4.8107   22.3766  -32.6431 H   0  0  0  0  0  0  0  0  0  0  0  0
   -3.5641   20.2339  -33.0151 H   0  0  0  0  0  0  0  0  0  0  0  0
    0.0930   20.6090  -29.8080 H   0  0  0  0  0  0  0  0  0  0  0  0
    0.2316   22.7330  -28.2960 H   0  0  0  0  0  0  0  0  0  0  0  0
   -6.1088   22.1281  -33.1544 H   0  0  0  0  0  0  0  0  0  0  0  0
   -5.9315   19.6868  -33.6225 H   0  0  0  0  0  0  0  0  0  0  0  0
  1  2  1  0
  2  3  2  0
  3  4  1  0
  4  5  2  0
  5  6  1  0
  6  7  1  0
  7  8  1  0
  8  9  1  0
  9 10  1  0
 10 11  1  0
 11 12  2  0
 12 13  1  0
 13 14  2  0
 14 15  1  0
 15 16  1  0
 16 17  1  0
 17 18  2  0
 18 19  1  0
 18 20  1  0
  5 21  1  0
 21 22  2  0
 22  2  1  0
 20 11  1  0
 20 15  2  0
  1 23  1  0
  1 24  1  0
  1 25  1  0
  3 26  1  0
  4 27  1  0
  6 28  1  0
  6 29  1  0
  7 30  1  0
  8 31  1  0
  8 32  1  0
  9 33  1  0
  9 34  1  0
 12 35  1  0
 13 36  1  0
 16 37  1  0
 17 38  1  0
 21 39  1  0
 22 40  1  0
M  END
>  <UniqueID>  (13) 
13

>  <SMILES>  (13) 
Cc1ccc(CNCCOc2ccnc3[nH]cc(Cl)c23)cc1

>  <Energy>  (13) 
72.9713103835695

>  <Genealogy>  (13) 
Cc1ccc(CNCCOc2ccnc3[nH]cc(Cl)c23)cc1 (3D coordinates assigned)
Cc1ccc(CNCCOc2ccnc3[nH]cc(Cl)c23)cc1 (optimized conformer: 72.9713103835695 kcal/mol)

>  <smiles>  (13) 
Cc1ccc(CNCCOc2ccnc3[nH]cc(Cl)c23)cc1

>  <score_type>  (13) 
oracle

>  <origin>  (13) 
adg

>  <m_score__min__energy>  (13) 
-8.3800000000000008

>  <m_primary>  (13) 
energy

$$$$
13:0
     RDKit          3D

 36 37  0  0  0  0  0  0  0  0999 V2000
   -4.2280   24.9170  -26.5160 C   0  0  0  0  0  0  0  0  0  0  0  0
   -3.3920   24.2030  -27.5750 C   0  0  0  0  0  0  0  0  0  0  0  0
   -4.1370   24.1420  -28.9200 C   0  0  0  0  0  0  0  0  0  0  0  0
   -5.4030   24.9070  -28.9040 N   0  0  0  0  0  0  0  0  0  0  0  0
   -6.3500   24.4940  -29.9640 C   0  0  1  0  0  0  0  0  0  0  0  0
   -5.7240   24.6100  -31.3570 C   0  0  0  0  0  0  0  0  0  0  0  0
   -6.4040   23.5340  -32.1890 C   0  0  0  0  0  0  0  0  0  0  0  0
   -6.9210   22.5610  -31.2360 N   0  0  0  0  0  0  0  0  0  0  0  0
   -7.5330   21.3040  -31.6220 C   0  0  0  0  0  0  0  0  0  0  0  0
   -6.7560   20.1260  -31.6740 C   0  0  0  0  0  0  0  0  0  0  0  0
   -7.3270   18.9070  -32.0490 C   0  0  0  0  0  0  0  0  0  0  0  0
   -8.6800   18.8380  -32.3760 C   0  0  0  0  0  0  0  0  0  0  0  0
   -9.4670   19.9880  -32.3260 C   0  0  0  0  0  0  0  0  0  0  0  0
   -8.9070   21.2150  -31.9520 C   0  0  0  0  0  0  0  0  0  0  0  0
   -9.7250   22.2950  -31.9000 F   0  0  0  0  0  0  0  0  0  0  0  0
   -6.7750   23.0260  -29.8620 C   0  0  0  0  0  0  0  0  0  0  0  0
   -3.8817   24.6212  -25.5147 H   0  0  0  0  0  0  0  0  0  0  0  0
   -4.1191   26.0051  -26.6351 H   0  0  0  0  0  0  0  0  0  0  0  0
   -5.2857   24.6392  -26.6351 H   0  0  0  0  0  0  0  0  0  0  0  0
   -2.4458   24.7469  -27.7127 H   0  0  0  0  0  0  0  0  0  0  0  0
   -3.2007   23.1747  -27.2345 H   0  0  0  0  0  0  0  0  0  0  0  0
   -3.4849   24.5562  -29.7031 H   0  0  0  0  0  0  0  0  0  0  0  0
   -4.3866   23.0886  -29.1153 H   0  0  0  0  0  0  0  0  0  0  0  0
   -5.2210   25.9380  -28.9480 H   0  0  0  0  0  0  0  0  0  0  0  0
   -5.8620   24.7220  -27.9810 H   0  0  0  0  0  0  0  0  0  0  0  0
   -7.2089   25.1665  -29.8227 H   0  0  0  0  0  0  0  0  0  0  0  0
   -5.9142   25.6058  -31.7839 H   0  0  0  0  0  0  0  0  0  0  0  0
   -4.6320   24.4806  -31.3297 H   0  0  0  0  0  0  0  0  0  0  0  0
   -7.2260   23.9675  -32.7775 H   0  0  0  0  0  0  0  0  0  0  0  0
   -5.7046   23.0708  -32.9005 H   0  0  0  0  0  0  0  0  0  0  0  0
   -5.6875   20.1685  -31.4160 H   0  0  0  0  0  0  0  0  0  0  0  0
   -6.7068   17.9993  -32.0862 H   0  0  0  0  0  0  0  0  0  0  0  0
   -9.1265   17.8776  -32.6731 H   0  0  0  0  0  0  0  0  0  0  0  0
  -10.5352   19.9305  -32.5822 H   0  0  0  0  0  0  0  0  0  0  0  0
   -7.7308   22.9399  -29.3244 H   0  0  0  0  0  0  0  0  0  0  0  0
   -6.0375   22.4275  -29.3071 H   0  0  0  0  0  0  0  0  0  0  0  0
  1  2  1  0
  2  3  1  0
  3  4  1  0
  4  5  1  0
  5  6  1  0
  6  7  1  0
  7  8  1  0
  8  9  1  0
  9 10  2  0
 10 11  1  0
 11 12  2  0
 12 13  1  0
 13 14  2  0
 14 15  1  0
  8 16  1  0
 16  5  1  0
 14  9  1  0
  1 17  1  0
  1 18  1  0
  1 19  1  0
  2 20  1  0
  2 21  1  0
  3 22  1  0
  3 23  1  0
  4 24  1  0
  4 25  1  0
  5 26  1  6
  6 27  1  0
  6 28  1  0
  7 29  1  0
  7 30  1  0
 10 31  1  0
 11 32  1  0
 12 33  1  0
 13 34  1  0
 16 35  1  0
 16 36  1  0
M  CHG  1   4   1
M  END
>  <UniqueID>  (14) 
14

>  <SMILES>  (14) 
CCC[NH2+][C@H]1CCN(c2ccccc2F)C1

>  <Energy>  (14) 
37.8492573318343

>  <Genealogy>  (14) 
CCC[NH2+]C1CCN(c2ccccc2F)C1 (protonated)
CCC[NH2+][C@H]1CCN(c2ccccc2F)C1 (chirality)
CCC[NH2+][C@H]1CCN(c2ccccc2F)C1 (3D coordinates assigned)
CCC[NH2+][C@H]1CCN(c2ccccc2F)C1 (nonaromatic ring conformer: 37.8492573318343 kcal/mol)

>  <smiles>  (14) 
CCCNC1CCN(c2ccccc2F)C1

>  <score_type>  (14) 
oracle

>  <origin>  (14) 
adg

>  <m_score__min__energy>  (14) 
-5.9199999999999999

>  <m_primary>  (14) 
energy

$$$$
14:0
     RDKit          3D

 41 43  0  0  0  0  0  0  0  0999 V2000
   -8.4930   19.2100  -31.8600 C   0  0  0  0  0  0  0  0  0  0  0  0
   -8.0630   20.0450  -33.0630 C   0  0  0  0  0  0  0  0  0  0  0  0
   -6.6060   19.9710  -33.2590 N   0  0  0  0  0  0  0  0  0  0  0  0
   -6.0690   19.0890  -34.3060 C   0  0  0  0  0  0  0  0  0  0  0  0
   -6.1030   17.6280  -33.8630 C   0  0  0  0  0  0  0  0  0  0  0  0
   -5.7080   20.7540  -32.4360 C   0  0  0  0  0  0  0  0  0  0  0  0
   -4.3780   20.3440  -32.2510 C   0  0  0  0  0  0  0  0  0  0  0  0
   -3.5100   21.0860  -31.4490 C   0  0  0  0  0  0  0  0  0  0  0  0
   -3.9550   22.2500  -30.8190 C   0  0  0  0  0  0  0  0  0  0  0  0
   -3.0970   22.9590  -30.0420 N   0  0  0  0  0  0  0  0  0  0  0  0
   -3.4650   24.1000  -29.4020 C   0  0  0  0  0  0  0  0  0  0  0  0
   -2.4610   24.8020  -28.5780 C   0  0  0  0  0  0  0  0  0  0  0  0
   -2.2480   24.6670  -27.2160 C   0  0  0  0  0  0  0  0  0  0  0  0
   -1.2120   25.5230  -26.9140 C   0  0  0  0  0  0  0  0  0  0  0  0
   -0.8550   26.1280  -28.1000 C   0  0  0  0  0  0  0  0  0  0  0  0
   -1.6160   25.6790  -29.0710 O   0  0  0  0  0  0  0  0  0  0  0  0
   -4.7770   24.5740  -29.5430 C   0  0  0  0  0  0  0  0  0  0  0  0
   -5.7010   23.8740  -30.3360 C   0  0  0  0  0  0  0  0  0  0  0  0
   -7.1050   24.4070  -30.4650 C   0  0  0  0  0  0  0  0  0  0  0  0
   -5.2890   22.6880  -30.9910 C   0  0  0  0  0  0  0  0  0  0  0  0
   -6.1550   21.9300  -31.8060 C   0  0  0  0  0  0  0  0  0  0  0  0
   -8.2220   19.7362  -30.9328 H   0  0  0  0  0  0  0  0  0  0  0  0
   -9.5819   19.0572  -31.8901 H   0  0  0  0  0  0  0  0  0  0  0  0
   -7.9849   18.2348  -31.8901 H   0  0  0  0  0  0  0  0  0  0  0  0
   -8.5675   19.6655  -33.9638 H   0  0  0  0  0  0  0  0  0  0  0  0
   -8.3406   21.0937  -32.8807 H   0  0  0  0  0  0  0  0  0  0  0  0
   -6.6746   19.2026  -35.2172 H   0  0  0  0  0  0  0  0  0  0  0  0
   -5.0237   19.3717  -34.4996 H   0  0  0  0  0  0  0  0  0  0  0  0
   -6.1042   17.5780  -32.7641 H   0  0  0  0  0  0  0  0  0  0  0  0
   -7.0126   17.1477  -34.2529 H   0  0  0  0  0  0  0  0  0  0  0  0
   -5.2168   17.1059  -34.2529 H   0  0  0  0  0  0  0  0  0  0  0  0
   -4.0167   19.4289  -32.7431 H   0  0  0  0  0  0  0  0  0  0  0  0
   -2.4707   20.7525  -31.3125 H   0  0  0  0  0  0  0  0  0  0  0  0
   -2.7930   24.0122  -26.5201 H   0  0  0  0  0  0  0  0  0  0  0  0
   -0.7603   25.6902  -25.9251 H   0  0  0  0  0  0  0  0  0  0  0  0
   -0.0544   26.8735  -28.2153 H   0  0  0  0  0  0  0  0  0  0  0  0
   -5.0838   25.4977  -29.0305 H   0  0  0  0  0  0  0  0  0  0  0  0
   -7.5295   24.5682  -29.4631 H   0  0  0  0  0  0  0  0  0  0  0  0
   -7.0863   25.3606  -31.0130 H   0  0  0  0  0  0  0  0  0  0  0  0
   -7.7238   23.6812  -31.0130 H   0  0  0  0  0  0  0  0  0  0  0  0
   -7.1935   22.2625  -31.9511 H   0  0  0  0  0  0  0  0  0  0  0  0
  1  2  1  0
  2  3  1  0
  3  4  1  0
  4  5  1  0
  3  6  1  0
  6  7  2  0
  7  8  1  0
  8  9  2  0
  9 10  1  0
 10 11  2  0
 11 12  1  0
 12 13  2  0
 13 14  1  0
 14 15  2  0
 15 16  1  0
 11 17  1  0
 17 18  2  0
 18 19  1  0
 18 20  1  0
 20 21  2  0
 21  6  1  0
 20  9  1  0
 16 12  1  0
  1 22  1  0
  1 23  1  0
  1 24  1  0
  2 25  1  0
  2 26  1  0
  4 27  1  0
  4 28  1  0
  5 29  1  0
  5 30  1  0
  5 31  1  0
  7 32  1  0
  8 33  1  0
 13 34  1  0
 14 35  1  0
 15 36  1  0
 17 37  1  0
 19 38  1  0
 19 39  1  0
 19 40  1  0
 21 41  1  0
M  END
>  <UniqueID>  (15) 
15

>  <SMILES>  (15) 
CCN(CC)c1ccc2nc(-c3ccco3)cc(C)c2c1

>  <Energy>  (15) 
71.23615371554133

>  <Genealogy>  (15) 
CCN(CC)c1ccc2nc(-c3ccco3)cc(C)c2c1 (3D coordinates assigned)
CCN(CC)c1ccc2nc(-c3ccco3)cc(C)c2c1 (optimized conformer: 71.23615371554133 kcal/mol)

>  <smiles>  (15) 
CCN(CC)c1ccc2nc(-c3ccco3)cc(C)c2c1

>  <score_type>  (15) 
oracle

>  <origin>  (15) 
adg

>  <m_score__min__energy>  (15) 
-7.71

>  <m_primary>  (15) 
energy

$$$$
15:0
     RDKit          3D

 24 24  0  0  0  0  0  0  0  0999 V2000
   -3.9860   25.6750  -31.6300 H   0  0  0  0  0  0  0  0  0  0  0  0
   -4.1270   25.3950  -30.6660 O   0  0  0  0  0  0  0  0  0  0  0  0
   -5.3340   24.8860  -30.2350 N   0  0  0  0  0  0  0  0  0  0  0  0
   -5.6660   23.6850  -30.6270 C   0  0  0  0  0  0  0  0  0  0  0  0
   -5.2202   22.8285  -30.1001 H   0  0  0  0  0  0  0  0  0  0  0  0
   -6.6030   23.4060  -31.7340 C   0  0  0  0  0  0  0  0  0  0  0  0
   -6.3699   23.8374  -32.7186 H   0  0  0  0  0  0  0  0  0  0  0  0
   -7.7170   22.6660  -31.6290 C   0  0  0  0  0  0  0  0  0  0  0  0
   -8.6228   23.1675  -31.2574 H   0  0  0  0  0  0  0  0  0  0  0  0
   -7.8280   21.2300  -31.9720 C   0  0  0  0  0  0  0  0  0  0  0  0
   -6.7640   20.6090  -32.6460 C   0  0  0  0  0  0  0  0  0  0  0  0
   -5.8645   21.1895  -32.8988 H   0  0  0  0  0  0  0  0  0  0  0  0
   -6.8400   19.2580  -32.9980 C   0  0  0  0  0  0  0  0  0  0  0  0
   -5.9950   18.7753  -33.5108 H   0  0  0  0  0  0  0  0  0  0  0  0
   -7.9880   18.5210  -32.6990 C   0  0  0  0  0  0  0  0  0  0  0  0
   -8.0442   17.4563  -32.9698 H   0  0  0  0  0  0  0  0  0  0  0  0
   -9.0650   19.1360  -32.0560 C   0  0  0  0  0  0  0  0  0  0  0  0
   -9.9716   18.5564  -31.8277 H   0  0  0  0  0  0  0  0  0  0  0  0
   -8.9930   20.4870  -31.7020 C   0  0  0  0  0  0  0  0  0  0  0  0
   -9.8499   20.9710  -31.2107 H   0  0  0  0  0  0  0  0  0  0  0  0
   -6.1870   25.7220  -29.3830 C   0  0  0  0  0  0  0  0  0  0  0  0
   -5.9700   25.5094  -28.3258 H   0  0  0  0  0  0  0  0  0  0  0  0
   -5.9866   26.7832  -29.5922 H   0  0  0  0  0  0  0  0  0  0  0  0
   -7.2439   25.5003  -29.5922 H   0  0  0  0  0  0  0  0  0  0  0  0
  1  2  1  0
  2  3  1  0
  3  4  2  0
  4  5  1  0
  4  6  1  0
  6  7  1  0
  6  8  2  0
  8  9  1  0
  8 10  1  0
 10 11  2  0
 11 12  1  0
 11 13  1  0
 13 14  1  0
 13 15  2  0
 15 16  1  0
 15 17  1  0
 17 18  1  0
 17 19  2  0
 19 20  1  0
  3 21  1  0
 21 22  1  0
 21 23  1  0
 21 24  1  0
 19 10  1  0
M  CHG  1   3   1
M  END
>  <UniqueID>  (16) 
16

>  <SMILES>  (16) 
C/[N+](O)=C\C=C/c1ccccc1

>  <Energy>  (16) 
33.57330367918665

>  <Genealogy>  (16) 
C[N+](O)=CC=Cc1ccccc1 (protonated)
C/[N+](O)=C\C=C/c1ccccc1 (cis-trans isomerization)
C/[N+](O)=C\C=C/c1ccccc1 (3D coordinates assigned)
C/[N+](O)=C\C=C/c1ccccc1 (optimized conformer: 33.57330367918665 kcal/mol)

>  <smiles>  (16) 
C[N+]([O-])=CC=Cc1ccccc1

>  <score_type>  (16) 
oracle

>  <origin>  (16) 
adg

>  <m_score__min__energy>  (16) 
-5.9000000000000004

>  <m_primary>  (16) 
energy

$$$$
16:0
     RDKit          3D

 42 45  0  0  0  0  0  0  0  0999 V2000
   -3.5030   18.5390  -25.5940 C   0  0  0  0  0  0  0  0  0  0  0  0
   -2.6270   18.9260  -26.6900 N   0  0  0  0  0  0  0  0  0  0  0  0
   -2.9260   19.8630  -27.5780 N   0  0  0  0  0  0  0  0  0  0  0  0
   -1.8440   19.9670  -28.3780 C   0  0  0  0  0  0  0  0  0  0  0  0
   -1.7330   20.9070  -29.5470 C   0  0  0  0  0  0  0  0  0  0  0  0
   -3.0400   21.2950  -30.1190 N   0  0  0  0  0  0  0  0  0  0  0  0
   -3.4490   22.6630  -29.7600 C   0  0  0  0  0  0  0  0  0  0  0  0
   -4.9530   22.8040  -30.0010 C   0  0  0  0  0  0  0  0  0  0  0  0
   -5.3530   22.1060  -31.2290 N   0  0  0  0  0  0  0  0  0  0  0  0
   -6.7480   21.9850  -31.5450 C   0  0  0  0  0  0  0  0  0  0  0  0
   -7.5590   23.1330  -31.6460 C   0  0  0  0  0  0  0  0  0  0  0  0
   -8.9240   23.0200  -31.9700 C   0  0  0  0  0  0  0  0  0  0  0  0
   -9.4990   21.7600  -32.1930 C   0  0  0  0  0  0  0  0  0  0  0  0
   -8.6830   20.6370  -32.0830 C   0  0  0  0  0  0  0  0  0  0  0  0
   -9.1090   19.0260  -32.2740 S   0  0  0  0  0  0  0  0  0  0  0  0
   -7.5680   18.4170  -31.9440 C   0  0  0  0  0  0  0  0  0  0  0  0
   -6.7050   19.4790  -31.6790 C   0  0  0  0  0  0  0  0  0  0  0  0
   -7.3360   20.7280  -31.7640 C   0  0  0  0  0  0  0  0  0  0  0  0
   -4.3460   21.7320  -32.2300 C   0  0  0  0  0  0  0  0  0  0  0  0
   -3.1250   21.0480  -31.5770 C   0  0  0  0  0  0  0  0  0  0  0  0
   -0.8840   19.0740  -27.9370 C   0  0  0  0  0  0  0  0  0  0  0  0
   -1.4090   18.4440  -26.8740 N   0  0  0  0  0  0  0  0  0  0  0  0
   -3.0093   18.7571  -24.6355 H   0  0  0  0  0  0  0  0  0  0  0  0
   -4.4438   19.1053  -25.6591 H   0  0  0  0  0  0  0  0  0  0  0  0
   -3.7179   17.4622  -25.6591 H   0  0  0  0  0  0  0  0  0  0  0  0
   -1.2150   21.8181  -29.2130 H   0  0  0  0  0  0  0  0  0  0  0  0
   -1.1793   20.3773  -30.3362 H   0  0  0  0  0  0  0  0  0  0  0  0
   -3.2249   22.8501  -28.6995 H   0  0  0  0  0  0  0  0  0  0  0  0
   -2.9008   23.3918  -30.3750 H   0  0  0  0  0  0  0  0  0  0  0  0
   -5.4968   22.3725  -29.1477 H   0  0  0  0  0  0  0  0  0  0  0  0
   -5.1937   23.8719  -30.1087 H   0  0  0  0  0  0  0  0  0  0  0  0
   -7.1212   24.1266  -31.4700 H   0  0  0  0  0  0  0  0  0  0  0  0
   -9.5438   23.9253  -32.0489 H   0  0  0  0  0  0  0  0  0  0  0  0
  -10.5646   21.6619  -32.4476 H   0  0  0  0  0  0  0  0  0  0  0  0
   -7.2902   17.3527  -31.9391 H   0  0  0  0  0  0  0  0  0  0  0  0
   -5.6414   19.3507  -31.4296 H   0  0  0  0  0  0  0  0  0  0  0  0
   -4.8006   21.0379  -32.9522 H   0  0  0  0  0  0  0  0  0  0  0  0
   -4.0009   22.6484  -32.7312 H   0  0  0  0  0  0  0  0  0  0  0  0
   -3.1977   19.9635  -31.7460 H   0  0  0  0  0  0  0  0  0  0  0  0
   -2.2214   21.4734  -32.0381 H   0  0  0  0  0  0  0  0  0  0  0  0
    0.1134   18.9119  -28.3717 H   0  0  0  0  0  0  0  0  0  0  0  0
   -0.9480   17.7130  -26.2860 H   0  0  0  0  0  0  0  0  0  0  0  0
  1  2  1  0
  2  3  1  0
  3  4  2  0
  4  5  1  0
  5  6  1  0
  6  7  1  0
  7  8  1  0
  8  9  1  0
  9 10  1  0
 10 11  2  0
 11 12  1  0
 12 13  2  0
 13 14  1  0
 14 15  1  0
 15 16  1  0
 16 17  2  0
 17 18  1  0
  9 19  1  0
 19 20  1  0
  4 21  1  0
 21 22  2  0
 22  2  1  0
 20  6  1  0
 18 10  1  0
 18 14  2  0
  1 23  1  0
  1 24  1  0
  1 25  1  0
  5 26  1  0
  5 27  1  0
  7 28  1  0
  7 29  1  0
  8 30  1  0
  8 31  1  0
 11 32  1  0
 12 33  1  0
 13 34  1  0
 16 35  1  0
 17 36  1  0
 19 37  1  0
 19 38  1  0
 20 39  1  0
 20 40  1  0
 21 41  1  0
 22 42  1  0
M  CHG  1  22   1
M  END
>  <UniqueID>  (17) 
17

>  <SMILES>  (17) 
Cn1nc(CN2CCN(c3cccc4sccc34)CC2)c[nH+]1

>  <Energy>  (17) 
120.83485482116009

>  <Genealogy>  (17) 
Cn1nc(CN2CCN(c3cccc4sccc34)CC2)c[nH+]1 (protonated)
Cn1nc(CN2CCN(c3cccc4sccc34)CC2)c[nH+]1 (3D coordinates assigned)
Cn1nc(CN2CCN(c3cccc4sccc34)CC2)c[nH+]1 (nonaromatic ring conformer: 120.83485482116009 kcal/mol)

>  <smiles>  (17) 
Cn1ncc(CN2CCN(c3cccc4sccc34)CC2)n1

>  <score_type>  (17) 
oracle

>  <origin>  (17) 
adg

>  <m_score__min__energy>  (17) 
-7.6299999999999999

>  <m_primary>  (17) 
energy

$$$$
17:0
     RDKit          3D

 34 35  0  0  0  0  0  0  0  0999 V2000
   -8.7910   18.6620  -31.9400 C   0  0  0  0  0  0  0  0  0  0  0  0
   -8.2560   20.0630  -31.9750 C   0  0  0  0  0  0  0  0  0  0  0  0
   -9.1310   21.1520  -31.9670 C   0  0  0  0  0  0  0  0  0  0  0  0
   -8.6160   22.4460  -31.9620 C   0  0  0  0  0  0  0  0  0  0  0  0
   -7.2700   22.6510  -31.9510 N   0  0  0  0  0  0  0  0  0  0  0  0
   -6.3770   21.6120  -31.9380 C   0  0  0  0  0  0  0  0  0  0  0  0
   -4.9460   21.8620  -31.9180 N   0  0  0  0  0  0  0  0  0  0  0  0
   -4.1600   21.7680  -33.1550 C   0  0  0  0  0  0  0  0  0  0  0  0
   -4.2420   22.2070  -30.6730 C   0  0  0  0  0  0  0  0  0  0  0  0
   -4.3420   23.7140  -30.3740 C   0  0  2  0  0  0  0  0  0  0  0  0
   -5.0910   23.9830  -29.0770 C   0  0  0  0  0  0  0  0  0  0  0  0
   -5.7510   25.2970  -29.3490 C   0  0  0  0  0  0  0  0  0  0  0  0
   -5.9190   25.2870  -30.8550 C   0  0  0  0  0  0  0  0  0  0  0  0
   -4.9910   24.3920  -31.4270 O   0  0  0  0  0  0  0  0  0  0  0  0
   -6.8750   20.2930  -31.9450 C   0  0  0  0  0  0  0  0  0  0  0  0
   -8.9131   18.3422  -30.8946 H   0  0  0  0  0  0  0  0  0  0  0  0
   -9.7651   18.6287  -32.4498 H   0  0  0  0  0  0  0  0  0  0  0  0
   -8.0870   17.9878  -32.4498 H   0  0  0  0  0  0  0  0  0  0  0  0
  -10.2188   20.9886  -31.9647 H   0  0  0  0  0  0  0  0  0  0  0  0
   -9.3004   23.3071  -31.9670 H   0  0  0  0  0  0  0  0  0  0  0  0
   -6.9440   23.6410  -31.9670 H   0  0  0  0  0  0  0  0  0  0  0  0
   -3.0964   21.6408  -32.9048 H   0  0  0  0  0  0  0  0  0  0  0  0
   -4.5041   20.9046  -33.7433 H   0  0  0  0  0  0  0  0  0  0  0  0
   -4.2908   22.6882  -33.7433 H   0  0  0  0  0  0  0  0  0  0  0  0
   -4.6907   21.6457  -29.8401 H   0  0  0  0  0  0  0  0  0  0  0  0
   -3.1800   21.9457  -30.7904 H   0  0  0  0  0  0  0  0  0  0  0  0
   -3.3122   24.0869  -30.2714 H   0  0  0  0  0  0  0  0  0  0  0  0
   -5.8356   23.1981  -28.8781 H   0  0  0  0  0  0  0  0  0  0  0  0
   -4.4404   23.9951  -28.1901 H   0  0  0  0  0  0  0  0  0  0  0  0
   -6.7253   25.3627  -28.8427 H   0  0  0  0  0  0  0  0  0  0  0  0
   -5.1722   26.1576  -28.9825 H   0  0  0  0  0  0  0  0  0  0  0  0
   -6.9406   24.9667  -31.1076 H   0  0  0  0  0  0  0  0  0  0  0  0
   -5.7431   26.2986  -31.2497 H   0  0  0  0  0  0  0  0  0  0  0  0
   -6.1773   19.4428  -31.9269 H   0  0  0  0  0  0  0  0  0  0  0  0
  1  2  1  0
  2  3  2  0
  3  4  1  0
  4  5  2  0
  5  6  1  0
  6  7  1  0
  7  8  1  0
  7  9  1  0
  9 10  1  0
 10 11  1  0
 11 12  1  0
 12 13  1  0
 13 14  1  0
  6 15  2  0
 15  2  1  0
 14 10  1  0
  1 16  1  0
  1 17  1  0
  1 18  1  0
  3 19  1  0
  4 20  1  0
  5 21  1  0
  8 22  1  0
  8 23  1  0
  8 24  1  0
  9 25  1  0
  9 26  1  0
 10 27  1  1
 11 28  1  0
 11 29  1  0
 12 30  1  0
 12 31  1  0
 13 32  1  0
 13 33  1  0
 15 34  1  0
M  CHG  1   5   1
M  END
>  <UniqueID>  (18) 
18

>  <SMILES>  (18) 
Cc1cc[nH+]c(N(C)C[C@@H]2CCCO2)c1

>  <Energy>  (18) 
32.72016911960241

>  <Genealogy>  (18) 
Cc1cc[nH+]c(N(C)CC2CCCO2)c1 (protonated)
Cc1cc[nH+]c(N(C)C[C@@H]2CCCO2)c1 (chirality)
Cc1cc[nH+]c(N(C)C[C@@H]2CCCO2)c1 (3D coordinates assigned)
Cc1cc[nH+]c(N(C)C[C@@H]2CCCO2)c1 (nonaromatic ring conformer: 32.72016911960241 kcal/mol)

>  <smiles>  (18) 
Cc1ccnc(N(C)CC2CCCO2)c1

>  <score_type>  (18) 
oracle

>  <origin>  (18) 
adg

>  <m_score__min__energy>  (18) 
-5.3499999999999996

>  <m_primary>  (18) 
energy

$$$$
18:0
     RDKit          3D

 25 25  0  0  1  0  0  0  0  0999 V2000
   -5.7460   18.9640  -34.2350 C   0  0  0  0  0  0  0  0  0  0  0  0
   -4.8740   19.3330  -33.0520 C   0  0  0  0  0  0  0  0  0  0  0  0
   -4.4890   20.7360  -33.2390 N   0  0  0  0  0  0  0  0  0  0  0  0
   -5.1980   21.6440  -32.6600 C   0  0  0  0  0  0  0  0  0  0  0  0
   -4.6650   22.8070  -32.2030 N   0  0  0  0  0  0  0  0  0  0  0  0
   -5.4650   23.7100  -31.6100 C   0  0  0  0  0  0  0  0  0  0  0  0
   -5.0150   24.9240  -31.1120 O   0  0  0  0  0  0  0  0  0  0  0  0
   -5.6800   25.6840  -30.1370 C   0  0  0  0  0  0  0  0  0  0  0  0
   -6.7900   23.4600  -31.4710 N   0  0  0  0  0  0  0  0  0  0  0  0
   -7.3380   22.3180  -31.9150 C   0  0  0  0  0  0  0  0  0  0  0  0
   -9.0790   21.9460  -31.7530 S   0  0  0  0  0  0  0  0  0  0  0  0
   -9.4710   20.2820  -32.3450 C   0  0  0  0  0  0  0  0  0  0  0  0
   -6.5180   21.4300  -32.5060 N   0  0  0  0  0  0  0  0  0  0  0  0
   -6.7027   18.5592  -33.8732 H   0  0  0  0  0  0  0  0  0  0  0  0
   -5.9342   19.8596  -34.8453 H   0  0  0  0  0  0  0  0  0  0  0  0
   -5.2342   18.2053  -34.8453 H   0  0  0  0  0  0  0  0  0  0  0  0
   -5.4365   19.2152  -32.1141 H   0  0  0  0  0  0  0  0  0  0  0  0
   -3.9889   18.6825  -32.9924 H   0  0  0  0  0  0  0  0  0  0  0  0
   -5.3794   25.3404  -29.1362 H   0  0  0  0  0  0  0  0  0  0  0  0
   -5.4150   26.7450  -30.2554 H   0  0  0  0  0  0  0  0  0  0  0  0
   -6.7668   25.5621  -30.2554 H   0  0  0  0  0  0  0  0  0  0  0  0
   -7.4280   24.1460  -31.0140 H   0  0  0  0  0  0  0  0  0  0  0  0
   -9.6283   19.6144  -31.4850 H   0  0  0  0  0  0  0  0  0  0  0  0
  -10.3858   20.3159  -32.9550 H   0  0  0  0  0  0  0  0  0  0  0  0
   -8.6373   19.9040  -32.9550 H   0  0  0  0  0  0  0  0  0  0  0  0
  1  2  1  0
  2  3  1  0
  3  4  2  0
  4  5  1  0
  5  6  2  0
  6  7  1  0
  7  8  1  0
  6  9  1  0
  9 10  1  0
 10 11  1  0
 11 12  1  0
 10 13  2  0
 13  4  1  0
  1 14  1  0
  1 15  1  0
  1 16  1  0
  2 17  1  0
  2 18  1  0
  8 19  1  0
  8 20  1  0
  8 21  1  0
  9 22  1  0
 12 23  1  0
 12 24  1  0
 12 25  1  0
M  END
>  <smiles>  (19) 
CCN=c1nc(OC)[nH]c(SC)n1

>  <score_type>  (19) 
oracle

>  <origin>  (19) 
adg

>  <m_score__min__energy>  (19) 
-4.5800000000000001

>  <m_primary>  (19) 
energy

$$$$
19:0
     RDKit          3D

 32 34  0  0  0  0  0  0  0  0999 V2000
   -0.0988   22.4757  -28.2463 H   0  0  0  0  0  0  0  0  0  0  0  0
   -0.8920   23.1670  -28.5670 C   0  0  0  0  0  0  0  0  0  0  0  0
   -1.7190   23.1060  -30.0320 S   0  0  0  0  0  0  0  0  0  0  0  0
   -2.6540   24.4480  -29.6750 C   0  0  0  0  0  0  0  0  0  0  0  0
   -3.5800   24.9090  -30.4630 N   0  0  0  0  0  0  0  0  0  0  0  0
   -4.8110   24.2540  -30.8140 C   0  0  0  0  0  0  0  0  0  0  0  0
   -6.0080   24.7520  -30.2880 C   0  0  0  0  0  0  0  0  0  0  0  0
   -5.9907   25.6385  -29.6371 H   0  0  0  0  0  0  0  0  0  0  0  0
   -7.2260   24.1320  -30.5830 C   0  0  0  0  0  0  0  0  0  0  0  0
   -8.1630   24.5473  -30.1835 H   0  0  0  0  0  0  0  0  0  0  0  0
   -7.2580   22.9830  -31.3860 C   0  0  0  0  0  0  0  0  0  0  0  0
   -8.5680   22.3390  -31.7350 C   0  0  0  0  0  0  0  0  0  0  0  0
   -9.1044   22.0753  -30.8116 H   0  0  0  0  0  0  0  0  0  0  0  0
   -9.1761   23.0409  -32.3246 H   0  0  0  0  0  0  0  0  0  0  0  0
   -8.3836   21.4289  -32.3246 H   0  0  0  0  0  0  0  0  0  0  0  0
   -6.0590   22.4730  -31.9050 C   0  0  0  0  0  0  0  0  0  0  0  0
   -6.0771   21.5800  -32.5471 H   0  0  0  0  0  0  0  0  0  0  0  0
   -4.8410   23.0930  -31.6110 C   0  0  0  0  0  0  0  0  0  0  0  0
   -3.9031   22.6729  -32.0033 H   0  0  0  0  0  0  0  0  0  0  0  0
   -2.3740   24.9480  -28.4530 N   0  0  0  0  0  0  0  0  0  0  0  0
   -1.3860   24.2480  -27.8260 C   0  0  0  0  0  0  0  0  0  0  0  0
   -0.9140   24.6290  -26.4670 C   0  0  0  0  0  0  0  0  0  0  0  0
   -1.2600   25.8600  -25.8790 C   0  0  0  0  0  0  0  0  0  0  0  0
   -1.8950   26.5733  -26.4249 H   0  0  0  0  0  0  0  0  0  0  0  0
   -0.7940   26.1730  -24.5990 C   0  0  0  0  0  0  0  0  0  0  0  0
   -1.0614   27.1358  -24.1392 H   0  0  0  0  0  0  0  0  0  0  0  0
   -0.0120   25.2930  -23.9200 N   0  0  0  0  0  0  0  0  0  0  0  0
    0.3280   25.5430  -22.9630 H   0  0  0  0  0  0  0  0  0  0  0  0
    0.3370   24.0950  -24.4570 C   0  0  0  0  0  0  0  0  0  0  0  0
    0.9701   23.4010  -23.8848 H   0  0  0  0  0  0  0  0  0  0  0  0
   -0.1060   23.7420  -25.7340 C   0  0  0  0  0  0  0  0  0  0  0  0
    0.1771   22.7707  -26.1658 H   0  0  0  0  0  0  0  0  0  0  0  0
  1  2  1  0
  2  3  1  0
  3  4  1  0
  4  5  2  0
  5  6  1  0
  6  7  2  0
  7  8  1  0
  7  9  1  0
  9 10  1  0
  9 11  2  0
 11 12  1  0
 12 13  1  0
 12 14  1  0
 12 15  1  0
 11 16  1  0
 16 17  1  0
 16 18  2  0
 18 19  1  0
  4 20  1  0
 20 21  1  0
 21 22  1  0
 22 23  2  0
 23 24  1  0
 23 25  1  0
 25 26  1  0
 25 27  2  0
 27 28  1  0
 27 29  1  0
 29 30  1  0
 29 31  2  0
 31 32  1  0
 21  2  2  0
 31 22  1  0
 18  6  1  0
M  CHG  2  20  -1  27   1
M  END
>  <UniqueID>  (20) 
19

>  <SMILES>  (20) 
Cc1ccc(/N=c2\[n-]c(-c3cc[nH+]cc3)cs2)cc1

>  <Energy>  (20) 
71.48023683983799

>  <Genealogy>  (20) 
Cc1ccc(N=c2[n-]c(-c3cc[nH+]cc3)cs2)cc1 (protonated)
Cc1ccc(/N=c2\[n-]c(-c3cc[nH+]cc3)cs2)cc1 (cis-trans isomerization)
Cc1ccc(/N=c2\[n-]c(-c3cc[nH+]cc3)cs2)cc1 (3D coordinates assigned)
Cc1ccc(/N=c2\[n-]c(-c3cc[nH+]cc3)cs2)cc1 (optimized conformer: 71.48023683983799 kcal/mol)

>  <smiles>  (20) 
Cc1ccc(N=c2[nH]c(-c3ccncc3)cs2)cc1

>  <score_type>  (20) 
oracle

>  <origin>  (20) 
adg

>  <m_score__min__energy>  (20) 
-8.9800000000000004

>  <m_primary>  (20) 
energy

$$$$
20:0
     RDKit          3D

 56 60  0  0  0  0  0  0  0  0999 V2000
   -5.5950   18.3410  -31.7750 F   0  0  0  0  0  0  0  0  0  0  0  0
   -6.1030   19.0820  -32.8260 C   0  0  0  0  0  0  0  0  0  0  0  0
   -5.0910   19.2940  -33.7460 F   0  0  0  0  0  0  0  0  0  0  0  0
   -7.1010   18.3620  -33.4600 F   0  0  0  0  0  0  0  0  0  0  0  0
   -6.6410   20.3960  -32.3010 C   0  0  0  0  0  0  0  0  0  0  0  0
   -8.0070   20.6970  -32.4550 C   0  0  0  0  0  0  0  0  0  0  0  0
   -8.5310   21.8870  -31.9520 C   0  0  0  0  0  0  0  0  0  0  0  0
   -7.6870   22.7840  -31.3040 C   0  0  0  0  0  0  0  0  0  0  0  0
   -6.3640   22.5090  -31.1900 N   0  0  0  0  0  0  0  0  0  0  0  0
   -5.8110   21.3650  -31.6800 C   0  0  0  0  0  0  0  0  0  0  0  0
   -4.3920   21.1760  -31.5440 N   0  0  0  0  0  0  0  0  0  0  0  0
   -3.8770   20.3720  -30.4340 C   0  0  0  0  0  0  0  0  0  0  0  0
   -3.1120   21.2450  -29.4190 C   0  0  0  0  0  0  0  0  0  0  0  0
   -2.4150   22.5070  -30.0420 C   0  0  0  0  0  0  0  0  0  0  0  0
   -1.0430   22.7280  -29.3190 C   0  0  0  0  0  0  0  0  0  0  0  0
   -0.5860   24.1930  -29.3400 C   0  0  0  0  0  0  0  0  0  0  0  0
   -1.6050   25.1410  -28.6510 C   0  0  0  0  0  0  0  0  0  0  0  0
   -1.1420   25.5460  -27.2740 C   0  0  0  0  0  0  0  0  0  0  0  0
   -1.9810   26.0110  -26.2590 C   0  0  0  0  0  0  0  0  0  0  0  0
   -1.1350   26.2560  -25.2020 C   0  0  0  0  0  0  0  0  0  0  0  0
   -1.4220   26.7210  -23.9610 N   0  0  0  0  0  0  0  0  0  0  0  0
   -0.4000   26.8860  -23.0640 C   0  0  0  0  0  0  0  0  0  0  0  0
    0.9300   26.5760  -23.4280 C   0  0  0  0  0  0  0  0  0  0  0  0
    1.2090   26.0960  -24.7190 C   0  0  0  0  0  0  0  0  0  0  0  0
    0.1350   25.9460  -25.5910 C   0  0  0  0  0  0  0  0  0  0  0  0
    0.1520   25.5090  -26.8610 N   0  0  0  0  0  0  0  0  0  0  0  0
   -3.0290   24.5470  -28.5910 C   0  0  0  0  0  0  0  0  0  0  0  0
   -3.3370   23.7660  -29.8720 C   0  0  0  0  0  0  0  0  0  0  0  0
   -2.1560   22.2600  -31.5560 C   0  0  0  0  0  0  0  0  0  0  0  0
   -3.4610   21.9980  -32.3290 C   0  0  0  0  0  0  0  0  0  0  0  0
   -8.6666   19.9877  -32.9764 H   0  0  0  0  0  0  0  0  0  0  0  0
   -9.6011   22.1147  -32.0662 H   0  0  0  0  0  0  0  0  0  0  0  0
   -8.0931   23.7161  -30.8843 H   0  0  0  0  0  0  0  0  0  0  0  0
   -4.7202   19.8840  -29.9233 H   0  0  0  0  0  0  0  0  0  0  0  0
   -3.1824   19.6222  -30.8408 H   0  0  0  0  0  0  0  0  0  0  0  0
   -3.8248   21.5882  -28.6547 H   0  0  0  0  0  0  0  0  0  0  0  0
   -2.3097   20.6156  -29.0064 H   0  0  0  0  0  0  0  0  0  0  0  0
   -1.1423   22.4063  -28.2718 H   0  0  0  0  0  0  0  0  0  0  0  0
   -0.2869   22.1386  -29.8584 H   0  0  0  0  0  0  0  0  0  0  0  0
    0.3781   24.2698  -28.8160 H   0  0  0  0  0  0  0  0  0  0  0  0
   -0.4987   24.5020  -30.3921 H   0  0  0  0  0  0  0  0  0  0  0  0
   -1.6557   26.0414  -29.2808 H   0  0  0  0  0  0  0  0  0  0  0  0
   -3.0716   26.1500  -26.2962 H   0  0  0  0  0  0  0  0  0  0  0  0
   -2.4040   26.9500  -23.6890 H   0  0  0  0  0  0  0  0  0  0  0  0
   -0.6160   27.2624  -22.0532 H   0  0  0  0  0  0  0  0  0  0  0  0
    1.7454   26.7102  -22.7020 H   0  0  0  0  0  0  0  0  0  0  0  0
    2.2354   25.8487  -25.0279 H   0  0  0  0  0  0  0  0  0  0  0  0
    0.9870   25.2030  -27.4060 H   0  0  0  0  0  0  0  0  0  0  0  0
   -3.1030   23.8699  -27.7272 H   0  0  0  0  0  0  0  0  0  0  0  0
   -3.7539   25.3683  -28.4912 H   0  0  0  0  0  0  0  0  0  0  0  0
   -4.3853   23.4343  -29.8400 H   0  0  0  0  0  0  0  0  0  0  0  0
   -3.1516   24.4350  -30.7253 H   0  0  0  0  0  0  0  0  0  0  0  0
   -1.6632   23.1467  -31.9813 H   0  0  0  0  0  0  0  0  0  0  0  0
   -1.5200   21.3675  -31.6507 H   0  0  0  0  0  0  0  0  0  0  0  0
   -3.9403   22.9609  -32.5593 H   0  0  0  0  0  0  0  0  0  0  0  0
   -3.2135   21.4549  -33.2530 H   0  0  0  0  0  0  0  0  0  0  0  0
  1  2  1  0
  2  3  1  0
  2  4  1  0
  2  5  1  0
  5  6  2  0
  6  7  1  0
  7  8  2  0
  8  9  1  0
  9 10  2  0
 10 11  1  0
 11 12  1  0
 12 13  1  0
 13 14  1  0
 14 15  1  0
 15 16  1  0
 16 17  1  0
 17 18  1  0
 18 19  2  0
 19 20  1  0
 20 21  2  0
 21 22  1  0
 22 23  2  0
 23 24  1  0
 24 25  2  0
 25 26  1  0
 17 27  1  0
 27 28  1  0
 14 29  1  0
 29 30  1  0
 10  5  1  0
 30 11  1  0
 28 14  1  0
 26 18  1  0
 25 20  1  0
  6 31  1  0
  7 32  1  0
  8 33  1  0
 12 34  1  0
 12 35  1  0
 13 36  1  0
 13 37  1  0
 15 38  1  0
 15 39  1  0
 16 40  1  0
 16 41  1  0
 17 42  1  0
 19 43  1  0
 21 44  1  0
 22 45  1  0
 23 46  1  0
 24 47  1  0
 26 48  1  0
 27 49  1  0
 27 50  1  0
 28 51  1  0
 28 52  1  0
 29 53  1  0
 29 54  1  0
 30 55  1  0
 30 56  1  0
M  CHG  1  21   1
M  END
>  <UniqueID>  (21) 
20

>  <SMILES>  (21) 
FC(F)(F)c1cccnc1N1CCC2(CCC(c3cc4[nH+]cccc4[nH]3)CC2)CC1

>  <Energy>  (21) 
112.43563698071408

>  <Genealogy>  (21) 
FC(F)(F)c1cccnc1N1CCC2(CCC(c3cc4[nH+]cccc4[nH]3)CC2)CC1 (protonated)
FC(F)(F)c1cccnc1N1CCC2(CCC(c3cc4[nH+]cccc4[nH]3)CC2)CC1 (3D coordinates assigned)
FC(F)(F)c1cccnc1N1CCC2(CCC(c3cc4[nH+]cccc4[nH]3)CC2)CC1 (nonaromatic ring conformer: 112.43563698071408 kcal/mol)

>  <smiles>  (21) 
FC(F)(F)c1cccnc1N1CCC2(CCC(c3cc4ncccc4[nH]3)CC2)CC1

>  <score_type>  (21) 
oracle

>  <origin>  (21) 
adg

>  <m_score__min__energy>  (21) 
-8.0600000000000005

>  <m_primary>  (21) 
energy

$$$$
21:0
     RDKit          3D

 44 45  0  0  0  0  0  0  0  0999 V2000
    0.2580   24.3600  -26.0960 C   0  0  0  0  0  0  0  0  0  0  0  0
    0.8650   24.3590  -27.4990 C   0  0  0  0  0  0  0  0  0  0  0  0
   -0.1710   24.5330  -28.5410 N   0  0  0  0  0  0  0  0  0  0  0  0
   -0.4930   23.3270  -29.3410 C   0  0  0  0  0  0  0  0  0  0  0  0
   -0.5320   22.0260  -28.5350 C   0  0  0  0  0  0  0  0  0  0  0  0
   -1.3490   25.3380  -28.1320 C   0  0  0  0  0  0  0  0  0  0  0  0
   -2.7080   24.6650  -28.3990 C   0  0  0  0  0  0  0  0  0  0  0  0
   -3.1230   24.9580  -29.7310 O   0  0  0  0  0  0  0  0  0  0  0  0
   -4.0570   24.2020  -30.4560 C   0  0  0  0  0  0  0  0  0  0  0  0
   -5.4060   24.5840  -30.5790 C   0  0  0  0  0  0  0  0  0  0  0  0
   -6.2990   23.7940  -31.3090 C   0  0  0  0  0  0  0  0  0  0  0  0
   -5.8630   22.6030  -31.9160 C   0  0  0  0  0  0  0  0  0  0  0  0
   -6.7550   21.7840  -32.6910 N   0  0  0  0  0  0  0  0  0  0  0  0
   -7.0200   20.4000  -32.4220 C   0  0  0  0  0  0  0  0  0  0  0  0
   -6.3210   19.6910  -31.6060 N   0  0  0  0  0  0  0  0  0  0  0  0
   -6.8160   18.3190  -31.6060 C   0  0  0  0  0  0  0  0  0  0  0  0
   -7.9630   18.3050  -32.6300 C   0  0  0  0  0  0  0  0  0  0  0  0
   -8.0230   19.6740  -33.1000 N   0  0  0  0  0  0  0  0  0  0  0  0
   -4.5140   22.2380  -31.8090 C   0  0  0  0  0  0  0  0  0  0  0  0
   -3.6210   23.0270  -31.0790 C   0  0  0  0  0  0  0  0  0  0  0  0
    1.0642   24.3587  -25.3477 H   0  0  0  0  0  0  0  0  0  0  0  0
   -0.3620   25.2592  -25.9654 H   0  0  0  0  0  0  0  0  0  0  0  0
   -0.3650   23.4629  -25.9654 H   0  0  0  0  0  0  0  0  0  0  0  0
    1.5896   25.1831  -27.5750 H   0  0  0  0  0  0  0  0  0  0  0  0
    1.3559   23.3880  -27.6607 H   0  0  0  0  0  0  0  0  0  0  0  0
   -1.4798   23.4746  -29.8042 H   0  0  0  0  0  0  0  0  0  0  0  0
    0.3145   23.2150  -30.0795 H   0  0  0  0  0  0  0  0  0  0  0  0
   -0.5250   22.2602  -27.4602 H   0  0  0  0  0  0  0  0  0  0  0  0
   -1.4473   21.4684  -28.7828 H   0  0  0  0  0  0  0  0  0  0  0  0
    0.3482   21.4146  -28.7828 H   0  0  0  0  0  0  0  0  0  0  0  0
   -1.2707   25.5373  -27.0530 H   0  0  0  0  0  0  0  0  0  0  0  0
   -1.3287   26.2532  -28.7419 H   0  0  0  0  0  0  0  0  0  0  0  0
   -2.6100   23.5764  -28.2753 H   0  0  0  0  0  0  0  0  0  0  0  0
   -3.4551   25.0460  -27.6871 H   0  0  0  0  0  0  0  0  0  0  0  0
   -5.7593   25.5083  -30.0986 H   0  0  0  0  0  0  0  0  0  0  0  0
   -7.3491   24.1060  -31.4091 H   0  0  0  0  0  0  0  0  0  0  0  0
   -7.1760   22.1920  -33.5550 H   0  0  0  0  0  0  0  0  0  0  0  0
   -6.0206   17.6218  -31.9080 H   0  0  0  0  0  0  0  0  0  0  0  0
   -7.1521   18.0029  -30.6074 H   0  0  0  0  0  0  0  0  0  0  0  0
   -7.7408   17.6158  -33.4580 H   0  0  0  0  0  0  0  0  0  0  0  0
   -8.9146   17.9612  -32.1984 H   0  0  0  0  0  0  0  0  0  0  0  0
   -8.6820   20.0520  -33.8180 H   0  0  0  0  0  0  0  0  0  0  0  0
   -4.1554   21.3232  -32.3036 H   0  0  0  0  0  0  0  0  0  0  0  0
   -2.5675   22.7223  -30.9934 H   0  0  0  0  0  0  0  0  0  0  0  0
  1  2  1  0
  2  3  1  0
  3  4  1  0
  4  5  1  0
  3  6  1  0
  6  7  1  0
  7  8  1  0
  8  9  1  0
  9 10  2  0
 10 11  1  0
 11 12  2  0
 12 13  1  0
 13 14  1  0
 14 15  2  0
 15 16  1  0
 16 17  1  0
 17 18  1  0
 12 19  1  0
 19 20  2  0
 20  9  1  0
 18 14  1  0
  1 21  1  0
  1 22  1  0
  1 23  1  0
  2 24  1  0
  2 25  1  0
  4 26  1  0
  4 27  1  0
  5 28  1  0
  5 29  1  0
  5 30  1  0
  6 31  1  0
  6 32  1  0
  7 33  1  0
  7 34  1  0
 10 35  1  0
 11 36  1  0
 13 37  1  0
 16 38  1  0
 16 39  1  0
 17 40  1  0
 17 41  1  0
 18 42  1  0
 19 43  1  0
 20 44  1  0
M  END
>  <UniqueID>  (22) 
21

>  <SMILES>  (22) 
CCN(CC)CCOc1ccc(NC2=NCCN2)cc1

>  <Energy>  (22) 
62.128430807280154

>  <Genealogy>  (22) 
CCN(CC)CCOc1ccc(NC2=NCCN2)cc1 (3D coordinates assigned)
CCN(CC)CCOc1ccc(NC2=NCCN2)cc1 (nonaromatic ring conformer: 62.128430807280154 kcal/mol)

>  <smiles>  (22) 
CCN(CC)CCOc1ccc(NC2=NCCN2)cc1

>  <score_type>  (22) 
oracle

>  <origin>  (22) 
adg

>  <m_score__min__energy>  (22) 
-6.7999999999999998

>  <m_primary>  (22) 
energy

$$$$
22:0
     RDKit          3D

 32 34  0  0  0  0  0  0  0  0999 V2000
   -6.4670   25.8020  -29.6890 S   0  0  0  0  0  0  0  0  0  0  0  0
   -5.4220   24.5620  -29.9360 C   0  0  0  0  0  0  0  0  0  0  0  0
   -4.2850   24.4050  -29.2380 N   0  0  0  0  0  0  0  0  0  0  0  0
   -3.6490   23.3530  -29.7270 N   0  0  0  0  0  0  0  0  0  0  0  0
   -4.4280   22.8650  -30.7160 C   0  0  0  0  0  0  0  0  0  0  0  0
   -4.0290   21.7250  -31.5580 C   0  0  0  0  0  0  0  0  0  0  0  0
   -3.2240   21.9170  -32.6920 C   0  0  0  0  0  0  0  0  0  0  0  0
   -2.8370   20.8230  -33.4740 C   0  0  0  0  0  0  0  0  0  0  0  0
   -3.2600   19.5350  -33.1340 C   0  0  0  0  0  0  0  0  0  0  0  0
   -2.7240   18.0420  -34.1980 Br  0  0  0  0  0  0  0  0  0  0  0  0
   -4.0810   19.3400  -32.0190 C   0  0  0  0  0  0  0  0  0  0  0  0
   -4.4710   20.4320  -31.2370 C   0  0  0  0  0  0  0  0  0  0  0  0
   -5.5530   23.6040  -30.8780 N   0  0  0  0  0  0  0  0  0  0  0  0
   -6.5480   23.5210  -31.9570 C   0  0  0  0  0  0  0  0  0  0  0  0
   -7.3140   22.2280  -31.8640 C   0  0  0  0  0  0  0  0  0  0  0  0
   -8.3370   22.0830  -30.9130 C   0  0  0  0  0  0  0  0  0  0  0  0
   -9.0760   20.8980  -30.8470 C   0  0  0  0  0  0  0  0  0  0  0  0
   -8.8000   19.8500  -31.7310 C   0  0  0  0  0  0  0  0  0  0  0  0
   -7.7830   19.9860  -32.6790 C   0  0  0  0  0  0  0  0  0  0  0  0
   -7.0400   21.1680  -32.7460 C   0  0  0  0  0  0  0  0  0  0  0  0
   -3.9280   25.0080  -28.4640 H   0  0  0  0  0  0  0  0  0  0  0  0
   -2.8965   22.9305  -32.9667 H   0  0  0  0  0  0  0  0  0  0  0  0
   -2.1994   20.9768  -34.3570 H   0  0  0  0  0  0  0  0  0  0  0  0
   -4.4203   18.3271  -31.7567 H   0  0  0  0  0  0  0  0  0  0  0  0
   -5.1264   20.2770  -30.3673 H   0  0  0  0  0  0  0  0  0  0  0  0
   -7.2485   24.3647  -31.8702 H   0  0  0  0  0  0  0  0  0  0  0  0
   -6.0288   23.5601  -32.9260 H   0  0  0  0  0  0  0  0  0  0  0  0
   -8.5579   22.9055  -30.2168 H   0  0  0  0  0  0  0  0  0  0  0  0
   -9.8753   20.7898  -30.0990 H   0  0  0  0  0  0  0  0  0  0  0  0
   -9.3835   18.9189  -31.6798 H   0  0  0  0  0  0  0  0  0  0  0  0
   -7.5665   19.1613  -33.3740 H   0  0  0  0  0  0  0  0  0  0  0  0
   -6.2377   21.2693  -33.4917 H   0  0  0  0  0  0  0  0  0  0  0  0
  1  2  2  0
  2  3  1  0
  3  4  1  0
  4  5  2  0
  5  6  1  0
  6  7  2  0
  7  8  1  0
  8  9  2  0
  9 10  1  0
  9 11  1  0
 11 12  2  0
  5 13  1  0
 13 14  1  0
 14 15  1  0
 15 16  2  0
 16 17  1  0
 17 18  2  0
 18 19  1  0
 19 20  2  0
 13  2  1  0
 20 15  1  0
 12  6  1  0
  3 21  1  0
  7 22  1  0
  8 23  1  0
 11 24  1  0
 12 25  1  0
 14 26  1  0
 14 27  1  0
 16 28  1  0
 17 29  1  0
 18 30  1  0
 19 31  1  0
 20 32  1  0
M  END
>  <UniqueID>  (23) 
22

>  <SMILES>  (23) 
S=c1[nH]nc(-c2ccc(Br)cc2)n1Cc1ccccc1

>  <Energy>  (23) 
74.28747752297178

>  <Genealogy>  (23) 
S=c1[nH]nc(-c2ccc(Br)cc2)n1Cc1ccccc1 (3D coordinates assigned)
S=c1[nH]nc(-c2ccc(Br)cc2)n1Cc1ccccc1 (optimized conformer: 74.28747752297178 kcal/mol)

>  <smiles>  (23) 
S=c1[nH]nc(-c2ccc(Br)cc2)n1Cc1ccccc1

>  <score_type>  (23) 
oracle

>  <origin>  (23) 
adg

>  <m_score__min__energy>  (23) 
-8.2599999999999998

>  <m_primary>  (23) 
energy

$$$$
23:0
     RDKit          3D

 32 34  0  0  0  0  0  0  0  0999 V2000
   -5.2120   25.6680  -30.7510 C   0  0  0  0  0  0  0  0  0  0  0  0
   -3.8660   25.2990  -30.4700 O   0  0  0  0  0  0  0  0  0  0  0  0
   -3.4890   24.1260  -29.8000 C   0  0  0  0  0  0  0  0  0  0  0  0
   -3.1600   24.1120  -28.4290 C   0  0  0  0  0  0  0  0  0  0  0  0
   -2.7940   22.9150  -27.8030 C   0  0  0  0  0  0  0  0  0  0  0  0
   -2.7380   21.7260  -28.5360 C   0  0  0  0  0  0  0  0  0  0  0  0
   -3.0480   21.7340  -29.8970 C   0  0  0  0  0  0  0  0  0  0  0  0
   -3.4430   22.9250  -30.5220 C   0  0  0  0  0  0  0  0  0  0  0  0
   -3.7780   22.8960  -31.8780 O   0  0  0  0  0  0  0  0  0  0  0  0
   -4.0530   21.6630  -32.5450 C   0  0  0  0  0  0  0  0  0  0  0  0
   -3.0820   20.5600  -32.0820 C   0  0  1  0  0  0  0  0  0  0  0  0
   -1.7360   20.7110  -32.7400 C   0  0  0  0  0  0  0  0  0  0  0  0
   -0.6100   20.6100  -32.1200 N   0  0  0  0  0  0  0  0  0  0  0  0
    0.4980   20.8800  -33.0250 C   0  0  0  0  0  0  0  0  0  0  0  0
   -0.1700   21.2030  -34.3730 C   0  0  0  0  0  0  0  0  0  0  0  0
   -1.5880   21.0740  -34.1000 N   0  0  0  0  0  0  0  0  0  0  0  0
   -2.9550   20.5600  -30.6540 O   0  0  0  0  0  0  0  0  0  0  0  0
   -5.7561   25.8172  -29.8067 H   0  0  0  0  0  0  0  0  0  0  0  0
   -5.2225   26.6022  -31.3317 H   0  0  0  0  0  0  0  0  0  0  0  0
   -5.6974   24.8698  -31.3317 H   0  0  0  0  0  0  0  0  0  0  0  0
   -3.1911   25.0461  -27.8489 H   0  0  0  0  0  0  0  0  0  0  0  0
   -2.5496   22.9098  -26.7305 H   0  0  0  0  0  0  0  0  0  0  0  0
   -2.4504   20.7864  -28.0415 H   0  0  0  0  0  0  0  0  0  0  0  0
   -5.0841   21.3534  -32.3192 H   0  0  0  0  0  0  0  0  0  0  0  0
   -3.9254   21.8124  -33.6273 H   0  0  0  0  0  0  0  0  0  0  0  0
   -3.5005   19.5902  -32.3893 H   0  0  0  0  0  0  0  0  0  0  0  0
   -0.4950   20.3800  -31.1090 H   0  0  0  0  0  0  0  0  0  0  0  0
    1.0894   21.7368  -32.6697 H   0  0  0  0  0  0  0  0  0  0  0  0
    1.1932   20.0306  -33.0975 H   0  0  0  0  0  0  0  0  0  0  0  0
    0.0748   22.2256  -34.6959 H   0  0  0  0  0  0  0  0  0  0  0  0
    0.1678   20.5400  -35.1832 H   0  0  0  0  0  0  0  0  0  0  0  0
   -2.3620   21.2400  -34.7800 H   0  0  0  0  0  0  0  0  0  0  0  0
  1  2  1  0
  2  3  1  0
  3  4  2  0
  4  5  1  0
  5  6  2  0
  6  7  1  0
  7  8  2  0
  8  9  1  0
  9 10  1  0
 10 11  1  0
 11 12  1  0
 12 13  2  0
 13 14  1  0
 14 15  1  0
 15 16  1  0
 11 17  1  0
  8  3  1  0
 16 12  1  0
 17  7  1  0
  1 18  1  0
  1 19  1  0
  1 20  1  0
  4 21  1  0
  5 22  1  0
  6 23  1  0
 10 24  1  0
 10 25  1  0
 11 26  1  6
 13 27  1  0
 14 28  1  0
 14 29  1  0
 15 30  1  0
 15 31  1  0
 16 32  1  0
M  CHG  1  13   1
M  END
>  <UniqueID>  (24) 
23

>  <SMILES>  (24) 
COc1cccc2c1OC[C@@H](C1=[NH+]CCN1)O2

>  <Energy>  (24) 
44.10173940496892

>  <Genealogy>  (24) 
COc1cccc2c1OCC(C1=[NH+]CCN1)O2 (protonated)
COc1cccc2c1OC[C@@H](C1=[NH+]CCN1)O2 (chirality)
COc1cccc2c1OC[C@@H](C1=[NH+]CCN1)O2 (3D coordinates assigned)
COc1cccc2c1OC[C@@H](C1=[NH+]CCN1)O2 (nonaromatic ring conformer: 44.10173940496892 kcal/mol)

>  <smiles>  (24) 
COc1cccc2c1OCC(C1=NCCN1)O2

>  <score_type>  (24) 
oracle

>  <origin>  (24) 
adg

>  <m_score__min__energy>  (24) 
-5.0800000000000001

>  <m_primary>  (24) 
energy

$$$$
24:0
     RDKit          3D

 62 65  0  0  0  0  0  0  0  0999 V2000
   -9.4630   19.0350  -32.3400 C   0  0  0  0  0  0  0  0  0  0  0  0
   -8.7360   20.3490  -32.2380 C   0  0  0  0  0  0  0  0  0  0  0  0
   -9.4530   21.5190  -31.9350 C   0  0  0  0  0  0  0  0  0  0  0  0
   -8.7890   22.7440  -31.8140 C   0  0  0  0  0  0  0  0  0  0  0  0
   -7.4080   22.8150  -31.9990 C   0  0  0  0  0  0  0  0  0  0  0  0
   -6.6860   21.6610  -32.3130 C   0  0  0  0  0  0  0  0  0  0  0  0
   -7.3400   20.4270  -32.4440 C   0  0  0  0  0  0  0  0  0  0  0  0
   -6.5740   19.2650  -32.7940 N   0  0  0  0  0  0  0  0  0  0  0  0
   -6.2220   18.2920  -31.7570 C   0  0  0  0  0  0  0  0  0  0  0  0
   -5.3140   17.1970  -32.3350 C   0  0  0  0  0  0  0  0  0  0  0  0
   -4.2250   17.8050  -33.1350 N   0  0  0  0  0  0  0  0  0  0  0  0
   -3.1670   16.8350  -33.5380 C   0  0  0  0  0  0  0  0  0  0  0  0
   -1.7000   17.2380  -33.2290 C   0  0  0  0  0  0  0  0  0  0  0  0
   -1.3030   18.6600  -33.6590 C   0  0  0  0  0  0  0  0  0  0  0  0
   -2.0140   19.6990  -32.8840 N   0  0  0  0  0  0  0  0  0  0  0  0
   -2.3970   20.8260  -33.7500 C   0  0  0  0  0  0  0  0  0  0  0  0
   -3.3810   21.7140  -32.9910 C   0  0  0  0  0  0  0  0  0  0  0  0
   -2.9030   22.0040  -31.6290 N   0  0  0  0  0  0  0  0  0  0  0  0
   -3.6830   22.8370  -30.7330 C   0  0  0  0  0  0  0  0  0  0  0  0
   -3.8650   22.5010  -29.3750 C   0  0  0  0  0  0  0  0  0  0  0  0
   -4.6150   23.3400  -28.5480 C   0  0  0  0  0  0  0  0  0  0  0  0
   -5.1830   24.5040  -29.0660 C   0  0  0  0  0  0  0  0  0  0  0  0
   -4.9920   24.8120  -30.4120 C   0  0  0  0  0  0  0  0  0  0  0  0
   -4.2570   23.9840  -31.2020 N   0  0  0  0  0  0  0  0  0  0  0  0
   -1.5350   21.5950  -31.2620 C   0  0  0  0  0  0  0  0  0  0  0  0
   -1.2400   20.1440  -31.6980 C   0  0  0  0  0  0  0  0  0  0  0  0
   -4.7020   18.6440  -34.2740 C   0  0  0  0  0  0  0  0  0  0  0  0
   -6.1920   19.0240  -34.1880 C   0  0  0  0  0  0  0  0  0  0  0  0
   -9.6741   18.6534  -31.3301 H   0  0  0  0  0  0  0  0  0  0  0  0
  -10.4090   19.1805  -32.8822 H   0  0  0  0  0  0  0  0  0  0  0  0
   -8.8372   18.3108  -32.8822 H   0  0  0  0  0  0  0  0  0  0  0  0
  -10.5426   21.4711  -31.7922 H   0  0  0  0  0  0  0  0  0  0  0  0
   -9.3574   23.6542  -31.5722 H   0  0  0  0  0  0  0  0  0  0  0  0
   -6.8880   23.7790  -31.8977 H   0  0  0  0  0  0  0  0  0  0  0  0
   -5.5973   21.7204  -32.4585 H   0  0  0  0  0  0  0  0  0  0  0  0
   -5.6939   18.8072  -30.9411 H   0  0  0  0  0  0  0  0  0  0  0  0
   -7.1436   17.8269  -31.3771 H   0  0  0  0  0  0  0  0  0  0  0  0
   -4.8774   16.6143  -31.5105 H   0  0  0  0  0  0  0  0  0  0  0  0
   -5.9121   16.5400  -32.9836 H   0  0  0  0  0  0  0  0  0  0  0  0
   -3.7390   18.4690  -32.4830 H   0  0  0  0  0  0  0  0  0  0  0  0
   -3.3688   15.8864  -33.0190 H   0  0  0  0  0  0  0  0  0  0  0  0
   -3.2274   16.7792  -34.6349 H   0  0  0  0  0  0  0  0  0  0  0  0
   -1.5472   17.1567  -32.1427 H   0  0  0  0  0  0  0  0  0  0  0  0
   -1.0678   16.5558  -33.8162 H   0  0  0  0  0  0  0  0  0  0  0  0
   -0.2205   18.7857  -33.5094 H   0  0  0  0  0  0  0  0  0  0  0  0
   -1.5788   18.7812  -34.7169 H   0  0  0  0  0  0  0  0  0  0  0  0
   -1.5028   21.4083  -34.0169 H   0  0  0  0  0  0  0  0  0  0  0  0
   -2.8657   20.4488  -34.6709 H   0  0  0  0  0  0  0  0  0  0  0  0
   -3.5026   22.6613  -33.5368 H   0  0  0  0  0  0  0  0  0  0  0  0
   -4.3403   21.1812  -32.9150 H   0  0  0  0  0  0  0  0  0  0  0  0
   -3.4179   21.5816  -28.9690 H   0  0  0  0  0  0  0  0  0  0  0  0
   -4.7578   23.0829  -27.4880 H   0  0  0  0  0  0  0  0  0  0  0  0
   -5.7741   25.1703  -28.4205 H   0  0  0  0  0  0  0  0  0  0  0  0
   -5.4359   25.7251  -30.8354 H   0  0  0  0  0  0  0  0  0  0  0  0
   -0.8171   22.2684  -31.7532 H   0  0  0  0  0  0  0  0  0  0  0  0
   -1.4408   21.6515  -30.1675 H   0  0  0  0  0  0  0  0  0  0  0  0
   -0.1687   20.0654  -31.9351 H   0  0  0  0  0  0  0  0  0  0  0  0
   -1.5385   19.4944  -30.8620 H   0  0  0  0  0  0  0  0  0  0  0  0
   -4.1089   19.5702  -34.2941 H   0  0  0  0  0  0  0  0  0  0  0  0
   -4.5779   18.0432  -35.1870 H   0  0  0  0  0  0  0  0  0  0  0  0
   -6.3686   19.9368  -34.7760 H   0  0  0  0  0  0  0  0  0  0  0  0
   -6.7967   18.1965  -34.5876 H   0  0  0  0  0  0  0  0  0  0  0  0
  1  2  1  0
  2  3  2  0
  3  4  1  0
  4  5  2  0
  5  6  1  0
  6  7  2  0
  7  8  1  0
  8  9  1  0
  9 10  1  0
 10 11  1  0
 11 12  1  0
 12 13  1  0
 13 14  1  0
 14 15  1  0
 15 16  1  0
 16 17  1  0
 17 18  1  0
 18 19  1  0
 19 20  2  0
 20 21  1  0
 21 22  2  0
 22 23  1  0
 23 24  2  0
 18 25  1  0
 25 26  1  0
 11 27  1  0
 27 28  1  0
  7  2  1  0
 28  8  1  0
 26 15  1  0
 24 19  1  0
  1 29  1  0
  1 30  1  0
  1 31  1  0
  3 32  1  0
  4 33  1  0
  5 34  1  0
  6 35  1  0
  9 36  1  0
  9 37  1  0
 10 38  1  0
 10 39  1  0
 11 40  1  0
 12 41  1  0
 12 42  1  0
 13 43  1  0
 13 44  1  0
 14 45  1  0
 14 46  1  0
 16 47  1  0
 16 48  1  0
 17 49  1  0
 17 50  1  0
 20 51  1  0
 21 52  1  0
 22 53  1  0
 23 54  1  0
 25 55  1  0
 25 56  1  0
 26 57  1  0
 26 58  1  0
 27 59  1  0
 27 60  1  0
 28 61  1  0
 28 62  1  0
M  CHG  1  11   1
M  END
>  <UniqueID>  (25) 
24

>  <SMILES>  (25) 
Cc1ccccc1N1CC[NH+](CCCN2CCN(c3ccccn3)CC2)CC1

>  <Energy>  (25) 
88.05632635283949

>  <Genealogy>  (25) 
Cc1ccccc1N1CC[NH+](CCCN2CCN(c3ccccn3)CC2)CC1 (protonated)
Cc1ccccc1N1CC[NH+](CCCN2CCN(c3ccccn3)CC2)CC1 (3D coordinates assigned)
Cc1ccccc1N1CC[NH+](CCCN2CCN(c3ccccn3)CC2)CC1 (nonaromatic ring conformer: 88.05632635283949 kcal/mol)

>  <smiles>  (25) 
Cc1ccccc1N1CCN(CCCN2CCN(c3ccccn3)CC2)CC1

>  <score_type>  (25) 
oracle

>  <origin>  (25) 
adg

>  <m_score__min__energy>  (25) 
-8.1600000000000001

>  <m_primary>  (25) 
energy

$$$$
25:0
     RDKit          3D

 45 47  0  0  0  0  0  0  0  0999 V2000
   -2.7520   19.8920  -27.1130 C   0  0  0  0  0  0  0  0  0  0  0  0
   -2.1770   20.8710  -28.0940 C   0  0  0  0  0  0  0  0  0  0  0  0
   -1.0600   20.5220  -28.8670 C   0  0  0  0  0  0  0  0  0  0  0  0
   -0.5410   21.4250  -29.7970 C   0  0  0  0  0  0  0  0  0  0  0  0
   -1.1460   22.6700  -29.9810 C   0  0  0  0  0  0  0  0  0  0  0  0
   -2.2940   23.0170  -29.2480 C   0  0  0  0  0  0  0  0  0  0  0  0
   -2.9650   24.3610  -29.4560 C   0  0  0  0  0  0  0  0  0  0  0  0
   -4.0530   24.3420  -30.4600 N   0  0  0  0  0  0  0  0  0  0  0  0
   -5.3350   24.8850  -29.9610 C   0  0  0  0  0  0  0  0  0  0  0  0
   -6.4790   24.5250  -30.9140 C   0  0  0  0  0  0  0  0  0  0  0  0
   -6.6790   23.0580  -30.9810 N   0  0  0  0  0  0  0  0  0  0  0  0
   -7.4100   22.6870  -32.2100 C   0  0  0  0  0  0  0  0  0  0  0  0
   -7.6040   21.1950  -32.2750 C   0  0  0  0  0  0  0  0  0  0  0  0
   -8.6470   20.5900  -31.5540 C   0  0  0  0  0  0  0  0  0  0  0  0
   -8.8270   19.2050  -31.6030 C   0  0  0  0  0  0  0  0  0  0  0  0
   -7.9700   18.4140  -32.3720 C   0  0  0  0  0  0  0  0  0  0  0  0
   -6.9300   19.0070  -33.0930 C   0  0  0  0  0  0  0  0  0  0  0  0
   -6.7470   20.3930  -33.0470 C   0  0  0  0  0  0  0  0  0  0  0  0
   -5.4240   22.2760  -30.8150 C   0  0  0  0  0  0  0  0  0  0  0  0
   -4.1740   23.0750  -31.2190 C   0  0  0  0  0  0  0  0  0  0  0  0
   -2.7930   22.1150  -28.2930 C   0  0  0  0  0  0  0  0  0  0  0  0
   -2.5491   20.2374  -26.0885 H   0  0  0  0  0  0  0  0  0  0  0  0
   -3.8387   19.8153  -27.2656 H   0  0  0  0  0  0  0  0  0  0  0  0
   -2.2898   18.9056  -27.2656 H   0  0  0  0  0  0  0  0  0  0  0  0
   -0.5918   19.5347  -28.7403 H   0  0  0  0  0  0  0  0  0  0  0  0
    0.3474   21.1547  -30.3867 H   0  0  0  0  0  0  0  0  0  0  0  0
   -0.7219   23.3829  -30.7034 H   0  0  0  0  0  0  0  0  0  0  0  0
   -3.3871   24.6893  -28.4947 H   0  0  0  0  0  0  0  0  0  0  0  0
   -2.1933   25.0466  -29.8360 H   0  0  0  0  0  0  0  0  0  0  0  0
   -5.5449   24.4617  -28.9676 H   0  0  0  0  0  0  0  0  0  0  0  0
   -5.2564   25.9804  -29.8983 H   0  0  0  0  0  0  0  0  0  0  0  0
   -7.4058   24.9976  -30.5567 H   0  0  0  0  0  0  0  0  0  0  0  0
   -6.2216   24.8878  -31.9200 H   0  0  0  0  0  0  0  0  0  0  0  0
   -8.3930   23.1807  -32.2101 H   0  0  0  0  0  0  0  0  0  0  0  0
   -6.8252   23.0093  -33.0841 H   0  0  0  0  0  0  0  0  0  0  0  0
   -9.3250   21.2092  -30.9482 H   0  0  0  0  0  0  0  0  0  0  0  0
   -9.6447   18.7370  -31.0352 H   0  0  0  0  0  0  0  0  0  0  0  0
   -8.1138   17.3241  -32.4100 H   0  0  0  0  0  0  0  0  0  0  0  0
   -6.2548   18.3833  -33.6972 H   0  0  0  0  0  0  0  0  0  0  0  0
   -5.9289   20.8568  -33.6175 H   0  0  0  0  0  0  0  0  0  0  0  0
   -5.3287   21.9820  -29.7593 H   0  0  0  0  0  0  0  0  0  0  0  0
   -5.4874   21.3985  -31.4753 H   0  0  0  0  0  0  0  0  0  0  0  0
   -3.2825   22.4599  -31.0270 H   0  0  0  0  0  0  0  0  0  0  0  0
   -4.2630   23.3265  -32.2862 H   0  0  0  0  0  0  0  0  0  0  0  0
   -3.6756   22.3874  -27.6956 H   0  0  0  0  0  0  0  0  0  0  0  0
  1  2  1  0
  2  3  2  0
  3  4  1  0
  4  5  2  0
  5  6  1  0
  6  7  1  0
  7  8  1  0
  8  9  1  0
  9 10  1  0
 10 11  1  0
 11 12  1  0
 12 13  1  0
 13 14  2  0
 14 15  1  0
 15 16  2  0
 16 17  1  0
 17 18  2  0
 11 19  1  0
 19 20  1  0
  6 21  2  0
 21  2  1  0
 20  8  1  0
 18 13  1  0
  1 22  1  0
  1 23  1  0
  1 24  1  0
  3 25  1  0
  4 26  1  0
  5 27  1  0
  7 28  1  0
  7 29  1  0
  9 30  1  0
  9 31  1  0
 10 32  1  0
 10 33  1  0
 12 34  1  0
 12 35  1  0
 14 36  1  0
 15 37  1  0
 16 38  1  0
 17 39  1  0
 18 40  1  0
 19 41  1  0
 19 42  1  0
 20 43  1  0
 20 44  1  0
 21 45  1  0
M  END
>  <UniqueID>  (26) 
25

>  <SMILES>  (26) 
Cc1cccc(CN2CCN(Cc3ccccc3)CC2)c1

>  <Energy>  (26) 
60.48898287869307

>  <Genealogy>  (26) 
Cc1cccc(CN2CCN(Cc3ccccc3)CC2)c1 (3D coordinates assigned)
Cc1cccc(CN2CCN(Cc3ccccc3)CC2)c1 (nonaromatic ring conformer: 60.48898287869307 kcal/mol)

>  <smiles>  (26) 
Cc1cccc(CN2CCN(Cc3ccccc3)CC2)c1

>  <score_type>  (26) 
oracle

>  <origin>  (26) 
adg

>  <m_score__min__energy>  (26) 
-8.0500000000000007

>  <m_primary>  (26) 
energy

$$$$
26:0
     RDKit          3D

 37 39  0  0  0  0  0  0  0  0999 V2000
   -6.4580   25.2950  -30.1670 C   0  0  0  0  0  0  0  0  0  0  0  0
   -6.3450   23.9590  -30.7650 N   0  0  0  0  0  0  0  0  0  0  0  0
   -7.4550   23.2580  -31.0260 N   0  0  0  0  0  0  0  0  0  0  0  0
   -7.4090   22.0220  -31.5840 C   0  0  0  0  0  0  0  0  0  0  0  0
   -6.1800   21.4400  -31.9070 C   0  0  0  0  0  0  0  0  0  0  0  0
   -6.1590   20.0660  -32.4630 C   0  0  0  0  0  0  0  0  0  0  0  0
   -6.1220   19.8540  -33.8500 C   0  0  0  0  0  0  0  0  0  0  0  0
   -6.1060   18.5500  -34.3480 C   0  0  0  0  0  0  0  0  0  0  0  0
   -6.1170   17.4930  -33.4930 N   0  0  0  0  0  0  0  0  0  0  0  0
   -6.1420   17.6670  -32.1460 C   0  0  0  0  0  0  0  0  0  0  0  0
   -6.1600   18.9550  -31.6050 C   0  0  0  0  0  0  0  0  0  0  0  0
   -5.0010   22.1780  -31.6640 C   0  0  0  0  0  0  0  0  0  0  0  0
   -3.6670   21.6540  -32.0540 C   0  0  0  0  0  0  0  0  0  0  0  0
   -3.3810   21.3790  -33.4000 C   0  0  0  0  0  0  0  0  0  0  0  0
   -2.1380   20.8540  -33.7610 C   0  0  0  0  0  0  0  0  0  0  0  0
   -1.1680   20.6130  -32.7860 C   0  0  0  0  0  0  0  0  0  0  0  0
   -1.4250   20.9130  -31.4370 C   0  0  0  0  0  0  0  0  0  0  0  0
   -0.3980   20.6020  -30.3760 C   0  0  0  0  0  0  0  0  0  0  0  0
    0.7770   20.1520  -30.9530 F   0  0  0  0  0  0  0  0  0  0  0  0
   -0.1340   21.7480  -29.6510 F   0  0  0  0  0  0  0  0  0  0  0  0
   -0.8610   19.6220  -29.5170 F   0  0  0  0  0  0  0  0  0  0  0  0
   -2.6880   21.4140  -31.0770 C   0  0  0  0  0  0  0  0  0  0  0  0
   -5.1120   23.4550  -31.0830 C   0  0  0  0  0  0  0  0  0  0  0  0
   -4.0720   24.1420  -30.8720 O   0  0  0  0  0  0  0  0  0  0  0  0
   -6.4506   25.2077  -29.0705 H   0  0  0  0  0  0  0  0  0  0  0  0
   -5.6091   25.9148  -30.4912 H   0  0  0  0  0  0  0  0  0  0  0  0
   -7.3990   25.7635  -30.4912 H   0  0  0  0  0  0  0  0  0  0  0  0
   -8.3960   23.6530  -30.7970 H   0  0  0  0  0  0  0  0  0  0  0  0
   -8.3428   21.4758  -31.7830 H   0  0  0  0  0  0  0  0  0  0  0  0
   -6.1057   20.7102  -34.5404 H   0  0  0  0  0  0  0  0  0  0  0  0
   -6.0845   18.3773  -35.4342 H   0  0  0  0  0  0  0  0  0  0  0  0
   -6.1481   16.7918  -31.4797 H   0  0  0  0  0  0  0  0  0  0  0  0
   -6.1749   19.0975  -30.5144 H   0  0  0  0  0  0  0  0  0  0  0  0
   -4.1379   21.5775  -34.1731 H   0  0  0  0  0  0  0  0  0  0  0  0
   -1.9227   20.6298  -34.8162 H   0  0  0  0  0  0  0  0  0  0  0  0
   -0.1966   20.1857  -33.0754 H   0  0  0  0  0  0  0  0  0  0  0  0
   -2.9113   21.6199  -30.0198 H   0  0  0  0  0  0  0  0  0  0  0  0
  1  2  1  0
  2  3  1  0
  3  4  2  0
  4  5  1  0
  5  6  1  0
  6  7  2  0
  7  8  1  0
  8  9  2  0
  9 10  1  0
 10 11  2  0
  5 12  2  0
 12 13  1  0
 13 14  2  0
 14 15  1  0
 15 16  2  0
 16 17  1  0
 17 18  1  0
 18 19  1  0
 18 20  1  0
 18 21  1  0
 17 22  2  0
 12 23  1  0
 23 24  2  0
 23  2  1  0
 11  6  1  0
 22 13  1  0
  1 25  1  0
  1 26  1  0
  1 27  1  0
  3 28  1  0
  4 29  1  0
  7 30  1  0
  8 31  1  0
 10 32  1  0
 11 33  1  0
 14 34  1  0
 15 35  1  0
 16 36  1  0
 22 37  1  0
M  CHG  1   3   1
M  END
>  <UniqueID>  (27) 
26

>  <SMILES>  (27) 
Cn1[nH+]cc(-c2ccncc2)c(-c2cccc(C(F)(F)F)c2)c1=O

>  <Energy>  (27) 
56.28499468227422

>  <Genealogy>  (27) 
Cn1[nH+]cc(-c2ccncc2)c(-c2cccc(C(F)(F)F)c2)c1=O (protonated)
Cn1[nH+]cc(-c2ccncc2)c(-c2cccc(C(F)(F)F)c2)c1=O (3D coordinates assigned)
Cn1[nH+]cc(-c2ccncc2)c(-c2cccc(C(F)(F)F)c2)c1=O (optimized conformer: 56.28499468227422 kcal/mol)

>  <smiles>  (27) 
Cn1ncc(-c2ccncc2)c(-c2cccc(C(F)(F)F)c2)c1=O

>  <score_type>  (27) 
oracle

>  <origin>  (27) 
adg

>  <m_score__min__energy>  (27) 
-6.7400000000000002

>  <m_primary>  (27) 
energy

$$$$
27:0
     RDKit          3D

 56 59  0  0  1  0  0  0  0  0999 V2000
    1.2640   16.9500  -27.4670 C   0  0  0  0  0  0  0  0  0  0  0  0
   -0.0870   17.1800  -27.0730 O   0  0  0  0  0  0  0  0  0  0  0  0
   -0.5960   18.4330  -27.4590 C   0  0  0  0  0  0  0  0  0  0  0  0
   -0.0840   19.0940  -28.5680 C   0  0  0  0  0  0  0  0  0  0  0  0
   -0.5720   20.3360  -28.9670 C   0  0  0  0  0  0  0  0  0  0  0  0
   -1.5900   20.9350  -28.2530 C   0  0  0  0  0  0  0  0  0  0  0  0
   -2.0670   22.2330  -28.7100 C   0  0  0  0  0  0  0  0  0  0  0  0
   -3.0720   22.3920  -29.6390 C   0  0  0  0  0  0  0  0  0  0  0  0
   -3.4560   23.6600  -30.0090 C   0  0  0  0  0  0  0  0  0  0  0  0
   -4.3840   23.9040  -30.8680 N   0  0  0  0  0  0  0  0  0  0  0  0
   -4.8460   22.8090  -31.7000 C   0  0  0  0  0  0  0  0  0  0  0  0
   -6.2710   22.5570  -31.3050 C   0  0  1  0  0  0  0  0  0  0  0  0
   -7.2520   23.4820  -31.9420 C   0  0  0  0  0  0  0  0  0  0  0  0
   -8.5730   22.7560  -31.7550 C   0  0  0  0  0  0  0  0  0  0  0  0
   -8.1520   21.3680  -31.2730 C   0  0  0  0  0  0  0  0  0  0  0  0
   -6.7640   21.2410  -31.6610 N   0  0  0  0  0  0  0  0  0  0  0  0
   -6.5500   20.9240  -33.0350 C   0  0  0  0  0  0  0  0  0  0  0  0
   -6.4770   19.4700  -33.2440 C   0  0  0  0  0  0  0  0  0  0  0  0
   -5.7860   18.8620  -34.2710 C   0  0  0  0  0  0  0  0  0  0  0  0
   -5.7350   17.4970  -34.4490 C   0  0  0  0  0  0  0  0  0  0  0  0
   -6.4080   16.6700  -33.5610 C   0  0  0  0  0  0  0  0  0  0  0  0
   -7.0930   17.3020  -32.5410 C   0  0  0  0  0  0  0  0  0  0  0  0
   -7.1260   18.6380  -32.3900 N   0  0  0  0  0  0  0  0  0  0  0  0
   -2.8430   24.7300  -29.4560 N   0  0  0  0  0  0  0  0  0  0  0  0
   -1.8610   24.5930  -28.5480 C   0  0  0  0  0  0  0  0  0  0  0  0
   -1.1710   25.7670  -27.9260 C   0  0  0  0  0  0  0  0  0  0  0  0
   -1.4900   23.3290  -28.1890 N   0  0  0  0  0  0  0  0  0  0  0  0
   -2.0990   20.2790  -27.1530 C   0  0  0  0  0  0  0  0  0  0  0  0
   -1.6060   19.0620  -26.7760 C   0  0  0  0  0  0  0  0  0  0  0  0
    1.8939   16.8428  -26.5716 H   0  0  0  0  0  0  0  0  0  0  0  0
    1.3194   16.0295  -28.0667 H   0  0  0  0  0  0  0  0  0  0  0  0
    1.6209   17.8003  -28.0667 H   0  0  0  0  0  0  0  0  0  0  0  0
    0.7266   18.6252  -29.1452 H   0  0  0  0  0  0  0  0  0  0  0  0
   -0.1472   20.8381  -29.8487 H   0  0  0  0  0  0  0  0  0  0  0  0
   -3.5631   21.5125  -30.0810 H   0  0  0  0  0  0  0  0  0  0  0  0
   -4.7881   23.0867  -32.7628 H   0  0  0  0  0  0  0  0  0  0  0  0
   -4.2264   21.9107  -31.5615 H   0  0  0  0  0  0  0  0  0  0  0  0
   -6.2152   22.6961  -30.2153 H   0  0  0  0  0  0  0  0  0  0  0  0
   -7.2618   24.4585  -31.4356 H   0  0  0  0  0  0  0  0  0  0  0  0
   -7.0220   23.7014  -32.9951 H   0  0  0  0  0  0  0  0  0  0  0  0
   -9.1963   23.2613  -31.0025 H   0  0  0  0  0  0  0  0  0  0  0  0
   -9.1788   22.7254  -32.6726 H   0  0  0  0  0  0  0  0  0  0  0  0
   -8.2567   21.2900  -30.1808 H   0  0  0  0  0  0  0  0  0  0  0  0
   -8.7764   20.5733  -31.7072 H   0  0  0  0  0  0  0  0  0  0  0  0
   -7.3814   21.3300  -33.6299 H   0  0  0  0  0  0  0  0  0  0  0  0
   -5.5935   21.3678  -33.3483 H   0  0  0  0  0  0  0  0  0  0  0  0
   -5.2470   19.5010  -34.9860 H   0  0  0  0  0  0  0  0  0  0  0  0
   -5.1665   17.0669  -35.2867 H   0  0  0  0  0  0  0  0  0  0  0  0
   -6.3968   15.5748  -33.6632 H   0  0  0  0  0  0  0  0  0  0  0  0
   -7.6391   16.6809  -31.8157 H   0  0  0  0  0  0  0  0  0  0  0  0
   -3.1150   25.7060  -29.7200 H   0  0  0  0  0  0  0  0  0  0  0  0
   -1.2203   25.6831  -26.8303 H   0  0  0  0  0  0  0  0  0  0  0  0
   -0.1185   25.7852  -28.2453 H   0  0  0  0  0  0  0  0  0  0  0  0
   -1.6672   26.6954  -28.2453 H   0  0  0  0  0  0  0  0  0  0  0  0
   -2.9112   20.7405  -26.5722 H   0  0  0  0  0  0  0  0  0  0  0  0
   -2.0349   18.5679  -25.8917 H   0  0  0  0  0  0  0  0  0  0  0  0
  1  2  1  0
  2  3  1  0
  3  4  2  0
  4  5  1  0
  5  6  2  0
  6  7  1  0
  7  8  2  0
  8  9  1  0
  9 10  2  0
 10 11  1  0
 11 12  1  0
 12 13  1  0
 13 14  1  0
 14 15  1  0
 15 16  1  0
 16 17  1  0
 17 18  1  0
 18 19  2  0
 19 20  1  0
 20 21  2  0
 21 22  1  0
 22 23  2  0
  9 24  1  0
 24 25  1  0
 25 26  1  0
 25 27  2  0
  6 28  1  0
 28 29  2  0
 29  3  1  0
 27  7  1  0
 16 12  1  0
 23 18  1  0
  1 30  1  0
  1 31  1  0
  1 32  1  0
  4 33  1  0
  5 34  1  0
  8 35  1  0
 11 36  1  0
 11 37  1  0
 12 38  1  1
 13 39  1  0
 13 40  1  0
 14 41  1  0
 14 42  1  0
 15 43  1  0
 15 44  1  0
 17 45  1  0
 17 46  1  0
 19 47  1  0
 20 48  1  0
 21 49  1  0
 22 50  1  0
 24 51  1  0
 26 52  1  0
 26 53  1  0
 26 54  1  0
 28 55  1  0
 29 56  1  0
M  END
>  <smiles>  (28) 
COc1ccc(-c2cc(=NCC3CCCN3Cc3ccccn3)[nH]c(C)n2)cc1

>  <score_type>  (28) 
oracle

>  <origin>  (28) 
adg

>  <m_score__min__energy>  (28) 
-9.6500000000000004

>  <m_primary>  (28) 
energy

$$$$
28:0
     RDKit          3D

 73 76  0  0  0  0  0  0  0  0999 V2000
   -4.1060   21.9420  -33.6830 O   0  0  0  0  0  0  0  0  0  0  0  0
   -3.5390   21.0470  -33.0680 C   0  0  0  0  0  0  0  0  0  0  0  0
   -2.0900   21.2000  -32.6640 C   0  0  0  0  0  0  0  0  0  0  0  0
   -1.9040   21.3380  -31.1470 C   0  0  0  0  0  0  0  0  0  0  0  0
   -3.1180   22.0090  -30.4930 C   0  0  0  0  0  0  0  0  0  0  0  0
   -2.8240   23.4390  -30.2430 N   0  0  0  0  0  0  0  0  0  0  0  0
   -1.8480   23.6870  -29.1530 C   0  0  1  0  0  0  0  0  0  0  0  0
   -1.5900   25.1690  -28.9050 C   0  0  0  0  0  0  0  0  0  0  0  0
   -1.3830   25.6720  -27.6770 C   0  0  0  0  0  0  0  0  0  0  0  0
   -1.5750   24.8600  -26.4230 C   0  0  0  0  0  0  0  0  0  0  0  0
   -1.4420   23.3560  -26.6820 C   0  0  0  0  0  0  0  0  0  0  0  0
   -2.3020   22.9480  -27.8780 C   0  0  0  0  0  0  0  0  0  0  0  0
   -4.2930   24.3760  -30.0270 S   0  0  0  0  0  0  0  0  0  0  0  0
   -4.4890   24.7260  -28.5790 O   0  0  0  0  0  0  0  0  0  0  0  0
   -4.1990   25.6520  -30.8170 O   0  0  0  0  0  0  0  0  0  0  0  0
   -5.6910   23.4620  -30.5960 C   0  0  0  0  0  0  0  0  0  0  0  0
   -6.4690   22.7320  -29.6870 C   0  0  0  0  0  0  0  0  0  0  0  0
   -7.6360   22.0930  -30.1160 C   0  0  0  0  0  0  0  0  0  0  0  0
   -8.0320   22.1810  -31.4550 C   0  0  0  0  0  0  0  0  0  0  0  0
   -9.5130   21.4060  -31.9850 Cl  0  0  0  0  0  0  0  0  0  0  0  0
   -7.2520   22.8980  -32.3670 C   0  0  0  0  0  0  0  0  0  0  0  0
   -6.0830   23.5350  -31.9410 C   0  0  0  0  0  0  0  0  0  0  0  0
   -4.2570   19.8320  -32.7350 N   0  0  0  0  0  0  0  0  0  0  0  0
   -4.6130   19.0650  -33.9630 C   0  0  0  0  0  0  0  0  0  0  0  0
   -6.1280   18.8670  -34.1230 C   0  0  0  0  0  0  0  0  0  0  0  0
   -6.7330   18.2380  -32.9200 N   0  0  0  0  0  0  0  0  0  0  0  0
   -6.5500   16.7530  -32.8330 C   0  0  0  0  0  0  0  0  0  0  0  0
   -5.4030   16.3410  -31.8580 C   0  0  0  0  0  0  0  0  0  0  0  0
   -4.8610   14.9400  -32.1620 C   0  0  0  0  0  0  0  0  0  0  0  0
   -4.2150   14.8780  -33.5580 C   0  0  0  0  0  0  0  0  0  0  0  0
   -4.8290   15.8810  -34.5500 C   0  0  0  0  0  0  0  0  0  0  0  0
   -6.3120   16.1300  -34.2510 C   0  0  0  0  0  0  0  0  0  0  0  0
   -6.3030   18.9230  -31.6630 C   0  0  0  0  0  0  0  0  0  0  0  0
   -5.4220   20.1640  -31.8870 C   0  0  0  0  0  0  0  0  0  0  0  0
   -1.5348   20.3143  -33.0065 H   0  0  0  0  0  0  0  0  0  0  0  0
   -1.7139   22.1238  -33.1279 H   0  0  0  0  0  0  0  0  0  0  0  0
   -1.7699   20.3373  -30.7104 H   0  0  0  0  0  0  0  0  0  0  0  0
   -1.0201   21.9662  -30.9624 H   0  0  0  0  0  0  0  0  0  0  0  0
   -3.9865   21.9260  -31.1629 H   0  0  0  0  0  0  0  0  0  0  0  0
   -3.3390   21.5103  -29.5378 H   0  0  0  0  0  0  0  0  0  0  0  0
   -0.8754   23.2824  -29.4698 H   0  0  0  0  0  0  0  0  0  0  0  0
   -1.5727   25.8534  -29.7660 H   0  0  0  0  0  0  0  0  0  0  0  0
   -1.0602   26.7194  -27.5832 H   0  0  0  0  0  0  0  0  0  0  0  0
   -0.8158   25.1612  -25.6862 H   0  0  0  0  0  0  0  0  0  0  0  0
   -2.5922   25.0500  -26.0499 H   0  0  0  0  0  0  0  0  0  0  0  0
   -0.3895   23.1152  -26.8924 H   0  0  0  0  0  0  0  0  0  0  0  0
   -1.7822   22.8071  -25.7915 H   0  0  0  0  0  0  0  0  0  0  0  0
   -2.2087   21.8635  -28.0366 H   0  0  0  0  0  0  0  0  0  0  0  0
   -3.3485   23.2144  -27.6684 H   0  0  0  0  0  0  0  0  0  0  0  0
   -6.1606   22.6617  -28.6335 H   0  0  0  0  0  0  0  0  0  0  0  0
   -8.2437   21.5203  -29.3999 H   0  0  0  0  0  0  0  0  0  0  0  0
   -7.5587   22.9610  -33.4215 H   0  0  0  0  0  0  0  0  0  0  0  0
   -5.4691   24.0948  -32.6620 H   0  0  0  0  0  0  0  0  0  0  0  0
   -3.6230   19.2260  -32.1580 H   0  0  0  0  0  0  0  0  0  0  0  0
   -4.2353   19.6109  -34.8401 H   0  0  0  0  0  0  0  0  0  0  0  0
   -4.1562   18.0682  -33.8749 H   0  0  0  0  0  0  0  0  0  0  0  0
   -6.5997   19.8470  -34.2876 H   0  0  0  0  0  0  0  0  0  0  0  0
   -6.2966   18.1980  -34.9797 H   0  0  0  0  0  0  0  0  0  0  0  0
   -7.4860   16.3500  -32.4189 H   0  0  0  0  0  0  0  0  0  0  0  0
   -4.5815   17.0666  -31.9506 H   0  0  0  0  0  0  0  0  0  0  0  0
   -5.8141   16.3303  -30.8378 H   0  0  0  0  0  0  0  0  0  0  0  0
   -4.1062   14.6766  -31.4064 H   0  0  0  0  0  0  0  0  0  0  0  0
   -5.7017   14.2310  -32.1379 H   0  0  0  0  0  0  0  0  0  0  0  0
   -3.1417   15.0968  -33.4575 H   0  0  0  0  0  0  0  0  0  0  0  0
   -4.3928   13.8689  -33.9581 H   0  0  0  0  0  0  0  0  0  0  0  0
   -4.2847   16.8342  -34.4776 H   0  0  0  0  0  0  0  0  0  0  0  0
   -4.7469   15.4594  -35.5627 H   0  0  0  0  0  0  0  0  0  0  0  0
   -6.7124   16.8191  -35.0092 H   0  0  0  0  0  0  0  0  0  0  0  0
   -6.8224   15.1558  -34.2743 H   0  0  0  0  0  0  0  0  0  0  0  0
   -7.2044   19.2350  -31.1152 H   0  0  0  0  0  0  0  0  0  0  0  0
   -5.6913   18.1996  -31.1039 H   0  0  0  0  0  0  0  0  0  0  0  0
   -6.0178   20.9452  -32.3817 H   0  0  0  0  0  0  0  0  0  0  0  0
   -5.0592   20.5208  -30.9118 H   0  0  0  0  0  0  0  0  0  0  0  0
  1  2  2  0
  2  3  1  0
  3  4  1  0
  4  5  1  0
  5  6  1  0
  6  7  1  0
  7  8  1  0
  8  9  2  0
  9 10  1  0
 10 11  1  0
 11 12  1  0
  6 13  1  0
 13 14  2  0
 13 15  2  0
 13 16  1  0
 16 17  2  0
 17 18  1  0
 18 19  2  0
 19 20  1  0
 19 21  1  0
 21 22  2  0
  2 23  1  0
 23 24  1  0
 24 25  1  0
 25 26  1  0
 26 27  1  0
 27 28  1  0
 28 29  1  0
 29 30  1  0
 30 31  1  0
 31 32  1  0
 26 33  1  0
 33 34  1  0
 12  7  1  0
 22 16  1  0
 34 23  1  0
 32 27  1  0
  3 35  1  0
  3 36  1  0
  4 37  1  0
  4 38  1  0
  5 39  1  0
  5 40  1  0
  7 41  1  6
  8 42  1  0
  9 43  1  0
 10 44  1  0
 10 45  1  0
 11 46  1  0
 11 47  1  0
 12 48  1  0
 12 49  1  0
 17 50  1  0
 18 51  1  0
 21 52  1  0
 22 53  1  0
 23 54  1  0
 24 55  1  0
 24 56  1  0
 25 57  1  0
 25 58  1  0
 27 59  1  0
 28 60  1  0
 28 61  1  0
 29 62  1  0
 29 63  1  0
 30 64  1  0
 30 65  1  0
 31 66  1  0
 31 67  1  0
 32 68  1  0
 32 69  1  0
 33 70  1  0
 33 71  1  0
 34 72  1  0
 34 73  1  0
M  CHG  1  23   1
M  END
>  <UniqueID>  (29) 
27

>  <SMILES>  (29) 
O=C(CCCN([C@H]1C=CCCC1)S(=O)(=O)c1ccc(Cl)cc1)[NH+]1CCN(C2CCCCC2)CC1

>  <Energy>  (29) 
96.28455750949793

>  <Genealogy>  (29) 
O=C(CCCN(C1C=CCCC1)S(=O)(=O)c1ccc(Cl)cc1)[NH+]1CCN(C2CCCCC2)CC1 (protonated)
O=C(CCCN([C@H]1C=CCCC1)S(=O)(=O)c1ccc(Cl)cc1)[NH+]1CCN(C2CCCCC2)CC1 (chirality)
O=C(CCCN([C@H]1C=CCCC1)S(=O)(=O)c1ccc(Cl)cc1)[NH+]1CCN(C2CCCCC2)CC1 (3D coordinates assigned)
O=C(CCCN([C@H]1C=CCCC1)S(=O)(=O)c1ccc(Cl)cc1)[NH+]1CCN(C2CCCCC2)CC1 (nonaromatic ring conformer: 96.28455750949793 kcal/mol)

>  <smiles>  (29) 
O=C(CCCN(C1C=CCCC1)S(=O)(=O)c1ccc(Cl)cc1)N1CCN(C2CCCCC2)CC1

>  <score_type>  (29) 
oracle

>  <origin>  (29) 
adg

>  <m_score__min__energy>  (29) 
-10.83

>  <m_primary>  (29) 
energy

$$$$
29:0
     RDKit          3D

 59 63  0  0  0  0  0  0  0  0999 V2000
   -7.8430   18.2320  -31.2600 O   0  0  0  0  0  0  0  0  0  0  0  0
   -7.3710   18.8330  -32.2670 C   0  0  0  0  0  0  0  0  0  0  0  0
   -7.9710   20.1670  -32.6620 C   0  0  1  0  0  0  0  0  0  0  0  0
   -9.4640   20.2510  -32.2540 C   0  0  0  0  0  0  0  0  0  0  0  0
   -9.6460   21.5370  -31.4420 C   0  0  0  0  0  0  0  0  0  0  0  0
   -8.2710   22.0510  -31.2940 C   0  0  0  0  0  0  0  0  0  0  0  0
   -7.9900   23.0850  -30.6340 O   0  0  0  0  0  0  0  0  0  0  0  0
   -7.3040   21.2790  -31.9880 N   0  0  0  0  0  0  0  0  0  0  0  0
   -5.9110   21.6790  -32.2650 C   0  0  0  0  0  0  0  0  0  0  0  0
   -5.7600   23.2190  -32.3260 C   0  0  0  0  0  0  0  0  0  0  0  0
   -4.9350   23.7730  -31.1560 C   0  0  0  0  0  0  0  0  0  0  0  0
   -3.5850   23.1640  -31.0950 N   0  0  0  0  0  0  0  0  0  0  0  0
   -2.9300   23.5080  -29.8140 C   0  0  0  0  0  0  0  0  0  0  0  0
   -2.4340   22.2630  -29.1260 C   0  0  0  0  0  0  0  0  0  0  0  0
   -1.1190   21.7890  -29.3790 C   0  0  0  0  0  0  0  0  0  0  0  0
   -0.6410   20.6340  -28.7340 C   0  0  0  0  0  0  0  0  0  0  0  0
   -1.4960   19.9820  -27.8520 C   0  0  0  0  0  0  0  0  0  0  0  0
   -2.7550   20.4250  -27.6100 C   0  0  0  0  0  0  0  0  0  0  0  0
   -3.2680   21.5640  -28.2250 C   0  0  0  0  0  0  0  0  0  0  0  0
   -3.3730   19.5890  -26.7000 O   0  0  0  0  0  0  0  0  0  0  0  0
   -2.4430   18.5590  -26.3420 C   0  0  0  0  0  0  0  0  0  0  0  0
   -1.2580   18.8480  -27.1000 O   0  0  0  0  0  0  0  0  0  0  0  0
   -3.5580   21.6980  -31.3590 C   0  0  0  0  0  0  0  0  0  0  0  0
   -4.9380   21.0300  -31.2590 C   0  0  0  0  0  0  0  0  0  0  0  0
   -6.3100   18.2090  -33.0320 N   0  0  0  0  0  0  0  0  0  0  0  0
   -5.9120   18.7580  -34.3400 C   0  0  0  0  0  0  0  0  0  0  0  0
   -4.6440   18.0970  -34.8900 C   0  0  0  0  0  0  0  0  0  0  0  0
   -4.6790   16.7020  -34.6970 O   0  0  0  0  0  0  0  0  0  0  0  0
   -4.5590   16.4380  -33.3180 C   0  0  0  0  0  0  0  0  0  0  0  0
   -5.8030   16.9080  -32.5580 C   0  0  0  0  0  0  0  0  0  0  0  0
   -7.8483   20.2394  -33.7527 H   0  0  0  0  0  0  0  0  0  0  0  0
  -10.0980   20.2808  -33.1524 H   0  0  0  0  0  0  0  0  0  0  0  0
   -9.7539   19.3722  -31.6593 H   0  0  0  0  0  0  0  0  0  0  0  0
  -10.2783   22.2567  -31.9826 H   0  0  0  0  0  0  0  0  0  0  0  0
  -10.1448   21.3661  -30.4766 H   0  0  0  0  0  0  0  0  0  0  0  0
   -5.6420   21.3018  -33.2626 H   0  0  0  0  0  0  0  0  0  0  0  0
   -5.2610   23.4879  -33.2687 H   0  0  0  0  0  0  0  0  0  0  0  0
   -6.7669   23.6574  -32.2636 H   0  0  0  0  0  0  0  0  0  0  0  0
   -4.8292   24.8610  -31.2790 H   0  0  0  0  0  0  0  0  0  0  0  0
   -5.4617   23.5292  -30.2216 H   0  0  0  0  0  0  0  0  0  0  0  0
   -2.0791   24.1769  -30.0103 H   0  0  0  0  0  0  0  0  0  0  0  0
   -3.6618   24.0079  -29.1624 H   0  0  0  0  0  0  0  0  0  0  0  0
   -0.4700   22.3289  -30.0842 H   0  0  0  0  0  0  0  0  0  0  0  0
    0.3759   20.2587  -28.9211 H   0  0  0  0  0  0  0  0  0  0  0  0
   -4.2913   21.9090  -28.0157 H   0  0  0  0  0  0  0  0  0  0  0  0
   -2.2290   18.5893  -25.2635 H   0  0  0  0  0  0  0  0  0  0  0  0
   -2.8362   17.5544  -26.5571 H   0  0  0  0  0  0  0  0  0  0  0  0
   -3.1650   21.5344  -32.3733 H   0  0  0  0  0  0  0  0  0  0  0  0
   -2.9220   21.2424  -30.5857 H   0  0  0  0  0  0  0  0  0  0  0  0
   -4.8413   19.9579  -31.4852 H   0  0  0  0  0  0  0  0  0  0  0  0
   -5.3305   21.1616  -30.2399 H   0  0  0  0  0  0  0  0  0  0  0  0
   -6.7325   18.5974  -35.0549 H   0  0  0  0  0  0  0  0  0  0  0  0
   -5.6997   19.8287  -34.2036 H   0  0  0  0  0  0  0  0  0  0  0  0
   -4.5651   18.3096  -35.9664 H   0  0  0  0  0  0  0  0  0  0  0  0
   -3.7747   18.5040  -34.3528 H   0  0  0  0  0  0  0  0  0  0  0  0
   -4.4341   15.3554  -33.1687 H   0  0  0  0  0  0  0  0  0  0  0  0
   -3.6857   16.9840  -32.9317 H   0  0  0  0  0  0  0  0  0  0  0  0
   -6.5957   16.1558  -32.6838 H   0  0  0  0  0  0  0  0  0  0  0  0
   -5.5174   17.0306  -31.5028 H   0  0  0  0  0  0  0  0  0  0  0  0
  1  2  2  0
  2  3  1  0
  3  4  1  0
  4  5  1  0
  5  6  1  0
  6  7  2  0
  6  8  1  0
  8  9  1  0
  9 10  1  0
 10 11  1  0
 11 12  1  0
 12 13  1  0
 13 14  1  0
 14 15  2  0
 15 16  1  0
 16 17  2  0
 17 18  1  0
 18 19  2  0
 18 20  1  0
 20 21  1  0
 21 22  1  0
 12 23  1  0
 23 24  1  0
  2 25  1  0
 25 26  1  0
 26 27  1  0
 27 28  1  0
 28 29  1  0
 29 30  1  0
  8  3  1  0
 24  9  1  0
 30 25  1  0
 19 14  1  0
 22 17  1  0
  3 31  1  6
  4 32  1  0
  4 33  1  0
  5 34  1  0
  5 35  1  0
  9 36  1  0
 10 37  1  0
 10 38  1  0
 11 39  1  0
 11 40  1  0
 13 41  1  0
 13 42  1  0
 15 43  1  0
 16 44  1  0
 19 45  1  0
 21 46  1  0
 21 47  1  0
 23 48  1  0
 23 49  1  0
 24 50  1  0
 24 51  1  0
 26 52  1  0
 26 53  1  0
 27 54  1  0
 27 55  1  0
 29 56  1  0
 29 57  1  0
 30 58  1  0
 30 59  1  0
M  END
>  <UniqueID>  (30) 
28

>  <SMILES>  (30) 
O=C([C@H]1CCC(=O)N1C1CCN(Cc2ccc3c(c2)OCO3)CC1)N1CCOCC1

>  <Energy>  (30) 
107.15477312509451

>  <Genealogy>  (30) 
O=C([C@H]1CCC(=O)N1C1CCN(Cc2ccc3c(c2)OCO3)CC1)N1CCOCC1 (chirality)
O=C([C@H]1CCC(=O)N1C1CCN(Cc2ccc3c(c2)OCO3)CC1)N1CCOCC1 (3D coordinates assigned)
O=C([C@H]1CCC(=O)N1C1CCN(Cc2ccc3c(c2)OCO3)CC1)N1CCOCC1 (nonaromatic ring conformer: 107.15477312509451 kcal/mol)

>  <smiles>  (30) 
O=C(C1CCC(=O)N1C1CCN(Cc2ccc3c(c2)OCO3)CC1)N1CCOCC1

>  <score_type>  (30) 
oracle

>  <origin>  (30) 
adg

>  <m_score__min__energy>  (30) 
-9.3499999999999996

>  <m_primary>  (30) 
energy

$$$$
30:0
     RDKit          3D

 24 25  0  0  0  0  0  0  0  0999 V2000
   -3.6950   23.5740  -27.4660 C   0  0  0  0  0  0  0  0  0  0  0  0
   -3.9350   22.5260  -28.9330 S   0  0  0  0  0  0  0  0  0  0  0  0
   -5.1050   23.6590  -29.6880 C   0  0  0  0  0  0  0  0  0  0  0  0
   -5.3760   24.8810  -29.1930 N   0  0  0  0  0  0  0  0  0  0  0  0
   -6.2260   25.4430  -30.0740 C   0  0  0  0  0  0  0  0  0  0  0  0
   -6.4590   24.5490  -31.1000 C   0  0  0  0  0  0  0  0  0  0  0  0
   -5.7630   23.4250  -30.8430 N   0  0  0  0  0  0  0  0  0  0  0  0
   -5.6670   22.2740  -31.6900 C   0  0  0  0  0  0  0  0  0  0  0  0
   -4.4410   21.9640  -32.2950 C   0  0  0  0  0  0  0  0  0  0  0  0
   -4.3220   20.8360  -33.1120 C   0  0  0  0  0  0  0  0  0  0  0  0
   -5.4300   20.0150  -33.3350 C   0  0  0  0  0  0  0  0  0  0  0  0
   -6.6600   20.3250  -32.7490 C   0  0  0  0  0  0  0  0  0  0  0  0
   -6.7870   21.4530  -31.9290 C   0  0  0  0  0  0  0  0  0  0  0  0
   -8.5110   21.8760  -31.2070 Br  0  0  0  0  0  0  0  0  0  0  0  0
   -3.8333   22.9699  -26.5572 H   0  0  0  0  0  0  0  0  0  0  0  0
   -2.6778   23.9925  -27.4768 H   0  0  0  0  0  0  0  0  0  0  0  0
   -4.4287   24.3935  -27.4768 H   0  0  0  0  0  0  0  0  0  0  0  0
   -4.9890   25.3130  -28.3260 H   0  0  0  0  0  0  0  0  0  0  0  0
   -6.6628   26.4491  -29.9898 H   0  0  0  0  0  0  0  0  0  0  0  0
   -7.1016   24.7243  -31.9754 H   0  0  0  0  0  0  0  0  0  0  0  0
   -3.5681   22.6117  -32.1259 H   0  0  0  0  0  0  0  0  0  0  0  0
   -3.3558   20.5948  -33.5793 H   0  0  0  0  0  0  0  0  0  0  0  0
   -5.3341   19.1237  -33.9725 H   0  0  0  0  0  0  0  0  0  0  0  0
   -7.5322   19.6803  -32.9326 H   0  0  0  0  0  0  0  0  0  0  0  0
  1  2  1  0
  2  3  1  0
  3  4  2  0
  4  5  1  0
  5  6  2  0
  6  7  1  0
  7  8  1  0
  8  9  2  0
  9 10  1  0
 10 11  2  0
 11 12  1  0
 12 13  2  0
 13 14  1  0
  7  3  1  0
 13  8  1  0
  1 15  1  0
  1 16  1  0
  1 17  1  0
  4 18  1  0
  5 19  1  0
  6 20  1  0
  9 21  1  0
 10 22  1  0
 11 23  1  0
 12 24  1  0
M  CHG  1   4   1
M  END
>  <UniqueID>  (31) 
29

>  <SMILES>  (31) 
CSc1[nH+]ccn1-c1ccccc1Br

>  <Energy>  (31) 
57.65491996087065

>  <Genealogy>  (31) 
CSc1[nH+]ccn1-c1ccccc1Br (protonated)
CSc1[nH+]ccn1-c1ccccc1Br (3D coordinates assigned)
CSc1[nH+]ccn1-c1ccccc1Br (optimized conformer: 57.65491996087065 kcal/mol)

>  <smiles>  (31) 
CSc1nccn1-c1ccccc1Br

>  <score_type>  (31) 
oracle

>  <origin>  (31) 
adg

>  <m_score__min__energy>  (31) 
-5.3600000000000003

>  <m_primary>  (31) 
energy

$$$$
31:0
     RDKit          3D

 33 34  0  0  0  0  0  0  0  0999 V2000
   -2.2080   25.7880  -26.2030 C   0  0  0  0  0  0  0  0  0  0  0  0
   -3.0620   25.0150  -27.1230 N   0  0  0  0  0  0  0  0  0  0  0  0
   -4.2690   24.5280  -26.4300 C   0  0  0  0  0  0  0  0  0  0  0  0
   -2.3180   23.9230  -27.7950 C   0  0  0  0  0  0  0  0  0  0  0  0
   -2.1890   24.1120  -29.2930 C   0  0  0  0  0  0  0  0  0  0  0  0
   -1.1900   23.6270  -29.8870 O   0  0  0  0  0  0  0  0  0  0  0  0
   -3.1110   24.9160  -30.0420 N   0  0  0  0  0  0  0  0  0  0  0  0
   -4.4690   24.5700  -30.3510 C   0  0  0  0  0  0  0  0  0  0  0  0
   -5.5270   25.3190  -29.8120 C   0  0  0  0  0  0  0  0  0  0  0  0
   -6.8520   24.9750  -30.0820 C   0  0  0  0  0  0  0  0  0  0  0  0
   -7.1420   23.8690  -30.8800 C   0  0  0  0  0  0  0  0  0  0  0  0
   -6.1040   23.0860  -31.4060 C   0  0  0  0  0  0  0  0  0  0  0  0
   -6.3940   21.9650  -32.1990 C   0  0  0  0  0  0  0  0  0  0  0  0
   -5.3590   21.1860  -32.7200 C   0  0  0  0  0  0  0  0  0  0  0  0
   -4.0290   21.5190  -32.4570 C   0  0  0  0  0  0  0  0  0  0  0  0
   -3.7230   22.6330  -31.6710 C   0  0  0  0  0  0  0  0  0  0  0  0
   -4.7530   23.4300  -31.1350 C   0  0  0  0  0  0  0  0  0  0  0  0
   -2.4754   25.5459  -25.1638 H   0  0  0  0  0  0  0  0  0  0  0  0
   -1.1529   25.5316  -26.3793 H   0  0  0  0  0  0  0  0  0  0  0  0
   -2.3584   26.8633  -26.3793 H   0  0  0  0  0  0  0  0  0  0  0  0
   -3.3810   25.6740  -27.8730 H   0  0  0  0  0  0  0  0  0  0  0  0
   -4.1171   24.5893  -25.3423 H   0  0  0  0  0  0  0  0  0  0  0  0
   -5.1312   25.1486  -26.7154 H   0  0  0  0  0  0  0  0  0  0  0  0
   -4.4591   23.4828  -26.7154 H   0  0  0  0  0  0  0  0  0  0  0  0
   -1.3080   23.8722  -27.3622 H   0  0  0  0  0  0  0  0  0  0  0  0
   -2.8881   22.9962  -27.6338 H   0  0  0  0  0  0  0  0  0  0  0  0
   -5.3093   26.1856  -29.1705 H   0  0  0  0  0  0  0  0  0  0  0  0
   -7.6709   25.5787  -29.6637 H   0  0  0  0  0  0  0  0  0  0  0  0
   -8.1886   23.6096  -31.0978 H   0  0  0  0  0  0  0  0  0  0  0  0
   -7.4402   21.6992  -32.4108 H   0  0  0  0  0  0  0  0  0  0  0  0
   -5.5922   20.3074  -33.3394 H   0  0  0  0  0  0  0  0  0  0  0  0
   -3.2181   20.9014  -32.8705 H   0  0  0  0  0  0  0  0  0  0  0  0
   -2.6722   22.8888  -31.4699 H   0  0  0  0  0  0  0  0  0  0  0  0
  1  2  1  0
  2  3  1  0
  2  4  1  0
  4  5  1  0
  5  6  2  0
  5  7  1  0
  7  8  1  0
  8  9  2  0
  9 10  1  0
 10 11  2  0
 11 12  1  0
 12 13  2  0
 13 14  1  0
 14 15  2  0
 15 16  1  0
 16 17  2  0
 17  8  1  0
 17 12  1  0
  1 18  1  0
  1 19  1  0
  1 20  1  0
  2 21  1  0
  3 22  1  0
  3 23  1  0
  3 24  1  0
  4 25  1  0
  4 26  1  0
  9 27  1  0
 10 28  1  0
 11 29  1  0
 13 30  1  0
 14 31  1  0
 15 32  1  0
 16 33  1  0
M  CHG  2   2   1   7  -1
M  END
>  <UniqueID>  (32) 
30

>  <SMILES>  (32) 
C[NH+](C)CC(=O)[N-]c1cccc2ccccc12

>  <Energy>  (32) 
43.60573637735013

>  <Genealogy>  (32) 
C[NH+](C)CC(=O)[N-]c1cccc2ccccc12 (protonated)
C[NH+](C)CC(=O)[N-]c1cccc2ccccc12 (3D coordinates assigned)
C[NH+](C)CC(=O)[N-]c1cccc2ccccc12 (optimized conformer: 43.60573637735013 kcal/mol)

>  <smiles>  (32) 
CN(C)CC(=O)Nc1cccc2ccccc12

>  <score_type>  (32) 
oracle

>  <origin>  (32) 
adg

>  <m_score__min__energy>  (32) 
-7.3300000000000001

>  <m_primary>  (32) 
energy

$$$$
32:0
     RDKit          3D

 59 63  0  0  0  0  0  0  0  0999 V2000
   -9.5090   20.4460  -32.3100 C   0  0  0  0  0  0  0  0  0  0  0  0
   -8.2760   19.6000  -32.1490 C   0  0  0  0  0  0  0  0  0  0  0  0
   -8.3450   18.2140  -32.3690 C   0  0  0  0  0  0  0  0  0  0  0  0
   -7.2080   17.4150  -32.2150 C   0  0  0  0  0  0  0  0  0  0  0  0
   -5.9940   17.9910  -31.8330 C   0  0  0  0  0  0  0  0  0  0  0  0
   -5.9140   19.3660  -31.6000 C   0  0  0  0  0  0  0  0  0  0  0  0
   -7.0500   20.1760  -31.7510 C   0  0  0  0  0  0  0  0  0  0  0  0
   -6.9450   21.5850  -31.5080 N   0  0  0  0  0  0  0  0  0  0  0  0
   -6.3060   22.4360  -32.5130 C   0  0  0  0  0  0  0  0  0  0  0  0
   -6.4240   23.9210  -32.1310 C   0  0  0  0  0  0  0  0  0  0  0  0
   -6.1400   24.1700  -30.6970 N   0  0  0  0  0  0  0  0  0  0  0  0
   -4.7100   24.1050  -30.4370 C   0  0  0  0  0  0  0  0  0  0  0  0
   -3.9960   25.0590  -30.7150 O   0  0  0  0  0  0  0  0  0  0  0  0
   -4.0760   22.8480  -29.8610 C   0  0  0  0  0  0  0  0  0  0  0  0
   -4.2670   22.7640  -28.3200 C   0  0  0  0  0  0  0  0  0  0  0  0
   -2.9790   23.0300  -27.5190 C   0  0  0  0  0  0  0  0  0  0  0  0
   -2.1450   24.0430  -28.1820 N   0  0  0  0  0  0  0  0  0  0  0  0
   -1.6260   25.1730  -27.4540 C   0  0  0  0  0  0  0  0  0  0  0  0
   -1.0590   26.2440  -28.0730 N   0  0  0  0  0  0  0  0  0  0  0  0
   -0.7400   27.0390  -27.0420 C   0  0  0  0  0  0  0  0  0  0  0  0
   -0.1270   28.2890  -27.0880 C   0  0  0  0  0  0  0  0  0  0  0  0
    0.1120   28.9440  -25.8630 C   0  0  0  0  0  0  0  0  0  0  0  0
   -0.2650   28.3370  -24.6430 C   0  0  0  0  0  0  0  0  0  0  0  0
   -0.8840   27.0720  -24.6380 C   0  0  0  0  0  0  0  0  0  0  0  0
   -1.1040   26.4560  -25.8670 C   0  0  0  0  0  0  0  0  0  0  0  0
   -1.6730   25.2650  -26.0980 N   0  0  0  0  0  0  0  0  0  0  0  0
   -1.7550   23.8540  -29.5870 C   0  0  0  0  0  0  0  0  0  0  0  0
   -2.5920   22.7600  -30.2670 C   0  0  0  0  0  0  0  0  0  0  0  0
   -6.8970   23.2980  -29.7480 C   0  0  0  0  0  0  0  0  0  0  0  0
   -7.7190   22.1920  -30.4280 C   0  0  0  0  0  0  0  0  0  0  0  0
   -9.9011   20.7151  -31.3181 H   0  0  0  0  0  0  0  0  0  0  0  0
   -9.2557   21.3614  -32.8648 H   0  0  0  0  0  0  0  0  0  0  0  0
  -10.2720   19.8803  -32.8648 H   0  0  0  0  0  0  0  0  0  0  0  0
   -9.2998   17.7545  -32.6643 H   0  0  0  0  0  0  0  0  0  0  0  0
   -7.2695   16.3315  -32.3949 H   0  0  0  0  0  0  0  0  0  0  0  0
   -5.1000   17.3610  -31.7155 H   0  0  0  0  0  0  0  0  0  0  0  0
   -4.9569   19.8156  -31.2970 H   0  0  0  0  0  0  0  0  0  0  0  0
   -5.2420   22.1671  -32.5885 H   0  0  0  0  0  0  0  0  0  0  0  0
   -6.8114   22.2803  -33.4775 H   0  0  0  0  0  0  0  0  0  0  0  0
   -5.7088   24.4974  -32.7361 H   0  0  0  0  0  0  0  0  0  0  0  0
   -7.4623   24.2304  -32.3215 H   0  0  0  0  0  0  0  0  0  0  0  0
   -6.4550   25.1530  -30.5140 H   0  0  0  0  0  0  0  0  0  0  0  0
   -4.5926   21.9751  -30.2867 H   0  0  0  0  0  0  0  0  0  0  0  0
   -5.0203   23.5084  -28.0228 H   0  0  0  0  0  0  0  0  0  0  0  0
   -4.5797   21.7344  -28.0914 H   0  0  0  0  0  0  0  0  0  0  0  0
   -3.2479   23.3873  -26.5140 H   0  0  0  0  0  0  0  0  0  0  0  0
   -2.4068   22.0928  -27.4549 H   0  0  0  0  0  0  0  0  0  0  0  0
    0.1601   28.7482  -28.0454 H   0  0  0  0  0  0  0  0  0  0  0  0
    0.5943   29.9326  -25.8562 H   0  0  0  0  0  0  0  0  0  0  0  0
   -0.0737   28.8559  -23.6921 H   0  0  0  0  0  0  0  0  0  0  0  0
   -1.1830   26.5879  -23.6966 H   0  0  0  0  0  0  0  0  0  0  0  0
   -1.8995   24.8011  -30.1275 H   0  0  0  0  0  0  0  0  0  0  0  0
   -0.7001   23.5432  -29.6111 H   0  0  0  0  0  0  0  0  0  0  0  0
   -2.5127   22.8759  -31.3580 H   0  0  0  0  0  0  0  0  0  0  0  0
   -2.2048   21.7813  -29.9473 H   0  0  0  0  0  0  0  0  0  0  0  0
   -6.1762   22.8226  -29.0665 H   0  0  0  0  0  0  0  0  0  0  0  0
   -7.6136   23.9480  -29.2245 H   0  0  0  0  0  0  0  0  0  0  0  0
   -7.9759   21.4212  -29.6865 H   0  0  0  0  0  0  0  0  0  0  0  0
   -8.6377   22.6302  -30.8450 H   0  0  0  0  0  0  0  0  0  0  0  0
  1  2  1  0
  2  3  2  0
  3  4  1  0
  4  5  2  0
  5  6  1  0
  6  7  2  0
  7  8  1  0
  8  9  1  0
  9 10  1  0
 10 11  1  0
 11 12  1  0
 12 13  2  0
 12 14  1  0
 14 15  1  0
 15 16  1  0
 16 17  1  0
 17 18  1  0
 18 19  2  0
 19 20  1  0
 20 21  2  0
 21 22  1  0
 22 23  2  0
 23 24  1  0
 24 25  2  0
 25 26  1  0
 17 27  1  0
 27 28  1  0
 11 29  1  0
 29 30  1  0
  7  2  1  0
 30  8  1  0
 28 14  1  0
 26 18  1  0
 25 20  1  0
  1 31  1  0
  1 32  1  0
  1 33  1  0
  3 34  1  0
  4 35  1  0
  5 36  1  0
  6 37  1  0
  9 38  1  0
  9 39  1  0
 10 40  1  0
 10 41  1  0
 11 42  1  0
 14 43  1  0
 15 44  1  0
 15 45  1  0
 16 46  1  0
 16 47  1  0
 21 48  1  0
 22 49  1  0
 23 50  1  0
 24 51  1  0
 27 52  1  0
 27 53  1  0
 28 54  1  0
 28 55  1  0
 29 56  1  0
 29 57  1  0
 30 58  1  0
 30 59  1  0
M  CHG  2  11   1  26  -1
M  END
>  <UniqueID>  (33) 
31

>  <SMILES>  (33) 
Cc1ccccc1N1CC[NH+](C(=O)C2CCN(c3nc4ccccc4[n-]3)CC2)CC1

>  <Energy>  (33) 
113.43090468379172

>  <Genealogy>  (33) 
Cc1ccccc1N1CC[NH+](C(=O)C2CCN(c3nc4ccccc4[n-]3)CC2)CC1 (protonated)
Cc1ccccc1N1CC[NH+](C(=O)C2CCN(c3nc4ccccc4[n-]3)CC2)CC1 (3D coordinates assigned)
Cc1ccccc1N1CC[NH+](C(=O)C2CCN(c3nc4ccccc4[n-]3)CC2)CC1 (nonaromatic ring conformer: 113.43090468379172 kcal/mol)

>  <smiles>  (33) 
Cc1ccccc1N1CCN(C(=O)C2CCN(c3nc4ccccc4[nH]3)CC2)CC1

>  <score_type>  (33) 
oracle

>  <origin>  (33) 
adg

>  <m_score__min__energy>  (33) 
-10.199999999999999

>  <m_primary>  (33) 
energy

$$$$
33:0
     RDKit          3D

 47 49  0  0  0  0  0  0  0  0999 V2000
   -6.7090   16.9920  -33.6990 C   0  0  0  0  0  0  0  0  0  0  0  0
   -7.1800   18.1950  -32.9460 C   0  0  0  0  0  0  0  0  0  0  0  0
   -6.4730   19.4010  -33.0250 C   0  0  0  0  0  0  0  0  0  0  0  0
   -6.9250   20.5090  -32.3070 C   0  0  0  0  0  0  0  0  0  0  0  0
   -8.0770   20.4080  -31.5120 C   0  0  0  0  0  0  0  0  0  0  0  0
   -8.5620   21.5930  -30.7120 C   0  0  0  0  0  0  0  0  0  0  0  0
   -7.4660   22.4920  -30.3050 N   0  0  0  0  0  0  0  0  0  0  0  0
   -7.4390   23.7930  -31.0130 C   0  0  0  0  0  0  0  0  0  0  0  0
   -6.8600   24.8980  -30.0870 C   0  0  0  0  0  0  0  0  0  0  0  0
   -5.4010   25.2800  -30.4150 C   0  0  0  0  0  0  0  0  0  0  0  0
   -4.5800   24.1190  -30.8310 N   0  0  0  0  0  0  0  0  0  0  0  0
   -4.2270   23.2280  -29.7030 C   0  0  0  0  0  0  0  0  0  0  0  0
   -3.4800   23.9830  -28.6350 C   0  0  0  0  0  0  0  0  0  0  0  0
   -2.2000   24.4970  -28.9020 C   0  0  0  0  0  0  0  0  0  0  0  0
   -1.5090   25.2120  -27.9200 C   0  0  0  0  0  0  0  0  0  0  0  0
   -2.0910   25.4220  -26.6670 C   0  0  0  0  0  0  0  0  0  0  0  0
   -3.3660   24.9180  -26.3950 C   0  0  0  0  0  0  0  0  0  0  0  0
   -4.0600   24.2020  -27.3730 C   0  0  0  0  0  0  0  0  0  0  0  0
   -5.1370   23.3830  -31.9980 C   0  0  0  0  0  0  0  0  0  0  0  0
   -6.6080   23.7200  -32.3070 C   0  0  0  0  0  0  0  0  0  0  0  0
   -8.7500   19.1800  -31.4560 C   0  0  0  0  0  0  0  0  0  0  0  0
   -8.2920   18.1150  -32.1660 N   0  0  0  0  0  0  0  0  0  0  0  0
   -6.4031   16.2107  -32.9876 H   0  0  0  0  0  0  0  0  0  0  0  0
   -7.5250   16.6127  -34.3316 H   0  0  0  0  0  0  0  0  0  0  0  0
   -5.8524   17.2676  -34.3316 H   0  0  0  0  0  0  0  0  0  0  0  0
   -5.5691   19.4744  -33.6476 H   0  0  0  0  0  0  0  0  0  0  0  0
   -6.3782   21.4617  -32.3642 H   0  0  0  0  0  0  0  0  0  0  0  0
   -9.2756   22.1631  -31.3250 H   0  0  0  0  0  0  0  0  0  0  0  0
   -9.0315   21.2056  -29.7958 H   0  0  0  0  0  0  0  0  0  0  0  0
   -7.5720   22.6620  -29.2780 H   0  0  0  0  0  0  0  0  0  0  0  0
   -8.4758   24.0416  -31.2837 H   0  0  0  0  0  0  0  0  0  0  0  0
   -7.4853   25.7975  -30.1865 H   0  0  0  0  0  0  0  0  0  0  0  0
   -6.8647   24.4950  -29.0635 H   0  0  0  0  0  0  0  0  0  0  0  0
   -5.4063   26.0167  -31.2319 H   0  0  0  0  0  0  0  0  0  0  0  0
   -4.9529   25.6890  -29.4974 H   0  0  0  0  0  0  0  0  0  0  0  0
   -5.1488   22.8110  -29.2713 H   0  0  0  0  0  0  0  0  0  0  0  0
   -3.5808   22.4220  -30.0808 H   0  0  0  0  0  0  0  0  0  0  0  0
   -1.7398   24.3360  -29.8881 H   0  0  0  0  0  0  0  0  0  0  0  0
   -0.5060   25.6099  -28.1336 H   0  0  0  0  0  0  0  0  0  0  0  0
   -1.5456   25.9841  -25.8946 H   0  0  0  0  0  0  0  0  0  0  0  0
   -3.8237   25.0856  -25.4089 H   0  0  0  0  0  0  0  0  0  0  0  0
   -5.0637   23.8081  -27.1552 H   0  0  0  0  0  0  0  0  0  0  0  0
   -4.5323   23.6296  -32.8832 H   0  0  0  0  0  0  0  0  0  0  0  0
   -5.1018   22.3129  -31.7458 H   0  0  0  0  0  0  0  0  0  0  0  0
   -6.6546   24.6919  -32.8201 H   0  0  0  0  0  0  0  0  0  0  0  0
   -7.0230   22.9272  -32.9467 H   0  0  0  0  0  0  0  0  0  0  0  0
   -9.6523   19.0775  -30.8352 H   0  0  0  0  0  0  0  0  0  0  0  0
  1  2  1  0
  2  3  2  0
  3  4  1  0
  4  5  2  0
  5  6  1  0
  6  7  1  0
  7  8  1  0
  8  9  1  0
  9 10  1  0
 10 11  1  0
 11 12  1  0
 12 13  1  0
 13 14  2  0
 14 15  1  0
 15 16  2  0
 16 17  1  0
 17 18  2  0
 11 19  1  0
 19 20  1  0
  5 21  1  0
 21 22  2  0
 22  2  1  0
 20  8  1  0
 18 13  1  0
  1 23  1  0
  1 24  1  0
  1 25  1  0
  3 26  1  0
  4 27  1  0
  6 28  1  0
  6 29  1  0
  7 30  1  0
  8 31  1  0
  9 32  1  0
  9 33  1  0
 10 34  1  0
 10 35  1  0
 12 36  1  0
 12 37  1  0
 14 38  1  0
 15 39  1  0
 16 40  1  0
 17 41  1  0
 18 42  1  0
 19 43  1  0
 19 44  1  0
 20 45  1  0
 20 46  1  0
 21 47  1  0
M  END
>  <UniqueID>  (34) 
32

>  <SMILES>  (34) 
Cc1ccc(CNC2CCN(Cc3ccccc3)CC2)cn1

>  <Energy>  (34) 
60.375404710102174

>  <Genealogy>  (34) 
Cc1ccc(CNC2CCN(Cc3ccccc3)CC2)cn1 (3D coordinates assigned)
Cc1ccc(CNC2CCN(Cc3ccccc3)CC2)cn1 (nonaromatic ring conformer: 60.375404710102174 kcal/mol)

>  <smiles>  (34) 
Cc1ccc(CNC2CCN(Cc3ccccc3)CC2)cn1

>  <score_type>  (34) 
oracle

>  <origin>  (34) 
adg

>  <m_score__min__energy>  (34) 
-8.7599999999999998

>  <m_primary>  (34) 
energy

$$$$
34:0
     RDKit          3D

 34 35  0  0  0  0  0  0  0  0999 V2000
   -6.1620   25.1100  -29.7220 C   0  0  0  0  0  0  0  0  0  0  0  0
   -4.8250   24.7530  -30.2930 C   0  0  0  0  0  0  0  0  0  0  0  0
   -4.1360   25.6640  -30.8270 O   0  0  0  0  0  0  0  0  0  0  0  0
   -4.3380   23.3480  -30.3010 C   0  0  0  0  0  0  0  0  0  0  0  0
   -4.6030   22.5410  -31.4240 C   0  0  0  0  0  0  0  0  0  0  0  0
   -4.1500   21.2210  -31.4940 C   0  0  0  0  0  0  0  0  0  0  0  0
   -4.4580   20.4760  -32.6430 O   0  0  0  0  0  0  0  0  0  0  0  0
   -5.6770   20.5520  -33.3830 C   0  0  0  0  0  0  0  0  0  0  0  0
   -6.8030   19.8350  -32.6610 C   0  0  0  0  0  0  0  0  0  0  0  0
   -7.7830   20.5770  -31.9630 C   0  0  0  0  0  0  0  0  0  0  0  0
   -7.7820   22.3390  -31.9260 Cl  0  0  0  0  0  0  0  0  0  0  0  0
   -8.8090   19.9060  -31.2930 C   0  0  0  0  0  0  0  0  0  0  0  0
   -8.8790   18.5500  -31.3230 N   0  0  0  0  0  0  0  0  0  0  0  0
   -7.9720   17.8090  -32.0100 C   0  0  0  0  0  0  0  0  0  0  0  0
   -6.9250   18.4270  -32.6990 C   0  0  0  0  0  0  0  0  0  0  0  0
   -5.8220   17.3950  -33.6080 Cl  0  0  0  0  0  0  0  0  0  0  0  0
   -3.4040   20.6940  -30.4290 C   0  0  0  0  0  0  0  0  0  0  0  0
   -3.1360   21.4750  -29.3050 C   0  0  0  0  0  0  0  0  0  0  0  0
   -3.6070   22.7950  -29.2160 C   0  0  0  0  0  0  0  0  0  0  0  0
   -3.3150   23.5820  -27.9640 C   0  0  0  0  0  0  0  0  0  0  0  0
   -6.1073   25.0954  -28.6235 H   0  0  0  0  0  0  0  0  0  0  0  0
   -6.4489   26.1162  -30.0615 H   0  0  0  0  0  0  0  0  0  0  0  0
   -6.9123   24.3807  -30.0615 H   0  0  0  0  0  0  0  0  0  0  0  0
   -5.1785   22.9583  -32.2635 H   0  0  0  0  0  0  0  0  0  0  0  0
   -5.9512   21.6090  -33.5151 H   0  0  0  0  0  0  0  0  0  0  0  0
   -5.5235   20.0663  -34.3580 H   0  0  0  0  0  0  0  0  0  0  0  0
   -9.5653   20.4799  -30.7374 H   0  0  0  0  0  0  0  0  0  0  0  0
   -9.6540   18.0690  -30.8160 H   0  0  0  0  0  0  0  0  0  0  0  0
   -8.0621   16.7128  -32.0243 H   0  0  0  0  0  0  0  0  0  0  0  0
   -3.0291   19.6611  -30.4807 H   0  0  0  0  0  0  0  0  0  0  0  0
   -2.5480   21.0515  -28.4774 H   0  0  0  0  0  0  0  0  0  0  0  0
   -3.5436   22.9658  -27.0819 H   0  0  0  0  0  0  0  0  0  0  0  0
   -2.2521   23.8648  -27.9482 H   0  0  0  0  0  0  0  0  0  0  0  0
   -3.9362   24.4897  -27.9482 H   0  0  0  0  0  0  0  0  0  0  0  0
  1  2  1  0
  2  3  2  0
  2  4  1  0
  4  5  2  0
  5  6  1  0
  6  7  1  0
  7  8  1  0
  8  9  1  0
  9 10  2  0
 10 11  1  0
 10 12  1  0
 12 13  2  0
 13 14  1  0
 14 15  2  0
 15 16  1  0
  6 17  2  0
 17 18  1  0
 18 19  2  0
 19 20  1  0
 19  4  1  0
 15  9  1  0
  1 21  1  0
  1 22  1  0
  1 23  1  0
  5 24  1  0
  8 25  1  0
  8 26  1  0
 12 27  1  0
 13 28  1  0
 14 29  1  0
 17 30  1  0
 18 31  1  0
 20 32  1  0
 20 33  1  0
 20 34  1  0
M  CHG  1  13   1
M  END
>  <UniqueID>  (35) 
33

>  <SMILES>  (35) 
CC(=O)c1cc(OCc2c(Cl)c[nH+]cc2Cl)ccc1C

>  <Energy>  (35) 
41.359091016877414

>  <Genealogy>  (35) 
CC(=O)c1cc(OCc2c(Cl)c[nH+]cc2Cl)ccc1C (protonated)
CC(=O)c1cc(OCc2c(Cl)c[nH+]cc2Cl)ccc1C (3D coordinates assigned)
CC(=O)c1cc(OCc2c(Cl)c[nH+]cc2Cl)ccc1C (optimized conformer: 41.359091016877414 kcal/mol)

>  <smiles>  (35) 
CC(=O)c1cc(OCc2c(Cl)cncc2Cl)ccc1C

>  <score_type>  (35) 
oracle

>  <origin>  (35) 
adg

>  <m_score__min__energy>  (35) 
-7.54

>  <m_primary>  (35) 
energy

$$$$
35:0
     RDKit          3D

 54 57  0  0  0  0  0  0  0  0999 V2000
    1.2960   16.1940  -28.6490 C   0  0  0  0  0  0  0  0  0  0  0  0
    1.1880   17.2610  -27.7130 O   0  0  0  0  0  0  0  0  0  0  0  0
    0.3430   18.3690  -27.8710 C   0  0  0  0  0  0  0  0  0  0  0  0
   -0.8970   18.4740  -27.2130 C   0  0  0  0  0  0  0  0  0  0  0  0
   -1.7030   19.6000  -27.4030 C   0  0  0  0  0  0  0  0  0  0  0  0
   -1.2880   20.6450  -28.2490 C   0  0  0  0  0  0  0  0  0  0  0  0
   -2.1220   21.8080  -28.4450 N   0  0  0  0  0  0  0  0  0  0  0  0
   -3.0820   22.2210  -27.4130 C   0  0  0  0  0  0  0  0  0  0  0  0
   -4.2490   22.9750  -28.0560 C   0  0  0  0  0  0  0  0  0  0  0  0
   -3.7950   24.1670  -28.8050 N   0  0  0  0  0  0  0  0  0  0  0  0
   -5.0090   24.6530  -29.9670 S   0  0  0  0  0  0  0  0  0  0  0  0
   -6.1650   25.2900  -29.2470 O   0  0  0  0  0  0  0  0  0  0  0  0
   -4.4230   25.6770  -30.9000 O   0  0  0  0  0  0  0  0  0  0  0  0
   -5.5940   23.2760  -30.9050 C   0  0  0  0  0  0  0  0  0  0  0  0
   -4.7300   22.5910  -31.7600 C   0  0  0  0  0  0  0  0  0  0  0  0
   -5.2000   21.5240  -32.5220 C   0  0  0  0  0  0  0  0  0  0  0  0
   -6.5400   21.1040  -32.4440 C   0  0  0  0  0  0  0  0  0  0  0  0
   -7.4360   21.8090  -31.5830 C   0  0  0  0  0  0  0  0  0  0  0  0
   -6.9310   22.8790  -30.8180 C   0  0  0  0  0  0  0  0  0  0  0  0
   -8.9310   21.5730  -31.4440 C   0  0  0  0  0  0  0  0  0  0  0  0
   -9.5510   20.4010  -32.2010 C   0  0  0  0  0  0  0  0  0  0  0  0
   -8.8560   19.0820  -31.8760 C   0  0  0  0  0  0  0  0  0  0  0  0
   -7.7020   18.8790  -32.7960 C   0  0  0  0  0  0  0  0  0  0  0  0
   -7.4340   17.7170  -33.2010 O   0  0  0  0  0  0  0  0  0  0  0  0
   -6.9190   19.9840  -33.2630 N   0  0  0  0  0  0  0  0  0  0  0  0
   -2.4590   24.0390  -29.4370 C   0  0  0  0  0  0  0  0  0  0  0  0
   -2.0450   22.5820  -29.6910 C   0  0  0  0  0  0  0  0  0  0  0  0
   -0.0480   20.5340  -28.9030 C   0  0  0  0  0  0  0  0  0  0  0  0
    0.7560   19.4070  -28.7140 C   0  0  0  0  0  0  0  0  0  0  0  0
    1.3925   15.2407  -28.1087 H   0  0  0  0  0  0  0  0  0  0  0  0
    0.3959   16.1679  -29.2808 H   0  0  0  0  0  0  0  0  0  0  0  0
    2.1831   16.3488  -29.2808 H   0  0  0  0  0  0  0  0  0  0  0  0
   -1.2332   17.6662  -26.5463 H   0  0  0  0  0  0  0  0  0  0  0  0
   -2.6714   19.6699  -26.8860 H   0  0  0  0  0  0  0  0  0  0  0  0
   -3.4654   21.3299  -26.8945 H   0  0  0  0  0  0  0  0  0  0  0  0
   -2.5770   22.8824  -26.6937 H   0  0  0  0  0  0  0  0  0  0  0  0
   -4.7703   22.2979  -28.7487 H   0  0  0  0  0  0  0  0  0  0  0  0
   -4.9178   23.3145  -27.2514 H   0  0  0  0  0  0  0  0  0  0  0  0
   -3.6751   22.8943  -31.8325 H   0  0  0  0  0  0  0  0  0  0  0  0
   -4.5092   20.9993  -33.1984 H   0  0  0  0  0  0  0  0  0  0  0  0
   -7.6062   23.4154  -30.1351 H   0  0  0  0  0  0  0  0  0  0  0  0
   -9.1383   21.4168  -30.3751 H   0  0  0  0  0  0  0  0  0  0  0  0
   -9.3903   22.4635  -31.8979 H   0  0  0  0  0  0  0  0  0  0  0  0
  -10.6127   20.3210  -31.9248 H   0  0  0  0  0  0  0  0  0  0  0  0
   -9.4347   20.5912  -33.2782 H   0  0  0  0  0  0  0  0  0  0  0  0
   -8.4950   19.1058  -30.8372 H   0  0  0  0  0  0  0  0  0  0  0  0
   -9.5702   18.2548  -32.0015 H   0  0  0  0  0  0  0  0  0  0  0  0
   -6.3440   19.8020  -34.1180 H   0  0  0  0  0  0  0  0  0  0  0  0
   -2.4758   24.5703  -30.4000 H   0  0  0  0  0  0  0  0  0  0  0  0
   -1.7256   24.4695  -28.7393 H   0  0  0  0  0  0  0  0  0  0  0  0
   -2.7199   22.1374  -30.4372 H   0  0  0  0  0  0  0  0  0  0  0  0
   -1.0097   22.5626  -30.0621 H   0  0  0  0  0  0  0  0  0  0  0  0
    0.2917   21.3410  -29.5688 H   0  0  0  0  0  0  0  0  0  0  0  0
    1.7232   19.3349  -29.2330 H   0  0  0  0  0  0  0  0  0  0  0  0
  1  2  1  0
  2  3  1  0
  3  4  2  0
  4  5  1  0
  5  6  2  0
  6  7  1  0
  7  8  1  0
  8  9  1  0
  9 10  1  0
 10 11  1  0
 11 12  2  0
 11 13  2  0
 11 14  1  0
 14 15  2  0
 15 16  1  0
 16 17  2  0
 17 18  1  0
 18 19  2  0
 18 20  1  0
 20 21  1  0
 21 22  1  0
 22 23  1  0
 23 24  2  0
 23 25  1  0
 10 26  1  0
 26 27  1  0
  6 28  1  0
 28 29  2  0
 29  3  1  0
 27  7  1  0
 19 14  1  0
 25 17  1  0
  1 30  1  0
  1 31  1  0
  1 32  1  0
  4 33  1  0
  5 34  1  0
  8 35  1  0
  8 36  1  0
  9 37  1  0
  9 38  1  0
 15 39  1  0
 16 40  1  0
 19 41  1  0
 20 42  1  0
 20 43  1  0
 21 44  1  0
 21 45  1  0
 22 46  1  0
 22 47  1  0
 25 48  1  0
 26 49  1  0
 26 50  1  0
 27 51  1  0
 27 52  1  0
 28 53  1  0
 29 54  1  0
M  END
>  <UniqueID>  (36) 
34

>  <SMILES>  (36) 
COc1ccc(N2CCN(S(=O)(=O)c3ccc4c(c3)CCCC(=O)N4)CC2)cc1

>  <Energy>  (36) 
75.95018276352515

>  <Genealogy>  (36) 
COc1ccc(N2CCN(S(=O)(=O)c3ccc4c(c3)CCCC(=O)N4)CC2)cc1 (3D coordinates assigned)
COc1ccc(N2CCN(S(=O)(=O)c3ccc4c(c3)CCCC(=O)N4)CC2)cc1 (nonaromatic ring conformer: 75.95018276352515 kcal/mol)

>  <smiles>  (36) 
COc1ccc(N2CCN(S(=O)(=O)c3ccc4c(c3)CCCC(=O)N4)CC2)cc1

>  <score_type>  (36) 
oracle

>  <origin>  (36) 
adg

>  <m_score__min__energy>  (36) 
-8.9000000000000004

>  <m_primary>  (36) 
energy

$$$$
36:0
     RDKit          3D

 26 28  0  0  0  0  0  0  0  0999 V2000
   -9.1440   18.2420  -31.9340 C   0  0  0  0  0  0  0  0  0  0  0  0
   -7.8550   18.9580  -32.2100 C   0  0  0  0  0  0  0  0  0  0  0  0
   -6.8850   18.3720  -33.0360 C   0  0  0  0  0  0  0  0  0  0  0  0
   -5.6960   19.0480  -33.3270 C   0  0  0  0  0  0  0  0  0  0  0  0
   -5.4660   20.3280  -32.8050 C   0  0  0  0  0  0  0  0  0  0  0  0
   -4.2660   21.0150  -33.0960 C   0  0  0  0  0  0  0  0  0  0  0  0
   -4.0360   22.3000  -32.5780 C   0  0  0  0  0  0  0  0  0  0  0  0
   -5.0110   22.8900  -31.7730 C   0  0  0  0  0  0  0  0  0  0  0  0
   -4.8900   24.1230  -31.2170 N   0  0  0  0  0  0  0  0  0  0  0  0
   -5.9900   24.4410  -30.4940 C   0  0  0  0  0  0  0  0  0  0  0  0
   -6.1190   25.7040  -29.7130 C   0  0  0  0  0  0  0  0  0  0  0  0
   -7.1350   23.1950  -30.4920 S   0  0  0  0  0  0  0  0  0  0  0  0
   -6.1910   22.2190  -31.4850 C   0  0  0  0  0  0  0  0  0  0  0  0
   -6.4510   20.9350  -31.9830 C   0  0  0  0  0  0  0  0  0  0  0  0
   -7.6420   20.2470  -31.6970 C   0  0  0  0  0  0  0  0  0  0  0  0
   -9.2923   18.1596  -30.8472 H   0  0  0  0  0  0  0  0  0  0  0  0
   -9.9786   18.8058  -32.3762 H   0  0  0  0  0  0  0  0  0  0  0  0
   -9.1063   17.2355  -32.3762 H   0  0  0  0  0  0  0  0  0  0  0  0
   -7.0610   17.3718  -33.4587 H   0  0  0  0  0  0  0  0  0  0  0  0
   -4.9385   18.5733  -33.9680 H   0  0  0  0  0  0  0  0  0  0  0  0
   -3.5059   20.5396  -33.7333 H   0  0  0  0  0  0  0  0  0  0  0  0
   -3.1009   22.8335  -32.8036 H   0  0  0  0  0  0  0  0  0  0  0  0
   -6.0955   25.4741  -28.6375 H   0  0  0  0  0  0  0  0  0  0  0  0
   -5.2848   26.3762  -29.9625 H   0  0  0  0  0  0  0  0  0  0  0  0
   -7.0718   26.1937  -29.9625 H   0  0  0  0  0  0  0  0  0  0  0  0
   -8.4107   20.7204  -31.0685 H   0  0  0  0  0  0  0  0  0  0  0  0
  1  2  1  0
  2  3  2  0
  3  4  1  0
  4  5  2  0
  5  6  1  0
  6  7  2  0
  7  8  1  0
  8  9  1  0
  9 10  2  0
 10 11  1  0
 10 12  1  0
 12 13  1  0
 13 14  1  0
 14 15  2  0
 15  2  1  0
 14  5  1  0
 13  8  2  0
  1 16  1  0
  1 17  1  0
  1 18  1  0
  3 19  1  0
  4 20  1  0
  6 21  1  0
  7 22  1  0
 11 23  1  0
 11 24  1  0
 11 25  1  0
 15 26  1  0
M  END
>  <UniqueID>  (37) 
35

>  <SMILES>  (37) 
Cc1ccc2ccc3nc(C)sc3c2c1

>  <Energy>  (37) 
63.67684716096828

>  <Genealogy>  (37) 
Cc1ccc2ccc3nc(C)sc3c2c1 (3D coordinates assigned)
Cc1ccc2ccc3nc(C)sc3c2c1 (optimized conformer: 63.67684716096828 kcal/mol)

>  <smiles>  (37) 
Cc1ccc2ccc3nc(C)sc3c2c1

>  <score_type>  (37) 
oracle

>  <origin>  (37) 
adg

>  <m_score__min__energy>  (37) 
-7.5700000000000003

>  <m_primary>  (37) 
energy

$$$$
37:0
     RDKit          3D

 45 47  0  0  0  0  0  0  0  0999 V2000
   -1.3120   25.1100  -28.2250 C   0  0  0  0  0  0  0  0  0  0  0  0
   -2.1230   25.2480  -29.3880 O   0  0  0  0  0  0  0  0  0  0  0  0
   -3.3990   24.6820  -29.5350 C   0  0  0  0  0  0  0  0  0  0  0  0
   -4.3020   25.2980  -30.4080 C   0  0  0  0  0  0  0  0  0  0  0  0
   -5.5860   24.7750  -30.5870 C   0  0  0  0  0  0  0  0  0  0  0  0
   -5.9930   23.6310  -29.8810 C   0  0  0  0  0  0  0  0  0  0  0  0
   -7.3850   23.0600  -30.0860 C   0  0  0  0  0  0  0  0  0  0  0  0
   -7.4790   22.0250  -31.1500 N   0  0  1  0  0  0  0  0  0  0  0  0
   -8.8770   21.7200  -31.5760 C   0  0  0  0  0  0  0  0  0  0  0  0
   -9.1590   20.2060  -31.7410 C   0  0  1  0  0  0  0  0  0  0  0  0
   -8.7200   19.6450  -33.0830 C   0  0  0  0  0  0  0  0  0  0  0  0
   -8.4140   18.2180  -32.7520 C   0  0  0  0  0  0  0  0  0  0  0  0
   -8.0310   18.2790  -31.2860 C   0  0  0  0  0  0  0  0  0  0  0  0
   -8.4860   19.4920  -30.7280 O   0  0  0  0  0  0  0  0  0  0  0  0
   -6.6430   22.3870  -32.2820 C   0  0  0  0  0  0  0  0  0  0  0  0
   -6.8640   23.4570  -32.9170 O   0  0  0  0  0  0  0  0  0  0  0  0
   -5.4750   21.5700  -32.6770 C   0  0  0  0  0  0  0  0  0  0  0  0
   -5.4870   20.2800  -33.2070 C   0  0  0  0  0  0  0  0  0  0  0  0
   -4.2050   19.7720  -33.4560 C   0  0  0  0  0  0  0  0  0  0  0  0
   -3.1810   20.6490  -33.1250 C   0  0  0  0  0  0  0  0  0  0  0  0
   -3.8720   22.0560  -32.5190 S   0  0  0  0  0  0  0  0  0  0  0  0
   -5.0800   23.0000  -29.0210 C   0  0  0  0  0  0  0  0  0  0  0  0
   -3.7960   23.5240  -28.8420 C   0  0  0  0  0  0  0  0  0  0  0  0
   -1.9379   25.2165  -27.3268 H   0  0  0  0  0  0  0  0  0  0  0  0
   -0.8366   24.1180  -28.2251 H   0  0  0  0  0  0  0  0  0  0  0  0
   -0.5353   25.8889  -28.2251 H   0  0  0  0  0  0  0  0  0  0  0  0
   -3.9993   26.2012  -30.9581 H   0  0  0  0  0  0  0  0  0  0  0  0
   -6.2821   25.2626  -31.2853 H   0  0  0  0  0  0  0  0  0  0  0  0
   -7.7137   22.6086  -29.1383 H   0  0  0  0  0  0  0  0  0  0  0  0
   -8.0212   23.8974  -30.4085 H   0  0  0  0  0  0  0  0  0  0  0  0
   -7.0790   21.1450  -30.7490 H   0  0  0  0  0  0  0  0  0  0  0  0
   -9.5666   22.1216  -30.8189 H   0  0  0  0  0  0  0  0  0  0  0  0
   -9.0220   22.1844  -32.5626 H   0  0  0  0  0  0  0  0  0  0  0  0
  -10.2506   20.0886  -31.6737 H   0  0  0  0  0  0  0  0  0  0  0  0
   -9.5270   19.7164  -33.8271 H   0  0  0  0  0  0  0  0  0  0  0  0
   -7.8705   20.1843  -33.5274 H   0  0  0  0  0  0  0  0  0  0  0  0
   -9.2969   17.5796  -32.9031 H   0  0  0  0  0  0  0  0  0  0  0  0
   -7.6262   17.7864  -33.3869 H   0  0  0  0  0  0  0  0  0  0  0  0
   -8.4916   17.4348  -30.7519 H   0  0  0  0  0  0  0  0  0  0  0  0
   -6.9366   18.2214  -31.1917 H   0  0  0  0  0  0  0  0  0  0  0  0
   -6.4105   19.7176  -33.4093 H   0  0  0  0  0  0  0  0  0  0  0  0
   -4.0265   18.7707  -33.8751 H   0  0  0  0  0  0  0  0  0  0  0  0
   -2.1041   20.4564  -33.2395 H   0  0  0  0  0  0  0  0  0  0  0  0
   -5.3769   22.0869  -28.4842 H   0  0  0  0  0  0  0  0  0  0  0  0
   -3.0931   23.0284  -28.1561 H   0  0  0  0  0  0  0  0  0  0  0  0
  1  2  1  0
  2  3  1  0
  3  4  2  0
  4  5  1  0
  5  6  2  0
  6  7  1  0
  7  8  1  0
  8  9  1  0
  9 10  1  0
 10 11  1  0
 11 12  1  0
 12 13  1  0
 13 14  1  0
  8 15  1  0
 15 16  2  0
 15 17  1  0
 17 18  2  0
 18 19  1  0
 19 20  2  0
 20 21  1  0
  6 22  1  0
 22 23  2  0
 23  3  1  0
 14 10  1  0
 21 17  1  0
  1 24  1  0
  1 25  1  0
  1 26  1  0
  4 27  1  0
  5 28  1  0
  7 29  1  0
  7 30  1  0
  8 31  1  1
  9 32  1  0
  9 33  1  0
 10 34  1  1
 11 35  1  0
 11 36  1  0
 12 37  1  0
 12 38  1  0
 13 39  1  0
 13 40  1  0
 18 41  1  0
 19 42  1  0
 20 43  1  0
 22 44  1  0
 23 45  1  0
M  CHG  1   8   1
M  END
>  <UniqueID>  (38) 
36

>  <SMILES>  (38) 
COc1ccc(C[N@@H+](C[C@H]2CCCO2)C(=O)c2cccs2)cc1

>  <Energy>  (38) 
79.39768203225145

>  <Genealogy>  (38) 
COc1ccc(C[NH+](CC2CCCO2)C(=O)c2cccs2)cc1 (protonated)
COc1ccc(C[N@@H+](C[C@H]2CCCO2)C(=O)c2cccs2)cc1 (chirality)
COc1ccc(C[N@@H+](C[C@H]2CCCO2)C(=O)c2cccs2)cc1 (3D coordinates assigned)
COc1ccc(C[N@@H+](C[C@H]2CCCO2)C(=O)c2cccs2)cc1 (nonaromatic ring conformer: 79.39768203225145 kcal/mol)

>  <smiles>  (38) 
COc1ccc(CN(CC2CCCO2)C(=O)c2cccs2)cc1

>  <score_type>  (38) 
oracle

>  <origin>  (38) 
adg

>  <m_score__min__energy>  (38) 
-6.9100000000000001

>  <m_primary>  (38) 
energy

$$$$
38:0
     RDKit          3D

 38 40  0  0  0  0  0  0  0  0999 V2000
   -5.3550   25.6530  -30.7460 C   0  0  0  0  0  0  0  0  0  0  0  0
   -4.1290   24.9310  -30.6910 O   0  0  0  0  0  0  0  0  0  0  0  0
   -3.8260   23.9500  -29.7350 C   0  0  0  0  0  0  0  0  0  0  0  0
   -3.8130   24.2280  -28.3540 C   0  0  0  0  0  0  0  0  0  0  0  0
   -3.4770   23.2290  -27.4360 C   0  0  0  0  0  0  0  0  0  0  0  0
   -3.1520   21.9470  -27.8840 C   0  0  0  0  0  0  0  0  0  0  0  0
   -3.1680   21.6580  -29.2490 C   0  0  0  0  0  0  0  0  0  0  0  0
   -3.5160   22.6500  -30.1760 C   0  0  0  0  0  0  0  0  0  0  0  0
   -3.5550   22.3300  -31.5700 N   0  0  0  0  0  0  0  0  0  0  0  0
   -2.5190   21.9190  -32.2790 N   0  0  0  0  0  0  0  0  0  0  0  0
   -2.9390   21.6880  -33.5130 N   0  0  0  0  0  0  0  0  0  0  0  0
   -4.2380   21.9290  -33.6290 N   0  0  0  0  0  0  0  0  0  0  0  0
   -4.6160   22.3270  -32.3990 C   0  0  0  0  0  0  0  0  0  0  0  0
   -6.0240   22.6750  -32.0180 C   0  0  0  0  0  0  0  0  0  0  0  0
   -6.5960   21.6250  -31.1510 N   0  0  0  0  0  0  0  0  0  0  0  0
   -7.9580   21.9230  -30.6540 C   0  0  0  0  0  0  0  0  0  0  0  0
   -9.0500   21.7730  -31.7240 C   0  0  0  0  0  0  0  0  0  0  0  0
   -9.1410   20.0620  -32.3400 S   0  0  0  0  0  0  0  0  0  0  0  0
   -7.4090   20.0250  -32.8950 C   0  0  0  0  0  0  0  0  0  0  0  0
   -6.4690   20.2650  -31.7100 C   0  0  0  0  0  0  0  0  0  0  0  0
   -5.7052   25.8593  -29.7238 H   0  0  0  0  0  0  0  0  0  0  0  0
   -5.1977   26.6027  -31.2783 H   0  0  0  0  0  0  0  0  0  0  0  0
   -6.1092   25.0548  -31.2783 H   0  0  0  0  0  0  0  0  0  0  0  0
   -4.0686   25.2363  -27.9963 H   0  0  0  0  0  0  0  0  0  0  0  0
   -3.4686   23.4530  -26.3591 H   0  0  0  0  0  0  0  0  0  0  0  0
   -2.8830   21.1639  -27.1599 H   0  0  0  0  0  0  0  0  0  0  0  0
   -2.9066   20.6483  -29.5987 H   0  0  0  0  0  0  0  0  0  0  0  0
   -2.3280   21.3560  -34.2910 H   0  0  0  0  0  0  0  0  0  0  0  0
   -6.0272   23.6331  -31.4776 H   0  0  0  0  0  0  0  0  0  0  0  0
   -6.6320   22.7548  -32.9312 H   0  0  0  0  0  0  0  0  0  0  0  0
   -8.1847   21.2342  -29.8269 H   0  0  0  0  0  0  0  0  0  0  0  0
   -7.9616   22.9757  -30.3350 H   0  0  0  0  0  0  0  0  0  0  0  0
  -10.0209   22.0485  -31.2864 H   0  0  0  0  0  0  0  0  0  0  0  0
   -8.8024   22.4335  -32.5681 H   0  0  0  0  0  0  0  0  0  0  0  0
   -7.1906   19.0426  -33.3390 H   0  0  0  0  0  0  0  0  0  0  0  0
   -7.2544   20.8173  -33.6422 H   0  0  0  0  0  0  0  0  0  0  0  0
   -6.7044   19.5362  -30.9204 H   0  0  0  0  0  0  0  0  0  0  0  0
   -5.4375   20.1496  -32.0744 H   0  0  0  0  0  0  0  0  0  0  0  0
  1  2  1  0
  2  3  1  0
  3  4  2  0
  4  5  1  0
  5  6  2  0
  6  7  1  0
  7  8  2  0
  8  9  1  0
  9 10  1  0
 10 11  2  0
 11 12  1  0
 12 13  2  0
 13 14  1  0
 14 15  1  0
 15 16  1  0
 16 17  1  0
 17 18  1  0
 18 19  1  0
 19 20  1  0
  8  3  1  0
 13  9  1  0
 20 15  1  0
  1 21  1  0
  1 22  1  0
  1 23  1  0
  4 24  1  0
  5 25  1  0
  6 26  1  0
  7 27  1  0
 11 28  1  0
 14 29  1  0
 14 30  1  0
 16 31  1  0
 16 32  1  0
 17 33  1  0
 17 34  1  0
 19 35  1  0
 19 36  1  0
 20 37  1  0
 20 38  1  0
M  CHG  1  11   1
M  END
>  <UniqueID>  (39) 
37

>  <SMILES>  (39) 
COc1ccccc1-n1n[nH+]nc1CN1CCSCC1

>  <Energy>  (39) 
84.73187297824131

>  <Genealogy>  (39) 
COc1ccccc1-n1n[nH+]nc1CN1CCSCC1 (protonated)
COc1ccccc1-n1n[nH+]nc1CN1CCSCC1 (3D coordinates assigned)
COc1ccccc1-n1n[nH+]nc1CN1CCSCC1 (nonaromatic ring conformer: 84.73187297824131 kcal/mol)

>  <smiles>  (39) 
COc1ccccc1-n1nnnc1CN1CCSCC1

>  <score_type>  (39) 
oracle

>  <origin>  (39) 
adg

>  <m_score__min__energy>  (39) 
-7.3499999999999996

>  <m_primary>  (39) 
energy

$$$$
39:0
     RDKit          3D

 55 58  0  0  0  0  0  0  0  0999 V2000
   -3.1480   15.9240  -35.7430 C   0  0  0  0  0  0  0  0  0  0  0  0
   -4.2670   16.7770  -35.5310 O   0  0  0  0  0  0  0  0  0  0  0  0
   -4.9640   16.8860  -34.3190 C   0  0  0  0  0  0  0  0  0  0  0  0
   -4.6630   15.9790  -33.2960 C   0  0  0  0  0  0  0  0  0  0  0  0
   -5.3310   16.0460  -32.0720 C   0  0  0  0  0  0  0  0  0  0  0  0
   -6.3050   17.0210  -31.8560 C   0  0  0  0  0  0  0  0  0  0  0  0
   -6.6180   17.9460  -32.8650 C   0  0  0  0  0  0  0  0  0  0  0  0
   -7.6740   19.0030  -32.6240 C   0  0  0  0  0  0  0  0  0  0  0  0
   -7.0960   20.3740  -32.5930 N   0  0  2  0  0  0  0  0  0  0  0  0
   -5.6920   20.3730  -32.0970 C   0  0  0  0  0  0  0  0  0  0  0  0
   -4.8610   21.6170  -32.4940 C   0  0  2  0  0  0  0  0  0  0  0  0
   -3.5030   21.3670  -32.4150 F   0  0  0  0  0  0  0  0  0  0  0  0
   -5.1880   22.8830  -31.7080 C   0  0  0  0  0  0  0  0  0  0  0  0
   -4.1090   23.5360  -31.0790 C   0  0  0  0  0  0  0  0  0  0  0  0
   -4.2980   24.6750  -30.2940 C   0  0  0  0  0  0  0  0  0  0  0  0
   -3.1690   25.2760  -29.7150 O   0  0  0  0  0  0  0  0  0  0  0  0
   -2.4900   24.8080  -28.5490 C   0  0  0  0  0  0  0  0  0  0  0  0
   -2.3350   23.3100  -28.5840 C   0  0  0  0  0  0  0  0  0  0  0  0
   -1.3390   22.7240  -29.3830 C   0  0  0  0  0  0  0  0  0  0  0  0
   -1.1980   21.3330  -29.4260 C   0  0  0  0  0  0  0  0  0  0  0  0
   -2.0550   20.5190  -28.6790 C   0  0  0  0  0  0  0  0  0  0  0  0
   -3.0560   21.0950  -27.8920 C   0  0  0  0  0  0  0  0  0  0  0  0
   -3.2000   22.4850  -27.8460 C   0  0  0  0  0  0  0  0  0  0  0  0
   -5.5970   25.1710  -30.1100 C   0  0  0  0  0  0  0  0  0  0  0  0
   -6.6840   24.5320  -30.7040 C   0  0  0  0  0  0  0  0  0  0  0  0
   -6.5100   23.3770  -31.4860 C   0  0  0  0  0  0  0  0  0  0  0  0
   -7.7490   22.7970  -32.1340 C   0  0  0  0  0  0  0  0  0  0  0  0
   -7.8980   21.3300  -31.8480 C   0  0  0  0  0  0  0  0  0  0  0  0
   -8.6400   20.9760  -30.9420 O   0  0  0  0  0  0  0  0  0  0  0  0
   -5.9500   17.8690  -34.1000 C   0  0  0  0  0  0  0  0  0  0  0  0
   -2.7368   15.6105  -34.7721 H   0  0  0  0  0  0  0  0  0  0  0  0
   -3.4656   15.0367  -36.3104 H   0  0  0  0  0  0  0  0  0  0  0  0
   -2.3766   16.4653  -36.3104 H   0  0  0  0  0  0  0  0  0  0  0  0
   -3.8949   15.2083  -33.4577 H   0  0  0  0  0  0  0  0  0  0  0  0
   -5.0885   15.3275  -31.2752 H   0  0  0  0  0  0  0  0  0  0  0  0
   -6.8304   17.0654  -30.8906 H   0  0  0  0  0  0  0  0  0  0  0  0
   -8.4194   18.9504  -33.4312 H   0  0  0  0  0  0  0  0  0  0  0  0
   -8.1330   18.8064  -31.6439 H   0  0  0  0  0  0  0  0  0  0  0  0
   -7.0560   20.7220  -33.5810 H   0  0  0  0  0  0  0  0  0  0  0  0
   -5.7174   20.3150  -30.9988 H   0  0  0  0  0  0  0  0  0  0  0  0
   -5.1989   19.5092  -32.5668 H   0  0  0  0  0  0  0  0  0  0  0  0
   -5.1512   21.8116  -33.5370 H   0  0  0  0  0  0  0  0  0  0  0  0
   -3.0919   23.1381  -31.2099 H   0  0  0  0  0  0  0  0  0  0  0  0
   -1.4940   25.2724  -28.5012 H   0  0  0  0  0  0  0  0  0  0  0  0
   -3.0829   25.0801  -27.6633 H   0  0  0  0  0  0  0  0  0  0  0  0
   -0.6675   23.3614  -29.9770 H   0  0  0  0  0  0  0  0  0  0  0  0
   -0.4123   20.8792  -30.0479 H   0  0  0  0  0  0  0  0  0  0  0  0
   -1.9413   19.4253  -28.7108 H   0  0  0  0  0  0  0  0  0  0  0  0
   -3.7320   20.4535  -27.3076 H   0  0  0  0  0  0  0  0  0  0  0  0
   -3.9931   22.9340  -27.2300 H   0  0  0  0  0  0  0  0  0  0  0  0
   -5.7586   26.0681  -29.4943 H   0  0  0  0  0  0  0  0  0  0  0  0
   -7.6956   24.9386  -30.5583 H   0  0  0  0  0  0  0  0  0  0  0  0
   -8.6328   23.3259  -31.7477 H   0  0  0  0  0  0  0  0  0  0  0  0
   -7.6546   22.9235  -33.2226 H   0  0  0  0  0  0  0  0  0  0  0  0
   -6.1987   18.5810  -34.9008 H   0  0  0  0  0  0  0  0  0  0  0  0
  1  2  1  0
  2  3  1  0
  3  4  2  0
  4  5  1  0
  5  6  2  0
  6  7  1  0
  7  8  1  0
  8  9  1  0
  9 10  1  0
 10 11  1  0
 11 12  1  0
 11 13  1  0
 13 14  2  0
 14 15  1  0
 15 16  1  0
 16 17  1  0
 17 18  1  0
 18 19  2  0
 19 20  1  0
 20 21  2  0
 21 22  1  0
 22 23  2  0
 15 24  2  0
 24 25  1  0
 25 26  2  0
 26 27  1  0
 27 28  1  0
 28 29  2  0
  7 30  2  0
 30  3  1  0
 28  9  1  0
 26 13  1  0
 23 18  1  0
  1 31  1  0
  1 32  1  0
  1 33  1  0
  4 34  1  0
  5 35  1  0
  6 36  1  0
  8 37  1  0
  8 38  1  0
  9 39  1  6
 10 40  1  0
 10 41  1  0
 11 42  1  6
 14 43  1  0
 17 44  1  0
 17 45  1  0
 19 46  1  0
 20 47  1  0
 21 48  1  0
 22 49  1  0
 23 50  1  0
 24 51  1  0
 25 52  1  0
 27 53  1  0
 27 54  1  0
 30 55  1  0
M  CHG  1   9   1
M  END
>  <UniqueID>  (40) 
38

>  <SMILES>  (40) 
COc1cccc(C[N@@H+]2C[C@H](F)c3cc(OCc4ccccc4)ccc3CC2=O)c1

>  <Energy>  (40) 
75.97237050311031

>  <Genealogy>  (40) 
COc1cccc(C[NH+]2CC(F)c3cc(OCc4ccccc4)ccc3CC2=O)c1 (protonated)
COc1cccc(C[N@@H+]2C[C@H](F)c3cc(OCc4ccccc4)ccc3CC2=O)c1 (chirality)
COc1cccc(C[N@@H+]2C[C@H](F)c3cc(OCc4ccccc4)ccc3CC2=O)c1 (3D coordinates assigned)
COc1cccc(C[N@@H+]2C[C@H](F)c3cc(OCc4ccccc4)ccc3CC2=O)c1 (nonaromatic ring conformer: 75.97237050311031 kcal/mol)

>  <smiles>  (40) 
COc1cccc(CN2CC(F)c3cc(OCc4ccccc4)ccc3CC2=O)c1

>  <score_type>  (40) 
oracle

>  <origin>  (40) 
adg

>  <m_score__min__energy>  (40) 
-7.2300000000000004

>  <m_primary>  (40) 
energy

$$$$
40:0
     RDKit          3D

 29 31  0  0  0  0  0  0  0  0999 V2000
   -0.1190   27.1740  -23.0460 C   0  0  0  0  0  0  0  0  0  0  0  0
   -0.4340   26.1550  -24.0390 N   0  0  0  0  0  0  0  0  0  0  0  0
   -1.3920   26.2790  -24.9430 N   0  0  0  0  0  0  0  0  0  0  0  0
   -1.4170   25.1120  -25.6240 C   0  0  0  0  0  0  0  0  0  0  0  0
   -2.3480   24.8180  -26.7390 C   0  0  0  0  0  0  0  0  0  0  0  0
   -3.7400   24.8310  -26.5490 C   0  0  0  0  0  0  0  0  0  0  0  0
   -4.6050   24.5510  -27.6100 C   0  0  0  0  0  0  0  0  0  0  0  0
   -4.1010   24.2530  -28.8880 C   0  0  0  0  0  0  0  0  0  0  0  0
   -5.0090   23.9640  -29.9730 N   0  0  0  0  0  0  0  0  0  0  0  0
   -6.1530   23.2490  -29.9130 C   0  0  0  0  0  0  0  0  0  0  0  0
   -6.7000   23.2110  -31.1740 C   0  0  0  0  0  0  0  0  0  0  0  0
   -8.1770   22.4080  -31.6650 Cl  0  0  0  0  0  0  0  0  0  0  0  0
   -5.8350   23.9260  -31.9720 C   0  0  0  0  0  0  0  0  0  0  0  0
   -4.8120   24.3730  -31.2190 N   0  0  0  0  0  0  0  0  0  0  0  0
   -2.7070   24.2340  -29.0760 C   0  0  0  0  0  0  0  0  0  0  0  0
   -1.8410   24.5140  -28.0140 C   0  0  0  0  0  0  0  0  0  0  0  0
   -0.4470   24.2800  -25.0840 C   0  0  0  0  0  0  0  0  0  0  0  0
    0.1410   24.9660  -24.0910 N   0  0  0  0  0  0  0  0  0  0  0  0
   -0.2485   26.7552  -22.0371 H   0  0  0  0  0  0  0  0  0  0  0  0
    0.9227   27.5027  -23.1757 H   0  0  0  0  0  0  0  0  0  0  0  0
   -0.7935   28.0332  -23.1757 H   0  0  0  0  0  0  0  0  0  0  0  0
   -4.1525   25.0637  -25.5562 H   0  0  0  0  0  0  0  0  0  0  0  0
   -5.6922   24.5639  -27.4434 H   0  0  0  0  0  0  0  0  0  0  0  0
   -6.5740   22.7788  -29.0121 H   0  0  0  0  0  0  0  0  0  0  0  0
   -5.9596   24.1034  -33.0504 H   0  0  0  0  0  0  0  0  0  0  0  0
   -2.2942   23.9967  -30.0676 H   0  0  0  0  0  0  0  0  0  0  0  0
   -0.7535   24.4961  -28.1782 H   0  0  0  0  0  0  0  0  0  0  0  0
   -0.2063   23.2564  -25.4069 H   0  0  0  0  0  0  0  0  0  0  0  0
    0.9050   24.6310  -23.4630 H   0  0  0  0  0  0  0  0  0  0  0  0
  1  2  1  0
  2  3  1  0
  3  4  2  0
  4  5  1  0
  5  6  2  0
  6  7  1  0
  7  8  2  0
  8  9  1  0
  9 10  1  0
 10 11  2  0
 11 12  1  0
 11 13  1  0
 13 14  2  0
  8 15  1  0
 15 16  2  0
  4 17  1  0
 17 18  2  0
 18  2  1  0
 16  5  1  0
 14  9  1  0
  1 19  1  0
  1 20  1  0
  1 21  1  0
  6 22  1  0
  7 23  1  0
 10 24  1  0
 13 25  1  0
 15 26  1  0
 16 27  1  0
 17 28  1  0
 18 29  1  0
M  CHG  1  18   1
M  END
>  <UniqueID>  (41) 
39

>  <SMILES>  (41) 
Cn1nc(-c2ccc(-n3cc(Cl)cn3)cc2)c[nH+]1

>  <Energy>  (41) 
98.89532604097427

>  <Genealogy>  (41) 
Cn1nc(-c2ccc(-n3cc(Cl)cn3)cc2)c[nH+]1 (protonated)
Cn1nc(-c2ccc(-n3cc(Cl)cn3)cc2)c[nH+]1 (3D coordinates assigned)
Cn1nc(-c2ccc(-n3cc(Cl)cn3)cc2)c[nH+]1 (optimized conformer: 98.89532604097427 kcal/mol)

>  <smiles>  (41) 
Cn1ncc(-c2ccc(-n3cc(Cl)cn3)cc2)n1

>  <score_type>  (41) 
oracle

>  <origin>  (41) 
adg

>  <m_score__min__energy>  (41) 
-7.4400000000000004

>  <m_primary>  (41) 
energy

$$$$
41:0
     RDKit          3D

 63 65  0  0  0  0  0  0  0  0999 V2000
    0.7500   17.3220  -27.8060 C   0  0  0  0  0  0  0  0  0  0  0  0
    0.5750   18.7660  -28.2640 C   0  0  0  0  0  0  0  0  0  0  0  0
   -0.8610   19.1250  -28.2660 N   0  0  0  0  0  0  0  0  0  0  0  0
   -1.3020   19.6740  -26.9630 C   0  0  0  0  0  0  0  0  0  0  0  0
   -2.5370   18.9510  -26.4190 C   0  0  0  0  0  0  0  0  0  0  0  0
   -1.2460   19.9310  -29.4540 C   0  0  0  0  0  0  0  0  0  0  0  0
   -1.0200   21.4480  -29.3060 C   0  0  0  0  0  0  0  0  0  0  0  0
   -2.3390   22.1260  -29.2730 N   0  0  0  0  0  0  0  0  0  0  0  0
   -2.9190   22.1420  -27.9120 C   0  0  0  0  0  0  0  0  0  0  0  0
   -2.2730   23.2250  -27.0840 C   0  0  0  0  0  0  0  0  0  0  0  0
   -0.9640   23.0590  -26.6090 C   0  0  0  0  0  0  0  0  0  0  0  0
   -0.3310   24.0890  -25.9080 C   0  0  0  0  0  0  0  0  0  0  0  0
   -0.9970   25.3040  -25.6820 C   0  0  0  0  0  0  0  0  0  0  0  0
   -0.3370   26.4080  -24.9510 C   0  0  0  0  0  0  0  0  0  0  0  0
    0.0320   26.2140  -23.6520 N   0  0  0  0  0  0  0  0  0  0  0  0
    0.6410   27.1940  -22.9330 C   0  0  0  0  0  0  0  0  0  0  0  0
    0.8910   28.4330  -23.5250 C   0  0  0  0  0  0  0  0  0  0  0  0
    1.5350   29.4770  -22.7800 N   0  0  0  0  0  0  0  0  0  0  0  0
    2.9860   29.5890  -22.7090 C   0  0  0  0  0  0  0  0  0  0  0  0
    0.5130   28.6370  -24.8140 N   0  0  0  0  0  0  0  0  0  0  0  0
   -0.1040   27.6700  -25.5440 C   0  0  0  0  0  0  0  0  0  0  0  0
   -0.5050   27.9860  -26.9580 C   0  0  0  0  0  0  0  0  0  0  0  0
   -2.3190   25.4570  -26.1270 C   0  0  0  0  0  0  0  0  0  0  0  0
   -2.9500   24.4280  -26.8290 C   0  0  0  0  0  0  0  0  0  0  0  0
   -2.2540   23.4870  -29.8400 C   0  0  0  0  0  0  0  0  0  0  0  0
   -3.6210   23.9990  -30.1750 C   0  0  0  0  0  0  0  0  0  0  0  0
   -3.8720   25.2880  -30.4840 N   0  0  0  0  0  0  0  0  0  0  0  0
   -5.1980   25.3130  -30.6970 C   0  0  0  0  0  0  0  0  0  0  0  0
   -5.7120   24.0520  -30.5130 C   0  0  0  0  0  0  0  0  0  0  0  0
   -4.7160   23.2120  -30.1810 N   0  0  0  0  0  0  0  0  0  0  0  0
    0.7546   17.2840  -26.7067 H   0  0  0  0  0  0  0  0  0  0  0  0
   -0.0808   16.7121  -28.1905 H   0  0  0  0  0  0  0  0  0  0  0  0
    1.7024   16.9283  -28.1905 H   0  0  0  0  0  0  0  0  0  0  0  0
    1.1167   19.4340  -27.5782 H   0  0  0  0  0  0  0  0  0  0  0  0
    0.9758   18.8732  -29.2827 H   0  0  0  0  0  0  0  0  0  0  0  0
   -0.4815   19.5681  -26.2380 H   0  0  0  0  0  0  0  0  0  0  0  0
   -1.5685   20.7304  -27.1145 H   0  0  0  0  0  0  0  0  0  0  0  0
   -2.5148   18.9640  -25.3193 H   0  0  0  0  0  0  0  0  0  0  0  0
   -3.4456   19.4598  -26.7734 H   0  0  0  0  0  0  0  0  0  0  0  0
   -2.5380   17.9097  -26.7734 H   0  0  0  0  0  0  0  0  0  0  0  0
   -0.6551   19.5791  -30.3125 H   0  0  0  0  0  0  0  0  0  0  0  0
   -2.3290   19.7905  -29.5860 H   0  0  0  0  0  0  0  0  0  0  0  0
   -0.4761   21.6515  -28.3718 H   0  0  0  0  0  0  0  0  0  0  0  0
   -0.4280   21.8225  -30.1541 H   0  0  0  0  0  0  0  0  0  0  0  0
   -4.0003   22.3325  -27.9799 H   0  0  0  0  0  0  0  0  0  0  0  0
   -2.7390   21.1681  -27.4333 H   0  0  0  0  0  0  0  0  0  0  0  0
   -0.4326   22.1129  -26.7892 H   0  0  0  0  0  0  0  0  0  0  0  0
    0.6929   23.9472  -25.5319 H   0  0  0  0  0  0  0  0  0  0  0  0
   -0.1350   25.2910  -23.1930 H   0  0  0  0  0  0  0  0  0  0  0  0
    0.9355   27.0112  -21.8890 H   0  0  0  0  0  0  0  0  0  0  0  0
    0.9520   30.1730  -22.2630 H   0  0  0  0  0  0  0  0  0  0  0  0
    3.3008   29.6133  -21.6553 H   0  0  0  0  0  0  0  0  0  0  0  0
    3.4455   28.7236  -23.2091 H   0  0  0  0  0  0  0  0  0  0  0  0
    3.3072   30.5146  -23.2091 H   0  0  0  0  0  0  0  0  0  0  0  0
   -1.3690   28.6668  -26.9507 H   0  0  0  0  0  0  0  0  0  0  0  0
    0.3362   28.4666  -27.4790 H   0  0  0  0  0  0  0  0  0  0  0  0
   -0.7756   27.0558  -27.4790 H   0  0  0  0  0  0  0  0  0  0  0  0
   -2.8608   26.3921  -25.9218 H   0  0  0  0  0  0  0  0  0  0  0  0
   -3.9827   24.5607  -27.1839 H   0  0  0  0  0  0  0  0  0  0  0  0
   -1.7860   24.1576  -29.1043 H   0  0  0  0  0  0  0  0  0  0  0  0
   -1.6502   23.4538  -30.7589 H   0  0  0  0  0  0  0  0  0  0  0  0
   -5.7810   26.2034  -30.9751 H   0  0  0  0  0  0  0  0  0  0  0  0
   -6.7708   23.7738  -30.6203 H   0  0  0  0  0  0  0  0  0  0  0  0
  1  2  1  0
  2  3  1  0
  3  4  1  0
  4  5  1  0
  3  6  1  0
  6  7  1  0
  7  8  1  0
  8  9  1  0
  9 10  1  0
 10 11  2  0
 11 12  1  0
 12 13  2  0
 13 14  1  0
 14 15  2  0
 15 16  1  0
 16 17  2  0
 17 18  1  0
 18 19  1  0
 17 20  1  0
 20 21  2  0
 21 22  1  0
 13 23  1  0
 23 24  2  0
  8 25  1  0
 25 26  1  0
 26 27  2  0
 27 28  1  0
 28 29  2  0
 29 30  1  0
 24 10  1  0
 30 26  1  0
 21 14  1  0
  1 31  1  0
  1 32  1  0
  1 33  1  0
  2 34  1  0
  2 35  1  0
  4 36  1  0
  4 37  1  0
  5 38  1  0
  5 39  1  0
  5 40  1  0
  6 41  1  0
  6 42  1  0
  7 43  1  0
  7 44  1  0
  9 45  1  0
  9 46  1  0
 11 47  1  0
 12 48  1  0
 15 49  1  0
 16 50  1  0
 18 51  1  0
 19 52  1  0
 19 53  1  0
 19 54  1  0
 22 55  1  0
 22 56  1  0
 22 57  1  0
 23 58  1  0
 24 59  1  0
 25 60  1  0
 25 61  1  0
 28 62  1  0
 29 63  1  0
M  CHG  2  15   1  30  -1
M  END
>  <UniqueID>  (42) 
40

>  <SMILES>  (42) 
CCN(CC)CCN(Cc1ccc(-c2[nH+]cc(NC)nc2C)cc1)Cc1ncc[n-]1

>  <Energy>  (42) 
96.79507977381778

>  <Genealogy>  (42) 
CCN(CC)CCN(Cc1ccc(-c2[nH+]cc(NC)nc2C)cc1)Cc1ncc[n-]1 (protonated)
CCN(CC)CCN(Cc1ccc(-c2[nH+]cc(NC)nc2C)cc1)Cc1ncc[n-]1 (3D coordinates assigned)
CCN(CC)CCN(Cc1ccc(-c2[nH+]cc(NC)nc2C)cc1)Cc1ncc[n-]1 (optimized conformer: 96.79507977381778 kcal/mol)

>  <smiles>  (42) 
CCN(CC)CCN(Cc1ccc(-c2ncc(NC)nc2C)cc1)Cc1ncc[nH]1

>  <score_type>  (42) 
oracle

>  <origin>  (42) 
adg

>  <m_score__min__energy>  (42) 
-8.5

>  <m_primary>  (42) 
energy

$$$$
42:0
     RDKit          3D

 61 65  0  0  0  0  0  0  0  0999 V2000
    0.3486   25.7334  -25.9981 H   0  0  0  0  0  0  0  0  0  0  0  0
    0.0340   25.1140  -26.8510 C   0  0  0  0  0  0  0  0  0  0  0  0
    0.2920   23.7980  -26.8400 C   0  0  0  0  0  0  0  0  0  0  0  0
    0.8181   23.3587  -25.9796 H   0  0  0  0  0  0  0  0  0  0  0  0
   -0.1250   22.9090  -27.9840 C   0  0  0  0  0  0  0  0  0  0  0  0
    0.6936   22.8671  -28.7176 H   0  0  0  0  0  0  0  0  0  0  0  0
   -0.3456   21.9117  -27.5758 H   0  0  0  0  0  0  0  0  0  0  0  0
   -1.3780   23.4200  -28.6760 C   0  0  0  0  0  0  0  0  0  0  0  0
   -1.6330   24.8020  -28.6740 C   0  0  0  0  0  0  0  0  0  0  0  0
   -2.6970   25.2970  -29.3450 N   0  0  0  0  0  0  0  0  0  0  0  0
   -3.5810   24.5030  -29.9940 C   0  0  0  0  0  0  0  0  0  0  0  0
   -4.6800   25.1030  -30.6210 C   0  0  0  0  0  0  0  0  0  0  0  0
   -4.7773   26.1987  -30.6230 H   0  0  0  0  0  0  0  0  0  0  0  0
   -5.6490   24.3220  -31.2410 C   0  0  0  0  0  0  0  0  0  0  0  0
   -6.4989   24.7994  -31.7507 H   0  0  0  0  0  0  0  0  0  0  0  0
   -5.5410   22.9370  -31.2150 C   0  0  0  0  0  0  0  0  0  0  0  0
   -6.3227   22.3197  -31.6817 H   0  0  0  0  0  0  0  0  0  0  0  0
   -4.4460   22.3220  -30.6000 C   0  0  0  0  0  0  0  0  0  0  0  0
   -4.3904   21.2239  -30.5679 H   0  0  0  0  0  0  0  0  0  0  0  0
   -3.4060   23.0900  -30.0170 C   0  0  0  0  0  0  0  0  0  0  0  0
   -2.2200   22.5490  -29.4110 C   0  0  0  0  0  0  0  0  0  0  0  0
   -1.7950   21.3150  -29.5440 N   0  0  0  0  0  0  0  0  0  0  0  0
   -0.7510   20.7070  -30.3600 C   0  0  0  0  0  0  0  0  0  0  0  0
   -0.9697   19.6385  -30.5033 H   0  0  0  0  0  0  0  0  0  0  0  0
    0.2222   20.8111  -29.8580 H   0  0  0  0  0  0  0  0  0  0  0  0
   -0.7110   21.4120  -31.7230 C   0  0  0  0  0  0  0  0  0  0  0  0
   -0.0785   22.3079  -31.6375 H   0  0  0  0  0  0  0  0  0  0  0  0
   -1.7454   21.6692  -31.9949 H   0  0  0  0  0  0  0  0  0  0  0  0
   -0.1650   20.5450  -32.8010 N   0  0  0  0  0  0  0  0  0  0  0  0
    0.8580   20.7510  -32.8900 H   0  0  0  0  0  0  0  0  0  0  0  0
   -0.3050   19.1010  -32.5510 C   0  0  0  0  0  0  0  0  0  0  0  0
    0.2005   18.8586  -31.6046 H   0  0  0  0  0  0  0  0  0  0  0  0
    0.1464   18.5744  -33.4048 H   0  0  0  0  0  0  0  0  0  0  0  0
   -1.7660   18.6480  -32.4540 C   0  0  0  0  0  0  0  0  0  0  0  0
   -2.1129   18.8267  -31.4255 H   0  0  0  0  0  0  0  0  0  0  0  0
   -1.7819   17.5850  -32.7366 H   0  0  0  0  0  0  0  0  0  0  0  0
   -2.6890   19.3410  -33.3790 N   0  0  0  0  0  0  0  0  0  0  0  0
   -4.0950   18.9340  -33.4100 C   0  0  0  0  0  0  0  0  0  0  0  0
   -4.4850   17.6770  -33.9350 C   0  0  0  0  0  0  0  0  0  0  0  0
   -3.7177   16.9907  -34.3228 H   0  0  0  0  0  0  0  0  0  0  0  0
   -5.8300   17.2950  -33.9680 C   0  0  0  0  0  0  0  0  0  0  0  0
   -6.1103   16.3129  -34.3766 H   0  0  0  0  0  0  0  0  0  0  0  0
   -6.8160   18.1520  -33.4860 C   0  0  0  0  0  0  0  0  0  0  0  0
   -7.8722   17.8459  -33.5117 H   0  0  0  0  0  0  0  0  0  0  0  0
   -6.4630   19.3980  -32.9710 C   0  0  0  0  0  0  0  0  0  0  0  0
   -7.7360   20.5040  -32.3540 S   0  0  0  0  0  0  0  0  0  0  0  0
   -8.7710   19.1500  -31.7160 C   0  0  0  0  0  0  0  0  0  0  0  0
   -8.7587   19.1661  -30.6162 H   0  0  0  0  0  0  0  0  0  0  0  0
   -9.8035   19.2782  -32.0731 H   0  0  0  0  0  0  0  0  0  0  0  0
   -8.3764   18.1873  -32.0731 H   0  0  0  0  0  0  0  0  0  0  0  0
   -5.1190   19.7870  -32.9290 C   0  0  0  0  0  0  0  0  0  0  0  0
   -4.8534   20.7712  -32.5157 H   0  0  0  0  0  0  0  0  0  0  0  0
   -2.2730   20.5280  -34.1630 C   0  0  0  0  0  0  0  0  0  0  0  0
   -2.8237   21.3999  -33.7803 H   0  0  0  0  0  0  0  0  0  0  0  0
   -2.4982   20.2965  -35.2145 H   0  0  0  0  0  0  0  0  0  0  0  0
   -0.7710   20.8500  -34.1060 C   0  0  0  0  0  0  0  0  0  0  0  0
   -0.6345   21.9216  -34.3136 H   0  0  0  0  0  0  0  0  0  0  0  0
   -0.2714   20.2186  -34.8554 H   0  0  0  0  0  0  0  0  0  0  0  0
   -0.6780   25.7580  -28.0090 C   0  0  0  0  0  0  0  0  0  0  0  0
    0.0676   26.0889  -28.7470 H   0  0  0  0  0  0  0  0  0  0  0  0
   -1.2568   26.6112  -27.6254 H   0  0  0  0  0  0  0  0  0  0  0  0
  1  2  1  0
  2  3  2  0
  3  4  1  0
  3  5  1  0
  5  6  1  0
  5  7  1  0
  5  8  1  0
  8  9  2  0
  9 10  1  0
 10 11  1  0
 11 12  2  0
 12 13  1  0
 12 14  1  0
 14 15  1  0
 14 16  2  0
 16 17  1  0
 16 18  1  0
 18 19  1  0
 18 20  2  0
 20 21  1  0
 21 22  2  0
 22 23  1  0
 23 24  1  0
 23 25  1  0
 23 26  1  0
 26 27  1  0
 26 28  1  0
 26 29  1  0
 29 30  1  0
 29 31  1  0
 31 32  1  0
 31 33  1  0
 31 34  1  0
 34 35  1  0
 34 36  1  0
 34 37  1  0
 37 38  1  0
 38 39  2  0
 39 40  1  0
 39 41  1  0
 41 42  1  0
 41 43  2  0
 43 44  1  0
 43 45  1  0
 45 46  1  0
 46 47  1  0
 47 48  1  0
 47 49  1  0
 47 50  1  0
 45 51  2  0
 51 52  1  0
 37 53  1  0
 53 54  1  0
 53 55  1  0
 53 56  1  0
 56 57  1  0
 56 58  1  0
  9 59  1  0
 59 60  1  0
 59 61  1  0
 59  2  1  0
 21  8  1  0
 56 29  1  0
 20 11  1  0
 51 38  1  0
M  CHG  2  10  -1  29   1
M  END
>  <UniqueID>  (43) 
41

>  <SMILES>  (43) 
CSc1cccc(N2CC[NH+](CC/N=c3/c4c([n-]c5ccccc35)CC=CC4)CC2)c1

>  <Energy>  (43) 
93.60153049122913

>  <Genealogy>  (43) 
CSc1cccc(N2CC[NH+](CCN=c3c4c([n-]c5ccccc35)CC=CC4)CC2)c1 (protonated)
CSc1cccc(N2CC[NH+](CC/N=c3/c4c([n-]c5ccccc35)CC=CC4)CC2)c1 (cis-trans isomerization)
CSc1cccc(N2CC[NH+](CC/N=c3/c4c([n-]c5ccccc35)CC=CC4)CC2)c1 (3D coordinates assigned)
CSc1cccc(N2CC[NH+](CC/N=c3/c4c([n-]c5ccccc35)CC=CC4)CC2)c1 (nonaromatic ring conformer: 93.60153049122913 kcal/mol)

>  <smiles>  (43) 
CSc1cccc(N2CCN(CCN=c3c4c([nH]c5ccccc35)CC=CC4)CC2)c1

>  <score_type>  (43) 
oracle

>  <origin>  (43) 
adg

>  <m_score__min__energy>  (43) 
-11.109999999999999

>  <m_primary>  (43) 
energy

$$$$
43:0
     RDKit          3D

 44 44  0  0  0  0  0  0  0  0999 V2000
   -8.8570   18.5700  -31.9950 C   0  0  0  0  0  0  0  0  0  0  0  0
   -8.3610   19.6510  -32.9480 C   0  0  0  0  0  0  0  0  0  0  0  0
   -7.2710   20.4250  -32.3090 N   0  0  0  0  0  0  0  0  0  0  0  0
   -6.1100   19.5570  -32.0010 C   0  0  0  0  0  0  0  0  0  0  0  0
   -5.5440   18.9540  -33.2830 C   0  0  0  0  0  0  0  0  0  0  0  0
   -7.7500   21.1290  -31.0970 C   0  0  0  0  0  0  0  0  0  0  0  0
   -9.1160   21.7920  -31.3430 C   0  0  0  0  0  0  0  0  0  0  0  0
   -9.0010   23.1920  -31.9590 C   0  0  0  0  0  0  0  0  0  0  0  0
   -7.6240   23.4420  -32.4290 N   0  0  0  0  0  0  0  0  0  0  0  0
   -6.8100   24.1700  -31.4450 C   0  0  0  0  0  0  0  0  0  0  0  0
   -5.3700   23.7640  -31.5570 C   0  0  0  0  0  0  0  0  0  0  0  0
   -4.4720   24.5750  -31.2030 O   0  0  0  0  0  0  0  0  0  0  0  0
   -5.0220   22.4880  -32.1180 N   0  0  0  0  0  0  0  0  0  0  0  0
   -3.6940   21.9290  -32.0910 C   0  0  0  0  0  0  0  0  0  0  0  0
   -3.0470   21.5550  -33.2850 C   0  0  0  0  0  0  0  0  0  0  0  0
   -1.7540   21.0270  -33.2570 C   0  0  0  0  0  0  0  0  0  0  0  0
   -1.0830   20.8820  -32.0420 C   0  0  0  0  0  0  0  0  0  0  0  0
   -1.7000   21.2740  -30.8530 C   0  0  0  0  0  0  0  0  0  0  0  0
   -2.9960   21.8050  -30.8700 C   0  0  0  0  0  0  0  0  0  0  0  0
   -3.7190   22.2870  -29.3410 Cl  0  0  0  0  0  0  0  0  0  0  0  0
   -8.7059   18.8993  -30.9564 H   0  0  0  0  0  0  0  0  0  0  0  0
   -9.9279   18.3898  -32.1704 H   0  0  0  0  0  0  0  0  0  0  0  0
   -8.2952   17.6407  -32.1704 H   0  0  0  0  0  0  0  0  0  0  0  0
   -7.9836   19.1809  -33.8681 H   0  0  0  0  0  0  0  0  0  0  0  0
   -9.1924   20.3290  -33.1909 H   0  0  0  0  0  0  0  0  0  0  0  0
   -5.3306   20.1555  -31.5067 H   0  0  0  0  0  0  0  0  0  0  0  0
   -6.4381   18.7432  -31.3376 H   0  0  0  0  0  0  0  0  0  0  0  0
   -4.8115   18.1737  -33.0289 H   0  0  0  0  0  0  0  0  0  0  0  0
   -6.3610   18.5121  -33.8722 H   0  0  0  0  0  0  0  0  0  0  0  0
   -5.0513   19.7415  -33.8722 H   0  0  0  0  0  0  0  0  0  0  0  0
   -7.8456   20.4042  -30.2751 H   0  0  0  0  0  0  0  0  0  0  0  0
   -7.0231   21.9134  -30.8393 H   0  0  0  0  0  0  0  0  0  0  0  0
   -9.6967   21.1550  -32.0264 H   0  0  0  0  0  0  0  0  0  0  0  0
   -9.6088   21.9022  -30.3657 H   0  0  0  0  0  0  0  0  0  0  0  0
   -9.6932   23.2702  -32.8103 H   0  0  0  0  0  0  0  0  0  0  0  0
   -9.2547   23.9386  -31.1920 H   0  0  0  0  0  0  0  0  0  0  0  0
   -7.1670   22.5160  -32.5910 H   0  0  0  0  0  0  0  0  0  0  0  0
   -6.8976   25.2508  -31.6302 H   0  0  0  0  0  0  0  0  0  0  0  0
   -7.1716   23.9300  -30.4342 H   0  0  0  0  0  0  0  0  0  0  0  0
   -5.7740   21.9580  -32.6150 H   0  0  0  0  0  0  0  0  0  0  0  0
   -3.5643   21.6798  -34.2477 H   0  0  0  0  0  0  0  0  0  0  0  0
   -1.2639   20.7250  -34.1943 H   0  0  0  0  0  0  0  0  0  0  0  0
   -0.0679   20.4588  -32.0214 H   0  0  0  0  0  0  0  0  0  0  0  0
   -1.1657   21.1654  -29.8976 H   0  0  0  0  0  0  0  0  0  0  0  0
  1  2  1  0
  2  3  1  0
  3  4  1  0
  4  5  1  0
  3  6  1  0
  6  7  1  0
  7  8  1  0
  8  9  1  0
  9 10  1  0
 10 11  1  0
 11 12  2  0
 11 13  1  0
 13 14  1  0
 14 15  2  0
 15 16  1  0
 16 17  2  0
 17 18  1  0
 18 19  2  0
 19 20  1  0
 19 14  1  0
  1 21  1  0
  1 22  1  0
  1 23  1  0
  2 24  1  0
  2 25  1  0
  4 26  1  0
  4 27  1  0
  5 28  1  0
  5 29  1  0
  5 30  1  0
  6 31  1  0
  6 32  1  0
  7 33  1  0
  7 34  1  0
  8 35  1  0
  8 36  1  0
  9 37  1  0
 10 38  1  0
 10 39  1  0
 13 40  1  0
 15 41  1  0
 16 42  1  0
 17 43  1  0
 18 44  1  0
M  END
>  <UniqueID>  (44) 
42

>  <SMILES>  (44) 
CCN(CC)CCCNCC(=O)Nc1ccccc1Cl

>  <Energy>  (44) 
39.89878788623794

>  <Genealogy>  (44) 
CCN(CC)CCCNCC(=O)Nc1ccccc1Cl (3D coordinates assigned)
CCN(CC)CCCNCC(=O)Nc1ccccc1Cl (optimized conformer: 39.89878788623794 kcal/mol)

>  <smiles>  (44) 
CCN(CC)CCCNCC(=O)Nc1ccccc1Cl

>  <score_type>  (44) 
oracle

>  <origin>  (44) 
adg

>  <m_score__min__energy>  (44) 
-7

>  <m_primary>  (44) 
energy

$$$$
