0:0
     RDKit          3D

 67 69  0  0  0  0  0  0  0  0999 V2000
   -0.8390   22.3760  -26.0750 C   0  0  0  0  0  0  0  0  0  0  0  0
   -1.2480   20.9760  -26.3510 C   0  0  0  0  0  0  0  0  0  0  0  0
   -2.0570   20.7030  -27.4650 N   0  0  0  0  0  0  0  0  0  0  0  0
   -3.0970   19.7260  -27.2510 C   0  0  0  0  0  0  0  0  0  0  0  0
   -2.6440   18.6910  -26.2780 C   0  0  0  0  0  0  0  0  0  0  0  0
   -1.5230   20.7460  -28.7640 C   0  0  0  0  0  0  0  0  0  0  0  0
   -2.5370   20.9450  -29.8870 C   0  0  0  0  0  0  0  0  0  0  0  0
   -2.6120   22.2650  -30.2370 O   0  0  0  0  0  0  0  0  0  0  0  0
   -1.6620   23.0940  -29.6530 C   0  0  0  0  0  0  0  0  0  0  0  0
   -2.4030   24.2510  -29.0170 C   0  0  0  0  0  0  0  0  0  0  0  0
   -3.8040   24.4450  -29.4100 C   0  0  0  0  0  0  0  0  0  0  0  0
   -4.1180   24.4280  -30.8080 N   0  0  0  0  0  0  0  0  0  0  0  0
   -5.5030   24.7720  -31.0630 C   0  0  0  0  0  0  0  0  0  0  0  0
   -6.0810   23.7400  -32.0260 C   0  0  0  0  0  0  0  0  0  0  0  0
   -5.3070   22.5390  -31.8520 N   0  0  0  0  0  0  0  0  0  0  0  0
   -5.6510   21.2570  -32.3480 C   0  0  0  0  0  0  0  0  0  0  0  0
   -6.9000   20.6930  -32.2750 C   0  0  0  0  0  0  0  0  0  0  0  0
   -7.8840   21.4400  -31.6430 C   0  0  0  0  0  0  0  0  0  0  0  0
   -9.1750   20.9090  -31.5380 C   0  0  0  0  0  0  0  0  0  0  0  0
   -9.4190   19.6620  -32.0680 C   0  0  0  0  0  0  0  0  0  0  0  0
   -8.4030   18.9380  -32.6990 C   0  0  0  0  0  0  0  0  0  0  0  0
   -7.1360   19.4410  -32.8120 C   0  0  0  0  0  0  0  0  0  0  0  0
   -6.1730   18.7120  -33.4250 N   0  0  0  0  0  0  0  0  0  0  0  0
   -6.4230   17.4100  -34.0100 C   0  0  0  0  0  0  0  0  0  0  0  0
   -4.9230   19.2500  -33.5050 C   0  0  0  0  0  0  0  0  0  0  0  0
   -3.8680   18.5950  -34.0920 C   0  0  0  0  0  0  0  0  0  0  0  0
   -2.5860   19.1280  -34.1770 C   0  0  0  0  0  0  0  0  0  0  0  0
   -2.3500   20.3760  -33.6450 C   0  0  0  0  0  0  0  0  0  0  0  0
   -0.6100   21.1650  -33.7280 Br  0  0  0  0  0  0  0  0  0  0  0  0
   -3.3880   21.0750  -33.0400 C   0  0  0  0  0  0  0  0  0  0  0  0
   -4.6470   20.5150  -32.9750 C   0  0  0  0  0  0  0  0  0  0  0  0
   -0.7920   22.5367  -24.9878 H   0  0  0  0  0  0  0  0  0  0  0  0
    0.1512   22.5625  -26.5163 H   0  0  0  0  0  0  0  0  0  0  0  0
   -1.5730   23.0662  -26.5163 H   0  0  0  0  0  0  0  0  0  0  0  0
   -0.3249   20.3904  -26.4737 H   0  0  0  0  0  0  0  0  0  0  0  0
   -1.8888   20.7185  -25.4948 H   0  0  0  0  0  0  0  0  0  0  0  0
   -3.9914   20.2292  -26.8550 H   0  0  0  0  0  0  0  0  0  0  0  0
   -3.3313   19.2380  -28.2086 H   0  0  0  0  0  0  0  0  0  0  0  0
   -2.8040   19.0565  -25.2529 H   0  0  0  0  0  0  0  0  0  0  0  0
   -3.2197   17.7664  -26.4316 H   0  0  0  0  0  0  0  0  0  0  0  0
   -1.5741   18.4866  -26.4316 H   0  0  0  0  0  0  0  0  0  0  0  0
   -0.8032   21.5767  -28.8068 H   0  0  0  0  0  0  0  0  0  0  0  0
   -1.0721   19.7577  -28.9371 H   0  0  0  0  0  0  0  0  0  0  0  0
   -2.2276   20.3555  -30.7626 H   0  0  0  0  0  0  0  0  0  0  0  0
   -3.5255   20.6135  -29.5363 H   0  0  0  0  0  0  0  0  0  0  0  0
   -1.0997   22.5404  -28.8866 H   0  0  0  0  0  0  0  0  0  0  0  0
   -0.9466   23.4568  -30.4058 H   0  0  0  0  0  0  0  0  0  0  0  0
   -2.3824   24.0990  -27.9277 H   0  0  0  0  0  0  0  0  0  0  0  0
   -1.8809   25.1522  -29.3709 H   0  0  0  0  0  0  0  0  0  0  0  0
   -4.3913   23.6466  -28.9329 H   0  0  0  0  0  0  0  0  0  0  0  0
   -4.0411   25.4695  -29.0871 H   0  0  0  0  0  0  0  0  0  0  0  0
   -3.4640   25.0130  -31.3820 H   0  0  0  0  0  0  0  0  0  0  0  0
   -6.0694   24.7597  -30.1201 H   0  0  0  0  0  0  0  0  0  0  0  0
   -5.5700   25.7791  -31.5003 H   0  0  0  0  0  0  0  0  0  0  0  0
   -7.1378   23.5486  -31.7883 H   0  0  0  0  0  0  0  0  0  0  0  0
   -6.0337   24.0962  -33.0657 H   0  0  0  0  0  0  0  0  0  0  0  0
   -4.3850   22.5620  -31.3100 H   0  0  0  0  0  0  0  0  0  0  0  0
   -7.6532   22.4335  -31.2311 H   0  0  0  0  0  0  0  0  0  0  0  0
   -9.9771   21.4758  -31.0427 H   0  0  0  0  0  0  0  0  0  0  0  0
  -10.4276   19.2292  -31.9939 H   0  0  0  0  0  0  0  0  0  0  0  0
   -8.6270   17.9438  -33.1130 H   0  0  0  0  0  0  0  0  0  0  0  0
   -6.5652   16.6694  -33.2092 H   0  0  0  0  0  0  0  0  0  0  0  0
   -7.3288   17.4555  -34.6324 H   0  0  0  0  0  0  0  0  0  0  0  0
   -5.5648   17.1168  -34.6324 H   0  0  0  0  0  0  0  0  0  0  0  0
   -4.0463   17.5963  -34.5173 H   0  0  0  0  0  0  0  0  0  0  0  0
   -1.7755   18.5629  -34.6604 H   0  0  0  0  0  0  0  0  0  0  0  0
   -3.2059   22.0727  -32.6139 H   0  0  0  0  0  0  0  0  0  0  0  0
  1  2  1  0
  2  3  1  0
  3  4  1  0
  4  5  1  0
  3  6  1  0
  6  7  1  0
  7  8  1  0
  8  9  1  0
  9 10  1  0
 10 11  1  0
 11 12  1  0
 12 13  1  0
 13 14  1  0
 14 15  1  0
 15 16  1  0
 16 17  2  0
 17 18  1  0
 18 19  2  0
 19 20  1  0
 20 21  2  0
 21 22  1  0
 22 23  2  0
 23 24  1  0
 23 25  1  0
 25 26  2  0
 26 27  1  0
 27 28  2  0
 28 29  1  0
 28 30  1  0
 30 31  2  0
 31 16  1  0
 22 17  1  0
 31 25  1  0
  1 32  1  0
  1 33  1  0
  1 34  1  0
  2 35  1  0
  2 36  1  0
  4 37  1  0
  4 38  1  0
  5 39  1  0
  5 40  1  0
  5 41  1  0
  6 42  1  0
  6 43  1  0
  7 44  1  0
  7 45  1  0
  9 46  1  0
  9 47  1  0
 10 48  1  0
 10 49  1  0
 11 50  1  0
 11 51  1  0
 12 52  1  0
 13 53  1  0
 13 54  1  0
 14 55  1  0
 14 56  1  0
 15 57  1  0
 18 58  1  0
 19 59  1  0
 20 60  1  0
 21 61  1  0
 24 62  1  0
 24 63  1  0
 24 64  1  0
 26 65  1  0
 27 66  1  0
 30 67  1  0
M  CHG  1  23   1
M  END
>  <smiles>  (1) 
CCN(CC)CCOCCCNCCNc1c2ccccc2[n+](C)c2ccc(Br)cc12

>  <score_type>  (1) 
oracle

>  <origin>  (1) 
adg

>  <m_score__min__energy>  (1) 
-10.02

>  <m_primary>  (1) 
energy

$$$$
1:0
     RDKit          3D

 80 83  0  0  0  0  0  0  0  0999 V2000
   -6.4940   16.7700  -33.8800 C   0  0  0  0  0  0  0  0  0  0  0  0
   -6.1520   18.0880  -33.4670 N   0  0  0  0  0  0  0  0  0  0  0  0
   -6.9720   18.9770  -32.8880 C   0  0  0  0  0  0  0  0  0  0  0  0
   -8.2810   18.6120  -32.6640 C   0  0  0  0  0  0  0  0  0  0  0  0
   -9.1470   19.5250  -32.0620 C   0  0  0  0  0  0  0  0  0  0  0  0
   -8.7450   20.7850  -31.6790 C   0  0  0  0  0  0  0  0  0  0  0  0
   -7.4330   21.1400  -31.9080 C   0  0  0  0  0  0  0  0  0  0  0  0
   -6.5710   20.2310  -32.5080 C   0  0  0  0  0  0  0  0  0  0  0  0
   -5.2730   20.6360  -32.7120 C   0  0  0  0  0  0  0  0  0  0  0  0
   -4.8740   21.9560  -32.3230 N   0  0  0  0  0  0  0  0  0  0  0  0
   -4.4750   22.1240  -30.9450 C   0  0  0  0  0  0  0  0  0  0  0  0
   -3.2880   22.9950  -30.7300 C   0  0  0  0  0  0  0  0  0  0  0  0
   -3.5930   24.1930  -29.8490 C   0  0  0  0  0  0  0  0  0  0  0  0
   -4.1140   25.2490  -30.6810 N   0  0  0  0  0  0  0  0  0  0  0  0
   -5.4560   25.6350  -30.3390 C   0  0  0  0  0  0  0  0  0  0  0  0
   -6.4480   24.5990  -30.7280 C   0  0  0  0  0  0  0  0  0  0  0  0
   -6.1890   24.2420  -32.1290 N   0  0  0  0  0  0  0  0  0  0  0  0
   -4.4160   19.7370  -33.3040 C   0  0  0  0  0  0  0  0  0  0  0  0
   -3.1000   20.1040  -33.5330 C   0  0  0  0  0  0  0  0  0  0  0  0
   -2.1960   19.2310  -34.1340 C   0  0  0  0  0  0  0  0  0  0  0  0
   -2.6280   17.9910  -34.5010 C   0  0  0  0  0  0  0  0  0  0  0  0
   -1.8020   17.0380  -35.1130 O   0  0  0  0  0  0  0  0  0  0  0  0
   -1.0340   16.1300  -34.3430 C   0  0  0  0  0  0  0  0  0  0  0  0
   -0.0210   16.8910  -33.5480 C   0  0  0  0  0  0  0  0  0  0  0  0
    0.2830   16.2630  -32.2780 N   0  0  0  0  0  0  0  0  0  0  0  0
    0.2180   17.2380  -31.1840 C   0  0  0  0  0  0  0  0  0  0  0  0
   -0.7160   15.2620  -32.0330 C   0  0  0  0  0  0  0  0  0  0  0  0
   -0.1170   14.0520  -31.3030 C   0  0  0  0  0  0  0  0  0  0  0  0
    0.8340   13.4370  -32.1900 N   0  0  0  0  0  0  0  0  0  0  0  0
    0.1230   12.8230  -33.2950 C   0  0  0  0  0  0  0  0  0  0  0  0
    1.4780   12.3720  -31.4090 C   0  0  0  0  0  0  0  0  0  0  0  0
    1.7780   14.3540  -32.7560 C   0  0  0  0  0  0  0  0  0  0  0  0
    1.6370   15.7570  -32.2690 C   0  0  0  0  0  0  0  0  0  0  0  0
   -3.9580   17.6430  -34.2610 C   0  0  0  0  0  0  0  0  0  0  0  0
   -4.8590   18.4850  -33.6730 C   0  0  0  0  0  0  0  0  0  0  0  0
   -6.6577   16.1390  -32.9940 H   0  0  0  0  0  0  0  0  0  0  0  0
   -7.4137   16.8016  -34.4826 H   0  0  0  0  0  0  0  0  0  0  0  0
   -5.6750   16.3505  -34.4826 H   0  0  0  0  0  0  0  0  0  0  0  0
   -8.6389   17.6137  -32.9560 H   0  0  0  0  0  0  0  0  0  0  0  0
  -10.1912   19.2269  -31.8865 H   0  0  0  0  0  0  0  0  0  0  0  0
   -9.4483   21.4858  -31.2055 H   0  0  0  0  0  0  0  0  0  0  0  0
   -7.0708   22.1372  -31.6174 H   0  0  0  0  0  0  0  0  0  0  0  0
   -4.8820   22.7320  -33.0290 H   0  0  0  0  0  0  0  0  0  0  0  0
   -5.3220   22.5619  -30.3966 H   0  0  0  0  0  0  0  0  0  0  0  0
   -4.1885   21.1243  -30.5865 H   0  0  0  0  0  0  0  0  0  0  0  0
   -2.4962   22.3993  -30.2524 H   0  0  0  0  0  0  0  0  0  0  0  0
   -2.9731   23.3764  -31.7125 H   0  0  0  0  0  0  0  0  0  0  0  0
   -4.3393   23.9156  -29.0900 H   0  0  0  0  0  0  0  0  0  0  0  0
   -2.6783   24.5299  -29.3393 H   0  0  0  0  0  0  0  0  0  0  0  0
   -3.4810   26.0390  -30.8460 H   0  0  0  0  0  0  0  0  0  0  0  0
   -5.5144   25.7926  -29.2519 H   0  0  0  0  0  0  0  0  0  0  0  0
   -5.6950   26.5581  -30.8875 H   0  0  0  0  0  0  0  0  0  0  0  0
   -6.3350   23.7119  -30.0875 H   0  0  0  0  0  0  0  0  0  0  0  0
   -7.4728   24.9806  -30.6091 H   0  0  0  0  0  0  0  0  0  0  0  0
   -5.2080   24.5360  -32.3720 H   0  0  0  0  0  0  0  0  0  0  0  0
   -6.8960   24.7080  -32.7350 H   0  0  0  0  0  0  0  0  0  0  0  0
   -2.7614   21.1069  -33.2337 H   0  0  0  0  0  0  0  0  0  0  0  0
   -1.1538   19.5362  -34.3091 H   0  0  0  0  0  0  0  0  0  0  0  0
   -1.6953   15.5754  -33.6611 H   0  0  0  0  0  0  0  0  0  0  0  0
   -0.5222   15.4212  -35.0106 H   0  0  0  0  0  0  0  0  0  0  0  0
    0.9060   16.9619  -34.1359 H   0  0  0  0  0  0  0  0  0  0  0  0
   -0.4452   17.8831  -33.3338 H   0  0  0  0  0  0  0  0  0  0  0  0
    0.2532   16.7100  -30.2197 H   0  0  0  0  0  0  0  0  0  0  0  0
    1.0722   17.9273  -31.2560 H   0  0  0  0  0  0  0  0  0  0  0  0
   -0.7201   17.8079  -31.2560 H   0  0  0  0  0  0  0  0  0  0  0  0
   -1.5152   15.6957  -31.4140 H   0  0  0  0  0  0  0  0  0  0  0  0
   -1.1169   14.9239  -32.9999 H   0  0  0  0  0  0  0  0  0  0  0  0
    0.3869   14.3810  -30.3822 H   0  0  0  0  0  0  0  0  0  0  0  0
   -0.9063   13.3374  -31.0267 H   0  0  0  0  0  0  0  0  0  0  0  0
   -0.6548   12.1513  -32.9026 H   0  0  0  0  0  0  0  0  0  0  0  0
   -0.3448   13.6057  -33.9102 H   0  0  0  0  0  0  0  0  0  0  0  0
    0.8293   12.2462  -33.9102 H   0  0  0  0  0  0  0  0  0  0  0  0
    1.3535   12.5779  -30.3357 H   0  0  0  0  0  0  0  0  0  0  0  0
    1.0128   11.4056  -31.6533 H   0  0  0  0  0  0  0  0  0  0  0  0
    2.5499   12.3351  -31.6533 H   0  0  0  0  0  0  0  0  0  0  0  0
    2.7906   14.0032  -32.5080 H   0  0  0  0  0  0  0  0  0  0  0  0
    1.5869   14.3752  -33.8391 H   0  0  0  0  0  0  0  0  0  0  0  0
    2.0132   15.8013  -31.2363 H   0  0  0  0  0  0  0  0  0  0  0  0
    2.2106   16.3878  -32.9641 H   0  0  0  0  0  0  0  0  0  0  0  0
   -4.2979   16.6405  -34.5603 H   0  0  0  0  0  0  0  0  0  0  0  0
  1  2  1  0
  2  3  2  0
  3  4  1  0
  4  5  2  0
  5  6  1  0
  6  7  2  0
  7  8  1  0
  8  9  2  0
  9 10  1  0
 10 11  1  0
 11 12  1  0
 12 13  1  0
 13 14  1  0
 14 15  1  0
 15 16  1  0
 16 17  1  0
  9 18  1  0
 18 19  2  0
 19 20  1  0
 20 21  2  0
 21 22  1  0
 22 23  1  0
 23 24  1  0
 24 25  1  0
 25 26  1  0
 25 27  1  0
 27 28  1  0
 28 29  1  0
 29 30  1  0
 29 31  1  0
 29 32  1  0
 32 33  1  0
 21 34  1  0
 34 35  2  0
 35  2  1  0
  8  3  1  0
 35 18  1  0
 33 25  1  0
  1 36  1  0
  1 37  1  0
  1 38  1  0
  4 39  1  0
  5 40  1  0
  6 41  1  0
  7 42  1  0
 10 43  1  0
 11 44  1  0
 11 45  1  0
 12 46  1  0
 12 47  1  0
 13 48  1  0
 13 49  1  0
 14 50  1  0
 15 51  1  0
 15 52  1  0
 16 53  1  0
 16 54  1  0
 17 55  1  0
 17 56  1  0
 19 57  1  0
 20 58  1  0
 23 59  1  0
 23 60  1  0
 24 61  1  0
 24 62  1  0
 26 63  1  0
 26 64  1  0
 26 65  1  0
 27 66  1  0
 27 67  1  0
 28 68  1  0
 28 69  1  0
 30 70  1  0
 30 71  1  0
 30 72  1  0
 31 73  1  0
 31 74  1  0
 31 75  1  0
 32 76  1  0
 32 77  1  0
 33 78  1  0
 33 79  1  0
 34 80  1  0
M  CHG  3   2   1  25   1  29   1
M  END
>  <smiles>  (2) 
C[n+]1c2ccccc2c(NCCCNCCN)c2ccc(OCC[N+]3(C)CC[N+](C)(C)CC3)cc21

>  <score_type>  (2) 
oracle

>  <origin>  (2) 
adg

>  <m_score__min__energy>  (2) 
-8.75

>  <m_primary>  (2) 
energy

$$$$
2:0
     RDKit          3D

 47 49  0  0  0  0  0  0  0  0999 V2000
   -2.0090   25.2710  -26.9420 C   0  0  0  0  0  0  0  0  0  0  0  0
   -1.2290   25.7060  -28.1670 C   0  0  0  0  0  0  0  0  0  0  0  0
   -1.9010   25.2920  -29.2900 O   0  0  0  0  0  0  0  0  0  0  0  0
   -2.3420   23.9830  -29.2500 C   0  0  0  0  0  0  0  0  0  0  0  0
   -3.4490   23.8480  -30.3160 C   0  0  0  0  0  0  0  0  0  0  0  0
   -3.8810   25.1260  -30.5550 O   0  0  0  0  0  0  0  0  0  0  0  0
   -5.1450   25.3660  -30.0930 C   0  0  0  0  0  0  0  0  0  0  0  0
   -6.0460   24.1780  -30.1880 C   0  0  0  0  0  0  0  0  0  0  0  0
   -6.6410   24.1140  -31.5830 C   0  0  0  0  0  0  0  0  0  0  0  0
   -6.7990   22.7460  -31.9670 N   0  0  0  0  0  0  0  0  0  0  0  0
   -7.8760   21.9440  -32.0120 C   0  0  0  0  0  0  0  0  0  0  0  0
   -7.5160   20.7250  -32.4590 N   0  0  0  0  0  0  0  0  0  0  0  0
   -6.1960   20.7150  -32.7120 C   0  0  0  0  0  0  0  0  0  0  0  0
   -5.3560   19.7250  -33.1790 C   0  0  0  0  0  0  0  0  0  0  0  0
   -5.8330   18.4210  -33.4940 N   0  0  0  0  0  0  0  0  0  0  0  0
   -5.5200   17.7150  -34.5970 C   0  0  0  0  0  0  0  0  0  0  0  0
   -6.1520   16.4930  -34.5880 C   0  0  0  0  0  0  0  0  0  0  0  0
   -6.8860   16.4560  -33.4190 C   0  0  0  0  0  0  0  0  0  0  0  0
   -6.6690   17.6550  -32.7680 C   0  0  0  0  0  0  0  0  0  0  0  0
   -4.0570   20.0300  -33.3320 N   0  0  0  0  0  0  0  0  0  0  0  0
   -3.6390   21.2710  -33.0250 C   0  0  0  0  0  0  0  0  0  0  0  0
   -2.1830   21.5450  -33.2170 C   0  0  0  0  0  0  0  0  0  0  0  0
   -4.4520   22.2380  -32.5700 N   0  0  0  0  0  0  0  0  0  0  0  0
   -5.7530   21.9830  -32.4020 C   0  0  0  0  0  0  0  0  0  0  0  0
   -1.4658   25.5740  -26.0348 H   0  0  0  0  0  0  0  0  0  0  0  0
   -3.0011   25.7461  -26.9512 H   0  0  0  0  0  0  0  0  0  0  0  0
   -2.1261   24.1773  -26.9512 H   0  0  0  0  0  0  0  0  0  0  0  0
   -1.1351   26.8020  -28.1754 H   0  0  0  0  0  0  0  0  0  0  0  0
   -0.2237   25.2598  -28.1476 H   0  0  0  0  0  0  0  0  0  0  0  0
   -1.5124   23.2976  -29.4779 H   0  0  0  0  0  0  0  0  0  0  0  0
   -2.7254   23.7280  -28.2510 H   0  0  0  0  0  0  0  0  0  0  0  0
   -3.0451   23.3998  -31.2358 H   0  0  0  0  0  0  0  0  0  0  0  0
   -4.2673   23.1962  -29.9761 H   0  0  0  0  0  0  0  0  0  0  0  0
   -5.0789   25.6702  -29.0380 H   0  0  0  0  0  0  0  0  0  0  0  0
   -5.5784   26.1542  -30.7261 H   0  0  0  0  0  0  0  0  0  0  0  0
   -5.4694   23.2621  -29.9915 H   0  0  0  0  0  0  0  0  0  0  0  0
   -6.8528   24.2654  -29.4454 H   0  0  0  0  0  0  0  0  0  0  0  0
   -7.6215   24.6125  -31.5875 H   0  0  0  0  0  0  0  0  0  0  0  0
   -5.9710   24.6210  -32.2930 H   0  0  0  0  0  0  0  0  0  0  0  0
   -8.8970   22.2380  -31.7271 H   0  0  0  0  0  0  0  0  0  0  0  0
   -4.8507   18.0670  -35.3958 H   0  0  0  0  0  0  0  0  0  0  0  0
   -6.0861   15.7069  -35.3546 H   0  0  0  0  0  0  0  0  0  0  0  0
   -7.5227   15.6288  -33.0720 H   0  0  0  0  0  0  0  0  0  0  0  0
   -7.1122   17.9406  -31.8026 H   0  0  0  0  0  0  0  0  0  0  0  0
   -1.6947   21.6369  -32.2356 H   0  0  0  0  0  0  0  0  0  0  0  0
   -1.7250   20.7173  -33.7784 H   0  0  0  0  0  0  0  0  0  0  0  0
   -2.0572   22.4826  -33.7784 H   0  0  0  0  0  0  0  0  0  0  0  0
  1  2  1  0
  2  3  1  0
  3  4  1  0
  4  5  1  0
  5  6  1  0
  6  7  1  0
  7  8  1  0
  8  9  1  0
  9 10  1  0
 10 11  1  0
 11 12  2  0
 12 13  1  0
 13 14  2  0
 14 15  1  0
 15 16  1  0
 16 17  2  0
 17 18  1  0
 18 19  2  0
 14 20  1  0
 20 21  2  0
 21 22  1  0
 21 23  1  0
 23 24  2  0
 24 10  1  0
 24 13  1  0
 19 15  1  0
  1 25  1  0
  1 26  1  0
  1 27  1  0
  2 28  1  0
  2 29  1  0
  4 30  1  0
  4 31  1  0
  5 32  1  0
  5 33  1  0
  7 34  1  0
  7 35  1  0
  8 36  1  0
  8 37  1  0
  9 38  1  0
  9 39  1  0
 11 40  1  0
 16 41  1  0
 17 42  1  0
 18 43  1  0
 19 44  1  0
 22 45  1  0
 22 46  1  0
 22 47  1  0
M  END
>  <smiles>  (3) 
CCOCCOCCCn1cnc2c(-n3cccc3)nc(C)nc21

>  <score_type>  (3) 
oracle

>  <origin>  (3) 
adg

>  <m_score__min__energy>  (3) 
-7.7400000000000002

>  <m_primary>  (3) 
energy

$$$$
3:0
     RDKit          3D

 84 87  0  0  0  0  0  0  0  0999 V2000
   -6.5010   25.6960  -29.3390 C   0  0  0  0  0  0  0  0  0  0  0  0
   -5.9500   24.3800  -29.8370 C   0  0  0  0  0  0  0  0  0  0  0  0
   -4.7960   24.6900  -30.7870 C   0  0  0  0  0  0  0  0  0  0  0  0
   -3.7020   23.7850  -30.6800 N   0  0  0  0  0  0  0  0  0  0  0  0
   -2.7310   24.1100  -29.6980 C   0  0  0  0  0  0  0  0  0  0  0  0
   -3.0880   23.7600  -28.2830 C   0  0  0  0  0  0  0  0  0  0  0  0
   -3.9670   22.4260  -30.9330 C   0  0  0  0  0  0  0  0  0  0  0  0
   -3.6280   21.8860  -32.2830 C   0  0  0  0  0  0  0  0  0  0  0  0
   -4.6660   21.5560  -33.1830 N   0  0  0  0  0  0  0  0  0  0  0  0
   -5.8360   20.8200  -32.8960 C   0  0  0  0  0  0  0  0  0  0  0  0
   -7.0240   21.3210  -32.4480 C   0  0  0  0  0  0  0  0  0  0  0  0
   -7.1870   22.6760  -32.3080 C   0  0  0  0  0  0  0  0  0  0  0  0
   -8.3380   23.2750  -31.8800 C   0  0  0  0  0  0  0  0  0  0  0  0
   -9.4050   22.4590  -31.5710 C   0  0  0  0  0  0  0  0  0  0  0  0
   -9.2840   21.0690  -31.7010 C   0  0  0  0  0  0  0  0  0  0  0  0
   -8.1140   20.4990  -32.1340 C   0  0  0  0  0  0  0  0  0  0  0  0
   -8.0450   19.1670  -32.2600 N   0  0  0  0  0  0  0  0  0  0  0  0
   -9.0890   18.2440  -31.9740 C   0  0  0  0  0  0  0  0  0  0  0  0
   -6.8640   18.6450  -32.7100 C   0  0  0  0  0  0  0  0  0  0  0  0
   -6.7450   17.2760  -32.8630 C   0  0  0  0  0  0  0  0  0  0  0  0
   -5.5780   16.7020  -33.3200 C   0  0  0  0  0  0  0  0  0  0  0  0
   -4.4790   17.4540  -33.6450 C   0  0  0  0  0  0  0  0  0  0  0  0
   -3.2840   17.0140  -34.1040 O   0  0  0  0  0  0  0  0  0  0  0  0
   -2.0260   16.9900  -33.5950 C   0  0  0  0  0  0  0  0  0  0  0  0
   -1.7760   15.7930  -32.7440 C   0  0  0  0  0  0  0  0  0  0  0  0
   -1.6670   14.5620  -33.5010 N   0  0  0  0  0  0  0  0  0  0  0  0
   -0.6280   14.7690  -34.4970 C   0  0  0  0  0  0  0  0  0  0  0  0
   -1.2580   13.5150  -32.5810 C   0  0  0  0  0  0  0  0  0  0  0  0
   -2.2990   13.2490  -31.5480 C   0  0  0  0  0  0  0  0  0  0  0  0
   -3.6160   13.0350  -32.0720 N   0  0  0  0  0  0  0  0  0  0  0  0
   -3.7820   11.6350  -32.4960 C   0  0  0  0  0  0  0  0  0  0  0  0
   -4.5650   13.2380  -30.9900 C   0  0  0  0  0  0  0  0  0  0  0  0
   -3.9750   13.9230  -33.1360 C   0  0  0  0  0  0  0  0  0  0  0  0
   -2.8840   14.1500  -34.1320 C   0  0  0  0  0  0  0  0  0  0  0  0
   -4.6220   18.8390  -33.4820 C   0  0  0  0  0  0  0  0  0  0  0  0
   -5.7820   19.4190  -33.0260 C   0  0  0  0  0  0  0  0  0  0  0  0
   -6.5027   25.7001  -28.2390 H   0  0  0  0  0  0  0  0  0  0  0  0
   -5.8722   26.5198  -29.7077 H   0  0  0  0  0  0  0  0  0  0  0  0
   -7.5292   25.8261  -29.7077 H   0  0  0  0  0  0  0  0  0  0  0  0
   -5.5866   23.7810  -28.9890 H   0  0  0  0  0  0  0  0  0  0  0  0
   -6.7323   23.8061  -30.3553 H   0  0  0  0  0  0  0  0  0  0  0  0
   -5.1768   24.6528  -31.8183 H   0  0  0  0  0  0  0  0  0  0  0  0
   -4.4154   25.6851  -30.5132 H   0  0  0  0  0  0  0  0  0  0  0  0
   -1.8026   23.5780  -29.9529 H   0  0  0  0  0  0  0  0  0  0  0  0
   -2.6403   25.2060  -29.7200 H   0  0  0  0  0  0  0  0  0  0  0  0
   -2.4770   24.3591  -27.5918 H   0  0  0  0  0  0  0  0  0  0  0  0
   -4.1531   23.9735  -28.1100 H   0  0  0  0  0  0  0  0  0  0  0  0
   -2.8956   22.6909  -28.1100 H   0  0  0  0  0  0  0  0  0  0  0  0
   -3.4012   21.8392  -30.1943 H   0  0  0  0  0  0  0  0  0  0  0  0
   -5.0621   22.3430  -30.8706 H   0  0  0  0  0  0  0  0  0  0  0  0
   -3.0013   22.6405  -32.7808 H   0  0  0  0  0  0  0  0  0  0  0  0
   -3.1606   20.9151  -32.0620 H   0  0  0  0  0  0  0  0  0  0  0  0
   -4.5880   21.8850  -34.2010 H   0  0  0  0  0  0  0  0  0  0  0  0
   -6.3336   23.3238  -32.5571 H   0  0  0  0  0  0  0  0  0  0  0  0
   -8.4105   24.3685  -31.7855 H   0  0  0  0  0  0  0  0  0  0  0  0
  -10.3511   22.8987  -31.2225 H   0  0  0  0  0  0  0  0  0  0  0  0
  -10.1404   20.4252  -31.4520 H   0  0  0  0  0  0  0  0  0  0  0  0
   -9.2019   18.1442  -30.8844 H   0  0  0  0  0  0  0  0  0  0  0  0
  -10.0311   18.6099  -32.4082 H   0  0  0  0  0  0  0  0  0  0  0  0
   -8.8413   17.2642  -32.4082 H   0  0  0  0  0  0  0  0  0  0  0  0
   -7.6005   16.6307  -32.6146 H   0  0  0  0  0  0  0  0  0  0  0  0
   -5.5272   15.6084  -33.4270 H   0  0  0  0  0  0  0  0  0  0  0  0
   -1.3085   16.9858  -34.4287 H   0  0  0  0  0  0  0  0  0  0  0  0
   -1.9056   17.8809  -32.9612 H   0  0  0  0  0  0  0  0  0  0  0  0
   -0.8371   15.9474  -32.1921 H   0  0  0  0  0  0  0  0  0  0  0  0
   -2.6402   15.6858  -32.0719 H   0  0  0  0  0  0  0  0  0  0  0  0
    0.3307   14.9600  -33.9926 H   0  0  0  0  0  0  0  0  0  0  0  0
   -0.5389   13.8710  -35.1260 H   0  0  0  0  0  0  0  0  0  0  0  0
   -0.8898   15.6326  -35.1260 H   0  0  0  0  0  0  0  0  0  0  0  0
   -1.0769   12.5914  -33.1503 H   0  0  0  0  0  0  0  0  0  0  0  0
   -0.3439   13.8483  -32.0678 H   0  0  0  0  0  0  0  0  0  0  0  0
   -2.0031   12.3513  -30.9854 H   0  0  0  0  0  0  0  0  0  0  0  0
   -2.3548   14.1510  -30.9209 H   0  0  0  0  0  0  0  0  0  0  0  0
   -3.8585   10.9897  -31.6085 H   0  0  0  0  0  0  0  0  0  0  0  0
   -4.6977   11.5404  -33.0982 H   0  0  0  0  0  0  0  0  0  0  0  0
   -2.9139   11.3289  -33.0982 H   0  0  0  0  0  0  0  0  0  0  0  0
   -4.0494   13.1277  -30.0246 H   0  0  0  0  0  0  0  0  0  0  0  0
   -4.9940   14.2482  -31.0633 H   0  0  0  0  0  0  0  0  0  0  0  0
   -5.3698   12.4917  -31.0633 H   0  0  0  0  0  0  0  0  0  0  0  0
   -4.8420   13.4985  -33.6633 H   0  0  0  0  0  0  0  0  0  0  0  0
   -4.1947   14.8980  -32.6766 H   0  0  0  0  0  0  0  0  0  0  0  0
   -2.7018   13.2140  -34.6804 H   0  0  0  0  0  0  0  0  0  0  0  0
   -3.2044   14.9513  -34.8141 H   0  0  0  0  0  0  0  0  0  0  0  0
   -3.7699   19.4892  -33.7294 H   0  0  0  0  0  0  0  0  0  0  0  0
  1  2  1  0
  2  3  1  0
  3  4  1  0
  4  5  1  0
  5  6  1  0
  4  7  1  0
  7  8  1  0
  8  9  1  0
  9 10  1  0
 10 11  2  0
 11 12  1  0
 12 13  2  0
 13 14  1  0
 14 15  2  0
 15 16  1  0
 16 17  2  0
 17 18  1  0
 17 19  1  0
 19 20  2  0
 20 21  1  0
 21 22  2  0
 22 23  1  0
 23 24  1  0
 24 25  1  0
 25 26  1  0
 26 27  1  0
 26 28  1  0
 28 29  1  0
 29 30  1  0
 30 31  1  0
 30 32  1  0
 30 33  1  0
 33 34  1  0
 22 35  1  0
 35 36  2  0
 36 10  1  0
 16 11  1  0
 36 19  1  0
 34 26  1  0
  1 37  1  0
  1 38  1  0
  1 39  1  0
  2 40  1  0
  2 41  1  0
  3 42  1  0
  3 43  1  0
  5 44  1  0
  5 45  1  0
  6 46  1  0
  6 47  1  0
  6 48  1  0
  7 49  1  0
  7 50  1  0
  8 51  1  0
  8 52  1  0
  9 53  1  0
 12 54  1  0
 13 55  1  0
 14 56  1  0
 15 57  1  0
 18 58  1  0
 18 59  1  0
 18 60  1  0
 20 61  1  0
 21 62  1  0
 24 63  1  0
 24 64  1  0
 25 65  1  0
 25 66  1  0
 27 67  1  0
 27 68  1  0
 27 69  1  0
 28 70  1  0
 28 71  1  0
 29 72  1  0
 29 73  1  0
 31 74  1  0
 31 75  1  0
 31 76  1  0
 32 77  1  0
 32 78  1  0
 32 79  1  0
 33 80  1  0
 33 81  1  0
 34 82  1  0
 34 83  1  0
 35 84  1  0
M  CHG  3  17   1  26   1  30   1
M  END
>  <smiles>  (4) 
CCCN(CC)CCNc1c2ccccc2[n+](C)c2ccc(OCC[N+]3(C)CC[N+](C)(C)CC3)cc12

>  <score_type>  (4) 
oracle

>  <origin>  (4) 
adg

>  <m_score__min__energy>  (4) 
-8.4700000000000006

>  <m_primary>  (4) 
energy

$$$$
4:0
     RDKit          3D

 51 53  0  0  0  0  0  0  0  0999 V2000
   -1.8060   25.2220  -27.8340 C   0  0  0  0  0  0  0  0  0  0  0  0
   -2.0060   24.8560  -29.2600 N   0  0  0  0  0  0  0  0  0  0  0  0
   -1.2230   23.6270  -29.4070 C   0  0  0  0  0  0  0  0  0  0  0  0
   -3.4190   24.6340  -29.4750 C   0  0  0  0  0  0  0  0  0  0  0  0
   -4.0520   25.4090  -30.4650 N   0  0  0  0  0  0  0  0  0  0  0  0
   -5.3780   25.1280  -30.8550 C   0  0  0  0  0  0  0  0  0  0  0  0
   -5.6970   23.6200  -30.6240 C   0  0  0  0  0  0  0  0  0  0  0  0
   -4.7400   22.7790  -31.4160 C   0  0  0  0  0  0  0  0  0  0  0  0
   -5.2600   22.2280  -32.6360 N   0  0  0  0  0  0  0  0  0  0  0  0
   -5.6200   20.8890  -32.8470 C   0  0  0  0  0  0  0  0  0  0  0  0
   -6.8710   20.3550  -32.6460 C   0  0  0  0  0  0  0  0  0  0  0  0
   -7.8930   21.1890  -32.2530 C   0  0  0  0  0  0  0  0  0  0  0  0
   -9.1810   20.7440  -32.0390 C   0  0  0  0  0  0  0  0  0  0  0  0
   -9.4090   19.3970  -32.2410 C   0  0  0  0  0  0  0  0  0  0  0  0
   -8.3920   18.5360  -32.6410 C   0  0  0  0  0  0  0  0  0  0  0  0
   -7.1110   18.9990  -32.8500 C   0  0  0  0  0  0  0  0  0  0  0  0
   -6.1770   18.1370  -33.2420 N   0  0  0  0  0  0  0  0  0  0  0  0
   -6.3450   16.7400  -33.4650 C   0  0  0  0  0  0  0  0  0  0  0  0
   -4.9310   18.6480  -33.4490 C   0  0  0  0  0  0  0  0  0  0  0  0
   -3.8980   17.8080  -33.8700 C   0  0  0  0  0  0  0  0  0  0  0  0
   -2.6180   18.2800  -34.0980 C   0  0  0  0  0  0  0  0  0  0  0  0
   -2.3280   19.6020  -33.9140 C   0  0  0  0  0  0  0  0  0  0  0  0
   -3.3510   20.4410  -33.4960 C   0  0  0  0  0  0  0  0  0  0  0  0
   -4.6390   19.9800  -33.2630 C   0  0  0  0  0  0  0  0  0  0  0  0
   -2.2340   24.4388  -27.1909 H   0  0  0  0  0  0  0  0  0  0  0  0
   -0.7298   25.3184  -27.6276 H   0  0  0  0  0  0  0  0  0  0  0  0
   -2.3061   26.1797  -27.6276 H   0  0  0  0  0  0  0  0  0  0  0  0
   -0.9711   23.2315  -28.4119 H   0  0  0  0  0  0  0  0  0  0  0  0
   -1.8124   22.8806  -29.9597 H   0  0  0  0  0  0  0  0  0  0  0  0
   -0.2975   23.8458  -29.9597 H   0  0  0  0  0  0  0  0  0  0  0  0
   -3.5491   23.5769  -29.7499 H   0  0  0  0  0  0  0  0  0  0  0  0
   -3.8984   24.9352  -28.5319 H   0  0  0  0  0  0  0  0  0  0  0  0
   -3.8770   26.4260  -30.3920 H   0  0  0  0  0  0  0  0  0  0  0  0
   -6.0700   25.7415  -30.2594 H   0  0  0  0  0  0  0  0  0  0  0  0
   -5.4956   25.3609  -31.9236 H   0  0  0  0  0  0  0  0  0  0  0  0
   -5.5947   23.3833  -29.5547 H   0  0  0  0  0  0  0  0  0  0  0  0
   -6.7263   23.4091  -30.9496 H   0  0  0  0  0  0  0  0  0  0  0  0
   -3.8711   23.4038  -31.6703 H   0  0  0  0  0  0  0  0  0  0  0  0
   -4.4969   21.9175  -30.7767 H   0  0  0  0  0  0  0  0  0  0  0  0
   -5.3920   22.8810  -33.4710 H   0  0  0  0  0  0  0  0  0  0  0  0
   -7.6732   22.2563  -32.1031 H   0  0  0  0  0  0  0  0  0  0  0  0
   -9.9843   21.4262  -31.7240 H   0  0  0  0  0  0  0  0  0  0  0  0
  -10.4203   18.9947  -32.0816 H   0  0  0  0  0  0  0  0  0  0  0  0
   -8.6138   17.4693  -32.7927 H   0  0  0  0  0  0  0  0  0  0  0  0
   -6.4076   16.2193  -32.4981 H   0  0  0  0  0  0  0  0  0  0  0  0
   -7.2703   16.5683  -34.0345 H   0  0  0  0  0  0  0  0  0  0  0  0
   -5.4868   16.3538  -34.0345 H   0  0  0  0  0  0  0  0  0  0  0  0
   -4.1084   16.7395  -34.0249 H   0  0  0  0  0  0  0  0  0  0  0  0
   -1.8300   17.5875  -34.4290 H   0  0  0  0  0  0  0  0  0  0  0  0
   -1.3141   19.9898  -34.0918 H   0  0  0  0  0  0  0  0  0  0  0  0
   -3.1335   21.5085  -33.3440 H   0  0  0  0  0  0  0  0  0  0  0  0
  1  2  1  0
  2  3  1  0
  2  4  1  0
  4  5  1  0
  5  6  1  0
  6  7  1  0
  7  8  1  0
  8  9  1  0
  9 10  1  0
 10 11  2  0
 11 12  1  0
 12 13  2  0
 13 14  1  0
 14 15  2  0
 15 16  1  0
 16 17  2  0
 17 18  1  0
 17 19  1  0
 19 20  2  0
 20 21  1  0
 21 22  2  0
 22 23  1  0
 23 24  2  0
 24 10  1  0
 16 11  1  0
 24 19  1  0
  1 25  1  0
  1 26  1  0
  1 27  1  0
  3 28  1  0
  3 29  1  0
  3 30  1  0
  4 31  1  0
  4 32  1  0
  5 33  1  0
  6 34  1  0
  6 35  1  0
  7 36  1  0
  7 37  1  0
  8 38  1  0
  8 39  1  0
  9 40  1  0
 12 41  1  0
 13 42  1  0
 14 43  1  0
 15 44  1  0
 18 45  1  0
 18 46  1  0
 18 47  1  0
 20 48  1  0
 21 49  1  0
 22 50  1  0
 23 51  1  0
M  CHG  1  17   1
M  END
>  <smiles>  (5) 
CN(C)CNCCCNc1c2ccccc2[n+](C)c2ccccc12

>  <score_type>  (5) 
oracle

>  <origin>  (5) 
adg

>  <m_score__min__energy>  (5) 
-9.1300000000000008

>  <m_primary>  (5) 
energy

$$$$
5:0
     RDKit          3D

 61 64  0  0  0  0  0  0  0  0999 V2000
   -8.4340   21.7790  -31.3710 C   0  0  0  0  0  0  0  0  0  0  0  0
   -8.0010   20.5790  -32.2490 C   0  0  0  0  0  0  0  0  0  0  0  0
   -7.1730   19.8320  -31.4460 O   0  0  0  0  0  0  0  0  0  0  0  0
   -6.9030   18.5530  -31.8260 C   0  0  0  0  0  0  0  0  0  0  0  0
   -6.8320   18.2850  -33.2940 C   0  0  0  0  0  0  0  0  0  0  0  0
   -6.2960   17.0510  -33.5670 O   0  0  0  0  0  0  0  0  0  0  0  0
   -5.7300   17.0130  -34.8120 C   0  0  0  0  0  0  0  0  0  0  0  0
   -4.2350   17.1560  -34.8010 C   0  0  0  0  0  0  0  0  0  0  0  0
   -3.9120   18.5400  -34.8770 O   0  0  0  0  0  0  0  0  0  0  0  0
   -3.3820   19.1180  -33.7290 C   0  0  0  0  0  0  0  0  0  0  0  0
   -2.2200   18.5570  -33.2230 C   0  0  0  0  0  0  0  0  0  0  0  0
   -1.6370   19.0780  -32.0870 C   0  0  0  0  0  0  0  0  0  0  0  0
   -2.1930   20.1710  -31.4200 C   0  0  0  0  0  0  0  0  0  0  0  0
   -3.3680   20.7150  -31.9550 C   0  0  0  0  0  0  0  0  0  0  0  0
   -3.9550   20.1980  -33.0920 C   0  0  0  0  0  0  0  0  0  0  0  0
   -4.1300   21.8500  -31.4430 C   0  0  0  0  0  0  0  0  0  0  0  0
   -5.2010   22.1700  -32.0080 O   0  0  0  0  0  0  0  0  0  0  0  0
   -3.7690   22.6820  -30.3000 C   0  0  0  0  0  0  0  0  0  0  0  0
   -4.8130   23.4270  -29.8010 C   0  0  0  0  0  0  0  0  0  0  0  0
   -4.6030   24.2630  -28.7120 C   0  0  0  0  0  0  0  0  0  0  0  0
   -3.3740   24.3850  -28.0940 C   0  0  0  0  0  0  0  0  0  0  0  0
   -3.1190   25.2050  -26.9800 N   0  0  0  0  0  0  0  0  0  0  0  0
   -1.8590   25.5690  -26.4700 C   0  0  0  0  0  0  0  0  0  0  0  0
   -0.6900   25.5940  -27.1950 C   0  0  0  0  0  0  0  0  0  0  0  0
    0.5340   25.9450  -26.6420 C   0  0  0  0  0  0  0  0  0  0  0  0
    1.6790   25.9640  -27.3700 F   0  0  0  0  0  0  0  0  0  0  0  0
    0.6290   26.2900  -25.3100 C   0  0  0  0  0  0  0  0  0  0  0  0
   -0.5240   26.2730  -24.5660 C   0  0  0  0  0  0  0  0  0  0  0  0
   -0.4930   26.6040  -23.2460 F   0  0  0  0  0  0  0  0  0  0  0  0
   -1.7380   25.9240  -25.1210 C   0  0  0  0  0  0  0  0  0  0  0  0
   -2.3500   23.6200  -28.6270 C   0  0  0  0  0  0  0  0  0  0  0  0
   -2.5260   22.7800  -29.7080 C   0  0  0  0  0  0  0  0  0  0  0  0
   -1.2730   22.0720  -30.0830 C   0  0  0  0  0  0  0  0  0  0  0  0
   -1.4480   20.5990  -30.2290 C   0  0  0  0  0  0  0  0  0  0  0  0
   -8.3370   21.5100  -30.3088 H   0  0  0  0  0  0  0  0  0  0  0  0
   -7.7915   22.6445  -31.5903 H   0  0  0  0  0  0  0  0  0  0  0  0
   -9.4811   22.0348  -31.5903 H   0  0  0  0  0  0  0  0  0  0  0  0
   -8.8769   19.9889  -32.5566 H   0  0  0  0  0  0  0  0  0  0  0  0
   -7.4993   20.9025  -33.1729 H   0  0  0  0  0  0  0  0  0  0  0  0
   -5.9322   18.2747  -31.3900 H   0  0  0  0  0  0  0  0  0  0  0  0
   -7.7577   17.9607  -31.4673 H   0  0  0  0  0  0  0  0  0  0  0  0
   -7.8481   18.3312  -33.7128 H   0  0  0  0  0  0  0  0  0  0  0  0
   -6.1795   19.0461  -33.7468 H   0  0  0  0  0  0  0  0  0  0  0  0
   -5.9832   16.0498  -35.2792 H   0  0  0  0  0  0  0  0  0  0  0  0
   -6.1305   17.8702  -35.3731 H   0  0  0  0  0  0  0  0  0  0  0  0
   -3.8286   16.7309  -33.8714 H   0  0  0  0  0  0  0  0  0  0  0  0
   -3.7993   16.6203  -35.6573 H   0  0  0  0  0  0  0  0  0  0  0  0
   -1.7618   17.6943  -33.7287 H   0  0  0  0  0  0  0  0  0  0  0  0
   -0.7142   18.6226  -31.6982 H   0  0  0  0  0  0  0  0  0  0  0  0
   -4.8777   20.6465  -33.4889 H   0  0  0  0  0  0  0  0  0  0  0  0
   -5.8093   23.3606  -30.2626 H   0  0  0  0  0  0  0  0  0  0  0  0
   -5.4489   24.8511  -28.3265 H   0  0  0  0  0  0  0  0  0  0  0  0
   -3.9640   25.5940  -26.4670 H   0  0  0  0  0  0  0  0  0  0  0  0
   -0.7269   25.3237  -28.2606 H   0  0  0  0  0  0  0  0  0  0  0  0
    1.5936   26.5686  -24.8605 H   0  0  0  0  0  0  0  0  0  0  0  0
   -2.6361   25.9247  -24.4858 H   0  0  0  0  0  0  0  0  0  0  0  0
   -1.3522   23.6847  -28.1686 H   0  0  0  0  0  0  0  0  0  0  0  0
   -0.9164   22.4777  -31.0412 H   0  0  0  0  0  0  0  0  0  0  0  0
   -0.5512   22.2348  -29.2690 H   0  0  0  0  0  0  0  0  0  0  0  0
   -0.4490   20.1404  -30.2699 H   0  0  0  0  0  0  0  0  0  0  0  0
   -2.0457   20.2762  -29.3638 H   0  0  0  0  0  0  0  0  0  0  0  0
  1  2  1  0
  2  3  1  0
  3  4  1  0
  4  5  1  0
  5  6  1  0
  6  7  1  0
  7  8  1  0
  8  9  1  0
  9 10  1  0
 10 11  2  0
 11 12  1  0
 12 13  2  0
 13 14  1  0
 14 15  2  0
 14 16  1  0
 16 17  2  0
 16 18  1  0
 18 19  2  0
 19 20  1  0
 20 21  2  0
 21 22  1  0
 22 23  1  0
 23 24  2  0
 24 25  1  0
 25 26  1  0
 25 27  2  0
 27 28  1  0
 28 29  1  0
 28 30  2  0
 21 31  1  0
 31 32  2  0
 32 33  1  0
 33 34  1  0
 15 10  1  0
 32 18  1  0
 34 13  1  0
 30 23  1  0
  1 35  1  0
  1 36  1  0
  1 37  1  0
  2 38  1  0
  2 39  1  0
  4 40  1  0
  4 41  1  0
  5 42  1  0
  5 43  1  0
  7 44  1  0
  7 45  1  0
  8 46  1  0
  8 47  1  0
 11 48  1  0
 12 49  1  0
 15 50  1  0
 19 51  1  0
 20 52  1  0
 22 53  1  0
 24 54  1  0
 27 55  1  0
 30 56  1  0
 31 57  1  0
 33 58  1  0
 33 59  1  0
 34 60  1  0
 34 61  1  0
M  END
>  <smiles>  (6) 
CCOCCOCCOc1ccc2c(c1)C(=O)c1ccc(Nc3cc(F)cc(F)c3)cc1CC2

>  <score_type>  (6) 
oracle

>  <origin>  (6) 
adg

>  <m_score__min__energy>  (6) 
-6.5800000000000001

>  <m_primary>  (6) 
energy

$$$$
6:0
     RDKit          3D

 35 37  0  0  0  0  0  0  0  0999 V2000
   -9.4610   21.6120  -30.9480 C   0  0  0  0  0  0  0  0  0  0  0  0
   -8.2880   21.2090  -31.6440 N   0  0  0  0  0  0  0  0  0  0  0  0
   -7.2610   21.9600  -32.0400 C   0  0  0  0  0  0  0  0  0  0  0  0
   -7.0230   23.6760  -31.7640 S   0  0  0  0  0  0  0  0  0  0  0  0
   -6.4810   24.3300  -30.2620 C   0  0  0  0  0  0  0  0  0  0  0  0
   -5.4030   25.3780  -30.4030 C   0  0  0  0  0  0  0  0  0  0  0  0
   -4.1250   24.9350  -30.6030 O   0  0  0  0  0  0  0  0  0  0  0  0
   -3.4850   23.7610  -30.6140 C   0  0  0  0  0  0  0  0  0  0  0  0
   -3.7280   22.6650  -31.4100 C   0  0  0  0  0  0  0  0  0  0  0  0
   -3.0110   21.4900  -31.3500 C   0  0  0  0  0  0  0  0  0  0  0  0
   -1.9850   21.3910  -30.4410 C   0  0  0  0  0  0  0  0  0  0  0  0
   -1.6910   22.4520  -29.6180 C   0  0  0  0  0  0  0  0  0  0  0  0
   -2.4230   23.6080  -29.7000 C   0  0  0  0  0  0  0  0  0  0  0  0
   -1.9900   24.9190  -28.6170 Cl  0  0  0  0  0  0  0  0  0  0  0  0
   -6.2050   21.4010  -32.7300 N   0  0  0  0  0  0  0  0  0  0  0  0
   -6.1290   20.0930  -33.0490 C   0  0  0  0  0  0  0  0  0  0  0  0
   -5.1130   19.5040  -33.7230 C   0  0  0  0  0  0  0  0  0  0  0  0
   -5.2740   18.1240  -33.9280 C   0  0  0  0  0  0  0  0  0  0  0  0
   -6.8810   17.6970  -33.1500 S   0  0  0  0  0  0  0  0  0  0  0  0
   -7.1810   19.3240  -32.6440 C   0  0  0  0  0  0  0  0  0  0  0  0
   -8.2490   19.8620  -31.9520 C   0  0  0  0  0  0  0  0  0  0  0  0
   -9.1720   19.0920  -31.6170 O   0  0  0  0  0  0  0  0  0  0  0  0
   -9.2834   21.5510  -29.8641 H   0  0  0  0  0  0  0  0  0  0  0  0
   -9.7116   22.6478  -31.2208 H   0  0  0  0  0  0  0  0  0  0  0  0
  -10.2952   20.9489  -31.2208 H   0  0  0  0  0  0  0  0  0  0  0  0
   -7.3424   24.7860  -29.7521 H   0  0  0  0  0  0  0  0  0  0  0  0
   -6.0436   23.4976  -29.6912 H   0  0  0  0  0  0  0  0  0  0  0  0
   -5.6704   26.0152  -31.2589 H   0  0  0  0  0  0  0  0  0  0  0  0
   -5.3769   25.8915  -29.4306 H   0  0  0  0  0  0  0  0  0  0  0  0
   -4.5472   22.7313  -32.1411 H   0  0  0  0  0  0  0  0  0  0  0  0
   -3.2546   20.6488  -32.0157 H   0  0  0  0  0  0  0  0  0  0  0  0
   -1.3990   20.4626  -30.3720 H   0  0  0  0  0  0  0  0  0  0  0  0
   -0.8675   22.3733  -28.8929 H   0  0  0  0  0  0  0  0  0  0  0  0
   -4.2341   20.0605  -34.0805 H   0  0  0  0  0  0  0  0  0  0  0  0
   -4.5828   17.4426  -34.4457 H   0  0  0  0  0  0  0  0  0  0  0  0
  1  2  1  0
  2  3  1  0
  3  4  1  0
  4  5  1  0
  5  6  1  0
  6  7  1  0
  7  8  1  0
  8  9  2  0
  9 10  1  0
 10 11  2  0
 11 12  1  0
 12 13  2  0
 13 14  1  0
  3 15  2  0
 15 16  1  0
 16 17  1  0
 17 18  2  0
 18 19  1  0
 19 20  1  0
 20 21  1  0
 21 22  2  0
 21  2  1  0
 13  8  1  0
 20 16  2  0
  1 23  1  0
  1 24  1  0
  1 25  1  0
  5 26  1  0
  5 27  1  0
  6 28  1  0
  6 29  1  0
  9 30  1  0
 10 31  1  0
 11 32  1  0
 12 33  1  0
 17 34  1  0
 18 35  1  0
M  END
>  <smiles>  (7) 
Cn1c(SCCOc2ccccc2Cl)nc2ccsc2c1=O

>  <score_type>  (7) 
oracle

>  <origin>  (7) 
adg

>  <m_score__min__energy>  (7) 
-8.4800000000000004

>  <m_primary>  (7) 
energy

$$$$
7:0
     RDKit          3D

 31 33  0  0  0  0  0  0  0  0999 V2000
   -5.3880   18.5410  -34.2040 C   0  0  0  0  0  0  0  0  0  0  0  0
   -5.5560   18.7610  -32.7240 C   0  0  0  0  0  0  0  0  0  0  0  0
   -6.8260   19.3850  -32.4710 N   0  0  0  0  0  0  0  0  0  0  0  0
   -7.9940   18.7190  -32.7190 C   0  0  0  0  0  0  0  0  0  0  0  0
   -9.2240   19.2960  -32.4840 C   0  0  0  0  0  0  0  0  0  0  0  0
   -9.2330   20.5760  -31.9870 C   0  0  0  0  0  0  0  0  0  0  0  0
   -8.0560   21.2850  -31.7230 C   0  0  0  0  0  0  0  0  0  0  0  0
   -6.8850   20.6560  -31.9770 C   0  0  0  0  0  0  0  0  0  0  0  0
   -5.6680   21.3270  -31.7290 N   0  0  0  0  0  0  0  0  0  0  0  0
   -5.6960   22.6530  -31.2150 C   0  0  0  0  0  0  0  0  0  0  0  0
   -4.5030   23.3300  -30.9640 C   0  0  0  0  0  0  0  0  0  0  0  0
   -4.5130   24.6180  -30.4650 C   0  0  0  0  0  0  0  0  0  0  0  0
   -5.7210   25.2430  -30.2110 C   0  0  0  0  0  0  0  0  0  0  0  0
   -6.8700   24.5560  -30.4660 C   0  0  0  0  0  0  0  0  0  0  0  0
   -6.9020   23.2610  -30.9680 C   0  0  0  0  0  0  0  0  0  0  0  0
   -8.2260   22.6520  -31.1910 C   0  0  0  0  0  0  0  0  0  0  0  0
   -4.7284   17.6772  -34.3737 H   0  0  0  0  0  0  0  0  0  0  0  0
   -6.3703   18.3474  -34.6597 H   0  0  0  0  0  0  0  0  0  0  0  0
   -4.9426   19.4376  -34.6597 H   0  0  0  0  0  0  0  0  0  0  0  0
   -5.5131   17.7933  -32.2027 H   0  0  0  0  0  0  0  0  0  0  0  0
   -4.7491   19.4125  -32.3573 H   0  0  0  0  0  0  0  0  0  0  0  0
   -7.9512   17.6944  -33.1170 H   0  0  0  0  0  0  0  0  0  0  0  0
  -10.1593   18.7535  -32.6863 H   0  0  0  0  0  0  0  0  0  0  0  0
  -10.2001   21.0614  -31.7893 H   0  0  0  0  0  0  0  0  0  0  0  0
   -4.7550   20.9020  -31.9020 H   0  0  0  0  0  0  0  0  0  0  0  0
   -3.5428   22.8326  -31.1657 H   0  0  0  0  0  0  0  0  0  0  0  0
   -3.5664   25.1436  -30.2708 H   0  0  0  0  0  0  0  0  0  0  0  0
   -5.7531   26.2681  -29.8134 H   0  0  0  0  0  0  0  0  0  0  0  0
   -7.8283   25.0562  -30.2624 H   0  0  0  0  0  0  0  0  0  0  0  0
   -8.7749   22.6092  -30.2387 H   0  0  0  0  0  0  0  0  0  0  0  0
   -8.7916   23.2588  -31.9134 H   0  0  0  0  0  0  0  0  0  0  0  0
  1  2  1  0
  2  3  1  0
  3  4  2  0
  4  5  1  0
  5  6  2  0
  6  7  1  0
  7  8  2  0
  8  9  1  0
  9 10  1  0
 10 11  2  0
 11 12  1  0
 12 13  2  0
 13 14  1  0
 14 15  2  0
 15 16  1  0
  8  3  1  0
 15 10  1  0
 16  7  1  0
  1 17  1  0
  1 18  1  0
  1 19  1  0
  2 20  1  0
  2 21  1  0
  4 22  1  0
  5 23  1  0
  6 24  1  0
  9 25  1  0
 11 26  1  0
 12 27  1  0
 13 28  1  0
 14 29  1  0
 16 30  1  0
 16 31  1  0
M  CHG  1   3   1
M  END
>  <smiles>  (8) 
CC[n+]1cccc2c1Nc1ccccc1C2

>  <score_type>  (8) 
oracle

>  <origin>  (8) 
adg

>  <m_score__min__energy>  (8) 
-6.4400000000000004

>  <m_primary>  (8) 
energy

$$$$
8:0
     RDKit          3D

 51 53  0  0  0  0  0  0  0  0999 V2000
   -1.4920   20.2650  -33.3510 C   0  0  0  0  0  0  0  0  0  0  0  0
   -2.9590   20.3370  -33.1150 C   0  0  0  0  0  0  0  0  0  0  0  0
   -3.5670   21.5650  -33.1240 C   0  0  0  0  0  0  0  0  0  0  0  0
   -4.9480   21.6280  -32.9040 C   0  0  0  0  0  0  0  0  0  0  0  0
   -5.6480   20.4630  -32.6880 C   0  0  0  0  0  0  0  0  0  0  0  0
   -6.9940   20.2840  -32.4610 C   0  0  0  0  0  0  0  0  0  0  0  0
   -8.1090   21.2160  -32.3340 C   0  0  0  0  0  0  0  0  0  0  0  0
   -8.3630   21.7920  -31.0670 N   0  0  0  0  0  0  0  0  0  0  0  0
   -9.7870   21.9220  -30.9010 C   0  0  0  0  0  0  0  0  0  0  0  0
   -7.6230   22.9420  -30.6870 C   0  0  0  0  0  0  0  0  0  0  0  0
   -6.2960   22.6340  -30.0360 C   0  0  0  0  0  0  0  0  0  0  0  0
   -5.7280   23.6830  -29.2660 N   0  0  0  0  0  0  0  0  0  0  0  0
   -4.3030   23.6630  -29.1330 C   0  0  0  0  0  0  0  0  0  0  0  0
   -3.6240   23.9590  -30.4450 C   0  0  0  0  0  0  0  0  0  0  0  0
   -3.8570   25.3320  -30.6730 O   0  0  0  0  0  0  0  0  0  0  0  0
   -5.2170   25.5530  -30.8220 C   0  0  0  0  0  0  0  0  0  0  0  0
   -6.0830   25.0080  -29.7470 C   0  0  0  0  0  0  0  0  0  0  0  0
   -7.1370   18.8980  -32.3240 C   0  0  0  0  0  0  0  0  0  0  0  0
   -8.3750   18.1280  -32.0670 C   0  0  0  0  0  0  0  0  0  0  0  0
   -5.9140   18.3120  -32.4670 N   0  0  0  0  0  0  0  0  0  0  0  0
   -5.6550   16.8780  -32.3900 C   0  0  0  0  0  0  0  0  0  0  0  0
   -4.9890   19.2580  -32.6910 C   0  0  0  0  0  0  0  0  0  0  0  0
   -3.6410   19.1790  -32.9040 N   0  0  0  0  0  0  0  0  0  0  0  0
   -0.9661   20.2392  -32.3852 H   0  0  0  0  0  0  0  0  0  0  0  0
   -1.2566   19.3542  -33.9212 H   0  0  0  0  0  0  0  0  0  0  0  0
   -1.1685   21.1484  -33.9212 H   0  0  0  0  0  0  0  0  0  0  0  0
   -2.9831   22.4805  -33.3001 H   0  0  0  0  0  0  0  0  0  0  0  0
   -5.4677   22.5975  -32.9038 H   0  0  0  0  0  0  0  0  0  0  0  0
   -7.9237   22.0425  -33.0358 H   0  0  0  0  0  0  0  0  0  0  0  0
   -8.9992   20.6020  -32.5355 H   0  0  0  0  0  0  0  0  0  0  0  0
  -10.0306   21.9442  -29.8285 H   0  0  0  0  0  0  0  0  0  0  0  0
  -10.1276   22.8550  -31.3738 H   0  0  0  0  0  0  0  0  0  0  0  0
  -10.2909   21.0661  -31.3738 H   0  0  0  0  0  0  0  0  0  0  0  0
   -7.4343   23.5445  -31.5878 H   0  0  0  0  0  0  0  0  0  0  0  0
   -8.2274   23.4749  -29.9382 H   0  0  0  0  0  0  0  0  0  0  0  0
   -6.4380   21.7675  -29.3734 H   0  0  0  0  0  0  0  0  0  0  0  0
   -5.5922   22.4544  -30.8620 H   0  0  0  0  0  0  0  0  0  0  0  0
   -4.0018   24.4212  -28.3951 H   0  0  0  0  0  0  0  0  0  0  0  0
   -4.0000   22.6575  -28.8056 H   0  0  0  0  0  0  0  0  0  0  0  0
   -2.5451   23.7557  -30.3769 H   0  0  0  0  0  0  0  0  0  0  0  0
   -4.0107   23.3322  -31.2620 H   0  0  0  0  0  0  0  0  0  0  0  0
   -5.3790   26.6401  -30.8669 H   0  0  0  0  0  0  0  0  0  0  0  0
   -5.5072   25.0183  -31.7384 H   0  0  0  0  0  0  0  0  0  0  0  0
   -6.0397   25.7007  -28.8936 H   0  0  0  0  0  0  0  0  0  0  0  0
   -7.0854   24.9092  -30.1890 H   0  0  0  0  0  0  0  0  0  0  0  0
   -8.5287   18.0324  -30.9820 H   0  0  0  0  0  0  0  0  0  0  0  0
   -9.2324   18.6524  -32.5140 H   0  0  0  0  0  0  0  0  0  0  0  0
   -8.2837   17.1271  -32.5140 H   0  0  0  0  0  0  0  0  0  0  0  0
   -5.5996   16.5715  -31.3350 H   0  0  0  0  0  0  0  0  0  0  0  0
   -6.4689   16.3311  -32.8885 H   0  0  0  0  0  0  0  0  0  0  0  0
   -4.7012   16.6504  -32.8885 H   0  0  0  0  0  0  0  0  0  0  0  0
  1  2  1  0
  2  3  2  0
  3  4  1  0
  4  5  2  0
  5  6  1  0
  6  7  1  0
  7  8  1  0
  8  9  1  0
  8 10  1  0
 10 11  1  0
 11 12  1  0
 12 13  1  0
 13 14  1  0
 14 15  1  0
 15 16  1  0
 16 17  1  0
  6 18  2  0
 18 19  1  0
 18 20  1  0
 20 21  1  0
 20 22  1  0
 22 23  2  0
 23  2  1  0
 22  5  1  0
 17 12  1  0
  1 24  1  0
  1 25  1  0
  1 26  1  0
  3 27  1  0
  4 28  1  0
  7 29  1  0
  7 30  1  0
  9 31  1  0
  9 32  1  0
  9 33  1  0
 10 34  1  0
 10 35  1  0
 11 36  1  0
 11 37  1  0
 13 38  1  0
 13 39  1  0
 14 40  1  0
 14 41  1  0
 16 42  1  0
 16 43  1  0
 17 44  1  0
 17 45  1  0
 19 46  1  0
 19 47  1  0
 19 48  1  0
 21 49  1  0
 21 50  1  0
 21 51  1  0
M  END
>  <smiles>  (9) 
Cc1ccc2c(CN(C)CCN3CCOCC3)c(C)n(C)c2n1

>  <score_type>  (9) 
oracle

>  <origin>  (9) 
adg

>  <m_score__min__energy>  (9) 
-8.4499999999999993

>  <m_primary>  (9) 
energy

$$$$
9:0
     RDKit          3D

 46 48  0  0  0  0  0  0  0  0999 V2000
   -9.1620   20.3770  -32.3150 C   0  0  0  0  0  0  0  0  0  0  0  0
   -8.1450   20.7740  -31.3140 C   0  0  0  0  0  0  0  0  0  0  0  0
   -6.9620   21.4080  -31.7860 N   0  0  0  0  0  0  0  0  0  0  0  0
   -6.5170   22.6750  -31.6940 C   0  0  0  0  0  0  0  0  0  0  0  0
   -7.2710   24.0520  -30.8710 S   0  0  0  0  0  0  0  0  0  0  0  0
   -6.1150   24.9050  -29.7760 C   0  0  0  0  0  0  0  0  0  0  0  0
   -5.1040   25.6770  -30.5840 C   0  0  0  0  0  0  0  0  0  0  0  0
   -3.7800   25.2820  -30.4270 O   0  0  0  0  0  0  0  0  0  0  0  0
   -3.3280   24.1540  -29.8320 C   0  0  0  0  0  0  0  0  0  0  0  0
   -2.9560   22.9770  -30.4280 C   0  0  0  0  0  0  0  0  0  0  0  0
   -2.5060   21.8720  -29.6950 C   0  0  0  0  0  0  0  0  0  0  0  0
   -2.4110   21.9120  -28.3220 C   0  0  0  0  0  0  0  0  0  0  0  0
   -1.9830   20.8840  -27.5290 O   0  0  0  0  0  0  0  0  0  0  0  0
   -2.7840   19.7970  -27.1180 C   0  0  0  0  0  0  0  0  0  0  0  0
   -2.7830   23.0950  -27.7090 C   0  0  0  0  0  0  0  0  0  0  0  0
   -3.2250   24.1790  -28.4300 C   0  0  0  0  0  0  0  0  0  0  0  0
   -5.3160   22.7850  -32.3400 N   0  0  0  0  0  0  0  0  0  0  0  0
   -5.0260   21.6080  -32.8180 N   0  0  0  0  0  0  0  0  0  0  0  0
   -6.0050   20.7430  -32.5020 C   0  0  0  0  0  0  0  0  0  0  0  0
   -6.0380   19.3270  -32.8610 C   0  0  0  0  0  0  0  0  0  0  0  0
   -6.1100   18.3190  -31.9150 C   0  0  0  0  0  0  0  0  0  0  0  0
   -6.1400   16.9830  -32.3090 C   0  0  0  0  0  0  0  0  0  0  0  0
   -6.0970   16.6950  -33.6620 C   0  0  0  0  0  0  0  0  0  0  0  0
   -6.0260   17.7070  -34.6010 C   0  0  0  0  0  0  0  0  0  0  0  0
   -5.9960   19.0370  -34.2210 C   0  0  0  0  0  0  0  0  0  0  0  0
  -10.0667   20.0239  -31.7984 H   0  0  0  0  0  0  0  0  0  0  0  0
   -9.4139   21.2428  -32.9450 H   0  0  0  0  0  0  0  0  0  0  0  0
   -8.7607   19.5695  -32.9450 H   0  0  0  0  0  0  0  0  0  0  0  0
   -8.6300   21.4666  -30.6104 H   0  0  0  0  0  0  0  0  0  0  0  0
   -7.7967   19.8245  -30.8813 H   0  0  0  0  0  0  0  0  0  0  0  0
   -6.6719   25.6006  -29.1310 H   0  0  0  0  0  0  0  0  0  0  0  0
   -5.5888   24.1606  -29.1605 H   0  0  0  0  0  0  0  0  0  0  0  0
   -5.3658   25.5678  -31.6468 H   0  0  0  0  0  0  0  0  0  0  0  0
   -5.1540   26.7129  -30.2173 H   0  0  0  0  0  0  0  0  0  0  0  0
   -3.0131   22.8975  -31.5236 H   0  0  0  0  0  0  0  0  0  0  0  0
   -2.2223   20.9523  -30.2275 H   0  0  0  0  0  0  0  0  0  0  0  0
   -2.8129   19.7577  -26.0191 H   0  0  0  0  0  0  0  0  0  0  0  0
   -3.8047   19.9259  -27.5073 H   0  0  0  0  0  0  0  0  0  0  0  0
   -2.3586   18.8603  -27.5073 H   0  0  0  0  0  0  0  0  0  0  0  0
   -2.7235   23.1706  -26.6132 H   0  0  0  0  0  0  0  0  0  0  0  0
   -3.5074   25.0961  -27.8922 H   0  0  0  0  0  0  0  0  0  0  0  0
   -6.1437   18.5744  -30.8456 H   0  0  0  0  0  0  0  0  0  0  0  0
   -6.1965   16.1767  -31.5629 H   0  0  0  0  0  0  0  0  0  0  0  0
   -6.1196   15.6467  -33.9946 H   0  0  0  0  0  0  0  0  0  0  0  0
   -5.9927   17.4501  -35.6701 H   0  0  0  0  0  0  0  0  0  0  0  0
   -5.9407   19.8400  -34.9707 H   0  0  0  0  0  0  0  0  0  0  0  0
  1  2  1  0
  2  3  1  0
  3  4  1  0
  4  5  1  0
  5  6  1  0
  6  7  1  0
  7  8  1  0
  8  9  1  0
  9 10  2  0
 10 11  1  0
 11 12  2  0
 12 13  1  0
 13 14  1  0
 12 15  1  0
 15 16  2  0
  4 17  2  0
 17 18  1  0
 18 19  2  0
 19 20  1  0
 20 21  2  0
 21 22  1  0
 22 23  2  0
 23 24  1  0
 24 25  2  0
 19  3  1  0
 25 20  1  0
 16  9  1  0
  1 26  1  0
  1 27  1  0
  1 28  1  0
  2 29  1  0
  2 30  1  0
  6 31  1  0
  6 32  1  0
  7 33  1  0
  7 34  1  0
 10 35  1  0
 11 36  1  0
 14 37  1  0
 14 38  1  0
 14 39  1  0
 15 40  1  0
 16 41  1  0
 21 42  1  0
 22 43  1  0
 23 44  1  0
 24 45  1  0
 25 46  1  0
M  END
>  <smiles>  (10) 
CCn1c(SCCOc2ccc(OC)cc2)nnc1-c1ccccc1

>  <score_type>  (10) 
oracle

>  <origin>  (10) 
adg

>  <m_score__min__energy>  (10) 
-8.6500000000000004

>  <m_primary>  (10) 
energy

$$$$
10:0
     RDKit          3D

 61 63  0  0  1  0  0  0  0  0999 V2000
    0.8470   24.1830  -36.1060 C   0  0  0  0  0  0  0  0  0  0  0  0
    0.7490   22.6520  -36.0830 C   0  0  0  0  0  0  0  0  0  0  0  0
   -0.0160   22.3010  -34.9270 N   0  0  0  0  0  0  0  0  0  0  0  0
    0.3410   20.9790  -34.4080 C   0  0  0  0  0  0  0  0  0  0  0  0
   -0.9610   20.1700  -34.3060 C   0  0  0  0  0  0  0  0  0  0  0  0
   -2.0140   20.9520  -33.9530 O   0  0  0  0  0  0  0  0  0  0  0  0
   -2.0920   21.3240  -32.6060 C   0  0  0  0  0  0  0  0  0  0  0  0
   -3.4530   21.7150  -32.2550 C   0  0  0  0  0  0  0  0  0  0  0  0
   -4.5200   21.6040  -33.2300 N   0  0  0  0  0  0  0  0  0  0  0  0
   -5.6990   20.9020  -32.9390 C   0  0  0  0  0  0  0  0  0  0  0  0
   -5.6320   19.5180  -33.2060 C   0  0  0  0  0  0  0  0  0  0  0  0
   -4.5120   18.9730  -33.8100 C   0  0  0  0  0  0  0  0  0  0  0  0
   -4.3790   17.6360  -34.1130 C   0  0  0  0  0  0  0  0  0  0  0  0
   -5.4190   16.7980  -33.8000 C   0  0  0  0  0  0  0  0  0  0  0  0
   -6.5440   17.3170  -33.2020 C   0  0  0  0  0  0  0  0  0  0  0  0
   -6.6670   18.6710  -32.9000 C   0  0  0  0  0  0  0  0  0  0  0  0
   -7.8100   19.1500  -32.3200 N   0  0  0  0  0  0  0  0  0  0  0  0
   -8.8200   18.1570  -32.0520 C   0  0  0  0  0  0  0  0  0  0  0  0
   -7.8910   20.4510  -32.0670 C   0  0  0  0  0  0  0  0  0  0  0  0
   -9.0640   20.9150  -31.5030 C   0  0  0  0  0  0  0  0  0  0  0  0
   -9.2090   22.2550  -31.2430 C   0  0  0  0  0  0  0  0  0  0  0  0
   -8.1810   23.1030  -31.5540 C   0  0  0  0  0  0  0  0  0  0  0  0
   -6.9800   22.6890  -32.1240 C   0  0  0  0  0  0  0  0  0  0  0  0
   -6.0670   23.6980  -32.4750 N   0  0  0  0  0  0  0  0  0  0  0  0
   -5.7690   24.7930  -31.5160 C   0  0  0  0  0  0  0  0  0  0  0  0
   -4.8790   24.2130  -30.4760 C   0  0  0  0  0  0  0  0  0  0  0  0
   -3.6640   24.5970  -30.4690 N   0  0  0  0  0  0  0  0  0  0  0  0
   -2.7170   23.8540  -29.6770 C   0  0  0  0  0  0  0  0  0  0  0  0
   -6.8480   21.3540  -32.3710 C   0  0  0  0  0  0  0  0  0  0  0  0
    0.8714   24.5644  -35.0745 H   0  0  0  0  0  0  0  0  0  0  0  0
    1.7662   24.4837  -36.6300 H   0  0  0  0  0  0  0  0  0  0  0  0
   -0.0264   24.5985  -36.6300 H   0  0  0  0  0  0  0  0  0  0  0  0
    0.2464   22.2916  -36.9927 H   0  0  0  0  0  0  0  0  0  0  0  0
    1.7487   22.1944  -36.0469 H   0  0  0  0  0  0  0  0  0  0  0  0
   -1.0310   22.3570  -35.1030 H   0  0  0  0  0  0  0  0  0  0  0  0
    1.0425   20.4809  -35.0934 H   0  0  0  0  0  0  0  0  0  0  0  0
    0.8298   21.0616  -33.4260 H   0  0  0  0  0  0  0  0  0  0  0  0
   -1.1713   19.7090  -35.2824 H   0  0  0  0  0  0  0  0  0  0  0  0
   -0.8277   19.4040  -33.5279 H   0  0  0  0  0  0  0  0  0  0  0  0
   -1.7880   20.4732  -31.9786 H   0  0  0  0  0  0  0  0  0  0  0  0
   -1.4240   22.1816  -32.4376 H   0  0  0  0  0  0  0  0  0  0  0  0
   -3.7469   21.0980  -31.3931 H   0  0  0  0  0  0  0  0  0  0  0  0
   -3.3687   22.8007  -32.0996 H   0  0  0  0  0  0  0  0  0  0  0  0
   -4.4420   22.0030  -34.2170 H   0  0  0  0  0  0  0  0  0  0  0  0
   -3.6800   19.6468  -34.0626 H   0  0  0  0  0  0  0  0  0  0  0  0
   -3.4662   17.2517  -34.5916 H   0  0  0  0  0  0  0  0  0  0  0  0
   -5.3541   15.7231  -34.0246 H   0  0  0  0  0  0  0  0  0  0  0  0
   -7.3745   16.6396  -32.9540 H   0  0  0  0  0  0  0  0  0  0  0  0
   -8.9394   18.0396  -30.9648 H   0  0  0  0  0  0  0  0  0  0  0  0
   -9.7753   18.4773  -32.4933 H   0  0  0  0  0  0  0  0  0  0  0  0
   -8.5160   17.1964  -32.4933 H   0  0  0  0  0  0  0  0  0  0  0  0
   -9.8774   20.2142  -31.2636 H   0  0  0  0  0  0  0  0  0  0  0  0
  -10.1355   22.6405  -30.7925 H   0  0  0  0  0  0  0  0  0  0  0  0
   -8.3111   24.1744  -31.3412 H   0  0  0  0  0  0  0  0  0  0  0  0
   -5.5440   23.8360  -33.3480 H   0  0  0  0  0  0  0  0  0  0  0  0
   -5.2614   25.6218  -32.0313 H   0  0  0  0  0  0  0  0  0  0  0  0
   -6.6916   25.1942  -31.0712 H   0  0  0  0  0  0  0  0  0  0  0  0
   -5.2536   23.4830  -29.7433 H   0  0  0  0  0  0  0  0  0  0  0  0
   -2.9245   24.0168  -28.6091 H   0  0  0  0  0  0  0  0  0  0  0  0
   -2.8062   22.7824  -29.9086 H   0  0  0  0  0  0  0  0  0  0  0  0
   -1.6974   24.1956  -29.9086 H   0  0  0  0  0  0  0  0  0  0  0  0
  1  2  1  0
  2  3  1  0
  3  4  1  0
  4  5  1  0
  5  6  1  0
  6  7  1  0
  7  8  1  0
  8  9  1  0
  9 10  1  0
 10 11  2  0
 11 12  1  0
 12 13  2  0
 13 14  1  0
 14 15  2  0
 15 16  1  0
 16 17  2  0
 17 18  1  0
 17 19  1  0
 19 20  2  0
 20 21  1  0
 21 22  2  0
 22 23  1  0
 23 24  1  0
 24 25  1  0
 25 26  1  0
 26 27  2  0
 27 28  1  0
 23 29  2  0
 29 10  1  0
 16 11  1  0
 29 19  1  0
  1 30  1  0
  1 31  1  0
  1 32  1  0
  2 33  1  0
  2 34  1  0
  3 35  1  0
  4 36  1  0
  4 37  1  0
  5 38  1  0
  5 39  1  0
  7 40  1  0
  7 41  1  0
  8 42  1  0
  8 43  1  0
  9 44  1  0
 12 45  1  0
 13 46  1  0
 14 47  1  0
 15 48  1  0
 18 49  1  0
 18 50  1  0
 18 51  1  0
 20 52  1  0
 21 53  1  0
 22 54  1  0
 24 55  1  0
 25 56  1  0
 25 57  1  0
 26 58  1  0
 28 59  1  0
 28 60  1  0
 28 61  1  0
M  CHG  1  17   1
M  END
>  <smiles>  (11) 
CCNCCOCCNc1c2ccccc2[n+](C)c2cccc(NCC=NC)c12

>  <score_type>  (11) 
oracle

>  <origin>  (11) 
adg

>  <m_score__min__energy>  (11) 
-9.1199999999999992

>  <m_primary>  (11) 
energy

$$$$
11:0
     RDKit          3D

 55 57  0  0  0  0  0  0  0  0999 V2000
   -1.3750   26.0710  -26.5510 C   0  0  0  0  0  0  0  0  0  0  0  0
   -0.8230   26.6830  -27.8190 C   0  0  0  0  0  0  0  0  0  0  0  0
   -1.3030   26.0600  -28.9590 O   0  0  0  0  0  0  0  0  0  0  0  0
   -1.4720   24.6980  -28.7290 C   0  0  0  0  0  0  0  0  0  0  0  0
   -2.8790   24.2440  -29.0360 C   0  0  0  0  0  0  0  0  0  0  0  0
   -3.4870   24.9080  -30.0720 O   0  0  0  0  0  0  0  0  0  0  0  0
   -4.3300   24.0940  -30.8360 C   0  0  0  0  0  0  0  0  0  0  0  0
   -5.7780   24.4480  -30.6390 C   0  0  0  0  0  0  0  0  0  0  0  0
   -6.7530   23.6430  -31.4030 C   0  0  0  0  0  0  0  0  0  0  0  0
   -6.2820   22.9170  -32.5440 N   0  0  0  0  0  0  0  0  0  0  0  0
   -6.1810   21.5280  -32.6490 C   0  0  0  0  0  0  0  0  0  0  0  0
   -7.1450   20.5830  -32.4930 C   0  0  0  0  0  0  0  0  0  0  0  0
   -8.4240   20.9740  -32.2110 C   0  0  0  0  0  0  0  0  0  0  0  0
   -9.4730   20.1030  -32.0380 C   0  0  0  0  0  0  0  0  0  0  0  0
   -9.1940   18.7570  -32.1620 C   0  0  0  0  0  0  0  0  0  0  0  0
   -7.8990   18.3110  -32.4520 C   0  0  0  0  0  0  0  0  0  0  0  0
   -6.8740   19.2160  -32.6180 C   0  0  0  0  0  0  0  0  0  0  0  0
   -5.6510   18.7500  -32.8970 N   0  0  0  0  0  0  0  0  0  0  0  0
   -5.2770   17.3840  -33.0390 C   0  0  0  0  0  0  0  0  0  0  0  0
   -4.6590   19.6780  -33.0610 C   0  0  0  0  0  0  0  0  0  0  0  0
   -3.3630   19.2580  -33.3570 C   0  0  0  0  0  0  0  0  0  0  0  0
   -2.3250   20.1580  -33.5340 C   0  0  0  0  0  0  0  0  0  0  0  0
   -0.9350   19.6820  -33.8520 C   0  0  0  0  0  0  0  0  0  0  0  0
   -2.5580   21.5110  -33.4170 C   0  0  0  0  0  0  0  0  0  0  0  0
   -3.8440   21.9050  -33.1250 C   0  0  0  0  0  0  0  0  0  0  0  0
   -4.8930   21.0280  -32.9450 C   0  0  0  0  0  0  0  0  0  0  0  0
   -0.9264   26.5683  -25.6784 H   0  0  0  0  0  0  0  0  0  0  0  0
   -2.4670   26.2013  -26.5262 H   0  0  0  0  0  0  0  0  0  0  0  0
   -1.1331   24.9982  -26.5262 H   0  0  0  0  0  0  0  0  0  0  0  0
   -1.1068   27.7453  -27.8510 H   0  0  0  0  0  0  0  0  0  0  0  0
    0.2697   26.5577  -27.8035 H   0  0  0  0  0  0  0  0  0  0  0  0
   -0.7713   24.1401  -29.3676 H   0  0  0  0  0  0  0  0  0  0  0  0
   -1.2774   24.5061  -27.6635 H   0  0  0  0  0  0  0  0  0  0  0  0
   -2.8454   23.1740  -29.2888 H   0  0  0  0  0  0  0  0  0  0  0  0
   -3.4761   24.4605  -28.1379 H   0  0  0  0  0  0  0  0  0  0  0  0
   -4.0752   24.2162  -31.8991 H   0  0  0  0  0  0  0  0  0  0  0  0
   -4.1856   23.0529  -30.5116 H   0  0  0  0  0  0  0  0  0  0  0  0
   -6.0101   24.3316  -29.5701 H   0  0  0  0  0  0  0  0  0  0  0  0
   -5.8848   25.4764  -31.0145 H   0  0  0  0  0  0  0  0  0  0  0  0
   -7.1886   22.9109  -30.7071 H   0  0  0  0  0  0  0  0  0  0  0  0
   -7.4522   24.3831  -31.8193 H   0  0  0  0  0  0  0  0  0  0  0  0
   -5.9830   23.4890  -33.3820 H   0  0  0  0  0  0  0  0  0  0  0  0
   -8.6260   22.0512  -32.1168 H   0  0  0  0  0  0  0  0  0  0  0  0
  -10.4878   20.4620  -31.8113 H   0  0  0  0  0  0  0  0  0  0  0  0
  -10.0024   18.0226  -32.0308 H   0  0  0  0  0  0  0  0  0  0  0  0
   -7.6993   17.2335  -32.5477 H   0  0  0  0  0  0  0  0  0  0  0  0
   -5.1533   16.9323  -32.0437 H   0  0  0  0  0  0  0  0  0  0  0  0
   -6.0606   16.8448  -33.5915 H   0  0  0  0  0  0  0  0  0  0  0  0
   -4.3281   17.3192  -33.5915 H   0  0  0  0  0  0  0  0  0  0  0  0
   -3.1589   18.1813  -33.4527 H   0  0  0  0  0  0  0  0  0  0  0  0
   -0.3884   19.4948  -32.9159 H   0  0  0  0  0  0  0  0  0  0  0  0
   -0.9907   18.7517  -34.4364 H   0  0  0  0  0  0  0  0  0  0  0  0
   -0.4088   20.4511  -34.4364 H   0  0  0  0  0  0  0  0  0  0  0  0
   -1.7501   22.2454  -33.5513 H   0  0  0  0  0  0  0  0  0  0  0  0
   -4.0469   22.9819  -33.0297 H   0  0  0  0  0  0  0  0  0  0  0  0
  1  2  1  0
  2  3  1  0
  3  4  1  0
  4  5  1  0
  5  6  1  0
  6  7  1  0
  7  8  1  0
  8  9  1  0
  9 10  1  0
 10 11  1  0
 11 12  2  0
 12 13  1  0
 13 14  2  0
 14 15  1  0
 15 16  2  0
 16 17  1  0
 17 18  2  0
 18 19  1  0
 18 20  1  0
 20 21  2  0
 21 22  1  0
 22 23  1  0
 22 24  2  0
 24 25  1  0
 25 26  2  0
 26 11  1  0
 17 12  1  0
 26 20  1  0
  1 27  1  0
  1 28  1  0
  1 29  1  0
  2 30  1  0
  2 31  1  0
  4 32  1  0
  4 33  1  0
  5 34  1  0
  5 35  1  0
  7 36  1  0
  7 37  1  0
  8 38  1  0
  8 39  1  0
  9 40  1  0
  9 41  1  0
 10 42  1  0
 13 43  1  0
 14 44  1  0
 15 45  1  0
 16 46  1  0
 19 47  1  0
 19 48  1  0
 19 49  1  0
 21 50  1  0
 23 51  1  0
 23 52  1  0
 23 53  1  0
 24 54  1  0
 25 55  1  0
M  CHG  1  18   1
M  END
>  <smiles>  (12) 
CCOCCOCCCNc1c2ccccc2[n+](C)c2cc(C)ccc12

>  <score_type>  (12) 
oracle

>  <origin>  (12) 
adg

>  <m_score__min__energy>  (12) 
-9.6600000000000001

>  <m_primary>  (12) 
energy

$$$$
12:0
     RDKit          3D

 38 37  0  0  1  0  0  0  0  0999 V2000
   -2.7190   25.0420  -26.5170 C   0  0  0  0  0  0  0  0  0  0  0  0
   -3.9020   24.3470  -27.1500 C   0  0  0  0  0  0  0  0  0  0  0  0
   -3.6810   24.0220  -28.4760 O   0  0  0  0  0  0  0  0  0  0  0  0
   -3.6710   22.6620  -28.5570 N   0  0  0  0  0  0  0  0  0  0  0  0
   -3.2620   22.1160  -29.8050 C   0  0  0  0  0  0  0  0  0  0  0  0
   -3.4640   22.7290  -30.9220 N   0  0  0  0  0  0  0  0  0  0  0  0
   -3.2060   22.0030  -32.1500 C   0  0  0  0  0  0  0  0  0  0  0  0
   -4.6070   21.7530  -32.7340 C   0  0  0  0  0  0  0  0  0  0  0  0
   -5.4180   22.8880  -32.2670 N   0  0  0  0  0  0  0  0  0  0  0  0
   -6.7320   22.4870  -31.8850 C   0  0  0  0  0  0  0  0  0  0  0  0
   -7.1410   22.9830  -30.5370 C   0  0  0  0  0  0  0  0  0  0  0  0
   -6.1790   23.7900  -29.8630 N   0  0  0  0  0  0  0  0  0  0  0  0
   -6.4600   25.1800  -29.8690 C   0  0  0  0  0  0  0  0  0  0  0  0
   -5.3720   26.0280  -30.4760 C   0  0  0  0  0  0  0  0  0  0  0  0
   -4.1820   25.2700  -30.7780 N   0  0  0  0  0  0  0  0  0  0  0  0
   -2.8065   24.9906  -25.4217 H   0  0  0  0  0  0  0  0  0  0  0  0
   -1.7897   24.5463  -26.8342 H   0  0  0  0  0  0  0  0  0  0  0  0
   -2.6996   26.0951  -26.8342 H   0  0  0  0  0  0  0  0  0  0  0  0
   -4.1084   23.4227  -26.5904 H   0  0  0  0  0  0  0  0  0  0  0  0
   -4.7543   25.0415  -27.1148 H   0  0  0  0  0  0  0  0  0  0  0  0
   -3.9420   22.0400  -27.7670 H   0  0  0  0  0  0  0  0  0  0  0  0
   -2.7568   21.1389  -29.8182 H   0  0  0  0  0  0  0  0  0  0  0  0
   -2.5963   22.6051  -32.8398 H   0  0  0  0  0  0  0  0  0  0  0  0
   -2.6443   21.0722  -31.9822 H   0  0  0  0  0  0  0  0  0  0  0  0
   -4.5699   21.7297  -33.8331 H   0  0  0  0  0  0  0  0  0  0  0  0
   -5.0233   20.7864  -32.4141 H   0  0  0  0  0  0  0  0  0  0  0  0
   -4.9470   23.3890  -31.4950 H   0  0  0  0  0  0  0  0  0  0  0  0
   -7.4438   22.8746  -32.6287 H   0  0  0  0  0  0  0  0  0  0  0  0
   -6.7327   21.3880  -31.8379 H   0  0  0  0  0  0  0  0  0  0  0  0
   -8.0577   23.5787  -30.6587 H   0  0  0  0  0  0  0  0  0  0  0  0
   -7.2745   22.0871  -29.9129 H   0  0  0  0  0  0  0  0  0  0  0  0
   -5.2010   23.5190  -29.9240 H   0  0  0  0  0  0  0  0  0  0  0  0
   -7.3844   25.3425  -30.4426 H   0  0  0  0  0  0  0  0  0  0  0  0
   -6.5511   25.4884  -28.8171 H   0  0  0  0  0  0  0  0  0  0  0  0
   -5.7512   26.4744  -31.4071 H   0  0  0  0  0  0  0  0  0  0  0  0
   -5.0990   26.7978  -29.7392 H   0  0  0  0  0  0  0  0  0  0  0  0
   -3.9170   24.6180  -29.9830 H   0  0  0  0  0  0  0  0  0  0  0  0
   -4.4330   24.6260  -31.5800 H   0  0  0  0  0  0  0  0  0  0  0  0
  1  2  1  0
  2  3  1  0
  3  4  1  0
  4  5  1  0
  5  6  2  0
  6  7  1  0
  7  8  1  0
  8  9  1  0
  9 10  1  0
 10 11  1  0
 11 12  1  0
 12 13  1  0
 13 14  1  0
 14 15  1  0
  1 16  1  0
  1 17  1  0
  1 18  1  0
  2 19  1  0
  2 20  1  0
  4 21  1  0
  5 22  1  0
  7 23  1  0
  7 24  1  0
  8 25  1  0
  8 26  1  0
  9 27  1  0
 10 28  1  0
 10 29  1  0
 11 30  1  0
 11 31  1  0
 12 32  1  0
 13 33  1  0
 13 34  1  0
 14 35  1  0
 14 36  1  0
 15 37  1  0
 15 38  1  0
M  END
>  <smiles>  (13) 
CCONC=NCCNCCNCCN

>  <score_type>  (13) 
oracle

>  <origin>  (13) 
adg

>  <m_score__min__energy>  (13) 
-3.4300000000000002

>  <m_primary>  (13) 
energy

$$$$
13:0
     RDKit          3D

 49 50  0  0  0  0  0  0  0  0999 V2000
   -1.0890   21.3720  -31.2980 C   0  0  0  0  0  0  0  0  0  0  0  0
   -2.0750   20.9590  -30.2230 C   0  0  0  0  0  0  0  0  0  0  0  0
   -2.1760   22.0740  -29.2610 N   0  0  0  0  0  0  0  0  0  0  0  0
   -1.8280   21.5760  -27.9320 C   0  0  0  0  0  0  0  0  0  0  0  0
   -2.6980   20.3580  -27.6660 C   0  0  0  0  0  0  0  0  0  0  0  0
   -1.2550   23.0820  -29.7330 C   0  0  0  0  0  0  0  0  0  0  0  0
   -1.4310   24.4060  -29.0260 C   0  0  0  0  0  0  0  0  0  0  0  0
   -2.6540   24.9290  -29.3190 O   0  0  0  0  0  0  0  0  0  0  0  0
   -3.7200   24.5310  -28.5430 C   0  0  0  0  0  0  0  0  0  0  0  0
   -4.7420   23.9860  -29.5580 C   0  0  0  0  0  0  0  0  0  0  0  0
   -4.5850   24.4340  -30.8250 O   0  0  0  0  0  0  0  0  0  0  0  0
   -5.7460   24.5760  -31.5850 C   0  0  0  0  0  0  0  0  0  0  0  0
   -6.4070   23.2470  -31.7180 C   0  0  0  0  0  0  0  0  0  0  0  0
   -7.7240   23.0920  -31.2930 C   0  0  0  0  0  0  0  0  0  0  0  0
   -8.4000   21.8970  -31.3790 C   0  0  0  0  0  0  0  0  0  0  0  0
   -7.7730   20.7830  -31.9040 C   0  0  0  0  0  0  0  0  0  0  0  0
   -8.7380   19.1240  -32.0230 Br  0  0  0  0  0  0  0  0  0  0  0  0
   -6.4740   20.9070  -32.3300 C   0  0  0  0  0  0  0  0  0  0  0  0
   -5.8380   19.8050  -32.8350 C   0  0  0  0  0  0  0  0  0  0  0  0
   -4.5120   19.8560  -33.2710 C   0  0  0  0  0  0  0  0  0  0  0  0
   -3.8620   21.0720  -33.1710 C   0  0  0  0  0  0  0  0  0  0  0  0
   -4.4710   22.2120  -32.6670 C   0  0  0  0  0  0  0  0  0  0  0  0
   -5.7940   22.1320  -32.2390 C   0  0  0  0  0  0  0  0  0  0  0  0
   -0.1722   21.7560  -30.8267 H   0  0  0  0  0  0  0  0  0  0  0  0
   -0.8427   20.5014  -31.9236 H   0  0  0  0  0  0  0  0  0  0  0  0
   -1.5367   22.1582  -31.9236 H   0  0  0  0  0  0  0  0  0  0  0  0
   -3.0592   20.7605  -30.6724 H   0  0  0  0  0  0  0  0  0  0  0  0
   -1.7365   20.0419  -29.7187 H   0  0  0  0  0  0  0  0  0  0  0  0
   -0.7652   21.2938  -27.9017 H   0  0  0  0  0  0  0  0  0  0  0  0
   -1.9961   22.3500  -27.1687 H   0  0  0  0  0  0  0  0  0  0  0  0
   -2.8024   20.2119  -26.5808 H   0  0  0  0  0  0  0  0  0  0  0  0
   -3.6914   20.5124  -28.1124 H   0  0  0  0  0  0  0  0  0  0  0  0
   -2.2297   19.4684  -28.1124 H   0  0  0  0  0  0  0  0  0  0  0  0
   -0.2275   22.7268  -29.5653 H   0  0  0  0  0  0  0  0  0  0  0  0
   -1.4582   23.2451  -30.8017 H   0  0  0  0  0  0  0  0  0  0  0  0
   -1.3505   24.2529  -27.9397 H   0  0  0  0  0  0  0  0  0  0  0  0
   -0.6491   25.1029  -29.3622 H   0  0  0  0  0  0  0  0  0  0  0  0
   -3.4159   23.7457  -27.8353 H   0  0  0  0  0  0  0  0  0  0  0  0
   -4.1272   25.3510  -27.9333 H   0  0  0  0  0  0  0  0  0  0  0  0
   -4.6582   22.8893  -29.5711 H   0  0  0  0  0  0  0  0  0  0  0  0
   -5.7270   24.3451  -29.2251 H   0  0  0  0  0  0  0  0  0  0  0  0
   -6.4293   25.2790  -31.0860 H   0  0  0  0  0  0  0  0  0  0  0  0
   -5.4912   24.9647  -32.5820 H   0  0  0  0  0  0  0  0  0  0  0  0
   -8.2464   23.9628  -30.8702 H   0  0  0  0  0  0  0  0  0  0  0  0
   -9.4407   21.8281  -31.0295 H   0  0  0  0  0  0  0  0  0  0  0  0
   -6.3861   18.8534  -32.8992 H   0  0  0  0  0  0  0  0  0  0  0  0
   -4.0067   18.9670  -33.6764 H   0  0  0  0  0  0  0  0  0  0  0  0
   -2.8163   21.1385  -33.5057 H   0  0  0  0  0  0  0  0  0  0  0  0
   -3.9192   23.1616  -32.6065 H   0  0  0  0  0  0  0  0  0  0  0  0
  1  2  1  0
  2  3  1  0
  3  4  1  0
  4  5  1  0
  3  6  1  0
  6  7  1  0
  7  8  1  0
  8  9  1  0
  9 10  1  0
 10 11  1  0
 11 12  1  0
 12 13  1  0
 13 14  2  0
 14 15  1  0
 15 16  2  0
 16 17  1  0
 16 18  1  0
 18 19  2  0
 19 20  1  0
 20 21  2  0
 21 22  1  0
 22 23  2  0
 23 13  1  0
 23 18  1  0
  1 24  1  0
  1 25  1  0
  1 26  1  0
  2 27  1  0
  2 28  1  0
  4 29  1  0
  4 30  1  0
  5 31  1  0
  5 32  1  0
  5 33  1  0
  6 34  1  0
  6 35  1  0
  7 36  1  0
  7 37  1  0
  9 38  1  0
  9 39  1  0
 10 40  1  0
 10 41  1  0
 12 42  1  0
 12 43  1  0
 14 44  1  0
 15 45  1  0
 19 46  1  0
 20 47  1  0
 21 48  1  0
 22 49  1  0
M  END
>  <smiles>  (14) 
CCN(CC)CCOCCOCc1ccc(Br)c2ccccc12

>  <score_type>  (14) 
oracle

>  <origin>  (14) 
adg

>  <m_score__min__energy>  (14) 
-8.8900000000000006

>  <m_primary>  (14) 
energy

$$$$
14:0
     RDKit          3D

 18 19  0  0  0  0  0  0  0  0999 V2000
   -6.8780   24.1590  -30.4680 C   0  0  0  0  0  0  0  0  0  0  0  0
   -5.8560   23.3340  -31.1230 N   0  0  0  0  0  0  0  0  0  0  0  0
   -4.5870   23.6250  -31.3420 N   0  0  0  0  0  0  0  0  0  0  0  0
   -3.9720   22.6060  -31.9710 C   0  0  0  0  0  0  0  0  0  0  0  0
   -4.9360   21.6350  -32.1440 C   0  0  0  0  0  0  0  0  0  0  0  0
   -4.8630   20.3920  -32.7260 C   0  0  0  0  0  0  0  0  0  0  0  0
   -3.2390   19.7450  -33.4660 Br  0  0  0  0  0  0  0  0  0  0  0  0
   -5.9900   19.5740  -32.7860 C   0  0  0  0  0  0  0  0  0  0  0  0
   -5.9170   17.8430  -33.5880 Br  0  0  0  0  0  0  0  0  0  0  0  0
   -7.1750   20.0510  -32.2440 C   0  0  0  0  0  0  0  0  0  0  0  0
   -8.6940   18.9150  -32.3380 Br  0  0  0  0  0  0  0  0  0  0  0  0
   -7.2410   21.2990  -31.6610 C   0  0  0  0  0  0  0  0  0  0  0  0
   -8.8870   21.9270  -30.9240 Br  0  0  0  0  0  0  0  0  0  0  0  0
   -6.1290   22.0870  -31.6120 C   0  0  0  0  0  0  0  0  0  0  0  0
   -6.7732   24.0744  -29.3763 H   0  0  0  0  0  0  0  0  0  0  0  0
   -6.7492   25.2093  -30.7684 H   0  0  0  0  0  0  0  0  0  0  0  0
   -7.8775   23.8116  -30.7684 H   0  0  0  0  0  0  0  0  0  0  0  0
   -2.9182   22.5578  -32.2826 H   0  0  0  0  0  0  0  0  0  0  0  0
  1  2  1  0
  2  3  1  0
  3  4  2  0
  4  5  1  0
  5  6  2  0
  6  7  1  0
  6  8  1  0
  8  9  1  0
  8 10  2  0
 10 11  1  0
 10 12  1  0
 12 13  1  0
 12 14  2  0
 14  2  1  0
 14  5  1  0
  1 15  1  0
  1 16  1  0
  1 17  1  0
  4 18  1  0
M  END
>  <smiles>  (15) 
Cn1ncc2c(Br)c(Br)c(Br)c(Br)c21

>  <score_type>  (15) 
oracle

>  <origin>  (15) 
adg

>  <m_score__min__energy>  (15) 
-7.7599999999999998

>  <m_primary>  (15) 
energy

$$$$
15:0
     RDKit          3D

 35 36  0  0  0  0  0  0  0  0999 V2000
   -5.9690   25.2590  -29.4970 C   0  0  0  0  0  0  0  0  0  0  0  0
   -5.1980   25.2450  -30.8190 C   0  0  0  0  0  0  0  0  0  0  0  0
   -3.8660   25.3120  -30.5020 O   0  0  0  0  0  0  0  0  0  0  0  0
   -3.5530   24.4880  -29.4460 C   0  0  0  0  0  0  0  0  0  0  0  0
   -2.8840   23.2350  -29.9080 C   0  0  0  0  0  0  0  0  0  0  0  0
   -3.1460   22.9110  -31.2240 O   0  0  0  0  0  0  0  0  0  0  0  0
   -3.6610   21.6470  -31.4430 C   0  0  0  0  0  0  0  0  0  0  0  0
   -4.0600   21.4300  -32.8760 C   0  0  0  0  0  0  0  0  0  0  0  0
   -5.3340   20.6990  -32.9690 N   0  0  0  0  0  0  0  0  0  0  0  0
   -5.5030   19.4550  -33.4770 C   0  0  0  0  0  0  0  0  0  0  0  0
   -4.1710   18.3120  -34.2070 Br  0  0  0  0  0  0  0  0  0  0  0  0
   -6.8050   19.1170  -33.3940 N   0  0  0  0  0  0  0  0  0  0  0  0
   -7.4490   20.1490  -32.8340 C   0  0  0  0  0  0  0  0  0  0  0  0
   -8.7810   20.3760  -32.5010 C   0  0  0  0  0  0  0  0  0  0  0  0
   -9.6470   19.4390  -32.7550 N   0  0  0  0  0  0  0  0  0  0  0  0
   -9.1640   21.5370  -31.9300 N   0  0  0  0  0  0  0  0  0  0  0  0
   -8.2530   22.5180  -31.6650 C   0  0  0  0  0  0  0  0  0  0  0  0
   -6.9530   22.3110  -31.9840 N   0  0  0  0  0  0  0  0  0  0  0  0
   -6.5430   21.1450  -32.5620 C   0  0  0  0  0  0  0  0  0  0  0  0
   -5.2580   25.2461  -28.6577 H   0  0  0  0  0  0  0  0  0  0  0  0
   -6.5853   26.1685  -29.4415 H   0  0  0  0  0  0  0  0  0  0  0  0
   -6.6179   24.3725  -29.4415 H   0  0  0  0  0  0  0  0  0  0  0  0
   -5.4096   24.3173  -31.3709 H   0  0  0  0  0  0  0  0  0  0  0  0
   -5.4945   26.0902  -31.4575 H   0  0  0  0  0  0  0  0  0  0  0  0
   -2.8767   25.0233  -28.7633 H   0  0  0  0  0  0  0  0  0  0  0  0
   -4.4874   24.2119  -28.9354 H   0  0  0  0  0  0  0  0  0  0  0  0
   -1.7973   23.3603  -29.7924 H   0  0  0  0  0  0  0  0  0  0  0  0
   -3.2838   22.4154  -29.2928 H   0  0  0  0  0  0  0  0  0  0  0  0
   -2.8973   20.9029  -31.1726 H   0  0  0  0  0  0  0  0  0  0  0  0
   -4.5643   21.5415  -30.8242 H   0  0  0  0  0  0  0  0  0  0  0  0
   -4.1700   22.4068  -33.3697 H   0  0  0  0  0  0  0  0  0  0  0  0
   -3.2788   20.8323  -33.3684 H   0  0  0  0  0  0  0  0  0  0  0  0
   -9.4170   18.7510  -33.4950 H   0  0  0  0  0  0  0  0  0  0  0  0
  -10.1780   21.6480  -31.7030 H   0  0  0  0  0  0  0  0  0  0  0  0
   -8.5698   23.4628  -31.1992 H   0  0  0  0  0  0  0  0  0  0  0  0
  1  2  1  0
  2  3  1  0
  3  4  1  0
  4  5  1  0
  5  6  1  0
  6  7  1  0
  7  8  1  0
  8  9  1  0
  9 10  1  0
 10 11  1  0
 10 12  2  0
 12 13  1  0
 13 14  1  0
 14 15  2  3
 14 16  1  0
 16 17  1  0
 17 18  2  0
 18 19  1  0
 19  9  1  0
 19 13  2  0
  1 20  1  0
  1 21  1  0
  1 22  1  0
  2 23  1  0
  2 24  1  0
  4 25  1  0
  4 26  1  0
  5 27  1  0
  5 28  1  0
  7 29  1  0
  7 30  1  0
  8 31  1  0
  8 32  1  0
 15 33  1  0
 16 34  1  0
 17 35  1  0
M  END
>  <smiles>  (16) 
CCOCCOCCn1c(Br)nc2c(=N)[nH]cnc21

>  <score_type>  (16) 
oracle

>  <origin>  (16) 
adg

>  <m_score__min__energy>  (16) 
-6.4699999999999998

>  <m_primary>  (16) 
energy

$$$$
16:0
     RDKit          3D

124129  0  0  1  0  0  0  0  0999 V2000
   -2.2570   18.6370  -26.6530 C   0  0  0  0  0  0  0  0  0  0  0  0
   -1.4290   19.8150  -27.0840 C   0  0  0  0  0  0  0  0  0  0  0  0
   -0.1770   19.4060  -27.7450 N   0  0  0  0  0  0  0  0  0  0  0  0
    0.6080   20.6330  -27.8430 C   0  0  0  0  0  0  0  0  0  0  0  0
   -0.5470   18.9030  -29.0580 C   0  0  0  0  0  0  0  0  0  0  0  0
    0.2940   17.7530  -29.5210 C   0  0  0  0  0  0  0  0  0  0  0  0
    0.1020   17.4670  -30.8510 O   0  0  0  0  0  0  0  0  0  0  0  0
    1.1830   16.9280  -31.4740 C   0  0  0  0  0  0  0  0  0  0  0  0
    1.2480   15.4500  -31.1100 C   0  0  0  0  0  0  0  0  0  0  0  0
   -0.0610   15.0310  -30.8250 O   0  0  0  0  0  0  0  0  0  0  0  0
   -0.8510   15.0920  -31.8830 N   0  0  0  0  0  0  0  0  0  0  0  0
   -0.6250   14.1120  -32.8930 C   0  0  0  0  0  0  0  0  0  0  0  0
   -1.6190   14.0630  -33.9980 C   0  0  0  0  0  0  0  0  0  0  0  0
   -1.9690   15.3580  -34.5480 N   0  0  0  0  0  0  0  0  0  0  0  0
   -3.0640   16.1240  -34.0750 C   0  0  0  0  0  0  0  0  0  0  0  0
   -4.3150   15.5270  -34.1740 C   0  0  0  0  0  0  0  0  0  0  0  0
   -4.4660   14.2770  -34.7310 C   0  0  0  0  0  0  0  0  0  0  0  0
   -5.6760   13.6360  -34.8740 C   0  0  0  0  0  0  0  0  0  0  0  0
   -6.8080   14.2800  -34.4360 C   0  0  0  0  0  0  0  0  0  0  0  0
   -6.6770   15.5470  -33.8700 C   0  0  0  0  0  0  0  0  0  0  0  0
   -5.4520   16.1740  -33.7360 C   0  0  0  0  0  0  0  0  0  0  0  0
   -5.3890   17.4080  -33.1990 N   0  0  0  0  0  0  0  0  0  0  0  0
   -6.5110   18.1450  -32.7100 C   0  0  0  0  0  0  0  0  0  0  0  0
   -4.1660   18.0270  -33.0940 C   0  0  0  0  0  0  0  0  0  0  0  0
   -4.0870   19.3190  -32.6100 C   0  0  0  0  0  0  0  0  0  0  0  0
   -2.9170   20.0370  -32.5320 C   0  0  0  0  0  0  0  0  0  0  0  0
   -2.7500   21.2950  -32.0800 O   0  0  0  0  0  0  0  0  0  0  0  0
   -3.4650   22.4730  -32.1740 C   0  0  0  0  0  0  0  0  0  0  0  0
   -4.0570   22.8410  -30.8690 C   0  0  0  0  0  0  0  0  0  0  0  0
   -3.2620   22.6050  -29.6860 N   0  0  1  0  0  0  0  0  0  0  0  0
   -3.4810   21.1980  -29.2860 C   0  0  0  0  0  0  0  0  0  0  0  0
   -1.8540   22.7600  -29.8150 C   0  0  0  0  0  0  0  0  0  0  0  0
   -1.3040   24.0490  -29.2270 C   0  0  0  0  0  0  0  0  0  0  0  0
   -1.4140   24.1610  -27.8110 N   0  0  1  0  0  0  0  0  0  0  0  0
   -0.1210   24.4840  -27.2000 C   0  0  0  0  0  0  0  0  0  0  0  0
   -0.1530   24.4120  -25.7140 C   0  0  0  0  0  0  0  0  0  0  0  0
    0.3660   25.5500  -25.0140 N   0  0  0  0  0  0  0  0  0  0  0  0
    1.6950   25.1780  -24.4950 C   0  0  0  0  0  0  0  0  0  0  0  0
   -0.4620   25.7520  -23.8370 C   0  0  0  0  0  0  0  0  0  0  0  0
   -1.1340   27.0740  -23.9910 C   0  0  0  0  0  0  0  0  0  0  0  0
   -0.8440   27.5490  -25.3920 C   0  0  0  0  0  0  0  0  0  0  0  0
    0.4100   26.7730  -25.7320 C   0  0  0  0  0  0  0  0  0  0  0  0
   -2.2960   25.2340  -27.3640 C   0  0  0  0  0  0  0  0  0  0  0  0
   -3.4970   24.5540  -26.6900 C   0  0  0  0  0  0  0  0  0  0  0  0
   -3.4010   23.2260  -27.3310 N   0  0  0  0  0  0  0  0  0  0  0  0
   -3.8330   23.4460  -28.6560 C   0  0  0  0  0  0  0  0  0  0  0  0
   -1.9870   23.0180  -27.1510 C   0  0  0  0  0  0  0  0  0  0  0  0
   -1.7710   19.3660  -32.9800 C   0  0  0  0  0  0  0  0  0  0  0  0
   -0.5720   20.0360  -32.9240 O   0  0  0  0  0  0  0  0  0  0  0  0
    0.1200   20.4750  -31.8030 C   0  0  0  0  0  0  0  0  0  0  0  0
   -1.8290   18.0600  -33.4690 C   0  0  0  0  0  0  0  0  0  0  0  0
   -0.5950   17.5610  -33.8770 O   0  0  0  0  0  0  0  0  0  0  0  0
   -0.0950   18.0330  -35.1390 C   0  0  0  0  0  0  0  0  0  0  0  0
   -3.0100   17.3730  -33.5350 C   0  0  0  0  0  0  0  0  0  0  0  0
   -2.2880   18.5929  -25.5543 H   0  0  0  0  0  0  0  0  0  0  0  0
   -3.2793   18.7444  -27.0446 H   0  0  0  0  0  0  0  0  0  0  0  0
   -1.8097   17.7115  -27.0446 H   0  0  0  0  0  0  0  0  0  0  0  0
   -2.0177   20.4232  -27.7865 H   0  0  0  0  0  0  0  0  0  0  0  0
   -1.1628   20.3872  -26.1830 H   0  0  0  0  0  0  0  0  0  0  0  0
    0.8427   20.9998  -26.8329 H   0  0  0  0  0  0  0  0  0  0  0  0
    1.5430   20.4278  -28.3850 H   0  0  0  0  0  0  0  0  0  0  0  0
    0.0298   21.3959  -28.3850 H   0  0  0  0  0  0  0  0  0  0  0  0
   -1.5958   18.5735  -29.0208 H   0  0  0  0  0  0  0  0  0  0  0  0
   -0.3903   19.7243  -29.7728 H   0  0  0  0  0  0  0  0  0  0  0  0
    1.3533   18.0035  -29.3627 H   0  0  0  0  0  0  0  0  0  0  0  0
   -0.0010   16.8662  -28.9408 H   0  0  0  0  0  0  0  0  0  0  0  0
    1.0802   17.0399  -32.5635 H   0  0  0  0  0  0  0  0  0  0  0  0
    2.1026   17.4407  -31.1554 H   0  0  0  0  0  0  0  0  0  0  0  0
    1.6526   14.8722  -31.9540 H   0  0  0  0  0  0  0  0  0  0  0  0
    1.9046   15.2919  -30.2418 H   0  0  0  0  0  0  0  0  0  0  0  0
   -0.7160   16.0400  -32.3530 H   0  0  0  0  0  0  0  0  0  0  0  0
    0.3612   14.3106  -33.3380 H   0  0  0  0  0  0  0  0  0  0  0  0
   -0.7059   13.1409  -32.3826 H   0  0  0  0  0  0  0  0  0  0  0  0
   -1.2023   13.4466  -34.8082 H   0  0  0  0  0  0  0  0  0  0  0  0
   -2.5421   13.6440  -33.5709 H   0  0  0  0  0  0  0  0  0  0  0  0
   -1.4150   15.7790  -35.3240 H   0  0  0  0  0  0  0  0  0  0  0  0
   -3.5629   13.7577  -35.0840 H   0  0  0  0  0  0  0  0  0  0  0  0
   -5.7350   12.6352  -35.3267 H   0  0  0  0  0  0  0  0  0  0  0  0
   -7.7962   13.8060  -34.5300 H   0  0  0  0  0  0  0  0  0  0  0  0
   -7.5802   16.0665  -33.5174 H   0  0  0  0  0  0  0  0  0  0  0  0
   -6.5023   18.1393  -31.6100 H   0  0  0  0  0  0  0  0  0  0  0  0
   -6.4542   19.1823  -33.0717 H   0  0  0  0  0  0  0  0  0  0  0  0
   -7.4404   17.6809  -33.0717 H   0  0  0  0  0  0  0  0  0  0  0  0
   -5.0143   19.8012  -32.2671 H   0  0  0  0  0  0  0  0  0  0  0  0
   -2.7907   23.2776  -32.5025 H   0  0  0  0  0  0  0  0  0  0  0  0
   -4.2791   22.3312  -32.9000 H   0  0  0  0  0  0  0  0  0  0  0  0
   -4.2865   23.9163  -30.9027 H   0  0  0  0  0  0  0  0  0  0  0  0
   -4.9274   22.1775  -30.7589 H   0  0  0  0  0  0  0  0  0  0  0  0
   -3.4922   21.1263  -28.1884 H   0  0  0  0  0  0  0  0  0  0  0  0
   -4.4443   20.8488  -29.6861 H   0  0  0  0  0  0  0  0  0  0  0  0
   -2.6694   20.5725  -29.6861 H   0  0  0  0  0  0  0  0  0  0  0  0
   -1.3675   21.9152  -29.3055 H   0  0  0  0  0  0  0  0  0  0  0  0
   -1.6410   22.7931  -30.8937 H   0  0  0  0  0  0  0  0  0  0  0  0
   -0.2388   24.1179  -29.4928 H   0  0  0  0  0  0  0  0  0  0  0  0
   -1.9132   24.8627  -29.6475 H   0  0  0  0  0  0  0  0  0  0  0  0
    0.6309   23.7717  -27.5705 H   0  0  0  0  0  0  0  0  0  0  0  0
    0.1275   25.5192  -27.4768 H   0  0  0  0  0  0  0  0  0  0  0  0
   -1.2008   24.2783  -25.4070 H   0  0  0  0  0  0  0  0  0  0  0  0
    0.5079   23.5747  -25.4455 H   0  0  0  0  0  0  0  0  0  0  0  0
    1.6740   25.1839  -23.3952 H   0  0  0  0  0  0  0  0  0  0  0  0
    1.9592   24.1714  -24.8513 H   0  0  0  0  0  0  0  0  0  0  0  0
    2.4434   25.9012  -24.8513 H   0  0  0  0  0  0  0  0  0  0  0  0
   -1.2146   24.9531  -23.7643 H   0  0  0  0  0  0  0  0  0  0  0  0
    0.1483   25.7289  -22.9221 H   0  0  0  0  0  0  0  0  0  0  0  0
   -2.2189   26.9668  -23.8444 H   0  0  0  0  0  0  0  0  0  0  0  0
   -0.7648   27.7938  -23.2457 H   0  0  0  0  0  0  0  0  0  0  0  0
   -1.6672   27.2992  -26.0775 H   0  0  0  0  0  0  0  0  0  0  0  0
   -0.7281   28.6396  -25.4763 H   0  0  0  0  0  0  0  0  0  0  0  0
    0.4453   26.5722  -26.8129 H   0  0  0  0  0  0  0  0  0  0  0  0
    1.3065   27.3490  -25.4590 H   0  0  0  0  0  0  0  0  0  0  0  0
   -1.7730   25.8822  -26.6455 H   0  0  0  0  0  0  0  0  0  0  0  0
   -2.6155   25.8652  -28.2063 H   0  0  0  0  0  0  0  0  0  0  0  0
   -3.3779   24.4944  -25.5981 H   0  0  0  0  0  0  0  0  0  0  0  0
   -4.4614   25.0690  -26.8112 H   0  0  0  0  0  0  0  0  0  0  0  0
   -4.9232   23.3010  -28.6770 H   0  0  0  0  0  0  0  0  0  0  0  0
   -3.4931   24.4633  -28.8998 H   0  0  0  0  0  0  0  0  0  0  0  0
   -1.7210   23.0012  -26.0838 H   0  0  0  0  0  0  0  0  0  0  0  0
   -1.6318   22.0576  -27.5530 H   0  0  0  0  0  0  0  0  0  0  0  0
   -0.4042   20.1424  -30.8949 H   0  0  0  0  0  0  0  0  0  0  0  0
    1.1373   20.0568  -31.8130 H   0  0  0  0  0  0  0  0  0  0  0  0
    0.1751   21.5736  -31.8130 H   0  0  0  0  0  0  0  0  0  0  0  0
    0.6948   18.7786  -34.9648 H   0  0  0  0  0  0  0  0  0  0  0  0
    0.3180   17.1877  -35.7091 H   0  0  0  0  0  0  0  0  0  0  0  0
   -0.9151   18.4940  -35.7091 H   0  0  0  0  0  0  0  0  0  0  0  0
  1  2  1  0
  2  3  1  0
  3  4  1  0
  3  5  1  0
  5  6  1  0
  6  7  1  0
  7  8  1  0
  8  9  1  0
  9 10  1  0
 10 11  1  0
 11 12  1  0
 12 13  1  0
 13 14  1  0
 14 15  1  0
 15 16  2  0
 16 17  1  0
 17 18  2  0
 18 19  1  0
 19 20  2  0
 20 21  1  0
 21 22  2  0
 22 23  1  0
 22 24  1  0
 24 25  2  0
 25 26  1  0
 26 27  1  0
 27 28  1  0
 28 29  1  0
 30 29  1  6
 30 31  1  0
 30 32  1  0
 32 33  1  0
 33 34  1  0
 34 35  1  1
 35 36  1  0
 36 37  1  0
 37 38  1  0
 37 39  1  0
 39 40  1  0
 40 41  1  0
 41 42  1  0
 34 43  1  0
 43 44  1  0
 45 44  1  6
 45 46  1  0
 45 47  1  0
 26 48  2  0
 48 49  1  0
 49 50  1  0
 48 51  1  0
 51 52  1  0
 52 53  1  0
 51 54  2  0
 54 15  1  0
 21 16  1  0
 54 24  1  0
 46 30  1  0
 47 34  1  0
 42 37  1  0
  1 55  1  0
  1 56  1  0
  1 57  1  0
  2 58  1  0
  2 59  1  0
  4 60  1  0
  4 61  1  0
  4 62  1  0
  5 63  1  0
  5 64  1  0
  6 65  1  0
  6 66  1  0
  8 67  1  0
  8 68  1  0
  9 69  1  0
  9 70  1  0
 11 71  1  0
 12 72  1  0
 12 73  1  0
 13 74  1  0
 13 75  1  0
 14 76  1  0
 17 77  1  0
 18 78  1  0
 19 79  1  0
 20 80  1  0
 23 81  1  0
 23 82  1  0
 23 83  1  0
 25 84  1  0
 28 85  1  0
 28 86  1  0
 29 87  1  0
 29 88  1  0
 31 89  1  0
 31 90  1  0
 31 91  1  0
 32 92  1  0
 32 93  1  0
 33 94  1  0
 33 95  1  0
 35 96  1  0
 35 97  1  0
 36 98  1  0
 36 99  1  0
 38100  1  0
 38101  1  0
 38102  1  0
 39103  1  0
 39104  1  0
 40105  1  0
 40106  1  0
 41107  1  0
 41108  1  0
 42109  1  0
 42110  1  0
 43111  1  0
 43112  1  0
 44113  1  0
 44114  1  0
 46115  1  0
 46116  1  0
 47117  1  0
 47118  1  0
 50119  1  0
 50120  1  0
 50121  1  0
 53122  1  0
 53123  1  0
 53124  1  0
M  CHG  4  22   1  30   1  34   1  37   1
M  END
>  <smiles>  (17) 
CCN(C)CCOCCONCCNc1c2ccccc2[n+](C)c2cc(OCC[N+]3(C)CC[N+]4(CC[N+]5(C)CCCC5)CCN(C3)C4)c(OC)c(OC)c12

>  <score_type>  (17) 
oracle

>  <origin>  (17) 
adg

>  <m_score__min__energy>  (17) 
-8.0899999999999999

>  <m_primary>  (17) 
energy

$$$$
17:0
     RDKit          3D

 54 56  0  0  0  0  0  0  0  0999 V2000
   -3.0610   24.6970  -26.8620 C   0  0  0  0  0  0  0  0  0  0  0  0
   -4.1420   24.1310  -27.7390 C   0  0  0  0  0  0  0  0  0  0  0  0
   -3.5000   23.5250  -28.9320 N   0  0  0  0  0  0  0  0  0  0  0  0
   -2.5460   22.5860  -28.4490 C   0  0  0  0  0  0  0  0  0  0  0  0
   -3.1040   21.2940  -27.9370 C   0  0  0  0  0  0  0  0  0  0  0  0
   -3.0420   24.5550  -29.8060 C   0  0  0  0  0  0  0  0  0  0  0  0
   -3.8620   25.1040  -30.7890 N   0  0  0  0  0  0  0  0  0  0  0  0
   -5.2190   25.3850  -30.5980 C   0  0  0  0  0  0  0  0  0  0  0  0
   -6.2030   24.2840  -30.8520 C   0  0  0  0  0  0  0  0  0  0  0  0
   -5.7890   22.9520  -30.5120 N   0  0  0  0  0  0  0  0  0  0  0  0
   -5.8070   21.8360  -31.3790 C   0  0  0  0  0  0  0  0  0  0  0  0
   -7.0790   21.3540  -31.7240 C   0  0  0  0  0  0  0  0  0  0  0  0
   -8.2040   21.9670  -31.2120 C   0  0  0  0  0  0  0  0  0  0  0  0
   -9.4900   21.5590  -31.4860 C   0  0  0  0  0  0  0  0  0  0  0  0
   -9.6350   20.4750  -32.3210 C   0  0  0  0  0  0  0  0  0  0  0  0
   -8.5140   19.8610  -32.8340 C   0  0  0  0  0  0  0  0  0  0  0  0
   -7.2260   20.2600  -32.5680 C   0  0  0  0  0  0  0  0  0  0  0  0
   -6.1450   19.6140  -33.0910 N   0  0  0  0  0  0  0  0  0  0  0  0
   -6.3100   18.4920  -33.9840 C   0  0  0  0  0  0  0  0  0  0  0  0
   -4.9150   20.0840  -32.7510 C   0  0  0  0  0  0  0  0  0  0  0  0
   -3.7770   19.4610  -33.2200 C   0  0  0  0  0  0  0  0  0  0  0  0
   -2.4950   19.8850  -32.8790 C   0  0  0  0  0  0  0  0  0  0  0  0
   -2.3330   20.9710  -32.0410 C   0  0  0  0  0  0  0  0  0  0  0  0
   -0.7320   21.5460  -31.5790 Cl  0  0  0  0  0  0  0  0  0  0  0  0
   -3.4820   21.5760  -31.5850 C   0  0  0  0  0  0  0  0  0  0  0  0
   -4.7490   21.1750  -31.9100 C   0  0  0  0  0  0  0  0  0  0  0  0
   -3.3334   24.5544  -25.8059 H   0  0  0  0  0  0  0  0  0  0  0  0
   -2.1125   24.1798  -27.0691 H   0  0  0  0  0  0  0  0  0  0  0  0
   -2.9457   25.7712  -27.0691 H   0  0  0  0  0  0  0  0  0  0  0  0
   -4.7046   23.3629  -27.1881 H   0  0  0  0  0  0  0  0  0  0  0  0
   -4.8390   24.9253  -28.0443 H   0  0  0  0  0  0  0  0  0  0  0  0
   -1.8555   22.3524  -29.2728 H   0  0  0  0  0  0  0  0  0  0  0  0
   -2.0650   23.0669  -27.5845 H   0  0  0  0  0  0  0  0  0  0  0  0
   -3.1000   21.3032  -26.8370 H   0  0  0  0  0  0  0  0  0  0  0  0
   -4.1354   21.1710  -28.2989 H   0  0  0  0  0  0  0  0  0  0  0  0
   -2.4864   20.4588  -28.2989 H   0  0  0  0  0  0  0  0  0  0  0  0
   -2.7308   25.3905  -29.1618 H   0  0  0  0  0  0  0  0  0  0  0  0
   -2.2814   24.0313  -30.4037 H   0  0  0  0  0  0  0  0  0  0  0  0
   -3.3850   25.5760  -31.5850 H   0  0  0  0  0  0  0  0  0  0  0  0
   -5.3443   25.7022  -29.5522 H   0  0  0  0  0  0  0  0  0  0  0  0
   -5.4536   26.1465  -31.3564 H   0  0  0  0  0  0  0  0  0  0  0  0
   -7.1101   24.5085  -30.2716 H   0  0  0  0  0  0  0  0  0  0  0  0
   -6.3437   24.2710  -31.9429 H   0  0  0  0  0  0  0  0  0  0  0  0
   -5.4290   22.7460  -29.5250 H   0  0  0  0  0  0  0  0  0  0  0  0
   -8.0654   22.8317  -30.5464 H   0  0  0  0  0  0  0  0  0  0  0  0
  -10.3613   22.0757  -31.0572 H   0  0  0  0  0  0  0  0  0  0  0  0
  -10.6378   20.1020  -32.5766 H   0  0  0  0  0  0  0  0  0  0  0  0
   -8.6587   18.9966  -33.4987 H   0  0  0  0  0  0  0  0  0  0  0  0
   -6.4453   17.5722  -33.3960 H   0  0  0  0  0  0  0  0  0  0  0  0
   -7.1938   18.6551  -34.6182 H   0  0  0  0  0  0  0  0  0  0  0  0
   -5.4167   18.3937  -34.6182 H   0  0  0  0  0  0  0  0  0  0  0  0
   -3.8865   18.5952  -33.8897 H   0  0  0  0  0  0  0  0  0  0  0  0
   -1.6151   19.3572  -33.2754 H   0  0  0  0  0  0  0  0  0  0  0  0
   -3.3743   22.4407  -30.9136 H   0  0  0  0  0  0  0  0  0  0  0  0
  1  2  1  0
  2  3  1  0
  3  4  1  0
  4  5  1  0
  3  6  1  0
  6  7  1  0
  7  8  1  0
  8  9  1  0
  9 10  1  0
 10 11  1  0
 11 12  2  0
 12 13  1  0
 13 14  2  0
 14 15  1  0
 15 16  2  0
 16 17  1  0
 17 18  2  0
 18 19  1  0
 18 20  1  0
 20 21  2  0
 21 22  1  0
 22 23  2  0
 23 24  1  0
 23 25  1  0
 25 26  2  0
 26 11  1  0
 17 12  1  0
 26 20  1  0
  1 27  1  0
  1 28  1  0
  1 29  1  0
  2 30  1  0
  2 31  1  0
  4 32  1  0
  4 33  1  0
  5 34  1  0
  5 35  1  0
  5 36  1  0
  6 37  1  0
  6 38  1  0
  7 39  1  0
  8 40  1  0
  8 41  1  0
  9 42  1  0
  9 43  1  0
 10 44  1  0
 13 45  1  0
 14 46  1  0
 15 47  1  0
 16 48  1  0
 19 49  1  0
 19 50  1  0
 19 51  1  0
 21 52  1  0
 22 53  1  0
 25 54  1  0
M  CHG  1  18   1
M  END
>  <smiles>  (18) 
CCN(CC)CNCCNc1c2ccccc2[n+](C)c2ccc(Cl)cc12

>  <score_type>  (18) 
oracle

>  <origin>  (18) 
adg

>  <m_score__min__energy>  (18) 
-9.3699999999999992

>  <m_primary>  (18) 
energy

$$$$
18:0
     RDKit          3D

 41 43  0  0  0  0  0  0  0  0999 V2000
   -6.4320   25.3080  -29.7200 C   0  0  0  0  0  0  0  0  0  0  0  0
   -5.3330   26.0350  -30.4130 C   0  0  0  0  0  0  0  0  0  0  0  0
   -4.1320   25.3970  -30.5680 O   0  0  0  0  0  0  0  0  0  0  0  0
   -3.8510   24.0700  -30.7360 C   0  0  0  0  0  0  0  0  0  0  0  0
   -4.4350   23.1610  -31.6070 C   0  0  0  0  0  0  0  0  0  0  0  0
   -3.8410   21.9690  -31.4260 N   0  0  0  0  0  0  0  0  0  0  0  0
   -4.1740   20.7940  -32.1560 C   0  0  0  0  0  0  0  0  0  0  0  0
   -3.2910   20.1150  -32.9650 C   0  0  0  0  0  0  0  0  0  0  0  0
   -3.7150   18.9680  -33.6400 C   0  0  0  0  0  0  0  0  0  0  0  0
   -5.0270   18.4990  -33.5060 C   0  0  0  0  0  0  0  0  0  0  0  0
   -5.8730   19.2150  -32.6840 C   0  0  0  0  0  0  0  0  0  0  0  0
   -5.4920   20.3480  -32.0030 C   0  0  0  0  0  0  0  0  0  0  0  0
   -7.2110   18.5500  -32.6820 C   0  0  0  0  0  0  0  0  0  0  0  0
   -6.8630   17.1210  -33.0880 C   0  0  0  0  0  0  0  0  0  0  0  0
   -5.7470   17.3270  -34.0920 C   0  0  0  0  0  0  0  0  0  0  0  0
   -2.8900   22.0590  -30.4690 C   0  0  0  0  0  0  0  0  0  0  0  0
   -1.9950   20.9720  -29.9560 C   0  0  0  0  0  0  0  0  0  0  0  0
   -2.8880   23.3630  -30.0310 C   0  0  0  0  0  0  0  0  0  0  0  0
   -2.0130   23.9640  -28.9850 C   0  0  0  0  0  0  0  0  0  0  0  0
   -2.1660   25.3510  -29.1040 O   0  0  0  0  0  0  0  0  0  0  0  0
   -6.3000   25.3953  -28.6314 H   0  0  0  0  0  0  0  0  0  0  0  0
   -7.3995   25.7449  -30.0083 H   0  0  0  0  0  0  0  0  0  0  0  0
   -6.4084   24.2467  -30.0083 H   0  0  0  0  0  0  0  0  0  0  0  0
   -5.6966   26.2942  -31.4183 H   0  0  0  0  0  0  0  0  0  0  0  0
   -5.1072   26.8833  -29.7501 H   0  0  0  0  0  0  0  0  0  0  0  0
   -5.2431   23.3782  -32.3210 H   0  0  0  0  0  0  0  0  0  0  0  0
   -2.2574   20.4737  -33.0792 H   0  0  0  0  0  0  0  0  0  0  0  0
   -3.0083   18.4260  -34.2856 H   0  0  0  0  0  0  0  0  0  0  0  0
   -6.2015   20.8870  -31.3579 H   0  0  0  0  0  0  0  0  0  0  0  0
   -7.6695   18.5800  -31.6826 H   0  0  0  0  0  0  0  0  0  0  0  0
   -7.9436   19.0312  -33.3466 H   0  0  0  0  0  0  0  0  0  0  0  0
   -6.5168   16.5354  -32.2236 H   0  0  0  0  0  0  0  0  0  0  0  0
   -7.7182   16.5598  -33.4925 H   0  0  0  0  0  0  0  0  0  0  0  0
   -5.0937   16.4441  -34.1526 H   0  0  0  0  0  0  0  0  0  0  0  0
   -6.0965   17.4866  -35.1227 H   0  0  0  0  0  0  0  0  0  0  0  0
   -2.0017   20.9801  -28.8560 H   0  0  0  0  0  0  0  0  0  0  0  0
   -2.3565   19.9981  -30.3177 H   0  0  0  0  0  0  0  0  0  0  0  0
   -0.9698   21.1399  -30.3177 H   0  0  0  0  0  0  0  0  0  0  0  0
   -2.3271   23.6292  -27.9854 H   0  0  0  0  0  0  0  0  0  0  0  0
   -0.9634   23.6618  -29.1153 H   0  0  0  0  0  0  0  0  0  0  0  0
   -2.0320   25.6740  -30.0280 H   0  0  0  0  0  0  0  0  0  0  0  0
  1  2  1  0
  2  3  1  0
  3  4  1  0
  4  5  2  0
  5  6  1  0
  6  7  1  0
  7  8  2  0
  8  9  1  0
  9 10  2  0
 10 11  1  0
 11 12  2  0
 11 13  1  0
 13 14  1  0
 14 15  1  0
  6 16  1  0
 16 17  1  0
 16 18  2  0
 18 19  1  0
 19 20  1  0
 18  4  1  0
 12  7  1  0
 15 10  1  0
  1 21  1  0
  1 22  1  0
  1 23  1  0
  2 24  1  0
  2 25  1  0
  5 26  1  0
  8 27  1  0
  9 28  1  0
 12 29  1  0
 13 30  1  0
 13 31  1  0
 14 32  1  0
 14 33  1  0
 15 34  1  0
 15 35  1  0
 17 36  1  0
 17 37  1  0
 17 38  1  0
 19 39  1  0
 19 40  1  0
 20 41  1  0
M  END
>  <smiles>  (19) 
CCOc1cn(-c2ccc3c(c2)CCC3)c(C)c1CO

>  <score_type>  (19) 
oracle

>  <origin>  (19) 
adg

>  <m_score__min__energy>  (19) 
-8.3300000000000001

>  <m_primary>  (19) 
energy

$$$$
19:0
     RDKit          3D

 38 39  0  0  0  0  0  0  0  0999 V2000
   -6.0770   25.3090  -29.5650 C   0  0  0  0  0  0  0  0  0  0  0  0
   -5.1560   25.6010  -30.7770 C   0  0  0  0  0  0  0  0  0  0  0  0
   -3.8870   25.3000  -30.4460 O   0  0  0  0  0  0  0  0  0  0  0  0
   -3.6050   24.3610  -29.5050 C   0  0  0  0  0  0  0  0  0  0  0  0
   -3.8310   22.9540  -29.9770 C   0  0  0  0  0  0  0  0  0  0  0  0
   -3.3110   22.7790  -31.2190 O   0  0  0  0  0  0  0  0  0  0  0  0
   -3.6590   21.6910  -31.9350 C   0  0  0  0  0  0  0  0  0  0  0  0
   -4.5730   21.8230  -33.0820 C   0  0  0  0  0  0  0  0  0  0  0  0
   -5.9460   21.6590  -32.6810 N   0  0  0  0  0  0  0  0  0  0  0  0
   -6.8840   22.5330  -32.3050 C   0  0  0  0  0  0  0  0  0  0  0  0
   -6.7680   23.7760  -32.2040 O   0  0  0  0  0  0  0  0  0  0  0  0
   -8.0200   21.9080  -32.0330 O   0  0  0  0  0  0  0  0  0  0  0  0
   -7.8880   20.6350  -32.2100 C   0  0  0  0  0  0  0  0  0  0  0  0
   -8.7380   19.5570  -32.0720 C   0  0  0  0  0  0  0  0  0  0  0  0
   -8.3190   18.2550  -32.3390 C   0  0  0  0  0  0  0  0  0  0  0  0
   -7.0020   18.0790  -32.7540 C   0  0  0  0  0  0  0  0  0  0  0  0
   -6.5770   16.6750  -33.0330 C   0  0  0  0  0  0  0  0  0  0  0  0
   -6.1490   19.1560  -32.8920 C   0  0  0  0  0  0  0  0  0  0  0  0
   -6.5710   20.4460  -32.6250 C   0  0  0  0  0  0  0  0  0  0  0  0
   -5.5218   25.4850  -28.6318 H   0  0  0  0  0  0  0  0  0  0  0  0
   -6.9528   25.9735  -29.6015 H   0  0  0  0  0  0  0  0  0  0  0  0
   -6.4099   24.2612  -29.6015 H   0  0  0  0  0  0  0  0  0  0  0  0
   -5.4690   24.9869  -31.6343 H   0  0  0  0  0  0  0  0  0  0  0  0
   -5.2265   26.6644  -31.0494 H   0  0  0  0  0  0  0  0  0  0  0  0
   -2.5493   24.4654  -29.2143 H   0  0  0  0  0  0  0  0  0  0  0  0
   -4.2890   24.5331  -28.6609 H   0  0  0  0  0  0  0  0  0  0  0  0
   -3.3450   22.2559  -29.2796 H   0  0  0  0  0  0  0  0  0  0  0  0
   -4.9133   22.7612  -30.0144 H   0  0  0  0  0  0  0  0  0  0  0  0
   -2.7264   21.2541  -32.3214 H   0  0  0  0  0  0  0  0  0  0  0  0
   -4.2401   21.0929  -31.2176 H   0  0  0  0  0  0  0  0  0  0  0  0
   -4.4469   22.8210  -33.5271 H   0  0  0  0  0  0  0  0  0  0  0  0
   -4.3290   21.0366  -33.8115 H   0  0  0  0  0  0  0  0  0  0  0  0
   -9.7732   19.7297  -31.7427 H   0  0  0  0  0  0  0  0  0  0  0  0
   -9.0020   17.4001  -32.2263 H   0  0  0  0  0  0  0  0  0  0  0  0
   -6.4165   16.1448  -32.0827 H   0  0  0  0  0  0  0  0  0  0  0  0
   -7.3603   16.1628  -33.6109 H   0  0  0  0  0  0  0  0  0  0  0  0
   -5.6411   16.6832  -33.6109 H   0  0  0  0  0  0  0  0  0  0  0  0
   -5.1133   18.9848  -33.2208 H   0  0  0  0  0  0  0  0  0  0  0  0
  1  2  1  0
  2  3  1  0
  3  4  1  0
  4  5  1  0
  5  6  1  0
  6  7  1  0
  7  8  1  0
  8  9  1  0
  9 10  1  0
 10 11  2  0
 10 12  1  0
 12 13  1  0
 13 14  2  0
 14 15  1  0
 15 16  2  0
 16 17  1  0
 16 18  1  0
 18 19  2  0
 19  9  1  0
 19 13  1  0
  1 20  1  0
  1 21  1  0
  1 22  1  0
  2 23  1  0
  2 24  1  0
  4 25  1  0
  4 26  1  0
  5 27  1  0
  5 28  1  0
  7 29  1  0
  7 30  1  0
  8 31  1  0
  8 32  1  0
 14 33  1  0
 15 34  1  0
 17 35  1  0
 17 36  1  0
 17 37  1  0
 18 38  1  0
M  END
>  <smiles>  (20) 
CCOCCOCCn1c(=O)oc2ccc(C)cc21

>  <score_type>  (20) 
oracle

>  <origin>  (20) 
adg

>  <m_score__min__energy>  (20) 
-6.9900000000000002

>  <m_primary>  (20) 
energy

$$$$
20:0
     RDKit          3D

 53 55  0  0  0  0  0  0  0  0999 V2000
   -1.0270   26.0220  -27.2950 C   0  0  0  0  0  0  0  0  0  0  0  0
   -1.1230   25.2900  -28.5980 C   0  0  0  0  0  0  0  0  0  0  0  0
   -2.3720   25.2440  -29.1600 O   0  0  0  0  0  0  0  0  0  0  0  0
   -3.3180   24.5290  -28.4760 C   0  0  0  0  0  0  0  0  0  0  0  0
   -3.7630   23.3790  -29.3550 C   0  0  0  0  0  0  0  0  0  0  0  0
   -3.1640   23.4170  -30.6520 N   0  0  0  0  0  0  0  0  0  0  0  0
   -2.1760   22.4010  -30.9020 C   0  0  0  0  0  0  0  0  0  0  0  0
   -2.8910   21.1700  -31.4130 C   0  0  0  0  0  0  0  0  0  0  0  0
   -2.9130   21.1100  -32.9080 C   0  0  0  0  0  0  0  0  0  0  0  0
   -4.2060   21.3840  -33.4690 N   0  0  0  0  0  0  0  0  0  0  0  0
   -5.3660   20.6800  -33.0280 C   0  0  0  0  0  0  0  0  0  0  0  0
   -5.6440   19.3830  -33.4030 C   0  0  0  0  0  0  0  0  0  0  0  0
   -4.7350   18.7720  -34.2430 C   0  0  0  0  0  0  0  0  0  0  0  0
   -4.9430   17.4760  -34.6590 C   0  0  0  0  0  0  0  0  0  0  0  0
   -6.0800   16.8470  -34.1970 C   0  0  0  0  0  0  0  0  0  0  0  0
   -6.9910   17.4620  -33.3540 C   0  0  0  0  0  0  0  0  0  0  0  0
   -6.7840   18.7570  -32.9380 C   0  0  0  0  0  0  0  0  0  0  0  0
   -7.6720   19.3460  -32.1190 N   0  0  0  0  0  0  0  0  0  0  0  0
   -8.8700   18.7210  -31.6300 C   0  0  0  0  0  0  0  0  0  0  0  0
   -7.4110   20.6200  -31.7400 C   0  0  0  0  0  0  0  0  0  0  0  0
   -8.2330   21.3360  -30.9010 C   0  0  0  0  0  0  0  0  0  0  0  0
   -7.9610   22.6430  -30.5120 C   0  0  0  0  0  0  0  0  0  0  0  0
   -6.8330   23.2770  -30.9650 C   0  0  0  0  0  0  0  0  0  0  0  0
   -6.4470   24.9150  -30.5070 Cl  0  0  0  0  0  0  0  0  0  0  0  0
   -5.9890   22.5870  -31.8080 C   0  0  0  0  0  0  0  0  0  0  0  0
   -6.2690   21.2920  -32.1860 C   0  0  0  0  0  0  0  0  0  0  0  0
   -1.1208   25.3066  -26.4647 H   0  0  0  0  0  0  0  0  0  0  0  0
   -0.0543   26.5318  -27.2316 H   0  0  0  0  0  0  0  0  0  0  0  0
   -1.8353   26.7653  -27.2316 H   0  0  0  0  0  0  0  0  0  0  0  0
   -0.4478   25.7822  -29.3134 H   0  0  0  0  0  0  0  0  0  0  0  0
   -0.8531   24.2466  -28.3779 H   0  0  0  0  0  0  0  0  0  0  0  0
   -2.8879   24.1396  -27.5415 H   0  0  0  0  0  0  0  0  0  0  0  0
   -4.1749   25.1716  -28.2254 H   0  0  0  0  0  0  0  0  0  0  0  0
   -3.4855   22.4335  -28.8660 H   0  0  0  0  0  0  0  0  0  0  0  0
   -4.8518   23.4619  -29.4875 H   0  0  0  0  0  0  0  0  0  0  0  0
   -2.8200   24.3730  -30.8360 H   0  0  0  0  0  0  0  0  0  0  0  0
   -1.4581   22.7558  -31.6561 H   0  0  0  0  0  0  0  0  0  0  0  0
   -1.6255   22.1677  -29.9787 H   0  0  0  0  0  0  0  0  0  0  0  0
   -2.3762   20.2765  -31.0300 H   0  0  0  0  0  0  0  0  0  0  0  0
   -3.9323   21.2133  -31.0610 H   0  0  0  0  0  0  0  0  0  0  0  0
   -2.1994   21.8509  -33.2976 H   0  0  0  0  0  0  0  0  0  0  0  0
   -2.6439   20.0832  -33.1966 H   0  0  0  0  0  0  0  0  0  0  0  0
   -4.3440   22.1180  -34.2280 H   0  0  0  0  0  0  0  0  0  0  0  0
   -3.8435   19.3210  -34.5804 H   0  0  0  0  0  0  0  0  0  0  0  0
   -4.2350   16.9660  -35.3288 H   0  0  0  0  0  0  0  0  0  0  0  0
   -6.2720   15.8107  -34.5120 H   0  0  0  0  0  0  0  0  0  0  0  0
   -7.8826   16.9134  -33.0162 H   0  0  0  0  0  0  0  0  0  0  0  0
   -8.8628   18.7248  -30.5300 H   0  0  0  0  0  0  0  0  0  0  0  0
   -9.7476   19.2762  -31.9928 H   0  0  0  0  0  0  0  0  0  0  0  0
   -8.9167   17.6836  -31.9928 H   0  0  0  0  0  0  0  0  0  0  0  0
   -9.1456   20.8534  -30.5211 H   0  0  0  0  0  0  0  0  0  0  0  0
   -8.6531   23.1699  -29.8387 H   0  0  0  0  0  0  0  0  0  0  0  0
   -5.0790   23.0770  -32.1844 H   0  0  0  0  0  0  0  0  0  0  0  0
  1  2  1  0
  2  3  1  0
  3  4  1  0
  4  5  1  0
  5  6  1  0
  6  7  1  0
  7  8  1  0
  8  9  1  0
  9 10  1  0
 10 11  1  0
 11 12  2  0
 12 13  1  0
 13 14  2  0
 14 15  1  0
 15 16  2  0
 16 17  1  0
 17 18  2  0
 18 19  1  0
 18 20  1  0
 20 21  2  0
 21 22  1  0
 22 23  2  0
 23 24  1  0
 23 25  1  0
 25 26  2  0
 26 11  1  0
 17 12  1  0
 26 20  1  0
  1 27  1  0
  1 28  1  0
  1 29  1  0
  2 30  1  0
  2 31  1  0
  4 32  1  0
  4 33  1  0
  5 34  1  0
  5 35  1  0
  6 36  1  0
  7 37  1  0
  7 38  1  0
  8 39  1  0
  8 40  1  0
  9 41  1  0
  9 42  1  0
 10 43  1  0
 13 44  1  0
 14 45  1  0
 15 46  1  0
 16 47  1  0
 19 48  1  0
 19 49  1  0
 19 50  1  0
 21 51  1  0
 22 52  1  0
 25 53  1  0
M  CHG  1  18   1
M  END
>  <smiles>  (21) 
CCOCCNCCCNc1c2ccccc2[n+](C)c2ccc(Cl)cc12

>  <score_type>  (21) 
oracle

>  <origin>  (21) 
adg

>  <m_score__min__energy>  (21) 
-9.1500000000000004

>  <m_primary>  (21) 
energy

$$$$
22:0
     RDKit          3D

 46 48  0  0  0  0  0  0  0  0999 V2000
   -5.4260   17.3150  -33.2140 C   0  0  0  0  0  0  0  0  0  0  0  0
   -5.6580   18.7250  -32.9800 N   0  0  0  0  0  0  0  0  0  0  0  0
   -4.6200   19.6000  -33.0550 C   0  0  0  0  0  0  0  0  0  0  0  0
   -3.3300   19.1950  -33.3270 C   0  0  0  0  0  0  0  0  0  0  0  0
   -2.2660   20.0950  -33.3970 C   0  0  0  0  0  0  0  0  0  0  0  0
   -2.4690   21.4450  -33.1930 C   0  0  0  0  0  0  0  0  0  0  0  0
   -3.7530   21.8650  -32.9180 C   0  0  0  0  0  0  0  0  0  0  0  0
   -4.7990   20.9650  -32.8510 C   0  0  0  0  0  0  0  0  0  0  0  0
   -6.0420   21.4860  -32.5640 C   0  0  0  0  0  0  0  0  0  0  0  0
   -6.2940   22.8620  -32.3510 N   0  0  0  0  0  0  0  0  0  0  0  0
   -6.5050   23.3620  -31.0070 C   0  0  0  0  0  0  0  0  0  0  0  0
   -6.4700   24.8710  -30.9660 C   0  0  0  0  0  0  0  0  0  0  0  0
   -5.3540   25.2950  -30.0580 C   0  0  0  0  0  0  0  0  0  0  0  0
   -4.0600   25.2450  -30.6640 N   0  0  0  0  0  0  0  0  0  0  0  0
   -3.3570   24.0170  -30.4440 C   0  0  0  0  0  0  0  0  0  0  0  0
   -3.6330   23.3950  -29.0780 C   0  0  0  0  0  0  0  0  0  0  0  0
   -3.0710   21.5250  -29.0750 Br  0  0  0  0  0  0  0  0  0  0  0  0
   -7.0880   20.5920  -32.4900 C   0  0  0  0  0  0  0  0  0  0  0  0
   -8.3460   21.1000  -32.1960 C   0  0  0  0  0  0  0  0  0  0  0  0
   -9.4430   20.2730  -32.0980 C   0  0  0  0  0  0  0  0  0  0  0  0
   -9.2330   18.9260  -32.3050 C   0  0  0  0  0  0  0  0  0  0  0  0
   -7.9610   18.4170  -32.6010 C   0  0  0  0  0  0  0  0  0  0  0  0
   -6.8620   19.2490  -32.7000 C   0  0  0  0  0  0  0  0  0  0  0  0
   -5.3400   16.7926  -32.2498 H   0  0  0  0  0  0  0  0  0  0  0  0
   -6.2671   16.8948  -33.7850 H   0  0  0  0  0  0  0  0  0  0  0  0
   -4.4946   17.1865  -33.7850 H   0  0  0  0  0  0  0  0  0  0  0  0
   -3.1332   18.1258  -33.4945 H   0  0  0  0  0  0  0  0  0  0  0  0
   -1.2540   19.7245  -33.6172 H   0  0  0  0  0  0  0  0  0  0  0  0
   -1.6355   22.1607  -33.2479 H   0  0  0  0  0  0  0  0  0  0  0  0
   -3.9478   22.9344  -32.7491 H   0  0  0  0  0  0  0  0  0  0  0  0
   -6.3210   23.4800  -33.1850 H   0  0  0  0  0  0  0  0  0  0  0  0
   -7.4857   23.0173  -30.6473 H   0  0  0  0  0  0  0  0  0  0  0  0
   -5.6965   22.9805  -30.3660 H   0  0  0  0  0  0  0  0  0  0  0  0
   -6.2960   25.2660  -31.9778 H   0  0  0  0  0  0  0  0  0  0  0  0
   -7.4287   25.2610  -30.5935 H   0  0  0  0  0  0  0  0  0  0  0  0
   -5.5449   26.3290  -29.7350 H   0  0  0  0  0  0  0  0  0  0  0  0
   -5.3397   24.5845  -29.2183 H   0  0  0  0  0  0  0  0  0  0  0  0
   -3.9630   25.6760  -31.5860 H   0  0  0  0  0  0  0  0  0  0  0  0
   -3.6584   23.2990  -31.2210 H   0  0  0  0  0  0  0  0  0  0  0  0
   -2.2821   24.2474  -30.4839 H   0  0  0  0  0  0  0  0  0  0  0  0
   -3.0740   23.9453  -28.3068 H   0  0  0  0  0  0  0  0  0  0  0  0
   -4.7109   23.4500  -28.8656 H   0  0  0  0  0  0  0  0  0  0  0  0
   -8.4688   22.1817  -32.0386 H   0  0  0  0  0  0  0  0  0  0  0  0
  -10.4423   20.6694  -31.8650 H   0  0  0  0  0  0  0  0  0  0  0  0
  -10.0850   18.2336  -32.2361 H   0  0  0  0  0  0  0  0  0  0  0  0
   -7.8352   17.3355  -32.7574 H   0  0  0  0  0  0  0  0  0  0  0  0
  1  2  1  0
  2  3  2  0
  3  4  1  0
  4  5  2  0
  5  6  1  0
  6  7  2  0
  7  8  1  0
  8  9  2  0
  9 10  1  0
 10 11  1  0
 11 12  1  0
 12 13  1  0
 13 14  1  0
 14 15  1  0
 15 16  1  0
 16 17  1  0
  9 18  1  0
 18 19  2  0
 19 20  1  0
 20 21  2  0
 21 22  1  0
 22 23  2  0
 23  2  1  0
  8  3  1  0
 23 18  1  0
  1 24  1  0
  1 25  1  0
  1 26  1  0
  4 27  1  0
  5 28  1  0
  6 29  1  0
  7 30  1  0
 10 31  1  0
 11 32  1  0
 11 33  1  0
 12 34  1  0
 12 35  1  0
 13 36  1  0
 13 37  1  0
 14 38  1  0
 15 39  1  0
 15 40  1  0
 16 41  1  0
 16 42  1  0
 19 43  1  0
 20 44  1  0
 21 45  1  0
 22 46  1  0
M  CHG  1   2   1
M  END
>  <smiles>  (22) 
C[n+]1c2ccccc2c(NCCCNCCBr)c2ccccc21

>  <score_type>  (22) 
oracle

>  <origin>  (22) 
adg

>  <m_score__min__energy>  (22) 
-8.9000000000000004

>  <m_primary>  (22) 
energy

$$$$
23:0
     RDKit          3D

 52 54  0  0  0  0  0  0  0  0999 V2000
   -3.9110   24.0820  -27.4470 C   0  0  0  0  0  0  0  0  0  0  0  0
   -2.7190   24.9270  -27.8770 C   0  0  0  0  0  0  0  0  0  0  0  0
   -2.4900   24.7350  -29.2920 N   0  0  0  0  0  0  0  0  0  0  0  0
   -1.4690   23.7380  -29.4670 C   0  0  0  0  0  0  0  0  0  0  0  0
   -1.9540   22.5770  -30.2990 C   0  0  0  0  0  0  0  0  0  0  0  0
   -2.9870   23.0200  -31.2400 N   0  0  0  0  0  0  0  0  0  0  0  0
   -3.7420   22.0190  -31.8630 C   0  0  0  0  0  0  0  0  0  0  0  0
   -3.0140   21.1750  -32.7270 C   0  0  0  0  0  0  0  0  0  0  0  0
   -1.6600   21.4150  -32.9060 C   0  0  0  0  0  0  0  0  0  0  0  0
   -0.8510   20.6580  -33.7190 C   0  0  0  0  0  0  0  0  0  0  0  0
   -1.4280   19.6060  -34.3860 C   0  0  0  0  0  0  0  0  0  0  0  0
   -2.7910   19.3580  -34.2110 C   0  0  0  0  0  0  0  0  0  0  0  0
   -3.5810   20.1340  -33.3900 C   0  0  0  0  0  0  0  0  0  0  0  0
   -4.8900   19.8880  -33.2230 N   0  0  0  0  0  0  0  0  0  0  0  0
   -5.5670   18.8240  -33.8970 C   0  0  0  0  0  0  0  0  0  0  0  0
   -5.6380   20.6740  -32.4000 C   0  0  0  0  0  0  0  0  0  0  0  0
   -6.9750   20.3760  -32.2480 C   0  0  0  0  0  0  0  0  0  0  0  0
   -7.7360   21.1550  -31.4140 C   0  0  0  0  0  0  0  0  0  0  0  0
   -7.1560   22.2130  -30.7500 C   0  0  0  0  0  0  0  0  0  0  0  0
   -5.8180   22.5510  -30.8690 C   0  0  0  0  0  0  0  0  0  0  0  0
   -5.3720   23.7130  -30.2230 N   0  0  0  0  0  0  0  0  0  0  0  0
   -6.3010   24.8660  -30.1120 C   0  0  0  0  0  0  0  0  0  0  0  0
   -5.4900   26.0970  -30.4230 C   0  0  0  0  0  0  0  0  0  0  0  0
   -4.2090   25.6670  -30.8640 O   0  0  0  0  0  0  0  0  0  0  0  0
   -5.0700   21.7550  -31.7080 C   0  0  0  0  0  0  0  0  0  0  0  0
   -3.9591   24.0479  -26.3486 H   0  0  0  0  0  0  0  0  0  0  0  0
   -4.8368   24.5266  -27.8409 H   0  0  0  0  0  0  0  0  0  0  0  0
   -3.7980   23.0612  -27.8409 H   0  0  0  0  0  0  0  0  0  0  0  0
   -2.9288   25.9884  -27.6783 H   0  0  0  0  0  0  0  0  0  0  0  0
   -1.8255   24.6230  -27.3119 H   0  0  0  0  0  0  0  0  0  0  0  0
   -2.2700   25.6360  -29.7640 H   0  0  0  0  0  0  0  0  0  0  0  0
   -0.6046   24.1982  -29.9681 H   0  0  0  0  0  0  0  0  0  0  0  0
   -1.1932   23.3542  -28.4737 H   0  0  0  0  0  0  0  0  0  0  0  0
   -1.1079   22.1555  -30.8615 H   0  0  0  0  0  0  0  0  0  0  0  0
   -2.3818   21.8138  -29.6322 H   0  0  0  0  0  0  0  0  0  0  0  0
   -3.1180   24.0560  -31.4630 H   0  0  0  0  0  0  0  0  0  0  0  0
   -1.2075   22.2599  -32.3662 H   0  0  0  0  0  0  0  0  0  0  0  0
    0.2191   20.8865  -33.8311 H   0  0  0  0  0  0  0  0  0  0  0  0
   -0.8253   18.9676  -35.0488 H   0  0  0  0  0  0  0  0  0  0  0  0
   -3.2502   18.5142  -34.7468 H   0  0  0  0  0  0  0  0  0  0  0  0
   -6.0030   18.1387  -33.1552 H   0  0  0  0  0  0  0  0  0  0  0  0
   -6.3671   19.2395  -34.5272 H   0  0  0  0  0  0  0  0  0  0  0  0
   -4.8516   18.2752  -34.5272 H   0  0  0  0  0  0  0  0  0  0  0  0
   -7.4240   19.5282  -32.7861 H   0  0  0  0  0  0  0  0  0  0  0  0
   -8.8050   20.9356  -31.2761 H   0  0  0  0  0  0  0  0  0  0  0  0
   -7.7897   22.8228  -30.0892 H   0  0  0  0  0  0  0  0  0  0  0  0
   -4.4620   23.9410  -29.8100 H   0  0  0  0  0  0  0  0  0  0  0  0
   -7.1252   24.7613  -30.8329 H   0  0  0  0  0  0  0  0  0  0  0  0
   -6.7457   24.9246  -29.1076 H   0  0  0  0  0  0  0  0  0  0  0  0
   -5.9828   26.6809  -31.2144 H   0  0  0  0  0  0  0  0  0  0  0  0
   -5.3979   26.7347  -29.5314 H   0  0  0  0  0  0  0  0  0  0  0  0
   -4.1980   25.7100  -31.8630 H   0  0  0  0  0  0  0  0  0  0  0  0
  1  2  1  0
  2  3  1  0
  3  4  1  0
  4  5  1  0
  5  6  1  0
  6  7  1  0
  7  8  2  0
  8  9  1  0
  9 10  2  0
 10 11  1  0
 11 12  2  0
 12 13  1  0
 13 14  2  0
 14 15  1  0
 14 16  1  0
 16 17  2  0
 17 18  1  0
 18 19  2  0
 19 20  1  0
 20 21  1  0
 21 22  1  0
 22 23  1  0
 23 24  1  0
 20 25  2  0
 25  7  1  0
 13  8  1  0
 25 16  1  0
  1 26  1  0
  1 27  1  0
  1 28  1  0
  2 29  1  0
  2 30  1  0
  3 31  1  0
  4 32  1  0
  4 33  1  0
  5 34  1  0
  5 35  1  0
  6 36  1  0
  9 37  1  0
 10 38  1  0
 11 39  1  0
 12 40  1  0
 15 41  1  0
 15 42  1  0
 15 43  1  0
 17 44  1  0
 18 45  1  0
 19 46  1  0
 21 47  1  0
 22 48  1  0
 22 49  1  0
 23 50  1  0
 23 51  1  0
 24 52  1  0
M  CHG  1  14   1
M  END
>  <smiles>  (23) 
CCNCCNc1c2ccccc2[n+](C)c2cccc(NCCO)c12

>  <score_type>  (23) 
oracle

>  <origin>  (23) 
adg

>  <m_score__min__energy>  (23) 
-9.1500000000000004

>  <m_primary>  (23) 
energy

$$$$
