0:0
     RDKit          3D

 45 47  0  0  0  0  0  0  0  0999 V2000
   -1.3150   21.1850  -32.4680 C   0  0  0  0  0  0  0  0  0  0  0  0
   -2.7750   21.3430  -32.8910 C   0  0  0  0  0  0  0  0  0  0  0  0
   -3.5510   22.3030  -31.9740 C   0  0  0  0  0  0  0  0  0  0  0  0
   -5.0280   21.9840  -31.9400 C   0  0  0  0  0  0  0  0  0  0  0  0
   -5.3730   20.6770  -32.0950 N   0  0  0  0  0  0  0  0  0  0  0  0
   -6.6620   20.2720  -32.1240 C   0  0  0  0  0  0  0  0  0  0  0  0
   -6.9660   18.9150  -32.2830 C   0  0  0  0  0  0  0  0  0  0  0  0
   -8.2990   18.4960  -32.3180 C   0  0  0  0  0  0  0  0  0  0  0  0
   -9.3300   19.4310  -32.1940 C   0  0  0  0  0  0  0  0  0  0  0  0
   -9.0320   20.7890  -32.0360 C   0  0  0  0  0  0  0  0  0  0  0  0
   -7.6910   21.2190  -32.0010 C   0  0  0  0  0  0  0  0  0  0  0  0
   -7.3370   22.5690  -31.8440 C   0  0  0  0  0  0  0  0  0  0  0  0
   -8.2480   23.4370  -31.7290 O   0  0  0  0  0  0  0  0  0  0  0  0
   -6.0120   22.9470  -31.8150 N   0  0  0  0  0  0  0  0  0  0  0  0
   -5.6890   24.3760  -31.5940 C   0  0  0  0  0  0  0  0  0  0  0  0
   -5.0350   24.5910  -30.2260 C   0  0  0  0  0  0  0  0  0  0  0  0
   -3.6150   24.8800  -30.3830 N   0  0  0  0  0  0  0  0  0  0  0  0
   -2.6020   24.5700  -29.4180 C   0  0  0  0  0  0  0  0  0  0  0  0
   -1.8960   25.5080  -28.9600 O   0  0  0  0  0  0  0  0  0  0  0  0
   -2.3300   23.1870  -28.9760 C   0  0  0  0  0  0  0  0  0  0  0  0
   -3.3160   22.4720  -28.2770 C   0  0  0  0  0  0  0  0  0  0  0  0
   -3.0730   21.1570  -27.8640 C   0  0  0  0  0  0  0  0  0  0  0  0
   -1.8510   20.5460  -28.1570 C   0  0  0  0  0  0  0  0  0  0  0  0
   -1.6180   19.2710  -27.7570 F   0  0  0  0  0  0  0  0  0  0  0  0
   -0.8730   21.2440  -28.8710 C   0  0  0  0  0  0  0  0  0  0  0  0
   -1.1130   22.5580  -29.2860 C   0  0  0  0  0  0  0  0  0  0  0  0
   -1.2501   21.1780  -31.3699 H   0  0  0  0  0  0  0  0  0  0  0  0
   -0.9186   20.2387  -32.8648 H   0  0  0  0  0  0  0  0  0  0  0  0
   -0.7254   22.0246  -32.8648 H   0  0  0  0  0  0  0  0  0  0  0  0
   -2.8046   21.7348  -33.9184 H   0  0  0  0  0  0  0  0  0  0  0  0
   -3.2527   20.3545  -32.8224 H   0  0  0  0  0  0  0  0  0  0  0  0
   -3.1471   22.2239  -30.9539 H   0  0  0  0  0  0  0  0  0  0  0  0
   -3.4327   23.3220  -32.3711 H   0  0  0  0  0  0  0  0  0  0  0  0
   -6.1554   18.1779  -32.3805 H   0  0  0  0  0  0  0  0  0  0  0  0
   -8.5366   17.4293  -32.4433 H   0  0  0  0  0  0  0  0  0  0  0  0
  -10.3783   19.0987  -32.2207 H   0  0  0  0  0  0  0  0  0  0  0  0
   -9.8463   21.5221  -31.9389 H   0  0  0  0  0  0  0  0  0  0  0  0
   -4.9967   24.7130  -32.3796 H   0  0  0  0  0  0  0  0  0  0  0  0
   -6.6245   24.9537  -31.6274 H   0  0  0  0  0  0  0  0  0  0  0  0
   -5.5234   25.4365  -29.7194 H   0  0  0  0  0  0  0  0  0  0  0  0
   -5.1493   23.6753  -29.6273 H   0  0  0  0  0  0  0  0  0  0  0  0
   -4.2826   22.9470  -28.0533 H   0  0  0  0  0  0  0  0  0  0  0  0
   -3.8446   20.6040  -27.3083 H   0  0  0  0  0  0  0  0  0  0  0  0
    0.0861   20.7597  -29.1067 H   0  0  0  0  0  0  0  0  0  0  0  0
   -0.3457   23.1009  -29.8574 H   0  0  0  0  0  0  0  0  0  0  0  0
  1  2  1  0
  2  3  1  0
  3  4  1  0
  4  5  2  0
  5  6  1  0
  6  7  2  0
  7  8  1  0
  8  9  2  0
  9 10  1  0
 10 11  2  0
 11 12  1  0
 12 13  2  0
 12 14  1  0
 14 15  1  0
 15 16  1  0
 16 17  1  0
 17 18  1  0
 18 19  2  0
 18 20  1  0
 20 21  2  0
 21 22  1  0
 22 23  2  0
 23 24  1  0
 23 25  1  0
 25 26  2  0
 14  4  1  0
 26 20  1  0
 11  6  1  0
  1 27  1  0
  1 28  1  0
  1 29  1  0
  2 30  1  0
  2 31  1  0
  3 32  1  0
  3 33  1  0
  7 34  1  0
  8 35  1  0
  9 36  1  0
 10 37  1  0
 15 38  1  0
 15 39  1  0
 16 40  1  0
 16 41  1  0
 21 42  1  0
 22 43  1  0
 25 44  1  0
 26 45  1  0
M  CHG  1  17  -1
M  END
>  <UniqueID>  (1) 
1

>  <SMILES>  (1) 
CCCc1nc2ccccc2c(=O)n1CC[N-]C(=O)c1ccc(F)cc1

>  <Energy>  (1) 
54.14256752840971

>  <Genealogy>  (1) 
CCCc1nc2ccccc2c(=O)n1CC[N-]C(=O)c1ccc(F)cc1 (protonated)
CCCc1nc2ccccc2c(=O)n1CC[N-]C(=O)c1ccc(F)cc1 (3D coordinates assigned)
CCCc1nc2ccccc2c(=O)n1CC[N-]C(=O)c1ccc(F)cc1 (optimized conformer: 54.14256752840971 kcal/mol)

>  <smiles>  (1) 
CCCc1nc2ccccc2c(=O)n1CCNC(=O)c1ccc(F)cc1

>  <score_type>  (1) 
oracle

>  <origin>  (1) 
adg

>  <m_score__min__energy>  (1) 
-10.16

>  <m_primary>  (1) 
energy

$$$$
1:0
     RDKit          3D

 59 61  0  0  0  0  0  0  0  0999 V2000
   -5.8130   16.8080  -31.7450 C   0  0  0  0  0  0  0  0  0  0  0  0
   -6.4260   18.1270  -32.1010 C   0  0  0  0  0  0  0  0  0  0  0  0
   -7.7710   18.4360  -32.0110 C   0  0  0  0  0  0  0  0  0  0  0  0
   -7.8560   19.7380  -32.4740 C   0  0  0  0  0  0  0  0  0  0  0  0
   -9.1090   20.5420  -32.6320 C   0  0  0  0  0  0  0  0  0  0  0  0
   -9.2840   21.4390  -31.4710 N   0  0  0  0  0  0  0  0  0  0  0  0
   -8.1980   21.2940  -30.4660 C   0  0  0  0  0  0  0  0  0  0  0  0
   -7.0810   22.3480  -30.6130 C   0  0  0  0  0  0  0  0  0  0  0  0
   -6.9690   22.7730  -32.0180 N   0  0  0  0  0  0  0  0  0  0  0  0
   -5.7240   23.5050  -32.3470 C   0  0  0  0  0  0  0  0  0  0  0  0
   -4.4670   23.0610  -31.5690 C   0  0  0  0  0  0  0  0  0  0  0  0
   -3.9540   24.1220  -30.7800 O   0  0  0  0  0  0  0  0  0  0  0  0
   -3.7040   23.8000  -29.4140 C   0  0  0  0  0  0  0  0  0  0  0  0
   -3.7200   22.2740  -29.1580 C   0  0  0  0  0  0  0  0  0  0  0  0
   -4.6830   24.5340  -28.4660 C   0  0  0  0  0  0  0  0  0  0  0  0
   -2.2850   24.3110  -29.1100 C   0  0  0  0  0  0  0  0  0  0  0  0
   -8.1920   23.4360  -32.5160 C   0  0  0  0  0  0  0  0  0  0  0  0
   -9.4680   22.8460  -31.8810 C   0  0  0  0  0  0  0  0  0  0  0  0
   -6.6300   20.1670  -32.8290 N   0  0  0  0  0  0  0  0  0  0  0  0
   -5.7620   19.1930  -32.6050 N   0  0  0  0  0  0  0  0  0  0  0  0
   -4.3610   19.2810  -32.9070 C   0  0  0  0  0  0  0  0  0  0  0  0
   -3.5330   20.1210  -32.1460 C   0  0  0  0  0  0  0  0  0  0  0  0
   -2.1670   20.2050  -32.4220 C   0  0  0  0  0  0  0  0  0  0  0  0
   -1.6140   19.4520  -33.4590 C   0  0  0  0  0  0  0  0  0  0  0  0
   -2.4290   18.6120  -34.2230 C   0  0  0  0  0  0  0  0  0  0  0  0
   -3.7990   18.5200  -33.9530 C   0  0  0  0  0  0  0  0  0  0  0  0
   -4.7960   17.4900  -34.9710 Cl  0  0  0  0  0  0  0  0  0  0  0  0
   -5.7668   16.7086  -30.6505 H   0  0  0  0  0  0  0  0  0  0  0  0
   -6.4254   15.9947  -32.1615 H   0  0  0  0  0  0  0  0  0  0  0  0
   -4.7965   16.7518  -32.1615 H   0  0  0  0  0  0  0  0  0  0  0  0
   -8.5883   17.7929  -31.6527 H   0  0  0  0  0  0  0  0  0  0  0  0
   -9.0422   21.1438  -33.5504 H   0  0  0  0  0  0  0  0  0  0  0  0
   -9.9699   19.8601  -32.6943 H   0  0  0  0  0  0  0  0  0  0  0  0
   -8.6373   21.3894  -29.4620 H   0  0  0  0  0  0  0  0  0  0  0  0
   -7.7369   20.3083  -30.6267 H   0  0  0  0  0  0  0  0  0  0  0  0
   -7.3191   23.2204  -29.9868 H   0  0  0  0  0  0  0  0  0  0  0  0
   -6.1254   21.9073  -30.2926 H   0  0  0  0  0  0  0  0  0  0  0  0
   -5.5242   23.3687  -33.4201 H   0  0  0  0  0  0  0  0  0  0  0  0
   -5.9037   24.5513  -32.0589 H   0  0  0  0  0  0  0  0  0  0  0  0
   -4.7300   22.2191  -30.9117 H   0  0  0  0  0  0  0  0  0  0  0  0
   -3.6959   22.7596  -32.2933 H   0  0  0  0  0  0  0  0  0  0  0  0
   -3.7220   22.0840  -28.0745 H   0  0  0  0  0  0  0  0  0  0  0  0
   -4.6228   21.8360  -29.6087 H   0  0  0  0  0  0  0  0  0  0  0  0
   -2.8266   21.8172  -29.6087 H   0  0  0  0  0  0  0  0  0  0  0  0
   -4.4067   24.3269  -27.4216 H   0  0  0  0  0  0  0  0  0  0  0  0
   -4.6302   25.6170  -28.6513 H   0  0  0  0  0  0  0  0  0  0  0  0
   -5.7078   24.1798  -28.6513 H   0  0  0  0  0  0  0  0  0  0  0  0
   -2.1396   24.3634  -28.0209 H   0  0  0  0  0  0  0  0  0  0  0  0
   -1.5461   23.6225  -29.5459 H   0  0  0  0  0  0  0  0  0  0  0  0
   -2.1547   25.3125  -29.5459 H   0  0  0  0  0  0  0  0  0  0  0  0
   -8.1382   24.5079  -32.2749 H   0  0  0  0  0  0  0  0  0  0  0  0
   -8.2474   23.2751  -33.6028 H   0  0  0  0  0  0  0  0  0  0  0  0
   -9.7318   23.4422  -30.9950 H   0  0  0  0  0  0  0  0  0  0  0  0
  -10.2680   22.8776  -32.6353 H   0  0  0  0  0  0  0  0  0  0  0  0
   -6.3950   21.0970  -33.2450 H   0  0  0  0  0  0  0  0  0  0  0  0
   -3.9630   20.7167  -31.3273 H   0  0  0  0  0  0  0  0  0  0  0  0
   -1.5252   20.8660  -31.8210 H   0  0  0  0  0  0  0  0  0  0  0  0
   -0.5375   19.5196  -33.6748 H   0  0  0  0  0  0  0  0  0  0  0  0
   -1.9914   18.0203  -35.0405 H   0  0  0  0  0  0  0  0  0  0  0  0
  1  2  1  0
  2  3  2  0
  3  4  1  0
  4  5  1  0
  5  6  1  0
  6  7  1  0
  7  8  1  0
  8  9  1  0
  9 10  1  0
 10 11  1  0
 11 12  1  0
 12 13  1  0
 13 14  1  0
 13 15  1  0
 13 16  1  0
  9 17  1  0
 17 18  1  0
  4 19  2  0
 19 20  1  0
 20 21  1  0
 21 22  2  0
 22 23  1  0
 23 24  2  0
 24 25  1  0
 25 26  2  0
 26 27  1  0
 20  2  1  0
 26 21  1  0
 18  6  1  0
  1 28  1  0
  1 29  1  0
  1 30  1  0
  3 31  1  0
  5 32  1  0
  5 33  1  0
  7 34  1  0
  7 35  1  0
  8 36  1  0
  8 37  1  0
 10 38  1  0
 10 39  1  0
 11 40  1  0
 11 41  1  0
 14 42  1  0
 14 43  1  0
 14 44  1  0
 15 45  1  0
 15 46  1  0
 15 47  1  0
 16 48  1  0
 16 49  1  0
 16 50  1  0
 17 51  1  0
 17 52  1  0
 18 53  1  0
 18 54  1  0
 19 55  1  0
 22 56  1  0
 23 57  1  0
 24 58  1  0
 25 59  1  0
M  CHG  1  19   1
M  END
>  <UniqueID>  (2) 
2

>  <SMILES>  (2) 
Cc1cc(CN2CCN(CCOC(C)(C)C)CC2)[nH+]n1-c1ccccc1Cl

>  <Energy>  (2) 
112.46193485212439

>  <Genealogy>  (2) 
Cc1cc(CN2CCN(CCOC(C)(C)C)CC2)[nH+]n1-c1ccccc1Cl (protonated)
Cc1cc(CN2CCN(CCOC(C)(C)C)CC2)[nH+]n1-c1ccccc1Cl (3D coordinates assigned)
Cc1cc(CN2CCN(CCOC(C)(C)C)CC2)[nH+]n1-c1ccccc1Cl (nonaromatic ring conformer: 112.46193485212439 kcal/mol)

>  <smiles>  (2) 
Cc1cc(CN2CCN(CCOC(C)(C)C)CC2)nn1-c1ccccc1Cl

>  <score_type>  (2) 
oracle

>  <origin>  (2) 
adg

>  <m_score__min__energy>  (2) 
-8.0700000000000003

>  <m_primary>  (2) 
energy

$$$$
2:0
     RDKit          3D

 46 47  0  0  0  0  0  0  0  0999 V2000
   -6.1300   25.6340  -29.5560 C   0  0  0  0  0  0  0  0  0  0  0  0
   -5.3130   25.2650  -30.7880 C   0  0  0  0  0  0  0  0  0  0  0  0
   -3.9160   25.3110  -30.5020 O   0  0  0  0  0  0  0  0  0  0  0  0
   -3.1870   24.2950  -29.8670 C   0  0  0  0  0  0  0  0  0  0  0  0
   -2.5210   24.4590  -28.6270 C   0  0  0  0  0  0  0  0  0  0  0  0
   -1.8100   23.3760  -28.0600 C   0  0  0  0  0  0  0  0  0  0  0  0
   -1.7590   22.1670  -28.6950 N   0  0  0  0  0  0  0  0  0  0  0  0
   -2.4040   22.0230  -29.8780 C   0  0  0  0  0  0  0  0  0  0  0  0
   -2.4930   20.9230  -30.6920 C   0  0  0  0  0  0  0  0  0  0  0  0
   -3.2720   21.3710  -31.7590 C   0  0  0  0  0  0  0  0  0  0  0  0
   -3.6590   20.5520  -32.9510 C   0  0  0  0  0  0  0  0  0  0  0  0
   -4.9370   21.0270  -33.4980 N   0  0  0  0  0  0  0  0  0  0  0  0
   -5.9930   19.9990  -33.4490 C   0  0  0  0  0  0  0  0  0  0  0  0
   -6.9390   20.1900  -32.2460 C   0  0  0  0  0  0  0  0  0  0  0  0
   -7.2560   21.6240  -32.0470 N   0  0  0  0  0  0  0  0  0  0  0  0
   -6.5250   22.1950  -30.8850 C   0  0  0  0  0  0  0  0  0  0  0  0
   -7.5260   22.6610  -29.8340 C   0  0  0  0  0  0  0  0  0  0  0  0
   -8.7180   21.8220  -31.9290 C   0  0  0  0  0  0  0  0  0  0  0  0
   -9.4750   20.5390  -32.2680 C   0  0  0  0  0  0  0  0  0  0  0  0
   -3.6200   22.6370  -31.5960 O   0  0  0  0  0  0  0  0  0  0  0  0
   -3.1000   23.0400  -30.4620 C   0  0  0  0  0  0  0  0  0  0  0  0
   -5.5624   25.3776  -28.6493 H   0  0  0  0  0  0  0  0  0  0  0  0
   -6.3390   26.7139  -29.5646 H   0  0  0  0  0  0  0  0  0  0  0  0
   -7.0784   25.0769  -29.5646 H   0  0  0  0  0  0  0  0  0  0  0  0
   -5.5823   24.2476  -31.1078 H   0  0  0  0  0  0  0  0  0  0  0  0
   -5.5333   25.9884  -31.5868 H   0  0  0  0  0  0  0  0  0  0  0  0
   -2.5570   25.4273  -28.1063 H   0  0  0  0  0  0  0  0  0  0  0  0
   -1.2928   23.5081  -27.0982 H   0  0  0  0  0  0  0  0  0  0  0  0
   -2.0548   19.9256  -30.5399 H   0  0  0  0  0  0  0  0  0  0  0  0
   -2.8787   20.6398  -33.7213 H   0  0  0  0  0  0  0  0  0  0  0  0
   -3.7673   19.5009  -32.6452 H   0  0  0  0  0  0  0  0  0  0  0  0
   -5.2420   21.8740  -32.9630 H   0  0  0  0  0  0  0  0  0  0  0  0
   -6.5833   20.0535  -34.3756 H   0  0  0  0  0  0  0  0  0  0  0  0
   -5.5047   19.0192  -33.3414 H   0  0  0  0  0  0  0  0  0  0  0  0
   -7.8718   19.6367  -32.4296 H   0  0  0  0  0  0  0  0  0  0  0  0
   -6.4400   19.8109  -31.3420 H   0  0  0  0  0  0  0  0  0  0  0  0
   -5.8688   21.4263  -30.4509 H   0  0  0  0  0  0  0  0  0  0  0  0
   -5.9181   23.0499  -31.2178 H   0  0  0  0  0  0  0  0  0  0  0  0
   -7.1185   22.4713  -28.8300 H   0  0  0  0  0  0  0  0  0  0  0  0
   -7.7118   23.7382  -29.9568 H   0  0  0  0  0  0  0  0  0  0  0  0
   -8.4699   22.1097  -29.9568 H   0  0  0  0  0  0  0  0  0  0  0  0
   -8.9584   22.1193  -30.8976 H   0  0  0  0  0  0  0  0  0  0  0  0
   -9.0231   22.6058  -32.6379 H   0  0  0  0  0  0  0  0  0  0  0  0
   -9.7736   20.0329  -31.3381 H   0  0  0  0  0  0  0  0  0  0  0  0
  -10.3717   20.7866  -32.8550 H   0  0  0  0  0  0  0  0  0  0  0  0
   -8.8247   19.8738  -32.8550 H   0  0  0  0  0  0  0  0  0  0  0  0
  1  2  1  0
  2  3  1  0
  3  4  1  0
  4  5  2  0
  5  6  1  0
  6  7  2  0
  7  8  1  0
  8  9  1  0
  9 10  2  0
 10 11  1  0
 11 12  1  0
 12 13  1  0
 13 14  1  0
 14 15  1  0
 15 16  1  0
 16 17  1  0
 15 18  1  0
 18 19  1  0
 10 20  1  0
 20 21  1  0
 21  4  1  0
 21  8  2  0
  1 22  1  0
  1 23  1  0
  1 24  1  0
  2 25  1  0
  2 26  1  0
  5 27  1  0
  6 28  1  0
  9 29  1  0
 11 30  1  0
 11 31  1  0
 12 32  1  0
 13 33  1  0
 13 34  1  0
 14 35  1  0
 14 36  1  0
 16 37  1  0
 16 38  1  0
 17 39  1  0
 17 40  1  0
 17 41  1  0
 18 42  1  0
 18 43  1  0
 19 44  1  0
 19 45  1  0
 19 46  1  0
M  END
>  <UniqueID>  (3) 
3

>  <SMILES>  (3) 
CCOc1ccnc2cc(CNCCN(CC)CC)oc12

>  <Energy>  (3) 
77.50802115440986

>  <Genealogy>  (3) 
CCOc1ccnc2cc(CNCCN(CC)CC)oc12 (3D coordinates assigned)
CCOc1ccnc2cc(CNCCN(CC)CC)oc12 (optimized conformer: 77.50802115440986 kcal/mol)

>  <smiles>  (3) 
CCOc1ccnc2cc(CNCCN(CC)CC)oc12

>  <score_type>  (3) 
oracle

>  <origin>  (3) 
adg

>  <m_score__min__energy>  (3) 
-7.4199999999999999

>  <m_primary>  (3) 
energy

$$$$
3:0
     RDKit          3D

 53 56  0  0  0  0  0  0  0  0999 V2000
   -1.9850   25.1640  -28.1270 C   0  0  0  0  0  0  0  0  0  0  0  0
   -2.7500   25.2760  -29.3230 O   0  0  0  0  0  0  0  0  0  0  0  0
   -3.1760   24.1850  -30.0950 C   0  0  0  0  0  0  0  0  0  0  0  0
   -4.4040   24.1800  -30.7840 C   0  0  0  0  0  0  0  0  0  0  0  0
   -4.7830   23.0670  -31.5410 C   0  0  0  0  0  0  0  0  0  0  0  0
   -3.9410   21.9470  -31.6290 C   0  0  0  0  0  0  0  0  0  0  0  0
   -4.3490   20.7700  -32.4250 C   0  0  0  0  0  0  0  0  0  0  0  0
   -3.5700   19.9170  -33.2220 C   0  0  0  0  0  0  0  0  0  0  0  0
   -2.1510   20.0890  -33.6020 C   0  0  0  0  0  0  0  0  0  0  0  0
   -1.6130   21.3650  -33.8310 C   0  0  0  0  0  0  0  0  0  0  0  0
   -0.2710   21.5110  -34.1950 C   0  0  0  0  0  0  0  0  0  0  0  0
    0.5550   20.3840  -34.3490 C   0  0  0  0  0  0  0  0  0  0  0  0
    2.0100   20.5590  -34.7360 C   0  0  0  0  0  0  0  0  0  0  0  0
    2.4670   19.4420  -35.6830 C   0  0  0  0  0  0  0  0  0  0  0  0
    2.2580   21.9410  -35.3540 C   0  0  0  0  0  0  0  0  0  0  0  0
    0.0050   19.1060  -34.1420 C   0  0  0  0  0  0  0  0  0  0  0  0
   -1.3370   18.9610  -33.7780 C   0  0  0  0  0  0  0  0  0  0  0  0
   -4.3260   18.8820  -33.6680 N   0  0  0  0  0  0  0  0  0  0  0  0
   -5.5440   19.0590  -33.1880 N   0  0  0  0  0  0  0  0  0  0  0  0
   -6.6240   18.2510  -33.3610 C   0  0  0  0  0  0  0  0  0  0  0  0
   -6.5270   17.0020  -34.1860 C   0  0  0  0  0  0  0  0  0  0  0  0
   -7.8200   18.6150  -32.7160 C   0  0  0  0  0  0  0  0  0  0  0  0
   -7.8460   19.7890  -31.9320 C   0  0  0  0  0  0  0  0  0  0  0  0
   -9.0980   20.1900  -31.2220 C   0  0  0  0  0  0  0  0  0  0  0  0
   -6.7200   20.5510  -31.8010 N   0  0  0  0  0  0  0  0  0  0  0  0
   -5.5900   20.1720  -32.4480 C   0  0  0  0  0  0  0  0  0  0  0  0
   -2.7230   21.9500  -30.9310 C   0  0  0  0  0  0  0  0  0  0  0  0
   -2.3440   23.0630  -30.1750 C   0  0  0  0  0  0  0  0  0  0  0  0
   -2.6498   25.2613  -27.2560 H   0  0  0  0  0  0  0  0  0  0  0  0
   -1.4873   24.1834  -28.1006 H   0  0  0  0  0  0  0  0  0  0  0  0
   -1.2271   25.9608  -28.1006 H   0  0  0  0  0  0  0  0  0  0  0  0
   -5.0679   25.0552  -30.7265 H   0  0  0  0  0  0  0  0  0  0  0  0
   -5.7470   23.0690  -32.0709 H   0  0  0  0  0  0  0  0  0  0  0  0
   -2.2506   22.2549  -33.7235 H   0  0  0  0  0  0  0  0  0  0  0  0
    0.1421   22.5166  -34.3624 H   0  0  0  0  0  0  0  0  0  0  0  0
    2.6110   20.4902  -33.8173 H   0  0  0  0  0  0  0  0  0  0  0  0
    2.8187   18.5825  -35.0934 H   0  0  0  0  0  0  0  0  0  0  0  0
    1.6238   19.1312  -36.3173 H   0  0  0  0  0  0  0  0  0  0  0  0
    3.2863   19.8114  -36.3173 H   0  0  0  0  0  0  0  0  0  0  0  0
    2.3911   22.6825  -34.5525 H   0  0  0  0  0  0  0  0  0  0  0  0
    3.1644   21.9071  -35.9763 H   0  0  0  0  0  0  0  0  0  0  0  0
    1.3964   22.2243  -35.9763 H   0  0  0  0  0  0  0  0  0  0  0  0
    0.6358   18.2136  -34.2675 H   0  0  0  0  0  0  0  0  0  0  0  0
   -1.7571   17.9554  -33.6287 H   0  0  0  0  0  0  0  0  0  0  0  0
   -6.4591   16.1280  -33.5215 H   0  0  0  0  0  0  0  0  0  0  0  0
   -7.4208   16.9115  -34.8207 H   0  0  0  0  0  0  0  0  0  0  0  0
   -5.6299   17.0506  -34.8207 H   0  0  0  0  0  0  0  0  0  0  0  0
   -8.7219   17.9940  -32.8209 H   0  0  0  0  0  0  0  0  0  0  0  0
   -8.9359   20.1381  -30.1352 H   0  0  0  0  0  0  0  0  0  0  0  0
   -9.3660   21.2189  -31.5040 H   0  0  0  0  0  0  0  0  0  0  0  0
   -9.9139   19.5082  -31.5040 H   0  0  0  0  0  0  0  0  0  0  0  0
   -2.0630   21.0713  -30.9793 H   0  0  0  0  0  0  0  0  0  0  0  0
   -1.3837   23.0567  -29.6385 H   0  0  0  0  0  0  0  0  0  0  0  0
  1  2  1  0
  2  3  1  0
  3  4  2  0
  4  5  1  0
  5  6  2  0
  6  7  1  0
  7  8  1  0
  8  9  1  0
  9 10  2  0
 10 11  1  0
 11 12  2  0
 12 13  1  0
 13 14  1  0
 13 15  1  0
 12 16  1  0
 16 17  2  0
  8 18  2  0
 18 19  1  0
 19 20  1  0
 20 21  1  0
 20 22  2  0
 22 23  1  0
 23 24  1  0
 23 25  2  0
 25 26  1  0
  6 27  1  0
 27 28  2  0
 28  3  1  0
 26  7  2  0
 17  9  1  0
 26 19  1  0
  1 29  1  0
  1 30  1  0
  1 31  1  0
  4 32  1  0
  5 33  1  0
 10 34  1  0
 11 35  1  0
 13 36  1  0
 14 37  1  0
 14 38  1  0
 14 39  1  0
 15 40  1  0
 15 41  1  0
 15 42  1  0
 16 43  1  0
 17 44  1  0
 21 45  1  0
 21 46  1  0
 21 47  1  0
 22 48  1  0
 24 49  1  0
 24 50  1  0
 24 51  1  0
 27 52  1  0
 28 53  1  0
M  END
>  <UniqueID>  (4) 
4

>  <SMILES>  (4) 
COc1ccc(-c2c(-c3ccc(C(C)C)cc3)nn3c(C)cc(C)nc23)cc1

>  <Energy>  (4) 
95.7471489459858

>  <Genealogy>  (4) 
COc1ccc(-c2c(-c3ccc(C(C)C)cc3)nn3c(C)cc(C)nc23)cc1 (3D coordinates assigned)
COc1ccc(-c2c(-c3ccc(C(C)C)cc3)nn3c(C)cc(C)nc23)cc1 (optimized conformer: 95.7471489459858 kcal/mol)

>  <smiles>  (4) 
COc1ccc(-c2c(-c3ccc(C(C)C)cc3)nn3c(C)cc(C)nc23)cc1

>  <score_type>  (4) 
oracle

>  <origin>  (4) 
adg

>  <m_score__min__energy>  (4) 
-8.7200000000000006

>  <m_primary>  (4) 
energy

$$$$
4:0
     RDKit          3D

 54 58  0  0  0  0  0  0  0  0999 V2000
   -4.8250   24.7130  -30.3940 C   0  0  0  0  0  0  0  0  0  0  0  0
   -3.4140   24.8910  -30.3270 O   0  0  0  0  0  0  0  0  0  0  0  0
   -2.5970   24.4450  -29.2750 C   0  0  0  0  0  0  0  0  0  0  0  0
   -2.2400   25.2990  -28.2120 C   0  0  0  0  0  0  0  0  0  0  0  0
   -1.4130   24.8520  -27.1690 C   0  0  0  0  0  0  0  0  0  0  0  0
   -1.0440   25.7610  -26.0530 C   0  0  0  0  0  0  0  0  0  0  0  0
   -0.8760   25.2590  -24.7480 C   0  0  0  0  0  0  0  0  0  0  0  0
   -0.5280   26.1170  -23.7000 C   0  0  0  0  0  0  0  0  0  0  0  0
   -0.3450   27.4810  -23.9400 C   0  0  0  0  0  0  0  0  0  0  0  0
   -0.5110   27.9900  -25.2300 C   0  0  0  0  0  0  0  0  0  0  0  0
   -0.8580   27.1380  -26.2830 C   0  0  0  0  0  0  0  0  0  0  0  0
   -0.9400   23.5330  -27.1960 C   0  0  0  0  0  0  0  0  0  0  0  0
   -1.2870   22.6760  -28.2400 C   0  0  0  0  0  0  0  0  0  0  0  0
   -2.1150   23.1150  -29.2900 C   0  0  0  0  0  0  0  0  0  0  0  0
   -2.4810   22.1850  -30.3910 C   0  0  0  0  0  0  0  0  0  0  0  0
   -3.5790   21.3180  -30.4140 C   0  0  0  0  0  0  0  0  0  0  0  0
   -3.4890   20.6770  -31.6260 C   0  0  0  0  0  0  0  0  0  0  0  0
   -4.2990   19.7040  -32.2050 C   0  0  0  0  0  0  0  0  0  0  0  0
   -3.9520   19.2330  -33.4910 C   0  0  0  0  0  0  0  0  0  0  0  0
   -4.7900   18.1800  -34.1680 C   0  0  0  0  0  0  0  0  0  0  0  0
   -6.1570   18.6630  -34.3760 N   0  0  0  0  0  0  0  0  0  0  0  0
   -7.0360   19.1010  -33.3230 C   0  0  0  0  0  0  0  0  0  0  0  0
   -7.2640   20.4620  -33.0560 C   0  0  0  0  0  0  0  0  0  0  0  0
   -8.1280   20.8370  -32.0260 C   0  0  0  0  0  0  0  0  0  0  0  0
   -8.7560   19.8510  -31.2640 C   0  0  0  0  0  0  0  0  0  0  0  0
   -8.5230   18.5360  -31.5250 N   0  0  0  0  0  0  0  0  0  0  0  0
   -7.6850   18.1460  -32.5250 C   0  0  0  0  0  0  0  0  0  0  0  0
   -2.7940   19.7400  -34.1380 C   0  0  0  0  0  0  0  0  0  0  0  0
   -2.0000   20.7220  -33.5190 C   0  0  0  0  0  0  0  0  0  0  0  0
   -2.3810   21.1680  -32.2580 C   0  0  0  0  0  0  0  0  0  0  0  0
   -1.7880   22.0660  -31.5110 O   0  0  0  0  0  0  0  0  0  0  0  0
   -5.2368   24.6611  -29.3753 H   0  0  0  0  0  0  0  0  0  0  0  0
   -5.2766   25.5613  -30.9292 H   0  0  0  0  0  0  0  0  0  0  0  0
   -5.0518   23.7791  -30.9292 H   0  0  0  0  0  0  0  0  0  0  0  0
   -2.6155   26.3328  -28.1993 H   0  0  0  0  0  0  0  0  0  0  0  0
   -1.0193   24.1861  -24.5520 H   0  0  0  0  0  0  0  0  0  0  0  0
   -0.3980   25.7167  -22.6837 H   0  0  0  0  0  0  0  0  0  0  0  0
   -0.0705   28.1534  -23.1139 H   0  0  0  0  0  0  0  0  0  0  0  0
   -0.3683   29.0644  -25.4181 H   0  0  0  0  0  0  0  0  0  0  0  0
   -0.9864   27.5455  -27.2966 H   0  0  0  0  0  0  0  0  0  0  0  0
   -0.2893   23.1705  -26.3865 H   0  0  0  0  0  0  0  0  0  0  0  0
   -0.9085   21.6432  -28.2429 H   0  0  0  0  0  0  0  0  0  0  0  0
   -4.3437   21.1803  -29.6354 H   0  0  0  0  0  0  0  0  0  0  0  0
   -5.1819   19.3139  -31.6775 H   0  0  0  0  0  0  0  0  0  0  0  0
   -4.3421   17.9326  -35.1417 H   0  0  0  0  0  0  0  0  0  0  0  0
   -4.8235   17.2872  -33.5263 H   0  0  0  0  0  0  0  0  0  0  0  0
   -6.4910   18.7290  -35.3650 H   0  0  0  0  0  0  0  0  0  0  0  0
   -6.7611   21.2322  -33.6593 H   0  0  0  0  0  0  0  0  0  0  0  0
   -8.3124   21.9010  -31.8166 H   0  0  0  0  0  0  0  0  0  0  0  0
   -9.4401   20.1371  -30.4515 H   0  0  0  0  0  0  0  0  0  0  0  0
   -8.9990   17.8090  -30.9460 H   0  0  0  0  0  0  0  0  0  0  0  0
   -7.5155   17.0748  -32.7087 H   0  0  0  0  0  0  0  0  0  0  0  0
   -2.5155   19.3612  -35.1324 H   0  0  0  0  0  0  0  0  0  0  0  0
   -1.1055   21.1248  -34.0167 H   0  0  0  0  0  0  0  0  0  0  0  0
  1  2  1  0
  2  3  1  0
  3  4  2  0
  4  5  1  0
  5  6  1  0
  6  7  2  0
  7  8  1  0
  8  9  2  0
  9 10  1  0
 10 11  2  0
  5 12  2  0
 12 13  1  0
 13 14  2  0
 14 15  1  0
 15 16  2  0
 16 17  1  0
 17 18  2  0
 18 19  1  0
 19 20  1  0
 20 21  1  0
 21 22  1  0
 22 23  2  0
 23 24  1  0
 24 25  2  0
 25 26  1  0
 26 27  2  0
 19 28  2  0
 28 29  1  0
 29 30  2  0
 30 31  1  0
 14  3  1  0
 31 15  1  0
 11  6  1  0
 30 17  1  0
 27 22  1  0
  1 32  1  0
  1 33  1  0
  1 34  1  0
  4 35  1  0
  7 36  1  0
  8 37  1  0
  9 38  1  0
 10 39  1  0
 11 40  1  0
 12 41  1  0
 13 42  1  0
 16 43  1  0
 18 44  1  0
 20 45  1  0
 20 46  1  0
 21 47  1  0
 23 48  1  0
 24 49  1  0
 25 50  1  0
 26 51  1  0
 27 52  1  0
 28 53  1  0
 29 54  1  0
M  CHG  1  26   1
M  END
>  <UniqueID>  (5) 
5

>  <SMILES>  (5) 
COc1cc(-c2ccccc2)ccc1-c1cc2cc(CNc3ccc[nH+]c3)ccc2o1

>  <Energy>  (5) 
100.69371237367424

>  <Genealogy>  (5) 
COc1cc(-c2ccccc2)ccc1-c1cc2cc(CNc3ccc[nH+]c3)ccc2o1 (protonated)
COc1cc(-c2ccccc2)ccc1-c1cc2cc(CNc3ccc[nH+]c3)ccc2o1 (3D coordinates assigned)
COc1cc(-c2ccccc2)ccc1-c1cc2cc(CNc3ccc[nH+]c3)ccc2o1 (optimized conformer: 100.69371237367424 kcal/mol)

>  <smiles>  (5) 
COc1cc(-c2ccccc2)ccc1-c1cc2cc(CNc3cccnc3)ccc2o1

>  <score_type>  (5) 
oracle

>  <origin>  (5) 
adg

>  <m_score__min__energy>  (5) 
-10.1

>  <m_primary>  (5) 
energy

$$$$
5:0
     RDKit          3D

 48 51  0  0  0  0  0  0  0  0999 V2000
   -3.4810   23.8130  -30.0670 C   0  0  0  0  0  0  0  0  0  0  0  0
   -4.5390   24.3330  -30.8650 O   0  0  0  0  0  0  0  0  0  0  0  0
   -5.7560   23.6730  -31.0930 C   0  0  0  0  0  0  0  0  0  0  0  0
   -6.1030   22.6030  -30.2590 C   0  0  0  0  0  0  0  0  0  0  0  0
   -7.3150   21.9290  -30.4330 C   0  0  0  0  0  0  0  0  0  0  0  0
   -8.1980   22.3170  -31.4510 C   0  0  0  0  0  0  0  0  0  0  0  0
   -9.4810   21.5560  -31.6720 C   0  0  0  0  0  0  0  0  0  0  0  0
   -9.2580   20.3260  -32.4480 N   0  0  0  0  0  0  0  0  0  0  0  0
   -8.9150   19.1570  -31.6190 C   0  0  0  0  0  0  0  0  0  0  0  0
   -7.4780   18.6350  -31.8750 C   0  0  0  0  0  0  0  0  0  0  0  0
   -7.0250   18.8020  -33.2770 N   0  0  0  0  0  0  0  0  0  0  0  0
   -6.4580   17.5770  -33.8020 C   0  0  0  0  0  0  0  0  0  0  0  0
   -7.2290   16.6540  -34.1810 O   0  0  0  0  0  0  0  0  0  0  0  0
   -4.9900   17.3710  -33.8400 C   0  0  0  0  0  0  0  0  0  0  0  0
   -4.4430   16.0940  -34.0470 C   0  0  0  0  0  0  0  0  0  0  0  0
   -3.0580   15.9120  -34.0620 C   0  0  0  0  0  0  0  0  0  0  0  0
   -2.2010   17.0000  -33.8770 C   0  0  0  0  0  0  0  0  0  0  0  0
   -2.7280   18.2850  -33.6760 C   0  0  0  0  0  0  0  0  0  0  0  0
   -1.8770   19.3860  -33.5010 C   0  0  0  0  0  0  0  0  0  0  0  0
   -2.4120   20.6630  -33.3230 C   0  0  0  0  0  0  0  0  0  0  0  0
   -3.7950   20.8520  -33.3070 C   0  0  0  0  0  0  0  0  0  0  0  0
   -4.6630   19.7590  -33.4630 C   0  0  0  0  0  0  0  0  0  0  0  0
   -4.1320   18.4720  -33.6550 C   0  0  0  0  0  0  0  0  0  0  0  0
   -6.1340   19.9390  -33.4030 C   0  0  0  0  0  0  0  0  0  0  0  0
   -6.6200   21.1040  -33.4180 O   0  0  0  0  0  0  0  0  0  0  0  0
   -7.8500   23.3830  -32.2950 C   0  0  0  0  0  0  0  0  0  0  0  0
   -6.6400   24.0540  -32.1200 C   0  0  0  0  0  0  0  0  0  0  0  0
   -3.7302   23.9355  -29.0026 H   0  0  0  0  0  0  0  0  0  0  0  0
   -3.3438   22.7448  -30.2909 H   0  0  0  0  0  0  0  0  0  0  0  0
   -2.5515   24.3569  -30.2909 H   0  0  0  0  0  0  0  0  0  0  0  0
   -5.4153   22.2900  -29.4595 H   0  0  0  0  0  0  0  0  0  0  0  0
   -7.5770   21.0917  -29.7694 H   0  0  0  0  0  0  0  0  0  0  0  0
   -9.9093   21.2882  -30.6949 H   0  0  0  0  0  0  0  0  0  0  0  0
  -10.1679   22.2001  -32.2406 H   0  0  0  0  0  0  0  0  0  0  0  0
   -8.4910   20.4950  -33.1400 H   0  0  0  0  0  0  0  0  0  0  0  0
   -9.0016   19.4406  -30.5597 H   0  0  0  0  0  0  0  0  0  0  0  0
   -9.6116   18.3484  -31.8853 H   0  0  0  0  0  0  0  0  0  0  0  0
   -6.7868   19.1842  -31.2188 H   0  0  0  0  0  0  0  0  0  0  0  0
   -7.4858   17.5551  -31.6658 H   0  0  0  0  0  0  0  0  0  0  0  0
   -7.8720   19.0200  -33.8550 H   0  0  0  0  0  0  0  0  0  0  0  0
   -5.1093   15.2319  -34.1982 H   0  0  0  0  0  0  0  0  0  0  0  0
   -2.6399   14.9069  -34.2203 H   0  0  0  0  0  0  0  0  0  0  0  0
   -1.1115   16.8490  -33.8889 H   0  0  0  0  0  0  0  0  0  0  0  0
   -0.7863   19.2430  -33.5040 H   0  0  0  0  0  0  0  0  0  0  0  0
   -1.7404   21.5247  -33.1947 H   0  0  0  0  0  0  0  0  0  0  0  0
   -4.2073   21.8628  -33.1714 H   0  0  0  0  0  0  0  0  0  0  0  0
   -8.5351   23.6908  -33.0986 H   0  0  0  0  0  0  0  0  0  0  0  0
   -6.3748   24.8862  -32.7887 H   0  0  0  0  0  0  0  0  0  0  0  0
  1  2  1  0
  2  3  1  0
  3  4  2  0
  4  5  1  0
  5  6  2  0
  6  7  1  0
  7  8  1  0
  8  9  1  0
  9 10  1  0
 10 11  1  0
 11 12  1  0
 12 13  2  0
 12 14  1  0
 14 15  2  0
 15 16  1  0
 16 17  2  0
 17 18  1  0
 18 19  2  0
 19 20  1  0
 20 21  2  0
 21 22  1  0
 22 23  2  0
 22 24  1  0
 24 25  2  0
  6 26  1  0
 26 27  2  0
 27  3  1  0
 24 11  1  0
 23 14  1  0
 23 18  1  0
  1 28  1  0
  1 29  1  0
  1 30  1  0
  4 31  1  0
  5 32  1  0
  7 33  1  0
  7 34  1  0
  8 35  1  0
  9 36  1  0
  9 37  1  0
 10 38  1  0
 10 39  1  0
 11 40  1  0
 15 41  1  0
 16 42  1  0
 17 43  1  0
 19 44  1  0
 20 45  1  0
 21 46  1  0
 26 47  1  0
 27 48  1  0
M  CHG  1  11   1
M  END
>  <UniqueID>  (6) 
6

>  <SMILES>  (6) 
COc1ccc(CNCC[NH+]2C(=O)c3cccc4cccc(c34)C2=O)cc1

>  <Energy>  (6) 
60.946190681066035

>  <Genealogy>  (6) 
COc1ccc(CNCC[NH+]2C(=O)c3cccc4cccc(c34)C2=O)cc1 (protonated)
COc1ccc(CNCC[NH+]2C(=O)c3cccc4cccc(c34)C2=O)cc1 (3D coordinates assigned)
COc1ccc(CNCC[NH+]2C(=O)c3cccc4cccc(c34)C2=O)cc1 (nonaromatic ring conformer: 60.946190681066035 kcal/mol)

>  <smiles>  (6) 
COc1ccc(CNCCN2C(=O)c3cccc4cccc(c34)C2=O)cc1

>  <score_type>  (6) 
oracle

>  <origin>  (6) 
adg

>  <m_score__min__energy>  (6) 
-9.5700000000000003

>  <m_primary>  (6) 
energy

$$$$
6:0
     RDKit          3D

 44 47  0  0  0  0  0  0  0  0999 V2000
   -8.9160   19.0130  -31.5980 C   0  0  0  0  0  0  0  0  0  0  0  0
   -7.6310   19.2790  -32.3310 C   0  0  0  0  0  0  0  0  0  0  0  0
   -7.0250   20.5410  -32.4580 C   0  0  0  0  0  0  0  0  0  0  0  0
   -7.4750   21.8150  -31.8700 C   0  0  0  0  0  0  0  0  0  0  0  0
   -8.7130   22.0370  -31.7960 O   0  0  0  0  0  0  0  0  0  0  0  0
   -6.5420   22.8130  -31.4060 N   0  0  0  0  0  0  0  0  0  0  0  0
   -6.9610   23.7240  -30.3280 C   0  0  0  0  0  0  0  0  0  0  0  0
   -5.9310   24.8310  -30.0940 C   0  0  0  0  0  0  0  0  0  0  0  0
   -4.5830   24.2530  -30.0750 N   0  0  0  0  0  0  0  0  0  0  0  0
   -3.7120   24.4490  -28.9440 C   0  0  0  0  0  0  0  0  0  0  0  0
   -4.2400   24.5320  -27.6430 C   0  0  0  0  0  0  0  0  0  0  0  0
   -3.3920   24.7090  -26.5460 C   0  0  0  0  0  0  0  0  0  0  0  0
   -2.0110   24.7980  -26.7350 C   0  0  0  0  0  0  0  0  0  0  0  0
   -1.1900   24.9680  -25.6690 F   0  0  0  0  0  0  0  0  0  0  0  0
   -1.4760   24.7090  -28.0230 C   0  0  0  0  0  0  0  0  0  0  0  0
   -2.3200   24.5320  -29.1230 C   0  0  0  0  0  0  0  0  0  0  0  0
   -4.1470   23.3960  -31.1870 C   0  0  0  0  0  0  0  0  0  0  0  0
   -5.2990   23.0770  -32.1510 C   0  0  0  0  0  0  0  0  0  0  0  0
   -5.6660   20.4120  -33.4550 S   0  0  0  0  0  0  0  0  0  0  0  0
   -5.8090   18.7600  -33.7010 C   0  0  0  0  0  0  0  0  0  0  0  0
   -4.9830   17.9330  -34.4580 C   0  0  0  0  0  0  0  0  0  0  0  0
   -5.3000   16.5690  -34.5310 C   0  0  0  0  0  0  0  0  0  0  0  0
   -6.4250   16.0630  -33.8540 C   0  0  0  0  0  0  0  0  0  0  0  0
   -7.2450   16.9160  -33.0980 C   0  0  0  0  0  0  0  0  0  0  0  0
   -6.9240   18.2790  -33.0270 C   0  0  0  0  0  0  0  0  0  0  0  0
   -8.7342   19.0506  -30.5138 H   0  0  0  0  0  0  0  0  0  0  0  0
   -9.6592   19.7764  -31.8719 H   0  0  0  0  0  0  0  0  0  0  0  0
   -9.2950   18.0174  -31.8719 H   0  0  0  0  0  0  0  0  0  0  0  0
   -7.9224   24.1830  -30.6020 H   0  0  0  0  0  0  0  0  0  0  0  0
   -7.0548   23.1397  -29.4008 H   0  0  0  0  0  0  0  0  0  0  0  0
   -6.0000   25.5724  -30.9037 H   0  0  0  0  0  0  0  0  0  0  0  0
   -6.1326   25.3195  -29.1292 H   0  0  0  0  0  0  0  0  0  0  0  0
   -5.3264   24.4572  -27.4879 H   0  0  0  0  0  0  0  0  0  0  0  0
   -3.8130   24.7783  -25.5321 H   0  0  0  0  0  0  0  0  0  0  0  0
   -0.3883   24.7784  -28.1714 H   0  0  0  0  0  0  0  0  0  0  0  0
   -1.8929   24.4573  -30.1339 H   0  0  0  0  0  0  0  0  0  0  0  0
   -3.3509   23.9128  -31.7431 H   0  0  0  0  0  0  0  0  0  0  0  0
   -3.7844   22.4475  -30.7640 H   0  0  0  0  0  0  0  0  0  0  0  0
   -5.4556   23.9337  -32.8229 H   0  0  0  0  0  0  0  0  0  0  0  0
   -5.0369   22.1802  -32.7316 H   0  0  0  0  0  0  0  0  0  0  0  0
   -4.1062   18.3385  -34.9841 H   0  0  0  0  0  0  0  0  0  0  0  0
   -4.6657   15.8908  -35.1207 H   0  0  0  0  0  0  0  0  0  0  0  0
   -6.6639   14.9911  -33.9175 H   0  0  0  0  0  0  0  0  0  0  0  0
   -8.1254   16.5211  -32.5698 H   0  0  0  0  0  0  0  0  0  0  0  0
  1  2  1  0
  2  3  2  0
  3  4  1  0
  4  5  2  0
  4  6  1  0
  6  7  1  0
  7  8  1  0
  8  9  1  0
  9 10  1  0
 10 11  2  0
 11 12  1  0
 12 13  2  0
 13 14  1  0
 13 15  1  0
 15 16  2  0
  9 17  1  0
 17 18  1  0
  3 19  1  0
 19 20  1  0
 20 21  2  0
 21 22  1  0
 22 23  2  0
 23 24  1  0
 24 25  2  0
 25  2  1  0
 18  6  1  0
 25 20  1  0
 16 10  1  0
  1 26  1  0
  1 27  1  0
  1 28  1  0
  7 29  1  0
  7 30  1  0
  8 31  1  0
  8 32  1  0
 11 33  1  0
 12 34  1  0
 15 35  1  0
 16 36  1  0
 17 37  1  0
 17 38  1  0
 18 39  1  0
 18 40  1  0
 21 41  1  0
 22 42  1  0
 23 43  1  0
 24 44  1  0
M  END
>  <UniqueID>  (7) 
7

>  <SMILES>  (7) 
Cc1c(C(=O)N2CCN(c3ccc(F)cc3)CC2)sc2ccccc12

>  <Energy>  (7) 
87.89494773612354

>  <Genealogy>  (7) 
Cc1c(C(=O)N2CCN(c3ccc(F)cc3)CC2)sc2ccccc12 (3D coordinates assigned)
Cc1c(C(=O)N2CCN(c3ccc(F)cc3)CC2)sc2ccccc12 (nonaromatic ring conformer: 87.89494773612354 kcal/mol)

>  <smiles>  (7) 
Cc1c(C(=O)N2CCN(c3ccc(F)cc3)CC2)sc2ccccc12

>  <score_type>  (7) 
oracle

>  <origin>  (7) 
adg

>  <m_score__min__energy>  (7) 
-8.9900000000000002

>  <m_primary>  (7) 
energy

$$$$
7:0
     RDKit          3D

 49 51  0  0  0  0  0  0  0  0999 V2000
   -9.0200   18.8510  -31.9600 C   0  0  0  0  0  0  0  0  0  0  0  0
   -9.1620   20.3630  -32.2060 C   0  0  0  0  0  0  0  0  0  0  0  0
   -7.8830   21.1100  -32.2420 N   0  0  0  0  0  0  0  0  0  0  0  0
   -7.9310   22.4820  -31.6830 C   0  0  0  0  0  0  0  0  0  0  0  0
   -7.4750   22.5850  -30.2260 C   0  0  0  0  0  0  0  0  0  0  0  0
   -6.6700   20.3290  -31.9130 C   0  0  0  0  0  0  0  0  0  0  0  0
   -5.8150   20.0900  -33.1580 C   0  0  0  0  0  0  0  0  0  0  0  0
   -4.7240   21.0070  -33.1720 O   0  0  0  0  0  0  0  0  0  0  0  0
   -4.1710   21.6080  -32.0330 C   0  0  0  0  0  0  0  0  0  0  0  0
   -3.3700   20.9000  -31.1210 C   0  0  0  0  0  0  0  0  0  0  0  0
   -2.8600   21.5410  -29.9920 C   0  0  0  0  0  0  0  0  0  0  0  0
   -3.1460   22.8930  -29.7420 C   0  0  0  0  0  0  0  0  0  0  0  0
   -2.6110   23.5160  -28.5120 C   0  0  0  0  0  0  0  0  0  0  0  0
   -3.0720   24.6770  -27.9730 N   0  0  0  0  0  0  0  0  0  0  0  0
   -2.3160   24.8180  -26.8780 C   0  0  0  0  0  0  0  0  0  0  0  0
   -2.3680   25.8210  -25.9680 N   0  0  0  0  0  0  0  0  0  0  0  0
   -1.5050   25.7850  -24.9060 C   0  0  0  0  0  0  0  0  0  0  0  0
   -0.5800   24.7220  -24.7650 C   0  0  0  0  0  0  0  0  0  0  0  0
   -0.5450   23.6940  -25.7260 C   0  0  0  0  0  0  0  0  0  0  0  0
   -1.4460   23.7820  -26.7780 C   0  0  0  0  0  0  0  0  0  0  0  0
   -1.6360   22.9750  -27.7920 O   0  0  0  0  0  0  0  0  0  0  0  0
   -3.9190   23.6220  -30.6730 C   0  0  0  0  0  0  0  0  0  0  0  0
   -4.1370   24.9940  -30.4620 O   0  0  0  0  0  0  0  0  0  0  0  0
   -5.4180   25.6110  -30.3910 C   0  0  0  0  0  0  0  0  0  0  0  0
   -4.4320   22.9620  -31.8080 C   0  0  0  0  0  0  0  0  0  0  0  0
   -9.0017   18.6557  -30.8776 H   0  0  0  0  0  0  0  0  0  0  0  0
   -9.8726   18.3241  -32.4132 H   0  0  0  0  0  0  0  0  0  0  0  0
   -8.0842   18.4921  -32.4132 H   0  0  0  0  0  0  0  0  0  0  0  0
   -9.6692   20.5064  -33.1715 H   0  0  0  0  0  0  0  0  0  0  0  0
   -9.7301   20.7632  -31.3533 H   0  0  0  0  0  0  0  0  0  0  0  0
   -7.2808   23.1257  -32.2937 H   0  0  0  0  0  0  0  0  0  0  0  0
   -8.9854   22.7945  -31.7057 H   0  0  0  0  0  0  0  0  0  0  0  0
   -8.3290   22.3921  -29.5600 H   0  0  0  0  0  0  0  0  0  0  0  0
   -6.6862   21.8424  -30.0353 H   0  0  0  0  0  0  0  0  0  0  0  0
   -7.0820   23.5945  -30.0353 H   0  0  0  0  0  0  0  0  0  0  0  0
   -6.0766   20.8827  -31.1705 H   0  0  0  0  0  0  0  0  0  0  0  0
   -6.9808   19.3538  -31.5100 H   0  0  0  0  0  0  0  0  0  0  0  0
   -5.4278   19.0605  -33.1441 H   0  0  0  0  0  0  0  0  0  0  0  0
   -6.4298   20.2400  -34.0577 H   0  0  0  0  0  0  0  0  0  0  0  0
   -3.1447   19.8379  -31.2978 H   0  0  0  0  0  0  0  0  0  0  0  0
   -2.2261   20.9807  -29.2890 H   0  0  0  0  0  0  0  0  0  0  0  0
   -3.8500   25.2950  -28.2950 H   0  0  0  0  0  0  0  0  0  0  0  0
   -1.5302   26.5888  -24.1555 H   0  0  0  0  0  0  0  0  0  0  0  0
    0.1087   24.6997  -23.9076 H   0  0  0  0  0  0  0  0  0  0  0  0
    0.1652   22.8577  -25.6467 H   0  0  0  0  0  0  0  0  0  0  0  0
   -5.7013   25.7475  -29.3369 H   0  0  0  0  0  0  0  0  0  0  0  0
   -5.3815   26.5903  -30.8906 H   0  0  0  0  0  0  0  0  0  0  0  0
   -6.1610   24.9720  -30.8906 H   0  0  0  0  0  0  0  0  0  0  0  0
   -5.0474   23.5217  -32.5278 H   0  0  0  0  0  0  0  0  0  0  0  0
  1  2  1  0
  2  3  1  0
  3  4  1  0
  4  5  1  0
  3  6  1  0
  6  7  1  0
  7  8  1  0
  8  9  1  0
  9 10  2  0
 10 11  1  0
 11 12  2  0
 12 13  1  0
 13 14  2  0
 14 15  1  0
 15 16  2  0
 16 17  1  0
 17 18  2  0
 18 19  1  0
 19 20  2  0
 20 21  1  0
 12 22  1  0
 22 23  1  0
 23 24  1  0
 22 25  2  0
 25  9  1  0
 21 13  1  0
 20 15  1  0
  1 26  1  0
  1 27  1  0
  1 28  1  0
  2 29  1  0
  2 30  1  0
  4 31  1  0
  4 32  1  0
  5 33  1  0
  5 34  1  0
  5 35  1  0
  6 36  1  0
  6 37  1  0
  7 38  1  0
  7 39  1  0
 10 40  1  0
 11 41  1  0
 14 42  1  0
 17 43  1  0
 18 44  1  0
 19 45  1  0
 24 46  1  0
 24 47  1  0
 24 48  1  0
 25 49  1  0
M  CHG  1  14   1
M  END
>  <UniqueID>  (8) 
8

>  <SMILES>  (8) 
CCN(CC)CCOc1ccc(-c2[nH+]c3ncccc3o2)c(OC)c1

>  <Energy>  (8) 
100.22354723449288

>  <Genealogy>  (8) 
CCN(CC)CCOc1ccc(-c2[nH+]c3ncccc3o2)c(OC)c1 (protonated)
CCN(CC)CCOc1ccc(-c2[nH+]c3ncccc3o2)c(OC)c1 (3D coordinates assigned)
CCN(CC)CCOc1ccc(-c2[nH+]c3ncccc3o2)c(OC)c1 (optimized conformer: 100.22354723449288 kcal/mol)

>  <smiles>  (8) 
CCN(CC)CCOc1ccc(-c2nc3ncccc3o2)c(OC)c1

>  <score_type>  (8) 
oracle

>  <origin>  (8) 
adg

>  <m_score__min__energy>  (8) 
-7.3700000000000001

>  <m_primary>  (8) 
energy

$$$$
8:0
     RDKit          3D

 48 49  0  0  0  0  0  0  0  0999 V2000
   -4.0040   23.5870  -28.3460 C   0  0  0  0  0  0  0  0  0  0  0  0
   -3.3320   24.5170  -29.3540 C   0  0  0  0  0  0  0  0  0  0  0  0
   -4.1320   24.5910  -30.5980 N   0  0  0  0  0  0  0  0  0  0  0  0
   -5.2170   25.5920  -30.4750 C   0  0  0  0  0  0  0  0  0  0  0  0
   -6.5050   24.9170  -30.0160 C   0  0  0  0  0  0  0  0  0  0  0  0
   -4.6590   23.2600  -30.9860 C   0  0  0  0  0  0  0  0  0  0  0  0
   -3.5230   22.3700  -31.4860 C   0  0  0  0  0  0  0  0  0  0  0  0
   -3.8760   21.7500  -32.7180 O   0  0  0  0  0  0  0  0  0  0  0  0
   -4.1000   20.3730  -32.8240 C   0  0  0  0  0  0  0  0  0  0  0  0
   -3.4310   19.5620  -32.1250 O   0  0  0  0  0  0  0  0  0  0  0  0
   -5.1200   19.8470  -33.7860 C   0  0  0  0  0  0  0  0  0  0  0  0
   -6.4280   19.5400  -33.0770 C   0  0  0  0  0  0  0  0  0  0  0  0
   -6.7730   18.1820  -32.8790 C   0  0  0  0  0  0  0  0  0  0  0  0
   -5.8890   17.1830  -33.3240 O   0  0  0  0  0  0  0  0  0  0  0  0
   -5.2340   16.2420  -32.4810 C   0  0  0  0  0  0  0  0  0  0  0  0
   -7.9820   17.8520  -32.2430 C   0  0  0  0  0  0  0  0  0  0  0  0
   -8.8420   18.8470  -31.7920 C   0  0  0  0  0  0  0  0  0  0  0  0
   -8.5100   20.1950  -31.9480 C   0  0  0  0  0  0  0  0  0  0  0  0
   -9.3870   21.1830  -31.4730 C   0  0  0  0  0  0  0  0  0  0  0  0
   -9.0680   22.5330  -31.6100 C   0  0  0  0  0  0  0  0  0  0  0  0
   -7.8690   22.9080  -32.2100 C   0  0  0  0  0  0  0  0  0  0  0  0
   -6.9800   21.9390  -32.6790 C   0  0  0  0  0  0  0  0  0  0  0  0
   -7.2890   20.5630  -32.5780 C   0  0  0  0  0  0  0  0  0  0  0  0
   -3.7644   23.9185  -27.3249 H   0  0  0  0  0  0  0  0  0  0  0  0
   -5.0938   23.6124  -28.4936 H   0  0  0  0  0  0  0  0  0  0  0  0
   -3.6378   22.5603  -28.4936 H   0  0  0  0  0  0  0  0  0  0  0  0
   -3.2455   25.5231  -28.9178 H   0  0  0  0  0  0  0  0  0  0  0  0
   -2.3334   24.1230  -29.5938 H   0  0  0  0  0  0  0  0  0  0  0  0
   -4.9250   26.3562  -29.7396 H   0  0  0  0  0  0  0  0  0  0  0  0
   -5.3865   26.0607  -31.4556 H   0  0  0  0  0  0  0  0  0  0  0  0
   -6.5382   24.8996  -28.9166 H   0  0  0  0  0  0  0  0  0  0  0  0
   -7.3699   25.4778  -30.4001 H   0  0  0  0  0  0  0  0  0  0  0  0
   -6.5361   23.8867  -30.4001 H   0  0  0  0  0  0  0  0  0  0  0  0
   -5.1333   22.7881  -30.1129 H   0  0  0  0  0  0  0  0  0  0  0  0
   -5.3977   23.3865  -31.7911 H   0  0  0  0  0  0  0  0  0  0  0  0
   -2.6223   22.9835  -31.6353 H   0  0  0  0  0  0  0  0  0  0  0  0
   -3.3309   21.5870  -30.7377 H   0  0  0  0  0  0  0  0  0  0  0  0
   -5.3017   20.6011  -34.5659 H   0  0  0  0  0  0  0  0  0  0  0  0
   -4.7357   18.9175  -34.2315 H   0  0  0  0  0  0  0  0  0  0  0  0
   -5.4162   16.5038  -31.4283 H   0  0  0  0  0  0  0  0  0  0  0  0
   -5.6269   15.2343  -32.6816 H   0  0  0  0  0  0  0  0  0  0  0  0
   -4.1526   16.2605  -32.6816 H   0  0  0  0  0  0  0  0  0  0  0  0
   -8.2508   16.7949  -32.1005 H   0  0  0  0  0  0  0  0  0  0  0  0
   -9.7908   18.5708  -31.3088 H   0  0  0  0  0  0  0  0  0  0  0  0
  -10.3310   20.8902  -30.9901 H   0  0  0  0  0  0  0  0  0  0  0  0
   -9.7638   23.3023  -31.2439 H   0  0  0  0  0  0  0  0  0  0  0  0
   -7.6205   23.9744  -32.3152 H   0  0  0  0  0  0  0  0  0  0  0  0
   -6.0274   22.2499  -33.1327 H   0  0  0  0  0  0  0  0  0  0  0  0
  1  2  1  0
  2  3  1  0
  3  4  1  0
  4  5  1  0
  3  6  1  0
  6  7  1  0
  7  8  1  0
  8  9  1  0
  9 10  2  0
  9 11  1  0
 11 12  1  0
 12 13  2  0
 13 14  1  0
 14 15  1  0
 13 16  1  0
 16 17  2  0
 17 18  1  0
 18 19  2  0
 19 20  1  0
 20 21  2  0
 21 22  1  0
 22 23  2  0
 23 12  1  0
 23 18  1  0
  1 24  1  0
  1 25  1  0
  1 26  1  0
  2 27  1  0
  2 28  1  0
  4 29  1  0
  4 30  1  0
  5 31  1  0
  5 32  1  0
  5 33  1  0
  6 34  1  0
  6 35  1  0
  7 36  1  0
  7 37  1  0
 11 38  1  0
 11 39  1  0
 15 40  1  0
 15 41  1  0
 15 42  1  0
 16 43  1  0
 17 44  1  0
 19 45  1  0
 20 46  1  0
 21 47  1  0
 22 48  1  0
M  END
>  <UniqueID>  (9) 
9

>  <SMILES>  (9) 
CCN(CC)CCOC(=O)Cc1c(OC)ccc2ccccc12

>  <Energy>  (9) 
46.792059094961644

>  <Genealogy>  (9) 
CCN(CC)CCOC(=O)Cc1c(OC)ccc2ccccc12 (3D coordinates assigned)
CCN(CC)CCOC(=O)Cc1c(OC)ccc2ccccc12 (optimized conformer: 46.792059094961644 kcal/mol)

>  <smiles>  (9) 
CCN(CC)CCOC(=O)Cc1c(OC)ccc2ccccc12

>  <score_type>  (9) 
oracle

>  <origin>  (9) 
adg

>  <m_score__min__energy>  (9) 
-7.8300000000000001

>  <m_primary>  (9) 
energy

$$$$
9:0
     RDKit          3D

 70 73  0  0  0  0  0  0  0  0999 V2000
   -2.9750   18.9870  -26.3600 C   0  0  0  0  0  0  0  0  0  0  0  0
   -2.7720   20.0340  -27.4550 C   0  0  0  0  0  0  0  0  0  0  0  0
   -1.3490   20.4510  -27.5270 N   0  0  0  0  0  0  0  0  0  0  0  0
   -0.5860   19.6120  -28.4870 C   0  0  0  0  0  0  0  0  0  0  0  0
   -0.0500   18.3560  -27.7950 C   0  0  0  0  0  0  0  0  0  0  0  0
   -1.2000   21.9010  -27.8150 C   0  0  0  0  0  0  0  0  0  0  0  0
   -2.5370   22.4640  -28.2760 C   0  0  0  0  0  0  0  0  0  0  0  0
   -2.3550   23.2360  -29.4560 O   0  0  0  0  0  0  0  0  0  0  0  0
   -3.1510   23.0930  -30.5950 C   0  0  0  0  0  0  0  0  0  0  0  0
   -4.0030   23.9760  -30.8870 O   0  0  0  0  0  0  0  0  0  0  0  0
   -2.9480   21.9410  -31.4960 C   0  0  0  0  0  0  0  0  0  0  0  0
   -3.6100   21.8850  -32.7350 C   0  0  0  0  0  0  0  0  0  0  0  0
   -3.6130   20.7060  -33.4840 C   0  0  0  0  0  0  0  0  0  0  0  0
   -2.9690   19.5540  -33.0070 C   0  0  0  0  0  0  0  0  0  0  0  0
   -3.1860   18.2770  -33.6530 N   0  0  0  0  0  0  0  0  0  0  0  0
   -4.1250   18.1650  -34.7780 C   0  0  0  0  0  0  0  0  0  0  0  0
   -5.2330   17.1230  -34.4810 C   0  0  0  0  0  0  0  0  0  0  0  0
   -4.8900   16.1780  -33.3860 N   0  0  0  0  0  0  0  0  0  0  0  0
   -5.3930   16.6630  -32.0770 C   0  0  0  0  0  0  0  0  0  0  0  0
   -6.8720   17.1260  -32.1060 C   0  0  0  0  0  0  0  0  0  0  0  0
   -6.9770   18.5790  -31.8550 N   0  0  0  0  0  0  0  0  0  0  0  0
   -5.8490   19.2960  -31.5620 C   0  0  0  0  0  0  0  0  0  0  0  0
   -5.9020   20.6450  -31.4300 N   0  0  0  0  0  0  0  0  0  0  0  0
   -7.0710   21.3230  -31.5830 C   0  0  0  0  0  0  0  0  0  0  0  0
   -7.0870   22.7210  -31.4920 C   0  0  0  0  0  0  0  0  0  0  0  0
   -8.2810   23.4210  -31.6830 C   0  0  0  0  0  0  0  0  0  0  0  0
   -9.4650   22.7260  -31.9490 C   0  0  0  0  0  0  0  0  0  0  0  0
   -9.4610   21.3320  -32.0320 C   0  0  0  0  0  0  0  0  0  0  0  0
   -8.2580   20.6190  -31.8490 C   0  0  0  0  0  0  0  0  0  0  0  0
   -8.1890   19.2180  -31.9610 C   0  0  0  0  0  0  0  0  0  0  0  0
   -9.2400   18.5490  -32.1690 O   0  0  0  0  0  0  0  0  0  0  0  0
   -3.4510   15.8270  -33.4260 C   0  0  0  0  0  0  0  0  0  0  0  0
   -2.5390   17.0460  -33.1810 C   0  0  0  0  0  0  0  0  0  0  0  0
   -2.2140   19.6450  -31.8220 C   0  0  0  0  0  0  0  0  0  0  0  0
   -2.2070   20.8250  -31.0730 C   0  0  0  0  0  0  0  0  0  0  0  0
   -2.8823   19.4652  -25.3737 H   0  0  0  0  0  0  0  0  0  0  0  0
   -3.9761   18.5421  -26.4591 H   0  0  0  0  0  0  0  0  0  0  0  0
   -2.2127   18.2002  -26.4591 H   0  0  0  0  0  0  0  0  0  0  0  0
   -3.0721   19.6065  -28.4231 H   0  0  0  0  0  0  0  0  0  0  0  0
   -3.3866   20.9153  -27.2191 H   0  0  0  0  0  0  0  0  0  0  0  0
   -1.2482   19.3149  -29.3136 H   0  0  0  0  0  0  0  0  0  0  0  0
    0.2634   20.1955  -28.8717 H   0  0  0  0  0  0  0  0  0  0  0  0
   -0.1056   18.4863  -26.7042 H   0  0  0  0  0  0  0  0  0  0  0  0
   -0.6557   17.4871  -28.0918 H   0  0  0  0  0  0  0  0  0  0  0  0
    0.9964   18.1921  -28.0918 H   0  0  0  0  0  0  0  0  0  0  0  0
   -0.8756   22.4249  -26.9038 H   0  0  0  0  0  0  0  0  0  0  0  0
   -0.4486   22.0436  -28.6056 H   0  0  0  0  0  0  0  0  0  0  0  0
   -3.2293   21.6352  -28.4853 H   0  0  0  0  0  0  0  0  0  0  0  0
   -2.9530   23.1044  -27.4843 H   0  0  0  0  0  0  0  0  0  0  0  0
   -4.1294   22.7761  -33.1173 H   0  0  0  0  0  0  0  0  0  0  0  0
   -4.1251   20.6803  -34.4572 H   0  0  0  0  0  0  0  0  0  0  0  0
   -4.5921   19.1451  -34.9545 H   0  0  0  0  0  0  0  0  0  0  0  0
   -3.5665   17.8361  -35.6667 H   0  0  0  0  0  0  0  0  0  0  0  0
   -6.1496   17.6621  -34.1994 H   0  0  0  0  0  0  0  0  0  0  0  0
   -5.3612   16.5227  -35.3938 H   0  0  0  0  0  0  0  0  0  0  0  0
   -5.2998   15.8465  -31.3458 H   0  0  0  0  0  0  0  0  0  0  0  0
   -4.7882   17.5415  -31.8077 H   0  0  0  0  0  0  0  0  0  0  0  0
   -7.3006   16.8996  -33.0935 H   0  0  0  0  0  0  0  0  0  0  0  0
   -7.4217   16.5932  -31.3161 H   0  0  0  0  0  0  0  0  0  0  0  0
   -4.8898   18.7733  -31.4322 H   0  0  0  0  0  0  0  0  0  0  0  0
   -6.1588   23.2679  -31.2700 H   0  0  0  0  0  0  0  0  0  0  0  0
   -8.2897   24.5194  -31.6241 H   0  0  0  0  0  0  0  0  0  0  0  0
  -10.4042   23.2801  -32.0936 H   0  0  0  0  0  0  0  0  0  0  0  0
  -10.3956   20.7904  -32.2400 H   0  0  0  0  0  0  0  0  0  0  0  0
   -3.2498   15.0742  -32.6496 H   0  0  0  0  0  0  0  0  0  0  0  0
   -3.2291   15.4402  -34.4315 H   0  0  0  0  0  0  0  0  0  0  0  0
   -2.3352   17.1346  -32.1037 H   0  0  0  0  0  0  0  0  0  0  0  0
   -1.5993   16.9037  -33.7349 H   0  0  0  0  0  0  0  0  0  0  0  0
   -1.6248   18.7802  -31.4829 H   0  0  0  0  0  0  0  0  0  0  0  0
   -1.6173   20.8802  -30.1461 H   0  0  0  0  0  0  0  0  0  0  0  0
  1  2  1  0
  2  3  1  0
  3  4  1  0
  4  5  1  0
  3  6  1  0
  6  7  1  0
  7  8  1  0
  8  9  1  0
  9 10  2  0
  9 11  1  0
 11 12  2  0
 12 13  1  0
 13 14  2  0
 14 15  1  0
 15 16  1  0
 16 17  1  0
 17 18  1  0
 18 19  1  0
 19 20  1  0
 20 21  1  0
 21 22  1  0
 22 23  2  0
 23 24  1  0
 24 25  2  0
 25 26  1  0
 26 27  2  0
 27 28  1  0
 28 29  2  0
 29 30  1  0
 30 31  2  0
 18 32  1  0
 32 33  1  0
 14 34  1  0
 34 35  2  0
 35 11  1  0
 33 15  1  0
 30 21  1  0
 29 24  1  0
  1 36  1  0
  1 37  1  0
  1 38  1  0
  2 39  1  0
  2 40  1  0
  4 41  1  0
  4 42  1  0
  5 43  1  0
  5 44  1  0
  5 45  1  0
  6 46  1  0
  6 47  1  0
  7 48  1  0
  7 49  1  0
 12 50  1  0
 13 51  1  0
 16 52  1  0
 16 53  1  0
 17 54  1  0
 17 55  1  0
 19 56  1  0
 19 57  1  0
 20 58  1  0
 20 59  1  0
 22 60  1  0
 25 61  1  0
 26 62  1  0
 27 63  1  0
 28 64  1  0
 32 65  1  0
 32 66  1  0
 33 67  1  0
 33 68  1  0
 34 69  1  0
 35 70  1  0
M  END
>  <UniqueID>  (10) 
10

>  <SMILES>  (10) 
CCN(CC)CCOC(=O)c1ccc(N2CCN(CCn3cnc4ccccc4c3=O)CC2)cc1

>  <Energy>  (10) 
94.24713403782147

>  <Genealogy>  (10) 
CCN(CC)CCOC(=O)c1ccc(N2CCN(CCn3cnc4ccccc4c3=O)CC2)cc1 (3D coordinates assigned)
CCN(CC)CCOC(=O)c1ccc(N2CCN(CCn3cnc4ccccc4c3=O)CC2)cc1 (nonaromatic ring conformer: 94.24713403782147 kcal/mol)

>  <smiles>  (10) 
CCN(CC)CCOC(=O)c1ccc(N2CCN(CCn3cnc4ccccc4c3=O)CC2)cc1

>  <score_type>  (10) 
oracle

>  <origin>  (10) 
adg

>  <m_score__min__energy>  (10) 
-8.7899999999999991

>  <m_primary>  (10) 
energy

$$$$
10:0
     RDKit          3D

 31 32  0  0  0  0  0  0  0  0999 V2000
   -5.6710   25.3030  -28.5600 N   0  0  0  0  0  0  0  0  0  0  0  0
   -6.6550   25.2870  -29.6440 C   0  0  0  0  0  0  0  0  0  0  0  0
   -5.9890   25.1250  -31.0190 C   0  0  0  0  0  0  0  0  0  0  0  0
   -6.0930   23.7100  -31.5310 C   0  0  0  0  0  0  0  0  0  0  0  0
   -4.9390   22.9940  -31.8810 C   0  0  0  0  0  0  0  0  0  0  0  0
   -5.0360   21.6750  -32.3310 C   0  0  0  0  0  0  0  0  0  0  0  0
   -6.2890   21.0440  -32.4340 C   0  0  0  0  0  0  0  0  0  0  0  0
   -6.3930   19.6420  -32.9100 C   0  0  0  0  0  0  0  0  0  0  0  0
   -5.7370   19.2360  -34.0890 C   0  0  0  0  0  0  0  0  0  0  0  0
   -5.8370   17.9150  -34.5360 C   0  0  0  0  0  0  0  0  0  0  0  0
   -6.5880   16.9850  -33.8140 C   0  0  0  0  0  0  0  0  0  0  0  0
   -7.2430   17.3750  -32.6430 C   0  0  0  0  0  0  0  0  0  0  0  0
   -7.1480   18.6950  -32.1920 C   0  0  0  0  0  0  0  0  0  0  0  0
   -7.4440   21.7650  -32.0740 C   0  0  0  0  0  0  0  0  0  0  0  0
   -7.3450   23.0840  -31.6250 C   0  0  0  0  0  0  0  0  0  0  0  0
   -5.8260   26.1310  -27.9420 H   0  0  0  0  0  0  0  0  0  0  0  0
   -5.7360   24.4220  -27.9990 H   0  0  0  0  0  0  0  0  0  0  0  0
   -4.7130   25.3700  -28.9720 H   0  0  0  0  0  0  0  0  0  0  0  0
   -7.3478   24.4479  -29.4832 H   0  0  0  0  0  0  0  0  0  0  0  0
   -7.1887   26.2488  -29.6346 H   0  0  0  0  0  0  0  0  0  0  0  0
   -6.4821   25.7993  -31.7347 H   0  0  0  0  0  0  0  0  0  0  0  0
   -4.9223   25.3715  -30.9123 H   0  0  0  0  0  0  0  0  0  0  0  0
   -3.9523   23.4735  -31.8008 H   0  0  0  0  0  0  0  0  0  0  0  0
   -4.1244   21.1249  -32.6073 H   0  0  0  0  0  0  0  0  0  0  0  0
   -5.1423   19.9630  -34.6615 H   0  0  0  0  0  0  0  0  0  0  0  0
   -5.3229   17.6075  -35.4586 H   0  0  0  0  0  0  0  0  0  0  0  0
   -6.6639   15.9459  -34.1670 H   0  0  0  0  0  0  0  0  0  0  0  0
   -7.8346   16.6420  -32.0748 H   0  0  0  0  0  0  0  0  0  0  0  0
   -7.6667   18.9957  -31.2698 H   0  0  0  0  0  0  0  0  0  0  0  0
   -8.4315   21.2859  -32.1470 H   0  0  0  0  0  0  0  0  0  0  0  0
   -8.2543   23.6353  -31.3434 H   0  0  0  0  0  0  0  0  0  0  0  0
  1  2  1  0
  2  3  1  0
  3  4  1  0
  4  5  2  0
  5  6  1  0
  6  7  2  0
  7  8  1  0
  8  9  2  0
  9 10  1  0
 10 11  2  0
 11 12  1  0
 12 13  2  0
  7 14  1  0
 14 15  2  0
 15  4  1  0
 13  8  1  0
  1 16  1  0
  1 17  1  0
  1 18  1  0
  2 19  1  0
  2 20  1  0
  3 21  1  0
  3 22  1  0
  5 23  1  0
  6 24  1  0
  9 25  1  0
 10 26  1  0
 11 27  1  0
 12 28  1  0
 13 29  1  0
 14 30  1  0
 15 31  1  0
M  CHG  1   1   1
M  END
>  <UniqueID>  (11) 
11

>  <SMILES>  (11) 
[NH3+]CCc1ccc(-c2ccccc2)cc1

>  <Energy>  (11) 
33.066788167745166

>  <Genealogy>  (11) 
[NH3+]CCc1ccc(-c2ccccc2)cc1 (protonated)
[NH3+]CCc1ccc(-c2ccccc2)cc1 (3D coordinates assigned)
[NH3+]CCc1ccc(-c2ccccc2)cc1 (optimized conformer: 33.066788167745166 kcal/mol)

>  <smiles>  (11) 
NCCc1ccc(-c2ccccc2)cc1

>  <score_type>  (11) 
oracle

>  <origin>  (11) 
adg

>  <m_score__min__energy>  (11) 
-6.5300000000000002

>  <m_primary>  (11) 
energy

$$$$
11:0
     RDKit          3D

 38 40  0  0  0  0  0  0  0  0999 V2000
   -1.6680   24.9270  -28.4450 C   0  0  0  0  0  0  0  0  0  0  0  0
   -2.6140   25.2910  -29.4460 O   0  0  0  0  0  0  0  0  0  0  0  0
   -3.8290   24.6250  -29.6650 C   0  0  0  0  0  0  0  0  0  0  0  0
   -4.0140   23.2660  -29.3470 C   0  0  0  0  0  0  0  0  0  0  0  0
   -5.2450   22.6480  -29.5860 C   0  0  0  0  0  0  0  0  0  0  0  0
   -6.3080   23.3750  -30.1410 C   0  0  0  0  0  0  0  0  0  0  0  0
   -7.6220   22.6960  -30.4180 C   0  0  0  0  0  0  0  0  0  0  0  0
   -7.4320   21.5910  -31.3560 N   0  0  0  0  0  0  0  0  0  0  0  0
   -6.2370   21.1550  -31.7280 N   0  0  0  0  0  0  0  0  0  0  0  0
   -6.4250   20.1880  -32.6500 C   0  0  0  0  0  0  0  0  0  0  0  0
   -5.3340   19.4570  -33.3180 C   0  0  0  0  0  0  0  0  0  0  0  0
   -4.0010   19.8810  -33.2000 C   0  0  0  0  0  0  0  0  0  0  0  0
   -2.9920   19.1650  -33.8480 C   0  0  0  0  0  0  0  0  0  0  0  0
   -3.3170   18.0380  -34.6030 C   0  0  0  0  0  0  0  0  0  0  0  0
   -4.6510   17.6420  -34.7010 C   0  0  0  0  0  0  0  0  0  0  0  0
   -5.6200   18.3520  -34.0630 N   0  0  0  0  0  0  0  0  0  0  0  0
   -7.7790   20.0140  -32.8810 C   0  0  0  0  0  0  0  0  0  0  0  0
   -8.3870   20.9210  -32.0370 C   0  0  0  0  0  0  0  0  0  0  0  0
   -9.8590   21.1880  -31.9650 C   0  0  0  0  0  0  0  0  0  0  0  0
   -6.1220   24.7290  -30.4600 C   0  0  0  0  0  0  0  0  0  0  0  0
   -4.8920   25.3470  -30.2220 C   0  0  0  0  0  0  0  0  0  0  0  0
   -2.1046   25.0950  -27.4494 H   0  0  0  0  0  0  0  0  0  0  0  0
   -1.4070   23.8642  -28.5563 H   0  0  0  0  0  0  0  0  0  0  0  0
   -0.7619   25.5407  -28.5563 H   0  0  0  0  0  0  0  0  0  0  0  0
   -3.1868   22.6883  -28.9088 H   0  0  0  0  0  0  0  0  0  0  0  0
   -5.3806   21.5851  -29.3372 H   0  0  0  0  0  0  0  0  0  0  0  0
   -8.0350   22.3059  -29.4760 H   0  0  0  0  0  0  0  0  0  0  0  0
   -8.3168   23.4257  -30.8593 H   0  0  0  0  0  0  0  0  0  0  0  0
   -3.7531   20.7702  -32.6018 H   0  0  0  0  0  0  0  0  0  0  0  0
   -1.9442   19.4888  -33.7632 H   0  0  0  0  0  0  0  0  0  0  0  0
   -2.5291   17.4671  -35.1161 H   0  0  0  0  0  0  0  0  0  0  0  0
   -4.9193   16.7554  -35.2943 H   0  0  0  0  0  0  0  0  0  0  0  0
   -8.2604   19.3126  -33.5784 H   0  0  0  0  0  0  0  0  0  0  0  0
  -10.1703   21.2445  -30.9115 H   0  0  0  0  0  0  0  0  0  0  0  0
  -10.0836   22.1415  -32.4653 H   0  0  0  0  0  0  0  0  0  0  0  0
  -10.4042   20.3741  -32.4653 H   0  0  0  0  0  0  0  0  0  0  0  0
   -6.9487   25.3064  -30.8995 H   0  0  0  0  0  0  0  0  0  0  0  0
   -4.7573   26.4092  -30.4741 H   0  0  0  0  0  0  0  0  0  0  0  0
  1  2  1  0
  2  3  1  0
  3  4  2  0
  4  5  1  0
  5  6  2  0
  6  7  1  0
  7  8  1  0
  8  9  1  0
  9 10  2  0
 10 11  1  0
 11 12  2  0
 12 13  1  0
 13 14  2  0
 14 15  1  0
 15 16  2  0
 10 17  1  0
 17 18  2  0
 18 19  1  0
  6 20  1  0
 20 21  2  0
 21  3  1  0
 18  8  1  0
 16 11  1  0
  1 22  1  0
  1 23  1  0
  1 24  1  0
  4 25  1  0
  5 26  1  0
  7 27  1  0
  7 28  1  0
 12 29  1  0
 13 30  1  0
 14 31  1  0
 15 32  1  0
 17 33  1  0
 19 34  1  0
 19 35  1  0
 19 36  1  0
 20 37  1  0
 21 38  1  0
M  END
>  <UniqueID>  (12) 
12

>  <SMILES>  (12) 
COc1ccc(Cn2nc(-c3ccccn3)cc2C)cc1

>  <Energy>  (12) 
67.45538502584128

>  <Genealogy>  (12) 
COc1ccc(Cn2nc(-c3ccccn3)cc2C)cc1 (3D coordinates assigned)
COc1ccc(Cn2nc(-c3ccccn3)cc2C)cc1 (optimized conformer: 67.45538502584128 kcal/mol)

>  <smiles>  (12) 
COc1ccc(Cn2nc(-c3ccccn3)cc2C)cc1

>  <score_type>  (12) 
oracle

>  <origin>  (12) 
adg

>  <m_score__min__energy>  (12) 
-8.4299999999999997

>  <m_primary>  (12) 
energy

$$$$
12:0
     RDKit          3D

 57 60  0  0  0  0  0  0  0  0999 V2000
   -1.9940   23.5620  -29.5540 C   0  0  0  0  0  0  0  0  0  0  0  0
   -3.1730   24.5420  -29.5350 C   0  0  0  0  0  0  0  0  0  0  0  0
   -4.2190   24.1880  -30.5220 N   0  0  0  0  0  0  0  0  0  0  0  0
   -5.1360   25.3110  -30.8210 C   0  0  0  0  0  0  0  0  0  0  0  0
   -6.2980   25.3020  -29.8320 C   0  0  0  0  0  0  0  0  0  0  0  0
   -4.9170   22.8880  -30.3240 C   0  0  0  0  0  0  0  0  0  0  0  0
   -4.1970   21.6290  -30.8670 C   0  0  0  0  0  0  0  0  0  0  0  0
   -3.5870   21.7950  -32.2730 C   0  0  0  0  0  0  0  0  0  0  0  0
   -4.6130   21.8030  -33.3420 N   0  0  0  0  0  0  0  0  0  0  0  0
   -5.7150   20.8770  -33.0860 C   0  0  0  0  0  0  0  0  0  0  0  0
   -6.9680   21.3930  -32.6000 C   0  0  0  0  0  0  0  0  0  0  0  0
   -7.2120   22.7820  -32.3880 C   0  0  0  0  0  0  0  0  0  0  0  0
   -8.4330   23.2340  -31.8950 C   0  0  0  0  0  0  0  0  0  0  0  0
   -9.4310   22.3190  -31.6010 C   0  0  0  0  0  0  0  0  0  0  0  0
   -9.2020   21.0000  -31.7980 N   0  0  0  0  0  0  0  0  0  0  0  0
   -8.0260   20.5120  -32.2870 C   0  0  0  0  0  0  0  0  0  0  0  0
   -7.8770   19.1240  -32.4350 C   0  0  0  0  0  0  0  0  0  0  0  0
   -8.9780   18.2060  -31.9190 C   0  0  0  0  0  0  0  0  0  0  0  0
   -6.6530   18.6060  -32.9060 C   0  0  0  0  0  0  0  0  0  0  0  0
   -6.4960   16.9280  -33.0300 S   0  0  0  0  0  0  0  0  0  0  0  0
   -4.9920   16.4340  -33.5510 C   0  0  0  0  0  0  0  0  0  0  0  0
   -4.7040   15.0650  -33.6710 C   0  0  0  0  0  0  0  0  0  0  0  0
   -3.4290   14.6540  -34.0700 C   0  0  0  0  0  0  0  0  0  0  0  0
   -2.4550   15.6090  -34.3530 C   0  0  0  0  0  0  0  0  0  0  0  0
   -2.7500   16.9760  -34.2500 C   0  0  0  0  0  0  0  0  0  0  0  0
   -4.0340   17.4230  -33.8480 C   0  0  0  0  0  0  0  0  0  0  0  0
   -4.3130   18.8290  -33.7720 C   0  0  0  0  0  0  0  0  0  0  0  0
   -3.3890   19.5730  -34.1980 O   0  0  0  0  0  0  0  0  0  0  0  0
   -5.5460   19.4360  -33.2640 C   0  0  0  0  0  0  0  0  0  0  0  0
   -1.7022   23.3194  -28.5215 H   0  0  0  0  0  0  0  0  0  0  0  0
   -2.2911   22.6410  -30.0771 H   0  0  0  0  0  0  0  0  0  0  0  0
   -1.1429   24.0224  -30.0771 H   0  0  0  0  0  0  0  0  0  0  0  0
   -3.6199   24.5371  -28.5299 H   0  0  0  0  0  0  0  0  0  0  0  0
   -2.7857   25.5369  -29.7998 H   0  0  0  0  0  0  0  0  0  0  0  0
   -4.5899   26.2620  -30.7352 H   0  0  0  0  0  0  0  0  0  0  0  0
   -5.5264   25.2008  -31.8435 H   0  0  0  0  0  0  0  0  0  0  0  0
   -5.9051   25.3050  -28.8046 H   0  0  0  0  0  0  0  0  0  0  0  0
   -6.9203   26.1954  -29.9892 H   0  0  0  0  0  0  0  0  0  0  0  0
   -6.9063   24.3991  -29.9892 H   0  0  0  0  0  0  0  0  0  0  0  0
   -5.0644   22.7488  -29.2429 H   0  0  0  0  0  0  0  0  0  0  0  0
   -5.8478   22.9652  -30.9051 H   0  0  0  0  0  0  0  0  0  0  0  0
   -3.3866   21.3697  -30.1698 H   0  0  0  0  0  0  0  0  0  0  0  0
   -4.9625   20.8435  -30.9500 H   0  0  0  0  0  0  0  0  0  0  0  0
   -3.0349   22.7458  -32.3075 H   0  0  0  0  0  0  0  0  0  0  0  0
   -2.9253   20.9348  -32.4527 H   0  0  0  0  0  0  0  0  0  0  0  0
   -4.1610   21.6510  -34.2700 H   0  0  0  0  0  0  0  0  0  0  0  0
   -4.9720   22.7730  -33.4920 H   0  0  0  0  0  0  0  0  0  0  0  0
   -6.4203   23.5101  -32.6184 H   0  0  0  0  0  0  0  0  0  0  0  0
   -8.6041   24.3095  -31.7400 H   0  0  0  0  0  0  0  0  0  0  0  0
  -10.4008   22.6617  -31.2110 H   0  0  0  0  0  0  0  0  0  0  0  0
   -8.9732   18.2100  -30.8190 H   0  0  0  0  0  0  0  0  0  0  0  0
   -9.9530   18.5624  -32.2827 H   0  0  0  0  0  0  0  0  0  0  0  0
   -8.8027   17.1828  -32.2827 H   0  0  0  0  0  0  0  0  0  0  0  0
   -5.4804   14.3173  -33.4514 H   0  0  0  0  0  0  0  0  0  0  0  0
   -3.1960   13.5827  -34.1600 H   0  0  0  0  0  0  0  0  0  0  0  0
   -1.4482   15.2887  -34.6592 H   0  0  0  0  0  0  0  0  0  0  0  0
   -1.9705   17.7155  -34.4855 H   0  0  0  0  0  0  0  0  0  0  0  0
  1  2  1  0
  2  3  1  0
  3  4  1  0
  4  5  1  0
  3  6  1  0
  6  7  1  0
  7  8  1  0
  8  9  1  0
  9 10  1  0
 10 11  2  0
 11 12  1  0
 12 13  2  0
 13 14  1  0
 14 15  2  0
 15 16  1  0
 16 17  2  0
 17 18  1  0
 17 19  1  0
 19 20  1  0
 20 21  1  0
 21 22  2  0
 22 23  1  0
 23 24  2  0
 24 25  1  0
 25 26  2  0
 26 27  1  0
 27 28  2  0
 27 29  1  0
 29 10  1  0
 16 11  1  0
 29 19  2  0
 26 21  1  0
  1 30  1  0
  1 31  1  0
  1 32  1  0
  2 33  1  0
  2 34  1  0
  4 35  1  0
  4 36  1  0
  5 37  1  0
  5 38  1  0
  5 39  1  0
  6 40  1  0
  6 41  1  0
  7 42  1  0
  7 43  1  0
  8 44  1  0
  8 45  1  0
  9 46  1  0
  9 47  1  0
 12 48  1  0
 13 49  1  0
 14 50  1  0
 18 51  1  0
 18 52  1  0
 18 53  1  0
 22 54  1  0
 23 55  1  0
 24 56  1  0
 25 57  1  0
M  CHG  1   9   1
M  END
>  <UniqueID>  (13) 
13

>  <SMILES>  (13) 
CCN(CC)CCC[NH2+]c1c2cccnc2c(C)c2sc3ccccc3c(=O)c12

>  <Energy>  (13) 
104.56593532783626

>  <Genealogy>  (13) 
CCN(CC)CCC[NH2+]c1c2cccnc2c(C)c2sc3ccccc3c(=O)c12 (protonated)
CCN(CC)CCC[NH2+]c1c2cccnc2c(C)c2sc3ccccc3c(=O)c12 (3D coordinates assigned)
CCN(CC)CCC[NH2+]c1c2cccnc2c(C)c2sc3ccccc3c(=O)c12 (optimized conformer: 104.56593532783626 kcal/mol)

>  <smiles>  (13) 
CCN(CC)CCCNc1c2cccnc2c(C)c2sc3ccccc3c(=O)c12

>  <score_type>  (13) 
oracle

>  <origin>  (13) 
adg

>  <m_score__min__energy>  (13) 
-9.5700000000000003

>  <m_primary>  (13) 
energy

$$$$
13:0
     RDKit          3D

 59 63  0  0  1  0  0  0  0  0999 V2000
   -0.7860   20.1220  -29.0480 C   0  0  0  0  0  0  0  0  0  0  0  0
   -0.1310   20.1910  -30.2960 O   0  0  0  0  0  0  0  0  0  0  0  0
   -0.7950   20.5540  -31.4630 C   0  0  0  0  0  0  0  0  0  0  0  0
   -0.1360   21.0230  -32.5800 C   0  0  0  0  0  0  0  0  0  0  0  0
   -0.7830   21.3870  -33.7440 C   0  0  0  0  0  0  0  0  0  0  0  0
   -0.1080   21.8570  -34.8540 O   0  0  0  0  0  0  0  0  0  0  0  0
   -2.1680   21.2540  -33.7340 C   0  0  0  0  0  0  0  0  0  0  0  0
   -2.8480   20.7870  -32.6320 C   0  0  0  0  0  0  0  0  0  0  0  0
   -4.2870   20.6710  -32.6850 C   0  0  0  0  0  0  0  0  0  0  0  0
   -4.8900   19.6880  -33.4070 C   0  0  0  0  0  0  0  0  0  0  0  0
   -6.2450   19.4970  -33.5180 C   0  0  0  0  0  0  0  0  0  0  0  0
   -7.0610   20.3630  -32.8500 C   0  0  0  0  0  0  0  0  0  0  0  0
   -8.3860   20.1760  -32.9580 N   0  0  0  0  0  0  0  0  0  0  0  0
   -9.2360   20.9960  -32.3240 C   0  0  0  0  0  0  0  0  0  0  0  0
   -8.7170   21.9840  -31.5940 N   0  0  0  0  0  0  0  0  0  0  0  0
   -7.3840   22.2050  -31.4600 C   0  0  0  0  0  0  0  0  0  0  0  0
   -7.0090   23.1420  -30.7680 N   0  0  0  0  0  0  0  0  0  0  0  0
   -5.8290   23.5010  -30.1950 C   0  0  0  0  0  0  0  0  0  0  0  0
   -5.3490   22.9240  -28.9920 C   0  0  0  0  0  0  0  0  0  0  0  0
   -4.0860   23.2890  -28.5690 C   0  0  0  0  0  0  0  0  0  0  0  0
   -3.2830   24.1750  -29.2510 C   0  0  0  0  0  0  0  0  0  0  0  0
   -1.9900   24.5660  -28.8410 N   0  0  0  0  0  0  0  0  0  0  0  0
   -0.7920   23.8420  -29.3290 C   0  0  0  0  0  0  0  0  0  0  0  0
    0.1750   23.7060  -28.1620 C   0  0  0  0  0  0  0  0  0  0  0  0
   -0.5160   23.8350  -26.9000 N   0  0  0  0  0  0  0  0  0  0  0  0
    0.4000   23.4570  -25.8390 C   0  0  0  0  0  0  0  0  0  0  0  0
   -1.1410   25.0920  -26.6670 C   0  0  0  0  0  0  0  0  0  0  0  0
   -1.7050   25.6610  -27.9440 C   0  0  0  0  0  0  0  0  0  0  0  0
   -3.7770   24.7000  -30.3880 N   0  0  0  0  0  0  0  0  0  0  0  0
   -4.9920   24.4110  -30.8860 C   0  0  0  0  0  0  0  0  0  0  0  0
   -6.4950   21.3850  -32.0970 C   0  0  0  0  0  0  0  0  0  0  0  0
   -5.1440   21.5530  -32.0020 C   0  0  0  0  0  0  0  0  0  0  0  0
   -2.1710   20.4280  -31.4730 C   0  0  0  0  0  0  0  0  0  0  0  0
   -0.0440   20.2002  -28.2397 H   0  0  0  0  0  0  0  0  0  0  0  0
   -1.5064   20.9492  -28.9657 H   0  0  0  0  0  0  0  0  0  0  0  0
   -1.3182   19.1628  -28.9657 H   0  0  0  0  0  0  0  0  0  0  0  0
    0.9598   21.1115  -32.5416 H   0  0  0  0  0  0  0  0  0  0  0  0
   -0.6570   22.3300  -35.5690 H   0  0  0  0  0  0  0  0  0  0  0  0
   -2.7368   21.5304  -34.6340 H   0  0  0  0  0  0  0  0  0  0  0  0
   -4.2367   18.9872  -33.9474 H   0  0  0  0  0  0  0  0  0  0  0  0
   -6.6576   18.6762  -34.1230 H   0  0  0  0  0  0  0  0  0  0  0  0
   -8.7880   19.3940  -33.5360 H   0  0  0  0  0  0  0  0  0  0  0  0
  -10.3245   20.8586  -32.4032 H   0  0  0  0  0  0  0  0  0  0  0  0
   -5.9597   22.2123  -28.4172 H   0  0  0  0  0  0  0  0  0  0  0  0
   -3.7012   22.8483  -27.6375 H   0  0  0  0  0  0  0  0  0  0  0  0
   -1.0800   22.8454  -29.6948 H   0  0  0  0  0  0  0  0  0  0  0  0
   -0.3209   24.3918  -30.1571 H   0  0  0  0  0  0  0  0  0  0  0  0
    0.6583   22.7189  -28.2083 H   0  0  0  0  0  0  0  0  0  0  0  0
    0.9262   24.5064  -28.2339 H   0  0  0  0  0  0  0  0  0  0  0  0
   -0.0693   23.6507  -24.8632 H   0  0  0  0  0  0  0  0  0  0  0  0
    0.6391   22.3867  -25.9250 H   0  0  0  0  0  0  0  0  0  0  0  0
    1.3243   24.0472  -25.9250 H   0  0  0  0  0  0  0  0  0  0  0  0
   -1.9570   24.9588  -25.9415 H   0  0  0  0  0  0  0  0  0  0  0  0
   -0.3869   25.7906  -26.2756 H   0  0  0  0  0  0  0  0  0  0  0  0
   -2.6303   26.2151  -27.7276 H   0  0  0  0  0  0  0  0  0  0  0  0
   -0.9812   26.3496  -28.4044 H   0  0  0  0  0  0  0  0  0  0  0  0
   -5.3331   24.8773  -31.8221 H   0  0  0  0  0  0  0  0  0  0  0  0
   -4.7285   22.3717  -31.3961 H   0  0  0  0  0  0  0  0  0  0  0  0
   -2.7132   20.0553  -30.5914 H   0  0  0  0  0  0  0  0  0  0  0  0
  1  2  1  0
  2  3  1  0
  3  4  2  0
  4  5  1  0
  5  6  1  0
  5  7  2  0
  7  8  1  0
  8  9  1  0
  9 10  2  0
 10 11  1  0
 11 12  2  0
 12 13  1  0
 13 14  1  0
 14 15  2  0
 15 16  1  0
 16 17  2  0
 17 18  1  0
 18 19  2  0
 19 20  1  0
 20 21  2  0
 21 22  1  0
 22 23  1  0
 23 24  1  0
 24 25  1  0
 25 26  1  0
 25 27  1  0
 27 28  1  0
 21 29  1  0
 29 30  2  0
 16 31  1  0
 31 32  2  0
  8 33  2  0
 33  3  1  0
 32  9  1  0
 31 12  1  0
 30 18  1  0
 28 22  1  0
  1 34  1  0
  1 35  1  0
  1 36  1  0
  4 37  1  0
  6 38  1  0
  7 39  1  0
 10 40  1  0
 11 41  1  0
 13 42  1  0
 14 43  1  0
 19 44  1  0
 20 45  1  0
 23 46  1  0
 23 47  1  0
 24 48  1  0
 24 49  1  0
 26 50  1  0
 26 51  1  0
 26 52  1  0
 27 53  1  0
 27 54  1  0
 28 55  1  0
 28 56  1  0
 30 57  1  0
 32 58  1  0
 33 59  1  0
M  END
>  <smiles>  (14) 
COc1cc(O)cc(-c2ccc3[nH]cnc(=Nc4ccc(N5CCN(C)CC5)nc4)c3c2)c1

>  <score_type>  (14) 
oracle

>  <origin>  (14) 
adg

>  <m_score__min__energy>  (14) 
-9.8800000000000008

>  <m_primary>  (14) 
energy

$$$$
14:0
     RDKit          3D

 58 60  0  0  0  0  0  0  0  0999 V2000
   -2.4620   20.1570  -33.8910 C   0  0  0  0  0  0  0  0  0  0  0  0
   -2.8880   21.1270  -32.8170 C   0  0  0  0  0  0  0  0  0  0  0  0
   -4.1600   21.7090  -32.8840 C   0  0  0  0  0  0  0  0  0  0  0  0
   -4.5940   22.6130  -31.9040 C   0  0  0  0  0  0  0  0  0  0  0  0
   -3.7510   22.9290  -30.8150 C   0  0  0  0  0  0  0  0  0  0  0  0
   -2.4700   22.3480  -30.7540 C   0  0  0  0  0  0  0  0  0  0  0  0
   -2.0270   21.4570  -31.7450 C   0  0  0  0  0  0  0  0  0  0  0  0
   -0.6500   20.8520  -31.6320 C   0  0  0  0  0  0  0  0  0  0  0  0
   -4.2070   23.8550  -29.7970 N   0  0  0  0  0  0  0  0  0  0  0  0
   -3.2570   24.5490  -28.9210 C   0  0  0  0  0  0  0  0  0  0  0  0
   -5.6390   24.1700  -29.7140 C   0  0  0  0  0  0  0  0  0  0  0  0
   -6.1920   24.4170  -31.1160 C   0  0  0  0  0  0  0  0  0  0  0  0
   -6.0000   23.1730  -32.0020 C   0  0  2  0  0  0  0  0  0  0  0  0
   -6.9710   22.1340  -31.6400 N   0  0  0  0  0  0  0  0  0  0  0  0
   -8.3860   22.3390  -31.7620 C   0  0  0  0  0  0  0  0  0  0  0  0
   -8.8470   23.4840  -32.0270 O   0  0  0  0  0  0  0  0  0  0  0  0
   -9.3250   21.1710  -31.6570 C   0  0  0  0  0  0  0  0  0  0  0  0
   -8.9810   20.0850  -32.6910 C   0  0  0  0  0  0  0  0  0  0  0  0
   -7.5830   19.6200  -32.5480 N   0  0  0  0  0  0  0  0  0  0  0  0
   -7.4850   18.2580  -31.9550 C   0  0  0  0  0  0  0  0  0  0  0  0
   -7.2060   17.1680  -33.0020 C   0  0  0  0  0  0  0  0  0  0  0  0
   -5.9000   17.4460  -33.7880 C   0  0  0  0  0  0  0  0  0  0  0  0
   -4.7190   16.6450  -33.2250 C   0  0  0  0  0  0  0  0  0  0  0  0
   -5.5600   18.9530  -33.8400 C   0  0  0  0  0  0  0  0  0  0  0  0
   -6.8430   19.7890  -33.8210 C   0  0  0  0  0  0  0  0  0  0  0  0
   -2.0616   19.2452  -33.4237 H   0  0  0  0  0  0  0  0  0  0  0  0
   -3.3292   19.8981  -34.5162 H   0  0  0  0  0  0  0  0  0  0  0  0
   -1.6846   20.6204  -34.5162 H   0  0  0  0  0  0  0  0  0  0  0  0
   -4.8292   21.4529  -33.7186 H   0  0  0  0  0  0  0  0  0  0  0  0
   -1.8039   22.5965  -29.9146 H   0  0  0  0  0  0  0  0  0  0  0  0
   -0.3864   20.7362  -30.5704 H   0  0  0  0  0  0  0  0  0  0  0  0
   -0.6410   19.8670  -32.1216 H   0  0  0  0  0  0  0  0  0  0  0  0
    0.0816   21.5116  -32.1216 H   0  0  0  0  0  0  0  0  0  0  0  0
   -3.5197   24.3571  -27.8702 H   0  0  0  0  0  0  0  0  0  0  0  0
   -2.2396   24.1799  -29.1179 H   0  0  0  0  0  0  0  0  0  0  0  0
   -3.2993   25.6304  -29.1179 H   0  0  0  0  0  0  0  0  0  0  0  0
   -6.1733   23.3260  -29.2533 H   0  0  0  0  0  0  0  0  0  0  0  0
   -5.7792   25.0732  -29.1019 H   0  0  0  0  0  0  0  0  0  0  0  0
   -7.2651   24.6484  -31.0456 H   0  0  0  0  0  0  0  0  0  0  0  0
   -5.6492   25.2606  -31.5674 H   0  0  0  0  0  0  0  0  0  0  0  0
   -6.1650   23.4888  -33.0427 H   0  0  0  0  0  0  0  0  0  0  0  0
   -6.6250   21.1840  -31.3760 H   0  0  0  0  0  0  0  0  0  0  0  0
   -9.2511   20.7411  -30.6472 H   0  0  0  0  0  0  0  0  0  0  0  0
  -10.3470   21.5273  -31.8534 H   0  0  0  0  0  0  0  0  0  0  0  0
   -9.6580   19.2297  -32.5491 H   0  0  0  0  0  0  0  0  0  0  0  0
   -9.0990   20.5168  -33.6958 H   0  0  0  0  0  0  0  0  0  0  0  0
   -6.6683   18.2540  -31.2181 H   0  0  0  0  0  0  0  0  0  0  0  0
   -8.4560   18.0294  -31.4915 H   0  0  0  0  0  0  0  0  0  0  0  0
   -7.1143   16.1983  -32.4908 H   0  0  0  0  0  0  0  0  0  0  0  0
   -8.0409   17.1600  -33.7181 H   0  0  0  0  0  0  0  0  0  0  0  0
   -6.0803   17.1104  -34.8199 H   0  0  0  0  0  0  0  0  0  0  0  0
   -4.7517   16.6672  -32.1257 H   0  0  0  0  0  0  0  0  0  0  0  0
   -4.7834   15.6034  -33.5728 H   0  0  0  0  0  0  0  0  0  0  0  0
   -3.7751   17.0900  -33.5728 H   0  0  0  0  0  0  0  0  0  0  0  0
   -4.9428   19.2159  -32.9683 H   0  0  0  0  0  0  0  0  0  0  0  0
   -5.0098   19.1635  -34.7690 H   0  0  0  0  0  0  0  0  0  0  0  0
   -6.5800   20.8501  -33.9433 H   0  0  0  0  0  0  0  0  0  0  0  0
   -7.4891   19.4482  -34.6435 H   0  0  0  0  0  0  0  0  0  0  0  0
  1  2  1  0
  2  3  2  0
  3  4  1  0
  4  5  2  0
  5  6  1  0
  6  7  2  0
  7  8  1  0
  5  9  1  0
  9 10  1  0
  9 11  1  0
 11 12  1  0
 12 13  1  0
 13 14  1  0
 14 15  1  0
 15 16  2  0
 15 17  1  0
 17 18  1  0
 18 19  1  0
 19 20  1  0
 20 21  1  0
 21 22  1  0
 22 23  1  0
 22 24  1  0
 24 25  1  0
  7  2  1  0
 25 19  1  0
 13  4  1  0
  1 26  1  0
  1 27  1  0
  1 28  1  0
  3 29  1  0
  6 30  1  0
  8 31  1  0
  8 32  1  0
  8 33  1  0
 10 34  1  0
 10 35  1  0
 10 36  1  0
 11 37  1  0
 11 38  1  0
 12 39  1  0
 12 40  1  0
 13 41  1  6
 14 42  1  0
 17 43  1  0
 17 44  1  0
 18 45  1  0
 18 46  1  0
 20 47  1  0
 20 48  1  0
 21 49  1  0
 21 50  1  0
 22 51  1  0
 23 52  1  0
 23 53  1  0
 23 54  1  0
 24 55  1  0
 24 56  1  0
 25 57  1  0
 25 58  1  0
M  END
>  <UniqueID>  (15) 
14

>  <SMILES>  (15) 
Cc1cc2c(cc1C)N(C)CC[C@@H]2NC(=O)CCN1CCC(C)CC1

>  <Energy>  (15) 
58.92678288444589

>  <Genealogy>  (15) 
Cc1cc2c(cc1C)N(C)CC[C@@H]2NC(=O)CCN1CCC(C)CC1 (chirality)
Cc1cc2c(cc1C)N(C)CC[C@@H]2NC(=O)CCN1CCC(C)CC1 (3D coordinates assigned)
Cc1cc2c(cc1C)N(C)CC[C@@H]2NC(=O)CCN1CCC(C)CC1 (nonaromatic ring conformer: 58.92678288444589 kcal/mol)

>  <smiles>  (15) 
Cc1cc2c(cc1C)N(C)CCC2NC(=O)CCN1CCC(C)CC1

>  <score_type>  (15) 
oracle

>  <origin>  (15) 
adg

>  <m_score__min__energy>  (15) 
-9.1400000000000006

>  <m_primary>  (15) 
energy

$$$$
15:0
     RDKit          3D

 55 57  0  0  0  0  0  0  0  0999 V2000
   -5.6780   25.6600  -30.4070 C   0  0  0  0  0  0  0  0  0  0  0  0
   -4.3420   24.9330  -30.5410 C   0  0  0  0  0  0  0  0  0  0  0  0
   -4.5520   23.4950  -30.8130 N   0  0  0  0  0  0  0  0  0  0  0  0
   -5.3370   22.7980  -29.7660 C   0  0  0  0  0  0  0  0  0  0  0  0
   -4.5270   22.7380  -28.4780 C   0  0  0  0  0  0  0  0  0  0  0  0
   -3.2980   22.7880  -31.1620 C   0  0  0  0  0  0  0  0  0  0  0  0
   -3.4750   21.6610  -32.2150 C   0  0  0  0  0  0  0  0  0  0  0  0
   -4.5760   21.9470  -33.1550 N   0  0  0  0  0  0  0  0  0  0  0  0
   -5.6770   21.0140  -32.9640 C   0  0  0  0  0  0  0  0  0  0  0  0
   -6.9420   21.4630  -32.4980 C   0  0  0  0  0  0  0  0  0  0  0  0
   -7.2440   22.8410  -32.3740 C   0  0  0  0  0  0  0  0  0  0  0  0
   -8.4980   23.2670  -31.9450 C   0  0  0  0  0  0  0  0  0  0  0  0
   -9.4850   22.3390  -31.6470 C   0  0  0  0  0  0  0  0  0  0  0  0
   -9.2190   20.9770  -31.7600 C   0  0  0  0  0  0  0  0  0  0  0  0
   -7.9410   20.5080  -32.1600 C   0  0  0  0  0  0  0  0  0  0  0  0
   -7.6660   19.1580  -32.2380 N   0  0  0  0  0  0  0  0  0  0  0  0
   -8.5630   18.1810  -31.5820 C   0  0  0  0  0  0  0  0  0  0  0  0
   -6.5490   18.7210  -32.9200 C   0  0  0  0  0  0  0  0  0  0  0  0
   -6.4040   17.3630  -33.2980 C   0  0  0  0  0  0  0  0  0  0  0  0
   -5.2650   16.9110  -33.9570 C   0  0  0  0  0  0  0  0  0  0  0  0
   -4.2360   17.7980  -34.2820 C   0  0  0  0  0  0  0  0  0  0  0  0
   -3.0490   17.3590  -34.9700 N   0  0  0  0  0  0  0  0  0  0  0  0
   -1.6980   17.5500  -34.4530 C   0  0  0  0  0  0  0  0  0  0  0  0
   -4.3750   19.1500  -33.9500 C   0  0  0  0  0  0  0  0  0  0  0  0
   -5.5220   19.6360  -33.2760 C   0  0  0  0  0  0  0  0  0  0  0  0
   -5.9189   25.7911  -29.3417 H   0  0  0  0  0  0  0  0  0  0  0  0
   -5.6095   26.6452  -30.8914 H   0  0  0  0  0  0  0  0  0  0  0  0
   -6.4681   25.0674  -30.8914 H   0  0  0  0  0  0  0  0  0  0  0  0
   -3.7712   25.3772  -31.3698 H   0  0  0  0  0  0  0  0  0  0  0  0
   -3.7881   25.0360  -29.5962 H   0  0  0  0  0  0  0  0  0  0  0  0
   -6.2736   23.3457  -29.5847 H   0  0  0  0  0  0  0  0  0  0  0  0
   -5.5681   21.7761  -30.1011 H   0  0  0  0  0  0  0  0  0  0  0  0
   -5.2068   22.7884  -27.6147 H   0  0  0  0  0  0  0  0  0  0  0  0
   -3.9609   21.7955  -28.4444 H   0  0  0  0  0  0  0  0  0  0  0  0
   -3.8282   23.5868  -28.4444 H   0  0  0  0  0  0  0  0  0  0  0  0
   -2.5862   23.5251  -31.5619 H   0  0  0  0  0  0  0  0  0  0  0  0
   -2.9397   22.3062  -30.2404 H   0  0  0  0  0  0  0  0  0  0  0  0
   -2.5398   21.5581  -32.7850 H   0  0  0  0  0  0  0  0  0  0  0  0
   -3.7201   20.7323  -31.6790 H   0  0  0  0  0  0  0  0  0  0  0  0
   -4.2330   21.9180  -34.1390 H   0  0  0  0  0  0  0  0  0  0  0  0
   -4.9180   22.9280  -33.0460 H   0  0  0  0  0  0  0  0  0  0  0  0
   -6.4747   23.5874  -32.6209 H   0  0  0  0  0  0  0  0  0  0  0  0
   -8.7067   24.3421  -31.8421 H   0  0  0  0  0  0  0  0  0  0  0  0
  -10.4789   22.6795  -31.3211 H   0  0  0  0  0  0  0  0  0  0  0  0
  -10.0143   20.2511  -31.5350 H   0  0  0  0  0  0  0  0  0  0  0  0
   -8.4743   18.2776  -30.4898 H   0  0  0  0  0  0  0  0  0  0  0  0
   -9.6023   18.3770  -31.8842 H   0  0  0  0  0  0  0  0  0  0  0  0
   -8.2792   17.1621  -31.8842 H   0  0  0  0  0  0  0  0  0  0  0  0
   -7.2094   16.6508  -33.0654 H   0  0  0  0  0  0  0  0  0  0  0  0
   -5.1742   15.8477  -34.2239 H   0  0  0  0  0  0  0  0  0  0  0  0
   -3.1470   16.8750  -35.8930 H   0  0  0  0  0  0  0  0  0  0  0  0
   -1.7224   17.5466  -33.3533 H   0  0  0  0  0  0  0  0  0  0  0  0
   -1.0508   16.7344  -34.8080 H   0  0  0  0  0  0  0  0  0  0  0  0
   -1.3023   18.5130  -34.8080 H   0  0  0  0  0  0  0  0  0  0  0  0
   -3.5732   19.8533  -34.2192 H   0  0  0  0  0  0  0  0  0  0  0  0
  1  2  1  0
  2  3  1  0
  3  4  1  0
  4  5  1  0
  3  6  1  0
  6  7  1  0
  7  8  1  0
  8  9  1  0
  9 10  2  0
 10 11  1  0
 11 12  2  0
 12 13  1  0
 13 14  2  0
 14 15  1  0
 15 16  2  0
 16 17  1  0
 16 18  1  0
 18 19  2  0
 19 20  1  0
 20 21  2  0
 21 22  1  0
 22 23  1  0
 21 24  1  0
 24 25  2  0
 25  9  1  0
 15 10  1  0
 25 18  1  0
  1 26  1  0
  1 27  1  0
  1 28  1  0
  2 29  1  0
  2 30  1  0
  4 31  1  0
  4 32  1  0
  5 33  1  0
  5 34  1  0
  5 35  1  0
  6 36  1  0
  6 37  1  0
  7 38  1  0
  7 39  1  0
  8 40  1  0
  8 41  1  0
 11 42  1  0
 12 43  1  0
 13 44  1  0
 14 45  1  0
 17 46  1  0
 17 47  1  0
 17 48  1  0
 19 49  1  0
 20 50  1  0
 22 51  1  0
 23 52  1  0
 23 53  1  0
 23 54  1  0
 24 55  1  0
M  CHG  2   8   1  16   1
M  END
>  <UniqueID>  (16) 
15

>  <SMILES>  (16) 
CCN(CC)CC[NH2+]c1c2ccccc2[n+](C)c2ccc(NC)cc12

>  <Energy>  (16) 
84.41028365080174

>  <Genealogy>  (16) 
CCN(CC)CC[NH2+]c1c2ccccc2[n+](C)c2ccc(NC)cc12 (protonated)
CCN(CC)CC[NH2+]c1c2ccccc2[n+](C)c2ccc(NC)cc12 (3D coordinates assigned)
CCN(CC)CC[NH2+]c1c2ccccc2[n+](C)c2ccc(NC)cc12 (optimized conformer: 84.41028365080174 kcal/mol)

>  <smiles>  (16) 
CCN(CC)CCNc1c2ccccc2[n+](C)c2ccc(NC)cc12

>  <score_type>  (16) 
oracle

>  <origin>  (16) 
adg

>  <m_score__min__energy>  (16) 
-8.0700000000000003

>  <m_primary>  (16) 
energy

$$$$
16:0
     RDKit          3D

 34 36  0  0  0  0  0  0  0  0999 V2000
   -4.6360   18.9760  -33.4240 C   0  0  0  0  0  0  0  0  0  0  0  0
   -4.2770   20.1350  -32.5500 C   0  0  0  0  0  0  0  0  0  0  0  0
   -4.2180   21.4380  -33.0890 C   0  0  0  0  0  0  0  0  0  0  0  0
   -3.8870   22.5060  -32.2460 C   0  0  0  0  0  0  0  0  0  0  0  0
   -3.6410   22.2380  -30.9360 N   0  0  0  0  0  0  0  0  0  0  0  0
   -3.3050   23.0240  -29.8880 C   0  0  0  0  0  0  0  0  0  0  0  0
   -3.1030   24.4870  -29.9010 C   0  0  0  0  0  0  0  0  0  0  0  0
   -2.2190   25.0190  -29.1790 O   0  0  0  0  0  0  0  0  0  0  0  0
   -3.9220   25.3020  -30.7460 N   0  0  0  0  0  0  0  0  0  0  0  0
   -5.3250   25.5950  -30.4730 C   0  0  0  0  0  0  0  0  0  0  0  0
   -6.1760   24.3900  -30.7690 C   0  0  0  0  0  0  0  0  0  0  0  0
   -6.5410   24.0770  -32.0900 C   0  0  0  0  0  0  0  0  0  0  0  0
   -7.3510   22.9680  -32.3520 C   0  0  0  0  0  0  0  0  0  0  0  0
   -7.8030   22.1660  -31.3010 C   0  0  0  0  0  0  0  0  0  0  0  0
   -7.4490   22.4730  -29.9840 C   0  0  0  0  0  0  0  0  0  0  0  0
   -6.6390   23.5820  -29.7170 C   0  0  0  0  0  0  0  0  0  0  0  0
   -3.1760   22.2040  -28.7710 C   0  0  0  0  0  0  0  0  0  0  0  0
   -3.4300   20.9270  -29.1270 N   0  0  0  0  0  0  0  0  0  0  0  0
   -3.7050   20.9910  -30.4410 C   0  0  0  0  0  0  0  0  0  0  0  0
   -4.0210   19.9300  -31.2240 N   0  0  0  0  0  0  0  0  0  0  0  0
   -4.9034   18.1128  -32.7968 H   0  0  0  0  0  0  0  0  0  0  0  0
   -5.4923   19.2471  -34.0591 H   0  0  0  0  0  0  0  0  0  0  0  0
   -3.7764   18.7156  -34.0591 H   0  0  0  0  0  0  0  0  0  0  0  0
   -4.4287   21.6119  -34.1545 H   0  0  0  0  0  0  0  0  0  0  0  0
   -3.8276   23.5339  -32.6332 H   0  0  0  0  0  0  0  0  0  0  0  0
   -5.4393   25.8689  -29.4138 H   0  0  0  0  0  0  0  0  0  0  0  0
   -5.6484   26.4283  -31.1141 H   0  0  0  0  0  0  0  0  0  0  0  0
   -6.1882   24.7066  -32.9201 H   0  0  0  0  0  0  0  0  0  0  0  0
   -7.6329   22.7264  -33.3874 H   0  0  0  0  0  0  0  0  0  0  0  0
   -8.4379   21.2924  -31.5101 H   0  0  0  0  0  0  0  0  0  0  0  0
   -7.8075   21.8423  -29.1571 H   0  0  0  0  0  0  0  0  0  0  0  0
   -6.3636   23.8223  -28.6795 H   0  0  0  0  0  0  0  0  0  0  0  0
   -2.9094   22.5427  -27.7589 H   0  0  0  0  0  0  0  0  0  0  0  0
   -3.4140   20.0790  -28.5170 H   0  0  0  0  0  0  0  0  0  0  0  0
  1  2  1  0
  2  3  1  0
  3  4  2  0
  4  5  1  0
  5  6  1  0
  6  7  1  0
  7  8  2  0
  7  9  1  0
  9 10  1  0
 10 11  1  0
 11 12  2  0
 12 13  1  0
 13 14  2  0
 14 15  1  0
 15 16  2  0
  6 17  2  0
 17 18  1  0
 18 19  2  0
 19 20  1  0
 20  2  2  0
 19  5  1  0
 16 11  1  0
  1 21  1  0
  1 22  1  0
  1 23  1  0
  3 24  1  0
  4 25  1  0
 10 26  1  0
 10 27  1  0
 12 28  1  0
 13 29  1  0
 14 30  1  0
 15 31  1  0
 16 32  1  0
 17 33  1  0
 18 34  1  0
M  CHG  2   9  -1  18   1
M  END
>  <UniqueID>  (17) 
16

>  <SMILES>  (17) 
Cc1ccn2c(C(=O)[N-]Cc3ccccc3)c[nH+]c2n1

>  <Energy>  (17) 
71.41675763070262

>  <Genealogy>  (17) 
Cc1ccn2c(C(=O)[N-]Cc3ccccc3)c[nH+]c2n1 (protonated)
Cc1ccn2c(C(=O)[N-]Cc3ccccc3)c[nH+]c2n1 (3D coordinates assigned)
Cc1ccn2c(C(=O)[N-]Cc3ccccc3)c[nH+]c2n1 (optimized conformer: 71.41675763070262 kcal/mol)

>  <smiles>  (17) 
Cc1ccn2c(C(=O)NCc3ccccc3)cnc2n1

>  <score_type>  (17) 
oracle

>  <origin>  (17) 
adg

>  <m_score__min__energy>  (17) 
-8.2100000000000009

>  <m_primary>  (17) 
energy

$$$$
17:0
     RDKit          3D

 32 34  0  0  0  0  0  0  0  0999 V2000
   -2.5920   24.3770  -28.4990 C   0  0  0  0  0  0  0  0  0  0  0  0
   -3.1050   24.9170  -29.7120 O   0  0  0  0  0  0  0  0  0  0  0  0
   -4.2530   24.4460  -30.3660 C   0  0  0  0  0  0  0  0  0  0  0  0
   -4.2270   23.3390  -31.2370 C   0  0  0  0  0  0  0  0  0  0  0  0
   -5.3990   22.9090  -31.8650 C   0  0  0  0  0  0  0  0  0  0  0  0
   -6.6140   23.5680  -31.6270 C   0  0  0  0  0  0  0  0  0  0  0  0
   -7.8640   23.1230  -32.3380 C   0  0  0  0  0  0  0  0  0  0  0  0
   -8.1790   21.7430  -31.9760 N   0  0  0  0  0  0  0  0  0  0  0  0
   -9.0140   21.3820  -31.0050 N   0  0  0  0  0  0  0  0  0  0  0  0
   -9.0400   20.0610  -30.8390 N   0  0  0  0  0  0  0  0  0  0  0  0
   -8.1730   19.5740  -31.7470 C   0  0  0  0  0  0  0  0  0  0  0  0
   -7.8120   18.2520  -31.9840 C   0  0  0  0  0  0  0  0  0  0  0  0
   -6.8550   18.0130  -32.9900 C   0  0  0  0  0  0  0  0  0  0  0  0
   -6.2920   19.0890  -33.7200 C   0  0  0  0  0  0  0  0  0  0  0  0
   -5.3720   18.8400  -34.6830 F   0  0  0  0  0  0  0  0  0  0  0  0
   -6.6810   20.4160  -33.4500 C   0  0  0  0  0  0  0  0  0  0  0  0
   -7.6340   20.6120  -32.4500 C   0  0  0  0  0  0  0  0  0  0  0  0
   -6.6380   24.6750  -30.7660 C   0  0  0  0  0  0  0  0  0  0  0  0
   -5.4670   25.1060  -30.1390 C   0  0  0  0  0  0  0  0  0  0  0  0
   -3.0686   24.8786  -27.6439 H   0  0  0  0  0  0  0  0  0  0  0  0
   -2.8067   23.2989  -28.4579 H   0  0  0  0  0  0  0  0  0  0  0  0
   -1.5043   24.5361  -28.4579 H   0  0  0  0  0  0  0  0  0  0  0  0
   -3.2802   22.8109  -31.4235 H   0  0  0  0  0  0  0  0  0  0  0  0
   -5.3685   22.0488  -32.5499 H   0  0  0  0  0  0  0  0  0  0  0  0
   -8.7004   23.7759  -32.0479 H   0  0  0  0  0  0  0  0  0  0  0  0
   -7.7032   23.1841  -33.4245 H   0  0  0  0  0  0  0  0  0  0  0  0
   -9.5730   22.0490  -30.4300 H   0  0  0  0  0  0  0  0  0  0  0  0
   -8.2559   17.4260  -31.4090 H   0  0  0  0  0  0  0  0  0  0  0  0
   -6.5421   16.9818  -33.2107 H   0  0  0  0  0  0  0  0  0  0  0  0
   -6.2509   21.2628  -34.0049 H   0  0  0  0  0  0  0  0  0  0  0  0
   -7.5838   25.2062  -30.5838 H   0  0  0  0  0  0  0  0  0  0  0  0
   -5.4985   25.9715  -29.4609 H   0  0  0  0  0  0  0  0  0  0  0  0
  1  2  1  0
  2  3  1  0
  3  4  2  0
  4  5  1  0
  5  6  2  0
  6  7  1  0
  7  8  1  0
  8  9  1  0
  9 10  2  0
 10 11  1  0
 11 12  2  0
 12 13  1  0
 13 14  2  0
 14 15  1  0
 14 16  1  0
 16 17  2  0
  6 18  1  0
 18 19  2  0
 19  3  1  0
 17  8  1  0
 17 11  1  0
  1 20  1  0
  1 21  1  0
  1 22  1  0
  4 23  1  0
  5 24  1  0
  7 25  1  0
  7 26  1  0
  9 27  1  0
 12 28  1  0
 13 29  1  0
 16 30  1  0
 18 31  1  0
 19 32  1  0
M  CHG  1   9   1
M  END
>  <UniqueID>  (18) 
17

>  <SMILES>  (18) 
COc1ccc(Cn2[nH+]nc3ccc(F)cc32)cc1

>  <Energy>  (18) 
76.62497436754538

>  <Genealogy>  (18) 
COc1ccc(Cn2[nH+]nc3ccc(F)cc32)cc1 (protonated)
COc1ccc(Cn2[nH+]nc3ccc(F)cc32)cc1 (3D coordinates assigned)
COc1ccc(Cn2[nH+]nc3ccc(F)cc32)cc1 (optimized conformer: 76.62497436754538 kcal/mol)

>  <smiles>  (18) 
COc1ccc(Cn2nnc3ccc(F)cc32)cc1

>  <score_type>  (18) 
oracle

>  <origin>  (18) 
adg

>  <m_score__min__energy>  (18) 
-7.7699999999999996

>  <m_primary>  (18) 
energy

$$$$
18:0
     RDKit          3D

 43 46  0  0  0  0  0  0  0  0999 V2000
   -2.5830   24.3390  -29.3250 C   0  0  0  0  0  0  0  0  0  0  0  0
   -3.4910   24.9900  -30.2100 O   0  0  0  0  0  0  0  0  0  0  0  0
   -4.7480   24.4820  -30.5680 C   0  0  0  0  0  0  0  0  0  0  0  0
   -5.9480   25.0600  -30.1240 C   0  0  0  0  0  0  0  0  0  0  0  0
   -7.1750   24.5140  -30.5010 C   0  0  0  0  0  0  0  0  0  0  0  0
   -7.2310   23.3790  -31.3360 C   0  0  0  0  0  0  0  0  0  0  0  0
   -8.4580   22.8070  -31.7130 O   0  0  0  0  0  0  0  0  0  0  0  0
   -9.2260   21.9240  -30.9010 C   0  0  0  0  0  0  0  0  0  0  0  0
   -6.0280   22.8040  -31.8010 C   0  0  0  0  0  0  0  0  0  0  0  0
   -6.0430   21.5640  -32.6870 C   0  0  2  0  0  0  0  0  0  0  0  0
   -6.7740   20.4130  -31.9750 C   0  0  0  0  0  0  0  0  0  0  0  0
   -6.6570   19.2010  -32.7190 O   0  0  0  0  0  0  0  0  0  0  0  0
   -5.4360   18.7820  -33.2640 C   0  0  0  0  0  0  0  0  0  0  0  0
   -4.3960   19.7150  -33.4320 C   0  0  0  0  0  0  0  0  0  0  0  0
   -3.1600   19.2960  -33.9510 C   0  0  0  0  0  0  0  0  0  0  0  0
   -2.9650   17.9630  -34.3170 C   0  0  0  0  0  0  0  0  0  0  0  0
   -4.0030   17.0330  -34.1760 C   0  0  0  0  0  0  0  0  0  0  0  0
   -3.8240   15.6960  -34.5490 C   0  0  0  0  0  0  0  0  0  0  0  0
   -4.8720   14.7870  -34.3980 C   0  0  0  0  0  0  0  0  0  0  0  0
   -6.0890   15.2230  -33.8740 C   0  0  0  0  0  0  0  0  0  0  0  0
   -6.2570   16.5250  -33.5120 N   0  0  0  0  0  0  0  0  0  0  0  0
   -5.2520   17.4410  -33.6490 C   0  0  0  0  0  0  0  0  0  0  0  0
   -4.6510   21.1340  -33.0990 C   0  0  0  0  0  0  0  0  0  0  0  0
   -3.7430   21.9960  -33.2550 O   0  0  0  0  0  0  0  0  0  0  0  0
   -4.7980   23.3590  -31.3970 C   0  0  0  0  0  0  0  0  0  0  0  0
   -2.8728   24.5467  -28.2844 H   0  0  0  0  0  0  0  0  0  0  0  0
   -2.6111   23.2540  -29.5038 H   0  0  0  0  0  0  0  0  0  0  0  0
   -1.5644   24.7138  -29.5038 H   0  0  0  0  0  0  0  0  0  0  0  0
   -5.9204   25.9480  -29.4755 H   0  0  0  0  0  0  0  0  0  0  0  0
   -8.1083   24.9734  -30.1434 H   0  0  0  0  0  0  0  0  0  0  0  0
   -9.0357   22.1428  -29.8399 H   0  0  0  0  0  0  0  0  0  0  0  0
  -10.2954   22.0631  -31.1180 H   0  0  0  0  0  0  0  0  0  0  0  0
   -8.9400   20.8842  -31.1180 H   0  0  0  0  0  0  0  0  0  0  0  0
   -6.5847   21.8249  -33.6082 H   0  0  0  0  0  0  0  0  0  0  0  0
   -6.3330   20.2679  -30.9778 H   0  0  0  0  0  0  0  0  0  0  0  0
   -7.8396   20.6721  -31.8886 H   0  0  0  0  0  0  0  0  0  0  0  0
   -2.3418   20.0216  -34.0696 H   0  0  0  0  0  0  0  0  0  0  0  0
   -1.9923   17.6417  -34.7177 H   0  0  0  0  0  0  0  0  0  0  0  0
   -2.8597   15.3626  -34.9601 H   0  0  0  0  0  0  0  0  0  0  0  0
   -4.7394   13.7348  -34.6899 H   0  0  0  0  0  0  0  0  0  0  0  0
   -6.9183   14.5106  -33.7524 H   0  0  0  0  0  0  0  0  0  0  0  0
   -7.1850   16.8070  -33.1220 H   0  0  0  0  0  0  0  0  0  0  0  0
   -3.8595   22.8995  -31.7407 H   0  0  0  0  0  0  0  0  0  0  0  0
  1  2  1  0
  2  3  1  0
  3  4  2  0
  4  5  1  0
  5  6  2  0
  6  7  1  0
  7  8  1  0
  6  9  1  0
  9 10  1  0
 10 11  1  0
 11 12  1  0
 12 13  1  0
 13 14  2  0
 14 15  1  0
 15 16  2  0
 16 17  1  0
 17 18  2  0
 18 19  1  0
 19 20  2  0
 20 21  1  0
 21 22  2  0
 14 23  1  0
 23 24  2  0
  9 25  2  0
 25  3  1  0
 23 10  1  0
 22 13  1  0
 22 17  1  0
  1 26  1  0
  1 27  1  0
  1 28  1  0
  4 29  1  0
  5 30  1  0
  8 31  1  0
  8 32  1  0
  8 33  1  0
 10 34  1  6
 11 35  1  0
 11 36  1  0
 15 37  1  0
 16 38  1  0
 18 39  1  0
 19 40  1  0
 20 41  1  0
 21 42  1  0
 25 43  1  0
M  CHG  1  21   1
M  END
>  <UniqueID>  (19) 
18

>  <SMILES>  (19) 
COc1ccc(OC)c([C@@H]2COc3c(ccc4ccc[nH+]c34)C2=O)c1

>  <Energy>  (19) 
53.67748539318885

>  <Genealogy>  (19) 
COc1ccc(OC)c(C2COc3c(ccc4ccc[nH+]c34)C2=O)c1 (protonated)
COc1ccc(OC)c([C@@H]2COc3c(ccc4ccc[nH+]c34)C2=O)c1 (chirality)
COc1ccc(OC)c([C@@H]2COc3c(ccc4ccc[nH+]c34)C2=O)c1 (3D coordinates assigned)
COc1ccc(OC)c([C@@H]2COc3c(ccc4ccc[nH+]c34)C2=O)c1 (nonaromatic ring conformer: 53.67748539318885 kcal/mol)

>  <smiles>  (19) 
COc1ccc(OC)c(C2COc3c(ccc4cccnc34)C2=O)c1

>  <score_type>  (19) 
oracle

>  <origin>  (19) 
adg

>  <m_score__min__energy>  (19) 
-7.5700000000000003

>  <m_primary>  (19) 
energy

$$$$
19:0
     RDKit          3D

 42 44  0  0  0  0  0  0  0  0999 V2000
   -7.1330   18.0980  -32.9780 C   0  0  0  0  0  0  0  0  0  0  0  0
   -8.0810   19.0150  -32.2600 C   0  0  0  0  0  0  0  0  0  0  0  0
   -9.1020   18.5180  -31.7190 O   0  0  0  0  0  0  0  0  0  0  0  0
   -7.8320   20.4330  -32.1450 N   0  0  0  0  0  0  0  0  0  0  0  0
   -8.8220   21.2960  -31.4840 C   0  0  0  0  0  0  0  0  0  0  0  0
   -8.6870   22.7430  -31.9710 C   0  0  0  0  0  0  0  0  0  0  0  0
   -7.3130   23.2920  -31.8170 N   0  0  0  0  0  0  0  0  0  0  0  0
   -7.1850   24.1370  -30.6110 C   0  0  0  0  0  0  0  0  0  0  0  0
   -5.7480   24.4510  -30.3450 C   0  0  0  0  0  0  0  0  0  0  0  0
   -5.0000   25.2550  -31.1210 N   0  0  0  0  0  0  0  0  0  0  0  0
   -3.8350   25.2780  -30.5490 O   0  0  0  0  0  0  0  0  0  0  0  0
   -3.8540   24.5330  -29.4720 C   0  0  0  0  0  0  0  0  0  0  0  0
   -2.7000   24.3470  -28.5730 C   0  0  0  0  0  0  0  0  0  0  0  0
   -1.4610   23.9400  -29.0950 C   0  0  0  0  0  0  0  0  0  0  0  0
   -0.3590   23.7810  -28.2530 C   0  0  0  0  0  0  0  0  0  0  0  0
   -0.4740   24.0400  -26.8800 C   0  0  0  0  0  0  0  0  0  0  0  0
    0.7040   23.8490  -25.9780 C   0  0  0  0  0  0  0  0  0  0  0  0
   -1.7160   24.4270  -26.3520 C   0  0  0  0  0  0  0  0  0  0  0  0
   -2.8200   24.5840  -27.1930 C   0  0  0  0  0  0  0  0  0  0  0  0
   -5.0640   23.9680  -29.2870 N   0  0  0  0  0  0  0  0  0  0  0  0
   -6.2350   22.2740  -31.8570 C   0  0  0  0  0  0  0  0  0  0  0  0
   -6.6110   21.0440  -32.6840 C   0  0  0  0  0  0  0  0  0  0  0  0
   -6.5451   17.5294  -32.2424 H   0  0  0  0  0  0  0  0  0  0  0  0
   -7.7042   17.4009  -33.6087 H   0  0  0  0  0  0  0  0  0  0  0  0
   -6.4553   18.6920  -33.6087 H   0  0  0  0  0  0  0  0  0  0  0  0
   -9.8330   20.9295  -31.7155 H   0  0  0  0  0  0  0  0  0  0  0  0
   -8.6470   21.2694  -30.3983 H   0  0  0  0  0  0  0  0  0  0  0  0
   -8.9598   22.7794  -33.0360 H   0  0  0  0  0  0  0  0  0  0  0  0
   -9.3543   23.3585  -31.3498 H   0  0  0  0  0  0  0  0  0  0  0  0
   -7.7385   25.0750  -30.7653 H   0  0  0  0  0  0  0  0  0  0  0  0
   -7.5969   23.5926  -29.7485 H   0  0  0  0  0  0  0  0  0  0  0  0
   -1.3586   23.7456  -30.1728 H   0  0  0  0  0  0  0  0  0  0  0  0
    0.6044   23.4509  -28.6689 H   0  0  0  0  0  0  0  0  0  0  0  0
    0.3755   23.9023  -24.9296 H   0  0  0  0  0  0  0  0  0  0  0  0
    1.1576   22.8656  -26.1706 H   0  0  0  0  0  0  0  0  0  0  0  0
    1.4451   24.6387  -26.1706 H   0  0  0  0  0  0  0  0  0  0  0  0
   -1.8200   24.6072  -25.2719 H   0  0  0  0  0  0  0  0  0  0  0  0
   -3.7881   24.8947  -26.7732 H   0  0  0  0  0  0  0  0  0  0  0  0
   -5.3361   22.7313  -32.2962 H   0  0  0  0  0  0  0  0  0  0  0  0
   -6.0592   21.9375  -30.8246 H   0  0  0  0  0  0  0  0  0  0  0  0
   -6.7842   21.3454  -33.7276 H   0  0  0  0  0  0  0  0  0  0  0  0
   -5.7903   20.3130  -32.6390 H   0  0  0  0  0  0  0  0  0  0  0  0
  1  2  1  0
  2  3  2  0
  2  4  1  0
  4  5  1  0
  5  6  1  0
  6  7  1  0
  7  8  1  0
  8  9  1  0
  9 10  2  0
 10 11  1  0
 11 12  1  0
 12 13  1  0
 13 14  2  0
 14 15  1  0
 15 16  2  0
 16 17  1  0
 16 18  1  0
 18 19  2  0
 12 20  2  0
  7 21  1  0
 21 22  1  0
 22  4  1  0
 20  9  1  0
 19 13  1  0
  1 23  1  0
  1 24  1  0
  1 25  1  0
  5 26  1  0
  5 27  1  0
  6 28  1  0
  6 29  1  0
  8 30  1  0
  8 31  1  0
 14 32  1  0
 15 33  1  0
 17 34  1  0
 17 35  1  0
 17 36  1  0
 18 37  1  0
 19 38  1  0
 21 39  1  0
 21 40  1  0
 22 41  1  0
 22 42  1  0
M  END
>  <UniqueID>  (20) 
19

>  <SMILES>  (20) 
CC(=O)N1CCN(Cc2noc(-c3ccc(C)cc3)n2)CC1

>  <Energy>  (20) 
81.3792125918403

>  <Genealogy>  (20) 
CC(=O)N1CCN(Cc2noc(-c3ccc(C)cc3)n2)CC1 (3D coordinates assigned)
CC(=O)N1CCN(Cc2noc(-c3ccc(C)cc3)n2)CC1 (nonaromatic ring conformer: 81.3792125918403 kcal/mol)

>  <smiles>  (20) 
CC(=O)N1CCN(Cc2noc(-c3ccc(C)cc3)n2)CC1

>  <score_type>  (20) 
oracle

>  <origin>  (20) 
adg

>  <m_score__min__energy>  (20) 
-9.1500000000000004

>  <m_primary>  (20) 
energy

$$$$
20:0
     RDKit          3D

 59 60  0  0  0  0  0  0  0  0999 V2000
   -9.4690   21.8700  -31.8600 C   0  0  0  0  0  0  0  0  0  0  0  0
   -8.6600   20.9530  -30.9430 C   0  0  0  0  0  0  0  0  0  0  0  0
   -8.5480   19.5170  -31.4980 C   0  0  1  0  0  0  0  0  0  0  0  0
   -9.4600   19.3320  -32.7150 C   0  0  0  0  0  0  0  0  0  0  0  0
   -7.1270   19.1580  -31.8550 C   0  0  0  0  0  0  0  0  0  0  0  0
   -6.6720   18.0360  -31.5030 O   0  0  0  0  0  0  0  0  0  0  0  0
   -6.3150   20.0560  -32.6310 N   0  0  0  0  0  0  0  0  0  0  0  0
   -4.8790   19.9900  -32.6890 C   0  0  0  0  0  0  0  0  0  0  0  0
   -4.2630   19.4060  -33.8060 C   0  0  0  0  0  0  0  0  0  0  0  0
   -2.8700   19.3590  -33.9020 C   0  0  0  0  0  0  0  0  0  0  0  0
   -2.0790   19.9060  -32.8900 C   0  0  0  0  0  0  0  0  0  0  0  0
   -2.6770   20.5080  -31.7730 C   0  0  0  0  0  0  0  0  0  0  0  0
   -1.8170   21.1300  -30.7060 C   0  0  0  0  0  0  0  0  0  0  0  0
   -2.5650   22.1890  -30.0020 N   0  0  0  0  0  0  0  0  0  0  0  0
   -3.2080   21.6730  -28.7770 C   0  0  0  0  0  0  0  0  0  0  0  0
   -4.2050   22.7070  -28.2130 C   0  0  0  0  0  0  0  0  0  0  0  0
   -3.8560   24.1640  -28.6090 C   0  0  0  0  0  0  0  0  0  0  0  0
   -4.5260   24.6020  -29.9030 C   0  0  0  0  0  0  0  0  0  0  0  0
   -3.8630   25.2660  -30.7480 O   0  0  0  0  0  0  0  0  0  0  0  0
   -5.9260   24.3440  -30.1550 N   0  0  0  0  0  0  0  0  0  0  0  0
   -6.9560   25.2790  -29.6840 C   0  0  0  0  0  0  0  0  0  0  0  0
   -6.3230   23.1080  -30.8460 C   0  0  0  0  0  0  0  0  0  0  0  0
   -6.2920   23.3120  -32.3580 C   0  0  0  0  0  0  0  0  0  0  0  0
   -2.3300   24.3370  -28.7090 C   0  0  0  0  0  0  0  0  0  0  0  0
   -1.6800   23.3330  -29.6900 C   0  0  0  0  0  0  0  0  0  0  0  0
   -4.0780   20.5570  -31.6810 C   0  0  0  0  0  0  0  0  0  0  0  0
  -10.0747   22.5566  -31.2503 H   0  0  0  0  0  0  0  0  0  0  0  0
   -8.7838   22.4509  -32.4948 H   0  0  0  0  0  0  0  0  0  0  0  0
  -10.1308   21.2625  -32.4948 H   0  0  0  0  0  0  0  0  0  0  0  0
   -7.6477   21.3687  -30.8314 H   0  0  0  0  0  0  0  0  0  0  0  0
   -9.1822   20.8995  -29.9764 H   0  0  0  0  0  0  0  0  0  0  0  0
   -8.8746   18.8362  -30.6981 H   0  0  0  0  0  0  0  0  0  0  0  0
  -10.4857   19.1239  -32.3763 H   0  0  0  0  0  0  0  0  0  0  0  0
   -9.4531   20.2498  -33.3212 H   0  0  0  0  0  0  0  0  0  0  0  0
   -9.0960   18.4894  -33.3212 H   0  0  0  0  0  0  0  0  0  0  0  0
   -6.7960   20.7700  -33.2230 H   0  0  0  0  0  0  0  0  0  0  0  0
   -4.8808   18.9823  -34.6115 H   0  0  0  0  0  0  0  0  0  0  0  0
   -2.3956   18.8901  -34.7767 H   0  0  0  0  0  0  0  0  0  0  0  0
   -0.9826   19.8648  -32.9688 H   0  0  0  0  0  0  0  0  0  0  0  0
   -1.5168   20.3561  -29.9843 H   0  0  0  0  0  0  0  0  0  0  0  0
   -0.9256   21.5716  -31.1755 H   0  0  0  0  0  0  0  0  0  0  0  0
   -3.7462   20.7436  -29.0147 H   0  0  0  0  0  0  0  0  0  0  0  0
   -2.4315   21.4793  -28.0223 H   0  0  0  0  0  0  0  0  0  0  0  0
   -5.2089   22.4707  -28.5957 H   0  0  0  0  0  0  0  0  0  0  0  0
   -4.1582   22.6443  -27.1158 H   0  0  0  0  0  0  0  0  0  0  0  0
   -4.2488   24.8147  -27.8138 H   0  0  0  0  0  0  0  0  0  0  0  0
   -6.9669   25.2889  -28.5841 H   0  0  0  0  0  0  0  0  0  0  0  0
   -6.7326   26.2892  -30.0576 H   0  0  0  0  0  0  0  0  0  0  0  0
   -7.9400   24.9592  -30.0576 H   0  0  0  0  0  0  0  0  0  0  0  0
   -5.6265   22.3010  -30.5745 H   0  0  0  0  0  0  0  0  0  0  0  0
   -7.3461   22.8415  -30.5422 H   0  0  0  0  0  0  0  0  0  0  0  0
   -6.1302   24.3769  -32.5811 H   0  0  0  0  0  0  0  0  0  0  0  0
   -5.4738   22.7181  -32.7914 H   0  0  0  0  0  0  0  0  0  0  0  0
   -7.2497   22.9880  -32.7914 H   0  0  0  0  0  0  0  0  0  0  0  0
   -2.1133   25.3583  -29.0553 H   0  0  0  0  0  0  0  0  0  0  0  0
   -1.9074   24.1484  -27.7111 H   0  0  0  0  0  0  0  0  0  0  0  0
   -1.4411   23.8592  -30.6260 H   0  0  0  0  0  0  0  0  0  0  0  0
   -0.7759   22.9332  -29.2075 H   0  0  0  0  0  0  0  0  0  0  0  0
   -4.5519   21.0420  -30.8149 H   0  0  0  0  0  0  0  0  0  0  0  0
  1  2  1  0
  2  3  1  0
  3  4  1  0
  3  5  1  0
  5  6  2  0
  5  7  1  0
  7  8  1  0
  8  9  2  0
  9 10  1  0
 10 11  2  0
 11 12  1  0
 12 13  1  0
 13 14  1  0
 14 15  1  0
 15 16  1  0
 16 17  1  0
 17 18  1  0
 18 19  2  0
 18 20  1  0
 20 21  1  0
 20 22  1  0
 22 23  1  0
 17 24  1  0
 24 25  1  0
 12 26  2  0
 26  8  1  0
 25 14  1  0
  1 27  1  0
  1 28  1  0
  1 29  1  0
  2 30  1  0
  2 31  1  0
  3 32  1  1
  4 33  1  0
  4 34  1  0
  4 35  1  0
  7 36  1  0
  9 37  1  0
 10 38  1  0
 11 39  1  0
 13 40  1  0
 13 41  1  0
 15 42  1  0
 15 43  1  0
 16 44  1  0
 16 45  1  0
 17 46  1  0
 21 47  1  0
 21 48  1  0
 21 49  1  0
 22 50  1  0
 22 51  1  0
 23 52  1  0
 23 53  1  0
 23 54  1  0
 24 55  1  0
 24 56  1  0
 25 57  1  0
 25 58  1  0
 26 59  1  0
M  END
>  <UniqueID>  (21) 
20

>  <SMILES>  (21) 
CC[C@@H](C)C(=O)Nc1cccc(CN2CCC(C(=O)N(C)CC)CC2)c1

>  <Energy>  (21) 
55.47205472521681

>  <Genealogy>  (21) 
CC[C@@H](C)C(=O)Nc1cccc(CN2CCC(C(=O)N(C)CC)CC2)c1 (chirality)
CC[C@@H](C)C(=O)Nc1cccc(CN2CCC(C(=O)N(C)CC)CC2)c1 (3D coordinates assigned)
CC[C@@H](C)C(=O)Nc1cccc(CN2CCC(C(=O)N(C)CC)CC2)c1 (nonaromatic ring conformer: 55.47205472521681 kcal/mol)

>  <smiles>  (21) 
CCC(C)C(=O)Nc1cccc(CN2CCC(C(=O)N(C)CC)CC2)c1

>  <score_type>  (21) 
oracle

>  <origin>  (21) 
adg

>  <m_score__min__energy>  (21) 
-9.1600000000000001

>  <m_primary>  (21) 
energy

$$$$
21:0
     RDKit          3D

 58 61  0  0  0  0  0  0  0  0999 V2000
   -5.7910   16.3170  -32.4740 C   0  0  0  0  0  0  0  0  0  0  0  0
   -7.0030   16.9810  -32.7770 O   0  0  0  0  0  0  0  0  0  0  0  0
   -7.1620   18.3460  -32.5730 C   0  0  0  0  0  0  0  0  0  0  0  0
   -8.1650   18.8270  -31.7350 C   0  0  0  0  0  0  0  0  0  0  0  0
   -8.3360   20.1910  -31.5210 C   0  0  0  0  0  0  0  0  0  0  0  0
   -7.4960   21.0940  -32.1480 C   0  0  0  0  0  0  0  0  0  0  0  0
   -7.6260   22.5730  -31.9510 C   0  0  0  0  0  0  0  0  0  0  0  0
   -6.3270   23.2830  -32.2890 C   0  0  0  0  0  0  0  0  0  0  0  0
   -6.2180   24.5980  -31.7160 N   0  0  0  0  0  0  0  0  0  0  0  0
   -6.3120   24.6100  -30.2710 C   0  0  0  0  0  0  0  0  0  0  0  0
   -4.9330   24.6690  -29.7230 C   0  0  0  0  0  0  0  0  0  0  0  0
   -3.9820   25.2760  -30.2530 O   0  0  0  0  0  0  0  0  0  0  0  0
   -4.6150   23.9890  -28.4830 N   0  0  0  0  0  0  0  0  0  0  0  0
   -3.2690   24.1230  -28.0560 C   0  0  0  0  0  0  0  0  0  0  0  0
   -3.0640   24.9190  -26.9230 C   0  0  0  0  0  0  0  0  0  0  0  0
   -1.8100   25.1270  -26.3980 C   0  0  0  0  0  0  0  0  0  0  0  0
   -0.7460   24.5150  -27.0350 C   0  0  0  0  0  0  0  0  0  0  0  0
   -0.9590   23.7310  -28.1530 C   0  0  0  0  0  0  0  0  0  0  0  0
   -2.2290   23.5220  -28.6840 C   0  0  0  0  0  0  0  0  0  0  0  0
   -2.3690   22.7090  -29.8820 C   0  0  0  0  0  0  0  0  0  0  0  0
   -1.7730   21.4990  -30.0390 N   0  0  0  0  0  0  0  0  0  0  0  0
   -2.0400   20.9600  -31.2250 C   0  0  0  0  0  0  0  0  0  0  0  0
   -1.6760   19.7720  -31.8450 C   0  0  0  0  0  0  0  0  0  0  0  0
   -2.1100   19.4550  -33.1240 C   0  0  0  0  0  0  0  0  0  0  0  0
   -2.9330   20.3820  -33.7710 C   0  0  0  0  0  0  0  0  0  0  0  0
   -3.2980   21.5750  -33.1450 C   0  0  0  0  0  0  0  0  0  0  0  0
   -2.8550   21.8690  -31.8740 C   0  0  0  0  0  0  0  0  0  0  0  0
   -3.0270   22.9160  -31.0210 N   0  0  0  0  0  0  0  0  0  0  0  0
   -6.4910   20.6090  -32.9880 C   0  0  0  0  0  0  0  0  0  0  0  0
   -6.3300   19.2550  -33.1940 C   0  0  0  0  0  0  0  0  0  0  0  0
   -5.3420   18.7220  -34.0190 O   0  0  0  0  0  0  0  0  0  0  0  0
   -5.7390   18.1610  -35.2530 C   0  0  0  0  0  0  0  0  0  0  0  0
   -5.6717   16.2516  -31.3824 H   0  0  0  0  0  0  0  0  0  0  0  0
   -5.8110   15.3039  -32.9020 H   0  0  0  0  0  0  0  0  0  0  0  0
   -4.9480   16.8792  -32.9020 H   0  0  0  0  0  0  0  0  0  0  0  0
   -8.8353   18.1143  -31.2323 H   0  0  0  0  0  0  0  0  0  0  0  0
   -9.1355   20.5499  -30.8562 H   0  0  0  0  0  0  0  0  0  0  0  0
   -8.4248   22.9541  -32.6042 H   0  0  0  0  0  0  0  0  0  0  0  0
   -7.8667   22.7662  -30.8952 H   0  0  0  0  0  0  0  0  0  0  0  0
   -5.4911   22.6723  -31.9172 H   0  0  0  0  0  0  0  0  0  0  0  0
   -6.3045   23.4068  -33.3818 H   0  0  0  0  0  0  0  0  0  0  0  0
   -5.3470   25.1000  -32.0340 H   0  0  0  0  0  0  0  0  0  0  0  0
   -6.8830   25.4905  -29.9412 H   0  0  0  0  0  0  0  0  0  0  0  0
   -6.8274   23.7063  -29.9136 H   0  0  0  0  0  0  0  0  0  0  0  0
   -5.3430   23.4430  -27.9640 H   0  0  0  0  0  0  0  0  0  0  0  0
   -3.9310   25.3919  -26.4385 H   0  0  0  0  0  0  0  0  0  0  0  0
   -1.6594   25.7548  -25.5074 H   0  0  0  0  0  0  0  0  0  0  0  0
    0.2751   24.6529  -26.6499 H   0  0  0  0  0  0  0  0  0  0  0  0
   -0.0950   23.2555  -28.6403 H   0  0  0  0  0  0  0  0  0  0  0  0
   -1.0270   19.0643  -31.3084 H   0  0  0  0  0  0  0  0  0  0  0  0
   -1.8184   18.5121  -33.6097 H   0  0  0  0  0  0  0  0  0  0  0  0
   -3.2976   20.1683  -34.7866 H   0  0  0  0  0  0  0  0  0  0  0  0
   -3.9472   22.2891  -33.6729 H   0  0  0  0  0  0  0  0  0  0  0  0
   -3.5920   23.7290  -31.2730 H   0  0  0  0  0  0  0  0  0  0  0  0
   -5.8179   21.3176  -33.4927 H   0  0  0  0  0  0  0  0  0  0  0  0
   -6.3654   17.2758  -35.0687 H   0  0  0  0  0  0  0  0  0  0  0  0
   -6.3135   18.9040  -35.8256 H   0  0  0  0  0  0  0  0  0  0  0  0
   -4.8472   17.8663  -35.8256 H   0  0  0  0  0  0  0  0  0  0  0  0
  1  2  1  0
  2  3  1  0
  3  4  2  0
  4  5  1  0
  5  6  2  0
  6  7  1  0
  7  8  1  0
  8  9  1  0
  9 10  1  0
 10 11  1  0
 11 12  2  0
 11 13  1  0
 13 14  1  0
 14 15  2  0
 15 16  1  0
 16 17  2  0
 17 18  1  0
 18 19  2  0
 19 20  1  0
 20 21  2  0
 21 22  1  0
 22 23  2  0
 23 24  1  0
 24 25  2  0
 25 26  1  0
 26 27  2  0
 27 28  1  0
  6 29  1  0
 29 30  2  0
 30 31  1  0
 31 32  1  0
 30  3  1  0
 19 14  1  0
 28 20  1  0
 27 22  1  0
  1 33  1  0
  1 34  1  0
  1 35  1  0
  4 36  1  0
  5 37  1  0
  7 38  1  0
  7 39  1  0
  8 40  1  0
  8 41  1  0
  9 42  1  0
 10 43  1  0
 10 44  1  0
 13 45  1  0
 15 46  1  0
 16 47  1  0
 17 48  1  0
 18 49  1  0
 23 50  1  0
 24 51  1  0
 25 52  1  0
 26 53  1  0
 28 54  1  0
 29 55  1  0
 32 56  1  0
 32 57  1  0
 32 58  1  0
M  END
>  <smiles>  (22) 
COc1ccc(CCNCC(=O)Nc2ccccc2-c2nc3ccccc3[nH]2)cc1OC

>  <score_type>  (22) 
oracle

>  <origin>  (22) 
adg

>  <m_score__min__energy>  (22) 
-10.07

>  <m_primary>  (22) 
energy

$$$$
22:0
     RDKit          3D

 54 56  0  0  0  0  0  0  0  0999 V2000
   -8.9900   21.9630  -31.9390 C   0  0  0  0  0  0  0  0  0  0  0  0
   -8.4410   20.5910  -32.2000 C   0  0  0  0  0  0  0  0  0  0  0  0
   -9.0980   19.4610  -31.6880 C   0  0  0  0  0  0  0  0  0  0  0  0
   -8.5720   18.1840  -31.9050 C   0  0  0  0  0  0  0  0  0  0  0  0
   -7.3820   18.0280  -32.6180 C   0  0  0  0  0  0  0  0  0  0  0  0
   -6.6980   19.1500  -33.1100 C   0  0  0  0  0  0  0  0  0  0  0  0
   -5.4300   18.9820  -33.9050 C   0  0  0  0  0  0  0  0  0  0  0  0
   -4.2030   19.3370  -33.0420 C   0  0  0  0  0  0  0  0  0  0  0  0
   -3.4880   20.5530  -33.5140 N   0  0  2  0  0  0  0  0  0  0  0  0
   -2.0520   20.5860  -33.1420 C   0  0  0  0  0  0  0  0  0  0  0  0
   -1.8300   20.6490  -31.6190 C   0  0  0  0  0  0  0  0  0  0  0  0
   -2.8820   21.5050  -30.8910 C   0  0  0  0  0  0  0  0  0  0  0  0
   -3.5750   22.4940  -31.8450 C   0  0  2  0  0  0  0  0  0  0  0  0
   -4.5760   23.3230  -31.1380 N   0  0  0  0  0  0  0  0  0  0  0  0
   -5.9650   22.8520  -31.0830 C   0  0  0  0  0  0  0  0  0  0  0  0
   -4.2060   24.5540  -30.4690 C   0  0  0  0  0  0  0  0  0  0  0  0
   -4.6630   25.6550  -30.8810 O   0  0  0  0  0  0  0  0  0  0  0  0
   -3.3040   24.5660  -29.2990 C   0  0  0  0  0  0  0  0  0  0  0  0
   -3.4650   23.8070  -28.1520 C   0  0  0  0  0  0  0  0  0  0  0  0
   -2.3980   24.1230  -27.3370 C   0  0  0  0  0  0  0  0  0  0  0  0
   -1.6510   25.0460  -28.0410 C   0  0  0  0  0  0  0  0  0  0  0  0
   -0.4070   25.7130  -27.5600 C   0  0  0  0  0  0  0  0  0  0  0  0
   -2.2130   25.2930  -29.2010 O   0  0  0  0  0  0  0  0  0  0  0  0
   -4.1930   21.7990  -33.0910 C   0  0  0  0  0  0  0  0  0  0  0  0
   -7.2360   20.4310  -32.9000 C   0  0  0  0  0  0  0  0  0  0  0  0
   -9.0571   22.1308  -30.8539 H   0  0  0  0  0  0  0  0  0  0  0  0
   -8.3238   22.7156  -32.3859 H   0  0  0  0  0  0  0  0  0  0  0  0
   -9.9915   22.0483  -32.3859 H   0  0  0  0  0  0  0  0  0  0  0  0
  -10.0291   19.5806  -31.1146 H   0  0  0  0  0  0  0  0  0  0  0  0
   -9.0969   17.3003  -31.5131 H   0  0  0  0  0  0  0  0  0  0  0  0
   -6.9784   17.0201  -32.7951 H   0  0  0  0  0  0  0  0  0  0  0  0
   -5.3477   17.9373  -34.2395 H   0  0  0  0  0  0  0  0  0  0  0  0
   -5.4619   19.6559  -34.7738 H   0  0  0  0  0  0  0  0  0  0  0  0
   -4.5397   19.5081  -32.0089 H   0  0  0  0  0  0  0  0  0  0  0  0
   -3.4986   18.4950  -33.1124 H   0  0  0  0  0  0  0  0  0  0  0  0
   -3.5250   20.5310  -34.5610 H   0  0  0  0  0  0  0  0  0  0  0  0
   -1.5676   19.6779  -33.5303 H   0  0  0  0  0  0  0  0  0  0  0  0
   -1.6185   21.4984  -33.5774 H   0  0  0  0  0  0  0  0  0  0  0  0
   -1.8713   19.6261  -31.2165 H   0  0  0  0  0  0  0  0  0  0  0  0
   -0.8499   21.1188  -31.4493 H   0  0  0  0  0  0  0  0  0  0  0  0
   -3.6417   20.8400  -30.4544 H   0  0  0  0  0  0  0  0  0  0  0  0
   -2.3689   22.0860  -30.1105 H   0  0  0  0  0  0  0  0  0  0  0  0
   -2.7865   23.1632  -32.2197 H   0  0  0  0  0  0  0  0  0  0  0  0
   -6.2752   22.7468  -30.0329 H   0  0  0  0  0  0  0  0  0  0  0  0
   -6.6188   23.5787  -31.5874 H   0  0  0  0  0  0  0  0  0  0  0  0
   -6.0420   21.8775  -31.5874 H   0  0  0  0  0  0  0  0  0  0  0  0
   -4.2772   23.0976  -27.9353 H   0  0  0  0  0  0  0  0  0  0  0  0
   -2.1863   23.7227  -26.3345 H   0  0  0  0  0  0  0  0  0  0  0  0
   -0.3959   25.7189  -26.4601 H   0  0  0  0  0  0  0  0  0  0  0  0
    0.4707   25.1645  -27.9326 H   0  0  0  0  0  0  0  0  0  0  0  0
   -0.3781   26.7476  -27.9326 H   0  0  0  0  0  0  0  0  0  0  0  0
   -5.2371   21.5420  -32.8593 H   0  0  0  0  0  0  0  0  0  0  0  0
   -4.1020   22.5103  -33.9251 H   0  0  0  0  0  0  0  0  0  0  0  0
   -6.7083   21.3150  -33.2874 H   0  0  0  0  0  0  0  0  0  0  0  0
  1  2  1  0
  2  3  2  0
  3  4  1  0
  4  5  2  0
  5  6  1  0
  6  7  1  0
  7  8  1  0
  8  9  1  0
  9 10  1  0
 10 11  1  0
 11 12  1  0
 12 13  1  0
 13 14  1  0
 14 15  1  0
 14 16  1  0
 16 17  2  0
 16 18  1  0
 18 19  2  0
 19 20  1  0
 20 21  2  0
 21 22  1  0
 21 23  1  0
 13 24  1  0
  6 25  2  0
 25  2  1  0
 24  9  1  0
 23 18  1  0
  1 26  1  0
  1 27  1  0
  1 28  1  0
  3 29  1  0
  4 30  1  0
  5 31  1  0
  7 32  1  0
  7 33  1  0
  8 34  1  0
  8 35  1  0
  9 36  1  6
 10 37  1  0
 10 38  1  0
 11 39  1  0
 11 40  1  0
 12 41  1  0
 12 42  1  0
 13 43  1  6
 15 44  1  0
 15 45  1  0
 15 46  1  0
 19 47  1  0
 20 48  1  0
 22 49  1  0
 22 50  1  0
 22 51  1  0
 24 52  1  0
 24 53  1  0
 25 54  1  0
M  CHG  1   9   1
M  END
>  <UniqueID>  (23) 
21

>  <SMILES>  (23) 
Cc1cccc(CC[N@@H+]2CCC[C@H](N(C)C(=O)c3ccc(C)o3)C2)c1

>  <Energy>  (23) 
89.68855610365668

>  <Genealogy>  (23) 
Cc1cccc(CC[NH+]2CCCC(N(C)C(=O)c3ccc(C)o3)C2)c1 (protonated)
Cc1cccc(CC[N@@H+]2CCC[C@H](N(C)C(=O)c3ccc(C)o3)C2)c1 (chirality)
Cc1cccc(CC[N@@H+]2CCC[C@H](N(C)C(=O)c3ccc(C)o3)C2)c1 (3D coordinates assigned)
Cc1cccc(CC[N@@H+]2CCC[C@H](N(C)C(=O)c3ccc(C)o3)C2)c1 (nonaromatic ring conformer: 89.68855610365668 kcal/mol)

>  <smiles>  (23) 
Cc1cccc(CCN2CCCC(N(C)C(=O)c3ccc(C)o3)C2)c1

>  <score_type>  (23) 
oracle

>  <origin>  (23) 
adg

>  <m_score__min__energy>  (23) 
-9.1400000000000006

>  <m_primary>  (23) 
energy

$$$$
23:0
     RDKit          3D

 92 96  0  0  0  0  0  0  0  0999 V2000
   -3.8450   14.9550  -32.6920 C   0  0  0  0  0  0  0  0  0  0  0  0
   -4.3970   16.3420  -32.8440 C   0  0  0  0  0  0  0  0  0  0  0  0
   -3.5880   17.3710  -33.3380 C   0  0  0  0  0  0  0  0  0  0  0  0
   -4.0970   18.6680  -33.5330 C   0  0  0  0  0  0  0  0  0  0  0  0
   -3.1650   19.7280  -34.0980 C   0  0  0  0  0  0  0  0  0  0  0  0
   -2.2130   20.3110  -33.0100 C   0  0  2  0  0  0  0  0  0  0  0  0
   -1.5200   19.1500  -32.2370 C   0  0  0  0  0  0  0  0  0  0  0  0
   -1.1690   19.5080  -30.8530 N   0  0  0  0  0  0  0  0  0  0  0  0
   -0.7120   20.8960  -30.7660 C   0  0  0  0  0  0  0  0  0  0  0  0
   -1.8140   21.8790  -31.2150 C   0  0  0  0  0  0  0  0  0  0  0  0
   -2.8710   21.2170  -32.0210 N   0  0  0  0  0  0  0  0  0  0  0  0
   -3.7910   22.2060  -32.6500 C   0  0  0  0  0  0  0  0  0  0  0  0
   -4.6490   23.0440  -31.6470 C   0  0  1  0  0  0  0  0  0  0  0  0
   -5.5210   22.1960  -30.6730 C   0  0  0  0  0  0  0  0  0  0  0  0
   -6.8580   22.8770  -30.2900 C   0  0  0  0  0  0  0  0  0  0  0  0
   -7.0960   24.1080  -31.1750 C   0  0  0  0  0  0  0  0  0  0  0  0
   -8.0400   21.9070  -30.4190 C   0  0  0  0  0  0  0  0  0  0  0  0
   -3.8570   24.0440  -30.8770 N   0  0  0  0  0  0  0  0  0  0  0  0
   -4.3470   24.4700  -29.5410 C   0  0  0  0  0  0  0  0  0  0  0  0
   -3.2210   24.5780  -28.4860 C   0  0  1  0  0  0  0  0  0  0  0  0
   -3.4390   23.6430  -27.2630 C   0  0  0  0  0  0  0  0  0  0  0  0
   -2.7670   22.2960  -27.3470 C   0  0  0  0  0  0  0  0  0  0  0  0
   -1.5090   22.0860  -26.7530 C   0  0  0  0  0  0  0  0  0  0  0  0
   -0.8910   20.8330  -26.8360 C   0  0  0  0  0  0  0  0  0  0  0  0
   -1.5170   19.7870  -27.5200 C   0  0  0  0  0  0  0  0  0  0  0  0
   -2.7570   19.9930  -28.1300 C   0  0  0  0  0  0  0  0  0  0  0  0
   -3.3790   21.2430  -28.0490 C   0  0  0  0  0  0  0  0  0  0  0  0
   -1.8480   24.5200  -29.0450 N   0  0  0  0  0  0  0  0  0  0  0  0
   -0.9280   25.5820  -28.6030 C   0  0  0  0  0  0  0  0  0  0  0  0
   -0.7770   25.5450  -27.1050 C   0  0  0  0  0  0  0  0  0  0  0  0
    0.1770   24.7030  -26.5070 C   0  0  0  0  0  0  0  0  0  0  0  0
    0.2930   24.6440  -25.1160 C   0  0  0  0  0  0  0  0  0  0  0  0
   -0.5470   25.4180  -24.3100 C   0  0  0  0  0  0  0  0  0  0  0  0
   -1.5060   26.2500  -24.8950 C   0  0  0  0  0  0  0  0  0  0  0  0
   -1.6250   26.3110  -26.2870 C   0  0  0  0  0  0  0  0  0  0  0  0
   -5.4620   18.9310  -33.2250 C   0  0  0  0  0  0  0  0  0  0  0  0
   -6.0420   20.2100  -33.3840 C   0  0  0  0  0  0  0  0  0  0  0  0
   -7.3870   20.4260  -33.0760 C   0  0  0  0  0  0  0  0  0  0  0  0
   -8.1780   19.3810  -32.6050 C   0  0  0  0  0  0  0  0  0  0  0  0
   -7.6300   18.1100  -32.4360 C   0  0  0  0  0  0  0  0  0  0  0  0
   -6.2790   17.8740  -32.7380 C   0  0  0  0  0  0  0  0  0  0  0  0
   -5.7430   16.5930  -32.5620 C   0  0  0  0  0  0  0  0  0  0  0  0
   -3.7490   14.7137  -31.6231 H   0  0  0  0  0  0  0  0  0  0  0  0
   -4.5252   14.2352  -33.1707 H   0  0  0  0  0  0  0  0  0  0  0  0
   -2.8562   14.8994  -33.1707 H   0  0  0  0  0  0  0  0  0  0  0  0
   -2.5351   17.1622  -33.5783 H   0  0  0  0  0  0  0  0  0  0  0  0
   -2.5574   19.2771  -34.8964 H   0  0  0  0  0  0  0  0  0  0  0  0
   -3.7831   20.5518  -34.4843 H   0  0  0  0  0  0  0  0  0  0  0  0
   -1.4866   20.9258  -33.5617 H   0  0  0  0  0  0  0  0  0  0  0  0
   -2.2030   18.2881  -32.2134 H   0  0  0  0  0  0  0  0  0  0  0  0
   -0.5828   18.9177  -32.7640 H   0  0  0  0  0  0  0  0  0  0  0  0
   -2.0170   19.4000  -30.2480 H   0  0  0  0  0  0  0  0  0  0  0  0
   -0.4367   21.1179  -29.7244 H   0  0  0  0  0  0  0  0  0  0  0  0
    0.1546   21.0184  -31.4323 H   0  0  0  0  0  0  0  0  0  0  0  0
   -2.2773   22.3222  -30.3211 H   0  0  0  0  0  0  0  0  0  0  0  0
   -1.3417   22.6454  -31.8471 H   0  0  0  0  0  0  0  0  0  0  0  0
   -3.1850   22.9041  -33.2462 H   0  0  0  0  0  0  0  0  0  0  0  0
   -4.5043   21.6225  -33.2506 H   0  0  0  0  0  0  0  0  0  0  0  0
   -5.3392   23.5862  -32.3101 H   0  0  0  0  0  0  0  0  0  0  0  0
   -5.7461   21.2334  -31.1554 H   0  0  0  0  0  0  0  0  0  0  0  0
   -4.9431   22.0723  -29.7452 H   0  0  0  0  0  0  0  0  0  0  0  0
   -6.7862   23.1896  -29.2378 H   0  0  0  0  0  0  0  0  0  0  0  0
   -7.2664   24.9893  -30.5392 H   0  0  0  0  0  0  0  0  0  0  0  0
   -6.2143   24.2790  -31.8101 H   0  0  0  0  0  0  0  0  0  0  0  0
   -7.9779   23.9380  -31.8101 H   0  0  0  0  0  0  0  0  0  0  0  0
   -8.3898   21.6199  -29.4164 H   0  0  0  0  0  0  0  0  0  0  0  0
   -8.8585   22.3972  -30.9665 H   0  0  0  0  0  0  0  0  0  0  0  0
   -7.7190   21.0086  -30.9665 H   0  0  0  0  0  0  0  0  0  0  0  0
   -2.8930   23.6530  -30.7490 H   0  0  0  0  0  0  0  0  0  0  0  0
   -4.8272   25.4545  -29.6421 H   0  0  0  0  0  0  0  0  0  0  0  0
   -5.0514   23.7013  -29.1904 H   0  0  0  0  0  0  0  0  0  0  0  0
   -3.3036   25.6022  -28.0934 H   0  0  0  0  0  0  0  0  0  0  0  0
   -3.0550   24.1581  -26.3701 H   0  0  0  0  0  0  0  0  0  0  0  0
   -4.5194   23.4395  -27.2277 H   0  0  0  0  0  0  0  0  0  0  0  0
   -1.0095   22.9094  -26.2215 H   0  0  0  0  0  0  0  0  0  0  0  0
    0.0885   20.6712  -26.3624 H   0  0  0  0  0  0  0  0  0  0  0  0
   -1.0330   18.8009  -27.5781 H   0  0  0  0  0  0  0  0  0  0  0  0
   -3.2446   19.1710  -28.6746 H   0  0  0  0  0  0  0  0  0  0  0  0
   -4.3518   21.4030  -28.5370 H   0  0  0  0  0  0  0  0  0  0  0  0
   -1.9100   24.5200  -30.0910 H   0  0  0  0  0  0  0  0  0  0  0  0
    0.0554   25.4299  -29.0717 H   0  0  0  0  0  0  0  0  0  0  0  0
   -1.3367   26.5592  -28.8998 H   0  0  0  0  0  0  0  0  0  0  0  0
    0.8354   24.0875  -27.1376 H   0  0  0  0  0  0  0  0  0  0  0  0
    1.0459   23.9880  -24.6546 H   0  0  0  0  0  0  0  0  0  0  0  0
   -0.4533   25.3723  -23.2150 H   0  0  0  0  0  0  0  0  0  0  0  0
   -2.1676   26.8573  -24.2598 H   0  0  0  0  0  0  0  0  0  0  0  0
   -2.3856   26.9613  -26.7436 H   0  0  0  0  0  0  0  0  0  0  0  0
   -5.4277   21.0440  -33.7542 H   0  0  0  0  0  0  0  0  0  0  0  0
   -7.8240   21.4270  -33.2062 H   0  0  0  0  0  0  0  0  0  0  0  0
   -9.2369   19.5586  -32.3659 H   0  0  0  0  0  0  0  0  0  0  0  0
   -8.2592   17.2879  -32.0642 H   0  0  0  0  0  0  0  0  0  0  0  0
   -6.3858   15.7775  -32.1990 H   0  0  0  0  0  0  0  0  0  0  0  0
  1  2  1  0
  2  3  2  0
  3  4  1  0
  4  5  1  0
  5  6  1  0
  6  7  1  0
  7  8  1  0
  8  9  1  0
  9 10  1  0
 10 11  1  0
 11 12  1  0
 12 13  1  0
 13 14  1  0
 14 15  1  0
 15 16  1  0
 15 17  1  0
 13 18  1  0
 18 19  1  0
 19 20  1  0
 20 21  1  0
 21 22  1  0
 22 23  2  0
 23 24  1  0
 24 25  2  0
 25 26  1  0
 26 27  2  0
 20 28  1  0
 28 29  1  0
 29 30  1  0
 30 31  2  0
 31 32  1  0
 32 33  2  0
 33 34  1  0
 34 35  2  0
  4 36  2  0
 36 37  1  0
 37 38  2  0
 38 39  1  0
 39 40  2  0
 40 41  1  0
 41 42  2  0
 42  2  1  0
 11  6  1  0
 27 22  1  0
 35 30  1  0
 41 36  1  0
  1 43  1  0
  1 44  1  0
  1 45  1  0
  3 46  1  0
  5 47  1  0
  5 48  1  0
  6 49  1  6
  7 50  1  0
  7 51  1  0
  8 52  1  0
  9 53  1  0
  9 54  1  0
 10 55  1  0
 10 56  1  0
 12 57  1  0
 12 58  1  0
 13 59  1  6
 14 60  1  0
 14 61  1  0
 15 62  1  0
 16 63  1  0
 16 64  1  0
 16 65  1  0
 17 66  1  0
 17 67  1  0
 17 68  1  0
 18 69  1  0
 19 70  1  0
 19 71  1  0
 20 72  1  1
 21 73  1  0
 21 74  1  0
 23 75  1  0
 24 76  1  0
 25 77  1  0
 26 78  1  0
 27 79  1  0
 28 80  1  0
 29 81  1  0
 29 82  1  0
 31 83  1  0
 32 84  1  0
 33 85  1  0
 34 86  1  0
 35 87  1  0
 37 88  1  0
 38 89  1  0
 39 90  1  0
 40 91  1  0
 42 92  1  0
M  END
>  <UniqueID>  (24) 
22

>  <SMILES>  (24) 
Cc1cc(C[C@@H]2CNCCN2C[C@@H](CC(C)C)NCC(Cc2ccccc2)NCc2ccccc2)c2ccccc2c1

>  <Energy>  (24) 
125.32370212316484

>  <Genealogy>  (24) 
Cc1cc(C[C@@H]2CNCCN2C[C@@H](CC(C)C)NCC(Cc2ccccc2)NCc2ccccc2)c2ccccc2c1 (chirality)
Cc1cc(C[C@@H]2CNCCN2C[C@@H](CC(C)C)NCC(Cc2ccccc2)NCc2ccccc2)c2ccccc2c1 (3D coordinates assigned)
Cc1cc(C[C@@H]2CNCCN2C[C@@H](CC(C)C)NCC(Cc2ccccc2)NCc2ccccc2)c2ccccc2c1 (nonaromatic ring conformer: 125.32370212316484 kcal/mol)

>  <smiles>  (24) 
Cc1cc(CC2CNCCN2CC(CC(C)C)NCC(Cc2ccccc2)NCc2ccccc2)c2ccccc2c1

>  <score_type>  (24) 
oracle

>  <origin>  (24) 
adg

>  <m_score__min__energy>  (24) 
-11.789999999999999

>  <m_primary>  (24) 
energy

$$$$
24:0
     RDKit          3D

 42 44  0  0  0  0  0  0  0  0999 V2000
   -6.4770   25.6820  -29.6960 C   0  0  0  0  0  0  0  0  0  0  0  0
   -5.9500   24.3500  -30.0110 N   0  0  0  0  0  0  0  0  0  0  0  0
   -6.7780   23.1640  -29.7660 C   0  0  0  0  0  0  0  0  0  0  0  0
   -4.6140   24.2390  -30.5510 C   0  0  0  0  0  0  0  0  0  0  0  0
   -3.9250   25.2820  -30.7200 O   0  0  0  0  0  0  0  0  0  0  0  0
   -3.9970   22.9130  -30.9200 C   0  0  0  0  0  0  0  0  0  0  0  0
   -2.6700   22.7570  -30.3200 N   0  0  0  0  0  0  0  0  0  0  0  0
   -1.5750   22.2460  -30.9340 C   0  0  0  0  0  0  0  0  0  0  0  0
   -0.4910   22.2240  -30.0650 C   0  0  0  0  0  0  0  0  0  0  0  0
   -0.9680   22.7310  -28.8760 C   0  0  0  0  0  0  0  0  0  0  0  0
   -0.3220   22.9250  -27.6580 C   0  0  0  0  0  0  0  0  0  0  0  0
   -1.0740   23.4450  -26.5830 C   0  0  0  0  0  0  0  0  0  0  0  0
   -0.4120   23.7150  -25.2600 C   0  0  0  0  0  0  0  0  0  0  0  0
   -0.4590   25.1860  -24.9520 C   0  0  0  0  0  0  0  0  0  0  0  0
   -0.8090   26.1060  -25.9510 C   0  0  0  0  0  0  0  0  0  0  0  0
   -0.8100   27.4700  -25.6600 C   0  0  0  0  0  0  0  0  0  0  0  0
   -0.4560   27.9080  -24.3830 C   0  0  0  0  0  0  0  0  0  0  0  0
   -0.0990   26.9680  -23.4150 C   0  0  0  0  0  0  0  0  0  0  0  0
   -0.1020   25.6390  -23.7140 N   0  0  0  0  0  0  0  0  0  0  0  0
   -2.4430   23.7620  -26.7700 C   0  0  0  0  0  0  0  0  0  0  0  0
   -3.0670   23.5510  -28.0130 C   0  0  0  0  0  0  0  0  0  0  0  0
   -2.2910   23.0390  -29.0560 C   0  0  0  0  0  0  0  0  0  0  0  0
   -6.5268   25.8079  -28.6044 H   0  0  0  0  0  0  0  0  0  0  0  0
   -5.8146   26.4490  -30.1237 H   0  0  0  0  0  0  0  0  0  0  0  0
   -7.4849   25.7881  -30.1237 H   0  0  0  0  0  0  0  0  0  0  0  0
   -6.8858   23.0096  -28.6822 H   0  0  0  0  0  0  0  0  0  0  0  0
   -7.7710   23.3107  -30.2160 H   0  0  0  0  0  0  0  0  0  0  0  0
   -6.2981   22.2824  -30.2160 H   0  0  0  0  0  0  0  0  0  0  0  0
   -4.6492   22.1026  -30.5624 H   0  0  0  0  0  0  0  0  0  0  0  0
   -3.8898   22.8729  -32.0140 H   0  0  0  0  0  0  0  0  0  0  0  0
   -1.5482   21.8968  -31.9767 H   0  0  0  0  0  0  0  0  0  0  0  0
    0.5301   21.8761  -30.2804 H   0  0  0  0  0  0  0  0  0  0  0  0
    0.7436   22.6801  -27.5371 H   0  0  0  0  0  0  0  0  0  0  0  0
   -0.9385   23.1603  -24.4693 H   0  0  0  0  0  0  0  0  0  0  0  0
    0.6377   23.3896  -25.3085 H   0  0  0  0  0  0  0  0  0  0  0  0
   -1.0809   25.7542  -26.9572 H   0  0  0  0  0  0  0  0  0  0  0  0
   -1.0891   28.1989  -26.4351 H   0  0  0  0  0  0  0  0  0  0  0  0
   -0.4583   28.9813  -24.1423 H   0  0  0  0  0  0  0  0  0  0  0  0
    0.1860   27.3018  -22.4064 H   0  0  0  0  0  0  0  0  0  0  0  0
    0.1780   24.9600  -22.9700 H   0  0  0  0  0  0  0  0  0  0  0  0
   -3.0240   24.1777  -25.9336 H   0  0  0  0  0  0  0  0  0  0  0  0
   -4.1325   23.7819  -28.1592 H   0  0  0  0  0  0  0  0  0  0  0  0
  1  2  1  0
  2  3  1  0
  2  4  1  0
  4  5  2  0
  4  6  1  0
  6  7  1  0
  7  8  1  0
  8  9  2  0
  9 10  1  0
 10 11  2  0
 11 12  1  0
 12 13  1  0
 13 14  1  0
 14 15  2  0
 15 16  1  0
 16 17  2  0
 17 18  1  0
 18 19  2  0
 12 20  2  0
 20 21  1  0
 21 22  2  0
 22  7  1  0
 22 10  1  0
 19 14  1  0
  1 23  1  0
  1 24  1  0
  1 25  1  0
  3 26  1  0
  3 27  1  0
  3 28  1  0
  6 29  1  0
  6 30  1  0
  8 31  1  0
  9 32  1  0
 11 33  1  0
 13 34  1  0
 13 35  1  0
 15 36  1  0
 16 37  1  0
 17 38  1  0
 18 39  1  0
 19 40  1  0
 20 41  1  0
 21 42  1  0
M  CHG  1  19   1
M  END
>  <UniqueID>  (25) 
23

>  <SMILES>  (25) 
CN(C)C(=O)Cn1ccc2cc(Cc3cccc[nH+]3)ccc21

>  <Energy>  (25) 
72.11417200760208

>  <Genealogy>  (25) 
CN(C)C(=O)Cn1ccc2cc(Cc3cccc[nH+]3)ccc21 (protonated)
CN(C)C(=O)Cn1ccc2cc(Cc3cccc[nH+]3)ccc21 (3D coordinates assigned)
CN(C)C(=O)Cn1ccc2cc(Cc3cccc[nH+]3)ccc21 (optimized conformer: 72.11417200760208 kcal/mol)

>  <smiles>  (25) 
CN(C)C(=O)Cn1ccc2cc(Cc3ccccn3)ccc21

>  <score_type>  (25) 
oracle

>  <origin>  (25) 
adg

>  <m_score__min__energy>  (25) 
-7.8399999999999999

>  <m_primary>  (25) 
energy

$$$$
25:0
     RDKit          3D

 41 43  0  0  0  0  0  0  0  0999 V2000
   -1.0165   23.3040  -28.6709 H   0  0  0  0  0  0  0  0  0  0  0  0
   -1.8340   23.3410  -29.4060 C   0  0  0  0  0  0  0  0  0  0  0  0
   -2.5740   24.4730  -29.5430 N   0  0  0  0  0  0  0  0  0  0  0  0
   -3.5870   24.5410  -30.4440 C   0  0  0  0  0  0  0  0  0  0  0  0
   -4.2760   25.6390  -30.5490 N   0  0  0  0  0  0  0  0  0  0  0  0
   -5.7290   25.7310  -30.4090 C   0  0  0  0  0  0  0  0  0  0  0  0
   -6.1776   25.8880  -31.4010 H   0  0  0  0  0  0  0  0  0  0  0  0
   -5.9662   26.5741  -29.7435 H   0  0  0  0  0  0  0  0  0  0  0  0
   -6.2970   24.4530  -29.8000 C   0  0  0  0  0  0  0  0  0  0  0  0
   -6.2654   24.5242  -28.7028 H   0  0  0  0  0  0  0  0  0  0  0  0
   -7.3384   24.3214  -30.1290 H   0  0  0  0  0  0  0  0  0  0  0  0
   -5.6969   23.5918  -30.1290 H   0  0  0  0  0  0  0  0  0  0  0  0
   -3.8710   23.4590  -31.2220 N   0  0  0  0  0  0  0  0  0  0  0  0
   -3.1600   22.3020  -31.1240 C   0  0  0  0  0  0  0  0  0  0  0  0
   -3.4980   21.1890  -31.9740 N   0  0  0  0  0  0  0  0  0  0  0  0
   -2.8700   20.9770  -33.2680 C   0  0  0  0  0  0  0  0  0  0  0  0
   -3.1227   21.7990  -33.9539 H   0  0  0  0  0  0  0  0  0  0  0  0
   -1.7738   20.9469  -33.1817 H   0  0  0  0  0  0  0  0  0  0  0  0
   -3.4220   19.6590  -33.7970 C   0  0  0  0  0  0  0  0  0  0  0  0
   -3.7425   19.7727  -34.8431 H   0  0  0  0  0  0  0  0  0  0  0  0
   -2.6595   18.8667  -33.7703 H   0  0  0  0  0  0  0  0  0  0  0  0
   -4.6250   19.3070  -32.9070 C   0  0  2  0  0  0  0  0  0  0  0  0
   -4.6085   18.2436  -32.6259 H   0  0  0  0  0  0  0  0  0  0  0  0
   -5.9190   19.4570  -33.6100 N   0  0  0  0  0  0  0  0  0  0  0  0
   -5.9020   18.8300  -34.4500 H   0  0  0  0  0  0  0  0  0  0  0  0
   -7.1220   19.1460  -32.8130 C   0  0  0  0  0  0  0  0  0  0  0  0
   -7.8116   18.5379  -33.4169 H   0  0  0  0  0  0  0  0  0  0  0  0
   -6.8237   18.5894  -31.9123 H   0  0  0  0  0  0  0  0  0  0  0  0
   -7.8070   20.4110  -32.4030 C   0  0  0  0  0  0  0  0  0  0  0  0
   -7.0880   21.9300  -32.3410 S   0  0  0  0  0  0  0  0  0  0  0  0
   -8.4430   22.7480  -31.7730 C   0  0  0  0  0  0  0  0  0  0  0  0
   -8.5024   23.8256  -31.5605 H   0  0  0  0  0  0  0  0  0  0  0  0
   -9.4740   21.8310  -31.6180 C   0  0  0  0  0  0  0  0  0  0  0  0
  -10.4757   22.1071  -31.2571 H   0  0  0  0  0  0  0  0  0  0  0  0
   -9.1190   20.5230  -31.9640 C   0  0  0  0  0  0  0  0  0  0  0  0
   -9.8096   19.6696  -31.8952 H   0  0  0  0  0  0  0  0  0  0  0  0
   -4.5060   20.1890  -31.6570 C   0  0  0  0  0  0  0  0  0  0  0  0
   -5.4691   20.6722  -31.4357 H   0  0  0  0  0  0  0  0  0  0  0  0
   -4.2284   19.6003  -30.7702 H   0  0  0  0  0  0  0  0  0  0  0  0
   -2.1110   22.2270  -30.1970 C   0  0  0  0  0  0  0  0  0  0  0  0
   -1.5176   21.3064  -30.0957 H   0  0  0  0  0  0  0  0  0  0  0  0
  1  2  1  0
  2  3  1  0
  3  4  1  0
  4  5  2  0
  5  6  1  0
  6  7  1  0
  6  8  1  0
  6  9  1  0
  9 10  1  0
  9 11  1  0
  9 12  1  0
  4 13  1  0
 13 14  2  0
 14 15  1  0
 15 16  1  0
 16 17  1  0
 16 18  1  0
 16 19  1  0
 19 20  1  0
 19 21  1  0
 19 22  1  0
 22 23  1  1
 22 24  1  0
 24 25  1  0
 24 26  1  0
 26 27  1  0
 26 28  1  0
 26 29  1  0
 29 30  1  0
 30 31  1  0
 31 32  1  0
 31 33  2  0
 33 34  1  0
 33 35  1  0
 35 36  1  0
 22 37  1  0
 37 38  1  0
 37 39  1  0
 14 40  1  0
 40 41  1  0
 40  2  2  0
 37 15  1  0
 35 29  2  0
M  CHG  1   3  -1
M  END
>  <UniqueID>  (26) 
24

>  <SMILES>  (26) 
CC/N=c1\nc(N2CC[C@H](NCc3cccs3)C2)cc[n-]1

>  <Energy>  (26) 
69.56652778499326

>  <Genealogy>  (26) 
CCN=c1nc(N2CCC(NCc3cccs3)C2)cc[n-]1 (protonated)
CCN=c1nc(N2CC[C@H](NCc3cccs3)C2)cc[n-]1 (chirality)
CC/N=c1\nc(N2CC[C@H](NCc3cccs3)C2)cc[n-]1 (cis-trans isomerization)
CC/N=c1\nc(N2CC[C@H](NCc3cccs3)C2)cc[n-]1 (3D coordinates assigned)
CC/N=c1\nc(N2CC[C@H](NCc3cccs3)C2)cc[n-]1 (nonaromatic ring conformer: 69.56652778499326 kcal/mol)

>  <smiles>  (26) 
CCN=c1nc(N2CCC(NCc3cccs3)C2)cc[nH]1

>  <score_type>  (26) 
oracle

>  <origin>  (26) 
adg

>  <m_score__min__energy>  (26) 
-8.9299999999999997

>  <m_primary>  (26) 
energy

$$$$
26:0
     RDKit          3D

 33 34  0  0  0  0  0  0  0  0999 V2000
   -2.3100   24.5300  -28.6870 C   0  0  0  0  0  0  0  0  0  0  0  0
   -3.3890   24.3460  -29.6990 C   0  0  0  0  0  0  0  0  0  0  0  0
   -4.0720   23.1770  -29.9550 C   0  0  0  0  0  0  0  0  0  0  0  0
   -4.9740   23.5450  -30.9300 C   0  0  0  0  0  0  0  0  0  0  0  0
   -6.0330   22.6660  -31.5140 C   0  0  0  0  0  0  0  0  0  0  0  0
   -6.9290   23.4430  -32.3840 N   0  0  0  0  0  0  0  0  0  0  0  0
   -8.3460   23.3340  -31.9950 C   0  0  0  0  0  0  0  0  0  0  0  0
   -8.6040   22.0610  -31.1740 C   0  0  0  0  0  0  0  0  0  0  0  0
   -9.3120   20.9560  -31.9750 C   0  0  0  0  0  0  0  0  0  0  0  0
   -8.4050   19.8490  -32.2720 N   0  0  0  0  0  0  0  0  0  0  0  0
   -7.3210   19.8870  -33.0700 C   0  0  0  0  0  0  0  0  0  0  0  0
   -6.7450   18.6340  -33.0700 C   0  0  0  0  0  0  0  0  0  0  0  0
   -7.4720   17.8280  -32.2740 N   0  0  0  0  0  0  0  0  0  0  0  0
   -8.4740   18.5900  -31.7990 C   0  0  0  0  0  0  0  0  0  0  0  0
   -4.8310   24.8530  -31.2190 N   0  0  0  0  0  0  0  0  0  0  0  0
   -3.8690   25.2990  -30.4630 O   0  0  0  0  0  0  0  0  0  0  0  0
   -2.7386   24.4569  -27.6766 H   0  0  0  0  0  0  0  0  0  0  0  0
   -1.5466   23.7491  -28.8188 H   0  0  0  0  0  0  0  0  0  0  0  0
   -1.8486   25.5198  -28.8188 H   0  0  0  0  0  0  0  0  0  0  0  0
   -3.9313   22.1888  -29.4928 H   0  0  0  0  0  0  0  0  0  0  0  0
   -5.5566   21.8696  -32.1047 H   0  0  0  0  0  0  0  0  0  0  0  0
   -6.6239   22.2305  -30.6948 H   0  0  0  0  0  0  0  0  0  0  0  0
   -6.6480   24.4480  -32.2960 H   0  0  0  0  0  0  0  0  0  0  0  0
   -8.6201   24.2115  -31.3910 H   0  0  0  0  0  0  0  0  0  0  0  0
   -8.9542   23.2857  -32.9103 H   0  0  0  0  0  0  0  0  0  0  0  0
   -7.6380   21.6717  -30.8200 H   0  0  0  0  0  0  0  0  0  0  0  0
   -9.2682   22.3379  -30.3421 H   0  0  0  0  0  0  0  0  0  0  0  0
  -10.1607   20.5757  -31.3875 H   0  0  0  0  0  0  0  0  0  0  0  0
   -9.6578   21.3855  -32.9268 H   0  0  0  0  0  0  0  0  0  0  0  0
   -6.9582   20.7646  -33.6251 H   0  0  0  0  0  0  0  0  0  0  0  0
   -5.8426   18.3421  -33.6272 H   0  0  0  0  0  0  0  0  0  0  0  0
   -7.2960   16.8190  -32.0710 H   0  0  0  0  0  0  0  0  0  0  0  0
   -9.2524   18.2296  -31.1103 H   0  0  0  0  0  0  0  0  0  0  0  0
  1  2  1  0
  2  3  2  0
  3  4  1  0
  4  5  1  0
  5  6  1  0
  6  7  1  0
  7  8  1  0
  8  9  1  0
  9 10  1  0
 10 11  1  0
 11 12  2  0
 12 13  1  0
 13 14  2  0
  4 15  2  0
 15 16  1  0
 16  2  1  0
 14 10  1  0
  1 17  1  0
  1 18  1  0
  1 19  1  0
  3 20  1  0
  5 21  1  0
  5 22  1  0
  6 23  1  0
  7 24  1  0
  7 25  1  0
  8 26  1  0
  8 27  1  0
  9 28  1  0
  9 29  1  0
 11 30  1  0
 12 31  1  0
 13 32  1  0
 14 33  1  0
M  CHG  1  13   1
M  END
>  <UniqueID>  (27) 
25

>  <SMILES>  (27) 
Cc1cc(CNCCCn2cc[nH+]c2)no1

>  <Energy>  (27) 
84.99409121460666

>  <Genealogy>  (27) 
Cc1cc(CNCCCn2cc[nH+]c2)no1 (protonated)
Cc1cc(CNCCCn2cc[nH+]c2)no1 (3D coordinates assigned)
Cc1cc(CNCCCn2cc[nH+]c2)no1 (optimized conformer: 84.99409121460666 kcal/mol)

>  <smiles>  (27) 
Cc1cc(CNCCCn2ccnc2)no1

>  <score_type>  (27) 
oracle

>  <origin>  (27) 
adg

>  <m_score__min__energy>  (27) 
-6.9400000000000004

>  <m_primary>  (27) 
energy

$$$$
27:0
     RDKit          3D

 59 60  0  0  0  0  0  0  0  0999 V2000
   -6.0940   18.6240  -34.5240 C   0  0  0  0  0  0  0  0  0  0  0  0
   -5.6520   19.2120  -33.1830 C   0  0  0  0  0  0  0  0  0  0  0  0
   -6.6600   19.0620  -32.1100 N   0  0  0  0  0  0  0  0  0  0  0  0
   -6.6990   17.7260  -31.4650 C   0  0  0  0  0  0  0  0  0  0  0  0
   -5.6630   16.7190  -31.9860 C   0  0  0  0  0  0  0  0  0  0  0  0
   -7.9570   19.7230  -32.3860 C   0  0  0  0  0  0  0  0  0  0  0  0
   -7.9500   21.1780  -31.8910 C   0  0  0  0  0  0  0  0  0  0  0  0
   -6.6560   21.5520  -31.3210 N   0  0  0  0  0  0  0  0  0  0  0  0
   -6.2520   22.9060  -31.0190 C   0  0  0  0  0  0  0  0  0  0  0  0
   -7.1480   23.8330  -30.4530 C   0  0  0  0  0  0  0  0  0  0  0  0
   -6.7310   25.1340  -30.1740 C   0  0  0  0  0  0  0  0  0  0  0  0
   -5.4220   25.5110  -30.4600 C   0  0  0  0  0  0  0  0  0  0  0  0
   -4.5580   24.6150  -31.0070 N   0  0  0  0  0  0  0  0  0  0  0  0
   -4.9340   23.3360  -31.2890 C   0  0  0  0  0  0  0  0  0  0  0  0
   -3.9720   22.4370  -31.8560 N   0  0  0  0  0  0  0  0  0  0  0  0
   -4.0870   22.0700  -33.2690 C   0  0  0  0  0  0  0  0  0  0  0  0
   -3.0740   20.9850  -33.6530 C   0  0  0  0  0  0  0  0  0  0  0  0
   -1.7330   21.3150  -33.1430 N   0  0  0  0  0  0  0  0  0  0  0  0
   -0.5430   20.9950  -33.8940 C   0  0  0  0  0  0  0  0  0  0  0  0
    0.5100   21.6630  -33.6940 O   0  0  0  0  0  0  0  0  0  0  0  0
   -0.5170   19.8800  -34.9170 C   0  0  0  0  0  0  0  0  0  0  0  0
   -0.3160   18.5230  -34.2330 C   0  0  0  0  0  0  0  0  0  0  0  0
    0.5860   20.1330  -35.9490 C   0  0  0  0  0  0  0  0  0  0  0  0
   -1.5750   21.9210  -31.8110 C   0  0  0  0  0  0  0  0  0  0  0  0
   -2.8870   21.9140  -31.0230 C   0  0  0  0  0  0  0  0  0  0  0  0
   -6.7463   17.7562  -34.3467 H   0  0  0  0  0  0  0  0  0  0  0  0
   -6.6447   19.3861  -35.0949 H   0  0  0  0  0  0  0  0  0  0  0  0
   -5.2089   18.3068  -35.0949 H   0  0  0  0  0  0  0  0  0  0  0  0
   -4.7294   18.7031  -32.8672 H   0  0  0  0  0  0  0  0  0  0  0  0
   -5.5026   20.2909  -33.3371 H   0  0  0  0  0  0  0  0  0  0  0  0
   -6.5283   17.8632  -30.3870 H   0  0  0  0  0  0  0  0  0  0  0  0
   -7.6852   17.3005  -31.7025 H   0  0  0  0  0  0  0  0  0  0  0  0
   -5.1634   16.2334  -31.1348 H   0  0  0  0  0  0  0  0  0  0  0  0
   -6.1678   15.9572  -32.5982 H   0  0  0  0  0  0  0  0  0  0  0  0
   -4.9158   17.2452  -32.5982 H   0  0  0  0  0  0  0  0  0  0  0  0
   -8.1424   19.7128  -33.4702 H   0  0  0  0  0  0  0  0  0  0  0  0
   -8.7494   19.1758  -31.8543 H   0  0  0  0  0  0  0  0  0  0  0  0
   -8.1714   21.8434  -32.7385 H   0  0  0  0  0  0  0  0  0  0  0  0
   -8.7113   21.2745  -31.1029 H   0  0  0  0  0  0  0  0  0  0  0  0
   -5.9610   20.7800  -31.2050 H   0  0  0  0  0  0  0  0  0  0  0  0
   -8.1815   23.5295  -30.2299 H   0  0  0  0  0  0  0  0  0  0  0  0
   -7.4315   25.8572  -29.7310 H   0  0  0  0  0  0  0  0  0  0  0  0
   -5.0859   26.5357  -30.2431 H   0  0  0  0  0  0  0  0  0  0  0  0
   -3.5800   24.9200  -31.2110 H   0  0  0  0  0  0  0  0  0  0  0  0
   -5.1030   21.6935  -33.4588 H   0  0  0  0  0  0  0  0  0  0  0  0
   -3.8807   22.9643  -33.8753 H   0  0  0  0  0  0  0  0  0  0  0  0
   -3.3958   20.0241  -33.2251 H   0  0  0  0  0  0  0  0  0  0  0  0
   -3.0269   20.9202  -34.7501 H   0  0  0  0  0  0  0  0  0  0  0  0
   -1.4858   19.8606  -35.4377 H   0  0  0  0  0  0  0  0  0  0  0  0
   -0.3357   18.6562  -33.1413 H   0  0  0  0  0  0  0  0  0  0  0  0
   -1.1225   17.8379  -34.5334 H   0  0  0  0  0  0  0  0  0  0  0  0
    0.6544   18.1011  -34.5334 H   0  0  0  0  0  0  0  0  0  0  0  0
    1.5312   20.3498  -35.4298 H   0  0  0  0  0  0  0  0  0  0  0  0
    0.7103   19.2400  -36.5792 H   0  0  0  0  0  0  0  0  0  0  0  0
    0.3087   20.9909  -36.5792 H   0  0  0  0  0  0  0  0  0  0  0  0
   -0.8192   21.3528  -31.2489 H   0  0  0  0  0  0  0  0  0  0  0  0
   -1.2637   22.9673  -31.9466 H   0  0  0  0  0  0  0  0  0  0  0  0
   -3.1245   20.8838  -30.7194 H   0  0  0  0  0  0  0  0  0  0  0  0
   -2.7771   22.5487  -30.1313 H   0  0  0  0  0  0  0  0  0  0  0  0
  1  2  1  0
  2  3  1  0
  3  4  1  0
  4  5  1  0
  3  6  1  0
  6  7  1  0
  7  8  1  0
  8  9  1  0
  9 10  2  0
 10 11  1  0
 11 12  2  0
 12 13  1  0
 13 14  2  0
 14 15  1  0
 15 16  1  0
 16 17  1  0
 17 18  1  0
 18 19  1  0
 19 20  2  0
 19 21  1  0
 21 22  1  0
 21 23  1  0
 18 24  1  0
 24 25  1  0
 14  9  1  0
 25 15  1  0
  1 26  1  0
  1 27  1  0
  1 28  1  0
  2 29  1  0
  2 30  1  0
  4 31  1  0
  4 32  1  0
  5 33  1  0
  5 34  1  0
  5 35  1  0
  6 36  1  0
  6 37  1  0
  7 38  1  0
  7 39  1  0
  8 40  1  0
 10 41  1  0
 11 42  1  0
 12 43  1  0
 13 44  1  0
 16 45  1  0
 16 46  1  0
 17 47  1  0
 17 48  1  0
 21 49  1  0
 22 50  1  0
 22 51  1  0
 22 52  1  0
 23 53  1  0
 23 54  1  0
 23 55  1  0
 24 56  1  0
 24 57  1  0
 25 58  1  0
 25 59  1  0
M  CHG  1  13   1
M  END
>  <UniqueID>  (28) 
26

>  <SMILES>  (28) 
CCN(CC)CCNc1ccc[nH+]c1N1CCN(C(=O)C(C)C)CC1

>  <Energy>  (28) 
63.2445583308211

>  <Genealogy>  (28) 
CCN(CC)CCNc1ccc[nH+]c1N1CCN(C(=O)C(C)C)CC1 (protonated)
CCN(CC)CCNc1ccc[nH+]c1N1CCN(C(=O)C(C)C)CC1 (3D coordinates assigned)
CCN(CC)CCNc1ccc[nH+]c1N1CCN(C(=O)C(C)C)CC1 (nonaromatic ring conformer: 63.2445583308211 kcal/mol)

>  <smiles>  (28) 
CCN(CC)CCNc1cccnc1N1CCN(C(=O)C(C)C)CC1

>  <score_type>  (28) 
oracle

>  <origin>  (28) 
adg

>  <m_score__min__energy>  (28) 
-6.9100000000000001

>  <m_primary>  (28) 
energy

$$$$
28:0
     RDKit          3D

 31 32  0  0  0  0  0  0  0  0999 V2000
   -1.9550   22.0040  -31.6350 O   0  0  0  0  0  0  0  0  0  0  0  0
   -2.5180   22.6290  -30.6970 C   0  0  0  0  0  0  0  0  0  0  0  0
   -3.8570   23.2270  -30.8730 C   0  0  0  0  0  0  0  0  0  0  0  0
   -4.8920   22.4950  -31.4840 C   0  0  0  0  0  0  0  0  0  0  0  0
   -6.1720   23.0550  -31.6510 C   0  0  0  0  0  0  0  0  0  0  0  0
   -7.2890   22.2780  -32.3290 C   0  0  2  0  0  0  0  0  0  0  0  0
   -8.6920   22.7960  -31.9660 C   0  0  0  0  0  0  0  0  0  0  0  0
   -9.4940   21.5910  -31.4810 C   0  0  0  0  0  0  0  0  0  0  0  0
   -8.7370   20.3620  -31.9550 C   0  0  0  0  0  0  0  0  0  0  0  0
   -7.2740   20.7860  -31.9500 C   0  0  1  0  0  0  0  0  0  0  0  0
   -6.3830   19.9240  -32.8640 C   0  0  0  0  0  0  0  0  0  0  0  0
   -6.7670   20.0280  -34.2110 O   0  0  0  0  0  0  0  0  0  0  0  0
   -6.4020   24.3690  -31.2130 C   0  0  0  0  0  0  0  0  0  0  0  0
   -5.3810   25.1020  -30.6070 C   0  0  0  0  0  0  0  0  0  0  0  0
   -4.1130   24.5390  -30.4340 C   0  0  0  0  0  0  0  0  0  0  0  0
   -3.1160   25.2940  -29.8260 O   0  0  0  0  0  0  0  0  0  0  0  0
   -2.0034   22.7311  -29.7302 H   0  0  0  0  0  0  0  0  0  0  0  0
   -4.6977   21.4711  -31.8358 H   0  0  0  0  0  0  0  0  0  0  0  0
   -7.0956   22.4186  -33.4027 H   0  0  0  0  0  0  0  0  0  0  0  0
   -8.6227   23.5507  -31.1688 H   0  0  0  0  0  0  0  0  0  0  0  0
   -9.1753   23.2691  -32.8336 H   0  0  0  0  0  0  0  0  0  0  0  0
   -9.5643   21.5961  -30.3833 H   0  0  0  0  0  0  0  0  0  0  0  0
  -10.5209   21.6070  -31.8750 H   0  0  0  0  0  0  0  0  0  0  0  0
   -8.8989   19.5176  -31.2688 H   0  0  0  0  0  0  0  0  0  0  0  0
   -9.0699   20.0241  -32.9475 H   0  0  0  0  0  0  0  0  0  0  0  0
   -6.8149   20.6323  -30.9623 H   0  0  0  0  0  0  0  0  0  0  0  0
   -5.3400   20.2587  -32.7637 H   0  0  0  0  0  0  0  0  0  0  0  0
   -6.4909   18.8734  -32.5566 H   0  0  0  0  0  0  0  0  0  0  0  0
   -7.7430   19.8470  -34.2500 H   0  0  0  0  0  0  0  0  0  0  0  0
   -7.3943   24.8239  -31.3486 H   0  0  0  0  0  0  0  0  0  0  0  0
   -5.5749   26.1288  -30.2634 H   0  0  0  0  0  0  0  0  0  0  0  0
  1  2  2  0
  2  3  1  0
  3  4  2  0
  4  5  1  0
  5  6  1  0
  6  7  1  0
  7  8  1  0
  8  9  1  0
  9 10  1  0
 10 11  1  0
 11 12  1  0
  5 13  2  0
 13 14  1  0
 14 15  2  0
 15 16  1  0
 15  3  1  0
 10  6  1  0
  2 17  1  0
  4 18  1  0
  6 19  1  6
  7 20  1  0
  7 21  1  0
  8 22  1  0
  8 23  1  0
  9 24  1  0
  9 25  1  0
 10 26  1  1
 11 27  1  0
 11 28  1  0
 12 29  1  0
 13 30  1  0
 14 31  1  0
M  CHG  1  16  -1
M  END
>  <UniqueID>  (29) 
27

>  <SMILES>  (29) 
O=Cc1cc([C@@H]2CCC[C@H]2CO)ccc1[O-]

>  <Energy>  (29) 
32.848957060538176

>  <Genealogy>  (29) 
O=Cc1cc(C2CCCC2CO)ccc1[O-] (protonated)
O=Cc1cc([C@@H]2CCC[C@H]2CO)ccc1[O-] (chirality)
O=Cc1cc([C@@H]2CCC[C@H]2CO)ccc1[O-] (3D coordinates assigned)
O=Cc1cc([C@@H]2CCC[C@H]2CO)ccc1[O-] (nonaromatic ring conformer: 32.848957060538176 kcal/mol)

>  <smiles>  (29) 
O=Cc1cc(C2CCCC2CO)ccc1O

>  <score_type>  (29) 
oracle

>  <origin>  (29) 
adg

>  <m_score__min__energy>  (29) 
-9.9900000000000002

>  <m_primary>  (29) 
energy

$$$$
29:0
     RDKit          3D

 41 44  0  0  0  0  0  0  0  0999 V2000
    0.1615   24.6985  -26.4622 H   0  0  0  0  0  0  0  0  0  0  0  0
   -0.7440   24.7450  -27.0850 C   0  0  0  0  0  0  0  0  0  0  0  0
   -2.2530   24.1090  -26.6860 S   0  0  0  0  0  0  0  0  0  0  0  0
   -2.9600   24.6160  -28.1190 C   0  0  0  0  0  0  0  0  0  0  0  0
   -4.2090   24.4110  -28.4140 N   0  0  0  0  0  0  0  0  0  0  0  0
   -4.9330   24.7740  -29.9490 S   0  0  0  0  0  0  0  0  0  0  0  0
   -6.0080   25.8060  -29.7480 O   0  0  0  0  0  0  0  0  0  0  0  0
   -3.8800   25.3340  -30.8620 O   0  0  0  0  0  0  0  0  0  0  0  0
   -5.6020   23.3140  -30.6780 C   0  0  0  0  0  0  0  0  0  0  0  0
   -6.9910   23.1350  -30.7320 C   0  0  0  0  0  0  0  0  0  0  0  0
   -7.6590   23.9058  -30.3202 H   0  0  0  0  0  0  0  0  0  0  0  0
   -7.5310   21.9810  -31.3070 C   0  0  0  0  0  0  0  0  0  0  0  0
   -6.6910   21.0030  -31.8670 C   0  0  0  0  0  0  0  0  0  0  0  0
   -5.2960   21.1690  -31.7780 C   0  0  0  0  0  0  0  0  0  0  0  0
   -4.6265   20.3920  -32.1756 H   0  0  0  0  0  0  0  0  0  0  0  0
   -4.7560   22.3160  -31.1870 C   0  0  0  0  0  0  0  0  0  0  0  0
   -3.4080   22.4490  -31.1140 F   0  0  0  0  0  0  0  0  0  0  0  0
   -7.2940   19.8550  -32.5120 N   0  0  0  0  0  0  0  0  0  0  0  0
   -6.4980   18.8570  -33.1690 C   0  0  0  0  0  0  0  0  0  0  0  0
   -6.1120   19.0260  -34.5060 C   0  0  0  0  0  0  0  0  0  0  0  0
   -6.4103   19.9325  -35.0531 H   0  0  0  0  0  0  0  0  0  0  0  0
   -5.3490   18.0450  -35.1450 C   0  0  0  0  0  0  0  0  0  0  0  0
   -5.0431   18.1833  -36.1925 H   0  0  0  0  0  0  0  0  0  0  0  0
   -4.9740   16.8890  -34.4560 C   0  0  0  0  0  0  0  0  0  0  0  0
   -4.3714   16.1195  -34.9607 H   0  0  0  0  0  0  0  0  0  0  0  0
   -5.3650   16.7090  -33.1220 C   0  0  0  0  0  0  0  0  0  0  0  0
   -4.9830   15.5160  -32.4130 C   0  0  0  0  0  0  0  0  0  0  0  0
   -4.6770   14.5560  -31.8430 N   0  0  0  0  0  0  0  0  0  0  0  0
   -6.1300   17.6930  -32.4800 C   0  0  0  0  0  0  0  0  0  0  0  0
   -6.4417   17.5515  -31.4346 H   0  0  0  0  0  0  0  0  0  0  0  0
   -8.7440   19.8390  -32.7500 C   0  0  0  0  0  0  0  0  0  0  0  0
   -8.9622   20.3730  -33.6866 H   0  0  0  0  0  0  0  0  0  0  0  0
   -9.0796   18.7938  -32.8198 H   0  0  0  0  0  0  0  0  0  0  0  0
   -9.4880   20.5190  -31.5990 C   0  0  0  0  0  0  0  0  0  0  0  0
  -10.5452   20.6461  -31.8751 H   0  0  0  0  0  0  0  0  0  0  0  0
   -9.4063   19.8910  -30.6996 H   0  0  0  0  0  0  0  0  0  0  0  0
   -8.9160   21.7970  -31.3260 O   0  0  0  0  0  0  0  0  0  0  0  0
   -2.0730   25.2650  -28.9100 N   0  0  0  0  0  0  0  0  0  0  0  0
   -2.2830   25.6710  -29.8480 H   0  0  0  0  0  0  0  0  0  0  0  0
   -0.8430   25.3390  -28.3390 C   0  0  0  0  0  0  0  0  0  0  0  0
    0.0095   25.8308  -28.8303 H   0  0  0  0  0  0  0  0  0  0  0  0
  1  2  1  0
  2  3  1  0
  3  4  1  0
  4  5  2  0
  5  6  1  0
  6  7  2  0
  6  8  2  0
  6  9  1  0
  9 10  2  0
 10 11  1  0
 10 12  1  0
 12 13  2  0
 13 14  1  0
 14 15  1  0
 14 16  2  0
 16 17  1  0
 13 18  1  0
 18 19  1  0
 19 20  2  0
 20 21  1  0
 20 22  1  0
 22 23  1  0
 22 24  2  0
 24 25  1  0
 24 26  1  0
 26 27  1  0
 27 28  3  0
 26 29  2  0
 29 30  1  0
 18 31  1  0
 31 32  1  0
 31 33  1  0
 31 34  1  0
 34 35  1  0
 34 36  1  0
 34 37  1  0
  4 38  1  0
 38 39  1  0
 38 40  1  0
 40 41  1  0
 40  2  2  0
 16  9  1  0
 29 19  1  0
 37 12  1  0
M  END
>  <UniqueID>  (30) 
28

>  <SMILES>  (30) 
N#Cc1cccc(N2CCOc3cc(S(=O)(=O)/N=c4\[nH]ccs4)c(F)cc32)c1

>  <Energy>  (30) 
86.74972092289741

>  <Genealogy>  (30) 
N#Cc1cccc(N2CCOc3cc(S(=O)(=O)/N=c4\[nH]ccs4)c(F)cc32)c1 (cis-trans isomerization)
N#Cc1cccc(N2CCOc3cc(S(=O)(=O)/N=c4\[nH]ccs4)c(F)cc32)c1 (3D coordinates assigned)
N#Cc1cccc(N2CCOc3cc(S(=O)(=O)/N=c4\[nH]ccs4)c(F)cc32)c1 (nonaromatic ring conformer: 86.74972092289741 kcal/mol)

>  <smiles>  (30) 
N#Cc1cccc(N2CCOc3cc(S(=O)(=O)N=c4[nH]ccs4)c(F)cc32)c1

>  <score_type>  (30) 
oracle

>  <origin>  (30) 
adg

>  <m_score__min__energy>  (30) 
-10.07

>  <m_primary>  (30) 
energy

$$$$
30:0
     RDKit          3D

 43 45  0  0  0  0  0  0  0  0999 V2000
   -2.5100   24.5490  -28.1460 C   0  0  0  0  0  0  0  0  0  0  0  0
   -2.9330   25.1170  -29.3810 O   0  0  0  0  0  0  0  0  0  0  0  0
   -3.9570   24.5930  -30.1850 C   0  0  0  0  0  0  0  0  0  0  0  0
   -5.2250   25.1930  -30.2750 C   0  0  0  0  0  0  0  0  0  0  0  0
   -6.2140   24.6310  -31.0830 C   0  0  0  0  0  0  0  0  0  0  0  0
   -5.9460   23.4640  -31.8090 C   0  0  0  0  0  0  0  0  0  0  0  0
   -4.6850   22.8570  -31.7420 C   0  0  0  0  0  0  0  0  0  0  0  0
   -3.6940   23.4280  -30.9190 C   0  0  0  0  0  0  0  0  0  0  0  0
   -4.4970   21.6130  -32.6020 C   0  0  1  0  0  0  0  0  0  0  0  0
   -3.1710   20.8390  -32.3780 C   0  0  0  0  0  0  0  0  0  0  0  0
   -2.4020   20.5870  -33.6850 C   0  0  0  0  0  0  0  0  0  0  0  0
   -1.3790   21.5320  -33.8490 O   0  0  0  0  0  0  0  0  0  0  0  0
   -5.7130   20.6680  -32.3890 C   0  0  0  0  0  0  0  0  0  0  0  0
   -7.0560   21.3450  -32.3880 N   0  0  1  0  0  0  0  0  0  0  0  0
   -7.7780   21.0610  -31.1210 C   0  0  0  0  0  0  0  0  0  0  0  0
   -8.7430   19.8660  -31.2530 C   0  0  0  0  0  0  0  0  0  0  0  0
   -9.3860   19.7420  -32.6280 C   0  0  0  0  0  0  0  0  0  0  0  0
   -8.3170   18.7520  -32.2000 C   0  0  0  0  0  0  0  0  0  0  0  0
   -6.9930   22.8060  -32.6630 C   0  0  0  0  0  0  0  0  0  0  0  0
   -2.9384   25.1243  -27.3120 H   0  0  0  0  0  0  0  0  0  0  0  0
   -2.8527   23.5055  -28.0859 H   0  0  0  0  0  0  0  0  0  0  0  0
   -1.4120   24.5784  -28.0859 H   0  0  0  0  0  0  0  0  0  0  0  0
   -5.4385   26.1098  -29.7058 H   0  0  0  0  0  0  0  0  0  0  0  0
   -7.2045   25.1048  -31.1497 H   0  0  0  0  0  0  0  0  0  0  0  0
   -2.7034   22.9545  -30.8518 H   0  0  0  0  0  0  0  0  0  0  0  0
   -4.4345   21.9697  -33.6407 H   0  0  0  0  0  0  0  0  0  0  0  0
   -2.5318   21.4249  -31.7012 H   0  0  0  0  0  0  0  0  0  0  0  0
   -3.4272   19.8588  -31.9495 H   0  0  0  0  0  0  0  0  0  0  0  0
   -1.9615   19.5795  -33.6561 H   0  0  0  0  0  0  0  0  0  0  0  0
   -3.1019   20.6738  -34.5292 H   0  0  0  0  0  0  0  0  0  0  0  0
   -1.5580   22.0010  -34.7050 H   0  0  0  0  0  0  0  0  0  0  0  0
   -5.7090   19.9206  -33.1961 H   0  0  0  0  0  0  0  0  0  0  0  0
   -5.5896   20.2319  -31.3867 H   0  0  0  0  0  0  0  0  0  0  0  0
   -7.6190   20.9190  -33.1640 H   0  0  0  0  0  0  0  0  0  0  0  0
   -7.0406   20.8353  -30.3366 H   0  0  0  0  0  0  0  0  0  0  0  0
   -8.3750   21.9494  -30.8674 H   0  0  0  0  0  0  0  0  0  0  0  0
   -9.0932   19.8934  -30.2106 H   0  0  0  0  0  0  0  0  0  0  0  0
  -10.4327   19.4161  -32.7180 H   0  0  0  0  0  0  0  0  0  0  0  0
   -9.5218   20.4165  -33.4862 H   0  0  0  0  0  0  0  0  0  0  0  0
   -8.5898   17.7093  -31.9802 H   0  0  0  0  0  0  0  0  0  0  0  0
   -7.3585   18.4131  -32.6201 H   0  0  0  0  0  0  0  0  0  0  0  0
   -6.7451   22.9633  -33.7231 H   0  0  0  0  0  0  0  0  0  0  0  0
   -7.9710   23.2518  -32.4288 H   0  0  0  0  0  0  0  0  0  0  0  0
  1  2  1  0
  2  3  1  0
  3  4  2  0
  4  5  1  0
  5  6  2  0
  6  7  1  0
  7  8  2  0
  7  9  1  0
  9 10  1  0
 10 11  1  0
 11 12  1  0
  9 13  1  0
 13 14  1  0
 14 15  1  0
 15 16  1  0
 16 17  1  0
 17 18  1  0
 14 19  1  0
  8  3  1  0
 18 16  1  0
 19  6  1  0
  1 20  1  0
  1 21  1  0
  1 22  1  0
  4 23  1  0
  5 24  1  0
  8 25  1  0
  9 26  1  6
 10 27  1  0
 10 28  1  0
 11 29  1  0
 11 30  1  0
 12 31  1  0
 13 32  1  0
 13 33  1  0
 14 34  1  6
 15 35  1  0
 15 36  1  0
 16 37  1  0
 17 38  1  0
 17 39  1  0
 18 40  1  0
 18 41  1  0
 19 42  1  0
 19 43  1  0
M  CHG  1  14   1
M  END
>  <UniqueID>  (31) 
29

>  <SMILES>  (31) 
COc1ccc2c(c1)[C@@H](CCO)C[N@@H+](CC1CC1)C2

>  <Energy>  (31) 
320.96747031859377

>  <Genealogy>  (31) 
COc1ccc2c(c1)C(CCO)C[NH+](CC1CC1)C2 (protonated)
COc1ccc2c(c1)[C@@H](CCO)C[N@@H+](CC1CC1)C2 (chirality)
COc1ccc2c(c1)[C@@H](CCO)C[N@@H+](CC1CC1)C2 (3D coordinates assigned)
COc1ccc2c(c1)[C@@H](CCO)C[N@@H+](CC1CC1)C2 (nonaromatic ring conformer: 320.96747031859377 kcal/mol)

>  <smiles>  (31) 
COc1ccc2c(c1)C(CCO)CN(CC1CC1)C2

>  <score_type>  (31) 
oracle

>  <origin>  (31) 
adg

>  <m_score__min__energy>  (31) 
-6.7999999999999998

>  <m_primary>  (31) 
energy

$$$$
31:0
     RDKit          3D

 38 40  0  0  0  0  0  0  0  0999 V2000
   -0.4880   21.2180  -34.4700 C   0  0  0  0  0  0  0  0  0  0  0  0
   -0.8540   20.9730  -33.0360 C   0  0  0  0  0  0  0  0  0  0  0  0
    0.1320   21.0410  -32.0990 N   0  0  0  0  0  0  0  0  0  0  0  0
   -0.1020   20.8130  -30.7820 C   0  0  0  0  0  0  0  0  0  0  0  0
   -1.3840   20.4880  -30.3470 C   0  0  0  0  0  0  0  0  0  0  0  0
   -2.4190   20.4010  -31.2770 C   0  0  0  0  0  0  0  0  0  0  0  0
   -2.1730   20.6430  -32.6390 C   0  0  0  0  0  0  0  0  0  0  0  0
   -3.3120   20.5160  -33.6300 C   0  0  0  0  0  0  0  0  0  0  0  0
   -4.5830   20.9710  -33.0330 N   0  0  0  0  0  0  0  0  0  0  0  0
   -4.5710   22.0800  -32.2810 N   0  0  0  0  0  0  0  0  0  0  0  0
   -5.6900   22.5770  -31.6800 C   0  0  0  0  0  0  0  0  0  0  0  0
   -5.5550   23.8180  -30.8240 C   0  0  0  0  0  0  0  0  0  0  0  0
   -4.1410   24.3060  -30.8330 C   0  0  0  0  0  0  0  0  0  0  0  0
   -3.1850   23.4860  -30.8530 O   0  0  0  0  0  0  0  0  0  0  0  0
   -3.8770   25.6700  -30.8270 O   0  0  0  0  0  0  0  0  0  0  0  0
   -6.9170   21.8940  -31.8430 C   0  0  0  0  0  0  0  0  0  0  0  0
   -8.1120   22.3200  -31.2200 C   0  0  0  0  0  0  0  0  0  0  0  0
   -9.3040   21.6220  -31.4190 C   0  0  0  0  0  0  0  0  0  0  0  0
   -9.3290   20.4940  -32.2370 C   0  0  0  0  0  0  0  0  0  0  0  0
   -8.1590   20.0530  -32.8560 C   0  0  0  0  0  0  0  0  0  0  0  0
   -6.9440   20.7430  -32.6620 C   0  0  0  0  0  0  0  0  0  0  0  0
   -5.7560   20.3000  -33.2630 C   0  0  0  0  0  0  0  0  0  0  0  0
   -5.7720   19.2800  -34.0080 O   0  0  0  0  0  0  0  0  0  0  0  0
    0.4253   21.8294  -34.5160 H   0  0  0  0  0  0  0  0  0  0  0  0
   -0.3108   20.2558  -34.9728 H   0  0  0  0  0  0  0  0  0  0  0  0
   -1.3101   21.7485  -34.9728 H   0  0  0  0  0  0  0  0  0  0  0  0
    0.7222   20.8850  -30.0571 H   0  0  0  0  0  0  0  0  0  0  0  0
   -1.5783   20.3018  -29.2804 H   0  0  0  0  0  0  0  0  0  0  0  0
   -3.4342   20.1414  -30.9425 H   0  0  0  0  0  0  0  0  0  0  0  0
   -3.0895   21.1303  -34.5150 H   0  0  0  0  0  0  0  0  0  0  0  0
   -3.4155   19.4580  -33.9127 H   0  0  0  0  0  0  0  0  0  0  0  0
   -3.6670   22.5890  -32.1420 H   0  0  0  0  0  0  0  0  0  0  0  0
   -6.2128   24.6054  -31.2208 H   0  0  0  0  0  0  0  0  0  0  0  0
   -5.8411   23.5718  -29.7908 H   0  0  0  0  0  0  0  0  0  0  0  0
   -8.1024   23.2093  -30.5727 H   0  0  0  0  0  0  0  0  0  0  0  0
  -10.2274   21.9635  -30.9283 H   0  0  0  0  0  0  0  0  0  0  0  0
  -10.2723   19.9507  -32.3948 H   0  0  0  0  0  0  0  0  0  0  0  0
   -8.1841   19.1613  -33.4996 H   0  0  0  0  0  0  0  0  0  0  0  0
  1  2  1  0
  2  3  2  0
  3  4  1  0
  4  5  2  0
  5  6  1  0
  6  7  2  0
  7  8  1  0
  8  9  1  0
  9 10  1  0
 10 11  2  0
 11 12  1  0
 12 13  1  0
 13 14  2  0
 13 15  1  0
 11 16  1  0
 16 17  2  0
 17 18  1  0
 18 19  2  0
 19 20  1  0
 20 21  2  0
 21 22  1  0
 22 23  2  0
  7  2  1  0
 22  9  1  0
 21 16  1  0
  1 24  1  0
  1 25  1  0
  1 26  1  0
  4 27  1  0
  5 28  1  0
  6 29  1  0
  8 30  1  0
  8 31  1  0
 10 32  1  0
 12 33  1  0
 12 34  1  0
 17 35  1  0
 18 36  1  0
 19 37  1  0
 20 38  1  0
M  CHG  2  10   1  15  -1
M  END
>  <UniqueID>  (32) 
30

>  <SMILES>  (32) 
Cc1ncccc1Cn1[nH+]c(CC(=O)[O-])c2ccccc2c1=O

>  <Energy>  (32) 
48.97462224233745

>  <Genealogy>  (32) 
Cc1ncccc1Cn1[nH+]c(CC(=O)[O-])c2ccccc2c1=O (protonated)
Cc1ncccc1Cn1[nH+]c(CC(=O)[O-])c2ccccc2c1=O (3D coordinates assigned)
Cc1ncccc1Cn1[nH+]c(CC(=O)[O-])c2ccccc2c1=O (optimized conformer: 48.97462224233745 kcal/mol)

>  <smiles>  (32) 
Cc1ncccc1Cn1nc(CC(=O)O)c2ccccc2c1=O

>  <score_type>  (32) 
oracle

>  <origin>  (32) 
adg

>  <m_score__min__energy>  (32) 
-9.2899999999999991

>  <m_primary>  (32) 
energy

$$$$
32:0
     RDKit          3D

 54 55  0  0  0  0  0  0  0  0999 V2000
   -2.7540   21.4120  -32.2690 C   0  0  0  0  0  0  0  0  0  0  0  0
   -1.3880   21.1220  -31.6530 C   0  0  0  0  0  0  0  0  0  0  0  0
   -1.5180   20.8160  -30.1450 C   0  0  0  0  0  0  0  0  0  0  0  0
   -1.8850   21.9800  -29.3000 N   0  0  0  0  0  0  0  0  0  0  0  0
   -0.7010   22.6650  -28.7220 C   0  0  0  0  0  0  0  0  0  0  0  0
   -0.7240   24.1930  -28.9340 C   0  0  0  0  0  0  0  0  0  0  0  0
   -1.6060   24.9220  -27.9210 C   0  0  0  0  0  0  0  0  0  0  0  0
   -2.8580   21.6080  -28.2830 C   0  0  0  0  0  0  0  0  0  0  0  0
   -2.6280   20.6850  -27.5120 O   0  0  0  0  0  0  0  0  0  0  0  0
   -4.1910   22.3180  -28.2050 C   0  0  0  0  0  0  0  0  0  0  0  0
   -4.3890   23.2420  -29.3410 N   0  0  0  0  0  0  0  0  0  0  0  0
   -4.9110   24.5420  -28.8620 C   0  0  0  0  0  0  0  0  0  0  0  0
   -5.6430   25.3180  -29.9740 C   0  0  0  0  0  0  0  0  0  0  0  0
   -5.1370   24.9800  -31.2500 O   0  0  0  0  0  0  0  0  0  0  0  0
   -5.3790   23.6130  -31.5670 C   0  0  2  0  0  0  0  0  0  0  0  0
   -6.7010   23.4570  -32.3400 C   0  0  0  0  0  0  0  0  0  0  0  0
   -7.3640   22.2060  -31.9770 N   0  0  0  0  0  0  0  0  0  0  0  0
   -7.0920   20.9910  -32.4890 C   0  0  0  0  0  0  0  0  0  0  0  0
   -8.0070   20.1010  -31.9730 C   0  0  0  0  0  0  0  0  0  0  0  0
   -8.1710   18.6650  -32.3410 C   0  0  0  0  0  0  0  0  0  0  0  0
   -8.8350   20.8540  -31.1640 C   0  0  0  0  0  0  0  0  0  0  0  0
   -8.4230   22.1380  -31.1840 N   0  0  0  0  0  0  0  0  0  0  0  0
   -5.3050   22.6700  -30.3400 C   0  0  0  0  0  0  0  0  0  0  0  0
   -3.4916   21.5686  -31.4681 H   0  0  0  0  0  0  0  0  0  0  0  0
   -2.6909   22.3168  -32.8914 H   0  0  0  0  0  0  0  0  0  0  0  0
   -3.0640   20.5596  -32.8914 H   0  0  0  0  0  0  0  0  0  0  0  0
   -0.9414   20.2537  -32.1596 H   0  0  0  0  0  0  0  0  0  0  0  0
   -0.7502   22.0095  -31.7781 H   0  0  0  0  0  0  0  0  0  0  0  0
   -2.2918   20.0445  -30.0184 H   0  0  0  0  0  0  0  0  0  0  0  0
   -0.5216   20.4930  -29.8089 H   0  0  0  0  0  0  0  0  0  0  0  0
   -2.3480   22.6490  -29.9570 H   0  0  0  0  0  0  0  0  0  0  0  0
   -0.6715   22.4617  -27.6414 H   0  0  0  0  0  0  0  0  0  0  0  0
    0.1886   22.2751  -29.2382 H   0  0  0  0  0  0  0  0  0  0  0  0
    0.3035   24.5752  -28.8435 H   0  0  0  0  0  0  0  0  0  0  0  0
   -1.1449   24.3808  -29.9328 H   0  0  0  0  0  0  0  0  0  0  0  0
   -1.2877   24.6589  -26.9014 H   0  0  0  0  0  0  0  0  0  0  0  0
   -1.5104   26.0082  -28.0662 H   0  0  0  0  0  0  0  0  0  0  0  0
   -2.6547   24.6236  -28.0662 H   0  0  0  0  0  0  0  0  0  0  0  0
   -4.9950   21.5673  -28.2125 H   0  0  0  0  0  0  0  0  0  0  0  0
   -4.2095   22.9086  -27.2772 H   0  0  0  0  0  0  0  0  0  0  0  0
   -5.6135   24.3593  -28.0355 H   0  0  0  0  0  0  0  0  0  0  0  0
   -4.0555   25.1496  -28.5318 H   0  0  0  0  0  0  0  0  0  0  0  0
   -6.7148   25.0735  -29.9365 H   0  0  0  0  0  0  0  0  0  0  0  0
   -5.4853   26.3942  -29.8101 H   0  0  0  0  0  0  0  0  0  0  0  0
   -4.5570   23.2925  -32.2240 H   0  0  0  0  0  0  0  0  0  0  0  0
   -7.3635   24.3010  -32.0974 H   0  0  0  0  0  0  0  0  0  0  0  0
   -6.4823   23.4429  -33.4179 H   0  0  0  0  0  0  0  0  0  0  0  0
   -6.2825   20.7518  -33.1943 H   0  0  0  0  0  0  0  0  0  0  0  0
   -8.2404   18.0577  -31.4264 H   0  0  0  0  0  0  0  0  0  0  0  0
   -9.0891   18.5410  -32.9340 H   0  0  0  0  0  0  0  0  0  0  0  0
   -7.3045   18.3372  -32.9340 H   0  0  0  0  0  0  0  0  0  0  0  0
   -9.6933   20.4682  -30.5944 H   0  0  0  0  0  0  0  0  0  0  0  0
   -6.3071   22.5608  -29.8996 H   0  0  0  0  0  0  0  0  0  0  0  0
   -4.9357   21.6831  -30.6558 H   0  0  0  0  0  0  0  0  0  0  0  0
  1  2  1  0
  2  3  1  0
  3  4  1  0
  4  5  1  0
  5  6  1  0
  6  7  1  0
  4  8  1  0
  8  9  2  0
  8 10  1  0
 10 11  1  0
 11 12  1  0
 12 13  1  0
 13 14  1  0
 14 15  1  0
 15 16  1  0
 16 17  1  0
 17 18  1  0
 18 19  2  0
 19 20  1  0
 19 21  1  0
 21 22  2  0
 15 23  1  0
 23 11  1  0
 22 17  1  0
  1 24  1  0
  1 25  1  0
  1 26  1  0
  2 27  1  0
  2 28  1  0
  3 29  1  0
  3 30  1  0
  4 31  1  0
  5 32  1  0
  5 33  1  0
  6 34  1  0
  6 35  1  0
  7 36  1  0
  7 37  1  0
  7 38  1  0
 10 39  1  0
 10 40  1  0
 12 41  1  0
 12 42  1  0
 13 43  1  0
 13 44  1  0
 15 45  1  6
 16 46  1  0
 16 47  1  0
 18 48  1  0
 20 49  1  0
 20 50  1  0
 20 51  1  0
 21 52  1  0
 23 53  1  0
 23 54  1  0
M  CHG  1   4   1
M  END
>  <UniqueID>  (33) 
31

>  <SMILES>  (33) 
CCC[NH+](CCC)C(=O)CN1CCO[C@H](Cn2cc(C)cn2)C1

>  <Energy>  (33) 
85.47955337786013

>  <Genealogy>  (33) 
CCC[NH+](CCC)C(=O)CN1CCOC(Cn2cc(C)cn2)C1 (protonated)
CCC[NH+](CCC)C(=O)CN1CCO[C@H](Cn2cc(C)cn2)C1 (chirality)
CCC[NH+](CCC)C(=O)CN1CCO[C@H](Cn2cc(C)cn2)C1 (3D coordinates assigned)
CCC[NH+](CCC)C(=O)CN1CCO[C@H](Cn2cc(C)cn2)C1 (nonaromatic ring conformer: 85.47955337786013 kcal/mol)

>  <smiles>  (33) 
CCCN(CCC)C(=O)CN1CCOC(Cn2cc(C)cn2)C1

>  <score_type>  (33) 
oracle

>  <origin>  (33) 
adg

>  <m_score__min__energy>  (33) 
-6.9699999999999998

>  <m_primary>  (33) 
energy

$$$$
33:0
     RDKit          3D

 49 53  0  0  0  0  0  0  0  0999 V2000
   -1.6930   25.3060  -27.7370 C   0  0  0  0  0  0  0  0  0  0  0  0
   -2.3580   25.5590  -28.9690 O   0  0  0  0  0  0  0  0  0  0  0  0
   -3.3150   24.7080  -29.5420 C   0  0  0  0  0  0  0  0  0  0  0  0
   -4.4690   25.2770  -30.0900 C   0  0  0  0  0  0  0  0  0  0  0  0
   -5.4520   24.4730  -30.6730 C   0  0  0  0  0  0  0  0  0  0  0  0
   -5.2940   23.0750  -30.7250 C   0  0  0  0  0  0  0  0  0  0  0  0
   -6.3300   22.1990  -31.3320 C   0  0  0  0  0  0  0  0  0  0  0  0
   -7.6790   22.5780  -31.3930 C   0  0  0  0  0  0  0  0  0  0  0  0
   -8.6070   21.7170  -31.9780 C   0  0  0  0  0  0  0  0  0  0  0  0
   -8.1960   20.4930  -32.5030 C   0  0  0  0  0  0  0  0  0  0  0  0
   -6.8340   20.1330  -32.4440 C   0  0  0  0  0  0  0  0  0  0  0  0
   -6.2820   18.8200  -33.0010 C   0  0  2  0  0  0  0  0  0  0  0  0
   -4.8710   18.5650  -32.3970 C   0  0  0  0  0  0  0  0  0  0  0  0
   -4.3120   17.2100  -32.8850 C   0  0  1  0  0  0  0  0  0  0  0  0
   -5.2630   16.0750  -32.4480 C   0  0  0  0  0  0  0  0  0  0  0  0
   -6.6580   16.3020  -33.0680 C   0  0  2  0  0  0  0  0  0  0  0  0
   -6.5440   16.3160  -34.6060 C   0  0  0  0  0  0  0  0  0  0  0  0
   -5.5940   17.4520  -35.0420 C   0  0  2  0  0  0  0  0  0  0  0  0
   -4.1980   17.2230  -34.4230 C   0  0  0  0  0  0  0  0  0  0  0  0
   -6.1550   18.8060  -34.5570 C   0  0  0  0  0  0  0  0  0  0  0  0
   -7.2230   17.6540  -32.5810 C   0  0  0  0  0  0  0  0  0  0  0  0
   -5.9570   21.0010  -31.8620 N   0  0  0  0  0  0  0  0  0  0  0  0
   -4.1380   22.5040  -30.1630 C   0  0  0  0  0  0  0  0  0  0  0  0
   -3.1560   23.3100  -29.5810 C   0  0  0  0  0  0  0  0  0  0  0  0
   -2.3610   25.5601  -26.9008 H   0  0  0  0  0  0  0  0  0  0  0  0
   -1.4213   24.2417  -27.6788 H   0  0  0  0  0  0  0  0  0  0  0  0
   -0.7825   25.9206  -27.6788 H   0  0  0  0  0  0  0  0  0  0  0  0
   -4.6042   26.3683  -30.0618 H   0  0  0  0  0  0  0  0  0  0  0  0
   -6.3564   24.9360  -31.0946 H   0  0  0  0  0  0  0  0  0  0  0  0
   -8.0022   23.5462  -30.9829 H   0  0  0  0  0  0  0  0  0  0  0  0
   -9.6676   22.0050  -32.0253 H   0  0  0  0  0  0  0  0  0  0  0  0
   -8.9293   19.8124  -32.9603 H   0  0  0  0  0  0  0  0  0  0  0  0
   -4.1916   19.3713  -32.7106 H   0  0  0  0  0  0  0  0  0  0  0  0
   -4.9515   18.5431  -31.3002 H   0  0  0  0  0  0  0  0  0  0  0  0
   -3.3169   17.0445  -32.4465 H   0  0  0  0  0  0  0  0  0  0  0  0
   -4.8626   15.1094  -32.7907 H   0  0  0  0  0  0  0  0  0  0  0  0
   -5.3467   16.0701  -31.3512 H   0  0  0  0  0  0  0  0  0  0  0  0
   -7.3321   15.4894  -32.7594 H   0  0  0  0  0  0  0  0  0  0  0  0
   -6.1452   15.3513  -34.9528 H   0  0  0  0  0  0  0  0  0  0  0  0
   -7.5387   16.4813  -35.0456 H   0  0  0  0  0  0  0  0  0  0  0  0
   -5.5118   17.4598  -36.1389 H   0  0  0  0  0  0  0  0  0  0  0  0
   -3.7975   16.2587  -34.7689 H   0  0  0  0  0  0  0  0  0  0  0  0
   -3.5225   18.0338  -34.7332 H   0  0  0  0  0  0  0  0  0  0  0  0
   -5.4766   19.6126  -34.8720 H   0  0  0  0  0  0  0  0  0  0  0  0
   -7.1522   18.9556  -34.9965 H   0  0  0  0  0  0  0  0  0  0  0  0
   -8.2166   17.8125  -33.0255 H   0  0  0  0  0  0  0  0  0  0  0  0
   -7.2977   17.6343  -31.4837 H   0  0  0  0  0  0  0  0  0  0  0  0
   -4.0056   21.4122  -30.1818 H   0  0  0  0  0  0  0  0  0  0  0  0
   -2.2542   22.8496  -29.1512 H   0  0  0  0  0  0  0  0  0  0  0  0
  1  2  1  0
  2  3  1  0
  3  4  2  0
  4  5  1  0
  5  6  2  0
  6  7  1  0
  7  8  2  0
  8  9  1  0
  9 10  2  0
 10 11  1  0
 12 11  1  1
 12 13  1  0
 13 14  1  0
 14 15  1  0
 15 16  1  0
 16 17  1  0
 17 18  1  0
 18 19  1  0
 18 20  1  0
 16 21  1  0
 11 22  2  0
  6 23  1  0
 23 24  2  0
 24  3  1  0
 22  7  1  0
 20 12  1  0
 21 12  1  0
 19 14  1  0
  1 25  1  0
  1 26  1  0
  1 27  1  0
  4 28  1  0
  5 29  1  0
  8 30  1  0
  9 31  1  0
 10 32  1  0
 13 33  1  0
 13 34  1  0
 14 35  1  1
 15 36  1  0
 15 37  1  0
 16 38  1  6
 17 39  1  0
 17 40  1  0
 18 41  1  6
 19 42  1  0
 19 43  1  0
 20 44  1  0
 20 45  1  0
 21 46  1  0
 21 47  1  0
 23 48  1  0
 24 49  1  0
M  END
>  <UniqueID>  (34) 
32

>  <SMILES>  (34) 
COc1ccc(-c2cccc(C34CC5CC(CC(C5)C3)C4)n2)cc1

>  <Energy>  (34) 
58.14683410808451

>  <Genealogy>  (34) 
COc1ccc(-c2cccc(C34CC5CC(CC(C5)C3)C4)n2)cc1 (3D coordinates assigned)
COc1ccc(-c2cccc(C34CC5CC(CC(C5)C3)C4)n2)cc1 (nonaromatic ring conformer: 58.14683410808451 kcal/mol)

>  <smiles>  (34) 
COc1ccc(-c2cccc(C34CC5CC(CC(C5)C3)C4)n2)cc1

>  <score_type>  (34) 
oracle

>  <origin>  (34) 
adg

>  <m_score__min__energy>  (34) 
-9.3599999999999994

>  <m_primary>  (34) 
energy

$$$$
34:0
     RDKit          3D

 65 69  0  0  0  0  0  0  0  0999 V2000
   -1.5030   25.4900  -27.6220 C   0  0  0  0  0  0  0  0  0  0  0  0
   -1.9940   25.5450  -28.9600 O   0  0  0  0  0  0  0  0  0  0  0  0
   -2.6840   24.4990  -29.5940 C   0  0  0  0  0  0  0  0  0  0  0  0
   -2.1790   23.1850  -29.6540 C   0  0  0  0  0  0  0  0  0  0  0  0
   -2.8990   22.1760  -30.3120 C   0  0  0  0  0  0  0  0  0  0  0  0
   -2.3530   20.7670  -30.3880 C   0  0  0  0  0  0  0  0  0  0  0  0
   -1.1650   20.6700  -31.2790 N   0  0  2  0  0  0  0  0  0  0  0  0
   -1.2860   21.5630  -32.4700 C   0  0  0  0  0  0  0  0  0  0  0  0
   -1.4710   20.8220  -33.8090 C   0  0  0  0  0  0  0  0  0  0  0  0
   -2.4240   19.6230  -33.6640 C   0  0  2  0  0  0  0  0  0  0  0  0
   -3.7870   20.0720  -33.3090 N   0  0  0  0  0  0  0  0  0  0  0  0
   -4.7170   18.9530  -33.0450 C   0  0  1  0  0  0  0  0  0  0  0  0
   -5.3460   19.0990  -31.6360 C   0  0  1  0  0  0  0  0  0  0  0  0
   -6.2970   20.3210  -31.5910 C   0  0  0  0  0  0  0  0  0  0  0  0
   -7.4360   20.1420  -32.6210 C   0  0  2  0  0  0  0  0  0  0  0  0
   -8.2300   18.8550  -32.2960 C   0  0  0  0  0  0  0  0  0  0  0  0
   -7.2790   17.6400  -32.3600 C   0  0  2  0  0  0  0  0  0  0  0  0
   -6.1530   17.8190  -31.3160 C   0  0  0  0  0  0  0  0  0  0  0  0
   -6.6650   17.5380  -33.7800 C   0  0  0  0  0  0  0  0  0  0  0  0
   -5.8620   18.8240  -34.0990 C   0  0  1  0  0  0  0  0  0  0  0  0
   -6.8410   20.0280  -34.0390 C   0  0  0  0  0  0  0  0  0  0  0  0
   -1.8860   18.6410  -32.5940 C   0  0  0  0  0  0  0  0  0  0  0  0
   -0.8450   19.2680  -31.6460 C   0  0  0  0  0  0  0  0  0  0  0  0
   -4.1300   22.4830  -30.9080 C   0  0  0  0  0  0  0  0  0  0  0  0
   -4.6500   23.7900  -30.8450 C   0  0  0  0  0  0  0  0  0  0  0  0
   -5.8890   24.1320  -31.4070 O   0  0  0  0  0  0  0  0  0  0  0  0
   -7.1240   23.5060  -31.0760 C   0  0  0  0  0  0  0  0  0  0  0  0
   -3.9170   24.7880  -30.1920 C   0  0  0  0  0  0  0  0  0  0  0  0
   -2.3436   25.5842  -26.9188 H   0  0  0  0  0  0  0  0  0  0  0  0
   -0.9933   24.5291  -27.4577 H   0  0  0  0  0  0  0  0  0  0  0  0
   -0.7934   26.3143  -27.4577 H   0  0  0  0  0  0  0  0  0  0  0  0
   -1.2140   22.9485  -29.1820 H   0  0  0  0  0  0  0  0  0  0  0  0
   -2.0643   20.4443  -29.3768 H   0  0  0  0  0  0  0  0  0  0  0  0
   -3.1407   20.1225  -30.8053 H   0  0  0  0  0  0  0  0  0  0  0  0
   -0.3450   21.0210  -30.7280 H   0  0  0  0  0  0  0  0  0  0  0  0
   -2.1542   22.2213  -32.3189 H   0  0  0  0  0  0  0  0  0  0  0  0
   -0.3366   22.1134  -32.5458 H   0  0  0  0  0  0  0  0  0  0  0  0
   -1.8865   21.5211  -34.5497 H   0  0  0  0  0  0  0  0  0  0  0  0
   -0.4896   20.4451  -34.1329 H   0  0  0  0  0  0  0  0  0  0  0  0
   -2.4759   19.1035  -34.6322 H   0  0  0  0  0  0  0  0  0  0  0  0
   -4.1710   20.7140  -34.0420 H   0  0  0  0  0  0  0  0  0  0  0  0
   -4.1096   18.0383  -33.1112 H   0  0  0  0  0  0  0  0  0  0  0  0
   -4.5445   19.2450  -30.8968 H   0  0  0  0  0  0  0  0  0  0  0  0
   -5.7300   21.2329  -31.8295 H   0  0  0  0  0  0  0  0  0  0  0  0
   -6.7307   20.4045  -30.5835 H   0  0  0  0  0  0  0  0  0  0  0  0
   -8.1070   21.0123  -32.5734 H   0  0  0  0  0  0  0  0  0  0  0  0
   -9.0395   18.7273  -33.0298 H   0  0  0  0  0  0  0  0  0  0  0  0
   -8.6618   18.9328  -31.2873 H   0  0  0  0  0  0  0  0  0  0  0  0
   -7.8388   16.7188  -32.1408 H   0  0  0  0  0  0  0  0  0  0  0  0
   -5.4833   16.9469  -31.3470 H   0  0  0  0  0  0  0  0  0  0  0  0
   -6.5961   17.9082  -30.3131 H   0  0  0  0  0  0  0  0  0  0  0  0
   -7.4713   17.4185  -34.5186 H   0  0  0  0  0  0  0  0  0  0  0  0
   -5.9912   16.6696  -33.8225 H   0  0  0  0  0  0  0  0  0  0  0  0
   -5.4092   18.7936  -35.1010 H   0  0  0  0  0  0  0  0  0  0  0  0
   -7.6529   19.8759  -34.7654 H   0  0  0  0  0  0  0  0  0  0  0  0
   -6.2973   20.9528  -34.2820 H   0  0  0  0  0  0  0  0  0  0  0  0
   -2.7345   18.2848  -31.9914 H   0  0  0  0  0  0  0  0  0  0  0  0
   -1.3812   17.8246  -33.1314 H   0  0  0  0  0  0  0  0  0  0  0  0
   -0.8011   18.6662  -30.7263 H   0  0  0  0  0  0  0  0  0  0  0  0
    0.1187   19.2785  -32.1763 H   0  0  0  0  0  0  0  0  0  0  0  0
   -4.6947   21.6961  -31.4294 H   0  0  0  0  0  0  0  0  0  0  0  0
   -7.2270   23.4538  -29.9821 H   0  0  0  0  0  0  0  0  0  0  0  0
   -7.9557   24.0914  -31.4951 H   0  0  0  0  0  0  0  0  0  0  0  0
   -7.1436   22.4891  -31.4951 H   0  0  0  0  0  0  0  0  0  0  0  0
   -4.3147   25.8127  -30.1480 H   0  0  0  0  0  0  0  0  0  0  0  0
  1  2  1  0
  2  3  1  0
  3  4  2  0
  4  5  1  0
  5  6  1  0
  6  7  1  0
  7  8  1  0
  8  9  1  0
  9 10  1  0
 10 11  1  0
 11 12  1  0
 12 13  1  0
 13 14  1  0
 14 15  1  0
 15 16  1  0
 16 17  1  0
 17 18  1  0
 17 19  1  0
 19 20  1  0
 20 21  1  0
 10 22  1  0
 22 23  1  0
  5 24  2  0
 24 25  1  0
 25 26  1  0
 26 27  1  0
 25 28  2  0
 28  3  1  0
 23  7  1  0
 20 12  1  0
 18 13  1  0
 21 15  1  0
  1 29  1  0
  1 30  1  0
  1 31  1  0
  4 32  1  0
  6 33  1  0
  6 34  1  0
  7 35  1  1
  8 36  1  0
  8 37  1  0
  9 38  1  0
  9 39  1  0
 10 40  1  6
 11 41  1  0
 12 42  1  1
 13 43  1  1
 14 44  1  0
 14 45  1  0
 15 46  1  6
 16 47  1  0
 16 48  1  0
 17 49  1  1
 18 50  1  0
 18 51  1  0
 19 52  1  0
 19 53  1  0
 20 54  1  6
 21 55  1  0
 21 56  1  0
 22 57  1  0
 22 58  1  0
 23 59  1  0
 23 60  1  0
 24 61  1  0
 27 62  1  0
 27 63  1  0
 27 64  1  0
 28 65  1  0
M  CHG  1   7   1
M  END
>  <UniqueID>  (35) 
33

>  <SMILES>  (35) 
COc1cc(C[NH+]2CCC(NC3C4CC5CC(C4)CC3C5)CC2)cc(OC)c1

>  <Energy>  (35) 
79.24550760815725

>  <Genealogy>  (35) 
COc1cc(C[NH+]2CCC(NC3C4CC5CC(C4)CC3C5)CC2)cc(OC)c1 (protonated)
COc1cc(C[NH+]2CCC(NC3C4CC5CC(C4)CC3C5)CC2)cc(OC)c1 (3D coordinates assigned)
COc1cc(C[NH+]2CCC(NC3C4CC5CC(C4)CC3C5)CC2)cc(OC)c1 (nonaromatic ring conformer: 79.24550760815725 kcal/mol)

>  <smiles>  (35) 
COc1cc(CN2CCC(NC3C4CC5CC(C4)CC3C5)CC2)cc(OC)c1

>  <score_type>  (35) 
oracle

>  <origin>  (35) 
adg

>  <m_score__min__energy>  (35) 
-8.4100000000000001

>  <m_primary>  (35) 
energy

$$$$
35:0
     RDKit          3D

 37 37  0  0  0  0  0  0  0  0999 V2000
   -6.1470   19.3780  -34.1650 C   0  0  0  0  0  0  0  0  0  0  0  0
   -6.9350   20.1320  -33.0770 C   0  0  0  0  0  0  0  0  0  0  0  0
   -8.3160   19.6270  -32.8160 N   0  0  0  0  0  0  0  0  0  0  0  0
   -8.3290   18.3750  -32.0110 C   0  0  0  0  0  0  0  0  0  0  0  0
   -6.9670   17.9310  -31.4640 C   0  0  0  0  0  0  0  0  0  0  0  0
   -9.2500   20.6900  -32.3480 C   0  0  0  0  0  0  0  0  0  0  0  0
   -8.6660   21.6200  -31.2660 C   0  0  0  0  0  0  0  0  0  0  0  0
   -7.9750   22.7760  -31.8460 N   0  0  0  0  0  0  0  0  0  0  0  0
   -6.7740   23.3390  -31.2850 C   0  0  0  0  0  0  0  0  0  0  0  0
   -6.8030   24.4770  -30.4540 C   0  0  0  0  0  0  0  0  0  0  0  0
   -5.6180   24.9970  -29.9270 C   0  0  0  0  0  0  0  0  0  0  0  0
   -4.3880   24.3930  -30.2160 C   0  0  0  0  0  0  0  0  0  0  0  0
   -3.1770   24.9270  -29.6750 N   0  0  0  0  0  0  0  0  0  0  0  0
   -4.3540   23.2600  -31.0390 C   0  0  0  0  0  0  0  0  0  0  0  0
   -5.5360   22.7370  -31.5680 C   0  0  0  0  0  0  0  0  0  0  0  0
   -5.4302   18.6922  -33.6897 H   0  0  0  0  0  0  0  0  0  0  0  0
   -6.8450   18.8028  -34.7911 H   0  0  0  0  0  0  0  0  0  0  0  0
   -5.6031   20.1007  -34.7911 H   0  0  0  0  0  0  0  0  0  0  0  0
   -6.3662   20.0636  -32.1380 H   0  0  0  0  0  0  0  0  0  0  0  0
   -7.0551   21.1601  -33.4493 H   0  0  0  0  0  0  0  0  0  0  0  0
   -8.6620   19.3260  -33.7580 H   0  0  0  0  0  0  0  0  0  0  0  0
   -9.0045   18.5279  -31.1564 H   0  0  0  0  0  0  0  0  0  0  0  0
   -8.6555   17.5779  -32.6952 H   0  0  0  0  0  0  0  0  0  0  0  0
   -6.9931   17.9395  -30.3643 H   0  0  0  0  0  0  0  0  0  0  0  0
   -6.7438   16.9136  -31.8176 H   0  0  0  0  0  0  0  0  0  0  0  0
   -6.1871   18.6214  -31.8176 H   0  0  0  0  0  0  0  0  0  0  0  0
   -9.5326   21.3056  -33.2147 H   0  0  0  0  0  0  0  0  0  0  0  0
  -10.1073   20.1751  -31.8898 H   0  0  0  0  0  0  0  0  0  0  0  0
   -9.4863   21.9806  -30.6280 H   0  0  0  0  0  0  0  0  0  0  0  0
   -7.9316   21.0434  -30.6844 H   0  0  0  0  0  0  0  0  0  0  0  0
   -8.3480   23.2020  -32.7250 H   0  0  0  0  0  0  0  0  0  0  0  0
   -7.7637   24.9584  -30.2190 H   0  0  0  0  0  0  0  0  0  0  0  0
   -5.6515   25.8866  -29.2809 H   0  0  0  0  0  0  0  0  0  0  0  0
   -2.2590   24.7520  -30.1450 H   0  0  0  0  0  0  0  0  0  0  0  0
   -3.1860   25.5000  -28.8020 H   0  0  0  0  0  0  0  0  0  0  0  0
   -3.3916   22.7799  -31.2698 H   0  0  0  0  0  0  0  0  0  0  0  0
   -5.4977   21.8460  -32.2119 H   0  0  0  0  0  0  0  0  0  0  0  0
  1  2  1  0
  2  3  1  0
  3  4  1  0
  4  5  1  0
  3  6  1  0
  6  7  1  0
  7  8  1  0
  8  9  1  0
  9 10  2  0
 10 11  1  0
 11 12  2  0
 12 13  1  0
 12 14  1  0
 14 15  2  0
 15  9  1  0
  1 16  1  0
  1 17  1  0
  1 18  1  0
  2 19  1  0
  2 20  1  0
  3 21  1  0
  4 22  1  0
  4 23  1  0
  5 24  1  0
  5 25  1  0
  5 26  1  0
  6 27  1  0
  6 28  1  0
  7 29  1  0
  7 30  1  0
  8 31  1  0
 10 32  1  0
 11 33  1  0
 13 34  1  0
 13 35  1  0
 14 36  1  0
 15 37  1  0
M  CHG  1   3   1
M  END
>  <UniqueID>  (36) 
34

>  <SMILES>  (36) 
CC[NH+](CC)CCNc1ccc(N)cc1

>  <Energy>  (36) 
41.34894416849717

>  <Genealogy>  (36) 
CC[NH+](CC)CCNc1ccc(N)cc1 (protonated)
CC[NH+](CC)CCNc1ccc(N)cc1 (3D coordinates assigned)
CC[NH+](CC)CCNc1ccc(N)cc1 (optimized conformer: 41.34894416849717 kcal/mol)

>  <smiles>  (36) 
CCN(CC)CCNc1ccc(N)cc1

>  <score_type>  (36) 
oracle

>  <origin>  (36) 
adg

>  <m_score__min__energy>  (36) 
-5.4400000000000004

>  <m_primary>  (36) 
energy

$$$$
36:0
     RDKit          3D

 51 53  0  0  0  0  0  0  0  0999 V2000
   -3.0840   19.9070  -27.2010 C   0  0  0  0  0  0  0  0  0  0  0  0
   -2.0810   20.3360  -28.2690 C   0  0  0  0  0  0  0  0  0  0  0  0
   -2.0910   21.8020  -28.4500 N   0  0  0  0  0  0  0  0  0  0  0  0
   -1.6450   22.6220  -27.3420 C   0  0  0  0  0  0  0  0  0  0  0  0
   -1.4300   22.0940  -26.2150 O   0  0  0  0  0  0  0  0  0  0  0  0
   -1.4190   24.0340  -27.5160 N   0  0  0  0  0  0  0  0  0  0  0  0
   -0.8280   24.8360  -26.4340 C   0  0  0  0  0  0  0  0  0  0  0  0
    0.5850   25.2880  -26.8030 C   0  0  0  0  0  0  0  0  0  0  0  0
    1.0390   24.5540  -27.9200 O   0  0  0  0  0  0  0  0  0  0  0  0
    1.7120   23.3970  -27.4770 C   0  0  0  0  0  0  0  0  0  0  0  0
   -1.8630   24.6570  -28.7300 C   0  0  0  0  0  0  0  0  0  0  0  0
   -1.6120   25.8710  -28.9640 O   0  0  0  0  0  0  0  0  0  0  0  0
   -2.6930   23.8770  -29.6960 C   0  0  0  0  0  0  0  0  0  0  0  0
   -2.2180   22.3980  -29.8070 C   0  0  1  0  0  0  0  0  0  0  0  0
   -0.8210   22.4010  -30.4690 C   0  0  0  0  0  0  0  0  0  0  0  0
   -3.2800   21.6400  -30.6360 C   0  0  0  0  0  0  0  0  0  0  0  0
   -4.9390   21.9460  -30.4750 S   0  0  0  0  0  0  0  0  0  0  0  0
   -5.4310   20.7460  -31.5280 C   0  0  0  0  0  0  0  0  0  0  0  0
   -6.8280   20.4410  -31.8750 C   0  0  0  0  0  0  0  0  0  0  0  0
   -7.1930   19.1740  -32.3620 C   0  0  0  0  0  0  0  0  0  0  0  0
   -8.5280   18.9210  -32.6810 C   0  0  0  0  0  0  0  0  0  0  0  0
   -9.4860   19.9220  -32.5140 C   0  0  0  0  0  0  0  0  0  0  0  0
   -9.0890   21.1690  -32.0270 C   0  0  0  0  0  0  0  0  0  0  0  0
   -7.7840   21.3990  -31.7230 N   0  0  0  0  0  0  0  0  0  0  0  0
   -4.3660   20.0740  -32.0090 N   0  0  0  0  0  0  0  0  0  0  0  0
   -3.1770   20.5390  -31.5300 C   0  0  0  0  0  0  0  0  0  0  0  0
   -1.9180   19.8430  -31.9500 C   0  0  0  0  0  0  0  0  0  0  0  0
   -2.6578   20.0893  -26.2034 H   0  0  0  0  0  0  0  0  0  0  0  0
   -4.0116   20.4871  -27.3150 H   0  0  0  0  0  0  0  0  0  0  0  0
   -3.3052   18.8355  -27.3150 H   0  0  0  0  0  0  0  0  0  0  0  0
   -1.0731   20.0187  -27.9634 H   0  0  0  0  0  0  0  0  0  0  0  0
   -2.3625   19.8645  -29.2221 H   0  0  0  0  0  0  0  0  0  0  0  0
   -1.4556   25.7220  -26.2577 H   0  0  0  0  0  0  0  0  0  0  0  0
   -0.7746   24.2178  -25.5257 H   0  0  0  0  0  0  0  0  0  0  0  0
    0.5742   26.3601  -27.0489 H   0  0  0  0  0  0  0  0  0  0  0  0
    1.2592   25.1130  -25.9516 H   0  0  0  0  0  0  0  0  0  0  0  0
    1.7232   23.3778  -26.3772 H   0  0  0  0  0  0  0  0  0  0  0  0
    1.1926   22.5037  -27.8541 H   0  0  0  0  0  0  0  0  0  0  0  0
    2.7453   23.4069  -27.8541 H   0  0  0  0  0  0  0  0  0  0  0  0
   -3.7395   23.8900  -29.3573 H   0  0  0  0  0  0  0  0  0  0  0  0
   -2.5914   24.3432  -30.6871 H   0  0  0  0  0  0  0  0  0  0  0  0
   -0.0456   22.4027  -29.6888 H   0  0  0  0  0  0  0  0  0  0  0  0
   -0.7098   21.5031  -31.0946 H   0  0  0  0  0  0  0  0  0  0  0  0
   -0.7136   23.2994  -31.0946 H   0  0  0  0  0  0  0  0  0  0  0  0
   -6.4333   18.3889  -32.4906 H   0  0  0  0  0  0  0  0  0  0  0  0
   -8.8248   17.9334  -33.0637 H   0  0  0  0  0  0  0  0  0  0  0  0
  -10.5403   19.7311  -32.7628 H   0  0  0  0  0  0  0  0  0  0  0  0
   -9.8336   21.9668  -31.8891 H   0  0  0  0  0  0  0  0  0  0  0  0
   -1.3556   19.5321  -31.0572 H   0  0  0  0  0  0  0  0  0  0  0  0
   -2.1717   18.9570  -32.5505 H   0  0  0  0  0  0  0  0  0  0  0  0
   -1.3026   20.5291  -32.5505 H   0  0  0  0  0  0  0  0  0  0  0  0
  1  2  1  0
  2  3  1  0
  3  4  1  0
  4  5  2  0
  4  6  1  0
  6  7  1  0
  7  8  1  0
  8  9  1  0
  9 10  1  0
  6 11  1  0
 11 12  2  0
 11 13  1  0
 13 14  1  0
 14 15  1  6
 14 16  1  0
 16 17  1  0
 17 18  1  0
 18 19  1  0
 19 20  2  0
 20 21  1  0
 21 22  2  0
 22 23  1  0
 23 24  2  0
 18 25  2  0
 25 26  1  0
 26 27  1  0
 14  3  1  0
 26 16  2  0
 24 19  1  0
  1 28  1  0
  1 29  1  0
  1 30  1  0
  2 31  1  0
  2 32  1  0
  7 33  1  0
  7 34  1  0
  8 35  1  0
  8 36  1  0
 10 37  1  0
 10 38  1  0
 10 39  1  0
 13 40  1  0
 13 41  1  0
 15 42  1  0
 15 43  1  0
 15 44  1  0
 20 45  1  0
 21 46  1  0
 22 47  1  0
 23 48  1  0
 27 49  1  0
 27 50  1  0
 27 51  1  0
M  END
>  <UniqueID>  (37) 
35

>  <SMILES>  (37) 
CCN1C(=O)N(CCOC)C(=O)C[C@]1(C)c1sc(-c2ccccn2)nc1C

>  <Energy>  (37) 
85.54490720477254

>  <Genealogy>  (37) 
CCN1C(=O)N(CCOC)C(=O)C[C@]1(C)c1sc(-c2ccccn2)nc1C (chirality)
CCN1C(=O)N(CCOC)C(=O)C[C@]1(C)c1sc(-c2ccccn2)nc1C (3D coordinates assigned)
CCN1C(=O)N(CCOC)C(=O)C[C@]1(C)c1sc(-c2ccccn2)nc1C (nonaromatic ring conformer: 85.54490720477254 kcal/mol)

>  <smiles>  (37) 
CCN1C(=O)N(CCOC)C(=O)CC1(C)c1sc(-c2ccccn2)nc1C

>  <score_type>  (37) 
oracle

>  <origin>  (37) 
adg

>  <m_score__min__energy>  (37) 
-7.5300000000000002

>  <m_primary>  (37) 
energy

$$$$
37:0
     RDKit          3D

 32 33  0  0  0  0  0  0  0  0999 V2000
   -9.3950   21.7040  -31.9400 C   0  0  0  0  0  0  0  0  0  0  0  0
   -8.3570   22.3030  -30.9950 C   0  0  0  0  0  0  0  0  0  0  0  0
   -7.3700   23.2300  -31.7200 C   0  0  0  0  0  0  0  0  0  0  0  0
   -6.0120   22.6650  -31.7380 N   0  0  0  0  0  0  0  0  0  0  0  0
   -4.8860   23.1630  -31.1470 C   0  0  0  0  0  0  0  0  0  0  0  0
   -4.8380   24.3970  -30.2820 C   0  0  0  0  0  0  0  0  0  0  0  0
   -3.8750   25.2930  -30.7600 O   0  0  0  0  0  0  0  0  0  0  0  0
   -3.7790   22.3640  -31.4540 C   0  0  0  0  0  0  0  0  0  0  0  0
   -2.3710   22.5310  -30.9700 C   0  0  0  0  0  0  0  0  0  0  0  0
   -4.2840   21.3260  -32.2090 C   0  0  0  0  0  0  0  0  0  0  0  0
   -3.6500   20.2380  -32.7230 N   0  0  0  0  0  0  0  0  0  0  0  0
   -4.3750   19.3210  -33.4310 C   0  0  0  0  0  0  0  0  0  0  0  0
   -5.7620   19.4920  -33.6160 C   0  0  0  0  0  0  0  0  0  0  0  0
   -6.4070   20.6150  -33.0720 C   0  0  0  0  0  0  0  0  0  0  0  0
   -5.6260   21.5330  -32.3670 C   0  0  0  0  0  0  0  0  0  0  0  0
  -10.2006   21.2391  -31.3527 H   0  0  0  0  0  0  0  0  0  0  0  0
   -9.8152   22.4985  -32.5742 H   0  0  0  0  0  0  0  0  0  0  0  0
   -8.9174   20.9427  -32.5742 H   0  0  0  0  0  0  0  0  0  0  0  0
   -8.8787   22.8810  -30.2180 H   0  0  0  0  0  0  0  0  0  0  0  0
   -7.7802   21.4729  -30.5612 H   0  0  0  0  0  0  0  0  0  0  0  0
   -7.7106   23.3744  -32.7559 H   0  0  0  0  0  0  0  0  0  0  0  0
   -7.3375   24.1882  -31.1807 H   0  0  0  0  0  0  0  0  0  0  0  0
   -5.8237   24.8852  -30.2926 H   0  0  0  0  0  0  0  0  0  0  0  0
   -4.5720   24.1024  -29.2561 H   0  0  0  0  0  0  0  0  0  0  0  0
   -4.2170   25.6430  -31.6240 H   0  0  0  0  0  0  0  0  0  0  0  0
   -2.3591   22.5324  -29.8701 H   0  0  0  0  0  0  0  0  0  0  0  0
   -1.7543   21.6997  -31.3423 H   0  0  0  0  0  0  0  0  0  0  0  0
   -1.9658   23.4835  -31.3423 H   0  0  0  0  0  0  0  0  0  0  0  0
   -2.6260   20.0950  -32.5830 H   0  0  0  0  0  0  0  0  0  0  0  0
   -3.8719   18.4420  -33.8602 H   0  0  0  0  0  0  0  0  0  0  0  0
   -6.3380   18.7475  -34.1852 H   0  0  0  0  0  0  0  0  0  0  0  0
   -7.4894   20.7659  -33.1970 H   0  0  0  0  0  0  0  0  0  0  0  0
  1  2  1  0
  2  3  1  0
  3  4  1  0
  4  5  1  0
  5  6  1  0
  6  7  1  0
  5  8  2  0
  8  9  1  0
  8 10  1  0
 10 11  2  0
 11 12  1  0
 12 13  2  0
 13 14  1  0
 14 15  2  0
 15  4  1  0
 15 10  1  0
  1 16  1  0
  1 17  1  0
  1 18  1  0
  2 19  1  0
  2 20  1  0
  3 21  1  0
  3 22  1  0
  6 23  1  0
  6 24  1  0
  7 25  1  0
  9 26  1  0
  9 27  1  0
  9 28  1  0
 11 29  1  0
 12 30  1  0
 13 31  1  0
 14 32  1  0
M  CHG  1  11   1
M  END
>  <UniqueID>  (38) 
36

>  <SMILES>  (38) 
CCCn1c(CO)c(C)c2[nH+]cccc21

>  <Energy>  (38) 
61.73486084885752

>  <Genealogy>  (38) 
CCCn1c(CO)c(C)c2[nH+]cccc21 (protonated)
CCCn1c(CO)c(C)c2[nH+]cccc21 (3D coordinates assigned)
CCCn1c(CO)c(C)c2[nH+]cccc21 (optimized conformer: 61.73486084885752 kcal/mol)

>  <smiles>  (38) 
CCCn1c(CO)c(C)c2ncccc21

>  <score_type>  (38) 
oracle

>  <origin>  (38) 
adg

>  <m_score__min__energy>  (38) 
-6.0199999999999996

>  <m_primary>  (38) 
energy

$$$$
38:0
     RDKit          3D

 36 38  0  0  0  0  0  0  0  0999 V2000
   -5.3530   15.0070  -33.7180 C   0  0  0  0  0  0  0  0  0  0  0  0
   -6.5530   15.8000  -34.2210 C   0  0  0  0  0  0  0  0  0  0  0  0
   -6.5700   17.1800  -33.6190 C   0  0  0  0  0  0  0  0  0  0  0  0
   -7.1050   17.3880  -32.3380 C   0  0  0  0  0  0  0  0  0  0  0  0
   -7.1500   18.6740  -31.7910 C   0  0  0  0  0  0  0  0  0  0  0  0
   -6.6670   19.7680  -32.5230 C   0  0  0  0  0  0  0  0  0  0  0  0
   -6.7170   21.0920  -31.9610 N   0  0  0  0  0  0  0  0  0  0  0  0
   -7.9260   21.6980  -31.7120 C   0  0  0  0  0  0  0  0  0  0  0  0
   -9.2300   21.0170  -32.0190 C   0  0  0  0  0  0  0  0  0  0  0  0
   -7.9620   22.9450  -31.1720 N   0  0  0  0  0  0  0  0  0  0  0  0
   -6.8300   23.6250  -30.8750 C   0  0  0  0  0  0  0  0  0  0  0  0
   -6.9080   24.9080  -30.3220 C   0  0  0  0  0  0  0  0  0  0  0  0
   -5.7390   25.6120  -30.0170 C   0  0  0  0  0  0  0  0  0  0  0  0
   -4.4900   25.0360  -30.2630 C   0  0  0  0  0  0  0  0  0  0  0  0
   -4.4030   23.7530  -30.8160 C   0  0  0  0  0  0  0  0  0  0  0  0
   -5.5750   23.0380  -31.1260 C   0  0  0  0  0  0  0  0  0  0  0  0
   -5.5460   21.7470  -31.6800 C   0  0  0  0  0  0  0  0  0  0  0  0
   -4.4360   21.1890  -31.9120 O   0  0  0  0  0  0  0  0  0  0  0  0
   -6.1500   19.5660  -33.8110 C   0  0  0  0  0  0  0  0  0  0  0  0
   -6.1040   18.2800  -34.3570 C   0  0  0  0  0  0  0  0  0  0  0  0
   -5.3499   15.0049  -32.6180 H   0  0  0  0  0  0  0  0  0  0  0  0
   -5.4166   13.9725  -34.0864 H   0  0  0  0  0  0  0  0  0  0  0  0
   -4.4263   15.4711  -34.0864 H   0  0  0  0  0  0  0  0  0  0  0  0
   -6.4963   15.8846  -35.3163 H   0  0  0  0  0  0  0  0  0  0  0  0
   -7.4730   15.2743  -33.9256 H   0  0  0  0  0  0  0  0  0  0  0  0
   -7.4910   16.5345  -31.7613 H   0  0  0  0  0  0  0  0  0  0  0  0
   -7.5653   18.8278  -30.7841 H   0  0  0  0  0  0  0  0  0  0  0  0
   -9.7360   20.7528  -31.0787 H   0  0  0  0  0  0  0  0  0  0  0  0
   -9.8700   21.6960  -32.6015 H   0  0  0  0  0  0  0  0  0  0  0  0
   -9.0385   20.1038  -32.6015 H   0  0  0  0  0  0  0  0  0  0  0  0
   -7.8902   25.3633  -30.1270 H   0  0  0  0  0  0  0  0  0  0  0  0
   -5.8028   26.6207  -29.5828 H   0  0  0  0  0  0  0  0  0  0  0  0
   -3.5724   25.5924  -30.0214 H   0  0  0  0  0  0  0  0  0  0  0  0
   -3.4178   23.3032  -31.0084 H   0  0  0  0  0  0  0  0  0  0  0  0
   -5.7795   20.4224  -34.3935 H   0  0  0  0  0  0  0  0  0  0  0  0
   -5.7010   18.1290  -35.3693 H   0  0  0  0  0  0  0  0  0  0  0  0
  1  2  1  0
  2  3  1  0
  3  4  2  0
  4  5  1  0
  5  6  2  0
  6  7  1  0
  7  8  1  0
  8  9  1  0
  8 10  2  0
 10 11  1  0
 11 12  2  0
 12 13  1  0
 13 14  2  0
 14 15  1  0
 15 16  2  0
 16 17  1  0
 17 18  2  0
  6 19  1  0
 19 20  2  0
 20  3  1  0
 17  7  1  0
 16 11  1  0
  1 21  1  0
  1 22  1  0
  1 23  1  0
  2 24  1  0
  2 25  1  0
  4 26  1  0
  5 27  1  0
  9 28  1  0
  9 29  1  0
  9 30  1  0
 12 31  1  0
 13 32  1  0
 14 33  1  0
 15 34  1  0
 19 35  1  0
 20 36  1  0
M  END
>  <UniqueID>  (39) 
37

>  <SMILES>  (39) 
CCc1ccc(-n2c(C)nc3ccccc3c2=O)cc1

>  <Energy>  (39) 
48.74742617976939

>  <Genealogy>  (39) 
CCc1ccc(-n2c(C)nc3ccccc3c2=O)cc1 (3D coordinates assigned)
CCc1ccc(-n2c(C)nc3ccccc3c2=O)cc1 (optimized conformer: 48.74742617976939 kcal/mol)

>  <smiles>  (39) 
CCc1ccc(-n2c(C)nc3ccccc3c2=O)cc1

>  <score_type>  (39) 
oracle

>  <origin>  (39) 
adg

>  <m_score__min__energy>  (39) 
-7.8099999999999996

>  <m_primary>  (39) 
energy

$$$$
39:0
     RDKit          3D

 71 73  0  0  0  0  0  0  0  0999 V2000
   -3.6810   21.6940  -33.4700 C   0  0  0  0  0  0  0  0  0  0  0  0
   -3.3820   20.8470  -32.2250 C   0  0  0  0  0  0  0  0  0  0  0  0
   -2.5320   19.6590  -32.5080 N   0  0  0  0  0  0  0  0  0  0  0  0
   -1.3120   19.5550  -31.6620 C   0  0  0  0  0  0  0  0  0  0  0  0
   -0.7350   20.8950  -31.1950 C   0  0  0  0  0  0  0  0  0  0  0  0
   -2.2550   19.3940  -33.9600 C   0  0  0  0  0  0  0  0  0  0  0  0
   -2.4330   17.9410  -34.4880 C   0  0  0  0  0  0  0  0  0  0  0  0
   -3.8880   17.4520  -34.5370 C   0  0  0  0  0  0  0  0  0  0  0  0
   -4.5220   17.5750  -33.2610 O   0  0  0  0  0  0  0  0  0  0  0  0
   -5.5460   18.4830  -32.9420 C   0  0  0  0  0  0  0  0  0  0  0  0
   -6.0440   18.4840  -31.6340 C   0  0  0  0  0  0  0  0  0  0  0  0
   -7.0410   19.3870  -31.2530 C   0  0  0  0  0  0  0  0  0  0  0  0
   -7.5590   20.3020  -32.1830 C   0  0  0  0  0  0  0  0  0  0  0  0
   -8.6110   21.3000  -31.7770 C   0  0  0  0  0  0  0  0  0  0  0  0
   -7.9930   22.6100  -31.4840 N   0  0  0  0  0  0  0  0  0  0  0  0
   -7.2170   22.5910  -30.2140 C   0  0  0  0  0  0  0  0  0  0  0  0
   -5.7030   22.4460  -30.4450 C   0  0  0  0  0  0  0  0  0  0  0  0
   -5.1490   23.6110  -31.2960 C   0  0  0  0  0  0  0  0  0  0  0  0
   -4.6470   24.6640  -30.4140 N   0  0  0  0  0  0  0  0  0  0  0  0
   -3.5880   24.4820  -29.4690 C   0  0  0  0  0  0  0  0  0  0  0  0
   -2.4330   24.9260  -29.7100 O   0  0  0  0  0  0  0  0  0  0  0  0
   -3.8660   23.7870  -28.1720 C   0  0  0  0  0  0  0  0  0  0  0  0
   -2.8400   22.7160  -27.9120 C   0  0  0  0  0  0  0  0  0  0  0  0
   -1.6190   23.0420  -27.2990 C   0  0  0  0  0  0  0  0  0  0  0  0
   -0.6790   22.0430  -27.0300 C   0  0  0  0  0  0  0  0  0  0  0  0
   -0.9530   20.7130  -27.3630 C   0  0  0  0  0  0  0  0  0  0  0  0
   -2.1710   20.3800  -27.9640 C   0  0  0  0  0  0  0  0  0  0  0  0
   -3.1140   21.3760  -28.2330 C   0  0  0  0  0  0  0  0  0  0  0  0
   -6.2150   24.1780  -32.2600 C   0  0  0  0  0  0  0  0  0  0  0  0
   -7.2240   23.0960  -32.6570 C   0  0  0  0  0  0  0  0  0  0  0  0
   -7.0810   20.2850  -33.5010 C   0  0  0  0  0  0  0  0  0  0  0  0
   -6.0850   19.3830  -33.8810 C   0  0  0  0  0  0  0  0  0  0  0  0
   -4.0324   22.6894  -33.1606 H   0  0  0  0  0  0  0  0  0  0  0  0
   -2.7655   21.7987  -34.0708 H   0  0  0  0  0  0  0  0  0  0  0  0
   -4.4594   21.2008  -34.0708 H   0  0  0  0  0  0  0  0  0  0  0  0
   -2.8633   21.4795  -31.4895 H   0  0  0  0  0  0  0  0  0  0  0  0
   -4.3454   20.4741  -31.8472 H   0  0  0  0  0  0  0  0  0  0  0  0
   -3.1140   18.8420  -32.1970 H   0  0  0  0  0  0  0  0  0  0  0  0
   -1.5640   18.9621  -30.7704 H   0  0  0  0  0  0  0  0  0  0  0  0
   -0.5393   19.0887  -32.2908 H   0  0  0  0  0  0  0  0  0  0  0  0
   -0.7219   20.9254  -30.0955 H   0  0  0  0  0  0  0  0  0  0  0  0
    0.2906   21.0057  -31.5771 H   0  0  0  0  0  0  0  0  0  0  0  0
   -1.3593   21.7161  -31.5771 H   0  0  0  0  0  0  0  0  0  0  0  0
   -2.9289   20.0383  -34.5437 H   0  0  0  0  0  0  0  0  0  0  0  0
   -1.1798   19.5964  -34.0743 H   0  0  0  0  0  0  0  0  0  0  0  0
   -2.0206   17.8932  -35.5066 H   0  0  0  0  0  0  0  0  0  0  0  0
   -1.9075   17.2850  -33.7784 H   0  0  0  0  0  0  0  0  0  0  0  0
   -4.4432   18.0531  -35.2722 H   0  0  0  0  0  0  0  0  0  0  0  0
   -3.8873   16.3898  -34.8228 H   0  0  0  0  0  0  0  0  0  0  0  0
   -5.6474   17.7679  -30.8992 H   0  0  0  0  0  0  0  0  0  0  0  0
   -7.4209   19.3804  -30.2207 H   0  0  0  0  0  0  0  0  0  0  0  0
   -9.3356   21.4163  -32.5964 H   0  0  0  0  0  0  0  0  0  0  0  0
   -9.1188   20.9348  -30.8721 H   0  0  0  0  0  0  0  0  0  0  0  0
   -7.4021   23.5316  -29.6745 H   0  0  0  0  0  0  0  0  0  0  0  0
   -7.5497   21.7172  -29.6346 H   0  0  0  0  0  0  0  0  0  0  0  0
   -5.1913   22.4390  -29.4713 H   0  0  0  0  0  0  0  0  0  0  0  0
   -5.5236   21.5055  -30.9866 H   0  0  0  0  0  0  0  0  0  0  0  0
   -4.3263   23.2223  -31.9141 H   0  0  0  0  0  0  0  0  0  0  0  0
   -3.8357   24.5223  -27.3545 H   0  0  0  0  0  0  0  0  0  0  0  0
   -4.8599   23.3189  -28.2273 H   0  0  0  0  0  0  0  0  0  0  0  0
   -1.4019   24.0862  -27.0299 H   0  0  0  0  0  0  0  0  0  0  0  0
    0.2784   22.3038  -26.5553 H   0  0  0  0  0  0  0  0  0  0  0  0
   -0.2108   19.9289  -27.1523 H   0  0  0  0  0  0  0  0  0  0  0  0
   -2.3871   19.3335  -28.2252 H   0  0  0  0  0  0  0  0  0  0  0  0
   -4.0746   21.1096  -28.6980 H   0  0  0  0  0  0  0  0  0  0  0  0
   -6.7477   25.0023  -31.7633 H   0  0  0  0  0  0  0  0  0  0  0  0
   -5.7107   24.5386  -33.1687 H   0  0  0  0  0  0  0  0  0  0  0  0
   -7.9245   23.5144  -33.3948 H   0  0  0  0  0  0  0  0  0  0  0  0
   -6.6688   22.2462  -33.0808 H   0  0  0  0  0  0  0  0  0  0  0  0
   -7.4934   20.9870  -34.2407 H   0  0  0  0  0  0  0  0  0  0  0  0
   -5.7199   19.3756  -34.9186 H   0  0  0  0  0  0  0  0  0  0  0  0
  1  2  1  0
  2  3  1  0
  3  4  1  0
  4  5  1  0
  3  6  1  0
  6  7  1  0
  7  8  1  0
  8  9  1  0
  9 10  1  0
 10 11  2  0
 11 12  1  0
 12 13  2  0
 13 14  1  0
 14 15  1  0
 15 16  1  0
 16 17  1  0
 17 18  1  0
 18 19  1  0
 19 20  1  0
 20 21  2  0
 20 22  1  0
 22 23  1  0
 23 24  2  0
 24 25  1  0
 25 26  2  0
 26 27  1  0
 27 28  2  0
 18 29  1  0
 29 30  1  0
 13 31  1  0
 31 32  2  0
 32 10  1  0
 30 15  1  0
 28 23  1  0
  1 33  1  0
  1 34  1  0
  1 35  1  0
  2 36  1  0
  2 37  1  0
  3 38  1  0
  4 39  1  0
  4 40  1  0
  5 41  1  0
  5 42  1  0
  5 43  1  0
  6 44  1  0
  6 45  1  0
  7 46  1  0
  7 47  1  0
  8 48  1  0
  8 49  1  0
 11 50  1  0
 12 51  1  0
 14 52  1  0
 14 53  1  0
 16 54  1  0
 16 55  1  0
 17 56  1  0
 17 57  1  0
 18 58  1  0
 22 59  1  0
 22 60  1  0
 24 61  1  0
 25 62  1  0
 26 63  1  0
 27 64  1  0
 28 65  1  0
 29 66  1  0
 29 67  1  0
 30 68  1  0
 30 69  1  0
 31 70  1  0
 32 71  1  0
M  CHG  2   3   1  19  -1
M  END
>  <UniqueID>  (40) 
38

>  <SMILES>  (40) 
CC[NH+](CC)CCCOc1ccc(CN2CCC([N-]C(=O)Cc3ccccc3)CC2)cc1

>  <Energy>  (40) 
88.25622173115245

>  <Genealogy>  (40) 
CC[NH+](CC)CCCOc1ccc(CN2CCC([N-]C(=O)Cc3ccccc3)CC2)cc1 (protonated)
CC[NH+](CC)CCCOc1ccc(CN2CCC([N-]C(=O)Cc3ccccc3)CC2)cc1 (3D coordinates assigned)
CC[NH+](CC)CCCOc1ccc(CN2CCC([N-]C(=O)Cc3ccccc3)CC2)cc1 (nonaromatic ring conformer: 88.25622173115245 kcal/mol)

>  <smiles>  (40) 
CCN(CC)CCCOc1ccc(CN2CCC(NC(=O)Cc3ccccc3)CC2)cc1

>  <score_type>  (40) 
oracle

>  <origin>  (40) 
adg

>  <m_score__min__energy>  (40) 
-9.6699999999999999

>  <m_primary>  (40) 
energy

$$$$
40:0
     RDKit          3D

 43 44  0  0  0  0  0  0  0  0999 V2000
   -6.4490   17.7540  -31.3200 C   0  0  0  0  0  0  0  0  0  0  0  0
   -7.0880   18.5540  -32.3110 O   0  0  0  0  0  0  0  0  0  0  0  0
   -7.6170   19.8320  -32.0760 C   0  0  0  0  0  0  0  0  0  0  0  0
   -8.9820   20.1290  -32.2550 C   0  0  0  0  0  0  0  0  0  0  0  0
   -9.4610   21.4170  -31.9990 C   0  0  0  0  0  0  0  0  0  0  0  0
   -8.5870   22.4180  -31.5690 C   0  0  0  0  0  0  0  0  0  0  0  0
   -7.2230   22.1400  -31.3980 C   0  0  0  0  0  0  0  0  0  0  0  0
   -6.3310   23.1720  -30.9420 N   0  0  0  0  0  0  0  0  0  0  0  0
   -6.8640   24.2010  -30.0450 C   0  0  0  0  0  0  0  0  0  0  0  0
   -4.9670   23.2040  -31.4220 C   0  0  0  0  0  0  0  0  0  0  0  0
   -4.6650   22.5310  -32.4450 O   0  0  0  0  0  0  0  0  0  0  0  0
   -3.9090   24.0170  -30.7600 C   0  0  0  0  0  0  0  0  0  0  0  0
   -3.9850   25.2750  -30.7790 O   0  0  0  0  0  0  0  0  0  0  0  0
   -2.7830   23.4010  -30.0960 N   0  0  0  0  0  0  0  0  0  0  0  0
   -2.1070   22.2390  -30.7090 C   0  0  0  0  0  0  0  0  0  0  0  0
   -2.4220   20.9000  -30.0140 C   0  0  0  0  0  0  0  0  0  0  0  0
   -3.1010   21.0490  -28.6400 C   0  0  0  0  0  0  0  0  0  0  0  0
   -2.2990   21.8360  -27.5880 C   0  0  0  0  0  0  0  0  0  0  0  0
   -2.5680   23.3510  -27.5940 C   0  0  0  0  0  0  0  0  0  0  0  0
   -2.2110   24.0710  -28.9150 C   0  0  0  0  0  0  0  0  0  0  0  0
   -6.7480   20.8420  -31.6450 C   0  0  0  0  0  0  0  0  0  0  0  0
   -6.7347   18.1117  -30.3198 H   0  0  0  0  0  0  0  0  0  0  0  0
   -6.7613   16.7058  -31.4376 H   0  0  0  0  0  0  0  0  0  0  0  0
   -5.3577   17.8269  -31.4376 H   0  0  0  0  0  0  0  0  0  0  0  0
   -9.6734   19.3449  -32.5973 H   0  0  0  0  0  0  0  0  0  0  0  0
  -10.5288   21.6427  -32.1365 H   0  0  0  0  0  0  0  0  0  0  0  0
   -8.9700   23.4285  -31.3636 H   0  0  0  0  0  0  0  0  0  0  0  0
   -6.7054   23.8948  -29.0005 H   0  0  0  0  0  0  0  0  0  0  0  0
   -6.3458   25.1534  -30.2306 H   0  0  0  0  0  0  0  0  0  0  0  0
   -7.9409   24.3272  -30.2306 H   0  0  0  0  0  0  0  0  0  0  0  0
   -2.4241   22.1676  -31.7599 H   0  0  0  0  0  0  0  0  0  0  0  0
   -1.0247   22.4067  -30.6071 H   0  0  0  0  0  0  0  0  0  0  0  0
   -3.0896   20.3200  -30.6681 H   0  0  0  0  0  0  0  0  0  0  0  0
   -1.4584   20.3993  -29.8389 H   0  0  0  0  0  0  0  0  0  0  0  0
   -4.0610   21.5647  -28.7902 H   0  0  0  0  0  0  0  0  0  0  0  0
   -3.2041   20.0290  -28.2412 H   0  0  0  0  0  0  0  0  0  0  0  0
   -2.5568   21.4437  -26.5932 H   0  0  0  0  0  0  0  0  0  0  0  0
   -1.2357   21.7026  -27.8361 H   0  0  0  0  0  0  0  0  0  0  0  0
   -3.6388   23.5086  -27.3977 H   0  0  0  0  0  0  0  0  0  0  0  0
   -1.9151   23.7830  -26.8213 H   0  0  0  0  0  0  0  0  0  0  0  0
   -2.5977   25.0999  -28.8715 H   0  0  0  0  0  0  0  0  0  0  0  0
   -1.1161   24.0541  -29.0192 H   0  0  0  0  0  0  0  0  0  0  0  0
   -5.6815   20.6160  -31.4983 H   0  0  0  0  0  0  0  0  0  0  0  0
  1  2  1  0
  2  3  1  0
  3  4  2  0
  4  5  1  0
  5  6  2  0
  6  7  1  0
  7  8  1  0
  8  9  1  0
  8 10  1  0
 10 11  2  0
 10 12  1  0
 12 13  2  0
 12 14  1  0
 14 15  1  0
 15 16  1  0
 16 17  1  0
 17 18  1  0
 18 19  1  0
 19 20  1  0
  7 21  2  0
 21  3  1  0
 20 14  1  0
  1 22  1  0
  1 23  1  0
  1 24  1  0
  4 25  1  0
  5 26  1  0
  6 27  1  0
  9 28  1  0
  9 29  1  0
  9 30  1  0
 15 31  1  0
 15 32  1  0
 16 33  1  0
 16 34  1  0
 17 35  1  0
 17 36  1  0
 18 37  1  0
 18 38  1  0
 19 39  1  0
 19 40  1  0
 20 41  1  0
 20 42  1  0
 21 43  1  0
M  END
>  <UniqueID>  (41) 
39

>  <SMILES>  (41) 
COc1cccc(N(C)C(=O)C(=O)N2CCCCCC2)c1

>  <Energy>  (41) 
58.0789555802537

>  <Genealogy>  (41) 
COc1cccc(N(C)C(=O)C(=O)N2CCCCCC2)c1 (3D coordinates assigned)
COc1cccc(N(C)C(=O)C(=O)N2CCCCCC2)c1 (nonaromatic ring conformer: 58.0789555802537 kcal/mol)

>  <smiles>  (41) 
COc1cccc(N(C)C(=O)C(=O)N2CCCCCC2)c1

>  <score_type>  (41) 
oracle

>  <origin>  (41) 
adg

>  <m_score__min__energy>  (41) 
-5.9500000000000002

>  <m_primary>  (41) 
energy

$$$$
41:0
     RDKit          3D

 52 55  0  0  0  0  0  0  0  0999 V2000
   -0.0340   22.7500  -25.4960 C   0  0  0  0  0  0  0  0  0  0  0  0
   -1.2300   22.1270  -25.9570 O   0  0  0  0  0  0  0  0  0  0  0  0
   -1.6500   22.1140  -27.2950 C   0  0  0  0  0  0  0  0  0  0  0  0
   -2.4390   21.0770  -27.8290 C   0  0  0  0  0  0  0  0  0  0  0  0
   -2.8310   21.1090  -29.1700 C   0  0  0  0  0  0  0  0  0  0  0  0
   -2.4430   22.1720  -29.9990 C   0  0  0  0  0  0  0  0  0  0  0  0
   -2.8360   22.2000  -31.3830 N   0  0  0  0  0  0  0  0  0  0  0  0
   -2.2540   21.5540  -32.4140 C   0  0  0  0  0  0  0  0  0  0  0  0
   -0.7210   20.6240  -32.3190 S   0  0  0  0  0  0  0  0  0  0  0  0
   -1.5340   19.0000  -32.1140 C   0  0  0  0  0  0  0  0  0  0  0  0
   -2.4350   18.6990  -33.2800 C   0  0  0  0  0  0  0  0  0  0  0  0
   -1.8930   18.4440  -34.3910 O   0  0  0  0  0  0  0  0  0  0  0  0
   -3.8790   18.7000  -33.1710 N   0  0  0  0  0  0  0  0  0  0  0  0
   -4.5560   19.2860  -32.0020 C   0  0  0  0  0  0  0  0  0  0  0  0
   -5.9580   18.6910  -31.8380 C   0  0  0  0  0  0  0  0  0  0  0  0
   -6.6850   18.7740  -33.0480 O   0  0  0  0  0  0  0  0  0  0  0  0
   -6.0730   17.9510  -34.0200 C   0  0  0  0  0  0  0  0  0  0  0  0
   -4.6820   18.4810  -34.3820 C   0  0  0  0  0  0  0  0  0  0  0  0
   -3.0200   21.5950  -33.5200 N   0  0  0  0  0  0  0  0  0  0  0  0
   -4.1100   22.2820  -33.2100 N   0  0  0  0  0  0  0  0  0  0  0  0
   -3.9950   22.6450  -31.9180 C   0  0  0  0  0  0  0  0  0  0  0  0
   -5.0390   23.4100  -31.2020 C   0  0  0  0  0  0  0  0  0  0  0  0
   -6.3440   22.8960  -31.1410 C   0  0  0  0  0  0  0  0  0  0  0  0
   -7.3460   23.5880  -30.4570 C   0  0  0  0  0  0  0  0  0  0  0  0
   -7.0570   24.8050  -29.8360 C   0  0  0  0  0  0  0  0  0  0  0  0
   -5.7690   25.3390  -29.9110 C   0  0  0  0  0  0  0  0  0  0  0  0
   -4.7580   24.6560  -30.6020 C   0  0  0  0  0  0  0  0  0  0  0  0
   -3.4890   25.2230  -30.7130 O   0  0  0  0  0  0  0  0  0  0  0  0
   -1.6560   23.2040  -29.4650 C   0  0  0  0  0  0  0  0  0  0  0  0
   -1.2640   23.1730  -28.1240 C   0  0  0  0  0  0  0  0  0  0  0  0
   -0.0238   22.7553  -24.3961 H   0  0  0  0  0  0  0  0  0  0  0  0
    0.8374   22.1912  -25.8681 H   0  0  0  0  0  0  0  0  0  0  0  0
    0.0075   23.7843  -25.8681 H   0  0  0  0  0  0  0  0  0  0  0  0
   -2.7481   20.2383  -27.1879 H   0  0  0  0  0  0  0  0  0  0  0  0
   -3.4481   20.2950  -29.5783 H   0  0  0  0  0  0  0  0  0  0  0  0
   -0.7635   18.2181  -32.0432 H   0  0  0  0  0  0  0  0  0  0  0  0
   -2.1421   19.0249  -31.1977 H   0  0  0  0  0  0  0  0  0  0  0  0
   -3.9654   19.0747  -31.0984 H   0  0  0  0  0  0  0  0  0  0  0  0
   -4.6464   20.3720  -32.1514 H   0  0  0  0  0  0  0  0  0  0  0  0
   -5.8691   17.6351  -31.5428 H   0  0  0  0  0  0  0  0  0  0  0  0
   -6.4943   19.2616  -31.0654 H   0  0  0  0  0  0  0  0  0  0  0  0
   -5.9776   16.9305  -33.6205 H   0  0  0  0  0  0  0  0  0  0  0  0
   -6.6973   17.9502  -34.9257 H   0  0  0  0  0  0  0  0  0  0  0  0
   -4.1726   17.7487  -35.0256 H   0  0  0  0  0  0  0  0  0  0  0  0
   -4.7948   19.4394  -34.9100 H   0  0  0  0  0  0  0  0  0  0  0  0
   -6.5789   21.9418  -31.6353 H   0  0  0  0  0  0  0  0  0  0  0  0
   -8.3639   23.1740  -30.4074 H   0  0  0  0  0  0  0  0  0  0  0  0
   -7.8442   25.3431  -29.2876 H   0  0  0  0  0  0  0  0  0  0  0  0
   -5.5463   26.3006  -29.4254 H   0  0  0  0  0  0  0  0  0  0  0  0
   -3.1560   25.6170  -31.5840 H   0  0  0  0  0  0  0  0  0  0  0  0
   -1.3458   24.0424  -30.1059 H   0  0  0  0  0  0  0  0  0  0  0  0
   -0.6471   23.9877  -27.7169 H   0  0  0  0  0  0  0  0  0  0  0  0
  1  2  1  0
  2  3  1  0
  3  4  2  0
  4  5  1  0
  5  6  2  0
  6  7  1  0
  7  8  1  0
  8  9  1  0
  9 10  1  0
 10 11  1  0
 11 12  2  0
 11 13  1  0
 13 14  1  0
 14 15  1  0
 15 16  1  0
 16 17  1  0
 17 18  1  0
  8 19  2  0
 19 20  1  0
 20 21  2  0
 21 22  1  0
 22 23  2  0
 23 24  1  0
 24 25  2  0
 25 26  1  0
 26 27  2  0
 27 28  1  0
  6 29  1  0
 29 30  2  0
 30  3  1  0
 21  7  1  0
 27 22  1  0
 18 13  1  0
  1 31  1  0
  1 32  1  0
  1 33  1  0
  4 34  1  0
  5 35  1  0
 10 36  1  0
 10 37  1  0
 14 38  1  0
 14 39  1  0
 15 40  1  0
 15 41  1  0
 17 42  1  0
 17 43  1  0
 18 44  1  0
 18 45  1  0
 23 46  1  0
 24 47  1  0
 25 48  1  0
 26 49  1  0
 28 50  1  0
 29 51  1  0
 30 52  1  0
M  END
>  <UniqueID>  (42) 
40

>  <SMILES>  (42) 
COc1ccc(-n2c(SCC(=O)N3CCOCC3)nnc2-c2ccccc2O)cc1

>  <Energy>  (42) 
98.28150649704982

>  <Genealogy>  (42) 
COc1ccc(-n2c(SCC(=O)N3CCOCC3)nnc2-c2ccccc2O)cc1 (3D coordinates assigned)
COc1ccc(-n2c(SCC(=O)N3CCOCC3)nnc2-c2ccccc2O)cc1 (nonaromatic ring conformer: 98.28150649704982 kcal/mol)

>  <smiles>  (42) 
COc1ccc(-n2c(SCC(=O)N3CCOCC3)nnc2-c2ccccc2O)cc1

>  <score_type>  (42) 
oracle

>  <origin>  (42) 
adg

>  <m_score__min__energy>  (42) 
-9.8599999999999994

>  <m_primary>  (42) 
energy

$$$$
42:0
     RDKit          3D

 21 22  0  0  0  0  0  0  0  0999 V2000
    1.1510   26.4990  -23.1950 N   0  0  0  0  0  0  0  0  0  0  0  0
   -0.0660   27.2170  -23.5680 C   0  0  0  0  0  0  0  0  0  0  0  0
   -0.4030   26.9780  -25.0160 C   0  0  0  0  0  0  0  0  0  0  0  0
   -0.3200   28.0390  -25.9560 C   0  0  0  0  0  0  0  0  0  0  0  0
   -0.5910   27.8200  -27.2790 N   0  0  0  0  0  0  0  0  0  0  0  0
   -0.9330   26.5730  -27.6830 C   0  0  0  0  0  0  0  0  0  0  0  0
   -1.2220   26.1980  -28.9380 N   0  0  0  0  0  0  0  0  0  0  0  0
   -1.4930   24.8730  -28.8630 C   0  0  0  0  0  0  0  0  0  0  0  0
   -1.3710   24.4140  -27.5530 C   0  0  0  0  0  0  0  0  0  0  0  0
   -1.0130   25.5230  -26.8180 C   0  0  0  0  0  0  0  0  0  0  0  0
   -0.7470   25.6850  -25.4620 C   0  0  0  0  0  0  0  0  0  0  0  0
    1.5430   26.8930  -22.3090 H   0  0  0  0  0  0  0  0  0  0  0  0
    0.9220   25.4900  -23.0440 H   0  0  0  0  0  0  0  0  0  0  0  0
    1.8610   26.5740  -23.9600 H   0  0  0  0  0  0  0  0  0  0  0  0
   -0.8988   26.8660  -22.9409 H   0  0  0  0  0  0  0  0  0  0  0  0
    0.0986   28.2940  -23.4166 H   0  0  0  0  0  0  0  0  0  0  0  0
   -0.0352   29.0461  -25.6174 H   0  0  0  0  0  0  0  0  0  0  0  0
   -1.2350   26.7980  -29.7920 H   0  0  0  0  0  0  0  0  0  0  0  0
   -1.7719   24.2438  -29.7211 H   0  0  0  0  0  0  0  0  0  0  0  0
   -1.5267   23.3890  -27.1855 H   0  0  0  0  0  0  0  0  0  0  0  0
   -0.8029   24.8366  -24.7641 H   0  0  0  0  0  0  0  0  0  0  0  0
  1  2  1  0
  2  3  1  0
  3  4  2  0
  4  5  1  0
  5  6  2  0
  6  7  1  0
  7  8  1  0
  8  9  2  0
  9 10  1  0
 10 11  2  0
 11  3  1  0
 10  6  1  0
  1 12  1  0
  1 13  1  0
  1 14  1  0
  2 15  1  0
  2 16  1  0
  4 17  1  0
  7 18  1  0
  8 19  1  0
  9 20  1  0
 11 21  1  0
M  CHG  1   1   1
M  END
>  <UniqueID>  (43) 
41

>  <SMILES>  (43) 
[NH3+]Cc1cnc2[nH]ccc2c1

>  <Energy>  (43) 
53.97243399506328

>  <Genealogy>  (43) 
[NH3+]Cc1cnc2[nH]ccc2c1 (protonated)
[NH3+]Cc1cnc2[nH]ccc2c1 (3D coordinates assigned)
[NH3+]Cc1cnc2[nH]ccc2c1 (optimized conformer: 53.97243399506328 kcal/mol)

>  <smiles>  (43) 
NCc1cnc2[nH]ccc2c1

>  <score_type>  (43) 
oracle

>  <origin>  (43) 
adg

>  <m_score__min__energy>  (43) 
-5.8200000000000003

>  <m_primary>  (43) 
energy

$$$$
43:0
     RDKit          3D

 51 53  0  0  0  0  0  0  0  0999 V2000
   -4.4519   25.8460  -29.3768 H   0  0  0  0  0  0  0  0  0  0  0  0
   -4.5810   24.8860  -29.8980 C   0  0  0  0  0  0  0  0  0  0  0  0
   -5.4560   24.8480  -30.9160 C   0  0  0  0  0  0  0  0  0  0  0  0
   -5.6340   25.7837  -31.4663 H   0  0  0  0  0  0  0  0  0  0  0  0
   -6.2000   23.6460  -31.3560 C   0  0  0  0  0  0  0  0  0  0  0  0
   -7.5920   23.4990  -31.1410 C   0  0  0  0  0  0  0  0  0  0  0  0
   -8.1479   24.2865  -30.6111 H   0  0  0  0  0  0  0  0  0  0  0  0
   -8.2730   22.3500  -31.6010 C   0  0  0  0  0  0  0  0  0  0  0  0
   -9.3512   22.2426  -31.4115 H   0  0  0  0  0  0  0  0  0  0  0  0
   -7.5850   21.3440  -32.2980 C   0  0  0  0  0  0  0  0  0  0  0  0
   -8.1035   20.4424  -32.6562 H   0  0  0  0  0  0  0  0  0  0  0  0
   -6.2200   21.5290  -32.5200 C   0  0  0  0  0  0  0  0  0  0  0  0
   -5.5550   22.6360  -32.0740 C   0  0  0  0  0  0  0  0  0  0  0  0
   -4.2540   22.5690  -32.4180 N   0  0  0  0  0  0  0  0  0  0  0  0
   -4.1670   21.3900  -33.0850 C   0  0  0  0  0  0  0  0  0  0  0  0
   -3.2318   21.0073  -33.5197 H   0  0  0  0  0  0  0  0  0  0  0  0
   -5.3500   20.7320  -33.1610 N   0  0  0  0  0  0  0  0  0  0  0  0
   -5.6080   19.4650  -33.8470 C   0  0  0  0  0  0  0  0  0  0  0  0
   -5.1796   19.5144  -34.8589 H   0  0  0  0  0  0  0  0  0  0  0  0
   -6.6967   19.3127  -33.8853 H   0  0  0  0  0  0  0  0  0  0  0  0
   -4.9820   18.2680  -33.0970 C   0  0  0  0  0  0  0  0  0  0  0  0
   -4.3394   18.6605  -32.2951 H   0  0  0  0  0  0  0  0  0  0  0  0
   -4.4220   17.6841  -33.8423 H   0  0  0  0  0  0  0  0  0  0  0  0
   -5.9770   17.3460  -32.4890 N   0  0  2  0  0  0  0  0  0  0  0  0
   -5.4740   16.5560  -32.0210 H   0  0  0  0  0  0  0  0  0  0  0  0
   -6.8050   16.7590  -33.5630 C   0  0  0  0  0  0  0  0  0  0  0  0
   -7.6254   16.1774  -33.1172 H   0  0  0  0  0  0  0  0  0  0  0  0
   -7.2224   17.5640  -34.1857 H   0  0  0  0  0  0  0  0  0  0  0  0
   -6.1836   16.0986  -34.1857 H   0  0  0  0  0  0  0  0  0  0  0  0
   -6.8290   18.0510  -31.4970 C   0  0  0  0  0  0  0  0  0  0  0  0
   -6.4041   19.0491  -31.3144 H   0  0  0  0  0  0  0  0  0  0  0  0
   -6.8456   17.4421  -30.5811 H   0  0  0  0  0  0  0  0  0  0  0  0
   -8.2780   18.2140  -31.9710 C   0  0  0  0  0  0  0  0  0  0  0  0
   -8.9431   18.2888  -31.0981 H   0  0  0  0  0  0  0  0  0  0  0  0
   -8.3648   19.1276  -32.5775 H   0  0  0  0  0  0  0  0  0  0  0  0
   -8.5656   17.3425  -32.5775 H   0  0  0  0  0  0  0  0  0  0  0  0
   -3.7770   23.7390  -29.4220 C   0  0  0  0  0  0  0  0  0  0  0  0
   -2.5320   23.4250  -29.9960 C   0  0  0  0  0  0  0  0  0  0  0  0
   -2.1435   24.0319  -30.8271 H   0  0  0  0  0  0  0  0  0  0  0  0
   -1.7860   22.3450  -29.5150 C   0  0  0  0  0  0  0  0  0  0  0  0
   -0.8199   22.0952  -29.9778 H   0  0  0  0  0  0  0  0  0  0  0  0
   -2.2670   21.5810  -28.4450 C   0  0  0  0  0  0  0  0  0  0  0  0
   -1.3100   20.1940  -27.8320 S   0  0  0  0  0  0  0  0  0  0  0  0
   -2.7010   19.5000  -26.8850 C   0  0  0  0  0  0  0  0  0  0  0  0
   -2.4984   19.6011  -25.8086 H   0  0  0  0  0  0  0  0  0  0  0  0
   -3.6236   20.0434  -27.1371 H   0  0  0  0  0  0  0  0  0  0  0  0
   -2.8216   18.4361  -27.1371 H   0  0  0  0  0  0  0  0  0  0  0  0
   -3.4870   21.9120  -27.8460 C   0  0  0  0  0  0  0  0  0  0  0  0
   -3.8589   21.3216  -26.9956 H   0  0  0  0  0  0  0  0  0  0  0  0
   -4.2350   22.9920  -28.3260 C   0  0  0  0  0  0  0  0  0  0  0  0
   -5.1866   23.2570  -27.8421 H   0  0  0  0  0  0  0  0  0  0  0  0
  1  2  1  0
  2  3  2  0
  3  4  1  0
  3  5  1  0
  5  6  2  0
  6  7  1  0
  6  8  1  0
  8  9  1  0
  8 10  2  0
 10 11  1  0
 10 12  1  0
 12 13  2  0
 13 14  1  0
 14 15  2  0
 15 16  1  0
 15 17  1  0
 17 18  1  0
 18 19  1  0
 18 20  1  0
 18 21  1  0
 21 22  1  0
 21 23  1  0
 21 24  1  0
 24 25  1  1
 24 26  1  0
 26 27  1  0
 26 28  1  0
 26 29  1  0
 24 30  1  0
 30 31  1  0
 30 32  1  0
 30 33  1  0
 33 34  1  0
 33 35  1  0
 33 36  1  0
  2 37  1  0
 37 38  2  0
 38 39  1  0
 38 40  1  0
 40 41  1  0
 40 42  2  0
 42 43  1  0
 43 44  1  0
 44 45  1  0
 44 46  1  0
 44 47  1  0
 42 48  1  0
 48 49  1  0
 48 50  2  0
 50 51  1  0
 13  5  1  0
 50 37  1  0
 17 12  1  0
M  CHG  1  24   1
M  END
>  <UniqueID>  (44) 
42

>  <SMILES>  (44) 
CC[N@@H+](C)CCn1cnc2c(/C=C\c3ccc(SC)cc3)cccc21

>  <Energy>  (44) 
94.07923975804522

>  <Genealogy>  (44) 
CC[NH+](C)CCn1cnc2c(C=Cc3ccc(SC)cc3)cccc21 (protonated)
CC[N@@H+](C)CCn1cnc2c(C=Cc3ccc(SC)cc3)cccc21 (chirality)
CC[N@@H+](C)CCn1cnc2c(/C=C\c3ccc(SC)cc3)cccc21 (cis-trans isomerization)
CC[N@@H+](C)CCn1cnc2c(/C=C\c3ccc(SC)cc3)cccc21 (3D coordinates assigned)
CC[N@@H+](C)CCn1cnc2c(/C=C\c3ccc(SC)cc3)cccc21 (optimized conformer: 94.07923975804522 kcal/mol)

>  <smiles>  (44) 
CCN(C)CCn1cnc2c(C=Cc3ccc(SC)cc3)cccc21

>  <score_type>  (44) 
oracle

>  <origin>  (44) 
adg

>  <m_score__min__energy>  (44) 
-8.2400000000000002

>  <m_primary>  (44) 
energy

$$$$
44:0
     RDKit          3D

 42 44  0  0  0  0  0  0  0  0999 V2000
   -5.3680   26.0660  -30.4790 C   0  0  0  0  0  0  0  0  0  0  0  0
   -4.1700   25.3100  -30.6260 O   0  0  0  0  0  0  0  0  0  0  0  0
   -3.7200   24.3460  -29.7090 C   0  0  0  0  0  0  0  0  0  0  0  0
   -2.3760   24.2920  -29.2840 C   0  0  0  0  0  0  0  0  0  0  0  0
   -1.9600   23.3130  -28.3780 C   0  0  0  0  0  0  0  0  0  0  0  0
   -2.8720   22.3780  -27.8890 C   0  0  0  0  0  0  0  0  0  0  0  0
   -4.2060   22.4190  -28.3000 C   0  0  0  0  0  0  0  0  0  0  0  0
   -4.6400   23.4010  -29.2050 C   0  0  0  0  0  0  0  0  0  0  0  0
   -6.0800   23.4210  -29.6610 C   0  0  0  0  0  0  0  0  0  0  0  0
   -6.3490   22.2990  -30.5840 N   0  0  0  0  0  0  0  0  0  0  0  0
   -7.8020   22.1700  -30.8670 C   0  0  0  0  0  0  0  0  0  0  0  0
   -8.0930   21.3610  -32.1470 C   0  0  0  0  0  0  0  0  0  0  0  0
   -6.9490   20.5070  -32.4850 N   0  0  0  0  0  0  0  0  0  0  0  0
   -7.0700   19.0730  -32.4230 C   0  0  0  0  0  0  0  0  0  0  0  0
   -7.8480   18.5500  -31.5790 O   0  0  0  0  0  0  0  0  0  0  0  0
   -6.2930   18.1910  -33.3100 C   0  0  0  0  0  0  0  0  0  0  0  0
   -5.7410   18.5250  -34.5430 C   0  0  0  0  0  0  0  0  0  0  0  0
   -5.0940   17.4520  -35.1690 C   0  0  0  0  0  0  0  0  0  0  0  0
   -5.1430   16.2690  -34.4430 C   0  0  0  0  0  0  0  0  0  0  0  0
   -5.9960   16.5590  -33.0240 S   0  0  0  0  0  0  0  0  0  0  0  0
   -5.6300   21.1390  -32.6230 C   0  0  0  0  0  0  0  0  0  0  0  0
   -5.5730   22.4520  -31.8290 C   0  0  0  0  0  0  0  0  0  0  0  0
   -5.5859   26.2035  -29.4096 H   0  0  0  0  0  0  0  0  0  0  0  0
   -5.2424   27.0488  -30.9569 H   0  0  0  0  0  0  0  0  0  0  0  0
   -6.2010   25.5296  -30.9569 H   0  0  0  0  0  0  0  0  0  0  0  0
   -1.6512   25.0249  -29.6681 H   0  0  0  0  0  0  0  0  0  0  0  0
   -0.9107   23.2796  -28.0496 H   0  0  0  0  0  0  0  0  0  0  0  0
   -2.5399   21.6069  -27.1783 H   0  0  0  0  0  0  0  0  0  0  0  0
   -4.9207   21.6780  -27.9127 H   0  0  0  0  0  0  0  0  0  0  0  0
   -6.7381   23.3334  -28.7840 H   0  0  0  0  0  0  0  0  0  0  0  0
   -6.2720   24.3674  -30.1878 H   0  0  0  0  0  0  0  0  0  0  0  0
   -8.2822   21.6653  -30.0157 H   0  0  0  0  0  0  0  0  0  0  0  0
   -8.2007   23.1839  -31.0188 H   0  0  0  0  0  0  0  0  0  0  0  0
   -8.9796   20.7308  -31.9834 H   0  0  0  0  0  0  0  0  0  0  0  0
   -8.2732   22.0600  -32.9770 H   0  0  0  0  0  0  0  0  0  0  0  0
   -5.8063   19.5314  -34.9822 H   0  0  0  0  0  0  0  0  0  0  0  0
   -4.5936   17.5382  -36.1448 H   0  0  0  0  0  0  0  0  0  0  0  0
   -4.7001   15.3083  -34.7445 H   0  0  0  0  0  0  0  0  0  0  0  0
   -4.8590   20.4529  -32.2425 H   0  0  0  0  0  0  0  0  0  0  0  0
   -5.4525   21.3598  -33.6859 H   0  0  0  0  0  0  0  0  0  0  0  0
   -4.5271   22.6889  -31.5841 H   0  0  0  0  0  0  0  0  0  0  0  0
   -5.9983   23.2678  -32.4321 H   0  0  0  0  0  0  0  0  0  0  0  0
  1  2  1  0
  2  3  1  0
  3  4  2  0
  4  5  1  0
  5  6  2  0
  6  7  1  0
  7  8  2  0
  8  9  1  0
  9 10  1  0
 10 11  1  0
 11 12  1  0
 12 13  1  0
 13 14  1  0
 14 15  2  0
 14 16  1  0
 16 17  2  0
 17 18  1  0
 18 19  2  0
 19 20  1  0
 13 21  1  0
 21 22  1  0
  8  3  1  0
 22 10  1  0
 20 16  1  0
  1 23  1  0
  1 24  1  0
  1 25  1  0
  4 26  1  0
  5 27  1  0
  6 28  1  0
  7 29  1  0
  9 30  1  0
  9 31  1  0
 11 32  1  0
 11 33  1  0
 12 34  1  0
 12 35  1  0
 17 36  1  0
 18 37  1  0
 19 38  1  0
 21 39  1  0
 21 40  1  0
 22 41  1  0
 22 42  1  0
M  END
>  <UniqueID>  (45) 
43

>  <SMILES>  (45) 
COc1ccccc1CN1CCN(C(=O)c2cccs2)CC1

>  <Energy>  (45) 
78.23925643804583

>  <Genealogy>  (45) 
COc1ccccc1CN1CCN(C(=O)c2cccs2)CC1 (3D coordinates assigned)
COc1ccccc1CN1CCN(C(=O)c2cccs2)CC1 (nonaromatic ring conformer: 78.23925643804583 kcal/mol)

>  <smiles>  (45) 
COc1ccccc1CN1CCN(C(=O)c2cccs2)CC1

>  <score_type>  (45) 
oracle

>  <origin>  (45) 
adg

>  <m_score__min__energy>  (45) 
-8.1199999999999992

>  <m_primary>  (45) 
energy

$$$$
45:0
     RDKit          3D

 48 50  0  0  0  0  0  0  0  0999 V2000
   -4.1270   21.9130  -33.0120 C   0  0  0  0  0  0  0  0  0  0  0  0
   -4.7480   21.7000  -31.6360 C   0  0  0  0  0  0  0  0  0  0  0  0
   -6.2130   21.7570  -31.7160 N   0  0  0  0  0  0  0  0  0  0  0  0
   -7.0160   22.8270  -31.4660 C   0  0  0  0  0  0  0  0  0  0  0  0
   -6.5330   24.1980  -31.0880 C   0  0  0  0  0  0  0  0  0  0  0  0
   -5.9140   24.1600  -29.7650 N   0  0  0  0  0  0  0  0  0  0  0  0
   -4.5670   24.5880  -29.5200 C   0  0  0  0  0  0  0  0  0  0  0  0
   -3.8550   25.0260  -30.4640 O   0  0  0  0  0  0  0  0  0  0  0  0
   -4.0020   24.5490  -28.1300 C   0  0  0  0  0  0  0  0  0  0  0  0
   -3.0360   23.3590  -27.9380 C   0  0  0  0  0  0  0  0  0  0  0  0
   -3.6750   22.0310  -28.4290 C   0  0  0  0  0  0  0  0  0  0  0  0
   -2.6100   20.9940  -28.7960 C   0  0  0  0  0  0  0  0  0  0  0  0
   -1.7210   21.4820  -29.9570 C   0  0  0  0  0  0  0  0  0  0  0  0
   -1.5750   23.0160  -30.0120 C   0  0  0  0  0  0  0  0  0  0  0  0
   -1.6670   23.6430  -28.6170 C   0  0  0  0  0  0  0  0  0  0  0  0
   -8.3590   22.4760  -31.5770 C   0  0  0  0  0  0  0  0  0  0  0  0
   -8.3560   21.1390  -31.9060 C   0  0  0  0  0  0  0  0  0  0  0  0
   -9.4190   20.2660  -32.1290 C   0  0  0  0  0  0  0  0  0  0  0  0
   -9.1160   18.9290  -32.4410 C   0  0  0  0  0  0  0  0  0  0  0  0
   -7.7730   18.5000  -32.5190 C   0  0  0  0  0  0  0  0  0  0  0  0
   -6.7210   19.4040  -32.2850 C   0  0  0  0  0  0  0  0  0  0  0  0
   -7.0480   20.7300  -31.9810 C   0  0  0  0  0  0  0  0  0  0  0  0
   -3.0923   22.2679  -32.8963 H   0  0  0  0  0  0  0  0  0  0  0  0
   -4.1289   20.9628  -33.5662 H   0  0  0  0  0  0  0  0  0  0  0  0
   -4.7117   22.6619  -33.5662 H   0  0  0  0  0  0  0  0  0  0  0  0
   -4.4450   20.7151  -31.2511 H   0  0  0  0  0  0  0  0  0  0  0  0
   -4.3983   22.4959  -30.9620 H   0  0  0  0  0  0  0  0  0  0  0  0
   -5.7937   24.5408  -31.8269 H   0  0  0  0  0  0  0  0  0  0  0  0
   -7.3876   24.8903  -31.0682 H   0  0  0  0  0  0  0  0  0  0  0  0
   -6.5110   23.8900  -28.9500 H   0  0  0  0  0  0  0  0  0  0  0  0
   -3.4562   25.4851  -27.9409 H   0  0  0  0  0  0  0  0  0  0  0  0
   -4.8371   24.4295  -27.4241 H   0  0  0  0  0  0  0  0  0  0  0  0
   -2.8446   23.2385  -26.8615 H   0  0  0  0  0  0  0  0  0  0  0  0
   -4.3095   21.6229  -27.6284 H   0  0  0  0  0  0  0  0  0  0  0  0
   -4.2686   22.2475  -29.3294 H   0  0  0  0  0  0  0  0  0  0  0  0
   -1.9771   20.8053  -27.9164 H   0  0  0  0  0  0  0  0  0  0  0  0
   -3.1208   20.0739  -29.1163 H   0  0  0  0  0  0  0  0  0  0  0  0
   -0.7204   21.0403  -29.8398 H   0  0  0  0  0  0  0  0  0  0  0  0
   -2.2065   21.1678  -30.8927 H   0  0  0  0  0  0  0  0  0  0  0  0
   -0.5981   23.2658  -30.4517 H   0  0  0  0  0  0  0  0  0  0  0  0
   -2.3962   23.4175  -30.6239 H   0  0  0  0  0  0  0  0  0  0  0  0
   -0.8660   23.2277  -27.9878 H   0  0  0  0  0  0  0  0  0  0  0  0
   -1.5630   24.7325  -28.7275 H   0  0  0  0  0  0  0  0  0  0  0  0
   -9.2340   23.1268  -31.4329 H   0  0  0  0  0  0  0  0  0  0  0  0
  -10.4612   20.6116  -32.0631 H   0  0  0  0  0  0  0  0  0  0  0  0
   -9.9302   18.2127  -32.6255 H   0  0  0  0  0  0  0  0  0  0  0  0
   -7.5479   17.4516  -32.7644 H   0  0  0  0  0  0  0  0  0  0  0  0
   -5.6718   19.0779  -32.3394 H   0  0  0  0  0  0  0  0  0  0  0  0
  1  2  1  0
  2  3  1  0
  3  4  1  0
  4  5  1  0
  5  6  1  0
  6  7  1  0
  7  8  2  0
  7  9  1  0
  9 10  1  0
 10 11  1  0
 11 12  1  0
 12 13  1  0
 13 14  1  0
 14 15  1  0
  4 16  2  0
 16 17  1  0
 17 18  2  0
 18 19  1  0
 19 20  2  0
 20 21  1  0
 21 22  2  0
 22  3  1  0
 15 10  1  0
 22 17  1  0
  1 23  1  0
  1 24  1  0
  1 25  1  0
  2 26  1  0
  2 27  1  0
  5 28  1  0
  5 29  1  0
  6 30  1  0
  9 31  1  0
  9 32  1  0
 10 33  1  0
 11 34  1  0
 11 35  1  0
 12 36  1  0
 12 37  1  0
 13 38  1  0
 13 39  1  0
 14 40  1  0
 14 41  1  0
 15 42  1  0
 15 43  1  0
 16 44  1  0
 18 45  1  0
 19 46  1  0
 20 47  1  0
 21 48  1  0
M  END
>  <UniqueID>  (46) 
44

>  <SMILES>  (46) 
CCn1c(CNC(=O)CC2CCCCC2)cc2ccccc21

>  <Energy>  (46) 
75.53698362337634

>  <Genealogy>  (46) 
CCn1c(CNC(=O)CC2CCCCC2)cc2ccccc21 (3D coordinates assigned)
CCn1c(CNC(=O)CC2CCCCC2)cc2ccccc21 (nonaromatic ring conformer: 75.53698362337634 kcal/mol)

>  <smiles>  (46) 
CCn1c(CNC(=O)CC2CCCCC2)cc2ccccc21

>  <score_type>  (46) 
oracle

>  <origin>  (46) 
adg

>  <m_score__min__energy>  (46) 
-8.9000000000000004

>  <m_primary>  (46) 
energy

$$$$
46:0
     RDKit          3D

 55 58  0  0  0  0  0  0  0  0999 V2000
   -5.8140   17.6590  -31.5900 C   0  0  0  0  0  0  0  0  0  0  0  0
   -6.8910   17.7980  -32.5850 N   0  0  0  0  0  0  0  0  0  0  0  0
   -6.8520   16.6510  -33.5080 C   0  0  0  0  0  0  0  0  0  0  0  0
   -8.2010   17.8900  -31.9050 C   0  0  0  0  0  0  0  0  0  0  0  0
   -8.9620   19.1520  -32.3540 C   0  0  0  0  0  0  0  0  0  0  0  0
   -8.2410   19.8960  -33.4020 N   0  0  0  0  0  0  0  0  0  0  0  0
   -7.3380   20.8690  -32.8360 C   0  0  0  0  0  0  0  0  0  0  0  0
   -7.8440   21.9470  -32.0620 C   0  0  0  0  0  0  0  0  0  0  0  0
   -6.9760   22.8760  -31.4640 C   0  0  0  0  0  0  0  0  0  0  0  0
   -5.6050   22.7090  -31.6680 C   0  0  0  0  0  0  0  0  0  0  0  0
   -5.1090   21.6890  -32.4310 C   0  0  0  0  0  0  0  0  0  0  0  0
   -5.9420   20.7340  -33.0160 C   0  0  0  0  0  0  0  0  0  0  0  0
   -3.7300   21.8370  -32.3820 C   0  0  0  0  0  0  0  0  0  0  0  0
   -2.6980   21.0060  -33.0370 C   0  0  0  0  0  0  0  0  0  0  0  0
   -1.4370   21.5360  -33.3620 C   0  0  0  0  0  0  0  0  0  0  0  0
   -0.4700   20.7300  -33.9700 C   0  0  0  0  0  0  0  0  0  0  0  0
   -0.7480   19.3900  -34.2470 C   0  0  0  0  0  0  0  0  0  0  0  0
   -1.9900   18.8490  -33.9090 C   0  0  0  0  0  0  0  0  0  0  0  0
   -2.9600   19.6520  -33.3000 C   0  0  0  0  0  0  0  0  0  0  0  0
   -3.4400   22.9080  -31.6030 N   0  0  0  0  0  0  0  0  0  0  0  0
   -4.5820   23.4310  -31.1710 N   0  0  0  0  0  0  0  0  0  0  0  0
   -4.6570   24.6390  -30.3520 C   0  0  0  0  0  0  0  0  0  0  0  0
   -3.7290   24.5200  -29.1740 C   0  0  0  0  0  0  0  0  0  0  0  0
   -4.2540   24.4200  -27.8740 C   0  0  0  0  0  0  0  0  0  0  0  0
   -3.3980   24.2830  -26.7770 C   0  0  0  0  0  0  0  0  0  0  0  0
   -2.0140   24.2420  -26.9690 C   0  0  0  0  0  0  0  0  0  0  0  0
   -1.4850   24.3370  -28.2580 C   0  0  0  0  0  0  0  0  0  0  0  0
   -2.3370   24.4740  -29.3590 C   0  0  0  0  0  0  0  0  0  0  0  0
   -6.2407   17.7141  -30.5776 H   0  0  0  0  0  0  0  0  0  0  0  0
   -5.3134   16.6888  -31.7246 H   0  0  0  0  0  0  0  0  0  0  0  0
   -5.0835   18.4703  -31.7246 H   0  0  0  0  0  0  0  0  0  0  0  0
   -6.8202   15.7159  -32.9296 H   0  0  0  0  0  0  0  0  0  0  0  0
   -7.7510   16.6597  -34.1419 H   0  0  0  0  0  0  0  0  0  0  0  0
   -5.9557   16.7207  -34.1419 H   0  0  0  0  0  0  0  0  0  0  0  0
   -8.7993   17.0007  -32.1526 H   0  0  0  0  0  0  0  0  0  0  0  0
   -8.0320   17.9472  -30.8196 H   0  0  0  0  0  0  0  0  0  0  0  0
   -9.9450   18.8518  -32.7459 H   0  0  0  0  0  0  0  0  0  0  0  0
   -9.0628   19.8130  -31.4806 H   0  0  0  0  0  0  0  0  0  0  0  0
   -8.9430   20.3940  -33.9990 H   0  0  0  0  0  0  0  0  0  0  0  0
   -7.7260   19.2300  -34.0250 H   0  0  0  0  0  0  0  0  0  0  0  0
   -8.9305   22.0561  -31.9289 H   0  0  0  0  0  0  0  0  0  0  0  0
   -7.3635   23.7066  -30.8558 H   0  0  0  0  0  0  0  0  0  0  0  0
   -5.5246   19.9006  -33.6001 H   0  0  0  0  0  0  0  0  0  0  0  0
   -1.2105   22.5887  -33.1371 H   0  0  0  0  0  0  0  0  0  0  0  0
    0.5117   21.1522  -34.2307 H   0  0  0  0  0  0  0  0  0  0  0  0
    0.0122   18.7600  -34.7320 H   0  0  0  0  0  0  0  0  0  0  0  0
   -2.2056   17.7915  -34.1216 H   0  0  0  0  0  0  0  0  0  0  0  0
   -3.9337   19.2201  -33.0255 H   0  0  0  0  0  0  0  0  0  0  0  0
   -4.3659   25.5092  -30.9587 H   0  0  0  0  0  0  0  0  0  0  0  0
   -5.6875   24.7657  -29.9887 H   0  0  0  0  0  0  0  0  0  0  0  0
   -5.3426   24.4496  -27.7191 H   0  0  0  0  0  0  0  0  0  0  0  0
   -3.8142   24.2074  -25.7616 H   0  0  0  0  0  0  0  0  0  0  0  0
   -1.3417   24.1349  -26.1050 H   0  0  0  0  0  0  0  0  0  0  0  0
   -0.3958   24.3040  -28.4079 H   0  0  0  0  0  0  0  0  0  0  0  0
   -1.9159   24.5459  -30.3726 H   0  0  0  0  0  0  0  0  0  0  0  0
  1  2  1  0
  2  3  1  0
  2  4  1  0
  4  5  1  0
  5  6  1  0
  6  7  1  0
  7  8  2  0
  8  9  1  0
  9 10  2  0
 10 11  1  0
 11 12  2  0
 11 13  1  0
 13 14  1  0
 14 15  2  0
 15 16  1  0
 16 17  2  0
 17 18  1  0
 18 19  2  0
 13 20  2  0
 20 21  1  0
 21 22  1  0
 22 23  1  0
 23 24  2  0
 24 25  1  0
 25 26  2  0
 26 27  1  0
 27 28  2  0
 12  7  1  0
 19 14  1  0
 28 23  1  0
 21 10  1  0
  1 29  1  0
  1 30  1  0
  1 31  1  0
  3 32  1  0
  3 33  1  0
  3 34  1  0
  4 35  1  0
  4 36  1  0
  5 37  1  0
  5 38  1  0
  6 39  1  0
  6 40  1  0
  8 41  1  0
  9 42  1  0
 12 43  1  0
 15 44  1  0
 16 45  1  0
 17 46  1  0
 18 47  1  0
 19 48  1  0
 22 49  1  0
 22 50  1  0
 24 51  1  0
 25 52  1  0
 26 53  1  0
 27 54  1  0
 28 55  1  0
M  CHG  1   6   1
M  END
>  <UniqueID>  (47) 
45

>  <SMILES>  (47) 
CN(C)CC[NH2+]c1ccc2c(c1)c(-c1ccccc1)nn2Cc1ccccc1

>  <Energy>  (47) 
100.24414513893124

>  <Genealogy>  (47) 
CN(C)CC[NH2+]c1ccc2c(c1)c(-c1ccccc1)nn2Cc1ccccc1 (protonated)
CN(C)CC[NH2+]c1ccc2c(c1)c(-c1ccccc1)nn2Cc1ccccc1 (3D coordinates assigned)
CN(C)CC[NH2+]c1ccc2c(c1)c(-c1ccccc1)nn2Cc1ccccc1 (optimized conformer: 100.24414513893124 kcal/mol)

>  <smiles>  (47) 
CN(C)CCNc1ccc2c(c1)c(-c1ccccc1)nn2Cc1ccccc1

>  <score_type>  (47) 
oracle

>  <origin>  (47) 
adg

>  <m_score__min__energy>  (47) 
-8.2599999999999998

>  <m_primary>  (47) 
energy

$$$$
47:0
     RDKit          3D

 47 50  0  0  0  0  0  0  0  0999 V2000
   -9.4650   18.8550  -31.9370 C   0  0  0  0  0  0  0  0  0  0  0  0
   -8.6190   17.7740  -32.3180 O   0  0  0  0  0  0  0  0  0  0  0  0
   -7.2860   17.9170  -32.7320 C   0  0  0  0  0  0  0  0  0  0  0  0
   -6.5650   16.8640  -33.3250 C   0  0  0  0  0  0  0  0  0  0  0  0
   -5.2440   17.0570  -33.7350 C   0  0  0  0  0  0  0  0  0  0  0  0
   -4.6200   18.3000  -33.5530 C   0  0  0  0  0  0  0  0  0  0  0  0
   -3.3010   18.5000  -33.9830 C   0  0  0  0  0  0  0  0  0  0  0  0
   -2.6970   19.7550  -33.8110 C   0  0  0  0  0  0  0  0  0  0  0  0
   -1.3040   20.0190  -34.2570 C   0  0  0  0  0  0  0  0  0  0  0  0
   -0.7340   21.3050  -34.1650 C   0  0  0  0  0  0  0  0  0  0  0  0
    0.5830   21.5270  -34.5810 C   0  0  0  0  0  0  0  0  0  0  0  0
    1.3470   20.4740  -35.0870 C   0  0  0  0  0  0  0  0  0  0  0  0
    2.6230   20.6920  -35.4900 F   0  0  0  0  0  0  0  0  0  0  0  0
    0.7980   19.1920  -35.1730 C   0  0  0  0  0  0  0  0  0  0  0  0
   -0.5180   18.9640  -34.7570 C   0  0  0  0  0  0  0  0  0  0  0  0
   -3.3950   20.7480  -33.1960 N   0  0  0  0  0  0  0  0  0  0  0  0
   -4.6700   20.5900  -32.7520 C   0  0  0  0  0  0  0  0  0  0  0  0
   -5.3120   21.6860  -32.0880 N   0  0  0  0  0  0  0  0  0  0  0  0
   -6.0220   21.5210  -30.8330 C   0  0  0  0  0  0  0  0  0  0  0  0
   -6.4090   22.9290  -30.4040 C   0  0  0  0  0  0  0  0  0  0  0  0
   -5.4620   23.8740  -31.1630 C   0  0  1  0  0  0  0  0  0  0  0  0
   -4.2770   24.3120  -30.2860 C   0  0  0  0  0  0  0  0  0  0  0  0
   -3.8700   25.6050  -30.6440 O   0  0  0  0  0  0  0  0  0  0  0  0
   -4.9890   23.0700  -32.3810 C   0  0  0  0  0  0  0  0  0  0  0  0
   -5.3270   19.3570  -32.9360 C   0  0  0  0  0  0  0  0  0  0  0  0
   -6.6640   19.1560  -32.5460 C   0  0  0  0  0  0  0  0  0  0  0  0
   -9.5118   18.9148  -30.8396 H   0  0  0  0  0  0  0  0  0  0  0  0
   -9.0609   19.7960  -32.3386 H   0  0  0  0  0  0  0  0  0  0  0  0
  -10.4755   18.6889  -32.3386 H   0  0  0  0  0  0  0  0  0  0  0  0
   -7.0443   15.8840  -33.4663 H   0  0  0  0  0  0  0  0  0  0  0  0
   -4.6900   16.2300  -34.2031 H   0  0  0  0  0  0  0  0  0  0  0  0
   -2.7421   17.6773  -34.4529 H   0  0  0  0  0  0  0  0  0  0  0  0
   -1.3284   22.1390  -33.7637 H   0  0  0  0  0  0  0  0  0  0  0  0
    1.0180   22.5348  -34.5091 H   0  0  0  0  0  0  0  0  0  0  0  0
    1.4011   18.3613  -35.5682 H   0  0  0  0  0  0  0  0  0  0  0  0
   -0.9423   17.9512  -34.8212 H   0  0  0  0  0  0  0  0  0  0  0  0
   -6.9194   20.9013  -30.9763 H   0  0  0  0  0  0  0  0  0  0  0  0
   -5.4048   21.0159  -30.0754 H   0  0  0  0  0  0  0  0  0  0  0  0
   -7.4549   23.1375  -30.6733 H   0  0  0  0  0  0  0  0  0  0  0  0
   -6.3226   23.0584  -29.3151 H   0  0  0  0  0  0  0  0  0  0  0  0
   -5.9674   24.8056  -31.4574 H   0  0  0  0  0  0  0  0  0  0  0  0
   -4.5833   24.3055  -29.2295 H   0  0  0  0  0  0  0  0  0  0  0  0
   -3.4394   23.6147  -30.4349 H   0  0  0  0  0  0  0  0  0  0  0  0
   -4.0090   25.6760  -31.6240 H   0  0  0  0  0  0  0  0  0  0  0  0
   -5.5150   23.4028  -33.2879 H   0  0  0  0  0  0  0  0  0  0  0  0
   -3.9128   23.2056  -32.5637 H   0  0  0  0  0  0  0  0  0  0  0  0
   -7.2269   19.9834  -32.0893 H   0  0  0  0  0  0  0  0  0  0  0  0
  1  2  1  0
  2  3  1  0
  3  4  2  0
  4  5  1  0
  5  6  2  0
  6  7  1  0
  7  8  2  0
  8  9  1  0
  9 10  2  0
 10 11  1  0
 11 12  2  0
 12 13  1  0
 12 14  1  0
 14 15  2  0
  8 16  1  0
 16 17  2  0
 17 18  1  0
 18 19  1  0
 19 20  1  0
 20 21  1  0
 21 22  1  0
 22 23  1  0
 21 24  1  0
 17 25  1  0
 25 26  2  0
 26  3  1  0
 25  6  1  0
 15  9  1  0
 24 18  1  0
  1 27  1  0
  1 28  1  0
  1 29  1  0
  4 30  1  0
  5 31  1  0
  7 32  1  0
 10 33  1  0
 11 34  1  0
 14 35  1  0
 15 36  1  0
 19 37  1  0
 19 38  1  0
 20 39  1  0
 20 40  1  0
 21 41  1  6
 22 42  1  0
 22 43  1  0
 23 44  1  0
 24 45  1  0
 24 46  1  0
 26 47  1  0
M  END
>  <UniqueID>  (48) 
46

>  <SMILES>  (48) 
COc1ccc2cc(-c3ccc(F)cc3)nc(N3CC[C@@H](CO)C3)c2c1

>  <Energy>  (48) 
62.973218866471974

>  <Genealogy>  (48) 
COc1ccc2cc(-c3ccc(F)cc3)nc(N3CC[C@@H](CO)C3)c2c1 (chirality)
COc1ccc2cc(-c3ccc(F)cc3)nc(N3CC[C@@H](CO)C3)c2c1 (3D coordinates assigned)
COc1ccc2cc(-c3ccc(F)cc3)nc(N3CC[C@@H](CO)C3)c2c1 (nonaromatic ring conformer: 62.973218866471974 kcal/mol)

>  <smiles>  (48) 
COc1ccc2cc(-c3ccc(F)cc3)nc(N3CCC(CO)C3)c2c1

>  <score_type>  (48) 
oracle

>  <origin>  (48) 
adg

>  <m_score__min__energy>  (48) 
-8.8599999999999994

>  <m_primary>  (48) 
energy

$$$$
48:0
     RDKit          3D

 36 37  0  0  0  0  0  0  0  0999 V2000
   -6.8230   16.7890  -33.4460 C   0  0  0  0  0  0  0  0  0  0  0  0
   -7.6090   17.8210  -32.8580 O   0  0  0  0  0  0  0  0  0  0  0  0
   -7.1920   19.1540  -32.7230 C   0  0  0  0  0  0  0  0  0  0  0  0
   -8.0600   20.0630  -32.1050 C   0  0  0  0  0  0  0  0  0  0  0  0
   -7.6890   21.4010  -31.9430 C   0  0  0  0  0  0  0  0  0  0  0  0
   -6.4330   21.8400  -32.3790 C   0  0  0  0  0  0  0  0  0  0  0  0
   -5.9710   23.5720  -32.2120 S   0  0  0  0  0  0  0  0  0  0  0  0
   -4.5950   23.3980  -30.9970 C   0  0  2  0  0  0  0  0  0  0  0  0
   -4.6350   22.0690  -30.2180 C   0  0  0  0  0  0  0  0  0  0  0  0
   -3.4100   21.8550  -29.4040 N   0  0  0  0  0  0  0  0  0  0  0  0
   -2.4730   20.9400  -30.0730 C   0  0  0  0  0  0  0  0  0  0  0  0
   -2.7130   23.1030  -29.0020 C   0  0  0  0  0  0  0  0  0  0  0  0
   -3.7010   24.2510  -28.7550 C   0  0  0  0  0  0  0  0  0  0  0  0
   -4.4960   24.6040  -30.0340 C   0  0  1  0  0  0  0  0  0  0  0  0
   -3.8830   25.6740  -30.7060 O   0  0  0  0  0  0  0  0  0  0  0  0
   -5.5740   20.9450  -33.0270 C   0  0  0  0  0  0  0  0  0  0  0  0
   -5.9430   19.6070  -33.1900 C   0  0  0  0  0  0  0  0  0  0  0  0
   -6.3612   16.1827  -32.6528 H   0  0  0  0  0  0  0  0  0  0  0  0
   -7.4649   16.1494  -34.0697 H   0  0  0  0  0  0  0  0  0  0  0  0
   -6.0359   17.2378  -34.0697 H   0  0  0  0  0  0  0  0  0  0  0  0
   -9.0414   19.7214  -31.7443 H   0  0  0  0  0  0  0  0  0  0  0  0
   -8.3853   22.1105  -31.4720 H   0  0  0  0  0  0  0  0  0  0  0  0
   -3.6781   23.3828  -31.6046 H   0  0  0  0  0  0  0  0  0  0  0  0
   -5.5076   22.0777  -29.5483 H   0  0  0  0  0  0  0  0  0  0  0  0
   -4.6990   21.2512  -30.9509 H   0  0  0  0  0  0  0  0  0  0  0  0
   -1.9018   20.3823  -29.3162 H   0  0  0  0  0  0  0  0  0  0  0  0
   -3.0356   20.2341  -30.7016 H   0  0  0  0  0  0  0  0  0  0  0  0
   -1.7807   21.5193  -30.7016 H   0  0  0  0  0  0  0  0  0  0  0  0
   -2.1481   22.9137  -28.0773 H   0  0  0  0  0  0  0  0  0  0  0  0
   -2.0411   23.3993  -29.8210 H   0  0  0  0  0  0  0  0  0  0  0  0
   -4.4075   23.9505  -27.9672 H   0  0  0  0  0  0  0  0  0  0  0  0
   -3.1273   25.1389  -28.4508 H   0  0  0  0  0  0  0  0  0  0  0  0
   -5.5117   24.8860  -29.7197 H   0  0  0  0  0  0  0  0  0  0  0  0
   -4.2390   25.6760  -31.6330 H   0  0  0  0  0  0  0  0  0  0  0  0
   -4.6043   21.2962  -33.4096 H   0  0  0  0  0  0  0  0  0  0  0  0
   -5.2555   18.9052  -33.6848 H   0  0  0  0  0  0  0  0  0  0  0  0
  1  2  1  0
  2  3  1  0
  3  4  2  0
  4  5  1  0
  5  6  2  0
  6  7  1  0
  7  8  1  0
  8  9  1  0
  9 10  1  0
 10 11  1  0
 10 12  1  0
 12 13  1  0
 13 14  1  0
 14 15  1  0
  6 16  1  0
 16 17  2  0
 17  3  1  0
 14  8  1  0
  1 18  1  0
  1 19  1  0
  1 20  1  0
  4 21  1  0
  5 22  1  0
  8 23  1  6
  9 24  1  0
  9 25  1  0
 11 26  1  0
 11 27  1  0
 11 28  1  0
 12 29  1  0
 12 30  1  0
 13 31  1  0
 13 32  1  0
 14 33  1  1
 15 34  1  0
 16 35  1  0
 17 36  1  0
M  END
>  <UniqueID>  (49) 
47

>  <SMILES>  (49) 
COc1ccc(S[C@@H]2CN(C)CC[C@H]2O)cc1

>  <Energy>  (49) 
41.147004426392115

>  <Genealogy>  (49) 
COc1ccc(S[C@@H]2CN(C)CC[C@H]2O)cc1 (chirality)
COc1ccc(S[C@@H]2CN(C)CC[C@H]2O)cc1 (3D coordinates assigned)
COc1ccc(S[C@@H]2CN(C)CC[C@H]2O)cc1 (nonaromatic ring conformer: 41.147004426392115 kcal/mol)

>  <smiles>  (49) 
COc1ccc(SC2CN(C)CCC2O)cc1

>  <score_type>  (49) 
oracle

>  <origin>  (49) 
adg

>  <m_score__min__energy>  (49) 
-7.1399999999999997

>  <m_primary>  (49) 
energy

$$$$
