0:0
     RDKit          3D

 48 50  0  0  0  0  0  0  0  0999 V2000
    1.5510   23.9200  -36.0630 C   0  0  0  0  0  0  0  0  0  0  0  0
    1.1870   22.4940  -35.6690 C   0  0  0  0  0  0  0  0  0  0  0  0
   -0.1110   22.4780  -34.9830 N   0  0  0  0  0  0  0  0  0  0  0  0
   -0.3150   21.2170  -34.2590 C   0  0  0  0  0  0  0  0  0  0  0  0
   -1.4670   21.3410  -33.3100 C   0  0  0  0  0  0  0  0  0  0  0  0
   -1.3880   21.5870  -31.9560 C   0  0  0  0  0  0  0  0  0  0  0  0
   -2.6440   21.6670  -31.4710 N   0  0  0  0  0  0  0  0  0  0  0  0
   -3.0100   21.9890  -30.1180 C   0  0  0  0  0  0  0  0  0  0  0  0
   -2.7520   21.0690  -29.0880 C   0  0  0  0  0  0  0  0  0  0  0  0
   -3.1010   21.3670  -27.7700 C   0  0  0  0  0  0  0  0  0  0  0  0
   -3.7150   22.5830  -27.4690 C   0  0  0  0  0  0  0  0  0  0  0  0
   -3.9800   23.5060  -28.4840 C   0  0  0  0  0  0  0  0  0  0  0  0
   -3.6250   23.2210  -29.8180 C   0  0  0  0  0  0  0  0  0  0  0  0
   -3.8530   24.1310  -30.8650 O   0  0  0  0  0  0  0  0  0  0  0  0
   -4.6580   25.3070  -30.7890 C   0  0  0  0  0  0  0  0  0  0  0  0
   -6.0350   24.9840  -30.2200 C   0  0  0  0  0  0  0  0  0  0  0  0
   -3.4600   21.4790  -32.5380 C   0  0  0  0  0  0  0  0  0  0  0  0
   -4.9370   21.4220  -32.4720 C   0  0  0  0  0  0  0  0  0  0  0  0
   -5.6660   22.6170  -32.3490 C   0  0  0  0  0  0  0  0  0  0  0  0
   -7.0610   22.5900  -32.2780 C   0  0  0  0  0  0  0  0  0  0  0  0
   -7.7400   21.3720  -32.3270 C   0  0  0  0  0  0  0  0  0  0  0  0
   -7.0270   20.1780  -32.4510 C   0  0  0  0  0  0  0  0  0  0  0  0
   -5.6290   20.1930  -32.5240 C   0  0  0  0  0  0  0  0  0  0  0  0
   -4.7870   18.6630  -32.7470 Cl  0  0  0  0  0  0  0  0  0  0  0  0
   -2.7610   21.2730  -33.6730 N   0  0  0  0  0  0  0  0  0  0  0  0
    1.7049   24.5231  -35.1560 H   0  0  0  0  0  0  0  0  0  0  0  0
    2.4757   23.9111  -36.6587 H   0  0  0  0  0  0  0  0  0  0  0  0
    0.7352   24.3554  -36.6587 H   0  0  0  0  0  0  0  0  0  0  0  0
    1.1289   21.8699  -36.5730 H   0  0  0  0  0  0  0  0  0  0  0  0
    1.9582   22.0987  -34.9915 H   0  0  0  0  0  0  0  0  0  0  0  0
   -0.8580   22.5420  -35.7140 H   0  0  0  0  0  0  0  0  0  0  0  0
   -0.5249   20.4142  -34.9811 H   0  0  0  0  0  0  0  0  0  0  0  0
    0.5950   20.9823  -33.6873 H   0  0  0  0  0  0  0  0  0  0  0  0
   -0.4621   21.6986  -31.3727 H   0  0  0  0  0  0  0  0  0  0  0  0
   -2.2717   20.1074  -29.3219 H   0  0  0  0  0  0  0  0  0  0  0  0
   -2.8920   20.6431  -26.9686 H   0  0  0  0  0  0  0  0  0  0  0  0
   -3.9912   22.8158  -26.4300 H   0  0  0  0  0  0  0  0  0  0  0  0
   -4.4687   24.4609  -28.2405 H   0  0  0  0  0  0  0  0  0  0  0  0
   -4.1621   26.0421  -30.1381 H   0  0  0  0  0  0  0  0  0  0  0  0
   -4.7821   25.7157  -31.8027 H   0  0  0  0  0  0  0  0  0  0  0  0
   -5.9893   24.9947  -29.1210 H   0  0  0  0  0  0  0  0  0  0  0  0
   -6.7597   25.7365  -30.5642 H   0  0  0  0  0  0  0  0  0  0  0  0
   -6.3495   23.9877  -30.5642 H   0  0  0  0  0  0  0  0  0  0  0  0
   -5.1351   23.5795  -32.3084 H   0  0  0  0  0  0  0  0  0  0  0  0
   -7.6246   23.5299  -32.1834 H   0  0  0  0  0  0  0  0  0  0  0  0
   -8.8382   21.3525  -32.2679 H   0  0  0  0  0  0  0  0  0  0  0  0
   -7.5666   19.2203  -32.4916 H   0  0  0  0  0  0  0  0  0  0  0  0
   -3.1390   21.0800  -34.6280 H   0  0  0  0  0  0  0  0  0  0  0  0
  1  2  1  0
  2  3  1  0
  3  4  1  0
  4  5  1  0
  5  6  2  0
  6  7  1  0
  7  8  1  0
  8  9  2  0
  9 10  1  0
 10 11  2  0
 11 12  1  0
 12 13  2  0
 13 14  1  0
 14 15  1  0
 15 16  1  0
  7 17  1  0
 17 18  1  0
 18 19  2  0
 19 20  1  0
 20 21  2  0
 21 22  1  0
 22 23  2  0
 23 24  1  0
 17 25  2  0
 25  5  1  0
 13  8  1  0
 23 18  1  0
  1 26  1  0
  1 27  1  0
  1 28  1  0
  2 29  1  0
  2 30  1  0
  3 31  1  0
  4 32  1  0
  4 33  1  0
  6 34  1  0
  9 35  1  0
 10 36  1  0
 11 37  1  0
 12 38  1  0
 15 39  1  0
 15 40  1  0
 16 41  1  0
 16 42  1  0
 16 43  1  0
 19 44  1  0
 20 45  1  0
 21 46  1  0
 22 47  1  0
 25 48  1  0
M  CHG  1  25   1
M  END
>  <UniqueID>  (1) 
1

>  <SMILES>  (1) 
CCNCc1cn(-c2ccccc2OCC)c(-c2ccccc2Cl)[nH+]1

>  <Energy>  (1) 
84.18312303399105

>  <Genealogy>  (1) 
CCNCc1cn(-c2ccccc2OCC)c(-c2ccccc2Cl)[nH+]1 (protonated)
CCNCc1cn(-c2ccccc2OCC)c(-c2ccccc2Cl)[nH+]1 (3D coordinates assigned)
CCNCc1cn(-c2ccccc2OCC)c(-c2ccccc2Cl)[nH+]1 (optimized conformer: 84.18312303399105 kcal/mol)

>  <smiles>  (1) 
CCNCc1cn(-c2ccccc2OCC)c(-c2ccccc2Cl)n1

>  <score_type>  (1) 
oracle

>  <origin>  (1) 
adg

>  <m_score__min__energy>  (1) 
-7.6799999999999997

>  <m_primary>  (1) 
energy

$$$$
1:0
     RDKit          3D

 85 88  0  0  0  0  0  0  0  0999 V2000
   -0.8660   26.4120  -28.0900 C   0  0  0  0  0  0  0  0  0  0  0  0
   -1.6990   25.6460  -28.9320 O   0  0  0  0  0  0  0  0  0  0  0  0
   -1.4750   24.2730  -28.6880 C   0  0  0  0  0  0  0  0  0  0  0  0
   -2.5870   23.7050  -27.7900 C   0  0  0  0  0  0  0  0  0  0  0  0
   -3.8040   24.5580  -27.7530 N   0  0  2  0  0  0  0  0  0  0  0  0
   -4.2130   24.8910  -26.3740 C   0  0  0  0  0  0  0  0  0  0  0  0
   -4.9170   24.0000  -28.5770 C   0  0  0  0  0  0  0  0  0  0  0  0
   -5.6360   24.9720  -29.5480 C   0  0  0  0  0  0  0  0  0  0  0  0
   -5.9230   24.3920  -30.9370 C   0  0  0  0  0  0  0  0  0  0  0  0
   -4.7830   23.4820  -31.4250 C   0  0  0  0  0  0  0  0  0  0  0  0
   -5.1370   22.7550  -32.6520 N   0  0  0  0  0  0  0  0  0  0  0  0
   -5.3900   21.3340  -32.6630 C   0  0  0  0  0  0  0  0  0  0  0  0
   -6.7030   20.8420  -32.5580 C   0  0  0  0  0  0  0  0  0  0  0  0
   -7.7490   21.6610  -32.0880 C   0  0  0  0  0  0  0  0  0  0  0  0
   -9.0440   21.1640  -31.9690 C   0  0  0  0  0  0  0  0  0  0  0  0
   -9.3120   19.8380  -32.2840 C   0  0  0  0  0  0  0  0  0  0  0  0
   -8.2880   19.0010  -32.7250 C   0  0  0  0  0  0  0  0  0  0  0  0
   -6.9650   19.4860  -32.8840 C   0  0  0  0  0  0  0  0  0  0  0  0
   -5.9390   18.6730  -33.3220 N   0  0  0  0  0  0  0  0  0  0  0  0
   -6.2460   17.3790  -33.9720 C   0  0  0  0  0  0  0  0  0  0  0  0
   -4.6260   19.0730  -33.1550 C   0  0  0  0  0  0  0  0  0  0  0  0
   -3.5500   18.1660  -33.3030 C   0  0  0  0  0  0  0  0  0  0  0  0
   -2.2160   18.5810  -33.1630 C   0  0  0  0  0  0  0  0  0  0  0  0
   -1.1380   17.6970  -33.3400 O   0  0  0  0  0  0  0  0  0  0  0  0
   -0.4580   17.4860  -34.5700 C   0  0  0  0  0  0  0  0  0  0  0  0
   -1.9320   19.9080  -32.8380 C   0  0  0  0  0  0  0  0  0  0  0  0
   -0.5820   20.2660  -32.6700 O   0  0  0  0  0  0  0  0  0  0  0  0
    0.3300   19.7090  -31.7210 C   0  0  0  0  0  0  0  0  0  0  0  0
   -0.4160   18.9520  -30.5930 C   0  0  0  0  0  0  0  0  0  0  0  0
   -0.7390   19.7450  -29.3610 N   0  0  0  0  0  0  0  0  0  0  0  0
    0.2870   20.8050  -29.1550 C   0  0  0  0  0  0  0  0  0  0  0  0
   -2.0790   20.3860  -29.5760 C   0  0  0  0  0  0  0  0  0  0  0  0
   -2.8640   20.6310  -28.2700 C   0  0  0  0  0  0  0  0  0  0  0  0
   -1.9910   20.7800  -27.1760 O   0  0  0  0  0  0  0  0  0  0  0  0
   -1.3440   19.5520  -26.9050 C   0  0  0  0  0  0  0  0  0  0  0  0
   -0.8030   18.8430  -28.1750 C   0  0  0  0  0  0  0  0  0  0  0  0
   -2.9860   20.8230  -32.6780 C   0  0  0  0  0  0  0  0  0  0  0  0
   -4.3300   20.4200  -32.8260 C   0  0  0  0  0  0  0  0  0  0  0  0
   -1.1052   26.1921  -27.0391 H   0  0  0  0  0  0  0  0  0  0  0  0
    0.1863   26.1595  -28.2871 H   0  0  0  0  0  0  0  0  0  0  0  0
   -1.0296   27.4818  -28.2871 H   0  0  0  0  0  0  0  0  0  0  0  0
   -1.4678   23.7303  -29.6448 H   0  0  0  0  0  0  0  0  0  0  0  0
   -0.5067   24.1519  -28.1804 H   0  0  0  0  0  0  0  0  0  0  0  0
   -2.8682   22.7112  -28.1684 H   0  0  0  0  0  0  0  0  0  0  0  0
   -2.1885   23.6601  -26.7657 H   0  0  0  0  0  0  0  0  0  0  0  0
   -3.5560   25.4680  -28.2120 H   0  0  0  0  0  0  0  0  0  0  0  0
   -3.5634   24.3621  -25.6611 H   0  0  0  0  0  0  0  0  0  0  0  0
   -4.1231   25.9760  -26.2168 H   0  0  0  0  0  0  0  0  0  0  0  0
   -5.2572   24.5830  -26.2168 H   0  0  0  0  0  0  0  0  0  0  0  0
   -4.5031   23.1773  -29.1785 H   0  0  0  0  0  0  0  0  0  0  0  0
   -5.6875   23.7042  -27.8498 H   0  0  0  0  0  0  0  0  0  0  0  0
   -6.5943   25.2639  -29.0937 H   0  0  0  0  0  0  0  0  0  0  0  0
   -4.9535   25.8211  -29.7003 H   0  0  0  0  0  0  0  0  0  0  0  0
   -6.8523   23.8051  -30.8923 H   0  0  0  0  0  0  0  0  0  0  0  0
   -6.0169   25.2298  -31.6436 H   0  0  0  0  0  0  0  0  0  0  0  0
   -3.8962   24.1016  -31.6242 H   0  0  0  0  0  0  0  0  0  0  0  0
   -4.5850   22.7389  -30.6385 H   0  0  0  0  0  0  0  0  0  0  0  0
   -5.2830   23.3050  -33.5280 H   0  0  0  0  0  0  0  0  0  0  0  0
   -7.5399   22.7051  -31.8120 H   0  0  0  0  0  0  0  0  0  0  0  0
   -9.8557   21.8220  -31.6252 H   0  0  0  0  0  0  0  0  0  0  0  0
  -10.3354   19.4471  -32.1852 H   0  0  0  0  0  0  0  0  0  0  0  0
   -8.5098   17.9480  -32.9532 H   0  0  0  0  0  0  0  0  0  0  0  0
   -6.4272   16.6154  -33.2012 H   0  0  0  0  0  0  0  0  0  0  0  0
   -7.1434   17.4873  -34.5989 H   0  0  0  0  0  0  0  0  0  0  0  0
   -5.3956   17.0727  -34.5989 H   0  0  0  0  0  0  0  0  0  0  0  0
   -3.7635   17.1117  -33.5330 H   0  0  0  0  0  0  0  0  0  0  0  0
    0.5747   17.1656  -34.3678 H   0  0  0  0  0  0  0  0  0  0  0  0
   -0.9774   16.7068  -35.1471 H   0  0  0  0  0  0  0  0  0  0  0  0
   -0.4450   18.4224  -35.1471 H   0  0  0  0  0  0  0  0  0  0  0  0
    1.0009   19.0078  -32.2390 H   0  0  0  0  0  0  0  0  0  0  0  0
    0.8999   20.5323  -31.2657 H   0  0  0  0  0  0  0  0  0  0  0  0
   -1.3634   18.5790  -31.0094 H   0  0  0  0  0  0  0  0  0  0  0  0
    0.2760   18.1638  -30.2614 H   0  0  0  0  0  0  0  0  0  0  0  0
    0.4398   20.9629  -28.0772 H   0  0  0  0  0  0  0  0  0  0  0  0
    1.2348   20.4928  -29.6179 H   0  0  0  0  0  0  0  0  0  0  0  0
   -0.0559   21.7421  -29.6179 H   0  0  0  0  0  0  0  0  0  0  0  0
   -1.9253   21.3537  -30.0760 H   0  0  0  0  0  0  0  0  0  0  0  0
   -2.6752   19.6903  -30.1847 H   0  0  0  0  0  0  0  0  0  0  0  0
   -3.4647   21.5462  -28.3779 H   0  0  0  0  0  0  0  0  0  0  0  0
   -3.5134   19.7629  -28.0839 H   0  0  0  0  0  0  0  0  0  0  0  0
   -0.4990   19.7458  -26.2280 H   0  0  0  0  0  0  0  0  0  0  0  0
   -2.0938   18.8837  -26.4564 H   0  0  0  0  0  0  0  0  0  0  0  0
    0.2096   18.4689  -27.9636 H   0  0  0  0  0  0  0  0  0  0  0  0
   -1.4987   18.0265  -28.4187 H   0  0  0  0  0  0  0  0  0  0  0  0
   -2.7596   21.8713  -32.4332 H   0  0  0  0  0  0  0  0  0  0  0  0
  1  2  1  0
  2  3  1  0
  3  4  1  0
  4  5  1  0
  5  6  1  0
  5  7  1  0
  7  8  1  0
  8  9  1  0
  9 10  1  0
 10 11  1  0
 11 12  1  0
 12 13  2  0
 13 14  1  0
 14 15  2  0
 15 16  1  0
 16 17  2  0
 17 18  1  0
 18 19  2  0
 19 20  1  0
 19 21  1  0
 21 22  2  0
 22 23  1  0
 23 24  1  0
 24 25  1  0
 23 26  2  0
 26 27  1  0
 27 28  1  0
 28 29  1  0
 29 30  1  0
 30 31  1  0
 30 32  1  0
 32 33  1  0
 33 34  1  0
 34 35  1  0
 35 36  1  0
 26 37  1  0
 37 38  2  0
 38 12  1  0
 18 13  1  0
 38 21  1  0
 36 30  1  0
  1 39  1  0
  1 40  1  0
  1 41  1  0
  3 42  1  0
  3 43  1  0
  4 44  1  0
  4 45  1  0
  5 46  1  6
  6 47  1  0
  6 48  1  0
  6 49  1  0
  7 50  1  0
  7 51  1  0
  8 52  1  0
  8 53  1  0
  9 54  1  0
  9 55  1  0
 10 56  1  0
 10 57  1  0
 11 58  1  0
 14 59  1  0
 15 60  1  0
 16 61  1  0
 17 62  1  0
 20 63  1  0
 20 64  1  0
 20 65  1  0
 22 66  1  0
 25 67  1  0
 25 68  1  0
 25 69  1  0
 28 70  1  0
 28 71  1  0
 29 72  1  0
 29 73  1  0
 31 74  1  0
 31 75  1  0
 31 76  1  0
 32 77  1  0
 32 78  1  0
 33 79  1  0
 33 80  1  0
 35 81  1  0
 35 82  1  0
 36 83  1  0
 36 84  1  0
 37 85  1  0
M  CHG  3   5   1  19   1  30   1
M  END
>  <UniqueID>  (2) 
2

>  <SMILES>  (2) 
COCC[N@H+](C)CCCCNc1c2ccccc2[n+](C)c2cc(OC)c(OCC[N+]3(C)CCOCC3)cc12

>  <Energy>  (2) 
132.93669997173419

>  <Genealogy>  (2) 
COCC[NH+](C)CCCCNc1c2ccccc2[n+](C)c2cc(OC)c(OCC[N+]3(C)CCOCC3)cc12 (protonated)
COCC[N@H+](C)CCCCNc1c2ccccc2[n+](C)c2cc(OC)c(OCC[N+]3(C)CCOCC3)cc12 (chirality)
COCC[N@H+](C)CCCCNc1c2ccccc2[n+](C)c2cc(OC)c(OCC[N+]3(C)CCOCC3)cc12 (3D coordinates assigned)
COCC[N@H+](C)CCCCNc1c2ccccc2[n+](C)c2cc(OC)c(OCC[N+]3(C)CCOCC3)cc12 (nonaromatic ring conformer: 132.93669997173419 kcal/mol)

>  <smiles>  (2) 
COCCN(C)CCCCNc1c2ccccc2[n+](C)c2cc(OC)c(OCC[N+]3(C)CCOCC3)cc12

>  <score_type>  (2) 
oracle

>  <origin>  (2) 
adg

>  <m_score__min__energy>  (2) 
-7.6399999999999997

>  <m_primary>  (2) 
energy

$$$$
2:0
     RDKit          3D

 44 46  0  0  0  0  0  0  0  0999 V2000
   -3.7500   22.5520  -29.7760 C   0  0  0  0  0  0  0  0  0  0  0  0
   -3.5820   23.9850  -30.2760 C   0  0  0  0  0  0  0  0  0  0  0  0
   -4.7680   24.4170  -31.0490 N   0  0  0  0  0  0  0  0  0  0  0  0
   -5.3790   25.6280  -30.4760 C   0  0  0  0  0  0  0  0  0  0  0  0
   -5.7560   23.3390  -31.3010 C   0  0  0  0  0  0  0  0  0  0  0  0
   -5.7950   22.8970  -32.7140 N   0  0  0  0  0  0  0  0  0  0  0  0
   -5.7150   21.4470  -32.7990 C   0  0  0  0  0  0  0  0  0  0  0  0
   -4.4850   20.8010  -33.0960 C   0  0  0  0  0  0  0  0  0  0  0  0
   -3.2600   21.5130  -33.1440 C   0  0  0  0  0  0  0  0  0  0  0  0
   -2.0590   20.8600  -33.4070 C   0  0  0  0  0  0  0  0  0  0  0  0
   -2.0420   19.4880  -33.6110 C   0  0  0  0  0  0  0  0  0  0  0  0
   -3.2270   18.7600  -33.5690 C   0  0  0  0  0  0  0  0  0  0  0  0
   -4.4740   19.3980  -33.3390 C   0  0  0  0  0  0  0  0  0  0  0  0
   -5.6530   18.6820  -33.3310 N   0  0  0  0  0  0  0  0  0  0  0  0
   -5.6940   17.3160  -33.9000 C   0  0  0  0  0  0  0  0  0  0  0  0
   -6.7960   19.2430  -32.8000 C   0  0  0  0  0  0  0  0  0  0  0  0
   -7.9260   18.4480  -32.4790 C   0  0  0  0  0  0  0  0  0  0  0  0
   -9.0910   19.0200  -31.9740 C   0  0  0  0  0  0  0  0  0  0  0  0
   -9.1570   20.3880  -31.7560 C   0  0  0  0  0  0  0  0  0  0  0  0
   -8.0540   21.1930  -32.0290 C   0  0  0  0  0  0  0  0  0  0  0  0
   -6.8560   20.6420  -32.5460 C   0  0  0  0  0  0  0  0  0  0  0  0
   -3.7508   22.5452  -28.6760 H   0  0  0  0  0  0  0  0  0  0  0  0
   -4.7021   22.1438  -30.1459 H   0  0  0  0  0  0  0  0  0  0  0  0
   -2.9181   21.9347  -30.1459 H   0  0  0  0  0  0  0  0  0  0  0  0
   -3.4510   24.6545  -29.4131 H   0  0  0  0  0  0  0  0  0  0  0  0
   -2.7002   24.0272  -30.9323 H   0  0  0  0  0  0  0  0  0  0  0  0
   -5.3494   25.5692  -29.3780 H   0  0  0  0  0  0  0  0  0  0  0  0
   -4.8202   26.5143  -30.8110 H   0  0  0  0  0  0  0  0  0  0  0  0
   -6.4239   25.7051  -30.8110 H   0  0  0  0  0  0  0  0  0  0  0  0
   -5.4972   22.4745  -30.6720 H   0  0  0  0  0  0  0  0  0  0  0  0
   -6.7493   23.7453  -31.0598 H   0  0  0  0  0  0  0  0  0  0  0  0
   -5.0200   23.3290  -33.2610 H   0  0  0  0  0  0  0  0  0  0  0  0
   -6.6520   23.2350  -33.2010 H   0  0  0  0  0  0  0  0  0  0  0  0
   -3.2585   22.5992  -32.9706 H   0  0  0  0  0  0  0  0  0  0  0  0
   -1.1213   21.4333  -33.4532 H   0  0  0  0  0  0  0  0  0  0  0  0
   -1.0892   18.9742  -33.8065 H   0  0  0  0  0  0  0  0  0  0  0  0
   -3.1970   17.6704  -33.7167 H   0  0  0  0  0  0  0  0  0  0  0  0
   -5.7161   16.5792  -33.0835 H   0  0  0  0  0  0  0  0  0  0  0  0
   -6.5959   17.2038  -34.5196 H   0  0  0  0  0  0  0  0  0  0  0  0
   -4.8004   17.1499  -34.5196 H   0  0  0  0  0  0  0  0  0  0  0  0
   -7.8813   17.3596  -32.6318 H   0  0  0  0  0  0  0  0  0  0  0  0
   -9.9606   18.3855  -31.7476 H   0  0  0  0  0  0  0  0  0  0  0  0
  -10.0822   20.8379  -31.3668 H   0  0  0  0  0  0  0  0  0  0  0  0
   -8.1141   22.2750  -31.8400 H   0  0  0  0  0  0  0  0  0  0  0  0
  1  2  1  0
  2  3  1  0
  3  4  1  0
  3  5  1  0
  5  6  1  0
  6  7  1  0
  7  8  2  0
  8  9  1  0
  9 10  2  0
 10 11  1  0
 11 12  2  0
 12 13  1  0
 13 14  2  0
 14 15  1  0
 14 16  1  0
 16 17  2  0
 17 18  1  0
 18 19  2  0
 19 20  1  0
 20 21  2  0
 21  7  1  0
 13  8  1  0
 21 16  1  0
  1 22  1  0
  1 23  1  0
  1 24  1  0
  2 25  1  0
  2 26  1  0
  4 27  1  0
  4 28  1  0
  4 29  1  0
  5 30  1  0
  5 31  1  0
  6 32  1  0
  6 33  1  0
  9 34  1  0
 10 35  1  0
 11 36  1  0
 12 37  1  0
 15 38  1  0
 15 39  1  0
 15 40  1  0
 17 41  1  0
 18 42  1  0
 19 43  1  0
 20 44  1  0
M  CHG  2   6   1  14   1
M  END
>  <UniqueID>  (3) 
3

>  <SMILES>  (3) 
CCN(C)C[NH2+]c1c2ccccc2[n+](C)c2ccccc12

>  <Energy>  (3) 
75.71893149199373

>  <Genealogy>  (3) 
CCN(C)C[NH2+]c1c2ccccc2[n+](C)c2ccccc12 (protonated)
CCN(C)C[NH2+]c1c2ccccc2[n+](C)c2ccccc12 (3D coordinates assigned)
CCN(C)C[NH2+]c1c2ccccc2[n+](C)c2ccccc12 (optimized conformer: 75.71893149199373 kcal/mol)

>  <smiles>  (3) 
CCN(C)CNc1c2ccccc2[n+](C)c2ccccc12

>  <score_type>  (3) 
oracle

>  <origin>  (3) 
adg

>  <m_score__min__energy>  (3) 
-7.4199999999999999

>  <m_primary>  (3) 
energy

$$$$
3:0
     RDKit          3D

 57 59  0  0  0  0  0  0  0  0999 V2000
   -1.8970   23.4790  -28.7110 C   0  0  0  0  0  0  0  0  0  0  0  0
   -1.1260   22.7430  -29.8180 C   0  0  0  0  0  0  0  0  0  0  0  0
   -1.5770   21.3510  -30.0480 N   0  0  0  0  0  0  0  0  0  0  0  0
   -2.4320   20.8330  -28.9670 C   0  0  0  0  0  0  0  0  0  0  0  0
   -0.4770   20.4270  -30.3990 C   0  0  0  0  0  0  0  0  0  0  0  0
   -0.2360   20.4740  -31.9030 C   0  0  0  0  0  0  0  0  0  0  0  0
   -1.3380   19.8920  -32.5680 O   0  0  0  0  0  0  0  0  0  0  0  0
   -1.6570   20.6200  -33.7410 C   0  0  0  0  0  0  0  0  0  0  0  0
   -2.8410   21.5510  -33.4640 C   0  0  0  0  0  0  0  0  0  0  0  0
   -3.2570   21.4810  -32.0550 N   0  0  0  0  0  0  0  0  0  0  0  0
   -4.7010   21.6120  -31.9400 C   0  0  0  0  0  0  0  0  0  0  0  0
   -5.2770   22.7440  -31.3020 C   0  0  0  0  0  0  0  0  0  0  0  0
   -4.4870   23.8290  -30.8480 C   0  0  0  0  0  0  0  0  0  0  0  0
   -5.0640   24.9120  -30.1890 C   0  0  0  0  0  0  0  0  0  0  0  0
   -6.4350   24.9480  -29.9720 C   0  0  0  0  0  0  0  0  0  0  0  0
   -7.2410   23.9170  -30.4460 C   0  0  0  0  0  0  0  0  0  0  0  0
   -6.6890   22.8150  -31.1450 C   0  0  0  0  0  0  0  0  0  0  0  0
   -7.4990   21.8310  -31.6690 N   0  0  0  0  0  0  0  0  0  0  0  0
   -8.9110   22.1590  -31.9650 C   0  0  0  0  0  0  0  0  0  0  0  0
   -6.9540   20.6420  -32.1100 C   0  0  0  0  0  0  0  0  0  0  0  0
   -7.7350   19.4540  -32.2930 C   0  0  0  0  0  0  0  0  0  0  0  0
   -9.0570   19.2140  -31.6030 C   0  0  0  0  0  0  0  0  0  0  0  0
   -7.2080   18.3860  -33.0310 C   0  0  0  0  0  0  0  0  0  0  0  0
   -5.9000   18.4220  -33.4900 C   0  0  0  0  0  0  0  0  0  0  0  0
   -5.0720   19.4850  -33.1520 C   0  0  0  0  0  0  0  0  0  0  0  0
   -5.5620   20.5800  -32.4020 C   0  0  0  0  0  0  0  0  0  0  0  0
   -1.5406   23.1388  -27.7275 H   0  0  0  0  0  0  0  0  0  0  0  0
   -1.7310   24.5622  -28.8065 H   0  0  0  0  0  0  0  0  0  0  0  0
   -2.9713   23.2629  -28.8065 H   0  0  0  0  0  0  0  0  0  0  0  0
   -1.2481   23.3048  -30.7558 H   0  0  0  0  0  0  0  0  0  0  0  0
   -0.0778   22.6860  -29.4895 H   0  0  0  0  0  0  0  0  0  0  0  0
   -1.9937   21.0985  -27.9937 H   0  0  0  0  0  0  0  0  0  0  0  0
   -3.4359   21.2749  -29.0499 H   0  0  0  0  0  0  0  0  0  0  0  0
   -2.5051   19.7386  -29.0499 H   0  0  0  0  0  0  0  0  0  0  0  0
    0.4392   20.7300  -29.8710 H   0  0  0  0  0  0  0  0  0  0  0  0
   -0.7489   19.4032  -30.1026 H   0  0  0  0  0  0  0  0  0  0  0  0
   -0.1223   21.5197  -32.2250 H   0  0  0  0  0  0  0  0  0  0  0  0
    0.6802   19.9168  -32.1482 H   0  0  0  0  0  0  0  0  0  0  0  0
   -0.7862   21.2174  -34.0489 H   0  0  0  0  0  0  0  0  0  0  0  0
   -1.9255   19.9179  -34.5441 H   0  0  0  0  0  0  0  0  0  0  0  0
   -2.5472   22.5844  -33.7001 H   0  0  0  0  0  0  0  0  0  0  0  0
   -3.6866   21.2340  -34.0921 H   0  0  0  0  0  0  0  0  0  0  0  0
   -2.7760   22.2130  -31.4890 H   0  0  0  0  0  0  0  0  0  0  0  0
   -2.9200   20.5940  -31.6230 H   0  0  0  0  0  0  0  0  0  0  0  0
   -3.4004   23.8159  -31.0187 H   0  0  0  0  0  0  0  0  0  0  0  0
   -4.4316   25.7414  -29.8394 H   0  0  0  0  0  0  0  0  0  0  0  0
   -6.8838   25.7908  -29.4258 H   0  0  0  0  0  0  0  0  0  0  0  0
   -8.3268   23.9585  -30.2748 H   0  0  0  0  0  0  0  0  0  0  0  0
   -9.4630   22.2872  -31.0222 H   0  0  0  0  0  0  0  0  0  0  0  0
   -8.9567   23.0917  -32.5464 H   0  0  0  0  0  0  0  0  0  0  0  0
   -9.3631   21.3420  -32.5464 H   0  0  0  0  0  0  0  0  0  0  0  0
   -8.9118   19.2404  -30.5129 H   0  0  0  0  0  0  0  0  0  0  0  0
   -9.7714   19.9971  -31.8968 H   0  0  0  0  0  0  0  0  0  0  0  0
   -9.4506   18.2297  -31.8968 H   0  0  0  0  0  0  0  0  0  0  0  0
   -7.8378   17.5107  -33.2483 H   0  0  0  0  0  0  0  0  0  0  0  0
   -5.5175   17.6076  -34.1227 H   0  0  0  0  0  0  0  0  0  0  0  0
   -4.0197   19.4752  -33.4723 H   0  0  0  0  0  0  0  0  0  0  0  0
  1  2  1  0
  2  3  1  0
  3  4  1  0
  3  5  1  0
  5  6  1  0
  6  7  1  0
  7  8  1  0
  8  9  1  0
  9 10  1  0
 10 11  1  0
 11 12  2  0
 12 13  1  0
 13 14  2  0
 14 15  1  0
 15 16  2  0
 16 17  1  0
 17 18  2  0
 18 19  1  0
 18 20  1  0
 20 21  2  0
 21 22  1  0
 21 23  1  0
 23 24  2  0
 24 25  1  0
 25 26  2  0
 26 11  1  0
 17 12  1  0
 26 20  1  0
  1 27  1  0
  1 28  1  0
  1 29  1  0
  2 30  1  0
  2 31  1  0
  4 32  1  0
  4 33  1  0
  4 34  1  0
  5 35  1  0
  5 36  1  0
  6 37  1  0
  6 38  1  0
  8 39  1  0
  8 40  1  0
  9 41  1  0
  9 42  1  0
 10 43  1  0
 10 44  1  0
 13 45  1  0
 14 46  1  0
 15 47  1  0
 16 48  1  0
 19 49  1  0
 19 50  1  0
 19 51  1  0
 22 52  1  0
 22 53  1  0
 22 54  1  0
 23 55  1  0
 24 56  1  0
 25 57  1  0
M  CHG  2  10   1  18   1
M  END
>  <UniqueID>  (4) 
4

>  <SMILES>  (4) 
CCN(C)CCOCC[NH2+]c1c2ccccc2[n+](C)c2c(C)cccc12

>  <Energy>  (4) 
97.40488561785347

>  <Genealogy>  (4) 
CCN(C)CCOCC[NH2+]c1c2ccccc2[n+](C)c2c(C)cccc12 (protonated)
CCN(C)CCOCC[NH2+]c1c2ccccc2[n+](C)c2c(C)cccc12 (3D coordinates assigned)
CCN(C)CCOCC[NH2+]c1c2ccccc2[n+](C)c2c(C)cccc12 (optimized conformer: 97.40488561785347 kcal/mol)

>  <smiles>  (4) 
CCN(C)CCOCCNc1c2ccccc2[n+](C)c2c(C)cccc12

>  <score_type>  (4) 
oracle

>  <origin>  (4) 
adg

>  <m_score__min__energy>  (4) 
-7.1799999999999997

>  <m_primary>  (4) 
energy

$$$$
4:0
     RDKit          3D

 41 42  0  0  0  0  0  0  0  0999 V2000
   -6.8570   25.2800  -29.7180 C   0  0  0  0  0  0  0  0  0  0  0  0
   -5.4950   24.7480  -29.2830 C   0  0  0  0  0  0  0  0  0  0  0  0
   -4.6400   24.4420  -30.4840 C   0  0  0  0  0  0  0  0  0  0  0  0
   -4.2270   25.3970  -31.1950 O   0  0  0  0  0  0  0  0  0  0  0  0
   -4.3630   23.0870  -30.8870 N   0  0  0  0  0  0  0  0  0  0  0  0
   -4.7100   22.6950  -32.2550 C   0  0  0  0  0  0  0  0  0  0  0  0
   -3.8360   21.5340  -32.7450 C   0  0  0  0  0  0  0  0  0  0  0  0
   -3.6790   20.4600  -31.7450 N   0  0  0  0  0  0  0  0  0  0  0  0
   -4.5940   19.3040  -31.8440 C   0  0  0  0  0  0  0  0  0  0  0  0
   -5.9870   19.6610  -32.2920 C   0  0  0  0  0  0  0  0  0  0  0  0
   -6.8960   20.4410  -31.6010 C   0  0  0  0  0  0  0  0  0  0  0  0
   -8.0180   20.5370  -32.3380 N   0  0  0  0  0  0  0  0  0  0  0  0
   -9.2620   21.1740  -31.9240 C   0  0  0  0  0  0  0  0  0  0  0  0
   -7.8660   19.8620  -33.4660 N   0  0  0  0  0  0  0  0  0  0  0  0
   -6.6240   19.3390  -33.4860 C   0  0  0  0  0  0  0  0  0  0  0  0
   -6.0960   18.4980  -34.6070 C   0  0  0  0  0  0  0  0  0  0  0  0
   -3.3170   20.9120  -30.3900 C   0  0  0  0  0  0  0  0  0  0  0  0
   -4.2270   22.0330  -29.8800 C   0  0  0  0  0  0  0  0  0  0  0  0
   -7.4598   25.5155  -28.8285 H   0  0  0  0  0  0  0  0  0  0  0  0
   -6.7199   26.1907  -30.3196 H   0  0  0  0  0  0  0  0  0  0  0  0
   -7.3734   24.5175  -30.3196 H   0  0  0  0  0  0  0  0  0  0  0  0
   -4.9916   25.5051  -28.6638 H   0  0  0  0  0  0  0  0  0  0  0  0
   -5.6422   23.8230  -28.7062 H   0  0  0  0  0  0  0  0  0  0  0  0
   -5.7649   22.3843  -32.2813 H   0  0  0  0  0  0  0  0  0  0  0  0
   -4.5398   23.5581  -32.9154 H   0  0  0  0  0  0  0  0  0  0  0  0
   -4.2972   21.1063  -33.6474 H   0  0  0  0  0  0  0  0  0  0  0  0
   -2.8343   21.9419  -32.9455 H   0  0  0  0  0  0  0  0  0  0  0  0
   -4.1713   18.5893  -32.5654 H   0  0  0  0  0  0  0  0  0  0  0  0
   -4.6838   18.8820  -30.8321 H   0  0  0  0  0  0  0  0  0  0  0  0
   -6.7303   20.9039  -30.6170 H   0  0  0  0  0  0  0  0  0  0  0  0
   -9.3127   21.2000  -30.8255 H   0  0  0  0  0  0  0  0  0  0  0  0
   -9.2967   22.2008  -32.3170 H   0  0  0  0  0  0  0  0  0  0  0  0
  -10.1154   20.6019  -32.3170 H   0  0  0  0  0  0  0  0  0  0  0  0
   -8.5970   19.7540  -34.2040 H   0  0  0  0  0  0  0  0  0  0  0  0
   -5.5539   17.6346  -34.1938 H   0  0  0  0  0  0  0  0  0  0  0  0
   -6.9338   18.1433  -35.2253 H   0  0  0  0  0  0  0  0  0  0  0  0
   -5.4125   19.0984  -35.2253 H   0  0  0  0  0  0  0  0  0  0  0  0
   -3.3917   20.0571  -29.7018 H   0  0  0  0  0  0  0  0  0  0  0  0
   -2.2922   21.3092  -30.4342 H   0  0  0  0  0  0  0  0  0  0  0  0
   -5.2205   21.6177  -29.6554 H   0  0  0  0  0  0  0  0  0  0  0  0
   -3.7806   22.4660  -28.9727 H   0  0  0  0  0  0  0  0  0  0  0  0
  1  2  1  0
  2  3  1  0
  3  4  2  0
  3  5  1  0
  5  6  1  0
  6  7  1  0
  7  8  1  0
  8  9  1  0
  9 10  1  0
 10 11  2  0
 11 12  1  0
 12 13  1  0
 12 14  1  0
 14 15  2  0
 15 16  1  0
  8 17  1  0
 17 18  1  0
 18  5  1  0
 15 10  1  0
  1 19  1  0
  1 20  1  0
  1 21  1  0
  2 22  1  0
  2 23  1  0
  6 24  1  0
  6 25  1  0
  7 26  1  0
  7 27  1  0
  9 28  1  0
  9 29  1  0
 11 30  1  0
 13 31  1  0
 13 32  1  0
 13 33  1  0
 14 34  1  0
 16 35  1  0
 16 36  1  0
 16 37  1  0
 17 38  1  0
 17 39  1  0
 18 40  1  0
 18 41  1  0
M  CHG  1  14   1
M  END
>  <UniqueID>  (5) 
5

>  <SMILES>  (5) 
CCC(=O)N1CCN(Cc2cn(C)[nH+]c2C)CC1

>  <Energy>  (5) 
74.106940869384

>  <Genealogy>  (5) 
CCC(=O)N1CCN(Cc2cn(C)[nH+]c2C)CC1 (protonated)
CCC(=O)N1CCN(Cc2cn(C)[nH+]c2C)CC1 (3D coordinates assigned)
CCC(=O)N1CCN(Cc2cn(C)[nH+]c2C)CC1 (nonaromatic ring conformer: 74.106940869384 kcal/mol)

>  <smiles>  (5) 
CCC(=O)N1CCN(Cc2cn(C)nc2C)CC1

>  <score_type>  (5) 
oracle

>  <origin>  (5) 
adg

>  <m_score__min__energy>  (5) 
-6.7599999999999998

>  <m_primary>  (5) 
energy

$$$$
5:0
     RDKit          3D

 52 54  0  0  0  0  0  0  0  0999 V2000
   -3.3470   24.1580  -28.5500 C   0  0  0  0  0  0  0  0  0  0  0  0
   -3.1860   23.9630  -30.0560 C   0  0  0  0  0  0  0  0  0  0  0  0
   -4.3120   24.4940  -30.7560 O   0  0  0  0  0  0  0  0  0  0  0  0
   -5.5550   23.8560  -30.9000 C   0  0  0  0  0  0  0  0  0  0  0  0
   -6.1270   23.8000  -32.1760 C   0  0  0  0  0  0  0  0  0  0  0  0
   -7.3590   23.1690  -32.3760 C   0  0  0  0  0  0  0  0  0  0  0  0
   -8.0520   22.5960  -31.2960 C   0  0  0  0  0  0  0  0  0  0  0  0
   -9.3510   21.8460  -31.5250 C   0  0  0  0  0  0  0  0  0  0  0  0
   -9.1950   20.4300  -31.9240 N   0  0  0  0  0  0  0  0  0  0  0  0
   -8.7370   19.5260  -30.8740 C   0  0  0  0  0  0  0  0  0  0  0  0
   -8.3190   18.2600  -31.5940 C   0  0  0  0  0  0  0  0  0  0  0  0
   -7.8360   18.7360  -32.9640 C   0  0  2  0  0  0  0  0  0  0  0  0
   -6.3720   18.6590  -33.0450 N   0  0  0  0  0  0  0  0  0  0  0  0
   -5.5300   19.6730  -32.4730 C   0  0  0  0  0  0  0  0  0  0  0  0
   -5.9790   20.4330  -31.5720 O   0  0  0  0  0  0  0  0  0  0  0  0
   -4.1280   19.8270  -32.9200 C   0  0  0  0  0  0  0  0  0  0  0  0
   -3.4940   21.0730  -32.7710 C   0  0  0  0  0  0  0  0  0  0  0  0
   -2.1710   21.2490  -33.1820 C   0  0  0  0  0  0  0  0  0  0  0  0
   -1.4690   20.1860  -33.7540 C   0  0  0  0  0  0  0  0  0  0  0  0
   -2.0900   18.9450  -33.9260 C   0  0  0  0  0  0  0  0  0  0  0  0
   -3.4280   18.7540  -33.5210 C   0  0  0  0  0  0  0  0  0  0  0  0
   -4.0900   17.5300  -33.7240 O   0  0  0  0  0  0  0  0  0  0  0  0
   -4.0940   16.7990  -34.9490 C   0  0  0  0  0  0  0  0  0  0  0  0
   -8.3420   20.1830  -33.0910 C   0  0  0  0  0  0  0  0  0  0  0  0
   -7.4740   22.6420  -30.0160 C   0  0  0  0  0  0  0  0  0  0  0  0
   -6.2420   23.2710  -29.8160 C   0  0  0  0  0  0  0  0  0  0  0  0
   -2.7345   23.4161  -28.0167 H   0  0  0  0  0  0  0  0  0  0  0  0
   -3.0187   25.1710  -28.2743 H   0  0  0  0  0  0  0  0  0  0  0  0
   -4.4038   24.0273  -28.2743 H   0  0  0  0  0  0  0  0  0  0  0  0
   -2.2751   24.4801  -30.3919 H   0  0  0  0  0  0  0  0  0  0  0  0
   -3.1130   22.8861  -30.2678 H   0  0  0  0  0  0  0  0  0  0  0  0
   -5.6031   24.2562  -33.0289 H   0  0  0  0  0  0  0  0  0  0  0  0
   -7.7892   23.1208  -33.3872 H   0  0  0  0  0  0  0  0  0  0  0  0
   -9.9308   21.8751  -30.5906 H   0  0  0  0  0  0  0  0  0  0  0  0
   -9.8512   22.3484  -32.3661 H   0  0  0  0  0  0  0  0  0  0  0  0
   -7.8836   19.9625  -30.3344 H   0  0  0  0  0  0  0  0  0  0  0  0
   -9.5206   19.3340  -30.1262 H   0  0  0  0  0  0  0  0  0  0  0  0
   -7.5073   17.7543  -31.0504 H   0  0  0  0  0  0  0  0  0  0  0  0
   -9.1414   17.5336  -31.6713 H   0  0  0  0  0  0  0  0  0  0  0  0
   -8.2173   18.1114  -33.7852 H   0  0  0  0  0  0  0  0  0  0  0  0
   -5.9210   17.8980  -33.6090 H   0  0  0  0  0  0  0  0  0  0  0  0
   -4.0443   21.9158  -32.3273 H   0  0  0  0  0  0  0  0  0  0  0  0
   -1.6815   22.2258  -33.0550 H   0  0  0  0  0  0  0  0  0  0  0  0
   -0.4247   20.3253  -34.0701 H   0  0  0  0  0  0  0  0  0  0  0  0
   -1.5320   18.1127  -34.3798 H   0  0  0  0  0  0  0  0  0  0  0  0
   -4.0999   15.7205  -34.7324 H   0  0  0  0  0  0  0  0  0  0  0  0
   -4.9907   17.0613  -35.5296 H   0  0  0  0  0  0  0  0  0  0  0  0
   -3.1945   17.0515  -35.5296 H   0  0  0  0  0  0  0  0  0  0  0  0
   -7.4936   20.8831  -33.0965 H   0  0  0  0  0  0  0  0  0  0  0  0
   -8.8987   20.3288  -34.0285 H   0  0  0  0  0  0  0  0  0  0  0  0
   -7.9952   22.1794  -29.1649 H   0  0  0  0  0  0  0  0  0  0  0  0
   -5.8055   23.3100  -28.8071 H   0  0  0  0  0  0  0  0  0  0  0  0
  1  2  1  0
  2  3  1  0
  3  4  1  0
  4  5  2  0
  5  6  1  0
  6  7  2  0
  7  8  1  0
  8  9  1  0
  9 10  1  0
 10 11  1  0
 11 12  1  0
 12 13  1  0
 13 14  1  0
 14 15  2  0
 14 16  1  0
 16 17  2  0
 17 18  1  0
 18 19  2  0
 19 20  1  0
 20 21  2  0
 21 22  1  0
 22 23  1  0
 12 24  1  0
  7 25  1  0
 25 26  2  0
 26  4  1  0
 24  9  1  0
 21 16  1  0
  1 27  1  0
  1 28  1  0
  1 29  1  0
  2 30  1  0
  2 31  1  0
  5 32  1  0
  6 33  1  0
  8 34  1  0
  8 35  1  0
 10 36  1  0
 10 37  1  0
 11 38  1  0
 11 39  1  0
 12 40  1  6
 13 41  1  0
 17 42  1  0
 18 43  1  0
 19 44  1  0
 20 45  1  0
 23 46  1  0
 23 47  1  0
 23 48  1  0
 24 49  1  0
 24 50  1  0
 25 51  1  0
 26 52  1  0
M  END
>  <UniqueID>  (6) 
6

>  <SMILES>  (6) 
CCOc1ccc(CN2CC[C@H](NC(=O)c3ccccc3OC)C2)cc1

>  <Energy>  (6) 
60.91500784381369

>  <Genealogy>  (6) 
CCOc1ccc(CN2CC[C@H](NC(=O)c3ccccc3OC)C2)cc1 (chirality)
CCOc1ccc(CN2CC[C@H](NC(=O)c3ccccc3OC)C2)cc1 (3D coordinates assigned)
CCOc1ccc(CN2CC[C@H](NC(=O)c3ccccc3OC)C2)cc1 (nonaromatic ring conformer: 60.91500784381369 kcal/mol)

>  <smiles>  (6) 
CCOc1ccc(CN2CCC(NC(=O)c3ccccc3OC)C2)cc1

>  <score_type>  (6) 
oracle

>  <origin>  (6) 
adg

>  <m_score__min__energy>  (6) 
-7.6500000000000004

>  <m_primary>  (6) 
energy

$$$$
6:0
     RDKit          3D

 57 59  0  0  0  0  0  0  0  0999 V2000
   -1.9710   25.6570  -26.4730 C   0  0  0  0  0  0  0  0  0  0  0  0
   -1.1590   26.2940  -27.5970 C   0  0  0  0  0  0  0  0  0  0  0  0
   -1.6330   25.8600  -28.8720 O   0  0  0  0  0  0  0  0  0  0  0  0
   -1.7240   24.5240  -29.3040 C   0  0  0  0  0  0  0  0  0  0  0  0
   -0.7670   23.5520  -28.9540 C   0  0  0  0  0  0  0  0  0  0  0  0
   -0.8990   22.2370  -29.4020 C   0  0  0  0  0  0  0  0  0  0  0  0
   -1.9850   21.8700  -30.2060 C   0  0  0  0  0  0  0  0  0  0  0  0
   -2.1420   20.4480  -30.6810 C   0  0  0  0  0  0  0  0  0  0  0  0
   -1.4050   20.2260  -31.9440 N   0  0  0  0  0  0  0  0  0  0  0  0
   -1.9220   21.0450  -33.0630 C   0  0  0  0  0  0  0  0  0  0  0  0
   -3.2080   20.4550  -33.6730 C   0  0  0  0  0  0  0  0  0  0  0  0
   -3.1360   18.9890  -33.9470 N   0  0  0  0  0  0  0  0  0  0  0  0
   -4.2130   18.2620  -33.2260 C   0  0  0  0  0  0  0  0  0  0  0  0
   -5.3720   19.1580  -32.8530 C   0  0  0  0  0  0  0  0  0  0  0  0
   -5.3440   19.8990  -31.6590 C   0  0  0  0  0  0  0  0  0  0  0  0
   -6.4250   20.7150  -31.3110 C   0  0  0  0  0  0  0  0  0  0  0  0
   -7.5400   20.7990  -32.1510 C   0  0  0  0  0  0  0  0  0  0  0  0
   -9.0150   21.9140  -31.6730 Br  0  0  0  0  0  0  0  0  0  0  0  0
   -7.5740   20.0640  -33.3410 C   0  0  0  0  0  0  0  0  0  0  0  0
   -6.4950   19.2470  -33.6920 C   0  0  0  0  0  0  0  0  0  0  0  0
   -1.7900   18.4260  -33.6810 C   0  0  0  0  0  0  0  0  0  0  0  0
   -1.2800   18.7830  -32.2730 C   0  0  0  0  0  0  0  0  0  0  0  0
   -2.9420   22.8340  -30.5560 C   0  0  0  0  0  0  0  0  0  0  0  0
   -2.8200   24.1620  -30.1010 C   0  0  0  0  0  0  0  0  0  0  0  0
   -3.7620   25.1560  -30.4230 O   0  0  0  0  0  0  0  0  0  0  0  0
   -5.1630   25.0940  -30.1590 C   0  0  0  0  0  0  0  0  0  0  0  0
   -5.8840   24.2960  -31.2400 C   0  0  0  0  0  0  0  0  0  0  0  0
   -1.5651   25.9754  -25.5015 H   0  0  0  0  0  0  0  0  0  0  0  0
   -3.0210   25.9748  -26.5536 H   0  0  0  0  0  0  0  0  0  0  0  0
   -1.9123   24.5615  -26.5536 H   0  0  0  0  0  0  0  0  0  0  0  0
   -1.2492   27.3884  -27.5319 H   0  0  0  0  0  0  0  0  0  0  0  0
   -0.1074   25.9900  -27.4890 H   0  0  0  0  0  0  0  0  0  0  0  0
    0.0900   23.8311  -28.3235 H   0  0  0  0  0  0  0  0  0  0  0  0
   -0.1463   21.4852  -29.1222 H   0  0  0  0  0  0  0  0  0  0  0  0
   -1.7503   19.7665  -29.9115 H   0  0  0  0  0  0  0  0  0  0  0  0
   -3.2099   20.2545  -30.8601 H   0  0  0  0  0  0  0  0  0  0  0  0
   -2.1391   22.0569  -32.6901 H   0  0  0  0  0  0  0  0  0  0  0  0
   -1.1536   21.0635  -33.8499 H   0  0  0  0  0  0  0  0  0  0  0  0
   -4.0368   20.6352  -32.9725 H   0  0  0  0  0  0  0  0  0  0  0  0
   -3.3559   20.9521  -34.6431 H   0  0  0  0  0  0  0  0  0  0  0  0
   -3.3120   18.8610  -34.9740 H   0  0  0  0  0  0  0  0  0  0  0  0
   -4.5864   17.4542  -33.8726 H   0  0  0  0  0  0  0  0  0  0  0  0
   -3.7824   17.8695  -32.2930 H   0  0  0  0  0  0  0  0  0  0  0  0
   -4.4686   19.8368  -30.9959 H   0  0  0  0  0  0  0  0  0  0  0  0
   -6.3983   21.2919  -30.3748 H   0  0  0  0  0  0  0  0  0  0  0  0
   -8.4511   20.1290  -34.0016 H   0  0  0  0  0  0  0  0  0  0  0  0
   -6.5257   18.6716  -34.6290 H   0  0  0  0  0  0  0  0  0  0  0  0
   -1.8392   17.3310  -33.7732 H   0  0  0  0  0  0  0  0  0  0  0  0
   -1.0919   18.8577  -34.4133 H   0  0  0  0  0  0  0  0  0  0  0  0
   -1.8595   18.2069  -31.5367 H   0  0  0  0  0  0  0  0  0  0  0  0
   -0.2081   18.5374  -32.2460 H   0  0  0  0  0  0  0  0  0  0  0  0
   -3.7946   22.5510  -31.1908 H   0  0  0  0  0  0  0  0  0  0  0  0
   -5.3251   24.6096  -29.1848 H   0  0  0  0  0  0  0  0  0  0  0  0
   -5.5652   26.1178  -30.1498 H   0  0  0  0  0  0  0  0  0  0  0  0
   -6.5503   23.5586  -30.7685 H   0  0  0  0  0  0  0  0  0  0  0  0
   -6.4774   24.9790  -31.8657 H   0  0  0  0  0  0  0  0  0  0  0  0
   -5.1445   23.7748  -31.8657 H   0  0  0  0  0  0  0  0  0  0  0  0
  1  2  1  0
  2  3  1  0
  3  4  1  0
  4  5  2  0
  5  6  1  0
  6  7  2  0
  7  8  1  0
  8  9  1  0
  9 10  1  0
 10 11  1  0
 11 12  1  0
 12 13  1  0
 13 14  1  0
 14 15  2  0
 15 16  1  0
 16 17  2  0
 17 18  1  0
 17 19  1  0
 19 20  2  0
 12 21  1  0
 21 22  1  0
  7 23  1  0
 23 24  2  0
 24 25  1  0
 25 26  1  0
 26 27  1  0
 24  4  1  0
 22  9  1  0
 20 14  1  0
  1 28  1  0
  1 29  1  0
  1 30  1  0
  2 31  1  0
  2 32  1  0
  5 33  1  0
  6 34  1  0
  8 35  1  0
  8 36  1  0
 10 37  1  0
 10 38  1  0
 11 39  1  0
 11 40  1  0
 12 41  1  0
 13 42  1  0
 13 43  1  0
 15 44  1  0
 16 45  1  0
 19 46  1  0
 20 47  1  0
 21 48  1  0
 21 49  1  0
 22 50  1  0
 22 51  1  0
 23 52  1  0
 26 53  1  0
 26 54  1  0
 27 55  1  0
 27 56  1  0
 27 57  1  0
M  CHG  1  12   1
M  END
>  <UniqueID>  (7) 
7

>  <SMILES>  (7) 
CCOc1ccc(CN2CC[NH+](Cc3ccc(Br)cc3)CC2)cc1OCC

>  <Energy>  (7) 
70.27533547669347

>  <Genealogy>  (7) 
CCOc1ccc(CN2CC[NH+](Cc3ccc(Br)cc3)CC2)cc1OCC (protonated)
CCOc1ccc(CN2CC[NH+](Cc3ccc(Br)cc3)CC2)cc1OCC (3D coordinates assigned)
CCOc1ccc(CN2CC[NH+](Cc3ccc(Br)cc3)CC2)cc1OCC (nonaromatic ring conformer: 70.27533547669347 kcal/mol)

>  <smiles>  (7) 
CCOc1ccc(CN2CCN(Cc3ccc(Br)cc3)CC2)cc1OCC

>  <score_type>  (7) 
oracle

>  <origin>  (7) 
adg

>  <m_score__min__energy>  (7) 
-9.0700000000000003

>  <m_primary>  (7) 
energy

$$$$
7:0
     RDKit          3D

 52 54  0  0  0  0  0  0  0  0999 V2000
   -2.6310   21.1840  -33.4070 C   0  0  0  0  0  0  0  0  0  0  0  0
   -3.3230   21.7320  -32.1630 C   0  0  0  0  0  0  0  0  0  0  0  0
   -2.3250   22.2850  -31.2190 N   0  0  0  0  0  0  0  0  0  0  0  0
   -1.2040   21.3370  -31.0160 C   0  0  0  0  0  0  0  0  0  0  0  0
   -0.6930   21.4290  -29.5810 C   0  0  0  0  0  0  0  0  0  0  0  0
   -2.9560   22.6550  -29.9300 C   0  0  0  0  0  0  0  0  0  0  0  0
   -2.8490   24.1660  -29.6810 C   0  0  0  0  0  0  0  0  0  0  0  0
   -3.7620   24.8850  -30.4890 O   0  0  0  0  0  0  0  0  0  0  0  0
   -5.0680   24.3670  -30.3460 C   0  0  0  0  0  0  0  0  0  0  0  0
   -5.8210   24.5030  -31.6670 C   0  0  0  0  0  0  0  0  0  0  0  0
   -5.9940   23.1940  -32.2990 N   0  0  0  0  0  0  0  0  0  0  0  0
   -7.0320   22.2660  -31.9390 C   0  0  0  0  0  0  0  0  0  0  0  0
   -8.1570   22.7440  -31.2540 C   0  0  0  0  0  0  0  0  0  0  0  0
   -9.1910   21.8800  -30.8890 C   0  0  0  0  0  0  0  0  0  0  0  0
   -9.1250   20.5270  -31.2190 C   0  0  0  0  0  0  0  0  0  0  0  0
   -8.0240   20.0260  -31.9340 C   0  0  0  0  0  0  0  0  0  0  0  0
   -7.9390   18.6740  -32.3120 C   0  0  0  0  0  0  0  0  0  0  0  0
   -8.8520   17.8620  -31.9950 O   0  0  0  0  0  0  0  0  0  0  0  0
   -6.8270   18.2350  -33.0510 C   0  0  0  0  0  0  0  0  0  0  0  0
   -6.6800   16.8980  -33.4650 C   0  0  0  0  0  0  0  0  0  0  0  0
   -5.5590   16.5120  -34.2050 C   0  0  0  0  0  0  0  0  0  0  0  0
   -4.5780   17.4490  -34.5380 C   0  0  0  0  0  0  0  0  0  0  0  0
   -4.7120   18.7800  -34.1320 C   0  0  0  0  0  0  0  0  0  0  0  0
   -5.8300   19.1780  -33.3890 C   0  0  0  0  0  0  0  0  0  0  0  0
   -5.9430   20.4440  -33.0070 O   0  0  0  0  0  0  0  0  0  0  0  0
   -6.9730   20.9020  -32.3020 C   0  0  0  0  0  0  0  0  0  0  0  0
   -1.8016   20.5272  -33.1059 H   0  0  0  0  0  0  0  0  0  0  0  0
   -3.3538   20.6107  -34.0061 H   0  0  0  0  0  0  0  0  0  0  0  0
   -2.2386   22.0189  -34.0061 H   0  0  0  0  0  0  0  0  0  0  0  0
   -4.0226   22.5278  -32.4582 H   0  0  0  0  0  0  0  0  0  0  0  0
   -3.8678   20.9145  -31.6682 H   0  0  0  0  0  0  0  0  0  0  0  0
   -1.5535   20.3127  -31.2128 H   0  0  0  0  0  0  0  0  0  0  0  0
   -0.3867   21.5926  -31.7064 H   0  0  0  0  0  0  0  0  0  0  0  0
   -1.5300   21.2783  -28.8834 H   0  0  0  0  0  0  0  0  0  0  0  0
    0.0688   20.6536  -29.4126 H   0  0  0  0  0  0  0  0  0  0  0  0
   -0.2495   22.4214  -29.4126 H   0  0  0  0  0  0  0  0  0  0  0  0
   -4.0177   22.3682  -29.9534 H   0  0  0  0  0  0  0  0  0  0  0  0
   -2.4331   22.1274  -29.1187 H   0  0  0  0  0  0  0  0  0  0  0  0
   -3.0679   24.3714  -28.6227 H   0  0  0  0  0  0  0  0  0  0  0  0
   -1.8291   24.4892  -29.9366 H   0  0  0  0  0  0  0  0  0  0  0  0
   -5.0117   23.3051  -30.0644 H   0  0  0  0  0  0  0  0  0  0  0  0
   -5.5996   24.9281  -29.5633 H   0  0  0  0  0  0  0  0  0  0  0  0
   -6.8097   24.9454  -31.4755 H   0  0  0  0  0  0  0  0  0  0  0  0
   -5.2394   25.1483  -32.3417 H   0  0  0  0  0  0  0  0  0  0  0  0
   -5.4630   23.0190  -33.1830 H   0  0  0  0  0  0  0  0  0  0  0  0
   -8.2262   23.8123  -31.0010 H   0  0  0  0  0  0  0  0  0  0  0  0
  -10.0610   22.2681  -30.3390 H   0  0  0  0  0  0  0  0  0  0  0  0
   -9.9377   19.8493  -30.9186 H   0  0  0  0  0  0  0  0  0  0  0  0
   -7.4489   16.1553  -33.2057 H   0  0  0  0  0  0  0  0  0  0  0  0
   -5.4487   15.4658  -34.5266 H   0  0  0  0  0  0  0  0  0  0  0  0
   -3.6982   17.1389  -35.1209 H   0  0  0  0  0  0  0  0  0  0  0  0
   -3.9381   19.5156  -34.3966 H   0  0  0  0  0  0  0  0  0  0  0  0
  1  2  1  0
  2  3  1  0
  3  4  1  0
  4  5  1  0
  3  6  1  0
  6  7  1  0
  7  8  1  0
  8  9  1  0
  9 10  1  0
 10 11  1  0
 11 12  1  0
 12 13  2  0
 13 14  1  0
 14 15  2  0
 15 16  1  0
 16 17  1  0
 17 18  2  0
 17 19  1  0
 19 20  2  0
 20 21  1  0
 21 22  2  0
 22 23  1  0
 23 24  2  0
 24 25  1  0
 25 26  1  0
 26 12  1  0
 26 16  2  0
 24 19  1  0
  1 27  1  0
  1 28  1  0
  1 29  1  0
  2 30  1  0
  2 31  1  0
  4 32  1  0
  4 33  1  0
  5 34  1  0
  5 35  1  0
  5 36  1  0
  6 37  1  0
  6 38  1  0
  7 39  1  0
  7 40  1  0
  9 41  1  0
  9 42  1  0
 10 43  1  0
 10 44  1  0
 11 45  1  0
 13 46  1  0
 14 47  1  0
 15 48  1  0
 20 49  1  0
 21 50  1  0
 22 51  1  0
 23 52  1  0
M  END
>  <UniqueID>  (8) 
8

>  <SMILES>  (8) 
CCN(CC)CCOCCNc1cccc2c(=O)c3ccccc3oc12

>  <Energy>  (8) 
59.073708166966064

>  <Genealogy>  (8) 
CCN(CC)CCOCCNc1cccc2c(=O)c3ccccc3oc12 (3D coordinates assigned)
CCN(CC)CCOCCNc1cccc2c(=O)c3ccccc3oc12 (optimized conformer: 59.073708166966064 kcal/mol)

>  <smiles>  (8) 
CCN(CC)CCOCCNc1cccc2c(=O)c3ccccc3oc12

>  <score_type>  (8) 
oracle

>  <origin>  (8) 
adg

>  <m_score__min__energy>  (8) 
-8.5299999999999994

>  <m_primary>  (8) 
energy

$$$$
8:0
     RDKit          3D

 48 50  0  0  0  0  0  0  0  0999 V2000
   -4.9240   16.0640  -32.5600 C   0  0  0  0  0  0  0  0  0  0  0  0
   -3.9500   16.5110  -33.6510 C   0  0  0  0  0  0  0  0  0  0  0  0
   -3.0770   17.6990  -33.2180 C   0  0  0  0  0  0  0  0  0  0  0  0
   -3.1540   18.8740  -34.2040 C   0  0  0  0  0  0  0  0  0  0  0  0
   -3.2260   20.2200  -33.4630 C   0  0  0  0  0  0  0  0  0  0  0  0
   -4.6120   20.5320  -33.0480 N   0  0  0  0  0  0  0  0  0  0  0  0
   -5.6050   19.6400  -33.6970 C   0  0  0  0  0  0  0  0  0  0  0  0
   -6.8460   19.5780  -32.8650 C   0  0  0  0  0  0  0  0  0  0  0  0
   -7.7690   20.6020  -32.6950 C   0  0  0  0  0  0  0  0  0  0  0  0
   -8.8500   20.2380  -31.8820 C   0  0  0  0  0  0  0  0  0  0  0  0
   -8.7870   18.9300  -31.4210 C   0  0  0  0  0  0  0  0  0  0  0  0
   -7.3850   18.2230  -32.0250 S   0  0  0  0  0  0  0  0  0  0  0  0
   -4.7340   20.4960  -31.5740 C   0  0  0  0  0  0  0  0  0  0  0  0
   -4.2340   21.7980  -30.9730 C   0  0  0  0  0  0  0  0  0  0  0  0
   -2.8480   21.9040  -30.7720 C   0  0  0  0  0  0  0  0  0  0  0  0
   -2.2810   23.0620  -30.2490 C   0  0  0  0  0  0  0  0  0  0  0  0
   -3.0840   24.1480  -29.9110 C   0  0  0  0  0  0  0  0  0  0  0  0
   -2.4860   25.2910  -29.3890 O   0  0  0  0  0  0  0  0  0  0  0  0
   -4.4770   24.0850  -30.0980 C   0  0  0  0  0  0  0  0  0  0  0  0
   -5.2620   25.1560  -29.7680 N   0  0  0  0  0  0  0  0  0  0  0  0
   -6.6090   25.1360  -29.9400 C   0  0  0  0  0  0  0  0  0  0  0  0
   -7.2320   24.0100  -30.4650 C   0  0  0  0  0  0  0  0  0  0  0  0
   -6.4690   22.8980  -30.8120 C   0  0  0  0  0  0  0  0  0  0  0  0
   -5.0680   22.9050  -30.6350 C   0  0  0  0  0  0  0  0  0  0  0  0
   -4.4851   16.2654  -31.5717 H   0  0  0  0  0  0  0  0  0  0  0  0
   -5.8684   16.6188  -32.6618 H   0  0  0  0  0  0  0  0  0  0  0  0
   -5.1191   14.9862  -32.6618 H   0  0  0  0  0  0  0  0  0  0  0  0
   -3.2932   15.6657  -33.9039 H   0  0  0  0  0  0  0  0  0  0  0  0
   -4.5471   16.8360  -34.5158 H   0  0  0  0  0  0  0  0  0  0  0  0
   -3.4157   18.0444  -32.2301 H   0  0  0  0  0  0  0  0  0  0  0  0
   -2.0329   17.3542  -33.1890 H   0  0  0  0  0  0  0  0  0  0  0  0
   -2.2593   18.8644  -34.8438 H   0  0  0  0  0  0  0  0  0  0  0  0
   -4.0656   18.7610  -34.8091 H   0  0  0  0  0  0  0  0  0  0  0  0
   -2.5866   20.1716  -32.5692 H   0  0  0  0  0  0  0  0  0  0  0  0
   -2.8816   21.0109  -34.1455 H   0  0  0  0  0  0  0  0  0  0  0  0
   -5.8526   20.0327  -34.6943 H   0  0  0  0  0  0  0  0  0  0  0  0
   -5.1798   18.6301  -33.7929 H   0  0  0  0  0  0  0  0  0  0  0  0
   -7.6620   21.5968  -33.1520 H   0  0  0  0  0  0  0  0  0  0  0  0
   -9.6723   20.9246  -31.6321 H   0  0  0  0  0  0  0  0  0  0  0  0
   -9.5273   18.4397  -30.7717 H   0  0  0  0  0  0  0  0  0  0  0  0
   -5.7896   20.3516  -31.3005 H   0  0  0  0  0  0  0  0  0  0  0  0
   -4.1273   19.6652  -31.1844 H   0  0  0  0  0  0  0  0  0  0  0  0
   -2.1985   21.0555  -31.0330 H   0  0  0  0  0  0  0  0  0  0  0  0
   -1.1924   23.1198  -30.1018 H   0  0  0  0  0  0  0  0  0  0  0  0
   -4.8390   26.0250  -29.3730 H   0  0  0  0  0  0  0  0  0  0  0  0
   -7.2096   26.0148  -29.6626 H   0  0  0  0  0  0  0  0  0  0  0  0
   -8.3229   23.9973  -30.6058 H   0  0  0  0  0  0  0  0  0  0  0  0
   -6.9618   22.0066  -31.2275 H   0  0  0  0  0  0  0  0  0  0  0  0
  1  2  1  0
  2  3  1  0
  3  4  1  0
  4  5  1  0
  5  6  1  0
  6  7  1  0
  7  8  1  0
  8  9  2  0
  9 10  1  0
 10 11  2  0
 11 12  1  0
  6 13  1  0
 13 14  1  0
 14 15  2  0
 15 16  1  0
 16 17  2  0
 17 18  1  0
 17 19  1  0
 19 20  2  0
 20 21  1  0
 21 22  2  0
 22 23  1  0
 23 24  2  0
 12  8  1  0
 24 14  1  0
 24 19  1  0
  1 25  1  0
  1 26  1  0
  1 27  1  0
  2 28  1  0
  2 29  1  0
  3 30  1  0
  3 31  1  0
  4 32  1  0
  4 33  1  0
  5 34  1  0
  5 35  1  0
  7 36  1  0
  7 37  1  0
  9 38  1  0
 10 39  1  0
 11 40  1  0
 13 41  1  0
 13 42  1  0
 15 43  1  0
 16 44  1  0
 20 45  1  0
 21 46  1  0
 22 47  1  0
 23 48  1  0
M  CHG  2  18  -1  20   1
M  END
>  <UniqueID>  (9) 
9

>  <SMILES>  (9) 
CCCCCN(Cc1cccs1)Cc1ccc([O-])c2[nH+]cccc12

>  <Energy>  (9) 
77.64864684051966

>  <Genealogy>  (9) 
CCCCCN(Cc1cccs1)Cc1ccc([O-])c2[nH+]cccc12 (protonated)
CCCCCN(Cc1cccs1)Cc1ccc([O-])c2[nH+]cccc12 (3D coordinates assigned)
CCCCCN(Cc1cccs1)Cc1ccc([O-])c2[nH+]cccc12 (optimized conformer: 77.64864684051966 kcal/mol)

>  <smiles>  (9) 
CCCCCN(Cc1cccs1)Cc1ccc(O)c2ncccc12

>  <score_type>  (9) 
oracle

>  <origin>  (9) 
adg

>  <m_score__min__energy>  (9) 
-9.8399999999999999

>  <m_primary>  (9) 
energy

$$$$
9:0
     RDKit          3D

 50 52  0  0  0  0  0  0  0  0999 V2000
   -6.1800   25.6980  -29.4860 C   0  0  0  0  0  0  0  0  0  0  0  0
   -5.0050   25.6020  -30.4550 C   0  0  0  0  0  0  0  0  0  0  0  0
   -4.8360   24.2020  -30.9210 N   0  0  0  0  0  0  0  0  0  0  0  0
   -3.5540   23.6560  -30.4100 C   0  0  0  0  0  0  0  0  0  0  0  0
   -3.6190   22.1420  -30.2550 C   0  0  0  0  0  0  0  0  0  0  0  0
   -5.9710   23.3540  -30.4780 C   0  0  0  0  0  0  0  0  0  0  0  0
   -7.1400   23.3460  -31.4930 C   0  0  0  0  0  0  0  0  0  0  0  0
   -6.8620   22.5540  -32.7060 N   0  0  0  0  0  0  0  0  0  0  0  0
   -7.3050   21.1790  -32.5920 C   0  0  0  0  0  0  0  0  0  0  0  0
   -8.6280   20.8970  -32.2010 C   0  0  0  0  0  0  0  0  0  0  0  0
   -9.0690   19.5800  -32.0740 C   0  0  0  0  0  0  0  0  0  0  0  0
   -8.1960   18.5190  -32.3140 C   0  0  0  0  0  0  0  0  0  0  0  0
   -6.8590   18.7710  -32.6640 C   0  0  0  0  0  0  0  0  0  0  0  0
   -5.9430   17.7340  -32.8920 C   0  0  0  0  0  0  0  0  0  0  0  0
   -6.2930   16.5250  -32.8090 O   0  0  0  0  0  0  0  0  0  0  0  0
   -4.6230   18.0440  -33.2210 C   0  0  0  0  0  0  0  0  0  0  0  0
   -4.2350   19.3910  -33.3110 C   0  0  0  0  0  0  0  0  0  0  0  0
   -2.8470   19.7900  -33.6580 C   0  0  0  0  0  0  0  0  0  0  0  0
   -2.4280   21.1130  -33.4220 C   0  0  0  0  0  0  0  0  0  0  0  0
   -1.1260   21.5140  -33.7340 C   0  0  0  0  0  0  0  0  0  0  0  0
   -0.2220   20.5990  -34.2780 C   0  0  0  0  0  0  0  0  0  0  0  0
    1.4120   21.1040  -34.6690 Cl  0  0  0  0  0  0  0  0  0  0  0  0
   -0.6190   19.2780  -34.5050 C   0  0  0  0  0  0  0  0  0  0  0  0
   -1.9200   18.8720  -34.1950 C   0  0  0  0  0  0  0  0  0  0  0  0
   -5.1380   20.3470  -33.1020 O   0  0  0  0  0  0  0  0  0  0  0  0
   -6.4090   20.1060  -32.7930 C   0  0  0  0  0  0  0  0  0  0  0  0
   -5.8060   25.6674  -28.4520 H   0  0  0  0  0  0  0  0  0  0  0  0
   -6.7174   26.6430  -29.6538 H   0  0  0  0  0  0  0  0  0  0  0  0
   -6.8636   24.8527  -29.6538 H   0  0  0  0  0  0  0  0  0  0  0  0
   -5.1947   26.2527  -31.3214 H   0  0  0  0  0  0  0  0  0  0  0  0
   -4.0876   25.9211  -29.9386 H   0  0  0  0  0  0  0  0  0  0  0  0
   -2.7498   23.9095  -31.1164 H   0  0  0  0  0  0  0  0  0  0  0  0
   -3.3581   24.0978  -29.4218 H   0  0  0  0  0  0  0  0  0  0  0  0
   -3.6301   21.8830  -29.1860 H   0  0  0  0  0  0  0  0  0  0  0  0
   -4.5342   21.7634  -30.7335 H   0  0  0  0  0  0  0  0  0  0  0  0
   -2.7396   21.6863  -30.7335 H   0  0  0  0  0  0  0  0  0  0  0  0
   -5.6105   22.3229  -30.3477 H   0  0  0  0  0  0  0  0  0  0  0  0
   -6.3516   23.7730  -29.5348 H   0  0  0  0  0  0  0  0  0  0  0  0
   -8.0276   22.9248  -30.9982 H   0  0  0  0  0  0  0  0  0  0  0  0
   -7.2954   24.3863  -31.8150 H   0  0  0  0  0  0  0  0  0  0  0  0
   -7.2840   23.0340  -33.5340 H   0  0  0  0  0  0  0  0  0  0  0  0
   -5.8270   22.5440  -32.8610 H   0  0  0  0  0  0  0  0  0  0  0  0
   -9.3217   21.7250  -31.9933 H   0  0  0  0  0  0  0  0  0  0  0  0
  -10.1103   19.3770  -31.7832 H   0  0  0  0  0  0  0  0  0  0  0  0
   -8.5551   17.4828  -32.2290 H   0  0  0  0  0  0  0  0  0  0  0  0
   -3.8938   17.2419  -33.4079 H   0  0  0  0  0  0  0  0  0  0  0  0
   -3.1321   21.8381  -32.9879 H   0  0  0  0  0  0  0  0  0  0  0  0
   -0.8127   22.5524  -33.5507 H   0  0  0  0  0  0  0  0  0  0  0  0
    0.0945   18.5560  -34.9288 H   0  0  0  0  0  0  0  0  0  0  0  0
   -2.2233   17.8294  -34.3710 H   0  0  0  0  0  0  0  0  0  0  0  0
  1  2  1  0
  2  3  1  0
  3  4  1  0
  4  5  1  0
  3  6  1  0
  6  7  1  0
  7  8  1  0
  8  9  1  0
  9 10  2  0
 10 11  1  0
 11 12  2  0
 12 13  1  0
 13 14  1  0
 14 15  2  0
 14 16  1  0
 16 17  2  0
 17 18  1  0
 18 19  2  0
 19 20  1  0
 20 21  2  0
 21 22  1  0
 21 23  1  0
 23 24  2  0
 17 25  1  0
 25 26  1  0
 26  9  1  0
 26 13  2  0
 24 18  1  0
  1 27  1  0
  1 28  1  0
  1 29  1  0
  2 30  1  0
  2 31  1  0
  4 32  1  0
  4 33  1  0
  5 34  1  0
  5 35  1  0
  5 36  1  0
  6 37  1  0
  6 38  1  0
  7 39  1  0
  7 40  1  0
  8 41  1  0
  8 42  1  0
 10 43  1  0
 11 44  1  0
 12 45  1  0
 16 46  1  0
 19 47  1  0
 20 48  1  0
 23 49  1  0
 24 50  1  0
M  CHG  1   8   1
M  END
>  <UniqueID>  (10) 
10

>  <SMILES>  (10) 
CCN(CC)CC[NH2+]c1cccc2c(=O)cc(-c3ccc(Cl)cc3)oc12

>  <Energy>  (10) 
58.148124063961646

>  <Genealogy>  (10) 
CCN(CC)CC[NH2+]c1cccc2c(=O)cc(-c3ccc(Cl)cc3)oc12 (protonated)
CCN(CC)CC[NH2+]c1cccc2c(=O)cc(-c3ccc(Cl)cc3)oc12 (3D coordinates assigned)
CCN(CC)CC[NH2+]c1cccc2c(=O)cc(-c3ccc(Cl)cc3)oc12 (optimized conformer: 58.148124063961646 kcal/mol)

>  <smiles>  (10) 
CCN(CC)CCNc1cccc2c(=O)cc(-c3ccc(Cl)cc3)oc12

>  <score_type>  (10) 
oracle

>  <origin>  (10) 
adg

>  <m_score__min__energy>  (10) 
-8.4600000000000009

>  <m_primary>  (10) 
energy

$$$$
10:0
     RDKit          3D

 79 83  0  0  0  0  0  0  0  0999 V2000
    0.6220   22.9440  -35.8620 C   0  0  0  0  0  0  0  0  0  0  0  0
    0.4850   21.5960  -35.1660 C   0  0  0  0  0  0  0  0  0  0  0  0
   -0.5360   21.6760  -34.1130 N   0  0  0  0  0  0  0  0  0  0  0  0
   -0.3770   20.5950  -33.1290 C   0  0  0  0  0  0  0  0  0  0  0  0
   -1.6650   20.4150  -32.3230 C   0  0  0  0  0  0  0  0  0  0  0  0
   -2.7160   21.2910  -32.8380 N   0  0  0  0  0  0  0  0  0  0  0  0
   -4.0960   20.9130  -32.7460 C   0  0  0  0  0  0  0  0  0  0  0  0
   -4.6020   19.7770  -33.4210 C   0  0  0  0  0  0  0  0  0  0  0  0
   -3.7460   18.9420  -34.1660 C   0  0  0  0  0  0  0  0  0  0  0  0
   -4.2410   17.8100  -34.8110 C   0  0  0  0  0  0  0  0  0  0  0  0
   -5.5910   17.4860  -34.7210 C   0  0  0  0  0  0  0  0  0  0  0  0
   -6.4640   18.2990  -33.9980 C   0  0  0  0  0  0  0  0  0  0  0  0
   -6.0040   19.4710  -33.3500 C   0  0  0  0  0  0  0  0  0  0  0  0
   -6.8700   20.3050  -32.6570 N   0  0  0  0  0  0  0  0  0  0  0  0
   -8.3270   20.0720  -32.6640 C   0  0  0  0  0  0  0  0  0  0  0  0
   -6.3380   21.3500  -31.9480 C   0  0  0  0  0  0  0  0  0  0  0  0
   -7.0080   22.1850  -31.1120 N   0  0  0  0  0  0  0  0  0  0  0  0
   -6.0710   23.0200  -30.6240 C   0  0  0  0  0  0  0  0  0  0  0  0
   -6.2680   24.0420  -29.6990 C   0  0  0  0  0  0  0  0  0  0  0  0
   -5.1510   24.7850  -29.2830 C   0  0  0  0  0  0  0  0  0  0  0  0
   -3.8540   24.4880  -29.7850 C   0  0  0  0  0  0  0  0  0  0  0  0
   -2.7080   25.2010  -29.3960 O   0  0  0  0  0  0  0  0  0  0  0  0
   -1.4390   24.6270  -29.0840 C   0  0  0  0  0  0  0  0  0  0  0  0
   -1.4790   23.9800  -27.6790 C   0  0  0  0  0  0  0  0  0  0  0  0
   -1.7780   24.9010  -26.5300 N   0  0  0  0  0  0  0  0  0  0  0  0
   -3.2620   24.9550  -26.4180 C   0  0  0  0  0  0  0  0  0  0  0  0
   -1.2810   26.2830  -26.8260 C   0  0  0  0  0  0  0  0  0  0  0  0
   -1.0700   27.1130  -25.5440 C   0  0  0  0  0  0  0  0  0  0  0  0
   -0.0310   26.5200  -24.6430 N   0  0  0  0  0  0  0  0  0  0  0  0
    1.2840   27.1500  -24.9240 C   0  0  0  0  0  0  0  0  0  0  0  0
   -0.3850   26.8200  -23.2340 C   0  0  0  0  0  0  0  0  0  0  0  0
    0.0980   25.0380  -24.8230 C   0  0  0  0  0  0  0  0  0  0  0  0
   -1.2340   24.3730  -25.2330 C   0  0  0  0  0  0  0  0  0  0  0  0
   -3.6890   23.4340  -30.7030 C   0  0  0  0  0  0  0  0  0  0  0  0
   -4.8210   22.7310  -31.1230 C   0  0  0  0  0  0  0  0  0  0  0  0
   -4.9920   21.6570  -31.9830 C   0  0  0  0  0  0  0  0  0  0  0  0
    0.7029   23.7399  -35.1070 H   0  0  0  0  0  0  0  0  0  0  0  0
    1.5246   22.9420  -36.4908 H   0  0  0  0  0  0  0  0  0  0  0  0
   -0.2625   23.1236  -36.4908 H   0  0  0  0  0  0  0  0  0  0  0  0
    0.1899   20.8341  -35.9025 H   0  0  0  0  0  0  0  0  0  0  0  0
    1.4499   21.3234  -34.7136 H   0  0  0  0  0  0  0  0  0  0  0  0
   -1.4710   21.5550  -34.5720 H   0  0  0  0  0  0  0  0  0  0  0  0
   -0.1443   19.6573  -33.6549 H   0  0  0  0  0  0  0  0  0  0  0  0
    0.4412   20.8553  -32.4414 H   0  0  0  0  0  0  0  0  0  0  0  0
   -1.9962   19.3688  -32.3982 H   0  0  0  0  0  0  0  0  0  0  0  0
   -1.4674   20.6748  -31.2725 H   0  0  0  0  0  0  0  0  0  0  0  0
   -2.4820   22.2970  -32.9940 H   0  0  0  0  0  0  0  0  0  0  0  0
   -2.6759   19.1860  -34.2394 H   0  0  0  0  0  0  0  0  0  0  0  0
   -3.5617   17.1703  -35.3935 H   0  0  0  0  0  0  0  0  0  0  0  0
   -5.9719   16.5841  -35.2225 H   0  0  0  0  0  0  0  0  0  0  0  0
   -7.5272   18.0252  -33.9301 H   0  0  0  0  0  0  0  0  0  0  0  0
   -8.6939   20.0133  -31.6287 H   0  0  0  0  0  0  0  0  0  0  0  0
   -8.8285   20.9014  -33.1843 H   0  0  0  0  0  0  0  0  0  0  0  0
   -8.5448   19.1276  -33.1843 H   0  0  0  0  0  0  0  0  0  0  0  0
   -8.0160   22.1800  -30.8420 H   0  0  0  0  0  0  0  0  0  0  0  0
   -7.2712   24.2615  -29.3048 H   0  0  0  0  0  0  0  0  0  0  0  0
   -5.2808   25.6051  -28.5615 H   0  0  0  0  0  0  0  0  0  0  0  0
   -1.1937   23.8583  -29.8317 H   0  0  0  0  0  0  0  0  0  0  0  0
   -0.6740   25.4173  -29.0948 H   0  0  0  0  0  0  0  0  0  0  0  0
   -2.2528   23.1983  -27.6920 H   0  0  0  0  0  0  0  0  0  0  0  0
   -0.4598   23.6075  -27.4986 H   0  0  0  0  0  0  0  0  0  0  0  0
   -3.5494   24.9655  -25.3563 H   0  0  0  0  0  0  0  0  0  0  0  0
   -3.6337   25.8673  -26.9075 H   0  0  0  0  0  0  0  0  0  0  0  0
   -3.6990   24.0722  -26.9075 H   0  0  0  0  0  0  0  0  0  0  0  0
   -0.3228   26.2079  -27.3611 H   0  0  0  0  0  0  0  0  0  0  0  0
   -2.0416   26.7919  -27.4364 H   0  0  0  0  0  0  0  0  0  0  0  0
   -0.7534   28.1274  -25.8283 H   0  0  0  0  0  0  0  0  0  0  0  0
   -2.0222   27.1267  -24.9935 H   0  0  0  0  0  0  0  0  0  0  0  0
    1.7857   27.3904  -23.9750 H   0  0  0  0  0  0  0  0  0  0  0  0
    1.9083   26.4532  -25.5026 H   0  0  0  0  0  0  0  0  0  0  0  0
    1.1322   28.0732  -25.5026 H   0  0  0  0  0  0  0  0  0  0  0  0
    0.2790   26.2573  -22.5613 H   0  0  0  0  0  0  0  0  0  0  0  0
   -0.2676   27.8978  -23.0479 H   0  0  0  0  0  0  0  0  0  0  0  0
   -1.4289   26.5274  -23.0479 H   0  0  0  0  0  0  0  0  0  0  0  0
    0.8457   24.8416  -25.6056 H   0  0  0  0  0  0  0  0  0  0  0  0
    0.4014   24.6095  -23.8564 H   0  0  0  0  0  0  0  0  0  0  0  0
   -1.0681   23.2906  -25.3370 H   0  0  0  0  0  0  0  0  0  0  0  0
   -1.9712   24.6016  -24.4492 H   0  0  0  0  0  0  0  0  0  0  0  0
   -2.6906   23.1695  -31.0815 H   0  0  0  0  0  0  0  0  0  0  0  0
  1  2  1  0
  2  3  1  0
  3  4  1  0
  4  5  1  0
  5  6  1  0
  6  7  1  0
  7  8  2  0
  8  9  1  0
  9 10  2  0
 10 11  1  0
 11 12  2  0
 12 13  1  0
 13 14  2  0
 14 15  1  0
 14 16  1  0
 16 17  1  0
 17 18  1  0
 18 19  2  0
 19 20  1  0
 20 21  2  0
 21 22  1  0
 22 23  1  0
 23 24  1  0
 24 25  1  0
 25 26  1  0
 25 27  1  0
 27 28  1  0
 28 29  1  0
 29 30  1  0
 29 31  1  0
 29 32  1  0
 32 33  1  0
 21 34  1  0
 34 35  2  0
 35 36  1  0
 36  7  1  0
 13  8  1  0
 36 16  2  0
 35 18  1  0
 33 25  1  0
  1 37  1  0
  1 38  1  0
  1 39  1  0
  2 40  1  0
  2 41  1  0
  3 42  1  0
  4 43  1  0
  4 44  1  0
  5 45  1  0
  5 46  1  0
  6 47  1  0
  9 48  1  0
 10 49  1  0
 11 50  1  0
 12 51  1  0
 15 52  1  0
 15 53  1  0
 15 54  1  0
 17 55  1  0
 19 56  1  0
 20 57  1  0
 23 58  1  0
 23 59  1  0
 24 60  1  0
 24 61  1  0
 26 62  1  0
 26 63  1  0
 26 64  1  0
 27 65  1  0
 27 66  1  0
 28 67  1  0
 28 68  1  0
 30 69  1  0
 30 70  1  0
 30 71  1  0
 31 72  1  0
 31 73  1  0
 31 74  1  0
 32 75  1  0
 32 76  1  0
 33 77  1  0
 33 78  1  0
 34 79  1  0
M  CHG  3  14   1  25   1  29   1
M  END
>  <UniqueID>  (11) 
11

>  <SMILES>  (11) 
CCNCCNc1c2ccccc2[n+](C)c2[nH]c3ccc(OCC[N+]4(C)CC[N+](C)(C)CC4)cc3c12

>  <Energy>  (11) 
161.40009316439762

>  <Genealogy>  (11) 
CCNCCNc1c2ccccc2[n+](C)c2[nH]c3ccc(OCC[N+]4(C)CC[N+](C)(C)CC4)cc3c12 (3D coordinates assigned)
CCNCCNc1c2ccccc2[n+](C)c2[nH]c3ccc(OCC[N+]4(C)CC[N+](C)(C)CC4)cc3c12 (nonaromatic ring conformer: 161.40009316439762 kcal/mol)

>  <smiles>  (11) 
CCNCCNc1c2ccccc2[n+](C)c2[nH]c3ccc(OCC[N+]4(C)CC[N+](C)(C)CC4)cc3c12

>  <score_type>  (11) 
oracle

>  <origin>  (11) 
adg

>  <m_score__min__energy>  (11) 
-9.7300000000000004

>  <m_primary>  (11) 
energy

$$$$
11:0
     RDKit          3D

 65 67  0  0  0  0  0  0  0  0999 V2000
   -3.3190   24.1700  -27.9780 C   0  0  0  0  0  0  0  0  0  0  0  0
   -2.9660   24.9020  -29.2700 C   0  0  0  0  0  0  0  0  0  0  0  0
   -3.9380   24.5650  -30.3350 N   0  0  0  0  0  0  0  0  0  0  0  0
   -4.9880   25.6040  -30.4820 C   0  0  0  0  0  0  0  0  0  0  0  0
   -6.3000   25.2800  -29.7550 C   0  0  0  0  0  0  0  0  0  0  0  0
   -4.4720   23.1930  -30.1680 C   0  0  0  0  0  0  0  0  0  0  0  0
   -3.6760   22.1680  -30.9870 C   0  0  0  0  0  0  0  0  0  0  0  0
   -4.2020   22.0570  -32.3480 N   0  0  0  0  0  0  0  0  0  0  0  0
   -5.1980   21.0750  -32.6790 C   0  0  0  0  0  0  0  0  0  0  0  0
   -6.5490   21.3490  -32.4100 C   0  0  0  0  0  0  0  0  0  0  0  0
   -6.9730   22.6600  -32.1050 C   0  0  0  0  0  0  0  0  0  0  0  0
   -8.3190   22.9370  -31.8830 C   0  0  0  0  0  0  0  0  0  0  0  0
   -9.2630   21.9210  -31.9770 C   0  0  0  0  0  0  0  0  0  0  0  0
   -8.8630   20.6160  -32.2640 C   0  0  0  0  0  0  0  0  0  0  0  0
   -7.4950   20.2950  -32.4500 C   0  0  0  0  0  0  0  0  0  0  0  0
   -7.0720   18.9980  -32.6600 N   0  0  0  0  0  0  0  0  0  0  0  0
   -7.9800   17.8690  -32.3550 C   0  0  0  0  0  0  0  0  0  0  0  0
   -5.7940   18.7550  -33.1330 C   0  0  0  0  0  0  0  0  0  0  0  0
   -5.4140   17.4700  -33.5910 C   0  0  0  0  0  0  0  0  0  0  0  0
   -4.1200   17.2140  -34.0280 C   0  0  0  0  0  0  0  0  0  0  0  0
   -3.1830   18.2350  -34.0790 C   0  0  0  0  0  0  0  0  0  0  0  0
   -3.5250   19.5380  -33.6930 C   0  0  0  0  0  0  0  0  0  0  0  0
   -2.5990   20.6020  -33.9780 N   0  0  0  0  0  0  0  0  0  0  0  0
   -1.5690   21.0330  -33.0310 C   0  0  0  0  0  0  0  0  0  0  0  0
   -0.2030   21.1390  -33.7240 C   0  0  0  0  0  0  0  0  0  0  0  0
   -0.3400   21.1260  -35.1970 N   0  0  0  0  0  0  0  0  0  0  0  0
    0.2610   19.9110  -35.7770 C   0  0  0  0  0  0  0  0  0  0  0  0
    0.3040   22.3150  -35.7780 C   0  0  0  0  0  0  0  0  0  0  0  0
   -4.8290   19.8040  -33.1770 C   0  0  0  0  0  0  0  0  0  0  0  0
   -3.0225   24.7849  -27.1154 H   0  0  0  0  0  0  0  0  0  0  0  0
   -4.4035   23.9889  -27.9437 H   0  0  0  0  0  0  0  0  0  0  0  0
   -2.7855   23.2087  -27.9437 H   0  0  0  0  0  0  0  0  0  0  0  0
   -2.9873   25.9869  -29.0896 H   0  0  0  0  0  0  0  0  0  0  0  0
   -1.9609   24.5928  -29.5927 H   0  0  0  0  0  0  0  0  0  0  0  0
   -4.5957   26.5500  -30.0805 H   0  0  0  0  0  0  0  0  0  0  0  0
   -5.2269   25.6623  -31.5542 H   0  0  0  0  0  0  0  0  0  0  0  0
   -6.1365   25.3204  -28.6680 H   0  0  0  0  0  0  0  0  0  0  0  0
   -7.0673   26.0156  -30.0379 H   0  0  0  0  0  0  0  0  0  0  0  0
   -6.6367   24.2717  -30.0379 H   0  0  0  0  0  0  0  0  0  0  0  0
   -4.4191   22.9173  -29.1044 H   0  0  0  0  0  0  0  0  0  0  0  0
   -5.5116   23.1847  -30.5273 H   0  0  0  0  0  0  0  0  0  0  0  0
   -2.6236   22.4848  -31.0335 H   0  0  0  0  0  0  0  0  0  0  0  0
   -3.7636   21.1866  -30.4979 H   0  0  0  0  0  0  0  0  0  0  0  0
   -4.0180   22.8350  -33.0180 H   0  0  0  0  0  0  0  0  0  0  0  0
   -6.2325   23.4710  -32.0421 H   0  0  0  0  0  0  0  0  0  0  0  0
   -8.6357   23.9603  -31.6331 H   0  0  0  0  0  0  0  0  0  0  0  0
  -10.3287   22.1469  -31.8246 H   0  0  0  0  0  0  0  0  0  0  0  0
   -9.6212   19.8234  -32.3473 H   0  0  0  0  0  0  0  0  0  0  0  0
   -8.0710   17.7559  -31.2646 H   0  0  0  0  0  0  0  0  0  0  0  0
   -8.9717   18.0690  -32.7869 H   0  0  0  0  0  0  0  0  0  0  0  0
   -7.5719   16.9433  -32.7869 H   0  0  0  0  0  0  0  0  0  0  0  0
   -6.1572   16.6591  -33.6010 H   0  0  0  0  0  0  0  0  0  0  0  0
   -3.8375   16.1962  -34.3351 H   0  0  0  0  0  0  0  0  0  0  0  0
   -2.1615   18.0200  -34.4258 H   0  0  0  0  0  0  0  0  0  0  0  0
   -2.4870   20.8720  -34.9790 H   0  0  0  0  0  0  0  0  0  0  0  0
   -1.8435   22.0166  -32.6222 H   0  0  0  0  0  0  0  0  0  0  0  0
   -1.4985   20.2895  -32.2234 H   0  0  0  0  0  0  0  0  0  0  0  0
    0.2810   22.0783  -33.4183 H   0  0  0  0  0  0  0  0  0  0  0  0
    0.4035   20.2710  -33.4261 H   0  0  0  0  0  0  0  0  0  0  0  0
    0.5913   19.2432  -34.9678 H   0  0  0  0  0  0  0  0  0  0  0  0
   -0.4850   19.3935  -36.3980 H   0  0  0  0  0  0  0  0  0  0  0  0
    1.1251   20.1899  -36.3980 H   0  0  0  0  0  0  0  0  0  0  0  0
    0.6594   22.9712  -34.9699 H   0  0  0  0  0  0  0  0  0  0  0  0
    1.1567   22.0035  -36.3992 H   0  0  0  0  0  0  0  0  0  0  0  0
   -0.4228   22.8590  -36.3992 H   0  0  0  0  0  0  0  0  0  0  0  0
  1  2  1  0
  2  3  1  0
  3  4  1  0
  4  5  1  0
  3  6  1  0
  6  7  1  0
  7  8  1  0
  8  9  1  0
  9 10  2  0
 10 11  1  0
 11 12  2  0
 12 13  1  0
 13 14  2  0
 14 15  1  0
 15 16  2  0
 16 17  1  0
 16 18  1  0
 18 19  2  0
 19 20  1  0
 20 21  2  0
 21 22  1  0
 22 23  1  0
 23 24  1  0
 24 25  1  0
 25 26  1  0
 26 27  1  0
 26 28  1  0
 22 29  2  0
 29  9  1  0
 15 10  1  0
 29 18  1  0
  1 30  1  0
  1 31  1  0
  1 32  1  0
  2 33  1  0
  2 34  1  0
  4 35  1  0
  4 36  1  0
  5 37  1  0
  5 38  1  0
  5 39  1  0
  6 40  1  0
  6 41  1  0
  7 42  1  0
  7 43  1  0
  8 44  1  0
 11 45  1  0
 12 46  1  0
 13 47  1  0
 14 48  1  0
 17 49  1  0
 17 50  1  0
 17 51  1  0
 19 52  1  0
 20 53  1  0
 21 54  1  0
 23 55  1  0
 24 56  1  0
 24 57  1  0
 25 58  1  0
 25 59  1  0
 27 60  1  0
 27 61  1  0
 27 62  1  0
 28 63  1  0
 28 64  1  0
 28 65  1  0
M  CHG  1  16   1
M  END
>  <UniqueID>  (12) 
12

>  <SMILES>  (12) 
CCN(CC)CCNc1c2ccccc2[n+](C)c2cccc(NCCN(C)C)c12

>  <Energy>  (12) 
96.37138121680468

>  <Genealogy>  (12) 
CCN(CC)CCNc1c2ccccc2[n+](C)c2cccc(NCCN(C)C)c12 (3D coordinates assigned)
CCN(CC)CCNc1c2ccccc2[n+](C)c2cccc(NCCN(C)C)c12 (optimized conformer: 96.37138121680468 kcal/mol)

>  <smiles>  (12) 
CCN(CC)CCNc1c2ccccc2[n+](C)c2cccc(NCCN(C)C)c12

>  <score_type>  (12) 
oracle

>  <origin>  (12) 
adg

>  <m_score__min__energy>  (12) 
-8.6899999999999995

>  <m_primary>  (12) 
energy

$$$$
12:0
     RDKit          3D

 44 46  0  0  0  0  0  0  0  0999 V2000
   -3.5940   18.4990  -34.1220 C   0  0  0  0  0  0  0  0  0  0  0  0
   -4.9330   18.8360  -33.5400 C   0  0  0  0  0  0  0  0  0  0  0  0
   -5.3850   20.1220  -33.2660 C   0  0  0  0  0  0  0  0  0  0  0  0
   -4.6730   21.2980  -33.5080 O   0  0  0  0  0  0  0  0  0  0  0  0
   -3.5310   21.6820  -32.7500 C   0  0  0  0  0  0  0  0  0  0  0  0
   -3.9320   22.0670  -31.3150 C   0  0  0  0  0  0  0  0  0  0  0  0
   -4.5840   23.3890  -31.1830 N   0  0  0  0  0  0  0  0  0  0  0  0
   -4.5530   23.9520  -29.8140 C   0  0  0  0  0  0  0  0  0  0  0  0
   -5.3530   25.2550  -29.7460 C   0  0  0  0  0  0  0  0  0  0  0  0
   -6.8360   25.0210  -30.0980 C   0  0  0  0  0  0  0  0  0  0  0  0
   -7.0570   23.7810  -30.9820 C   0  0  0  0  0  0  0  0  0  0  0  0
   -5.8650   23.5410  -31.9200 C   0  0  0  0  0  0  0  0  0  0  0  0
   -6.6580   19.9850  -32.7410 C   0  0  0  0  0  0  0  0  0  0  0  0
   -7.6160   20.9290  -32.3640 C   0  0  0  0  0  0  0  0  0  0  0  0
   -8.8500   20.4580  -31.8810 C   0  0  0  0  0  0  0  0  0  0  0  0
   -9.1060   19.0740  -31.8010 C   0  0  0  0  0  0  0  0  0  0  0  0
   -8.1370   18.1440  -32.2170 C   0  0  0  0  0  0  0  0  0  0  0  0
   -6.9180   18.6340  -32.6970 C   0  0  0  0  0  0  0  0  0  0  0  0
   -5.8790   17.9250  -33.1910 N   0  0  0  0  0  0  0  0  0  0  0  0
   -5.7800   16.4670  -33.2700 C   0  0  0  0  0  0  0  0  0  0  0  0
   -2.8757   18.3182  -33.3088 H   0  0  0  0  0  0  0  0  0  0  0  0
   -3.6809   17.5947  -34.7423 H   0  0  0  0  0  0  0  0  0  0  0  0
   -3.2424   19.3367  -34.7423 H   0  0  0  0  0  0  0  0  0  0  0  0
   -2.8230   20.8409  -32.7133 H   0  0  0  0  0  0  0  0  0  0  0  0
   -3.0648   22.5540  -33.2319 H   0  0  0  0  0  0  0  0  0  0  0  0
   -4.6286   21.3035  -30.9385 H   0  0  0  0  0  0  0  0  0  0  0  0
   -2.9968   22.1257  -30.7389 H   0  0  0  0  0  0  0  0  0  0  0  0
   -4.9890   23.2238  -29.1143 H   0  0  0  0  0  0  0  0  0  0  0  0
   -3.5083   24.1642  -29.5427 H   0  0  0  0  0  0  0  0  0  0  0  0
   -5.2868   25.6633  -28.7268 H   0  0  0  0  0  0  0  0  0  0  0  0
   -4.9300   25.9606  -30.4762 H   0  0  0  0  0  0  0  0  0  0  0  0
   -7.4014   24.8903  -29.1635 H   0  0  0  0  0  0  0  0  0  0  0  0
   -7.1804   25.8964  -30.6681 H   0  0  0  0  0  0  0  0  0  0  0  0
   -7.1872   22.9000  -30.3364 H   0  0  0  0  0  0  0  0  0  0  0  0
   -7.9529   23.9502  -31.5975 H   0  0  0  0  0  0  0  0  0  0  0  0
   -6.0502   22.6240  -32.4986 H   0  0  0  0  0  0  0  0  0  0  0  0
   -5.7721   24.4200  -32.5748 H   0  0  0  0  0  0  0  0  0  0  0  0
   -7.4117   22.0070  -32.4424 H   0  0  0  0  0  0  0  0  0  0  0  0
   -9.6213   21.1750  -31.5632 H   0  0  0  0  0  0  0  0  0  0  0  0
  -10.0710   18.7190  -31.4102 H   0  0  0  0  0  0  0  0  0  0  0  0
   -8.3319   17.0626  -32.1664 H   0  0  0  0  0  0  0  0  0  0  0  0
   -5.7514   16.0459  -32.2542 H   0  0  0  0  0  0  0  0  0  0  0  0
   -6.6532   16.0688  -33.8076 H   0  0  0  0  0  0  0  0  0  0  0  0
   -4.8610   16.1905  -33.8076 H   0  0  0  0  0  0  0  0  0  0  0  0
  1  2  1  0
  2  3  2  0
  3  4  1  0
  4  5  1  0
  5  6  1  0
  6  7  1  0
  7  8  1  0
  8  9  1  0
  9 10  1  0
 10 11  1  0
 11 12  1  0
  3 13  1  0
 13 14  2  0
 14 15  1  0
 15 16  2  0
 16 17  1  0
 17 18  2  0
 18 19  1  0
 19 20  1  0
 19  2  1  0
 12  7  1  0
 18 13  1  0
  1 21  1  0
  1 22  1  0
  1 23  1  0
  5 24  1  0
  5 25  1  0
  6 26  1  0
  6 27  1  0
  8 28  1  0
  8 29  1  0
  9 30  1  0
  9 31  1  0
 10 32  1  0
 10 33  1  0
 11 34  1  0
 11 35  1  0
 12 36  1  0
 12 37  1  0
 14 38  1  0
 15 39  1  0
 16 40  1  0
 17 41  1  0
 20 42  1  0
 20 43  1  0
 20 44  1  0
M  END
>  <UniqueID>  (13) 
13

>  <SMILES>  (13) 
Cc1c(OCCN2CCCCC2)c2ccccc2n1C

>  <Energy>  (13) 
91.66880397324378

>  <Genealogy>  (13) 
Cc1c(OCCN2CCCCC2)c2ccccc2n1C (3D coordinates assigned)
Cc1c(OCCN2CCCCC2)c2ccccc2n1C (nonaromatic ring conformer: 91.66880397324378 kcal/mol)

>  <smiles>  (13) 
Cc1c(OCCN2CCCCC2)c2ccccc2n1C

>  <score_type>  (13) 
oracle

>  <origin>  (13) 
adg

>  <m_score__min__energy>  (13) 
-7.7800000000000002

>  <m_primary>  (13) 
energy

$$$$
13:0
     RDKit          3D

 56 59  0  0  0  0  0  0  0  0999 V2000
   -6.9300   17.8570  -32.8830 C   0  0  0  0  0  0  0  0  0  0  0  0
   -6.6130   19.2940  -32.8570 N   0  0  0  0  0  0  0  0  0  0  0  0
   -5.3330   19.7190  -33.1110 C   0  0  0  0  0  0  0  0  0  0  0  0
   -4.9230   21.0060  -32.8090 C   0  0  0  0  0  0  0  0  0  0  0  0
   -5.8210   21.9670  -32.3550 C   0  0  0  0  0  0  0  0  0  0  0  0
   -5.3780   23.3020  -32.0710 N   0  0  0  0  0  0  0  0  0  0  0  0
   -5.9760   24.0820  -30.9900 C   0  0  0  0  0  0  0  0  0  0  0  0
   -5.1030   25.2960  -30.6670 C   0  0  0  0  0  0  0  0  0  0  0  0
   -3.7090   24.8820  -30.4590 N   0  0  0  0  0  0  0  0  0  0  0  0
   -3.4250   24.6350  -29.0380 C   0  0  0  0  0  0  0  0  0  0  0  0
   -2.4690   23.4370  -28.8740 C   0  0  0  0  0  0  0  0  0  0  0  0
   -2.4410   22.5460  -30.0600 N   0  0  0  0  0  0  0  0  0  0  0  0
   -3.1800   21.3060  -29.7680 C   0  0  0  0  0  0  0  0  0  0  0  0
   -1.0620   22.2130  -30.4670 C   0  0  0  0  0  0  0  0  0  0  0  0
   -7.1770   21.5890  -32.2240 C   0  0  0  0  0  0  0  0  0  0  0  0
   -8.1550   22.5290  -31.8390 C   0  0  0  0  0  0  0  0  0  0  0  0
   -9.4960   22.1660  -31.7580 C   0  0  0  0  0  0  0  0  0  0  0  0
   -9.8910   20.8690  -32.0720 C   0  0  0  0  0  0  0  0  0  0  0  0
   -8.9450   19.9170  -32.4510 C   0  0  0  0  0  0  0  0  0  0  0  0
   -7.5670   20.2390  -32.5110 C   0  0  0  0  0  0  0  0  0  0  0  0
   -3.4780   21.0930  -33.0130 C   0  0  0  0  0  0  0  0  0  0  0  0
   -2.7350   22.0800  -32.7710 O   0  0  0  0  0  0  0  0  0  0  0  0
   -3.0490   19.8010  -33.5260 C   0  0  0  0  0  0  0  0  0  0  0  0
   -1.7900   19.4110  -33.9770 C   0  0  0  0  0  0  0  0  0  0  0  0
   -1.6570   18.1400  -34.5540 C   0  0  0  0  0  0  0  0  0  0  0  0
   -2.7800   17.3050  -34.7010 C   0  0  0  0  0  0  0  0  0  0  0  0
   -4.0450   17.7240  -34.2520 C   0  0  0  0  0  0  0  0  0  0  0  0
   -4.1550   18.9690  -33.6150 C   0  0  0  0  0  0  0  0  0  0  0  0
   -7.0129   17.4811  -31.8525 H   0  0  0  0  0  0  0  0  0  0  0  0
   -7.8841   17.7014  -33.4079 H   0  0  0  0  0  0  0  0  0  0  0  0
   -6.1299   17.3145  -33.4079 H   0  0  0  0  0  0  0  0  0  0  0  0
   -4.4500   23.6090  -32.4390 H   0  0  0  0  0  0  0  0  0  0  0  0
   -6.9745   24.4247  -31.2990 H   0  0  0  0  0  0  0  0  0  0  0  0
   -6.0560   23.4495  -30.0936 H   0  0  0  0  0  0  0  0  0  0  0  0
   -5.1487   26.0085  -31.5038 H   0  0  0  0  0  0  0  0  0  0  0  0
   -5.4761   25.7698  -29.7471 H   0  0  0  0  0  0  0  0  0  0  0  0
   -3.0900   25.6680  -30.7740 H   0  0  0  0  0  0  0  0  0  0  0  0
   -2.9593   25.5310  -28.6017 H   0  0  0  0  0  0  0  0  0  0  0  0
   -4.3698   24.4068  -28.5229 H   0  0  0  0  0  0  0  0  0  0  0  0
   -1.4529   23.8214  -28.7013 H   0  0  0  0  0  0  0  0  0  0  0  0
   -2.8345   22.8405  -28.0251 H   0  0  0  0  0  0  0  0  0  0  0  0
   -2.9210   23.0210  -30.8620 H   0  0  0  0  0  0  0  0  0  0  0  0
   -3.2587   21.1739  -28.6788 H   0  0  0  0  0  0  0  0  0  0  0  0
   -4.1881   21.3688  -30.2036 H   0  0  0  0  0  0  0  0  0  0  0  0
   -2.6451   20.4492  -30.2036 H   0  0  0  0  0  0  0  0  0  0  0  0
   -0.4414   22.0631  -29.5712 H   0  0  0  0  0  0  0  0  0  0  0  0
   -1.0692   21.2908  -31.0666 H   0  0  0  0  0  0  0  0  0  0  0  0
   -0.6476   23.0369  -31.0666 H   0  0  0  0  0  0  0  0  0  0  0  0
   -7.8548   23.5600  -31.6002 H   0  0  0  0  0  0  0  0  0  0  0  0
  -10.2464   22.9068  -31.4447 H   0  0  0  0  0  0  0  0  0  0  0  0
  -10.9547   20.5934  -32.0210 H   0  0  0  0  0  0  0  0  0  0  0  0
   -9.2744   18.8993  -32.7076 H   0  0  0  0  0  0  0  0  0  0  0  0
   -0.9235   20.0821  -33.8830 H   0  0  0  0  0  0  0  0  0  0  0  0
   -0.6696   17.7938  -34.8935 H   0  0  0  0  0  0  0  0  0  0  0  0
   -2.6675   16.3168  -35.1708 H   0  0  0  0  0  0  0  0  0  0  0  0
   -4.9307   17.0881  -34.3974 H   0  0  0  0  0  0  0  0  0  0  0  0
  1  2  1  0
  2  3  2  0
  3  4  1  0
  4  5  2  0
  5  6  1  0
  6  7  1  0
  7  8  1  0
  8  9  1  0
  9 10  1  0
 10 11  1  0
 11 12  1  0
 12 13  1  0
 12 14  1  0
  5 15  1  0
 15 16  2  0
 16 17  1  0
 17 18  2  0
 18 19  1  0
 19 20  2  0
  4 21  1  0
 21 22  2  0
 21 23  1  0
 23 24  2  0
 24 25  1  0
 25 26  2  0
 26 27  1  0
 27 28  2  0
 20  2  1  0
 28 23  1  0
 28  3  1  0
 20 15  1  0
  1 29  1  0
  1 30  1  0
  1 31  1  0
  6 32  1  0
  7 33  1  0
  7 34  1  0
  8 35  1  0
  8 36  1  0
  9 37  1  0
 10 38  1  0
 10 39  1  0
 11 40  1  0
 11 41  1  0
 12 42  1  0
 13 43  1  0
 13 44  1  0
 13 45  1  0
 14 46  1  0
 14 47  1  0
 14 48  1  0
 16 49  1  0
 17 50  1  0
 18 51  1  0
 19 52  1  0
 24 53  1  0
 25 54  1  0
 26 55  1  0
 27 56  1  0
M  CHG  2   2   1  12   1
M  END
>  <UniqueID>  (14) 
14

>  <SMILES>  (14) 
C[n+]1c2c(c(NCCNCC[NH+](C)C)c3ccccc31)C(=O)c1ccccc1-2

>  <Energy>  (14) 
110.79268278260861

>  <Genealogy>  (14) 
C[n+]1c2c(c(NCCNCC[NH+](C)C)c3ccccc31)C(=O)c1ccccc1-2 (protonated)
C[n+]1c2c(c(NCCNCC[NH+](C)C)c3ccccc31)C(=O)c1ccccc1-2 (3D coordinates assigned)
C[n+]1c2c(c(NCCNCC[NH+](C)C)c3ccccc31)C(=O)c1ccccc1-2 (nonaromatic ring conformer: 110.79268278260861 kcal/mol)

>  <smiles>  (14) 
CN(C)CCNCCNc1c2c([n+](C)c3ccccc13)-c1ccccc1C2=O

>  <score_type>  (14) 
oracle

>  <origin>  (14) 
adg

>  <m_score__min__energy>  (14) 
-7.6900000000000004

>  <m_primary>  (14) 
energy

$$$$
14:0
     RDKit          3D

 46 48  0  0  0  0  0  0  0  0999 V2000
   -5.1240   19.4130  -33.8240 C   0  0  0  0  0  0  0  0  0  0  0  0
   -5.7730   18.1640  -33.2190 C   0  0  0  0  0  0  0  0  0  0  0  0
   -7.2250   18.1050  -33.4690 N   0  0  0  0  0  0  0  0  0  0  0  0
   -7.9870   17.7910  -32.2470 C   0  0  0  0  0  0  0  0  0  0  0  0
   -9.1170   18.7990  -32.0220 C   0  0  0  0  0  0  0  0  0  0  0  0
   -8.9840   19.8730  -32.9320 O   0  0  0  0  0  0  0  0  0  0  0  0
   -9.3320   21.0940  -32.3070 C   0  0  0  0  0  0  0  0  0  0  0  0
   -8.1220   21.7230  -31.6710 C   0  0  0  0  0  0  0  0  0  0  0  0
   -8.2010   22.2890  -30.3900 C   0  0  0  0  0  0  0  0  0  0  0  0
   -7.0680   22.8500  -29.7950 C   0  0  0  0  0  0  0  0  0  0  0  0
   -5.8340   22.8460  -30.4680 C   0  0  0  0  0  0  0  0  0  0  0  0
   -4.6290   23.4490  -29.8430 C   0  0  0  0  0  0  0  0  0  0  0  0
   -3.9590   22.7710  -28.8150 C   0  0  0  0  0  0  0  0  0  0  0  0
   -2.8210   23.3360  -28.2360 C   0  0  0  0  0  0  0  0  0  0  0  0
   -2.1180   22.6850  -27.2120 C   0  0  0  0  0  0  0  0  0  0  0  0
   -0.9810   23.2820  -26.6580 C   0  0  0  0  0  0  0  0  0  0  0  0
   -0.5430   24.5270  -27.1250 C   0  0  0  0  0  0  0  0  0  0  0  0
   -1.2400   25.1800  -28.1450 C   0  0  0  0  0  0  0  0  0  0  0  0
   -2.3790   24.5900  -28.7050 C   0  0  0  0  0  0  0  0  0  0  0  0
   -3.0400   25.2140  -29.6750 O   0  0  0  0  0  0  0  0  0  0  0  0
   -4.1280   24.7050  -30.2480 C   0  0  0  0  0  0  0  0  0  0  0  0
   -4.7120   25.3710  -31.1440 O   0  0  0  0  0  0  0  0  0  0  0  0
   -5.7580   22.2800  -31.7510 C   0  0  0  0  0  0  0  0  0  0  0  0
   -6.8920   21.7170  -32.3450 C   0  0  0  0  0  0  0  0  0  0  0  0
   -4.7798   20.0753  -33.0160 H   0  0  0  0  0  0  0  0  0  0  0  0
   -4.2661   19.1161  -34.4452 H   0  0  0  0  0  0  0  0  0  0  0  0
   -5.8601   19.9443  -34.4452 H   0  0  0  0  0  0  0  0  0  0  0  0
   -5.3025   17.2730  -33.6603 H   0  0  0  0  0  0  0  0  0  0  0  0
   -5.6226   18.2032  -32.1300 H   0  0  0  0  0  0  0  0  0  0  0  0
   -7.5240   19.0430  -33.8230 H   0  0  0  0  0  0  0  0  0  0  0  0
   -7.4310   17.3960  -34.2110 H   0  0  0  0  0  0  0  0  0  0  0  0
   -8.4190   16.7839  -32.3429 H   0  0  0  0  0  0  0  0  0  0  0  0
   -7.3016   17.8402  -31.3881 H   0  0  0  0  0  0  0  0  0  0  0  0
  -10.0862   18.3034  -32.1800 H   0  0  0  0  0  0  0  0  0  0  0  0
   -9.0631   19.1839  -30.9929 H   0  0  0  0  0  0  0  0  0  0  0  0
   -9.7441   21.7818  -33.0601 H   0  0  0  0  0  0  0  0  0  0  0  0
  -10.0810   20.8939  -31.5267 H   0  0  0  0  0  0  0  0  0  0  0  0
   -9.1599   22.2912  -29.8510 H   0  0  0  0  0  0  0  0  0  0  0  0
   -7.1423   23.2978  -28.7930 H   0  0  0  0  0  0  0  0  0  0  0  0
   -4.3291   21.7959  -28.4653 H   0  0  0  0  0  0  0  0  0  0  0  0
   -2.4603   21.7062  -26.8450 H   0  0  0  0  0  0  0  0  0  0  0  0
   -0.4299   22.7724  -25.8539 H   0  0  0  0  0  0  0  0  0  0  0  0
    0.3525   24.9926  -26.6877 H   0  0  0  0  0  0  0  0  0  0  0  0
   -0.8932   26.1587  -28.5082 H   0  0  0  0  0  0  0  0  0  0  0  0
   -4.8003   22.2795  -32.2922 H   0  0  0  0  0  0  0  0  0  0  0  0
   -6.8189   21.2671  -33.3461 H   0  0  0  0  0  0  0  0  0  0  0  0
  1  2  1  0
  2  3  1  0
  3  4  1  0
  4  5  1  0
  5  6  1  0
  6  7  1  0
  7  8  1  0
  8  9  2  0
  9 10  1  0
 10 11  2  0
 11 12  1  0
 12 13  2  0
 13 14  1  0
 14 15  2  0
 15 16  1  0
 16 17  2  0
 17 18  1  0
 18 19  2  0
 19 20  1  0
 20 21  1  0
 21 22  2  0
 11 23  1  0
 23 24  2  0
 24  8  1  0
 21 12  1  0
 19 14  1  0
  1 25  1  0
  1 26  1  0
  1 27  1  0
  2 28  1  0
  2 29  1  0
  3 30  1  0
  3 31  1  0
  4 32  1  0
  4 33  1  0
  5 34  1  0
  5 35  1  0
  7 36  1  0
  7 37  1  0
  9 38  1  0
 10 39  1  0
 13 40  1  0
 15 41  1  0
 16 42  1  0
 17 43  1  0
 18 44  1  0
 23 45  1  0
 24 46  1  0
M  CHG  1   3   1
M  END
>  <UniqueID>  (15) 
15

>  <SMILES>  (15) 
CC[NH2+]CCOCc1ccc(-c2cc3ccccc3oc2=O)cc1

>  <Energy>  (15) 
56.42326456559938

>  <Genealogy>  (15) 
CC[NH2+]CCOCc1ccc(-c2cc3ccccc3oc2=O)cc1 (protonated)
CC[NH2+]CCOCc1ccc(-c2cc3ccccc3oc2=O)cc1 (3D coordinates assigned)
CC[NH2+]CCOCc1ccc(-c2cc3ccccc3oc2=O)cc1 (optimized conformer: 56.42326456559938 kcal/mol)

>  <smiles>  (15) 
CCNCCOCc1ccc(-c2cc3ccccc3oc2=O)cc1

>  <score_type>  (15) 
oracle

>  <origin>  (15) 
adg

>  <m_score__min__energy>  (15) 
-8.1500000000000004

>  <m_primary>  (15) 
energy

$$$$
15:0
     RDKit          3D

 48 48  0  0  0  0  0  0  0  0999 V2000
   -9.1231   18.4541  -31.5175 H   0  0  0  0  0  0  0  0  0  0  0  0
   -8.2250   18.8250  -32.0330 C   0  0  0  0  0  0  0  0  0  0  0  0
   -7.0020   18.0080  -32.0150 C   0  0  0  0  0  0  0  0  0  0  0  0
   -6.0890   18.2910  -31.1940 O   0  0  0  0  0  0  0  0  0  0  0  0
   -6.8580   16.9300  -32.9000 O   0  0  0  0  0  0  0  0  0  0  0  0
   -6.4930   17.0690  -34.2730 C   0  0  0  0  0  0  0  0  0  0  0  0
   -7.1500   17.8124  -34.7480 H   0  0  0  0  0  0  0  0  0  0  0  0
   -6.6009   16.0929  -34.7686 H   0  0  0  0  0  0  0  0  0  0  0  0
   -5.0310   17.5310  -34.4020 C   0  0  0  0  0  0  0  0  0  0  0  0
   -5.0195   18.6216  -34.5451 H   0  0  0  0  0  0  0  0  0  0  0  0
   -4.5927   16.9992  -35.2594 H   0  0  0  0  0  0  0  0  0  0  0  0
   -4.2080   17.2010  -33.2060 N   0  0  0  0  0  0  0  0  0  0  0  0
   -4.7990   17.3000  -32.3480 H   0  0  0  0  0  0  0  0  0  0  0  0
   -3.0550   18.1350  -33.0980 C   0  0  0  0  0  0  0  0  0  0  0  0
   -2.1728   17.6626  -33.5548 H   0  0  0  0  0  0  0  0  0  0  0  0
   -2.8902   18.3450  -32.0309 H   0  0  0  0  0  0  0  0  0  0  0  0
   -3.3210   19.4700  -33.8040 C   0  0  0  0  0  0  0  0  0  0  0  0
   -3.4779   20.2575  -33.0522 H   0  0  0  0  0  0  0  0  0  0  0  0
   -2.4571   19.7306  -34.4331 H   0  0  0  0  0  0  0  0  0  0  0  0
   -4.2188   19.3796  -34.4331 H   0  0  0  0  0  0  0  0  0  0  0  0
   -3.7290   15.7930  -33.2820 C   0  0  0  0  0  0  0  0  0  0  0  0
   -3.8381   15.4371  -34.3171 H   0  0  0  0  0  0  0  0  0  0  0  0
   -2.6768   15.7765  -32.9618 H   0  0  0  0  0  0  0  0  0  0  0  0
   -4.5180   14.8620  -32.3540 C   0  0  0  0  0  0  0  0  0  0  0  0
   -4.3008   15.1182  -31.3065 H   0  0  0  0  0  0  0  0  0  0  0  0
   -5.5948   14.9806  -32.5448 H   0  0  0  0  0  0  0  0  0  0  0  0
   -4.2244   13.8192  -32.5448 H   0  0  0  0  0  0  0  0  0  0  0  0
   -8.2760   20.0090  -32.6600 C   0  0  0  0  0  0  0  0  0  0  0  0
   -8.9545   20.1114  -33.5197 H   0  0  0  0  0  0  0  0  0  0  0  0
   -7.4700   21.1890  -32.2610 C   0  0  0  0  0  0  0  0  0  0  0  0
   -8.0400   22.3240  -31.6570 C   0  0  0  0  0  0  0  0  0  0  0  0
   -9.1212   22.3507  -31.4565 H   0  0  0  0  0  0  0  0  0  0  0  0
   -7.2440   23.4170  -31.3100 C   0  0  0  0  0  0  0  0  0  0  0  0
   -7.7016   24.2952  -30.8311 H   0  0  0  0  0  0  0  0  0  0  0  0
   -5.8610   23.4040  -31.5680 C   0  0  0  0  0  0  0  0  0  0  0  0
   -5.0300   24.4840  -31.2310 O   0  0  0  0  0  0  0  0  0  0  0  0
   -5.3900   25.5290  -30.3330 C   0  0  0  0  0  0  0  0  0  0  0  0
   -5.2697   25.1798  -29.2969 H   0  0  0  0  0  0  0  0  0  0  0  0
   -4.7400   26.3998  -30.5042 H   0  0  0  0  0  0  0  0  0  0  0  0
   -6.4384   25.8147  -30.5042 H   0  0  0  0  0  0  0  0  0  0  0  0
   -5.2840   22.2860  -32.1860 C   0  0  0  0  0  0  0  0  0  0  0  0
   -3.9020   22.3030  -32.4360 O   0  0  0  0  0  0  0  0  0  0  0  0
   -2.9000   22.0370  -31.4600 C   0  0  0  0  0  0  0  0  0  0  0  0
   -3.3291   22.1509  -30.4536 H   0  0  0  0  0  0  0  0  0  0  0  0
   -2.5289   21.0092  -31.5862 H   0  0  0  0  0  0  0  0  0  0  0  0
   -2.0680   22.7454  -31.5862 H   0  0  0  0  0  0  0  0  0  0  0  0
   -6.0920   21.1860  -32.5340 C   0  0  0  0  0  0  0  0  0  0  0  0
   -5.6380   20.3132  -33.0260 H   0  0  0  0  0  0  0  0  0  0  0  0
  1  2  1  0
  2  3  1  0
  3  4  2  0
  3  5  1  0
  5  6  1  0
  6  7  1  0
  6  8  1  0
  6  9  1  0
  9 10  1  0
  9 11  1  0
  9 12  1  0
 12 13  1  0
 12 14  1  0
 14 15  1  0
 14 16  1  0
 14 17  1  0
 17 18  1  0
 17 19  1  0
 17 20  1  0
 12 21  1  0
 21 22  1  0
 21 23  1  0
 21 24  1  0
 24 25  1  0
 24 26  1  0
 24 27  1  0
  2 28  2  0
 28 29  1  0
 28 30  1  0
 30 31  2  0
 31 32  1  0
 31 33  1  0
 33 34  1  0
 33 35  2  0
 35 36  1  0
 36 37  1  0
 37 38  1  0
 37 39  1  0
 37 40  1  0
 35 41  1  0
 41 42  1  0
 42 43  1  0
 43 44  1  0
 43 45  1  0
 43 46  1  0
 41 47  2  0
 47 48  1  0
 47 30  1  0
M  CHG  1  12   1
M  END
>  <UniqueID>  (16) 
16

>  <SMILES>  (16) 
CC[NH+](CC)CCOC(=O)/C=C/c1ccc(OC)c(OC)c1

>  <Energy>  (16) 
45.772156284641085

>  <Genealogy>  (16) 
CC[NH+](CC)CCOC(=O)C=Cc1ccc(OC)c(OC)c1 (protonated)
CC[NH+](CC)CCOC(=O)/C=C/c1ccc(OC)c(OC)c1 (cis-trans isomerization)
CC[NH+](CC)CCOC(=O)/C=C/c1ccc(OC)c(OC)c1 (3D coordinates assigned)
CC[NH+](CC)CCOC(=O)/C=C/c1ccc(OC)c(OC)c1 (optimized conformer: 45.772156284641085 kcal/mol)

>  <smiles>  (16) 
CCN(CC)CCOC(=O)C=Cc1ccc(OC)c(OC)c1

>  <score_type>  (16) 
oracle

>  <origin>  (16) 
adg

>  <m_score__min__energy>  (16) 
-6.4100000000000001

>  <m_primary>  (16) 
energy

$$$$
16:0
     RDKit          3D

 85 87  0  0  0  0  0  0  0  0999 V2000
   -3.6440   18.6500  -26.2910 C   0  0  0  0  0  0  0  0  0  0  0  0
   -2.1740   18.5560  -26.6810 C   0  0  0  0  0  0  0  0  0  0  0  0
   -1.8600   19.5350  -27.7480 N   0  0  0  0  0  0  0  0  0  0  0  0
   -2.3590   20.8860  -27.3960 C   0  0  0  0  0  0  0  0  0  0  0  0
   -1.2520   21.6940  -26.7230 C   0  0  0  0  0  0  0  0  0  0  0  0
   -0.4080   19.5570  -28.0410 C   0  0  0  0  0  0  0  0  0  0  0  0
   -0.0070   18.3300  -28.8690 C   0  0  0  0  0  0  0  0  0  0  0  0
    0.3250   18.7180  -30.1890 O   0  0  0  0  0  0  0  0  0  0  0  0
    1.6670   18.3870  -30.4850 C   0  0  0  0  0  0  0  0  0  0  0  0
    2.1800   19.3060  -31.5990 C   0  0  0  0  0  0  0  0  0  0  0  0
    1.2760   19.3850  -32.6860 O   0  0  0  0  0  0  0  0  0  0  0  0
    1.6440   20.4480  -33.4610 N   0  0  0  0  0  0  0  0  0  0  0  0
    2.4800   19.9390  -34.5590 C   0  0  0  0  0  0  0  0  0  0  0  0
    0.4220   21.0470  -34.0350 C   0  0  0  0  0  0  0  0  0  0  0  0
    0.0080   20.3890  -35.3620 C   0  0  0  0  0  0  0  0  0  0  0  0
   -0.4450   19.0030  -35.1530 N   0  0  0  0  0  0  0  0  0  0  0  0
    0.2530   18.0640  -36.0430 C   0  0  0  0  0  0  0  0  0  0  0  0
    0.8150   16.8620  -35.2640 C   0  0  0  0  0  0  0  0  0  0  0  0
    0.7840   17.0710  -33.8070 N   0  0  0  0  0  0  0  0  0  0  0  0
   -0.3000   16.3030  -33.1620 C   0  0  0  0  0  0  0  0  0  0  0  0
   -1.2260   17.2050  -32.3280 C   0  0  0  0  0  0  0  0  0  0  0  0
   -1.0460   18.6510  -32.5970 N   0  0  0  0  0  0  0  0  0  0  0  0
   -2.3080   19.3810  -32.5560 C   0  0  0  0  0  0  0  0  0  0  0  0
   -3.4380   18.9610  -33.3130 C   0  0  0  0  0  0  0  0  0  0  0  0
   -3.3680   17.8860  -34.2310 C   0  0  0  0  0  0  0  0  0  0  0  0
   -4.4830   17.4870  -34.9660 C   0  0  0  0  0  0  0  0  0  0  0  0
   -5.6820   18.1670  -34.8350 C   0  0  0  0  0  0  0  0  0  0  0  0
   -5.7830   19.2390  -33.9570 C   0  0  0  0  0  0  0  0  0  0  0  0
   -4.6840   19.6340  -33.1480 C   0  0  0  0  0  0  0  0  0  0  0  0
   -4.8110   20.6520  -32.2230 N   0  0  0  0  0  0  0  0  0  0  0  0
   -6.1570   21.1370  -31.8360 C   0  0  0  0  0  0  0  0  0  0  0  0
   -3.6890   21.2040  -31.6440 C   0  0  0  0  0  0  0  0  0  0  0  0
   -3.7580   22.4270  -30.9240 C   0  0  0  0  0  0  0  0  0  0  0  0
   -2.6370   22.9540  -30.2910 C   0  0  0  0  0  0  0  0  0  0  0  0
   -1.4220   22.2920  -30.3590 C   0  0  0  0  0  0  0  0  0  0  0  0
   -1.3090   21.1130  -31.0900 C   0  0  0  0  0  0  0  0  0  0  0  0
   -2.4260   20.5560  -31.7630 C   0  0  0  0  0  0  0  0  0  0  0  0
   -3.7328   18.6557  -25.1946 H   0  0  0  0  0  0  0  0  0  0  0  0
   -4.0729   19.5774  -26.6984 H   0  0  0  0  0  0  0  0  0  0  0  0
   -4.1875   17.7848  -26.6984 H   0  0  0  0  0  0  0  0  0  0  0  0
   -1.5508   18.7678  -25.7997 H   0  0  0  0  0  0  0  0  0  0  0  0
   -1.9676   17.5421  -27.0545 H   0  0  0  0  0  0  0  0  0  0  0  0
   -2.6832   21.4041  -28.3106 H   0  0  0  0  0  0  0  0  0  0  0  0
   -3.2066   20.7877  -26.7018 H   0  0  0  0  0  0  0  0  0  0  0  0
   -1.3554   21.6185  -25.6305 H   0  0  0  0  0  0  0  0  0  0  0  0
   -0.2720   21.2973  -27.0268 H   0  0  0  0  0  0  0  0  0  0  0  0
   -1.3310   22.7482  -27.0268 H   0  0  0  0  0  0  0  0  0  0  0  0
   -0.1668   20.4693  -28.6062 H   0  0  0  0  0  0  0  0  0  0  0  0
    0.1463   19.5409  -27.0910 H   0  0  0  0  0  0  0  0  0  0  0  0
    0.8638   17.8459  -28.4028 H   0  0  0  0  0  0  0  0  0  0  0  0
   -0.8533   17.6282  -28.9034 H   0  0  0  0  0  0  0  0  0  0  0  0
    2.2855   18.5195  -29.5850 H   0  0  0  0  0  0  0  0  0  0  0  0
    1.7245   17.3393  -30.8151 H   0  0  0  0  0  0  0  0  0  0  0  0
    2.3268   20.3150  -31.1863 H   0  0  0  0  0  0  0  0  0  0  0  0
    3.1245   18.8859  -31.9751 H   0  0  0  0  0  0  0  0  0  0  0  0
    3.3496   19.4095  -34.1426 H   0  0  0  0  0  0  0  0  0  0  0  0
    1.8907   19.2463  -35.1778 H   0  0  0  0  0  0  0  0  0  0  0  0
    2.8249   20.7806  -35.1778 H   0  0  0  0  0  0  0  0  0  0  0  0
   -0.3997   20.9313  -33.3129 H   0  0  0  0  0  0  0  0  0  0  0  0
    0.6352   22.1064  -34.2407 H   0  0  0  0  0  0  0  0  0  0  0  0
   -0.8114   20.9702  -35.8100 H   0  0  0  0  0  0  0  0  0  0  0  0
    0.8825   20.3719  -36.0290 H   0  0  0  0  0  0  0  0  0  0  0  0
   -1.4620   18.9500  -35.3860 H   0  0  0  0  0  0  0  0  0  0  0  0
   -0.4537   17.6989  -36.8028 H   0  0  0  0  0  0  0  0  0  0  0  0
    1.0939   18.5944  -36.5138 H   0  0  0  0  0  0  0  0  0  0  0  0
    0.2144   15.9727  -35.5058 H   0  0  0  0  0  0  0  0  0  0  0  0
    1.8662   16.7326  -35.5611 H   0  0  0  0  0  0  0  0  0  0  0  0
    0.6070   18.0920  -33.6600 H   0  0  0  0  0  0  0  0  0  0  0  0
   -0.8959   15.8059  -33.9416 H   0  0  0  0  0  0  0  0  0  0  0  0
    0.1598   15.5683  -32.4847 H   0  0  0  0  0  0  0  0  0  0  0  0
   -2.2685   16.9365  -32.5538 H   0  0  0  0  0  0  0  0  0  0  0  0
   -0.9707   17.0395  -31.2709 H   0  0  0  0  0  0  0  0  0  0  0  0
   -0.6280   18.7700  -33.5470 H   0  0  0  0  0  0  0  0  0  0  0  0
   -0.3130   19.0750  -31.9930 H   0  0  0  0  0  0  0  0  0  0  0  0
   -2.4145   17.3547  -34.3671 H   0  0  0  0  0  0  0  0  0  0  0  0
   -4.4103   16.6299  -35.6517 H   0  0  0  0  0  0  0  0  0  0  0  0
   -6.5560   17.8580  -35.4271 H   0  0  0  0  0  0  0  0  0  0  0  0
   -6.7313   19.7920  -33.8870 H   0  0  0  0  0  0  0  0  0  0  0  0
   -6.2352   21.1652  -30.7391 H   0  0  0  0  0  0  0  0  0  0  0  0
   -6.3129   22.1478  -32.2408 H   0  0  0  0  0  0  0  0  0  0  0  0
   -6.9218   20.4579  -32.2408 H   0  0  0  0  0  0  0  0  0  0  0  0
   -4.7148   22.9666  -30.8661 H   0  0  0  0  0  0  0  0  0  0  0  0
   -2.7156   23.8996  -29.7346 H   0  0  0  0  0  0  0  0  0  0  0  0
   -0.5450   22.6989  -29.8343 H   0  0  0  0  0  0  0  0  0  0  0  0
   -0.3355   20.6040  -31.1467 H   0  0  0  0  0  0  0  0  0  0  0  0
  1  2  1  0
  2  3  1  0
  3  4  1  0
  4  5  1  0
  3  6  1  0
  6  7  1  0
  7  8  1  0
  8  9  1  0
  9 10  1  0
 10 11  1  0
 11 12  1  0
 12 13  1  0
 12 14  1  0
 14 15  1  0
 15 16  1  0
 16 17  1  0
 17 18  1  0
 18 19  1  0
 19 20  1  0
 20 21  1  0
 21 22  1  0
 22 23  1  0
 23 24  2  0
 24 25  1  0
 25 26  2  0
 26 27  1  0
 27 28  2  0
 28 29  1  0
 29 30  2  0
 30 31  1  0
 30 32  1  0
 32 33  2  0
 33 34  1  0
 34 35  2  0
 35 36  1  0
 36 37  2  0
 37 23  1  0
 29 24  1  0
 37 32  1  0
  1 38  1  0
  1 39  1  0
  1 40  1  0
  2 41  1  0
  2 42  1  0
  4 43  1  0
  4 44  1  0
  5 45  1  0
  5 46  1  0
  5 47  1  0
  6 48  1  0
  6 49  1  0
  7 50  1  0
  7 51  1  0
  9 52  1  0
  9 53  1  0
 10 54  1  0
 10 55  1  0
 13 56  1  0
 13 57  1  0
 13 58  1  0
 14 59  1  0
 14 60  1  0
 15 61  1  0
 15 62  1  0
 16 63  1  0
 17 64  1  0
 17 65  1  0
 18 66  1  0
 18 67  1  0
 19 68  1  0
 20 69  1  0
 20 70  1  0
 21 71  1  0
 21 72  1  0
 22 73  1  0
 22 74  1  0
 25 75  1  0
 26 76  1  0
 27 77  1  0
 28 78  1  0
 31 79  1  0
 31 80  1  0
 31 81  1  0
 33 82  1  0
 34 83  1  0
 35 84  1  0
 36 85  1  0
M  CHG  2  22   1  30   1
M  END
>  <UniqueID>  (17) 
17

>  <SMILES>  (17) 
CCN(CC)CCOCCON(C)CCNCCNCC[NH2+]c1c2ccccc2[n+](C)c2ccccc12

>  <Energy>  (17) 
105.5528685743263

>  <Genealogy>  (17) 
CCN(CC)CCOCCON(C)CCNCCNCC[NH2+]c1c2ccccc2[n+](C)c2ccccc12 (protonated)
CCN(CC)CCOCCON(C)CCNCCNCC[NH2+]c1c2ccccc2[n+](C)c2ccccc12 (3D coordinates assigned)
CCN(CC)CCOCCON(C)CCNCCNCC[NH2+]c1c2ccccc2[n+](C)c2ccccc12 (optimized conformer: 105.5528685743263 kcal/mol)

>  <smiles>  (17) 
CCN(CC)CCOCCON(C)CCNCCNCCNc1c2ccccc2[n+](C)c2ccccc12

>  <score_type>  (17) 
oracle

>  <origin>  (17) 
adg

>  <m_score__min__energy>  (17) 
-7.8700000000000001

>  <m_primary>  (17) 
energy

$$$$
17:0
     RDKit          3D

 66 68  0  0  0  0  0  0  0  0999 V2000
   -6.1420   25.4150  -29.5370 C   0  0  0  0  0  0  0  0  0  0  0  0
   -5.4250   25.2840  -30.8780 C   0  0  0  0  0  0  0  0  0  0  0  0
   -3.9650   25.3070  -30.6990 N   0  0  0  0  0  0  0  0  0  0  0  0
   -3.4040   23.9730  -30.4130 C   0  0  0  0  0  0  0  0  0  0  0  0
   -4.2800   22.8850  -31.0420 C   0  0  0  0  0  0  0  0  0  0  0  0
   -3.6410   22.2940  -32.3030 C   0  0  0  0  0  0  0  0  0  0  0  0
   -4.6650   21.7610  -33.2010 N   0  0  0  0  0  0  0  0  0  0  0  0
   -5.6620   20.8450  -32.7160 C   0  0  0  0  0  0  0  0  0  0  0  0
   -6.9110   21.3520  -32.3100 C   0  0  0  0  0  0  0  0  0  0  0  0
   -7.0890   22.7350  -32.0800 C   0  0  0  0  0  0  0  0  0  0  0  0
   -8.3390   23.2480  -31.7440 C   0  0  0  0  0  0  0  0  0  0  0  0
   -9.4340   22.4010  -31.6440 C   0  0  0  0  0  0  0  0  0  0  0  0
   -9.2800   21.0320  -31.8520 C   0  0  0  0  0  0  0  0  0  0  0  0
   -8.0110   20.4710  -32.1520 C   0  0  0  0  0  0  0  0  0  0  0  0
   -7.8430   19.1130  -32.3380 N   0  0  0  0  0  0  0  0  0  0  0  0
   -8.9290   18.1780  -31.9620 C   0  0  0  0  0  0  0  0  0  0  0  0
   -6.6450   18.6190  -32.8200 C   0  0  0  0  0  0  0  0  0  0  0  0
   -6.5380   17.2870  -33.2900 C   0  0  0  0  0  0  0  0  0  0  0  0
   -5.3100   16.7470  -33.6430 C   0  0  0  0  0  0  0  0  0  0  0  0
   -4.1530   17.4940  -33.4910 C   0  0  0  0  0  0  0  0  0  0  0  0
   -4.2070   18.8350  -33.0750 C   0  0  0  0  0  0  0  0  0  0  0  0
   -2.9590   19.4660  -32.6900 N   0  0  0  0  0  0  0  0  0  0  0  0
   -2.1820   19.8960  -33.8680 C   0  0  0  0  0  0  0  0  0  0  0  0
   -0.7590   20.3550  -33.4960 C   0  0  0  0  0  0  0  0  0  0  0  0
   -0.6830   21.0570  -32.1300 C   0  0  0  0  0  0  0  0  0  0  0  0
   -1.1640   20.1750  -31.0430 N   0  0  0  0  0  0  0  0  0  0  0  0
   -1.5000   20.9510  -29.8370 C   0  0  0  0  0  0  0  0  0  0  0  0
   -0.1450   19.1660  -30.7110 C   0  0  0  0  0  0  0  0  0  0  0  0
   -5.4870   19.4480  -32.8700 C   0  0  0  0  0  0  0  0  0  0  0  0
   -5.4179   25.2827  -28.7196 H   0  0  0  0  0  0  0  0  0  0  0  0
   -6.6010   26.4119  -29.4625 H   0  0  0  0  0  0  0  0  0  0  0  0
   -6.9239   24.6448  -29.4625 H   0  0  0  0  0  0  0  0  0  0  0  0
   -5.7148   24.3334  -31.3496 H   0  0  0  0  0  0  0  0  0  0  0  0
   -5.7137   26.1334  -31.5145 H   0  0  0  0  0  0  0  0  0  0  0  0
   -3.5440   25.6550  -31.5910 H   0  0  0  0  0  0  0  0  0  0  0  0
   -2.3885   23.9086  -30.8309 H   0  0  0  0  0  0  0  0  0  0  0  0
   -3.3720   23.8230  -29.3237 H   0  0  0  0  0  0  0  0  0  0  0  0
   -4.4284   22.0795  -30.3077 H   0  0  0  0  0  0  0  0  0  0  0  0
   -5.2384   23.3427  -31.3283 H   0  0  0  0  0  0  0  0  0  0  0  0
   -3.0774   23.0813  -32.8250 H   0  0  0  0  0  0  0  0  0  0  0  0
   -2.9688   21.4749  -32.0078 H   0  0  0  0  0  0  0  0  0  0  0  0
   -4.4890   21.8100  -34.2300 H   0  0  0  0  0  0  0  0  0  0  0  0
   -6.2288   23.4150  -32.1676 H   0  0  0  0  0  0  0  0  0  0  0  0
   -8.4588   24.3255  -31.5576 H   0  0  0  0  0  0  0  0  0  0  0  0
  -10.4251   22.8113  -31.4001 H   0  0  0  0  0  0  0  0  0  0  0  0
  -10.1583   20.3734  -31.7824 H   0  0  0  0  0  0  0  0  0  0  0  0
   -8.9983   18.1183  -30.8658 H   0  0  0  0  0  0  0  0  0  0  0  0
   -9.8835   18.5414  -32.3705 H   0  0  0  0  0  0  0  0  0  0  0  0
   -8.7115   17.1801  -32.3705 H   0  0  0  0  0  0  0  0  0  0  0  0
   -7.4446   16.6701  -33.3766 H   0  0  0  0  0  0  0  0  0  0  0  0
   -5.2547   15.7243  -34.0442 H   0  0  0  0  0  0  0  0  0  0  0  0
   -3.1775   17.0302  -33.6991 H   0  0  0  0  0  0  0  0  0  0  0  0
   -3.1090   20.2420  -32.0120 H   0  0  0  0  0  0  0  0  0  0  0  0
   -2.3940   18.7550  -32.1680 H   0  0  0  0  0  0  0  0  0  0  0  0
   -2.1091   19.0526  -34.5704 H   0  0  0  0  0  0  0  0  0  0  0  0
   -2.7037   20.7524  -34.3201 H   0  0  0  0  0  0  0  0  0  0  0  0
   -0.1028   19.4725  -33.4718 H   0  0  0  0  0  0  0  0  0  0  0  0
   -0.4438   21.0858  -34.2554 H   0  0  0  0  0  0  0  0  0  0  0  0
    0.3617   21.3363  -31.9286 H   0  0  0  0  0  0  0  0  0  0  0  0
   -1.3258   21.9491  -32.1625 H   0  0  0  0  0  0  0  0  0  0  0  0
   -1.2462   20.3649  -28.9414 H   0  0  0  0  0  0  0  0  0  0  0  0
   -0.9281   21.8907  -29.8345 H   0  0  0  0  0  0  0  0  0  0  0  0
   -2.5765   21.1769  -29.8345 H   0  0  0  0  0  0  0  0  0  0  0  0
   -0.0574   19.0792  -29.6179 H   0  0  0  0  0  0  0  0  0  0  0  0
   -0.4400   18.1942  -31.1335 H   0  0  0  0  0  0  0  0  0  0  0  0
    0.8239   19.4706  -31.1335 H   0  0  0  0  0  0  0  0  0  0  0  0
  1  2  1  0
  2  3  1  0
  3  4  1  0
  4  5  1  0
  5  6  1  0
  6  7  1  0
  7  8  1  0
  8  9  2  0
  9 10  1  0
 10 11  2  0
 11 12  1  0
 12 13  2  0
 13 14  1  0
 14 15  2  0
 15 16  1  0
 15 17  1  0
 17 18  2  0
 18 19  1  0
 19 20  2  0
 20 21  1  0
 21 22  1  0
 22 23  1  0
 23 24  1  0
 24 25  1  0
 25 26  1  0
 26 27  1  0
 26 28  1  0
 21 29  2  0
 29  8  1  0
 14  9  1  0
 29 17  1  0
  1 30  1  0
  1 31  1  0
  1 32  1  0
  2 33  1  0
  2 34  1  0
  3 35  1  0
  4 36  1  0
  4 37  1  0
  5 38  1  0
  5 39  1  0
  6 40  1  0
  6 41  1  0
  7 42  1  0
 10 43  1  0
 11 44  1  0
 12 45  1  0
 13 46  1  0
 16 47  1  0
 16 48  1  0
 16 49  1  0
 18 50  1  0
 19 51  1  0
 20 52  1  0
 22 53  1  0
 22 54  1  0
 23 55  1  0
 23 56  1  0
 24 57  1  0
 24 58  1  0
 25 59  1  0
 25 60  1  0
 27 61  1  0
 27 62  1  0
 27 63  1  0
 28 64  1  0
 28 65  1  0
 28 66  1  0
M  CHG  2  15   1  22   1
M  END
>  <UniqueID>  (18) 
18

>  <SMILES>  (18) 
CCNCCCNc1c2ccccc2[n+](C)c2cccc([NH2+]CCCN(C)C)c12

>  <Energy>  (18) 
98.32017306925408

>  <Genealogy>  (18) 
CCNCCCNc1c2ccccc2[n+](C)c2cccc([NH2+]CCCN(C)C)c12 (protonated)
CCNCCCNc1c2ccccc2[n+](C)c2cccc([NH2+]CCCN(C)C)c12 (3D coordinates assigned)
CCNCCCNc1c2ccccc2[n+](C)c2cccc([NH2+]CCCN(C)C)c12 (optimized conformer: 98.32017306925408 kcal/mol)

>  <smiles>  (18) 
CCNCCCNc1c2ccccc2[n+](C)c2cccc(NCCCN(C)C)c12

>  <score_type>  (18) 
oracle

>  <origin>  (18) 
adg

>  <m_score__min__energy>  (18) 
-8.3599999999999994

>  <m_primary>  (18) 
energy

$$$$
18:0
     RDKit          3D

 40 42  0  0  0  0  0  0  0  0999 V2000
   -6.7250   24.9070  -29.8080 C   0  0  0  0  0  0  0  0  0  0  0  0
   -5.6930   25.9280  -30.2700 C   0  0  0  0  0  0  0  0  0  0  0  0
   -4.5300   25.2410  -30.8400 N   0  0  0  0  0  0  0  0  0  0  0  0
   -3.7890   24.5270  -29.7960 C   0  0  0  0  0  0  0  0  0  0  0  0
   -3.1750   23.2410  -30.3540 C   0  0  0  0  0  0  0  0  0  0  0  0
   -3.6270   23.0030  -31.6870 O   0  0  0  0  0  0  0  0  0  0  0  0
   -4.7620   22.2460  -32.0070 C   0  0  0  0  0  0  0  0  0  0  0  0
   -6.0020   22.6730  -31.6360 N   0  0  0  0  0  0  0  0  0  0  0  0
   -7.1140   21.9420  -31.9040 C   0  0  0  0  0  0  0  0  0  0  0  0
   -8.3790   22.3950  -31.5240 C   0  0  0  0  0  0  0  0  0  0  0  0
   -9.4970   21.6070  -31.8130 C   0  0  0  0  0  0  0  0  0  0  0  0
   -9.3480   20.4150  -32.4540 N   0  0  0  0  0  0  0  0  0  0  0  0
   -8.1250   19.9530  -32.8330 C   0  0  0  0  0  0  0  0  0  0  0  0
   -6.9830   20.7100  -32.5650 C   0  0  0  0  0  0  0  0  0  0  0  0
   -5.7500   20.2800  -32.9380 N   0  0  0  0  0  0  0  0  0  0  0  0
   -4.6320   21.0170  -32.6900 C   0  0  0  0  0  0  0  0  0  0  0  0
   -3.3200   20.5010  -33.1410 C   0  0  0  0  0  0  0  0  0  0  0  0
   -3.1490   19.1210  -33.3510 C   0  0  0  0  0  0  0  0  0  0  0  0
   -1.9210   18.6200  -33.7930 C   0  0  0  0  0  0  0  0  0  0  0  0
   -0.8570   19.4910  -34.0420 C   0  0  0  0  0  0  0  0  0  0  0  0
   -1.0220   20.8660  -33.8550 C   0  0  0  0  0  0  0  0  0  0  0  0
   -2.2480   21.3720  -33.4120 C   0  0  0  0  0  0  0  0  0  0  0  0
   -6.7498   24.8825  -28.7086 H   0  0  0  0  0  0  0  0  0  0  0  0
   -7.7168   25.1891  -30.1909 H   0  0  0  0  0  0  0  0  0  0  0  0
   -6.4535   23.9122  -30.1909 H   0  0  0  0  0  0  0  0  0  0  0  0
   -6.1418   26.5799  -31.0340 H   0  0  0  0  0  0  0  0  0  0  0  0
   -5.3703   26.5312  -29.4086 H   0  0  0  0  0  0  0  0  0  0  0  0
   -4.8800   24.5300  -31.5260 H   0  0  0  0  0  0  0  0  0  0  0  0
   -2.9860   25.1752  -29.4152 H   0  0  0  0  0  0  0  0  0  0  0  0
   -4.4839   24.2648  -28.9846 H   0  0  0  0  0  0  0  0  0  0  0  0
   -2.0791   23.3353  -30.3558 H   0  0  0  0  0  0  0  0  0  0  0  0
   -3.4844   22.3972  -29.7197 H   0  0  0  0  0  0  0  0  0  0  0  0
   -8.4942   23.3579  -31.0048 H   0  0  0  0  0  0  0  0  0  0  0  0
  -10.5003   21.9511  -31.5216 H   0  0  0  0  0  0  0  0  0  0  0  0
   -8.0367   18.9856  -33.3491 H   0  0  0  0  0  0  0  0  0  0  0  0
   -3.9863   18.4319  -33.1664 H   0  0  0  0  0  0  0  0  0  0  0  0
   -1.7921   17.5382  -33.9451 H   0  0  0  0  0  0  0  0  0  0  0  0
    0.1100   19.0945  -34.3850 H   0  0  0  0  0  0  0  0  0  0  0  0
   -0.1858   21.5516  -34.0567 H   0  0  0  0  0  0  0  0  0  0  0  0
   -2.3753   22.4559  -33.2746 H   0  0  0  0  0  0  0  0  0  0  0  0
  1  2  1  0
  2  3  1  0
  3  4  1  0
  4  5  1  0
  5  6  1  0
  6  7  1  0
  7  8  2  0
  8  9  1  0
  9 10  2  0
 10 11  1  0
 11 12  2  0
 12 13  1  0
 13 14  2  0
 14 15  1  0
 15 16  2  0
 16 17  1  0
 17 18  2  0
 18 19  1  0
 19 20  2  0
 20 21  1  0
 21 22  2  0
 16  7  1  0
 22 17  1  0
 14  9  1  0
  1 23  1  0
  1 24  1  0
  1 25  1  0
  2 26  1  0
  2 27  1  0
  3 28  1  0
  4 29  1  0
  4 30  1  0
  5 31  1  0
  5 32  1  0
 10 33  1  0
 11 34  1  0
 13 35  1  0
 18 36  1  0
 19 37  1  0
 20 38  1  0
 21 39  1  0
 22 40  1  0
M  END
>  <UniqueID>  (19) 
19

>  <SMILES>  (19) 
CCNCCOc1nc2ccncc2nc1-c1ccccc1

>  <Energy>  (19) 
44.157336044389716

>  <Genealogy>  (19) 
CCNCCOc1nc2ccncc2nc1-c1ccccc1 (3D coordinates assigned)
CCNCCOc1nc2ccncc2nc1-c1ccccc1 (optimized conformer: 44.157336044389716 kcal/mol)

>  <smiles>  (19) 
CCNCCOc1nc2ccncc2nc1-c1ccccc1

>  <score_type>  (19) 
oracle

>  <origin>  (19) 
adg

>  <m_score__min__energy>  (19) 
-7.7199999999999998

>  <m_primary>  (19) 
energy

$$$$
19:0
     RDKit          3D

 72 74  0  0  0  0  0  0  0  0999 V2000
   -3.1880   21.8660  -27.8580 C   0  0  0  0  0  0  0  0  0  0  0  0
   -2.5640   23.2370  -28.0990 C   0  0  0  0  0  0  0  0  0  0  0  0
   -3.5980   24.2920  -28.0710 N   0  0  0  0  0  0  0  0  0  0  0  0
   -3.9320   24.7590  -26.7030 C   0  0  0  0  0  0  0  0  0  0  0  0
   -2.6770   25.2990  -26.0310 C   0  0  0  0  0  0  0  0  0  0  0  0
   -4.7950   23.9530  -28.8730 C   0  0  0  0  0  0  0  0  0  0  0  0
   -4.9780   24.8340  -30.1250 C   0  0  0  0  0  0  0  0  0  0  0  0
   -4.2220   24.2790  -31.1860 O   0  0  0  0  0  0  0  0  0  0  0  0
   -3.9930   22.8960  -30.9980 C   0  0  0  0  0  0  0  0  0  0  0  0
   -3.3870   22.2820  -32.2610 C   0  0  0  0  0  0  0  0  0  0  0  0
   -4.4270   21.9370  -33.2300 N   0  0  0  0  0  0  0  0  0  0  0  0
   -5.4500   20.9780  -32.9090 C   0  0  0  0  0  0  0  0  0  0  0  0
   -6.6880   21.4390  -32.4200 C   0  0  0  0  0  0  0  0  0  0  0  0
   -6.8640   22.7940  -32.0620 C   0  0  0  0  0  0  0  0  0  0  0  0
   -8.1050   23.2670  -31.6450 C   0  0  0  0  0  0  0  0  0  0  0  0
   -9.1930   22.4050  -31.5810 C   0  0  0  0  0  0  0  0  0  0  0  0
   -9.0370   21.0580  -31.9040 C   0  0  0  0  0  0  0  0  0  0  0  0
   -7.7750   20.5360  -32.2920 C   0  0  0  0  0  0  0  0  0  0  0  0
   -7.6000   19.1960  -32.5760 N   0  0  0  0  0  0  0  0  0  0  0  0
   -8.6480   18.2190  -32.2000 C   0  0  0  0  0  0  0  0  0  0  0  0
   -6.4310   18.7590  -33.1720 C   0  0  0  0  0  0  0  0  0  0  0  0
   -6.3450   17.4690  -33.7510 C   0  0  0  0  0  0  0  0  0  0  0  0
   -5.1530   16.9970  -34.2820 C   0  0  0  0  0  0  0  0  0  0  0  0
   -4.0060   17.7710  -34.2190 C   0  0  0  0  0  0  0  0  0  0  0  0
   -4.0400   19.0660  -33.6760 C   0  0  0  0  0  0  0  0  0  0  0  0
   -2.7960   19.7590  -33.4500 N   0  0  0  0  0  0  0  0  0  0  0  0
   -1.8890   19.4640  -32.3400 C   0  0  0  0  0  0  0  0  0  0  0  0
   -0.4360   19.7030  -32.7600 C   0  0  0  0  0  0  0  0  0  0  0  0
   -0.2270   21.1630  -33.2020 C   0  0  0  0  0  0  0  0  0  0  0  0
   -0.6660   21.4010  -34.5850 N   0  0  0  0  0  0  0  0  0  0  0  0
    0.4070   21.9470  -35.4220 C   0  0  0  0  0  0  0  0  0  0  0  0
   -5.2890   19.6110  -33.2400 C   0  0  0  0  0  0  0  0  0  0  0  0
   -3.2701   21.6856  -26.7760 H   0  0  0  0  0  0  0  0  0  0  0  0
   -4.1894   21.8340  -28.3121 H   0  0  0  0  0  0  0  0  0  0  0  0
   -2.5545   21.0898  -28.3121 H   0  0  0  0  0  0  0  0  0  0  0  0
   -1.8205   23.4387  -27.3138 H   0  0  0  0  0  0  0  0  0  0  0  0
   -2.0831   23.2384  -29.0883 H   0  0  0  0  0  0  0  0  0  0  0  0
   -4.6882   25.5557  -26.7619 H   0  0  0  0  0  0  0  0  0  0  0  0
   -4.3301   23.9186  -26.1154 H   0  0  0  0  0  0  0  0  0  0  0  0
   -2.7952   25.2481  -24.9386 H   0  0  0  0  0  0  0  0  0  0  0  0
   -1.8096   24.6945  -26.3345 H   0  0  0  0  0  0  0  0  0  0  0  0
   -2.5195   26.3445  -26.3345 H   0  0  0  0  0  0  0  0  0  0  0  0
   -4.7099   22.9050  -29.1963 H   0  0  0  0  0  0  0  0  0  0  0  0
   -5.6702   24.1266  -28.2296 H   0  0  0  0  0  0  0  0  0  0  0  0
   -6.0415   24.8636  -30.4044 H   0  0  0  0  0  0  0  0  0  0  0  0
   -4.6344   25.8578  -29.9159 H   0  0  0  0  0  0  0  0  0  0  0  0
   -3.2989   22.7542  -30.1565 H   0  0  0  0  0  0  0  0  0  0  0  0
   -4.9513   22.4005  -30.7835 H   0  0  0  0  0  0  0  0  0  0  0  0
   -2.6970   23.0069  -32.7174 H   0  0  0  0  0  0  0  0  0  0  0  0
   -2.8520   21.3627  -31.9805 H   0  0  0  0  0  0  0  0  0  0  0  0
   -4.2330   22.1200  -34.2410 H   0  0  0  0  0  0  0  0  0  0  0  0
   -6.0092   23.4845  -32.1134 H   0  0  0  0  0  0  0  0  0  0  0  0
   -8.2245   24.3243  -31.3658 H   0  0  0  0  0  0  0  0  0  0  0  0
  -10.1785   22.7860  -31.2751 H   0  0  0  0  0  0  0  0  0  0  0  0
   -9.9076   20.3872  -31.8574 H   0  0  0  0  0  0  0  0  0  0  0  0
   -8.7149   18.1567  -31.1038 H   0  0  0  0  0  0  0  0  0  0  0  0
   -9.6161   18.5444  -32.6085 H   0  0  0  0  0  0  0  0  0  0  0  0
   -8.3913   17.2305  -32.6085 H   0  0  0  0  0  0  0  0  0  0  0  0
   -7.2396   16.8296  -33.7802 H   0  0  0  0  0  0  0  0  0  0  0  0
   -5.1188   16.0044  -34.7548 H   0  0  0  0  0  0  0  0  0  0  0  0
   -3.0564   17.3664  -34.5991 H   0  0  0  0  0  0  0  0  0  0  0  0
   -2.5940   20.6180  -34.0110 H   0  0  0  0  0  0  0  0  0  0  0  0
   -2.1326   20.1176  -31.4894 H   0  0  0  0  0  0  0  0  0  0  0  0
   -2.0084   18.4090  -32.0524 H   0  0  0  0  0  0  0  0  0  0  0  0
    0.2258   19.4858  -31.9086 H   0  0  0  0  0  0  0  0  0  0  0  0
   -0.2007   19.0414  -33.6067 H   0  0  0  0  0  0  0  0  0  0  0  0
   -0.8007   21.8200  -32.5318 H   0  0  0  0  0  0  0  0  0  0  0  0
    0.8510   21.3762  -33.1521 H   0  0  0  0  0  0  0  0  0  0  0  0
   -1.4730   22.0680  -34.5910 H   0  0  0  0  0  0  0  0  0  0  0  0
    1.2029   22.3520  -34.7798 H   0  0  0  0  0  0  0  0  0  0  0  0
    0.8188   21.1488  -36.0571 H   0  0  0  0  0  0  0  0  0  0  0  0
    0.0042   22.7498  -36.0571 H   0  0  0  0  0  0  0  0  0  0  0  0
  1  2  1  0
  2  3  1  0
  3  4  1  0
  4  5  1  0
  3  6  1  0
  6  7  1  0
  7  8  1  0
  8  9  1  0
  9 10  1  0
 10 11  1  0
 11 12  1  0
 12 13  2  0
 13 14  1  0
 14 15  2  0
 15 16  1  0
 16 17  2  0
 17 18  1  0
 18 19  2  0
 19 20  1  0
 19 21  1  0
 21 22  2  0
 22 23  1  0
 23 24  2  0
 24 25  1  0
 25 26  1  0
 26 27  1  0
 27 28  1  0
 28 29  1  0
 29 30  1  0
 30 31  1  0
 25 32  2  0
 32 12  1  0
 18 13  1  0
 32 21  1  0
  1 33  1  0
  1 34  1  0
  1 35  1  0
  2 36  1  0
  2 37  1  0
  4 38  1  0
  4 39  1  0
  5 40  1  0
  5 41  1  0
  5 42  1  0
  6 43  1  0
  6 44  1  0
  7 45  1  0
  7 46  1  0
  9 47  1  0
  9 48  1  0
 10 49  1  0
 10 50  1  0
 11 51  1  0
 14 52  1  0
 15 53  1  0
 16 54  1  0
 17 55  1  0
 20 56  1  0
 20 57  1  0
 20 58  1  0
 22 59  1  0
 23 60  1  0
 24 61  1  0
 26 62  1  0
 27 63  1  0
 27 64  1  0
 28 65  1  0
 28 66  1  0
 29 67  1  0
 29 68  1  0
 30 69  1  0
 31 70  1  0
 31 71  1  0
 31 72  1  0
M  CHG  1  19   1
M  END
>  <UniqueID>  (20) 
20

>  <SMILES>  (20) 
CCN(CC)CCOCCNc1c2ccccc2[n+](C)c2cccc(NCCCNC)c12

>  <Energy>  (20) 
104.44413005827896

>  <Genealogy>  (20) 
CCN(CC)CCOCCNc1c2ccccc2[n+](C)c2cccc(NCCCNC)c12 (3D coordinates assigned)
CCN(CC)CCOCCNc1c2ccccc2[n+](C)c2cccc(NCCCNC)c12 (optimized conformer: 104.44413005827896 kcal/mol)

>  <smiles>  (20) 
CCN(CC)CCOCCNc1c2ccccc2[n+](C)c2cccc(NCCCNC)c12

>  <score_type>  (20) 
oracle

>  <origin>  (20) 
adg

>  <m_score__min__energy>  (20) 
-8.9100000000000001

>  <m_primary>  (20) 
energy

$$$$
20:0
     RDKit          3D

 75 77  0  0  0  0  0  0  0  0999 V2000
   -5.8990   24.4390  -29.7360 C   0  0  0  0  0  0  0  0  0  0  0  0
   -4.4750   24.8640  -30.0630 C   0  0  0  0  0  0  0  0  0  0  0  0
   -3.5250   23.9170  -29.4320 N   0  0  0  0  0  0  0  0  0  0  0  0
   -2.8830   24.4450  -28.2070 C   0  0  0  0  0  0  0  0  0  0  0  0
   -3.8810   24.5150  -27.0550 C   0  0  0  0  0  0  0  0  0  0  0  0
   -4.0900   22.5590  -29.2550 C   0  0  0  0  0  0  0  0  0  0  0  0
   -3.0630   21.4200  -29.4130 C   0  0  0  0  0  0  0  0  0  0  0  0
   -3.1910   20.8350  -30.6960 O   0  0  0  0  0  0  0  0  0  0  0  0
   -2.7450   21.7130  -31.7140 C   0  0  0  0  0  0  0  0  0  0  0  0
   -3.9230   22.3120  -32.5060 C   0  0  0  0  0  0  0  0  0  0  0  0
   -4.6330   21.3160  -33.3170 N   0  0  0  0  0  0  0  0  0  0  0  0
   -5.7070   20.5080  -32.8010 C   0  0  0  0  0  0  0  0  0  0  0  0
   -6.8970   21.1390  -32.3940 C   0  0  0  0  0  0  0  0  0  0  0  0
   -6.9500   22.5410  -32.2280 C   0  0  0  0  0  0  0  0  0  0  0  0
   -8.1490   23.1780  -31.9190 C   0  0  0  0  0  0  0  0  0  0  0  0
   -9.3150   22.4370  -31.7840 C   0  0  0  0  0  0  0  0  0  0  0  0
   -9.2800   21.0490  -31.9110 C   0  0  0  0  0  0  0  0  0  0  0  0
   -8.0610   20.3650  -32.1660 C   0  0  0  0  0  0  0  0  0  0  0  0
   -7.9960   18.9870  -32.2230 N   0  0  0  0  0  0  0  0  0  0  0  0
   -9.1290   18.1740  -31.7220 C   0  0  0  0  0  0  0  0  0  0  0  0
   -6.8570   18.3590  -32.6920 C   0  0  0  0  0  0  0  0  0  0  0  0
   -6.8640   16.9790  -33.0040 C   0  0  0  0  0  0  0  0  0  0  0  0
   -5.6980   16.3150  -33.3510 C   0  0  0  0  0  0  0  0  0  0  0  0
   -4.4930   16.9950  -33.3880 C   0  0  0  0  0  0  0  0  0  0  0  0
   -4.4390   18.3820  -33.1830 C   0  0  0  0  0  0  0  0  0  0  0  0
   -3.1470   19.0200  -33.1090 N   0  0  0  0  0  0  0  0  0  0  0  0
   -2.1650   19.0670  -34.2000 C   0  0  0  0  0  0  0  0  0  0  0  0
   -1.1320   20.2020  -34.0090 C   0  0  0  0  0  0  0  0  0  0  0  0
   -0.0590   19.8860  -32.9430 C   0  0  0  0  0  0  0  0  0  0  0  0
   -0.6730   19.3320  -31.7140 N   0  0  0  0  0  0  0  0  0  0  0  0
   -0.4320   17.8800  -31.6110 C   0  0  0  0  0  0  0  0  0  0  0  0
   -0.1270   19.9970  -30.5160 C   0  0  0  0  0  0  0  0  0  0  0  0
   -5.6490   19.0940  -32.8890 C   0  0  0  0  0  0  0  0  0  0  0  0
   -6.0286   24.4003  -28.6443 H   0  0  0  0  0  0  0  0  0  0  0  0
   -6.6058   25.1653  -30.1636 H   0  0  0  0  0  0  0  0  0  0  0  0
   -6.0921   23.4441  -30.1636 H   0  0  0  0  0  0  0  0  0  0  0  0
   -4.3307   24.8576  -31.1535 H   0  0  0  0  0  0  0  0  0  0  0  0
   -4.2951   25.8785  -29.6778 H   0  0  0  0  0  0  0  0  0  0  0  0
   -2.0511   23.7837  -27.9229 H   0  0  0  0  0  0  0  0  0  0  0  0
   -2.5139   25.4604  -28.4139 H   0  0  0  0  0  0  0  0  0  0  0  0
   -3.3397   24.4770  -26.0981 H   0  0  0  0  0  0  0  0  0  0  0  0
   -4.4485   25.4552  -27.1182 H   0  0  0  0  0  0  0  0  0  0  0  0
   -4.5742   23.6633  -27.1182 H   0  0  0  0  0  0  0  0  0  0  0  0
   -4.5234   22.4948  -28.2460 H   0  0  0  0  0  0  0  0  0  0  0  0
   -4.8375   22.4223  -30.0503 H   0  0  0  0  0  0  0  0  0  0  0  0
   -2.0471   21.8252  -29.2958 H   0  0  0  0  0  0  0  0  0  0  0  0
   -3.2472   20.6550  -28.6444 H   0  0  0  0  0  0  0  0  0  0  0  0
   -2.1723   22.5314  -31.2533 H   0  0  0  0  0  0  0  0  0  0  0  0
   -2.1189   21.1384  -32.4125 H   0  0  0  0  0  0  0  0  0  0  0  0
   -4.6343   22.7563  -31.7942 H   0  0  0  0  0  0  0  0  0  0  0  0
   -3.5089   23.0631  -33.1948 H   0  0  0  0  0  0  0  0  0  0  0  0
   -4.0930   20.9170  -34.1170 H   0  0  0  0  0  0  0  0  0  0  0  0
   -6.0327   23.1368  -32.3443 H   0  0  0  0  0  0  0  0  0  0  0  0
   -8.1722   24.2692  -31.7818 H   0  0  0  0  0  0  0  0  0  0  0  0
  -10.2680   22.9456  -31.5765 H   0  0  0  0  0  0  0  0  0  0  0  0
  -10.2122   20.4735  -31.8121 H   0  0  0  0  0  0  0  0  0  0  0  0
   -9.1245   18.1773  -30.6220 H   0  0  0  0  0  0  0  0  0  0  0  0
  -10.0754   18.6003  -32.0860 H   0  0  0  0  0  0  0  0  0  0  0  0
   -9.0282   17.1409  -32.0860 H   0  0  0  0  0  0  0  0  0  0  0  0
   -7.8124   16.4228  -32.9705 H   0  0  0  0  0  0  0  0  0  0  0  0
   -5.7303   15.2436  -33.5979 H   0  0  0  0  0  0  0  0  0  0  0  0
   -3.5634   16.4395  -33.5811 H   0  0  0  0  0  0  0  0  0  0  0  0
   -2.8010   19.3180  -32.1690 H   0  0  0  0  0  0  0  0  0  0  0  0
   -1.6318   18.1056  -34.2381 H   0  0  0  0  0  0  0  0  0  0  0  0
   -2.7096   19.2606  -35.1359 H   0  0  0  0  0  0  0  0  0  0  0  0
   -0.6267   20.3782  -34.9700 H   0  0  0  0  0  0  0  0  0  0  0  0
   -1.6844   21.0868  -33.6596 H   0  0  0  0  0  0  0  0  0  0  0  0
    0.6491   19.1509  -33.3533 H   0  0  0  0  0  0  0  0  0  0  0  0
    0.4599   20.8204  -32.6829 H   0  0  0  0  0  0  0  0  0  0  0  0
   -0.3840   17.5906  -30.5508 H   0  0  0  0  0  0  0  0  0  0  0  0
   -1.2522   17.3364  -32.1027 H   0  0  0  0  0  0  0  0  0  0  0  0
    0.5198   17.6305  -32.1027 H   0  0  0  0  0  0  0  0  0  0  0  0
   -0.5258   19.5113  -29.6132 H   0  0  0  0  0  0  0  0  0  0  0  0
    0.9701   19.9179  -30.5207 H   0  0  0  0  0  0  0  0  0  0  0  0
   -0.4182   21.0578  -30.5207 H   0  0  0  0  0  0  0  0  0  0  0  0
  1  2  1  0
  2  3  1  0
  3  4  1  0
  4  5  1  0
  3  6  1  0
  6  7  1  0
  7  8  1  0
  8  9  1  0
  9 10  1  0
 10 11  1  0
 11 12  1  0
 12 13  2  0
 13 14  1  0
 14 15  2  0
 15 16  1  0
 16 17  2  0
 17 18  1  0
 18 19  2  0
 19 20  1  0
 19 21  1  0
 21 22  2  0
 22 23  1  0
 23 24  2  0
 24 25  1  0
 25 26  1  0
 26 27  1  0
 27 28  1  0
 28 29  1  0
 29 30  1  0
 30 31  1  0
 30 32  1  0
 25 33  2  0
 33 12  1  0
 18 13  1  0
 33 21  1  0
  1 34  1  0
  1 35  1  0
  1 36  1  0
  2 37  1  0
  2 38  1  0
  4 39  1  0
  4 40  1  0
  5 41  1  0
  5 42  1  0
  5 43  1  0
  6 44  1  0
  6 45  1  0
  7 46  1  0
  7 47  1  0
  9 48  1  0
  9 49  1  0
 10 50  1  0
 10 51  1  0
 11 52  1  0
 14 53  1  0
 15 54  1  0
 16 55  1  0
 17 56  1  0
 20 57  1  0
 20 58  1  0
 20 59  1  0
 22 60  1  0
 23 61  1  0
 24 62  1  0
 26 63  1  0
 27 64  1  0
 27 65  1  0
 28 66  1  0
 28 67  1  0
 29 68  1  0
 29 69  1  0
 31 70  1  0
 31 71  1  0
 31 72  1  0
 32 73  1  0
 32 74  1  0
 32 75  1  0
M  CHG  1  19   1
M  END
>  <UniqueID>  (21) 
21

>  <SMILES>  (21) 
CCN(CC)CCOCCNc1c2ccccc2[n+](C)c2cccc(NCCCN(C)C)c12

>  <Energy>  (21) 
112.60021629611418

>  <Genealogy>  (21) 
CCN(CC)CCOCCNc1c2ccccc2[n+](C)c2cccc(NCCCN(C)C)c12 (3D coordinates assigned)
CCN(CC)CCOCCNc1c2ccccc2[n+](C)c2cccc(NCCCN(C)C)c12 (optimized conformer: 112.60021629611418 kcal/mol)

>  <smiles>  (21) 
CCN(CC)CCOCCNc1c2ccccc2[n+](C)c2cccc(NCCCN(C)C)c12

>  <score_type>  (21) 
oracle

>  <origin>  (21) 
adg

>  <m_score__min__energy>  (21) 
-8.4499999999999993

>  <m_primary>  (21) 
energy

$$$$
21:0
     RDKit          3D

 38 39  0  0  0  0  0  0  0  0999 V2000
   -6.4740   25.1940  -29.8620 C   0  0  0  0  0  0  0  0  0  0  0  0
   -4.9640   24.9480  -29.8030 C   0  0  0  0  0  0  0  0  0  0  0  0
   -4.4160   24.5200  -31.1010 N   0  0  0  0  0  0  0  0  0  0  0  0
   -4.3560   23.0570  -31.2370 C   0  0  0  0  0  0  0  0  0  0  0  0
   -4.6540   22.6190  -32.6810 C   0  0  0  0  0  0  0  0  0  0  0  0
   -5.3370   21.2980  -32.7210 N   0  0  0  0  0  0  0  0  0  0  0  0
   -4.6050   20.1780  -33.0790 C   0  0  0  0  0  0  0  0  0  0  0  0
   -3.1160   20.2300  -33.3520 C   0  0  0  0  0  0  0  0  0  0  0  0
   -5.2160   18.9220  -33.1480 C   0  0  0  0  0  0  0  0  0  0  0  0
   -6.5730   18.7690  -32.8830 C   0  0  0  0  0  0  0  0  0  0  0  0
   -7.1770   17.3890  -32.9820 C   0  0  0  0  0  0  0  0  0  0  0  0
   -7.3330   19.9000  -32.5280 C   0  0  0  0  0  0  0  0  0  0  0  0
   -8.7140   19.7850  -32.2520 C   0  0  0  0  0  0  0  0  0  0  0  0
   -9.4650   20.9000  -31.8980 C   0  0  0  0  0  0  0  0  0  0  0  0
   -8.8600   22.1450  -31.8100 C   0  0  0  0  0  0  0  0  0  0  0  0
   -7.5000   22.2880  -32.0770 C   0  0  0  0  0  0  0  0  0  0  0  0
   -6.6960   21.1770  -32.4470 C   0  0  0  0  0  0  0  0  0  0  0  0
   -6.8751   25.2593  -28.8398 H   0  0  0  0  0  0  0  0  0  0  0  0
   -6.6715   26.1362  -30.3943 H   0  0  0  0  0  0  0  0  0  0  0  0
   -6.9603   24.3632  -30.3943 H   0  0  0  0  0  0  0  0  0  0  0  0
   -4.4654   25.8801  -29.4986 H   0  0  0  0  0  0  0  0  0  0  0  0
   -4.7829   24.1402  -29.0786 H   0  0  0  0  0  0  0  0  0  0  0  0
   -3.4560   24.9220  -31.2270 H   0  0  0  0  0  0  0  0  0  0  0  0
   -3.3495   22.7119  -30.9580 H   0  0  0  0  0  0  0  0  0  0  0  0
   -5.1154   22.6146  -30.5755 H   0  0  0  0  0  0  0  0  0  0  0  0
   -5.3017   23.3706  -33.1559 H   0  0  0  0  0  0  0  0  0  0  0  0
   -3.6983   22.5294  -33.2183 H   0  0  0  0  0  0  0  0  0  0  0  0
   -2.5688   20.2491  -32.3980 H   0  0  0  0  0  0  0  0  0  0  0  0
   -2.8176   19.3417  -33.9281 H   0  0  0  0  0  0  0  0  0  0  0  0
   -2.8803   21.1369  -33.9281 H   0  0  0  0  0  0  0  0  0  0  0  0
   -4.6141   18.0412  -33.4160 H   0  0  0  0  0  0  0  0  0  0  0  0
   -7.3510   16.9915  -31.9712 H   0  0  0  0  0  0  0  0  0  0  0  0
   -8.1329   17.4451  -33.5235 H   0  0  0  0  0  0  0  0  0  0  0  0
   -6.4873   16.7249  -33.5235 H   0  0  0  0  0  0  0  0  0  0  0  0
   -9.2009   18.8009  -32.3181 H   0  0  0  0  0  0  0  0  0  0  0  0
  -10.5396   20.7948  -31.6876 H   0  0  0  0  0  0  0  0  0  0  0  0
   -9.4573   23.0245  -31.5278 H   0  0  0  0  0  0  0  0  0  0  0  0
   -7.0386   23.2835  -31.9995 H   0  0  0  0  0  0  0  0  0  0  0  0
  1  2  1  0
  2  3  1  0
  3  4  1  0
  4  5  1  0
  5  6  1  0
  6  7  2  0
  7  8  1  0
  7  9  1  0
  9 10  2  0
 10 11  1  0
 10 12  1  0
 12 13  2  0
 13 14  1  0
 14 15  2  0
 15 16  1  0
 16 17  2  0
 17  6  1  0
 17 12  1  0
  1 18  1  0
  1 19  1  0
  1 20  1  0
  2 21  1  0
  2 22  1  0
  3 23  1  0
  4 24  1  0
  4 25  1  0
  5 26  1  0
  5 27  1  0
  8 28  1  0
  8 29  1  0
  8 30  1  0
  9 31  1  0
 11 32  1  0
 11 33  1  0
 11 34  1  0
 13 35  1  0
 14 36  1  0
 15 37  1  0
 16 38  1  0
M  CHG  1   6   1
M  END
>  <UniqueID>  (22) 
22

>  <SMILES>  (22) 
CCNCC[n+]1c(C)cc(C)c2ccccc21

>  <Energy>  (22) 
50.45308908185339

>  <Genealogy>  (22) 
CCNCC[n+]1c(C)cc(C)c2ccccc21 (3D coordinates assigned)
CCNCC[n+]1c(C)cc(C)c2ccccc21 (optimized conformer: 50.45308908185339 kcal/mol)

>  <smiles>  (22) 
CCNCC[n+]1c(C)cc(C)c2ccccc21

>  <score_type>  (22) 
oracle

>  <origin>  (22) 
adg

>  <m_score__min__energy>  (22) 
-7.1699999999999999

>  <m_primary>  (22) 
energy

$$$$
22:0
     RDKit          3D

 61 63  0  0  0  0  0  0  0  0999 V2000
    0.2490   21.0580  -27.8470 C   0  0  0  0  0  0  0  0  0  0  0  0
   -0.4670   19.7330  -28.1560 C   0  0  0  0  0  0  0  0  0  0  0  0
   -1.8510   19.6630  -27.6320 N   0  0  0  0  0  0  0  0  0  0  0  0
   -2.0400   18.5800  -26.6400 C   0  0  0  0  0  0  0  0  0  0  0  0
   -3.4460   18.6310  -26.0440 C   0  0  0  0  0  0  0  0  0  0  0  0
   -2.3630   20.9790  -27.1770 C   0  0  0  0  0  0  0  0  0  0  0  0
   -3.2530   21.5890  -28.2540 C   0  0  0  0  0  0  0  0  0  0  0  0
   -3.9080   22.7280  -27.7320 O   0  0  0  0  0  0  0  0  0  0  0  0
   -3.0440   23.8490  -27.7390 C   0  0  0  0  0  0  0  0  0  0  0  0
   -2.7620   24.3210  -29.1710 C   0  0  0  0  0  0  0  0  0  0  0  0
   -3.9570   24.1130  -30.0630 C   0  0  0  0  0  0  0  0  0  0  0  0
   -5.1380   24.8420  -29.8490 C   0  0  0  0  0  0  0  0  0  0  0  0
   -6.2510   24.6380  -30.6700 C   0  0  0  0  0  0  0  0  0  0  0  0
   -6.2020   23.6980  -31.7130 C   0  0  0  0  0  0  0  0  0  0  0  0
   -7.3620   23.4640  -32.5420 N   0  0  0  0  0  0  0  0  0  0  0  0
   -8.3220   22.5590  -31.8870 C   0  0  0  0  0  0  0  0  0  0  0  0
   -8.0360   21.1090  -32.2040 C   0  0  0  0  0  0  0  0  0  0  0  0
   -8.7640   20.0910  -31.5680 C   0  0  0  0  0  0  0  0  0  0  0  0
   -8.4850   18.7470  -31.8280 C   0  0  0  0  0  0  0  0  0  0  0  0
   -7.4620   18.4010  -32.7240 C   0  0  0  0  0  0  0  0  0  0  0  0
   -7.1740   17.0530  -32.9980 C   0  0  0  0  0  0  0  0  0  0  0  0
   -6.1550   16.7220  -33.8960 C   0  0  0  0  0  0  0  0  0  0  0  0
   -5.8860   15.4190  -34.1630 F   0  0  0  0  0  0  0  0  0  0  0  0
   -5.4120   17.7300  -34.5190 C   0  0  0  0  0  0  0  0  0  0  0  0
   -5.6840   19.0750  -34.2520 C   0  0  0  0  0  0  0  0  0  0  0  0
   -6.7110   19.4220  -33.3600 C   0  0  0  0  0  0  0  0  0  0  0  0
   -7.0030   20.7700  -33.0920 C   0  0  0  0  0  0  0  0  0  0  0  0
   -5.0280   22.9520  -31.9080 C   0  0  0  0  0  0  0  0  0  0  0  0
   -3.9150   23.1570  -31.0880 C   0  0  0  0  0  0  0  0  0  0  0  0
    0.3207   21.1906  -26.7574 H   0  0  0  0  0  0  0  0  0  0  0  0
    1.2595   21.0387  -28.2813 H   0  0  0  0  0  0  0  0  0  0  0  0
   -0.3209   21.8927  -28.2813 H   0  0  0  0  0  0  0  0  0  0  0  0
   -0.5030   19.6051  -29.2479 H   0  0  0  0  0  0  0  0  0  0  0  0
    0.1045   18.9368  -27.6566 H   0  0  0  0  0  0  0  0  0  0  0  0
   -1.8925   17.6083  -27.1341 H   0  0  0  0  0  0  0  0  0  0  0  0
   -1.3080   18.7118  -25.8296 H   0  0  0  0  0  0  0  0  0  0  0  0
   -3.3791   18.6286  -24.9460 H   0  0  0  0  0  0  0  0  0  0  0  0
   -3.9530   19.5481  -26.3784 H   0  0  0  0  0  0  0  0  0  0  0  0
   -4.0181   17.7530  -26.3784 H   0  0  0  0  0  0  0  0  0  0  0  0
   -2.9467   20.8443  -26.2544 H   0  0  0  0  0  0  0  0  0  0  0  0
   -1.5140   21.6515  -26.9845 H   0  0  0  0  0  0  0  0  0  0  0  0
   -2.6366   21.8831  -29.1163 H   0  0  0  0  0  0  0  0  0  0  0  0
   -4.0014   20.8494  -28.5747 H   0  0  0  0  0  0  0  0  0  0  0  0
   -3.5149   24.6689  -27.1768 H   0  0  0  0  0  0  0  0  0  0  0  0
   -2.0909   23.5579  -27.2734 H   0  0  0  0  0  0  0  0  0  0  0  0
   -2.5115   25.3919  -29.1521 H   0  0  0  0  0  0  0  0  0  0  0  0
   -1.9242   23.7313  -29.5714 H   0  0  0  0  0  0  0  0  0  0  0  0
   -5.1876   25.5767  -29.0319 H   0  0  0  0  0  0  0  0  0  0  0  0
   -7.1705   25.2169  -30.4984 H   0  0  0  0  0  0  0  0  0  0  0  0
   -7.8370   24.3780  -32.7290 H   0  0  0  0  0  0  0  0  0  0  0  0
   -7.0800   23.0680  -33.4690 H   0  0  0  0  0  0  0  0  0  0  0  0
   -8.2613   22.7037  -30.7983 H   0  0  0  0  0  0  0  0  0  0  0  0
   -9.3275   22.7984  -32.2633 H   0  0  0  0  0  0  0  0  0  0  0  0
   -9.5619   20.3541  -30.8580 H   0  0  0  0  0  0  0  0  0  0  0  0
   -9.0682   17.9587  -31.3295 H   0  0  0  0  0  0  0  0  0  0  0  0
   -7.7514   16.2570  -32.5050 H   0  0  0  0  0  0  0  0  0  0  0  0
   -4.6096   17.4631  -35.2226 H   0  0  0  0  0  0  0  0  0  0  0  0
   -5.0924   19.8626  -34.7416 H   0  0  0  0  0  0  0  0  0  0  0  0
   -6.4190   21.5639  -33.5806 H   0  0  0  0  0  0  0  0  0  0  0  0
   -4.9843   22.2017  -32.7112 H   0  0  0  0  0  0  0  0  0  0  0  0
   -3.0014   22.5654  -31.2475 H   0  0  0  0  0  0  0  0  0  0  0  0
  1  2  1  0
  2  3  1  0
  3  4  1  0
  4  5  1  0
  3  6  1  0
  6  7  1  0
  7  8  1  0
  8  9  1  0
  9 10  1  0
 10 11  1  0
 11 12  2  0
 12 13  1  0
 13 14  2  0
 14 15  1  0
 15 16  1  0
 16 17  1  0
 17 18  2  0
 18 19  1  0
 19 20  2  0
 20 21  1  0
 21 22  2  0
 22 23  1  0
 22 24  1  0
 24 25  2  0
 25 26  1  0
 26 27  2  0
 14 28  1  0
 28 29  2  0
 29 11  1  0
 27 17  1  0
 26 20  1  0
  1 30  1  0
  1 31  1  0
  1 32  1  0
  2 33  1  0
  2 34  1  0
  4 35  1  0
  4 36  1  0
  5 37  1  0
  5 38  1  0
  5 39  1  0
  6 40  1  0
  6 41  1  0
  7 42  1  0
  7 43  1  0
  9 44  1  0
  9 45  1  0
 10 46  1  0
 10 47  1  0
 12 48  1  0
 13 49  1  0
 15 50  1  0
 15 51  1  0
 16 52  1  0
 16 53  1  0
 18 54  1  0
 19 55  1  0
 21 56  1  0
 24 57  1  0
 25 58  1  0
 27 59  1  0
 28 60  1  0
 29 61  1  0
M  CHG  1  15   1
M  END
>  <UniqueID>  (23) 
23

>  <SMILES>  (23) 
CCN(CC)CCOCCc1ccc([NH2+]Cc2ccc3cc(F)ccc3c2)cc1

>  <Energy>  (23) 
61.86541774482539

>  <Genealogy>  (23) 
CCN(CC)CCOCCc1ccc([NH2+]Cc2ccc3cc(F)ccc3c2)cc1 (protonated)
CCN(CC)CCOCCc1ccc([NH2+]Cc2ccc3cc(F)ccc3c2)cc1 (3D coordinates assigned)
CCN(CC)CCOCCc1ccc([NH2+]Cc2ccc3cc(F)ccc3c2)cc1 (optimized conformer: 61.86541774482539 kcal/mol)

>  <smiles>  (23) 
CCN(CC)CCOCCc1ccc(NCc2ccc3cc(F)ccc3c2)cc1

>  <score_type>  (23) 
oracle

>  <origin>  (23) 
adg

>  <m_score__min__energy>  (23) 
-8.9499999999999993

>  <m_primary>  (23) 
energy

$$$$
23:0
     RDKit          3D

 55 57  0  0  0  0  0  0  0  0999 V2000
   -5.9222   25.9709  -31.2711 H   0  0  0  0  0  0  0  0  0  0  0  0
   -5.7290   24.9000  -31.1100 C   0  0  0  0  0  0  0  0  0  0  0  0
   -4.5180   24.5330  -30.8460 N   0  0  0  0  0  0  0  0  0  0  0  0
   -3.9450   24.4630  -29.5200 C   0  0  0  0  0  0  0  0  0  0  0  0
   -4.7436   24.5606  -28.7699 H   0  0  0  0  0  0  0  0  0  0  0  0
   -3.4367   23.4961  -29.3908 H   0  0  0  0  0  0  0  0  0  0  0  0
   -3.2189   25.2791  -29.3908 H   0  0  0  0  0  0  0  0  0  0  0  0
   -6.8920   23.9460  -31.2100 C   0  0  0  0  0  0  0  0  0  0  0  0
   -6.9720   23.3719  -30.2751 H   0  0  0  0  0  0  0  0  0  0  0  0
   -7.8140   24.5218  -31.3784 H   0  0  0  0  0  0  0  0  0  0  0  0
   -6.6960   23.0230  -32.3280 N   0  0  0  0  0  0  0  0  0  0  0  0
   -6.3250   23.4000  -33.2290 H   0  0  0  0  0  0  0  0  0  0  0  0
   -7.0550   21.6350  -32.2700 C   0  0  0  0  0  0  0  0  0  0  0  0
   -8.3800   21.3000  -31.9610 C   0  0  0  0  0  0  0  0  0  0  0  0
   -9.0724   22.0806  -31.6128 H   0  0  0  0  0  0  0  0  0  0  0  0
   -8.8260   19.9950  -32.0900 C   0  0  0  0  0  0  0  0  0  0  0  0
   -9.8454   19.7286  -31.7740 H   0  0  0  0  0  0  0  0  0  0  0  0
   -7.9870   19.0230  -32.6180 C   0  0  0  0  0  0  0  0  0  0  0  0
   -8.3643   17.9981  -32.7493 H   0  0  0  0  0  0  0  0  0  0  0  0
   -6.6540   19.3260  -32.9910 C   0  0  0  0  0  0  0  0  0  0  0  0
   -6.1390   20.6140  -32.6680 C   0  0  0  0  0  0  0  0  0  0  0  0
   -4.7270   20.8060  -32.6820 C   0  0  0  0  0  0  0  0  0  0  0  0
   -4.0960   21.7800  -31.7880 N   0  0  0  0  0  0  0  0  0  0  0  0
   -4.6420   22.6650  -31.7580 H   0  0  0  0  0  0  0  0  0  0  0  0
   -3.1560   22.0840  -32.1120 H   0  0  0  0  0  0  0  0  0  0  0  0
   -3.8940   21.2650  -30.4160 C   0  0  0  0  0  0  0  0  0  0  0  0
   -4.3092   21.9931  -29.7036 H   0  0  0  0  0  0  0  0  0  0  0  0
   -4.4025   20.2917  -30.3516 H   0  0  0  0  0  0  0  0  0  0  0  0
   -2.4080   21.0330  -30.0720 C   0  0  0  0  0  0  0  0  0  0  0  0
   -2.2802   21.0940  -28.9812 H   0  0  0  0  0  0  0  0  0  0  0  0
   -2.1188   20.0398  -30.4460 H   0  0  0  0  0  0  0  0  0  0  0  0
   -1.5370   22.0420  -30.7150 N   0  0  0  0  0  0  0  0  0  0  0  0
   -0.4840   21.4060  -31.5260 C   0  0  0  0  0  0  0  0  0  0  0  0
    0.2667   20.9526  -30.8620 H   0  0  0  0  0  0  0  0  0  0  0  0
   -0.9306   20.6265  -32.1607 H   0  0  0  0  0  0  0  0  0  0  0  0
   -0.0019   22.1641  -32.1607 H   0  0  0  0  0  0  0  0  0  0  0  0
   -0.9190   22.9120  -29.7010 C   0  0  0  0  0  0  0  0  0  0  0  0
   -1.1788   22.5463  -28.6966 H   0  0  0  0  0  0  0  0  0  0  0  0
    0.1740   22.8998  -29.8243 H   0  0  0  0  0  0  0  0  0  0  0  0
   -1.2904   23.9400  -29.8243 H   0  0  0  0  0  0  0  0  0  0  0  0
   -3.9270   19.8450  -33.3550 C   0  0  0  0  0  0  0  0  0  0  0  0
   -2.5630   20.0870  -33.6510 C   0  0  0  0  0  0  0  0  0  0  0  0
   -2.1371   21.0833  -33.4614 H   0  0  0  0  0  0  0  0  0  0  0  0
   -1.7520   19.0850  -34.1780 C   0  0  0  0  0  0  0  0  0  0  0  0
   -0.6938   19.2918  -34.3959 H   0  0  0  0  0  0  0  0  0  0  0  0
   -2.2780   17.8270  -34.4280 C   0  0  0  0  0  0  0  0  0  0  0  0
   -1.6243   17.0212  -34.7931 H   0  0  0  0  0  0  0  0  0  0  0  0
   -3.6310   17.5820  -34.2180 C   0  0  0  0  0  0  0  0  0  0  0  0
   -4.0365   16.5805  -34.4243 H   0  0  0  0  0  0  0  0  0  0  0  0
   -4.4990   18.6010  -33.7420 C   0  0  0  0  0  0  0  0  0  0  0  0
   -5.8570   18.3880  -33.6160 N   0  0  0  0  0  0  0  0  0  0  0  0
   -6.4740   17.1860  -34.2250 C   0  0  0  0  0  0  0  0  0  0  0  0
   -6.8213   16.5095  -33.4302 H   0  0  0  0  0  0  0  0  0  0  0  0
   -7.3284   17.4883  -34.8484 H   0  0  0  0  0  0  0  0  0  0  0  0
   -5.7303   16.6680  -34.8484 H   0  0  0  0  0  0  0  0  0  0  0  0
  1  2  1  0
  2  3  2  0
  3  4  1  0
  4  5  1  0
  4  6  1  0
  4  7  1  0
  2  8  1  0
  8  9  1  0
  8 10  1  0
  8 11  1  0
 11 12  1  0
 11 13  1  0
 13 14  2  0
 14 15  1  0
 14 16  1  0
 16 17  1  0
 16 18  2  0
 18 19  1  0
 18 20  1  0
 20 21  2  0
 21 22  1  0
 22 23  1  0
 23 24  1  0
 23 25  1  0
 23 26  1  0
 26 27  1  0
 26 28  1  0
 26 29  1  0
 29 30  1  0
 29 31  1  0
 29 32  1  0
 32 33  1  0
 33 34  1  0
 33 35  1  0
 33 36  1  0
 32 37  1  0
 37 38  1  0
 37 39  1  0
 37 40  1  0
 22 41  2  0
 41 42  1  0
 42 43  1  0
 42 44  2  0
 44 45  1  0
 44 46  1  0
 46 47  1  0
 46 48  2  0
 48 49  1  0
 48 50  1  0
 50 51  2  0
 51 52  1  0
 52 53  1  0
 52 54  1  0
 52 55  1  0
 21 13  1  0
 50 41  1  0
 51 20  1  0
M  CHG  2  23   1  51   1
M  END
>  <UniqueID>  (24) 
24

>  <SMILES>  (24) 
C/N=C\CNc1cccc2c1c([NH2+]CCN(C)C)c1ccccc1[n+]2C

>  <Energy>  (24) 
96.8514024471411

>  <Genealogy>  (24) 
CN=CCNc1cccc2c1c([NH2+]CCN(C)C)c1ccccc1[n+]2C (protonated)
C/N=C\CNc1cccc2c1c([NH2+]CCN(C)C)c1ccccc1[n+]2C (cis-trans isomerization)
C/N=C\CNc1cccc2c1c([NH2+]CCN(C)C)c1ccccc1[n+]2C (3D coordinates assigned)
C/N=C\CNc1cccc2c1c([NH2+]CCN(C)C)c1ccccc1[n+]2C (optimized conformer: 96.8514024471411 kcal/mol)

>  <smiles>  (24) 
CN=CCNc1cccc2c1c(NCCN(C)C)c1ccccc1[n+]2C

>  <score_type>  (24) 
oracle

>  <origin>  (24) 
adg

>  <m_score__min__energy>  (24) 
-6.3899999999999997

>  <m_primary>  (24) 
energy

$$$$
24:0
     RDKit          3D

 42 42  0  0  0  0  0  0  0  0999 V2000
   -3.6950   21.0150  -31.1840 C   0  0  0  0  0  0  0  0  0  0  0  0
   -2.8210   21.6110  -32.2920 C   0  0  0  0  0  0  0  0  0  0  0  0
   -3.1710   21.0860  -33.6250 N   0  0  0  0  0  0  0  0  0  0  0  0
   -2.7320   19.6920  -33.8010 C   0  0  0  0  0  0  0  0  0  0  0  0
   -3.8950   18.7070  -33.5890 C   0  0  0  0  0  0  0  0  0  0  0  0
   -5.1460   19.3700  -33.5840 O   0  0  0  0  0  0  0  0  0  0  0  0
   -6.1080   18.6860  -34.3680 C   0  0  0  0  0  0  0  0  0  0  0  0
   -6.8780   17.7120  -33.4750 C   0  0  0  0  0  0  0  0  0  0  0  0
   -6.8710   18.1770  -32.0810 N   0  0  0  0  0  0  0  0  0  0  0  0
   -8.2190   18.5750  -31.6450 C   0  0  0  0  0  0  0  0  0  0  0  0
   -8.6770   19.8340  -32.3890 C   0  0  0  0  0  0  0  0  0  0  0  0
   -7.9440   21.0620  -31.9140 C   0  0  0  0  0  0  0  0  0  0  0  0
   -8.2800   21.6540  -30.6850 C   0  0  0  0  0  0  0  0  0  0  0  0
   -7.6190   22.8090  -30.2560 C   0  0  0  0  0  0  0  0  0  0  0  0
   -6.6240   23.3850  -31.0510 C   0  0  0  0  0  0  0  0  0  0  0  0
   -5.7250   24.9640  -30.4650 Br  0  0  0  0  0  0  0  0  0  0  0  0
   -6.2910   22.8050  -32.2800 C   0  0  0  0  0  0  0  0  0  0  0  0
   -6.9490   21.6500  -32.7120 C   0  0  0  0  0  0  0  0  0  0  0  0
   -3.2845   21.2950  -30.2026 H   0  0  0  0  0  0  0  0  0  0  0  0
   -4.7201   21.4031  -31.2769 H   0  0  0  0  0  0  0  0  0  0  0  0
   -3.7080   19.9190  -31.2769 H   0  0  0  0  0  0  0  0  0  0  0  0
   -2.9517   22.7032  -32.2966 H   0  0  0  0  0  0  0  0  0  0  0  0
   -1.7775   21.3319  -32.0840 H   0  0  0  0  0  0  0  0  0  0  0  0
   -2.7570   21.6980  -34.3670 H   0  0  0  0  0  0  0  0  0  0  0  0
   -4.2130   21.1200  -33.7240 H   0  0  0  0  0  0  0  0  0  0  0  0
   -2.3380   19.5667  -34.8203 H   0  0  0  0  0  0  0  0  0  0  0  0
   -1.9546   19.4764  -33.0532 H   0  0  0  0  0  0  0  0  0  0  0  0
   -3.8873   17.9656  -34.4015 H   0  0  0  0  0  0  0  0  0  0  0  0
   -3.7598   18.2207  -32.6117 H   0  0  0  0  0  0  0  0  0  0  0  0
   -6.8065   19.4116  -34.8102 H   0  0  0  0  0  0  0  0  0  0  0  0
   -5.6042   18.1320  -35.1738 H   0  0  0  0  0  0  0  0  0  0  0  0
   -7.9174   17.6416  -33.8280 H   0  0  0  0  0  0  0  0  0  0  0  0
   -6.3936   16.7256  -33.5236 H   0  0  0  0  0  0  0  0  0  0  0  0
   -6.2610   19.0270  -32.0380 H   0  0  0  0  0  0  0  0  0  0  0  0
   -8.9229   17.7558  -31.8534 H   0  0  0  0  0  0  0  0  0  0  0  0
   -8.1937   18.7900  -30.5665 H   0  0  0  0  0  0  0  0  0  0  0  0
   -8.4886   19.7005  -33.4645 H   0  0  0  0  0  0  0  0  0  0  0  0
   -9.7494   19.9775  -32.1906 H   0  0  0  0  0  0  0  0  0  0  0  0
   -9.0658   21.2073  -30.0581 H   0  0  0  0  0  0  0  0  0  0  0  0
   -7.8826   23.2655  -29.2905 H   0  0  0  0  0  0  0  0  0  0  0  0
   -5.5098   23.2589  -32.9075 H   0  0  0  0  0  0  0  0  0  0  0  0
   -6.6865   21.1998  -33.6807 H   0  0  0  0  0  0  0  0  0  0  0  0
  1  2  1  0
  2  3  1  0
  3  4  1  0
  4  5  1  0
  5  6  1  0
  6  7  1  0
  7  8  1  0
  8  9  1  0
  9 10  1  0
 10 11  1  0
 11 12  1  0
 12 13  2  0
 13 14  1  0
 14 15  2  0
 15 16  1  0
 15 17  1  0
 17 18  2  0
 18 12  1  0
  1 19  1  0
  1 20  1  0
  1 21  1  0
  2 22  1  0
  2 23  1  0
  3 24  1  0
  3 25  1  0
  4 26  1  0
  4 27  1  0
  5 28  1  0
  5 29  1  0
  7 30  1  0
  7 31  1  0
  8 32  1  0
  8 33  1  0
  9 34  1  0
 10 35  1  0
 10 36  1  0
 11 37  1  0
 11 38  1  0
 13 39  1  0
 14 40  1  0
 17 41  1  0
 18 42  1  0
M  CHG  1   3   1
M  END
>  <UniqueID>  (25) 
25

>  <SMILES>  (25) 
CC[NH2+]CCOCCNCCc1ccc(Br)cc1

>  <Energy>  (25) 
33.437312685539226

>  <Genealogy>  (25) 
CC[NH2+]CCOCCNCCc1ccc(Br)cc1 (protonated)
CC[NH2+]CCOCCNCCc1ccc(Br)cc1 (3D coordinates assigned)
CC[NH2+]CCOCCNCCc1ccc(Br)cc1 (optimized conformer: 33.437312685539226 kcal/mol)

>  <smiles>  (25) 
CCNCCOCCNCCc1ccc(Br)cc1

>  <score_type>  (25) 
oracle

>  <origin>  (25) 
adg

>  <m_score__min__energy>  (25) 
-5.8899999999999997

>  <m_primary>  (25) 
energy

$$$$
