0:0
     RDKit          3D

 51 53  0  0  0  0  0  0  0  0999 V2000
   -5.4050   25.9630  -30.4740 C   0  0  0  0  0  0  0  0  0  0  0  0
   -4.3600   25.0410  -30.7610 O   0  0  0  0  0  0  0  0  0  0  0  0
   -4.5500   23.6790  -31.0480 C   0  0  0  0  0  0  0  0  0  0  0  0
   -5.7640   23.2010  -31.5800 C   0  0  0  0  0  0  0  0  0  0  0  0
   -5.9310   21.8400  -31.8750 C   0  0  0  0  0  0  0  0  0  0  0  0
   -7.2610   21.3280  -32.3570 C   0  0  0  0  0  0  0  0  0  0  0  0
   -7.1310   19.8890  -32.7780 C   0  0  0  0  0  0  0  0  0  0  0  0
   -7.7980   18.8820  -32.0690 C   0  0  0  0  0  0  0  0  0  0  0  0
   -7.6300   17.5420  -32.4210 C   0  0  0  0  0  0  0  0  0  0  0  0
   -6.7850   17.1820  -33.4830 C   0  0  0  0  0  0  0  0  0  0  0  0
   -6.6260   15.7270  -33.8380 C   0  0  0  0  0  0  0  0  0  0  0  0
   -6.1080   18.1930  -34.2050 C   0  0  0  0  0  0  0  0  0  0  0  0
   -5.1790   17.8540  -35.3420 C   0  0  0  0  0  0  0  0  0  0  0  0
   -6.2800   19.5390  -33.8370 C   0  0  0  0  0  0  0  0  0  0  0  0
   -4.8750   20.9520  -31.6440 C   0  0  0  0  0  0  0  0  0  0  0  0
   -3.6690   21.4120  -31.1180 C   0  0  0  0  0  0  0  0  0  0  0  0
   -3.5010   22.7690  -30.7890 C   0  0  0  0  0  0  0  0  0  0  0  0
   -2.2040   23.2270  -30.1510 C   0  0  0  0  0  0  0  0  0  0  0  0
   -2.1380   23.0010  -28.6870 N   0  0  0  0  0  0  0  0  0  0  0  0
   -3.3110   23.4670  -27.9170 C   0  0  0  0  0  0  0  0  0  0  0  0
   -3.0360   24.7730  -27.1490 C   0  0  0  0  0  0  0  0  0  0  0  0
   -1.9800   25.4950  -27.7410 O   0  0  0  0  0  0  0  0  0  0  0  0
   -0.7670   24.7910  -27.5660 C   0  0  0  0  0  0  0  0  0  0  0  0
   -0.8450   23.3240  -28.0520 C   0  0  0  0  0  0  0  0  0  0  0  0
   -5.5174   26.0622  -29.3843 H   0  0  0  0  0  0  0  0  0  0  0  0
   -5.1585   26.9433  -30.9079 H   0  0  0  0  0  0  0  0  0  0  0  0
   -6.3469   25.5963  -30.9079 H   0  0  0  0  0  0  0  0  0  0  0  0
   -6.5901   23.9031  -31.7661 H   0  0  0  0  0  0  0  0  0  0  0  0
   -7.9984   21.4056  -31.5445 H   0  0  0  0  0  0  0  0  0  0  0  0
   -7.5919   21.9294  -33.2165 H   0  0  0  0  0  0  0  0  0  0  0  0
   -8.4578   19.1487  -31.2302 H   0  0  0  0  0  0  0  0  0  0  0  0
   -8.1646   16.7605  -31.8612 H   0  0  0  0  0  0  0  0  0  0  0  0
   -6.5607   15.1298  -32.9166 H   0  0  0  0  0  0  0  0  0  0  0  0
   -7.4934   15.3967  -34.4284 H   0  0  0  0  0  0  0  0  0  0  0  0
   -5.7077   15.5918  -34.4284 H   0  0  0  0  0  0  0  0  0  0  0  0
   -4.2178   17.5033  -34.9381 H   0  0  0  0  0  0  0  0  0  0  0  0
   -5.6284   17.0619  -35.9590 H   0  0  0  0  0  0  0  0  0  0  0  0
   -5.0126   18.7494  -35.9590 H   0  0  0  0  0  0  0  0  0  0  0  0
   -5.7416   20.3261  -34.3853 H   0  0  0  0  0  0  0  0  0  0  0  0
   -4.9972   19.8843  -31.8789 H   0  0  0  0  0  0  0  0  0  0  0  0
   -2.8402   20.7065  -30.9586 H   0  0  0  0  0  0  0  0  0  0  0  0
   -1.3745   22.6799  -30.6230 H   0  0  0  0  0  0  0  0  0  0  0  0
   -2.1391   24.3138  -30.3080 H   0  0  0  0  0  0  0  0  0  0  0  0
   -4.1447   23.6374  -28.6141 H   0  0  0  0  0  0  0  0  0  0  0  0
   -3.5527   22.6903  -27.1765 H   0  0  0  0  0  0  0  0  0  0  0  0
   -3.9445   25.3931  -27.1571 H   0  0  0  0  0  0  0  0  0  0  0  0
   -2.7515   24.5192  -26.1172 H   0  0  0  0  0  0  0  0  0  0  0  0
    0.0226   25.3066  -28.1323 H   0  0  0  0  0  0  0  0  0  0  0  0
   -0.5510   24.7698  -26.4876 H   0  0  0  0  0  0  0  0  0  0  0  0
   -0.0415   23.1526  -28.7834 H   0  0  0  0  0  0  0  0  0  0  0  0
   -0.7377   22.6760  -27.1696 H   0  0  0  0  0  0  0  0  0  0  0  0
  1  2  1  0
  2  3  1  0
  3  4  2  0
  4  5  1  0
  5  6  1  0
  6  7  1  0
  7  8  2  0
  8  9  1  0
  9 10  2  0
 10 11  1  0
 10 12  1  0
 12 13  1  0
 12 14  2  0
  5 15  2  0
 15 16  1  0
 16 17  2  0
 17 18  1  0
 18 19  1  0
 19 20  1  0
 20 21  1  0
 21 22  1  0
 22 23  1  0
 23 24  1  0
 17  3  1  0
 24 19  1  0
 14  7  1  0
  1 25  1  0
  1 26  1  0
  1 27  1  0
  4 28  1  0
  6 29  1  0
  6 30  1  0
  8 31  1  0
  9 32  1  0
 11 33  1  0
 11 34  1  0
 11 35  1  0
 13 36  1  0
 13 37  1  0
 13 38  1  0
 14 39  1  0
 15 40  1  0
 16 41  1  0
 18 42  1  0
 18 43  1  0
 20 44  1  0
 20 45  1  0
 21 46  1  0
 21 47  1  0
 23 48  1  0
 23 49  1  0
 24 50  1  0
 24 51  1  0
M  END
>  <UniqueID>  (1) 
1

>  <SMILES>  (1) 
COc1cc(Cc2ccc(C)c(C)c2)ccc1CN1CCOCC1

>  <Energy>  (1) 
64.3944279242603

>  <Genealogy>  (1) 
COc1cc(Cc2ccc(C)c(C)c2)ccc1CN1CCOCC1 (3D coordinates assigned)
COc1cc(Cc2ccc(C)c(C)c2)ccc1CN1CCOCC1 (nonaromatic ring conformer: 64.3944279242603 kcal/mol)

>  <smiles>  (1) 
COc1cc(Cc2ccc(C)c(C)c2)ccc1CN1CCOCC1

>  <score_type>  (1) 
oracle

>  <origin>  (1) 
adg

>  <m_score__min__energy>  (1) 
-8.9700000000000006

>  <m_primary>  (1) 
energy

$$$$
1:0
     RDKit          3D

 70 72  0  0  0  0  0  0  0  0999 V2000
   -1.9720   19.4440  -27.1640 C   0  0  0  0  0  0  0  0  0  0  0  0
   -2.5260   20.5540  -28.0530 C   0  0  0  0  0  0  0  0  0  0  0  0
   -2.0560   20.3960  -29.4360 N   0  0  0  0  0  0  0  0  0  0  0  0
   -0.8350   19.5680  -29.5340 C   0  0  0  0  0  0  0  0  0  0  0  0
   -0.1930   19.6040  -30.9320 C   0  0  0  0  0  0  0  0  0  0  0  0
    0.1110   21.0310  -31.4070 C   0  0  0  0  0  0  0  0  0  0  0  0
   -1.1020   21.6760  -31.9340 N   0  0  0  0  0  0  0  0  0  0  0  0
   -1.6380   20.9540  -33.0980 C   0  0  0  0  0  0  0  0  0  0  0  0
   -3.1340   20.6490  -32.9180 C   0  0  0  0  0  0  0  0  0  0  0  0
   -3.5810   20.6710  -31.5050 N   0  0  0  0  0  0  0  0  0  0  0  0
   -5.0010   20.9850  -31.3770 C   0  0  0  0  0  0  0  0  0  0  0  0
   -5.9870   20.0340  -31.7830 C   0  0  0  0  0  0  0  0  0  0  0  0
   -5.6440   18.7470  -32.2730 C   0  0  0  0  0  0  0  0  0  0  0  0
   -6.6160   17.8450  -32.6980 C   0  0  0  0  0  0  0  0  0  0  0  0
   -7.9540   18.2000  -32.6690 C   0  0  0  0  0  0  0  0  0  0  0  0
   -8.3310   19.4480  -32.1870 C   0  0  0  0  0  0  0  0  0  0  0  0
   -7.3680   20.3750  -31.7050 C   0  0  0  0  0  0  0  0  0  0  0  0
   -7.7570   21.5950  -31.2000 N   0  0  0  0  0  0  0  0  0  0  0  0
   -9.1750   21.8210  -30.8340 C   0  0  0  0  0  0  0  0  0  0  0  0
   -6.8280   22.5900  -30.9950 C   0  0  0  0  0  0  0  0  0  0  0  0
   -7.2450   23.9340  -30.8430 C   0  0  0  0  0  0  0  0  0  0  0  0
   -6.3430   24.9370  -30.5360 C   0  0  0  0  0  0  0  0  0  0  0  0
   -5.0100   24.6310  -30.3310 C   0  0  0  0  0  0  0  0  0  0  0  0
   -4.5350   23.3180  -30.5020 C   0  0  0  0  0  0  0  0  0  0  0  0
   -3.2010   23.0200  -30.1820 O   0  0  0  0  0  0  0  0  0  0  0  0
   -2.4470   23.5200  -29.0760 C   0  0  0  0  0  0  0  0  0  0  0  0
   -0.9480   23.5030  -29.3930 C   0  0  0  0  0  0  0  0  0  0  0  0
   -0.2310   24.5240  -28.5970 N   0  0  0  0  0  0  0  0  0  0  0  0
   -1.1750   25.3830  -27.8600 C   0  0  0  0  0  0  0  0  0  0  0  0
    0.6840   23.8760  -27.6440 C   0  0  0  0  0  0  0  0  0  0  0  0
   -5.4330   22.2880  -30.9510 C   0  0  0  0  0  0  0  0  0  0  0  0
   -2.1087   19.7178  -26.1074 H   0  0  0  0  0  0  0  0  0  0  0  0
   -2.5076   18.5060  -27.3719 H   0  0  0  0  0  0  0  0  0  0  0  0
   -0.9004   19.3082  -27.3719 H   0  0  0  0  0  0  0  0  0  0  0  0
   -3.6252   20.5134  -28.0384 H   0  0  0  0  0  0  0  0  0  0  0  0
   -2.1744   21.5229  -27.6689 H   0  0  0  0  0  0  0  0  0  0  0  0
   -1.8960   21.3440  -29.8480 H   0  0  0  0  0  0  0  0  0  0  0  0
   -0.1016   19.9375  -28.8021 H   0  0  0  0  0  0  0  0  0  0  0  0
   -1.1274   18.5267  -29.3336 H   0  0  0  0  0  0  0  0  0  0  0  0
    0.7480   19.0351  -30.9020 H   0  0  0  0  0  0  0  0  0  0  0  0
   -0.9116   19.1642  -31.6392 H   0  0  0  0  0  0  0  0  0  0  0  0
    0.4932   21.6193  -30.5598 H   0  0  0  0  0  0  0  0  0  0  0  0
    0.8617   20.9830  -32.2095 H   0  0  0  0  0  0  0  0  0  0  0  0
   -1.8260   21.6400  -31.1780 H   0  0  0  0  0  0  0  0  0  0  0  0
   -1.5029   21.5721  -33.9978 H   0  0  0  0  0  0  0  0  0  0  0  0
   -1.0965   20.0018  -33.1988 H   0  0  0  0  0  0  0  0  0  0  0  0
   -3.7113   21.4005  -33.4765 H   0  0  0  0  0  0  0  0  0  0  0  0
   -3.3011   19.6281  -33.2921 H   0  0  0  0  0  0  0  0  0  0  0  0
   -3.3850   19.7530  -31.0500 H   0  0  0  0  0  0  0  0  0  0  0  0
   -2.9740   21.2860  -30.9250 H   0  0  0  0  0  0  0  0  0  0  0  0
   -4.5845   18.4549  -32.3182 H   0  0  0  0  0  0  0  0  0  0  0  0
   -6.3202   16.8484  -33.0575 H   0  0  0  0  0  0  0  0  0  0  0  0
   -8.7183   17.4947  -33.0273 H   0  0  0  0  0  0  0  0  0  0  0  0
   -9.3959   19.7235  -32.1785 H   0  0  0  0  0  0  0  0  0  0  0  0
   -9.2729   21.8366  -29.7385 H   0  0  0  0  0  0  0  0  0  0  0  0
   -9.5110   22.7840  -31.2459 H   0  0  0  0  0  0  0  0  0  0  0  0
   -9.7937   21.0101  -31.2459 H   0  0  0  0  0  0  0  0  0  0  0  0
   -8.3080   24.1861  -30.9716 H   0  0  0  0  0  0  0  0  0  0  0  0
   -6.6864   25.9789  -30.4549 H   0  0  0  0  0  0  0  0  0  0  0  0
   -4.3113   25.4255  -30.0300 H   0  0  0  0  0  0  0  0  0  0  0  0
   -2.7597   24.5529  -28.8628 H   0  0  0  0  0  0  0  0  0  0  0  0
   -2.6318   22.8782  -28.2019 H   0  0  0  0  0  0  0  0  0  0  0  0
   -0.5405   22.5092  -29.1559 H   0  0  0  0  0  0  0  0  0  0  0  0
   -0.8108   23.7282  -30.4609 H   0  0  0  0  0  0  0  0  0  0  0  0
   -1.0263   25.2477  -26.7785 H   0  0  0  0  0  0  0  0  0  0  0  0
   -0.9972   26.4355  -28.1257 H   0  0  0  0  0  0  0  0  0  0  0  0
   -2.2061   25.1069  -28.1257 H   0  0  0  0  0  0  0  0  0  0  0  0
    0.3639   24.1027  -26.6163 H   0  0  0  0  0  0  0  0  0  0  0  0
    0.6670   22.7875  -27.8016 H   0  0  0  0  0  0  0  0  0  0  0  0
    1.7051   24.2534  -27.8016 H   0  0  0  0  0  0  0  0  0  0  0  0
  1  2  1  0
  2  3  1  0
  3  4  1  0
  4  5  1  0
  5  6  1  0
  6  7  1  0
  7  8  1  0
  8  9  1  0
  9 10  1  0
 10 11  1  0
 11 12  2  0
 12 13  1  0
 13 14  2  0
 14 15  1  0
 15 16  2  0
 16 17  1  0
 17 18  2  0
 18 19  1  0
 18 20  1  0
 20 21  2  0
 21 22  1  0
 22 23  2  0
 23 24  1  0
 24 25  1  0
 25 26  1  0
 26 27  1  0
 27 28  1  0
 28 29  1  0
 28 30  1  0
 24 31  2  0
 31 11  1  0
 17 12  1  0
 31 20  1  0
  1 32  1  0
  1 33  1  0
  1 34  1  0
  2 35  1  0
  2 36  1  0
  3 37  1  0
  4 38  1  0
  4 39  1  0
  5 40  1  0
  5 41  1  0
  6 42  1  0
  6 43  1  0
  7 44  1  0
  8 45  1  0
  8 46  1  0
  9 47  1  0
  9 48  1  0
 10 49  1  0
 10 50  1  0
 13 51  1  0
 14 52  1  0
 15 53  1  0
 16 54  1  0
 19 55  1  0
 19 56  1  0
 19 57  1  0
 21 58  1  0
 22 59  1  0
 23 60  1  0
 26 61  1  0
 26 62  1  0
 27 63  1  0
 27 64  1  0
 29 65  1  0
 29 66  1  0
 29 67  1  0
 30 68  1  0
 30 69  1  0
 30 70  1  0
M  CHG  2  10   1  18   1
M  END
>  <UniqueID>  (2) 
2

>  <SMILES>  (2) 
CCNCCCNCC[NH2+]c1c2ccccc2[n+](C)c2cccc(OCCN(C)C)c12

>  <Energy>  (2) 
102.53630881156175

>  <Genealogy>  (2) 
CCNCCCNCC[NH2+]c1c2ccccc2[n+](C)c2cccc(OCCN(C)C)c12 (protonated)
CCNCCCNCC[NH2+]c1c2ccccc2[n+](C)c2cccc(OCCN(C)C)c12 (3D coordinates assigned)
CCNCCCNCC[NH2+]c1c2ccccc2[n+](C)c2cccc(OCCN(C)C)c12 (optimized conformer: 102.53630881156175 kcal/mol)

>  <smiles>  (2) 
CCNCCCNCCNc1c2ccccc2[n+](C)c2cccc(OCCN(C)C)c12

>  <score_type>  (2) 
oracle

>  <origin>  (2) 
adg

>  <m_score__min__energy>  (2) 
-8.9399999999999995

>  <m_primary>  (2) 
energy

$$$$
2:0
     RDKit          3D

 45 46  0  0  0  0  0  0  0  0999 V2000
   -1.8340   19.4400  -33.8730 C   0  0  0  0  0  0  0  0  0  0  0  0
   -1.5180   18.1140  -33.1940 C   0  0  0  0  0  0  0  0  0  0  0  0
   -2.6440   17.1860  -33.3570 N   0  0  0  0  0  0  0  0  0  0  0  0
   -3.0580   17.0730  -34.7650 C   0  0  0  0  0  0  0  0  0  0  0  0
   -4.4470   17.6830  -34.9620 C   0  0  0  0  0  0  0  0  0  0  0  0
   -5.0320   18.0720  -33.6800 N   0  0  0  0  0  0  0  0  0  0  0  0
   -6.0960   19.0310  -33.5750 C   0  0  0  0  0  0  0  0  0  0  0  0
   -6.4870   19.6600  -34.5960 O   0  0  0  0  0  0  0  0  0  0  0  0
   -6.7950   19.2360  -32.2610 C   0  0  0  0  0  0  0  0  0  0  0  0
   -6.7160   20.6860  -31.8140 C   0  0  0  0  0  0  0  0  0  0  0  0
   -7.9020   21.4470  -31.7000 C   0  0  0  0  0  0  0  0  0  0  0  0
   -9.4820   20.8020  -32.1270 Cl  0  0  0  0  0  0  0  0  0  0  0  0
   -7.8520   22.7260  -31.2580 N   0  0  0  0  0  0  0  0  0  0  0  0
   -6.6940   23.3310  -30.9030 C   0  0  0  0  0  0  0  0  0  0  0  0
   -6.7290   24.6440  -30.4250 C   0  0  0  0  0  0  0  0  0  0  0  0
   -5.5540   25.2850  -30.0360 C   0  0  0  0  0  0  0  0  0  0  0  0
   -4.3230   24.6110  -30.1130 C   0  0  0  0  0  0  0  0  0  0  0  0
   -3.1150   25.2080  -29.7190 O   0  0  0  0  0  0  0  0  0  0  0  0
   -2.1700   24.6060  -28.8390 C   0  0  0  0  0  0  0  0  0  0  0  0
   -4.2870   23.2980  -30.5970 C   0  0  0  0  0  0  0  0  0  0  0  0
   -5.4680   22.6400  -31.0130 C   0  0  0  0  0  0  0  0  0  0  0  0
   -5.4690   21.3140  -31.5270 C   0  0  0  0  0  0  0  0  0  0  0  0
   -4.1560   20.5850  -31.7410 C   0  0  0  0  0  0  0  0  0  0  0  0
   -2.0173   20.2091  -33.1082 H   0  0  0  0  0  0  0  0  0  0  0  0
   -0.9828   19.7426  -34.5006 H   0  0  0  0  0  0  0  0  0  0  0  0
   -2.7302   19.3262  -34.5006 H   0  0  0  0  0  0  0  0  0  0  0  0
   -0.6170   17.6771  -33.6493 H   0  0  0  0  0  0  0  0  0  0  0  0
   -1.3465   18.2891  -32.1217 H   0  0  0  0  0  0  0  0  0  0  0  0
   -2.3290   16.2420  -33.0280 H   0  0  0  0  0  0  0  0  0  0  0  0
   -2.3346   17.6059  -35.3996 H   0  0  0  0  0  0  0  0  0  0  0  0
   -3.0923   16.0093  -35.0430 H   0  0  0  0  0  0  0  0  0  0  0  0
   -4.3622   18.5723  -35.6039 H   0  0  0  0  0  0  0  0  0  0  0  0
   -5.0979   16.9310  -35.4318 H   0  0  0  0  0  0  0  0  0  0  0  0
   -4.7480   17.5330  -32.8310 H   0  0  0  0  0  0  0  0  0  0  0  0
   -7.8520   18.9515  -32.3692 H   0  0  0  0  0  0  0  0  0  0  0  0
   -6.2995   18.6115  -31.5030 H   0  0  0  0  0  0  0  0  0  0  0  0
   -7.6899   25.1748  -30.3554 H   0  0  0  0  0  0  0  0  0  0  0  0
   -5.5902   26.3209  -29.6678 H   0  0  0  0  0  0  0  0  0  0  0  0
   -2.4671   24.7952  -27.7969 H   0  0  0  0  0  0  0  0  0  0  0  0
   -2.1392   23.5215  -29.0203 H   0  0  0  0  0  0  0  0  0  0  0  0
   -1.1741   25.0365  -29.0203 H   0  0  0  0  0  0  0  0  0  0  0  0
   -3.3242   22.7691  -30.6548 H   0  0  0  0  0  0  0  0  0  0  0  0
   -3.7107   20.3378  -30.7660 H   0  0  0  0  0  0  0  0  0  0  0  0
   -4.3386   19.6591  -32.3061 H   0  0  0  0  0  0  0  0  0  0  0  0
   -3.4666   21.2295  -32.3061 H   0  0  0  0  0  0  0  0  0  0  0  0
  1  2  1  0
  2  3  1  0
  3  4  1  0
  4  5  1  0
  5  6  1  0
  6  7  1  0
  7  8  2  0
  7  9  1  0
  9 10  1  0
 10 11  2  0
 11 12  1  0
 11 13  1  0
 13 14  2  0
 14 15  1  0
 15 16  2  0
 16 17  1  0
 17 18  1  0
 18 19  1  0
 17 20  2  0
 20 21  1  0
 21 22  2  0
 22 23  1  0
 22 10  1  0
 21 14  1  0
  1 24  1  0
  1 25  1  0
  1 26  1  0
  2 27  1  0
  2 28  1  0
  3 29  1  0
  4 30  1  0
  4 31  1  0
  5 32  1  0
  5 33  1  0
  6 34  1  0
  9 35  1  0
  9 36  1  0
 15 37  1  0
 16 38  1  0
 19 39  1  0
 19 40  1  0
 19 41  1  0
 20 42  1  0
 23 43  1  0
 23 44  1  0
 23 45  1  0
M  END
>  <UniqueID>  (3) 
3

>  <SMILES>  (3) 
CCNCCNC(=O)Cc1c(Cl)nc2ccc(OC)cc2c1C

>  <Energy>  (3) 
46.126199735462166

>  <Genealogy>  (3) 
CCNCCNC(=O)Cc1c(Cl)nc2ccc(OC)cc2c1C (3D coordinates assigned)
CCNCCNC(=O)Cc1c(Cl)nc2ccc(OC)cc2c1C (optimized conformer: 46.126199735462166 kcal/mol)

>  <smiles>  (3) 
CCNCCNC(=O)Cc1c(Cl)nc2ccc(OC)cc2c1C

>  <score_type>  (3) 
oracle

>  <origin>  (3) 
adg

>  <m_score__min__energy>  (3) 
-8.2200000000000006

>  <m_primary>  (3) 
energy

$$$$
3:0
     RDKit          3D

 66 68  0  0  0  0  0  0  0  0999 V2000
   -6.8540   16.7870  -33.4650 C   0  0  0  0  0  0  0  0  0  0  0  0
   -5.8280   17.5780  -34.2860 C   0  0  0  0  0  0  0  0  0  0  0  0
   -4.5290   17.6700  -33.5730 N   0  0  0  0  0  0  0  0  0  0  0  0
   -3.8400   16.3600  -33.5890 C   0  0  0  0  0  0  0  0  0  0  0  0
   -3.6760   18.7080  -34.2010 C   0  0  0  0  0  0  0  0  0  0  0  0
   -3.5680   19.9680  -33.3260 C   0  0  0  0  0  0  0  0  0  0  0  0
   -4.2080   19.7710  -32.0130 N   0  0  0  0  0  0  0  0  0  0  0  0
   -4.9100   20.9730  -31.5950 C   0  0  0  0  0  0  0  0  0  0  0  0
   -6.3160   21.0820  -31.7510 C   0  0  0  0  0  0  0  0  0  0  0  0
   -7.0710   20.0980  -32.4370 C   0  0  0  0  0  0  0  0  0  0  0  0
   -8.4600   20.1750  -32.4980 C   0  0  0  0  0  0  0  0  0  0  0  0
   -9.1280   21.2180  -31.8770 C   0  0  0  0  0  0  0  0  0  0  0  0
   -8.4120   22.2290  -31.2480 C   0  0  0  0  0  0  0  0  0  0  0  0
   -6.9950   22.2180  -31.2230 C   0  0  0  0  0  0  0  0  0  0  0  0
   -6.2780   23.2790  -30.7010 N   0  0  0  0  0  0  0  0  0  0  0  0
   -6.9620   24.5730  -30.4590 C   0  0  0  0  0  0  0  0  0  0  0  0
   -4.9210   23.1680  -30.4840 C   0  0  0  0  0  0  0  0  0  0  0  0
   -4.2060   24.1550  -29.7610 C   0  0  0  0  0  0  0  0  0  0  0  0
   -2.8190   24.1460  -29.6830 C   0  0  0  0  0  0  0  0  0  0  0  0
   -2.1910   25.2280  -29.0390 O   0  0  0  0  0  0  0  0  0  0  0  0
   -0.9840   25.1540  -28.2840 C   0  0  0  0  0  0  0  0  0  0  0  0
   -0.9930   26.1760  -27.1190 C   0  0  0  0  0  0  0  0  0  0  0  0
   -1.5130   25.6410  -25.8160 N   0  0  0  0  0  0  0  0  0  0  0  0
   -2.9420   25.2870  -25.9930 C   0  0  0  0  0  0  0  0  0  0  0  0
   -0.7900   24.4120  -25.3910 C   0  0  0  0  0  0  0  0  0  0  0  0
   -1.4130   26.6780  -24.7540 C   0  0  0  0  0  0  0  0  0  0  0  0
   -2.1120   23.0830  -30.2580 C   0  0  0  0  0  0  0  0  0  0  0  0
   -2.7940   22.0360  -30.8700 C   0  0  0  0  0  0  0  0  0  0  0  0
   -4.2020   22.0460  -30.9830 C   0  0  0  0  0  0  0  0  0  0  0  0
   -6.6596   16.9369  -32.3927 H   0  0  0  0  0  0  0  0  0  0  0  0
   -7.8675   17.1397  -33.7067 H   0  0  0  0  0  0  0  0  0  0  0  0
   -6.7707   15.7171  -33.7067 H   0  0  0  0  0  0  0  0  0  0  0  0
   -5.6733   17.0725  -35.2507 H   0  0  0  0  0  0  0  0  0  0  0  0
   -6.2145   18.5962  -34.4405 H   0  0  0  0  0  0  0  0  0  0  0  0
   -3.6641   16.0256  -32.5559 H   0  0  0  0  0  0  0  0  0  0  0  0
   -4.4668   15.6224  -34.1115 H   0  0  0  0  0  0  0  0  0  0  0  0
   -2.8770   16.4585  -34.1115 H   0  0  0  0  0  0  0  0  0  0  0  0
   -2.6683   18.2947  -34.3552 H   0  0  0  0  0  0  0  0  0  0  0  0
   -4.1373   18.9956  -35.1573 H   0  0  0  0  0  0  0  0  0  0  0  0
   -2.5052   20.2069  -33.1732 H   0  0  0  0  0  0  0  0  0  0  0  0
   -4.0845   20.7911  -33.8414 H   0  0  0  0  0  0  0  0  0  0  0  0
   -3.5040   19.4930  -31.2920 H   0  0  0  0  0  0  0  0  0  0  0  0
   -4.8460   18.9460  -32.0330 H   0  0  0  0  0  0  0  0  0  0  0  0
   -6.5523   19.2616  -32.9282 H   0  0  0  0  0  0  0  0  0  0  0  0
   -9.0286   19.4055  -33.0408 H   0  0  0  0  0  0  0  0  0  0  0  0
  -10.2276   21.2457  -31.8820 H   0  0  0  0  0  0  0  0  0  0  0  0
   -8.9546   23.0526  -30.7608 H   0  0  0  0  0  0  0  0  0  0  0  0
   -7.0520   24.7433  -29.3760 H   0  0  0  0  0  0  0  0  0  0  0  0
   -6.3765   25.3873  -30.9108 H   0  0  0  0  0  0  0  0  0  0  0  0
   -7.9646   24.5479  -30.9108 H   0  0  0  0  0  0  0  0  0  0  0  0
   -4.7650   24.9508  -29.2470 H   0  0  0  0  0  0  0  0  0  0  0  0
   -0.8795   24.1396  -27.8716 H   0  0  0  0  0  0  0  0  0  0  0  0
   -0.1400   25.3889  -28.9492 H   0  0  0  0  0  0  0  0  0  0  0  0
    0.0389   26.5221  -26.9594 H   0  0  0  0  0  0  0  0  0  0  0  0
   -1.6794   26.9815  -27.4190 H   0  0  0  0  0  0  0  0  0  0  0  0
   -3.4155   25.1697  -25.0071 H   0  0  0  0  0  0  0  0  0  0  0  0
   -3.4512   26.0861  -26.5516 H   0  0  0  0  0  0  0  0  0  0  0  0
   -3.0193   24.3426  -26.5516 H   0  0  0  0  0  0  0  0  0  0  0  0
   -0.7620   24.3645  -24.2924 H   0  0  0  0  0  0  0  0  0  0  0  0
   -1.3108   23.5261  -25.7832 H   0  0  0  0  0  0  0  0  0  0  0  0
    0.2374   24.4369  -25.7832 H   0  0  0  0  0  0  0  0  0  0  0  0
   -1.4594   26.1967  -23.7660 H   0  0  0  0  0  0  0  0  0  0  0  0
   -0.4588   27.2158  -24.8554 H   0  0  0  0  0  0  0  0  0  0  0  0
   -2.2468   27.3883  -24.8554 H   0  0  0  0  0  0  0  0  0  0  0  0
   -1.0125   23.0756  -30.2257 H   0  0  0  0  0  0  0  0  0  0  0  0
   -2.2262   21.1846  -31.2734 H   0  0  0  0  0  0  0  0  0  0  0  0
  1  2  1  0
  2  3  1  0
  3  4  1  0
  3  5  1  0
  5  6  1  0
  6  7  1  0
  7  8  1  0
  8  9  2  0
  9 10  1  0
 10 11  2  0
 11 12  1  0
 12 13  2  0
 13 14  1  0
 14 15  2  0
 15 16  1  0
 15 17  1  0
 17 18  2  0
 18 19  1  0
 19 20  1  0
 20 21  1  0
 21 22  1  0
 22 23  1  0
 23 24  1  0
 23 25  1  0
 23 26  1  0
 19 27  2  0
 27 28  1  0
 28 29  2  0
 29  8  1  0
 14  9  1  0
 29 17  1  0
  1 30  1  0
  1 31  1  0
  1 32  1  0
  2 33  1  0
  2 34  1  0
  4 35  1  0
  4 36  1  0
  4 37  1  0
  5 38  1  0
  5 39  1  0
  6 40  1  0
  6 41  1  0
  7 42  1  0
  7 43  1  0
 10 44  1  0
 11 45  1  0
 12 46  1  0
 13 47  1  0
 16 48  1  0
 16 49  1  0
 16 50  1  0
 18 51  1  0
 21 52  1  0
 21 53  1  0
 22 54  1  0
 22 55  1  0
 24 56  1  0
 24 57  1  0
 24 58  1  0
 25 59  1  0
 25 60  1  0
 25 61  1  0
 26 62  1  0
 26 63  1  0
 26 64  1  0
 27 65  1  0
 28 66  1  0
M  CHG  3   7   1  15   1  23   1
M  END
>  <UniqueID>  (4) 
4

>  <SMILES>  (4) 
CCN(C)CC[NH2+]c1c2ccccc2[n+](C)c2cc(OCC[N+](C)(C)C)ccc12

>  <Energy>  (4) 
103.74538572752614

>  <Genealogy>  (4) 
CCN(C)CC[NH2+]c1c2ccccc2[n+](C)c2cc(OCC[N+](C)(C)C)ccc12 (protonated)
CCN(C)CC[NH2+]c1c2ccccc2[n+](C)c2cc(OCC[N+](C)(C)C)ccc12 (3D coordinates assigned)
CCN(C)CC[NH2+]c1c2ccccc2[n+](C)c2cc(OCC[N+](C)(C)C)ccc12 (optimized conformer: 103.74538572752614 kcal/mol)

>  <smiles>  (4) 
CCN(C)CCNc1c2ccccc2[n+](C)c2cc(OCC[N+](C)(C)C)ccc12

>  <score_type>  (4) 
oracle

>  <origin>  (4) 
adg

>  <m_score__min__energy>  (4) 
-7.5499999999999998

>  <m_primary>  (4) 
energy

$$$$
4:0
     RDKit          3D

 48 50  0  0  0  0  0  0  0  0999 V2000
   -6.1780   25.6760  -29.5910 C   0  0  0  0  0  0  0  0  0  0  0  0
   -5.5010   24.9560  -30.7520 C   0  0  0  0  0  0  0  0  0  0  0  0
   -6.2620   23.7210  -31.1400 C   0  0  0  0  0  0  0  0  0  0  0  0
   -7.6120   23.6760  -31.2650 N   0  0  0  0  0  0  0  0  0  0  0  0
   -7.8560   22.3900  -31.6000 C   0  0  0  0  0  0  0  0  0  0  0  0
   -9.1110   21.8320  -31.8260 C   0  0  0  0  0  0  0  0  0  0  0  0
   -9.1730   20.4640  -32.1340 C   0  0  0  0  0  0  0  0  0  0  0  0
   -7.9910   19.6880  -32.2070 C   0  0  0  0  0  0  0  0  0  0  0  0
   -8.0570   18.2080  -32.4980 C   0  0  0  0  0  0  0  0  0  0  0  0
   -6.7180   17.6410  -32.7860 N   0  0  0  0  0  0  0  0  0  0  0  0
   -6.8310   16.5830  -33.8050 C   0  0  0  0  0  0  0  0  0  0  0  0
   -6.0930   17.0930  -31.5680 C   0  0  0  0  0  0  0  0  0  0  0  0
   -6.7520   20.3100  -31.9650 C   0  0  0  0  0  0  0  0  0  0  0  0
   -6.7450   21.6380  -31.6810 N   0  0  0  0  0  0  0  0  0  0  0  0
   -5.7330   22.4660  -31.3910 C   0  0  0  0  0  0  0  0  0  0  0  0
   -4.3530   22.0830  -31.3270 N   0  0  0  0  0  0  0  0  0  0  0  0
   -3.5100   22.2800  -32.5040 C   0  0  0  0  0  0  0  0  0  0  0  0
   -3.8080   21.5480  -30.0760 C   0  0  0  0  0  0  0  0  0  0  0  0
   -3.4820   22.6680  -29.1410 C   0  0  0  0  0  0  0  0  0  0  0  0
   -4.2260   23.0300  -28.0250 C   0  0  0  0  0  0  0  0  0  0  0  0
   -3.7310   24.1710  -27.3840 C   0  0  0  0  0  0  0  0  0  0  0  0
   -2.6050   24.7100  -27.9950 C   0  0  0  0  0  0  0  0  0  0  0  0
   -2.2300   23.7700  -29.3390 S   0  0  0  0  0  0  0  0  0  0  0  0
   -5.7998   25.2738  -28.6396 H   0  0  0  0  0  0  0  0  0  0  0  0
   -5.9570   26.7521  -29.6479 H   0  0  0  0  0  0  0  0  0  0  0  0
   -7.2656   25.5216  -29.6479 H   0  0  0  0  0  0  0  0  0  0  0  0
   -5.4527   25.6346  -31.6164 H   0  0  0  0  0  0  0  0  0  0  0  0
   -4.4899   24.6587  -30.4368 H   0  0  0  0  0  0  0  0  0  0  0  0
  -10.0238   22.4428  -31.7652 H   0  0  0  0  0  0  0  0  0  0  0  0
  -10.1483   19.9907  -32.3203 H   0  0  0  0  0  0  0  0  0  0  0  0
   -8.4811   17.6923  -31.6238 H   0  0  0  0  0  0  0  0  0  0  0  0
   -8.6871   18.0633  -33.3880 H   0  0  0  0  0  0  0  0  0  0  0  0
   -6.0980   18.3920  -33.1720 H   0  0  0  0  0  0  0  0  0  0  0  0
   -6.9353   15.6064  -33.3096 H   0  0  0  0  0  0  0  0  0  0  0  0
   -7.7141   16.7717  -34.4331 H   0  0  0  0  0  0  0  0  0  0  0  0
   -5.9280   16.5809  -34.4331 H   0  0  0  0  0  0  0  0  0  0  0  0
   -6.5817   17.5215  -30.6805 H   0  0  0  0  0  0  0  0  0  0  0  0
   -6.2077   15.9990  -31.5574 H   0  0  0  0  0  0  0  0  0  0  0  0
   -5.0234   17.3497  -31.5574 H   0  0  0  0  0  0  0  0  0  0  0  0
   -5.8145   19.7360  -32.0048 H   0  0  0  0  0  0  0  0  0  0  0  0
   -2.4849   22.5196  -32.1849 H   0  0  0  0  0  0  0  0  0  0  0  0
   -3.5008   21.3598  -33.1066 H   0  0  0  0  0  0  0  0  0  0  0  0
   -3.9096   23.1090  -33.1066 H   0  0  0  0  0  0  0  0  0  0  0  0
   -4.5521   20.8871  -29.6075 H   0  0  0  0  0  0  0  0  0  0  0  0
   -2.8910   20.9810  -30.2945 H   0  0  0  0  0  0  0  0  0  0  0  0
   -5.1124   22.4769  -27.6809 H   0  0  0  0  0  0  0  0  0  0  0  0
   -4.1898   24.6010  -26.4814 H   0  0  0  0  0  0  0  0  0  0  0  0
   -2.0531   25.5996  -27.6574 H   0  0  0  0  0  0  0  0  0  0  0  0
  1  2  1  0
  2  3  1  0
  3  4  1  0
  4  5  2  0
  5  6  1  0
  6  7  2  0
  7  8  1  0
  8  9  1  0
  9 10  1  0
 10 11  1  0
 10 12  1  0
  8 13  2  0
 13 14  1  0
 14 15  1  0
 15 16  1  0
 16 17  1  0
 16 18  1  0
 18 19  1  0
 19 20  2  0
 20 21  1  0
 21 22  2  0
 22 23  1  0
 15  3  2  0
 23 19  1  0
 14  5  1  0
  1 24  1  0
  1 25  1  0
  1 26  1  0
  2 27  1  0
  2 28  1  0
  6 29  1  0
  7 30  1  0
  9 31  1  0
  9 32  1  0
 10 33  1  0
 11 34  1  0
 11 35  1  0
 11 36  1  0
 12 37  1  0
 12 38  1  0
 12 39  1  0
 13 40  1  0
 17 41  1  0
 17 42  1  0
 17 43  1  0
 18 44  1  0
 18 45  1  0
 20 46  1  0
 21 47  1  0
 22 48  1  0
M  CHG  1  10   1
M  END
>  <UniqueID>  (5) 
5

>  <SMILES>  (5) 
CCc1nc2ccc(C[NH+](C)C)cn2c1N(C)Cc1cccs1

>  <Energy>  (5) 
107.17861420147722

>  <Genealogy>  (5) 
CCc1nc2ccc(C[NH+](C)C)cn2c1N(C)Cc1cccs1 (protonated)
CCc1nc2ccc(C[NH+](C)C)cn2c1N(C)Cc1cccs1 (3D coordinates assigned)
CCc1nc2ccc(C[NH+](C)C)cn2c1N(C)Cc1cccs1 (optimized conformer: 107.17861420147722 kcal/mol)

>  <smiles>  (5) 
CCc1nc2ccc(CN(C)C)cn2c1N(C)Cc1cccs1

>  <score_type>  (5) 
oracle

>  <origin>  (5) 
adg

>  <m_score__min__energy>  (5) 
-6.6799999999999997

>  <m_primary>  (5) 
energy

$$$$
5:0
     RDKit          3D

 62 64  0  0  0  0  0  0  0  0999 V2000
   -2.8920   17.2680  -34.9200 C   0  0  0  0  0  0  0  0  0  0  0  0
   -4.2700   16.7560  -35.3370 C   0  0  0  0  0  0  0  0  0  0  0  0
   -5.3440   17.8560  -35.3010 C   0  0  0  0  0  0  0  0  0  0  0  0
   -6.0380   17.8870  -34.0040 N   0  0  0  0  0  0  0  0  0  0  0  0
   -6.5150   16.6480  -33.3730 C   0  0  0  0  0  0  0  0  0  0  0  0
   -5.7170   16.3240  -32.0990 C   0  0  0  0  0  0  0  0  0  0  0  0
   -4.6810   15.2220  -32.3230 C   0  0  0  0  0  0  0  0  0  0  0  0
   -6.0440   19.1030  -33.2450 C   0  0  0  0  0  0  0  0  0  0  0  0
   -7.2050   19.8000  -33.0420 N   0  0  0  0  0  0  0  0  0  0  0  0
   -7.2110   20.9780  -32.3330 C   0  0  0  0  0  0  0  0  0  0  0  0
   -8.4870   21.7360  -32.1520 C   0  0  0  0  0  0  0  0  0  0  0  0
   -6.0460   21.4840  -31.8240 N   0  0  0  0  0  0  0  0  0  0  0  0
   -4.9040   20.7810  -32.0130 C   0  0  0  0  0  0  0  0  0  0  0  0
   -4.8730   19.6250  -32.7110 C   0  0  0  0  0  0  0  0  0  0  0  0
   -3.6130   19.1640  -32.8110 N   0  0  0  0  0  0  0  0  0  0  0  0
   -2.8960   20.1050  -32.1380 C   0  0  0  0  0  0  0  0  0  0  0  0
   -3.6610   21.1120  -31.6350 N   0  0  0  0  0  0  0  0  0  0  0  0
   -3.2150   22.2640  -30.8950 C   0  0  0  0  0  0  0  0  0  0  0  0
   -1.8970   22.3450  -30.4140 C   0  0  0  0  0  0  0  0  0  0  0  0
   -1.4690   23.4670  -29.7000 C   0  0  0  0  0  0  0  0  0  0  0  0
   -2.3530   24.5360  -29.4580 C   0  0  0  0  0  0  0  0  0  0  0  0
   -1.9800   25.6880  -28.7470 O   0  0  0  0  0  0  0  0  0  0  0  0
   -0.7340   25.8820  -28.0740 C   0  0  0  0  0  0  0  0  0  0  0  0
   -0.9210   26.7080  -26.7950 C   0  0  0  0  0  0  0  0  0  0  0  0
   -1.3640   25.8540  -25.6720 N   0  0  0  0  0  0  0  0  0  0  0  0
   -1.2260   26.5570  -24.3840 C   0  0  0  0  0  0  0  0  0  0  0  0
   -2.7650   25.4460  -25.8610 C   0  0  0  0  0  0  0  0  0  0  0  0
   -3.6650   24.4540  -29.9360 C   0  0  0  0  0  0  0  0  0  0  0  0
   -4.0930   23.3330  -30.6530 C   0  0  0  0  0  0  0  0  0  0  0  0
   -2.8266   17.2923  -33.8222 H   0  0  0  0  0  0  0  0  0  0  0  0
   -2.1159   16.5982  -35.3188 H   0  0  0  0  0  0  0  0  0  0  0  0
   -2.7415   18.2821  -35.3188 H   0  0  0  0  0  0  0  0  0  0  0  0
   -4.2041   16.3610  -36.3615 H   0  0  0  0  0  0  0  0  0  0  0  0
   -4.5671   15.9760  -34.6205 H   0  0  0  0  0  0  0  0  0  0  0  0
   -4.8639   18.8306  -35.4733 H   0  0  0  0  0  0  0  0  0  0  0  0
   -6.0852   17.6417  -36.0850 H   0  0  0  0  0  0  0  0  0  0  0  0
   -7.5766   16.7660  -33.1101 H   0  0  0  0  0  0  0  0  0  0  0  0
   -6.3790   15.8217  -34.0862 H   0  0  0  0  0  0  0  0  0  0  0  0
   -5.1973   17.2348  -31.7668 H   0  0  0  0  0  0  0  0  0  0  0  0
   -6.4284   15.9656  -31.3404 H   0  0  0  0  0  0  0  0  0  0  0  0
   -4.3285   14.8470  -31.3508 H   0  0  0  0  0  0  0  0  0  0  0  0
   -5.1390   14.3979  -32.8897 H   0  0  0  0  0  0  0  0  0  0  0  0
   -3.8302   15.6283  -32.8897 H   0  0  0  0  0  0  0  0  0  0  0  0
   -8.0960   19.4320  -33.4420 H   0  0  0  0  0  0  0  0  0  0  0  0
   -8.6920   21.8578  -31.0781 H   0  0  0  0  0  0  0  0  0  0  0  0
   -8.3952   22.7261  -32.6223 H   0  0  0  0  0  0  0  0  0  0  0  0
   -9.3126   21.1818  -32.6223 H   0  0  0  0  0  0  0  0  0  0  0  0
   -1.8042   20.0563  -32.0128 H   0  0  0  0  0  0  0  0  0  0  0  0
   -1.1964   21.5179  -30.6013 H   0  0  0  0  0  0  0  0  0  0  0  0
   -0.4361   23.5156  -29.3249 H   0  0  0  0  0  0  0  0  0  0  0  0
   -0.3116   24.9013  -27.8099 H   0  0  0  0  0  0  0  0  0  0  0  0
   -0.0546   26.4268  -28.7460 H   0  0  0  0  0  0  0  0  0  0  0  0
    0.0354   27.1826  -26.5303 H   0  0  0  0  0  0  0  0  0  0  0  0
   -1.6917   27.4707  -26.9802 H   0  0  0  0  0  0  0  0  0  0  0  0
   -1.3662   25.8425  -23.5595 H   0  0  0  0  0  0  0  0  0  0  0  0
   -0.2231   27.0036  -24.3156 H   0  0  0  0  0  0  0  0  0  0  0  0
   -1.9857   27.3496  -24.3156 H   0  0  0  0  0  0  0  0  0  0  0  0
   -3.2420   25.3071  -24.8796 H   0  0  0  0  0  0  0  0  0  0  0  0
   -3.3013   26.2253  -26.4223 H   0  0  0  0  0  0  0  0  0  0  0  0
   -2.7991   24.5006  -26.4223 H   0  0  0  0  0  0  0  0  0  0  0  0
   -4.3667   25.2795  -29.7459 H   0  0  0  0  0  0  0  0  0  0  0  0
   -5.1252   23.2878  -31.0305 H   0  0  0  0  0  0  0  0  0  0  0  0
  1  2  1  0
  2  3  1  0
  3  4  1  0
  4  5  1  0
  5  6  1  0
  6  7  1  0
  4  8  1  0
  8  9  2  0
  9 10  1  0
 10 11  1  0
 10 12  2  0
 12 13  1  0
 13 14  2  0
 14 15  1  0
 15 16  2  0
 16 17  1  0
 17 18  1  0
 18 19  2  0
 19 20  1  0
 20 21  2  0
 21 22  1  0
 22 23  1  0
 23 24  1  0
 24 25  1  0
 25 26  1  0
 25 27  1  0
 21 28  1  0
 28 29  2  0
 14  8  1  0
 29 18  1  0
 17 13  1  0
  1 30  1  0
  1 31  1  0
  1 32  1  0
  2 33  1  0
  2 34  1  0
  3 35  1  0
  3 36  1  0
  5 37  1  0
  5 38  1  0
  6 39  1  0
  6 40  1  0
  7 41  1  0
  7 42  1  0
  7 43  1  0
  9 44  1  0
 11 45  1  0
 11 46  1  0
 11 47  1  0
 16 48  1  0
 19 49  1  0
 20 50  1  0
 23 51  1  0
 23 52  1  0
 24 53  1  0
 24 54  1  0
 26 55  1  0
 26 56  1  0
 26 57  1  0
 27 58  1  0
 27 59  1  0
 27 60  1  0
 28 61  1  0
 29 62  1  0
M  CHG  1   9   1
M  END
>  <UniqueID>  (6) 
6

>  <SMILES>  (6) 
CCCN(CCC)c1[nH+]c(C)nc2c1ncn2-c1ccc(OCCN(C)C)cc1

>  <Energy>  (6) 
102.83461023481058

>  <Genealogy>  (6) 
CCCN(CCC)c1[nH+]c(C)nc2c1ncn2-c1ccc(OCCN(C)C)cc1 (protonated)
CCCN(CCC)c1[nH+]c(C)nc2c1ncn2-c1ccc(OCCN(C)C)cc1 (3D coordinates assigned)
CCCN(CCC)c1[nH+]c(C)nc2c1ncn2-c1ccc(OCCN(C)C)cc1 (optimized conformer: 102.83461023481058 kcal/mol)

>  <smiles>  (6) 
CCCN(CCC)c1nc(C)nc2c1ncn2-c1ccc(OCCN(C)C)cc1

>  <score_type>  (6) 
oracle

>  <origin>  (6) 
adg

>  <m_score__min__energy>  (6) 
-6.6600000000000001

>  <m_primary>  (6) 
energy

$$$$
6:0
     RDKit          3D

 55 57  0  0  0  0  0  0  0  0999 V2000
   -0.8470   21.2350  -33.1950 C   0  0  0  0  0  0  0  0  0  0  0  0
   -2.2460   20.8940  -33.7020 C   0  0  0  0  0  0  0  0  0  0  0  0
   -3.2460   21.4590  -32.8500 O   0  0  0  0  0  0  0  0  0  0  0  0
   -4.5780   21.0210  -32.7390 C   0  0  0  0  0  0  0  0  0  0  0  0
   -5.0650   19.9070  -33.4530 C   0  0  0  0  0  0  0  0  0  0  0  0
   -6.4030   19.5250  -33.3420 C   0  0  0  0  0  0  0  0  0  0  0  0
   -7.2750   20.2450  -32.5230 C   0  0  0  0  0  0  0  0  0  0  0  0
   -9.1050   19.7160  -32.3700 Br  0  0  0  0  0  0  0  0  0  0  0  0
   -6.8040   21.3450  -31.8040 C   0  0  0  0  0  0  0  0  0  0  0  0
   -5.4610   21.7410  -31.9060 C   0  0  0  0  0  0  0  0  0  0  0  0
   -4.9760   22.8880  -31.1130 C   0  0  0  0  0  0  0  0  0  0  0  0
   -5.4370   24.1880  -31.2230 C   0  0  0  0  0  0  0  0  0  0  0  0
   -4.7560   24.9250  -30.2770 C   0  0  0  0  0  0  0  0  0  0  0  0
   -3.9010   24.1320  -29.6010 N   0  0  0  0  0  0  0  0  0  0  0  0
   -3.0880   24.5520  -28.4620 C   0  0  0  0  0  0  0  0  0  0  0  0
   -4.0240   22.8810  -30.1020 C   0  0  0  0  0  0  0  0  0  0  0  0
   -3.3970   21.6550  -29.4910 C   0  0  0  0  0  0  0  0  0  0  0  0
   -2.1920   21.2920  -30.2420 N   0  0  0  0  0  0  0  0  0  0  0  0
   -1.0090   21.9390  -29.6600 C   0  0  0  0  0  0  0  0  0  0  0  0
   -0.0830   20.8910  -29.0110 C   0  0  0  0  0  0  0  0  0  0  0  0
   -0.4780   19.4900  -29.3140 N   0  0  0  0  0  0  0  0  0  0  0  0
   -0.4860   18.6540  -28.0870 C   0  0  0  0  0  0  0  0  0  0  0  0
    0.8570   17.9290  -27.8480 C   0  0  0  0  0  0  0  0  0  0  0  0
    1.9260   18.6310  -28.4400 O   0  0  0  0  0  0  0  0  0  0  0  0
    1.8060   18.6170  -29.8540 C   0  0  0  0  0  0  0  0  0  0  0  0
    0.3620   18.8520  -30.3510 C   0  0  0  0  0  0  0  0  0  0  0  0
   -0.8456   21.2353  -32.0950 H   0  0  0  0  0  0  0  0  0  0  0  0
   -0.1310   20.4851  -33.5623 H   0  0  0  0  0  0  0  0  0  0  0  0
   -0.5564   22.2303  -33.5623 H   0  0  0  0  0  0  0  0  0  0  0  0
   -2.3692   21.2958  -34.7186 H   0  0  0  0  0  0  0  0  0  0  0  0
   -2.3629   19.8002  -33.7062 H   0  0  0  0  0  0  0  0  0  0  0  0
   -4.3858   19.3349  -34.1021 H   0  0  0  0  0  0  0  0  0  0  0  0
   -6.7719   18.6531  -33.9021 H   0  0  0  0  0  0  0  0  0  0  0  0
   -7.4904   21.9058  -31.1526 H   0  0  0  0  0  0  0  0  0  0  0  0
   -6.1967   24.5601  -31.9262 H   0  0  0  0  0  0  0  0  0  0  0  0
   -4.8908   26.0023  -30.1000 H   0  0  0  0  0  0  0  0  0  0  0  0
   -3.6023   24.2863  -27.5266 H   0  0  0  0  0  0  0  0  0  0  0  0
   -2.1126   24.0450  -28.5009 H   0  0  0  0  0  0  0  0  0  0  0  0
   -2.9370   25.6409  -28.5009 H   0  0  0  0  0  0  0  0  0  0  0  0
   -3.1273   21.8644  -28.4453 H   0  0  0  0  0  0  0  0  0  0  0  0
   -4.1143   20.8218  -29.5269 H   0  0  0  0  0  0  0  0  0  0  0  0
   -2.3040   21.6480  -31.2250 H   0  0  0  0  0  0  0  0  0  0  0  0
   -0.4585   22.4666  -30.4528 H   0  0  0  0  0  0  0  0  0  0  0  0
   -1.3370   22.6500  -28.8875 H   0  0  0  0  0  0  0  0  0  0  0  0
    0.9405   21.0529  -29.3802 H   0  0  0  0  0  0  0  0  0  0  0  0
   -0.1558   21.0219  -27.9212 H   0  0  0  0  0  0  0  0  0  0  0  0
   -1.4610   19.5130  -29.6740 H   0  0  0  0  0  0  0  0  0  0  0  0
   -0.6949   19.3010  -27.2223 H   0  0  0  0  0  0  0  0  0  0  0  0
   -1.2601   17.8832  -28.2164 H   0  0  0  0  0  0  0  0  0  0  0  0
    1.0349   17.8503  -26.7653 H   0  0  0  0  0  0  0  0  0  0  0  0
    0.8003   16.9299  -28.3046 H   0  0  0  0  0  0  0  0  0  0  0  0
    2.4494   19.4083  -30.2661 H   0  0  0  0  0  0  0  0  0  0  0  0
    2.1072   17.6155  -30.1950 H   0  0  0  0  0  0  0  0  0  0  0  0
    0.3917   19.5042  -31.2363 H   0  0  0  0  0  0  0  0  0  0  0  0
   -0.0793   17.8744  -30.5952 H   0  0  0  0  0  0  0  0  0  0  0  0
  1  2  1  0
  2  3  1  0
  3  4  1  0
  4  5  2  0
  5  6  1  0
  6  7  2  0
  7  8  1  0
  7  9  1  0
  9 10  2  0
 10 11  1  0
 11 12  1  0
 12 13  2  0
 13 14  1  0
 14 15  1  0
 14 16  1  0
 16 17  1  0
 17 18  1  0
 18 19  1  0
 19 20  1  0
 20 21  1  0
 21 22  1  0
 22 23  1  0
 23 24  1  0
 24 25  1  0
 25 26  1  0
 10  4  1  0
 16 11  2  0
 26 21  1  0
  1 27  1  0
  1 28  1  0
  1 29  1  0
  2 30  1  0
  2 31  1  0
  5 32  1  0
  6 33  1  0
  9 34  1  0
 12 35  1  0
 13 36  1  0
 15 37  1  0
 15 38  1  0
 15 39  1  0
 17 40  1  0
 17 41  1  0
 18 42  1  0
 19 43  1  0
 19 44  1  0
 20 45  1  0
 20 46  1  0
 21 47  1  0
 22 48  1  0
 22 49  1  0
 23 50  1  0
 23 51  1  0
 25 52  1  0
 25 53  1  0
 26 54  1  0
 26 55  1  0
M  CHG  1  21   1
M  END
>  <UniqueID>  (7) 
7

>  <SMILES>  (7) 
CCOc1ccc(Br)cc1-c1ccn(C)c1CNCC[NH+]1CCOCC1

>  <Energy>  (7) 
95.00691353488978

>  <Genealogy>  (7) 
CCOc1ccc(Br)cc1-c1ccn(C)c1CNCC[NH+]1CCOCC1 (protonated)
CCOc1ccc(Br)cc1-c1ccn(C)c1CNCC[NH+]1CCOCC1 (3D coordinates assigned)
CCOc1ccc(Br)cc1-c1ccn(C)c1CNCC[NH+]1CCOCC1 (nonaromatic ring conformer: 95.00691353488978 kcal/mol)

>  <smiles>  (7) 
CCOc1ccc(Br)cc1-c1ccn(C)c1CNCCN1CCOCC1

>  <score_type>  (7) 
oracle

>  <origin>  (7) 
adg

>  <m_score__min__energy>  (7) 
-7.6600000000000001

>  <m_primary>  (7) 
energy

$$$$
7:0
     RDKit          3D

 59 62  0  0  0  0  0  0  0  0999 V2000
    0.3790   21.8600  -35.3440 C   0  0  0  0  0  0  0  0  0  0  0  0
    0.1180   20.3790  -35.6050 C   0  0  0  0  0  0  0  0  0  0  0  0
   -0.6360   19.7830  -34.4750 N   0  0  0  0  0  0  0  0  0  0  0  0
   -0.2020   18.3770  -34.2700 C   0  0  0  0  0  0  0  0  0  0  0  0
   -0.6350   17.8540  -32.9040 C   0  0  0  0  0  0  0  0  0  0  0  0
   -0.4310   20.5600  -33.2280 C   0  0  0  0  0  0  0  0  0  0  0  0
   -1.7460   21.1010  -32.6350 C   0  0  0  0  0  0  0  0  0  0  0  0
   -2.8460   21.1410  -33.6080 N   0  0  0  0  0  0  0  0  0  0  0  0
   -4.1420   20.5550  -33.3820 C   0  0  0  0  0  0  0  0  0  0  0  0
   -5.2150   21.2530  -32.7720 C   0  0  0  0  0  0  0  0  0  0  0  0
   -5.1410   22.6380  -32.5400 C   0  0  0  0  0  0  0  0  0  0  0  0
   -6.1720   23.3160  -31.8890 C   0  0  0  0  0  0  0  0  0  0  0  0
   -6.0310   24.7220  -31.6430 N   0  0  0  0  0  0  0  0  0  0  0  0
   -5.3610   25.3250  -30.5270 C   0  0  0  0  0  0  0  0  0  0  0  0
   -6.0860   25.6930  -29.2680 C   0  0  0  0  0  0  0  0  0  0  0  0
   -4.1310   25.5760  -30.6190 O   0  0  0  0  0  0  0  0  0  0  0  0
   -7.2780   22.6020  -31.4220 C   0  0  0  0  0  0  0  0  0  0  0  0
   -7.4070   21.2400  -31.6920 C   0  0  0  0  0  0  0  0  0  0  0  0
   -6.4200   20.5470  -32.4310 C   0  0  0  0  0  0  0  0  0  0  0  0
   -6.5920   19.2250  -32.8160 N   0  0  0  0  0  0  0  0  0  0  0  0
   -7.8980   18.5520  -32.7150 C   0  0  0  0  0  0  0  0  0  0  0  0
   -5.5290   18.5760  -33.3890 C   0  0  0  0  0  0  0  0  0  0  0  0
   -4.3540   19.2210  -33.7110 C   0  0  0  0  0  0  0  0  0  0  0  0
   -3.4610   18.3790  -34.2720 N   0  0  0  0  0  0  0  0  0  0  0  0
   -4.0650   17.1750  -34.2800 C   0  0  0  0  0  0  0  0  0  0  0  0
   -3.4930   15.9710  -34.6870 C   0  0  0  0  0  0  0  0  0  0  0  0
   -4.2370   14.7930  -34.5120 C   0  0  0  0  0  0  0  0  0  0  0  0
   -5.5120   14.8390  -33.9150 C   0  0  0  0  0  0  0  0  0  0  0  0
   -6.0690   16.0640  -33.5010 C   0  0  0  0  0  0  0  0  0  0  0  0
   -5.3330   17.2340  -33.7280 C   0  0  0  0  0  0  0  0  0  0  0  0
    0.4109   22.0411  -34.2595 H   0  0  0  0  0  0  0  0  0  0  0  0
    1.3416   22.1472  -35.7922 H   0  0  0  0  0  0  0  0  0  0  0  0
   -0.4274   22.4590  -35.7922 H   0  0  0  0  0  0  0  0  0  0  0  0
   -0.4681   20.2711  -36.5296 H   0  0  0  0  0  0  0  0  0  0  0  0
    1.0814   19.8581  -35.7071 H   0  0  0  0  0  0  0  0  0  0  0  0
   -0.6493   17.7467  -35.0527 H   0  0  0  0  0  0  0  0  0  0  0  0
    0.8963   18.3429  -34.3214 H   0  0  0  0  0  0  0  0  0  0  0  0
   -0.1468   18.4436  -32.1140 H   0  0  0  0  0  0  0  0  0  0  0  0
   -1.7270   17.9434  -32.8065 H   0  0  0  0  0  0  0  0  0  0  0  0
   -0.3434   16.7979  -32.8065 H   0  0  0  0  0  0  0  0  0  0  0  0
    0.0478   19.9077  -32.4828 H   0  0  0  0  0  0  0  0  0  0  0  0
    0.1987   21.4263  -33.4789 H   0  0  0  0  0  0  0  0  0  0  0  0
   -2.0439   20.4539  -31.7968 H   0  0  0  0  0  0  0  0  0  0  0  0
   -1.5577   22.1354  -32.3115 H   0  0  0  0  0  0  0  0  0  0  0  0
   -2.5950   21.3920  -34.5910 H   0  0  0  0  0  0  0  0  0  0  0  0
   -4.2553   23.1962  -32.8775 H   0  0  0  0  0  0  0  0  0  0  0  0
   -5.4865   25.3887  -28.3974 H   0  0  0  0  0  0  0  0  0  0  0  0
   -6.2453   26.7811  -29.2413 H   0  0  0  0  0  0  0  0  0  0  0  0
   -7.0583   25.1793  -29.2413 H   0  0  0  0  0  0  0  0  0  0  0  0
   -8.0533   23.1181  -30.8367 H   0  0  0  0  0  0  0  0  0  0  0  0
   -8.2898   20.6963  -31.3246 H   0  0  0  0  0  0  0  0  0  0  0  0
   -8.1599   18.4170  -31.6552 H   0  0  0  0  0  0  0  0  0  0  0  0
   -8.6662   19.1665  -33.2072 H   0  0  0  0  0  0  0  0  0  0  0  0
   -7.8434   17.5698  -33.2072 H   0  0  0  0  0  0  0  0  0  0  0  0
   -2.4910   18.5930  -34.5890 H   0  0  0  0  0  0  0  0  0  0  0  0
   -2.4876   15.9443  -35.1325 H   0  0  0  0  0  0  0  0  0  0  0  0
   -3.8221   13.8295  -34.8428 H   0  0  0  0  0  0  0  0  0  0  0  0
   -6.0788   13.9074  -33.7706 H   0  0  0  0  0  0  0  0  0  0  0  0
   -7.0542   16.1012  -33.0131 H   0  0  0  0  0  0  0  0  0  0  0  0
  1  2  1  0
  2  3  1  0
  3  4  1  0
  4  5  1  0
  3  6  1  0
  6  7  1  0
  7  8  1  0
  8  9  1  0
  9 10  2  0
 10 11  1  0
 11 12  2  0
 12 13  1  0
 13 14  1  0
 14 15  1  0
 14 16  2  0
 12 17  1  0
 17 18  2  0
 18 19  1  0
 19 20  2  0
 20 21  1  0
 20 22  1  0
 22 23  2  0
 23 24  1  0
 24 25  1  0
 25 26  2  0
 26 27  1  0
 27 28  2  0
 28 29  1  0
 29 30  2  0
 23  9  1  0
 30 25  1  0
 19 10  1  0
 30 22  1  0
  1 31  1  0
  1 32  1  0
  1 33  1  0
  2 34  1  0
  2 35  1  0
  4 36  1  0
  4 37  1  0
  5 38  1  0
  5 39  1  0
  5 40  1  0
  6 41  1  0
  6 42  1  0
  7 43  1  0
  7 44  1  0
  8 45  1  0
 11 46  1  0
 15 47  1  0
 15 48  1  0
 15 49  1  0
 17 50  1  0
 18 51  1  0
 21 52  1  0
 21 53  1  0
 21 54  1  0
 24 55  1  0
 26 56  1  0
 27 57  1  0
 28 58  1  0
 29 59  1  0
M  CHG  2  13  -1  20   1
M  END
>  <UniqueID>  (8) 
8

>  <SMILES>  (8) 
CCN(CC)CCNc1c2cc([N-]C(C)=O)ccc2[n+](C)c2c1[nH]c1ccccc12

>  <Energy>  (8) 
122.41778478122997

>  <Genealogy>  (8) 
CCN(CC)CCNc1c2cc([N-]C(C)=O)ccc2[n+](C)c2c1[nH]c1ccccc12 (protonated)
CCN(CC)CCNc1c2cc([N-]C(C)=O)ccc2[n+](C)c2c1[nH]c1ccccc12 (3D coordinates assigned)
CCN(CC)CCNc1c2cc([N-]C(C)=O)ccc2[n+](C)c2c1[nH]c1ccccc12 (optimized conformer: 122.41778478122997 kcal/mol)

>  <smiles>  (8) 
CCN(CC)CCNc1c2cc(NC(C)=O)ccc2[n+](C)c2c1[nH]c1ccccc12

>  <score_type>  (8) 
oracle

>  <origin>  (8) 
adg

>  <m_score__min__energy>  (8) 
-9.5199999999999996

>  <m_primary>  (8) 
energy

$$$$
8:0
     RDKit          3D

 47 48  0  0  0  0  0  0  0  0999 V2000
   -5.7380   25.8290  -30.1130 C   0  0  0  0  0  0  0  0  0  0  0  0
   -4.5630   24.9220  -30.4750 C   0  0  0  0  0  0  0  0  0  0  0  0
   -5.0080   23.7940  -31.3250 N   0  0  0  0  0  0  0  0  0  0  0  0
   -6.4710   23.8490  -31.5460 C   0  0  0  0  0  0  0  0  0  0  0  0
   -7.2160   23.0660  -30.4670 C   0  0  0  0  0  0  0  0  0  0  0  0
   -4.5820   22.4790  -30.7720 C   0  0  0  0  0  0  0  0  0  0  0  0
   -3.1930   22.1270  -31.3130 C   0  0  0  0  0  0  0  0  0  0  0  0
   -3.1930   21.8040  -32.8220 C   0  0  0  0  0  0  0  0  0  0  0  0
   -4.5430   21.6810  -33.4110 N   0  0  0  0  0  0  0  0  0  0  0  0
   -5.0250   20.3090  -33.4250 C   0  0  0  0  0  0  0  0  0  0  0  0
   -4.1390   19.3070  -33.8380 C   0  0  0  0  0  0  0  0  0  0  0  0
   -4.4960   17.9690  -33.7700 C   0  0  0  0  0  0  0  0  0  0  0  0
   -5.7200   17.5870  -33.3060 N   0  0  0  0  0  0  0  0  0  0  0  0
   -6.0070   16.1440  -33.2350 C   0  0  0  0  0  0  0  0  0  0  0  0
   -6.6540   18.5330  -32.9380 C   0  0  0  0  0  0  0  0  0  0  0  0
   -7.9400   18.1510  -32.4830 C   0  0  0  0  0  0  0  0  0  0  0  0
   -8.8960   19.1040  -32.1480 C   0  0  0  0  0  0  0  0  0  0  0  0
   -8.6070   20.4550  -32.2720 C   0  0  0  0  0  0  0  0  0  0  0  0
   -7.3500   20.8680  -32.7100 C   0  0  0  0  0  0  0  0  0  0  0  0
   -6.3390   19.9270  -33.0200 C   0  0  0  0  0  0  0  0  0  0  0  0
   -5.8255   25.8965  -29.0186 H   0  0  0  0  0  0  0  0  0  0  0  0
   -5.5684   26.8327  -30.5299 H   0  0  0  0  0  0  0  0  0  0  0  0
   -6.6661   25.4108  -30.5299 H   0  0  0  0  0  0  0  0  0  0  0  0
   -3.8099   25.5091  -31.0210 H   0  0  0  0  0  0  0  0  0  0  0  0
   -4.1345   24.5150  -29.5472 H   0  0  0  0  0  0  0  0  0  0  0  0
   -6.7996   24.8985  -31.5208 H   0  0  0  0  0  0  0  0  0  0  0  0
   -6.6954   23.3990  -32.5243 H   0  0  0  0  0  0  0  0  0  0  0  0
   -6.8898   23.4088  -29.4740 H   0  0  0  0  0  0  0  0  0  0  0  0
   -8.2981   23.2317  -30.5749 H   0  0  0  0  0  0  0  0  0  0  0  0
   -6.9967   21.9935  -30.5749 H   0  0  0  0  0  0  0  0  0  0  0  0
   -4.5446   22.5370  -29.6742 H   0  0  0  0  0  0  0  0  0  0  0  0
   -5.3014   21.7030  -31.0724 H   0  0  0  0  0  0  0  0  0  0  0  0
   -2.5227   22.9815  -31.1383 H   0  0  0  0  0  0  0  0  0  0  0  0
   -2.8556   21.2230  -30.7849 H   0  0  0  0  0  0  0  0  0  0  0  0
   -2.6583   22.6087  -33.3479 H   0  0  0  0  0  0  0  0  0  0  0  0
   -2.7052   20.8249  -32.9376 H   0  0  0  0  0  0  0  0  0  0  0  0
   -4.4850   22.0070  -34.4040 H   0  0  0  0  0  0  0  0  0  0  0  0
   -5.1760   22.3570  -32.9410 H   0  0  0  0  0  0  0  0  0  0  0  0
   -3.1462   19.5849  -34.2216 H   0  0  0  0  0  0  0  0  0  0  0  0
   -3.7787   17.2015  -34.0963 H   0  0  0  0  0  0  0  0  0  0  0  0
   -6.0687   15.8338  -32.1814 H   0  0  0  0  0  0  0  0  0  0  0  0
   -6.9642   15.9355  -33.7353 H   0  0  0  0  0  0  0  0  0  0  0  0
   -5.2024   15.5851  -33.7353 H   0  0  0  0  0  0  0  0  0  0  0  0
   -8.1866   17.0828  -32.3931 H   0  0  0  0  0  0  0  0  0  0  0  0
   -9.8839   18.7855  -31.7838 H   0  0  0  0  0  0  0  0  0  0  0  0
   -9.3735   21.2039  -32.0235 H   0  0  0  0  0  0  0  0  0  0  0  0
   -7.1402   21.9425  -32.8165 H   0  0  0  0  0  0  0  0  0  0  0  0
  1  2  1  0
  2  3  1  0
  3  4  1  0
  4  5  1  0
  3  6  1  0
  6  7  1  0
  7  8  1  0
  8  9  1  0
  9 10  1  0
 10 11  2  0
 11 12  1  0
 12 13  2  0
 13 14  1  0
 13 15  1  0
 15 16  2  0
 16 17  1  0
 17 18  2  0
 18 19  1  0
 19 20  2  0
 20 10  1  0
 20 15  1  0
  1 21  1  0
  1 22  1  0
  1 23  1  0
  2 24  1  0
  2 25  1  0
  4 26  1  0
  4 27  1  0
  5 28  1  0
  5 29  1  0
  5 30  1  0
  6 31  1  0
  6 32  1  0
  7 33  1  0
  7 34  1  0
  8 35  1  0
  8 36  1  0
  9 37  1  0
  9 38  1  0
 11 39  1  0
 12 40  1  0
 14 41  1  0
 14 42  1  0
 14 43  1  0
 16 44  1  0
 17 45  1  0
 18 46  1  0
 19 47  1  0
M  CHG  2   9   1  13   1
M  END
>  <UniqueID>  (9) 
9

>  <SMILES>  (9) 
CCN(CC)CCC[NH2+]c1cc[n+](C)c2ccccc12

>  <Energy>  (9) 
57.17572825854419

>  <Genealogy>  (9) 
CCN(CC)CCC[NH2+]c1cc[n+](C)c2ccccc12 (protonated)
CCN(CC)CCC[NH2+]c1cc[n+](C)c2ccccc12 (3D coordinates assigned)
CCN(CC)CCC[NH2+]c1cc[n+](C)c2ccccc12 (optimized conformer: 57.17572825854419 kcal/mol)

>  <smiles>  (9) 
CCN(CC)CCCNc1cc[n+](C)c2ccccc12

>  <score_type>  (9) 
oracle

>  <origin>  (9) 
adg

>  <m_score__min__energy>  (9) 
-6.8399999999999999

>  <m_primary>  (9) 
energy

$$$$
9:0
     RDKit          3D

 38 41  0  0  0  0  0  0  0  0999 V2000
   -7.8753   24.4246  -30.7800 H   0  0  0  0  0  0  0  0  0  0  0  0
   -7.0170   23.8120  -31.0930 C   0  0  0  0  0  0  0  0  0  0  0  0
   -7.2270   22.6320  -31.8120 C   0  0  0  0  0  0  0  0  0  0  0  0
   -8.2496   22.3210  -32.0718 H   0  0  0  0  0  0  0  0  0  0  0  0
   -6.1380   21.8470  -32.2010 C   0  0  0  0  0  0  0  0  0  0  0  0
   -6.4030   20.3560  -33.0860 Cl  0  0  0  0  0  0  0  0  0  0  0  0
   -4.8350   22.2490  -31.8780 C   0  0  0  0  0  0  0  0  0  0  0  0
   -3.9810   21.6197  -32.1690 H   0  0  0  0  0  0  0  0  0  0  0  0
   -4.6130   23.4470  -31.1870 C   0  0  0  0  0  0  0  0  0  0  0  0
   -3.2630   23.8040  -30.8450 N   0  0  0  0  0  0  0  0  0  0  0  0
   -2.7760   23.9850  -29.6480 C   0  0  0  0  0  0  0  0  0  0  0  0
   -2.5180   25.2380  -29.1880 N   0  0  0  0  0  0  0  0  0  0  0  0
   -1.9870   25.4570  -27.9870 N   0  0  0  0  0  0  0  0  0  0  0  0
   -1.6620   24.4450  -27.1420 C   0  0  0  0  0  0  0  0  0  0  0  0
   -1.0150   24.8080  -25.8650 C   0  0  0  0  0  0  0  0  0  0  0  0
   -1.1020   26.0300  -25.2220 C   0  0  0  0  0  0  0  0  0  0  0  0
   -1.7384   26.8748  -25.5241 H   0  0  0  0  0  0  0  0  0  0  0  0
   -0.2720   26.0050  -24.1620 N   0  0  0  0  0  0  0  0  0  0  0  0
   -0.1090   27.0650  -23.1750 C   0  0  0  0  0  0  0  0  0  0  0  0
   -0.1747   26.6375  -22.1636 H   0  0  0  0  0  0  0  0  0  0  0  0
    0.8731   27.5422  -23.3083 H   0  0  0  0  0  0  0  0  0  0  0  0
   -0.9023   27.8152  -23.3083 H   0  0  0  0  0  0  0  0  0  0  0  0
    0.3340   24.8310  -24.1070 N   0  0  0  0  0  0  0  0  0  0  0  0
    1.0320   24.5500  -23.3820 H   0  0  0  0  0  0  0  0  0  0  0  0
   -0.0800   24.0810  -25.1440 C   0  0  0  0  0  0  0  0  0  0  0  0
    0.2647   23.0634  -25.3800 H   0  0  0  0  0  0  0  0  0  0  0  0
   -1.9290   23.1120  -27.5360 C   0  0  0  0  0  0  0  0  0  0  0  0
   -1.7130   22.0110  -26.6790 C   0  0  0  0  0  0  0  0  0  0  0  0
   -1.3331   22.1795  -25.6605 H   0  0  0  0  0  0  0  0  0  0  0  0
   -1.9770   20.7110  -27.1120 C   0  0  0  0  0  0  0  0  0  0  0  0
   -1.7917   19.8614  -26.4383 H   0  0  0  0  0  0  0  0  0  0  0  0
   -2.4740   20.4840  -28.3930 C   0  0  0  0  0  0  0  0  0  0  0  0
   -2.6643   19.4556  -28.7338 H   0  0  0  0  0  0  0  0  0  0  0  0
   -2.7310   21.5590  -29.2450 C   0  0  0  0  0  0  0  0  0  0  0  0
   -3.1346   21.3738  -30.2514 H   0  0  0  0  0  0  0  0  0  0  0  0
   -2.4770   22.8810  -28.8250 C   0  0  0  0  0  0  0  0  0  0  0  0
   -5.7170   24.2150  -30.7710 C   0  0  0  0  0  0  0  0  0  0  0  0
   -5.5566   25.1355  -30.1905 H   0  0  0  0  0  0  0  0  0  0  0  0
  1  2  1  0
  2  3  2  0
  3  4  1  0
  3  5  1  0
  5  6  1  0
  5  7  2  0
  7  8  1  0
  7  9  1  0
  9 10  1  0
 10 11  2  0
 11 12  1  0
 12 13  1  0
 13 14  2  0
 14 15  1  0
 15 16  2  0
 16 17  1  0
 16 18  1  0
 18 19  1  0
 19 20  1  0
 19 21  1  0
 19 22  1  0
 18 23  1  0
 23 24  1  0
 23 25  2  0
 25 26  1  0
 14 27  1  0
 27 28  2  0
 28 29  1  0
 28 30  1  0
 30 31  1  0
 30 32  2  0
 32 33  1  0
 32 34  1  0
 34 35  1  0
 34 36  2  0
  9 37  2  0
 37 38  1  0
 37  2  1  0
 36 11  1  0
 25 15  1  0
 36 27  1  0
M  CHG  2  12  -1  23   1
M  END
>  <UniqueID>  (10) 
10

>  <SMILES>  (10) 
Cn1cc(-c2n[n-]/c(=N\c3cccc(Cl)c3)c3ccccc23)c[nH+]1

>  <Energy>  (10) 
91.74585922373737

>  <Genealogy>  (10) 
Cn1cc(-c2n[n-]c(=Nc3cccc(Cl)c3)c3ccccc23)c[nH+]1 (protonated)
Cn1cc(-c2n[n-]/c(=N\c3cccc(Cl)c3)c3ccccc23)c[nH+]1 (cis-trans isomerization)
Cn1cc(-c2n[n-]/c(=N\c3cccc(Cl)c3)c3ccccc23)c[nH+]1 (3D coordinates assigned)
Cn1cc(-c2n[n-]/c(=N\c3cccc(Cl)c3)c3ccccc23)c[nH+]1 (optimized conformer: 91.74585922373737 kcal/mol)

>  <smiles>  (10) 
Cn1cc(-c2n[nH]c(=Nc3cccc(Cl)c3)c3ccccc23)cn1

>  <score_type>  (10) 
oracle

>  <origin>  (10) 
adg

>  <m_score__min__energy>  (10) 
-10.32

>  <m_primary>  (10) 
energy

$$$$
10:0
     RDKit          3D

 54 56  0  0  0  0  0  0  0  0999 V2000
   -3.1930   24.1210  -28.1180 C   0  0  0  0  0  0  0  0  0  0  0  0
   -2.3970   24.5480  -29.3460 C   0  0  0  0  0  0  0  0  0  0  0  0
   -3.2700   24.8060  -30.4450 O   0  0  0  0  0  0  0  0  0  0  0  0
   -4.4280   24.0770  -30.7750 C   0  0  0  0  0  0  0  0  0  0  0  0
   -4.3750   22.7580  -31.2580 C   0  0  0  0  0  0  0  0  0  0  0  0
   -5.5520   22.0400  -31.5630 C   0  0  0  0  0  0  0  0  0  0  0  0
   -5.5020   20.6960  -31.9920 C   0  0  0  0  0  0  0  0  0  0  0  0
   -4.2360   20.0600  -32.2600 N   0  0  0  0  0  0  0  0  0  0  0  0
   -3.7540   19.8200  -33.6220 C   0  0  0  0  0  0  0  0  0  0  0  0
   -2.2220   19.6900  -33.6700 C   0  0  0  0  0  0  0  0  0  0  0  0
   -1.5120   20.9910  -33.7500 N   0  0  0  0  0  0  0  0  0  0  0  0
   -0.2110   20.8760  -34.4340 C   0  0  0  0  0  0  0  0  0  0  0  0
   -1.3100   21.5240  -32.3910 C   0  0  0  0  0  0  0  0  0  0  0  0
   -6.7040   19.9680  -32.0960 C   0  0  0  0  0  0  0  0  0  0  0  0
   -6.6950   18.5650  -32.2550 C   0  0  0  0  0  0  0  0  0  0  0  0
   -7.8850   17.8480  -32.3400 C   0  0  0  0  0  0  0  0  0  0  0  0
   -9.1030   18.5080  -32.2400 C   0  0  0  0  0  0  0  0  0  0  0  0
   -9.1400   19.8890  -32.0560 C   0  0  0  0  0  0  0  0  0  0  0  0
   -7.9440   20.6520  -31.9930 C   0  0  0  0  0  0  0  0  0  0  0  0
   -7.9670   22.0180  -31.8060 N   0  0  0  0  0  0  0  0  0  0  0  0
   -9.2250   22.7720  -32.0030 C   0  0  0  0  0  0  0  0  0  0  0  0
   -6.8110   22.6820  -31.4400 C   0  0  0  0  0  0  0  0  0  0  0  0
   -6.8470   23.9990  -30.9240 C   0  0  0  0  0  0  0  0  0  0  0  0
   -5.6740   24.6890  -30.5930 C   0  0  0  0  0  0  0  0  0  0  0  0
   -5.7510   26.0930  -30.0570 C   0  0  0  0  0  0  0  0  0  0  0  0
   -2.6483   24.4132  -27.2081 H   0  0  0  0  0  0  0  0  0  0  0  0
   -4.1771   24.6123  -28.1299 H   0  0  0  0  0  0  0  0  0  0  0  0
   -3.3280   23.0294  -28.1299 H   0  0  0  0  0  0  0  0  0  0  0  0
   -1.8319   25.4620  -29.1108 H   0  0  0  0  0  0  0  0  0  0  0  0
   -1.7086   23.7359  -29.6227 H   0  0  0  0  0  0  0  0  0  0  0  0
   -3.3969   22.2754  -31.4013 H   0  0  0  0  0  0  0  0  0  0  0  0
   -3.5910   19.8380  -31.4680 H   0  0  0  0  0  0  0  0  0  0  0  0
   -4.2025   18.8894  -33.9998 H   0  0  0  0  0  0  0  0  0  0  0  0
   -4.0444   20.6793  -34.2444 H   0  0  0  0  0  0  0  0  0  0  0  0
   -1.8896   19.1690  -32.7600 H   0  0  0  0  0  0  0  0  0  0  0  0
   -1.9765   19.1344  -34.5871 H   0  0  0  0  0  0  0  0  0  0  0  0
   -2.1010   21.6770  -34.2730 H   0  0  0  0  0  0  0  0  0  0  0  0
    0.5918   20.8050  -33.6854 H   0  0  0  0  0  0  0  0  0  0  0  0
   -0.2062   19.9739  -35.0635 H   0  0  0  0  0  0  0  0  0  0  0  0
   -0.0480   21.7632  -35.0635 H   0  0  0  0  0  0  0  0  0  0  0  0
   -1.5987   20.7623  -31.6517 H   0  0  0  0  0  0  0  0  0  0  0  0
   -0.2504   21.7855  -32.2534 H   0  0  0  0  0  0  0  0  0  0  0  0
   -1.9301   22.4221  -32.2534 H   0  0  0  0  0  0  0  0  0  0  0  0
   -5.7347   18.0315  -32.3125 H   0  0  0  0  0  0  0  0  0  0  0  0
   -7.8608   16.7581  -32.4865 H   0  0  0  0  0  0  0  0  0  0  0  0
  -10.0419   17.9386  -32.3063 H   0  0  0  0  0  0  0  0  0  0  0  0
  -10.1112   20.3961  -31.9580 H   0  0  0  0  0  0  0  0  0  0  0  0
   -9.6551   23.0298  -31.0239 H   0  0  0  0  0  0  0  0  0  0  0  0
   -9.0158   23.6937  -32.5657 H   0  0  0  0  0  0  0  0  0  0  0  0
   -9.9392   22.1530  -32.5657 H   0  0  0  0  0  0  0  0  0  0  0  0
   -7.8193   24.4926  -30.7794 H   0  0  0  0  0  0  0  0  0  0  0  0
   -5.7495   26.0663  -28.9573 H   0  0  0  0  0  0  0  0  0  0  0  0
   -4.8831   26.6687  -30.4109 H   0  0  0  0  0  0  0  0  0  0  0  0
   -6.6767   26.5703  -30.4109 H   0  0  0  0  0  0  0  0  0  0  0  0
  1  2  1  0
  2  3  1  0
  3  4  1  0
  4  5  2  0
  5  6  1  0
  6  7  2  0
  7  8  1  0
  8  9  1  0
  9 10  1  0
 10 11  1  0
 11 12  1  0
 11 13  1  0
  7 14  1  0
 14 15  2  0
 15 16  1  0
 16 17  2  0
 17 18  1  0
 18 19  2  0
 19 20  1  0
 20 21  1  0
 20 22  2  0
 22 23  1  0
 23 24  2  0
 24 25  1  0
 24  4  1  0
 22  6  1  0
 19 14  1  0
  1 26  1  0
  1 27  1  0
  1 28  1  0
  2 29  1  0
  2 30  1  0
  5 31  1  0
  8 32  1  0
  9 33  1  0
  9 34  1  0
 10 35  1  0
 10 36  1  0
 11 37  1  0
 12 38  1  0
 12 39  1  0
 12 40  1  0
 13 41  1  0
 13 42  1  0
 13 43  1  0
 15 44  1  0
 16 45  1  0
 17 46  1  0
 18 47  1  0
 21 48  1  0
 21 49  1  0
 21 50  1  0
 23 51  1  0
 25 52  1  0
 25 53  1  0
 25 54  1  0
M  CHG  2  11   1  20   1
M  END
>  <UniqueID>  (11) 
11

>  <SMILES>  (11) 
CCOc1cc2c(NCC[NH+](C)C)c3ccccc3[n+](C)c2cc1C

>  <Energy>  (11) 
78.13742864352538

>  <Genealogy>  (11) 
CCOc1cc2c(NCC[NH+](C)C)c3ccccc3[n+](C)c2cc1C (protonated)
CCOc1cc2c(NCC[NH+](C)C)c3ccccc3[n+](C)c2cc1C (3D coordinates assigned)
CCOc1cc2c(NCC[NH+](C)C)c3ccccc3[n+](C)c2cc1C (optimized conformer: 78.13742864352538 kcal/mol)

>  <smiles>  (11) 
CCOc1cc2c(NCCN(C)C)c3ccccc3[n+](C)c2cc1C

>  <score_type>  (11) 
oracle

>  <origin>  (11) 
adg

>  <m_score__min__energy>  (11) 
-7.9800000000000004

>  <m_primary>  (11) 
energy

$$$$
11:0
     RDKit          3D

 36 37  0  0  0  0  0  0  0  0999 V2000
   -6.4860   16.8190  -33.6910 C   0  0  0  0  0  0  0  0  0  0  0  0
   -5.5240   17.5800  -34.5890 C   0  0  0  0  0  0  0  0  0  0  0  0
   -5.1920   18.8090  -33.9760 O   0  0  0  0  0  0  0  0  0  0  0  0
   -6.3420   19.6250  -33.8440 C   0  0  0  0  0  0  0  0  0  0  0  0
   -6.5570   20.0300  -32.3830 C   0  0  0  0  0  0  0  0  0  0  0  0
   -7.7900   20.8000  -32.2370 N   0  0  0  0  0  0  0  0  0  0  0  0
   -9.0070   20.2920  -32.3170 N   0  0  0  0  0  0  0  0  0  0  0  0
   -9.8860   21.2550  -32.0790 N   0  0  0  0  0  0  0  0  0  0  0  0
   -9.2540   22.3960  -31.8320 N   0  0  0  0  0  0  0  0  0  0  0  0
   -7.9450   22.1000  -31.9240 C   0  0  0  0  0  0  0  0  0  0  0  0
   -6.8400   23.0980  -31.7440 C   0  0  0  0  0  0  0  0  0  0  0  0
   -6.6890   23.4480  -30.3140 N   0  0  0  0  0  0  0  0  0  0  0  0
   -6.8630   24.8980  -30.0610 C   0  0  0  0  0  0  0  0  0  0  0  0
   -5.5320   25.6760  -30.1120 C   0  0  0  0  0  0  0  0  0  0  0  0
   -4.5760   24.9840  -30.8850 O   0  0  0  0  0  0  0  0  0  0  0  0
   -4.2020   23.7870  -30.2280 C   0  0  0  0  0  0  0  0  0  0  0  0
   -5.4160   22.9600  -29.7400 C   0  0  0  0  0  0  0  0  0  0  0  0
   -6.2376   17.0155  -32.6376 H   0  0  0  0  0  0  0  0  0  0  0  0
   -7.5155   17.1498  -33.8928 H   0  0  0  0  0  0  0  0  0  0  0  0
   -6.4011   15.7410  -33.8928 H   0  0  0  0  0  0  0  0  0  0  0  0
   -4.6111   16.9848  -34.7387 H   0  0  0  0  0  0  0  0  0  0  0  0
   -5.9979   17.7685  -35.5636 H   0  0  0  0  0  0  0  0  0  0  0  0
   -6.2131   20.5312  -34.4541 H   0  0  0  0  0  0  0  0  0  0  0  0
   -7.2193   19.0554  -34.1846 H   0  0  0  0  0  0  0  0  0  0  0  0
   -6.6215   19.1238  -31.7628 H   0  0  0  0  0  0  0  0  0  0  0  0
   -5.7102   20.6536  -32.0604 H   0  0  0  0  0  0  0  0  0  0  0  0
   -5.8980   22.6662  -32.1129 H   0  0  0  0  0  0  0  0  0  0  0  0
   -7.0857   24.0085  -32.3102 H   0  0  0  0  0  0  0  0  0  0  0  0
   -7.5403   25.3094  -30.8239 H   0  0  0  0  0  0  0  0  0  0  0  0
   -7.2748   25.0109  -29.0473 H   0  0  0  0  0  0  0  0  0  0  0  0
   -5.7095   26.6652  -30.5591 H   0  0  0  0  0  0  0  0  0  0  0  0
   -5.1465   25.7823  -29.0873 H   0  0  0  0  0  0  0  0  0  0  0  0
   -3.6169   23.1715  -30.9272 H   0  0  0  0  0  0  0  0  0  0  0  0
   -3.6171   24.0682  -29.3398 H   0  0  0  0  0  0  0  0  0  0  0  0
   -5.2725   21.9105  -30.0366 H   0  0  0  0  0  0  0  0  0  0  0  0
   -5.4769   23.0610  -28.6463 H   0  0  0  0  0  0  0  0  0  0  0  0
  1  2  1  0
  2  3  1  0
  3  4  1  0
  4  5  1  0
  5  6  1  0
  6  7  1  0
  7  8  2  0
  8  9  1  0
  9 10  2  0
 10 11  1  0
 11 12  1  0
 12 13  1  0
 13 14  1  0
 14 15  1  0
 15 16  1  0
 16 17  1  0
 10  6  1  0
 17 12  1  0
  1 18  1  0
  1 19  1  0
  1 20  1  0
  2 21  1  0
  2 22  1  0
  4 23  1  0
  4 24  1  0
  5 25  1  0
  5 26  1  0
 11 27  1  0
 11 28  1  0
 13 29  1  0
 13 30  1  0
 14 31  1  0
 14 32  1  0
 16 33  1  0
 16 34  1  0
 17 35  1  0
 17 36  1  0
M  END
>  <UniqueID>  (12) 
12

>  <SMILES>  (12) 
CCOCCn1nnnc1CN1CCOCC1

>  <Energy>  (12) 
82.3803850294865

>  <Genealogy>  (12) 
CCOCCn1nnnc1CN1CCOCC1 (3D coordinates assigned)
CCOCCn1nnnc1CN1CCOCC1 (nonaromatic ring conformer: 82.3803850294865 kcal/mol)

>  <smiles>  (12) 
CCOCCn1nnnc1CN1CCOCC1

>  <score_type>  (12) 
oracle

>  <origin>  (12) 
adg

>  <m_score__min__energy>  (12) 
-6.4000000000000004

>  <m_primary>  (12) 
energy

$$$$
12:0
     RDKit          3D

 46 47  0  0  0  0  0  0  0  0999 V2000
   -6.1390   24.5090  -30.2330 C   0  0  0  0  0  0  0  0  0  0  0  0
   -5.2190   25.6050  -30.7480 C   0  0  0  0  0  0  0  0  0  0  0  0
   -3.8820   25.2480  -30.4690 O   0  0  0  0  0  0  0  0  0  0  0  0
   -3.8230   24.0690  -29.6910 C   0  0  0  0  0  0  0  0  0  0  0  0
   -2.3680   23.6000  -29.5040 C   0  0  0  0  0  0  0  0  0  0  0  0
   -2.1490   22.1570  -29.7610 N   0  0  0  0  0  0  0  0  0  0  0  0
   -1.2220   21.8270  -30.8640 C   0  0  0  0  0  0  0  0  0  0  0  0
   -1.9340   21.5340  -32.2030 C   0  0  0  0  0  0  0  0  0  0  0  0
   -3.4030   21.5850  -32.0700 N   0  0  0  0  0  0  0  0  0  0  0  0
   -4.0670   21.2090  -33.3340 C   0  0  0  0  0  0  0  0  0  0  0  0
   -5.5010   20.8520  -33.0700 C   0  0  0  0  0  0  0  0  0  0  0  0
   -6.4130   21.6090  -32.3550 C   0  0  0  0  0  0  0  0  0  0  0  0
   -7.6150   21.0090  -32.4390 N   0  0  0  0  0  0  0  0  0  0  0  0
   -8.8690   21.5370  -31.9160 C   0  0  0  0  0  0  0  0  0  0  0  0
   -7.5160   19.9250  -33.1930 N   0  0  0  0  0  0  0  0  0  0  0  0
   -6.2360   19.7940  -33.5860 C   0  0  0  0  0  0  0  0  0  0  0  0
   -5.7430   18.7250  -34.5070 C   0  0  0  0  0  0  0  0  0  0  0  0
   -3.8220   20.7100  -30.9670 C   0  0  0  0  0  0  0  0  0  0  0  0
   -3.3390   21.2880  -29.6270 C   0  0  0  0  0  0  0  0  0  0  0  0
   -6.1350   24.5137  -29.1330 H   0  0  0  0  0  0  0  0  0  0  0  0
   -7.1616   24.6877  -30.5967 H   0  0  0  0  0  0  0  0  0  0  0  0
   -5.7858   23.5328  -30.5967 H   0  0  0  0  0  0  0  0  0  0  0  0
   -5.3519   25.7187  -31.8340 H   0  0  0  0  0  0  0  0  0  0  0  0
   -5.4613   26.5576  -30.2543 H   0  0  0  0  0  0  0  0  0  0  0  0
   -4.2661   24.2674  -28.7039 H   0  0  0  0  0  0  0  0  0  0  0  0
   -4.3806   23.2776  -30.2133 H   0  0  0  0  0  0  0  0  0  0  0  0
   -1.7312   24.1724  -30.1946 H   0  0  0  0  0  0  0  0  0  0  0  0
   -2.1181   23.7706  -28.4464 H   0  0  0  0  0  0  0  0  0  0  0  0
   -0.5401   22.6775  -31.0115 H   0  0  0  0  0  0  0  0  0  0  0  0
   -0.6893   20.9093  -30.5742 H   0  0  0  0  0  0  0  0  0  0  0  0
   -1.6182   22.2826  -32.9445 H   0  0  0  0  0  0  0  0  0  0  0  0
   -1.6564   20.5181  -32.5206 H   0  0  0  0  0  0  0  0  0  0  0  0
   -4.0248   22.0561  -34.0344 H   0  0  0  0  0  0  0  0  0  0  0  0
   -3.5515   20.3406  -33.7701 H   0  0  0  0  0  0  0  0  0  0  0  0
   -6.1934   22.5401  -31.8120 H   0  0  0  0  0  0  0  0  0  0  0  0
   -8.8415   21.5254  -30.8164 H   0  0  0  0  0  0  0  0  0  0  0  0
   -9.0074   22.5698  -32.2685 H   0  0  0  0  0  0  0  0  0  0  0  0
   -9.7044   20.9143  -32.2685 H   0  0  0  0  0  0  0  0  0  0  0  0
   -8.3150   19.3050  -33.4560 H   0  0  0  0  0  0  0  0  0  0  0  0
   -5.3544   17.8825  -33.9161 H   0  0  0  0  0  0  0  0  0  0  0  0
   -6.5715   18.3768  -35.1413 H   0  0  0  0  0  0  0  0  0  0  0  0
   -4.9403   19.1290  -35.1413 H   0  0  0  0  0  0  0  0  0  0  0  0
   -4.9194   20.6355  -30.9575 H   0  0  0  0  0  0  0  0  0  0  0  0
   -3.3823   19.7119  -31.1100 H   0  0  0  0  0  0  0  0  0  0  0  0
   -4.1556   21.8792  -29.1868 H   0  0  0  0  0  0  0  0  0  0  0  0
   -3.0528   20.4386  -28.9893 H   0  0  0  0  0  0  0  0  0  0  0  0
  1  2  1  0
  2  3  1  0
  3  4  1  0
  4  5  1  0
  5  6  1  0
  6  7  1  0
  7  8  1  0
  8  9  1  0
  9 10  1  0
 10 11  1  0
 11 12  2  0
 12 13  1  0
 13 14  1  0
 13 15  1  0
 15 16  2  0
 16 17  1  0
  9 18  1  0
 18 19  1  0
 19  6  1  0
 16 11  1  0
  1 20  1  0
  1 21  1  0
  1 22  1  0
  2 23  1  0
  2 24  1  0
  4 25  1  0
  4 26  1  0
  5 27  1  0
  5 28  1  0
  7 29  1  0
  7 30  1  0
  8 31  1  0
  8 32  1  0
 10 33  1  0
 10 34  1  0
 12 35  1  0
 14 36  1  0
 14 37  1  0
 14 38  1  0
 15 39  1  0
 17 40  1  0
 17 41  1  0
 17 42  1  0
 18 43  1  0
 18 44  1  0
 19 45  1  0
 19 46  1  0
M  CHG  1  15   1
M  END
>  <UniqueID>  (13) 
13

>  <SMILES>  (13) 
CCOCCN1CCN(Cc2cn(C)[nH+]c2C)CC1

>  <Energy>  (13) 
83.05390807816235

>  <Genealogy>  (13) 
CCOCCN1CCN(Cc2cn(C)[nH+]c2C)CC1 (protonated)
CCOCCN1CCN(Cc2cn(C)[nH+]c2C)CC1 (3D coordinates assigned)
CCOCCN1CCN(Cc2cn(C)[nH+]c2C)CC1 (nonaromatic ring conformer: 83.05390807816235 kcal/mol)

>  <smiles>  (13) 
CCOCCN1CCN(Cc2cn(C)nc2C)CC1

>  <score_type>  (13) 
oracle

>  <origin>  (13) 
adg

>  <m_score__min__energy>  (13) 
-6.6600000000000001

>  <m_primary>  (13) 
energy

$$$$
13:0
     RDKit          3D

 60 61  0  0  0  0  0  0  0  0999 V2000
   -8.9120   18.7160  -31.8100 C   0  0  0  0  0  0  0  0  0  0  0  0
   -7.9750   19.4030  -32.8100 C   0  0  0  0  0  0  0  0  0  0  0  0
   -6.5590   18.9740  -32.6400 N   0  0  0  0  0  0  0  0  0  0  0  0
   -6.3970   18.2090  -31.3720 C   0  0  0  0  0  0  0  0  0  0  0  0
   -5.8420   16.8000  -31.6120 C   0  0  0  0  0  0  0  0  0  0  0  0
   -6.1260   18.1430  -33.7960 C   0  0  0  0  0  0  0  0  0  0  0  0
   -4.6210   18.2960  -34.0770 C   0  0  0  0  0  0  0  0  0  0  0  0
   -4.0100   19.1030  -33.0730 O   0  0  0  0  0  0  0  0  0  0  0  0
   -3.8190   20.4820  -33.2100 C   0  0  0  0  0  0  0  0  0  0  0  0
   -4.7280   21.2160  -33.6860 O   0  0  0  0  0  0  0  0  0  0  0  0
   -2.5110   21.0860  -32.8020 C   0  0  0  0  0  0  0  0  0  0  0  0
   -2.6640   21.9140  -31.5220 C   0  0  0  0  0  0  0  0  0  0  0  0
   -4.1390   22.0330  -31.1170 C   0  0  0  0  0  0  0  0  0  0  0  0
   -4.6150   23.4150  -31.2660 N   0  0  0  0  0  0  0  0  0  0  0  0
   -5.7540   23.6990  -32.1480 C   0  0  0  0  0  0  0  0  0  0  0  0
   -7.0080   23.0750  -31.6170 C   0  0  0  0  0  0  0  0  0  0  0  0
   -8.1840   22.8720  -32.3300 C   0  0  0  0  0  0  0  0  0  0  0  0
   -9.1790   22.2320  -31.5800 C   0  0  0  0  0  0  0  0  0  0  0  0
   -8.7920   21.9310  -30.2790 C   0  0  0  0  0  0  0  0  0  0  0  0
   -7.2080   22.4590  -30.0650 S   0  0  0  0  0  0  0  0  0  0  0  0
   -4.0480   24.4850  -30.4790 C   0  0  0  0  0  0  0  0  0  0  0  0
   -4.2490   25.6790  -30.8270 O   0  0  0  0  0  0  0  0  0  0  0  0
   -3.1490   24.2200  -29.2950 C   0  0  2  0  0  0  0  0  0  0  0  0
   -3.9400   24.0870  -28.0040 C   0  0  0  0  0  0  0  0  0  0  0  0
   -3.0030   24.6360  -26.9610 C   0  0  0  0  0  0  0  0  0  0  0  0
   -1.8880   25.2940  -27.7600 C   0  0  0  0  0  0  0  0  0  0  0  0
   -2.2000   25.2450  -29.1330 O   0  0  0  0  0  0  0  0  0  0  0  0
   -8.5905   18.9517  -30.7848 H   0  0  0  0  0  0  0  0  0  0  0  0
   -9.9400   19.0760  -31.9638 H   0  0  0  0  0  0  0  0  0  0  0  0
   -8.8779   17.6273  -31.9638 H   0  0  0  0  0  0  0  0  0  0  0  0
   -8.3009   19.1528  -33.8304 H   0  0  0  0  0  0  0  0  0  0  0  0
   -8.0237   20.4869  -32.6288 H   0  0  0  0  0  0  0  0  0  0  0  0
   -5.9550   19.8310  -32.5940 H   0  0  0  0  0  0  0  0  0  0  0  0
   -5.7044   18.7553  -30.7148 H   0  0  0  0  0  0  0  0  0  0  0  0
   -7.3902   18.1064  -30.9105 H   0  0  0  0  0  0  0  0  0  0  0  0
   -5.6498   16.3120  -30.6451 H   0  0  0  0  0  0  0  0  0  0  0  0
   -6.5747   16.2094  -32.1815 H   0  0  0  0  0  0  0  0  0  0  0  0
   -4.9034   16.8677  -32.1815 H   0  0  0  0  0  0  0  0  0  0  0  0
   -6.3417   17.0870  -33.5762 H   0  0  0  0  0  0  0  0  0  0  0  0
   -6.6764   18.4817  -34.6861 H   0  0  0  0  0  0  0  0  0  0  0  0
   -4.1496   17.3021  -34.0804 H   0  0  0  0  0  0  0  0  0  0  0  0
   -4.4870   18.7799  -35.0557 H   0  0  0  0  0  0  0  0  0  0  0  0
   -1.7827   20.2809  -32.6247 H   0  0  0  0  0  0  0  0  0  0  0  0
   -2.1642   21.7486  -33.6086 H   0  0  0  0  0  0  0  0  0  0  0  0
   -2.1061   21.4261  -30.7092 H   0  0  0  0  0  0  0  0  0  0  0  0
   -2.2693   22.9237  -31.7085 H   0  0  0  0  0  0  0  0  0  0  0  0
   -4.7425   21.3734  -31.7578 H   0  0  0  0  0  0  0  0  0  0  0  0
   -4.2378   21.7397  -30.0614 H   0  0  0  0  0  0  0  0  0  0  0  0
   -5.8942   24.7879  -32.2163 H   0  0  0  0  0  0  0  0  0  0  0  0
   -5.5439   23.2763  -33.1416 H   0  0  0  0  0  0  0  0  0  0  0  0
   -8.3194   23.1824  -33.3766 H   0  0  0  0  0  0  0  0  0  0  0  0
  -10.1736   21.9902  -31.9827 H   0  0  0  0  0  0  0  0  0  0  0  0
   -9.4138   21.4335  -29.5202 H   0  0  0  0  0  0  0  0  0  0  0  0
   -2.6361   23.2698  -29.5050 H   0  0  0  0  0  0  0  0  0  0  0  0
   -4.8678   24.6763  -28.0486 H   0  0  0  0  0  0  0  0  0  0  0  0
   -4.2533   23.0530  -27.7975 H   0  0  0  0  0  0  0  0  0  0  0  0
   -3.5159   25.3749  -26.3277 H   0  0  0  0  0  0  0  0  0  0  0  0
   -2.6276   23.8553  -26.2831 H   0  0  0  0  0  0  0  0  0  0  0  0
   -1.7818   26.3428  -27.4456 H   0  0  0  0  0  0  0  0  0  0  0  0
   -0.9439   24.7589  -27.5799 H   0  0  0  0  0  0  0  0  0  0  0  0
  1  2  1  0
  2  3  1  0
  3  4  1  0
  4  5  1  0
  3  6  1  0
  6  7  1  0
  7  8  1  0
  8  9  1  0
  9 10  2  0
  9 11  1  0
 11 12  1  0
 12 13  1  0
 13 14  1  0
 14 15  1  0
 15 16  1  0
 16 17  2  0
 17 18  1  0
 18 19  2  0
 19 20  1  0
 14 21  1  0
 21 22  2  0
 21 23  1  0
 23 24  1  0
 24 25  1  0
 25 26  1  0
 26 27  1  0
 20 16  1  0
 27 23  1  0
  1 28  1  0
  1 29  1  0
  1 30  1  0
  2 31  1  0
  2 32  1  0
  3 33  1  0
  4 34  1  0
  4 35  1  0
  5 36  1  0
  5 37  1  0
  5 38  1  0
  6 39  1  0
  6 40  1  0
  7 41  1  0
  7 42  1  0
 11 43  1  0
 11 44  1  0
 12 45  1  0
 12 46  1  0
 13 47  1  0
 13 48  1  0
 15 49  1  0
 15 50  1  0
 17 51  1  0
 18 52  1  0
 19 53  1  0
 23 54  1  6
 24 55  1  0
 24 56  1  0
 25 57  1  0
 25 58  1  0
 26 59  1  0
 26 60  1  0
M  CHG  1   3   1
M  END
>  <UniqueID>  (14) 
14

>  <SMILES>  (14) 
CC[NH+](CC)CCOC(=O)CCCN(Cc1cccs1)C(=O)[C@@H]1CCCO1

>  <Energy>  (14) 
78.3451293244019

>  <Genealogy>  (14) 
CC[NH+](CC)CCOC(=O)CCCN(Cc1cccs1)C(=O)C1CCCO1 (protonated)
CC[NH+](CC)CCOC(=O)CCCN(Cc1cccs1)C(=O)[C@@H]1CCCO1 (chirality)
CC[NH+](CC)CCOC(=O)CCCN(Cc1cccs1)C(=O)[C@@H]1CCCO1 (3D coordinates assigned)
CC[NH+](CC)CCOC(=O)CCCN(Cc1cccs1)C(=O)[C@@H]1CCCO1 (nonaromatic ring conformer: 78.3451293244019 kcal/mol)

>  <smiles>  (14) 
CCN(CC)CCOC(=O)CCCN(Cc1cccs1)C(=O)C1CCCO1

>  <score_type>  (14) 
oracle

>  <origin>  (14) 
adg

>  <m_score__min__energy>  (14) 
-7.4199999999999999

>  <m_primary>  (14) 
energy

$$$$
14:0
     RDKit          3D

 42 44  0  0  0  0  0  0  0  0999 V2000
   -5.6260   25.6840  -30.4470 C   0  0  0  0  0  0  0  0  0  0  0  0
   -4.6010   24.6990  -30.8300 N   0  0  0  0  0  0  0  0  0  0  0  0
   -3.6410   24.5370  -29.7240 C   0  0  0  0  0  0  0  0  0  0  0  0
   -5.2370   23.4090  -31.1800 C   0  0  0  0  0  0  0  0  0  0  0  0
   -4.2170   22.4320  -31.7750 C   0  0  0  0  0  0  0  0  0  0  0  0
   -4.6990   21.8630  -33.0330 N   0  0  0  0  0  0  0  0  0  0  0  0
   -5.1580   20.5060  -33.0840 C   0  0  0  0  0  0  0  0  0  0  0  0
   -6.4850   20.1880  -32.7490 C   0  0  0  0  0  0  0  0  0  0  0  0
   -7.3980   21.2020  -32.3940 C   0  0  0  0  0  0  0  0  0  0  0  0
   -8.7130   20.8900  -32.0600 C   0  0  0  0  0  0  0  0  0  0  0  0
   -9.1400   19.5670  -32.0770 C   0  0  0  0  0  0  0  0  0  0  0  0
   -8.2580   18.5470  -32.4330 C   0  0  0  0  0  0  0  0  0  0  0  0
   -6.9120   18.8320  -32.7790 C   0  0  0  0  0  0  0  0  0  0  0  0
   -6.0270   17.8310  -33.1420 N   0  0  0  0  0  0  0  0  0  0  0  0
   -6.4740   16.4210  -33.1590 C   0  0  0  0  0  0  0  0  0  0  0  0
   -4.7320   18.1440  -33.4940 C   0  0  0  0  0  0  0  0  0  0  0  0
   -3.8590   17.1620  -33.8690 N   0  0  0  0  0  0  0  0  0  0  0  0
   -2.5740   17.4170  -34.2240 C   0  0  0  0  0  0  0  0  0  0  0  0
   -2.0950   18.7240  -34.2140 C   0  0  0  0  0  0  0  0  0  0  0  0
   -2.9480   19.7590  -33.8390 C   0  0  0  0  0  0  0  0  0  0  0  0
   -4.2800   19.4840  -33.4720 C   0  0  0  0  0  0  0  0  0  0  0  0
   -5.6867   25.7424  -29.3502 H   0  0  0  0  0  0  0  0  0  0  0  0
   -5.3562   26.6704  -30.8523 H   0  0  0  0  0  0  0  0  0  0  0  0
   -6.6009   25.3752  -30.8523 H   0  0  0  0  0  0  0  0  0  0  0  0
   -4.1697   24.6262  -28.7635 H   0  0  0  0  0  0  0  0  0  0  0  0
   -3.1678   23.5463  -29.7914 H   0  0  0  0  0  0  0  0  0  0  0  0
   -2.8689   25.3175  -29.7914 H   0  0  0  0  0  0  0  0  0  0  0  0
   -5.6717   22.9652  -30.2722 H   0  0  0  0  0  0  0  0  0  0  0  0
   -6.0179   23.5980  -31.9313 H   0  0  0  0  0  0  0  0  0  0  0  0
   -3.2743   22.9673  -31.9615 H   0  0  0  0  0  0  0  0  0  0  0  0
   -4.0628   21.6115  -31.0588 H   0  0  0  0  0  0  0  0  0  0  0  0
   -4.6000   22.3860  -33.9330 H   0  0  0  0  0  0  0  0  0  0  0  0
   -7.0677   22.2511  -32.3808 H   0  0  0  0  0  0  0  0  0  0  0  0
   -9.4145   21.6906  -31.7825 H   0  0  0  0  0  0  0  0  0  0  0  0
  -10.1785   19.3236  -31.8084 H   0  0  0  0  0  0  0  0  0  0  0  0
   -8.6115   17.5054  -32.4457 H   0  0  0  0  0  0  0  0  0  0  0  0
   -6.5884   16.0601  -32.1262 H   0  0  0  0  0  0  0  0  0  0  0  0
   -7.4392   16.3486  -33.6817 H   0  0  0  0  0  0  0  0  0  0  0  0
   -5.7268   15.8058  -33.6817 H   0  0  0  0  0  0  0  0  0  0  0  0
   -1.9109   16.5906  -34.5197 H   0  0  0  0  0  0  0  0  0  0  0  0
   -1.0542   18.9370  -34.4992 H   0  0  0  0  0  0  0  0  0  0  0  0
   -2.5801   20.7956  -33.8293 H   0  0  0  0  0  0  0  0  0  0  0  0
  1  2  1  0
  2  3  1  0
  2  4  1  0
  4  5  1  0
  5  6  1  0
  6  7  1  0
  7  8  2  0
  8  9  1  0
  9 10  2  0
 10 11  1  0
 11 12  2  0
 12 13  1  0
 13 14  2  0
 14 15  1  0
 14 16  1  0
 16 17  2  0
 17 18  1  0
 18 19  2  0
 19 20  1  0
 20 21  2  0
 21  7  1  0
 13  8  1  0
 21 16  1  0
  1 22  1  0
  1 23  1  0
  1 24  1  0
  3 25  1  0
  3 26  1  0
  3 27  1  0
  4 28  1  0
  4 29  1  0
  5 30  1  0
  5 31  1  0
  6 32  1  0
  9 33  1  0
 10 34  1  0
 11 35  1  0
 12 36  1  0
 15 37  1  0
 15 38  1  0
 15 39  1  0
 18 40  1  0
 19 41  1  0
 20 42  1  0
M  CHG  1  14   1
M  END
>  <UniqueID>  (15) 
15

>  <SMILES>  (15) 
CN(C)CCNc1c2ccccc2[n+](C)c2ncccc12

>  <Energy>  (15) 
63.39254148499362

>  <Genealogy>  (15) 
CN(C)CCNc1c2ccccc2[n+](C)c2ncccc12 (3D coordinates assigned)
CN(C)CCNc1c2ccccc2[n+](C)c2ncccc12 (optimized conformer: 63.39254148499362 kcal/mol)

>  <smiles>  (15) 
CN(C)CCNc1c2ccccc2[n+](C)c2ncccc12

>  <score_type>  (15) 
oracle

>  <origin>  (15) 
adg

>  <m_score__min__energy>  (15) 
-7.8700000000000001

>  <m_primary>  (15) 
energy

$$$$
15:0
     RDKit          3D

 53 56  0  0  0  0  0  0  0  0999 V2000
   -3.7310   22.6950  -28.8260 C   0  0  0  0  0  0  0  0  0  0  0  0
   -4.1060   24.1770  -28.9420 C   0  0  0  0  0  0  0  0  0  0  0  0
   -5.5410   24.3820  -29.2590 N   0  0  1  0  0  0  0  0  0  0  0  0
   -5.7450   25.6770  -29.9420 C   0  0  0  0  0  0  0  0  0  0  0  0
   -6.0610   23.2900  -30.1210 C   0  0  0  0  0  0  0  0  0  0  0  0
   -6.8760   23.8050  -31.3300 C   0  0  0  0  0  0  0  0  0  0  0  0
   -6.5170   23.1060  -32.5680 N   0  0  0  0  0  0  0  0  0  0  0  0
   -6.2830   21.6870  -32.6000 C   0  0  0  0  0  0  0  0  0  0  0  0
   -7.3570   20.7810  -32.5240 C   0  0  0  0  0  0  0  0  0  0  0  0
   -8.6820   21.2310  -32.3340 C   0  0  0  0  0  0  0  0  0  0  0  0
   -9.7330   20.3230  -32.2270 C   0  0  0  0  0  0  0  0  0  0  0  0
   -9.4850   18.9570  -32.2850 C   0  0  0  0  0  0  0  0  0  0  0  0
   -8.1800   18.4870  -32.4370 C   0  0  0  0  0  0  0  0  0  0  0  0
   -7.0910   19.3860  -32.5510 C   0  0  0  0  0  0  0  0  0  0  0  0
   -5.7920   18.9310  -32.6560 N   0  0  0  0  0  0  0  0  0  0  0  0
   -5.4690   17.5910  -32.1120 C   0  0  0  0  0  0  0  0  0  0  0  0
   -4.7770   19.8110  -32.9750 C   0  0  0  0  0  0  0  0  0  0  0  0
   -4.9760   21.1930  -32.7410 C   0  0  0  0  0  0  0  0  0  0  0  0
   -3.8640   22.0440  -32.6190 C   0  0  0  0  0  0  0  0  0  0  0  0
   -2.5740   21.5510  -32.7860 C   0  0  0  0  0  0  0  0  0  0  0  0
   -2.3760   20.2410  -33.2320 C   0  0  0  0  0  0  0  0  0  0  0  0
   -1.0800   19.7970  -33.5300 C   0  0  0  0  0  0  0  0  0  0  0  0
   -0.8870   18.5560  -34.1340 C   0  0  0  0  0  0  0  0  0  0  0  0
   -1.9870   17.7890  -34.5140 C   0  0  0  0  0  0  0  0  0  0  0  0
   -3.2870   18.2140  -34.2180 C   0  0  0  0  0  0  0  0  0  0  0  0
   -4.5950   17.4120  -35.0880 Cl  0  0  0  0  0  0  0  0  0  0  0  0
   -3.4920   19.3890  -33.4450 C   0  0  0  0  0  0  0  0  0  0  0  0
   -3.6606   22.4166  -27.7641 H   0  0  0  0  0  0  0  0  0  0  0  0
   -4.5024   22.0822  -29.3153 H   0  0  0  0  0  0  0  0  0  0  0  0
   -2.7610   22.5228  -29.3153 H   0  0  0  0  0  0  0  0  0  0  0  0
   -3.8828   24.6723  -27.9855 H   0  0  0  0  0  0  0  0  0  0  0  0
   -3.5191   24.6043  -29.7684 H   0  0  0  0  0  0  0  0  0  0  0  0
   -6.0990   24.4020  -28.3710 H   0  0  0  0  0  0  0  0  0  0  0  0
   -5.8702   26.4716  -29.1917 H   0  0  0  0  0  0  0  0  0  0  0  0
   -4.8711   25.9013  -30.5713 H   0  0  0  0  0  0  0  0  0  0  0  0
   -6.6455   25.6218  -30.5713 H   0  0  0  0  0  0  0  0  0  0  0  0
   -5.2086   22.7054  -30.4973 H   0  0  0  0  0  0  0  0  0  0  0  0
   -6.7390   22.6813  -29.5047 H   0  0  0  0  0  0  0  0  0  0  0  0
   -7.9463   23.6481  -31.1304 H   0  0  0  0  0  0  0  0  0  0  0  0
   -6.6504   24.8733  -31.4635 H   0  0  0  0  0  0  0  0  0  0  0  0
   -6.3300   23.6610  -33.4340 H   0  0  0  0  0  0  0  0  0  0  0  0
   -8.8863   22.3099  -32.2698 H   0  0  0  0  0  0  0  0  0  0  0  0
  -10.7623   20.6884  -32.0962 H   0  0  0  0  0  0  0  0  0  0  0  0
  -10.3196   18.2443  -32.2109 H   0  0  0  0  0  0  0  0  0  0  0  0
   -7.9942   17.4033  -32.4688 H   0  0  0  0  0  0  0  0  0  0  0  0
   -5.4783   17.6296  -31.0127 H   0  0  0  0  0  0  0  0  0  0  0  0
   -6.2176   16.8639  -32.4597 H   0  0  0  0  0  0  0  0  0  0  0  0
   -4.4713   17.2848  -32.4597 H   0  0  0  0  0  0  0  0  0  0  0  0
   -4.0152   23.1091  -32.3895 H   0  0  0  0  0  0  0  0  0  0  0  0
   -1.7082   22.1931  -32.5667 H   0  0  0  0  0  0  0  0  0  0  0  0
   -0.2136   20.4295  -33.2865 H   0  0  0  0  0  0  0  0  0  0  0  0
    0.1323   18.1822  -34.3107 H   0  0  0  0  0  0  0  0  0  0  0  0
   -1.8319   16.8416  -35.0511 H   0  0  0  0  0  0  0  0  0  0  0  0
  1  2  1  0
  2  3  1  0
  3  4  1  0
  3  5  1  0
  5  6  1  0
  6  7  1  0
  7  8  1  0
  8  9  2  0
  9 10  1  0
 10 11  2  0
 11 12  1  0
 12 13  2  0
 13 14  1  0
 14 15  2  0
 15 16  1  0
 15 17  1  0
 17 18  2  0
 18 19  1  0
 19 20  2  0
 20 21  1  0
 21 22  2  0
 22 23  1  0
 23 24  2  0
 24 25  1  0
 25 26  1  0
 25 27  2  0
 18  8  1  0
 27 21  1  0
 14  9  1  0
 27 17  1  0
  1 28  1  0
  1 29  1  0
  1 30  1  0
  2 31  1  0
  2 32  1  0
  3 33  1  1
  4 34  1  0
  4 35  1  0
  4 36  1  0
  5 37  1  0
  5 38  1  0
  6 39  1  0
  6 40  1  0
  7 41  1  0
 10 42  1  0
 11 43  1  0
 12 44  1  0
 13 45  1  0
 16 46  1  0
 16 47  1  0
 16 48  1  0
 19 49  1  0
 20 50  1  0
 22 51  1  0
 23 52  1  0
 24 53  1  0
M  CHG  2   3   1  15   1
M  END
>  <UniqueID>  (16) 
16

>  <SMILES>  (16) 
CC[N@@H+](C)CCNc1c2ccccc2[n+](C)c2c1ccc1cccc(Cl)c12

>  <Energy>  (16) 
108.65407034326593

>  <Genealogy>  (16) 
CC[NH+](C)CCNc1c2ccccc2[n+](C)c2c1ccc1cccc(Cl)c12 (protonated)
CC[N@@H+](C)CCNc1c2ccccc2[n+](C)c2c1ccc1cccc(Cl)c12 (chirality)
CC[N@@H+](C)CCNc1c2ccccc2[n+](C)c2c1ccc1cccc(Cl)c12 (3D coordinates assigned)
CC[N@@H+](C)CCNc1c2ccccc2[n+](C)c2c1ccc1cccc(Cl)c12 (optimized conformer: 108.65407034326593 kcal/mol)

>  <smiles>  (16) 
CCN(C)CCNc1c2ccccc2[n+](C)c2c1ccc1cccc(Cl)c12

>  <score_type>  (16) 
oracle

>  <origin>  (16) 
adg

>  <m_score__min__energy>  (16) 
-8.2100000000000009

>  <m_primary>  (16) 
energy

$$$$
16:0
     RDKit          3D

 41 43  0  0  0  0  0  0  0  0999 V2000
   -8.1200   22.1470  -30.0900 C   0  0  0  0  0  0  0  0  0  0  0  0
   -7.0870   22.5550  -31.0410 N   0  0  0  0  0  0  0  0  0  0  0  0
   -6.5130   21.8370  -32.0380 C   0  0  0  0  0  0  0  0  0  0  0  0
   -6.8000   20.4240  -32.3680 C   0  0  0  0  0  0  0  0  0  0  0  0
   -5.8330   19.6600  -33.0430 C   0  0  0  0  0  0  0  0  0  0  0  0
   -6.0920   18.3270  -33.3760 C   0  0  0  0  0  0  0  0  0  0  0  0
   -7.3230   17.7510  -33.0530 C   0  0  0  0  0  0  0  0  0  0  0  0
   -8.2990   18.5090  -32.4010 C   0  0  0  0  0  0  0  0  0  0  0  0
   -8.0430   19.8420  -32.0650 C   0  0  0  0  0  0  0  0  0  0  0  0
   -5.5930   22.5690  -32.7030 N   0  0  0  0  0  0  0  0  0  0  0  0
   -5.5960   23.7690  -32.1460 N   0  0  0  0  0  0  0  0  0  0  0  0
   -6.4930   23.7600  -31.1460 C   0  0  0  0  0  0  0  0  0  0  0  0
   -6.8200   25.1770  -30.0890 S   0  0  0  0  0  0  0  0  0  0  0  0
   -5.3690   24.9030  -29.0130 C   0  0  0  0  0  0  0  0  0  0  0  0
   -4.1530   24.5220  -29.8130 C   0  0  0  0  0  0  0  0  0  0  0  0
   -3.8240   25.2700  -30.7740 O   0  0  0  0  0  0  0  0  0  0  0  0
   -3.3760   23.3330  -29.5310 N   0  0  0  0  0  0  0  0  0  0  0  0
   -2.2600   22.9890  -30.4250 C   0  0  0  0  0  0  0  0  0  0  0  0
   -1.2450   22.0990  -29.7030 C   0  0  0  0  0  0  0  0  0  0  0  0
   -1.8860   20.9910  -29.1050 O   0  0  0  0  0  0  0  0  0  0  0  0
   -2.7410   21.4430  -28.0750 C   0  0  0  0  0  0  0  0  0  0  0  0
   -3.8920   22.2760  -28.6470 C   0  0  0  0  0  0  0  0  0  0  0  0
   -7.7517   22.2925  -29.0638 H   0  0  0  0  0  0  0  0  0  0  0  0
   -9.0227   22.7561  -30.2454 H   0  0  0  0  0  0  0  0  0  0  0  0
   -8.3628   21.0854  -30.2454 H   0  0  0  0  0  0  0  0  0  0  0  0
   -4.8671   20.1131  -33.3109 H   0  0  0  0  0  0  0  0  0  0  0  0
   -5.3255   17.7311  -33.8930 H   0  0  0  0  0  0  0  0  0  0  0  0
   -7.5239   16.7009  -33.3119 H   0  0  0  0  0  0  0  0  0  0  0  0
   -9.2701   18.0565  -32.1517 H   0  0  0  0  0  0  0  0  0  0  0  0
   -8.8182   20.4380  -31.5611 H   0  0  0  0  0  0  0  0  0  0  0  0
   -4.9890   24.5650  -32.4390 H   0  0  0  0  0  0  0  0  0  0  0  0
   -5.1560   25.8284  -28.4578 H   0  0  0  0  0  0  0  0  0  0  0  0
   -5.6013   24.0775  -28.3241 H   0  0  0  0  0  0  0  0  0  0  0  0
   -2.6516   22.4527  -31.3019 H   0  0  0  0  0  0  0  0  0  0  0  0
   -1.7583   23.9164  -30.7385 H   0  0  0  0  0  0  0  0  0  0  0  0
   -0.5018   21.7373  -30.4288 H   0  0  0  0  0  0  0  0  0  0  0  0
   -0.7546   22.6902  -28.9156 H   0  0  0  0  0  0  0  0  0  0  0  0
   -3.1551   20.5737  -27.5431 H   0  0  0  0  0  0  0  0  0  0  0  0
   -2.1592   22.0732  -27.3862 H   0  0  0  0  0  0  0  0  0  0  0  0
   -4.5627   21.6199  -29.2211 H   0  0  0  0  0  0  0  0  0  0  0  0
   -4.4386   22.7444  -27.8153 H   0  0  0  0  0  0  0  0  0  0  0  0
  1  2  1  0
  2  3  1  0
  3  4  1  0
  4  5  2  0
  5  6  1  0
  6  7  2  0
  7  8  1  0
  8  9  2  0
  3 10  2  0
 10 11  1  0
 11 12  2  0
 12 13  1  0
 13 14  1  0
 14 15  1  0
 15 16  2  0
 15 17  1  0
 17 18  1  0
 18 19  1  0
 19 20  1  0
 20 21  1  0
 21 22  1  0
 12  2  1  0
 22 17  1  0
  9  4  1  0
  1 23  1  0
  1 24  1  0
  1 25  1  0
  5 26  1  0
  6 27  1  0
  7 28  1  0
  8 29  1  0
  9 30  1  0
 11 31  1  0
 14 32  1  0
 14 33  1  0
 18 34  1  0
 18 35  1  0
 19 36  1  0
 19 37  1  0
 21 38  1  0
 21 39  1  0
 22 40  1  0
 22 41  1  0
M  CHG  1  11   1
M  END
>  <UniqueID>  (17) 
17

>  <SMILES>  (17) 
Cn1c(-c2ccccc2)n[nH+]c1SCC(=O)N1CCOCC1

>  <Energy>  (17) 
78.86315597664773

>  <Genealogy>  (17) 
Cn1c(-c2ccccc2)n[nH+]c1SCC(=O)N1CCOCC1 (protonated)
Cn1c(-c2ccccc2)n[nH+]c1SCC(=O)N1CCOCC1 (3D coordinates assigned)
Cn1c(-c2ccccc2)n[nH+]c1SCC(=O)N1CCOCC1 (nonaromatic ring conformer: 78.86315597664773 kcal/mol)

>  <smiles>  (17) 
Cn1c(SCC(=O)N2CCOCC2)nnc1-c1ccccc1

>  <score_type>  (17) 
oracle

>  <origin>  (17) 
adg

>  <m_score__min__energy>  (17) 
-7.5

>  <m_primary>  (17) 
energy

$$$$
17:0
     RDKit          3D

 45 48  0  0  0  0  0  0  0  0999 V2000
   -5.7360   18.1860  -35.0540 C   0  0  0  0  0  0  0  0  0  0  0  0
   -4.5560   18.5700  -34.2860 N   0  0  0  0  0  0  0  0  0  0  0  0
   -3.3360   18.1160  -34.5390 N   0  0  0  0  0  0  0  0  0  0  0  0
   -2.4410   18.8100  -33.8060 C   0  0  0  0  0  0  0  0  0  0  0  0
   -3.1320   19.7360  -33.0530 C   0  0  0  0  0  0  0  0  0  0  0  0
   -4.4530   19.5760  -33.3890 C   0  0  0  0  0  0  0  0  0  0  0  0
   -5.5420   20.4580  -32.8420 C   0  0  1  0  0  0  0  0  0  0  0  0
   -6.2140   19.8100  -31.6150 C   0  0  0  0  0  0  0  0  0  0  0  0
   -7.3090   19.0000  -32.0070 O   0  0  0  0  0  0  0  0  0  0  0  0
   -8.4990   19.7550  -32.1240 C   0  0  0  0  0  0  0  0  0  0  0  0
   -8.4430   20.9850  -31.2090 C   0  0  0  0  0  0  0  0  0  0  0  0
   -9.6410   21.9220  -31.2630 C   0  0  0  0  0  0  0  0  0  0  0  0
   -8.3430   22.3100  -31.9510 C   0  0  0  0  0  0  0  0  0  0  0  0
   -4.9000   21.8090  -32.4380 C   0  0  0  0  0  0  0  0  0  0  0  0
   -3.7220   21.5790  -31.5580 N   0  0  0  0  0  0  0  0  0  0  0  0
   -3.2550   22.8410  -30.9530 C   0  0  0  0  0  0  0  0  0  0  0  0
   -4.4250   23.6900  -30.5700 C   0  0  0  0  0  0  0  0  0  0  0  0
   -4.5070   25.0110  -30.8440 N   0  0  0  0  0  0  0  0  0  0  0  0
   -5.6600   25.5540  -30.3690 C   0  0  0  0  0  0  0  0  0  0  0  0
   -6.5030   24.6670  -29.7100 C   0  0  0  0  0  0  0  0  0  0  0  0
   -5.7750   23.1510  -29.7260 S   0  0  0  0  0  0  0  0  0  0  0  0
   -2.6170   20.9210  -32.2970 C   0  0  0  0  0  0  0  0  0  0  0  0
   -6.5515   17.9206  -34.3651 H   0  0  0  0  0  0  0  0  0  0  0  0
   -6.0509   19.0280  -35.6879 H   0  0  0  0  0  0  0  0  0  0  0  0
   -5.4951   17.3199  -35.6879 H   0  0  0  0  0  0  0  0  0  0  0  0
   -3.1090   17.3820  -35.2470 H   0  0  0  0  0  0  0  0  0  0  0  0
   -1.3509   18.6630  -33.8085 H   0  0  0  0  0  0  0  0  0  0  0  0
   -6.3179   20.6067  -33.6075 H   0  0  0  0  0  0  0  0  0  0  0  0
   -5.4764   19.1876  -31.0872 H   0  0  0  0  0  0  0  0  0  0  0  0
   -6.5856   20.6081  -30.9554 H   0  0  0  0  0  0  0  0  0  0  0  0
   -8.6187   20.0840  -33.1668 H   0  0  0  0  0  0  0  0  0  0  0  0
   -9.3514   19.1267  -31.8261 H   0  0  0  0  0  0  0  0  0  0  0  0
   -7.8928   20.4881  -30.3964 H   0  0  0  0  0  0  0  0  0  0  0  0
  -10.5226   21.6533  -31.8635 H   0  0  0  0  0  0  0  0  0  0  0  0
  -10.2945   22.3924  -30.5136 H   0  0  0  0  0  0  0  0  0  0  0  0
   -8.2852   22.3221  -33.0494 H   0  0  0  0  0  0  0  0  0  0  0  0
   -7.6682   23.1775  -31.9057 H   0  0  0  0  0  0  0  0  0  0  0  0
   -4.5772   22.3426  -33.3441 H   0  0  0  0  0  0  0  0  0  0  0  0
   -5.6428   22.4087  -31.8916 H   0  0  0  0  0  0  0  0  0  0  0  0
   -2.6593   22.6161  -30.0560 H   0  0  0  0  0  0  0  0  0  0  0  0
   -2.6389   23.3849  -31.6842 H   0  0  0  0  0  0  0  0  0  0  0  0
   -5.9074   26.6181  -30.4971 H   0  0  0  0  0  0  0  0  0  0  0  0
   -7.4750   24.9131  -29.2577 H   0  0  0  0  0  0  0  0  0  0  0  0
   -2.1752   21.6386  -33.0040 H   0  0  0  0  0  0  0  0  0  0  0  0
   -1.8559   20.5839  -31.5778 H   0  0  0  0  0  0  0  0  0  0  0  0
  1  2  1  0
  2  3  1  0
  3  4  2  0
  4  5  1  0
  5  6  2  0
  6  7  1  0
  7  8  1  0
  8  9  1  0
  9 10  1  0
 10 11  1  0
 11 12  1  0
 12 13  1  0
  7 14  1  0
 14 15  1  0
 15 16  1  0
 16 17  1  0
 17 18  2  0
 18 19  1  0
 19 20  2  0
 20 21  1  0
 15 22  1  0
  6  2  1  0
 13 11  1  0
 21 17  1  0
 22  5  1  0
  1 23  1  0
  1 24  1  0
  1 25  1  0
  3 26  1  0
  4 27  1  0
  7 28  1  6
  8 29  1  0
  8 30  1  0
 10 31  1  0
 10 32  1  0
 11 33  1  0
 12 34  1  0
 12 35  1  0
 13 36  1  0
 13 37  1  0
 14 38  1  0
 14 39  1  0
 16 40  1  0
 16 41  1  0
 19 42  1  0
 20 43  1  0
 22 44  1  0
 22 45  1  0
M  CHG  1   3   1
M  END
>  <UniqueID>  (18) 
18

>  <SMILES>  (18) 
Cn1[nH+]cc2c1[C@@H](COCC1CC1)CN(Cc1nccs1)C2

>  <Energy>  (18) 
375.5156071464876

>  <Genealogy>  (18) 
Cn1[nH+]cc2c1C(COCC1CC1)CN(Cc1nccs1)C2 (protonated)
Cn1[nH+]cc2c1[C@@H](COCC1CC1)CN(Cc1nccs1)C2 (chirality)
Cn1[nH+]cc2c1[C@@H](COCC1CC1)CN(Cc1nccs1)C2 (3D coordinates assigned)
Cn1[nH+]cc2c1[C@@H](COCC1CC1)CN(Cc1nccs1)C2 (nonaromatic ring conformer: 375.5156071464876 kcal/mol)

>  <smiles>  (18) 
Cn1ncc2c1C(COCC1CC1)CN(Cc1nccs1)C2

>  <score_type>  (18) 
oracle

>  <origin>  (18) 
adg

>  <m_score__min__energy>  (18) 
-7.0999999999999996

>  <m_primary>  (18) 
energy

$$$$
18:0
     RDKit          3D

 50 53  0  0  1  0  0  0  0  0999 V2000
   -0.9370   25.1140  -28.1560 C   0  0  0  0  0  0  0  0  0  0  0  0
   -1.8260   24.3890  -29.1020 C   0  0  0  0  0  0  0  0  0  0  0  0
   -1.6040   23.1230  -29.4960 N   0  0  0  0  0  0  0  0  0  0  0  0
   -2.3770   22.4340  -30.3440 C   0  0  0  0  0  0  0  0  0  0  0  0
   -3.4960   23.0290  -30.8770 C   0  0  0  0  0  0  0  0  0  0  0  0
   -4.1000   22.1560  -31.6890 N   0  0  0  0  0  0  0  0  0  0  0  0
   -3.3580   21.0230  -31.6600 C   0  0  0  0  0  0  0  0  0  0  0  0
   -3.7370   19.8430  -32.4380 C   0  0  0  0  0  0  0  0  0  0  0  0
   -4.8550   19.0830  -32.2130 C   0  0  0  0  0  0  0  0  0  0  0  0
   -5.1960   17.9720  -32.9950 C   0  0  0  0  0  0  0  0  0  0  0  0
   -4.4060   17.5870  -34.0420 C   0  0  0  0  0  0  0  0  0  0  0  0
   -3.2810   18.3280  -34.2890 C   0  0  0  0  0  0  0  0  0  0  0  0
   -2.9420   19.4320  -33.5150 C   0  0  0  0  0  0  0  0  0  0  0  0
   -1.4770   20.2630  -33.9650 Cl  0  0  0  0  0  0  0  0  0  0  0  0
   -2.3000   21.1620  -30.8460 N   0  0  0  0  0  0  0  0  0  0  0  0
   -1.2510   20.2720  -30.4720 C   0  0  0  0  0  0  0  0  0  0  0  0
   -3.7260   24.3400  -30.4700 C   0  0  0  0  0  0  0  0  0  0  0  0
   -4.7470   24.9830  -30.9010 N   0  0  0  0  0  0  0  0  0  0  0  0
   -6.0790   24.7360  -30.3220 C   0  0  0  0  0  0  0  0  0  0  0  0
   -6.8030   24.0010  -31.4360 C   0  0  0  0  0  0  0  0  0  0  0  0
   -6.8010   22.5870  -31.3440 N   0  0  0  0  0  0  0  0  0  0  0  0
   -7.6370   22.0500  -30.3090 C   0  0  0  0  0  0  0  0  0  0  0  0
   -9.0540   21.9940  -30.8380 C   0  0  0  0  0  0  0  0  0  0  0  0
   -9.1190   21.4620  -32.1230 O   0  0  0  0  0  0  0  0  0  0  0  0
   -7.9240   20.8200  -32.4580 C   0  0  0  0  0  0  0  0  0  0  0  0
   -6.7890   21.8370  -32.5510 C   0  0  0  0  0  0  0  0  0  0  0  0
   -2.9180   24.9900  -29.6130 N   0  0  0  0  0  0  0  0  0  0  0  0
   -1.2291   24.8758  -27.1226 H   0  0  0  0  0  0  0  0  0  0  0  0
    0.1055   24.8053  -28.3228 H   0  0  0  0  0  0  0  0  0  0  0  0
   -1.0297   26.1973  -28.3228 H   0  0  0  0  0  0  0  0  0  0  0  0
   -5.5163   19.3587  -31.3783 H   0  0  0  0  0  0  0  0  0  0  0  0
   -6.1090   17.4035  -32.7642 H   0  0  0  0  0  0  0  0  0  0  0  0
   -4.6638   16.7158  -34.6621 H   0  0  0  0  0  0  0  0  0  0  0  0
   -2.6260   18.0410  -35.1249 H   0  0  0  0  0  0  0  0  0  0  0  0
   -1.1887   20.2191  -29.3750 H   0  0  0  0  0  0  0  0  0  0  0  0
   -1.4585   19.2702  -30.8762 H   0  0  0  0  0  0  0  0  0  0  0  0
   -0.2964   20.6399  -30.8762 H   0  0  0  0  0  0  0  0  0  0  0  0
   -6.0081   24.1133  -29.4180 H   0  0  0  0  0  0  0  0  0  0  0  0
   -6.5916   25.6559  -30.0042 H   0  0  0  0  0  0  0  0  0  0  0  0
   -7.8502   24.3377  -31.4378 H   0  0  0  0  0  0  0  0  0  0  0  0
   -6.2545   24.2414  -32.3587 H   0  0  0  0  0  0  0  0  0  0  0  0
   -7.2976   21.0384  -30.0416 H   0  0  0  0  0  0  0  0  0  0  0  0
   -7.5882   22.6823  -29.4102 H   0  0  0  0  0  0  0  0  0  0  0  0
   -9.6580   21.3676  -30.1651 H   0  0  0  0  0  0  0  0  0  0  0  0
   -9.4374   23.0241  -30.8811 H   0  0  0  0  0  0  0  0  0  0  0  0
   -7.6824   20.0751  -31.6855 H   0  0  0  0  0  0  0  0  0  0  0  0
   -8.0432   20.3241  -33.4326 H   0  0  0  0  0  0  0  0  0  0  0  0
   -5.8256   21.3182  -32.6634 H   0  0  0  0  0  0  0  0  0  0  0  0
   -6.9227   22.4948  -33.4224 H   0  0  0  0  0  0  0  0  0  0  0  0
   -3.1140   25.9690  -29.3280 H   0  0  0  0  0  0  0  0  0  0  0  0
  1  2  1  0
  2  3  2  0
  3  4  1  0
  4  5  2  0
  5  6  1  0
  6  7  2  0
  7  8  1  0
  8  9  2  0
  9 10  1  0
 10 11  2  0
 11 12  1  0
 12 13  2  0
 13 14  1  0
  7 15  1  0
 15 16  1  0
  5 17  1  0
 17 18  2  0
 18 19  1  0
 19 20  1  0
 20 21  1  0
 21 22  1  0
 22 23  1  0
 23 24  1  0
 24 25  1  0
 25 26  1  0
 17 27  1  0
 27  2  1  0
 15  4  1  0
 26 21  1  0
 13  8  1  0
  1 28  1  0
  1 29  1  0
  1 30  1  0
  9 31  1  0
 10 32  1  0
 11 33  1  0
 12 34  1  0
 16 35  1  0
 16 36  1  0
 16 37  1  0
 19 38  1  0
 19 39  1  0
 20 40  1  0
 20 41  1  0
 22 42  1  0
 22 43  1  0
 23 44  1  0
 23 45  1  0
 25 46  1  0
 25 47  1  0
 26 48  1  0
 26 49  1  0
 27 50  1  0
M  END
>  <smiles>  (19) 
Cc1nc2c(nc(-c3ccccc3Cl)n2C)c(=NCCN2CCOCC2)[nH]1

>  <score_type>  (19) 
oracle

>  <origin>  (19) 
adg

>  <m_score__min__energy>  (19) 
-8.5600000000000005

>  <m_primary>  (19) 
energy

$$$$
19:0
     RDKit          3D

 53 56  0  0  0  0  0  0  0  0999 V2000
   -4.0060   24.1620  -27.8280 C   0  0  0  0  0  0  0  0  0  0  0  0
   -3.1530   24.4330  -29.0630 C   0  0  0  0  0  0  0  0  0  0  0  0
   -3.6510   23.6410  -30.2120 N   0  0  0  0  0  0  0  0  0  0  0  0
   -2.9820   22.3300  -30.2650 C   0  0  0  0  0  0  0  0  0  0  0  0
   -5.1190   23.4650  -30.1640 C   0  0  0  0  0  0  0  0  0  0  0  0
   -5.7910   24.0940  -31.3900 C   0  0  0  0  0  0  0  0  0  0  0  0
   -5.4830   23.3350  -32.6020 N   0  0  0  0  0  0  0  0  0  0  0  0
   -5.6990   21.9150  -32.6660 C   0  0  0  0  0  0  0  0  0  0  0  0
   -6.9660   21.3520  -32.4230 C   0  0  0  0  0  0  0  0  0  0  0  0
   -8.0390   22.1500  -31.9720 C   0  0  0  0  0  0  0  0  0  0  0  0
   -9.2930   21.5910  -31.7410 C   0  0  0  0  0  0  0  0  0  0  0  0
   -9.4990   20.2320  -31.9410 C   0  0  0  0  0  0  0  0  0  0  0  0
   -8.4480   19.4160  -32.3620 C   0  0  0  0  0  0  0  0  0  0  0  0
   -7.1570   19.9520  -32.6040 C   0  0  0  0  0  0  0  0  0  0  0  0
   -6.1010   19.1500  -32.9990 N   0  0  0  0  0  0  0  0  0  0  0  0
   -6.3080   17.7020  -33.2210 C   0  0  0  0  0  0  0  0  0  0  0  0
   -4.8490   19.6950  -33.1720 C   0  0  0  0  0  0  0  0  0  0  0  0
   -3.7880   18.9160  -33.5320 N   0  0  0  0  0  0  0  0  0  0  0  0
   -2.5440   19.4260  -33.7260 C   0  0  0  0  0  0  0  0  0  0  0  0
   -1.4690   18.5990  -34.1040 C   0  0  0  0  0  0  0  0  0  0  0  0
   -1.6700   17.1200  -34.2930 C   0  0  0  0  0  0  0  0  0  0  0  0
   -0.1990   19.1700  -34.2940 C   0  0  0  0  0  0  0  0  0  0  0  0
   -0.0060   20.5440  -34.1150 C   0  0  0  0  0  0  0  0  0  0  0  0
   -1.0740   21.3640  -33.7430 C   0  0  0  0  0  0  0  0  0  0  0  0
   -2.3420   20.8080  -33.5480 C   0  0  0  0  0  0  0  0  0  0  0  0
   -3.3890   21.5920  -33.1910 N   0  0  0  0  0  0  0  0  0  0  0  0
   -4.6350   21.0760  -32.9980 C   0  0  0  0  0  0  0  0  0  0  0  0
   -3.4107   24.3511  -26.9225 H   0  0  0  0  0  0  0  0  0  0  0  0
   -4.8832   24.8257  -27.8354 H   0  0  0  0  0  0  0  0  0  0  0  0
   -4.3393   23.1137  -27.8354 H   0  0  0  0  0  0  0  0  0  0  0  0
   -3.2022   25.5036  -29.3109 H   0  0  0  0  0  0  0  0  0  0  0  0
   -2.1129   24.1442  -28.8515 H   0  0  0  0  0  0  0  0  0  0  0  0
   -2.7985   21.9704  -29.2418 H   0  0  0  0  0  0  0  0  0  0  0  0
   -3.6239   21.6120  -30.7964 H   0  0  0  0  0  0  0  0  0  0  0  0
   -2.0239   22.4285  -30.7964 H   0  0  0  0  0  0  0  0  0  0  0  0
   -5.3513   22.3901  -30.1390 H   0  0  0  0  0  0  0  0  0  0  0  0
   -5.5013   23.9644  -29.2615 H   0  0  0  0  0  0  0  0  0  0  0  0
   -6.8804   24.1033  -31.2382 H   0  0  0  0  0  0  0  0  0  0  0  0
   -5.4108   25.1190  -31.5115 H   0  0  0  0  0  0  0  0  0  0  0  0
   -5.4510   23.8680  -33.5010 H   0  0  0  0  0  0  0  0  0  0  0  0
   -7.8829   23.2254  -31.8011 H   0  0  0  0  0  0  0  0  0  0  0  0
  -10.1227   22.2272  -31.3992 H   0  0  0  0  0  0  0  0  0  0  0  0
  -10.4943   19.7973  -31.7669 H   0  0  0  0  0  0  0  0  0  0  0  0
   -8.6234   18.3400  -32.5085 H   0  0  0  0  0  0  0  0  0  0  0  0
   -6.3813   17.1891  -32.2507 H   0  0  0  0  0  0  0  0  0  0  0  0
   -7.2374   17.5473  -33.7887 H   0  0  0  0  0  0  0  0  0  0  0  0
   -5.4592   17.2931  -33.7887 H   0  0  0  0  0  0  0  0  0  0  0  0
   -1.7365   16.6305  -33.3102 H   0  0  0  0  0  0  0  0  0  0  0  0
   -2.6002   16.9450  -34.8535 H   0  0  0  0  0  0  0  0  0  0  0  0
   -0.8202   16.7031  -34.8535 H   0  0  0  0  0  0  0  0  0  0  0  0
    0.6488   18.5325  -34.5853 H   0  0  0  0  0  0  0  0  0  0  0  0
    0.9919   20.9809  -34.2680 H   0  0  0  0  0  0  0  0  0  0  0  0
   -0.9179   22.4439  -33.6039 H   0  0  0  0  0  0  0  0  0  0  0  0
  1  2  1  0
  2  3  1  0
  3  4  1  0
  3  5  1  0
  5  6  1  0
  6  7  1  0
  7  8  1  0
  8  9  2  0
  9 10  1  0
 10 11  2  0
 11 12  1  0
 12 13  2  0
 13 14  1  0
 14 15  2  0
 15 16  1  0
 15 17  1  0
 17 18  2  0
 18 19  1  0
 19 20  2  0
 20 21  1  0
 20 22  1  0
 22 23  2  0
 23 24  1  0
 24 25  2  0
 25 26  1  0
 26 27  2  0
 27  8  1  0
 14  9  1  0
 27 17  1  0
 25 19  1  0
  1 28  1  0
  1 29  1  0
  1 30  1  0
  2 31  1  0
  2 32  1  0
  4 33  1  0
  4 34  1  0
  4 35  1  0
  5 36  1  0
  5 37  1  0
  6 38  1  0
  6 39  1  0
  7 40  1  0
 10 41  1  0
 11 42  1  0
 12 43  1  0
 13 44  1  0
 16 45  1  0
 16 46  1  0
 16 47  1  0
 21 48  1  0
 21 49  1  0
 21 50  1  0
 22 51  1  0
 23 52  1  0
 24 53  1  0
M  CHG  1  15   1
M  END
>  <UniqueID>  (20) 
19

>  <SMILES>  (20) 
CCN(C)CCNc1c2ccccc2[n+](C)c2nc3c(C)cccc3nc12

>  <Energy>  (20) 
72.33674314493292

>  <Genealogy>  (20) 
CCN(C)CCNc1c2ccccc2[n+](C)c2nc3c(C)cccc3nc12 (3D coordinates assigned)
CCN(C)CCNc1c2ccccc2[n+](C)c2nc3c(C)cccc3nc12 (optimized conformer: 72.33674314493292 kcal/mol)

>  <smiles>  (20) 
CCN(C)CCNc1c2ccccc2[n+](C)c2nc3c(C)cccc3nc12

>  <score_type>  (20) 
oracle

>  <origin>  (20) 
adg

>  <m_score__min__energy>  (20) 
-8.8800000000000008

>  <m_primary>  (20) 
energy

$$$$
20:0
     RDKit          3D

 64 66  0  0  0  0  0  0  0  0999 V2000
   -2.0220   21.7490  -31.4790 C   0  0  0  0  0  0  0  0  0  0  0  0
   -2.6250   21.5950  -32.7590 O   0  0  0  0  0  0  0  0  0  0  0  0
   -2.8880   20.3280  -33.2880 C   0  0  0  0  0  0  0  0  0  0  0  0
   -1.8250   19.6040  -33.8590 C   0  0  0  0  0  0  0  0  0  0  0  0
   -0.5390   20.2280  -34.0930 N   0  0  0  0  0  0  0  0  0  0  0  0
   -0.0390   19.9580  -35.4530 C   0  0  0  0  0  0  0  0  0  0  0  0
    0.2190   21.2490  -36.2520 C   0  0  0  0  0  0  0  0  0  0  0  0
    0.6930   22.3240  -35.3540 N   0  0  0  0  0  0  0  0  0  0  0  0
    0.5600   23.6370  -36.0070 C   0  0  0  0  0  0  0  0  0  0  0  0
    2.0970   22.1120  -34.9630 C   0  0  0  0  0  0  0  0  0  0  0  0
   -2.0260   18.2680  -34.2140 C   0  0  0  0  0  0  0  0  0  0  0  0
   -3.2690   17.6660  -34.0460 C   0  0  0  0  0  0  0  0  0  0  0  0
   -4.3880   18.4060  -33.5960 C   0  0  0  0  0  0  0  0  0  0  0  0
   -4.1930   19.7670  -33.2310 C   0  0  0  0  0  0  0  0  0  0  0  0
   -5.3120   20.5290  -32.8350 C   0  0  0  0  0  0  0  0  0  0  0  0
   -5.2390   21.9620  -32.7660 N   0  0  0  0  0  0  0  0  0  0  0  0
   -5.5970   22.6690  -31.5360 C   0  0  0  0  0  0  0  0  0  0  0  0
   -5.7600   24.1710  -31.7990 C   0  0  0  0  0  0  0  0  0  0  0  0
   -4.9220   24.9610  -30.8710 N   0  0  0  0  0  0  0  0  0  0  0  0
   -3.9840   24.0920  -30.1380 C   0  0  0  0  0  0  0  0  0  0  0  0
   -5.7720   25.6790  -29.9060 C   0  0  0  0  0  0  0  0  0  0  0  0
   -6.5300   19.8840  -32.5710 C   0  0  0  0  0  0  0  0  0  0  0  0
   -7.6140   20.5920  -32.0100 C   0  0  0  0  0  0  0  0  0  0  0  0
   -8.8030   19.9360  -31.6950 C   0  0  0  0  0  0  0  0  0  0  0  0
   -8.9260   18.5700  -31.9240 C   0  0  0  0  0  0  0  0  0  0  0  0
   -7.8730   17.8570  -32.4970 C   0  0  0  0  0  0  0  0  0  0  0  0
   -6.6670   18.5040  -32.8680 C   0  0  0  0  0  0  0  0  0  0  0  0
   -5.6450   17.8330  -33.5100 N   0  0  0  0  0  0  0  0  0  0  0  0
   -5.9050   16.5140  -34.1300 C   0  0  0  0  0  0  0  0  0  0  0  0
   -2.7703   21.5579  -30.6958 H   0  0  0  0  0  0  0  0  0  0  0  0
   -1.1926   21.0339  -31.3760 H   0  0  0  0  0  0  0  0  0  0  0  0
   -1.6371   22.7743  -31.3760 H   0  0  0  0  0  0  0  0  0  0  0  0
   -0.6320   21.2620  -33.9670 H   0  0  0  0  0  0  0  0  0  0  0  0
    0.1690   19.9040  -33.3930 H   0  0  0  0  0  0  0  0  0  0  0  0
    0.9032   19.3953  -35.3775 H   0  0  0  0  0  0  0  0  0  0  0  0
   -0.8109   19.3832  -35.9856 H   0  0  0  0  0  0  0  0  0  0  0  0
    0.9830   21.0541  -37.0191 H   0  0  0  0  0  0  0  0  0  0  0  0
   -0.7202   21.5687  -36.7271 H   0  0  0  0  0  0  0  0  0  0  0  0
    0.4805   24.4216  -35.2401 H   0  0  0  0  0  0  0  0  0  0  0  0
    1.4436   23.8257  -36.6344 H   0  0  0  0  0  0  0  0  0  0  0  0
   -0.3435   23.6447  -36.6344 H   0  0  0  0  0  0  0  0  0  0  0  0
    2.1743   22.1003  -33.8658 H   0  0  0  0  0  0  0  0  0  0  0  0
    2.4486   21.1506  -35.3656 H   0  0  0  0  0  0  0  0  0  0  0  0
    2.7168   22.9267  -35.3656 H   0  0  0  0  0  0  0  0  0  0  0  0
   -1.1917   17.6851  -34.6313 H   0  0  0  0  0  0  0  0  0  0  0  0
   -3.3840   16.5946  -34.2672 H   0  0  0  0  0  0  0  0  0  0  0  0
   -4.6830   22.4700  -33.4900 H   0  0  0  0  0  0  0  0  0  0  0  0
   -6.5450   22.2653  -31.1509 H   0  0  0  0  0  0  0  0  0  0  0  0
   -4.7925   22.5252  -30.7998 H   0  0  0  0  0  0  0  0  0  0  0  0
   -5.4579   24.3908  -32.8336 H   0  0  0  0  0  0  0  0  0  0  0  0
   -6.8139   24.4441  -31.6415 H   0  0  0  0  0  0  0  0  0  0  0  0
   -4.1290   24.2263  -29.0559 H   0  0  0  0  0  0  0  0  0  0  0  0
   -4.1719   23.0417  -30.4055 H   0  0  0  0  0  0  0  0  0  0  0  0
   -2.9511   24.3594  -30.4055 H   0  0  0  0  0  0  0  0  0  0  0  0
   -5.4645   25.4193  -28.8823 H   0  0  0  0  0  0  0  0  0  0  0  0
   -5.6636   26.7631  -30.0575 H   0  0  0  0  0  0  0  0  0  0  0  0
   -6.8227   25.3909  -30.0575 H   0  0  0  0  0  0  0  0  0  0  0  0
   -7.5200   21.6713  -31.8195 H   0  0  0  0  0  0  0  0  0  0  0  0
   -9.6444   20.4993  -31.2651 H   0  0  0  0  0  0  0  0  0  0  0  0
   -9.8566   18.0501  -31.6524 H   0  0  0  0  0  0  0  0  0  0  0  0
   -7.9799   16.7750  -32.6638 H   0  0  0  0  0  0  0  0  0  0  0  0
   -6.0534   15.7612  -33.3418 H   0  0  0  0  0  0  0  0  0  0  0  0
   -6.8086   16.5741  -34.7544 H   0  0  0  0  0  0  0  0  0  0  0  0
   -5.0462   16.2267  -34.7544 H   0  0  0  0  0  0  0  0  0  0  0  0
  1  2  1  0
  2  3  1  0
  3  4  2  0
  4  5  1  0
  5  6  1  0
  6  7  1  0
  7  8  1  0
  8  9  1  0
  8 10  1  0
  4 11  1  0
 11 12  2  0
 12 13  1  0
 13 14  2  0
 14 15  1  0
 15 16  1  0
 16 17  1  0
 17 18  1  0
 18 19  1  0
 19 20  1  0
 19 21  1  0
 15 22  2  0
 22 23  1  0
 23 24  2  0
 24 25  1  0
 25 26  2  0
 26 27  1  0
 27 28  2  0
 28 29  1  0
 14  3  1  0
 27 22  1  0
 28 13  1  0
  1 30  1  0
  1 31  1  0
  1 32  1  0
  5 33  1  0
  5 34  1  0
  6 35  1  0
  6 36  1  0
  7 37  1  0
  7 38  1  0
  9 39  1  0
  9 40  1  0
  9 41  1  0
 10 42  1  0
 10 43  1  0
 10 44  1  0
 11 45  1  0
 12 46  1  0
 16 47  1  0
 17 48  1  0
 17 49  1  0
 18 50  1  0
 18 51  1  0
 20 52  1  0
 20 53  1  0
 20 54  1  0
 21 55  1  0
 21 56  1  0
 21 57  1  0
 23 58  1  0
 24 59  1  0
 25 60  1  0
 26 61  1  0
 29 62  1  0
 29 63  1  0
 29 64  1  0
M  CHG  2   5   1  28   1
M  END
>  <UniqueID>  (21) 
20

>  <SMILES>  (21) 
COc1c([NH2+]CCN(C)C)ccc2c1c(NCCN(C)C)c1ccccc1[n+]2C

>  <Energy>  (21) 
98.4765809088778

>  <Genealogy>  (21) 
COc1c([NH2+]CCN(C)C)ccc2c1c(NCCN(C)C)c1ccccc1[n+]2C (protonated)
COc1c([NH2+]CCN(C)C)ccc2c1c(NCCN(C)C)c1ccccc1[n+]2C (3D coordinates assigned)
COc1c([NH2+]CCN(C)C)ccc2c1c(NCCN(C)C)c1ccccc1[n+]2C (optimized conformer: 98.4765809088778 kcal/mol)

>  <smiles>  (21) 
COc1c(NCCN(C)C)ccc2c1c(NCCN(C)C)c1ccccc1[n+]2C

>  <score_type>  (21) 
oracle

>  <origin>  (21) 
adg

>  <m_score__min__energy>  (21) 
-7.7000000000000002

>  <m_primary>  (21) 
energy

$$$$
21:0
     RDKit          3D

 57 59  0  0  0  0  0  0  0  0999 V2000
    1.1370   25.7350  -35.7110 C   0  0  0  0  0  0  0  0  0  0  0  0
    0.2700   24.6910  -36.4110 C   0  0  0  0  0  0  0  0  0  0  0  0
    0.3280   23.4050  -35.7030 N   0  0  0  0  0  0  0  0  0  0  0  0
    1.5070   22.6260  -36.1120 C   0  0  0  0  0  0  0  0  0  0  0  0
    1.3050   21.1270  -35.8380 C   0  0  0  0  0  0  0  0  0  0  0  0
    0.5800   20.8300  -34.5130 C   0  0  0  0  0  0  0  0  0  0  0  0
   -0.8460   21.1830  -34.5960 N   0  0  0  0  0  0  0  0  0  0  0  0
   -1.4950   21.1760  -33.2780 C   0  0  0  0  0  0  0  0  0  0  0  0
   -3.0140   21.2510  -33.4650 C   0  0  0  0  0  0  0  0  0  0  0  0
   -3.7400   20.0310  -32.8850 C   0  0  0  0  0  0  0  0  0  0  0  0
   -4.3190   20.3180  -31.5700 N   0  0  0  0  0  0  0  0  0  0  0  0
   -5.5510   21.0450  -31.4810 C   0  0  0  0  0  0  0  0  0  0  0  0
   -6.7480   20.3870  -31.8130 C   0  0  0  0  0  0  0  0  0  0  0  0
   -6.7650   18.9960  -32.0610 C   0  0  0  0  0  0  0  0  0  0  0  0
   -7.9590   18.3390  -32.3440 C   0  0  0  0  0  0  0  0  0  0  0  0
   -9.1540   19.0480  -32.3760 C   0  0  0  0  0  0  0  0  0  0  0  0
   -9.1570   20.4250  -32.1560 C   0  0  0  0  0  0  0  0  0  0  0  0
   -7.9510   21.1300  -31.9100 C   0  0  0  0  0  0  0  0  0  0  0  0
   -7.9250   22.5020  -31.7740 N   0  0  0  0  0  0  0  0  0  0  0  0
   -9.0940   23.3050  -32.2060 C   0  0  0  0  0  0  0  0  0  0  0  0
   -6.8040   23.1270  -31.2560 C   0  0  0  0  0  0  0  0  0  0  0  0
   -6.8480   24.4870  -30.8540 C   0  0  0  0  0  0  0  0  0  0  0  0
   -5.7180   25.1330  -30.3700 C   0  0  0  0  0  0  0  0  0  0  0  0
   -4.5270   24.4380  -30.2230 C   0  0  0  0  0  0  0  0  0  0  0  0
   -4.4440   23.0840  -30.5520 C   0  0  0  0  0  0  0  0  0  0  0  0
   -2.9110   22.3080  -30.1310 Cl  0  0  0  0  0  0  0  0  0  0  0  0
   -5.5790   22.4070  -31.0990 C   0  0  0  0  0  0  0  0  0  0  0  0
    1.0414   25.6199  -34.6212 H   0  0  0  0  0  0  0  0  0  0  0  0
    2.1880   25.5948  -36.0038 H   0  0  0  0  0  0  0  0  0  0  0  0
    0.8061   26.7424  -36.0038 H   0  0  0  0  0  0  0  0  0  0  0  0
   -0.7717   25.0437  -36.4334 H   0  0  0  0  0  0  0  0  0  0  0  0
    0.6478   24.5476  -37.4341 H   0  0  0  0  0  0  0  0  0  0  0  0
   -0.5230   22.8650  -35.9890 H   0  0  0  0  0  0  0  0  0  0  0  0
    1.6792   22.7740  -37.1883 H   0  0  0  0  0  0  0  0  0  0  0  0
    2.3731   22.9730  -35.5294 H   0  0  0  0  0  0  0  0  0  0  0  0
    0.7123   20.7008  -36.6608 H   0  0  0  0  0  0  0  0  0  0  0  0
    2.3060   20.6771  -35.7634 H   0  0  0  0  0  0  0  0  0  0  0  0
    0.6715   19.7575  -34.2865 H   0  0  0  0  0  0  0  0  0  0  0  0
    1.0430   21.4349  -33.7194 H   0  0  0  0  0  0  0  0  0  0  0  0
   -0.9230   22.1500  -34.9870 H   0  0  0  0  0  0  0  0  0  0  0  0
   -1.2351   20.2497  -32.7447 H   0  0  0  0  0  0  0  0  0  0  0  0
   -1.1513   22.0410  -32.6918 H   0  0  0  0  0  0  0  0  0  0  0  0
   -3.3868   22.1552  -32.9616 H   0  0  0  0  0  0  0  0  0  0  0  0
   -3.2160   21.2764  -34.5460 H   0  0  0  0  0  0  0  0  0  0  0  0
   -4.5464   19.7361  -33.5726 H   0  0  0  0  0  0  0  0  0  0  0  0
   -3.0061   19.2203  -32.7664 H   0  0  0  0  0  0  0  0  0  0  0  0
   -3.9970   19.7980  -30.7210 H   0  0  0  0  0  0  0  0  0  0  0  0
   -5.8245   18.4263  -32.0301 H   0  0  0  0  0  0  0  0  0  0  0  0
   -7.9568   17.2571  -32.5426 H   0  0  0  0  0  0  0  0  0  0  0  0
  -10.0993   18.5219  -32.5753 H   0  0  0  0  0  0  0  0  0  0  0  0
  -10.1103   20.9735  -32.1735 H   0  0  0  0  0  0  0  0  0  0  0  0
   -9.6322   23.6747  -31.3208 H   0  0  0  0  0  0  0  0  0  0  0  0
   -8.7500   24.1584  -32.8089 H   0  0  0  0  0  0  0  0  0  0  0  0
   -9.7671   22.6777  -32.8089 H   0  0  0  0  0  0  0  0  0  0  0  0
   -7.7958   25.0405  -30.9272 H   0  0  0  0  0  0  0  0  0  0  0  0
   -5.7678   26.1988  -30.1025 H   0  0  0  0  0  0  0  0  0  0  0  0
   -3.6367   24.9601  -29.8425 H   0  0  0  0  0  0  0  0  0  0  0  0
  1  2  1  0
  2  3  1  0
  3  4  1  0
  4  5  1  0
  5  6  1  0
  6  7  1  0
  7  8  1  0
  8  9  1  0
  9 10  1  0
 10 11  1  0
 11 12  1  0
 12 13  2  0
 13 14  1  0
 14 15  2  0
 15 16  1  0
 16 17  2  0
 17 18  1  0
 18 19  2  0
 19 20  1  0
 19 21  1  0
 21 22  2  0
 22 23  1  0
 23 24  2  0
 24 25  1  0
 25 26  1  0
 25 27  2  0
 27 12  1  0
 18 13  1  0
 27 21  1  0
  1 28  1  0
  1 29  1  0
  1 30  1  0
  2 31  1  0
  2 32  1  0
  3 33  1  0
  4 34  1  0
  4 35  1  0
  5 36  1  0
  5 37  1  0
  6 38  1  0
  6 39  1  0
  7 40  1  0
  8 41  1  0
  8 42  1  0
  9 43  1  0
  9 44  1  0
 10 45  1  0
 10 46  1  0
 11 47  1  0
 14 48  1  0
 15 49  1  0
 16 50  1  0
 17 51  1  0
 20 52  1  0
 20 53  1  0
 20 54  1  0
 22 55  1  0
 23 56  1  0
 24 57  1  0
M  CHG  1  19   1
M  END
>  <UniqueID>  (22) 
21

>  <SMILES>  (22) 
CCNCCCNCCCNc1c2ccccc2[n+](C)c2cccc(Cl)c12

>  <Energy>  (22) 
81.2929384776908

>  <Genealogy>  (22) 
CCNCCCNCCCNc1c2ccccc2[n+](C)c2cccc(Cl)c12 (3D coordinates assigned)
CCNCCCNCCCNc1c2ccccc2[n+](C)c2cccc(Cl)c12 (optimized conformer: 81.2929384776908 kcal/mol)

>  <smiles>  (22) 
CCNCCCNCCCNc1c2ccccc2[n+](C)c2cccc(Cl)c12

>  <score_type>  (22) 
oracle

>  <origin>  (22) 
adg

>  <m_score__min__energy>  (22) 
-9.7799999999999994

>  <m_primary>  (22) 
energy

$$$$
22:0
     RDKit          3D

 52 55  0  0  0  0  0  0  0  0999 V2000
    0.3220   23.9940  -23.7040 H   0  0  0  0  0  0  0  0  0  0  0  0
    0.7180   24.3610  -24.5820 N   0  0  0  0  0  0  0  0  0  0  0  0
    0.2530   24.0520  -25.7440 C   0  0  0  0  0  0  0  0  0  0  0  0
   -0.4740   25.1010  -26.6100 C   0  0  0  0  0  0  0  0  0  0  0  0
    0.1480   26.4300  -26.4560 C   0  0  0  0  0  0  0  0  0  0  0  0
    0.6360   27.4730  -26.3370 N   0  0  0  0  0  0  0  0  0  0  0  0
   -1.8620   25.2040  -26.1150 C   0  0  0  0  0  0  0  0  0  0  0  0
   -2.9510   25.2840  -25.7300 N   0  0  0  0  0  0  0  0  0  0  0  0
   -0.4190   24.7330  -28.1310 C   0  0  1  0  0  0  0  0  0  0  0  0
    0.5578   25.1380  -28.4339 H   0  0  0  0  0  0  0  0  0  0  0  0
   -0.6040   23.2640  -28.3460 C   0  0  0  0  0  0  0  0  0  0  0  0
   -1.7150   23.0600  -29.0690 C   0  0  0  0  0  0  0  0  0  0  0  0
   -2.3440   21.8690  -29.4640 C   0  0  0  0  0  0  0  0  0  0  0  0
   -1.9298   20.8949  -29.1646 H   0  0  0  0  0  0  0  0  0  0  0  0
   -3.5070   21.9360  -30.2450 C   0  0  0  0  0  0  0  0  0  0  0  0
   -3.9989   21.0068  -30.5683 H   0  0  0  0  0  0  0  0  0  0  0  0
   -4.0550   23.1850  -30.6220 C   0  0  0  0  0  0  0  0  0  0  0  0
   -5.2170   23.2860  -31.4030 O   0  0  0  0  0  0  0  0  0  0  0  0
   -6.3710   22.4700  -31.2370 C   0  0  0  0  0  0  0  0  0  0  0  0
   -6.5696   22.3296  -30.1642 H   0  0  0  0  0  0  0  0  0  0  0  0
   -7.2363   22.9582  -31.7092 H   0  0  0  0  0  0  0  0  0  0  0  0
   -6.1992   21.4915  -31.7092 H   0  0  0  0  0  0  0  0  0  0  0  0
   -3.4300   24.3700  -30.1970 C   0  0  0  0  0  0  0  0  0  0  0  0
   -3.9750   25.6090  -30.5410 O   0  0  0  0  0  0  0  0  0  0  0  0
   -5.3690   25.8610  -30.4260 C   0  0  0  0  0  0  0  0  0  0  0  0
   -5.6461   25.9111  -29.3626 H   0  0  0  0  0  0  0  0  0  0  0  0
   -5.6102   26.8173  -30.9132 H   0  0  0  0  0  0  0  0  0  0  0  0
   -5.9297   25.0497  -30.9132 H   0  0  0  0  0  0  0  0  0  0  0  0
   -2.2610   24.2790  -29.4290 C   0  0  0  0  0  0  0  0  0  0  0  0
   -1.5480   25.2860  -28.9480 C   0  0  0  0  0  0  0  0  0  0  0  0
   -1.7509   26.3534  -29.1198 H   0  0  0  0  0  0  0  0  0  0  0  0
    0.3600   22.3460  -27.6220 C   0  0  2  0  0  0  0  0  0  0  0  0
    1.3471   22.6461  -28.0036 H   0  0  0  0  0  0  0  0  0  0  0  0
    0.3480   20.8460  -27.9640 C   0  0  0  0  0  0  0  0  0  0  0  0
    1.3542   20.4421  -27.7782 H   0  0  0  0  0  0  0  0  0  0  0  0
    0.0432   20.7654  -29.0178 H   0  0  0  0  0  0  0  0  0  0  0  0
   -0.6410   20.0360  -27.1650 C   0  0  0  0  0  0  0  0  0  0  0  0
   -0.8898   19.0239  -27.5167 H   0  0  0  0  0  0  0  0  0  0  0  0
   -1.2370   20.4860  -26.0420 C   0  0  0  0  0  0  0  0  0  0  0  0
   -2.0910   19.6790  -25.2690 O   0  0  0  0  0  0  0  0  0  0  0  0
   -2.9230   18.6230  -25.7520 C   0  0  0  0  0  0  0  0  0  0  0  0
   -2.3293   17.6997  -25.8223 H   0  0  0  0  0  0  0  0  0  0  0  0
   -3.7614   18.4872  -25.0530 H   0  0  0  0  0  0  0  0  0  0  0  0
   -3.4850   18.9620  -27.1290 C   0  0  0  0  0  0  0  0  0  0  0  0
   -4.4217   19.5270  -27.0138 H   0  0  0  0  0  0  0  0  0  0  0  0
   -2.7554   19.5708  -27.6831 H   0  0  0  0  0  0  0  0  0  0  0  0
   -3.6832   18.0326  -27.6831 H   0  0  0  0  0  0  0  0  0  0  0  0
   -1.0790   21.9160  -25.5940 C   0  0  0  0  0  0  0  0  0  0  0  0
   -1.0709   21.9397  -24.4943 H   0  0  0  0  0  0  0  0  0  0  0  0
   -1.9220   22.4861  -26.0115 H   0  0  0  0  0  0  0  0  0  0  0  0
    0.2170   22.5690  -26.1080 C   0  0  2  0  0  0  0  0  0  0  0  0
    1.0784   22.0919  -25.6176 H   0  0  0  0  0  0  0  0  0  0  0  0
  1  2  1  0
  2  3  2  0
  3  4  1  0
  4  5  1  0
  5  6  3  0
  4  7  1  0
  7  8  3  0
  4  9  1  0
  9 10  1  6
  9 11  1  0
 11 12  2  0
 12 13  1  0
 13 14  1  0
 13 15  2  0
 15 16  1  0
 15 17  1  0
 17 18  1  0
 18 19  1  0
 19 20  1  0
 19 21  1  0
 19 22  1  0
 17 23  2  0
 23 24  1  0
 24 25  1  0
 25 26  1  0
 25 27  1  0
 25 28  1  0
 23 29  1  0
 29 30  2  0
 30 31  1  0
 11 32  1  0
 32 33  1  6
 32 34  1  0
 34 35  1  0
 34 36  1  0
 34 37  1  0
 37 38  1  0
 37 39  2  0
 39 40  1  0
 40 41  1  0
 41 42  1  0
 41 43  1  0
 41 44  1  0
 44 45  1  0
 44 46  1  0
 44 47  1  0
 39 48  1  0
 48 49  1  0
 48 50  1  0
 48 51  1  0
 51 52  1  1
 51  3  1  0
 30  9  1  0
 51 32  1  0
 29 12  1  0
M  END
>  <UniqueID>  (23) 
22

>  <SMILES>  (23) 
[H]/N=C1/C2CC(OCC)=CC[C@H]2C2=c3ccc(OC)c(OC)c3=C[C@H]2C1(C#N)C#N

>  <Energy>  (23) 
94.16059086659537

>  <Genealogy>  (23) 
CCOC1=CC[C@H]2C3=c4ccc(OC)c(OC)c4=C[C@H]3C(C#N)(C#N)C(=N)C2C1 (chirality)
[H]/N=C1/C2CC(OCC)=CC[C@H]2C2=c3ccc(OC)c(OC)c3=C[C@H]2C1(C#N)C#N (cis-trans isomerization)
[H]/N=C1/C2CC(OCC)=CC[C@H]2C2=c3ccc(OC)c(OC)c3=C[C@H]2C1(C#N)C#N (3D coordinates assigned)
[H]/N=C1/C2CC(OCC)=CC[C@H]2C2=c3ccc(OC)c(OC)c3=C[C@H]2C1(C#N)C#N (nonaromatic ring conformer: 94.16059086659537 kcal/mol)

>  <smiles>  (23) 
CCOC1=CCC2C3=c4ccc(OC)c(OC)c4=CC3C(C#N)(C#N)C(=N)C2C1

>  <score_type>  (23) 
oracle

>  <origin>  (23) 
adg

>  <m_score__min__energy>  (23) 
-7.6500000000000004

>  <m_primary>  (23) 
energy

$$$$
23:0
     RDKit          3D

 31 33  0  0  1  0  0  0  0  0999 V2000
   -6.5410   25.6870  -29.3450 C   0  0  0  0  0  0  0  0  0  0  0  0
   -5.8540   24.7490  -30.2040 N   0  0  0  0  0  0  0  0  0  0  0  0
   -4.5300   24.7960  -30.4420 C   0  0  0  0  0  0  0  0  0  0  0  0
   -4.1800   23.7970  -31.2780 N   0  0  0  0  0  0  0  0  0  0  0  0
   -5.3010   23.1410  -31.5470 C   0  0  0  0  0  0  0  0  0  0  0  0
   -5.5790   22.0330  -32.3350 C   0  0  0  0  0  0  0  0  0  0  0  0
   -4.6160   21.4640  -32.9690 N   0  0  0  0  0  0  0  0  0  0  0  0
   -4.0500   20.2090  -32.6120 C   0  0  0  0  0  0  0  0  0  0  0  0
   -5.0290   19.1090  -32.9070 C   0  0  0  0  0  0  0  0  0  0  0  0
   -5.8580   18.5820  -31.9410 C   0  0  0  0  0  0  0  0  0  0  0  0
   -6.7660   17.5630  -32.2210 C   0  0  0  0  0  0  0  0  0  0  0  0
   -6.8610   17.0510  -33.4830 C   0  0  0  0  0  0  0  0  0  0  0  0
   -6.0460   17.5570  -34.4750 C   0  0  0  0  0  0  0  0  0  0  0  0
   -5.1530   18.5660  -34.1800 C   0  0  0  0  0  0  0  0  0  0  0  0
   -6.8350   21.5640  -32.4340 N   0  0  0  0  0  0  0  0  0  0  0  0
   -7.8410   22.1440  -31.7830 C   0  0  0  0  0  0  0  0  0  0  0  0
   -9.4620   21.4930  -31.9450 Cl  0  0  0  0  0  0  0  0  0  0  0  0
   -7.6090   23.2200  -31.0090 N   0  0  0  0  0  0  0  0  0  0  0  0
   -6.3650   23.7210  -30.8830 C   0  0  0  0  0  0  0  0  0  0  0  0
   -6.3511   25.4277  -28.2930 H   0  0  0  0  0  0  0  0  0  0  0  0
   -6.1727   26.7042  -29.5442 H   0  0  0  0  0  0  0  0  0  0  0  0
   -7.6219   25.6428  -29.5442 H   0  0  0  0  0  0  0  0  0  0  0  0
   -3.8372   25.5379  -30.0182 H   0  0  0  0  0  0  0  0  0  0  0  0
   -3.1299   20.0447  -33.1921 H   0  0  0  0  0  0  0  0  0  0  0  0
   -3.8147   20.2083  -31.5375 H   0  0  0  0  0  0  0  0  0  0  0  0
   -5.8012   18.9782  -30.9164 H   0  0  0  0  0  0  0  0  0  0  0  0
   -7.4098   17.1689  -31.4209 H   0  0  0  0  0  0  0  0  0  0  0  0
   -7.5772   16.2464  -33.7060 H   0  0  0  0  0  0  0  0  0  0  0  0
   -6.1083   17.1569  -35.4978 H   0  0  0  0  0  0  0  0  0  0  0  0
   -4.5132   18.9566  -34.9850 H   0  0  0  0  0  0  0  0  0  0  0  0
   -7.0440   20.7360  -33.0230 H   0  0  0  0  0  0  0  0  0  0  0  0
  1  2  1  0
  2  3  1  0
  3  4  2  0
  4  5  1  0
  5  6  1  0
  6  7  2  0
  7  8  1  0
  8  9  1  0
  9 10  2  0
 10 11  1  0
 11 12  2  0
 12 13  1  0
 13 14  2  0
  6 15  1  0
 15 16  1  0
 16 17  1  0
 16 18  2  0
 18 19  1  0
 19  2  1  0
 19  5  2  0
 14  9  1  0
  1 20  1  0
  1 21  1  0
  1 22  1  0
  3 23  1  0
  8 24  1  0
  8 25  1  0
 10 26  1  0
 11 27  1  0
 12 28  1  0
 13 29  1  0
 14 30  1  0
 15 31  1  0
M  END
>  <smiles>  (24) 
Cn1cnc2c(=NCc3ccccc3)[nH]c(Cl)nc21

>  <score_type>  (24) 
oracle

>  <origin>  (24) 
adg

>  <m_score__min__energy>  (24) 
-6.96

>  <m_primary>  (24) 
energy

$$$$
24:0
     RDKit          3D

 79 82  0  0  0  0  0  0  0  0999 V2000
   -0.9850   21.4230  -26.4900 C   0  0  0  0  0  0  0  0  0  0  0  0
   -0.6630   20.2900  -27.4560 C   0  0  0  0  0  0  0  0  0  0  0  0
   -1.9230   19.7710  -28.0530 N   0  0  0  0  0  0  0  0  0  0  0  0
   -3.0350   19.7780  -27.0770 C   0  0  0  0  0  0  0  0  0  0  0  0
   -2.8810   18.6460  -26.0610 C   0  0  0  0  0  0  0  0  0  0  0  0
   -2.3010   20.5180  -29.2760 C   0  0  0  0  0  0  0  0  0  0  0  0
   -1.1640   20.5160  -30.3020 C   0  0  0  0  0  0  0  0  0  0  0  0
   -1.2940   19.3910  -31.1460 O   0  0  0  0  0  0  0  0  0  0  0  0
   -1.3090   19.8090  -32.4950 C   0  0  0  0  0  0  0  0  0  0  0  0
   -2.2160   21.0360  -32.6250 C   0  0  0  0  0  0  0  0  0  0  0  0
   -3.1330   20.9430  -33.7790 N   0  0  0  0  0  0  0  0  0  0  0  0
   -4.4640   20.4890  -33.3880 C   0  0  0  0  0  0  0  0  0  0  0  0
   -4.8900   19.1490  -33.6240 C   0  0  0  0  0  0  0  0  0  0  0  0
   -4.0610   18.1870  -34.2600 C   0  0  0  0  0  0  0  0  0  0  0  0
   -4.4670   16.8640  -34.4050 C   0  0  0  0  0  0  0  0  0  0  0  0
   -5.6980   16.4560  -33.9200 C   0  0  0  0  0  0  0  0  0  0  0  0
   -6.5520   17.3790  -33.3280 C   0  0  0  0  0  0  0  0  0  0  0  0
   -6.1950   18.7470  -33.2120 C   0  0  0  0  0  0  0  0  0  0  0  0
   -7.0820   19.6720  -32.7020 N   0  0  0  0  0  0  0  0  0  0  0  0
   -8.5210   19.3320  -32.5960 C   0  0  0  0  0  0  0  0  0  0  0  0
   -6.6430   20.9230  -32.3280 C   0  0  0  0  0  0  0  0  0  0  0  0
   -7.4580   21.7820  -31.5470 C   0  0  0  0  0  0  0  0  0  0  0  0
   -7.0500   23.0710  -31.2230 C   0  0  0  0  0  0  0  0  0  0  0  0
   -5.8110   23.5480  -31.6570 C   0  0  0  0  0  0  0  0  0  0  0  0
   -5.3620   24.8460  -31.3720 O   0  0  0  0  0  0  0  0  0  0  0  0
   -5.4610   25.4760  -30.0980 C   0  0  0  0  0  0  0  0  0  0  0  0
   -4.9970   24.5220  -28.9810 C   0  0  0  0  0  0  0  0  0  0  0  0
   -3.5420   24.5270  -28.7080 N   0  0  0  0  0  0  0  0  0  0  0  0
   -2.7360   23.7820  -29.7000 C   0  0  0  0  0  0  0  0  0  0  0  0
   -1.2380   23.7480  -29.3210 C   0  0  0  0  0  0  0  0  0  0  0  0
   -0.8900   24.8210  -28.2840 C   0  0  0  0  0  0  0  0  0  0  0  0
   -1.7490   24.6700  -27.0140 C   0  0  0  0  0  0  0  0  0  0  0  0
   -3.1770   24.1810  -27.3220 C   0  0  0  0  0  0  0  0  0  0  0  0
   -4.9760   22.7060  -32.3910 C   0  0  0  0  0  0  0  0  0  0  0  0
   -5.3490   21.3740  -32.7080 C   0  0  0  0  0  0  0  0  0  0  0  0
   -0.8827   21.0631  -25.4556 H   0  0  0  0  0  0  0  0  0  0  0  0
   -0.2885   22.2576  -26.6584 H   0  0  0  0  0  0  0  0  0  0  0  0
   -2.0163   21.7665  -26.6584 H   0  0  0  0  0  0  0  0  0  0  0  0
   -0.0066   20.6653  -28.2549 H   0  0  0  0  0  0  0  0  0  0  0  0
   -0.1548   19.4796  -26.9128 H   0  0  0  0  0  0  0  0  0  0  0  0
   -3.0401   20.7406  -26.5447 H   0  0  0  0  0  0  0  0  0  0  0  0
   -3.9796   19.6332  -27.6217 H   0  0  0  0  0  0  0  0  0  0  0  0
   -2.9370   19.0574  -25.0424 H   0  0  0  0  0  0  0  0  0  0  0  0
   -3.6876   17.9120  -26.2048 H   0  0  0  0  0  0  0  0  0  0  0  0
   -1.9077   18.1541  -26.2048 H   0  0  0  0  0  0  0  0  0  0  0  0
   -3.1886   20.0471  -29.7237 H   0  0  0  0  0  0  0  0  0  0  0  0
   -2.5137   21.5600  -28.9950 H   0  0  0  0  0  0  0  0  0  0  0  0
   -1.2127   21.4346  -30.9052 H   0  0  0  0  0  0  0  0  0  0  0  0
   -0.1975   20.4722  -29.7785 H   0  0  0  0  0  0  0  0  0  0  0  0
   -0.2884   20.0692  -32.8121 H   0  0  0  0  0  0  0  0  0  0  0  0
   -1.6881   18.9966  -33.1323 H   0  0  0  0  0  0  0  0  0  0  0  0
   -2.8137   21.1315  -31.7065 H   0  0  0  0  0  0  0  0  0  0  0  0
   -1.5707   21.9130  -32.7813 H   0  0  0  0  0  0  0  0  0  0  0  0
   -2.7300   20.2900  -34.4860 H   0  0  0  0  0  0  0  0  0  0  0  0
   -3.1360   21.8390  -34.3060 H   0  0  0  0  0  0  0  0  0  0  0  0
   -3.0778   18.4941  -34.6459 H   0  0  0  0  0  0  0  0  0  0  0  0
   -3.8079   16.1400  -34.9065 H   0  0  0  0  0  0  0  0  0  0  0  0
   -6.0000   15.4016  -34.0032 H   0  0  0  0  0  0  0  0  0  0  0  0
   -7.5250   17.0417  -32.9414 H   0  0  0  0  0  0  0  0  0  0  0  0
   -8.8048   19.2650  -31.5353 H   0  0  0  0  0  0  0  0  0  0  0  0
   -9.1195   20.1135  -33.0870 H   0  0  0  0  0  0  0  0  0  0  0  0
   -8.7065   18.3653  -33.0870 H   0  0  0  0  0  0  0  0  0  0  0  0
   -8.4337   21.4206  -31.1901 H   0  0  0  0  0  0  0  0  0  0  0  0
   -7.7059   23.7181  -30.6221 H   0  0  0  0  0  0  0  0  0  0  0  0
   -4.8285   26.3759  -30.0901 H   0  0  0  0  0  0  0  0  0  0  0  0
   -6.5119   25.7465  -29.9180 H   0  0  0  0  0  0  0  0  0  0  0  0
   -5.5175   24.8053  -28.0543 H   0  0  0  0  0  0  0  0  0  0  0  0
   -5.2374   23.5066  -29.3291 H   0  0  0  0  0  0  0  0  0  0  0  0
   -3.1109   22.7495  -29.7589 H   0  0  0  0  0  0  0  0  0  0  0  0
   -2.8299   24.2953  -30.6684 H   0  0  0  0  0  0  0  0  0  0  0  0
   -0.9984   22.7587  -28.9041 H   0  0  0  0  0  0  0  0  0  0  0  0
   -0.6504   23.9465  -30.2295 H   0  0  0  0  0  0  0  0  0  0  0  0
    0.1716   24.7259  -28.0122 H   0  0  0  0  0  0  0  0  0  0  0  0
   -1.0914   25.8086  -28.7246 H   0  0  0  0  0  0  0  0  0  0  0  0
   -1.2643   23.9441  -26.3446 H   0  0  0  0  0  0  0  0  0  0  0  0
   -1.8293   25.6618  -26.5451 H   0  0  0  0  0  0  0  0  0  0  0  0
   -3.2232   23.0893  -27.1951 H   0  0  0  0  0  0  0  0  0  0  0  0
   -3.8815   24.6677  -26.6315 H   0  0  0  0  0  0  0  0  0  0  0  0
   -4.0017   23.0847  -32.7336 H   0  0  0  0  0  0  0  0  0  0  0  0
  1  2  1  0
  2  3  1  0
  3  4  1  0
  4  5  1  0
  3  6  1  0
  6  7  1  0
  7  8  1  0
  8  9  1  0
  9 10  1  0
 10 11  1  0
 11 12  1  0
 12 13  2  0
 13 14  1  0
 14 15  2  0
 15 16  1  0
 16 17  2  0
 17 18  1  0
 18 19  2  0
 19 20  1  0
 19 21  1  0
 21 22  2  0
 22 23  1  0
 23 24  2  0
 24 25  1  0
 25 26  1  0
 26 27  1  0
 27 28  1  0
 28 29  1  0
 29 30  1  0
 30 31  1  0
 31 32  1  0
 32 33  1  0
 24 34  1  0
 34 35  2  0
 35 12  1  0
 18 13  1  0
 35 21  1  0
 33 28  1  0
  1 36  1  0
  1 37  1  0
  1 38  1  0
  2 39  1  0
  2 40  1  0
  4 41  1  0
  4 42  1  0
  5 43  1  0
  5 44  1  0
  5 45  1  0
  6 46  1  0
  6 47  1  0
  7 48  1  0
  7 49  1  0
  9 50  1  0
  9 51  1  0
 10 52  1  0
 10 53  1  0
 11 54  1  0
 11 55  1  0
 14 56  1  0
 15 57  1  0
 16 58  1  0
 17 59  1  0
 20 60  1  0
 20 61  1  0
 20 62  1  0
 22 63  1  0
 23 64  1  0
 26 65  1  0
 26 66  1  0
 27 67  1  0
 27 68  1  0
 29 69  1  0
 29 70  1  0
 30 71  1  0
 30 72  1  0
 31 73  1  0
 31 74  1  0
 32 75  1  0
 32 76  1  0
 33 77  1  0
 33 78  1  0
 34 79  1  0
M  CHG  2  11   1  19   1
M  END
>  <UniqueID>  (25) 
23

>  <SMILES>  (25) 
CCN(CC)CCOCC[NH2+]c1c2ccccc2[n+](C)c2ccc(OCCN3CCCCC3)cc12

>  <Energy>  (25) 
114.68528393461976

>  <Genealogy>  (25) 
CCN(CC)CCOCC[NH2+]c1c2ccccc2[n+](C)c2ccc(OCCN3CCCCC3)cc12 (protonated)
CCN(CC)CCOCC[NH2+]c1c2ccccc2[n+](C)c2ccc(OCCN3CCCCC3)cc12 (3D coordinates assigned)
CCN(CC)CCOCC[NH2+]c1c2ccccc2[n+](C)c2ccc(OCCN3CCCCC3)cc12 (nonaromatic ring conformer: 114.68528393461976 kcal/mol)

>  <smiles>  (25) 
CCN(CC)CCOCCNc1c2ccccc2[n+](C)c2ccc(OCCN3CCCCC3)cc12

>  <score_type>  (25) 
oracle

>  <origin>  (25) 
adg

>  <m_score__min__energy>  (25) 
-9.0099999999999998

>  <m_primary>  (25) 
energy

$$$$
25:0
     RDKit          3D

 33 35  0  0  0  0  0  0  0  0999 V2000
   -5.0640   17.1850  -34.9710 C   0  0  0  0  0  0  0  0  0  0  0  0
   -4.6370   17.7980  -33.6440 C   0  0  0  0  0  0  0  0  0  0  0  0
   -5.4540   18.9710  -33.3420 N   0  0  0  0  0  0  0  0  0  0  0  0
   -5.0890   20.2760  -33.4130 C   0  0  0  0  0  0  0  0  0  0  0  0
   -6.0530   21.1310  -32.9700 N   0  0  0  0  0  0  0  0  0  0  0  0
   -7.0450   20.2970  -32.6080 C   0  0  0  0  0  0  0  0  0  0  0  0
   -8.2790   20.5860  -32.0420 C   0  0  0  0  0  0  0  0  0  0  0  0
   -8.7930   22.2710  -31.7040 S   0  0  0  0  0  0  0  0  0  0  0  0
   -7.9250   22.3820  -30.0990 C   0  0  0  0  0  0  0  0  0  0  0  0
   -6.7170   23.2720  -30.1980 C   0  0  0  0  0  0  0  0  0  0  0  0
   -6.8580   24.6710  -30.1800 C   0  0  0  0  0  0  0  0  0  0  0  0
   -5.7360   25.4930  -30.3040 C   0  0  0  0  0  0  0  0  0  0  0  0
   -4.4650   24.9280  -30.4490 C   0  0  0  0  0  0  0  0  0  0  0  0
   -4.3170   23.5380  -30.4710 C   0  0  0  0  0  0  0  0  0  0  0  0
   -5.4380   22.7110  -30.3480 C   0  0  0  0  0  0  0  0  0  0  0  0
   -9.0960   19.5360  -31.7310 N   0  0  0  0  0  0  0  0  0  0  0  0
   -8.7100   18.2390  -31.9570 C   0  0  0  0  0  0  0  0  0  0  0  0
   -7.4870   17.9640  -32.5050 N   0  0  0  0  0  0  0  0  0  0  0  0
   -6.6870   19.0100  -32.8220 C   0  0  0  0  0  0  0  0  0  0  0  0
   -5.6834   16.2959  -34.7817 H   0  0  0  0  0  0  0  0  0  0  0  0
   -5.6455   17.9215  -35.5449 H   0  0  0  0  0  0  0  0  0  0  0  0
   -4.1716   16.8948  -35.5449 H   0  0  0  0  0  0  0  0  0  0  0  0
   -4.7608   17.0536  -32.8437 H   0  0  0  0  0  0  0  0  0  0  0  0
   -3.5827   18.1041  -33.7136 H   0  0  0  0  0  0  0  0  0  0  0  0
   -4.1116   20.6105  -33.7908 H   0  0  0  0  0  0  0  0  0  0  0  0
   -8.6134   22.7929  -29.3458 H   0  0  0  0  0  0  0  0  0  0  0  0
   -7.5937   21.3736  -29.8102 H   0  0  0  0  0  0  0  0  0  0  0  0
   -7.8561   25.1196  -30.0678 H   0  0  0  0  0  0  0  0  0  0  0  0
   -5.8521   26.5867  -30.2876 H   0  0  0  0  0  0  0  0  0  0  0  0
   -3.5821   25.5770  -30.5457 H   0  0  0  0  0  0  0  0  0  0  0  0
   -3.3171   23.0941  -30.5853 H   0  0  0  0  0  0  0  0  0  0  0  0
   -5.3178   21.6178  -30.3688 H   0  0  0  0  0  0  0  0  0  0  0  0
   -9.3890   17.4140  -31.6956 H   0  0  0  0  0  0  0  0  0  0  0  0
  1  2  1  0
  2  3  1  0
  3  4  1  0
  4  5  2  0
  5  6  1  0
  6  7  2  0
  7  8  1  0
  8  9  1  0
  9 10  1  0
 10 11  2  0
 11 12  1  0
 12 13  2  0
 13 14  1  0
 14 15  2  0
  7 16  1  0
 16 17  2  0
 17 18  1  0
 18 19  2  0
 19  3  1  0
 19  6  1  0
 15 10  1  0
  1 20  1  0
  1 21  1  0
  1 22  1  0
  2 23  1  0
  2 24  1  0
  4 25  1  0
  9 26  1  0
  9 27  1  0
 11 28  1  0
 12 29  1  0
 13 30  1  0
 14 31  1  0
 15 32  1  0
 17 33  1  0
M  END
>  <UniqueID>  (26) 
24

>  <SMILES>  (26) 
CCn1cnc2c(SCc3ccccc3)ncnc21

>  <Energy>  (26) 
67.65670457401606

>  <Genealogy>  (26) 
CCn1cnc2c(SCc3ccccc3)ncnc21 (3D coordinates assigned)
CCn1cnc2c(SCc3ccccc3)ncnc21 (optimized conformer: 67.65670457401606 kcal/mol)

>  <smiles>  (26) 
CCn1cnc2c(SCc3ccccc3)ncnc21

>  <score_type>  (26) 
oracle

>  <origin>  (26) 
adg

>  <m_score__min__energy>  (26) 
-6.8700000000000001

>  <m_primary>  (26) 
energy

$$$$
26:0
     RDKit          3D

 36 38  0  0  0  0  0  0  0  0999 V2000
   -3.7190   21.4260  -29.7430 C   0  0  0  0  0  0  0  0  0  0  0  0
   -4.0170   22.7680  -30.2440 N   0  0  0  0  0  0  0  0  0  0  0  0
   -3.2870   23.8920  -30.0800 C   0  0  0  0  0  0  0  0  0  0  0  0
   -1.9810   23.9770  -29.3410 C   0  0  0  0  0  0  0  0  0  0  0  0
   -1.6800   25.3640  -28.9890 N   0  0  0  0  0  0  0  0  0  0  0  0
   -1.4790   25.8330  -27.6420 C   0  0  0  0  0  0  0  0  0  0  0  0
   -2.2000   25.3010  -26.5520 C   0  0  0  0  0  0  0  0  0  0  0  0
   -1.9740   25.7780  -25.2570 C   0  0  0  0  0  0  0  0  0  0  0  0
   -1.0360   26.7880  -25.0330 C   0  0  0  0  0  0  0  0  0  0  0  0
   -0.3190   27.3230  -26.1050 C   0  0  0  0  0  0  0  0  0  0  0  0
   -0.5390   26.8490  -27.4020 C   0  0  0  0  0  0  0  0  0  0  0  0
   -3.9080   24.9620  -30.6120 N   0  0  0  0  0  0  0  0  0  0  0  0
   -5.0360   24.5280  -31.1530 N   0  0  0  0  0  0  0  0  0  0  0  0
   -5.0920   23.1960  -30.9440 C   0  0  0  0  0  0  0  0  0  0  0  0
   -6.2050   22.3550  -31.4320 C   0  0  0  0  0  0  0  0  0  0  0  0
   -5.9740   21.2870  -32.3160 C   0  0  0  0  0  0  0  0  0  0  0  0
   -7.0420   20.5180  -32.7870 C   0  0  0  0  0  0  0  0  0  0  0  0
   -8.3480   20.8150  -32.3910 C   0  0  0  0  0  0  0  0  0  0  0  0
   -8.5890   21.8890  -31.5300 C   0  0  0  0  0  0  0  0  0  0  0  0
   -7.5240   22.6610  -31.0580 C   0  0  0  0  0  0  0  0  0  0  0  0
   -3.7213   21.4364  -28.6431 H   0  0  0  0  0  0  0  0  0  0  0  0
   -4.4826   20.7217  -30.1046 H   0  0  0  0  0  0  0  0  0  0  0  0
   -2.7290   21.1111  -30.1046 H   0  0  0  0  0  0  0  0  0  0  0  0
   -2.0457   23.3763  -28.4218 H   0  0  0  0  0  0  0  0  0  0  0  0
   -1.1799   23.5932  -29.9898 H   0  0  0  0  0  0  0  0  0  0  0  0
   -1.6090   26.0510  -29.7740 H   0  0  0  0  0  0  0  0  0  0  0  0
   -2.9430   24.5077  -26.7216 H   0  0  0  0  0  0  0  0  0  0  0  0
   -2.5372   25.3560  -24.4116 H   0  0  0  0  0  0  0  0  0  0  0  0
   -0.8622   27.1617  -24.0131 H   0  0  0  0  0  0  0  0  0  0  0  0
    0.4200   28.1185  -25.9290 H   0  0  0  0  0  0  0  0  0  0  0  0
    0.0291   27.2755  -28.2419 H   0  0  0  0  0  0  0  0  0  0  0  0
   -4.9482   21.0553  -32.6386 H   0  0  0  0  0  0  0  0  0  0  0  0
   -6.8535   19.6773  -33.4709 H   0  0  0  0  0  0  0  0  0  0  0  0
   -9.1864   20.2039  -32.7566 H   0  0  0  0  0  0  0  0  0  0  0  0
   -9.6182   22.1270  -31.2234 H   0  0  0  0  0  0  0  0  0  0  0  0
   -7.7196   23.5128  -30.3901 H   0  0  0  0  0  0  0  0  0  0  0  0
  1  2  1  0
  2  3  1  0
  3  4  1  0
  4  5  1  0
  5  6  1  0
  6  7  2  0
  7  8  1  0
  8  9  2  0
  9 10  1  0
 10 11  2  0
  3 12  2  0
 12 13  1  0
 13 14  2  0
 14 15  1  0
 15 16  2  0
 16 17  1  0
 17 18  2  0
 18 19  1  0
 19 20  2  0
 14  2  1  0
 20 15  1  0
 11  6  1  0
  1 21  1  0
  1 22  1  0
  1 23  1  0
  4 24  1  0
  4 25  1  0
  5 26  1  0
  7 27  1  0
  8 28  1  0
  9 29  1  0
 10 30  1  0
 11 31  1  0
 16 32  1  0
 17 33  1  0
 18 34  1  0
 19 35  1  0
 20 36  1  0
M  END
>  <UniqueID>  (27) 
25

>  <SMILES>  (27) 
Cn1c(CNc2ccccc2)nnc1-c1ccccc1

>  <Energy>  (27) 
76.42393282941795

>  <Genealogy>  (27) 
Cn1c(CNc2ccccc2)nnc1-c1ccccc1 (3D coordinates assigned)
Cn1c(CNc2ccccc2)nnc1-c1ccccc1 (optimized conformer: 76.42393282941795 kcal/mol)

>  <smiles>  (27) 
Cn1c(CNc2ccccc2)nnc1-c1ccccc1

>  <score_type>  (27) 
oracle

>  <origin>  (27) 
adg

>  <m_score__min__energy>  (27) 
-8.5999999999999996

>  <m_primary>  (27) 
energy

$$$$
27:0
     RDKit          3D

 52 56  0  0  0  0  0  0  0  0999 V2000
   -1.8290   21.0350  -29.4700 C   0  0  0  0  0  0  0  0  0  0  0  0
   -0.8870   21.8570  -30.3550 C   0  0  0  0  0  0  0  0  0  0  0  0
   -0.1030   21.0130  -31.1730 O   0  0  0  0  0  0  0  0  0  0  0  0
    0.0840   19.6450  -30.9420 C   0  0  0  0  0  0  0  0  0  0  0  0
    0.6130   19.2210  -29.7630 N   0  0  0  0  0  0  0  0  0  0  0  0
    0.8430   17.9090  -29.5200 C   0  0  0  0  0  0  0  0  0  0  0  0
    1.3790   17.5090  -28.2990 C   0  0  0  0  0  0  0  0  0  0  0  0
    1.6350   16.1540  -28.0620 C   0  0  0  0  0  0  0  0  0  0  0  0
    1.3620   15.1940  -29.0460 C   0  0  0  0  0  0  0  0  0  0  0  0
    0.8170   15.5840  -30.2650 C   0  0  0  0  0  0  0  0  0  0  0  0
    0.5480   16.9470  -30.5090 C   0  0  0  0  0  0  0  0  0  0  0  0
    0.0030   17.3940  -31.7180 C   0  0  0  0  0  0  0  0  0  0  0  0
   -0.2390   16.5570  -32.6310 O   0  0  0  0  0  0  0  0  0  0  0  0
   -0.2480   18.7350  -31.9150 N   0  0  0  0  0  0  0  0  0  0  0  0
   -0.8400   19.2070  -33.1890 C   0  0  0  0  0  0  0  0  0  0  0  0
   -2.2080   19.8170  -32.9570 C   0  0  0  0  0  0  0  0  0  0  0  0
   -3.2270   19.0680  -32.3390 C   0  0  0  0  0  0  0  0  0  0  0  0
   -4.4530   19.6640  -32.0430 C   0  0  0  0  0  0  0  0  0  0  0  0
   -4.6840   21.0140  -32.3540 C   0  0  0  0  0  0  0  0  0  0  0  0
   -5.9900   21.6390  -32.0420 C   0  0  0  0  0  0  0  0  0  0  0  0
   -7.1530   20.9660  -32.4390 C   0  0  0  0  0  0  0  0  0  0  0  0
   -8.4080   21.5630  -32.2960 C   0  0  0  0  0  0  0  0  0  0  0  0
   -8.5210   22.8370  -31.7500 C   0  0  0  0  0  0  0  0  0  0  0  0
   -7.3800   23.5100  -31.3210 C   0  0  0  0  0  0  0  0  0  0  0  0
   -6.1010   22.9240  -31.4360 C   0  0  0  0  0  0  0  0  0  0  0  0
   -4.9260   23.6580  -30.8790 C   0  0  0  0  0  0  0  0  0  0  0  0
   -4.0410   23.1060  -30.0200 N   0  0  0  0  0  0  0  0  0  0  0  0
   -3.1930   24.1250  -29.8410 C   0  0  0  0  0  0  0  0  0  0  0  0
   -2.1950   24.0670  -29.0860 O   0  0  0  0  0  0  0  0  0  0  0  0
   -3.5300   25.1810  -30.5310 O   0  0  0  0  0  0  0  0  0  0  0  0
   -4.6080   24.9270  -31.1990 N   0  0  0  0  0  0  0  0  0  0  0  0
   -3.6860   21.7500  -33.0050 C   0  0  0  0  0  0  0  0  0  0  0  0
   -2.4510   21.1640  -33.2980 C   0  0  0  0  0  0  0  0  0  0  0  0
   -1.4880   21.9250  -33.8620 F   0  0  0  0  0  0  0  0  0  0  0  0
   -1.6030   21.2322  -28.4117 H   0  0  0  0  0  0  0  0  0  0  0  0
   -2.8707   21.3180  -29.6814 H   0  0  0  0  0  0  0  0  0  0  0  0
   -1.6897   19.9645  -29.6814 H   0  0  0  0  0  0  0  0  0  0  0  0
   -1.4835   22.5253  -30.9934 H   0  0  0  0  0  0  0  0  0  0  0  0
   -0.2171   22.4425  -29.7082 H   0  0  0  0  0  0  0  0  0  0  0  0
    1.6006   18.2562  -27.5227 H   0  0  0  0  0  0  0  0  0  0  0  0
    2.0542   15.8394  -27.0949 H   0  0  0  0  0  0  0  0  0  0  0  0
    1.5786   14.1327  -28.8544 H   0  0  0  0  0  0  0  0  0  0  0  0
    0.5964   14.8316  -31.0365 H   0  0  0  0  0  0  0  0  0  0  0  0
   -0.1787   19.9648  -33.6344 H   0  0  0  0  0  0  0  0  0  0  0  0
   -0.9492   18.3466  -33.8656 H   0  0  0  0  0  0  0  0  0  0  0  0
   -3.0562   18.0105  -32.0889 H   0  0  0  0  0  0  0  0  0  0  0  0
   -5.2454   19.0717  -31.5620 H   0  0  0  0  0  0  0  0  0  0  0  0
   -7.0771   19.9560  -32.8682 H   0  0  0  0  0  0  0  0  0  0  0  0
   -9.3109   21.0228  -32.6168 H   0  0  0  0  0  0  0  0  0  0  0  0
   -9.5090   23.3117  -31.6573 H   0  0  0  0  0  0  0  0  0  0  0  0
   -7.4770   24.5153  -30.8851 H   0  0  0  0  0  0  0  0  0  0  0  0
   -3.8751   22.7961  -33.2876 H   0  0  0  0  0  0  0  0  0  0  0  0
  1  2  1  0
  2  3  1  0
  3  4  1  0
  4  5  2  0
  5  6  1  0
  6  7  2  0
  7  8  1  0
  8  9  2  0
  9 10  1  0
 10 11  2  0
 11 12  1  0
 12 13  2  0
 12 14  1  0
 14 15  1  0
 15 16  1  0
 16 17  2  0
 17 18  1  0
 18 19  2  0
 19 20  1  0
 20 21  2  0
 21 22  1  0
 22 23  2  0
 23 24  1  0
 24 25  2  0
 25 26  1  0
 26 27  2  0
 27 28  1  0
 28 29  2  0
 28 30  1  0
 30 31  1  0
 19 32  1  0
 32 33  2  0
 33 34  1  0
 14  4  1  0
 33 16  1  0
 11  6  1  0
 25 20  1  0
 31 26  1  0
  1 35  1  0
  1 36  1  0
  1 37  1  0
  2 38  1  0
  2 39  1  0
  7 40  1  0
  8 41  1  0
  9 42  1  0
 10 43  1  0
 15 44  1  0
 15 45  1  0
 17 46  1  0
 18 47  1  0
 21 48  1  0
 22 49  1  0
 23 50  1  0
 24 51  1  0
 32 52  1  0
M  CHG  1  31  -1
M  END
>  <UniqueID>  (28) 
26

>  <SMILES>  (28) 
CCOc1nc2ccccc2c(=O)n1Cc1ccc(-c2ccccc2-c2nc(=O)o[n-]2)cc1F

>  <Energy>  (28) 
110.65432301001943

>  <Genealogy>  (28) 
CCOc1nc2ccccc2c(=O)n1Cc1ccc(-c2ccccc2-c2nc(=O)o[n-]2)cc1F (protonated)
CCOc1nc2ccccc2c(=O)n1Cc1ccc(-c2ccccc2-c2nc(=O)o[n-]2)cc1F (3D coordinates assigned)
CCOc1nc2ccccc2c(=O)n1Cc1ccc(-c2ccccc2-c2nc(=O)o[n-]2)cc1F (optimized conformer: 110.65432301001943 kcal/mol)

>  <smiles>  (28) 
CCOc1nc2ccccc2c(=O)n1Cc1ccc(-c2ccccc2-c2nc(=O)o[nH]2)cc1F

>  <score_type>  (28) 
oracle

>  <origin>  (28) 
adg

>  <m_score__min__energy>  (28) 
-10.92

>  <m_primary>  (28) 
energy

$$$$
28:0
     RDKit          3D

 45 48  0  0  0  0  0  0  0  0999 V2000
   -7.2250   22.9720  -31.0130 C   0  0  0  0  0  0  0  0  0  0  0  0
   -6.0560   22.4130  -31.6860 N   0  0  0  0  0  0  0  0  0  0  0  0
   -6.0820   21.4210  -32.5970 C   0  0  0  0  0  0  0  0  0  0  0  0
   -4.7990   21.1210  -33.0050 C   0  0  0  0  0  0  0  0  0  0  0  0
   -3.9550   21.9610  -32.3070 C   0  0  0  0  0  0  0  0  0  0  0  0
   -4.7590   22.7490  -31.5020 C   0  0  0  0  0  0  0  0  0  0  0  0
   -4.2650   23.7560  -30.5380 C   0  0  0  0  0  0  0  0  0  0  0  0
   -4.3310   24.9780  -30.8350 O   0  0  0  0  0  0  0  0  0  0  0  0
   -3.7180   23.3620  -29.2660 N   0  0  0  0  0  0  0  0  0  0  0  0
   -3.9400   24.2000  -28.0800 C   0  0  0  0  0  0  0  0  0  0  0  0
   -2.5950   24.6940  -27.5340 C   0  0  0  0  0  0  0  0  0  0  0  0
   -1.5480   23.5540  -27.3940 C   0  0  0  0  0  0  0  0  0  0  0  0
   -0.9680   23.5040  -26.0400 N   0  0  0  0  0  0  0  0  0  0  0  0
   -0.7390   22.3650  -25.3540 C   0  0  0  0  0  0  0  0  0  0  0  0
   -0.1110   22.6760  -24.1700 C   0  0  0  0  0  0  0  0  0  0  0  0
    0.0540   24.0080  -24.1110 N   0  0  0  0  0  0  0  0  0  0  0  0
   -0.4910   24.5000  -25.2450 C   0  0  0  0  0  0  0  0  0  0  0  0
   -0.4590   25.9660  -25.6100 C   0  0  0  0  0  0  0  0  0  0  0  0
   -0.2250   26.9370  -24.4540 C   0  0  0  0  0  0  0  0  0  0  0  0
   -1.6080   26.7970  -25.0560 C   0  0  0  0  0  0  0  0  0  0  0  0
   -2.0700   22.1720  -27.8320 C   0  0  0  0  0  0  0  0  0  0  0  0
   -2.7500   22.2540  -29.2050 C   0  0  0  0  0  0  0  0  0  0  0  0
   -7.0873   22.9062  -29.9236 H   0  0  0  0  0  0  0  0  0  0  0  0
   -7.3467   24.0258  -31.3042 H   0  0  0  0  0  0  0  0  0  0  0  0
   -8.1216   22.4052  -31.3042 H   0  0  0  0  0  0  0  0  0  0  0  0
   -6.9926   20.9233  -32.9619 H   0  0  0  0  0  0  0  0  0  0  0  0
   -4.5055   20.3602  -33.7432 H   0  0  0  0  0  0  0  0  0  0  0  0
   -2.8578   21.9971  -32.3769 H   0  0  0  0  0  0  0  0  0  0  0  0
   -4.5622   25.0644  -28.3549 H   0  0  0  0  0  0  0  0  0  0  0  0
   -4.4502   23.6071  -27.3066 H   0  0  0  0  0  0  0  0  0  0  0  0
   -2.1957   25.4560  -28.2195 H   0  0  0  0  0  0  0  0  0  0  0  0
   -2.7753   25.1041  -26.5293 H   0  0  0  0  0  0  0  0  0  0  0  0
   -0.7447   23.8101  -28.1005 H   0  0  0  0  0  0  0  0  0  0  0  0
   -1.0103   21.3524  -25.6872 H   0  0  0  0  0  0  0  0  0  0  0  0
    0.2032   21.9551  -23.4009 H   0  0  0  0  0  0  0  0  0  0  0  0
    0.5390   24.5320  -23.3490 H   0  0  0  0  0  0  0  0  0  0  0  0
   -0.0061   25.8123  -26.6006 H   0  0  0  0  0  0  0  0  0  0  0  0
   -0.0233   26.5510  -23.4439 H   0  0  0  0  0  0  0  0  0  0  0  0
    0.4618   27.7764  -24.2705 H   0  0  0  0  0  0  0  0  0  0  0  0
   -2.4101   26.3106  -24.4815 H   0  0  0  0  0  0  0  0  0  0  0  0
   -2.3395   27.4950  -25.4892 H   0  0  0  0  0  0  0  0  0  0  0  0
   -1.2254   21.4696  -27.8897 H   0  0  0  0  0  0  0  0  0  0  0  0
   -2.8083   21.8250  -27.0941 H   0  0  0  0  0  0  0  0  0  0  0  0
   -1.9806   22.4096  -29.9756 H   0  0  0  0  0  0  0  0  0  0  0  0
   -3.2934   21.3130  -29.3762 H   0  0  0  0  0  0  0  0  0  0  0  0
  1  2  1  0
  2  3  1  0
  3  4  2  0
  4  5  1  0
  5  6  2  0
  6  7  1  0
  7  8  2  0
  7  9  1  0
  9 10  1  0
 10 11  1  0
 11 12  1  0
 12 13  1  0
 13 14  1  0
 14 15  2  0
 15 16  1  0
 16 17  2  0
 17 18  1  0
 18 19  1  0
 19 20  1  0
 12 21  1  0
 21 22  1  0
  6  2  1  0
 22  9  1  0
 17 13  1  0
 20 18  1  0
  1 23  1  0
  1 24  1  0
  1 25  1  0
  3 26  1  0
  4 27  1  0
  5 28  1  0
 10 29  1  0
 10 30  1  0
 11 31  1  0
 11 32  1  0
 12 33  1  0
 14 34  1  0
 15 35  1  0
 16 36  1  0
 18 37  1  0
 19 38  1  0
 19 39  1  0
 20 40  1  0
 20 41  1  0
 21 42  1  0
 21 43  1  0
 22 44  1  0
 22 45  1  0
M  CHG  1  16   1
M  END
>  <UniqueID>  (29) 
27

>  <SMILES>  (29) 
Cn1cccc1C(=O)N1CCC(n2cc[nH+]c2C2CC2)CC1

>  <Energy>  (29) 
375.01349887973015

>  <Genealogy>  (29) 
Cn1cccc1C(=O)N1CCC(n2cc[nH+]c2C2CC2)CC1 (protonated)
Cn1cccc1C(=O)N1CCC(n2cc[nH+]c2C2CC2)CC1 (3D coordinates assigned)
Cn1cccc1C(=O)N1CCC(n2cc[nH+]c2C2CC2)CC1 (nonaromatic ring conformer: 375.01349887973015 kcal/mol)

>  <smiles>  (29) 
Cn1cccc1C(=O)N1CCC(n2ccnc2C2CC2)CC1

>  <score_type>  (29) 
oracle

>  <origin>  (29) 
adg

>  <m_score__min__energy>  (29) 
-7.4400000000000004

>  <m_primary>  (29) 
energy

$$$$
29:0
     RDKit          3D

 45 46  0  0  0  0  0  0  0  0999 V2000
   -2.3960   19.4070  -26.4840 C   0  0  0  0  0  0  0  0  0  0  0  0
   -1.8260   19.8520  -27.6080 C   0  0  0  0  0  0  0  0  0  0  0  0
   -1.0260   21.1240  -27.6380 C   0  0  0  0  0  0  0  0  0  0  0  0
   -1.7800   22.2100  -28.3590 C   0  0  0  0  0  0  0  0  0  0  0  0
   -2.9000   21.8900  -29.1370 C   0  0  0  0  0  0  0  0  0  0  0  0
   -3.5850   22.8870  -29.8330 C   0  0  0  0  0  0  0  0  0  0  0  0
   -3.1510   24.2250  -29.7730 C   0  0  0  0  0  0  0  0  0  0  0  0
   -3.8060   25.2590  -30.4650 O   0  0  0  0  0  0  0  0  0  0  0  0
   -5.2130   25.5010  -30.4540 C   0  0  0  0  0  0  0  0  0  0  0  0
   -5.9460   24.3480  -31.0610 C   0  0  0  0  0  0  0  0  0  0  0  0
   -6.9030   23.5650  -30.4560 C   0  0  0  0  0  0  0  0  0  0  0  0
   -7.2640   22.6470  -31.3720 N   0  0  0  0  0  0  0  0  0  0  0  0
   -8.2340   21.5620  -31.2080 C   0  0  1  0  0  0  0  0  0  0  0  0
   -9.5380   21.9180  -31.9330 C   0  0  0  0  0  0  0  0  0  0  0  0
   -7.6270   20.2350  -31.7120 C   0  0  0  0  0  0  0  0  0  0  0  0
   -8.6170   19.0720  -31.6550 C   0  0  0  0  0  0  0  0  0  0  0  0
   -6.5650   22.8590  -32.4750 N   0  0  0  0  0  0  0  0  0  0  0  0
   -5.7500   23.8930  -32.3160 N   0  0  0  0  0  0  0  0  0  0  0  0
   -2.0260   24.5540  -28.9990 C   0  0  0  0  0  0  0  0  0  0  0  0
   -1.6160   25.8960  -28.9570 O   0  0  0  0  0  0  0  0  0  0  0  0
   -0.8720   26.4800  -27.8920 C   0  0  0  0  0  0  0  0  0  0  0  0
   -1.3430   23.5420  -28.2980 C   0  0  0  0  0  0  0  0  0  0  0  0
   -2.9756   18.4721  -26.4940 H   0  0  0  0  0  0  0  0  0  0  0  0
   -2.2855   19.9756  -25.5489 H   0  0  0  0  0  0  0  0  0  0  0  0
   -1.9455   19.2723  -28.5352 H   0  0  0  0  0  0  0  0  0  0  0  0
   -0.8243   21.4482  -26.6064 H   0  0  0  0  0  0  0  0  0  0  0  0
   -0.0819   20.9356  -28.1702 H   0  0  0  0  0  0  0  0  0  0  0  0
   -3.2418   20.8463  -29.1998 H   0  0  0  0  0  0  0  0  0  0  0  0
   -4.4697   22.6258  -30.4323 H   0  0  0  0  0  0  0  0  0  0  0  0
   -5.5490   25.6376  -29.4155 H   0  0  0  0  0  0  0  0  0  0  0  0
   -5.4234   26.4065  -31.0421 H   0  0  0  0  0  0  0  0  0  0  0  0
   -7.2932   23.6684  -29.4327 H   0  0  0  0  0  0  0  0  0  0  0  0
   -8.4741   21.4295  -30.1427 H   0  0  0  0  0  0  0  0  0  0  0  0
  -10.3226   22.1322  -31.1924 H   0  0  0  0  0  0  0  0  0  0  0  0
   -9.3767   22.8050  -32.5633 H   0  0  0  0  0  0  0  0  0  0  0  0
   -9.8498   21.0721  -32.5633 H   0  0  0  0  0  0  0  0  0  0  0  0
   -7.3031   20.3701  -32.7545 H   0  0  0  0  0  0  0  0  0  0  0  0
   -6.7834   19.9847  -31.0520 H   0  0  0  0  0  0  0  0  0  0  0  0
   -8.8294   18.8224  -30.6050 H   0  0  0  0  0  0  0  0  0  0  0  0
   -9.5510   19.3604  -32.1595 H   0  0  0  0  0  0  0  0  0  0  0  0
   -8.1831   18.1961  -32.1595 H   0  0  0  0  0  0  0  0  0  0  0  0
   -1.2904   26.1515  -26.9292 H   0  0  0  0  0  0  0  0  0  0  0  0
    0.1791   26.1632  -27.9622 H   0  0  0  0  0  0  0  0  0  0  0  0
   -0.9300   27.5762  -27.9622 H   0  0  0  0  0  0  0  0  0  0  0  0
   -0.4582   23.7980  -27.6966 H   0  0  0  0  0  0  0  0  0  0  0  0
  1  2  2  0
  2  3  1  0
  3  4  1  0
  4  5  2  0
  5  6  1  0
  6  7  2  0
  7  8  1  0
  8  9  1  0
  9 10  1  0
 10 11  2  0
 11 12  1  0
 12 13  1  0
 13 14  1  0
 13 15  1  0
 15 16  1  0
 12 17  1  0
 17 18  2  0
  7 19  1  0
 19 20  1  0
 20 21  1  0
 19 22  2  0
 22  4  1  0
 18 10  1  0
  1 23  1  0
  1 24  1  0
  2 25  1  0
  3 26  1  0
  3 27  1  0
  5 28  1  0
  6 29  1  0
  9 30  1  0
  9 31  1  0
 11 32  1  0
 13 33  1  1
 14 34  1  0
 14 35  1  0
 14 36  1  0
 15 37  1  0
 15 38  1  0
 16 39  1  0
 16 40  1  0
 16 41  1  0
 21 42  1  0
 21 43  1  0
 21 44  1  0
 22 45  1  0
M  END
>  <UniqueID>  (30) 
28

>  <SMILES>  (30) 
C=CCc1ccc(OCc2cn([C@@H](C)CC)nn2)c(OC)c1

>  <Energy>  (30) 
68.5183890605389

>  <Genealogy>  (30) 
C=CCc1ccc(OCc2cn([C@@H](C)CC)nn2)c(OC)c1 (chirality)
C=CCc1ccc(OCc2cn([C@@H](C)CC)nn2)c(OC)c1 (3D coordinates assigned)
C=CCc1ccc(OCc2cn([C@@H](C)CC)nn2)c(OC)c1 (optimized conformer: 68.5183890605389 kcal/mol)

>  <smiles>  (30) 
C=CCc1ccc(OCc2cn(C(C)CC)nn2)c(OC)c1

>  <score_type>  (30) 
oracle

>  <origin>  (30) 
adg

>  <m_score__min__energy>  (30) 
-9.0600000000000005

>  <m_primary>  (30) 
energy

$$$$
30:0
     RDKit          3D

 55 57  0  0  0  0  0  0  0  0999 V2000
   -3.5360   24.1660  -28.2420 C   0  0  0  0  0  0  0  0  0  0  0  0
   -3.1990   24.5450  -29.6850 C   0  0  0  0  0  0  0  0  0  0  0  0
   -4.2330   24.0550  -30.6280 N   0  0  0  0  0  0  0  0  0  0  0  0
   -5.3060   25.0530  -30.7870 C   0  0  0  0  0  0  0  0  0  0  0  0
   -4.8050   22.7720  -30.1590 C   0  0  0  0  0  0  0  0  0  0  0  0
   -4.1180   21.5690  -30.8280 C   0  0  0  0  0  0  0  0  0  0  0  0
   -3.6190   21.8750  -32.2490 C   0  0  0  0  0  0  0  0  0  0  0  0
   -4.6670   21.6400  -33.2420 N   0  0  0  0  0  0  0  0  0  0  0  0
   -5.8060   20.8080  -32.9530 C   0  0  0  0  0  0  0  0  0  0  0  0
   -7.0000   21.3810  -32.4810 C   0  0  0  0  0  0  0  0  0  0  0  0
   -7.1380   22.7810  -32.3720 C   0  0  0  0  0  0  0  0  0  0  0  0
   -8.3360   23.3470  -31.9400 C   0  0  0  0  0  0  0  0  0  0  0  0
   -9.4200   22.5330  -31.6350 C   0  0  0  0  0  0  0  0  0  0  0  0
   -9.3090   21.1470  -31.7410 C   0  0  0  0  0  0  0  0  0  0  0  0
   -8.0910   20.5380  -32.1390 C   0  0  0  0  0  0  0  0  0  0  0  0
   -7.9580   19.1640  -32.2210 N   0  0  0  0  0  0  0  0  0  0  0  0
   -8.9680   18.2850  -31.5920 C   0  0  0  0  0  0  0  0  0  0  0  0
   -6.8660   18.6130  -32.8680 C   0  0  0  0  0  0  0  0  0  0  0  0
   -6.8270   17.2430  -33.2270 C   0  0  0  0  0  0  0  0  0  0  0  0
   -5.6950   16.6710  -33.8270 C   0  0  0  0  0  0  0  0  0  0  0  0
   -5.7040   15.2030  -34.1720 C   0  0  0  0  0  0  0  0  0  0  0  0
   -4.5610   17.4710  -34.0720 C   0  0  0  0  0  0  0  0  0  0  0  0
   -3.3170   16.8960  -34.7010 C   0  0  0  0  0  0  0  0  0  0  0  0
   -4.6110   18.8390  -33.7790 C   0  0  0  0  0  0  0  0  0  0  0  0
   -5.7550   19.4260  -33.2040 C   0  0  0  0  0  0  0  0  0  0  0  0
   -2.9666   24.8063  -27.5522 H   0  0  0  0  0  0  0  0  0  0  0  0
   -4.6130   24.3064  -28.0680 H   0  0  0  0  0  0  0  0  0  0  0  0
   -3.2707   23.1128  -28.0680 H   0  0  0  0  0  0  0  0  0  0  0  0
   -3.1347   25.6404  -29.7618 H   0  0  0  0  0  0  0  0  0  0  0  0
   -2.2389   24.0784  -29.9506 H   0  0  0  0  0  0  0  0  0  0  0  0
   -5.6548   25.3775  -29.7955 H   0  0  0  0  0  0  0  0  0  0  0  0
   -4.9203   25.9208  -31.3421 H   0  0  0  0  0  0  0  0  0  0  0  0
   -6.1436   24.6055  -31.3421 H   0  0  0  0  0  0  0  0  0  0  0  0
   -4.6722   22.6987  -29.0695 H   0  0  0  0  0  0  0  0  0  0  0  0
   -5.8718   22.7521  -30.4263 H   0  0  0  0  0  0  0  0  0  0  0  0
   -3.2577   21.2694  -30.2115 H   0  0  0  0  0  0  0  0  0  0  0  0
   -4.8658   20.7663  -30.9081 H   0  0  0  0  0  0  0  0  0  0  0  0
   -3.3066   22.9285  -32.3001 H   0  0  0  0  0  0  0  0  0  0  0  0
   -2.7736   21.2074  -32.4716 H   0  0  0  0  0  0  0  0  0  0  0  0
   -4.5620   22.0270  -34.2070 H   0  0  0  0  0  0  0  0  0  0  0  0
   -6.2906   23.4329  -32.6309 H   0  0  0  0  0  0  0  0  0  0  0  0
   -8.4235   24.4390  -31.8404 H   0  0  0  0  0  0  0  0  0  0  0  0
  -10.3690   22.9835  -31.3088 H   0  0  0  0  0  0  0  0  0  0  0  0
  -10.1801   20.5155  -31.5123 H   0  0  0  0  0  0  0  0  0  0  0  0
   -8.8857   18.3566  -30.4974 H   0  0  0  0  0  0  0  0  0  0  0  0
   -9.9743   18.5999  -31.9054 H   0  0  0  0  0  0  0  0  0  0  0  0
   -8.7950   17.2449  -31.9054 H   0  0  0  0  0  0  0  0  0  0  0  0
   -7.7063   16.6119  -33.0304 H   0  0  0  0  0  0  0  0  0  0  0  0
   -5.7076   14.6088  -33.2463 H   0  0  0  0  0  0  0  0  0  0  0  0
   -6.6036   14.9702  -34.7607 H   0  0  0  0  0  0  0  0  0  0  0  0
   -4.8073   14.9592  -34.7607 H   0  0  0  0  0  0  0  0  0  0  0  0
   -2.6218   16.5747  -33.9114 H   0  0  0  0  0  0  0  0  0  0  0  0
   -3.5877   16.0317  -35.3252 H   0  0  0  0  0  0  0  0  0  0  0  0
   -2.8340   17.6622  -35.3252 H   0  0  0  0  0  0  0  0  0  0  0  0
   -3.7377   19.4693  -34.0027 H   0  0  0  0  0  0  0  0  0  0  0  0
  1  2  1  0
  2  3  1  0
  3  4  1  0
  3  5  1  0
  5  6  1  0
  6  7  1  0
  7  8  1  0
  8  9  1  0
  9 10  2  0
 10 11  1  0
 11 12  2  0
 12 13  1  0
 13 14  2  0
 14 15  1  0
 15 16  2  0
 16 17  1  0
 16 18  1  0
 18 19  2  0
 19 20  1  0
 20 21  1  0
 20 22  2  0
 22 23  1  0
 22 24  1  0
 24 25  2  0
 25  9  1  0
 15 10  1  0
 25 18  1  0
  1 26  1  0
  1 27  1  0
  1 28  1  0
  2 29  1  0
  2 30  1  0
  4 31  1  0
  4 32  1  0
  4 33  1  0
  5 34  1  0
  5 35  1  0
  6 36  1  0
  6 37  1  0
  7 38  1  0
  7 39  1  0
  8 40  1  0
 11 41  1  0
 12 42  1  0
 13 43  1  0
 14 44  1  0
 17 45  1  0
 17 46  1  0
 17 47  1  0
 19 48  1  0
 21 49  1  0
 21 50  1  0
 21 51  1  0
 23 52  1  0
 23 53  1  0
 23 54  1  0
 24 55  1  0
M  CHG  1  16   1
M  END
>  <UniqueID>  (31) 
29

>  <SMILES>  (31) 
CCN(C)CCCNc1c2ccccc2[n+](C)c2cc(C)c(C)cc12

>  <Energy>  (31) 
78.89435493865409

>  <Genealogy>  (31) 
CCN(C)CCCNc1c2ccccc2[n+](C)c2cc(C)c(C)cc12 (3D coordinates assigned)
CCN(C)CCCNc1c2ccccc2[n+](C)c2cc(C)c(C)cc12 (optimized conformer: 78.89435493865409 kcal/mol)

>  <smiles>  (31) 
CCN(C)CCCNc1c2ccccc2[n+](C)c2cc(C)c(C)cc12

>  <score_type>  (31) 
oracle

>  <origin>  (31) 
adg

>  <m_score__min__energy>  (31) 
-9.2200000000000006

>  <m_primary>  (31) 
energy

$$$$
31:0
     RDKit          3D

 54 57  0  0  0  0  0  0  0  0999 V2000
   -1.2340   19.0360  -33.1910 C   0  0  0  0  0  0  0  0  0  0  0  0
   -1.3690   20.0610  -34.3110 C   0  0  0  0  0  0  0  0  0  0  0  0
   -1.6290   21.3880  -33.7440 N   0  0  0  0  0  0  0  0  0  0  0  0
   -2.0890   21.2800  -32.3540 C   0  0  0  0  0  0  0  0  0  0  0  0
   -3.5310   21.7960  -32.2170 C   0  0  0  0  0  0  0  0  0  0  0  0
   -4.3570   21.5370  -33.4140 N   0  0  0  0  0  0  0  0  0  0  0  0
   -5.5470   20.7490  -33.1090 C   0  0  0  0  0  0  0  0  0  0  0  0
   -6.7070   21.3870  -32.5860 C   0  0  0  0  0  0  0  0  0  0  0  0
   -6.7550   22.7880  -32.3630 C   0  0  0  0  0  0  0  0  0  0  0  0
   -7.9220   23.4110  -31.9280 C   0  0  0  0  0  0  0  0  0  0  0  0
   -9.0690   22.6650  -31.7110 C   0  0  0  0  0  0  0  0  0  0  0  0
   -9.0450   21.2840  -31.8820 C   0  0  0  0  0  0  0  0  0  0  0  0
   -7.8580   20.6110  -32.2730 C   0  0  0  0  0  0  0  0  0  0  0  0
   -7.8130   19.2360  -32.3550 N   0  0  0  0  0  0  0  0  0  0  0  0
   -8.8670   18.4250  -31.7020 C   0  0  0  0  0  0  0  0  0  0  0  0
   -6.7650   18.6120  -33.0000 C   0  0  0  0  0  0  0  0  0  0  0  0
   -6.8330   17.2330  -33.3300 C   0  0  0  0  0  0  0  0  0  0  0  0
   -5.7370   16.5610  -33.8690 C   0  0  0  0  0  0  0  0  0  0  0  0
   -4.5630   17.2580  -34.1430 C   0  0  0  0  0  0  0  0  0  0  0  0
   -4.4990   18.6340  -33.9140 C   0  0  0  0  0  0  0  0  0  0  0  0
   -5.5940   19.3440  -33.3510 C   0  0  0  0  0  0  0  0  0  0  0  0
   -3.3950   16.4990  -34.7100 C   0  0  0  0  0  0  0  0  0  0  0  0
   -3.2090   15.1760  -33.9530 C   0  0  0  0  0  0  0  0  0  0  0  0
   -4.5160   14.3610  -33.7750 C   0  0  0  0  0  0  0  0  0  0  0  0
   -5.8020   15.0950  -34.2080 C   0  0  0  0  0  0  0  0  0  0  0  0
   -1.3010   19.5450  -32.2181 H   0  0  0  0  0  0  0  0  0  0  0  0
   -2.0422   18.2944  -33.2733 H   0  0  0  0  0  0  0  0  0  0  0  0
   -0.2613   18.5289  -33.2733 H   0  0  0  0  0  0  0  0  0  0  0  0
   -0.4364   20.0896  -34.8937 H   0  0  0  0  0  0  0  0  0  0  0  0
   -2.2068   19.7756  -34.9642 H   0  0  0  0  0  0  0  0  0  0  0  0
   -2.3920   21.8400  -34.3030 H   0  0  0  0  0  0  0  0  0  0  0  0
   -2.0516   20.2258  -32.0422 H   0  0  0  0  0  0  0  0  0  0  0  0
   -1.4329   21.8903  -31.7160 H   0  0  0  0  0  0  0  0  0  0  0  0
   -3.9997   21.2996  -31.3545 H   0  0  0  0  0  0  0  0  0  0  0  0
   -3.4772   22.8869  -32.0863 H   0  0  0  0  0  0  0  0  0  0  0  0
   -4.6410   22.4490  -33.8370 H   0  0  0  0  0  0  0  0  0  0  0  0
   -3.7720   21.1400  -34.1770 H   0  0  0  0  0  0  0  0  0  0  0  0
   -5.8531   23.3932  -32.5371 H   0  0  0  0  0  0  0  0  0  0  0  0
   -7.9331   24.4975  -31.7564 H   0  0  0  0  0  0  0  0  0  0  0  0
   -9.9995   23.1646  -31.4033 H   0  0  0  0  0  0  0  0  0  0  0  0
   -9.9633   20.7031  -31.7109 H   0  0  0  0  0  0  0  0  0  0  0  0
   -8.7656   18.5030  -30.6095 H   0  0  0  0  0  0  0  0  0  0  0  0
   -9.8567   18.7967  -32.0059 H   0  0  0  0  0  0  0  0  0  0  0  0
   -8.7613   17.3731  -32.0059 H   0  0  0  0  0  0  0  0  0  0  0  0
   -7.7699   16.6833  -33.1568 H   0  0  0  0  0  0  0  0  0  0  0  0
   -3.5808   19.1805  -34.1751 H   0  0  0  0  0  0  0  0  0  0  0  0
   -3.5803   16.2870  -35.7734 H   0  0  0  0  0  0  0  0  0  0  0  0
   -2.4842   17.1065  -34.6031 H   0  0  0  0  0  0  0  0  0  0  0  0
   -2.4891   14.5577  -34.5092 H   0  0  0  0  0  0  0  0  0  0  0  0
   -2.8555   15.4342  -32.9438 H   0  0  0  0  0  0  0  0  0  0  0  0
   -4.4296   13.4414  -34.3724 H   0  0  0  0  0  0  0  0  0  0  0  0
   -4.6171   14.1709  -32.6963 H   0  0  0  0  0  0  0  0  0  0  0  0
   -5.9290   14.9841  -35.2950 H   0  0  0  0  0  0  0  0  0  0  0  0
   -6.6524   14.6518  -33.6691 H   0  0  0  0  0  0  0  0  0  0  0  0
  1  2  1  0
  2  3  1  0
  3  4  1  0
  4  5  1  0
  5  6  1  0
  6  7  1  0
  7  8  2  0
  8  9  1  0
  9 10  2  0
 10 11  1  0
 11 12  2  0
 12 13  1  0
 13 14  2  0
 14 15  1  0
 14 16  1  0
 16 17  2  0
 17 18  1  0
 18 19  2  0
 19 20  1  0
 20 21  2  0
 19 22  1  0
 22 23  1  0
 23 24  1  0
 24 25  1  0
 21  7  1  0
 13  8  1  0
 21 16  1  0
 25 18  1  0
  1 26  1  0
  1 27  1  0
  1 28  1  0
  2 29  1  0
  2 30  1  0
  3 31  1  0
  4 32  1  0
  4 33  1  0
  5 34  1  0
  5 35  1  0
  6 36  1  0
  6 37  1  0
  9 38  1  0
 10 39  1  0
 11 40  1  0
 12 41  1  0
 15 42  1  0
 15 43  1  0
 15 44  1  0
 17 45  1  0
 20 46  1  0
 22 47  1  0
 22 48  1  0
 23 49  1  0
 23 50  1  0
 24 51  1  0
 24 52  1  0
 25 53  1  0
 25 54  1  0
M  CHG  2   6   1  14   1
M  END
>  <UniqueID>  (32) 
30

>  <SMILES>  (32) 
CCNCC[NH2+]c1c2ccccc2[n+](C)c2cc3c(cc12)CCCC3

>  <Energy>  (32) 
82.7272141003722

>  <Genealogy>  (32) 
CCNCC[NH2+]c1c2ccccc2[n+](C)c2cc3c(cc12)CCCC3 (protonated)
CCNCC[NH2+]c1c2ccccc2[n+](C)c2cc3c(cc12)CCCC3 (3D coordinates assigned)
CCNCC[NH2+]c1c2ccccc2[n+](C)c2cc3c(cc12)CCCC3 (nonaromatic ring conformer: 82.7272141003722 kcal/mol)

>  <smiles>  (32) 
CCNCCNc1c2ccccc2[n+](C)c2cc3c(cc12)CCCC3

>  <score_type>  (32) 
oracle

>  <origin>  (32) 
adg

>  <m_score__min__energy>  (32) 
-8.7400000000000002

>  <m_primary>  (32) 
energy

$$$$
32:0
     RDKit          3D

 74 78  0  0  0  0  0  0  0  0999 V2000
   -9.0610   20.2720  -32.2210 C   0  0  0  0  0  0  0  0  0  0  0  0
   -7.6340   19.7840  -31.9600 C   0  0  0  0  0  0  0  0  0  0  0  0
   -7.0890   18.8960  -33.0140 N   0  0  0  0  0  0  0  0  0  0  0  0
   -6.7530   17.5200  -32.5770 C   0  0  0  0  0  0  0  0  0  0  0  0
   -6.1190   17.4280  -31.1780 C   0  0  0  0  0  0  0  0  0  0  0  0
   -6.1270   19.5240  -33.9470 C   0  0  0  0  0  0  0  0  0  0  0  0
   -4.9570   18.5810  -34.2760 C   0  0  0  0  0  0  0  0  0  0  0  0
   -3.9170   18.6800  -33.3200 O   0  0  0  0  0  0  0  0  0  0  0  0
   -2.6770   18.9260  -33.9560 C   0  0  0  0  0  0  0  0  0  0  0  0
   -1.9620   20.0900  -33.2580 C   0  0  0  0  0  0  0  0  0  0  0  0
   -2.8830   20.9960  -32.5490 N   0  0  0  0  0  0  0  0  0  0  0  0
   -2.7800   20.8730  -31.0910 C   0  0  0  0  0  0  0  0  0  0  0  0
   -3.2390   22.1610  -30.4440 C   0  0  0  0  0  0  0  0  0  0  0  0
   -2.4840   22.7360  -29.4120 C   0  0  0  0  0  0  0  0  0  0  0  0
   -2.8950   23.8990  -28.8110 C   0  0  0  0  0  0  0  0  0  0  0  0
   -4.0390   24.5360  -29.1480 N   0  0  0  0  0  0  0  0  0  0  0  0
   -4.8280   24.0190  -30.1320 C   0  0  0  0  0  0  0  0  0  0  0  0
   -6.0190   24.6720  -30.4680 C   0  0  0  0  0  0  0  0  0  0  0  0
   -6.8540   24.1470  -31.4550 C   0  0  0  0  0  0  0  0  0  0  0  0
   -6.5050   22.9700  -32.1170 C   0  0  0  0  0  0  0  0  0  0  0  0
   -5.3180   22.3040  -31.8010 C   0  0  0  0  0  0  0  0  0  0  0  0
   -4.4560   22.8130  -30.8060 C   0  0  0  0  0  0  0  0  0  0  0  0
   -1.9440   24.2340  -27.7830 C   0  0  0  0  0  0  0  0  0  0  0  0
   -1.9500   25.3170  -26.9150 C   0  0  0  0  0  0  0  0  0  0  0  0
   -0.8940   25.4480  -25.9850 C   0  0  0  0  0  0  0  0  0  0  0  0
    0.0990   24.4300  -25.9270 C   0  0  0  0  0  0  0  0  0  0  0  0
    0.0330   23.3430  -26.8310 C   0  0  0  0  0  0  0  0  0  0  0  0
    0.8870   22.4140  -26.7890 O   0  0  0  0  0  0  0  0  0  0  0  0
   -0.9730   23.3000  -27.7430 N   0  0  0  0  0  0  0  0  0  0  0  0
   -1.2090   22.2660  -28.7590 C   0  0  0  0  0  0  0  0  0  0  0  0
    1.1120   24.4140  -24.8150 C   0  0  0  0  0  0  0  0  0  0  0  0
    1.3590   25.7130  -24.2960 O   0  0  0  0  0  0  0  0  0  0  0  0
    0.3650   26.6800  -24.1740 C   0  0  0  0  0  0  0  0  0  0  0  0
    0.5310   27.6180  -23.3470 O   0  0  0  0  0  0  0  0  0  0  0  0
   -0.8680   26.6640  -25.0590 C   0  0  2  0  0  0  0  0  0  0  0  0
   -2.0090   26.5860  -24.2380 O   0  0  0  0  0  0  0  0  0  0  0  0
   -0.9030   27.9840  -25.8930 C   0  0  0  0  0  0  0  0  0  0  0  0
    0.1490   28.0390  -27.0070 C   0  0  0  0  0  0  0  0  0  0  0  0
   -9.5702   20.4461  -31.2616 H   0  0  0  0  0  0  0  0  0  0  0  0
   -9.0286   21.2101  -32.7945 H   0  0  0  0  0  0  0  0  0  0  0  0
   -9.6098   19.5105  -32.7945 H   0  0  0  0  0  0  0  0  0  0  0  0
   -6.9789   20.6639  -31.8786 H   0  0  0  0  0  0  0  0  0  0  0  0
   -7.6695   19.1892  -31.0354 H   0  0  0  0  0  0  0  0  0  0  0  0
   -7.6786   16.9256  -32.5738 H   0  0  0  0  0  0  0  0  0  0  0  0
   -6.0003   17.1435  -33.2853 H   0  0  0  0  0  0  0  0  0  0  0  0
   -6.9011   17.5415  -30.4128 H   0  0  0  0  0  0  0  0  0  0  0  0
   -5.6303   16.4495  -31.0605 H   0  0  0  0  0  0  0  0  0  0  0  0
   -5.3724   18.2272  -31.0605 H   0  0  0  0  0  0  0  0  0  0  0  0
   -6.6507   19.7815  -34.8795 H   0  0  0  0  0  0  0  0  0  0  0  0
   -5.7177   20.4236  -33.4641 H   0  0  0  0  0  0  0  0  0  0  0  0
   -5.3280   17.5456  -34.2926 H   0  0  0  0  0  0  0  0  0  0  0  0
   -4.5495   18.8707  -35.2558 H   0  0  0  0  0  0  0  0  0  0  0  0
   -2.0504   18.0238  -33.8977 H   0  0  0  0  0  0  0  0  0  0  0  0
   -2.8526   19.1851  -35.0105 H   0  0  0  0  0  0  0  0  0  0  0  0
   -1.2492   19.6761  -32.5296 H   0  0  0  0  0  0  0  0  0  0  0  0
   -1.4595   20.6801  -34.0386 H   0  0  0  0  0  0  0  0  0  0  0  0
   -3.8700   20.7990  -32.8400 H   0  0  0  0  0  0  0  0  0  0  0  0
   -3.4148   20.0431  -30.7470 H   0  0  0  0  0  0  0  0  0  0  0  0
   -1.7347   20.6741  -30.8122 H   0  0  0  0  0  0  0  0  0  0  0  0
   -6.2981   25.6026  -29.9522 H   0  0  0  0  0  0  0  0  0  0  0  0
   -7.7908   24.6632  -31.7119 H   0  0  0  0  0  0  0  0  0  0  0  0
   -7.1692   22.5630  -32.8937 H   0  0  0  0  0  0  0  0  0  0  0  0
   -5.0537   21.3771  -32.3311 H   0  0  0  0  0  0  0  0  0  0  0  0
   -2.7612   26.0591  -26.9503 H   0  0  0  0  0  0  0  0  0  0  0  0
   -0.3827   22.2249  -29.4839 H   0  0  0  0  0  0  0  0  0  0  0  0
   -1.2777   21.2499  -28.3432 H   0  0  0  0  0  0  0  0  0  0  0  0
    0.7369   23.7735  -24.0032 H   0  0  0  0  0  0  0  0  0  0  0  0
    2.0573   24.0284  -25.2246 H   0  0  0  0  0  0  0  0  0  0  0  0
   -1.8800   27.1900  -23.4620 H   0  0  0  0  0  0  0  0  0  0  0  0
   -1.8986   28.0788  -26.3510 H   0  0  0  0  0  0  0  0  0  0  0  0
   -0.6791   28.8078  -25.1993 H   0  0  0  0  0  0  0  0  0  0  0  0
    1.1531   28.0915  -26.5608 H   0  0  0  0  0  0  0  0  0  0  0  0
    0.0712   27.1356  -27.6297 H   0  0  0  0  0  0  0  0  0  0  0  0
   -0.0226   28.9294  -27.6297 H   0  0  0  0  0  0  0  0  0  0  0  0
  1  2  1  0
  2  3  1  0
  3  4  1  0
  4  5  1  0
  3  6  1  0
  6  7  1  0
  7  8  1  0
  8  9  1  0
  9 10  1  0
 10 11  1  0
 11 12  1  0
 12 13  1  0
 13 14  2  0
 14 15  1  0
 15 16  2  0
 16 17  1  0
 17 18  2  0
 18 19  1  0
 19 20  2  0
 20 21  1  0
 21 22  2  0
 15 23  1  0
 23 24  2  0
 24 25  1  0
 25 26  2  0
 26 27  1  0
 27 28  2  0
 27 29  1  0
 29 30  1  0
 26 31  1  0
 31 32  1  0
 32 33  1  0
 33 34  2  0
 33 35  1  0
 35 36  1  1
 35 37  1  0
 37 38  1  0
 22 13  1  0
 29 23  1  0
 30 14  1  0
 22 17  1  0
 35 25  1  0
  1 39  1  0
  1 40  1  0
  1 41  1  0
  2 42  1  0
  2 43  1  0
  4 44  1  0
  4 45  1  0
  5 46  1  0
  5 47  1  0
  5 48  1  0
  6 49  1  0
  6 50  1  0
  7 51  1  0
  7 52  1  0
  9 53  1  0
  9 54  1  0
 10 55  1  0
 10 56  1  0
 11 57  1  0
 12 58  1  0
 12 59  1  0
 18 60  1  0
 19 61  1  0
 20 62  1  0
 21 63  1  0
 24 64  1  0
 30 65  1  0
 30 66  1  0
 31 67  1  0
 31 68  1  0
 36 69  1  0
 37 70  1  0
 37 71  1  0
 38 72  1  0
 38 73  1  0
 38 74  1  0
M  END
>  <UniqueID>  (33) 
31

>  <SMILES>  (33) 
CCN(CC)CCOCCNCc1c2c(nc3ccccc13)-c1cc3c(c(=O)n1C2)COC(=O)[C@@]3(O)CC

>  <Energy>  (33) 
121.48456859171743

>  <Genealogy>  (33) 
CCN(CC)CCOCCNCc1c2c(nc3ccccc13)-c1cc3c(c(=O)n1C2)COC(=O)[C@@]3(O)CC (chirality)
CCN(CC)CCOCCNCc1c2c(nc3ccccc13)-c1cc3c(c(=O)n1C2)COC(=O)[C@@]3(O)CC (3D coordinates assigned)
CCN(CC)CCOCCNCc1c2c(nc3ccccc13)-c1cc3c(c(=O)n1C2)COC(=O)[C@@]3(O)CC (nonaromatic ring conformer: 121.48456859171743 kcal/mol)

>  <smiles>  (33) 
CCN(CC)CCOCCNCc1c2c(nc3ccccc13)-c1cc3c(c(=O)n1C2)COC(=O)C3(O)CC

>  <score_type>  (33) 
oracle

>  <origin>  (33) 
adg

>  <m_score__min__energy>  (33) 
-8.8000000000000007

>  <m_primary>  (33) 
energy

$$$$
