0:0
     RDKit          3D

 38 39  0  0  0  0  0  0  0  0999 V2000
   -5.7150   25.4940  -30.0940 C   0  0  0  0  0  0  0  0  0  0  0  0
   -6.8890   24.5790  -30.4620 C   0  0  0  0  0  0  0  0  0  0  0  0
   -6.5470   23.1370  -30.3310 N   0  0  0  0  0  0  0  0  0  0  0  0
   -5.4490   22.9330  -29.3500 C   0  0  0  0  0  0  0  0  0  0  0  0
   -4.1800   22.3530  -29.9840 C   0  0  0  0  0  0  0  0  0  0  0  0
   -7.7520   22.2990  -30.0740 C   0  0  0  0  0  0  0  0  0  0  0  0
   -8.5390   21.8160  -31.3210 C   0  0  0  0  0  0  0  0  0  0  0  0
   -7.9460   20.6280  -31.9590 N   0  0  0  0  0  0  0  0  0  0  0  0
   -8.6460   19.4410  -31.9580 C   0  0  0  0  0  0  0  0  0  0  0  0
   -8.1310   18.3210  -32.5410 N   0  0  0  0  0  0  0  0  0  0  0  0
   -6.9050   18.3670  -33.1170 C   0  0  0  0  0  0  0  0  0  0  0  0
   -6.2580   17.2970  -33.7480 C   0  0  0  0  0  0  0  0  0  0  0  0
   -6.8300   15.9170  -33.8480 C   0  0  0  0  0  0  0  0  0  0  0  0
   -4.9880   17.6440  -34.2140 C   0  0  0  0  0  0  0  0  0  0  0  0
   -4.6950   19.2730  -33.8570 S   0  0  0  0  0  0  0  0  0  0  0  0
   -6.1730   19.5310  -33.1040 C   0  0  0  0  0  0  0  0  0  0  0  0
   -6.6850   20.6770  -32.5090 C   0  0  0  0  0  0  0  0  0  0  0  0
   -5.9940   21.7310  -32.4730 O   0  0  0  0  0  0  0  0  0  0  0  0
   -5.6306   25.5598  -28.9992 H   0  0  0  0  0  0  0  0  0  0  0  0
   -4.7840   25.0809  -30.5094 H   0  0  0  0  0  0  0  0  0  0  0  0
   -5.8882   26.4977  -30.5094 H   0  0  0  0  0  0  0  0  0  0  0  0
   -7.7344   24.8035  -29.7950 H   0  0  0  0  0  0  0  0  0  0  0  0
   -7.1448   24.7687  -31.5149 H   0  0  0  0  0  0  0  0  0  0  0  0
   -6.1850   22.8160  -31.2610 H   0  0  0  0  0  0  0  0  0  0  0  0
   -5.2013   23.9030  -28.8943 H   0  0  0  0  0  0  0  0  0  0  0  0
   -5.8051   22.2077  -28.6035 H   0  0  0  0  0  0  0  0  0  0  0  0
   -3.4862   22.0359  -29.1915 H   0  0  0  0  0  0  0  0  0  0  0  0
   -4.4448   21.4865  -30.6078 H   0  0  0  0  0  0  0  0  0  0  0  0
   -3.6981   23.1203  -30.6078 H   0  0  0  0  0  0  0  0  0  0  0  0
   -7.4264   21.4072  -29.5184 H   0  0  0  0  0  0  0  0  0  0  0  0
   -8.4479   22.9508  -29.5254 H   0  0  0  0  0  0  0  0  0  0  0  0
   -9.5660   21.5709  -31.0125 H   0  0  0  0  0  0  0  0  0  0  0  0
   -8.5119   22.6307  -32.0596 H   0  0  0  0  0  0  0  0  0  0  0  0
   -9.6355   19.3963  -31.4795 H   0  0  0  0  0  0  0  0  0  0  0  0
   -6.9966   15.5150  -32.8377 H   0  0  0  0  0  0  0  0  0  0  0  0
   -7.7865   15.9549  -34.3899 H   0  0  0  0  0  0  0  0  0  0  0  0
   -6.1271   15.2671  -34.3899 H   0  0  0  0  0  0  0  0  0  0  0  0
   -4.2904   16.9679  -34.7299 H   0  0  0  0  0  0  0  0  0  0  0  0
  1  2  1  0
  2  3  1  0
  3  4  1  0
  4  5  1  0
  3  6  1  0
  6  7  1  0
  7  8  1  0
  8  9  1  0
  9 10  2  0
 10 11  1  0
 11 12  1  0
 12 13  1  0
 12 14  2  0
 14 15  1  0
 15 16  1  0
 16 17  1  0
 17 18  2  0
 17  8  1  0
 16 11  2  0
  1 19  1  0
  1 20  1  0
  1 21  1  0
  2 22  1  0
  2 23  1  0
  3 24  1  0
  4 25  1  0
  4 26  1  0
  5 27  1  0
  5 28  1  0
  5 29  1  0
  6 30  1  0
  6 31  1  0
  7 32  1  0
  7 33  1  0
  9 34  1  0
 13 35  1  0
 13 36  1  0
 13 37  1  0
 14 38  1  0
M  CHG  1   3   1
M  END
>  <UniqueID>  (1) 
1

>  <SMILES>  (1) 
CC[NH+](CC)CCn1cnc2c(C)csc2c1=O

>  <Energy>  (1) 
74.8760068180489

>  <Genealogy>  (1) 
CC[NH+](CC)CCn1cnc2c(C)csc2c1=O (protonated)
CC[NH+](CC)CCn1cnc2c(C)csc2c1=O (3D coordinates assigned)
CC[NH+](CC)CCn1cnc2c(C)csc2c1=O (optimized conformer: 74.8760068180489 kcal/mol)

>  <smiles>  (1) 
CCN(CC)CCn1cnc2c(C)csc2c1=O

>  <score_type>  (1) 
oracle

>  <origin>  (1) 
adg

>  <m_score__min__energy>  (1) 
-5.0599999999999996

>  <m_primary>  (1) 
energy

$$$$
1:0
     RDKit          3D

 46 48  0  0  0  0  0  0  0  0999 V2000
   -7.6310   18.0810  -31.9940 C   0  0  0  0  0  0  0  0  0  0  0  0
   -8.9370   18.8680  -31.9470 C   0  0  0  0  0  0  0  0  0  0  0  0
   -8.8160   20.0920  -32.6710 O   0  0  0  0  0  0  0  0  0  0  0  0
   -8.0050   21.1810  -32.3080 C   0  0  0  0  0  0  0  0  0  0  0  0
   -6.6570   21.1530  -32.6850 C   0  0  0  0  0  0  0  0  0  0  0  0
   -5.8010   22.2030  -32.3470 C   0  0  0  0  0  0  0  0  0  0  0  0
   -6.2740   23.2970  -31.6040 C   0  0  0  0  0  0  0  0  0  0  0  0
   -5.3500   24.4380  -31.2270 C   0  0  0  0  0  0  0  0  0  0  0  0
   -4.2940   24.0590  -30.2600 N   0  0  0  0  0  0  0  0  0  0  0  0
   -4.8240   23.5280  -28.9830 C   0  0  0  0  0  0  0  0  0  0  0  0
   -3.7230   22.8750  -28.1410 C   0  0  0  0  0  0  0  0  0  0  0  0
   -3.0800   21.7960  -28.9050 N   0  0  0  0  0  0  0  0  0  0  0  0
   -2.4560   20.6850  -28.2200 C   0  0  0  0  0  0  0  0  0  0  0  0
   -1.1790   20.2320  -28.6030 C   0  0  0  0  0  0  0  0  0  0  0  0
   -0.5800   19.1580  -27.9410 C   0  0  0  0  0  0  0  0  0  0  0  0
   -1.2460   18.5220  -26.8910 C   0  0  0  0  0  0  0  0  0  0  0  0
   -2.5130   18.9590  -26.5020 C   0  0  0  0  0  0  0  0  0  0  0  0
   -3.1170   20.0340  -27.1610 C   0  0  0  0  0  0  0  0  0  0  0  0
   -3.1040   21.8480  -30.3740 C   0  0  0  0  0  0  0  0  0  0  0  0
   -3.1610   23.3050  -30.8480 C   0  0  0  0  0  0  0  0  0  0  0  0
   -7.6310   23.3370  -31.2430 C   0  0  0  0  0  0  0  0  0  0  0  0
   -8.4880   22.2850  -31.5820 C   0  0  0  0  0  0  0  0  0  0  0  0
   -7.2897   17.8754  -30.9687 H   0  0  0  0  0  0  0  0  0  0  0  0
   -7.7943   17.1308  -32.5236 H   0  0  0  0  0  0  0  0  0  0  0  0
   -6.8672   18.6694  -32.5236 H   0  0  0  0  0  0  0  0  0  0  0  0
   -9.7395   18.2625  -32.3934 H   0  0  0  0  0  0  0  0  0  0  0  0
   -9.1719   19.1001  -30.8977 H   0  0  0  0  0  0  0  0  0  0  0  0
   -6.2683   20.2951  -33.2533 H   0  0  0  0  0  0  0  0  0  0  0  0
   -4.7484   22.1732  -32.6650 H   0  0  0  0  0  0  0  0  0  0  0  0
   -4.8651   24.8082  -32.1423 H   0  0  0  0  0  0  0  0  0  0  0  0
   -5.9704   25.2042  -30.7391 H   0  0  0  0  0  0  0  0  0  0  0  0
   -5.2680   24.3552  -28.4098 H   0  0  0  0  0  0  0  0  0  0  0  0
   -5.5776   22.7615  -29.2165 H   0  0  0  0  0  0  0  0  0  0  0  0
   -2.9703   23.6318  -27.8751 H   0  0  0  0  0  0  0  0  0  0  0  0
   -4.1682   22.4550  -27.2270 H   0  0  0  0  0  0  0  0  0  0  0  0
   -0.6492   20.7277  -29.4298 H   0  0  0  0  0  0  0  0  0  0  0  0
    0.4184   18.8123  -28.2472 H   0  0  0  0  0  0  0  0  0  0  0  0
   -0.7719   17.6767  -26.3707 H   0  0  0  0  0  0  0  0  0  0  0  0
   -3.0373   18.4569  -25.6756 H   0  0  0  0  0  0  0  0  0  0  0  0
   -4.1159   20.3736  -26.8498 H   0  0  0  0  0  0  0  0  0  0  0  0
   -2.1949   21.3717  -30.7699 H   0  0  0  0  0  0  0  0  0  0  0  0
   -3.9945   21.3152  -30.7389 H   0  0  0  0  0  0  0  0  0  0  0  0
   -2.2225   23.8035  -30.5639 H   0  0  0  0  0  0  0  0  0  0  0  0
   -3.3037   23.2920  -31.9386 H   0  0  0  0  0  0  0  0  0  0  0  0
   -8.0228   24.2029  -30.6891 H   0  0  0  0  0  0  0  0  0  0  0  0
   -9.5450   22.3210  -31.2795 H   0  0  0  0  0  0  0  0  0  0  0  0
  1  2  1  0
  2  3  1  0
  3  4  1  0
  4  5  2  0
  5  6  1  0
  6  7  2  0
  7  8  1  0
  8  9  1  0
  9 10  1  0
 10 11  1  0
 11 12  1  0
 12 13  1  0
 13 14  2  0
 14 15  1  0
 15 16  2  0
 16 17  1  0
 17 18  2  0
 12 19  1  0
 19 20  1  0
  7 21  1  0
 21 22  2  0
 22  4  1  0
 20  9  1  0
 18 13  1  0
  1 23  1  0
  1 24  1  0
  1 25  1  0
  2 26  1  0
  2 27  1  0
  5 28  1  0
  6 29  1  0
  8 30  1  0
  8 31  1  0
 10 32  1  0
 10 33  1  0
 11 34  1  0
 11 35  1  0
 14 36  1  0
 15 37  1  0
 16 38  1  0
 17 39  1  0
 18 40  1  0
 19 41  1  0
 19 42  1  0
 20 43  1  0
 20 44  1  0
 21 45  1  0
 22 46  1  0
M  END
>  <UniqueID>  (2) 
2

>  <SMILES>  (2) 
CCOc1ccc(CN2CCN(c3ccccc3)CC2)cc1

>  <Energy>  (2) 
57.70149772971851

>  <Genealogy>  (2) 
CCOc1ccc(CN2CCN(c3ccccc3)CC2)cc1 (3D coordinates assigned)
CCOc1ccc(CN2CCN(c3ccccc3)CC2)cc1 (nonaromatic ring conformer: 57.70149772971851 kcal/mol)

>  <smiles>  (2) 
CCOc1ccc(CN2CCN(c3ccccc3)CC2)cc1

>  <score_type>  (2) 
oracle

>  <origin>  (2) 
adg

>  <m_score__min__energy>  (2) 
-8.1300000000000008

>  <m_primary>  (2) 
energy

$$$$
2:0
     RDKit          3D

 48 50  0  0  0  0  0  0  0  0999 V2000
   -6.1130   25.2530  -29.7590 C   0  0  0  0  0  0  0  0  0  0  0  0
   -4.7710   25.0750  -30.4670 C   0  0  0  0  0  0  0  0  0  0  0  0
   -3.7180   24.5980  -29.5450 N   0  0  0  0  0  0  0  0  0  0  0  0
   -4.3010   24.1610  -28.2660 C   0  0  0  0  0  0  0  0  0  0  0  0
   -2.7730   23.6070  -30.1210 C   0  0  0  0  0  0  0  0  0  0  0  0
   -3.4080   22.2890  -30.6000 C   0  0  0  0  0  0  0  0  0  0  0  0
   -4.2700   22.5200  -31.7070 O   0  0  0  0  0  0  0  0  0  0  0  0
   -4.3800   21.6360  -32.7820 C   0  0  0  0  0  0  0  0  0  0  0  0
   -3.4900   21.6020  -33.6770 O   0  0  0  0  0  0  0  0  0  0  0  0
   -5.5610   20.7480  -32.8750 C   0  0  0  0  0  0  0  0  0  0  0  0
   -5.4200   19.4290  -33.3760 C   0  0  0  0  0  0  0  0  0  0  0  0
   -6.5630   18.5960  -33.4450 C   0  0  0  0  0  0  0  0  0  0  0  0
   -7.7840   19.0840  -33.0950 N   0  0  0  0  0  0  0  0  0  0  0  0
   -7.9550   20.3510  -32.6280 C   0  0  0  0  0  0  0  0  0  0  0  0
   -9.2390   20.7960  -32.2700 C   0  0  0  0  0  0  0  0  0  0  0  0
   -9.4250   22.0840  -31.7670 C   0  0  0  0  0  0  0  0  0  0  0  0
   -8.3340   22.9360  -31.6110 C   0  0  0  0  0  0  0  0  0  0  0  0
   -7.0520   22.5100  -31.9650 C   0  0  0  0  0  0  0  0  0  0  0  0
   -6.8430   21.2170  -32.4960 C   0  0  0  0  0  0  0  0  0  0  0  0
   -6.4910   17.1930  -34.0080 C   0  0  0  0  0  0  0  0  0  0  0  0
   -5.0730   16.6240  -34.0140 C   0  0  0  0  0  0  0  0  0  0  0  0
   -4.1120   17.6330  -34.6310 C   0  0  0  0  0  0  0  0  0  0  0  0
   -4.0500   18.8970  -33.7730 C   0  0  0  0  0  0  0  0  0  0  0  0
   -5.9586   25.2325  -28.6701 H   0  0  0  0  0  0  0  0  0  0  0  0
   -6.5552   26.2177  -30.0486 H   0  0  0  0  0  0  0  0  0  0  0  0
   -6.7914   24.4370  -30.0486 H   0  0  0  0  0  0  0  0  0  0  0  0
   -4.8917   24.3419  -31.2781 H   0  0  0  0  0  0  0  0  0  0  0  0
   -4.4610   26.0547  -30.8595 H   0  0  0  0  0  0  0  0  0  0  0  0
   -3.7252   24.5926  -27.4341 H   0  0  0  0  0  0  0  0  0  0  0  0
   -5.3454   24.5006  -28.2041 H   0  0  0  0  0  0  0  0  0  0  0  0
   -4.2681   23.0632  -28.2041 H   0  0  0  0  0  0  0  0  0  0  0  0
   -2.2733   24.0753  -30.9818 H   0  0  0  0  0  0  0  0  0  0  0  0
   -2.0868   23.3338  -29.3059 H   0  0  0  0  0  0  0  0  0  0  0  0
   -2.6114   21.5930  -30.9016 H   0  0  0  0  0  0  0  0  0  0  0  0
   -3.9974   21.8603  -29.7761 H   0  0  0  0  0  0  0  0  0  0  0  0
   -8.6180   18.4600  -33.1890 H   0  0  0  0  0  0  0  0  0  0  0  0
  -10.1026   20.1248  -32.3871 H   0  0  0  0  0  0  0  0  0  0  0  0
  -10.4338   22.4269  -31.4934 H   0  0  0  0  0  0  0  0  0  0  0  0
   -8.4829   23.9484  -31.2074 H   0  0  0  0  0  0  0  0  0  0  0  0
   -6.1962   23.1877  -31.8292 H   0  0  0  0  0  0  0  0  0  0  0  0
   -7.1292   16.5372  -33.3976 H   0  0  0  0  0  0  0  0  0  0  0  0
   -6.8310   17.2401  -35.0531 H   0  0  0  0  0  0  0  0  0  0  0  0
   -4.7620   16.4086  -32.9811 H   0  0  0  0  0  0  0  0  0  0  0  0
   -5.0567   15.6983  -34.6079 H   0  0  0  0  0  0  0  0  0  0  0  0
   -3.1084   17.1872  -34.6940 H   0  0  0  0  0  0  0  0  0  0  0  0
   -4.4688   17.8994  -35.6369 H   0  0  0  0  0  0  0  0  0  0  0  0
   -3.4862   18.6684  -32.8565 H   0  0  0  0  0  0  0  0  0  0  0  0
   -3.5635   19.6757  -34.3787 H   0  0  0  0  0  0  0  0  0  0  0  0
  1  2  1  0
  2  3  1  0
  3  4  1  0
  3  5  1  0
  5  6  1  0
  6  7  1  0
  7  8  1  0
  8  9  2  0
  8 10  1  0
 10 11  2  0
 11 12  1  0
 12 13  2  0
 13 14  1  0
 14 15  2  0
 15 16  1  0
 16 17  2  0
 17 18  1  0
 18 19  2  0
 12 20  1  0
 20 21  1  0
 21 22  1  0
 22 23  1  0
 19 10  1  0
 23 11  1  0
 19 14  1  0
  1 24  1  0
  1 25  1  0
  1 26  1  0
  2 27  1  0
  2 28  1  0
  4 29  1  0
  4 30  1  0
  4 31  1  0
  5 32  1  0
  5 33  1  0
  6 34  1  0
  6 35  1  0
 13 36  1  0
 15 37  1  0
 16 38  1  0
 17 39  1  0
 18 40  1  0
 20 41  1  0
 20 42  1  0
 21 43  1  0
 21 44  1  0
 22 45  1  0
 22 46  1  0
 23 47  1  0
 23 48  1  0
M  CHG  1  13   1
M  END
>  <UniqueID>  (3) 
3

>  <SMILES>  (3) 
CCN(C)CCOC(=O)c1c2c([nH+]c3ccccc13)CCCC2

>  <Energy>  (3) 
60.59559160543393

>  <Genealogy>  (3) 
CCN(C)CCOC(=O)c1c2c([nH+]c3ccccc13)CCCC2 (protonated)
CCN(C)CCOC(=O)c1c2c([nH+]c3ccccc13)CCCC2 (3D coordinates assigned)
CCN(C)CCOC(=O)c1c2c([nH+]c3ccccc13)CCCC2 (nonaromatic ring conformer: 60.59559160543393 kcal/mol)

>  <smiles>  (3) 
CCN(C)CCOC(=O)c1c2c(nc3ccccc13)CCCC2

>  <score_type>  (3) 
oracle

>  <origin>  (3) 
adg

>  <m_score__min__energy>  (3) 
-7.8499999999999996

>  <m_primary>  (3) 
energy

$$$$
3:0
     RDKit          3D

 47 49  0  0  0  0  0  0  0  0999 V2000
   -6.4570   17.1290  -33.6080 C   0  0  0  0  0  0  0  0  0  0  0  0
   -6.5460   17.6970  -32.1930 C   0  0  0  0  0  0  0  0  0  0  0  0
   -7.0100   19.1020  -32.2360 N   0  0  0  0  0  0  0  0  0  0  0  0
   -8.4890   19.1820  -32.1960 C   0  0  0  0  0  0  0  0  0  0  0  0
   -8.9430   20.6350  -32.3100 C   0  0  0  0  0  0  0  0  0  0  0  0
   -6.4670   19.8110  -33.4190 C   0  0  0  0  0  0  0  0  0  0  0  0
   -5.2010   20.5830  -33.0260 C   0  0  0  0  0  0  0  0  0  0  0  0
   -4.8810   20.3830  -31.6040 N   0  0  0  0  0  0  0  0  0  0  0  0
   -4.3620   21.6080  -31.0180 C   0  0  0  0  0  0  0  0  0  0  0  0
   -5.2150   22.7340  -30.8100 C   0  0  0  0  0  0  0  0  0  0  0  0
   -6.6160   22.6650  -31.0170 C   0  0  0  0  0  0  0  0  0  0  0  0
   -7.4270   23.7850  -30.8330 C   0  0  0  0  0  0  0  0  0  0  0  0
   -6.8700   24.9970  -30.4410 C   0  0  0  0  0  0  0  0  0  0  0  0
   -5.4990   25.0910  -30.2100 C   0  0  0  0  0  0  0  0  0  0  0  0
   -4.6620   23.9690  -30.3750 C   0  0  0  0  0  0  0  0  0  0  0  0
   -3.2890   24.0730  -30.1050 C   0  0  0  0  0  0  0  0  0  0  0  0
   -2.7510   25.2980  -29.7090 O   0  0  0  0  0  0  0  0  0  0  0  0
   -2.4570   22.9500  -30.2110 C   0  0  0  0  0  0  0  0  0  0  0  0
   -1.0900   23.0510  -29.8770 C   0  0  0  0  0  0  0  0  0  0  0  0
   -0.2570   21.9380  -29.9460 C   0  0  0  0  0  0  0  0  0  0  0  0
   -0.7700   20.7080  -30.3430 C   0  0  0  0  0  0  0  0  0  0  0  0
   -2.1150   20.5860  -30.6880 C   0  0  0  0  0  0  0  0  0  0  0  0
   -2.9860   21.7040  -30.6470 C   0  0  0  0  0  0  0  0  0  0  0  0
   -6.2869   16.0434  -33.5573 H   0  0  0  0  0  0  0  0  0  0  0  0
   -7.3973   17.3282  -34.1429 H   0  0  0  0  0  0  0  0  0  0  0  0
   -5.6227   17.6063  -34.1429 H   0  0  0  0  0  0  0  0  0  0  0  0
   -7.2560   17.0974  -31.6045 H   0  0  0  0  0  0  0  0  0  0  0  0
   -5.5498   17.6614  -31.7279 H   0  0  0  0  0  0  0  0  0  0  0  0
   -8.9067   18.6043  -33.0337 H   0  0  0  0  0  0  0  0  0  0  0  0
   -8.8445   18.7694  -31.2403 H   0  0  0  0  0  0  0  0  0  0  0  0
   -9.0751   21.0579  -31.3032 H   0  0  0  0  0  0  0  0  0  0  0  0
   -8.1832   21.2149  -32.8545 H   0  0  0  0  0  0  0  0  0  0  0  0
   -9.8978   20.6792  -32.8545 H   0  0  0  0  0  0  0  0  0  0  0  0
   -6.2201   19.0789  -34.2020 H   0  0  0  0  0  0  0  0  0  0  0  0
   -7.2208   20.5175  -33.7967 H   0  0  0  0  0  0  0  0  0  0  0  0
   -4.3586   20.2276  -33.6376 H   0  0  0  0  0  0  0  0  0  0  0  0
   -5.3770   21.6551  -33.1979 H   0  0  0  0  0  0  0  0  0  0  0  0
   -4.2020   19.5970  -31.4940 H   0  0  0  0  0  0  0  0  0  0  0  0
   -5.7190   20.0500  -31.0790 H   0  0  0  0  0  0  0  0  0  0  0  0
   -7.0708   21.7128  -31.3277 H   0  0  0  0  0  0  0  0  0  0  0  0
   -8.5118   23.7089  -30.9988 H   0  0  0  0  0  0  0  0  0  0  0  0
   -7.5114   25.8815  -30.3132 H   0  0  0  0  0  0  0  0  0  0  0  0
   -5.0651   26.0516  -29.8954 H   0  0  0  0  0  0  0  0  0  0  0  0
   -0.6780   24.0199  -29.5586 H   0  0  0  0  0  0  0  0  0  0  0  0
    0.8078   22.0315  -29.6863 H   0  0  0  0  0  0  0  0  0  0  0  0
   -0.1117   19.8277  -30.3850 H   0  0  0  0  0  0  0  0  0  0  0  0
   -2.5072   19.6059  -30.9972 H   0  0  0  0  0  0  0  0  0  0  0  0
  1  2  1  0
  2  3  1  0
  3  4  1  0
  4  5  1  0
  3  6  1  0
  6  7  1  0
  7  8  1  0
  8  9  1  0
  9 10  2  0
 10 11  1  0
 11 12  2  0
 12 13  1  0
 13 14  2  0
 14 15  1  0
 15 16  2  0
 16 17  1  0
 16 18  1  0
 18 19  2  0
 19 20  1  0
 20 21  2  0
 21 22  1  0
 22 23  2  0
 23  9  1  0
 15 10  1  0
 23 18  1  0
  1 24  1  0
  1 25  1  0
  1 26  1  0
  2 27  1  0
  2 28  1  0
  4 29  1  0
  4 30  1  0
  5 31  1  0
  5 32  1  0
  5 33  1  0
  6 34  1  0
  6 35  1  0
  7 36  1  0
  7 37  1  0
  8 38  1  0
  8 39  1  0
 11 40  1  0
 12 41  1  0
 13 42  1  0
 14 43  1  0
 19 44  1  0
 20 45  1  0
 21 46  1  0
 22 47  1  0
M  CHG  2   8   1  17  -1
M  END
>  <UniqueID>  (4) 
4

>  <SMILES>  (4) 
CCN(CC)CC[NH2+]c1c2ccccc2c([O-])c2ccccc12

>  <Energy>  (4) 
63.12071747935133

>  <Genealogy>  (4) 
CCN(CC)CC[NH2+]c1c2ccccc2c([O-])c2ccccc12 (protonated)
CCN(CC)CC[NH2+]c1c2ccccc2c([O-])c2ccccc12 (3D coordinates assigned)
CCN(CC)CC[NH2+]c1c2ccccc2c([O-])c2ccccc12 (optimized conformer: 63.12071747935133 kcal/mol)

>  <smiles>  (4) 
CCN(CC)CCNc1c2ccccc2c(O)c2ccccc12

>  <score_type>  (4) 
oracle

>  <origin>  (4) 
adg

>  <m_score__min__energy>  (4) 
-9.8300000000000001

>  <m_primary>  (4) 
energy

$$$$
4:0
     RDKit          3D

 35 36  0  0  0  0  0  0  0  0999 V2000
   -0.6270   24.6760  -27.7470 C   0  0  0  0  0  0  0  0  0  0  0  0
   -2.1170   24.9190  -27.9550 C   0  0  0  0  0  0  0  0  0  0  0  0
   -2.3880   25.2720  -29.3440 N   0  0  0  0  0  0  0  0  0  0  0  0
   -3.5240   24.7960  -30.0750 C   0  0  0  0  0  0  0  0  0  0  0  0
   -4.1840   25.5780  -30.8100 O   0  0  0  0  0  0  0  0  0  0  0  0
   -3.9510   23.3610  -29.9430 C   0  0  2  0  0  0  0  0  0  0  0  0
   -2.7230   22.4130  -29.8400 C   0  0  0  0  0  0  0  0  0  0  0  0
   -2.8120   21.6020  -31.0830 C   0  0  0  0  0  0  0  0  0  0  0  0
   -1.8940   20.6630  -31.5560 C   0  0  0  0  0  0  0  0  0  0  0  0
   -2.1340   20.0570  -32.7990 C   0  0  0  0  0  0  0  0  0  0  0  0
   -3.2700   20.4120  -33.5510 C   0  0  0  0  0  0  0  0  0  0  0  0
   -4.1760   21.3640  -33.0560 C   0  0  0  0  0  0  0  0  0  0  0  0
   -3.9380   21.9220  -31.7940 C   0  0  0  0  0  0  0  0  0  0  0  0
   -4.6900   22.9370  -31.1390 N   0  0  0  0  0  0  0  0  0  0  0  0
   -6.0430   23.3440  -31.4110 C   0  0  0  0  0  0  0  0  0  0  0  0
   -6.2620   24.1730  -32.3360 O   0  0  0  0  0  0  0  0  0  0  0  0
   -7.1920   22.9060  -30.5460 C   0  0  0  0  0  0  0  0  0  0  0  0
   -8.2070   22.0880  -31.3410 C   0  0  0  0  0  0  0  0  0  0  0  0
   -0.4082   24.6403  -26.6696 H   0  0  0  0  0  0  0  0  0  0  0  0
   -0.3432   23.7197  -28.2106 H   0  0  0  0  0  0  0  0  0  0  0  0
   -0.0541   25.4926  -28.2106 H   0  0  0  0  0  0  0  0  0  0  0  0
   -2.6721   24.0045  -27.6990 H   0  0  0  0  0  0  0  0  0  0  0  0
   -2.4357   25.7497  -27.3081 H   0  0  0  0  0  0  0  0  0  0  0  0
   -4.5702   23.2999  -29.0359 H   0  0  0  0  0  0  0  0  0  0  0  0
   -1.7844   22.9858  -29.8095 H   0  0  0  0  0  0  0  0  0  0  0  0
   -2.7267   21.8014  -28.9257 H   0  0  0  0  0  0  0  0  0  0  0  0
   -1.0017   20.4035  -30.9673 H   0  0  0  0  0  0  0  0  0  0  0  0
   -1.4330   19.3030  -33.1865 H   0  0  0  0  0  0  0  0  0  0  0  0
   -3.4485   19.9422  -34.5295 H   0  0  0  0  0  0  0  0  0  0  0  0
   -5.0537   21.6648  -33.6469 H   0  0  0  0  0  0  0  0  0  0  0  0
   -6.8044   22.2910  -29.7204 H   0  0  0  0  0  0  0  0  0  0  0  0
   -7.6969   23.8038  -30.1599 H   0  0  0  0  0  0  0  0  0  0  0  0
   -8.8712   21.5527  -30.6465 H   0  0  0  0  0  0  0  0  0  0  0  0
   -8.8041   22.7603  -31.9746 H   0  0  0  0  0  0  0  0  0  0  0  0
   -7.6769   21.3617  -31.9746 H   0  0  0  0  0  0  0  0  0  0  0  0
  1  2  1  0
  2  3  1  0
  3  4  1  0
  4  5  2  0
  4  6  1  0
  6  7  1  0
  7  8  1  0
  8  9  2  0
  9 10  1  0
 10 11  2  0
 11 12  1  0
 12 13  2  0
 13 14  1  0
 14 15  1  0
 15 16  2  0
 15 17  1  0
 17 18  1  0
 14  6  1  0
 13  8  1  0
  1 19  1  0
  1 20  1  0
  1 21  1  0
  2 22  1  0
  2 23  1  0
  6 24  1  1
  7 25  1  0
  7 26  1  0
  9 27  1  0
 10 28  1  0
 11 29  1  0
 12 30  1  0
 17 31  1  0
 17 32  1  0
 18 33  1  0
 18 34  1  0
 18 35  1  0
M  CHG  1   3  -1
M  END
>  <UniqueID>  (5) 
5

>  <SMILES>  (5) 
CC[N-]C(=O)[C@@H]1Cc2ccccc2N1C(=O)CC

>  <Energy>  (5) 
44.933350851832145

>  <Genealogy>  (5) 
CC[N-]C(=O)C1Cc2ccccc2N1C(=O)CC (protonated)
CC[N-]C(=O)[C@@H]1Cc2ccccc2N1C(=O)CC (chirality)
CC[N-]C(=O)[C@@H]1Cc2ccccc2N1C(=O)CC (3D coordinates assigned)
CC[N-]C(=O)[C@@H]1Cc2ccccc2N1C(=O)CC (nonaromatic ring conformer: 44.933350851832145 kcal/mol)

>  <smiles>  (5) 
CCNC(=O)C1Cc2ccccc2N1C(=O)CC

>  <score_type>  (5) 
oracle

>  <origin>  (5) 
adg

>  <m_score__min__energy>  (5) 
-8.2400000000000002

>  <m_primary>  (5) 
energy

$$$$
5:0
     RDKit          3D

 30 32  0  0  0  0  0  0  0  0999 V2000
   -9.4420   21.9310  -31.9650 C   0  0  0  0  0  0  0  0  0  0  0  0
   -8.4890   21.4730  -30.8650 C   0  0  0  0  0  0  0  0  0  0  0  0
   -7.1180   21.9120  -31.1470 N   0  0  0  0  0  0  0  0  0  0  0  0
   -6.1530   21.3010  -31.8990 C   0  0  0  0  0  0  0  0  0  0  0  0
   -6.2970   19.9920  -32.5690 C   0  0  0  0  0  0  0  0  0  0  0  0
   -6.9710   18.9260  -31.9480 C   0  0  0  0  0  0  0  0  0  0  0  0
   -7.0750   17.6880  -32.5900 C   0  0  0  0  0  0  0  0  0  0  0  0
   -6.4970   17.4990  -33.8480 C   0  0  0  0  0  0  0  0  0  0  0  0
   -6.5980   16.2970  -34.4670 F   0  0  0  0  0  0  0  0  0  0  0  0
   -5.8070   18.5460  -34.4630 C   0  0  0  0  0  0  0  0  0  0  0  0
   -5.6990   19.7860  -33.8240 C   0  0  0  0  0  0  0  0  0  0  0  0
   -5.0270   22.0540  -32.0450 N   0  0  0  0  0  0  0  0  0  0  0  0
   -5.3170   23.1590  -31.3410 C   0  0  0  0  0  0  0  0  0  0  0  0
   -4.5210   24.2480  -31.1940 N   0  0  0  0  0  0  0  0  0  0  0  0
   -4.9880   25.3150  -30.4770 C   0  0  0  0  0  0  0  0  0  0  0  0
   -6.2840   25.2890  -29.9120 C   0  0  0  0  0  0  0  0  0  0  0  0
   -7.0980   24.1560  -30.0850 C   0  0  0  0  0  0  0  0  0  0  0  0
   -6.5630   23.0890  -30.8080 C   0  0  0  0  0  0  0  0  0  0  0  0
  -10.3449   22.3649  -31.5107 H   0  0  0  0  0  0  0  0  0  0  0  0
   -8.9450   22.6886  -32.5887 H   0  0  0  0  0  0  0  0  0  0  0  0
   -9.7231   21.0696  -32.5887 H   0  0  0  0  0  0  0  0  0  0  0  0
   -8.8142   21.9005  -29.9051 H   0  0  0  0  0  0  0  0  0  0  0  0
   -8.5049   20.3740  -30.8199 H   0  0  0  0  0  0  0  0  0  0  0  0
   -7.4184   19.0663  -30.9530 H   0  0  0  0  0  0  0  0  0  0  0  0
   -7.6131   16.8611  -32.1035 H   0  0  0  0  0  0  0  0  0  0  0  0
   -5.3478   18.3955  -35.4512 H   0  0  0  0  0  0  0  0  0  0  0  0
   -5.1433   20.6037  -34.3063 H   0  0  0  0  0  0  0  0  0  0  0  0
   -4.3503   26.2005  -30.3387 H   0  0  0  0  0  0  0  0  0  0  0  0
   -6.6539   26.1522  -29.3392 H   0  0  0  0  0  0  0  0  0  0  0  0
   -8.1148   24.1123  -29.6676 H   0  0  0  0  0  0  0  0  0  0  0  0
  1  2  1  0
  2  3  1  0
  3  4  1  0
  4  5  1  0
  5  6  2  0
  6  7  1  0
  7  8  2  0
  8  9  1  0
  8 10  1  0
 10 11  2  0
  4 12  2  0
 12 13  1  0
 13 14  2  0
 14 15  1  0
 15 16  2  0
 16 17  1  0
 17 18  2  0
 18  3  1  0
 11  5  1  0
 18 13  1  0
  1 19  1  0
  1 20  1  0
  1 21  1  0
  2 22  1  0
  2 23  1  0
  6 24  1  0
  7 25  1  0
 10 26  1  0
 11 27  1  0
 15 28  1  0
 16 29  1  0
 17 30  1  0
M  END
>  <UniqueID>  (6) 
6

>  <SMILES>  (6) 
CCn1c(-c2ccc(F)cc2)nc2ncccc21

>  <Energy>  (6) 
74.98074031077415

>  <Genealogy>  (6) 
CCn1c(-c2ccc(F)cc2)nc2ncccc21 (3D coordinates assigned)
CCn1c(-c2ccc(F)cc2)nc2ncccc21 (optimized conformer: 74.98074031077415 kcal/mol)

>  <smiles>  (6) 
CCn1c(-c2ccc(F)cc2)nc2ncccc21

>  <score_type>  (6) 
oracle

>  <origin>  (6) 
adg

>  <m_score__min__energy>  (6) 
-7.3700000000000001

>  <m_primary>  (6) 
energy

$$$$
6:0
     RDKit          3D

 40 41  0  0  0  0  0  0  0  0999 V2000
   -2.5580   20.7400  -31.2620 C   0  0  0  0  0  0  0  0  0  0  0  0
   -2.7150   21.9140  -32.2160 C   0  0  0  0  0  0  0  0  0  0  0  0
   -3.4800   22.9230  -31.5900 O   0  0  0  0  0  0  0  0  0  0  0  0
   -3.0090   23.1600  -30.2770 C   0  0  0  0  0  0  0  0  0  0  0  0
   -3.6270   24.4420  -29.7170 C   0  0  0  0  0  0  0  0  0  0  0  0
   -4.1360   25.2450  -30.7660 O   0  0  0  0  0  0  0  0  0  0  0  0
   -5.3990   25.7910  -30.4330 C   0  0  0  0  0  0  0  0  0  0  0  0
   -6.5350   24.8160  -30.7670 C   0  0  0  0  0  0  0  0  0  0  0  0
   -6.0580   23.7150  -31.6080 N   0  0  0  0  0  0  0  0  0  0  0  0
   -6.6820   22.4210  -31.7110 C   0  0  0  0  0  0  0  0  0  0  0  0
   -7.9480   22.2510  -31.4300 N   0  0  0  0  0  0  0  0  0  0  0  0
   -8.6460   20.9570  -31.4570 C   0  0  0  0  0  0  0  0  0  0  0  0
   -7.8220   19.8320  -32.0280 C   0  0  0  0  0  0  0  0  0  0  0  0
   -8.3830   18.5600  -32.2090 C   0  0  0  0  0  0  0  0  0  0  0  0
   -7.6010   17.5210  -32.7150 C   0  0  0  0  0  0  0  0  0  0  0  0
   -6.2620   17.7640  -33.0310 C   0  0  0  0  0  0  0  0  0  0  0  0
   -5.7330   19.0030  -32.8460 N   0  0  0  0  0  0  0  0  0  0  0  0
   -6.4780   20.0320  -32.3550 C   0  0  0  0  0  0  0  0  0  0  0  0
   -5.8940   21.3180  -32.1760 N   0  0  0  0  0  0  0  0  0  0  0  0
   -2.6064   21.1018  -30.2243 H   0  0  0  0  0  0  0  0  0  0  0  0
   -3.3673   20.0155  -31.4358 H   0  0  0  0  0  0  0  0  0  0  0  0
   -1.5868   20.2536  -31.4358 H   0  0  0  0  0  0  0  0  0  0  0  0
   -1.7230   22.3122  -32.4755 H   0  0  0  0  0  0  0  0  0  0  0  0
   -3.2238   21.5798  -33.1322 H   0  0  0  0  0  0  0  0  0  0  0  0
   -3.2857   22.3121  -29.6332 H   0  0  0  0  0  0  0  0  0  0  0  0
   -1.9149   23.2708  -30.3029 H   0  0  0  0  0  0  0  0  0  0  0  0
   -4.4463   24.1797  -29.0314 H   0  0  0  0  0  0  0  0  0  0  0  0
   -2.8505   25.0070  -29.1804 H   0  0  0  0  0  0  0  0  0  0  0  0
   -5.4211   26.0109  -29.3554 H   0  0  0  0  0  0  0  0  0  0  0  0
   -5.5458   26.7087  -31.0214 H   0  0  0  0  0  0  0  0  0  0  0  0
   -6.9404   24.4033  -29.8314 H   0  0  0  0  0  0  0  0  0  0  0  0
   -7.3133   25.3637  -31.3185 H   0  0  0  0  0  0  0  0  0  0  0  0
   -5.1490   23.8560  -32.1030 H   0  0  0  0  0  0  0  0  0  0  0  0
   -8.5320   23.0630  -31.1360 H   0  0  0  0  0  0  0  0  0  0  0  0
   -8.9264   20.6929  -30.4266 H   0  0  0  0  0  0  0  0  0  0  0  0
   -9.5200   21.0787  -32.1138 H   0  0  0  0  0  0  0  0  0  0  0  0
   -9.4377   18.3814  -31.9526 H   0  0  0  0  0  0  0  0  0  0  0  0
   -8.0343   16.5209  -32.8636 H   0  0  0  0  0  0  0  0  0  0  0  0
   -5.6353   16.9526  -33.4297 H   0  0  0  0  0  0  0  0  0  0  0  0
   -4.8840   21.4600  -32.4040 H   0  0  0  0  0  0  0  0  0  0  0  0
  1  2  1  0
  2  3  1  0
  3  4  1  0
  4  5  1  0
  5  6  1  0
  6  7  1  0
  7  8  1  0
  8  9  1  0
  9 10  1  0
 10 11  2  0
 11 12  1  0
 12 13  1  0
 13 14  2  0
 14 15  1  0
 15 16  2  0
 16 17  1  0
 17 18  2  0
 18 19  1  0
 19 10  1  0
 18 13  1  0
  1 20  1  0
  1 21  1  0
  1 22  1  0
  2 23  1  0
  2 24  1  0
  4 25  1  0
  4 26  1  0
  5 27  1  0
  5 28  1  0
  7 29  1  0
  7 30  1  0
  8 31  1  0
  8 32  1  0
  9 33  1  0
 11 34  1  0
 12 35  1  0
 12 36  1  0
 14 37  1  0
 15 38  1  0
 16 39  1  0
 19 40  1  0
M  CHG  1  11   1
M  END
>  <UniqueID>  (7) 
7

>  <SMILES>  (7) 
CCOCCOCCNC1=[NH+]Cc2cccnc2N1

>  <Energy>  (7) 
40.166969522143795

>  <Genealogy>  (7) 
CCOCCOCCNC1=[NH+]Cc2cccnc2N1 (protonated)
CCOCCOCCNC1=[NH+]Cc2cccnc2N1 (3D coordinates assigned)
CCOCCOCCNC1=[NH+]Cc2cccnc2N1 (nonaromatic ring conformer: 40.166969522143795 kcal/mol)

>  <smiles>  (7) 
CCOCCOCCNC1=NCc2cccnc2N1

>  <score_type>  (7) 
oracle

>  <origin>  (7) 
adg

>  <m_score__min__energy>  (7) 
-6.7000000000000002

>  <m_primary>  (7) 
energy

$$$$
7:0
     RDKit          3D

 59 61  0  0  0  0  0  0  0  0999 V2000
   -3.5390   22.7280  -29.2670 C   0  0  0  0  0  0  0  0  0  0  0  0
   -3.3620   24.2460  -29.3060 C   0  0  0  0  0  0  0  0  0  0  0  0
   -4.3390   24.9200  -30.2840 C   0  0  0  0  0  0  0  0  0  0  0  0
   -5.8110   24.7980  -29.8510 C   0  0  0  0  0  0  0  0  0  0  0  0
   -6.5390   23.5970  -30.5010 C   0  0  0  0  0  0  0  0  0  0  0  0
   -6.1700   23.3440  -31.9790 C   0  0  0  0  0  0  0  0  0  0  0  0
   -6.0420   21.8920  -32.2960 N   0  0  0  0  0  0  0  0  0  0  0  0
   -7.1810   21.0900  -32.2740 C   0  0  0  0  0  0  0  0  0  0  0  0
   -8.4780   21.6130  -32.0000 C   0  0  0  0  0  0  0  0  0  0  0  0
   -9.6050   20.7950  -31.9790 C   0  0  0  0  0  0  0  0  0  0  0  0
   -9.4900   19.4360  -32.2300 C   0  0  0  0  0  0  0  0  0  0  0  0
   -8.2440   18.8870  -32.5040 C   0  0  0  0  0  0  0  0  0  0  0  0
   -7.0840   19.6920  -32.5280 C   0  0  0  0  0  0  0  0  0  0  0  0
   -5.8350   19.1180  -32.7920 C   0  0  0  0  0  0  0  0  0  0  0  0
   -5.7150   17.6910  -32.9310 N   0  0  0  0  0  0  0  0  0  0  0  0
   -6.0280   17.0110  -34.1910 C   0  0  0  0  0  0  0  0  0  0  0  0
   -6.0770   15.4860  -33.9880 C   0  0  0  0  0  0  0  0  0  0  0  0
   -4.7330   14.8990  -33.7760 N   0  0  0  0  0  0  0  0  0  0  0  0
   -3.6660   15.7730  -34.3010 C   0  0  0  0  0  0  0  0  0  0  0  0
   -4.5110   14.6650  -32.3380 C   0  0  0  0  0  0  0  0  0  0  0  0
   -4.7040   19.9380  -32.9000 C   0  0  0  0  0  0  0  0  0  0  0  0
   -3.4670   19.3850  -33.3010 C   0  0  0  0  0  0  0  0  0  0  0  0
   -2.3260   20.1710  -33.3820 C   0  0  0  0  0  0  0  0  0  0  0  0
   -2.3940   21.5200  -33.0720 C   0  0  0  0  0  0  0  0  0  0  0  0
   -3.6070   22.0980  -32.7030 C   0  0  0  0  0  0  0  0  0  0  0  0
   -4.8080   21.3320  -32.6240 C   0  0  0  0  0  0  0  0  0  0  0  0
   -3.5784   22.3902  -28.2209 H   0  0  0  0  0  0  0  0  0  0  0  0
   -4.4751   22.4548  -29.7760 H   0  0  0  0  0  0  0  0  0  0  0  0
   -2.6909   22.2468  -29.7760 H   0  0  0  0  0  0  0  0  0  0  0  0
   -3.5361   24.6489  -28.2974 H   0  0  0  0  0  0  0  0  0  0  0  0
   -2.3392   24.4579  -29.6508 H   0  0  0  0  0  0  0  0  0  0  0  0
   -4.0826   25.9874  -30.3543 H   0  0  0  0  0  0  0  0  0  0  0  0
   -4.2392   24.4065  -31.2516 H   0  0  0  0  0  0  0  0  0  0  0  0
   -5.8454   24.6781  -28.7581 H   0  0  0  0  0  0  0  0  0  0  0  0
   -6.3265   25.7115  -30.1823 H   0  0  0  0  0  0  0  0  0  0  0  0
   -6.2902   22.6930  -29.9258 H   0  0  0  0  0  0  0  0  0  0  0  0
   -7.6123   23.8375  -30.4847 H   0  0  0  0  0  0  0  0  0  0  0  0
   -6.9545   23.7765  -32.6173 H   0  0  0  0  0  0  0  0  0  0  0  0
   -5.1927   23.8137  -32.1643 H   0  0  0  0  0  0  0  0  0  0  0  0
   -8.5918   22.6887  -31.8003 H   0  0  0  0  0  0  0  0  0  0  0  0
  -10.5920   21.2294  -31.7621 H   0  0  0  0  0  0  0  0  0  0  0  0
  -10.3834   18.7945  -32.2121 H   0  0  0  0  0  0  0  0  0  0  0  0
   -8.1595   17.8089  -32.7054 H   0  0  0  0  0  0  0  0  0  0  0  0
   -5.3460   17.1330  -32.1290 H   0  0  0  0  0  0  0  0  0  0  0  0
   -7.0059   17.3584  -34.5557 H   0  0  0  0  0  0  0  0  0  0  0  0
   -5.2423   17.2453  -34.9243 H   0  0  0  0  0  0  0  0  0  0  0  0
   -6.7005   15.2669  -33.1087 H   0  0  0  0  0  0  0  0  0  0  0  0
   -6.4964   15.0401  -34.9019 H   0  0  0  0  0  0  0  0  0  0  0  0
   -4.6750   13.9720  -34.2610 H   0  0  0  0  0  0  0  0  0  0  0  0
   -3.1155   16.2239  -33.4622 H   0  0  0  0  0  0  0  0  0  0  0  0
   -2.9745   15.1785  -34.9161 H   0  0  0  0  0  0  0  0  0  0  0  0
   -4.1127   16.5681  -34.9161 H   0  0  0  0  0  0  0  0  0  0  0  0
   -5.1522   15.3409  -31.7532 H   0  0  0  0  0  0  0  0  0  0  0  0
   -4.7591   13.6216  -32.0937 H   0  0  0  0  0  0  0  0  0  0  0  0
   -3.4560   14.8579  -32.0937 H   0  0  0  0  0  0  0  0  0  0  0  0
   -3.4075   18.3158  -33.5527 H   0  0  0  0  0  0  0  0  0  0  0  0
   -1.3697   19.7241  -33.6916 H   0  0  0  0  0  0  0  0  0  0  0  0
   -1.4852   22.1380  -33.1175 H   0  0  0  0  0  0  0  0  0  0  0  0
   -3.6394   23.1718  -32.4667 H   0  0  0  0  0  0  0  0  0  0  0  0
  1  2  1  0
  2  3  1  0
  3  4  1  0
  4  5  1  0
  5  6  1  0
  6  7  1  0
  7  8  2  0
  8  9  1  0
  9 10  2  0
 10 11  1  0
 11 12  2  0
 12 13  1  0
 13 14  2  0
 14 15  1  0
 15 16  1  0
 16 17  1  0
 17 18  1  0
 18 19  1  0
 18 20  1  0
 14 21  1  0
 21 22  2  0
 22 23  1  0
 23 24  2  0
 24 25  1  0
 25 26  2  0
 26  7  1  0
 13  8  1  0
 26 21  1  0
  1 27  1  0
  1 28  1  0
  1 29  1  0
  2 30  1  0
  2 31  1  0
  3 32  1  0
  3 33  1  0
  4 34  1  0
  4 35  1  0
  5 36  1  0
  5 37  1  0
  6 38  1  0
  6 39  1  0
  9 40  1  0
 10 41  1  0
 11 42  1  0
 12 43  1  0
 15 44  1  0
 16 45  1  0
 16 46  1  0
 17 47  1  0
 17 48  1  0
 18 49  1  0
 19 50  1  0
 19 51  1  0
 19 52  1  0
 20 53  1  0
 20 54  1  0
 20 55  1  0
 22 56  1  0
 23 57  1  0
 24 58  1  0
 25 59  1  0
M  CHG  2   7   1  18   1
M  END
>  <UniqueID>  (8) 
8

>  <SMILES>  (8) 
CCCCCC[n+]1c2ccccc2c(NCC[NH+](C)C)c2ccccc21

>  <Energy>  (8) 
83.74285826586215

>  <Genealogy>  (8) 
CCCCCC[n+]1c2ccccc2c(NCC[NH+](C)C)c2ccccc21 (protonated)
CCCCCC[n+]1c2ccccc2c(NCC[NH+](C)C)c2ccccc21 (3D coordinates assigned)
CCCCCC[n+]1c2ccccc2c(NCC[NH+](C)C)c2ccccc21 (optimized conformer: 83.74285826586215 kcal/mol)

>  <smiles>  (8) 
CCCCCC[n+]1c2ccccc2c(NCCN(C)C)c2ccccc21

>  <score_type>  (8) 
oracle

>  <origin>  (8) 
adg

>  <m_score__min__energy>  (8) 
-7.04

>  <m_primary>  (8) 
energy

$$$$
8:0
     RDKit          3D

 58 60  0  0  0  0  0  0  0  0999 V2000
   -1.1530   19.4010  -27.5670 C   0  0  0  0  0  0  0  0  0  0  0  0
   -0.5420   19.2610  -28.9610 C   0  0  0  0  0  0  0  0  0  0  0  0
    0.1250   20.5150  -29.3790 N   0  0  0  0  0  0  0  0  0  0  0  0
   -0.2050   21.6440  -28.4710 C   0  0  0  0  0  0  0  0  0  0  0  0
   -0.5240   22.8860  -29.2960 C   0  0  0  0  0  0  0  0  0  0  0  0
   -0.2030   20.8310  -30.7900 C   0  0  0  0  0  0  0  0  0  0  0  0
   -0.6930   19.5810  -31.5360 C   0  0  0  0  0  0  0  0  0  0  0  0
   -0.2360   19.6030  -32.9320 N   0  0  0  0  0  0  0  0  0  0  0  0
   -0.9600   20.6120  -33.7180 C   0  0  0  0  0  0  0  0  0  0  0  0
   -2.3090   20.8400  -33.1190 C   0  0  0  0  0  0  0  0  0  0  0  0
   -3.3950   20.0020  -33.2390 C   0  0  0  0  0  0  0  0  0  0  0  0
   -4.4210   20.5570  -32.5700 N   0  0  0  0  0  0  0  0  0  0  0  0
   -5.7120   19.9530  -32.3710 C   0  0  0  0  0  0  0  0  0  0  0  0
   -5.8240   18.5610  -32.2250 C   0  0  0  0  0  0  0  0  0  0  0  0
   -7.0750   17.9720  -32.0220 C   0  0  0  0  0  0  0  0  0  0  0  0
   -8.2230   18.7660  -31.9520 C   0  0  0  0  0  0  0  0  0  0  0  0
   -9.4320   18.1830  -31.7550 F   0  0  0  0  0  0  0  0  0  0  0  0
   -8.1200   20.1560  -32.0840 C   0  0  0  0  0  0  0  0  0  0  0  0
   -9.5540   21.1660  -31.9920 Cl  0  0  0  0  0  0  0  0  0  0  0  0
   -6.8680   20.7480  -32.2850 C   0  0  0  0  0  0  0  0  0  0  0  0
   -3.9380   21.7230  -32.0710 C   0  0  0  0  0  0  0  0  0  0  0  0
   -4.7340   22.7250  -31.3260 C   0  0  0  0  0  0  0  0  0  0  0  0
   -5.7010   23.4910  -31.9980 C   0  0  0  0  0  0  0  0  0  0  0  0
   -6.4490   24.4470  -31.3110 C   0  0  0  0  0  0  0  0  0  0  0  0
   -6.2340   24.6560  -29.9490 C   0  0  0  0  0  0  0  0  0  0  0  0
   -5.2680   23.9130  -29.2700 C   0  0  0  0  0  0  0  0  0  0  0  0
   -4.5050   22.9410  -29.9500 C   0  0  0  0  0  0  0  0  0  0  0  0
   -3.5280   22.1730  -29.2930 O   0  0  0  0  0  0  0  0  0  0  0  0
   -3.5470   21.8570  -27.9050 C   0  0  0  0  0  0  0  0  0  0  0  0
   -2.6410   21.9260  -32.3940 N   0  0  0  0  0  0  0  0  0  0  0  0
   -0.3776   19.2233  -26.8073 H   0  0  0  0  0  0  0  0  0  0  0  0
   -1.5600   20.4157  -27.4452 H   0  0  0  0  0  0  0  0  0  0  0  0
   -1.9612   18.6648  -27.4452 H   0  0  0  0  0  0  0  0  0  0  0  0
    0.1980   18.4473  -28.9488 H   0  0  0  0  0  0  0  0  0  0  0  0
   -1.3486   19.0394  -29.6754 H   0  0  0  0  0  0  0  0  0  0  0  0
   -1.0783   21.3775  -27.8576 H   0  0  0  0  0  0  0  0  0  0  0  0
    0.6548   21.8504  -27.8166 H   0  0  0  0  0  0  0  0  0  0  0  0
   -0.7403   23.7282  -28.6222 H   0  0  0  0  0  0  0  0  0  0  0  0
    0.3390   23.1364  -29.9305 H   0  0  0  0  0  0  0  0  0  0  0  0
   -1.4008   22.6895  -29.9305 H   0  0  0  0  0  0  0  0  0  0  0  0
   -0.9931   21.5960  -30.8127 H   0  0  0  0  0  0  0  0  0  0  0  0
    0.7065   21.2005  -31.2863 H   0  0  0  0  0  0  0  0  0  0  0  0
   -0.2955   18.6838  -31.0390 H   0  0  0  0  0  0  0  0  0  0  0  0
   -1.7928   19.5664  -31.5218 H   0  0  0  0  0  0  0  0  0  0  0  0
    0.7770   19.8710  -32.9320 H   0  0  0  0  0  0  0  0  0  0  0  0
   -0.3935   21.5549  -33.7140 H   0  0  0  0  0  0  0  0  0  0  0  0
   -1.0749   20.2560  -34.7524 H   0  0  0  0  0  0  0  0  0  0  0  0
   -3.4190   19.0476  -33.7854 H   0  0  0  0  0  0  0  0  0  0  0  0
   -4.9232   17.9314  -32.2706 H   0  0  0  0  0  0  0  0  0  0  0  0
   -7.1564   16.8801  -31.9170 H   0  0  0  0  0  0  0  0  0  0  0  0
   -6.7881   21.8413  -32.3762 H   0  0  0  0  0  0  0  0  0  0  0  0
   -5.8695   23.3357  -33.0739 H   0  0  0  0  0  0  0  0  0  0  0  0
   -7.2093   25.0367  -31.8440 H   0  0  0  0  0  0  0  0  0  0  0  0
   -6.8274   25.4084  -29.4089 H   0  0  0  0  0  0  0  0  0  0  0  0
   -5.1002   24.0864  -28.1968 H   0  0  0  0  0  0  0  0  0  0  0  0
   -3.4912   22.7849  -27.3169 H   0  0  0  0  0  0  0  0  0  0  0  0
   -4.4788   21.3249  -27.6628 H   0  0  0  0  0  0  0  0  0  0  0  0
   -2.6857   21.2171  -27.6628 H   0  0  0  0  0  0  0  0  0  0  0  0
  1  2  1  0
  2  3  1  0
  3  4  1  0
  4  5  1  0
  3  6  1  0
  6  7  1  0
  7  8  1  0
  8  9  1  0
  9 10  1  0
 10 11  2  0
 11 12  1  0
 12 13  1  0
 13 14  2  0
 14 15  1  0
 15 16  2  0
 16 17  1  0
 16 18  1  0
 18 19  1  0
 18 20  2  0
 12 21  1  0
 21 22  1  0
 22 23  2  0
 23 24  1  0
 24 25  2  0
 25 26  1  0
 26 27  2  0
 27 28  1  0
 28 29  1  0
 21 30  2  0
 30 10  1  0
 20 13  1  0
 27 22  1  0
  1 31  1  0
  1 32  1  0
  1 33  1  0
  2 34  1  0
  2 35  1  0
  4 36  1  0
  4 37  1  0
  5 38  1  0
  5 39  1  0
  5 40  1  0
  6 41  1  0
  6 42  1  0
  7 43  1  0
  7 44  1  0
  8 45  1  0
  9 46  1  0
  9 47  1  0
 11 48  1  0
 14 49  1  0
 15 50  1  0
 20 51  1  0
 23 52  1  0
 24 53  1  0
 25 54  1  0
 26 55  1  0
 29 56  1  0
 29 57  1  0
 29 58  1  0
M  END
>  <UniqueID>  (9) 
9

>  <SMILES>  (9) 
CCN(CC)CCNCc1cn(-c2ccc(F)c(Cl)c2)c(-c2ccccc2OC)n1

>  <Energy>  (9) 
94.73593516898711

>  <Genealogy>  (9) 
CCN(CC)CCNCc1cn(-c2ccc(F)c(Cl)c2)c(-c2ccccc2OC)n1 (3D coordinates assigned)
CCN(CC)CCNCc1cn(-c2ccc(F)c(Cl)c2)c(-c2ccccc2OC)n1 (optimized conformer: 94.73593516898711 kcal/mol)

>  <smiles>  (9) 
CCN(CC)CCNCc1cn(-c2ccc(F)c(Cl)c2)c(-c2ccccc2OC)n1

>  <score_type>  (9) 
oracle

>  <origin>  (9) 
adg

>  <m_score__min__energy>  (9) 
-8.2599999999999998

>  <m_primary>  (9) 
energy

$$$$
9:0
     RDKit          3D

 46 47  0  0  0  0  0  0  0  0999 V2000
   -1.0040   19.7810  -27.4020 C   0  0  0  0  0  0  0  0  0  0  0  0
   -2.1470   20.6940  -27.4730 C   0  0  0  0  0  0  0  0  0  0  0  0
   -3.0880   21.4490  -27.5310 C   0  0  0  0  0  0  0  0  0  0  0  0
   -4.2380   22.3590  -27.6030 C   0  0  0  0  0  0  0  0  0  0  0  0
   -3.8210   23.6680  -28.1270 N   0  0  0  0  0  0  0  0  0  0  0  0
   -4.7750   24.5360  -28.8320 C   0  0  0  0  0  0  0  0  0  0  0  0
   -4.8470   24.1910  -30.2890 C   0  0  0  0  0  0  0  0  0  0  0  0
   -4.6190   25.0830  -31.1500 O   0  0  0  0  0  0  0  0  0  0  0  0
   -5.2070   22.8660  -30.6990 N   0  0  0  0  0  0  0  0  0  0  0  0
   -5.5190   22.5460  -32.0960 C   0  0  1  0  0  0  0  0  0  0  0  0
   -4.3620   21.7830  -32.7450 C   0  0  0  0  0  0  0  0  0  0  0  0
   -6.7950   21.7340  -32.1690 C   0  0  0  0  0  0  0  0  0  0  0  0
   -8.0190   22.2900  -31.7530 C   0  0  0  0  0  0  0  0  0  0  0  0
   -9.1990   21.5490  -31.8440 C   0  0  0  0  0  0  0  0  0  0  0  0
   -9.1690   20.2450  -32.3420 C   0  0  0  0  0  0  0  0  0  0  0  0
   -7.9570   19.6800  -32.7490 C   0  0  0  0  0  0  0  0  0  0  0  0
   -6.7750   20.4190  -32.6630 C   0  0  0  0  0  0  0  0  0  0  0  0
   -2.6420   24.2670  -27.5690 C   0  0  0  0  0  0  0  0  0  0  0  0
   -2.7320   24.9990  -26.3760 C   0  0  0  0  0  0  0  0  0  0  0  0
   -1.5880   25.5710  -25.8140 C   0  0  0  0  0  0  0  0  0  0  0  0
   -0.3440   25.3960  -26.4220 C   0  0  0  0  0  0  0  0  0  0  0  0
   -0.2420   24.6650  -27.6100 C   0  0  0  0  0  0  0  0  0  0  0  0
    0.9710   24.5120  -28.1930 F   0  0  0  0  0  0  0  0  0  0  0  0
   -1.3910   24.1060  -28.1940 C   0  0  0  0  0  0  0  0  0  0  0  0
   -1.2800   23.4070  -29.4540 C   0  0  0  0  0  0  0  0  0  0  0  0
   -1.1980   22.8440  -30.4640 N   0  0  0  0  0  0  0  0  0  0  0  0
   -0.7571   19.5838  -26.3484 H   0  0  0  0  0  0  0  0  0  0  0  0
   -1.2587   18.8350  -27.9022 H   0  0  0  0  0  0  0  0  0  0  0  0
   -0.1377   20.2385  -27.9022 H   0  0  0  0  0  0  0  0  0  0  0  0
   -5.0006   21.9280  -28.2683 H   0  0  0  0  0  0  0  0  0  0  0  0
   -4.6517   22.4934  -26.5927 H   0  0  0  0  0  0  0  0  0  0  0  0
   -5.7720   24.4117  -28.3841 H   0  0  0  0  0  0  0  0  0  0  0  0
   -4.4344   25.5776  -28.7370 H   0  0  0  0  0  0  0  0  0  0  0  0
   -5.2920   22.1240  -29.9660 H   0  0  0  0  0  0  0  0  0  0  0  0
   -5.6641   23.4860  -32.6487 H   0  0  0  0  0  0  0  0  0  0  0  0
   -3.7176   21.3581  -31.9613 H   0  0  0  0  0  0  0  0  0  0  0  0
   -4.7628   20.9715  -33.3701 H   0  0  0  0  0  0  0  0  0  0  0  0
   -3.7739   22.4710  -33.3701 H   0  0  0  0  0  0  0  0  0  0  0  0
   -8.0463   23.3146  -31.3537 H   0  0  0  0  0  0  0  0  0  0  0  0
  -10.1529   21.9930  -31.5231 H   0  0  0  0  0  0  0  0  0  0  0  0
  -10.0992   19.6622  -32.4141 H   0  0  0  0  0  0  0  0  0  0  0  0
   -7.9341   18.6513  -33.1378 H   0  0  0  0  0  0  0  0  0  0  0  0
   -5.8237   19.9692  -32.9836 H   0  0  0  0  0  0  0  0  0  0  0  0
   -3.7066   25.1231  -25.8812 H   0  0  0  0  0  0  0  0  0  0  0  0
   -1.6680   26.1613  -24.8892 H   0  0  0  0  0  0  0  0  0  0  0  0
    0.5568   25.8333  -25.9666 H   0  0  0  0  0  0  0  0  0  0  0  0
  1  2  1  0
  2  3  3  0
  3  4  1  0
  4  5  1  0
  5  6  1  0
  6  7  1  0
  7  8  2  0
  7  9  1  0
  9 10  1  0
 10 11  1  0
 10 12  1  0
 12 13  2  0
 13 14  1  0
 14 15  2  0
 15 16  1  0
 16 17  2  0
  5 18  1  0
 18 19  2  0
 19 20  1  0
 20 21  2  0
 21 22  1  0
 22 23  1  0
 22 24  2  0
 24 25  1  0
 25 26  3  0
 17 12  1  0
 24 18  1  0
  1 27  1  0
  1 28  1  0
  1 29  1  0
  4 30  1  0
  4 31  1  0
  6 32  1  0
  6 33  1  0
  9 34  1  0
 10 35  1  6
 11 36  1  0
 11 37  1  0
 11 38  1  0
 13 39  1  0
 14 40  1  0
 15 41  1  0
 16 42  1  0
 17 43  1  0
 19 44  1  0
 20 45  1  0
 21 46  1  0
M  END
>  <UniqueID>  (10) 
10

>  <SMILES>  (10) 
CC#CCN(CC(=O)N[C@@H](C)c1ccccc1)c1cccc(F)c1C#N

>  <Energy>  (10) 
38.8340463650573

>  <Genealogy>  (10) 
CC#CCN(CC(=O)N[C@@H](C)c1ccccc1)c1cccc(F)c1C#N (chirality)
CC#CCN(CC(=O)N[C@@H](C)c1ccccc1)c1cccc(F)c1C#N (3D coordinates assigned)
CC#CCN(CC(=O)N[C@@H](C)c1ccccc1)c1cccc(F)c1C#N (optimized conformer: 38.8340463650573 kcal/mol)

>  <smiles>  (10) 
CC#CCN(CC(=O)NC(C)c1ccccc1)c1cccc(F)c1C#N

>  <score_type>  (10) 
oracle

>  <origin>  (10) 
adg

>  <m_score__min__energy>  (10) 
-7.8499999999999996

>  <m_primary>  (10) 
energy

$$$$
10:0
     RDKit          3D

 49 50  0  0  0  0  0  0  0  0999 V2000
   -1.2470   22.7650  -26.6610 C   0  0  0  0  0  0  0  0  0  0  0  0
   -2.1100   23.8660  -26.9240 O   0  0  0  0  0  0  0  0  0  0  0  0
   -3.0700   23.8990  -27.9480 C   0  0  0  0  0  0  0  0  0  0  0  0
   -4.1970   23.0580  -27.9420 C   0  0  0  0  0  0  0  0  0  0  0  0
   -5.1280   23.1120  -28.9820 C   0  0  0  0  0  0  0  0  0  0  0  0
   -4.9530   24.0080  -30.0420 C   0  0  0  0  0  0  0  0  0  0  0  0
   -5.9120   24.0990  -31.1100 N   0  0  0  0  0  0  0  0  0  0  0  0
   -6.3250   22.9620  -31.9500 C   0  0  0  0  0  0  0  0  0  0  0  0
   -5.4240   21.7310  -31.7060 C   0  0  0  0  0  0  0  0  0  0  0  0
   -6.0200   20.4700  -32.3410 C   0  0  0  0  0  0  0  0  0  0  0  0
   -7.3980   20.2330  -31.8800 N   0  0  0  0  0  0  0  0  0  0  0  0
   -7.9990   18.9250  -31.9990 C   0  0  0  0  0  0  0  0  0  0  0  0
   -8.9160   18.5850  -31.2030 O   0  0  0  0  0  0  0  0  0  0  0  0
   -7.5970   17.9550  -33.0800 C   0  0  0  0  0  0  0  0  0  0  0  0
   -6.4600   17.0410  -32.6170 C   0  0  0  0  0  0  0  0  0  0  0  0
   -4.9290   17.3620  -33.5730 S   0  0  0  0  0  0  0  0  0  0  0  0
   -5.7380   18.2340  -34.9500 C   0  0  0  0  0  0  0  0  0  0  0  0
   -8.1160   21.2980  -31.1580 C   0  0  0  0  0  0  0  0  0  0  0  0
   -7.8370   22.6570  -31.8120 C   0  0  0  0  0  0  0  0  0  0  0  0
   -3.8420   24.8630  -30.0440 C   0  0  0  0  0  0  0  0  0  0  0  0
   -2.8900   24.8070  -29.0040 C   0  0  0  0  0  0  0  0  0  0  0  0
   -1.7560   25.6350  -28.9840 O   0  0  0  0  0  0  0  0  0  0  0  0
   -1.2260   26.2450  -27.8140 C   0  0  0  0  0  0  0  0  0  0  0  0
   -1.1429   22.6322  -25.5740 H   0  0  0  0  0  0  0  0  0  0  0  0
   -1.6725   21.8519  -27.1029 H   0  0  0  0  0  0  0  0  0  0  0  0
   -0.2587   22.9601  -27.1029 H   0  0  0  0  0  0  0  0  0  0  0  0
   -4.3466   22.3520  -27.1118 H   0  0  0  0  0  0  0  0  0  0  0  0
   -6.0036   22.4463  -28.9674 H   0  0  0  0  0  0  0  0  0  0  0  0
   -6.1070   25.0540  -31.4890 H   0  0  0  0  0  0  0  0  0  0  0  0
   -6.1799   23.2475  -33.0024 H   0  0  0  0  0  0  0  0  0  0  0  0
   -4.4333   21.9194  -32.1453 H   0  0  0  0  0  0  0  0  0  0  0  0
   -5.3442   21.5688  -30.6210 H   0  0  0  0  0  0  0  0  0  0  0  0
   -6.0244   20.5885  -33.4346 H   0  0  0  0  0  0  0  0  0  0  0  0
   -5.4036   19.6092  -32.0427 H   0  0  0  0  0  0  0  0  0  0  0  0
   -8.4667   17.3367  -33.3473 H   0  0  0  0  0  0  0  0  0  0  0  0
   -7.2454   18.5314  -33.9484 H   0  0  0  0  0  0  0  0  0  0  0  0
   -6.2631   17.2238  -31.5503 H   0  0  0  0  0  0  0  0  0  0  0  0
   -6.7621   15.9958  -32.7793 H   0  0  0  0  0  0  0  0  0  0  0  0
   -6.4348   18.9851  -34.5495 H   0  0  0  0  0  0  0  0  0  0  0  0
   -4.9757   18.7329  -35.5665 H   0  0  0  0  0  0  0  0  0  0  0  0
   -6.2926   17.5112  -35.5665 H   0  0  0  0  0  0  0  0  0  0  0  0
   -9.1965   21.0941  -31.1889 H   0  0  0  0  0  0  0  0  0  0  0  0
   -7.7700   21.3224  -30.1141 H   0  0  0  0  0  0  0  0  0  0  0  0
   -8.2889   22.6630  -32.8149 H   0  0  0  0  0  0  0  0  0  0  0  0
   -8.2712   23.4308  -31.1619 H   0  0  0  0  0  0  0  0  0  0  0  0
   -3.7112   25.5844  -30.8641 H   0  0  0  0  0  0  0  0  0  0  0  0
   -1.6490   25.7581  -26.9229 H   0  0  0  0  0  0  0  0  0  0  0  0
   -0.1315   26.1353  -27.8070 H   0  0  0  0  0  0  0  0  0  0  0  0
   -1.4875   27.3134  -27.8070 H   0  0  0  0  0  0  0  0  0  0  0  0
  1  2  1  0
  2  3  1  0
  3  4  2  0
  4  5  1  0
  5  6  2  0
  6  7  1  0
  7  8  1  0
  8  9  1  0
  9 10  1  0
 10 11  1  0
 11 12  1  0
 12 13  2  0
 12 14  1  0
 14 15  1  0
 15 16  1  0
 16 17  1  0
 11 18  1  0
 18 19  1  0
  6 20  1  0
 20 21  2  0
 21 22  1  0
 22 23  1  0
 21  3  1  0
 19  8  1  0
  1 24  1  0
  1 25  1  0
  1 26  1  0
  4 27  1  0
  5 28  1  0
  7 29  1  0
  8 30  1  0
  9 31  1  0
  9 32  1  0
 10 33  1  0
 10 34  1  0
 14 35  1  0
 14 36  1  0
 15 37  1  0
 15 38  1  0
 17 39  1  0
 17 40  1  0
 17 41  1  0
 18 42  1  0
 18 43  1  0
 19 44  1  0
 19 45  1  0
 20 46  1  0
 23 47  1  0
 23 48  1  0
 23 49  1  0
M  END
>  <UniqueID>  (11) 
11

>  <SMILES>  (11) 
COc1ccc(NC2CCN(C(=O)CCSC)CC2)cc1OC

>  <Energy>  (11) 
48.7239620393296

>  <Genealogy>  (11) 
COc1ccc(NC2CCN(C(=O)CCSC)CC2)cc1OC (3D coordinates assigned)
COc1ccc(NC2CCN(C(=O)CCSC)CC2)cc1OC (nonaromatic ring conformer: 48.7239620393296 kcal/mol)

>  <smiles>  (11) 
COc1ccc(NC2CCN(C(=O)CCSC)CC2)cc1OC

>  <score_type>  (11) 
oracle

>  <origin>  (11) 
adg

>  <m_score__min__energy>  (11) 
-7.2699999999999996

>  <m_primary>  (11) 
energy

$$$$
11:0
     RDKit          3D

 54 57  0  0  0  0  0  0  0  0999 V2000
   -3.3290   21.3470  -29.8510 C   0  0  0  0  0  0  0  0  0  0  0  0
   -3.3800   22.8710  -30.0310 C   0  0  0  0  0  0  0  0  0  0  0  0
   -4.5990   23.4710  -29.4230 N   0  0  0  0  0  0  0  0  0  0  0  0
   -4.2800   24.1740  -28.1510 C   0  0  0  0  0  0  0  0  0  0  0  0
   -2.9370   23.7800  -27.5190 C   0  0  0  0  0  0  0  0  0  0  0  0
   -5.3180   24.3250  -30.4070 C   0  0  0  0  0  0  0  0  0  0  0  0
   -6.5070   23.6200  -31.0940 C   0  0  0  0  0  0  0  0  0  0  0  0
   -6.1390   23.0310  -32.3870 N   0  0  0  0  0  0  0  0  0  0  0  0
   -5.9910   21.6130  -32.5880 C   0  0  0  0  0  0  0  0  0  0  0  0
   -7.0930   20.7270  -32.4950 C   0  0  0  0  0  0  0  0  0  0  0  0
   -8.4080   21.2140  -32.3440 C   0  0  0  0  0  0  0  0  0  0  0  0
   -9.4880   20.3390  -32.2610 C   0  0  0  0  0  0  0  0  0  0  0  0
   -9.2850   18.9660  -32.3430 C   0  0  0  0  0  0  0  0  0  0  0  0
   -7.9970   18.4510  -32.4910 C   0  0  0  0  0  0  0  0  0  0  0  0
   -6.8710   19.3070  -32.5420 C   0  0  0  0  0  0  0  0  0  0  0  0
   -5.5830   18.8040  -32.6540 N   0  0  0  0  0  0  0  0  0  0  0  0
   -5.2860   17.3800  -32.4250 C   0  0  0  0  0  0  0  0  0  0  0  0
   -4.5700   19.6850  -32.9230 C   0  0  0  0  0  0  0  0  0  0  0  0
   -4.7450   21.0530  -32.8670 C   0  0  0  0  0  0  0  0  0  0  0  0
   -3.6080   21.7090  -33.1920 N   0  0  0  0  0  0  0  0  0  0  0  0
   -2.7060   20.7450  -33.4610 C   0  0  0  0  0  0  0  0  0  0  0  0
   -1.4010   20.9390  -33.9070 C   0  0  0  0  0  0  0  0  0  0  0  0
   -0.6340   19.8070  -34.2270 C   0  0  0  0  0  0  0  0  0  0  0  0
   -1.1910   18.5150  -34.1240 C   0  0  0  0  0  0  0  0  0  0  0  0
   -0.2340   17.1170  -34.5770 Cl  0  0  0  0  0  0  0  0  0  0  0  0
   -2.5180   18.3420  -33.6860 C   0  0  0  0  0  0  0  0  0  0  0  0
   -3.2500   19.4810  -33.3220 C   0  0  0  0  0  0  0  0  0  0  0  0
   -3.3209   21.1046  -28.7781 H   0  0  0  0  0  0  0  0  0  0  0  0
   -4.2124   20.8923  -30.3230 H   0  0  0  0  0  0  0  0  0  0  0  0
   -2.4171   20.9523  -30.3230 H   0  0  0  0  0  0  0  0  0  0  0  0
   -2.4927   23.3134  -29.5546 H   0  0  0  0  0  0  0  0  0  0  0  0
   -3.4036   23.0818  -31.1103 H   0  0  0  0  0  0  0  0  0  0  0  0
   -5.2320   22.6860  -29.1520 H   0  0  0  0  0  0  0  0  0  0  0  0
   -4.2595   25.2551  -28.3529 H   0  0  0  0  0  0  0  0  0  0  0  0
   -5.0592   23.8826  -27.4313 H   0  0  0  0  0  0  0  0  0  0  0  0
   -3.0259   23.8061  -26.4229 H   0  0  0  0  0  0  0  0  0  0  0  0
   -2.6644   22.7640  -27.8407 H   0  0  0  0  0  0  0  0  0  0  0  0
   -2.1587   24.4877  -27.8407 H   0  0  0  0  0  0  0  0  0  0  0  0
   -5.6983   25.2137  -29.8820 H   0  0  0  0  0  0  0  0  0  0  0  0
   -4.5965   24.5789  -31.1976 H   0  0  0  0  0  0  0  0  0  0  0  0
   -6.8729   22.8203  -30.4332 H   0  0  0  0  0  0  0  0  0  0  0  0
   -7.2831   24.3771  -31.2798 H   0  0  0  0  0  0  0  0  0  0  0  0
   -6.1100   23.6650  -33.2170 H   0  0  0  0  0  0  0  0  0  0  0  0
   -8.5826   22.2988  -32.2911 H   0  0  0  0  0  0  0  0  0  0  0  0
  -10.5056   20.7356  -32.1301 H   0  0  0  0  0  0  0  0  0  0  0  0
  -10.1449   18.2820  -32.2909 H   0  0  0  0  0  0  0  0  0  0  0  0
   -7.8543   17.3631  -32.5693 H   0  0  0  0  0  0  0  0  0  0  0  0
   -5.2450   17.1833  -31.3435 H   0  0  0  0  0  0  0  0  0  0  0  0
   -6.0748   16.7631  -32.8802 H   0  0  0  0  0  0  0  0  0  0  0  0
   -4.3164   17.1299  -32.8802 H   0  0  0  0  0  0  0  0  0  0  0  0
   -3.4690   22.7340  -33.3150 H   0  0  0  0  0  0  0  0  0  0  0  0
   -0.9824   21.9514  -34.0059 H   0  0  0  0  0  0  0  0  0  0  0  0
    0.4073   19.9285  -34.5600 H   0  0  0  0  0  0  0  0  0  0  0  0
   -2.9683   17.3399  -33.6309 H   0  0  0  0  0  0  0  0  0  0  0  0
  1  2  1  0
  2  3  1  0
  3  4  1  0
  4  5  1  0
  3  6  1  0
  6  7  1  0
  7  8  1  0
  8  9  1  0
  9 10  2  0
 10 11  1  0
 11 12  2  0
 12 13  1  0
 13 14  2  0
 14 15  1  0
 15 16  2  0
 16 17  1  0
 16 18  1  0
 18 19  2  0
 19 20  1  0
 20 21  1  0
 21 22  2  0
 22 23  1  0
 23 24  2  0
 24 25  1  0
 24 26  1  0
 26 27  2  0
 19  9  1  0
 27 21  1  0
 15 10  1  0
 27 18  1  0
  1 28  1  0
  1 29  1  0
  1 30  1  0
  2 31  1  0
  2 32  1  0
  3 33  1  0
  4 34  1  0
  4 35  1  0
  5 36  1  0
  5 37  1  0
  5 38  1  0
  6 39  1  0
  6 40  1  0
  7 41  1  0
  7 42  1  0
  8 43  1  0
 11 44  1  0
 12 45  1  0
 13 46  1  0
 14 47  1  0
 17 48  1  0
 17 49  1  0
 17 50  1  0
 20 51  1  0
 22 52  1  0
 23 53  1  0
 26 54  1  0
M  CHG  2   3   1  16   1
M  END
>  <UniqueID>  (12) 
12

>  <SMILES>  (12) 
CC[NH+](CC)CCNc1c2ccccc2[n+](C)c2c1[nH]c1ccc(Cl)cc12

>  <Energy>  (12) 
118.7319338116549

>  <Genealogy>  (12) 
CC[NH+](CC)CCNc1c2ccccc2[n+](C)c2c1[nH]c1ccc(Cl)cc12 (protonated)
CC[NH+](CC)CCNc1c2ccccc2[n+](C)c2c1[nH]c1ccc(Cl)cc12 (3D coordinates assigned)
CC[NH+](CC)CCNc1c2ccccc2[n+](C)c2c1[nH]c1ccc(Cl)cc12 (optimized conformer: 118.7319338116549 kcal/mol)

>  <smiles>  (12) 
CCN(CC)CCNc1c2ccccc2[n+](C)c2c1[nH]c1ccc(Cl)cc12

>  <score_type>  (12) 
oracle

>  <origin>  (12) 
adg

>  <m_score__min__energy>  (12) 
-7.6500000000000004

>  <m_primary>  (12) 
energy

$$$$
12:0
     RDKit          3D

 47 49  0  0  0  0  0  0  0  0999 V2000
   -8.5910   18.2010  -31.6630 C   0  0  0  0  0  0  0  0  0  0  0  0
   -8.1590   19.6080  -31.5610 N   0  0  0  0  0  0  0  0  0  0  0  0
   -8.8390   20.4230  -32.5900 C   0  0  0  0  0  0  0  0  0  0  0  0
   -9.4130   21.7020  -31.9590 C   0  0  0  0  0  0  0  0  0  0  0  0
   -8.4580   22.3100  -31.0180 N   0  0  0  0  0  0  0  0  0  0  0  0
   -7.8980   23.5840  -31.5040 C   0  0  0  0  0  0  0  0  0  0  0  0
   -6.4490   23.7440  -31.1400 C   0  0  0  0  0  0  0  0  0  0  0  0
   -5.7190   24.9100  -31.2140 C   0  0  0  0  0  0  0  0  0  0  0  0
   -4.4970   24.6320  -30.8320 O   0  0  0  0  0  0  0  0  0  0  0  0
   -4.4660   23.3490  -30.5390 C   0  0  0  0  0  0  0  0  0  0  0  0
   -3.2600   22.6560  -30.0760 C   0  0  0  0  0  0  0  0  0  0  0  0
   -3.1280   21.2860  -29.8830 C   0  0  0  0  0  0  0  0  0  0  0  0
   -1.8500   20.9130  -29.4460 C   0  0  0  0  0  0  0  0  0  0  0  0
   -0.9790   21.9850  -29.2940 C   0  0  0  0  0  0  0  0  0  0  0  0
   -1.7980   23.3960  -29.7040 S   0  0  0  0  0  0  0  0  0  0  0  0
   -5.6590   22.7400  -30.7160 N   0  0  0  0  0  0  0  0  0  0  0  0
   -6.6850   19.7090  -31.6790 C   0  0  0  0  0  0  0  0  0  0  0  0
   -6.2510   19.4300  -33.1240 C   0  0  0  0  0  0  0  0  0  0  0  0
   -4.8250   19.8610  -33.3410 C   0  0  0  0  0  0  0  0  0  0  0  0
   -4.4480   21.1960  -33.1130 C   0  0  0  0  0  0  0  0  0  0  0  0
   -3.1130   21.5870  -33.2670 C   0  0  0  0  0  0  0  0  0  0  0  0
   -2.1470   20.6490  -33.6420 C   0  0  0  0  0  0  0  0  0  0  0  0
   -2.5120   19.3190  -33.8630 C   0  0  0  0  0  0  0  0  0  0  0  0
   -3.8450   18.9220  -33.7090 C   0  0  0  0  0  0  0  0  0  0  0  0
   -8.7194   17.7828  -30.6537 H   0  0  0  0  0  0  0  0  0  0  0  0
   -9.5464   18.1492  -32.2057 H   0  0  0  0  0  0  0  0  0  0  0  0
   -7.8293   17.6220  -32.2057 H   0  0  0  0  0  0  0  0  0  0  0  0
   -8.1165   20.6966  -33.3730 H   0  0  0  0  0  0  0  0  0  0  0  0
   -9.6614   19.8374  -33.0266 H   0  0  0  0  0  0  0  0  0  0  0  0
   -9.6391   22.4247  -32.7568 H   0  0  0  0  0  0  0  0  0  0  0  0
  -10.3250   21.4361  -31.4044 H   0  0  0  0  0  0  0  0  0  0  0  0
   -7.6700   21.6350  -30.8710 H   0  0  0  0  0  0  0  0  0  0  0  0
   -7.9937   23.6179  -32.5993 H   0  0  0  0  0  0  0  0  0  0  0  0
   -8.4578   24.4021  -31.0271 H   0  0  0  0  0  0  0  0  0  0  0  0
   -6.0932   25.8934  -31.5348 H   0  0  0  0  0  0  0  0  0  0  0  0
   -3.9433   20.5680  -30.0556 H   0  0  0  0  0  0  0  0  0  0  0  0
   -1.5634   19.8706  -29.2426 H   0  0  0  0  0  0  0  0  0  0  0  0
    0.0678   21.9217  -28.9621 H   0  0  0  0  0  0  0  0  0  0  0  0
   -6.3657   20.7219  -31.3924 H   0  0  0  0  0  0  0  0  0  0  0  0
   -6.2191   18.9672  -31.0137 H   0  0  0  0  0  0  0  0  0  0  0  0
   -6.3377   18.3522  -33.3259 H   0  0  0  0  0  0  0  0  0  0  0  0
   -6.9010   19.9981  -33.8057 H   0  0  0  0  0  0  0  0  0  0  0  0
   -5.2047   21.9357  -32.8126 H   0  0  0  0  0  0  0  0  0  0  0  0
   -2.8236   22.6338  -33.0927 H   0  0  0  0  0  0  0  0  0  0  0  0
   -1.0984   20.9585  -33.7632 H   0  0  0  0  0  0  0  0  0  0  0  0
   -1.7504   18.5824  -34.1586 H   0  0  0  0  0  0  0  0  0  0  0  0
   -4.1272   17.8721  -33.8763 H   0  0  0  0  0  0  0  0  0  0  0  0
  1  2  1  0
  2  3  1  0
  3  4  1  0
  4  5  1  0
  5  6  1  0
  6  7  1  0
  7  8  2  0
  8  9  1  0
  9 10  1  0
 10 11  1  0
 11 12  2  0
 12 13  1  0
 13 14  2  0
 14 15  1  0
 10 16  2  0
  2 17  1  0
 17 18  1  0
 18 19  1  0
 19 20  2  0
 20 21  1  0
 21 22  2  0
 22 23  1  0
 23 24  2  0
 16  7  1  0
 24 19  1  0
 15 11  1  0
  1 25  1  0
  1 26  1  0
  1 27  1  0
  3 28  1  0
  3 29  1  0
  4 30  1  0
  4 31  1  0
  5 32  1  0
  6 33  1  0
  6 34  1  0
  8 35  1  0
 12 36  1  0
 13 37  1  0
 14 38  1  0
 17 39  1  0
 17 40  1  0
 18 41  1  0
 18 42  1  0
 20 43  1  0
 21 44  1  0
 22 45  1  0
 23 46  1  0
 24 47  1  0
M  END
>  <UniqueID>  (13) 
13

>  <SMILES>  (13) 
CN(CCNCc1coc(-c2cccs2)n1)CCc1ccccc1

>  <Energy>  (13) 
101.22022342131976

>  <Genealogy>  (13) 
CN(CCNCc1coc(-c2cccs2)n1)CCc1ccccc1 (3D coordinates assigned)
CN(CCNCc1coc(-c2cccs2)n1)CCc1ccccc1 (optimized conformer: 101.22022342131976 kcal/mol)

>  <smiles>  (13) 
CN(CCNCc1coc(-c2cccs2)n1)CCc1ccccc1

>  <score_type>  (13) 
oracle

>  <origin>  (13) 
adg

>  <m_score__min__energy>  (13) 
-7.8700000000000001

>  <m_primary>  (13) 
energy

$$$$
13:0
     RDKit          3D

 38 39  0  0  0  0  0  0  0  0999 V2000
   -5.5660   17.7200  -34.7590 C   0  0  0  0  0  0  0  0  0  0  0  0
   -4.8360   18.5900  -34.3530 C   0  0  0  0  0  0  0  0  0  0  0  0
   -3.9450   19.6470  -33.8430 C   0  0  0  0  0  0  0  0  0  0  0  0
   -4.6290   20.6710  -33.0080 N   0  0  2  0  0  0  0  0  0  0  0  0
   -3.8180   21.8980  -32.7750 C   0  0  0  0  0  0  0  0  0  0  0  0
   -3.6480   22.3510  -31.3050 C   0  0  0  0  0  0  0  0  0  0  0  0
   -4.6620   23.3680  -30.8570 C   0  0  0  0  0  0  0  0  0  0  0  0
   -5.9410   22.9740  -30.4340 C   0  0  0  0  0  0  0  0  0  0  0  0
   -6.8560   23.9470  -30.0270 C   0  0  0  0  0  0  0  0  0  0  0  0
   -6.4980   25.2950  -30.0540 C   0  0  0  0  0  0  0  0  0  0  0  0
   -5.2230   25.6530  -30.4980 C   0  0  0  0  0  0  0  0  0  0  0  0
   -4.3440   24.6920  -30.8900 N   0  0  0  0  0  0  0  0  0  0  0  0
   -5.2650   20.1410  -31.7730 C   0  0  0  0  0  0  0  0  0  0  0  0
   -6.7270   19.8210  -31.9860 C   0  0  0  0  0  0  0  0  0  0  0  0
   -7.1920   18.5050  -31.8220 C   0  0  0  0  0  0  0  0  0  0  0  0
   -8.5470   18.2090  -31.9970 C   0  0  0  0  0  0  0  0  0  0  0  0
   -9.4480   19.2230  -32.3330 C   0  0  0  0  0  0  0  0  0  0  0  0
   -8.9940   20.5360  -32.4940 C   0  0  0  0  0  0  0  0  0  0  0  0
   -7.6400   20.8360  -32.3210 C   0  0  0  0  0  0  0  0  0  0  0  0
   -6.2318   16.9265  -35.1293 H   0  0  0  0  0  0  0  0  0  0  0  0
   -3.1609   19.1732  -33.2342 H   0  0  0  0  0  0  0  0  0  0  0  0
   -3.5431   20.1727  -34.7217 H   0  0  0  0  0  0  0  0  0  0  0  0
   -5.4190   21.0160  -33.6050 H   0  0  0  0  0  0  0  0  0  0  0  0
   -2.8139   21.7167  -33.1860 H   0  0  0  0  0  0  0  0  0  0  0  0
   -4.3756   22.7099  -33.2647 H   0  0  0  0  0  0  0  0  0  0  0  0
   -3.7366   21.4659  -30.6579 H   0  0  0  0  0  0  0  0  0  0  0  0
   -2.6614   22.8319  -31.2322 H   0  0  0  0  0  0  0  0  0  0  0  0
   -6.2196   21.9099  -30.4232 H   0  0  0  0  0  0  0  0  0  0  0  0
   -7.8587   23.6507  -29.6852 H   0  0  0  0  0  0  0  0  0  0  0  0
   -7.2114   26.0669  -29.7295 H   0  0  0  0  0  0  0  0  0  0  0  0
   -4.9297   26.7127  -30.5306 H   0  0  0  0  0  0  0  0  0  0  0  0
   -4.7406   19.2233  -31.4684 H   0  0  0  0  0  0  0  0  0  0  0  0
   -5.1948   20.9144  -30.9939 H   0  0  0  0  0  0  0  0  0  0  0  0
   -6.4867   17.7043  -31.5548 H   0  0  0  0  0  0  0  0  0  0  0  0
   -8.9045   17.1765  -31.8700 H   0  0  0  0  0  0  0  0  0  0  0  0
  -10.5139   18.9886  -32.4708 H   0  0  0  0  0  0  0  0  0  0  0  0
   -9.7039   21.3340  -32.7573 H   0  0  0  0  0  0  0  0  0  0  0  0
   -7.2874   21.8703  -32.4475 H   0  0  0  0  0  0  0  0  0  0  0  0
  1  2  3  0
  2  3  1  0
  3  4  1  0
  4  5  1  0
  5  6  1  0
  6  7  1  0
  7  8  2  0
  8  9  1  0
  9 10  2  0
 10 11  1  0
 11 12  2  0
  4 13  1  0
 13 14  1  0
 14 15  2  0
 15 16  1  0
 16 17  2  0
 17 18  1  0
 18 19  2  0
 12  7  1  0
 19 14  1  0
  1 20  1  0
  3 21  1  0
  3 22  1  0
  4 23  1  6
  5 24  1  0
  5 25  1  0
  6 26  1  0
  6 27  1  0
  8 28  1  0
  9 29  1  0
 10 30  1  0
 11 31  1  0
 13 32  1  0
 13 33  1  0
 15 34  1  0
 16 35  1  0
 17 36  1  0
 18 37  1  0
 19 38  1  0
M  CHG  1   4   1
M  END
>  <UniqueID>  (14) 
14

>  <SMILES>  (14) 
C#CC[N@H+](CCc1ccccn1)Cc1ccccc1

>  <Energy>  (14) 
45.16807211539094

>  <Genealogy>  (14) 
C#CC[NH+](CCc1ccccn1)Cc1ccccc1 (protonated)
C#CC[N@H+](CCc1ccccn1)Cc1ccccc1 (chirality)
C#CC[N@H+](CCc1ccccn1)Cc1ccccc1 (3D coordinates assigned)
C#CC[N@H+](CCc1ccccn1)Cc1ccccc1 (optimized conformer: 45.16807211539094 kcal/mol)

>  <smiles>  (14) 
C#CCN(CCc1ccccn1)Cc1ccccc1

>  <score_type>  (14) 
oracle

>  <origin>  (14) 
adg

>  <m_score__min__energy>  (14) 
-6.6100000000000003

>  <m_primary>  (14) 
energy

$$$$
14:0
     RDKit          3D

 62 66  0  0  0  0  0  0  0  0999 V2000
    1.7320   20.3090  -33.8040 C   0  0  0  0  0  0  0  0  0  0  0  0
    0.2550   20.0700  -33.7030 C   0  0  0  0  0  0  0  0  0  0  0  0
   -0.2320   18.8290  -33.2620 C   0  0  0  0  0  0  0  0  0  0  0  0
   -1.6070   18.6240  -33.1190 C   0  0  0  0  0  0  0  0  0  0  0  0
   -2.5150   19.6540  -33.4150 C   0  0  0  0  0  0  0  0  0  0  0  0
   -3.9290   19.4640  -33.2350 N   0  0  0  0  0  0  0  0  0  0  0  0
   -4.7180   20.3840  -32.6900 N   0  0  0  0  0  0  0  0  0  0  0  0
   -5.9610   19.8790  -32.6260 C   0  0  0  0  0  0  0  0  0  0  0  0
   -7.1160   20.4540  -32.0930 C   0  0  0  0  0  0  0  0  0  0  0  0
   -7.1510   21.8040  -31.5950 N   0  0  0  0  0  0  0  0  0  0  0  0
   -6.7580   22.9100  -32.4750 C   0  0  0  0  0  0  0  0  0  0  0  0
   -5.3650   23.4390  -32.0910 C   0  0  0  0  0  0  0  0  0  0  0  0
   -5.0460   23.2580  -30.5810 C   0  0  0  0  0  0  0  0  0  0  0  0
   -4.1040   24.3290  -30.0700 C   0  0  0  0  0  0  0  0  0  0  0  0
   -4.2010   25.5030  -30.5240 O   0  0  0  0  0  0  0  0  0  0  0  0
   -3.1440   24.0590  -29.0330 N   0  0  0  0  0  0  0  0  0  0  0  0
   -2.2170   25.0650  -28.5460 C   0  0  0  0  0  0  0  0  0  0  0  0
   -1.3140   24.3460  -27.5550 C   0  0  0  0  0  0  0  0  0  0  0  0
   -2.0430   23.0560  -27.1890 C   0  0  0  0  0  0  0  0  0  0  0  0
   -3.0210   22.7950  -28.3240 C   0  0  0  0  0  0  0  0  0  0  0  0
   -6.3260   23.2310  -29.7300 C   0  0  0  0  0  0  0  0  0  0  0  0
   -7.2310   22.0560  -30.1460 C   0  0  0  0  0  0  0  0  0  0  0  0
   -8.2460   19.6890  -32.0840 N   0  0  0  0  0  0  0  0  0  0  0  0
   -8.2620   18.4360  -32.5620 N   0  0  0  0  0  0  0  0  0  0  0  0
   -7.1500   17.8460  -33.0930 C   0  0  0  0  0  0  0  0  0  0  0  0
   -7.2340   16.4390  -33.5950 C   0  0  0  0  0  0  0  0  0  0  0  0
   -5.9730   18.6060  -33.1260 C   0  0  0  0  0  0  0  0  0  0  0  0
   -4.6650   18.3620  -33.5380 C   0  0  0  0  0  0  0  0  0  0  0  0
   -4.1420   17.1270  -34.2110 C   0  0  0  0  0  0  0  0  0  0  0  0
   -2.0240   20.9030  -33.8250 C   0  0  0  0  0  0  0  0  0  0  0  0
   -0.6490   21.1100  -33.9670 C   0  0  0  0  0  0  0  0  0  0  0  0
    2.1621   20.3786  -32.7940 H   0  0  0  0  0  0  0  0  0  0  0  0
    2.2021   19.4752  -34.3461 H   0  0  0  0  0  0  0  0  0  0  0  0
    1.9152   21.2485  -34.3461 H   0  0  0  0  0  0  0  0  0  0  0  0
    0.4709   18.0157  -33.0284 H   0  0  0  0  0  0  0  0  0  0  0  0
   -1.9808   17.6493  -32.7722 H   0  0  0  0  0  0  0  0  0  0  0  0
   -4.3910   21.3060  -32.3270 H   0  0  0  0  0  0  0  0  0  0  0  0
   -6.7352   22.5536  -33.5154 H   0  0  0  0  0  0  0  0  0  0  0  0
   -7.4888   23.7252  -32.3680 H   0  0  0  0  0  0  0  0  0  0  0  0
   -4.6092   22.8958  -32.6772 H   0  0  0  0  0  0  0  0  0  0  0  0
   -5.3505   24.5179  -32.3050 H   0  0  0  0  0  0  0  0  0  0  0  0
   -4.5432   22.2845  -30.4833 H   0  0  0  0  0  0  0  0  0  0  0  0
   -1.6246   25.4753  -29.3771 H   0  0  0  0  0  0  0  0  0  0  0  0
   -2.7433   25.9097  -28.0775 H   0  0  0  0  0  0  0  0  0  0  0  0
   -0.3420   24.1189  -28.0173 H   0  0  0  0  0  0  0  0  0  0  0  0
   -1.1138   24.9640  -26.6673 H   0  0  0  0  0  0  0  0  0  0  0  0
   -1.3285   22.2244  -27.1005 H   0  0  0  0  0  0  0  0  0  0  0  0
   -2.5599   23.1440  -26.2220 H   0  0  0  0  0  0  0  0  0  0  0  0
   -2.6315   22.0149  -28.9947 H   0  0  0  0  0  0  0  0  0  0  0  0
   -3.9934   22.4418  -27.9502 H   0  0  0  0  0  0  0  0  0  0  0  0
   -6.0529   23.1190  -28.6703 H   0  0  0  0  0  0  0  0  0  0  0  0
   -6.8741   24.1720  -29.8852 H   0  0  0  0  0  0  0  0  0  0  0  0
   -6.9134   21.1512  -29.6071 H   0  0  0  0  0  0  0  0  0  0  0  0
   -8.2707   22.3139  -29.8960 H   0  0  0  0  0  0  0  0  0  0  0  0
   -7.2753   15.7469  -32.7410 H   0  0  0  0  0  0  0  0  0  0  0  0
   -8.1408   16.3214  -34.2065 H   0  0  0  0  0  0  0  0  0  0  0  0
   -6.3477   16.2143  -34.2065 H   0  0  0  0  0  0  0  0  0  0  0  0
   -3.8328   16.3969  -33.4485 H   0  0  0  0  0  0  0  0  0  0  0  0
   -4.9319   16.6891  -34.8389 H   0  0  0  0  0  0  0  0  0  0  0  0
   -3.2779   17.3896  -34.8389 H   0  0  0  0  0  0  0  0  0  0  0  0
   -2.7252   21.7239  -34.0358 H   0  0  0  0  0  0  0  0  0  0  0  0
   -0.2738   22.0932  -34.2873 H   0  0  0  0  0  0  0  0  0  0  0  0
  1  2  1  0
  2  3  2  0
  3  4  1  0
  4  5  2  0
  5  6  1  0
  6  7  1  0
  7  8  2  0
  8  9  1  0
  9 10  1  0
 10 11  1  0
 11 12  1  0
 12 13  1  0
 13 14  1  0
 14 15  2  0
 14 16  1  0
 16 17  1  0
 17 18  1  0
 18 19  1  0
 19 20  1  0
 13 21  1  0
 21 22  1  0
  9 23  2  0
 23 24  1  0
 24 25  2  0
 25 26  1  0
 25 27  1  0
 27 28  2  0
 28 29  1  0
  5 30  1  0
 30 31  2  0
 31  2  1  0
 28  6  1  0
 27  8  1  0
 22 10  1  0
 20 16  1  0
  1 32  1  0
  1 33  1  0
  1 34  1  0
  3 35  1  0
  4 36  1  0
  7 37  1  0
 11 38  1  0
 11 39  1  0
 12 40  1  0
 12 41  1  0
 13 42  1  0
 17 43  1  0
 17 44  1  0
 18 45  1  0
 18 46  1  0
 19 47  1  0
 19 48  1  0
 20 49  1  0
 20 50  1  0
 21 51  1  0
 21 52  1  0
 22 53  1  0
 22 54  1  0
 26 55  1  0
 26 56  1  0
 26 57  1  0
 29 58  1  0
 29 59  1  0
 29 60  1  0
 30 61  1  0
 31 62  1  0
M  CHG  1   7   1
M  END
>  <UniqueID>  (15) 
15

>  <SMILES>  (15) 
Cc1ccc(-n2[nH+]c3c(N4CCC(C(=O)N5CCCC5)CC4)nnc(C)c3c2C)cc1

>  <Energy>  (15) 
118.11270009513454

>  <Genealogy>  (15) 
Cc1ccc(-n2[nH+]c3c(N4CCC(C(=O)N5CCCC5)CC4)nnc(C)c3c2C)cc1 (protonated)
Cc1ccc(-n2[nH+]c3c(N4CCC(C(=O)N5CCCC5)CC4)nnc(C)c3c2C)cc1 (3D coordinates assigned)
Cc1ccc(-n2[nH+]c3c(N4CCC(C(=O)N5CCCC5)CC4)nnc(C)c3c2C)cc1 (nonaromatic ring conformer: 118.11270009513454 kcal/mol)

>  <smiles>  (15) 
Cc1ccc(-n2nc3c(N4CCC(C(=O)N5CCCC5)CC4)nnc(C)c3c2C)cc1

>  <score_type>  (15) 
oracle

>  <origin>  (15) 
adg

>  <m_score__min__energy>  (15) 
-9.75

>  <m_primary>  (15) 
energy

$$$$
15:0
     RDKit          3D

 44 46  0  0  0  0  0  0  0  0999 V2000
   -2.6260   23.5520  -30.0950 C   0  0  0  0  0  0  0  0  0  0  0  0
   -3.9150   23.2810  -30.7540 N   0  0  0  0  0  0  0  0  0  0  0  0
   -4.3720   21.9270  -30.3920 C   0  0  0  0  0  0  0  0  0  0  0  0
   -4.9100   24.3080  -30.3720 C   0  0  0  0  0  0  0  0  0  0  0  0
   -5.8620   24.6470  -31.5370 C   0  0  0  0  0  0  0  0  0  0  0  0
   -5.9610   23.5680  -32.5410 N   0  0  0  0  0  0  0  0  0  0  0  0
   -7.0640   22.6630  -32.2810 C   0  0  0  0  0  0  0  0  0  0  0  0
   -8.2830   23.2040  -31.8390 C   0  0  0  0  0  0  0  0  0  0  0  0
   -9.3950   22.3960  -31.6500 C   0  0  0  0  0  0  0  0  0  0  0  0
   -9.3110   21.0250  -31.8570 C   0  0  0  0  0  0  0  0  0  0  0  0
   -8.0910   20.4140  -32.2340 C   0  0  0  0  0  0  0  0  0  0  0  0
   -6.9650   21.2520  -32.4800 C   0  0  0  0  0  0  0  0  0  0  0  0
   -5.7770   20.6560  -32.9270 C   0  0  0  0  0  0  0  0  0  0  0  0
   -5.7330   19.2980  -33.2230 C   0  0  0  0  0  0  0  0  0  0  0  0
   -4.5650   18.7400  -33.7730 C   0  0  0  0  0  0  0  0  0  0  0  0
   -4.5270   17.3930  -34.1250 C   0  0  0  0  0  0  0  0  0  0  0  0
   -5.6530   16.5940  -33.9440 C   0  0  0  0  0  0  0  0  0  0  0  0
   -6.8150   17.1320  -33.3860 C   0  0  0  0  0  0  0  0  0  0  0  0
   -6.8690   18.4900  -32.9800 C   0  0  0  0  0  0  0  0  0  0  0  0
   -7.9860   19.0390  -32.3800 N   0  0  0  0  0  0  0  0  0  0  0  0
   -9.0560   18.1530  -31.8670 C   0  0  0  0  0  0  0  0  0  0  0  0
   -2.7592   23.5240  -29.0035 H   0  0  0  0  0  0  0  0  0  0  0  0
   -1.8933   22.7883  -30.3947 H   0  0  0  0  0  0  0  0  0  0  0  0
   -2.2628   24.5461  -30.3947 H   0  0  0  0  0  0  0  0  0  0  0  0
   -4.4042   21.8315  -29.2966 H   0  0  0  0  0  0  0  0  0  0  0  0
   -5.3774   21.7568  -30.8046 H   0  0  0  0  0  0  0  0  0  0  0  0
   -3.6754   21.1824  -30.8046 H   0  0  0  0  0  0  0  0  0  0  0  0
   -5.5033   23.9311  -29.5259 H   0  0  0  0  0  0  0  0  0  0  0  0
   -4.3665   25.2242  -30.0979 H   0  0  0  0  0  0  0  0  0  0  0  0
   -6.8648   24.8347  -31.1256 H   0  0  0  0  0  0  0  0  0  0  0  0
   -5.4522   25.5312  -32.0471 H   0  0  0  0  0  0  0  0  0  0  0  0
   -5.0540   23.0450  -32.5700 H   0  0  0  0  0  0  0  0  0  0  0  0
   -6.0640   23.9830  -33.4950 H   0  0  0  0  0  0  0  0  0  0  0  0
   -8.3568   24.2833  -31.6400 H   0  0  0  0  0  0  0  0  0  0  0  0
  -10.3489   22.8438  -31.3343 H   0  0  0  0  0  0  0  0  0  0  0  0
  -10.2086   20.4029  -31.7256 H   0  0  0  0  0  0  0  0  0  0  0  0
   -4.8710   21.2687  -33.0446 H   0  0  0  0  0  0  0  0  0  0  0  0
   -3.6769   19.3707  -33.9259 H   0  0  0  0  0  0  0  0  0  0  0  0
   -3.6075   16.9603  -34.5460 H   0  0  0  0  0  0  0  0  0  0  0  0
   -5.6273   15.5353  -34.2415 H   0  0  0  0  0  0  0  0  0  0  0  0
   -7.7014   16.4930  -33.2595 H   0  0  0  0  0  0  0  0  0  0  0  0
   -9.0442   18.1628  -30.7671 H   0  0  0  0  0  0  0  0  0  0  0  0
  -10.0321   18.5108  -32.2264 H   0  0  0  0  0  0  0  0  0  0  0  0
   -8.8865   17.1273  -32.2264 H   0  0  0  0  0  0  0  0  0  0  0  0
  1  2  1  0
  2  3  1  0
  2  4  1  0
  4  5  1  0
  5  6  1  0
  6  7  1  0
  7  8  2  0
  8  9  1  0
  9 10  2  0
 10 11  1  0
 11 12  2  0
 12 13  1  0
 13 14  2  0
 14 15  1  0
 15 16  2  0
 16 17  1  0
 17 18  2  0
 18 19  1  0
 19 20  2  0
 20 21  1  0
 12  7  1  0
 19 14  1  0
 20 11  1  0
  1 22  1  0
  1 23  1  0
  1 24  1  0
  3 25  1  0
  3 26  1  0
  3 27  1  0
  4 28  1  0
  4 29  1  0
  5 30  1  0
  5 31  1  0
  6 32  1  0
  6 33  1  0
  8 34  1  0
  9 35  1  0
 10 36  1  0
 13 37  1  0
 15 38  1  0
 16 39  1  0
 17 40  1  0
 18 41  1  0
 21 42  1  0
 21 43  1  0
 21 44  1  0
M  CHG  2   6   1  20   1
M  END
>  <UniqueID>  (16) 
16

>  <SMILES>  (16) 
CN(C)CC[NH2+]c1cccc2c1cc1ccccc1[n+]2C

>  <Energy>  (16) 
67.73518344140398

>  <Genealogy>  (16) 
CN(C)CC[NH2+]c1cccc2c1cc1ccccc1[n+]2C (protonated)
CN(C)CC[NH2+]c1cccc2c1cc1ccccc1[n+]2C (3D coordinates assigned)
CN(C)CC[NH2+]c1cccc2c1cc1ccccc1[n+]2C (optimized conformer: 67.73518344140398 kcal/mol)

>  <smiles>  (16) 
CN(C)CCNc1cccc2c1cc1ccccc1[n+]2C

>  <score_type>  (16) 
oracle

>  <origin>  (16) 
adg

>  <m_score__min__energy>  (16) 
-6.75

>  <m_primary>  (16) 
energy

$$$$
16:0
     RDKit          3D

 48 51  0  0  0  0  0  0  0  0999 V2000
   -5.6310   25.6750  -30.2500 C   0  0  0  0  0  0  0  0  0  0  0  0
   -5.2570   24.7120  -31.2280 O   0  0  0  0  0  0  0  0  0  0  0  0
   -6.0200   23.5710  -31.4930 C   0  0  0  0  0  0  0  0  0  0  0  0
   -7.3980   23.5940  -31.2640 C   0  0  0  0  0  0  0  0  0  0  0  0
   -8.1610   22.4550  -31.5290 C   0  0  0  0  0  0  0  0  0  0  0  0
   -7.5410   21.2990  -32.0200 C   0  0  0  0  0  0  0  0  0  0  0  0
   -8.2850   20.1450  -32.3060 C   0  0  0  0  0  0  0  0  0  0  0  0
   -7.6450   19.0080  -32.8040 C   0  0  0  0  0  0  0  0  0  0  0  0
   -6.2640   19.0130  -33.0170 C   0  0  0  0  0  0  0  0  0  0  0  0
   -5.5020   20.1560  -32.7310 C   0  0  0  0  0  0  0  0  0  0  0  0
   -4.0800   20.1370  -32.9490 N   0  0  0  0  0  0  0  0  0  0  0  0
   -3.3880   21.3250  -33.4560 C   0  0  0  0  0  0  0  0  0  0  0  0
   -2.0540   21.5500  -32.7130 C   0  0  0  0  0  0  0  0  0  0  0  0
   -1.4200   20.3070  -32.1990 N   0  0  0  0  0  0  0  0  0  0  0  0
   -1.5970   20.1440  -30.7390 C   0  0  0  0  0  0  0  0  0  0  0  0
   -2.0720   21.4340  -30.1250 C   0  0  0  0  0  0  0  0  0  0  0  0
   -1.1840   22.5070  -29.9310 C   0  0  0  0  0  0  0  0  0  0  0  0
   -1.6340   23.6970  -29.3510 C   0  0  0  0  0  0  0  0  0  0  0  0
   -2.9700   23.8240  -28.9600 C   0  0  0  0  0  0  0  0  0  0  0  0
   -3.8580   22.7620  -29.1490 C   0  0  0  0  0  0  0  0  0  0  0  0
   -3.4130   21.5700  -29.7280 C   0  0  0  0  0  0  0  0  0  0  0  0
   -1.8390   19.1020  -32.9440 C   0  0  0  0  0  0  0  0  0  0  0  0
   -3.3520   18.8710  -32.8250 C   0  0  0  0  0  0  0  0  0  0  0  0
   -6.1440   21.3080  -32.2320 C   0  0  0  0  0  0  0  0  0  0  0  0
   -5.4330   22.4380  -31.9700 N   0  0  0  0  0  0  0  0  0  0  0  0
   -5.4693   25.2586  -29.2448 H   0  0  0  0  0  0  0  0  0  0  0  0
   -5.0192   26.5807  -30.3745 H   0  0  0  0  0  0  0  0  0  0  0  0
   -6.6937   25.9304  -30.3745 H   0  0  0  0  0  0  0  0  0  0  0  0
   -7.8792   24.5043  -30.8771 H   0  0  0  0  0  0  0  0  0  0  0  0
   -9.2467   22.4656  -31.3525 H   0  0  0  0  0  0  0  0  0  0  0  0
   -9.3721   20.1355  -32.1381 H   0  0  0  0  0  0  0  0  0  0  0  0
   -8.2306   18.1046  -33.0296 H   0  0  0  0  0  0  0  0  0  0  0  0
   -5.7700   18.1132  -33.4123 H   0  0  0  0  0  0  0  0  0  0  0  0
   -3.1838   21.1915  -34.5286 H   0  0  0  0  0  0  0  0  0  0  0  0
   -4.0319   22.2015  -33.2913 H   0  0  0  0  0  0  0  0  0  0  0  0
   -1.3508   22.0332  -33.4072 H   0  0  0  0  0  0  0  0  0  0  0  0
   -2.2846   22.1711  -31.8349 H   0  0  0  0  0  0  0  0  0  0  0  0
   -2.3405   19.3559  -30.5490 H   0  0  0  0  0  0  0  0  0  0  0  0
   -0.6321   19.8667  -30.2895 H   0  0  0  0  0  0  0  0  0  0  0  0
   -0.1318   22.4098  -30.2366 H   0  0  0  0  0  0  0  0  0  0  0  0
   -0.9360   24.5341  -29.2023 H   0  0  0  0  0  0  0  0  0  0  0  0
   -3.3224   24.7606  -28.5032 H   0  0  0  0  0  0  0  0  0  0  0  0
   -4.9092   22.8641  -28.8416 H   0  0  0  0  0  0  0  0  0  0  0  0
   -4.1150   20.7357  -29.8733 H   0  0  0  0  0  0  0  0  0  0  0  0
   -1.5781   19.2280  -34.0052 H   0  0  0  0  0  0  0  0  0  0  0  0
   -1.3201   18.2314  -32.5165 H   0  0  0  0  0  0  0  0  0  0  0  0
   -3.6770   18.1877  -33.6235 H   0  0  0  0  0  0  0  0  0  0  0  0
   -3.5669   18.4343  -31.8385 H   0  0  0  0  0  0  0  0  0  0  0  0
  1  2  1  0
  2  3  1  0
  3  4  2  0
  4  5  1  0
  5  6  2  0
  6  7  1  0
  7  8  2  0
  8  9  1  0
  9 10  2  0
 10 11  1  0
 11 12  1  0
 12 13  1  0
 13 14  1  0
 14 15  1  0
 15 16  1  0
 16 17  2  0
 17 18  1  0
 18 19  2  0
 19 20  1  0
 20 21  2  0
 14 22  1  0
 22 23  1  0
 10 24  1  0
 24 25  2  0
 25  3  1  0
 24  6  1  0
 23 11  1  0
 21 16  1  0
  1 26  1  0
  1 27  1  0
  1 28  1  0
  4 29  1  0
  5 30  1  0
  7 31  1  0
  8 32  1  0
  9 33  1  0
 12 34  1  0
 12 35  1  0
 13 36  1  0
 13 37  1  0
 15 38  1  0
 15 39  1  0
 17 40  1  0
 18 41  1  0
 19 42  1  0
 20 43  1  0
 21 44  1  0
 22 45  1  0
 22 46  1  0
 23 47  1  0
 23 48  1  0
M  END
>  <UniqueID>  (17) 
17

>  <SMILES>  (17) 
COc1ccc2cccc(N3CCN(Cc4ccccc4)CC3)c2n1

>  <Energy>  (17) 
64.34062616974654

>  <Genealogy>  (17) 
COc1ccc2cccc(N3CCN(Cc4ccccc4)CC3)c2n1 (3D coordinates assigned)
COc1ccc2cccc(N3CCN(Cc4ccccc4)CC3)c2n1 (nonaromatic ring conformer: 64.34062616974654 kcal/mol)

>  <smiles>  (17) 
COc1ccc2cccc(N3CCN(Cc4ccccc4)CC3)c2n1

>  <score_type>  (17) 
oracle

>  <origin>  (17) 
adg

>  <m_score__min__energy>  (17) 
-8.8200000000000003

>  <m_primary>  (17) 
energy

$$$$
17:0
     RDKit          3D

 41 42  0  0  0  0  0  0  0  0999 V2000
   -2.8600   24.5420  -27.4020 C   0  0  0  0  0  0  0  0  0  0  0  0
   -2.6770   24.1290  -28.8580 C   0  0  0  0  0  0  0  0  0  0  0  0
   -3.2640   25.0910  -29.7320 O   0  0  0  0  0  0  0  0  0  0  0  0
   -4.5900   25.0210  -30.1740 C   0  0  0  0  0  0  0  0  0  0  0  0
   -4.9660   25.6620  -31.1930 O   0  0  0  0  0  0  0  0  0  0  0  0
   -5.5620   24.1310  -29.4530 C   0  0  0  0  0  0  0  0  0  0  0  0
   -5.9720   22.9790  -30.2890 N   0  0  0  0  0  0  0  0  0  0  0  0
   -4.8640   22.5910  -31.1900 C   0  0  0  0  0  0  0  0  0  0  0  0
   -5.1870   21.2580  -31.8850 C   0  0  0  0  0  0  0  0  0  0  0  0
   -6.6140   21.1850  -32.2270 N   0  0  0  0  0  0  0  0  0  0  0  0
   -7.2860   19.9110  -32.2860 C   0  0  0  0  0  0  0  0  0  0  0  0
   -8.4590   19.8070  -31.8340 O   0  0  0  0  0  0  0  0  0  0  0  0
   -6.6230   18.7130  -32.8480 C   0  0  0  0  0  0  0  0  0  0  0  0
   -6.1210   18.7340  -34.1600 C   0  0  0  0  0  0  0  0  0  0  0  0
   -5.4860   17.6080  -34.6920 C   0  0  0  0  0  0  0  0  0  0  0  0
   -5.3350   16.4550  -33.9150 C   0  0  0  0  0  0  0  0  0  0  0  0
   -4.5360   15.0440  -34.5820 Cl  0  0  0  0  0  0  0  0  0  0  0  0
   -5.8150   16.4320  -32.6020 C   0  0  0  0  0  0  0  0  0  0  0  0
   -6.4520   17.5560  -32.0680 C   0  0  0  0  0  0  0  0  0  0  0  0
   -7.3740   22.4330  -32.3330 C   0  0  0  0  0  0  0  0  0  0  0  0
   -7.2150   23.2820  -31.0540 C   0  0  0  0  0  0  0  0  0  0  0  0
   -2.5027   23.7357  -26.7445 H   0  0  0  0  0  0  0  0  0  0  0  0
   -2.2835   25.4580  -27.2055 H   0  0  0  0  0  0  0  0  0  0  0  0
   -3.9258   24.7303  -27.2055 H   0  0  0  0  0  0  0  0  0  0  0  0
   -1.6023   24.0491  -29.0784 H   0  0  0  0  0  0  0  0  0  0  0  0
   -3.1718   23.1593  -29.0156 H   0  0  0  0  0  0  0  0  0  0  0  0
   -5.0875   23.7545  -28.5348 H   0  0  0  0  0  0  0  0  0  0  0  0
   -6.4597   24.7218  -29.2183 H   0  0  0  0  0  0  0  0  0  0  0  0
   -6.1620   22.1700  -29.6480 H   0  0  0  0  0  0  0  0  0  0  0  0
   -4.7236   23.3729  -31.9509 H   0  0  0  0  0  0  0  0  0  0  0  0
   -3.9443   22.4737  -30.5981 H   0  0  0  0  0  0  0  0  0  0  0  0
   -4.5901   21.1764  -32.8054 H   0  0  0  0  0  0  0  0  0  0  0  0
   -4.9442   20.4329  -31.1993 H   0  0  0  0  0  0  0  0  0  0  0  0
   -6.2282   19.6416  -34.7721 H   0  0  0  0  0  0  0  0  0  0  0  0
   -5.1044   17.6289  -35.7235 H   0  0  0  0  0  0  0  0  0  0  0  0
   -5.6912   15.5277  -31.9880 H   0  0  0  0  0  0  0  0  0  0  0  0
   -6.8214   17.5350  -31.0321 H   0  0  0  0  0  0  0  0  0  0  0  0
   -7.0052   23.0076  -33.1954 H   0  0  0  0  0  0  0  0  0  0  0  0
   -8.4383   22.1876  -32.4632 H   0  0  0  0  0  0  0  0  0  0  0  0
   -7.1969   24.3437  -31.3411 H   0  0  0  0  0  0  0  0  0  0  0  0
   -8.0648   23.0411  -30.3984 H   0  0  0  0  0  0  0  0  0  0  0  0
  1  2  1  0
  2  3  1  0
  3  4  1  0
  4  5  2  0
  4  6  1  0
  6  7  1  0
  7  8  1  0
  8  9  1  0
  9 10  1  0
 10 11  1  0
 11 12  2  0
 11 13  1  0
 13 14  2  0
 14 15  1  0
 15 16  2  0
 16 17  1  0
 16 18  1  0
 18 19  2  0
 10 20  1  0
 20 21  1  0
 21  7  1  0
 19 13  1  0
  1 22  1  0
  1 23  1  0
  1 24  1  0
  2 25  1  0
  2 26  1  0
  6 27  1  0
  6 28  1  0
  7 29  1  0
  8 30  1  0
  8 31  1  0
  9 32  1  0
  9 33  1  0
 14 34  1  0
 15 35  1  0
 18 36  1  0
 19 37  1  0
 20 38  1  0
 20 39  1  0
 21 40  1  0
 21 41  1  0
M  CHG  1   7   1
M  END
>  <UniqueID>  (18) 
18

>  <SMILES>  (18) 
CCOC(=O)C[NH+]1CCN(C(=O)c2ccc(Cl)cc2)CC1

>  <Energy>  (18) 
47.59786145649104

>  <Genealogy>  (18) 
CCOC(=O)C[NH+]1CCN(C(=O)c2ccc(Cl)cc2)CC1 (protonated)
CCOC(=O)C[NH+]1CCN(C(=O)c2ccc(Cl)cc2)CC1 (3D coordinates assigned)
CCOC(=O)C[NH+]1CCN(C(=O)c2ccc(Cl)cc2)CC1 (nonaromatic ring conformer: 47.59786145649104 kcal/mol)

>  <smiles>  (18) 
CCOC(=O)CN1CCN(C(=O)c2ccc(Cl)cc2)CC1

>  <score_type>  (18) 
oracle

>  <origin>  (18) 
adg

>  <m_score__min__energy>  (18) 
-6.8700000000000001

>  <m_primary>  (18) 
energy

$$$$
18:0
     RDKit          3D

 34 35  0  0  0  0  0  0  0  0999 V2000
   -6.4540   25.2100  -29.7800 C   0  0  0  0  0  0  0  0  0  0  0  0
   -5.3440   25.2240  -30.8400 C   0  0  0  0  0  0  0  0  0  0  0  0
   -4.1450   24.4280  -30.4760 N   0  0  0  0  0  0  0  0  0  0  0  0
   -4.0190   24.2450  -29.0120 C   0  0  0  0  0  0  0  0  0  0  0  0
   -4.2490   22.7840  -28.6410 C   0  0  0  0  0  0  0  0  0  0  0  0
   -4.0340   23.1380  -31.1990 C   0  0  0  0  0  0  0  0  0  0  0  0
   -5.0230   23.0530  -32.3680 C   0  0  0  0  0  0  0  0  0  0  0  0
   -5.7410   21.7690  -32.3350 N   0  0  0  0  0  0  0  0  0  0  0  0
   -5.0140   20.5990  -32.3550 C   0  0  0  0  0  0  0  0  0  0  0  0
   -5.6390   19.3880  -32.3540 N   0  0  0  0  0  0  0  0  0  0  0  0
   -6.9890   19.3490  -32.3420 C   0  0  0  0  0  0  0  0  0  0  0  0
   -7.9640   17.9860  -32.3440 S   0  0  0  0  0  0  0  0  0  0  0  0
   -9.4160   18.8610  -32.3370 C   0  0  0  0  0  0  0  0  0  0  0  0
   -9.1320   20.2280  -32.3350 C   0  0  0  0  0  0  0  0  0  0  0  0
   -7.7570   20.4880  -32.3370 C   0  0  0  0  0  0  0  0  0  0  0  0
   -7.1170   21.7270  -32.3390 C   0  0  0  0  0  0  0  0  0  0  0  0
   -7.7990   22.7900  -32.3500 O   0  0  0  0  0  0  0  0  0  0  0  0
   -6.0030   25.2157  -28.7767 H   0  0  0  0  0  0  0  0  0  0  0  0
   -7.0886   26.1002  -29.9018 H   0  0  0  0  0  0  0  0  0  0  0  0
   -7.0659   24.3041  -29.9018 H   0  0  0  0  0  0  0  0  0  0  0  0
   -5.7558   24.8190  -31.7761 H   0  0  0  0  0  0  0  0  0  0  0  0
   -5.0126   26.2684  -30.9369 H   0  0  0  0  0  0  0  0  0  0  0  0
   -3.0099   24.5459  -28.6939 H   0  0  0  0  0  0  0  0  0  0  0  0
   -4.7734   24.8661  -28.5069 H   0  0  0  0  0  0  0  0  0  0  0  0
   -4.2651   22.6819  -27.5459 H   0  0  0  0  0  0  0  0  0  0  0  0
   -5.2111   22.4477  -29.0548 H   0  0  0  0  0  0  0  0  0  0  0  0
   -3.4367   22.1684  -29.0548 H   0  0  0  0  0  0  0  0  0  0  0  0
   -3.0109   23.0360  -31.5901 H   0  0  0  0  0  0  0  0  0  0  0  0
   -4.2698   22.3287  -30.4923 H   0  0  0  0  0  0  0  0  0  0  0  0
   -5.7480   23.8766  -32.2909 H   0  0  0  0  0  0  0  0  0  0  0  0
   -4.4671   23.1287  -33.3142 H   0  0  0  0  0  0  0  0  0  0  0  0
   -3.9150   20.6428  -32.3720 H   0  0  0  0  0  0  0  0  0  0  0  0
  -10.4240   18.4207  -32.3344 H   0  0  0  0  0  0  0  0  0  0  0  0
   -9.9028   21.0128  -32.3322 H   0  0  0  0  0  0  0  0  0  0  0  0
  1  2  1  0
  2  3  1  0
  3  4  1  0
  4  5  1  0
  3  6  1  0
  6  7  1  0
  7  8  1  0
  8  9  1  0
  9 10  2  0
 10 11  1  0
 11 12  1  0
 12 13  1  0
 13 14  2  0
 14 15  1  0
 15 16  1  0
 16 17  2  0
 16  8  1  0
 15 11  2  0
  1 18  1  0
  1 19  1  0
  1 20  1  0
  2 21  1  0
  2 22  1  0
  4 23  1  0
  4 24  1  0
  5 25  1  0
  5 26  1  0
  5 27  1  0
  6 28  1  0
  6 29  1  0
  7 30  1  0
  7 31  1  0
  9 32  1  0
 13 33  1  0
 14 34  1  0
M  END
>  <UniqueID>  (19) 
19

>  <SMILES>  (19) 
CCN(CC)CCn1cnc2sccc2c1=O

>  <Energy>  (19) 
68.85055350855158

>  <Genealogy>  (19) 
CCN(CC)CCn1cnc2sccc2c1=O (3D coordinates assigned)
CCN(CC)CCn1cnc2sccc2c1=O (optimized conformer: 68.85055350855158 kcal/mol)

>  <smiles>  (19) 
CCN(CC)CCn1cnc2sccc2c1=O

>  <score_type>  (19) 
oracle

>  <origin>  (19) 
adg

>  <m_score__min__energy>  (19) 
-6.5499999999999998

>  <m_primary>  (19) 
energy

$$$$
19:0
     RDKit          3D

 61 63  0  0  0  0  0  0  0  0999 V2000
   -4.5950   13.2860  -31.0220 C   0  0  0  0  0  0  0  0  0  0  0  0
   -4.3460   13.4100  -32.5300 C   0  0  0  0  0  0  0  0  0  0  0  0
   -4.3250   14.8260  -32.9910 N   0  0  0  0  0  0  0  0  0  0  0  0
   -2.9970   15.1780  -33.5660 C   0  0  0  0  0  0  0  0  0  0  0  0
   -3.0000   15.4150  -35.0820 C   0  0  0  0  0  0  0  0  0  0  0  0
   -5.4610   15.0980  -33.9140 C   0  0  0  0  0  0  0  0  0  0  0  0
   -6.3250   16.3010  -33.5000 C   0  0  0  0  0  0  0  0  0  0  0  0
   -5.8590   16.8400  -32.2790 O   0  0  0  0  0  0  0  0  0  0  0  0
   -6.8610   17.6280  -31.6650 C   0  0  0  0  0  0  0  0  0  0  0  0
   -7.7310   18.3230  -32.7160 C   0  0  0  0  0  0  0  0  0  0  0  0
   -6.9260   19.1960  -33.5730 N   0  0  0  0  0  0  0  0  0  0  0  0
   -5.9780   20.1320  -33.0260 C   0  0  0  0  0  0  0  0  0  0  0  0
   -4.6000   19.9360  -33.2220 C   0  0  0  0  0  0  0  0  0  0  0  0
   -4.1190   18.8340  -33.9630 C   0  0  0  0  0  0  0  0  0  0  0  0
   -2.7560   18.6700  -34.1940 C   0  0  0  0  0  0  0  0  0  0  0  0
   -1.8500   19.6010  -33.7010 C   0  0  0  0  0  0  0  0  0  0  0  0
   -2.3000   20.6950  -32.9640 C   0  0  0  0  0  0  0  0  0  0  0  0
   -3.6780   20.8720  -32.6830 C   0  0  0  0  0  0  0  0  0  0  0  0
   -4.1290   21.9310  -31.9210 N   0  0  0  0  0  0  0  0  0  0  0  0
   -3.1760   22.6440  -31.0420 C   0  0  0  0  0  0  0  0  0  0  0  0
   -5.4780   22.2420  -31.8900 C   0  0  0  0  0  0  0  0  0  0  0  0
   -5.9620   23.5050  -31.4320 C   0  0  0  0  0  0  0  0  0  0  0  0
   -5.0710   24.5760  -31.2440 O   0  0  0  0  0  0  0  0  0  0  0  0
   -5.3320   25.7320  -30.4540 C   0  0  0  0  0  0  0  0  0  0  0  0
   -7.3430   23.6880  -31.2310 C   0  0  0  0  0  0  0  0  0  0  0  0
   -8.2440   22.6780  -31.5380 C   0  0  0  0  0  0  0  0  0  0  0  0
   -7.7960   21.4930  -32.1080 C   0  0  0  0  0  0  0  0  0  0  0  0
   -6.4240   21.2830  -32.3470 C   0  0  0  0  0  0  0  0  0  0  0  0
   -3.7416   13.7110  -30.4733 H   0  0  0  0  0  0  0  0  0  0  0  0
   -5.5114   13.8330  -30.7555 H   0  0  0  0  0  0  0  0  0  0  0  0
   -4.7106   12.2251  -30.7555 H   0  0  0  0  0  0  0  0  0  0  0  0
   -3.3762   12.9478  -32.7664 H   0  0  0  0  0  0  0  0  0  0  0  0
   -5.1733   12.9026  -33.0478 H   0  0  0  0  0  0  0  0  0  0  0  0
   -4.4450   15.4340  -32.1480 H   0  0  0  0  0  0  0  0  0  0  0  0
   -2.6435   16.0971  -33.0757 H   0  0  0  0  0  0  0  0  0  0  0  0
   -2.3406   14.3137  -33.3868 H   0  0  0  0  0  0  0  0  0  0  0  0
   -3.0137   16.4962  -35.2841 H   0  0  0  0  0  0  0  0  0  0  0  0
   -2.0962   14.9707  -35.5244 H   0  0  0  0  0  0  0  0  0  0  0  0
   -3.8923   14.9480  -35.5244 H   0  0  0  0  0  0  0  0  0  0  0  0
   -5.0535   15.2929  -34.9170 H   0  0  0  0  0  0  0  0  0  0  0  0
   -6.1129   14.2123  -33.8882 H   0  0  0  0  0  0  0  0  0  0  0  0
   -6.2714   17.0729  -34.2818 H   0  0  0  0  0  0  0  0  0  0  0  0
   -7.3655   15.9681  -33.3713 H   0  0  0  0  0  0  0  0  0  0  0  0
   -7.4964   16.9812  -31.0422 H   0  0  0  0  0  0  0  0  0  0  0  0
   -6.3737   18.3974  -31.0480 H   0  0  0  0  0  0  0  0  0  0  0  0
   -8.2203   17.5598  -33.3391 H   0  0  0  0  0  0  0  0  0  0  0  0
   -8.4813   18.9378  -32.1974 H   0  0  0  0  0  0  0  0  0  0  0  0
   -7.2200   19.3070  -34.5700 H   0  0  0  0  0  0  0  0  0  0  0  0
   -4.8302   18.0961  -34.3626 H   0  0  0  0  0  0  0  0  0  0  0  0
   -2.3961   17.8029  -34.7672 H   0  0  0  0  0  0  0  0  0  0  0  0
   -0.7743   19.4742  -33.8930 H   0  0  0  0  0  0  0  0  0  0  0  0
   -1.5735   21.4335  -32.5942 H   0  0  0  0  0  0  0  0  0  0  0  0
   -3.4332   22.4516  -29.9899 H   0  0  0  0  0  0  0  0  0  0  0  0
   -2.1551   22.2861  -31.2413 H   0  0  0  0  0  0  0  0  0  0  0  0
   -3.2312   23.7244  -31.2413 H   0  0  0  0  0  0  0  0  0  0  0  0
   -5.2725   25.4685  -29.3877 H   0  0  0  0  0  0  0  0  0  0  0  0
   -4.5864   26.5080  -30.6821 H   0  0  0  0  0  0  0  0  0  0  0  0
   -6.3386   26.1124  -30.6821 H   0  0  0  0  0  0  0  0  0  0  0  0
   -7.7122   24.6419  -30.8262 H   0  0  0  0  0  0  0  0  0  0  0  0
   -9.3152   22.8161  -31.3295 H   0  0  0  0  0  0  0  0  0  0  0  0
   -8.5208   20.7101  -32.3756 H   0  0  0  0  0  0  0  0  0  0  0  0
  1  2  1  0
  2  3  1  0
  3  4  1  0
  4  5  1  0
  3  6  1  0
  6  7  1  0
  7  8  1  0
  8  9  1  0
  9 10  1  0
 10 11  1  0
 11 12  1  0
 12 13  2  0
 13 14  1  0
 14 15  2  0
 15 16  1  0
 16 17  2  0
 17 18  1  0
 18 19  2  0
 19 20  1  0
 19 21  1  0
 21 22  2  0
 22 23  1  0
 23 24  1  0
 22 25  1  0
 25 26  2  0
 26 27  1  0
 27 28  2  0
 28 12  1  0
 18 13  1  0
 28 21  1  0
  1 29  1  0
  1 30  1  0
  1 31  1  0
  2 32  1  0
  2 33  1  0
  3 34  1  0
  4 35  1  0
  4 36  1  0
  5 37  1  0
  5 38  1  0
  5 39  1  0
  6 40  1  0
  6 41  1  0
  7 42  1  0
  7 43  1  0
  9 44  1  0
  9 45  1  0
 10 46  1  0
 10 47  1  0
 11 48  1  0
 14 49  1  0
 15 50  1  0
 16 51  1  0
 17 52  1  0
 20 53  1  0
 20 54  1  0
 20 55  1  0
 24 56  1  0
 24 57  1  0
 24 58  1  0
 25 59  1  0
 26 60  1  0
 27 61  1  0
M  CHG  2   3   1  19   1
M  END
>  <UniqueID>  (20) 
20

>  <SMILES>  (20) 
CC[NH+](CC)CCOCCNc1c2ccccc2[n+](C)c2c(OC)cccc12

>  <Energy>  (20) 
87.5453650469212

>  <Genealogy>  (20) 
CC[NH+](CC)CCOCCNc1c2ccccc2[n+](C)c2c(OC)cccc12 (protonated)
CC[NH+](CC)CCOCCNc1c2ccccc2[n+](C)c2c(OC)cccc12 (3D coordinates assigned)
CC[NH+](CC)CCOCCNc1c2ccccc2[n+](C)c2c(OC)cccc12 (optimized conformer: 87.5453650469212 kcal/mol)

>  <smiles>  (20) 
CCN(CC)CCOCCNc1c2ccccc2[n+](C)c2c(OC)cccc12

>  <score_type>  (20) 
oracle

>  <origin>  (20) 
adg

>  <m_score__min__energy>  (20) 
-7.3099999999999996

>  <m_primary>  (20) 
energy

$$$$
20:0
     RDKit          3D

 57 59  0  0  0  0  0  0  0  0999 V2000
   -2.9600   22.5610  -27.8370 C   0  0  0  0  0  0  0  0  0  0  0  0
   -3.0970   21.1240  -28.3750 C   0  0  0  0  0  0  0  0  0  0  0  0
   -1.8000   20.4280  -28.6160 N   0  0  0  0  0  0  0  0  0  0  0  0
   -1.4620   19.5200  -27.4820 C   0  0  0  0  0  0  0  0  0  0  0  0
   -2.7100   19.0440  -26.7210 C   0  0  0  0  0  0  0  0  0  0  0  0
   -0.6730   21.3600  -28.9030 C   0  0  0  0  0  0  0  0  0  0  0  0
   -0.5020   21.6700  -30.4000 C   0  0  0  0  0  0  0  0  0  0  0  0
   -1.3120   20.7920  -31.1590 O   0  0  0  0  0  0  0  0  0  0  0  0
   -1.3510   21.1950  -32.5110 C   0  0  0  0  0  0  0  0  0  0  0  0
   -2.8040   21.4350  -32.9170 C   0  0  0  0  0  0  0  0  0  0  0  0
   -3.7230   20.9070  -31.9080 N   0  0  0  0  0  0  0  0  0  0  0  0
   -5.0600   21.4160  -31.8090 C   0  0  0  0  0  0  0  0  0  0  0  0
   -5.2860   22.7050  -31.3010 C   0  0  0  0  0  0  0  0  0  0  0  0
   -4.2110   23.4980  -30.8440 C   0  0  0  0  0  0  0  0  0  0  0  0
   -4.4400   24.7620  -30.3020 C   0  0  0  0  0  0  0  0  0  0  0  0
   -5.7390   25.2470  -30.1930 C   0  0  0  0  0  0  0  0  0  0  0  0
   -6.8160   24.4830  -30.6470 C   0  0  0  0  0  0  0  0  0  0  0  0
   -6.6110   23.2120  -31.2450 C   0  0  0  0  0  0  0  0  0  0  0  0
   -7.6600   22.4680  -31.7550 N   0  0  0  0  0  0  0  0  0  0  0  0
   -8.9820   23.1030  -31.9740 C   0  0  0  0  0  0  0  0  0  0  0  0
   -7.4690   21.1380  -32.0850 C   0  0  0  0  0  0  0  0  0  0  0  0
   -8.5580   20.2640  -32.3450 C   0  0  0  0  0  0  0  0  0  0  0  0
   -8.3460   18.9330  -32.7110 C   0  0  0  0  0  0  0  0  0  0  0  0
   -7.0510   18.4340  -32.8170 C   0  0  0  0  0  0  0  0  0  0  0  0
   -6.7930   16.7620  -33.2810 Cl  0  0  0  0  0  0  0  0  0  0  0  0
   -5.9620   19.2570  -32.5310 C   0  0  0  0  0  0  0  0  0  0  0  0
   -6.1550   20.6020  -32.1490 C   0  0  0  0  0  0  0  0  0  0  0  0
   -2.9618   22.5425  -26.7372 H   0  0  0  0  0  0  0  0  0  0  0  0
   -2.0161   22.9981  -28.1948 H   0  0  0  0  0  0  0  0  0  0  0  0
   -3.8043   23.1685  -28.1948 H   0  0  0  0  0  0  0  0  0  0  0  0
   -3.6716   20.5366  -27.6437 H   0  0  0  0  0  0  0  0  0  0  0  0
   -3.5968   21.2018  -29.3518 H   0  0  0  0  0  0  0  0  0  0  0  0
   -1.9530   19.8330  -29.4680 H   0  0  0  0  0  0  0  0  0  0  0  0
   -0.9334   18.6407  -27.8788 H   0  0  0  0  0  0  0  0  0  0  0  0
   -0.8335   20.0835  -26.7767 H   0  0  0  0  0  0  0  0  0  0  0  0
   -2.5280   19.1134  -25.6384 H   0  0  0  0  0  0  0  0  0  0  0  0
   -3.5676   19.6782  -26.9900 H   0  0  0  0  0  0  0  0  0  0  0  0
   -2.9274   17.9998  -26.9900 H   0  0  0  0  0  0  0  0  0  0  0  0
   -0.8575   22.3045  -28.3703 H   0  0  0  0  0  0  0  0  0  0  0  0
    0.2504   20.8660  -28.5664 H   0  0  0  0  0  0  0  0  0  0  0  0
   -0.8042   22.7094  -30.5961 H   0  0  0  0  0  0  0  0  0  0  0  0
    0.5519   21.5347  -30.6845 H   0  0  0  0  0  0  0  0  0  0  0  0
   -0.7751   22.1238  -32.6357 H   0  0  0  0  0  0  0  0  0  0  0  0
   -0.9127   20.4104  -33.1453 H   0  0  0  0  0  0  0  0  0  0  0  0
   -2.9731   22.5163  -33.0272 H   0  0  0  0  0  0  0  0  0  0  0  0
   -2.9926   20.9172  -33.8690 H   0  0  0  0  0  0  0  0  0  0  0  0
   -3.3940   20.2290  -31.1830 H   0  0  0  0  0  0  0  0  0  0  0  0
   -3.1825   23.1147  -30.9163 H   0  0  0  0  0  0  0  0  0  0  0  0
   -3.5933   25.3757  -29.9606 H   0  0  0  0  0  0  0  0  0  0  0  0
   -5.9186   26.2365  -29.7473 H   0  0  0  0  0  0  0  0  0  0  0  0
   -7.8393   24.8721  -30.5396 H   0  0  0  0  0  0  0  0  0  0  0  0
   -9.4470   23.3263  -31.0024 H   0  0  0  0  0  0  0  0  0  0  0  0
   -8.8510   24.0365  -32.5410 H   0  0  0  0  0  0  0  0  0  0  0  0
   -9.6287   22.4173  -32.5410 H   0  0  0  0  0  0  0  0  0  0  0  0
   -9.5871   20.6423  -32.2565 H   0  0  0  0  0  0  0  0  0  0  0  0
   -9.2049   18.2771  -32.9161 H   0  0  0  0  0  0  0  0  0  0  0  0
   -4.9413   18.8534  -32.6039 H   0  0  0  0  0  0  0  0  0  0  0  0
  1  2  1  0
  2  3  1  0
  3  4  1  0
  4  5  1  0
  3  6  1  0
  6  7  1  0
  7  8  1  0
  8  9  1  0
  9 10  1  0
 10 11  1  0
 11 12  1  0
 12 13  2  0
 13 14  1  0
 14 15  2  0
 15 16  1  0
 16 17  2  0
 17 18  1  0
 18 19  2  0
 19 20  1  0
 19 21  1  0
 21 22  2  0
 22 23  1  0
 23 24  2  0
 24 25  1  0
 24 26  1  0
 26 27  2  0
 27 12  1  0
 18 13  1  0
 27 21  1  0
  1 28  1  0
  1 29  1  0
  1 30  1  0
  2 31  1  0
  2 32  1  0
  3 33  1  0
  4 34  1  0
  4 35  1  0
  5 36  1  0
  5 37  1  0
  5 38  1  0
  6 39  1  0
  6 40  1  0
  7 41  1  0
  7 42  1  0
  9 43  1  0
  9 44  1  0
 10 45  1  0
 10 46  1  0
 11 47  1  0
 14 48  1  0
 15 49  1  0
 16 50  1  0
 17 51  1  0
 20 52  1  0
 20 53  1  0
 20 54  1  0
 22 55  1  0
 23 56  1  0
 26 57  1  0
M  CHG  2   3   1  19   1
M  END
>  <UniqueID>  (21) 
21

>  <SMILES>  (21) 
CC[NH+](CC)CCOCCNc1c2ccccc2[n+](C)c2ccc(Cl)cc12

>  <Energy>  (21) 
85.29669379450088

>  <Genealogy>  (21) 
CC[NH+](CC)CCOCCNc1c2ccccc2[n+](C)c2ccc(Cl)cc12 (protonated)
CC[NH+](CC)CCOCCNc1c2ccccc2[n+](C)c2ccc(Cl)cc12 (3D coordinates assigned)
CC[NH+](CC)CCOCCNc1c2ccccc2[n+](C)c2ccc(Cl)cc12 (optimized conformer: 85.29669379450088 kcal/mol)

>  <smiles>  (21) 
CCN(CC)CCOCCNc1c2ccccc2[n+](C)c2ccc(Cl)cc12

>  <score_type>  (21) 
oracle

>  <origin>  (21) 
adg

>  <m_score__min__energy>  (21) 
-7.9199999999999999

>  <m_primary>  (21) 
energy

$$$$
21:0
     RDKit          3D

 63 66  0  0  0  0  0  0  0  0999 V2000
   -2.8040   20.3040  -27.4560 C   0  0  0  0  0  0  0  0  0  0  0  0
   -3.4730   21.5680  -27.9960 C   0  0  0  0  0  0  0  0  0  0  0  0
   -2.9610   21.9090  -29.3420 N   0  0  0  0  0  0  0  0  0  0  0  0
   -1.9520   20.9240  -29.8120 C   0  0  0  0  0  0  0  0  0  0  0  0
   -0.5960   21.6060  -29.9410 C   0  0  0  0  0  0  0  0  0  0  0  0
   -2.4260   23.2900  -29.3560 C   0  0  0  0  0  0  0  0  0  0  0  0
   -3.5520   24.3300  -29.2350 C   0  0  0  0  0  0  0  0  0  0  0  0
   -3.8070   24.9750  -30.4690 O   0  0  0  0  0  0  0  0  0  0  0  0
   -5.1900   25.2270  -30.6550 C   0  0  0  0  0  0  0  0  0  0  0  0
   -5.7790   24.1690  -31.5880 C   0  0  0  0  0  0  0  0  0  0  0  0
   -5.1840   22.8510  -31.3580 N   0  0  0  0  0  0  0  0  0  0  0  0
   -5.7140   21.6600  -31.9580 C   0  0  0  0  0  0  0  0  0  0  0  0
   -7.0980   21.3880  -31.9380 C   0  0  0  0  0  0  0  0  0  0  0  0
   -8.0120   22.3340  -31.4320 C   0  0  0  0  0  0  0  0  0  0  0  0
   -9.3820   22.0790  -31.4540 C   0  0  0  0  0  0  0  0  0  0  0  0
   -9.8640   20.8820  -31.9740 C   0  0  0  0  0  0  0  0  0  0  0  0
   -8.9800   19.9190  -32.4610 C   0  0  0  0  0  0  0  0  0  0  0  0
   -7.5800   20.1320  -32.4300 C   0  0  0  0  0  0  0  0  0  0  0  0
   -6.6900   19.1610  -32.8640 N   0  0  0  0  0  0  0  0  0  0  0  0
   -7.1290   17.7610  -33.0020 C   0  0  0  0  0  0  0  0  0  0  0  0
   -5.3730   19.5200  -33.0460 C   0  0  0  0  0  0  0  0  0  0  0  0
   -4.8860   20.7310  -32.5860 C   0  0  0  0  0  0  0  0  0  0  0  0
   -3.5490   20.7780  -32.9390 C   0  0  0  0  0  0  0  0  0  0  0  0
   -2.5870   21.7870  -32.8300 C   0  0  0  0  0  0  0  0  0  0  0  0
   -1.3020   21.5370  -33.3370 C   0  0  0  0  0  0  0  0  0  0  0  0
   -1.0090   20.3090  -33.9610 C   0  0  0  0  0  0  0  0  0  0  0  0
   -2.0010   19.3260  -34.1030 C   0  0  0  0  0  0  0  0  0  0  0  0
   -3.2800   19.5910  -33.5900 C   0  0  0  0  0  0  0  0  0  0  0  0
   -4.3920   18.8200  -33.6960 N   0  0  0  0  0  0  0  0  0  0  0  0
   -4.5060   17.6190  -34.5300 C   0  0  0  0  0  0  0  0  0  0  0  0
   -2.8149   20.3246  -26.3562 H   0  0  0  0  0  0  0  0  0  0  0  0
   -3.3517   19.4188  -27.8116 H   0  0  0  0  0  0  0  0  0  0  0  0
   -1.7640   20.2591  -27.8116 H   0  0  0  0  0  0  0  0  0  0  0  0
   -4.5587   21.4020  -28.0562 H   0  0  0  0  0  0  0  0  0  0  0  0
   -3.2462   22.4013  -27.3147 H   0  0  0  0  0  0  0  0  0  0  0  0
   -1.8799   20.0993  -29.0876 H   0  0  0  0  0  0  0  0  0  0  0  0
   -2.2567   20.5270  -30.7916 H   0  0  0  0  0  0  0  0  0  0  0  0
   -0.1912   21.8096  -28.9387 H   0  0  0  0  0  0  0  0  0  0  0  0
    0.0947   20.9481  -30.4887 H   0  0  0  0  0  0  0  0  0  0  0  0
   -0.7124   22.5528  -30.4887 H   0  0  0  0  0  0  0  0  0  0  0  0
   -1.7326   23.4136  -28.5111 H   0  0  0  0  0  0  0  0  0  0  0  0
   -1.9083   23.4506  -30.3132 H   0  0  0  0  0  0  0  0  0  0  0  0
   -4.4699   23.8238  -28.9015 H   0  0  0  0  0  0  0  0  0  0  0  0
   -3.2355   25.0936  -28.5092 H   0  0  0  0  0  0  0  0  0  0  0  0
   -5.7042   25.1864  -29.6834 H   0  0  0  0  0  0  0  0  0  0  0  0
   -5.3248   26.2242  -31.0994 H   0  0  0  0  0  0  0  0  0  0  0  0
   -6.8635   24.1054  -31.4151 H   0  0  0  0  0  0  0  0  0  0  0  0
   -5.5613   24.4669  -32.6243 H   0  0  0  0  0  0  0  0  0  0  0  0
   -4.2870   22.7870  -30.8260 H   0  0  0  0  0  0  0  0  0  0  0  0
   -7.6407   23.2822  -31.0159 H   0  0  0  0  0  0  0  0  0  0  0  0
  -10.0849   22.8271  -31.0587 H   0  0  0  0  0  0  0  0  0  0  0  0
  -10.9475   20.6940  -32.0013 H   0  0  0  0  0  0  0  0  0  0  0  0
   -9.3761   18.9801  -32.8753 H   0  0  0  0  0  0  0  0  0  0  0  0
   -7.2673   17.3200  -32.0038 H   0  0  0  0  0  0  0  0  0  0  0  0
   -8.0807   17.7277  -33.5526 H   0  0  0  0  0  0  0  0  0  0  0  0
   -6.3667   17.1903  -33.5526 H   0  0  0  0  0  0  0  0  0  0  0  0
   -2.8307   22.7510  -32.3595 H   0  0  0  0  0  0  0  0  0  0  0  0
   -0.5195   22.3047  -33.2463 H   0  0  0  0  0  0  0  0  0  0  0  0
    0.0058   20.1185  -34.3403 H   0  0  0  0  0  0  0  0  0  0  0  0
   -1.7812   18.3717  -34.6040 H   0  0  0  0  0  0  0  0  0  0  0  0
   -4.5902   16.7316  -33.8854 H   0  0  0  0  0  0  0  0  0  0  0  0
   -5.4008   17.6972  -35.1651 H   0  0  0  0  0  0  0  0  0  0  0  0
   -3.6125   17.5274  -35.1651 H   0  0  0  0  0  0  0  0  0  0  0  0
  1  2  1  0
  2  3  1  0
  3  4  1  0
  4  5  1  0
  3  6  1  0
  6  7  1  0
  7  8  1  0
  8  9  1  0
  9 10  1  0
 10 11  1  0
 11 12  1  0
 12 13  2  0
 13 14  1  0
 14 15  2  0
 15 16  1  0
 16 17  2  0
 17 18  1  0
 18 19  2  0
 19 20  1  0
 19 21  1  0
 21 22  2  0
 22 23  1  0
 23 24  2  0
 24 25  1  0
 25 26  2  0
 26 27  1  0
 27 28  2  0
 28 29  1  0
 29 30  1  0
 22 12  1  0
 28 23  1  0
 18 13  1  0
 29 21  1  0
  1 31  1  0
  1 32  1  0
  1 33  1  0
  2 34  1  0
  2 35  1  0
  4 36  1  0
  4 37  1  0
  5 38  1  0
  5 39  1  0
  5 40  1  0
  6 41  1  0
  6 42  1  0
  7 43  1  0
  7 44  1  0
  9 45  1  0
  9 46  1  0
 10 47  1  0
 10 48  1  0
 11 49  1  0
 14 50  1  0
 15 51  1  0
 16 52  1  0
 17 53  1  0
 20 54  1  0
 20 55  1  0
 20 56  1  0
 24 57  1  0
 25 58  1  0
 26 59  1  0
 27 60  1  0
 30 61  1  0
 30 62  1  0
 30 63  1  0
M  CHG  1  19   1
M  END
>  <UniqueID>  (22) 
22

>  <SMILES>  (22) 
CCN(CC)CCOCCNc1c2ccccc2[n+](C)c2c1c1ccccc1n2C

>  <Energy>  (22) 
127.40041060365871

>  <Genealogy>  (22) 
CCN(CC)CCOCCNc1c2ccccc2[n+](C)c2c1c1ccccc1n2C (3D coordinates assigned)
CCN(CC)CCOCCNc1c2ccccc2[n+](C)c2c1c1ccccc1n2C (optimized conformer: 127.40041060365871 kcal/mol)

>  <smiles>  (22) 
CCN(CC)CCOCCNc1c2ccccc2[n+](C)c2c1c1ccccc1n2C

>  <score_type>  (22) 
oracle

>  <origin>  (22) 
adg

>  <m_score__min__energy>  (22) 
-9.0299999999999994

>  <m_primary>  (22) 
energy

$$$$
22:0
     RDKit          3D

 57 60  0  0  0  0  0  0  0  0999 V2000
   -6.8260   17.0120  -33.4810 C   0  0  0  0  0  0  0  0  0  0  0  0
   -7.6010   17.8010  -32.4240 C   0  0  0  0  0  0  0  0  0  0  0  0
   -7.7830   19.2330  -32.8170 N   0  0  0  0  0  0  0  0  0  0  0  0
   -9.1130   19.7440  -32.4000 C   0  0  0  0  0  0  0  0  0  0  0  0
   -9.0530   21.1940  -31.9030 C   0  0  0  0  0  0  0  0  0  0  0  0
   -6.7180   20.0900  -32.2300 C   0  0  0  0  0  0  0  0  0  0  0  0
   -5.3400   19.8430  -32.8760 C   0  0  0  0  0  0  0  0  0  0  0  0
   -4.7050   21.0970  -33.2730 N   0  0  0  0  0  0  0  0  0  0  0  0
   -3.8860   21.8150  -32.3320 C   0  0  0  0  0  0  0  0  0  0  0  0
   -2.4760   21.5080  -32.3390 C   0  0  0  0  0  0  0  0  0  0  0  0
   -1.9760   21.0500  -33.5910 C   0  0  0  0  0  0  0  0  0  0  0  0
   -0.6570   20.6640  -33.7760 C   0  0  0  0  0  0  0  0  0  0  0  0
    0.2340   20.7220  -32.7260 C   0  0  0  0  0  0  0  0  0  0  0  0
   -0.1920   21.1590  -31.4810 C   0  0  0  0  0  0  0  0  0  0  0  0
   -1.5380   21.5450  -31.2250 C   0  0  0  0  0  0  0  0  0  0  0  0
   -1.8640   21.9100  -29.9330 N   0  0  0  0  0  0  0  0  0  0  0  0
   -1.0210   21.5290  -28.7840 C   0  0  0  0  0  0  0  0  0  0  0  0
   -2.8710   22.7690  -29.6880 C   0  0  0  0  0  0  0  0  0  0  0  0
   -3.2550   23.6020  -28.6470 C   0  0  0  0  0  0  0  0  0  0  0  0
   -2.7430   23.9360  -27.2860 C   0  0  0  0  0  0  0  0  0  0  0  0
   -4.3380   24.0050  -29.3900 C   0  0  0  0  0  0  0  0  0  0  0  0
   -5.3970   24.8530  -29.2150 C   0  0  0  0  0  0  0  0  0  0  0  0
   -6.3820   25.0050  -30.1800 C   0  0  0  0  0  0  0  0  0  0  0  0
   -6.4860   24.3380  -31.4130 C   0  0  0  0  0  0  0  0  0  0  0  0
   -5.6730   23.3570  -32.0270 C   0  0  0  0  0  0  0  0  0  0  0  0
   -4.4880   22.8060  -31.5830 N   0  0  0  0  0  0  0  0  0  0  0  0
   -3.9580   23.1710  -30.4070 C   0  0  0  0  0  0  0  0  0  0  0  0
   -6.1381   16.3117  -32.9846 H   0  0  0  0  0  0  0  0  0  0  0  0
   -7.5321   16.4491  -34.1092 H   0  0  0  0  0  0  0  0  0  0  0  0
   -6.2506   17.7079  -34.1092 H   0  0  0  0  0  0  0  0  0  0  0  0
   -8.5910   17.3402  -32.2916 H   0  0  0  0  0  0  0  0  0  0  0  0
   -7.0228   17.7757  -31.4886 H   0  0  0  0  0  0  0  0  0  0  0  0
   -7.7310   19.3380  -33.8580 H   0  0  0  0  0  0  0  0  0  0  0  0
   -9.7964   19.6935  -33.2604 H   0  0  0  0  0  0  0  0  0  0  0  0
   -9.4665   19.1184  -31.5671 H   0  0  0  0  0  0  0  0  0  0  0  0
   -9.0526   21.2049  -30.8031 H   0  0  0  0  0  0  0  0  0  0  0  0
   -8.1343   21.6713  -32.2748 H   0  0  0  0  0  0  0  0  0  0  0  0
   -9.9291   21.7456  -32.2748 H   0  0  0  0  0  0  0  0  0  0  0  0
   -6.9928   21.1449  -32.3770 H   0  0  0  0  0  0  0  0  0  0  0  0
   -6.6369   19.8389  -31.1621 H   0  0  0  0  0  0  0  0  0  0  0  0
   -4.6923   19.3276  -32.1515 H   0  0  0  0  0  0  0  0  0  0  0  0
   -5.4850   19.2282  -33.7765 H   0  0  0  0  0  0  0  0  0  0  0  0
   -4.8810   21.5120  -34.2170 H   0  0  0  0  0  0  0  0  0  0  0  0
   -2.6647   21.0003  -34.4472 H   0  0  0  0  0  0  0  0  0  0  0  0
   -0.3213   20.3110  -34.7622 H   0  0  0  0  0  0  0  0  0  0  0  0
    1.2817   20.4220  -32.8755 H   0  0  0  0  0  0  0  0  0  0  0  0
    0.5381   21.2093  -30.6597 H   0  0  0  0  0  0  0  0  0  0  0  0
   -1.5476   21.7670  -27.8480 H   0  0  0  0  0  0  0  0  0  0  0  0
   -0.8133   20.4495  -28.8236 H   0  0  0  0  0  0  0  0  0  0  0  0
   -0.0735   22.0864  -28.8236 H   0  0  0  0  0  0  0  0  0  0  0  0
   -3.4095   23.5012  -26.5266 H   0  0  0  0  0  0  0  0  0  0  0  0
   -1.7303   23.5243  -27.1640 H   0  0  0  0  0  0  0  0  0  0  0  0
   -2.7117   25.0288  -27.1640 H   0  0  0  0  0  0  0  0  0  0  0  0
   -5.4697   25.4312  -28.2820 H   0  0  0  0  0  0  0  0  0  0  0  0
   -7.1749   25.7331  -29.9537 H   0  0  0  0  0  0  0  0  0  0  0  0
   -7.3610   24.6335  -32.0105 H   0  0  0  0  0  0  0  0  0  0  0  0
   -6.0362   22.9801  -32.9945 H   0  0  0  0  0  0  0  0  0  0  0  0
  1  2  1  0
  2  3  1  0
  3  4  1  0
  4  5  1  0
  3  6  1  0
  6  7  1  0
  7  8  1  0
  8  9  1  0
  9 10  2  0
 10 11  1  0
 11 12  2  0
 12 13  1  0
 13 14  2  0
 14 15  1  0
 15 16  2  0
 16 17  1  0
 16 18  1  0
 18 19  1  0
 19 20  1  0
 19 21  2  0
 21 22  1  0
 22 23  2  0
 23 24  1  0
 24 25  2  0
 25 26  1  0
 26 27  1  0
 26  9  1  0
 15 10  1  0
 27 18  2  0
 27 21  1  0
  1 28  1  0
  1 29  1  0
  1 30  1  0
  2 31  1  0
  2 32  1  0
  3 33  1  0
  4 34  1  0
  4 35  1  0
  5 36  1  0
  5 37  1  0
  5 38  1  0
  6 39  1  0
  6 40  1  0
  7 41  1  0
  7 42  1  0
  8 43  1  0
 11 44  1  0
 12 45  1  0
 13 46  1  0
 14 47  1  0
 17 48  1  0
 17 49  1  0
 17 50  1  0
 20 51  1  0
 20 52  1  0
 20 53  1  0
 22 54  1  0
 23 55  1  0
 24 56  1  0
 25 57  1  0
M  CHG  2   3   1  16   1
M  END
>  <UniqueID>  (23) 
23

>  <SMILES>  (23) 
CC[NH+](CC)CCNc1c2ccccc2[n+](C)c2c(C)c3ccccn1c32

>  <Energy>  (23) 
112.53233001903179

>  <Genealogy>  (23) 
CC[NH+](CC)CCNc1c2ccccc2[n+](C)c2c(C)c3ccccn1c32 (protonated)
CC[NH+](CC)CCNc1c2ccccc2[n+](C)c2c(C)c3ccccn1c32 (3D coordinates assigned)
CC[NH+](CC)CCNc1c2ccccc2[n+](C)c2c(C)c3ccccn1c32 (optimized conformer: 112.53233001903179 kcal/mol)

>  <smiles>  (23) 
CCN(CC)CCNc1c2ccccc2[n+](C)c2c(C)c3ccccn1c32

>  <score_type>  (23) 
oracle

>  <origin>  (23) 
adg

>  <m_score__min__energy>  (23) 
-7.6100000000000003

>  <m_primary>  (23) 
energy

$$$$
23:0
     RDKit          3D

 50 52  0  0  0  0  0  0  0  0999 V2000
    0.3680   23.8170  -28.5700 C   0  0  0  0  0  0  0  0  0  0  0  0
   -0.5630   24.8730  -28.7790 O   0  0  0  0  0  0  0  0  0  0  0  0
   -1.9310   24.7360  -28.5310 C   0  0  0  0  0  0  0  0  0  0  0  0
   -2.8160   24.6340  -29.5620 N   0  0  0  0  0  0  0  0  0  0  0  0
   -4.1490   24.4970  -29.3360 C   0  0  0  0  0  0  0  0  0  0  0  0
   -5.0990   24.3880  -30.5000 C   0  0  0  0  0  0  0  0  0  0  0  0
   -4.8690   23.0820  -31.2990 C   0  0  0  0  0  0  0  0  0  0  0  0
   -5.8760   21.9890  -30.9040 C   0  0  0  0  0  0  0  0  0  0  0  0
   -7.2920   22.4060  -31.0990 N   0  0  0  0  0  0  0  0  0  0  0  0
   -7.8680   21.8590  -32.3450 C   0  0  0  0  0  0  0  0  0  0  0  0
   -7.4140   20.4380  -32.5520 C   0  0  0  0  0  0  0  0  0  0  0  0
   -6.3830   20.1590  -33.4580 C   0  0  0  0  0  0  0  0  0  0  0  0
   -5.9620   18.8420  -33.6700 C   0  0  0  0  0  0  0  0  0  0  0  0
   -6.5670   17.7710  -32.9790 C   0  0  0  0  0  0  0  0  0  0  0  0
   -6.1320   16.4040  -33.1950 N   0  0  0  0  0  0  0  0  0  0  0  0
   -5.0010   15.8540  -32.4380 C   0  0  0  0  0  0  0  0  0  0  0  0
   -6.8160   15.5500  -34.1740 C   0  0  0  0  0  0  0  0  0  0  0  0
   -7.6060   18.0650  -32.0710 C   0  0  0  0  0  0  0  0  0  0  0  0
   -8.0230   19.3830  -31.8590 C   0  0  0  0  0  0  0  0  0  0  0  0
   -7.5150   23.8690  -31.0210 C   0  0  0  0  0  0  0  0  0  0  0  0
   -6.5610   24.5360  -30.0250 C   0  0  0  0  0  0  0  0  0  0  0  0
   -4.6160   24.4620  -28.0590 N   0  0  0  0  0  0  0  0  0  0  0  0
   -3.7710   24.5620  -27.0010 C   0  0  0  0  0  0  0  0  0  0  0  0
   -2.4000   24.7010  -27.2150 C   0  0  0  0  0  0  0  0  0  0  0  0
   -1.2050   24.8400  -25.7280 Br  0  0  0  0  0  0  0  0  0  0  0  0
    0.5071   23.6592  -27.4903 H   0  0  0  0  0  0  0  0  0  0  0  0
   -0.0155   22.8939  -29.0291 H   0  0  0  0  0  0  0  0  0  0  0  0
    1.3319   24.0818  -29.0291 H   0  0  0  0  0  0  0  0  0  0  0  0
   -4.8933   25.2173  -31.1928 H   0  0  0  0  0  0  0  0  0  0  0  0
   -4.9786   23.2967  -32.3723 H   0  0  0  0  0  0  0  0  0  0  0  0
   -3.8574   22.7146  -31.0719 H   0  0  0  0  0  0  0  0  0  0  0  0
   -5.6851   21.0973  -31.5192 H   0  0  0  0  0  0  0  0  0  0  0  0
   -5.7372   21.7850  -29.8320 H   0  0  0  0  0  0  0  0  0  0  0  0
   -8.9657   21.8830  -32.2782 H   0  0  0  0  0  0  0  0  0  0  0  0
   -7.5282   22.4701  -33.1942 H   0  0  0  0  0  0  0  0  0  0  0  0
   -5.9009   20.9814  -34.0068 H   0  0  0  0  0  0  0  0  0  0  0  0
   -5.1499   18.6390  -34.3837 H   0  0  0  0  0  0  0  0  0  0  0  0
   -5.1995   15.9505  -31.3604 H   0  0  0  0  0  0  0  0  0  0  0  0
   -4.8708   14.7920  -32.6932 H   0  0  0  0  0  0  0  0  0  0  0  0
   -4.0852   16.4074  -32.6932 H   0  0  0  0  0  0  0  0  0  0  0  0
   -7.4191   14.7970  -33.6456 H   0  0  0  0  0  0  0  0  0  0  0  0
   -7.4717   16.1681  -34.8049 H   0  0  0  0  0  0  0  0  0  0  0  0
   -6.0697   15.0451  -34.8049 H   0  0  0  0  0  0  0  0  0  0  0  0
   -8.0948   17.2464  -31.5223 H   0  0  0  0  0  0  0  0  0  0  0  0
   -8.8329   19.5926  -31.1448 H   0  0  0  0  0  0  0  0  0  0  0  0
   -7.3542   24.3076  -32.0169 H   0  0  0  0  0  0  0  0  0  0  0  0
   -8.5453   24.0406  -30.6760 H   0  0  0  0  0  0  0  0  0  0  0  0
   -6.8098   25.6045  -29.9444 H   0  0  0  0  0  0  0  0  0  0  0  0
   -6.6694   24.0483  -29.0450 H   0  0  0  0  0  0  0  0  0  0  0  0
   -4.1677   24.5334  -25.9754 H   0  0  0  0  0  0  0  0  0  0  0  0
  1  2  1  0
  2  3  1  0
  3  4  2  0
  4  5  1  0
  5  6  1  0
  6  7  1  0
  7  8  1  0
  8  9  1  0
  9 10  1  0
 10 11  1  0
 11 12  2  0
 12 13  1  0
 13 14  2  0
 14 15  1  0
 15 16  1  0
 15 17  1  0
 14 18  1  0
 18 19  2  0
  9 20  1  0
 20 21  1  0
  5 22  2  0
 22 23  1  0
 23 24  2  0
 24 25  1  0
 24  3  1  0
 21  6  1  0
 19 11  1  0
  1 26  1  0
  1 27  1  0
  1 28  1  0
  6 29  1  0
  7 30  1  0
  7 31  1  0
  8 32  1  0
  8 33  1  0
 10 34  1  0
 10 35  1  0
 12 36  1  0
 13 37  1  0
 16 38  1  0
 16 39  1  0
 16 40  1  0
 17 41  1  0
 17 42  1  0
 17 43  1  0
 18 44  1  0
 19 45  1  0
 20 46  1  0
 20 47  1  0
 21 48  1  0
 21 49  1  0
 23 50  1  0
M  END
>  <UniqueID>  (24) 
24

>  <SMILES>  (24) 
COc1nc(C2CCN(Cc3ccc(N(C)C)cc3)CC2)ncc1Br

>  <Energy>  (24) 
59.100477921087844

>  <Genealogy>  (24) 
COc1nc(C2CCN(Cc3ccc(N(C)C)cc3)CC2)ncc1Br (3D coordinates assigned)
COc1nc(C2CCN(Cc3ccc(N(C)C)cc3)CC2)ncc1Br (nonaromatic ring conformer: 59.100477921087844 kcal/mol)

>  <smiles>  (24) 
COc1nc(C2CCN(Cc3ccc(N(C)C)cc3)CC2)ncc1Br

>  <score_type>  (24) 
oracle

>  <origin>  (24) 
adg

>  <m_score__min__energy>  (24) 
-8.7899999999999991

>  <m_primary>  (24) 
energy

$$$$
24:0
     RDKit          3D

104108  0  0  0  0  0  0  0  0999 V2000
   -5.3275   24.5094  -27.6337 H   0  0  0  0  0  0  0  0  0  0  0  0
   -4.2350   24.3930  -27.6880 C   0  0  0  0  0  0  0  0  0  0  0  0
   -3.6600   23.7360  -28.7640 C   0  0  0  0  0  0  0  0  0  0  0  0
   -4.3950   23.2240  -29.7350 O   0  0  0  0  0  0  0  0  0  0  0  0
   -3.8410   22.5830  -30.7560 C   0  0  0  0  0  0  0  0  0  0  0  0
   -4.6530   22.0300  -31.7410 C   0  0  0  0  0  0  0  0  0  0  0  0
   -5.7461   22.1126  -31.6498 H   0  0  0  0  0  0  0  0  0  0  0  0
   -4.1010   21.3680  -32.8500 C   0  0  0  0  0  0  0  0  0  0  0  0
   -4.9700   20.6670  -33.7680 N   0  0  0  0  0  0  0  0  0  0  0  0
   -5.5040   21.2120  -34.4830 H   0  0  0  0  0  0  0  0  0  0  0  0
   -5.0630   19.2050  -33.8720 C   0  0  0  0  0  0  0  0  0  0  0  0
   -4.8724   18.9068  -34.9135 H   0  0  0  0  0  0  0  0  0  0  0  0
   -4.3164   18.7602  -33.1977 H   0  0  0  0  0  0  0  0  0  0  0  0
   -6.4550   18.7040  -33.4540 C   0  0  0  0  0  0  0  0  0  0  0  0
   -7.1980   19.0699  -34.1779 H   0  0  0  0  0  0  0  0  0  0  0  0
   -6.4327   17.6044  -33.4346 H   0  0  0  0  0  0  0  0  0  0  0  0
   -6.8260   19.1840  -32.0990 N   0  0  0  0  0  0  0  0  0  0  0  0
   -7.5470   20.4730  -32.1180 C   0  0  0  0  0  0  0  0  0  0  0  0
   -7.6049   20.8627  -31.0910 H   0  0  0  0  0  0  0  0  0  0  0  0
   -6.9946   21.1616  -32.7743 H   0  0  0  0  0  0  0  0  0  0  0  0
   -8.9860   20.3260  -32.6800 C   0  0  0  0  0  0  0  0  0  0  0  0
   -9.6799   20.8554  -32.0105 H   0  0  0  0  0  0  0  0  0  0  0  0
   -8.9892   20.7526  -33.6939 H   0  0  0  0  0  0  0  0  0  0  0  0
   -9.4020   18.9760  -32.7860 O   0  0  0  0  0  0  0  0  0  0  0  0
   -9.1290   18.2900  -31.5840 C   0  0  0  0  0  0  0  0  0  0  0  0
   -9.5872   18.8370  -30.7468 H   0  0  0  0  0  0  0  0  0  0  0  0
   -9.5469   17.2753  -31.6597 H   0  0  0  0  0  0  0  0  0  0  0  0
   -7.6040   18.1750  -31.3380 C   0  0  0  0  0  0  0  0  0  0  0  0
   -7.4086   18.3155  -30.2647 H   0  0  0  0  0  0  0  0  0  0  0  0
   -7.2850   17.1798  -31.6813 H   0  0  0  0  0  0  0  0  0  0  0  0
   -2.6840   21.2930  -32.9790 C   0  0  0  0  0  0  0  0  0  0  0  0
   -2.0710   20.8170  -34.2050 N   0  0  0  0  0  0  0  0  0  0  0  0
   -1.3100   21.4550  -34.5350 H   0  0  0  0  0  0  0  0  0  0  0  0
   -2.8000   20.7960  -34.9530 H   0  0  0  0  0  0  0  0  0  0  0  0
   -1.5140   19.4540  -34.0410 C   0  0  0  0  0  0  0  0  0  0  0  0
   -1.9106   19.0131  -33.1145 H   0  0  0  0  0  0  0  0  0  0  0  0
   -1.8062   18.8505  -34.9130 H   0  0  0  0  0  0  0  0  0  0  0  0
    0.0330   19.4880  -33.9630 C   0  0  0  0  0  0  0  0  0  0  0  0
    0.3239   19.4438  -32.9031 H   0  0  0  0  0  0  0  0  0  0  0  0
    0.3929   18.6276  -34.5463 H   0  0  0  0  0  0  0  0  0  0  0  0
    0.6570   20.6930  -34.5640 N   0  0  0  0  0  0  0  0  0  0  0  0
    0.2620   20.9090  -35.9710 C   0  0  0  0  0  0  0  0  0  0  0  0
    0.7663   20.1657  -36.6060 H   0  0  0  0  0  0  0  0  0  0  0  0
   -0.8298   20.8022  -36.0526 H   0  0  0  0  0  0  0  0  0  0  0  0
    0.6590   22.3270  -36.4370 C   0  0  0  0  0  0  0  0  0  0  0  0
    1.1303   22.2514  -37.4280 H   0  0  0  0  0  0  0  0  0  0  0  0
   -0.2582   22.9337  -36.4642 H   0  0  0  0  0  0  0  0  0  0  0  0
    1.6410   23.0200  -35.4790 C   0  0  0  0  0  0  0  0  0  0  0  0
    2.1169   23.8632  -36.0010 H   0  0  0  0  0  0  0  0  0  0  0  0
    1.0804   23.3741  -34.6013 H   0  0  0  0  0  0  0  0  0  0  0  0
    2.7280   22.0490  -35.0020 C   0  0  0  0  0  0  0  0  0  0  0  0
    3.3572   21.7706  -35.8602 H   0  0  0  0  0  0  0  0  0  0  0  0
    3.3185   22.5549  -34.2239 H   0  0  0  0  0  0  0  0  0  0  0  0
    2.1260   20.7640  -34.3860 C   0  0  0  0  0  0  0  0  0  0  0  0
    2.5843   19.8900  -34.8718 H   0  0  0  0  0  0  0  0  0  0  0  0
    2.3350   20.7773  -33.3061 H   0  0  0  0  0  0  0  0  0  0  0  0
   -1.8650   21.7410  -31.9060 C   0  0  0  0  0  0  0  0  0  0  0  0
   -0.4520   21.4700  -31.9000 N   0  0  0  0  0  0  0  0  0  0  0  0
    0.1570   21.9560  -32.6010 H   0  0  0  0  0  0  0  0  0  0  0  0
    0.1990   20.8720  -30.7270 C   0  0  0  0  0  0  0  0  0  0  0  0
    0.4146   21.6658  -29.9966 H   0  0  0  0  0  0  0  0  0  0  0  0
    1.1240   20.3811  -31.0637 H   0  0  0  0  0  0  0  0  0  0  0  0
   -0.6920   19.8050  -30.0560 C   0  0  0  0  0  0  0  0  0  0  0  0
   -0.1969   18.8253  -30.1273 H   0  0  0  0  0  0  0  0  0  0  0  0
   -1.6632   19.7823  -30.5719 H   0  0  0  0  0  0  0  0  0  0  0  0
   -0.9210   20.1310  -28.6270 N   0  0  0  0  0  0  0  0  0  0  0  0
   -0.0810   19.4250  -27.6260 C   0  0  0  0  0  0  0  0  0  0  0  0
   -0.6217   19.4239  -26.6681 H   0  0  0  0  0  0  0  0  0  0  0  0
    0.8742   19.9693  -27.5907 H   0  0  0  0  0  0  0  0  0  0  0  0
    0.2700   17.9690  -27.9760 C   0  0  0  0  0  0  0  0  0  0  0  0
    0.4090   17.3925  -27.0496 H   0  0  0  0  0  0  0  0  0  0  0  0
   -0.5471   17.5261  -28.5644 H   0  0  0  0  0  0  0  0  0  0  0  0
    1.1992   17.9471  -28.5644 H   0  0  0  0  0  0  0  0  0  0  0  0
   -2.3530   20.2500  -28.2440 C   0  0  0  0  0  0  0  0  0  0  0  0
   -2.5904   21.3167  -28.1182 H   0  0  0  0  0  0  0  0  0  0  0  0
   -2.9386   19.7789  -29.0472 H   0  0  0  0  0  0  0  0  0  0  0  0
   -2.7110   19.5200  -26.9460 C   0  0  0  0  0  0  0  0  0  0  0  0
   -2.4097   20.1344  -26.0847 H   0  0  0  0  0  0  0  0  0  0  0  0
   -3.7966   19.3461  -26.9105 H   0  0  0  0  0  0  0  0  0  0  0  0
   -2.1838   18.5552  -26.9105 H   0  0  0  0  0  0  0  0  0  0  0  0
   -2.4370   22.4320  -30.8270 C   0  0  0  0  0  0  0  0  0  0  0  0
   -1.6660   22.9450  -29.8670 O   0  0  0  0  0  0  0  0  0  0  0  0
   -2.1920   23.5950  -28.8350 C   0  0  0  0  0  0  0  0  0  0  0  0
   -1.4010   24.1460  -27.8270 C   0  0  0  0  0  0  0  0  0  0  0  0
   -0.3051   24.0699  -27.8834 H   0  0  0  0  0  0  0  0  0  0  0  0
   -2.0110   24.8040  -26.7300 C   0  0  0  0  0  0  0  0  0  0  0  0
   -1.3120   25.3400  -25.7640 N   0  0  0  0  0  0  0  0  0  0  0  0
   -0.8140   24.6830  -24.5570 C   0  0  0  0  0  0  0  0  0  0  0  0
   -0.7013   25.4300  -23.7574 H   0  0  0  0  0  0  0  0  0  0  0  0
   -1.5311   23.9076  -24.2497 H   0  0  0  0  0  0  0  0  0  0  0  0
    0.5550   24.0210  -24.8330 C   0  0  0  0  0  0  0  0  0  0  0  0
    1.1235   24.6857  -25.5001 H   0  0  0  0  0  0  0  0  0  0  0  0
    1.0209   23.8735  -23.8475 H   0  0  0  0  0  0  0  0  0  0  0  0
    0.5050   22.6780  -25.4620 N   0  0  0  0  0  0  0  0  0  0  0  0
    1.0250   22.6550  -26.8370 C   0  0  0  0  0  0  0  0  0  0  0  0
    2.1237   22.6064  -26.8127 H   0  0  0  0  0  0  0  0  0  0  0  0
    0.6305   21.7734  -27.3635 H   0  0  0  0  0  0  0  0  0  0  0  0
    0.7099   23.5680  -27.3635 H   0  0  0  0  0  0  0  0  0  0  0  0
   -0.8160   22.0360  -25.3770 C   0  0  0  0  0  0  0  0  0  0  0  0
   -1.0913   21.9022  -24.3205 H   0  0  0  0  0  0  0  0  0  0  0  0
   -1.5648   22.6707  -25.8735 H   0  0  0  0  0  0  0  0  0  0  0  0
   -0.7796   21.0551  -25.8735 H   0  0  0  0  0  0  0  0  0  0  0  0
   -3.4230   24.9090  -26.6690 C   0  0  0  0  0  0  0  0  0  0  0  0
   -3.9730   25.4870  -25.6940 O   0  0  0  0  0  0  0  0  0  0  0  0
  1  2  1  0
  2  3  2  0
  3  4  1  0
  4  5  1  0
  5  6  2  0
  6  7  1  0
  6  8  1  0
  8  9  1  0
  9 10  1  0
  9 11  1  0
 11 12  1  0
 11 13  1  0
 11 14  1  0
 14 15  1  0
 14 16  1  0
 14 17  1  0
 17 18  1  0
 18 19  1  0
 18 20  1  0
 18 21  1  0
 21 22  1  0
 21 23  1  0
 21 24  1  0
 24 25  1  0
 25 26  1  0
 25 27  1  0
 25 28  1  0
 28 29  1  0
 28 30  1  0
  8 31  2  0
 31 32  1  0
 32 33  1  0
 32 34  1  0
 32 35  1  0
 35 36  1  0
 35 37  1  0
 35 38  1  0
 38 39  1  0
 38 40  1  0
 38 41  1  0
 41 42  1  0
 42 43  1  0
 42 44  1  0
 42 45  1  0
 45 46  1  0
 45 47  1  0
 45 48  1  0
 48 49  1  0
 48 50  1  0
 48 51  1  0
 51 52  1  0
 51 53  1  0
 51 54  1  0
 54 55  1  0
 54 56  1  0
 31 57  1  0
 57 58  1  0
 58 59  1  0
 58 60  1  0
 60 61  1  0
 60 62  1  0
 60 63  1  0
 63 64  1  0
 63 65  1  0
 63 66  1  0
 66 67  1  0
 67 68  1  0
 67 69  1  0
 67 70  1  0
 70 71  1  0
 70 72  1  0
 70 73  1  0
 66 74  1  0
 74 75  1  0
 74 76  1  0
 74 77  1  0
 77 78  1  0
 77 79  1  0
 77 80  1  0
 57 81  2  0
 81 82  1  0
 82 83  1  0
 83 84  2  0
 84 85  1  0
 84 86  1  0
 86 87  2  0
 87 88  1  0
 88 89  1  0
 88 90  1  0
 88 91  1  0
 91 92  1  0
 91 93  1  0
 91 94  1  0
 94 95  1  0
 95 96  1  0
 95 97  1  0
 95 98  1  0
 94 99  1  0
 99100  1  0
 99101  1  0
 99102  1  0
 86103  1  0
103104  2  0
103  2  1  0
 83  3  1  0
 81  5  1  0
 28 17  1  0
 54 41  1  0
M  CHG  1  32   1
M  END
>  <UniqueID>  (25) 
25

>  <SMILES>  (25) 
CCN(CC)CCNc1c([NH2+]CCN2CCCCC2)c(NCCN2CCOCC2)cc2oc3cc(=O)/c(=N/CCN(C)C)cc-3oc12

>  <Energy>  (25) 
155.32213812175456

>  <Genealogy>  (25) 
CCN(CC)CCNc1c([NH2+]CCN2CCCCC2)c(NCCN2CCOCC2)cc2oc3cc(=O)c(=NCCN(C)C)cc-3oc12 (protonated)
CCN(CC)CCNc1c([NH2+]CCN2CCCCC2)c(NCCN2CCOCC2)cc2oc3cc(=O)/c(=N/CCN(C)C)cc-3oc12 (cis-trans isomerization)
CCN(CC)CCNc1c([NH2+]CCN2CCCCC2)c(NCCN2CCOCC2)cc2oc3cc(=O)/c(=N/CCN(C)C)cc-3oc12 (3D coordinates assigned)
CCN(CC)CCNc1c([NH2+]CCN2CCCCC2)c(NCCN2CCOCC2)cc2oc3cc(=O)/c(=N/CCN(C)C)cc-3oc12 (nonaromatic ring conformer: 155.32213812175456 kcal/mol)

>  <smiles>  (25) 
CCN(CC)CCNc1c(NCCN2CCCCC2)c(NCCN2CCOCC2)cc2oc3cc(=O)c(=NCCN(C)C)cc-3oc12

>  <score_type>  (25) 
oracle

>  <origin>  (25) 
adg

>  <m_score__min__energy>  (25) 
-7.9100000000000001

>  <m_primary>  (25) 
energy

$$$$
25:0
     RDKit          3D

 37 38  0  0  0  0  0  0  0  0999 V2000
   -3.5110   22.4730  -32.0510 N   0  0  0  0  0  0  0  0  0  0  0  0
   -4.6550   22.3010  -32.0430 C   0  0  0  0  0  0  0  0  0  0  0  0
   -6.0810   22.0890  -32.0340 C   0  0  0  0  0  0  0  0  0  0  0  0
   -6.5860   20.8060  -32.2880 C   0  0  0  0  0  0  0  0  0  0  0  0
   -7.9630   20.5790  -32.2770 C   0  0  0  0  0  0  0  0  0  0  0  0
   -8.8430   21.6300  -32.0160 C   0  0  0  0  0  0  0  0  0  0  0  0
   -8.3480   22.9130  -31.7630 C   0  0  0  0  0  0  0  0  0  0  0  0
   -6.9590   23.1550  -31.7640 C   0  0  0  0  0  0  0  0  0  0  0  0
   -6.4170   24.4280  -31.5130 O   0  0  0  0  0  0  0  0  0  0  0  0
   -6.2510   25.0260  -30.2250 C   0  0  0  0  0  0  0  0  0  0  0  0
   -4.7900   24.9270  -29.7480 C   0  0  2  0  0  0  0  0  0  0  0  0
   -3.9170   25.0780  -30.8390 O   0  0  0  0  0  0  0  0  0  0  0  0
   -4.5290   23.5910  -29.0080 C   0  0  0  0  0  0  0  0  0  0  0  0
   -3.3030   22.9110  -29.4690 N   0  0  0  0  0  0  0  0  0  0  0  0
   -2.3510   22.6740  -28.3710 C   0  0  0  0  0  0  0  0  0  0  0  0
   -1.7700   23.9710  -27.8950 C   0  0  0  0  0  0  0  0  0  0  0  0
   -1.6800   24.3840  -26.5730 C   0  0  0  0  0  0  0  0  0  0  0  0
   -1.1620   25.6760  -26.4350 C   0  0  0  0  0  0  0  0  0  0  0  0
   -0.8570   26.2880  -27.6450 C   0  0  0  0  0  0  0  0  0  0  0  0
   -1.2370   25.2190  -28.8880 S   0  0  0  0  0  0  0  0  0  0  0  0
   -5.8950   19.9760  -32.4965 H   0  0  0  0  0  0  0  0  0  0  0  0
   -8.3551   19.5704  -32.4743 H   0  0  0  0  0  0  0  0  0  0  0  0
   -9.9280   21.4489  -32.0093 H   0  0  0  0  0  0  0  0  0  0  0  0
   -9.0466   23.7386  -31.5620 H   0  0  0  0  0  0  0  0  0  0  0  0
   -6.5385   26.0862  -30.2821 H   0  0  0  0  0  0  0  0  0  0  0  0
   -6.8884   24.4888  -29.5073 H   0  0  0  0  0  0  0  0  0  0  0  0
   -4.6027   25.7403  -29.0314 H   0  0  0  0  0  0  0  0  0  0  0  0
   -4.2510   24.5010  -31.5740 H   0  0  0  0  0  0  0  0  0  0  0  0
   -4.4323   23.7984  -27.9321 H   0  0  0  0  0  0  0  0  0  0  0  0
   -5.3773   22.9238  -29.2207 H   0  0  0  0  0  0  0  0  0  0  0  0
   -2.8420   23.4650  -30.2290 H   0  0  0  0  0  0  0  0  0  0  0  0
   -3.5840   21.9850  -29.8710 H   0  0  0  0  0  0  0  0  0  0  0  0
   -2.8742   22.1834  -27.5370 H   0  0  0  0  0  0  0  0  0  0  0  0
   -1.5369   22.0309  -28.7367 H   0  0  0  0  0  0  0  0  0  0  0  0
   -1.9849   23.7590  -25.7207 H   0  0  0  0  0  0  0  0  0  0  0  0
   -1.0102   26.1622  -25.4600 H   0  0  0  0  0  0  0  0  0  0  0  0
   -0.4389   27.2979  -27.7689 H   0  0  0  0  0  0  0  0  0  0  0  0
  1  2  3  0
  2  3  1  0
  3  4  2  0
  4  5  1  0
  5  6  2  0
  6  7  1  0
  7  8  2  0
  8  9  1  0
  9 10  1  0
 10 11  1  0
 11 12  1  0
 11 13  1  0
 13 14  1  0
 14 15  1  0
 15 16  1  0
 16 17  2  0
 17 18  1  0
 18 19  2  0
 19 20  1  0
  8  3  1  0
 20 16  1  0
  4 21  1  0
  5 22  1  0
  6 23  1  0
  7 24  1  0
 10 25  1  0
 10 26  1  0
 11 27  1  1
 12 28  1  0
 13 29  1  0
 13 30  1  0
 14 31  1  0
 14 32  1  0
 15 33  1  0
 15 34  1  0
 17 35  1  0
 18 36  1  0
 19 37  1  0
M  CHG  1  14   1
M  END
>  <UniqueID>  (26) 
26

>  <SMILES>  (26) 
N#Cc1ccccc1OC[C@H](O)C[NH2+]Cc1cccs1

>  <Energy>  (26) 
60.27020985058398

>  <Genealogy>  (26) 
N#Cc1ccccc1OCC(O)C[NH2+]Cc1cccs1 (protonated)
N#Cc1ccccc1OC[C@H](O)C[NH2+]Cc1cccs1 (chirality)
N#Cc1ccccc1OC[C@H](O)C[NH2+]Cc1cccs1 (3D coordinates assigned)
N#Cc1ccccc1OC[C@H](O)C[NH2+]Cc1cccs1 (optimized conformer: 60.27020985058398 kcal/mol)

>  <smiles>  (26) 
N#Cc1ccccc1OCC(O)CNCc1cccs1

>  <score_type>  (26) 
oracle

>  <origin>  (26) 
adg

>  <m_score__min__energy>  (26) 
-5.6200000000000001

>  <m_primary>  (26) 
energy

$$$$
26:0
     RDKit          3D

 37 40  0  0  0  0  0  0  0  0999 V2000
   -5.7410   25.7080  -30.0730 C   0  0  0  0  0  0  0  0  0  0  0  0
   -4.5740   25.0520  -30.5590 O   0  0  0  0  0  0  0  0  0  0  0  0
   -4.5710   23.7820  -31.1560 C   0  0  0  0  0  0  0  0  0  0  0  0
   -5.6420   23.3120  -31.9380 C   0  0  0  0  0  0  0  0  0  0  0  0
   -5.5900   22.0390  -32.5140 C   0  0  0  0  0  0  0  0  0  0  0  0
   -4.4640   21.2210  -32.3290 C   0  0  0  0  0  0  0  0  0  0  0  0
   -4.3960   19.8670  -32.9230 C   0  0  0  0  0  0  0  0  0  0  0  0
   -3.2720   19.3760  -33.4970 N   0  0  0  0  0  0  0  0  0  0  0  0
   -3.5490   18.1450  -33.8880 N   0  0  0  0  0  0  0  0  0  0  0  0
   -2.7130   17.2940  -34.5320 C   0  0  0  0  0  0  0  0  0  0  0  0
   -3.1860   16.0690  -34.8970 N   0  0  0  0  0  0  0  0  0  0  0  0
   -4.4760   15.7040  -34.6290 C   0  0  0  0  0  0  0  0  0  0  0  0
   -5.3420   16.5880  -33.9670 C   0  0  0  0  0  0  0  0  0  0  0  0
   -4.8150   17.8230  -33.5920 C   0  0  0  0  0  0  0  0  0  0  0  0
   -5.4130   18.9020  -32.9650 C   0  0  0  0  0  0  0  0  0  0  0  0
   -6.8290   19.0340  -32.5650 C   0  0  0  0  0  0  0  0  0  0  0  0
   -7.6470   20.0070  -33.1570 C   0  0  0  0  0  0  0  0  0  0  0  0
   -8.9810   20.1190  -32.7600 C   0  0  0  0  0  0  0  0  0  0  0  0
   -9.4810   19.2880  -31.8070 N   0  0  0  0  0  0  0  0  0  0  0  0
   -8.7120   18.3350  -31.2180 C   0  0  0  0  0  0  0  0  0  0  0  0
   -7.3720   18.1900  -31.5860 C   0  0  0  0  0  0  0  0  0  0  0  0
   -3.4060   21.6840  -31.5310 C   0  0  0  0  0  0  0  0  0  0  0  0
   -3.4590   22.9560  -30.9560 C   0  0  0  0  0  0  0  0  0  0  0  0
   -5.7329   25.7035  -28.9730 H   0  0  0  0  0  0  0  0  0  0  0  0
   -5.7556   26.7465  -30.4353 H   0  0  0  0  0  0  0  0  0  0  0  0
   -6.6358   25.1807  -30.4353 H   0  0  0  0  0  0  0  0  0  0  0  0
   -6.5245   23.9491  -32.0970 H   0  0  0  0  0  0  0  0  0  0  0  0
   -6.4364   21.6762  -33.1157 H   0  0  0  0  0  0  0  0  0  0  0  0
   -1.6761   17.5857  -34.7550 H   0  0  0  0  0  0  0  0  0  0  0  0
   -4.8375   14.7110  -34.9342 H   0  0  0  0  0  0  0  0  0  0  0  0
   -6.3872   16.3191  -33.7541 H   0  0  0  0  0  0  0  0  0  0  0  0
   -7.2406   20.6773  -33.9287 H   0  0  0  0  0  0  0  0  0  0  0  0
   -9.6284   20.8807  -33.2189 H   0  0  0  0  0  0  0  0  0  0  0  0
   -9.1451   17.6768  -30.4504 H   0  0  0  0  0  0  0  0  0  0  0  0
   -6.7474   17.4191  -31.1110 H   0  0  0  0  0  0  0  0  0  0  0  0
   -2.5302   21.0415  -31.3575 H   0  0  0  0  0  0  0  0  0  0  0  0
   -2.6194   23.3115  -30.3406 H   0  0  0  0  0  0  0  0  0  0  0  0
  1  2  1  0
  2  3  1  0
  3  4  2  0
  4  5  1  0
  5  6  2  0
  6  7  1  0
  7  8  2  0
  8  9  1  0
  9 10  1  0
 10 11  2  0
 11 12  1  0
 12 13  2  0
 13 14  1  0
 14 15  2  0
 15 16  1  0
 16 17  2  0
 17 18  1  0
 18 19  2  0
 19 20  1  0
 20 21  2  0
  6 22  1  0
 22 23  2  0
 23  3  1  0
 15  7  1  0
 21 16  1  0
 14  9  1  0
  1 24  1  0
  1 25  1  0
  1 26  1  0
  4 27  1  0
  5 28  1  0
 10 29  1  0
 12 30  1  0
 13 31  1  0
 17 32  1  0
 18 33  1  0
 20 34  1  0
 21 35  1  0
 22 36  1  0
 23 37  1  0
M  END
>  <UniqueID>  (27) 
27

>  <SMILES>  (27) 
COc1ccc(-c2nn3cnccc3c2-c2ccncc2)cc1

>  <Energy>  (27) 
87.39078265481486

>  <Genealogy>  (27) 
COc1ccc(-c2nn3cnccc3c2-c2ccncc2)cc1 (3D coordinates assigned)
COc1ccc(-c2nn3cnccc3c2-c2ccncc2)cc1 (optimized conformer: 87.39078265481486 kcal/mol)

>  <smiles>  (27) 
COc1ccc(-c2nn3cnccc3c2-c2ccncc2)cc1

>  <score_type>  (27) 
oracle

>  <origin>  (27) 
adg

>  <m_score__min__energy>  (27) 
-7.8600000000000003

>  <m_primary>  (27) 
energy

$$$$
27:0
     RDKit          3D

 41 43  0  0  0  0  0  0  0  0999 V2000
   -3.2398   25.3692  -29.3592 H   0  0  0  0  0  0  0  0  0  0  0  0
   -3.7160   24.5460  -29.9120 C   0  0  0  0  0  0  0  0  0  0  0  0
   -4.6060   24.8520  -30.8130 N   0  0  0  0  0  0  0  0  0  0  0  0
   -5.9890   24.4760  -30.8150 C   0  0  0  0  0  0  0  0  0  0  0  0
   -6.8080   25.1900  -30.1750 O   0  0  0  0  0  0  0  0  0  0  0  0
   -6.4560   23.2320  -31.4700 C   0  0  0  0  0  0  0  0  0  0  0  0
   -5.5140   22.3350  -32.0250 C   0  0  0  0  0  0  0  0  0  0  0  0
   -4.4345   22.5431  -31.9880 H   0  0  0  0  0  0  0  0  0  0  0  0
   -6.0080   21.1800  -32.6190 C   0  0  0  0  0  0  0  0  0  0  0  0
   -5.3830   20.1170  -33.2330 C   0  0  0  0  0  0  0  0  0  0  0  0
   -4.0390   19.8390  -33.4710 C   0  0  0  0  0  0  0  0  0  0  0  0
   -3.2479   20.5322  -33.1489 H   0  0  0  0  0  0  0  0  0  0  0  0
   -3.7300   18.6400  -34.1380 C   0  0  0  0  0  0  0  0  0  0  0  0
   -2.6797   18.3860  -34.3438 H   0  0  0  0  0  0  0  0  0  0  0  0
   -4.7560   17.7590  -34.5460 C   0  0  0  0  0  0  0  0  0  0  0  0
   -4.4982   16.8251  -35.0669 H   0  0  0  0  0  0  0  0  0  0  0  0
   -6.1070   18.0670  -34.2910 C   0  0  0  0  0  0  0  0  0  0  0  0
   -6.9126   17.3869  -34.6047 H   0  0  0  0  0  0  0  0  0  0  0  0
   -6.3910   19.2600  -33.6290 C   0  0  0  0  0  0  0  0  0  0  0  0
   -7.6090   19.7370  -33.2920 N   0  0  0  0  0  0  0  0  0  0  0  0
   -8.5390   19.2970  -33.4680 H   0  0  0  0  0  0  0  0  0  0  0  0
   -7.3540   20.9110  -32.6750 C   0  0  0  0  0  0  0  0  0  0  0  0
   -8.2720   21.8030  -32.1330 C   0  0  0  0  0  0  0  0  0  0  0  0
   -9.3514   21.5953  -32.1760 H   0  0  0  0  0  0  0  0  0  0  0  0
   -7.8020   22.9450  -31.5450 N   0  0  0  0  0  0  0  0  0  0  0  0
   -8.5030   23.6130  -31.1530 H   0  0  0  0  0  0  0  0  0  0  0  0
   -3.2940   23.1290  -29.5760 C   0  0  0  0  0  0  0  0  0  0  0  0
   -4.1288   22.4536  -29.8146 H   0  0  0  0  0  0  0  0  0  0  0  0
   -3.0338   23.1190  -28.5073 H   0  0  0  0  0  0  0  0  0  0  0  0
   -2.0950   22.6670  -30.3140 N   0  0  0  0  0  0  0  0  0  0  0  0
   -0.8460   22.6600  -29.5350 C   0  0  0  0  0  0  0  0  0  0  0  0
   -1.0837   22.6613  -28.4610 H   0  0  0  0  0  0  0  0  0  0  0  0
   -0.2655   21.7586  -29.7809 H   0  0  0  0  0  0  0  0  0  0  0  0
   -0.2554   23.5548  -29.7809 H   0  0  0  0  0  0  0  0  0  0  0  0
   -2.2860   21.4760  -31.1680 C   0  0  0  0  0  0  0  0  0  0  0  0
   -3.2571   21.5685  -31.6764 H   0  0  0  0  0  0  0  0  0  0  0  0
   -2.2333   20.6002  -30.5046 H   0  0  0  0  0  0  0  0  0  0  0  0
   -1.2030   21.2860  -32.2330 C   0  0  0  0  0  0  0  0  0  0  0  0
   -0.2329   21.1158  -31.7432 H   0  0  0  0  0  0  0  0  0  0  0  0
   -1.4541   20.4182  -32.8606 H   0  0  0  0  0  0  0  0  0  0  0  0
   -1.1437   22.1875  -32.8606 H   0  0  0  0  0  0  0  0  0  0  0  0
  1  2  1  0
  2  3  2  0
  3  4  1  0
  4  5  2  0
  4  6  1  0
  6  7  2  0
  7  8  1  0
  7  9  1  0
  9 10  1  0
 10 11  2  0
 11 12  1  0
 11 13  1  0
 13 14  1  0
 13 15  2  0
 15 16  1  0
 15 17  1  0
 17 18  1  0
 17 19  2  0
 19 20  1  0
 20 21  1  0
 20 22  1  0
 22 23  1  0
 23 24  1  0
 23 25  2  0
 25 26  1  0
  2 27  1  0
 27 28  1  0
 27 29  1  0
 27 30  1  0
 30 31  1  0
 31 32  1  0
 31 33  1  0
 31 34  1  0
 30 35  1  0
 35 36  1  0
 35 37  1  0
 35 38  1  0
 38 39  1  0
 38 40  1  0
 38 41  1  0
 25  6  1  0
 22  9  2  0
 19 10  1  0
M  CHG  1  25   1
M  END
>  <UniqueID>  (28) 
28

>  <SMILES>  (28) 
CCN(C)C/C=N\C(=O)c1cc2c(c[nH+]1)[nH]c1ccccc12

>  <Energy>  (28) 
99.34762075034973

>  <Genealogy>  (28) 
CCN(C)CC=NC(=O)c1cc2c(c[nH+]1)[nH]c1ccccc12 (protonated)
CCN(C)C/C=N\C(=O)c1cc2c(c[nH+]1)[nH]c1ccccc12 (cis-trans isomerization)
CCN(C)C/C=N\C(=O)c1cc2c(c[nH+]1)[nH]c1ccccc12 (3D coordinates assigned)
CCN(C)C/C=N\C(=O)c1cc2c(c[nH+]1)[nH]c1ccccc12 (optimized conformer: 99.34762075034973 kcal/mol)

>  <smiles>  (28) 
CCN(C)CC=NC(=O)c1cc2c(cn1)[nH]c1ccccc12

>  <score_type>  (28) 
oracle

>  <origin>  (28) 
adg

>  <m_score__min__energy>  (28) 
-6.9299999999999997

>  <m_primary>  (28) 
energy

$$$$
28:0
     RDKit          3D

 67 67  0  0  0  0  0  0  0  0999 V2000
   -0.1690   22.8730  -24.3530 C   0  0  0  0  0  0  0  0  0  0  0  0
   -0.8410   21.9340  -25.3610 C   0  0  0  0  0  0  0  0  0  0  0  0
   -0.5160   22.2840  -26.7530 N   0  0  0  0  0  0  0  0  0  0  0  0
   -0.2400   23.7170  -26.9110 C   0  0  0  0  0  0  0  0  0  0  0  0
    0.2720   23.9940  -28.3250 C   0  0  0  0  0  0  0  0  0  0  0  0
   -0.8720   24.1610  -29.3220 C   0  0  0  0  0  0  0  0  0  0  0  0
   -2.0330   23.3750  -28.8800 N   0  0  0  0  0  0  0  0  0  0  0  0
   -3.2940   24.0800  -29.1510 C   0  0  0  0  0  0  0  0  0  0  0  0
   -4.4740   23.2620  -28.6200 C   0  0  0  0  0  0  0  0  0  0  0  0
   -4.0560   22.2630  -27.5270 C   0  0  0  0  0  0  0  0  0  0  0  0
   -3.1680   21.2080  -28.0440 N   0  0  0  0  0  0  0  0  0  0  0  0
   -3.0970   20.0560  -27.1270 C   0  0  0  0  0  0  0  0  0  0  0  0
   -1.7400   19.3370  -27.2160 C   0  0  0  0  0  0  0  0  0  0  0  0
   -1.1100   19.3830  -28.6150 C   0  0  0  0  0  0  0  0  0  0  0  0
   -0.7530   20.7580  -28.9960 N   0  0  0  0  0  0  0  0  0  0  0  0
    0.1470   20.7430  -30.1560 C   0  0  0  0  0  0  0  0  0  0  0  0
   -0.5970   21.1730  -31.4250 C   0  0  0  0  0  0  0  0  0  0  0  0
   -1.9370   20.4440  -31.5710 C   0  0  0  0  0  0  0  0  0  0  0  0
   -3.0110   21.1950  -30.9050 N   0  0  0  0  0  0  0  0  0  0  0  0
   -3.5650   22.2690  -31.7490 C   0  0  0  0  0  0  0  0  0  0  0  0
   -5.0740   22.2200  -31.8230 C   0  0  0  0  0  0  0  0  0  0  0  0
   -5.7330   20.9870  -31.9670 C   0  0  0  0  0  0  0  0  0  0  0  0
   -7.1300   20.9370  -32.0260 C   0  0  0  0  0  0  0  0  0  0  0  0
   -7.8770   22.1150  -31.9410 C   0  0  0  0  0  0  0  0  0  0  0  0
   -7.2300   23.3450  -31.7960 C   0  0  0  0  0  0  0  0  0  0  0  0
   -5.8340   23.4000  -31.7380 C   0  0  0  0  0  0  0  0  0  0  0  0
   -0.4052   22.5430  -23.3306 H   0  0  0  0  0  0  0  0  0  0  0  0
    0.9206   22.8522  -24.5025 H   0  0  0  0  0  0  0  0  0  0  0  0
   -0.5402   23.8976  -24.5025 H   0  0  0  0  0  0  0  0  0  0  0  0
   -0.5025   20.9056  -25.1666 H   0  0  0  0  0  0  0  0  0  0  0  0
   -1.9297   22.0291  -25.2355 H   0  0  0  0  0  0  0  0  0  0  0  0
   -1.3060   22.0040  -27.3830 H   0  0  0  0  0  0  0  0  0  0  0  0
   -1.1644   24.2879  -26.7392 H   0  0  0  0  0  0  0  0  0  0  0  0
    0.5252   24.0216  -26.1819 H   0  0  0  0  0  0  0  0  0  0  0  0
    0.8702   24.9170  -28.3122 H   0  0  0  0  0  0  0  0  0  0  0  0
    0.8783   23.1330  -28.6429 H   0  0  0  0  0  0  0  0  0  0  0  0
   -1.1514   25.2231  -29.3834 H   0  0  0  0  0  0  0  0  0  0  0  0
   -0.5475   23.8067  -30.3115 H   0  0  0  0  0  0  0  0  0  0  0  0
   -2.0420   22.4680  -29.4060 H   0  0  0  0  0  0  0  0  0  0  0  0
   -3.2773   25.0610  -28.6537 H   0  0  0  0  0  0  0  0  0  0  0  0
   -3.4069   24.2149  -30.2368 H   0  0  0  0  0  0  0  0  0  0  0  0
   -5.2206   23.9520  -28.2000 H   0  0  0  0  0  0  0  0  0  0  0  0
   -4.8844   22.6839  -29.4610 H   0  0  0  0  0  0  0  0  0  0  0  0
   -3.5296   22.8097  -26.7307 H   0  0  0  0  0  0  0  0  0  0  0  0
   -4.9678   21.7790  -27.1470 H   0  0  0  0  0  0  0  0  0  0  0  0
   -2.2130   21.6340  -28.1170 H   0  0  0  0  0  0  0  0  0  0  0  0
   -3.2445   20.4117  -26.0966 H   0  0  0  0  0  0  0  0  0  0  0  0
   -3.8819   19.3412  -27.4150 H   0  0  0  0  0  0  0  0  0  0  0  0
   -1.0470   19.8134  -26.5069 H   0  0  0  0  0  0  0  0  0  0  0  0
   -1.9201   18.2782  -26.9783 H   0  0  0  0  0  0  0  0  0  0  0  0
   -0.2015   18.7628  -28.6193 H   0  0  0  0  0  0  0  0  0  0  0  0
   -1.8451   19.0021  -29.3392 H   0  0  0  0  0  0  0  0  0  0  0  0
   -1.6260   21.2580  -29.2860 H   0  0  0  0  0  0  0  0  0  0  0  0
    0.9816   21.4362  -29.9744 H   0  0  0  0  0  0  0  0  0  0  0  0
    0.5245   19.7195  -30.2973 H   0  0  0  0  0  0  0  0  0  0  0  0
   -0.7836   22.2561  -31.3791 H   0  0  0  0  0  0  0  0  0  0  0  0
    0.0288   20.9172  -32.2927 H   0  0  0  0  0  0  0  0  0  0  0  0
   -2.1774   20.3404  -32.6394 H   0  0  0  0  0  0  0  0  0  0  0  0
   -1.8540   19.4528  -31.1012 H   0  0  0  0  0  0  0  0  0  0  0  0
   -2.6300   21.6160  -30.0250 H   0  0  0  0  0  0  0  0  0  0  0  0
   -3.2628   23.2400  -31.3296 H   0  0  0  0  0  0  0  0  0  0  0  0
   -3.1736   22.1320  -32.7678 H   0  0  0  0  0  0  0  0  0  0  0  0
   -5.1482   20.0577  -32.0336 H   0  0  0  0  0  0  0  0  0  0  0  0
   -7.6409   19.9694  -32.1394 H   0  0  0  0  0  0  0  0  0  0  0  0
   -8.9752   22.0739  -31.9883 H   0  0  0  0  0  0  0  0  0  0  0  0
   -7.8196   24.2711  -31.7274 H   0  0  0  0  0  0  0  0  0  0  0  0
   -5.3283   24.3703  -31.6254 H   0  0  0  0  0  0  0  0  0  0  0  0
  1  2  1  0
  2  3  1  0
  3  4  1  0
  4  5  1  0
  5  6  1  0
  6  7  1  0
  7  8  1  0
  8  9  1  0
  9 10  1  0
 10 11  1  0
 11 12  1  0
 12 13  1  0
 13 14  1  0
 14 15  1  0
 15 16  1  0
 16 17  1  0
 17 18  1  0
 18 19  1  0
 19 20  1  0
 20 21  1  0
 21 22  2  0
 22 23  1  0
 23 24  2  0
 24 25  1  0
 25 26  2  0
 26 21  1  0
  1 27  1  0
  1 28  1  0
  1 29  1  0
  2 30  1  0
  2 31  1  0
  3 32  1  0
  4 33  1  0
  4 34  1  0
  5 35  1  0
  5 36  1  0
  6 37  1  0
  6 38  1  0
  7 39  1  0
  8 40  1  0
  8 41  1  0
  9 42  1  0
  9 43  1  0
 10 44  1  0
 10 45  1  0
 11 46  1  0
 12 47  1  0
 12 48  1  0
 13 49  1  0
 13 50  1  0
 14 51  1  0
 14 52  1  0
 15 53  1  0
 16 54  1  0
 16 55  1  0
 17 56  1  0
 17 57  1  0
 18 58  1  0
 18 59  1  0
 19 60  1  0
 20 61  1  0
 20 62  1  0
 22 63  1  0
 23 64  1  0
 24 65  1  0
 25 66  1  0
 26 67  1  0
M  END
>  <UniqueID>  (29) 
29

>  <SMILES>  (29) 
CCNCCCNCCCNCCCNCCCNCc1ccccc1

>  <Energy>  (29) 
40.818383148822235

>  <Genealogy>  (29) 
CCNCCCNCCCNCCCNCCCNCc1ccccc1 (3D coordinates assigned)
CCNCCCNCCCNCCCNCCCNCc1ccccc1 (optimized conformer: 40.818383148822235 kcal/mol)

>  <smiles>  (29) 
CCNCCCNCCCNCCCNCCCNCc1ccccc1

>  <score_type>  (29) 
oracle

>  <origin>  (29) 
adg

>  <m_score__min__energy>  (29) 
-6.5700000000000003

>  <m_primary>  (29) 
energy

$$$$
29:0
     RDKit          3D

 48 50  0  0  0  0  0  0  0  0999 V2000
   -3.8280   21.7220  -33.0220 C   0  0  0  0  0  0  0  0  0  0  0  0
   -2.6710   21.0170  -33.6040 N   0  0  0  0  0  0  0  0  0  0  0  0
   -1.5090   21.1570  -32.7080 C   0  0  0  0  0  0  0  0  0  0  0  0
   -3.0170   19.5910  -33.8320 C   0  0  0  0  0  0  0  0  0  0  0  0
   -3.9720   19.0190  -32.7670 C   0  0  0  0  0  0  0  0  0  0  0  0
   -5.1800   18.4470  -33.3800 N   0  0  0  0  0  0  0  0  0  0  0  0
   -6.1210   19.3230  -34.0880 C   0  0  0  0  0  0  0  0  0  0  0  0
   -7.1660   19.8290  -33.1320 C   0  0  0  0  0  0  0  0  0  0  0  0
   -7.1150   21.1580  -32.6770 C   0  0  0  0  0  0  0  0  0  0  0  0
   -8.0600   21.6240  -31.7580 C   0  0  0  0  0  0  0  0  0  0  0  0
   -9.0550   20.7650  -31.2800 C   0  0  0  0  0  0  0  0  0  0  0  0
   -9.1050   19.4400  -31.7210 C   0  0  0  0  0  0  0  0  0  0  0  0
   -8.1620   18.9690  -32.6410 C   0  0  0  0  0  0  0  0  0  0  0  0
   -5.3720   17.0200  -33.4170 C   0  0  0  0  0  0  0  0  0  0  0  0
   -6.3940   16.4570  -34.1890 C   0  0  0  0  0  0  0  0  0  0  0  0
   -6.5640   15.0760  -34.2180 C   0  0  0  0  0  0  0  0  0  0  0  0
   -5.7070   14.2560  -33.4720 C   0  0  0  0  0  0  0  0  0  0  0  0
   -5.8760   12.8630  -33.4960 C   0  0  0  0  0  0  0  0  0  0  0  0
   -5.0220   12.0550  -32.7500 C   0  0  0  0  0  0  0  0  0  0  0  0
   -4.0110   12.6330  -31.9870 C   0  0  0  0  0  0  0  0  0  0  0  0
   -3.8620   14.0220  -31.9810 C   0  0  0  0  0  0  0  0  0  0  0  0
   -4.7020   14.8170  -32.7120 N   0  0  0  0  0  0  0  0  0  0  0  0
   -4.5320   16.1740  -32.6800 C   0  0  0  0  0  0  0  0  0  0  0  0
   -3.7661   21.6843  -31.9244 H   0  0  0  0  0  0  0  0  0  0  0  0
   -3.8231   22.7708  -33.3537 H   0  0  0  0  0  0  0  0  0  0  0  0
   -4.7578   21.2368  -33.3537 H   0  0  0  0  0  0  0  0  0  0  0  0
   -2.4470   21.4830  -34.5140 H   0  0  0  0  0  0  0  0  0  0  0  0
   -1.8458   21.1164  -31.6616 H   0  0  0  0  0  0  0  0  0  0  0  0
   -0.7996   20.3378  -32.8969 H   0  0  0  0  0  0  0  0  0  0  0  0
   -1.0144   22.1212  -32.8969 H   0  0  0  0  0  0  0  0  0  0  0  0
   -3.4983   19.5015  -34.8170 H   0  0  0  0  0  0  0  0  0  0  0  0
   -2.0816   19.0151  -33.7745 H   0  0  0  0  0  0  0  0  0  0  0  0
   -3.4495   18.2317  -32.2039 H   0  0  0  0  0  0  0  0  0  0  0  0
   -4.2776   19.8390  -32.1004 H   0  0  0  0  0  0  0  0  0  0  0  0
   -5.5741   20.1761  -34.5158 H   0  0  0  0  0  0  0  0  0  0  0  0
   -6.6104   18.7545  -34.8926 H   0  0  0  0  0  0  0  0  0  0  0  0
   -6.3289   21.8337  -33.0452 H   0  0  0  0  0  0  0  0  0  0  0  0
   -8.0210   22.6670  -31.4106 H   0  0  0  0  0  0  0  0  0  0  0  0
   -9.7981   21.1325  -30.5570 H   0  0  0  0  0  0  0  0  0  0  0  0
   -9.8878   18.7655  -31.3438 H   0  0  0  0  0  0  0  0  0  0  0  0
   -8.2007   17.9234  -32.9804 H   0  0  0  0  0  0  0  0  0  0  0  0
   -7.0632   17.1059  -34.7731 H   0  0  0  0  0  0  0  0  0  0  0  0
   -7.3671   14.6305  -34.8235 H   0  0  0  0  0  0  0  0  0  0  0  0
   -6.6775   12.4127  -34.0999 H   0  0  0  0  0  0  0  0  0  0  0  0
   -5.1459   10.9621  -32.7635 H   0  0  0  0  0  0  0  0  0  0  0  0
   -3.3345   12.0006  -31.3933 H   0  0  0  0  0  0  0  0  0  0  0  0
   -3.0613   14.4812  -31.3826 H   0  0  0  0  0  0  0  0  0  0  0  0
   -3.7264   16.6064  -32.0685 H   0  0  0  0  0  0  0  0  0  0  0  0
  1  2  1  0
  2  3  1  0
  2  4  1  0
  4  5  1  0
  5  6  1  0
  6  7  1  0
  7  8  1  0
  8  9  2  0
  9 10  1  0
 10 11  2  0
 11 12  1  0
 12 13  2  0
  6 14  1  0
 14 15  2  0
 15 16  1  0
 16 17  2  0
 17 18  1  0
 18 19  2  0
 19 20  1  0
 20 21  2  0
 21 22  1  0
 22 23  2  0
 13  8  1  0
 23 14  1  0
 22 17  1  0
  1 24  1  0
  1 25  1  0
  1 26  1  0
  2 27  1  0
  3 28  1  0
  3 29  1  0
  3 30  1  0
  4 31  1  0
  4 32  1  0
  5 33  1  0
  5 34  1  0
  7 35  1  0
  7 36  1  0
  9 37  1  0
 10 38  1  0
 11 39  1  0
 12 40  1  0
 13 41  1  0
 15 42  1  0
 16 43  1  0
 18 44  1  0
 19 45  1  0
 20 46  1  0
 21 47  1  0
 23 48  1  0
M  CHG  2   2   1  22   1
M  END
>  <UniqueID>  (30) 
30

>  <SMILES>  (30) 
C[NH+](C)CCN(Cc1ccccc1)c1ccc2cccc[n+]2c1

>  <Energy>  (30) 
53.853577112834515

>  <Genealogy>  (30) 
C[NH+](C)CCN(Cc1ccccc1)c1ccc2cccc[n+]2c1 (protonated)
C[NH+](C)CCN(Cc1ccccc1)c1ccc2cccc[n+]2c1 (3D coordinates assigned)
C[NH+](C)CCN(Cc1ccccc1)c1ccc2cccc[n+]2c1 (optimized conformer: 53.853577112834515 kcal/mol)

>  <smiles>  (30) 
CN(C)CCN(Cc1ccccc1)c1ccc2cccc[n+]2c1

>  <score_type>  (30) 
oracle

>  <origin>  (30) 
adg

>  <m_score__min__energy>  (30) 
-5.9000000000000004

>  <m_primary>  (30) 
energy

$$$$
30:0
     RDKit          3D

 66 69  0  0  0  0  0  0  0  0999 V2000
   -2.2340   20.5070  -31.5560 C   0  0  0  0  0  0  0  0  0  0  0  0
   -1.7140   20.8840  -30.2220 N   0  0  0  0  0  0  0  0  0  0  0  0
   -0.8700   20.0240  -29.5440 C   0  0  0  0  0  0  0  0  0  0  0  0
   -0.2450   18.9270  -30.1920 C   0  0  0  0  0  0  0  0  0  0  0  0
    0.5650   18.0390  -29.4870 C   0  0  0  0  0  0  0  0  0  0  0  0
    0.7880   18.2240  -28.1280 C   0  0  0  0  0  0  0  0  0  0  0  0
    0.2260   19.3160  -27.4730 C   0  0  0  0  0  0  0  0  0  0  0  0
   -0.5850   20.2400  -28.1680 C   0  0  0  0  0  0  0  0  0  0  0  0
   -1.0840   21.3890  -27.5270 C   0  0  0  0  0  0  0  0  0  0  0  0
   -0.7530   21.6470  -26.1490 N   0  0  0  0  0  0  0  0  0  0  0  0
    0.1320   22.7460  -25.7530 C   0  0  0  0  0  0  0  0  0  0  0  0
   -0.4740   23.5590  -24.5940 C   0  0  0  0  0  0  0  0  0  0  0  0
    0.3540   24.7370  -24.2250 N   0  0  0  0  0  0  0  0  0  0  0  0
   -0.5100   25.8790  -23.8740 C   0  0  0  0  0  0  0  0  0  0  0  0
    1.2560   25.1260  -25.3260 C   0  0  0  0  0  0  0  0  0  0  0  0
   -1.8550   22.3090  -28.2600 C   0  0  0  0  0  0  0  0  0  0  0  0
   -2.3990   23.4540  -27.6420 C   0  0  0  0  0  0  0  0  0  0  0  0
   -3.0900   24.4060  -28.3860 C   0  0  0  0  0  0  0  0  0  0  0  0
   -3.2530   24.2520  -29.7590 C   0  0  0  0  0  0  0  0  0  0  0  0
   -3.9130   25.2740  -30.4630 O   0  0  0  0  0  0  0  0  0  0  0  0
   -5.3280   25.4650  -30.5150 C   0  0  0  0  0  0  0  0  0  0  0  0
   -5.9550   24.5430  -31.5700 C   0  0  0  0  0  0  0  0  0  0  0  0
   -5.9430   23.1300  -31.1310 N   0  0  0  0  0  0  0  0  0  0  0  0
   -5.6120   22.2140  -32.2570 C   0  0  0  0  0  0  0  0  0  0  0  0
   -6.1770   20.8020  -32.0540 C   0  0  0  0  0  0  0  0  0  0  0  0
   -7.7110   20.8330  -31.9650 C   0  0  0  0  0  0  0  0  0  0  0  0
   -8.2420   22.1400  -31.3510 C   0  0  0  0  0  0  0  0  0  0  0  0
   -7.2010   22.7760  -30.4200 C   0  0  0  0  0  0  0  0  0  0  0  0
   -2.7660   23.0880  -30.3790 C   0  0  0  0  0  0  0  0  0  0  0  0
   -2.1100   22.0730  -29.6360 C   0  0  0  0  0  0  0  0  0  0  0  0
   -3.1193   19.8652  -31.4365 H   0  0  0  0  0  0  0  0  0  0  0  0
   -2.5117   21.4150  -32.1113 H   0  0  0  0  0  0  0  0  0  0  0  0
   -1.4573   19.9607  -32.1113 H   0  0  0  0  0  0  0  0  0  0  0  0
   -0.4028   18.7750  -31.2700 H   0  0  0  0  0  0  0  0  0  0  0  0
    1.0294   17.1888  -30.0080 H   0  0  0  0  0  0  0  0  0  0  0  0
    1.4086   17.5075  -27.5699 H   0  0  0  0  0  0  0  0  0  0  0  0
    0.4161   19.4613  -26.3993 H   0  0  0  0  0  0  0  0  0  0  0  0
   -0.9710   20.9140  -25.4370 H   0  0  0  0  0  0  0  0  0  0  0  0
    1.0989   22.3305  -25.4328 H   0  0  0  0  0  0  0  0  0  0  0  0
    0.2641   23.4151  -26.6161 H   0  0  0  0  0  0  0  0  0  0  0  0
   -1.4719   23.9107  -24.8949 H   0  0  0  0  0  0  0  0  0  0  0  0
   -0.5230   22.8991  -23.7153 H   0  0  0  0  0  0  0  0  0  0  0  0
    0.9410   24.5170  -23.3890 H   0  0  0  0  0  0  0  0  0  0  0  0
   -0.5759   25.9661  -22.7794 H   0  0  0  0  0  0  0  0  0  0  0  0
   -0.0831   26.8033  -24.2903 H   0  0  0  0  0  0  0  0  0  0  0  0
   -1.5156   25.7196  -24.2903 H   0  0  0  0  0  0  0  0  0  0  0  0
    2.1907   25.5291  -24.9092 H   0  0  0  0  0  0  0  0  0  0  0  0
    1.4805   24.2447  -25.9448 H   0  0  0  0  0  0  0  0  0  0  0  0
    0.7692   25.8942  -25.9448 H   0  0  0  0  0  0  0  0  0  0  0  0
   -2.2757   23.5965  -26.5583 H   0  0  0  0  0  0  0  0  0  0  0  0
   -3.5114   25.2890  -27.8833 H   0  0  0  0  0  0  0  0  0  0  0  0
   -5.7609   25.2356  -29.5301 H   0  0  0  0  0  0  0  0  0  0  0  0
   -5.5368   26.5104  -30.7860 H   0  0  0  0  0  0  0  0  0  0  0  0
   -6.9955   24.8545  -31.7439 H   0  0  0  0  0  0  0  0  0  0  0  0
   -5.3630   24.6226  -32.4937 H   0  0  0  0  0  0  0  0  0  0  0  0
   -6.0303   22.6309  -33.1850 H   0  0  0  0  0  0  0  0  0  0  0  0
   -4.5163   22.1305  -32.3078 H   0  0  0  0  0  0  0  0  0  0  0  0
   -5.8781   20.1690  -32.9025 H   0  0  0  0  0  0  0  0  0  0  0  0
   -5.7784   20.3958  -31.1127 H   0  0  0  0  0  0  0  0  0  0  0  0
   -8.1249   20.7263  -32.9786 H   0  0  0  0  0  0  0  0  0  0  0  0
   -8.0234   20.0063  -31.3100 H   0  0  0  0  0  0  0  0  0  0  0  0
   -8.4796   22.8464  -32.1600 H   0  0  0  0  0  0  0  0  0  0  0  0
   -9.1422   21.9091  -30.7625 H   0  0  0  0  0  0  0  0  0  0  0  0
   -7.6294   23.6906  -29.9840 H   0  0  0  0  0  0  0  0  0  0  0  0
   -6.9505   22.0376  -29.6441 H   0  0  0  0  0  0  0  0  0  0  0  0
   -2.8964   22.9615  -31.4639 H   0  0  0  0  0  0  0  0  0  0  0  0
  1  2  1  0
  2  3  2  0
  3  4  1  0
  4  5  2  0
  5  6  1  0
  6  7  2  0
  7  8  1  0
  8  9  2  0
  9 10  1  0
 10 11  1  0
 11 12  1  0
 12 13  1  0
 13 14  1  0
 13 15  1  0
  9 16  1  0
 16 17  2  0
 17 18  1  0
 18 19  2  0
 19 20  1  0
 20 21  1  0
 21 22  1  0
 22 23  1  0
 23 24  1  0
 24 25  1  0
 25 26  1  0
 26 27  1  0
 27 28  1  0
 19 29  1  0
 29 30  2  0
 30  2  1  0
  8  3  1  0
 30 16  1  0
 28 23  1  0
  1 31  1  0
  1 32  1  0
  1 33  1  0
  4 34  1  0
  5 35  1  0
  6 36  1  0
  7 37  1  0
 10 38  1  0
 11 39  1  0
 11 40  1  0
 12 41  1  0
 12 42  1  0
 13 43  1  0
 14 44  1  0
 14 45  1  0
 14 46  1  0
 15 47  1  0
 15 48  1  0
 15 49  1  0
 17 50  1  0
 18 51  1  0
 21 52  1  0
 21 53  1  0
 22 54  1  0
 22 55  1  0
 24 56  1  0
 24 57  1  0
 25 58  1  0
 25 59  1  0
 26 60  1  0
 26 61  1  0
 27 62  1  0
 27 63  1  0
 28 64  1  0
 28 65  1  0
 29 66  1  0
M  CHG  2   2   1  13   1
M  END
>  <UniqueID>  (31) 
31

>  <SMILES>  (31) 
C[n+]1c2ccccc2c(NCC[NH+](C)C)c2ccc(OCCN3CCCCC3)cc21

>  <Energy>  (31) 
100.37779986081766

>  <Genealogy>  (31) 
C[n+]1c2ccccc2c(NCC[NH+](C)C)c2ccc(OCCN3CCCCC3)cc21 (protonated)
C[n+]1c2ccccc2c(NCC[NH+](C)C)c2ccc(OCCN3CCCCC3)cc21 (3D coordinates assigned)
C[n+]1c2ccccc2c(NCC[NH+](C)C)c2ccc(OCCN3CCCCC3)cc21 (nonaromatic ring conformer: 100.37779986081766 kcal/mol)

>  <smiles>  (31) 
CN(C)CCNc1c2ccccc2[n+](C)c2cc(OCCN3CCCCC3)ccc12

>  <score_type>  (31) 
oracle

>  <origin>  (31) 
adg

>  <m_score__min__energy>  (31) 
-8.5

>  <m_primary>  (31) 
energy

$$$$
31:0
     RDKit          3D

 39 40  0  0  0  0  0  0  0  0999 V2000
   -3.4640   24.1780  -29.8280 C   0  0  0  0  0  0  0  0  0  0  0  0
   -3.8680   25.2960  -30.5080 O   0  0  0  0  0  0  0  0  0  0  0  0
   -5.2380   25.3970  -30.6750 C   0  0  0  0  0  0  0  0  0  0  0  0
   -6.0110   24.2560  -30.1330 C   0  0  0  0  0  0  0  0  0  0  0  0
   -6.6520   23.5320  -31.1860 N   0  0  0  0  0  0  0  0  0  0  0  0
   -5.8050   22.8370  -32.0810 C   0  0  0  0  0  0  0  0  0  0  0  0
   -6.0080   21.3700  -32.2400 C   0  0  0  0  0  0  0  0  0  0  0  0
   -7.3020   20.9070  -31.8950 N   0  0  0  0  0  0  0  0  0  0  0  0
   -7.7560   19.7050  -32.5020 C   0  0  0  0  0  0  0  0  0  0  0  0
   -6.7430   18.8740  -33.1560 C   0  0  0  0  0  0  0  0  0  0  0  0
   -6.3170   19.1370  -34.4350 N   0  0  0  0  0  0  0  0  0  0  0  0
   -5.3990   18.2330  -34.8120 C   0  0  0  0  0  0  0  0  0  0  0  0
   -5.2180   17.3770  -33.7900 N   0  0  0  0  0  0  0  0  0  0  0  0
   -6.0420   17.7740  -32.7820 C   0  0  0  0  0  0  0  0  0  0  0  0
   -6.1020   17.0720  -31.4920 C   0  0  0  0  0  0  0  0  0  0  0  0
   -8.2750   21.9530  -31.9870 C   0  0  0  0  0  0  0  0  0  0  0  0
   -7.9420   23.0140  -30.9270 C   0  0  0  0  0  0  0  0  0  0  0  0
   -3.5308   24.3630  -28.7457 H   0  0  0  0  0  0  0  0  0  0  0  0
   -4.1130   23.3313  -30.0960 H   0  0  0  0  0  0  0  0  0  0  0  0
   -2.4236   23.9418  -30.0960 H   0  0  0  0  0  0  0  0  0  0  0  0
   -5.5786   26.3129  -30.1700 H   0  0  0  0  0  0  0  0  0  0  0  0
   -5.4197   25.4094  -31.7598 H   0  0  0  0  0  0  0  0  0  0  0  0
   -5.3290   23.5815  -29.5946 H   0  0  0  0  0  0  0  0  0  0  0  0
   -6.7822   24.6442  -29.4514 H   0  0  0  0  0  0  0  0  0  0  0  0
   -5.9323   23.2942  -33.0734 H   0  0  0  0  0  0  0  0  0  0  0  0
   -4.8025   22.9289  -31.6376 H   0  0  0  0  0  0  0  0  0  0  0  0
   -5.8216   21.1112  -33.2927 H   0  0  0  0  0  0  0  0  0  0  0  0
   -5.3098   20.8840  -31.5426 H   0  0  0  0  0  0  0  0  0  0  0  0
   -8.2321   19.0958  -31.7195 H   0  0  0  0  0  0  0  0  0  0  0  0
   -8.4308   20.0263  -33.3091 H   0  0  0  0  0  0  0  0  0  0  0  0
   -4.8857   18.1983  -35.7843 H   0  0  0  0  0  0  0  0  0  0  0  0
   -4.5590   16.5770  -33.8180 H   0  0  0  0  0  0  0  0  0  0  0  0
   -6.0395   17.8038  -30.6731 H   0  0  0  0  0  0  0  0  0  0  0  0
   -7.0506   16.5199  -31.4188 H   0  0  0  0  0  0  0  0  0  0  0  0
   -5.2608   16.3670  -31.4188 H   0  0  0  0  0  0  0  0  0  0  0  0
   -8.2420   22.4050  -32.9893 H   0  0  0  0  0  0  0  0  0  0  0  0
   -9.2838   21.5492  -31.8161 H   0  0  0  0  0  0  0  0  0  0  0  0
   -8.6821   23.8265  -30.9728 H   0  0  0  0  0  0  0  0  0  0  0  0
   -7.9669   22.5602  -29.9253 H   0  0  0  0  0  0  0  0  0  0  0  0
  1  2  1  0
  2  3  1  0
  3  4  1  0
  4  5  1  0
  5  6  1  0
  6  7  1  0
  7  8  1  0
  8  9  1  0
  9 10  1  0
 10 11  1  0
 11 12  2  0
 12 13  1  0
 13 14  1  0
 14 15  1  0
  8 16  1  0
 16 17  1  0
 17  5  1  0
 14 10  2  0
  1 18  1  0
  1 19  1  0
  1 20  1  0
  3 21  1  0
  3 22  1  0
  4 23  1  0
  4 24  1  0
  6 25  1  0
  6 26  1  0
  7 27  1  0
  7 28  1  0
  9 29  1  0
  9 30  1  0
 12 31  1  0
 13 32  1  0
 15 33  1  0
 15 34  1  0
 15 35  1  0
 16 36  1  0
 16 37  1  0
 17 38  1  0
 17 39  1  0
M  END
>  <smiles>  (32) 
COCCN1CCN(Cc2nc[nH]c2C)CC1

>  <score_type>  (32) 
oracle

>  <origin>  (32) 
adg

>  <m_score__min__energy>  (32) 
-6.4699999999999998

>  <m_primary>  (32) 
energy

$$$$
32:0
     RDKit          3D

 60 64  0  0  0  0  0  0  0  0999 V2000
   -5.4660   25.1700  -30.4810 C   0  0  0  0  0  0  0  0  0  0  0  0
   -5.6320   23.8740  -29.6710 C   0  0  0  0  0  0  0  0  0  0  0  0
   -4.5530   22.8700  -29.8890 N   0  0  0  0  0  0  0  0  0  0  0  0
   -3.5530   22.8250  -28.7890 C   0  0  0  0  0  0  0  0  0  0  0  0
   -3.8950   23.7720  -27.6350 C   0  0  0  0  0  0  0  0  0  0  0  0
   -3.8860   23.0780  -31.2030 C   0  0  0  0  0  0  0  0  0  0  0  0
   -3.6560   21.7690  -31.9820 C   0  0  0  0  0  0  0  0  0  0  0  0
   -4.6450   21.6040  -33.0500 N   0  0  0  0  0  0  0  0  0  0  0  0
   -5.8280   20.8010  -32.8740 C   0  0  0  0  0  0  0  0  0  0  0  0
   -7.0400   21.4010  -32.4810 C   0  0  0  0  0  0  0  0  0  0  0  0
   -7.1440   22.8030  -32.3280 C   0  0  0  0  0  0  0  0  0  0  0  0
   -8.3560   23.3930  -31.9790 C   0  0  0  0  0  0  0  0  0  0  0  0
   -9.4830   22.6050  -31.7840 C   0  0  0  0  0  0  0  0  0  0  0  0
   -9.3990   21.2190  -31.9000 C   0  0  0  0  0  0  0  0  0  0  0  0
   -8.1690   20.5830  -32.2090 C   0  0  0  0  0  0  0  0  0  0  0  0
   -8.0570   19.2060  -32.2510 N   0  0  0  0  0  0  0  0  0  0  0  0
   -9.1130   18.3610  -31.6530 C   0  0  0  0  0  0  0  0  0  0  0  0
   -6.9460   18.6210  -32.8250 C   0  0  0  0  0  0  0  0  0  0  0  0
   -6.9190   17.2310  -33.1390 C   0  0  0  0  0  0  0  0  0  0  0  0
   -5.7700   16.6870  -33.7010 C   0  0  0  0  0  0  0  0  0  0  0  0
   -5.5690   15.3980  -34.0530 N   0  0  0  0  0  0  0  0  0  0  0  0
   -4.3200   15.3690  -34.5630 C   0  0  0  0  0  0  0  0  0  0  0  0
   -3.6370   14.2610  -35.0620 C   0  0  0  0  0  0  0  0  0  0  0  0
   -2.3320   14.4570  -35.5490 C   0  0  0  0  0  0  0  0  0  0  0  0
   -1.7410   15.7410  -35.5270 C   0  0  0  0  0  0  0  0  0  0  0  0
   -2.4500   16.8440  -35.0160 C   0  0  0  0  0  0  0  0  0  0  0  0
   -3.7390   16.6200  -34.5390 C   0  0  0  0  0  0  0  0  0  0  0  0
   -4.6750   17.4620  -33.9850 C   0  0  0  0  0  0  0  0  0  0  0  0
   -4.6550   18.8250  -33.7340 C   0  0  0  0  0  0  0  0  0  0  0  0
   -5.7970   19.4190  -33.1350 C   0  0  0  0  0  0  0  0  0  0  0  0
   -5.3570   26.0211  -29.7927 H   0  0  0  0  0  0  0  0  0  0  0  0
   -4.5703   25.0940  -31.1149 H   0  0  0  0  0  0  0  0  0  0  0  0
   -6.3520   25.3222  -31.1149 H   0  0  0  0  0  0  0  0  0  0  0  0
   -5.6479   24.1356  -28.6027 H   0  0  0  0  0  0  0  0  0  0  0  0
   -6.5682   23.4081  -30.0122 H   0  0  0  0  0  0  0  0  0  0  0  0
   -5.0300   21.9410  -29.9090 H   0  0  0  0  0  0  0  0  0  0  0  0
   -3.5066   21.7978  -28.3983 H   0  0  0  0  0  0  0  0  0  0  0  0
   -2.5877   23.1476  -29.2064 H   0  0  0  0  0  0  0  0  0  0  0  0
   -3.7114   23.2637  -26.6769 H   0  0  0  0  0  0  0  0  0  0  0  0
   -3.2649   24.6713  -27.6996 H   0  0  0  0  0  0  0  0  0  0  0  0
   -4.9543   24.0612  -27.6996 H   0  0  0  0  0  0  0  0  0  0  0  0
   -4.5159   23.7418  -31.8134 H   0  0  0  0  0  0  0  0  0  0  0  0
   -2.8973   23.5159  -31.0015 H   0  0  0  0  0  0  0  0  0  0  0  0
   -2.6496   21.7882  -32.4255 H   0  0  0  0  0  0  0  0  0  0  0  0
   -3.7571   20.9264  -31.2822 H   0  0  0  0  0  0  0  0  0  0  0  0
   -4.5630   22.2140  -33.8930 H   0  0  0  0  0  0  0  0  0  0  0  0
   -6.2574   23.4346  -32.4865 H   0  0  0  0  0  0  0  0  0  0  0  0
   -8.4210   24.4843  -31.8576 H   0  0  0  0  0  0  0  0  0  0  0  0
  -10.4455   23.0769  -31.5371 H   0  0  0  0  0  0  0  0  0  0  0  0
  -10.3012   20.6079  -31.7495 H   0  0  0  0  0  0  0  0  0  0  0  0
   -9.0474   18.4135  -30.5562 H   0  0  0  0  0  0  0  0  0  0  0  0
  -10.0997   18.7217  -31.9790 H   0  0  0  0  0  0  0  0  0  0  0  0
   -8.9774   17.3192  -31.9790 H   0  0  0  0  0  0  0  0  0  0  0  0
   -7.7957   16.5973  -32.9393 H   0  0  0  0  0  0  0  0  0  0  0  0
   -6.2370   14.6010  -33.9580 H   0  0  0  0  0  0  0  0  0  0  0  0
   -4.1037   13.2650  -35.0745 H   0  0  0  0  0  0  0  0  0  0  0  0
   -1.7662   13.6034  -35.9506 H   0  0  0  0  0  0  0  0  0  0  0  0
   -0.7198   15.8789  -35.9120 H   0  0  0  0  0  0  0  0  0  0  0  0
   -2.0016   17.8482  -34.9941 H   0  0  0  0  0  0  0  0  0  0  0  0
   -3.7750   19.4322  -33.9928 H   0  0  0  0  0  0  0  0  0  0  0  0
  1  2  1  0
  2  3  1  0
  3  4  1  0
  4  5  1  0
  3  6  1  0
  6  7  1  0
  7  8  1  0
  8  9  1  0
  9 10  2  0
 10 11  1  0
 11 12  2  0
 12 13  1  0
 13 14  2  0
 14 15  1  0
 15 16  2  0
 16 17  1  0
 16 18  1  0
 18 19  2  0
 19 20  1  0
 20 21  1  0
 21 22  1  0
 22 23  2  0
 23 24  1  0
 24 25  2  0
 25 26  1  0
 26 27  2  0
 27 28  1  0
 28 29  1  0
 29 30  2  0
 30  9  1  0
 15 10  1  0
 30 18  1  0
 28 20  2  0
 27 22  1  0
  1 31  1  0
  1 32  1  0
  1 33  1  0
  2 34  1  0
  2 35  1  0
  3 36  1  0
  4 37  1  0
  4 38  1  0
  5 39  1  0
  5 40  1  0
  5 41  1  0
  6 42  1  0
  6 43  1  0
  7 44  1  0
  7 45  1  0
  8 46  1  0
 11 47  1  0
 12 48  1  0
 13 49  1  0
 14 50  1  0
 17 51  1  0
 17 52  1  0
 17 53  1  0
 19 54  1  0
 21 55  1  0
 23 56  1  0
 24 57  1  0
 25 58  1  0
 26 59  1  0
 29 60  1  0
M  CHG  2   3   1  16   1
M  END
>  <UniqueID>  (33) 
32

>  <SMILES>  (33) 
CC[NH+](CC)CCNc1c2ccccc2[n+](C)c2cc3[nH]c4ccccc4c3cc12

>  <Energy>  (33) 
132.51855250316495

>  <Genealogy>  (33) 
CC[NH+](CC)CCNc1c2ccccc2[n+](C)c2cc3[nH]c4ccccc4c3cc12 (protonated)
CC[NH+](CC)CCNc1c2ccccc2[n+](C)c2cc3[nH]c4ccccc4c3cc12 (3D coordinates assigned)
CC[NH+](CC)CCNc1c2ccccc2[n+](C)c2cc3[nH]c4ccccc4c3cc12 (optimized conformer: 132.51855250316495 kcal/mol)

>  <smiles>  (33) 
CCN(CC)CCNc1c2ccccc2[n+](C)c2cc3[nH]c4ccccc4c3cc12

>  <score_type>  (33) 
oracle

>  <origin>  (33) 
adg

>  <m_score__min__energy>  (33) 
-8.2400000000000002

>  <m_primary>  (33) 
energy

$$$$
33:0
     RDKit          3D

 57 59  0  0  0  0  0  0  0  0999 V2000
   -3.1380   21.7600  -28.6570 C   0  0  0  0  0  0  0  0  0  0  0  0
   -1.9290   22.5590  -29.1340 C   0  0  0  0  0  0  0  0  0  0  0  0
   -2.2630   24.0510  -29.2740 C   0  0  0  0  0  0  0  0  0  0  0  0
   -3.7570   24.2690  -29.5220 C   0  0  0  0  0  0  0  0  0  0  0  0
   -3.9460   25.2760  -30.5010 O   0  0  0  0  0  0  0  0  0  0  0  0
   -5.2740   25.7540  -30.4690 C   0  0  0  0  0  0  0  0  0  0  0  0
   -6.2470   24.5890  -30.6710 C   0  0  0  0  0  0  0  0  0  0  0  0
   -6.0970   23.9360  -32.0550 C   0  0  0  0  0  0  0  0  0  0  0  0
   -6.3010   22.4710  -31.9900 N   0  0  0  0  0  0  0  0  0  0  0  0
   -5.2310   21.6100  -32.0990 C   0  0  0  0  0  0  0  0  0  0  0  0
   -3.5230   22.1870  -32.0950 S   0  0  0  0  0  0  0  0  0  0  0  0
   -2.9620   21.0930  -33.4540 C   0  0  0  0  0  0  0  0  0  0  0  0
   -2.6160   19.7060  -32.9780 C   0  0  0  0  0  0  0  0  0  0  0  0
   -1.8660   19.5680  -31.9780 O   0  0  0  0  0  0  0  0  0  0  0  0
   -3.1930   18.5370  -33.5890 N   0  0  0  0  0  0  0  0  0  0  0  0
   -2.7410   17.1950  -33.2760 C   0  0  0  0  0  0  0  0  0  0  0  0
   -3.6700   16.2430  -34.0170 C   0  0  0  0  0  0  0  0  0  0  0  0
   -4.7310   17.1010  -34.7070 C   0  0  0  0  0  0  0  0  0  0  0  0
   -4.3880   18.5570  -34.4160 C   0  0  0  0  0  0  0  0  0  0  0  0
   -5.4370   20.2740  -32.2040 N   0  0  0  0  0  0  0  0  0  0  0  0
   -6.6770   19.7370  -32.1550 C   0  0  0  0  0  0  0  0  0  0  0  0
   -6.8430   18.3510  -32.2540 C   0  0  0  0  0  0  0  0  0  0  0  0
   -8.1230   17.7930  -32.1770 C   0  0  0  0  0  0  0  0  0  0  0  0
   -9.2390   18.6200  -32.0070 C   0  0  0  0  0  0  0  0  0  0  0  0
   -9.0790   20.0060  -31.9130 C   0  0  0  0  0  0  0  0  0  0  0  0
   -7.7920   20.5740  -31.9850 C   0  0  0  0  0  0  0  0  0  0  0  0
   -7.5760   21.9580  -31.9060 C   0  0  0  0  0  0  0  0  0  0  0  0
   -8.5660   22.7310  -31.7640 O   0  0  0  0  0  0  0  0  0  0  0  0
   -3.1580   21.7468  -27.5573 H   0  0  0  0  0  0  0  0  0  0  0  0
   -4.0590   22.2279  -29.0349 H   0  0  0  0  0  0  0  0  0  0  0  0
   -3.0686   20.7293  -29.0349 H   0  0  0  0  0  0  0  0  0  0  0  0
   -1.1128   22.4418  -28.4060 H   0  0  0  0  0  0  0  0  0  0  0  0
   -1.6295   22.1773  -30.1212 H   0  0  0  0  0  0  0  0  0  0  0  0
   -1.9746   24.5705  -28.3483 H   0  0  0  0  0  0  0  0  0  0  0  0
   -1.7077   24.4502  -30.1356 H   0  0  0  0  0  0  0  0  0  0  0  0
   -4.2082   23.3297  -29.8743 H   0  0  0  0  0  0  0  0  0  0  0  0
   -4.2356   24.5849  -28.5833 H   0  0  0  0  0  0  0  0  0  0  0  0
   -5.4685   26.2283  -29.4957 H   0  0  0  0  0  0  0  0  0  0  0  0
   -5.4155   26.4905  -31.2737 H   0  0  0  0  0  0  0  0  0  0  0  0
   -6.0545   23.8295  -29.8989 H   0  0  0  0  0  0  0  0  0  0  0  0
   -7.2694   24.9879  -30.5964 H   0  0  0  0  0  0  0  0  0  0  0  0
   -6.8421   24.3705  -32.7376 H   0  0  0  0  0  0  0  0  0  0  0  0
   -5.0757   24.1260  -32.4169 H   0  0  0  0  0  0  0  0  0  0  0  0
   -3.7663   21.0185  -34.2007 H   0  0  0  0  0  0  0  0  0  0  0  0
   -2.0500   21.5349  -33.8816 H   0  0  0  0  0  0  0  0  0  0  0  0
   -1.7039   17.0545  -33.6146 H   0  0  0  0  0  0  0  0  0  0  0  0
   -2.7636   17.0100  -32.1919 H   0  0  0  0  0  0  0  0  0  0  0  0
   -3.1039   15.6683  -34.7648 H   0  0  0  0  0  0  0  0  0  0  0  0
   -4.1344   15.5275  -33.3225 H   0  0  0  0  0  0  0  0  0  0  0  0
   -4.7163   16.9194  -35.7918 H   0  0  0  0  0  0  0  0  0  0  0  0
   -5.7366   16.8538  -34.3360 H   0  0  0  0  0  0  0  0  0  0  0  0
   -4.1930   19.0972  -35.3542 H   0  0  0  0  0  0  0  0  0  0  0  0
   -5.2179   19.0693  -33.9072 H   0  0  0  0  0  0  0  0  0  0  0  0
   -5.9668   17.7005  -32.3924 H   0  0  0  0  0  0  0  0  0  0  0  0
   -8.2527   16.7031  -32.2501 H   0  0  0  0  0  0  0  0  0  0  0  0
  -10.2448   18.1786  -31.9472 H   0  0  0  0  0  0  0  0  0  0  0  0
   -9.9589   20.6532  -31.7827 H   0  0  0  0  0  0  0  0  0  0  0  0
  1  2  1  0
  2  3  1  0
  3  4  1  0
  4  5  1  0
  5  6  1  0
  6  7  1  0
  7  8  1  0
  8  9  1  0
  9 10  1  0
 10 11  1  0
 11 12  1  0
 12 13  1  0
 13 14  2  0
 13 15  1  0
 15 16  1  0
 16 17  1  0
 17 18  1  0
 18 19  1  0
 10 20  2  0
 20 21  1  0
 21 22  2  0
 22 23  1  0
 23 24  2  0
 24 25  1  0
 25 26  2  0
 26 27  1  0
 27 28  2  0
 27  9  1  0
 19 15  1  0
 26 21  1  0
  1 29  1  0
  1 30  1  0
  1 31  1  0
  2 32  1  0
  2 33  1  0
  3 34  1  0
  3 35  1  0
  4 36  1  0
  4 37  1  0
  6 38  1  0
  6 39  1  0
  7 40  1  0
  7 41  1  0
  8 42  1  0
  8 43  1  0
 12 44  1  0
 12 45  1  0
 16 46  1  0
 16 47  1  0
 17 48  1  0
 17 49  1  0
 18 50  1  0
 18 51  1  0
 19 52  1  0
 19 53  1  0
 22 54  1  0
 23 55  1  0
 24 56  1  0
 25 57  1  0
M  END
>  <UniqueID>  (34) 
33

>  <SMILES>  (34) 
CCCCOCCCn1c(SCC(=O)N2CCCC2)nc2ccccc2c1=O

>  <Energy>  (34) 
56.42586192950515

>  <Genealogy>  (34) 
CCCCOCCCn1c(SCC(=O)N2CCCC2)nc2ccccc2c1=O (3D coordinates assigned)
CCCCOCCCn1c(SCC(=O)N2CCCC2)nc2ccccc2c1=O (nonaromatic ring conformer: 56.42586192950515 kcal/mol)

>  <smiles>  (34) 
CCCCOCCCn1c(SCC(=O)N2CCCC2)nc2ccccc2c1=O

>  <score_type>  (34) 
oracle

>  <origin>  (34) 
adg

>  <m_score__min__energy>  (34) 
-8.9600000000000009

>  <m_primary>  (34) 
energy

$$$$
34:0
     RDKit          3D

 54 57  0  0  0  0  0  0  0  0999 V2000
   -3.5440   24.1330  -28.3000 C   0  0  0  0  0  0  0  0  0  0  0  0
   -3.1620   24.5340  -29.7190 C   0  0  0  0  0  0  0  0  0  0  0  0
   -4.1530   23.9790  -30.6720 N   0  0  0  0  0  0  0  0  0  0  0  0
   -5.5480   24.3580  -30.3630 C   0  0  0  0  0  0  0  0  0  0  0  0
   -5.7310   25.8720  -30.4480 C   0  0  0  0  0  0  0  0  0  0  0  0
   -3.9900   22.5230  -30.8900 C   0  0  0  0  0  0  0  0  0  0  0  0
   -3.4850   22.1630  -32.3060 C   0  0  0  0  0  0  0  0  0  0  0  0
   -4.5940   22.1710  -33.2700 N   0  0  0  0  0  0  0  0  0  0  0  0
   -5.5460   21.1270  -32.9450 C   0  0  0  0  0  0  0  0  0  0  0  0
   -6.8670   21.4070  -32.4850 C   0  0  0  0  0  0  0  0  0  0  0  0
   -7.3340   22.7350  -32.3470 C   0  0  0  0  0  0  0  0  0  0  0  0
   -8.5990   22.9970  -31.8270 C   0  0  0  0  0  0  0  0  0  0  0  0
   -9.4230   21.9540  -31.4280 C   0  0  0  0  0  0  0  0  0  0  0  0
   -9.0090   20.6320  -31.5830 C   0  0  0  0  0  0  0  0  0  0  0  0
   -7.7510   20.3210  -32.1540 C   0  0  0  0  0  0  0  0  0  0  0  0
   -7.3680   19.0080  -32.3810 N   0  0  0  0  0  0  0  0  0  0  0  0
   -8.3400   17.9010  -32.3380 C   0  0  0  0  0  0  0  0  0  0  0  0
   -6.0690   18.7670  -32.7420 C   0  0  0  0  0  0  0  0  0  0  0  0
   -5.1890   19.7790  -33.0670 C   0  0  0  0  0  0  0  0  0  0  0  0
   -3.9990   19.2810  -33.4760 N   0  0  0  0  0  0  0  0  0  0  0  0
   -4.1150   17.9440  -33.3670 C   0  0  0  0  0  0  0  0  0  0  0  0
   -3.1170   17.0060  -33.6280 C   0  0  0  0  0  0  0  0  0  0  0  0
   -3.4020   15.6510  -33.3860 C   0  0  0  0  0  0  0  0  0  0  0  0
   -2.0680   14.3270  -33.7200 Br  0  0  0  0  0  0  0  0  0  0  0  0
   -4.6590   15.2700  -32.8720 C   0  0  0  0  0  0  0  0  0  0  0  0
   -5.6490   16.2330  -32.6120 C   0  0  0  0  0  0  0  0  0  0  0  0
   -5.3620   17.5740  -32.9040 C   0  0  0  0  0  0  0  0  0  0  0  0
   -2.9696   24.7360  -27.5814 H   0  0  0  0  0  0  0  0  0  0  0  0
   -4.6194   24.3062  -28.1470 H   0  0  0  0  0  0  0  0  0  0  0  0
   -3.3188   23.0672  -28.1470 H   0  0  0  0  0  0  0  0  0  0  0  0
   -3.1500   25.6310  -29.7996 H   0  0  0  0  0  0  0  0  0  0  0  0
   -2.1633   24.1385  -29.9560 H   0  0  0  0  0  0  0  0  0  0  0  0
   -6.2217   23.8724  -31.0843 H   0  0  0  0  0  0  0  0  0  0  0  0
   -5.7832   24.0317  -29.3392 H   0  0  0  0  0  0  0  0  0  0  0  0
   -5.7819   26.2927  -29.4329 H   0  0  0  0  0  0  0  0  0  0  0  0
   -4.8798   26.3146  -30.9861 H   0  0  0  0  0  0  0  0  0  0  0  0
   -6.6631   26.0990  -30.9861 H   0  0  0  0  0  0  0  0  0  0  0  0
   -3.2669   22.1399  -30.1549 H   0  0  0  0  0  0  0  0  0  0  0  0
   -4.9840   22.0660  -30.7757 H   0  0  0  0  0  0  0  0  0  0  0  0
   -2.7298   22.8993  -32.6182 H   0  0  0  0  0  0  0  0  0  0  0  0
   -3.0464   21.1546  -32.2795 H   0  0  0  0  0  0  0  0  0  0  0  0
   -4.2410   22.0610  -34.2460 H   0  0  0  0  0  0  0  0  0  0  0  0
   -5.0590   23.1060  -33.2570 H   0  0  0  0  0  0  0  0  0  0  0  0
   -6.6895   23.5717  -32.6544 H   0  0  0  0  0  0  0  0  0  0  0  0
   -8.9470   24.0362  -31.7320 H   0  0  0  0  0  0  0  0  0  0  0  0
  -10.4072   22.1715  -30.9875 H   0  0  0  0  0  0  0  0  0  0  0  0
   -9.6708   19.8164  -31.2562 H   0  0  0  0  0  0  0  0  0  0  0  0
   -8.5619   17.6483  -31.2907 H   0  0  0  0  0  0  0  0  0  0  0  0
   -9.2667   18.2068  -32.8456 H   0  0  0  0  0  0  0  0  0  0  0  0
   -7.9169   17.0216  -32.8456 H   0  0  0  0  0  0  0  0  0  0  0  0
   -3.1520   19.8000  -33.7960 H   0  0  0  0  0  0  0  0  0  0  0  0
   -2.1345   17.3175  -34.0124 H   0  0  0  0  0  0  0  0  0  0  0  0
   -4.8665   14.2083  -32.6726 H   0  0  0  0  0  0  0  0  0  0  0  0
   -6.6228   15.9425  -32.1908 H   0  0  0  0  0  0  0  0  0  0  0  0
  1  2  1  0
  2  3  1  0
  3  4  1  0
  4  5  1  0
  3  6  1  0
  6  7  1  0
  7  8  1  0
  8  9  1  0
  9 10  2  0
 10 11  1  0
 11 12  2  0
 12 13  1  0
 13 14  2  0
 14 15  1  0
 15 16  2  0
 16 17  1  0
 16 18  1  0
 18 19  2  0
 19 20  1  0
 20 21  1  0
 21 22  2  0
 22 23  1  0
 23 24  1  0
 23 25  2  0
 25 26  1  0
 26 27  2  0
 19  9  1  0
 27 21  1  0
 15 10  1  0
 27 18  1  0
  1 28  1  0
  1 29  1  0
  1 30  1  0
  2 31  1  0
  2 32  1  0
  4 33  1  0
  4 34  1  0
  5 35  1  0
  5 36  1  0
  5 37  1  0
  6 38  1  0
  6 39  1  0
  7 40  1  0
  7 41  1  0
  8 42  1  0
  8 43  1  0
 11 44  1  0
 12 45  1  0
 13 46  1  0
 14 47  1  0
 17 48  1  0
 17 49  1  0
 17 50  1  0
 20 51  1  0
 22 52  1  0
 25 53  1  0
 26 54  1  0
M  CHG  2   8   1  16   1
M  END
>  <UniqueID>  (35) 
34

>  <SMILES>  (35) 
CCN(CC)CC[NH2+]c1c2ccccc2[n+](C)c2c1[nH]c1cc(Br)ccc12

>  <Energy>  (35) 
116.6641009144837

>  <Genealogy>  (35) 
CCN(CC)CC[NH2+]c1c2ccccc2[n+](C)c2c1[nH]c1cc(Br)ccc12 (protonated)
CCN(CC)CC[NH2+]c1c2ccccc2[n+](C)c2c1[nH]c1cc(Br)ccc12 (3D coordinates assigned)
CCN(CC)CC[NH2+]c1c2ccccc2[n+](C)c2c1[nH]c1cc(Br)ccc12 (optimized conformer: 116.6641009144837 kcal/mol)

>  <smiles>  (35) 
CCN(CC)CCNc1c2ccccc2[n+](C)c2c1[nH]c1cc(Br)ccc12

>  <score_type>  (35) 
oracle

>  <origin>  (35) 
adg

>  <m_score__min__energy>  (35) 
-8.2400000000000002

>  <m_primary>  (35) 
energy

$$$$
35:0
     RDKit          3D

 42 43  0  0  0  0  0  0  0  0999 V2000
   -8.0450   19.0600  -32.5000 C   0  0  0  0  0  0  0  0  0  0  0  0
   -6.6180   18.5950  -32.7910 C   0  0  0  0  0  0  0  0  0  0  0  0
   -5.9400   19.4400  -33.8950 C   0  0  0  0  0  0  0  0  0  0  0  0
   -5.2550   20.6340  -33.3680 N   0  0  0  0  0  0  0  0  0  0  0  0
   -3.8350   20.3840  -33.0730 C   0  0  0  0  0  0  0  0  0  0  0  0
   -3.3380   21.3430  -32.0140 C   0  0  0  0  0  0  0  0  0  0  0  0
   -2.2880   20.9470  -31.1730 C   0  0  0  0  0  0  0  0  0  0  0  0
   -1.8180   21.8010  -30.1820 C   0  0  0  0  0  0  0  0  0  0  0  0
   -2.4030   23.0520  -30.0010 C   0  0  0  0  0  0  0  0  0  0  0  0
   -3.4780   23.4680  -30.8120 C   0  0  0  0  0  0  0  0  0  0  0  0
   -4.0990   24.7080  -30.6000 O   0  0  0  0  0  0  0  0  0  0  0  0
   -5.2210   24.9260  -29.7490 C   0  0  0  0  0  0  0  0  0  0  0  0
   -3.9450   22.6070  -31.8400 C   0  0  0  0  0  0  0  0  0  0  0  0
   -5.0110   22.9360  -32.7030 O   0  0  0  0  0  0  0  0  0  0  0  0
   -6.2600   23.5330  -32.3550 C   0  0  0  0  0  0  0  0  0  0  0  0
   -7.3600   22.4640  -32.2620 C   0  0  0  0  0  0  0  0  0  0  0  0
   -8.7600   22.9870  -31.9810 C   0  0  0  0  0  0  0  0  0  0  0  0
   -7.9740   22.2910  -30.8820 C   0  0  0  0  0  0  0  0  0  0  0  0
   -8.1996   19.1104  -31.4121 H   0  0  0  0  0  0  0  0  0  0  0  0
   -8.2028   20.0561  -32.9393 H   0  0  0  0  0  0  0  0  0  0  0  0
   -8.7594   18.3482  -32.9393 H   0  0  0  0  0  0  0  0  0  0  0  0
   -6.0243   18.6760  -31.8685 H   0  0  0  0  0  0  0  0  0  0  0  0
   -6.6682   17.5550  -33.1458 H   0  0  0  0  0  0  0  0  0  0  0  0
   -5.2004   18.8116  -34.4127 H   0  0  0  0  0  0  0  0  0  0  0  0
   -6.7313   19.7882  -34.5751 H   0  0  0  0  0  0  0  0  0  0  0  0
   -5.3250   21.3850  -34.0950 H   0  0  0  0  0  0  0  0  0  0  0  0
   -5.7440   20.9730  -32.5060 H   0  0  0  0  0  0  0  0  0  0  0  0
   -3.7165   19.3519  -32.7113 H   0  0  0  0  0  0  0  0  0  0  0  0
   -3.2488   20.5330  -33.9918 H   0  0  0  0  0  0  0  0  0  0  0  0
   -1.8330   19.9534  -31.2984 H   0  0  0  0  0  0  0  0  0  0  0  0
   -0.9820   21.4880  -29.5392 H   0  0  0  0  0  0  0  0  0  0  0  0
   -2.0219   23.7225  -29.2167 H   0  0  0  0  0  0  0  0  0  0  0  0
   -4.9017   24.8640  -28.6982 H   0  0  0  0  0  0  0  0  0  0  0  0
   -5.6424   25.9228  -29.9460 H   0  0  0  0  0  0  0  0  0  0  0  0
   -5.9850   24.1595  -29.9460 H   0  0  0  0  0  0  0  0  0  0  0  0
   -6.1618   24.0370  -31.3822 H   0  0  0  0  0  0  0  0  0  0  0  0
   -6.5356   24.2604  -33.1327 H   0  0  0  0  0  0  0  0  0  0  0  0
   -6.9178   21.7914  -33.0117 H   0  0  0  0  0  0  0  0  0  0  0  0
   -8.9415   24.0705  -31.9256 H   0  0  0  0  0  0  0  0  0  0  0  0
   -9.7500   22.8445  -32.4389 H   0  0  0  0  0  0  0  0  0  0  0  0
   -7.5868   22.8708  -30.0312 H   0  0  0  0  0  0  0  0  0  0  0  0
   -8.1597   21.4362  -30.2151 H   0  0  0  0  0  0  0  0  0  0  0  0
  1  2  1  0
  2  3  1  0
  3  4  1  0
  4  5  1  0
  5  6  1  0
  6  7  2  0
  7  8  1  0
  8  9  2  0
  9 10  1  0
 10 11  1  0
 11 12  1  0
 10 13  2  0
 13 14  1  0
 14 15  1  0
 15 16  1  0
 16 17  1  0
 17 18  1  0
 13  6  1  0
 18 16  1  0
  1 19  1  0
  1 20  1  0
  1 21  1  0
  2 22  1  0
  2 23  1  0
  3 24  1  0
  3 25  1  0
  4 26  1  0
  4 27  1  0
  5 28  1  0
  5 29  1  0
  7 30  1  0
  8 31  1  0
  9 32  1  0
 12 33  1  0
 12 34  1  0
 12 35  1  0
 15 36  1  0
 15 37  1  0
 16 38  1  0
 17 39  1  0
 17 40  1  0
 18 41  1  0
 18 42  1  0
M  CHG  1   4   1
M  END
>  <UniqueID>  (36) 
35

>  <SMILES>  (36) 
CCC[NH2+]Cc1cccc(OC)c1OCC1CC1

>  <Energy>  (36) 
305.23069255880006

>  <Genealogy>  (36) 
CCC[NH2+]Cc1cccc(OC)c1OCC1CC1 (protonated)
CCC[NH2+]Cc1cccc(OC)c1OCC1CC1 (3D coordinates assigned)
CCC[NH2+]Cc1cccc(OC)c1OCC1CC1 (nonaromatic ring conformer: 305.23069255880006 kcal/mol)

>  <smiles>  (36) 
CCCNCc1cccc(OC)c1OCC1CC1

>  <score_type>  (36) 
oracle

>  <origin>  (36) 
adg

>  <m_score__min__energy>  (36) 
-5.3600000000000003

>  <m_primary>  (36) 
energy

$$$$
36:0
     RDKit          3D

 59 63  0  0  0  0  0  0  0  0999 V2000
   -2.9280   21.6250  -28.4280 C   0  0  0  0  0  0  0  0  0  0  0  0
   -1.4780   21.2130  -28.6840 C   0  0  0  0  0  0  0  0  0  0  0  0
   -1.3430   19.7490  -28.8760 N   0  0  0  0  0  0  0  0  0  0  0  0
   -1.0540   19.0560  -27.5970 C   0  0  0  0  0  0  0  0  0  0  0  0
   -2.3010   18.9350  -26.7230 C   0  0  0  0  0  0  0  0  0  0  0  0
   -0.4200   19.3800  -29.9820 C   0  0  0  0  0  0  0  0  0  0  0  0
   -0.0170   20.5500  -30.9220 C   0  0  0  0  0  0  0  0  0  0  0  0
   -0.5400   20.3370  -32.2820 N   0  0  0  0  0  0  0  0  0  0  0  0
   -1.9660   20.6020  -32.3330 C   0  0  0  0  0  0  0  0  0  0  0  0
   -2.4390   21.8010  -31.7880 C   0  0  0  0  0  0  0  0  0  0  0  0
   -3.8020   22.1140  -31.7720 C   0  0  0  0  0  0  0  0  0  0  0  0
   -4.2430   23.3350  -31.2180 C   0  0  0  0  0  0  0  0  0  0  0  0
   -3.4350   24.1950  -30.7700 O   0  0  0  0  0  0  0  0  0  0  0  0
   -5.5710   23.5600  -31.1710 N   0  0  0  0  0  0  0  0  0  0  0  0
   -6.2930   24.5680  -30.6550 C   0  0  0  0  0  0  0  0  0  0  0  0
   -7.6110   24.2790  -30.7170 N   0  0  0  0  0  0  0  0  0  0  0  0
   -7.7330   23.0760  -31.2720 N   0  0  0  0  0  0  0  0  0  0  0  0
   -6.4790   22.6620  -31.5500 C   0  0  0  0  0  0  0  0  0  0  0  0
   -6.1230   21.4450  -32.0600 N   0  0  0  0  0  0  0  0  0  0  0  0
   -7.1430   20.4210  -32.0960 C   0  0  0  0  0  0  0  0  0  0  0  0
   -8.3760   20.6730  -32.7200 C   0  0  0  0  0  0  0  0  0  0  0  0
   -9.3690   19.6890  -32.7380 C   0  0  0  0  0  0  0  0  0  0  0  0
   -9.1370   18.4450  -32.1460 C   0  0  0  0  0  0  0  0  0  0  0  0
   -7.9060   18.1800  -31.5380 C   0  0  0  0  0  0  0  0  0  0  0  0
   -6.9110   19.1610  -31.5150 C   0  0  0  0  0  0  0  0  0  0  0  0
   -4.7690   21.1950  -32.2900 C   0  0  0  0  0  0  0  0  0  0  0  0
   -4.2790   20.0500  -33.0070 C   0  0  0  0  0  0  0  0  0  0  0  0
   -5.1050   19.2850  -33.8690 C   0  0  0  0  0  0  0  0  0  0  0  0
   -4.6390   18.1150  -34.4670 C   0  0  0  0  0  0  0  0  0  0  0  0
   -3.3280   17.7080  -34.2750 C   0  0  0  0  0  0  0  0  0  0  0  0
   -2.4510   18.5040  -33.5450 C   0  0  0  0  0  0  0  0  0  0  0  0
   -2.8890   19.7110  -32.9470 C   0  0  0  0  0  0  0  0  0  0  0  0
   -3.1087   21.6763  -27.3442 H   0  0  0  0  0  0  0  0  0  0  0  0
   -3.1138   22.6115  -28.8778 H   0  0  0  0  0  0  0  0  0  0  0  0
   -3.6047   20.8836  -28.8778 H   0  0  0  0  0  0  0  0  0  0  0  0
   -1.1177   21.7247  -29.5886 H   0  0  0  0  0  0  0  0  0  0  0  0
   -0.8832   21.4968  -27.8033 H   0  0  0  0  0  0  0  0  0  0  0  0
   -0.6738   18.0474  -27.8165 H   0  0  0  0  0  0  0  0  0  0  0  0
   -0.3078   19.6490  -27.0478 H   0  0  0  0  0  0  0  0  0  0  0  0
   -2.0097   18.9633  -25.6626 H   0  0  0  0  0  0  0  0  0  0  0  0
   -2.9824   19.7712  -26.9385 H   0  0  0  0  0  0  0  0  0  0  0  0
   -2.8089   17.9834  -26.9385 H   0  0  0  0  0  0  0  0  0  0  0  0
    0.4980   18.9687  -29.5369 H   0  0  0  0  0  0  0  0  0  0  0  0
   -0.9649   18.6579  -30.6078 H   0  0  0  0  0  0  0  0  0  0  0  0
   -0.4256   21.4899  -30.5224 H   0  0  0  0  0  0  0  0  0  0  0  0
    1.0808   20.5980  -30.9717 H   0  0  0  0  0  0  0  0  0  0  0  0
   -0.0370   20.9800  -32.9390 H   0  0  0  0  0  0  0  0  0  0  0  0
   -0.3270   19.3710  -32.6180 H   0  0  0  0  0  0  0  0  0  0  0  0
   -1.7201   22.5158  -31.3611 H   0  0  0  0  0  0  0  0  0  0  0  0
   -5.8715   25.4959  -30.2412 H   0  0  0  0  0  0  0  0  0  0  0  0
   -8.5608   21.6474  -33.1959 H   0  0  0  0  0  0  0  0  0  0  0  0
  -10.3362   19.8949  -33.2199 H   0  0  0  0  0  0  0  0  0  0  0  0
   -9.9221   17.6746  -32.1582 H   0  0  0  0  0  0  0  0  0  0  0  0
   -7.7206   17.1984  -31.0774 H   0  0  0  0  0  0  0  0  0  0  0  0
   -5.9420   18.9470  -31.0404 H   0  0  0  0  0  0  0  0  0  0  0  0
   -6.1330   19.6211  -34.0697 H   0  0  0  0  0  0  0  0  0  0  0  0
   -5.3139   17.5130  -35.0932 H   0  0  0  0  0  0  0  0  0  0  0  0
   -2.9807   16.7548  -34.7002 H   0  0  0  0  0  0  0  0  0  0  0  0
   -1.4025   18.1915  -33.4306 H   0  0  0  0  0  0  0  0  0  0  0  0
  1  2  1  0
  2  3  1  0
  3  4  1  0
  4  5  1  0
  3  6  1  0
  6  7  1  0
  7  8  1  0
  8  9  1  0
  9 10  2  0
 10 11  1  0
 11 12  1  0
 12 13  2  0
 12 14  1  0
 14 15  1  0
 15 16  2  0
 16 17  1  0
 17 18  2  0
 18 19  1  0
 19 20  1  0
 20 21  2  0
 21 22  1  0
 22 23  2  0
 23 24  1  0
 24 25  2  0
 19 26  1  0
 26 27  1  0
 27 28  2  0
 28 29  1  0
 29 30  2  0
 30 31  1  0
 31 32  2  0
 32  9  1  0
 26 11  2  0
 32 27  1  0
 18 14  1  0
 25 20  1  0
  1 33  1  0
  1 34  1  0
  1 35  1  0
  2 36  1  0
  2 37  1  0
  4 38  1  0
  4 39  1  0
  5 40  1  0
  5 41  1  0
  5 42  1  0
  6 43  1  0
  6 44  1  0
  7 45  1  0
  7 46  1  0
  8 47  1  0
  8 48  1  0
 10 49  1  0
 15 50  1  0
 21 51  1  0
 22 52  1  0
 23 53  1  0
 24 54  1  0
 25 55  1  0
 28 56  1  0
 29 57  1  0
 30 58  1  0
 31 59  1  0
M  CHG  1   8   1
M  END
>  <UniqueID>  (37) 
36

>  <SMILES>  (37) 
CCN(CC)CC[NH2+]c1cc2c(=O)n3cnnc3n(-c3ccccc3)c2c2ccccc12

>  <Energy>  (37) 
145.94120859992464

>  <Genealogy>  (37) 
CCN(CC)CC[NH2+]c1cc2c(=O)n3cnnc3n(-c3ccccc3)c2c2ccccc12 (protonated)
CCN(CC)CC[NH2+]c1cc2c(=O)n3cnnc3n(-c3ccccc3)c2c2ccccc12 (3D coordinates assigned)
CCN(CC)CC[NH2+]c1cc2c(=O)n3cnnc3n(-c3ccccc3)c2c2ccccc12 (optimized conformer: 145.94120859992464 kcal/mol)

>  <smiles>  (37) 
CCN(CC)CCNc1cc2c(=O)n3cnnc3n(-c3ccccc3)c2c2ccccc12

>  <score_type>  (37) 
oracle

>  <origin>  (37) 
adg

>  <m_score__min__energy>  (37) 
-8.9900000000000002

>  <m_primary>  (37) 
energy

$$$$
