0:0
     RDKit          3D

 52 56  0  0  0  0  0  0  0  0999 V2000
   -2.8790   18.1830  -33.1910 C   0  0  0  0  0  0  0  0  0  0  0  0
   -4.3050   18.4660  -33.3600 N   0  0  0  0  0  0  0  0  0  0  0  0
   -5.2550   17.6590  -33.9120 C   0  0  0  0  0  0  0  0  0  0  0  0
   -4.9680   16.3170  -34.5490 C   0  0  1  0  0  0  0  0  0  0  0  0
   -3.8590   16.4170  -35.6190 C   0  0  0  0  0  0  0  0  0  0  0  0
   -2.7000   15.7800  -34.9620 C   0  0  0  0  0  0  0  0  0  0  0  0
   -1.5620   15.6980  -35.4960 O   0  0  0  0  0  0  0  0  0  0  0  0
   -3.0230   15.1930  -33.7110 N   0  0  0  0  0  0  0  0  0  0  0  0
   -2.1090   14.5300  -32.8160 C   0  0  0  0  0  0  0  0  0  0  0  0
   -0.8740   15.1190  -32.4810 C   0  0  0  0  0  0  0  0  0  0  0  0
    0.0030   14.4750  -31.6030 C   0  0  0  0  0  0  0  0  0  0  0  0
   -0.3420   13.2410  -31.0440 C   0  0  0  0  0  0  0  0  0  0  0  0
    0.7590   12.4370  -29.9410 Cl  0  0  0  0  0  0  0  0  0  0  0  0
   -1.5720   12.6550  -31.3580 C   0  0  0  0  0  0  0  0  0  0  0  0
   -2.4510   13.2950  -32.2350 C   0  0  0  0  0  0  0  0  0  0  0  0
   -4.4570   15.3170  -33.4870 C   0  0  0  0  0  0  0  0  0  0  0  0
   -6.4950   18.2170  -33.9080 N   0  0  0  0  0  0  0  0  0  0  0  0
   -6.2970   19.3960  -33.2900 C   0  0  0  0  0  0  0  0  0  0  0  0
   -7.2500   20.3600  -32.9970 C   0  0  0  0  0  0  0  0  0  0  0  0
   -6.8290   21.5180  -32.3200 C   0  0  0  0  0  0  0  0  0  0  0  0
   -5.4630   21.7050  -31.9390 C   0  0  0  0  0  0  0  0  0  0  0  0
   -5.0380   22.9070  -31.2260 N   0  0  0  0  0  0  0  0  0  0  0  0
   -3.7580   22.8970  -30.4860 C   0  0  0  0  0  0  0  0  0  0  0  0
   -3.4830   24.1940  -29.7210 C   0  0  0  0  0  0  0  0  0  0  0  0
   -3.8960   25.3150  -30.4680 O   0  0  0  0  0  0  0  0  0  0  0  0
   -5.3030   25.3160  -30.5260 C   0  0  0  0  0  0  0  0  0  0  0  0
   -5.8190   24.1550  -31.3820 C   0  0  0  0  0  0  0  0  0  0  0  0
   -4.5320   20.6780  -32.2670 C   0  0  0  0  0  0  0  0  0  0  0  0
   -4.9900   19.5480  -32.9470 C   0  0  0  0  0  0  0  0  0  0  0  0
   -2.6392   18.1354  -32.1185 H   0  0  0  0  0  0  0  0  0  0  0  0
   -2.6379   17.2195  -33.6637 H   0  0  0  0  0  0  0  0  0  0  0  0
   -2.2882   18.9814  -33.6637 H   0  0  0  0  0  0  0  0  0  0  0  0
   -5.9114   15.9823  -35.0050 H   0  0  0  0  0  0  0  0  0  0  0  0
   -4.1422   15.8742  -36.5329 H   0  0  0  0  0  0  0  0  0  0  0  0
   -3.6599   17.4502  -35.9395 H   0  0  0  0  0  0  0  0  0  0  0  0
   -0.5978   16.0921  -32.9131 H   0  0  0  0  0  0  0  0  0  0  0  0
    0.9673   14.9407  -31.3513 H   0  0  0  0  0  0  0  0  0  0  0  0
   -1.8482   11.6876  -30.9133 H   0  0  0  0  0  0  0  0  0  0  0  0
   -3.4187   12.8295  -32.4734 H   0  0  0  0  0  0  0  0  0  0  0  0
   -4.9494   14.3414  -33.6122 H   0  0  0  0  0  0  0  0  0  0  0  0
   -4.6773   15.6644  -32.4668 H   0  0  0  0  0  0  0  0  0  0  0  0
   -8.3026   20.2228  -33.2854 H   0  0  0  0  0  0  0  0  0  0  0  0
   -7.5664   22.2975  -32.0779 H   0  0  0  0  0  0  0  0  0  0  0  0
   -3.7792   22.0660  -29.7656 H   0  0  0  0  0  0  0  0  0  0  0  0
   -2.9557   22.7848  -31.2302 H   0  0  0  0  0  0  0  0  0  0  0  0
   -4.0324   24.1737  -28.7683 H   0  0  0  0  0  0  0  0  0  0  0  0
   -2.4010   24.2721  -29.5387 H   0  0  0  0  0  0  0  0  0  0  0  0
   -5.7049   25.2176  -29.5068 H   0  0  0  0  0  0  0  0  0  0  0  0
   -5.6339   26.2609  -30.9817 H   0  0  0  0  0  0  0  0  0  0  0  0
   -6.8615   23.9501  -31.0970 H   0  0  0  0  0  0  0  0  0  0  0  0
   -5.7241   24.4641  -32.4334 H   0  0  0  0  0  0  0  0  0  0  0  0
   -3.4718   20.7735  -31.9896 H   0  0  0  0  0  0  0  0  0  0  0  0
  1  2  1  0
  2  3  1  0
  3  4  1  0
  4  5  1  0
  5  6  1  0
  6  7  2  0
  6  8  1  0
  8  9  1  0
  9 10  2  0
 10 11  1  0
 11 12  2  0
 12 13  1  0
 12 14  1  0
 14 15  2  0
  8 16  1  0
  3 17  2  0
 17 18  1  0
 18 19  2  0
 19 20  1  0
 20 21  2  0
 21 22  1  0
 22 23  1  0
 23 24  1  0
 24 25  1  0
 25 26  1  0
 26 27  1  0
 21 28  1  0
 28 29  2  0
 29  2  1  0
 16  4  1  0
 29 18  1  0
 15  9  1  0
 27 22  1  0
  1 30  1  0
  1 31  1  0
  1 32  1  0
  4 33  1  6
  5 34  1  0
  5 35  1  0
 10 36  1  0
 11 37  1  0
 14 38  1  0
 15 39  1  0
 16 40  1  0
 16 41  1  0
 19 42  1  0
 20 43  1  0
 23 44  1  0
 23 45  1  0
 24 46  1  0
 24 47  1  0
 26 48  1  0
 26 49  1  0
 27 50  1  0
 27 51  1  0
 28 52  1  0
M  END
>  <UniqueID>  (1) 
1

>  <SMILES>  (1) 
Cn1c([C@H]2CC(=O)N(c3ccc(Cl)cc3)C2)nc2ccc(N3CCOCC3)cc21

>  <Energy>  (1) 
113.4482433954864

>  <Genealogy>  (1) 
Cn1c([C@H]2CC(=O)N(c3ccc(Cl)cc3)C2)nc2ccc(N3CCOCC3)cc21 (chirality)
Cn1c([C@H]2CC(=O)N(c3ccc(Cl)cc3)C2)nc2ccc(N3CCOCC3)cc21 (3D coordinates assigned)
Cn1c([C@H]2CC(=O)N(c3ccc(Cl)cc3)C2)nc2ccc(N3CCOCC3)cc21 (nonaromatic ring conformer: 113.4482433954864 kcal/mol)

>  <smiles>  (1) 
Cn1c(C2CC(=O)N(c3ccc(Cl)cc3)C2)nc2ccc(N3CCOCC3)cc21

>  <score_type>  (1) 
oracle

>  <origin>  (1) 
adg

>  <m_score__min__energy>  (1) 
-8.5

>  <m_primary>  (1) 
energy

$$$$
1:0
     RDKit          3D

 50 51  0  0  0  0  0  0  0  0999 V2000
   -2.7830   21.0910  -27.8670 C   0  0  0  0  0  0  0  0  0  0  0  0
   -3.7170   22.2950  -27.9990 C   0  0  0  0  0  0  0  0  0  0  0  0
   -2.9930   23.5850  -27.9360 N   0  0  0  0  0  0  0  0  0  0  0  0
   -3.6980   24.5490  -27.0600 C   0  0  0  0  0  0  0  0  0  0  0  0
   -2.7210   25.3160  -26.1700 C   0  0  0  0  0  0  0  0  0  0  0  0
   -2.6210   24.1510  -29.2610 C   0  0  0  0  0  0  0  0  0  0  0  0
   -3.5920   23.8180  -30.4120 C   0  0  0  0  0  0  0  0  0  0  0  0
   -4.2590   24.9960  -30.8260 O   0  0  0  0  0  0  0  0  0  0  0  0
   -5.3010   25.3190  -29.9280 C   0  0  0  0  0  0  0  0  0  0  0  0
   -6.6110   24.7260  -30.4470 C   0  0  0  0  0  0  0  0  0  0  0  0
   -6.3620   23.8720  -31.6080 N   0  0  0  0  0  0  0  0  0  0  0  0
   -7.0120   22.6010  -31.7910 C   0  0  0  0  0  0  0  0  0  0  0  0
   -8.3580   22.4590  -31.4530 C   0  0  0  0  0  0  0  0  0  0  0  0
   -9.0070   21.2460  -31.6540 C   0  0  0  0  0  0  0  0  0  0  0  0
   -8.3520   20.1710  -32.1850 N   0  0  0  0  0  0  0  0  0  0  0  0
   -9.1090   18.9220  -32.3690 C   0  0  0  0  0  0  0  0  0  0  0  0
   -7.0150   20.2660  -32.5220 C   0  0  0  0  0  0  0  0  0  0  0  0
   -6.3050   19.1630  -33.0520 C   0  0  0  0  0  0  0  0  0  0  0  0
   -4.9500   19.2700  -33.3680 C   0  0  0  0  0  0  0  0  0  0  0  0
   -4.2730   20.4680  -33.1610 C   0  0  0  0  0  0  0  0  0  0  0  0
   -4.9470   21.5720  -32.6410 C   0  0  0  0  0  0  0  0  0  0  0  0
   -6.3200   21.4950  -32.3280 C   0  0  0  0  0  0  0  0  0  0  0  0
   -2.6140   20.8731  -26.8021 H   0  0  0  0  0  0  0  0  0  0  0  0
   -3.2413   20.2165  -28.3520 H   0  0  0  0  0  0  0  0  0  0  0  0
   -1.8220   21.3175  -28.3520 H   0  0  0  0  0  0  0  0  0  0  0  0
   -4.2403   22.2311  -28.9645 H   0  0  0  0  0  0  0  0  0  0  0  0
   -4.4209   22.2656  -27.1542 H   0  0  0  0  0  0  0  0  0  0  0  0
   -4.2481   25.2658  -27.6874 H   0  0  0  0  0  0  0  0  0  0  0  0
   -4.3863   23.9866  -26.4119 H   0  0  0  0  0  0  0  0  0  0  0  0
   -2.9617   25.1270  -25.1134 H   0  0  0  0  0  0  0  0  0  0  0  0
   -1.6944   24.9801  -26.3779 H   0  0  0  0  0  0  0  0  0  0  0  0
   -2.8036   26.3930  -26.3779 H   0  0  0  0  0  0  0  0  0  0  0  0
   -2.5725   25.2455  -29.1623 H   0  0  0  0  0  0  0  0  0  0  0  0
   -1.6585   23.6917  -29.5304 H   0  0  0  0  0  0  0  0  0  0  0  0
   -3.0270   23.4004  -31.2584 H   0  0  0  0  0  0  0  0  0  0  0  0
   -4.3320   23.0820  -30.0645 H   0  0  0  0  0  0  0  0  0  0  0  0
   -5.0750   24.9009  -28.9360 H   0  0  0  0  0  0  0  0  0  0  0  0
   -5.3953   26.4120  -29.8477 H   0  0  0  0  0  0  0  0  0  0  0  0
   -7.0780   24.1276  -29.6509 H   0  0  0  0  0  0  0  0  0  0  0  0
   -7.2794   25.5469  -30.7459 H   0  0  0  0  0  0  0  0  0  0  0  0
   -5.6440   24.1820  -32.3000 H   0  0  0  0  0  0  0  0  0  0  0  0
   -8.9082   23.3103  -31.0257 H   0  0  0  0  0  0  0  0  0  0  0  0
  -10.0681   21.1500  -31.3803 H   0  0  0  0  0  0  0  0  0  0  0  0
   -9.3647   18.5000  -31.3859 H   0  0  0  0  0  0  0  0  0  0  0  0
  -10.0320   19.1318  -32.9293 H   0  0  0  0  0  0  0  0  0  0  0  0
   -8.4959   18.2008  -32.9293 H   0  0  0  0  0  0  0  0  0  0  0  0
   -6.8276   18.2092  -33.2170 H   0  0  0  0  0  0  0  0  0  0  0  0
   -4.4145   18.4032  -33.7827 H   0  0  0  0  0  0  0  0  0  0  0  0
   -3.2038   20.5441  -33.4082 H   0  0  0  0  0  0  0  0  0  0  0  0
   -4.4023   22.5128  -32.4731 H   0  0  0  0  0  0  0  0  0  0  0  0
  1  2  1  0
  2  3  1  0
  3  4  1  0
  4  5  1  0
  3  6  1  0
  6  7  1  0
  7  8  1  0
  8  9  1  0
  9 10  1  0
 10 11  1  0
 11 12  1  0
 12 13  2  0
 13 14  1  0
 14 15  2  0
 15 16  1  0
 15 17  1  0
 17 18  2  0
 18 19  1  0
 19 20  2  0
 20 21  1  0
 21 22  2  0
 22 12  1  0
 22 17  1  0
  1 23  1  0
  1 24  1  0
  1 25  1  0
  2 26  1  0
  2 27  1  0
  4 28  1  0
  4 29  1  0
  5 30  1  0
  5 31  1  0
  5 32  1  0
  6 33  1  0
  6 34  1  0
  7 35  1  0
  7 36  1  0
  9 37  1  0
  9 38  1  0
 10 39  1  0
 10 40  1  0
 11 41  1  0
 13 42  1  0
 14 43  1  0
 16 44  1  0
 16 45  1  0
 16 46  1  0
 18 47  1  0
 19 48  1  0
 20 49  1  0
 21 50  1  0
M  CHG  1  15   1
M  END
>  <UniqueID>  (2) 
2

>  <SMILES>  (2) 
CCN(CC)CCOCCNc1cc[n+](C)c2ccccc12

>  <Energy>  (2) 
61.87952598555978

>  <Genealogy>  (2) 
CCN(CC)CCOCCNc1cc[n+](C)c2ccccc12 (3D coordinates assigned)
CCN(CC)CCOCCNc1cc[n+](C)c2ccccc12 (optimized conformer: 61.87952598555978 kcal/mol)

>  <smiles>  (2) 
CCN(CC)CCOCCNc1cc[n+](C)c2ccccc12

>  <score_type>  (2) 
oracle

>  <origin>  (2) 
adg

>  <m_score__min__energy>  (2) 
-6.9900000000000002

>  <m_primary>  (2) 
energy

$$$$
2:0
     RDKit          3D

 45 46  0  0  0  0  0  0  0  0999 V2000
   -3.0440   21.1910  -33.4690 C   0  0  0  0  0  0  0  0  0  0  0  0
   -3.5570   21.6080  -32.2240 O   0  0  0  0  0  0  0  0  0  0  0  0
   -2.5090   21.7730  -31.2870 C   0  0  0  0  0  0  0  0  0  0  0  0
   -2.8890   22.7960  -30.2140 C   0  0  0  0  0  0  0  0  0  0  0  0
   -4.2780   23.2680  -30.4270 N   0  0  0  0  0  0  0  0  0  0  0  0
   -4.3190   24.7300  -30.6410 C   0  0  0  0  0  0  0  0  0  0  0  0
   -5.7530   25.3070  -30.6040 C   0  0  0  0  0  0  0  0  0  0  0  0
   -6.8690   24.2420  -30.6920 C   0  0  0  0  0  0  0  0  0  0  0  0
   -7.1720   23.7960  -32.1440 C   0  0  0  0  0  0  0  0  0  0  0  0
   -6.7100   22.4360  -32.4290 N   0  0  0  0  0  0  0  0  0  0  0  0
   -7.6000   21.3140  -32.5400 C   0  0  0  0  0  0  0  0  0  0  0  0
   -8.8260   21.4530  -32.2760 O   0  0  0  0  0  0  0  0  0  0  0  0
   -7.1010   19.9710  -32.8980 C   0  0  0  0  0  0  0  0  0  0  0  0
   -6.0020   19.7500  -33.7100 C   0  0  0  0  0  0  0  0  0  0  0  0
   -5.8840   18.3820  -33.8330 C   0  0  0  0  0  0  0  0  0  0  0  0
   -4.5800   17.4510  -34.8650 Br  0  0  0  0  0  0  0  0  0  0  0  0
   -6.8910   17.8150  -33.0830 C   0  0  0  0  0  0  0  0  0  0  0  0
   -7.6230   18.7850  -32.4990 N   0  0  0  0  0  0  0  0  0  0  0  0
   -8.7470   18.5450  -31.5970 C   0  0  0  0  0  0  0  0  0  0  0  0
   -6.6320   23.0560  -29.7190 C   0  0  0  0  0  0  0  0  0  0  0  0
   -5.1600   22.8870  -29.3110 C   0  0  0  0  0  0  0  0  0  0  0  0
   -2.1998   20.5048  -33.3065 H   0  0  0  0  0  0  0  0  0  0  0  0
   -3.8325   20.6745  -34.0360 H   0  0  0  0  0  0  0  0  0  0  0  0
   -2.6994   22.0683  -34.0360 H   0  0  0  0  0  0  0  0  0  0  0  0
   -2.3018   20.8062  -30.8050 H   0  0  0  0  0  0  0  0  0  0  0  0
   -1.6176   22.1373  -31.8186 H   0  0  0  0  0  0  0  0  0  0  0  0
   -2.8124   22.3275  -29.2217 H   0  0  0  0  0  0  0  0  0  0  0  0
   -2.2041   23.6544  -30.2774 H   0  0  0  0  0  0  0  0  0  0  0  0
   -3.7253   25.2162  -29.8529 H   0  0  0  0  0  0  0  0  0  0  0  0
   -3.9113   24.9269  -31.6435 H   0  0  0  0  0  0  0  0  0  0  0  0
   -5.8778   25.8598  -29.6612 H   0  0  0  0  0  0  0  0  0  0  0  0
   -5.8580   25.9476  -31.4920 H   0  0  0  0  0  0  0  0  0  0  0  0
   -7.7906   24.7341  -30.3479 H   0  0  0  0  0  0  0  0  0  0  0  0
   -8.2593   23.8385  -32.3049 H   0  0  0  0  0  0  0  0  0  0  0  0
   -6.6322   24.4769  -32.8186 H   0  0  0  0  0  0  0  0  0  0  0  0
   -5.6840   22.2830  -32.5190 H   0  0  0  0  0  0  0  0  0  0  0  0
   -5.3532   20.5126  -34.1656 H   0  0  0  0  0  0  0  0  0  0  0  0
   -7.0705   16.7350  -32.9768 H   0  0  0  0  0  0  0  0  0  0  0  0
   -8.4029   18.6185  -30.5548 H   0  0  0  0  0  0  0  0  0  0  0  0
   -9.5297   19.2963  -31.7786 H   0  0  0  0  0  0  0  0  0  0  0  0
   -9.1546   17.5396  -31.7786 H   0  0  0  0  0  0  0  0  0  0  0  0
   -7.2285   23.2256  -28.8105 H   0  0  0  0  0  0  0  0  0  0  0  0
   -6.9305   22.1381  -30.2466 H   0  0  0  0  0  0  0  0  0  0  0  0
   -4.9470   23.5290  -28.4436 H   0  0  0  0  0  0  0  0  0  0  0  0
   -4.9773   21.8338  -29.0514 H   0  0  0  0  0  0  0  0  0  0  0  0
  1  2  1  0
  2  3  1  0
  3  4  1  0
  4  5  1  0
  5  6  1  0
  6  7  1  0
  7  8  1  0
  8  9  1  0
  9 10  1  0
 10 11  1  0
 11 12  2  0
 11 13  1  0
 13 14  2  0
 14 15  1  0
 15 16  1  0
 15 17  2  0
 17 18  1  0
 18 19  1  0
  8 20  1  0
 20 21  1  0
 21  5  1  0
 18 13  1  0
  1 22  1  0
  1 23  1  0
  1 24  1  0
  3 25  1  0
  3 26  1  0
  4 27  1  0
  4 28  1  0
  6 29  1  0
  6 30  1  0
  7 31  1  0
  7 32  1  0
  8 33  1  0
  9 34  1  0
  9 35  1  0
 10 36  1  0
 14 37  1  0
 17 38  1  0
 19 39  1  0
 19 40  1  0
 19 41  1  0
 20 42  1  0
 20 43  1  0
 21 44  1  0
 21 45  1  0
M  END
>  <UniqueID>  (3) 
3

>  <SMILES>  (3) 
COCCN1CCC(CNC(=O)c2cc(Br)cn2C)CC1

>  <Energy>  (3) 
77.05008527027034

>  <Genealogy>  (3) 
COCCN1CCC(CNC(=O)c2cc(Br)cn2C)CC1 (3D coordinates assigned)
COCCN1CCC(CNC(=O)c2cc(Br)cn2C)CC1 (nonaromatic ring conformer: 77.05008527027034 kcal/mol)

>  <smiles>  (3) 
COCCN1CCC(CNC(=O)c2cc(Br)cn2C)CC1

>  <score_type>  (3) 
oracle

>  <origin>  (3) 
adg

>  <m_score__min__energy>  (3) 
-8.0299999999999994

>  <m_primary>  (3) 
energy

$$$$
3:0
     RDKit          3D

 63 65  0  0  0  0  0  0  0  0999 V2000
   -3.7820   23.5020  -27.8810 C   0  0  0  0  0  0  0  0  0  0  0  0
   -3.3720   24.5440  -28.9140 C   0  0  0  0  0  0  0  0  0  0  0  0
   -1.8920   24.6330  -28.9580 N   0  0  0  0  0  0  0  0  0  0  0  0
   -1.3520   25.7390  -28.1320 C   0  0  0  0  0  0  0  0  0  0  0  0
   -1.6090   25.5760  -26.6260 C   0  0  0  0  0  0  0  0  0  0  0  0
   -1.2130   23.3420  -28.7100 C   0  0  0  0  0  0  0  0  0  0  0  0
   -1.2960   22.4540  -29.9520 C   0  0  0  0  0  0  0  0  0  0  0  0
   -2.4530   21.6360  -29.8790 O   0  0  0  0  0  0  0  0  0  0  0  0
   -2.5910   20.8250  -31.0320 C   0  0  0  0  0  0  0  0  0  0  0  0
   -2.2390   21.6430  -32.2770 C   0  0  0  0  0  0  0  0  0  0  0  0
   -3.3410   21.6420  -33.2380 N   0  0  0  0  0  0  0  0  0  0  0  0
   -4.6350   21.1880  -32.8150 C   0  0  0  0  0  0  0  0  0  0  0  0
   -5.5010   22.0920  -32.1720 C   0  0  0  0  0  0  0  0  0  0  0  0
   -5.0420   23.3590  -31.7470 C   0  0  0  0  0  0  0  0  0  0  0  0
   -5.8920   24.2350  -31.0760 C   0  0  0  0  0  0  0  0  0  0  0  0
   -7.2050   23.8620  -30.8060 C   0  0  0  0  0  0  0  0  0  0  0  0
   -7.6820   22.6220  -31.2290 C   0  0  0  0  0  0  0  0  0  0  0  0
   -6.8510   21.7270  -31.9530 C   0  0  0  0  0  0  0  0  0  0  0  0
   -7.3270   20.5290  -32.4430 N   0  0  0  0  0  0  0  0  0  0  0  0
   -8.7880   20.3000  -32.5360 C   0  0  0  0  0  0  0  0  0  0  0  0
   -6.4440   19.5530  -32.8700 C   0  0  0  0  0  0  0  0  0  0  0  0
   -6.8810   18.2310  -33.1030 C   0  0  0  0  0  0  0  0  0  0  0  0
   -6.0130   17.2500  -33.5550 C   0  0  0  0  0  0  0  0  0  0  0  0
   -4.6610   17.5280  -33.7660 C   0  0  0  0  0  0  0  0  0  0  0  0
   -3.7560   16.4750  -34.1710 N   0  0  0  0  0  0  0  0  0  0  0  0
   -4.1960   15.2030  -34.7340 C   0  0  0  0  0  0  0  0  0  0  0  0
   -4.1800   18.8350  -33.5200 C   0  0  0  0  0  0  0  0  0  0  0  0
   -2.7770   19.0830  -33.6680 N   0  0  0  0  0  0  0  0  0  0  0  0
   -2.3640   19.8100  -34.5950 O   0  0  0  0  0  0  0  0  0  0  0  0
   -1.8770   18.3400  -32.9410 O   0  0  0  0  0  0  0  0  0  0  0  0
   -5.0680   19.8620  -33.0720 C   0  0  0  0  0  0  0  0  0  0  0  0
   -3.6232   23.9056  -26.8701 H   0  0  0  0  0  0  0  0  0  0  0  0
   -4.8452   23.2529  -28.0135 H   0  0  0  0  0  0  0  0  0  0  0  0
   -3.1736   22.5952  -28.0135 H   0  0  0  0  0  0  0  0  0  0  0  0
   -3.7523   24.2502  -29.9035 H   0  0  0  0  0  0  0  0  0  0  0  0
   -3.7925   25.5223  -28.6382 H   0  0  0  0  0  0  0  0  0  0  0  0
   -0.2653   25.7931  -28.2938 H   0  0  0  0  0  0  0  0  0  0  0  0
   -1.8727   26.6554  -28.4468 H   0  0  0  0  0  0  0  0  0  0  0  0
   -0.8119   26.0816  -26.0612 H   0  0  0  0  0  0  0  0  0  0  0  0
   -2.5806   26.0233  -26.3693 H   0  0  0  0  0  0  0  0  0  0  0  0
   -1.6185   24.5064  -26.3693 H   0  0  0  0  0  0  0  0  0  0  0  0
   -0.1566   23.5281  -28.4664 H   0  0  0  0  0  0  0  0  0  0  0  0
   -1.7080   22.8318  -27.8705 H   0  0  0  0  0  0  0  0  0  0  0  0
   -1.3514   23.0863  -30.8504 H   0  0  0  0  0  0  0  0  0  0  0  0
   -0.4015   21.8158  -30.0038 H   0  0  0  0  0  0  0  0  0  0  0  0
   -1.9129   19.9621  -30.9565 H   0  0  0  0  0  0  0  0  0  0  0  0
   -3.6294   20.4701  -31.1082 H   0  0  0  0  0  0  0  0  0  0  0  0
   -2.0252   22.6795  -31.9770 H   0  0  0  0  0  0  0  0  0  0  0  0
   -1.3587   21.1889  -32.7553 H   0  0  0  0  0  0  0  0  0  0  0  0
   -3.1130   21.5750  -34.2560 H   0  0  0  0  0  0  0  0  0  0  0  0
   -4.0023   23.6567  -31.9482 H   0  0  0  0  0  0  0  0  0  0  0  0
   -5.5250   25.2224  -30.7593 H   0  0  0  0  0  0  0  0  0  0  0  0
   -7.8683   24.5470  -30.2575 H   0  0  0  0  0  0  0  0  0  0  0  0
   -8.7179   22.3327  -30.9983 H   0  0  0  0  0  0  0  0  0  0  0  0
   -9.2138   20.2333  -31.5240 H   0  0  0  0  0  0  0  0  0  0  0  0
   -9.2565   21.1357  -33.0765 H   0  0  0  0  0  0  0  0  0  0  0  0
   -8.9783   19.3611  -33.0765 H   0  0  0  0  0  0  0  0  0  0  0  0
   -7.9350   17.9737  -32.9215 H   0  0  0  0  0  0  0  0  0  0  0  0
   -6.3948   16.2371  -33.7505 H   0  0  0  0  0  0  0  0  0  0  0  0
   -2.7220   16.6180  -34.0980 H   0  0  0  0  0  0  0  0  0  0  0  0
   -4.4374   14.5051  -33.9187 H   0  0  0  0  0  0  0  0  0  0  0  0
   -5.0900   15.3660  -35.3539 H   0  0  0  0  0  0  0  0  0  0  0  0
   -3.3924   14.7788  -35.3539 H   0  0  0  0  0  0  0  0  0  0  0  0
  1  2  1  0
  2  3  1  0
  3  4  1  0
  4  5  1  0
  3  6  1  0
  6  7  1  0
  7  8  1  0
  8  9  1  0
  9 10  1  0
 10 11  1  0
 11 12  1  0
 12 13  2  0
 13 14  1  0
 14 15  2  0
 15 16  1  0
 16 17  2  0
 17 18  1  0
 18 19  2  0
 19 20  1  0
 19 21  1  0
 21 22  2  0
 22 23  1  0
 23 24  2  0
 24 25  1  0
 25 26  1  0
 24 27  1  0
 27 28  1  0
 28 29  2  0
 28 30  1  0
 27 31  2  0
 31 12  1  0
 18 13  1  0
 31 21  1  0
  1 32  1  0
  1 33  1  0
  1 34  1  0
  2 35  1  0
  2 36  1  0
  4 37  1  0
  4 38  1  0
  5 39  1  0
  5 40  1  0
  5 41  1  0
  6 42  1  0
  6 43  1  0
  7 44  1  0
  7 45  1  0
  9 46  1  0
  9 47  1  0
 10 48  1  0
 10 49  1  0
 11 50  1  0
 14 51  1  0
 15 52  1  0
 16 53  1  0
 17 54  1  0
 20 55  1  0
 20 56  1  0
 20 57  1  0
 22 58  1  0
 23 59  1  0
 25 60  1  0
 26 61  1  0
 26 62  1  0
 26 63  1  0
M  CHG  3  19   1  28   1  30  -1
M  END
>  <UniqueID>  (4) 
4

>  <SMILES>  (4) 
CCN(CC)CCOCCNc1c2ccccc2[n+](C)c2ccc(NC)c([N+](=O)[O-])c12

>  <Energy>  (4) 
105.73530142464418

>  <Genealogy>  (4) 
CCN(CC)CCOCCNc1c2ccccc2[n+](C)c2ccc(NC)c([N+](=O)[O-])c12 (3D coordinates assigned)
CCN(CC)CCOCCNc1c2ccccc2[n+](C)c2ccc(NC)c([N+](=O)[O-])c12 (optimized conformer: 105.73530142464418 kcal/mol)

>  <smiles>  (4) 
CCN(CC)CCOCCNc1c2ccccc2[n+](C)c2ccc(NC)c([N+](=O)[O-])c12

>  <score_type>  (4) 
oracle

>  <origin>  (4) 
adg

>  <m_score__min__energy>  (4) 
-7.7699999999999996

>  <m_primary>  (4) 
energy

$$$$
4:0
     RDKit          3D

 44 46  0  0  0  0  0  0  0  0999 V2000
   -6.0760   23.9920  -31.3200 C   0  0  0  0  0  0  0  0  0  0  0  0
   -6.8430   23.4040  -30.1350 C   0  0  0  0  0  0  0  0  0  0  0  0
   -7.5370   22.0760  -30.4750 C   0  0  0  0  0  0  0  0  0  0  0  0
   -8.0630   22.0360  -31.9180 C   0  0  0  0  0  0  0  0  0  0  0  0
   -8.1790   20.6480  -32.3910 N   0  0  0  0  0  0  0  0  0  0  0  0
   -9.5050   20.0250  -32.4380 C   0  0  0  0  0  0  0  0  0  0  0  0
   -7.0000   19.8580  -32.6590 C   0  0  0  0  0  0  0  0  0  0  0  0
   -7.0460   18.4540  -32.5750 C   0  0  0  0  0  0  0  0  0  0  0  0
   -5.9080   17.6870  -32.8470 C   0  0  0  0  0  0  0  0  0  0  0  0
   -4.7090   18.3140  -33.2080 C   0  0  0  0  0  0  0  0  0  0  0  0
   -3.5880   17.5870  -33.4800 N   0  0  0  0  0  0  0  0  0  0  0  0
   -2.4250   18.1980  -33.8320 C   0  0  0  0  0  0  0  0  0  0  0  0
   -2.3680   19.5990  -33.9200 C   0  0  0  0  0  0  0  0  0  0  0  0
   -1.1290   20.3070  -34.2990 C   0  0  0  0  0  0  0  0  0  0  0  0
   -0.7160   21.5490  -33.8460 C   0  0  0  0  0  0  0  0  0  0  0  0
    0.4560   21.8700  -34.4270 N   0  0  0  0  0  0  0  0  0  0  0  0
    0.7980   20.8630  -35.2170 N   0  0  0  0  0  0  0  0  0  0  0  0
    1.9790   20.8670  -36.0690 C   0  0  0  0  0  0  0  0  0  0  0  0
   -0.1420   19.9020  -35.1790 C   0  0  0  0  0  0  0  0  0  0  0  0
   -3.4900   20.3200  -33.6460 N   0  0  0  0  0  0  0  0  0  0  0  0
   -4.6550   19.7180  -33.2940 C   0  0  0  0  0  0  0  0  0  0  0  0
   -5.7930   20.4840  -33.0210 C   0  0  0  0  0  0  0  0  0  0  0  0
   -5.2543   24.6220  -30.9487 H   0  0  0  0  0  0  0  0  0  0  0  0
   -5.6646   23.1757  -31.9319 H   0  0  0  0  0  0  0  0  0  0  0  0
   -6.7574   24.6013  -31.9319 H   0  0  0  0  0  0  0  0  0  0  0  0
   -6.1362   23.2301  -29.3102 H   0  0  0  0  0  0  0  0  0  0  0  0
   -7.6257   24.1250  -29.8564 H   0  0  0  0  0  0  0  0  0  0  0  0
   -6.8152   21.2569  -30.3404 H   0  0  0  0  0  0  0  0  0  0  0  0
   -8.4012   21.9703  -29.8026 H   0  0  0  0  0  0  0  0  0  0  0  0
   -9.0531   22.5139  -31.9548 H   0  0  0  0  0  0  0  0  0  0  0  0
   -7.3556   22.5728  -32.5672 H   0  0  0  0  0  0  0  0  0  0  0  0
   -9.8668   19.8550  -31.4132 H   0  0  0  0  0  0  0  0  0  0  0  0
  -10.2036   20.6891  -32.9680 H   0  0  0  0  0  0  0  0  0  0  0  0
   -9.4397   19.0633  -32.9680 H   0  0  0  0  0  0  0  0  0  0  0  0
   -7.9850   17.9552  -32.2930 H   0  0  0  0  0  0  0  0  0  0  0  0
   -5.9551   16.5902  -32.7772 H   0  0  0  0  0  0  0  0  0  0  0  0
   -3.6090   16.5430  -33.4220 H   0  0  0  0  0  0  0  0  0  0  0  0
   -1.5300   17.5959  -34.0476 H   0  0  0  0  0  0  0  0  0  0  0  0
   -1.2603   22.1756  -33.1242 H   0  0  0  0  0  0  0  0  0  0  0  0
    2.8831   20.8701  -35.4425 H   0  0  0  0  0  0  0  0  0  0  0  0
    1.9760   19.9688  -36.7041 H   0  0  0  0  0  0  0  0  0  0  0  0
    1.9699   21.7651  -36.7041 H   0  0  0  0  0  0  0  0  0  0  0  0
   -0.1283   18.9603  -35.7474 H   0  0  0  0  0  0  0  0  0  0  0  0
   -5.7442   21.5808  -33.0896 H   0  0  0  0  0  0  0  0  0  0  0  0
  1  2  1  0
  2  3  1  0
  3  4  1  0
  4  5  1  0
  5  6  1  0
  5  7  1  0
  7  8  2  0
  8  9  1  0
  9 10  2  0
 10 11  1  0
 11 12  2  0
 12 13  1  0
 13 14  1  0
 14 15  1  0
 15 16  2  0
 16 17  1  0
 17 18  1  0
 17 19  1  0
 13 20  2  0
 20 21  1  0
 21 22  2  0
 22  7  1  0
 21 10  1  0
 19 14  2  0
  1 23  1  0
  1 24  1  0
  1 25  1  0
  2 26  1  0
  2 27  1  0
  3 28  1  0
  3 29  1  0
  4 30  1  0
  4 31  1  0
  6 32  1  0
  6 33  1  0
  6 34  1  0
  8 35  1  0
  9 36  1  0
 11 37  1  0
 12 38  1  0
 15 39  1  0
 18 40  1  0
 18 41  1  0
 18 42  1  0
 19 43  1  0
 22 44  1  0
M  CHG  1  11   1
M  END
>  <UniqueID>  (5) 
5

>  <SMILES>  (5) 
CCCCN(C)c1ccc2[nH+]cc(-c3cnn(C)c3)nc2c1

>  <Energy>  (5) 
75.25354843225895

>  <Genealogy>  (5) 
CCCCN(C)c1ccc2[nH+]cc(-c3cnn(C)c3)nc2c1 (protonated)
CCCCN(C)c1ccc2[nH+]cc(-c3cnn(C)c3)nc2c1 (3D coordinates assigned)
CCCCN(C)c1ccc2[nH+]cc(-c3cnn(C)c3)nc2c1 (optimized conformer: 75.25354843225895 kcal/mol)

>  <smiles>  (5) 
CCCCN(C)c1ccc2ncc(-c3cnn(C)c3)nc2c1

>  <score_type>  (5) 
oracle

>  <origin>  (5) 
adg

>  <m_score__min__energy>  (5) 
-6.3600000000000003

>  <m_primary>  (5) 
energy

$$$$
5:0
     RDKit          3D

 44 45  0  0  0  0  0  0  0  0999 V2000
   -3.6470   21.7240  -32.9460 C   0  0  0  0  0  0  0  0  0  0  0  0
   -2.6250   21.6040  -31.8190 C   0  0  0  0  0  0  0  0  0  0  0  0
   -3.1760   22.0640  -30.5850 O   0  0  0  0  0  0  0  0  0  0  0  0
   -2.6420   21.8260  -29.3050 C   0  0  0  0  0  0  0  0  0  0  0  0
   -2.9350   20.6550  -28.5760 C   0  0  0  0  0  0  0  0  0  0  0  0
   -2.4000   20.4640  -27.3000 C   0  0  0  0  0  0  0  0  0  0  0  0
   -1.5750   21.4370  -26.7320 C   0  0  0  0  0  0  0  0  0  0  0  0
   -1.2790   22.6020  -27.4410 C   0  0  0  0  0  0  0  0  0  0  0  0
   -1.7950   22.8000  -28.7330 C   0  0  0  0  0  0  0  0  0  0  0  0
   -1.4800   24.0730  -29.4710 C   0  0  0  0  0  0  0  0  0  0  0  0
   -2.5610   25.0290  -29.2720 N   0  0  0  0  0  0  0  0  0  0  0  0
   -3.8620   24.9220  -29.8590 C   0  0  0  0  0  0  0  0  0  0  0  0
   -4.1400   25.6530  -30.8470 O   0  0  0  0  0  0  0  0  0  0  0  0
   -4.9280   24.0240  -29.2750 C   0  0  0  0  0  0  0  0  0  0  0  0
   -5.4390   23.0720  -30.2780 N   0  0  0  0  0  0  0  0  0  0  0  0
   -6.8870   23.2300  -30.5010 C   0  0  0  0  0  0  0  0  0  0  0  0
   -7.4830   22.0280  -31.1960 C   0  0  0  0  0  0  0  0  0  0  0  0
   -8.8740   21.9350  -31.3720 C   0  0  0  0  0  0  0  0  0  0  0  0
   -9.4320   20.8150  -31.9950 C   0  0  0  0  0  0  0  0  0  0  0  0
   -8.6060   19.7770  -32.4400 C   0  0  0  0  0  0  0  0  0  0  0  0
   -9.1480   18.6910  -33.0440 F   0  0  0  0  0  0  0  0  0  0  0  0
   -7.2220   19.8580  -32.2610 C   0  0  0  0  0  0  0  0  0  0  0  0
   -6.6610   20.9790  -31.6390 C   0  0  0  0  0  0  0  0  0  0  0  0
   -4.6532   21.8421  -32.5175 H   0  0  0  0  0  0  0  0  0  0  0  0
   -3.4075   22.6002  -33.5664 H   0  0  0  0  0  0  0  0  0  0  0  0
   -3.6170   20.8162  -33.5664 H   0  0  0  0  0  0  0  0  0  0  0  0
   -2.3288   20.5501  -31.7113 H   0  0  0  0  0  0  0  0  0  0  0  0
   -1.7508   22.2235  -32.0679 H   0  0  0  0  0  0  0  0  0  0  0  0
   -3.5890   19.8872  -29.0150 H   0  0  0  0  0  0  0  0  0  0  0  0
   -2.6291   19.5447  -26.7411 H   0  0  0  0  0  0  0  0  0  0  0  0
   -1.1583   21.2851  -25.7254 H   0  0  0  0  0  0  0  0  0  0  0  0
   -0.6374   23.3706  -26.9854 H   0  0  0  0  0  0  0  0  0  0  0  0
   -0.5403   24.4967  -29.0870 H   0  0  0  0  0  0  0  0  0  0  0  0
   -1.3732   23.8580  -30.5445 H   0  0  0  0  0  0  0  0  0  0  0  0
   -4.4994   23.4608  -28.4329 H   0  0  0  0  0  0  0  0  0  0  0  0
   -5.7645   24.6539  -28.9383 H   0  0  0  0  0  0  0  0  0  0  0  0
   -4.9280   23.1940  -31.1840 H   0  0  0  0  0  0  0  0  0  0  0  0
   -5.2710   22.0960  -29.9330 H   0  0  0  0  0  0  0  0  0  0  0  0
   -7.3845   23.3620  -29.5288 H   0  0  0  0  0  0  0  0  0  0  0  0
   -7.0394   24.1079  -31.1460 H   0  0  0  0  0  0  0  0  0  0  0  0
   -9.5264   22.7468  -31.0181 H   0  0  0  0  0  0  0  0  0  0  0  0
  -10.5210   20.7496  -32.1355 H   0  0  0  0  0  0  0  0  0  0  0  0
   -6.5737   19.0404  -32.6092 H   0  0  0  0  0  0  0  0  0  0  0  0
   -5.5719   21.0388  -31.4965 H   0  0  0  0  0  0  0  0  0  0  0  0
  1  2  1  0
  2  3  1  0
  3  4  1  0
  4  5  2  0
  5  6  1  0
  6  7  2  0
  7  8  1  0
  8  9  2  0
  9 10  1  0
 10 11  1  0
 11 12  1  0
 12 13  2  0
 12 14  1  0
 14 15  1  0
 15 16  1  0
 16 17  1  0
 17 18  2  0
 18 19  1  0
 19 20  2  0
 20 21  1  0
 20 22  1  0
 22 23  2  0
  9  4  1  0
 23 17  1  0
  1 24  1  0
  1 25  1  0
  1 26  1  0
  2 27  1  0
  2 28  1  0
  5 29  1  0
  6 30  1  0
  7 31  1  0
  8 32  1  0
 10 33  1  0
 10 34  1  0
 14 35  1  0
 14 36  1  0
 15 37  1  0
 15 38  1  0
 16 39  1  0
 16 40  1  0
 18 41  1  0
 19 42  1  0
 22 43  1  0
 23 44  1  0
M  CHG  2  11  -1  15   1
M  END
>  <UniqueID>  (6) 
6

>  <SMILES>  (6) 
CCOc1ccccc1C[N-]C(=O)C[NH2+]Cc1ccc(F)cc1

>  <Energy>  (6) 
39.86576587436182

>  <Genealogy>  (6) 
CCOc1ccccc1C[N-]C(=O)C[NH2+]Cc1ccc(F)cc1 (protonated)
CCOc1ccccc1C[N-]C(=O)C[NH2+]Cc1ccc(F)cc1 (3D coordinates assigned)
CCOc1ccccc1C[N-]C(=O)C[NH2+]Cc1ccc(F)cc1 (optimized conformer: 39.86576587436182 kcal/mol)

>  <smiles>  (6) 
CCOc1ccccc1CNC(=O)CNCc1ccc(F)cc1

>  <score_type>  (6) 
oracle

>  <origin>  (6) 
adg

>  <m_score__min__energy>  (6) 
-8.3200000000000003

>  <m_primary>  (6) 
energy

$$$$
6:0
     RDKit          3D

 63 66  0  0  0  0  0  0  0  0999 V2000
   -0.1080   23.4150  -24.4590 C   0  0  0  0  0  0  0  0  0  0  0  0
   -0.4900   24.5830  -25.2500 N   0  0  0  0  0  0  0  0  0  0  0  0
   -1.3440   25.5430  -24.8460 C   0  0  0  0  0  0  0  0  0  0  0  0
   -1.5060   26.4830  -25.8420 C   0  0  0  0  0  0  0  0  0  0  0  0
   -0.7210   26.0770  -26.9010 C   0  0  0  0  0  0  0  0  0  0  0  0
   -0.1140   24.8950  -26.5140 C   0  0  0  0  0  0  0  0  0  0  0  0
    0.7470   24.0730  -27.3950 C   0  0  0  0  0  0  0  0  0  0  0  0
    1.0160   24.4830  -28.5580 O   0  0  0  0  0  0  0  0  0  0  0  0
    1.2500   22.8120  -26.9460 N   0  0  0  0  0  0  0  0  0  0  0  0
    0.9770   21.5420  -27.6110 C   0  0  0  0  0  0  0  0  0  0  0  0
   -0.4600   21.0700  -27.3400 C   0  0  0  0  0  0  0  0  0  0  0  0
   -1.2990   21.0540  -28.5640 N   0  0  0  0  0  0  0  0  0  0  0  0
   -1.0390   22.2240  -29.4460 C   0  0  0  0  0  0  0  0  0  0  0  0
   -2.1530   23.2970  -29.4250 C   0  0  0  0  0  0  0  0  0  0  0  0
   -2.7830   23.4120  -28.0290 C   0  0  0  0  0  0  0  0  0  0  0  0
   -3.8390   24.5310  -27.9710 C   0  0  0  0  0  0  0  0  0  0  0  0
   -4.9190   24.2680  -28.9230 N   0  0  0  0  0  0  0  0  0  0  0  0
   -4.9070   24.7370  -30.2800 C   0  0  0  0  0  0  0  0  0  0  0  0
   -3.8810   25.2980  -30.7570 O   0  0  0  0  0  0  0  0  0  0  0  0
   -6.1310   24.5960  -31.1340 C   0  0  0  0  0  0  0  0  0  0  0  0
   -6.3130   23.1570  -31.5390 C   0  0  0  0  0  0  0  0  0  0  0  0
   -5.2240   22.4120  -32.0210 C   0  0  0  0  0  0  0  0  0  0  0  0
   -5.3960   21.0850  -32.4240 C   0  0  0  0  0  0  0  0  0  0  0  0
   -6.6640   20.4890  -32.3660 C   0  0  0  0  0  0  0  0  0  0  0  0
   -6.8500   19.1590  -32.7750 C   0  0  0  0  0  0  0  0  0  0  0  0
   -8.1210   18.5800  -32.7230 C   0  0  0  0  0  0  0  0  0  0  0  0
   -9.2140   19.3210  -32.2660 C   0  0  0  0  0  0  0  0  0  0  0  0
   -9.0430   20.6470  -31.8530 C   0  0  0  0  0  0  0  0  0  0  0  0
   -7.7700   21.2390  -31.8950 C   0  0  0  0  0  0  0  0  0  0  0  0
   -7.5840   22.5650  -31.4780 C   0  0  0  0  0  0  0  0  0  0  0  0
   -3.3910   22.0580  -27.5930 C   0  0  0  0  0  0  0  0  0  0  0  0
   -2.7430   20.8540  -28.3030 C   0  0  0  0  0  0  0  0  0  0  0  0
   -0.1866   23.6555  -23.3885 H   0  0  0  0  0  0  0  0  0  0  0  0
   -0.7786   22.5760  -24.6966 H   0  0  0  0  0  0  0  0  0  0  0  0
    0.9287   23.1344  -24.6966 H   0  0  0  0  0  0  0  0  0  0  0  0
   -1.8400   25.5729  -23.8646 H   0  0  0  0  0  0  0  0  0  0  0  0
   -2.1385   27.3820  -25.8000 H   0  0  0  0  0  0  0  0  0  0  0  0
   -0.6008   26.5923  -27.8654 H   0  0  0  0  0  0  0  0  0  0  0  0
    1.1148   21.6678  -28.6951 H   0  0  0  0  0  0  0  0  0  0  0  0
    1.6720   20.7860  -27.2166 H   0  0  0  0  0  0  0  0  0  0  0  0
   -0.4235   20.0518  -26.9253 H   0  0  0  0  0  0  0  0  0  0  0  0
   -0.9154   21.7809  -26.6348 H   0  0  0  0  0  0  0  0  0  0  0  0
   -0.0995   22.6965  -29.1235 H   0  0  0  0  0  0  0  0  0  0  0  0
   -0.9924   21.8385  -30.4752 H   0  0  0  0  0  0  0  0  0  0  0  0
   -1.7211   24.2690  -29.7055 H   0  0  0  0  0  0  0  0  0  0  0  0
   -2.9362   23.0018  -30.1388 H   0  0  0  0  0  0  0  0  0  0  0  0
   -1.9826   23.6794  -27.3235 H   0  0  0  0  0  0  0  0  0  0  0  0
   -4.2569   24.5817  -26.9547 H   0  0  0  0  0  0  0  0  0  0  0  0
   -3.3595   25.4858  -28.2326 H   0  0  0  0  0  0  0  0  0  0  0  0
   -5.7510   23.7380  -28.5800 H   0  0  0  0  0  0  0  0  0  0  0  0
   -7.0121   24.9288  -30.5657 H   0  0  0  0  0  0  0  0  0  0  0  0
   -6.0146   25.2134  -32.0369 H   0  0  0  0  0  0  0  0  0  0  0  0
   -4.2287   22.8765  -32.0817 H   0  0  0  0  0  0  0  0  0  0  0  0
   -4.5342   20.5063  -32.7878 H   0  0  0  0  0  0  0  0  0  0  0  0
   -5.9936   18.5713  -33.1372 H   0  0  0  0  0  0  0  0  0  0  0  0
   -8.2615   17.5370  -33.0430 H   0  0  0  0  0  0  0  0  0  0  0  0
  -10.2123   18.8604  -32.2308 H   0  0  0  0  0  0  0  0  0  0  0  0
   -9.9067   21.2265  -31.4950 H   0  0  0  0  0  0  0  0  0  0  0  0
   -8.4395   23.1446  -31.1008 H   0  0  0  0  0  0  0  0  0  0  0  0
   -3.2504   21.9431  -26.5081 H   0  0  0  0  0  0  0  0  0  0  0  0
   -4.4559   22.0701  -27.8685 H   0  0  0  0  0  0  0  0  0  0  0  0
   -2.8660   19.9636  -27.6690 H   0  0  0  0  0  0  0  0  0  0  0  0
   -3.2429   20.7331  -29.2754 H   0  0  0  0  0  0  0  0  0  0  0  0
  1  2  1  0
  2  3  1  0
  3  4  2  0
  4  5  1  0
  5  6  2  0
  6  7  1  0
  7  8  2  0
  7  9  1  0
  9 10  1  0
 10 11  1  0
 11 12  1  0
 12 13  1  0
 13 14  1  0
 14 15  1  0
 15 16  1  0
 16 17  1  0
 17 18  1  0
 18 19  2  0
 18 20  1  0
 20 21  1  0
 21 22  2  0
 22 23  1  0
 23 24  2  0
 24 25  1  0
 25 26  2  0
 26 27  1  0
 27 28  2  0
 28 29  1  0
 29 30  2  0
 15 31  1  0
 31 32  1  0
  6  2  1  0
 32 12  1  0
 30 21  1  0
 29 24  1  0
  1 33  1  0
  1 34  1  0
  1 35  1  0
  3 36  1  0
  4 37  1  0
  5 38  1  0
 10 39  1  0
 10 40  1  0
 11 41  1  0
 11 42  1  0
 13 43  1  0
 13 44  1  0
 14 45  1  0
 14 46  1  0
 15 47  1  0
 16 48  1  0
 16 49  1  0
 17 50  1  0
 20 51  1  0
 20 52  1  0
 22 53  1  0
 23 54  1  0
 25 55  1  0
 26 56  1  0
 27 57  1  0
 28 58  1  0
 30 59  1  0
 31 60  1  0
 31 61  1  0
 32 62  1  0
 32 63  1  0
M  CHG  1   9  -1
M  END
>  <UniqueID>  (7) 
7

>  <SMILES>  (7) 
Cn1cccc1C(=O)[N-]CCN1CCC(CNC(=O)Cc2ccc3ccccc3c2)CC1

>  <Energy>  (7) 
96.03383421157524

>  <Genealogy>  (7) 
Cn1cccc1C(=O)[N-]CCN1CCC(CNC(=O)Cc2ccc3ccccc3c2)CC1 (protonated)
Cn1cccc1C(=O)[N-]CCN1CCC(CNC(=O)Cc2ccc3ccccc3c2)CC1 (3D coordinates assigned)
Cn1cccc1C(=O)[N-]CCN1CCC(CNC(=O)Cc2ccc3ccccc3c2)CC1 (nonaromatic ring conformer: 96.03383421157524 kcal/mol)

>  <smiles>  (7) 
Cn1cccc1C(=O)NCCN1CCC(CNC(=O)Cc2ccc3ccccc3c2)CC1

>  <score_type>  (7) 
oracle

>  <origin>  (7) 
adg

>  <m_score__min__energy>  (7) 
-12.52

>  <m_primary>  (7) 
energy

$$$$
7:0
     RDKit          3D

 61 64  0  0  0  0  0  0  0  0999 V2000
   -3.2060   24.6320  -26.8490 C   0  0  0  0  0  0  0  0  0  0  0  0
   -1.9550   25.2940  -27.4130 C   0  0  0  0  0  0  0  0  0  0  0  0
   -2.0160   25.2780  -28.8380 O   0  0  0  0  0  0  0  0  0  0  0  0
   -2.2950   24.1460  -29.6160 C   0  0  0  0  0  0  0  0  0  0  0  0
   -1.4890   22.9920  -29.5780 C   0  0  0  0  0  0  0  0  0  0  0  0
   -1.7870   21.8880  -30.3950 C   0  0  0  0  0  0  0  0  0  0  0  0
   -2.9300   21.9040  -31.2090 C   0  0  0  0  0  0  0  0  0  0  0  0
   -3.7430   23.0470  -31.2330 C   0  0  0  0  0  0  0  0  0  0  0  0
   -3.4130   24.1820  -30.4660 C   0  0  0  0  0  0  0  0  0  0  0  0
   -4.1580   25.3770  -30.5190 O   0  0  0  0  0  0  0  0  0  0  0  0
   -5.5700   25.4780  -30.7170 C   0  0  0  0  0  0  0  0  0  0  0  0
   -6.2870   25.6600  -29.3820 C   0  0  0  0  0  0  0  0  0  0  0  0
   -3.3070   20.6880  -32.0410 C   0  0  0  0  0  0  0  0  0  0  0  0
   -2.1900   19.7240  -32.3240 N   0  0  1  0  0  0  0  0  0  0  0  0
   -2.1410   19.3620  -33.7700 C   0  0  0  0  0  0  0  0  0  0  0  0
   -3.1880   18.2910  -34.1440 C   0  0  0  0  0  0  0  0  0  0  0  0
   -4.3620   18.3610  -33.2400 N   0  0  0  0  0  0  0  0  0  0  0  0
   -5.0010   17.0320  -33.1250 C   0  0  0  0  0  0  0  0  0  0  0  0
   -6.0680   17.0580  -32.0310 C   0  0  0  0  0  0  0  0  0  0  0  0
   -7.0190   18.2100  -32.2180 C   0  0  0  0  0  0  0  0  0  0  0  0
   -8.2810   18.1820  -31.5990 C   0  0  0  0  0  0  0  0  0  0  0  0
   -9.1530   19.2670  -31.7190 C   0  0  0  0  0  0  0  0  0  0  0  0
   -8.7670   20.3920  -32.4480 C   0  0  0  0  0  0  0  0  0  0  0  0
   -7.5120   20.4320  -33.0700 C   0  0  0  0  0  0  0  0  0  0  0  0
   -6.6270   19.3510  -32.9520 C   0  0  0  0  0  0  0  0  0  0  0  0
   -5.3380   19.3520  -33.7450 C   0  0  0  0  0  0  0  0  0  0  0  0
   -0.8490   20.1930  -31.8990 C   0  0  0  0  0  0  0  0  0  0  0  0
   -0.8690   20.7080  -30.4580 C   0  0  0  0  0  0  0  0  0  0  0  0
   -3.1677   24.6522  -25.7499 H   0  0  0  0  0  0  0  0  0  0  0  0
   -4.0968   25.1767  -27.1950 H   0  0  0  0  0  0  0  0  0  0  0  0
   -3.2566   23.5891  -27.1950 H   0  0  0  0  0  0  0  0  0  0  0  0
   -1.8980   26.3340  -27.0591 H   0  0  0  0  0  0  0  0  0  0  0  0
   -1.0633   24.7453  -27.0757 H   0  0  0  0  0  0  0  0  0  0  0  0
   -0.6203   22.9544  -28.9043 H   0  0  0  0  0  0  0  0  0  0  0  0
   -4.6484   23.0573  -31.8577 H   0  0  0  0  0  0  0  0  0  0  0  0
   -5.7837   26.3422  -31.3631 H   0  0  0  0  0  0  0  0  0  0  0  0
   -5.9294   24.5520  -31.1897 H   0  0  0  0  0  0  0  0  0  0  0  0
   -5.5800   25.4805  -28.5586 H   0  0  0  0  0  0  0  0  0  0  0  0
   -6.6779   26.6859  -29.3126 H   0  0  0  0  0  0  0  0  0  0  0  0
   -7.1199   24.9448  -29.3126 H   0  0  0  0  0  0  0  0  0  0  0  0
   -4.0972   20.1424  -31.5044 H   0  0  0  0  0  0  0  0  0  0  0  0
   -3.6226   21.0788  -33.0196 H   0  0  0  0  0  0  0  0  0  0  0  0
   -2.3760   18.8440  -31.7780 H   0  0  0  0  0  0  0  0  0  0  0  0
   -2.3314   20.2660  -34.3672 H   0  0  0  0  0  0  0  0  0  0  0  0
   -1.1448   18.9443  -33.9777 H   0  0  0  0  0  0  0  0  0  0  0  0
   -3.5201   18.4579  -35.1793 H   0  0  0  0  0  0  0  0  0  0  0  0
   -2.7261   17.2977  -34.0444 H   0  0  0  0  0  0  0  0  0  0  0  0
   -5.4696   16.7688  -34.0848 H   0  0  0  0  0  0  0  0  0  0  0  0
   -4.2364   16.2849  -32.8660 H   0  0  0  0  0  0  0  0  0  0  0  0
   -6.6359   16.1165  -32.0626 H   0  0  0  0  0  0  0  0  0  0  0  0
   -5.5652   17.1784  -31.0601 H   0  0  0  0  0  0  0  0  0  0  0  0
   -8.5840   17.2997  -31.0161 H   0  0  0  0  0  0  0  0  0  0  0  0
  -10.1424   19.2342  -31.2394 H   0  0  0  0  0  0  0  0  0  0  0  0
   -9.4497   21.2501  -32.5348 H   0  0  0  0  0  0  0  0  0  0  0  0
   -7.2194   21.3168  -33.6544 H   0  0  0  0  0  0  0  0  0  0  0  0
   -5.5691   19.1166  -34.7944 H   0  0  0  0  0  0  0  0  0  0  0  0
   -4.8845   20.3491  -33.6450 H   0  0  0  0  0  0  0  0  0  0  0  0
   -0.1380   19.3567  -31.9705 H   0  0  0  0  0  0  0  0  0  0  0  0
   -0.5462   21.0199  -32.5582 H   0  0  0  0  0  0  0  0  0  0  0  0
   -1.2325   19.9173  -29.7852 H   0  0  0  0  0  0  0  0  0  0  0  0
    0.1446   20.9985  -30.1446 H   0  0  0  0  0  0  0  0  0  0  0  0
  1  2  1  0
  2  3  1  0
  3  4  1  0
  4  5  2  0
  5  6  1  0
  6  7  2  0
  7  8  1  0
  8  9  2  0
  9 10  1  0
 10 11  1  0
 11 12  1  0
  7 13  1  0
 13 14  1  0
 14 15  1  0
 15 16  1  0
 16 17  1  0
 17 18  1  0
 18 19  1  0
 19 20  1  0
 20 21  2  0
 21 22  1  0
 22 23  2  0
 23 24  1  0
 24 25  2  0
 25 26  1  0
 14 27  1  0
 27 28  1  0
  9  4  1  0
 26 17  1  0
 28  6  1  0
 25 20  1  0
  1 29  1  0
  1 30  1  0
  1 31  1  0
  2 32  1  0
  2 33  1  0
  5 34  1  0
  8 35  1  0
 11 36  1  0
 11 37  1  0
 12 38  1  0
 12 39  1  0
 12 40  1  0
 13 41  1  0
 13 42  1  0
 14 43  1  1
 15 44  1  0
 15 45  1  0
 16 46  1  0
 16 47  1  0
 18 48  1  0
 18 49  1  0
 19 50  1  0
 19 51  1  0
 21 52  1  0
 22 53  1  0
 23 54  1  0
 24 55  1  0
 26 56  1  0
 26 57  1  0
 27 58  1  0
 27 59  1  0
 28 60  1  0
 28 61  1  0
M  CHG  1  14   1
M  END
>  <UniqueID>  (8) 
8

>  <SMILES>  (8) 
CCOc1cc2c(cc1OCC)C[N@@H+](CCN1CCc3ccccc3C1)CC2

>  <Energy>  (8) 
73.33568549493425

>  <Genealogy>  (8) 
CCOc1cc2c(cc1OCC)C[NH+](CCN1CCc3ccccc3C1)CC2 (protonated)
CCOc1cc2c(cc1OCC)C[N@@H+](CCN1CCc3ccccc3C1)CC2 (chirality)
CCOc1cc2c(cc1OCC)C[N@@H+](CCN1CCc3ccccc3C1)CC2 (3D coordinates assigned)
CCOc1cc2c(cc1OCC)C[N@@H+](CCN1CCc3ccccc3C1)CC2 (nonaromatic ring conformer: 73.33568549493425 kcal/mol)

>  <smiles>  (8) 
CCOc1cc2c(cc1OCC)CN(CCN1CCc3ccccc3C1)CC2

>  <score_type>  (8) 
oracle

>  <origin>  (8) 
adg

>  <m_score__min__energy>  (8) 
-9.4600000000000009

>  <m_primary>  (8) 
energy

$$$$
8:0
     RDKit          3D

 41 42  0  0  0  0  0  0  0  0999 V2000
   -9.4440   20.7580  -31.9560 C   0  0  0  0  0  0  0  0  0  0  0  0
   -8.7190   19.4770  -31.5600 C   0  0  0  0  0  0  0  0  0  0  0  0
   -8.4330   18.6740  -32.7540 N   0  0  0  0  0  0  0  0  0  0  0  0
   -7.3160   17.7440  -32.5270 C   0  0  0  0  0  0  0  0  0  0  0  0
   -6.4920   17.5270  -33.8070 C   0  0  0  0  0  0  0  0  0  0  0  0
   -5.4580   18.6300  -34.0410 C   0  0  0  0  0  0  0  0  0  0  0  0
   -6.0740   19.9100  -33.9300 O   0  0  0  0  0  0  0  0  0  0  0  0
   -5.7200   20.8840  -32.9870 C   0  0  0  0  0  0  0  0  0  0  0  0
   -4.4470   20.7900  -32.3810 C   0  0  0  0  0  0  0  0  0  0  0  0
   -4.0340   21.7290  -31.4190 C   0  0  0  0  0  0  0  0  0  0  0  0
   -4.9140   22.7620  -31.0890 C   0  0  0  0  0  0  0  0  0  0  0  0
   -4.8300   23.8060  -30.1790 C   0  0  0  0  0  0  0  0  0  0  0  0
   -3.7130   24.1650  -29.2760 C   0  0  0  0  0  0  0  0  0  0  0  0
   -3.6470   23.6740  -27.8640 C   0  0  0  0  0  0  0  0  0  0  0  0
   -2.7930   24.9170  -29.6980 O   0  0  0  0  0  0  0  0  0  0  0  0
   -6.0600   24.4620  -30.2870 C   0  0  0  0  0  0  0  0  0  0  0  0
   -6.4940   25.6660  -29.5150 C   0  0  0  0  0  0  0  0  0  0  0  0
   -6.8250   23.8660  -31.1810 O   0  0  0  0  0  0  0  0  0  0  0  0
   -6.1550   22.8510  -31.6670 C   0  0  0  0  0  0  0  0  0  0  0  0
   -6.5910   21.9380  -32.6250 C   0  0  0  0  0  0  0  0  0  0  0  0
   -9.7511   21.3006  -31.0498 H   0  0  0  0  0  0  0  0  0  0  0  0
   -8.7704   21.3913  -32.5520 H   0  0  0  0  0  0  0  0  0  0  0  0
  -10.3337   20.5065  -32.5520 H   0  0  0  0  0  0  0  0  0  0  0  0
   -7.7743   19.7331  -31.0581 H   0  0  0  0  0  0  0  0  0  0  0  0
   -9.3575   18.8962  -30.8781 H   0  0  0  0  0  0  0  0  0  0  0  0
   -8.1500   19.3310  -33.5210 H   0  0  0  0  0  0  0  0  0  0  0  0
   -6.6606   18.1570  -31.7461 H   0  0  0  0  0  0  0  0  0  0  0  0
   -7.7328   16.7743  -32.2172 H   0  0  0  0  0  0  0  0  0  0  0  0
   -5.9665   16.5639  -33.7276 H   0  0  0  0  0  0  0  0  0  0  0  0
   -7.1903   17.5422  -34.6568 H   0  0  0  0  0  0  0  0  0  0  0  0
   -4.6586   18.5446  -33.2902 H   0  0  0  0  0  0  0  0  0  0  0  0
   -5.0362   18.5198  -35.0509 H   0  0  0  0  0  0  0  0  0  0  0  0
   -3.7698   19.9712  -32.6656 H   0  0  0  0  0  0  0  0  0  0  0  0
   -3.0466   21.6521  -30.9404 H   0  0  0  0  0  0  0  0  0  0  0  0
   -3.7612   24.5236  -27.1747 H   0  0  0  0  0  0  0  0  0  0  0  0
   -4.4558   22.9491  -27.6897 H   0  0  0  0  0  0  0  0  0  0  0  0
   -2.6755   23.1884  -27.6897 H   0  0  0  0  0  0  0  0  0  0  0  0
   -6.4188   25.4574  -28.4376 H   0  0  0  0  0  0  0  0  0  0  0  0
   -5.8464   26.5179  -29.7696 H   0  0  0  0  0  0  0  0  0  0  0  0
   -7.5362   25.9088  -29.7696 H   0  0  0  0  0  0  0  0  0  0  0  0
   -7.5847   22.0342  -33.0868 H   0  0  0  0  0  0  0  0  0  0  0  0
  1  2  1  0
  2  3  1  0
  3  4  1  0
  4  5  1  0
  5  6  1  0
  6  7  1  0
  7  8  1  0
  8  9  2  0
  9 10  1  0
 10 11  2  0
 11 12  1  0
 12 13  1  0
 13 14  1  0
 13 15  2  0
 12 16  2  0
 16 17  1  0
 16 18  1  0
 18 19  1  0
 19 20  2  0
 20  8  1  0
 19 11  1  0
  1 21  1  0
  1 22  1  0
  1 23  1  0
  2 24  1  0
  2 25  1  0
  3 26  1  0
  4 27  1  0
  4 28  1  0
  5 29  1  0
  5 30  1  0
  6 31  1  0
  6 32  1  0
  9 33  1  0
 10 34  1  0
 14 35  1  0
 14 36  1  0
 14 37  1  0
 17 38  1  0
 17 39  1  0
 17 40  1  0
 20 41  1  0
M  END
>  <UniqueID>  (9) 
9

>  <SMILES>  (9) 
CCNCCCOc1ccc2c(C(C)=O)c(C)oc2c1

>  <Energy>  (9) 
67.35428509971028

>  <Genealogy>  (9) 
CCNCCCOc1ccc2c(C(C)=O)c(C)oc2c1 (3D coordinates assigned)
CCNCCCOc1ccc2c(C(C)=O)c(C)oc2c1 (optimized conformer: 67.35428509971028 kcal/mol)

>  <smiles>  (9) 
CCNCCCOc1ccc2c(C(C)=O)c(C)oc2c1

>  <score_type>  (9) 
oracle

>  <origin>  (9) 
adg

>  <m_score__min__energy>  (9) 
-7.4100000000000001

>  <m_primary>  (9) 
energy

$$$$
9:0
     RDKit          3D

 30 31  0  0  0  0  0  0  0  0999 V2000
   -6.1480   25.5900  -29.7140 C   0  0  0  0  0  0  0  0  0  0  0  0
   -4.8710   24.7430  -29.6910 C   0  0  0  0  0  0  0  0  0  0  0  0
   -4.3900   24.4100  -31.0400 N   0  0  0  0  0  0  0  0  0  0  0  0
   -4.1740   22.9660  -31.2120 C   0  0  0  0  0  0  0  0  0  0  0  0
   -4.9170   22.4570  -32.4520 C   0  0  0  0  0  0  0  0  0  0  0  0
   -6.3830   22.2780  -32.1860 C   0  0  0  0  0  0  0  0  0  0  0  0
   -7.3100   23.2850  -31.9300 C   0  0  0  0  0  0  0  0  0  0  0  0
   -8.5500   22.7620  -31.8030 N   0  0  0  0  0  0  0  0  0  0  0  0
   -8.4170   21.4360  -31.9850 C   0  0  0  0  0  0  0  0  0  0  0  0
   -9.4250   20.4740  -31.9630 C   0  0  0  0  0  0  0  0  0  0  0  0
   -9.0610   19.1360  -32.1980 C   0  0  0  0  0  0  0  0  0  0  0  0
   -7.7140   18.7930  -32.4470 C   0  0  0  0  0  0  0  0  0  0  0  0
   -6.7180   19.7860  -32.4650 C   0  0  0  0  0  0  0  0  0  0  0  0
   -7.1080   21.1040  -32.2260 C   0  0  0  0  0  0  0  0  0  0  0  0
   -6.4665   25.8013  -28.6825 H   0  0  0  0  0  0  0  0  0  0  0  0
   -5.9506   26.5368  -30.2380 H   0  0  0  0  0  0  0  0  0  0  0  0
   -6.9435   25.0399  -30.2380 H   0  0  0  0  0  0  0  0  0  0  0  0
   -4.0849   25.3047  -29.1652 H   0  0  0  0  0  0  0  0  0  0  0  0
   -5.1063   23.7987  -29.1782 H   0  0  0  0  0  0  0  0  0  0  0  0
   -3.4890   24.9150  -31.2130 H   0  0  0  0  0  0  0  0  0  0  0  0
   -3.0976   22.7723  -31.3299 H   0  0  0  0  0  0  0  0  0  0  0  0
   -4.5586   22.4403  -30.3256 H   0  0  0  0  0  0  0  0  0  0  0  0
   -4.7888   23.1838  -33.2677 H   0  0  0  0  0  0  0  0  0  0  0  0
   -4.4962   21.4784  -32.7263 H   0  0  0  0  0  0  0  0  0  0  0  0
   -7.0676   24.3545  -31.8434 H   0  0  0  0  0  0  0  0  0  0  0  0
   -9.4330   23.2880  -31.6140 H   0  0  0  0  0  0  0  0  0  0  0  0
  -10.4713   20.7521  -31.7682 H   0  0  0  0  0  0  0  0  0  0  0  0
   -9.8313   18.3508  -32.1878 H   0  0  0  0  0  0  0  0  0  0  0  0
   -7.4419   17.7427  -32.6280 H   0  0  0  0  0  0  0  0  0  0  0  0
   -5.6659   19.5317  -32.6611 H   0  0  0  0  0  0  0  0  0  0  0  0
  1  2  1  0
  2  3  1  0
  3  4  1  0
  4  5  1  0
  5  6  1  0
  6  7  2  0
  7  8  1  0
  8  9  1  0
  9 10  2  0
 10 11  1  0
 11 12  2  0
 12 13  1  0
 13 14  2  0
 14  6  1  0
 14  9  1  0
  1 15  1  0
  1 16  1  0
  1 17  1  0
  2 18  1  0
  2 19  1  0
  3 20  1  0
  4 21  1  0
  4 22  1  0
  5 23  1  0
  5 24  1  0
  7 25  1  0
  8 26  1  0
 10 27  1  0
 11 28  1  0
 12 29  1  0
 13 30  1  0
M  END
>  <UniqueID>  (10) 
10

>  <SMILES>  (10) 
CCNCCc1c[nH]c2ccccc12

>  <Energy>  (10) 
57.472458290123605

>  <Genealogy>  (10) 
CCNCCc1c[nH]c2ccccc12 (3D coordinates assigned)
CCNCCc1c[nH]c2ccccc12 (optimized conformer: 57.472458290123605 kcal/mol)

>  <smiles>  (10) 
CCNCCc1c[nH]c2ccccc12

>  <score_type>  (10) 
oracle

>  <origin>  (10) 
adg

>  <m_score__min__energy>  (10) 
-6.75

>  <m_primary>  (10) 
energy

$$$$
10:0
     RDKit          3D

 48 51  0  0  0  0  0  0  0  0999 V2000
   -6.5490   25.0430  -29.8960 C   0  0  0  0  0  0  0  0  0  0  0  0
   -5.4210   25.8960  -30.4670 C   0  0  0  0  0  0  0  0  0  0  0  0
   -4.4780   25.0460  -31.2060 N   0  0  0  0  0  0  0  0  0  0  0  0
   -3.8270   24.0660  -30.3260 C   0  0  0  0  0  0  0  0  0  0  0  0
   -4.3630   22.6470  -30.5730 C   0  0  0  0  0  0  0  0  0  0  0  0
   -5.0570   22.5140  -31.8640 N   0  0  0  0  0  0  0  0  0  0  0  0
   -5.7550   21.3190  -32.2890 C   0  0  0  0  0  0  0  0  0  0  0  0
   -7.1640   21.2710  -32.2480 C   0  0  0  0  0  0  0  0  0  0  0  0
   -7.9420   22.4400  -32.1300 C   0  0  0  0  0  0  0  0  0  0  0  0
   -9.2910   22.3620  -32.0020 N   0  0  0  0  0  0  0  0  0  0  0  0
   -9.9370   21.1730  -32.0000 C   0  0  0  0  0  0  0  0  0  0  0  0
   -9.2250   19.9890  -32.1830 C   0  0  0  0  0  0  0  0  0  0  0  0
   -7.8190   20.0220  -32.3350 C   0  0  0  0  0  0  0  0  0  0  0  0
   -7.0540   18.8740  -32.6570 C   0  0  0  0  0  0  0  0  0  0  0  0
   -7.5990   17.5710  -32.6230 C   0  0  0  0  0  0  0  0  0  0  0  0
   -6.8720   16.4800  -33.0820 C   0  0  0  0  0  0  0  0  0  0  0  0
   -5.6380   16.6700  -33.7030 C   0  0  0  0  0  0  0  0  0  0  0  0
   -4.9990   15.5830  -34.3230 C   0  0  0  0  0  0  0  0  0  0  0  0
   -3.8440   15.7850  -35.0770 C   0  0  0  0  0  0  0  0  0  0  0  0
   -3.3430   17.0730  -35.2480 C   0  0  0  0  0  0  0  0  0  0  0  0
   -3.9580   18.1560  -34.6160 C   0  0  0  0  0  0  0  0  0  0  0  0
   -5.0650   17.9670  -33.7560 C   0  0  0  0  0  0  0  0  0  0  0  0
   -5.6960   19.0440  -33.0490 C   0  0  0  0  0  0  0  0  0  0  0  0
   -5.0400   20.2100  -32.6860 N   0  0  0  0  0  0  0  0  0  0  0  0
   -3.5660   20.2510  -32.5530 C   0  0  0  0  0  0  0  0  0  0  0  0
   -6.5105   25.0721  -28.7971 H   0  0  0  0  0  0  0  0  0  0  0  0
   -7.5168   25.4372  -30.2396 H   0  0  0  0  0  0  0  0  0  0  0  0
   -6.4333   24.0044  -30.2396 H   0  0  0  0  0  0  0  0  0  0  0  0
   -5.8426   26.6506  -31.1474 H   0  0  0  0  0  0  0  0  0  0  0  0
   -4.8904   26.3947  -29.6425 H   0  0  0  0  0  0  0  0  0  0  0  0
   -3.7320   25.6690  -31.5960 H   0  0  0  0  0  0  0  0  0  0  0  0
   -2.7438   24.0776  -30.5170 H   0  0  0  0  0  0  0  0  0  0  0  0
   -4.0426   24.3407  -29.2829 H   0  0  0  0  0  0  0  0  0  0  0  0
   -3.5170   21.9441  -30.5551 H   0  0  0  0  0  0  0  0  0  0  0  0
   -5.0940   22.4276  -29.7809 H   0  0  0  0  0  0  0  0  0  0  0  0
   -4.8790   23.2560  -32.5790 H   0  0  0  0  0  0  0  0  0  0  0  0
   -7.4516   23.4246  -32.1417 H   0  0  0  0  0  0  0  0  0  0  0  0
  -11.0267   21.1409  -31.8536 H   0  0  0  0  0  0  0  0  0  0  0  0
   -9.7575   19.0268  -32.2093 H   0  0  0  0  0  0  0  0  0  0  0  0
   -8.6139   17.4182  -32.2273 H   0  0  0  0  0  0  0  0  0  0  0  0
   -7.2710   15.4628  -32.9552 H   0  0  0  0  0  0  0  0  0  0  0  0
   -5.4115   14.5692  -34.2131 H   0  0  0  0  0  0  0  0  0  0  0  0
   -3.3291   14.9282  -35.5362 H   0  0  0  0  0  0  0  0  0  0  0  0
   -2.4600   17.2380  -35.8829 H   0  0  0  0  0  0  0  0  0  0  0  0
   -3.5753   19.1725  -34.7899 H   0  0  0  0  0  0  0  0  0  0  0  0
   -3.2941   20.2586  -31.4872 H   0  0  0  0  0  0  0  0  0  0  0  0
   -3.1294   19.3647  -33.0365 H   0  0  0  0  0  0  0  0  0  0  0  0
   -3.1794   21.1602  -33.0365 H   0  0  0  0  0  0  0  0  0  0  0  0
  1  2  1  0
  2  3  1  0
  3  4  1  0
  4  5  1  0
  5  6  1  0
  6  7  1  0
  7  8  2  0
  8  9  1  0
  9 10  2  0
 10 11  1  0
 11 12  2  0
 12 13  1  0
 13 14  2  0
 14 15  1  0
 15 16  2  0
 16 17  1  0
 17 18  2  0
 18 19  1  0
 19 20  2  0
 20 21  1  0
 21 22  2  0
 22 23  1  0
 23 24  2  0
 24 25  1  0
 24  7  1  0
 13  8  1  0
 23 14  1  0
 22 17  1  0
  1 26  1  0
  1 27  1  0
  1 28  1  0
  2 29  1  0
  2 30  1  0
  3 31  1  0
  4 32  1  0
  4 33  1  0
  5 34  1  0
  5 35  1  0
  6 36  1  0
  9 37  1  0
 11 38  1  0
 12 39  1  0
 15 40  1  0
 16 41  1  0
 18 42  1  0
 19 43  1  0
 20 44  1  0
 21 45  1  0
 25 46  1  0
 25 47  1  0
 25 48  1  0
M  CHG  1  24   1
M  END
>  <UniqueID>  (11) 
11

>  <SMILES>  (11) 
CCNCCNc1c2cnccc2c2ccc3ccccc3c2[n+]1C

>  <Energy>  (11) 
93.51494625533684

>  <Genealogy>  (11) 
CCNCCNc1c2cnccc2c2ccc3ccccc3c2[n+]1C (3D coordinates assigned)
CCNCCNc1c2cnccc2c2ccc3ccccc3c2[n+]1C (optimized conformer: 93.51494625533684 kcal/mol)

>  <smiles>  (11) 
CCNCCNc1c2cnccc2c2ccc3ccccc3c2[n+]1C

>  <score_type>  (11) 
oracle

>  <origin>  (11) 
adg

>  <m_score__min__energy>  (11) 
-9.0199999999999996

>  <m_primary>  (11) 
energy

$$$$
11:0
     RDKit          3D

 51 52  0  0  0  0  0  0  0  0999 V2000
   -1.7800   21.5220  -33.3920 C   0  0  0  0  0  0  0  0  0  0  0  0
   -1.3110   21.5510  -31.9390 C   0  0  0  0  0  0  0  0  0  0  0  0
   -2.3200   22.1480  -31.0510 N   0  0  0  0  0  0  0  0  0  0  0  0
   -1.8500   22.4280  -29.6810 C   0  0  0  0  0  0  0  0  0  0  0  0
   -1.9060   23.9130  -29.2620 C   0  0  0  0  0  0  0  0  0  0  0  0
   -3.3270   24.4890  -29.1720 C   0  0  0  0  0  0  0  0  0  0  0  0
   -3.9720   24.4960  -30.4920 N   0  0  0  0  0  0  0  0  0  0  0  0
   -5.3960   24.8310  -30.3630 C   0  0  0  0  0  0  0  0  0  0  0  0
   -6.1980   24.3120  -31.5660 C   0  0  0  0  0  0  0  0  0  0  0  0
   -5.3810   23.4070  -32.5080 C   0  0  0  0  0  0  0  0  0  0  0  0
   -4.9760   22.1780  -31.8240 N   0  0  0  0  0  0  0  0  0  0  0  0
   -5.4080   20.8760  -32.2500 C   0  0  0  0  0  0  0  0  0  0  0  0
   -4.4600   19.9390  -32.6590 C   0  0  0  0  0  0  0  0  0  0  0  0
   -4.8560   18.6700  -33.0640 C   0  0  0  0  0  0  0  0  0  0  0  0
   -6.1750   18.3060  -33.0620 N   0  0  0  0  0  0  0  0  0  0  0  0
   -6.5170   16.9470  -33.5120 C   0  0  0  0  0  0  0  0  0  0  0  0
   -7.1440   19.2010  -32.6560 C   0  0  0  0  0  0  0  0  0  0  0  0
   -8.5160   18.8530  -32.6500 C   0  0  0  0  0  0  0  0  0  0  0  0
   -9.4870   19.7770  -32.2650 C   0  0  0  0  0  0  0  0  0  0  0  0
   -9.1190   21.0630  -31.8840 C   0  0  0  0  0  0  0  0  0  0  0  0
   -7.7750   21.4340  -31.8750 C   0  0  0  0  0  0  0  0  0  0  0  0
   -6.7720   20.5130  -32.2430 C   0  0  0  0  0  0  0  0  0  0  0  0
   -2.8775   21.4541  -33.4218 H   0  0  0  0  0  0  0  0  0  0  0  0
   -1.4556   22.4419  -33.9004 H   0  0  0  0  0  0  0  0  0  0  0  0
   -1.3447   20.6491  -33.9004 H   0  0  0  0  0  0  0  0  0  0  0  0
   -1.1109   20.5210  -31.6088 H   0  0  0  0  0  0  0  0  0  0  0  0
   -0.4013   22.1671  -31.8857 H   0  0  0  0  0  0  0  0  0  0  0  0
   -2.6810   23.0290  -31.4840 H   0  0  0  0  0  0  0  0  0  0  0  0
   -2.4745   21.8525  -28.9818 H   0  0  0  0  0  0  0  0  0  0  0  0
   -0.7882   22.1416  -29.6560 H   0  0  0  0  0  0  0  0  0  0  0  0
   -1.4310   24.0109  -28.2747 H   0  0  0  0  0  0  0  0  0  0  0  0
   -1.3834   24.4821  -30.0450 H   0  0  0  0  0  0  0  0  0  0  0  0
   -3.9229   23.8727  -28.4828 H   0  0  0  0  0  0  0  0  0  0  0  0
   -3.2652   25.5239  -28.8044 H   0  0  0  0  0  0  0  0  0  0  0  0
   -3.9110   23.5210  -30.8650 H   0  0  0  0  0  0  0  0  0  0  0  0
   -5.7908   24.3735  -29.4438 H   0  0  0  0  0  0  0  0  0  0  0  0
   -5.4949   25.9258  -30.3236 H   0  0  0  0  0  0  0  0  0  0  0  0
   -7.0567   23.7368  -31.1894 H   0  0  0  0  0  0  0  0  0  0  0  0
   -6.5071   25.1908  -32.1509 H   0  0  0  0  0  0  0  0  0  0  0  0
   -5.9960   23.1475  -33.3823 H   0  0  0  0  0  0  0  0  0  0  0  0
   -4.4777   23.9497  -32.8235 H   0  0  0  0  0  0  0  0  0  0  0  0
   -4.4870   22.2780  -30.9060 H   0  0  0  0  0  0  0  0  0  0  0  0
   -3.3928   20.2057  -32.6611 H   0  0  0  0  0  0  0  0  0  0  0  0
   -4.0959   17.9456  -33.3919 H   0  0  0  0  0  0  0  0  0  0  0  0
   -6.6796   16.3010  -32.6367 H   0  0  0  0  0  0  0  0  0  0  0  0
   -7.4345   16.9814  -34.1178 H   0  0  0  0  0  0  0  0  0  0  0  0
   -5.6925   16.5430  -34.1178 H   0  0  0  0  0  0  0  0  0  0  0  0
   -8.8204   17.8403  -32.9530 H   0  0  0  0  0  0  0  0  0  0  0  0
  -10.5482   19.4876  -32.2626 H   0  0  0  0  0  0  0  0  0  0  0  0
   -9.8905   21.7895  -31.5889 H   0  0  0  0  0  0  0  0  0  0  0  0
   -7.4940   22.4552  -31.5779 H   0  0  0  0  0  0  0  0  0  0  0  0
  1  2  1  0
  2  3  1  0
  3  4  1  0
  4  5  1  0
  5  6  1  0
  6  7  1  0
  7  8  1  0
  8  9  1  0
  9 10  1  0
 10 11  1  0
 11 12  1  0
 12 13  2  0
 13 14  1  0
 14 15  2  0
 15 16  1  0
 15 17  1  0
 17 18  2  0
 18 19  1  0
 19 20  2  0
 20 21  1  0
 21 22  2  0
 22 12  1  0
 22 17  1  0
  1 23  1  0
  1 24  1  0
  1 25  1  0
  2 26  1  0
  2 27  1  0
  3 28  1  0
  4 29  1  0
  4 30  1  0
  5 31  1  0
  5 32  1  0
  6 33  1  0
  6 34  1  0
  7 35  1  0
  8 36  1  0
  8 37  1  0
  9 38  1  0
  9 39  1  0
 10 40  1  0
 10 41  1  0
 11 42  1  0
 13 43  1  0
 14 44  1  0
 16 45  1  0
 16 46  1  0
 16 47  1  0
 18 48  1  0
 19 49  1  0
 20 50  1  0
 21 51  1  0
M  CHG  1  15   1
M  END
>  <UniqueID>  (12) 
12

>  <SMILES>  (12) 
CCNCCCNCCCNc1cc[n+](C)c2ccccc12

>  <Energy>  (12) 
52.91099042881193

>  <Genealogy>  (12) 
CCNCCCNCCCNc1cc[n+](C)c2ccccc12 (3D coordinates assigned)
CCNCCCNCCCNc1cc[n+](C)c2ccccc12 (optimized conformer: 52.91099042881193 kcal/mol)

>  <smiles>  (12) 
CCNCCCNCCCNc1cc[n+](C)c2ccccc12

>  <score_type>  (12) 
oracle

>  <origin>  (12) 
adg

>  <m_score__min__energy>  (12) 
-7.4199999999999999

>  <m_primary>  (12) 
energy

$$$$
12:0
     RDKit          3D

 16 16  0  0  0  0  0  0  0  0999 V2000
   -7.3247   26.1537  -29.0937 H   0  0  0  0  0  0  0  0  0  0  0  0
   -6.3810   25.6520  -29.3540 C   0  0  0  0  0  0  0  0  0  0  0  0
   -5.5016   25.7622  -28.7025 H   0  0  0  0  0  0  0  0  0  0  0  0
   -6.3030   24.9090  -30.4610 C   0  0  0  0  0  0  0  0  0  0  0  0
   -7.1923   24.8098  -31.1008 H   0  0  0  0  0  0  0  0  0  0  0  0
   -5.0360   24.2040  -30.8590 C   0  0  0  0  0  0  0  0  0  0  0  0
   -4.9924   23.2255  -30.3585 H   0  0  0  0  0  0  0  0  0  0  0  0
   -5.0289   24.0689  -31.9507 H   0  0  0  0  0  0  0  0  0  0  0  0
   -3.8720   24.9970  -30.4700 N   0  0  0  0  0  0  0  0  0  0  0  0
   -3.1350   24.7500  -29.4300 C   0  0  0  0  0  0  0  0  0  0  0  0
   -1.9120   25.2870  -29.2260 N   0  0  0  0  0  0  0  0  0  0  0  0
   -1.3710   24.8530  -28.0550 C   0  0  0  0  0  0  0  0  0  0  0  0
   -0.3779   25.1751  -27.7085 H   0  0  0  0  0  0  0  0  0  0  0  0
   -2.1660   23.9720  -27.3280 C   0  0  0  0  0  0  0  0  0  0  0  0
   -1.9051   23.5143  -26.3624 H   0  0  0  0  0  0  0  0  0  0  0  0
   -3.5960   23.7280  -28.1820 S   0  0  0  0  0  0  0  0  0  0  0  0
  1  2  1  0
  2  3  1  0
  2  4  2  0
  4  5  1  0
  4  6  1  0
  6  7  1  0
  6  8  1  0
  6  9  1  0
  9 10  2  0
 10 11  1  0
 11 12  1  0
 12 13  1  0
 12 14  2  0
 14 15  1  0
 14 16  1  0
 16 10  1  0
M  CHG  1  11  -1
M  END
>  <UniqueID>  (13) 
13

>  <SMILES>  (13) 
C=CC/N=c1\[n-]ccs1

>  <Energy>  (13) 
41.373410256718465

>  <Genealogy>  (13) 
C=CCN=c1[n-]ccs1 (protonated)
C=CC/N=c1\[n-]ccs1 (cis-trans isomerization)
C=CC/N=c1\[n-]ccs1 (3D coordinates assigned)
C=CC/N=c1\[n-]ccs1 (optimized conformer: 41.373410256718465 kcal/mol)

>  <smiles>  (13) 
C=CCN=c1[nH]ccs1

>  <score_type>  (13) 
oracle

>  <origin>  (13) 
adg

>  <m_score__min__energy>  (13) 
-5.8300000000000001

>  <m_primary>  (13) 
energy

$$$$
13:0
     RDKit          3D

 52 54  0  0  0  0  0  0  0  0999 V2000
   -3.4540   22.4090  -29.4850 C   0  0  0  0  0  0  0  0  0  0  0  0
   -2.7190   23.4450  -30.3210 C   0  0  0  0  0  0  0  0  0  0  0  0
   -3.5360   24.5870  -30.4660 O   0  0  0  0  0  0  0  0  0  0  0  0
   -4.5890   24.5380  -29.5260 C   0  0  0  0  0  0  0  0  0  0  0  0
   -5.7470   25.4210  -29.9960 C   0  0  0  0  0  0  0  0  0  0  0  0
   -6.9930   24.6380  -30.4660 C   0  0  0  0  0  0  0  0  0  0  0  0
   -6.7430   23.2250  -30.8090 N   0  0  0  0  0  0  0  0  0  0  0  0
   -6.5240   22.9830  -32.2430 C   0  0  0  0  0  0  0  0  0  0  0  0
   -5.5710   21.8400  -32.4550 C   0  0  0  0  0  0  0  0  0  0  0  0
   -4.2370   21.9670  -32.8010 C   0  0  0  0  0  0  0  0  0  0  0  0
   -3.7560   20.7480  -33.1190 N   0  0  0  0  0  0  0  0  0  0  0  0
   -2.4300   20.4470  -33.5880 C   0  0  0  0  0  0  0  0  0  0  0  0
   -1.4260   21.4260  -33.4960 C   0  0  0  0  0  0  0  0  0  0  0  0
   -0.1270   21.1530  -33.9310 C   0  0  0  0  0  0  0  0  0  0  0  0
    0.1820   19.9040  -34.4660 C   0  0  0  0  0  0  0  0  0  0  0  0
   -0.8060   18.9230  -34.5760 C   0  0  0  0  0  0  0  0  0  0  0  0
   -2.1220   19.1850  -34.1460 C   0  0  0  0  0  0  0  0  0  0  0  0
   -3.1440   18.2310  -34.2790 O   0  0  0  0  0  0  0  0  0  0  0  0
   -2.9410   16.8770  -34.6690 C   0  0  0  0  0  0  0  0  0  0  0  0
   -4.7310   19.8580  -33.0100 N   0  0  0  0  0  0  0  0  0  0  0  0
   -5.8490   20.4850  -32.5980 C   0  0  0  0  0  0  0  0  0  0  0  0
   -7.1360   19.8000  -32.4000 C   0  0  0  0  0  0  0  0  0  0  0  0
   -8.3990   20.3030  -32.6900 C   0  0  0  0  0  0  0  0  0  0  0  0
   -9.4350   19.4260  -32.3450 C   0  0  0  0  0  0  0  0  0  0  0  0
   -8.9940   18.2410  -31.7710 C   0  0  0  0  0  0  0  0  0  0  0  0
   -7.3160   18.2880  -31.6870 S   0  0  0  0  0  0  0  0  0  0  0  0
   -3.3013   22.6242  -28.4171 H   0  0  0  0  0  0  0  0  0  0  0  0
   -4.5287   22.4464  -29.7166 H   0  0  0  0  0  0  0  0  0  0  0  0
   -3.0637   21.4070  -29.7166 H   0  0  0  0  0  0  0  0  0  0  0  0
   -1.7809   23.7247  -29.8193 H   0  0  0  0  0  0  0  0  0  0  0  0
   -2.4894   23.0259  -31.3118 H   0  0  0  0  0  0  0  0  0  0  0  0
   -4.9394   23.5003  -29.4243 H   0  0  0  0  0  0  0  0  0  0  0  0
   -4.2251   24.9040  -28.5546 H   0  0  0  0  0  0  0  0  0  0  0  0
   -6.0442   26.0727  -29.1611 H   0  0  0  0  0  0  0  0  0  0  0  0
   -5.3809   25.9833  -30.8676 H   0  0  0  0  0  0  0  0  0  0  0  0
   -7.7400   24.6672  -29.6590 H   0  0  0  0  0  0  0  0  0  0  0  0
   -7.3341   25.1255  -31.3912 H   0  0  0  0  0  0  0  0  0  0  0  0
   -7.5330   22.6290  -30.4730 H   0  0  0  0  0  0  0  0  0  0  0  0
   -7.4862   22.7425  -32.7187 H   0  0  0  0  0  0  0  0  0  0  0  0
   -6.0902   23.8896  -32.6901 H   0  0  0  0  0  0  0  0  0  0  0  0
   -3.6643   22.9061  -32.8144 H   0  0  0  0  0  0  0  0  0  0  0  0
   -1.6650   22.4151  -33.0781 H   0  0  0  0  0  0  0  0  0  0  0  0
    0.6528   21.9247  -33.8512 H   0  0  0  0  0  0  0  0  0  0  0  0
    1.2071   19.6900  -34.8027 H   0  0  0  0  0  0  0  0  0  0  0  0
   -0.5553   17.9399  -35.0009 H   0  0  0  0  0  0  0  0  0  0  0  0
   -2.8466   16.2473  -33.7720 H   0  0  0  0  0  0  0  0  0  0  0  0
   -3.7980   16.5356  -35.2682 H   0  0  0  0  0  0  0  0  0  0  0  0
   -2.0216   16.8019  -35.2682 H   0  0  0  0  0  0  0  0  0  0  0  0
   -4.6350   18.8360  -33.2050 H   0  0  0  0  0  0  0  0  0  0  0  0
   -8.5677   21.2903  -33.1446 H   0  0  0  0  0  0  0  0  0  0  0  0
  -10.4979   19.6544  -32.5129 H   0  0  0  0  0  0  0  0  0  0  0  0
   -9.6333   17.4134  -31.4298 H   0  0  0  0  0  0  0  0  0  0  0  0
  1  2  1  0
  2  3  1  0
  3  4  1  0
  4  5  1  0
  5  6  1  0
  6  7  1  0
  7  8  1  0
  8  9  1  0
  9 10  2  0
 10 11  1  0
 11 12  1  0
 12 13  2  0
 13 14  1  0
 14 15  2  0
 15 16  1  0
 16 17  2  0
 17 18  1  0
 18 19  1  0
 11 20  1  0
 20 21  2  0
 21 22  1  0
 22 23  2  0
 23 24  1  0
 24 25  2  0
 25 26  1  0
 21  9  1  0
 26 22  1  0
 17 12  1  0
  1 27  1  0
  1 28  1  0
  1 29  1  0
  2 30  1  0
  2 31  1  0
  4 32  1  0
  4 33  1  0
  5 34  1  0
  5 35  1  0
  6 36  1  0
  6 37  1  0
  7 38  1  0
  8 39  1  0
  8 40  1  0
 10 41  1  0
 13 42  1  0
 14 43  1  0
 15 44  1  0
 16 45  1  0
 19 46  1  0
 19 47  1  0
 19 48  1  0
 20 49  1  0
 23 50  1  0
 24 51  1  0
 25 52  1  0
M  CHG  1  20   1
M  END
>  <UniqueID>  (14) 
14

>  <SMILES>  (14) 
CCOCCCNCc1cn(-c2ccccc2OC)[nH+]c1-c1cccs1

>  <Energy>  (14) 
112.96065419350023

>  <Genealogy>  (14) 
CCOCCCNCc1cn(-c2ccccc2OC)[nH+]c1-c1cccs1 (protonated)
CCOCCCNCc1cn(-c2ccccc2OC)[nH+]c1-c1cccs1 (3D coordinates assigned)
CCOCCCNCc1cn(-c2ccccc2OC)[nH+]c1-c1cccs1 (optimized conformer: 112.96065419350023 kcal/mol)

>  <smiles>  (14) 
CCOCCCNCc1cn(-c2ccccc2OC)nc1-c1cccs1

>  <score_type>  (14) 
oracle

>  <origin>  (14) 
adg

>  <m_score__min__energy>  (14) 
-7.3600000000000003

>  <m_primary>  (14) 
energy

$$$$
14:0
     RDKit          3D

 41 44  0  0  0  0  0  0  0  0999 V2000
   -7.4182   24.1840  -30.6088 H   0  0  0  0  0  0  0  0  0  0  0  0
   -6.6210   23.4540  -30.8130 C   0  0  0  0  0  0  0  0  0  0  0  0
   -5.3550   23.8280  -30.5730 C   0  0  0  0  0  0  0  0  0  0  0  0
   -4.8610   25.2060  -30.5780 C   0  0  0  0  0  0  0  0  0  0  0  0
   -5.5560   26.2210  -30.8480 O   0  0  0  0  0  0  0  0  0  0  0  0
   -3.4840   25.2840  -30.2150 N   0  0  0  0  0  0  0  0  0  0  0  0
   -3.1200   23.9200  -30.0170 C   0  0  0  0  0  0  0  0  0  0  0  0
   -1.8350   23.4680  -29.7170 C   0  0  0  0  0  0  0  0  0  0  0  0
   -1.0154   24.1797  -29.5386 H   0  0  0  0  0  0  0  0  0  0  0  0
   -1.6120   22.0840  -29.6480 C   0  0  0  0  0  0  0  0  0  0  0  0
   -0.6126   21.7031  -29.3909 H   0  0  0  0  0  0  0  0  0  0  0  0
   -2.6600   21.1810  -29.9060 C   0  0  0  0  0  0  0  0  0  0  0  0
   -2.4711   20.0982  -29.8631 H   0  0  0  0  0  0  0  0  0  0  0  0
   -3.9460   21.6530  -30.2180 C   0  0  0  0  0  0  0  0  0  0  0  0
   -4.7617   20.9519  -30.4485 H   0  0  0  0  0  0  0  0  0  0  0  0
   -4.1660   23.0350  -30.2290 C   0  0  0  0  0  0  0  0  0  0  0  0
   -7.0160   22.1360  -31.3300 C   0  0  0  0  0  0  0  0  0  0  0  0
   -8.2220   21.5390  -30.9280 C   0  0  0  0  0  0  0  0  0  0  0  0
   -8.8627   22.0422  -30.1889 H   0  0  0  0  0  0  0  0  0  0  0  0
   -8.6110   20.3090  -31.4630 C   0  0  0  0  0  0  0  0  0  0  0  0
   -9.5466   19.8390  -31.1258 H   0  0  0  0  0  0  0  0  0  0  0  0
   -7.8200   19.6690  -32.4250 C   0  0  0  0  0  0  0  0  0  0  0  0
   -8.2600   18.4350  -32.9300 O   0  0  0  0  0  0  0  0  0  0  0  0
   -7.5960   17.1840  -32.7480 C   0  0  0  0  0  0  0  0  0  0  0  0
   -7.5125   16.9738  -31.6715 H   0  0  0  0  0  0  0  0  0  0  0  0
   -8.1819   16.3988  -33.2482 H   0  0  0  0  0  0  0  0  0  0  0  0
   -6.2170   17.2150  -33.3530 C   0  0  0  0  0  0  0  0  0  0  0  0
   -5.1060   16.8150  -32.5930 C   0  0  0  0  0  0  0  0  0  0  0  0
   -5.2455   16.4721  -31.5572 H   0  0  0  0  0  0  0  0  0  0  0  0
   -3.8230   16.8510  -33.1480 C   0  0  0  0  0  0  0  0  0  0  0  0
   -2.9568   16.5303  -32.5506 H   0  0  0  0  0  0  0  0  0  0  0  0
   -3.6400   17.2940  -34.4610 C   0  0  0  0  0  0  0  0  0  0  0  0
   -2.3950   17.3290  -34.9970 F   0  0  0  0  0  0  0  0  0  0  0  0
   -4.7400   17.7060  -35.2190 C   0  0  0  0  0  0  0  0  0  0  0  0
   -4.5950   18.0582  -36.2509 H   0  0  0  0  0  0  0  0  0  0  0  0
   -6.0250   17.6710  -34.6670 C   0  0  0  0  0  0  0  0  0  0  0  0
   -6.8875   18.0017  -35.2642 H   0  0  0  0  0  0  0  0  0  0  0  0
   -6.6240   20.2810  -32.8470 C   0  0  0  0  0  0  0  0  0  0  0  0
   -5.9931   19.7879  -33.6012 H   0  0  0  0  0  0  0  0  0  0  0  0
   -6.2350   21.5120  -32.3120 C   0  0  0  0  0  0  0  0  0  0  0  0
   -5.3107   21.9937  -32.6636 H   0  0  0  0  0  0  0  0  0  0  0  0
  1  2  1  0
  2  3  2  0
  3  4  1  0
  4  5  2  0
  4  6  1  0
  6  7  1  0
  7  8  2  0
  8  9  1  0
  8 10  1  0
 10 11  1  0
 10 12  2  0
 12 13  1  0
 12 14  1  0
 14 15  1  0
 14 16  2  0
  2 17  1  0
 17 18  2  0
 18 19  1  0
 18 20  1  0
 20 21  1  0
 20 22  2  0
 22 23  1  0
 23 24  1  0
 24 25  1  0
 24 26  1  0
 24 27  1  0
 27 28  2  0
 28 29  1  0
 28 30  1  0
 30 31  1  0
 30 32  2  0
 32 33  1  0
 32 34  1  0
 34 35  1  0
 34 36  2  0
 36 37  1  0
 22 38  1  0
 38 39  1  0
 38 40  2  0
 40 41  1  0
 16  3  1  0
 40 17  1  0
 16  7  1  0
 36 27  1  0
M  CHG  1   6  -1
M  END
>  <UniqueID>  (15) 
15

>  <SMILES>  (15) 
O=C1[N-]c2ccccc2/C1=C\c1ccc(OCc2ccc(F)cc2)cc1

>  <Energy>  (15) 
82.72846320558443

>  <Genealogy>  (15) 
O=C1[N-]c2ccccc2C1=Cc1ccc(OCc2ccc(F)cc2)cc1 (protonated)
O=C1[N-]c2ccccc2/C1=C\c1ccc(OCc2ccc(F)cc2)cc1 (cis-trans isomerization)
O=C1[N-]c2ccccc2/C1=C\c1ccc(OCc2ccc(F)cc2)cc1 (3D coordinates assigned)
O=C1[N-]c2ccccc2/C1=C\c1ccc(OCc2ccc(F)cc2)cc1 (nonaromatic ring conformer: 82.72846320558443 kcal/mol)

>  <smiles>  (15) 
O=C1Nc2ccccc2C1=Cc1ccc(OCc2ccc(F)cc2)cc1

>  <score_type>  (15) 
oracle

>  <origin>  (15) 
adg

>  <m_score__min__energy>  (15) 
-10.390000000000001

>  <m_primary>  (15) 
energy

$$$$
15:0
     RDKit          3D

 55 57  0  0  0  0  0  0  0  0999 V2000
   -3.2550   22.0920  -29.6700 C   0  0  0  0  0  0  0  0  0  0  0  0
   -4.2250   22.3820  -28.5200 C   0  0  0  0  0  0  0  0  0  0  0  0
   -4.6990   23.7910  -28.4960 N   0  0  0  0  0  0  0  0  0  0  0  0
   -4.2370   24.5540  -27.3040 C   0  0  0  0  0  0  0  0  0  0  0  0
   -2.7110   24.6070  -27.1320 C   0  0  0  0  0  0  0  0  0  0  0  0
   -4.3370   24.4970  -29.7550 C   0  0  0  0  0  0  0  0  0  0  0  0
   -5.5590   24.7430  -30.6670 C   0  0  0  0  0  0  0  0  0  0  0  0
   -6.3060   23.4430  -30.9910 C   0  0  0  0  0  0  0  0  0  0  0  0
   -6.0100   22.9960  -32.3540 N   0  0  0  0  0  0  0  0  0  0  0  0
   -5.8660   21.5980  -32.6650 C   0  0  0  0  0  0  0  0  0  0  0  0
   -6.9600   20.7250  -32.5310 C   0  0  0  0  0  0  0  0  0  0  0  0
   -8.1730   21.1700  -31.9620 C   0  0  0  0  0  0  0  0  0  0  0  0
   -9.2420   20.2940  -31.7920 C   0  0  0  0  0  0  0  0  0  0  0  0
   -9.1160   18.9610  -32.1660 C   0  0  0  0  0  0  0  0  0  0  0  0
   -7.9250   18.4980  -32.7250 C   0  0  0  0  0  0  0  0  0  0  0  0
   -6.8310   19.3730  -32.9440 C   0  0  0  0  0  0  0  0  0  0  0  0
   -5.6530   18.9350  -33.5230 N   0  0  0  0  0  0  0  0  0  0  0  0
   -5.6150   17.6330  -34.2250 C   0  0  0  0  0  0  0  0  0  0  0  0
   -4.5200   19.7250  -33.4650 C   0  0  0  0  0  0  0  0  0  0  0  0
   -3.2370   19.2130  -33.7900 C   0  0  0  0  0  0  0  0  0  0  0  0
   -2.0970   20.0320  -33.7890 C   0  0  0  0  0  0  0  0  0  0  0  0
   -0.8080   19.4910  -34.1370 N   0  0  0  0  0  0  0  0  0  0  0  0
   -0.1830   19.9220  -35.1280 O   0  0  0  0  0  0  0  0  0  0  0  0
   -0.2450   18.4830  -33.3880 O   0  0  0  0  0  0  0  0  0  0  0  0
   -2.2310   21.3810  -33.4400 C   0  0  0  0  0  0  0  0  0  0  0  0
   -3.4690   21.8950  -33.0710 C   0  0  0  0  0  0  0  0  0  0  0  0
   -4.6180   21.0820  -33.0620 C   0  0  0  0  0  0  0  0  0  0  0  0
   -2.2771   21.7996  -29.2599 H   0  0  0  0  0  0  0  0  0  0  0  0
   -3.6530   21.2736  -30.2879 H   0  0  0  0  0  0  0  0  0  0  0  0
   -3.1385   22.9946  -30.2879 H   0  0  0  0  0  0  0  0  0  0  0  0
   -5.0981   21.7210  -28.6237 H   0  0  0  0  0  0  0  0  0  0  0  0
   -3.6815   22.2035  -27.5805 H   0  0  0  0  0  0  0  0  0  0  0  0
   -5.7450   23.7720  -28.4300 H   0  0  0  0  0  0  0  0  0  0  0  0
   -4.6087   25.5856  -27.3915 H   0  0  0  0  0  0  0  0  0  0  0  0
   -4.6324   24.0268  -26.4232 H   0  0  0  0  0  0  0  0  0  0  0  0
   -2.4629   24.6156  -26.0604 H   0  0  0  0  0  0  0  0  0  0  0  0
   -2.2577   23.7241  -27.6062 H   0  0  0  0  0  0  0  0  0  0  0  0
   -2.3200   25.5193  -27.6062 H   0  0  0  0  0  0  0  0  0  0  0  0
   -3.8871   25.4675  -29.4985 H   0  0  0  0  0  0  0  0  0  0  0  0
   -3.6317   23.8575  -30.3061 H   0  0  0  0  0  0  0  0  0  0  0  0
   -6.2492   25.4316  -30.1577 H   0  0  0  0  0  0  0  0  0  0  0  0
   -5.1959   25.1707  -31.6131 H   0  0  0  0  0  0  0  0  0  0  0  0
   -5.9956   22.6626  -30.2806 H   0  0  0  0  0  0  0  0  0  0  0  0
   -7.3871   23.6290  -30.9091 H   0  0  0  0  0  0  0  0  0  0  0  0
   -6.0590   23.6880  -33.1350 H   0  0  0  0  0  0  0  0  0  0  0  0
   -8.2747   22.2198  -31.6497 H   0  0  0  0  0  0  0  0  0  0  0  0
  -10.1869   20.6570  -31.3614 H   0  0  0  0  0  0  0  0  0  0  0  0
   -9.9586   18.2690  -32.0206 H   0  0  0  0  0  0  0  0  0  0  0  0
   -7.8329   17.4370  -33.0004 H   0  0  0  0  0  0  0  0  0  0  0  0
   -5.5912   16.8186  -33.4860 H   0  0  0  0  0  0  0  0  0  0  0  0
   -6.5105   17.5301  -34.8554 H   0  0  0  0  0  0  0  0  0  0  0  0
   -4.7150   17.5825  -34.8554 H   0  0  0  0  0  0  0  0  0  0  0  0
   -3.1334   18.1489  -34.0489 H   0  0  0  0  0  0  0  0  0  0  0  0
   -1.3500   22.0395  -33.4578 H   0  0  0  0  0  0  0  0  0  0  0  0
   -3.5518   22.9530  -32.7817 H   0  0  0  0  0  0  0  0  0  0  0  0
  1  2  1  0
  2  3  1  0
  3  4  1  0
  4  5  1  0
  3  6  1  0
  6  7  1  0
  7  8  1  0
  8  9  1  0
  9 10  1  0
 10 11  2  0
 11 12  1  0
 12 13  2  0
 13 14  1  0
 14 15  2  0
 15 16  1  0
 16 17  2  0
 17 18  1  0
 17 19  1  0
 19 20  2  0
 20 21  1  0
 21 22  1  0
 22 23  2  0
 22 24  1  0
 21 25  2  0
 25 26  1  0
 26 27  2  0
 27 10  1  0
 16 11  1  0
 27 19  1  0
  1 28  1  0
  1 29  1  0
  1 30  1  0
  2 31  1  0
  2 32  1  0
  3 33  1  0
  4 34  1  0
  4 35  1  0
  5 36  1  0
  5 37  1  0
  5 38  1  0
  6 39  1  0
  6 40  1  0
  7 41  1  0
  7 42  1  0
  8 43  1  0
  8 44  1  0
  9 45  1  0
 12 46  1  0
 13 47  1  0
 14 48  1  0
 15 49  1  0
 18 50  1  0
 18 51  1  0
 18 52  1  0
 20 53  1  0
 25 54  1  0
 26 55  1  0
M  CHG  4   3   1  17   1  22   1  24  -1
M  END
>  <UniqueID>  (16) 
16

>  <SMILES>  (16) 
CC[NH+](CC)CCCNc1c2ccccc2[n+](C)c2cc([N+](=O)[O-])ccc12

>  <Energy>  (16) 
83.49013883917213

>  <Genealogy>  (16) 
CC[NH+](CC)CCCNc1c2ccccc2[n+](C)c2cc([N+](=O)[O-])ccc12 (protonated)
CC[NH+](CC)CCCNc1c2ccccc2[n+](C)c2cc([N+](=O)[O-])ccc12 (3D coordinates assigned)
CC[NH+](CC)CCCNc1c2ccccc2[n+](C)c2cc([N+](=O)[O-])ccc12 (optimized conformer: 83.49013883917213 kcal/mol)

>  <smiles>  (16) 
CCN(CC)CCCNc1c2ccccc2[n+](C)c2cc([N+](=O)[O-])ccc12

>  <score_type>  (16) 
oracle

>  <origin>  (16) 
adg

>  <m_score__min__energy>  (16) 
-6.9299999999999997

>  <m_primary>  (16) 
energy

$$$$
16:0
     RDKit          3D

 34 36  0  0  0  0  0  0  0  0999 V2000
   -6.3540   25.6270  -29.4340 C   0  0  0  0  0  0  0  0  0  0  0  0
   -5.7170   25.5070  -30.8140 C   0  0  0  0  0  0  0  0  0  0  0  0
   -4.2620   25.3670  -30.6850 N   0  0  0  0  0  0  0  0  0  0  0  0
   -3.8710   23.9730  -30.4060 C   0  0  0  0  0  0  0  0  0  0  0  0
   -5.0290   23.0180  -30.7110 C   0  0  0  0  0  0  0  0  0  0  0  0
   -4.5980   21.8850  -31.5960 C   0  0  0  0  0  0  0  0  0  0  0  0
   -3.2940   21.6450  -32.0200 C   0  0  0  0  0  0  0  0  0  0  0  0
   -3.2550   20.6000  -32.8780 N   0  0  0  0  0  0  0  0  0  0  0  0
   -4.5230   20.1820  -33.0160 C   0  0  0  0  0  0  0  0  0  0  0  0
   -4.9820   19.1360  -33.8390 C   0  0  0  0  0  0  0  0  0  0  0  0
   -6.3690   18.8670  -33.8750 C   0  0  0  0  0  0  0  0  0  0  0  0
   -7.2240   19.6590  -33.0880 C   0  0  0  0  0  0  0  0  0  0  0  0
   -8.5600   19.5690  -33.0030 N   0  0  0  0  0  0  0  0  0  0  0  0
   -8.9450   20.5390  -32.1430 C   0  0  0  0  0  0  0  0  0  0  0  0
   -7.8460   21.2530  -31.6750 C   0  0  0  0  0  0  0  0  0  0  0  0
   -6.7510   20.6780  -32.2880 C   0  0  0  0  0  0  0  0  0  0  0  0
   -5.3810   20.9440  -32.2480 C   0  0  0  0  0  0  0  0  0  0  0  0
   -5.5847   25.4821  -28.6612 H   0  0  0  0  0  0  0  0  0  0  0  0
   -6.8022   26.6254  -29.3226 H   0  0  0  0  0  0  0  0  0  0  0  0
   -7.1347   24.8601  -29.3226 H   0  0  0  0  0  0  0  0  0  0  0  0
   -6.1238   24.6233  -31.3273 H   0  0  0  0  0  0  0  0  0  0  0  0
   -5.9423   26.4131  -31.3956 H   0  0  0  0  0  0  0  0  0  0  0  0
   -3.8300   25.6570  -31.5940 H   0  0  0  0  0  0  0  0  0  0  0  0
   -3.0078   23.7069  -31.0338 H   0  0  0  0  0  0  0  0  0  0  0  0
   -3.6085   23.8842  -29.3415 H   0  0  0  0  0  0  0  0  0  0  0  0
   -5.4095   22.6059  -29.7647 H   0  0  0  0  0  0  0  0  0  0  0  0
   -5.8107   23.5852  -31.2376 H   0  0  0  0  0  0  0  0  0  0  0  0
   -2.4158   22.2255  -31.7011 H   0  0  0  0  0  0  0  0  0  0  0  0
   -2.4080   20.2150  -33.3540 H   0  0  0  0  0  0  0  0  0  0  0  0
   -4.2776   18.5421  -34.4399 H   0  0  0  0  0  0  0  0  0  0  0  0
   -6.7699   18.0579  -34.5032 H   0  0  0  0  0  0  0  0  0  0  0  0
   -9.1810   18.8940  -33.5020 H   0  0  0  0  0  0  0  0  0  0  0  0
   -9.9872   20.7371  -31.8523 H   0  0  0  0  0  0  0  0  0  0  0  0
   -7.8492   22.0955  -30.9678 H   0  0  0  0  0  0  0  0  0  0  0  0
  1  2  1  0
  2  3  1  0
  3  4  1  0
  4  5  1  0
  5  6  1  0
  6  7  2  0
  7  8  1  0
  8  9  1  0
  9 10  2  0
 10 11  1  0
 11 12  2  0
 12 13  1  0
 13 14  1  0
 14 15  2  0
 15 16  1  0
 16 17  2  0
 17  6  1  0
 17  9  1  0
 16 12  1  0
  1 18  1  0
  1 19  1  0
  1 20  1  0
  2 21  1  0
  2 22  1  0
  3 23  1  0
  4 24  1  0
  4 25  1  0
  5 26  1  0
  5 27  1  0
  7 28  1  0
  8 29  1  0
 10 30  1  0
 11 31  1  0
 13 32  1  0
 14 33  1  0
 15 34  1  0
M  END
>  <UniqueID>  (17) 
17

>  <SMILES>  (17) 
CCNCCc1c[nH]c2ccc3[nH]ccc3c12

>  <Energy>  (17) 
95.94227176105643

>  <Genealogy>  (17) 
CCNCCc1c[nH]c2ccc3[nH]ccc3c12 (3D coordinates assigned)
CCNCCc1c[nH]c2ccc3[nH]ccc3c12 (optimized conformer: 95.94227176105643 kcal/mol)

>  <smiles>  (17) 
CCNCCc1c[nH]c2ccc3[nH]ccc3c12

>  <score_type>  (17) 
oracle

>  <origin>  (17) 
adg

>  <m_score__min__energy>  (17) 
-7.75

>  <m_primary>  (17) 
energy

$$$$
17:0
     RDKit          3D

 40 42  0  0  0  0  0  0  0  0999 V2000
   -5.4700   16.2380  -33.8560 C   0  0  0  0  0  0  0  0  0  0  0  0
   -6.8780   16.6970  -33.4990 C   0  0  0  0  0  0  0  0  0  0  0  0
   -6.8440   17.4910  -32.2650 N   0  0  0  0  0  0  0  0  0  0  0  0
   -8.1270   18.1670  -32.0150 C   0  0  0  0  0  0  0  0  0  0  0  0
   -7.9880   19.6920  -32.1030 C   0  0  0  0  0  0  0  0  0  0  0  0
   -7.2340   20.0680  -33.2960 N   0  0  0  0  0  0  0  0  0  0  0  0
   -5.8180   20.2670  -33.2450 C   0  0  0  0  0  0  0  0  0  0  0  0
   -4.9810   19.3770  -33.8580 N   0  0  0  0  0  0  0  0  0  0  0  0
   -3.6180   19.4970  -33.8100 C   0  0  0  0  0  0  0  0  0  0  0  0
   -3.0210   20.5600  -33.1130 C   0  0  0  0  0  0  0  0  0  0  0  0
   -3.8680   21.4800  -32.5040 C   0  0  0  0  0  0  0  0  0  0  0  0
   -3.5170   22.5640  -31.8460 O   0  0  0  0  0  0  0  0  0  0  0  0
   -4.6330   23.1650  -31.4860 C   0  0  0  0  0  0  0  0  0  0  0  0
   -4.7490   24.3670  -30.7880 C   0  0  0  0  0  0  0  0  0  0  0  0
   -3.5890   25.0340  -30.3690 O   0  0  0  0  0  0  0  0  0  0  0  0
   -2.7140   24.5520  -29.3550 C   0  0  0  0  0  0  0  0  0  0  0  0
   -6.0540   24.8560  -30.5440 C   0  0  0  0  0  0  0  0  0  0  0  0
   -7.1840   24.1490  -31.0090 C   0  0  0  0  0  0  0  0  0  0  0  0
   -7.0370   22.9400  -31.7090 C   0  0  0  0  0  0  0  0  0  0  0  0
   -5.7420   22.4600  -31.9150 C   0  0  0  0  0  0  0  0  0  0  0  0
   -5.2400   21.3480  -32.5660 C   0  0  0  0  0  0  0  0  0  0  0  0
   -4.9000   16.0522  -32.9337 H   0  0  0  0  0  0  0  0  0  0  0  0
   -5.5250   15.3113  -34.4460 H   0  0  0  0  0  0  0  0  0  0  0  0
   -4.9683   17.0191  -34.4460 H   0  0  0  0  0  0  0  0  0  0  0  0
   -7.2804   17.3116  -34.3178 H   0  0  0  0  0  0  0  0  0  0  0  0
   -7.5195   15.8165  -33.3469 H   0  0  0  0  0  0  0  0  0  0  0  0
   -6.1140   18.2320  -32.3830 H   0  0  0  0  0  0  0  0  0  0  0  0
   -8.8593   17.8314  -32.7641 H   0  0  0  0  0  0  0  0  0  0  0  0
   -8.4592   17.9098  -30.9984 H   0  0  0  0  0  0  0  0  0  0  0  0
   -8.9894   20.1448  -32.1498 H   0  0  0  0  0  0  0  0  0  0  0  0
   -7.4505   20.0526  -31.2136 H   0  0  0  0  0  0  0  0  0  0  0  0
   -7.7170   20.0410  -34.2200 H   0  0  0  0  0  0  0  0  0  0  0  0
   -2.9861   18.7556  -34.3210 H   0  0  0  0  0  0  0  0  0  0  0  0
   -1.9274   20.6610  -33.0511 H   0  0  0  0  0  0  0  0  0  0  0  0
   -3.1357   24.7843  -28.3660 H   0  0  0  0  0  0  0  0  0  0  0  0
   -2.5984   23.4629  -29.4577 H   0  0  0  0  0  0  0  0  0  0  0  0
   -1.7317   25.0363  -29.4577 H   0  0  0  0  0  0  0  0  0  0  0  0
   -6.1893   25.7950  -29.9873 H   0  0  0  0  0  0  0  0  0  0  0  0
   -8.1911   24.5494  -30.8210 H   0  0  0  0  0  0  0  0  0  0  0  0
   -7.9131   22.3896  -32.0825 H   0  0  0  0  0  0  0  0  0  0  0  0
  1  2  1  0
  2  3  1  0
  3  4  1  0
  4  5  1  0
  5  6  1  0
  6  7  1  0
  7  8  2  0
  8  9  1  0
  9 10  2  0
 10 11  1  0
 11 12  1  0
 12 13  1  0
 13 14  2  0
 14 15  1  0
 15 16  1  0
 14 17  1  0
 17 18  2  0
 18 19  1  0
 19 20  2  0
 20 21  1  0
 21  7  1  0
 21 11  2  0
 20 13  1  0
  1 22  1  0
  1 23  1  0
  1 24  1  0
  2 25  1  0
  2 26  1  0
  3 27  1  0
  4 28  1  0
  4 29  1  0
  5 30  1  0
  5 31  1  0
  6 32  1  0
  9 33  1  0
 10 34  1  0
 16 35  1  0
 16 36  1  0
 16 37  1  0
 17 38  1  0
 18 39  1  0
 19 40  1  0
M  END
>  <UniqueID>  (18) 
18

>  <SMILES>  (18) 
CCNCCNc1nccc2oc3c(OC)cccc3c12

>  <Energy>  (18) 
79.90555512606784

>  <Genealogy>  (18) 
CCNCCNc1nccc2oc3c(OC)cccc3c12 (3D coordinates assigned)
CCNCCNc1nccc2oc3c(OC)cccc3c12 (optimized conformer: 79.90555512606784 kcal/mol)

>  <smiles>  (18) 
CCNCCNc1nccc2oc3c(OC)cccc3c12

>  <score_type>  (18) 
oracle

>  <origin>  (18) 
adg

>  <m_score__min__energy>  (18) 
-7.6399999999999997

>  <m_primary>  (18) 
energy

$$$$
18:0
     RDKit          3D

 50 52  0  0  0  0  0  0  0  0999 V2000
   -0.1200   20.7530  -35.0320 C   0  0  0  0  0  0  0  0  0  0  0  0
   -0.4370   21.2510  -33.6240 C   0  0  0  0  0  0  0  0  0  0  0  0
   -0.9860   20.1570  -32.7890 N   0  0  0  0  0  0  0  0  0  0  0  0
   -1.6980   20.6430  -31.5790 C   0  0  0  0  0  0  0  0  0  0  0  0
   -3.1640   20.1730  -31.4940 C   0  0  0  0  0  0  0  0  0  0  0  0
   -3.8800   20.3440  -32.7790 N   0  0  0  0  0  0  0  0  0  0  0  0
   -4.1560   21.7710  -33.0960 C   0  0  0  0  0  0  0  0  0  0  0  0
   -5.3670   22.3100  -32.3620 C   0  0  0  0  0  0  0  0  0  0  0  0
   -5.2320   23.4410  -31.5380 C   0  0  0  0  0  0  0  0  0  0  0  0
   -6.3330   23.9470  -30.8430 C   0  0  0  0  0  0  0  0  0  0  0  0
   -6.1340   25.4800  -29.7230 Br  0  0  0  0  0  0  0  0  0  0  0  0
   -7.5790   23.3290  -30.9650 C   0  0  0  0  0  0  0  0  0  0  0  0
   -7.7280   22.2060  -31.7820 C   0  0  0  0  0  0  0  0  0  0  0  0
   -6.6260   21.6870  -32.4920 C   0  0  0  0  0  0  0  0  0  0  0  0
   -6.7430   20.5630  -33.3290 O   0  0  0  0  0  0  0  0  0  0  0  0
   -7.4370   19.3570  -33.0100 C   0  0  0  0  0  0  0  0  0  0  0  0
   -6.5090   18.1730  -33.0820 C   0  0  0  0  0  0  0  0  0  0  0  0
   -6.2440   17.4070  -31.9330 C   0  0  0  0  0  0  0  0  0  0  0  0
   -5.3800   16.3100  -32.0000 C   0  0  0  0  0  0  0  0  0  0  0  0
   -4.7680   15.9730  -33.2090 C   0  0  0  0  0  0  0  0  0  0  0  0
   -5.0150   16.7350  -34.3550 C   0  0  0  0  0  0  0  0  0  0  0  0
   -5.8790   17.8340  -34.2940 C   0  0  0  0  0  0  0  0  0  0  0  0
   -6.1000   18.5660  -35.4150 F   0  0  0  0  0  0  0  0  0  0  0  0
   -3.1810   19.6680  -33.9110 C   0  0  0  0  0  0  0  0  0  0  0  0
   -1.7610   19.1680  -33.5690 C   0  0  0  0  0  0  0  0  0  0  0  0
    0.4697   19.8266  -34.9691 H   0  0  0  0  0  0  0  0  0  0  0  0
   -1.0583   20.5545  -35.5707 H   0  0  0  0  0  0  0  0  0  0  0  0
    0.4570   21.5191  -35.5707 H   0  0  0  0  0  0  0  0  0  0  0  0
    0.4852   21.6307  -33.1598 H   0  0  0  0  0  0  0  0  0  0  0  0
   -1.1884   22.0513  -33.6944 H   0  0  0  0  0  0  0  0  0  0  0  0
   -1.1633   20.2764  -30.6903 H   0  0  0  0  0  0  0  0  0  0  0  0
   -1.7145   21.7415  -31.6343 H   0  0  0  0  0  0  0  0  0  0  0  0
   -3.1795   19.1082  -31.2184 H   0  0  0  0  0  0  0  0  0  0  0  0
   -3.6735   20.7887  -30.7382 H   0  0  0  0  0  0  0  0  0  0  0  0
   -4.8070   19.8690  -32.6650 H   0  0  0  0  0  0  0  0  0  0  0  0
   -3.2779   22.3703  -32.8136 H   0  0  0  0  0  0  0  0  0  0  0  0
   -4.3645   21.8373  -34.1740 H   0  0  0  0  0  0  0  0  0  0  0  0
   -4.2521   23.9311  -31.4398 H   0  0  0  0  0  0  0  0  0  0  0  0
   -8.4452   23.7274  -30.4165 H   0  0  0  0  0  0  0  0  0  0  0  0
   -8.7122   21.7230  -31.8721 H   0  0  0  0  0  0  0  0  0  0  0  0
   -7.8454   19.4341  -31.9915 H   0  0  0  0  0  0  0  0  0  0  0  0
   -8.2495   19.2139  -33.7375 H   0  0  0  0  0  0  0  0  0  0  0  0
   -6.7188   17.6722  -30.9768 H   0  0  0  0  0  0  0  0  0  0  0  0
   -5.1819   15.7113  -31.0987 H   0  0  0  0  0  0  0  0  0  0  0  0
   -4.0911   15.1074  -33.2599 H   0  0  0  0  0  0  0  0  0  0  0  0
   -4.5295   16.4702  -35.3058 H   0  0  0  0  0  0  0  0  0  0  0  0
   -3.7855   18.8035  -34.2229 H   0  0  0  0  0  0  0  0  0  0  0  0
   -3.0689   20.4187  -34.7071 H   0  0  0  0  0  0  0  0  0  0  0  0
   -1.8449   18.2422  -32.9810 H   0  0  0  0  0  0  0  0  0  0  0  0
   -1.2288   18.9978  -34.5165 H   0  0  0  0  0  0  0  0  0  0  0  0
  1  2  1  0
  2  3  1  0
  3  4  1  0
  4  5  1  0
  5  6  1  0
  6  7  1  0
  7  8  1  0
  8  9  2  0
  9 10  1  0
 10 11  1  0
 10 12  2  0
 12 13  1  0
 13 14  2  0
 14 15  1  0
 15 16  1  0
 16 17  1  0
 17 18  2  0
 18 19  1  0
 19 20  2  0
 20 21  1  0
 21 22  2  0
 22 23  1  0
  6 24  1  0
 24 25  1  0
 25  3  1  0
 14  8  1  0
 22 17  1  0
  1 26  1  0
  1 27  1  0
  1 28  1  0
  2 29  1  0
  2 30  1  0
  4 31  1  0
  4 32  1  0
  5 33  1  0
  5 34  1  0
  6 35  1  0
  7 36  1  0
  7 37  1  0
  9 38  1  0
 12 39  1  0
 13 40  1  0
 16 41  1  0
 16 42  1  0
 18 43  1  0
 19 44  1  0
 20 45  1  0
 21 46  1  0
 24 47  1  0
 24 48  1  0
 25 49  1  0
 25 50  1  0
M  CHG  1   6   1
M  END
>  <UniqueID>  (19) 
19

>  <SMILES>  (19) 
CCN1CC[NH+](Cc2cc(Br)ccc2OCc2ccccc2F)CC1

>  <Energy>  (19) 
67.09368829655878

>  <Genealogy>  (19) 
CCN1CC[NH+](Cc2cc(Br)ccc2OCc2ccccc2F)CC1 (protonated)
CCN1CC[NH+](Cc2cc(Br)ccc2OCc2ccccc2F)CC1 (3D coordinates assigned)
CCN1CC[NH+](Cc2cc(Br)ccc2OCc2ccccc2F)CC1 (nonaromatic ring conformer: 67.09368829655878 kcal/mol)

>  <smiles>  (19) 
CCN1CCN(Cc2cc(Br)ccc2OCc2ccccc2F)CC1

>  <score_type>  (19) 
oracle

>  <origin>  (19) 
adg

>  <m_score__min__energy>  (19) 
-7.46

>  <m_primary>  (19) 
energy

$$$$
19:0
     RDKit          3D

 64 67  0  0  0  0  0  0  0  0999 V2000
   -3.8680   19.2190  -32.8270 C   0  0  0  0  0  0  0  0  0  0  0  0
   -3.5490   20.5800  -33.4360 C   0  0  0  0  0  0  0  0  0  0  0  0
   -2.3930   21.1510  -32.8240 O   0  0  0  0  0  0  0  0  0  0  0  0
   -1.0580   20.9190  -33.2020 C   0  0  0  0  0  0  0  0  0  0  0  0
   -0.5440   21.3590  -34.4400 C   0  0  0  0  0  0  0  0  0  0  0  0
    0.7880   21.1200  -34.7780 C   0  0  0  0  0  0  0  0  0  0  0  0
    1.6270   20.4450  -33.8910 C   0  0  0  0  0  0  0  0  0  0  0  0
    1.1320   19.9970  -32.6680 C   0  0  0  0  0  0  0  0  0  0  0  0
   -0.2120   20.2140  -32.3150 C   0  0  0  0  0  0  0  0  0  0  0  0
   -0.7270   19.7040  -30.9790 C   0  0  0  0  0  0  0  0  0  0  0  0
   -1.0480   20.7740  -30.0070 N   0  0  0  0  0  0  0  0  0  0  0  0
   -2.3900   20.6420  -29.4100 C   0  0  0  0  0  0  0  0  0  0  0  0
   -2.6240   21.6970  -28.3050 C   0  0  0  0  0  0  0  0  0  0  0  0
   -1.6420   22.8020  -28.3880 N   0  0  0  0  0  0  0  0  0  0  0  0
   -1.9570   23.8280  -27.3620 C   0  0  0  0  0  0  0  0  0  0  0  0
   -2.1960   25.2170  -27.9770 C   0  0  0  0  0  0  0  0  0  0  0  0
   -2.6000   25.0960  -29.3410 O   0  0  0  0  0  0  0  0  0  0  0  0
   -3.7170   24.3770  -29.7980 C   0  0  0  0  0  0  0  0  0  0  0  0
   -5.0100   24.5640  -29.2750 C   0  0  0  0  0  0  0  0  0  0  0  0
   -6.0880   23.8270  -29.7740 C   0  0  0  0  0  0  0  0  0  0  0  0
   -5.8970   22.8910  -30.8060 C   0  0  0  0  0  0  0  0  0  0  0  0
   -7.0440   22.1120  -31.3410 C   0  0  0  0  0  0  0  0  0  0  0  0
   -8.3550   22.6160  -31.2530 C   0  0  0  0  0  0  0  0  0  0  0  0
   -9.4320   21.8820  -31.7590 C   0  0  0  0  0  0  0  0  0  0  0  0
   -9.2140   20.6350  -32.3520 C   0  0  0  0  0  0  0  0  0  0  0  0
   -7.9180   20.1240  -32.4450 C   0  0  0  0  0  0  0  0  0  0  0  0
   -6.8360   20.8570  -31.9460 C   0  0  0  0  0  0  0  0  0  0  0  0
   -4.6030   22.7060  -31.3240 C   0  0  0  0  0  0  0  0  0  0  0  0
   -3.5280   23.4450  -30.8240 C   0  0  0  0  0  0  0  0  0  0  0  0
   -0.2550   22.2870  -28.2280 C   0  0  0  0  0  0  0  0  0  0  0  0
   -0.0240   20.9520  -28.9670 C   0  0  0  0  0  0  0  0  0  0  0  0
   -3.8502   19.2950  -31.7298 H   0  0  0  0  0  0  0  0  0  0  0  0
   -4.8664   18.8950  -33.1559 H   0  0  0  0  0  0  0  0  0  0  0  0
   -3.1175   18.4851  -33.1559 H   0  0  0  0  0  0  0  0  0  0  0  0
   -3.3637   20.4584  -34.5134 H   0  0  0  0  0  0  0  0  0  0  0  0
   -4.4045   21.2507  -33.2677 H   0  0  0  0  0  0  0  0  0  0  0  0
   -1.1984   21.8944  -35.1437 H   0  0  0  0  0  0  0  0  0  0  0  0
    1.1781   21.4648  -35.7470 H   0  0  0  0  0  0  0  0  0  0  0  0
    2.6793   20.2665  -34.1571 H   0  0  0  0  0  0  0  0  0  0  0  0
    1.7992   19.4682  -31.9715 H   0  0  0  0  0  0  0  0  0  0  0  0
   -1.6397   19.1178  -31.1615 H   0  0  0  0  0  0  0  0  0  0  0  0
    0.0813   19.1041  -30.5353 H   0  0  0  0  0  0  0  0  0  0  0  0
   -3.1463   20.7753  -30.1975 H   0  0  0  0  0  0  0  0  0  0  0  0
   -2.4694   19.6431  -28.9562 H   0  0  0  0  0  0  0  0  0  0  0  0
   -3.6371   22.1110  -28.4158 H   0  0  0  0  0  0  0  0  0  0  0  0
   -2.5049   21.2042  -27.3288 H   0  0  0  0  0  0  0  0  0  0  0  0
   -1.7330   23.2420  -29.3350 H   0  0  0  0  0  0  0  0  0  0  0  0
   -2.8641   23.5201  -26.8212 H   0  0  0  0  0  0  0  0  0  0  0  0
   -1.0919   23.9042  -26.6868 H   0  0  0  0  0  0  0  0  0  0  0  0
   -2.9847   25.7333  -27.4101 H   0  0  0  0  0  0  0  0  0  0  0  0
   -1.2594   25.7922  -27.9326 H   0  0  0  0  0  0  0  0  0  0  0  0
   -5.1734   25.2943  -28.4688 H   0  0  0  0  0  0  0  0  0  0  0  0
   -7.0938   23.9805  -29.3560 H   0  0  0  0  0  0  0  0  0  0  0  0
   -8.5336   23.5943  -30.7828 H   0  0  0  0  0  0  0  0  0  0  0  0
  -10.4526   22.2864  -31.6904 H   0  0  0  0  0  0  0  0  0  0  0  0
  -10.0631   20.0566  -32.7452 H   0  0  0  0  0  0  0  0  0  0  0  0
   -7.7473   19.1427  -32.9118 H   0  0  0  0  0  0  0  0  0  0  0  0
   -5.8168   20.4510  -32.0265 H   0  0  0  0  0  0  0  0  0  0  0  0
   -4.4360   21.9745  -32.1283 H   0  0  0  0  0  0  0  0  0  0  0  0
   -2.5219   23.2923  -31.2417 H   0  0  0  0  0  0  0  0  0  0  0  0
    0.4459   23.0352  -28.6266 H   0  0  0  0  0  0  0  0  0  0  0  0
   -0.0909   22.1048  -27.1557 H   0  0  0  0  0  0  0  0  0  0  0  0
    0.9723   20.9605  -29.4333 H   0  0  0  0  0  0  0  0  0  0  0  0
   -0.0897   20.1227  -28.2473 H   0  0  0  0  0  0  0  0  0  0  0  0
  1  2  1  0
  2  3  1  0
  3  4  1  0
  4  5  2  0
  5  6  1  0
  6  7  2  0
  7  8  1  0
  8  9  2  0
  9 10  1  0
 10 11  1  0
 11 12  1  0
 12 13  1  0
 13 14  1  0
 14 15  1  0
 15 16  1  0
 16 17  1  0
 17 18  1  0
 18 19  2  0
 19 20  1  0
 20 21  2  0
 21 22  1  0
 22 23  2  0
 23 24  1  0
 24 25  2  0
 25 26  1  0
 26 27  2  0
 21 28  1  0
 28 29  2  0
 14 30  1  0
 30 31  1  0
  9  4  1  0
 31 11  1  0
 29 18  1  0
 27 22  1  0
  1 32  1  0
  1 33  1  0
  1 34  1  0
  2 35  1  0
  2 36  1  0
  5 37  1  0
  6 38  1  0
  7 39  1  0
  8 40  1  0
 10 41  1  0
 10 42  1  0
 12 43  1  0
 12 44  1  0
 13 45  1  0
 13 46  1  0
 14 47  1  0
 15 48  1  0
 15 49  1  0
 16 50  1  0
 16 51  1  0
 19 52  1  0
 20 53  1  0
 23 54  1  0
 24 55  1  0
 25 56  1  0
 26 57  1  0
 27 58  1  0
 28 59  1  0
 29 60  1  0
 30 61  1  0
 30 62  1  0
 31 63  1  0
 31 64  1  0
M  CHG  1  14   1
M  END
>  <UniqueID>  (20) 
20

>  <SMILES>  (20) 
CCOc1ccccc1CN1CC[NH+](CCOc2ccc(-c3ccccc3)cc2)CC1

>  <Energy>  (20) 
82.5635392155017

>  <Genealogy>  (20) 
CCOc1ccccc1CN1CC[NH+](CCOc2ccc(-c3ccccc3)cc2)CC1 (protonated)
CCOc1ccccc1CN1CC[NH+](CCOc2ccc(-c3ccccc3)cc2)CC1 (3D coordinates assigned)
CCOc1ccccc1CN1CC[NH+](CCOc2ccc(-c3ccccc3)cc2)CC1 (nonaromatic ring conformer: 82.5635392155017 kcal/mol)

>  <smiles>  (20) 
CCOc1ccccc1CN1CCN(CCOc2ccc(-c3ccccc3)cc2)CC1

>  <score_type>  (20) 
oracle

>  <origin>  (20) 
adg

>  <m_score__min__energy>  (20) 
-8.5800000000000001

>  <m_primary>  (20) 
energy

$$$$
20:0
     RDKit          3D

 43 45  0  0  0  0  0  0  0  0999 V2000
   -3.6020   23.8040  -30.1980 C   0  0  0  0  0  0  0  0  0  0  0  0
   -4.2230   25.1040  -30.4710 N   0  0  0  0  0  0  0  0  0  0  0  0
   -5.6200   24.9510  -30.9040 C   0  0  0  0  0  0  0  0  0  0  0  0
   -6.0420   23.4680  -30.9310 C   0  0  0  0  0  0  0  0  0  0  0  0
   -5.8890   22.8930  -32.2700 N   0  0  0  0  0  0  0  0  0  0  0  0
   -5.8650   21.4720  -32.4880 C   0  0  0  0  0  0  0  0  0  0  0  0
   -7.0540   20.7270  -32.4120 C   0  0  0  0  0  0  0  0  0  0  0  0
   -8.3020   21.3670  -32.2570 C   0  0  0  0  0  0  0  0  0  0  0  0
   -9.4800   20.6270  -32.2110 C   0  0  0  0  0  0  0  0  0  0  0  0
   -9.4380   19.2420  -32.3310 C   0  0  0  0  0  0  0  0  0  0  0  0
   -8.2150   18.5870  -32.4750 C   0  0  0  0  0  0  0  0  0  0  0  0
   -6.9950   19.3100  -32.4890 C   0  0  0  0  0  0  0  0  0  0  0  0
   -5.7720   18.6720  -32.5830 N   0  0  0  0  0  0  0  0  0  0  0  0
   -5.6780   17.2130  -32.3500 C   0  0  0  0  0  0  0  0  0  0  0  0
   -4.6360   19.4000  -32.8830 C   0  0  0  0  0  0  0  0  0  0  0  0
   -3.4280   18.7710  -33.2800 C   0  0  0  0  0  0  0  0  0  0  0  0
   -2.2800   19.5180  -33.5720 C   0  0  0  0  0  0  0  0  0  0  0  0
   -1.0040   18.8230  -33.9490 C   0  0  0  0  0  0  0  0  0  0  0  0
   -2.3170   20.9090  -33.4640 C   0  0  0  0  0  0  0  0  0  0  0  0
   -3.4990   21.5550  -33.1120 C   0  0  0  0  0  0  0  0  0  0  0  0
   -4.6650   20.8180  -32.8190 C   0  0  0  0  0  0  0  0  0  0  0  0
   -3.5299   23.6532  -29.1108 H   0  0  0  0  0  0  0  0  0  0  0  0
   -4.2155   23.0047  -30.6392 H   0  0  0  0  0  0  0  0  0  0  0  0
   -2.5947   23.7790  -30.6392 H   0  0  0  0  0  0  0  0  0  0  0  0
   -4.2280   25.6360  -29.5690 H   0  0  0  0  0  0  0  0  0  0  0  0
   -6.2726   25.4961  -30.2062 H   0  0  0  0  0  0  0  0  0  0  0  0
   -5.7128   25.3557  -31.9226 H   0  0  0  0  0  0  0  0  0  0  0  0
   -5.4139   22.9043  -30.2255 H   0  0  0  0  0  0  0  0  0  0  0  0
   -7.1026   23.4046  -30.6461 H   0  0  0  0  0  0  0  0  0  0  0  0
   -5.8400   23.5320  -33.0950 H   0  0  0  0  0  0  0  0  0  0  0  0
   -8.3444   22.4629  -32.1716 H   0  0  0  0  0  0  0  0  0  0  0  0
  -10.4451   21.1381  -32.0796 H   0  0  0  0  0  0  0  0  0  0  0  0
  -10.3721   18.6614  -32.3123 H   0  0  0  0  0  0  0  0  0  0  0  0
   -8.1965   17.4921  -32.5794 H   0  0  0  0  0  0  0  0  0  0  0  0
   -5.6652   17.0145  -31.2681 H   0  0  0  0  0  0  0  0  0  0  0  0
   -6.5458   16.7125  -32.8044 H   0  0  0  0  0  0  0  0  0  0  0  0
   -4.7532   16.8280  -32.8044 H   0  0  0  0  0  0  0  0  0  0  0  0
   -3.3923   17.6745  -33.3601 H   0  0  0  0  0  0  0  0  0  0  0  0
   -0.4636   18.5287  -33.0372 H   0  0  0  0  0  0  0  0  0  0  0  0
   -1.2363   17.9268  -34.5430 H   0  0  0  0  0  0  0  0  0  0  0  0
   -0.3771   19.5043  -34.5430 H   0  0  0  0  0  0  0  0  0  0  0  0
   -1.4082   21.4976  -33.6579 H   0  0  0  0  0  0  0  0  0  0  0  0
   -3.5236   22.6536  -33.0618 H   0  0  0  0  0  0  0  0  0  0  0  0
  1  2  1  0
  2  3  1  0
  3  4  1  0
  4  5  1  0
  5  6  1  0
  6  7  2  0
  7  8  1  0
  8  9  2  0
  9 10  1  0
 10 11  2  0
 11 12  1  0
 12 13  2  0
 13 14  1  0
 13 15  1  0
 15 16  2  0
 16 17  1  0
 17 18  1  0
 17 19  2  0
 19 20  1  0
 20 21  2  0
 21  6  1  0
 12  7  1  0
 21 15  1  0
  1 22  1  0
  1 23  1  0
  1 24  1  0
  2 25  1  0
  3 26  1  0
  3 27  1  0
  4 28  1  0
  4 29  1  0
  5 30  1  0
  8 31  1  0
  9 32  1  0
 10 33  1  0
 11 34  1  0
 14 35  1  0
 14 36  1  0
 14 37  1  0
 16 38  1  0
 18 39  1  0
 18 40  1  0
 18 41  1  0
 19 42  1  0
 20 43  1  0
M  CHG  1  13   1
M  END
>  <UniqueID>  (21) 
21

>  <SMILES>  (21) 
CNCCNc1c2ccccc2[n+](C)c2cc(C)ccc12

>  <Energy>  (21) 
69.23499799024516

>  <Genealogy>  (21) 
CNCCNc1c2ccccc2[n+](C)c2cc(C)ccc12 (3D coordinates assigned)
CNCCNc1c2ccccc2[n+](C)c2cc(C)ccc12 (optimized conformer: 69.23499799024516 kcal/mol)

>  <smiles>  (21) 
CNCCNc1c2ccccc2[n+](C)c2cc(C)ccc12

>  <score_type>  (21) 
oracle

>  <origin>  (21) 
adg

>  <m_score__min__energy>  (21) 
-8.5

>  <m_primary>  (21) 
energy

$$$$
21:0
     RDKit          3D

 45 48  0  0  0  0  0  0  0  0999 V2000
   -5.7700   24.1780  -31.0690 C   0  0  0  0  0  0  0  0  0  0  0  0
   -5.9260   22.8550  -31.6720 N   0  0  0  0  0  0  0  0  0  0  0  0
   -4.9490   21.9920  -32.0680 C   0  0  0  0  0  0  0  0  0  0  0  0
   -3.4800   22.3030  -32.0490 C   0  0  0  0  0  0  0  0  0  0  0  0
   -2.7380   21.2210  -31.3670 N   0  0  0  0  0  0  0  0  0  0  0  0
   -1.3510   21.6200  -31.0470 C   0  0  0  0  0  0  0  0  0  0  0  0
   -1.3170   22.7370  -29.9920 C   0  0  0  0  0  0  0  0  0  0  0  0
   -2.3360   22.5140  -28.9580 N   0  0  0  0  0  0  0  0  0  0  0  0
   -2.8130   23.5970  -28.1290 C   0  0  0  0  0  0  0  0  0  0  0  0
   -3.9580   23.5220  -27.6060 O   0  0  0  0  0  0  0  0  0  0  0  0
   -1.9990   24.8030  -27.8690 C   0  0  0  0  0  0  0  0  0  0  0  0
   -1.5540   25.2180  -26.6280 C   0  0  0  0  0  0  0  0  0  0  0  0
   -0.8310   26.3690  -26.8550 C   0  0  0  0  0  0  0  0  0  0  0  0
   -0.8760   26.5850  -28.2170 C   0  0  0  0  0  0  0  0  0  0  0  0
   -1.5770   25.6360  -28.7930 O   0  0  0  0  0  0  0  0  0  0  0  0
   -2.9090   21.1680  -28.8310 C   0  0  0  0  0  0  0  0  0  0  0  0
   -3.4690   20.6880  -30.1840 C   0  0  0  0  0  0  0  0  0  0  0  0
   -5.4460   20.8060  -32.5020 N   0  0  0  0  0  0  0  0  0  0  0  0
   -6.7750   20.9290  -32.3500 C   0  0  0  0  0  0  0  0  0  0  0  0
   -7.7630   19.9840  -32.6200 C   0  0  0  0  0  0  0  0  0  0  0  0
   -9.0970   20.3410  -32.3500 C   0  0  0  0  0  0  0  0  0  0  0  0
   -9.4050   21.6130  -31.8150 C   0  0  0  0  0  0  0  0  0  0  0  0
   -8.3810   22.5430  -31.5500 C   0  0  0  0  0  0  0  0  0  0  0  0
   -7.0690   22.1620  -31.8400 C   0  0  0  0  0  0  0  0  0  0  0  0
   -5.7810   24.0850  -29.9730 H   0  0  0  0  0  0  0  0  0  0  0  0
   -4.8139   24.6169  -31.3902 H   0  0  0  0  0  0  0  0  0  0  0  0
   -6.5978   24.8273  -31.3902 H   0  0  0  0  0  0  0  0  0  0  0  0
   -3.1153   22.3983  -33.0824 H   0  0  0  0  0  0  0  0  0  0  0  0
   -3.3196   23.2460  -31.5058 H   0  0  0  0  0  0  0  0  0  0  0  0
   -0.8075   20.7455  -30.6597 H   0  0  0  0  0  0  0  0  0  0  0  0
   -0.8792   21.9979  -31.9660 H   0  0  0  0  0  0  0  0  0  0  0  0
   -0.3236   22.7563  -29.5201 H   0  0  0  0  0  0  0  0  0  0  0  0
   -1.5255   23.6958  -30.4892 H   0  0  0  0  0  0  0  0  0  0  0  0
   -1.7387   24.7304  -25.6594 H   0  0  0  0  0  0  0  0  0  0  0  0
   -0.3215   26.9895  -26.1031 H   0  0  0  0  0  0  0  0  0  0  0  0
   -0.3970   27.4252  -28.7410 H   0  0  0  0  0  0  0  0  0  0  0  0
   -2.1260   20.4717  -28.4961 H   0  0  0  0  0  0  0  0  0  0  0  0
   -3.7289   21.1989  -28.0983 H   0  0  0  0  0  0  0  0  0  0  0  0
   -3.4150   19.5896  -30.2104 H   0  0  0  0  0  0  0  0  0  0  0  0
   -4.5006   21.0638  -30.2522 H   0  0  0  0  0  0  0  0  0  0  0  0
   -4.9170   19.9790  -32.8590 H   0  0  0  0  0  0  0  0  0  0  0  0
   -7.5092   18.9950  -33.0293 H   0  0  0  0  0  0  0  0  0  0  0  0
   -9.9062   19.6252  -32.5567 H   0  0  0  0  0  0  0  0  0  0  0  0
  -10.4516   21.8781  -31.6043 H   0  0  0  0  0  0  0  0  0  0  0  0
   -8.6066   23.5341  -31.1296 H   0  0  0  0  0  0  0  0  0  0  0  0
  1  2  1  0
  2  3  1  0
  3  4  1  0
  4  5  1  0
  5  6  1  0
  6  7  1  0
  7  8  1  0
  8  9  1  0
  9 10  2  0
  9 11  1  0
 11 12  2  0
 12 13  1  0
 13 14  2  0
 14 15  1  0
  8 16  1  0
 16 17  1  0
  3 18  2  0
 18 19  1  0
 19 20  2  0
 20 21  1  0
 21 22  2  0
 22 23  1  0
 23 24  2  0
 24  2  1  0
 17  5  1  0
 24 19  1  0
 15 11  1  0
  1 25  1  0
  1 26  1  0
  1 27  1  0
  4 28  1  0
  4 29  1  0
  6 30  1  0
  6 31  1  0
  7 32  1  0
  7 33  1  0
 12 34  1  0
 13 35  1  0
 14 36  1  0
 16 37  1  0
 16 38  1  0
 17 39  1  0
 17 40  1  0
 18 41  1  0
 20 42  1  0
 21 43  1  0
 22 44  1  0
 23 45  1  0
M  CHG  1  18   1
M  END
>  <UniqueID>  (22) 
22

>  <SMILES>  (22) 
Cn1c(CN2CCN(C(=O)c3ccco3)CC2)[nH+]c2ccccc21

>  <Energy>  (22) 
121.31444264370744

>  <Genealogy>  (22) 
Cn1c(CN2CCN(C(=O)c3ccco3)CC2)[nH+]c2ccccc21 (protonated)
Cn1c(CN2CCN(C(=O)c3ccco3)CC2)[nH+]c2ccccc21 (3D coordinates assigned)
Cn1c(CN2CCN(C(=O)c3ccco3)CC2)[nH+]c2ccccc21 (nonaromatic ring conformer: 121.31444264370744 kcal/mol)

>  <smiles>  (22) 
Cn1c(CN2CCN(C(=O)c3ccco3)CC2)nc2ccccc21

>  <score_type>  (22) 
oracle

>  <origin>  (22) 
adg

>  <m_score__min__energy>  (22) 
-7.6399999999999997

>  <m_primary>  (22) 
energy

$$$$
22:0
     RDKit          3D

 61 64  0  0  0  0  0  0  0  0999 V2000
    1.0900   27.9300  -22.6170 C   0  0  0  0  0  0  0  0  0  0  0  0
    0.3990   27.8100  -23.9040 N   0  0  0  0  0  0  0  0  0  0  0  0
    0.2570   28.9210  -24.6830 C   0  0  0  0  0  0  0  0  0  0  0  0
   -0.3850   28.8420  -25.9200 C   0  0  0  0  0  0  0  0  0  0  0  0
   -0.8870   27.6170  -26.3550 C   0  0  0  0  0  0  0  0  0  0  0  0
   -0.7510   26.4760  -25.5530 C   0  0  0  0  0  0  0  0  0  0  0  0
   -1.2420   25.1960  -26.0020 N   0  0  0  0  0  0  0  0  0  0  0  0
   -2.5330   25.0720  -26.6890 C   0  0  0  0  0  0  0  0  0  0  0  0
   -2.3760   24.2800  -28.0030 C   0  0  0  0  0  0  0  0  0  0  0  0
   -1.1930   23.3780  -28.0060 N   0  0  0  0  0  0  0  0  0  0  0  0
   -1.3520   22.2800  -28.9850 C   0  0  0  0  0  0  0  0  0  0  0  0
   -2.8330   21.8720  -29.1200 C   0  0  0  0  0  0  0  0  0  0  0  0
   -3.2250   21.5800  -30.5130 N   0  0  0  0  0  0  0  0  0  0  0  0
   -4.6720   21.7410  -30.8040 C   0  0  1  0  0  0  0  0  0  0  0  0
   -5.0810   23.2430  -30.8590 C   0  0  0  0  0  0  0  0  0  0  0  0
   -6.6030   23.4730  -30.9340 C   0  0  0  0  0  0  0  0  0  0  0  0
   -7.3330   22.8670  -32.1680 C   0  0  0  0  0  0  0  0  0  0  0  0
   -7.5430   21.3630  -32.1610 C   0  0  0  0  0  0  0  0  0  0  0  0
   -8.8530   20.8490  -32.1900 C   0  0  0  0  0  0  0  0  0  0  0  0
   -9.0760   19.4700  -32.1550 C   0  0  0  0  0  0  0  0  0  0  0  0
   -7.9970   18.5880  -32.0830 C   0  0  0  0  0  0  0  0  0  0  0  0
   -6.6920   19.0810  -32.0420 C   0  0  0  0  0  0  0  0  0  0  0  0
   -6.4520   20.4650  -32.0680 C   0  0  0  0  0  0  0  0  0  0  0  0
   -5.0360   20.9770  -32.1030 C   0  0  0  0  0  0  0  0  0  0  0  0
   -0.9220   22.8370  -26.6610 C   0  0  0  0  0  0  0  0  0  0  0  0
   -0.4680   23.9760  -25.7430 C   0  0  0  0  0  0  0  0  0  0  0  0
   -0.0890   26.6010  -24.3180 C   0  0  0  0  0  0  0  0  0  0  0  0
    0.3656   27.8042  -21.7988 H   0  0  0  0  0  0  0  0  0  0  0  0
    1.8652   27.1530  -22.5432 H   0  0  0  0  0  0  0  0  0  0  0  0
    1.5578   28.9228  -22.5432 H   0  0  0  0  0  0  0  0  0  0  0  0
    0.6515   29.8866  -24.3336 H   0  0  0  0  0  0  0  0  0  0  0  0
   -0.4938   29.7396  -26.5464 H   0  0  0  0  0  0  0  0  0  0  0  0
   -1.3911   27.5455  -27.3301 H   0  0  0  0  0  0  0  0  0  0  0  0
   -3.2424   24.5464  -26.0329 H   0  0  0  0  0  0  0  0  0  0  0  0
   -2.9068   26.0793  -26.9251 H   0  0  0  0  0  0  0  0  0  0  0  0
   -3.2798   23.6716  -28.1546 H   0  0  0  0  0  0  0  0  0  0  0  0
   -2.2305   25.0125  -28.8107 H   0  0  0  0  0  0  0  0  0  0  0  0
   -0.9800   22.6145  -29.9647 H   0  0  0  0  0  0  0  0  0  0  0  0
   -0.7789   21.4098  -28.6326 H   0  0  0  0  0  0  0  0  0  0  0  0
   -3.0059   20.9724  -28.5111 H   0  0  0  0  0  0  0  0  0  0  0  0
   -3.4415   22.7220  -28.7777 H   0  0  0  0  0  0  0  0  0  0  0  0
   -2.9290   20.6000  -30.7340 H   0  0  0  0  0  0  0  0  0  0  0  0
   -2.6760   22.2160  -31.1410 H   0  0  0  0  0  0  0  0  0  0  0  0
   -5.2524   21.2995  -29.9805 H   0  0  0  0  0  0  0  0  0  0  0  0
   -4.6998   23.7392  -29.9543 H   0  0  0  0  0  0  0  0  0  0  0  0
   -4.6493   23.6581  -31.7817 H   0  0  0  0  0  0  0  0  0  0  0  0
   -7.0528   23.0355  -30.0305 H   0  0  0  0  0  0  0  0  0  0  0  0
   -6.7306   24.5619  -31.0238 H   0  0  0  0  0  0  0  0  0  0  0  0
   -8.3227   23.3421  -32.2372 H   0  0  0  0  0  0  0  0  0  0  0  0
   -6.6702   23.0640  -33.0235 H   0  0  0  0  0  0  0  0  0  0  0  0
   -9.7084   21.5387  -32.2406 H   0  0  0  0  0  0  0  0  0  0  0  0
  -10.1038   19.0791  -32.1842 H   0  0  0  0  0  0  0  0  0  0  0  0
   -8.1753   17.5028  -32.0585 H   0  0  0  0  0  0  0  0  0  0  0  0
   -5.8452   18.3809  -31.9889 H   0  0  0  0  0  0  0  0  0  0  0  0
   -4.3510   20.1242  -32.2192 H   0  0  0  0  0  0  0  0  0  0  0  0
   -4.9434   21.6740  -32.9490 H   0  0  0  0  0  0  0  0  0  0  0  0
   -1.8376   22.3809  -26.2564 H   0  0  0  0  0  0  0  0  0  0  0  0
   -0.1324   22.0736  -26.7215 H   0  0  0  0  0  0  0  0  0  0  0  0
   -0.6119   23.6735  -24.6952 H   0  0  0  0  0  0  0  0  0  0  0  0
    0.5940   24.1845  -25.9396 H   0  0  0  0  0  0  0  0  0  0  0  0
    0.0378   25.7158  -23.6775 H   0  0  0  0  0  0  0  0  0  0  0  0
  1  2  1  0
  2  3  2  0
  3  4  1  0
  4  5  2  0
  5  6  1  0
  6  7  1  0
  7  8  1  0
  8  9  1  0
  9 10  1  0
 10 11  1  0
 11 12  1  0
 12 13  1  0
 13 14  1  0
 14 15  1  0
 15 16  1  0
 16 17  1  0
 17 18  1  0
 18 19  2  0
 19 20  1  0
 20 21  2  0
 21 22  1  0
 22 23  2  0
 23 24  1  0
 10 25  1  0
 25 26  1  0
  6 27  2  0
 27  2  1  0
 26  7  1  0
 24 14  1  0
 23 18  1  0
  1 28  1  0
  1 29  1  0
  1 30  1  0
  3 31  1  0
  4 32  1  0
  5 33  1  0
  8 34  1  0
  8 35  1  0
  9 36  1  0
  9 37  1  0
 11 38  1  0
 11 39  1  0
 12 40  1  0
 12 41  1  0
 13 42  1  0
 13 43  1  0
 14 44  1  1
 15 45  1  0
 15 46  1  0
 16 47  1  0
 16 48  1  0
 17 49  1  0
 17 50  1  0
 19 51  1  0
 20 52  1  0
 21 53  1  0
 22 54  1  0
 24 55  1  0
 24 56  1  0
 25 57  1  0
 25 58  1  0
 26 59  1  0
 26 60  1  0
 27 61  1  0
M  CHG  2   2   1  13   1
M  END
>  <UniqueID>  (23) 
23

>  <SMILES>  (23) 
C[n+]1cccc(N2CCN(CC[NH2+][C@H]3CCCc4ccccc4C3)CC2)c1

>  <Energy>  (23) 
83.74218270764582

>  <Genealogy>  (23) 
C[n+]1cccc(N2CCN(CC[NH2+]C3CCCc4ccccc4C3)CC2)c1 (protonated)
C[n+]1cccc(N2CCN(CC[NH2+][C@H]3CCCc4ccccc4C3)CC2)c1 (chirality)
C[n+]1cccc(N2CCN(CC[NH2+][C@H]3CCCc4ccccc4C3)CC2)c1 (3D coordinates assigned)
C[n+]1cccc(N2CCN(CC[NH2+][C@H]3CCCc4ccccc4C3)CC2)c1 (nonaromatic ring conformer: 83.74218270764582 kcal/mol)

>  <smiles>  (23) 
C[n+]1cccc(N2CCN(CCNC3CCCc4ccccc4C3)CC2)c1

>  <score_type>  (23) 
oracle

>  <origin>  (23) 
adg

>  <m_score__min__energy>  (23) 
-5.4500000000000002

>  <m_primary>  (23) 
energy

$$$$
23:0
     RDKit          3D

 76 78  0  0  0  0  0  0  0  0999 V2000
   -0.8600   27.9100  -34.5960 C   0  0  0  0  0  0  0  0  0  0  0  0
   -1.3380   28.5500  -35.8970 C   0  0  0  0  0  0  0  0  0  0  0  0
   -0.8360   27.8080  -37.0770 N   0  0  0  0  0  0  0  0  0  0  0  0
   -1.9370   27.5270  -38.0220 C   0  0  0  0  0  0  0  0  0  0  0  0
   -0.1760   26.5490  -36.6640 C   0  0  0  0  0  0  0  0  0  0  0  0
    0.5580   25.9030  -37.8490 C   0  0  0  0  0  0  0  0  0  0  0  0
    1.4140   24.8720  -37.3950 O   0  0  0  0  0  0  0  0  0  0  0  0
    1.0410   24.4530  -36.1000 C   0  0  0  0  0  0  0  0  0  0  0  0
    0.6530   22.9690  -36.1210 C   0  0  0  0  0  0  0  0  0  0  0  0
    0.8790   22.3150  -34.8870 O   0  0  0  0  0  0  0  0  0  0  0  0
    0.0630   21.1660  -34.7470 C   0  0  0  0  0  0  0  0  0  0  0  0
   -1.1720   21.5250  -33.9140 C   0  0  0  0  0  0  0  0  0  0  0  0
   -1.6150   20.3760  -33.0970 N   0  0  0  0  0  0  0  0  0  0  0  0
   -3.0200   20.4920  -32.7370 C   0  0  0  0  0  0  0  0  0  0  0  0
   -3.4150   21.4780  -31.7850 C   0  0  0  0  0  0  0  0  0  0  0  0
   -2.4660   22.2280  -31.0400 C   0  0  0  0  0  0  0  0  0  0  0  0
   -2.8700   23.1320  -30.0570 C   0  0  0  0  0  0  0  0  0  0  0  0
   -4.2150   23.2910  -29.7730 C   0  0  0  0  0  0  0  0  0  0  0  0
   -5.1670   22.5830  -30.5010 C   0  0  0  0  0  0  0  0  0  0  0  0
   -4.7920   21.7160  -31.5540 C   0  0  0  0  0  0  0  0  0  0  0  0
   -5.7380   21.1100  -32.3540 N   0  0  0  0  0  0  0  0  0  0  0  0
   -7.1200   21.6450  -32.3980 C   0  0  0  0  0  0  0  0  0  0  0  0
   -5.3970   20.0130  -33.1190 C   0  0  0  0  0  0  0  0  0  0  0  0
   -6.4080   19.2090  -33.7020 C   0  0  0  0  0  0  0  0  0  0  0  0
   -6.0960   18.0860  -34.4420 C   0  0  0  0  0  0  0  0  0  0  0  0
   -4.7830   17.7020  -34.6090 C   0  0  0  0  0  0  0  0  0  0  0  0
   -3.7350   18.4570  -34.0600 C   0  0  0  0  0  0  0  0  0  0  0  0
   -2.4140   17.9980  -34.2100 O   0  0  0  0  0  0  0  0  0  0  0  0
   -1.8870   16.7530  -33.7460 C   0  0  0  0  0  0  0  0  0  0  0  0
   -1.2110   16.9400  -32.3700 C   0  0  0  0  0  0  0  0  0  0  0  0
   -0.4160   18.1810  -32.2500 N   0  0  0  0  0  0  0  0  0  0  0  0
   -0.0890   18.5160  -30.8570 C   0  0  0  0  0  0  0  0  0  0  0  0
    0.7870   18.1750  -33.0950 C   0  0  0  0  0  0  0  0  0  0  0  0
   -4.0280   19.6500  -33.3130 C   0  0  0  0  0  0  0  0  0  0  0  0
   -1.2741   28.4644  -33.7409 H   0  0  0  0  0  0  0  0  0  0  0  0
   -1.2004   26.8648  -34.5549 H   0  0  0  0  0  0  0  0  0  0  0  0
    0.2388   27.9397  -34.5549 H   0  0  0  0  0  0  0  0  0  0  0  0
   -2.4379   28.5489  -35.9141 H   0  0  0  0  0  0  0  0  0  0  0  0
   -0.9496   29.5782  -35.9418 H   0  0  0  0  0  0  0  0  0  0  0  0
   -2.8527   27.2933  -37.4591 H   0  0  0  0  0  0  0  0  0  0  0  0
   -2.1110   28.4095  -38.6551 H   0  0  0  0  0  0  0  0  0  0  0  0
   -1.6668   26.6690  -38.6551 H   0  0  0  0  0  0  0  0  0  0  0  0
    0.5492   26.7670  -35.8662 H   0  0  0  0  0  0  0  0  0  0  0  0
   -0.9448   25.8503  -36.3025 H   0  0  0  0  0  0  0  0  0  0  0  0
   -0.1805   25.4805  -38.5462 H   0  0  0  0  0  0  0  0  0  0  0  0
    1.1609   26.6702  -38.3569 H   0  0  0  0  0  0  0  0  0  0  0  0
    1.8869   24.5988  -35.4121 H   0  0  0  0  0  0  0  0  0  0  0  0
    0.1791   25.0472  -35.7621 H   0  0  0  0  0  0  0  0  0  0  0  0
   -0.4163   22.8909  -36.3671 H   0  0  0  0  0  0  0  0  0  0  0  0
    1.2877   22.4764  -36.8724 H   0  0  0  0  0  0  0  0  0  0  0  0
   -0.2525   20.8152  -35.7407 H   0  0  0  0  0  0  0  0  0  0  0  0
    0.6297   20.3687  -34.2439 H   0  0  0  0  0  0  0  0  0  0  0  0
   -0.9246   22.3650  -33.2483 H   0  0  0  0  0  0  0  0  0  0  0  0
   -1.9871   21.8016  -34.5989 H   0  0  0  0  0  0  0  0  0  0  0  0
   -1.0170   20.2530  -32.2560 H   0  0  0  0  0  0  0  0  0  0  0  0
   -1.4560   19.4830  -33.6130 H   0  0  0  0  0  0  0  0  0  0  0  0
   -1.3931   22.0936  -31.2418 H   0  0  0  0  0  0  0  0  0  0  0  0
   -2.1190   23.7186  -29.5075 H   0  0  0  0  0  0  0  0  0  0  0  0
   -4.5315   23.9762  -28.9728 H   0  0  0  0  0  0  0  0  0  0  0  0
   -6.2322   22.7000  -30.2525 H   0  0  0  0  0  0  0  0  0  0  0  0
   -7.4905   21.7884  -31.3722 H   0  0  0  0  0  0  0  0  0  0  0  0
   -7.1232   22.6093  -32.9272 H   0  0  0  0  0  0  0  0  0  0  0  0
   -7.7717   20.9342  -32.9272 H   0  0  0  0  0  0  0  0  0  0  0  0
   -7.4634   19.4855  -33.5620 H   0  0  0  0  0  0  0  0  0  0  0  0
   -6.9010   17.4936  -34.9015 H   0  0  0  0  0  0  0  0  0  0  0  0
   -4.5531   16.7908  -35.1807 H   0  0  0  0  0  0  0  0  0  0  0  0
   -2.7055   16.0241  -33.6527 H   0  0  0  0  0  0  0  0  0  0  0  0
   -1.1400   16.3885  -34.4665 H   0  0  0  0  0  0  0  0  0  0  0  0
   -1.9957   16.9569  -31.5994 H   0  0  0  0  0  0  0  0  0  0  0  0
   -0.5099   16.1016  -32.2452 H   0  0  0  0  0  0  0  0  0  0  0  0
   -0.6941   17.8961  -30.1791 H   0  0  0  0  0  0  0  0  0  0  0  0
    0.9786   18.3240  -30.6746 H   0  0  0  0  0  0  0  0  0  0  0  0
   -0.3068   19.5787  -30.6746 H   0  0  0  0  0  0  0  0  0  0  0  0
    1.6831   18.1705  -32.4571 H   0  0  0  0  0  0  0  0  0  0  0  0
    0.7845   17.2769  -33.7301 H   0  0  0  0  0  0  0  0  0  0  0  0
    0.7935   19.0731  -33.7301 H   0  0  0  0  0  0  0  0  0  0  0  0
  1  2  1  0
  2  3  1  0
  3  4  1  0
  3  5  1  0
  5  6  1  0
  6  7  1  0
  7  8  1  0
  8  9  1  0
  9 10  1  0
 10 11  1  0
 11 12  1  0
 12 13  1  0
 13 14  1  0
 14 15  2  0
 15 16  1  0
 16 17  2  0
 17 18  1  0
 18 19  2  0
 19 20  1  0
 20 21  2  0
 21 22  1  0
 21 23  1  0
 23 24  2  0
 24 25  1  0
 25 26  2  0
 26 27  1  0
 27 28  1  0
 28 29  1  0
 29 30  1  0
 30 31  1  0
 31 32  1  0
 31 33  1  0
 27 34  2  0
 34 14  1  0
 20 15  1  0
 34 23  1  0
  1 35  1  0
  1 36  1  0
  1 37  1  0
  2 38  1  0
  2 39  1  0
  4 40  1  0
  4 41  1  0
  4 42  1  0
  5 43  1  0
  5 44  1  0
  6 45  1  0
  6 46  1  0
  8 47  1  0
  8 48  1  0
  9 49  1  0
  9 50  1  0
 11 51  1  0
 11 52  1  0
 12 53  1  0
 12 54  1  0
 13 55  1  0
 13 56  1  0
 16 57  1  0
 17 58  1  0
 18 59  1  0
 19 60  1  0
 22 61  1  0
 22 62  1  0
 22 63  1  0
 24 64  1  0
 25 65  1  0
 26 66  1  0
 29 67  1  0
 29 68  1  0
 30 69  1  0
 30 70  1  0
 32 71  1  0
 32 72  1  0
 32 73  1  0
 33 74  1  0
 33 75  1  0
 33 76  1  0
M  CHG  2  13   1  21   1
M  END
>  <UniqueID>  (24) 
24

>  <SMILES>  (24) 
CCN(C)CCOCCOCC[NH2+]c1c2ccccc2[n+](C)c2cccc(OCCN(C)C)c12

>  <Energy>  (24) 
114.34546367849305

>  <Genealogy>  (24) 
CCN(C)CCOCCOCC[NH2+]c1c2ccccc2[n+](C)c2cccc(OCCN(C)C)c12 (protonated)
CCN(C)CCOCCOCC[NH2+]c1c2ccccc2[n+](C)c2cccc(OCCN(C)C)c12 (3D coordinates assigned)
CCN(C)CCOCCOCC[NH2+]c1c2ccccc2[n+](C)c2cccc(OCCN(C)C)c12 (optimized conformer: 114.34546367849305 kcal/mol)

>  <smiles>  (24) 
CCN(C)CCOCCOCCNc1c2ccccc2[n+](C)c2cccc(OCCN(C)C)c12

>  <score_type>  (24) 
oracle

>  <origin>  (24) 
adg

>  <m_score__min__energy>  (24) 
-7.3799999999999999

>  <m_primary>  (24) 
energy

$$$$
24:0
     RDKit          3D

 40 42  0  0  0  0  0  0  0  0999 V2000
   -0.4950   21.1480  -34.0910 C   0  0  0  0  0  0  0  0  0  0  0  0
   -1.6300   20.5810  -33.2400 C   0  0  0  0  0  0  0  0  0  0  0  0
   -2.8540   21.3800  -33.4000 N   0  0  0  0  0  0  0  0  0  0  0  0
   -4.0360   20.5070  -33.4610 C   0  0  0  0  0  0  0  0  0  0  0  0
   -4.6270   20.2930  -32.0630 C   0  0  0  0  0  0  0  0  0  0  0  0
   -5.6670   21.2930  -31.7930 N   0  0  0  0  0  0  0  0  0  0  0  0
   -7.0090   21.1190  -31.9210 C   0  0  0  0  0  0  0  0  0  0  0  0
   -7.6990   19.9780  -32.3440 C   0  0  0  0  0  0  0  0  0  0  0  0
   -9.1030   20.0450  -32.3790 C   0  0  0  0  0  0  0  0  0  0  0  0
   -9.7560   21.1880  -32.0020 N   0  0  0  0  0  0  0  0  0  0  0  0
   -9.0850   22.2980  -31.5800 C   0  0  0  0  0  0  0  0  0  0  0  0
   -7.6950   22.2490  -31.5430 C   0  0  0  0  0  0  0  0  0  0  0  0
   -6.7520   23.1670  -31.1460 C   0  0  0  0  0  0  0  0  0  0  0  0
   -6.8930   24.4580  -30.6490 C   0  0  0  0  0  0  0  0  0  0  0  0
   -5.7280   25.1510  -30.2910 C   0  0  0  0  0  0  0  0  0  0  0  0
   -4.4620   24.5450  -30.4260 C   0  0  0  0  0  0  0  0  0  0  0  0
   -4.3360   23.2250  -30.9280 C   0  0  0  0  0  0  0  0  0  0  0  0
   -3.0920   22.5920  -31.0510 O   0  0  0  0  0  0  0  0  0  0  0  0
   -2.3070   22.1340  -29.9570 C   0  0  0  0  0  0  0  0  0  0  0  0
   -5.5190   22.5540  -31.2970 C   0  0  0  0  0  0  0  0  0  0  0  0
    0.2942   21.5423  -33.4340 H   0  0  0  0  0  0  0  0  0  0  0  0
   -0.0796   20.3515  -34.7259 H   0  0  0  0  0  0  0  0  0  0  0  0
   -0.8824   21.9585  -34.7259 H   0  0  0  0  0  0  0  0  0  0  0  0
   -1.8320   19.5458  -33.5523 H   0  0  0  0  0  0  0  0  0  0  0  0
   -1.3261   20.6106  -32.1832 H   0  0  0  0  0  0  0  0  0  0  0  0
   -2.7900   21.9350  -34.2850 H   0  0  0  0  0  0  0  0  0  0  0  0
   -2.9490   22.0310  -32.5850 H   0  0  0  0  0  0  0  0  0  0  0  0
   -4.7955   20.9727  -34.1062 H   0  0  0  0  0  0  0  0  0  0  0  0
   -3.7332   19.5314  -33.8690 H   0  0  0  0  0  0  0  0  0  0  0  0
   -5.0670   19.2865  -32.0049 H   0  0  0  0  0  0  0  0  0  0  0  0
   -3.8267   20.3971  -31.3156 H   0  0  0  0  0  0  0  0  0  0  0  0
   -7.1636   19.0632  -32.6380 H   0  0  0  0  0  0  0  0  0  0  0  0
   -9.6821   19.1712  -32.7123 H   0  0  0  0  0  0  0  0  0  0  0  0
   -9.6273   23.2060  -31.2776 H   0  0  0  0  0  0  0  0  0  0  0  0
   -7.8853   24.9201  -30.5404 H   0  0  0  0  0  0  0  0  0  0  0  0
   -5.8023   26.1769  -29.9012 H   0  0  0  0  0  0  0  0  0  0  0  0
   -3.5596   25.1041  -30.1378 H   0  0  0  0  0  0  0  0  0  0  0  0
   -2.7937   22.4179  -29.0123 H   0  0  0  0  0  0  0  0  0  0  0  0
   -2.2127   21.0392  -30.0063 H   0  0  0  0  0  0  0  0  0  0  0  0
   -1.3075   22.5907  -30.0063 H   0  0  0  0  0  0  0  0  0  0  0  0
  1  2  1  0
  2  3  1  0
  3  4  1  0
  4  5  1  0
  5  6  1  0
  6  7  1  0
  7  8  2  0
  8  9  1  0
  9 10  2  0
 10 11  1  0
 11 12  2  0
 12 13  1  0
 13 14  2  0
 14 15  1  0
 15 16  2  0
 16 17  1  0
 17 18  1  0
 18 19  1  0
 17 20  2  0
 20  6  1  0
 12  7  1  0
 20 13  1  0
  1 21  1  0
  1 22  1  0
  1 23  1  0
  2 24  1  0
  2 25  1  0
  3 26  1  0
  3 27  1  0
  4 28  1  0
  4 29  1  0
  5 30  1  0
  5 31  1  0
  8 32  1  0
  9 33  1  0
 11 34  1  0
 14 35  1  0
 15 36  1  0
 16 37  1  0
 19 38  1  0
 19 39  1  0
 19 40  1  0
M  CHG  1   3   1
M  END
>  <UniqueID>  (25) 
25

>  <SMILES>  (25) 
CC[NH2+]CCn1c2ccncc2c2cccc(OC)c21

>  <Energy>  (25) 
79.22348023578877

>  <Genealogy>  (25) 
CC[NH2+]CCn1c2ccncc2c2cccc(OC)c21 (protonated)
CC[NH2+]CCn1c2ccncc2c2cccc(OC)c21 (3D coordinates assigned)
CC[NH2+]CCn1c2ccncc2c2cccc(OC)c21 (optimized conformer: 79.22348023578877 kcal/mol)

>  <smiles>  (25) 
CCNCCn1c2ccncc2c2cccc(OC)c21

>  <score_type>  (25) 
oracle

>  <origin>  (25) 
adg

>  <m_score__min__energy>  (25) 
-6.2300000000000004

>  <m_primary>  (25) 
energy

$$$$
