0:0
     RDKit          3D

 41 44  0  0  0  0  0  0  0  0999 V2000
   -1.4925   19.2656  -27.9157 H   0  0  0  0  0  0  0  0  0  0  0  0
   -1.5920   20.3520  -28.0570 C   0  0  0  0  0  0  0  0  0  0  0  0
   -2.7080   21.0220  -27.5520 C   0  0  0  0  0  0  0  0  0  0  0  0
   -3.4906   20.4617  -27.0196 H   0  0  0  0  0  0  0  0  0  0  0  0
   -2.8320   22.4030  -27.7220 C   0  0  0  0  0  0  0  0  0  0  0  0
   -3.7221   22.9232  -27.3385 H   0  0  0  0  0  0  0  0  0  0  0  0
   -1.8250   23.1330  -28.3810 C   0  0  0  0  0  0  0  0  0  0  0  0
   -1.9620   24.6190  -28.6160 C   0  0  0  0  0  0  0  0  0  0  0  0
   -0.9753   25.0290  -28.8774 H   0  0  0  0  0  0  0  0  0  0  0  0
   -2.3517   25.0728  -27.6929 H   0  0  0  0  0  0  0  0  0  0  0  0
   -2.8990   24.9220  -29.6960 N   0  0  0  0  0  0  0  0  0  0  0  0
   -3.6930   24.1660  -30.4070 C   0  0  0  0  0  0  0  0  0  0  0  0
   -3.1100   23.1870  -31.1490 N   0  0  0  0  0  0  0  0  0  0  0  0
   -3.8180   22.2990  -31.8980 C   0  0  0  0  0  0  0  0  0  0  0  0
   -3.1400   21.3200  -32.6280 C   0  0  0  0  0  0  0  0  0  0  0  0
   -2.0412   21.2777  -32.6004 H   0  0  0  0  0  0  0  0  0  0  0  0
   -3.8520   20.3970  -33.3910 C   0  0  0  0  0  0  0  0  0  0  0  0
   -3.3102   19.6306  -33.9647 H   0  0  0  0  0  0  0  0  0  0  0  0
   -5.2480   20.4360  -33.4340 C   0  0  0  0  0  0  0  0  0  0  0  0
   -5.9110   19.4780  -34.2170 O   0  0  0  0  0  0  0  0  0  0  0  0
   -6.1100   18.1210  -33.8360 C   0  0  0  0  0  0  0  0  0  0  0  0
   -6.1210   18.0461  -32.7386 H   0  0  0  0  0  0  0  0  0  0  0  0
   -7.0700   17.7644  -34.2375 H   0  0  0  0  0  0  0  0  0  0  0  0
   -5.2928   17.5038  -34.2375 H   0  0  0  0  0  0  0  0  0  0  0  0
   -5.9380   21.4230  -32.7010 C   0  0  0  0  0  0  0  0  0  0  0  0
   -7.0371   21.4558  -32.7323 H   0  0  0  0  0  0  0  0  0  0  0  0
   -5.2320   22.3700  -31.9270 C   0  0  0  0  0  0  0  0  0  0  0  0
   -5.8240   23.3700  -31.1930 N   0  0  0  0  0  0  0  0  0  0  0  0
   -7.1120   23.7770  -31.0060 C   0  0  0  0  0  0  0  0  0  0  0  0
   -8.3530   23.1810  -31.5900 C   0  0  0  0  0  0  0  0  0  0  0  0
   -9.0224   22.8595  -30.7784 H   0  0  0  0  0  0  0  0  0  0  0  0
   -8.8636   23.9322  -32.2106 H   0  0  0  0  0  0  0  0  0  0  0  0
   -8.0859   22.3129  -32.2106 H   0  0  0  0  0  0  0  0  0  0  0  0
   -7.1650   24.8600  -30.2070 N   0  0  0  0  0  0  0  0  0  0  0  0
   -5.9220   25.1540  -29.8690 N   0  0  0  0  0  0  0  0  0  0  0  0
   -5.6940   25.9750  -29.2810 H   0  0  0  0  0  0  0  0  0  0  0  0
   -5.1080   24.2530  -30.4560 C   0  0  0  0  0  0  0  0  0  0  0  0
   -0.7220   22.4430  -28.9140 C   0  0  0  0  0  0  0  0  0  0  0  0
    0.0507   22.9942  -29.4699 H   0  0  0  0  0  0  0  0  0  0  0  0
   -0.6010   21.0610  -28.7420 C   0  0  0  0  0  0  0  0  0  0  0  0
    0.2744   20.5313  -29.1458 H   0  0  0  0  0  0  0  0  0  0  0  0
  1  2  1  0
  2  3  2  0
  3  4  1  0
  3  5  1  0
  5  6  1  0
  5  7  2  0
  7  8  1  0
  8  9  1  0
  8 10  1  0
  8 11  1  0
 11 12  2  0
 12 13  1  0
 13 14  1  0
 14 15  2  0
 15 16  1  0
 15 17  1  0
 17 18  1  0
 17 19  2  0
 19 20  1  0
 20 21  1  0
 21 22  1  0
 21 23  1  0
 21 24  1  0
 19 25  1  0
 25 26  1  0
 25 27  2  0
 27 28  1  0
 28 29  1  0
 29 30  1  0
 30 31  1  0
 30 32  1  0
 30 33  1  0
 29 34  2  0
 34 35  1  0
 35 36  1  0
 35 37  2  0
  7 38  1  0
 38 39  1  0
 38 40  2  0
 40 41  1  0
 40  2  1  0
 37 12  1  0
 27 14  1  0
 37 28  1  0
M  CHG  2  13  -1  35   1
M  END
>  <UniqueID>  (1) 
1

>  <SMILES>  (1) 
COc1ccc2[n-]/c(=N/Cc3ccccc3)c3[nH+]nc(C)n3c2c1

>  <Energy>  (1) 
104.17891457020626

>  <Genealogy>  (1) 
COc1ccc2[n-]c(=NCc3ccccc3)c3[nH+]nc(C)n3c2c1 (protonated)
COc1ccc2[n-]/c(=N/Cc3ccccc3)c3[nH+]nc(C)n3c2c1 (cis-trans isomerization)
COc1ccc2[n-]/c(=N/Cc3ccccc3)c3[nH+]nc(C)n3c2c1 (3D coordinates assigned)
COc1ccc2[n-]/c(=N/Cc3ccccc3)c3[nH+]nc(C)n3c2c1 (optimized conformer: 104.17891457020626 kcal/mol)

>  <smiles>  (1) 
COc1ccc2[nH]c(=NCc3ccccc3)c3nnc(C)n3c2c1

>  <score_type>  (1) 
oracle

>  <origin>  (1) 
adg

>  <m_score__min__energy>  (1) 
-8.6600000000000001

>  <m_primary>  (1) 
energy

$$$$
1:0
     RDKit          3D

 36 38  0  0  1  0  0  0  0  0999 V2000
   -9.1100   23.1410  -31.9730 C   0  0  0  0  0  0  0  0  0  0  0  0
   -7.8570   23.7670  -31.8190 N   0  0  0  0  0  0  0  0  0  0  0  0
   -6.7780   23.0730  -31.7700 C   0  0  0  0  0  0  0  0  0  0  0  0
   -6.9100   21.7970  -32.2260 N   0  0  0  0  0  0  0  0  0  0  0  0
   -5.8540   20.9830  -32.2150 C   0  0  0  0  0  0  0  0  0  0  0  0
   -6.0720   19.6200  -32.7240 C   0  0  0  0  0  0  0  0  0  0  0  0
   -6.9110   18.7250  -32.0640 C   0  0  0  0  0  0  0  0  0  0  0  0
   -7.1320   17.4430  -32.5200 C   0  0  0  0  0  0  0  0  0  0  0  0
   -6.5130   16.9960  -33.6680 C   0  0  0  0  0  0  0  0  0  0  0  0
   -6.7090   15.6250  -34.2130 C   0  0  0  0  0  0  0  0  0  0  0  0
   -5.6760   17.8550  -34.3450 C   0  0  0  0  0  0  0  0  0  0  0  0
   -5.4670   19.1480  -33.8670 C   0  0  0  0  0  0  0  0  0  0  0  0
   -4.6620   21.4000  -31.7610 N   0  0  0  0  0  0  0  0  0  0  0  0
   -4.5150   22.6570  -31.3070 C   0  0  0  0  0  0  0  0  0  0  0  0
   -5.5790   23.5670  -31.2890 C   0  0  0  0  0  0  0  0  0  0  0  0
   -5.4640   24.9420  -30.8040 C   0  0  0  0  0  0  0  0  0  0  0  0
   -4.0330   25.1250  -30.7770 O   0  0  0  0  0  0  0  0  0  0  0  0
   -3.4670   24.2150  -29.8950 C   0  0  0  0  0  0  0  0  0  0  0  0
   -3.1540   23.0230  -30.8150 C   0  0  0  0  0  0  0  0  0  0  0  0
   -9.5374   22.9275  -30.9822 H   0  0  0  0  0  0  0  0  0  0  0  0
   -9.7868   23.8069  -32.5285 H   0  0  0  0  0  0  0  0  0  0  0  0
   -8.9839   22.2000  -32.5285 H   0  0  0  0  0  0  0  0  0  0  0  0
   -7.4164   19.0538  -31.1440 H   0  0  0  0  0  0  0  0  0  0  0  0
   -7.8056   16.7733  -31.9652 H   0  0  0  0  0  0  0  0  0  0  0  0
   -6.8110   14.9113  -33.3822 H   0  0  0  0  0  0  0  0  0  0  0  0
   -7.6195   15.6023  -34.8298 H   0  0  0  0  0  0  0  0  0  0  0  0
   -5.8413   15.3481  -34.8298 H   0  0  0  0  0  0  0  0  0  0  0  0
   -5.1719   17.5207  -35.2637 H   0  0  0  0  0  0  0  0  0  0  0  0
   -4.7935   19.8159  -34.4240 H   0  0  0  0  0  0  0  0  0  0  0  0
   -3.8410   20.7570  -31.7560 H   0  0  0  0  0  0  0  0  0  0  0  0
   -5.9459   25.6516  -31.4927 H   0  0  0  0  0  0  0  0  0  0  0  0
   -5.9543   25.1157  -29.8348 H   0  0  0  0  0  0  0  0  0  0  0  0
   -2.5508   24.6184  -29.4391 H   0  0  0  0  0  0  0  0  0  0  0  0
   -4.1183   23.9588  -29.0463 H   0  0  0  0  0  0  0  0  0  0  0  0
   -2.4937   23.3183  -31.6438 H   0  0  0  0  0  0  0  0  0  0  0  0
   -2.6229   22.1996  -30.3150 H   0  0  0  0  0  0  0  0  0  0  0  0
  1  2  1  0
  2  3  2  0
  3  4  1  0
  4  5  2  0
  5  6  1  0
  6  7  2  0
  7  8  1  0
  8  9  2  0
  9 10  1  0
  9 11  1  0
 11 12  2  0
  5 13  1  0
 13 14  1  0
 14 15  2  0
 15 16  1  0
 16 17  1  0
 17 18  1  0
 18 19  1  0
 15  3  1  0
 12  6  1  0
 19 14  1  0
  1 20  1  0
  1 21  1  0
  1 22  1  0
  7 23  1  0
  8 24  1  0
 10 25  1  0
 10 26  1  0
 10 27  1  0
 11 28  1  0
 12 29  1  0
 13 30  1  0
 16 31  1  0
 16 32  1  0
 18 33  1  0
 18 34  1  0
 19 35  1  0
 19 36  1  0
M  END
>  <smiles>  (2) 
CN=c1nc(-c2ccc(C)cc2)[nH]c2c1COCC2

>  <score_type>  (2) 
oracle

>  <origin>  (2) 
adg

>  <m_score__min__energy>  (2) 
-7.7300000000000004

>  <m_primary>  (2) 
energy

$$$$
2:0
     RDKit          3D

 40 41  0  0  0  0  0  0  0  0999 V2000
   -5.9990   19.1480  -33.4110 C   0  0  0  0  0  0  0  0  0  0  0  0
   -6.9240   20.3520  -33.5550 C   0  0  0  0  0  0  0  0  0  0  0  0
   -7.6250   20.6280  -32.2900 N   0  0  0  0  0  0  0  0  0  0  0  0
   -8.7780   19.7830  -31.9310 C   0  0  0  0  0  0  0  0  0  0  0  0
   -8.3320   18.3640  -31.5830 C   0  0  0  0  0  0  0  0  0  0  0  0
   -7.2280   21.7060  -31.4060 C   0  0  0  0  0  0  0  0  0  0  0  0
   -7.9100   21.9410  -30.3700 O   0  0  0  0  0  0  0  0  0  0  0  0
   -5.9890   22.5370  -31.6430 C   0  0  1  0  0  0  0  0  0  0  0  0
   -4.6890   21.7970  -31.8680 C   0  0  0  0  0  0  0  0  0  0  0  0
   -4.0700   21.0660  -30.8360 C   0  0  0  0  0  0  0  0  0  0  0  0
   -2.8510   20.4210  -31.0620 C   0  0  0  0  0  0  0  0  0  0  0  0
   -2.2350   20.5070  -32.3130 C   0  0  0  0  0  0  0  0  0  0  0  0
   -2.8320   21.2450  -33.3370 C   0  0  0  0  0  0  0  0  0  0  0  0
   -4.0500   21.8930  -33.1150 C   0  0  0  0  0  0  0  0  0  0  0  0
   -6.1990   23.9040  -32.3110 C   0  0  0  0  0  0  0  0  0  0  0  0
   -5.9230   23.8370  -30.8110 C   0  0  2  0  0  0  0  0  0  0  0  0
   -4.5500   24.3210  -30.2810 C   0  0  0  0  0  0  0  0  0  0  0  0
   -4.1490   25.6350  -30.7830 N   0  0  0  0  0  0  0  0  0  0  0  0
   -5.8363   18.9362  -32.3439 H   0  0  0  0  0  0  0  0  0  0  0  0
   -6.4590   18.2725  -33.8926 H   0  0  0  0  0  0  0  0  0  0  0  0
   -5.0346   19.3669  -33.8926 H   0  0  0  0  0  0  0  0  0  0  0  0
   -6.3281   21.2327  -33.8365 H   0  0  0  0  0  0  0  0  0  0  0  0
   -7.6716   20.1310  -34.3310 H   0  0  0  0  0  0  0  0  0  0  0  0
   -9.2888   20.2225  -31.0616 H   0  0  0  0  0  0  0  0  0  0  0  0
   -9.4578   19.7340  -32.7944 H   0  0  0  0  0  0  0  0  0  0  0  0
   -8.2958   18.2488  -30.4896 H   0  0  0  0  0  0  0  0  0  0  0  0
   -9.0463   17.6414  -32.0044 H   0  0  0  0  0  0  0  0  0  0  0  0
   -7.3327   18.1800  -32.0044 H   0  0  0  0  0  0  0  0  0  0  0  0
   -4.5481   21.0023  -29.8474 H   0  0  0  0  0  0  0  0  0  0  0  0
   -2.3761   19.8450  -30.2541 H   0  0  0  0  0  0  0  0  0  0  0  0
   -1.2790   19.9930  -32.4914 H   0  0  0  0  0  0  0  0  0  0  0  0
   -2.3429   21.3164  -34.3197 H   0  0  0  0  0  0  0  0  0  0  0  0
   -4.5111   22.4818  -33.9217 H   0  0  0  0  0  0  0  0  0  0  0  0
   -5.4338   24.3049  -32.9920 H   0  0  0  0  0  0  0  0  0  0  0  0
   -6.9894   24.3483  -32.9338 H   0  0  0  0  0  0  0  0  0  0  0  0
   -6.4303   24.2085  -29.9084 H   0  0  0  0  0  0  0  0  0  0  0  0
   -4.6008   24.3707  -29.1833 H   0  0  0  0  0  0  0  0  0  0  0  0
   -3.7989   23.6008  -30.6377 H   0  0  0  0  0  0  0  0  0  0  0  0
   -4.4530   25.7040  -31.7800 H   0  0  0  0  0  0  0  0  0  0  0  0
   -3.1030   25.6730  -30.7940 H   0  0  0  0  0  0  0  0  0  0  0  0
  1  2  1  0
  2  3  1  0
  3  4  1  0
  4  5  1  0
  3  6  1  0
  6  7  2  0
  8  6  1  1
  8  9  1  0
  9 10  2  0
 10 11  1  0
 11 12  2  0
 12 13  1  0
 13 14  2  0
  8 15  1  0
 15 16  1  0
 16 17  1  0
 17 18  1  0
 16  8  1  0
 14  9  1  0
  1 19  1  0
  1 20  1  0
  1 21  1  0
  2 22  1  0
  2 23  1  0
  4 24  1  0
  4 25  1  0
  5 26  1  0
  5 27  1  0
  5 28  1  0
 10 29  1  0
 11 30  1  0
 12 31  1  0
 13 32  1  0
 14 33  1  0
 15 34  1  0
 15 35  1  0
 16 36  1  1
 17 37  1  0
 17 38  1  0
 18 39  1  0
 18 40  1  0
M  END
>  <UniqueID>  (3) 
2

>  <SMILES>  (3) 
CCN(CC)C(=O)[C@@]1(c2ccccc2)C[C@@H]1CN

>  <Energy>  (3) 
304.00213897668647

>  <Genealogy>  (3) 
CCN(CC)C(=O)[C@@]1(c2ccccc2)C[C@@H]1CN (chirality)
CCN(CC)C(=O)[C@@]1(c2ccccc2)C[C@@H]1CN (3D coordinates assigned)
CCN(CC)C(=O)[C@@]1(c2ccccc2)C[C@@H]1CN (nonaromatic ring conformer: 304.00213897668647 kcal/mol)

>  <smiles>  (3) 
CCN(CC)C(=O)C1(c2ccccc2)CC1CN

>  <score_type>  (3) 
oracle

>  <origin>  (3) 
adg

>  <m_score__min__energy>  (3) 
-7.4299999999999997

>  <m_primary>  (3) 
energy

$$$$
3:0
     RDKit          3D

  9  8  0  0  0  0  0  0  0  0999 V2000
   -8.0150   22.6150  -31.7680 C   0  0  0  0  0  0  0  0  0  0  0  0
   -6.8340   22.8220  -31.8970 C   0  0  0  0  0  0  0  0  0  0  0  0
   -5.3890   23.0730  -32.0520 C   0  0  0  0  0  0  0  0  0  0  0  0
   -4.8980   24.1750  -31.2160 N   0  0  0  0  0  0  0  0  0  0  0  0
   -5.6060   24.8370  -30.3880 C   0  0  0  0  0  0  0  0  0  0  0  0
   -6.5020   25.6730  -29.3420 S   0  0  0  0  0  0  0  0  0  0  0  0
   -9.0923   22.4262  -31.6503 H   0  0  0  0  0  0  0  0  0  0  0  0
   -4.8443   22.1575  -31.7780 H   0  0  0  0  0  0  0  0  0  0  0  0
   -5.2187   23.3587  -33.1005 H   0  0  0  0  0  0  0  0  0  0  0  0
  1  2  3  0
  2  3  1  0
  3  4  1  0
  4  5  2  0
  5  6  2  0
  1  7  1  0
  3  8  1  0
  3  9  1  0
M  END
>  <UniqueID>  (4) 
3

>  <SMILES>  (4) 
C#CCN=C=S

>  <Energy>  (4) 
4.208770310288486

>  <Genealogy>  (4) 
C#CCN=C=S (3D coordinates assigned)
C#CCN=C=S (optimized conformer: 4.208770310288486 kcal/mol)

>  <smiles>  (4) 
C#CCN=C=S

>  <score_type>  (4) 
oracle

>  <origin>  (4) 
adg

>  <m_score__min__energy>  (4) 
-2.9900000000000002

>  <m_primary>  (4) 
energy

$$$$
4:0
     RDKit          3D

 47 50  0  0  0  0  0  0  0  0999 V2000
   -6.0810   14.7230  -34.1650 C   0  0  0  0  0  0  0  0  0  0  0  0
   -6.9630   15.8120  -34.4200 O   0  0  0  0  0  0  0  0  0  0  0  0
   -6.8530   17.0780  -33.8260 C   0  0  0  0  0  0  0  0  0  0  0  0
   -7.4640   17.3910  -32.5980 C   0  0  0  0  0  0  0  0  0  0  0  0
   -7.3290   18.6690  -32.0470 C   0  0  0  0  0  0  0  0  0  0  0  0
   -6.5870   19.6580  -32.7160 C   0  0  0  0  0  0  0  0  0  0  0  0
   -6.4350   20.9790  -32.1620 N   0  0  0  0  0  0  0  0  0  0  0  0
   -7.4460   21.7030  -31.6860 N   0  0  0  0  0  0  0  0  0  0  0  0
   -6.9520   22.8660  -31.1920 C   0  0  0  0  0  0  0  0  0  0  0  0
   -5.5840   22.8560  -31.3590 C   0  0  0  0  0  0  0  0  0  0  0  0
   -4.5580   23.7030  -30.9630 C   0  0  0  0  0  0  0  0  0  0  0  0
   -4.8710   25.2380  -30.0870 S   0  0  0  0  0  0  0  0  0  0  0  0
   -4.5810   24.5460  -28.4190 C   0  0  0  0  0  0  0  0  0  0  0  0
   -3.3440   23.6820  -28.3840 C   0  0  0  0  0  0  0  0  0  0  0  0
   -3.4740   22.3180  -28.0730 C   0  0  0  0  0  0  0  0  0  0  0  0
   -2.3440   21.4860  -27.9930 C   0  0  0  0  0  0  0  0  0  0  0  0
   -2.4810   20.0890  -27.6740 N   0  0  0  0  0  0  0  0  0  0  0  0
   -3.4790   19.6730  -27.0480 O   0  0  0  0  0  0  0  0  0  0  0  0
   -1.5130   19.1870  -28.0510 O   0  0  0  0  0  0  0  0  0  0  0  0
   -1.0750   22.0390  -28.2230 C   0  0  0  0  0  0  0  0  0  0  0  0
   -0.9350   23.3950  -28.5250 C   0  0  0  0  0  0  0  0  0  0  0  0
   -2.0630   24.2300  -28.6080 C   0  0  0  0  0  0  0  0  0  0  0  0
   -1.9460   25.5990  -28.8980 O   0  0  0  0  0  0  0  0  0  0  0  0
   -1.1000   26.5080  -28.2000 C   0  0  0  0  0  0  0  0  0  0  0  0
   -3.2760   23.3060  -31.2200 N   0  0  0  0  0  0  0  0  0  0  0  0
   -3.0080   22.1070  -31.8310 C   0  0  0  0  0  0  0  0  0  0  0  0
   -4.0270   21.2710  -32.1920 N   0  0  0  0  0  0  0  0  0  0  0  0
   -5.3000   21.6760  -31.9640 C   0  0  0  0  0  0  0  0  0  0  0  0
   -5.9660   19.3350  -33.9340 C   0  0  0  0  0  0  0  0  0  0  0  0
   -6.1040   18.0580  -34.4840 C   0  0  0  0  0  0  0  0  0  0  0  0
   -5.9708   14.5869  -33.0790 H   0  0  0  0  0  0  0  0  0  0  0  0
   -6.4935   13.8053  -34.6095 H   0  0  0  0  0  0  0  0  0  0  0  0
   -5.0976   14.9358  -34.6095 H   0  0  0  0  0  0  0  0  0  0  0  0
   -8.0511   16.6262  -32.0685 H   0  0  0  0  0  0  0  0  0  0  0  0
   -7.8065   18.9020  -31.0838 H   0  0  0  0  0  0  0  0  0  0  0  0
   -7.5410   23.6761  -30.7372 H   0  0  0  0  0  0  0  0  0  0  0  0
   -4.4586   25.3740  -27.7052 H   0  0  0  0  0  0  0  0  0  0  0  0
   -5.4454   23.9209  -28.1505 H   0  0  0  0  0  0  0  0  0  0  0  0
   -4.4731   21.8958  -27.8898 H   0  0  0  0  0  0  0  0  0  0  0  0
   -0.1826   21.3985  -28.1649 H   0  0  0  0  0  0  0  0  0  0  0  0
    0.0671   23.8138  -28.6996 H   0  0  0  0  0  0  0  0  0  0  0  0
   -1.2285   26.3700  -27.1163 H   0  0  0  0  0  0  0  0  0  0  0  0
   -0.0517   26.3161  -28.4724 H   0  0  0  0  0  0  0  0  0  0  0  0
   -1.3666   27.5399  -28.4724 H   0  0  0  0  0  0  0  0  0  0  0  0
   -1.9661   21.8168  -32.0316 H   0  0  0  0  0  0  0  0  0  0  0  0
   -5.3664   20.0933  -34.4588 H   0  0  0  0  0  0  0  0  0  0  0  0
   -5.6192   17.8218  -35.4428 H   0  0  0  0  0  0  0  0  0  0  0  0
  1  2  1  0
  2  3  1  0
  3  4  2  0
  4  5  1  0
  5  6  2  0
  6  7  1  0
  7  8  1  0
  8  9  2  0
  9 10  1  0
 10 11  2  0
 11 12  1  0
 12 13  1  0
 13 14  1  0
 14 15  2  0
 15 16  1  0
 16 17  1  0
 17 18  2  0
 17 19  1  0
 16 20  2  0
 20 21  1  0
 21 22  2  0
 22 23  1  0
 23 24  1  0
 11 25  1  0
 25 26  2  0
 26 27  1  0
 27 28  2  0
  6 29  1  0
 29 30  2  0
 30  3  1  0
 28  7  1  0
 28 10  1  0
 22 14  1  0
  1 31  1  0
  1 32  1  0
  1 33  1  0
  4 34  1  0
  5 35  1  0
  9 36  1  0
 13 37  1  0
 13 38  1  0
 15 39  1  0
 20 40  1  0
 21 41  1  0
 24 42  1  0
 24 43  1  0
 24 44  1  0
 26 45  1  0
 29 46  1  0
 30 47  1  0
M  CHG  2  17   1  19  -1
M  END
>  <UniqueID>  (5) 
4

>  <SMILES>  (5) 
COc1ccc(-n2ncc3c(SCc4cc([N+](=O)[O-])ccc4OC)ncnc32)cc1

>  <Energy>  (5) 
92.04983861585724

>  <Genealogy>  (5) 
COc1ccc(-n2ncc3c(SCc4cc([N+](=O)[O-])ccc4OC)ncnc32)cc1 (3D coordinates assigned)
COc1ccc(-n2ncc3c(SCc4cc([N+](=O)[O-])ccc4OC)ncnc32)cc1 (optimized conformer: 92.04983861585724 kcal/mol)

>  <smiles>  (5) 
COc1ccc(-n2ncc3c(SCc4cc([N+](=O)[O-])ccc4OC)ncnc32)cc1

>  <score_type>  (5) 
oracle

>  <origin>  (5) 
adg

>  <m_score__min__energy>  (5) 
-8.7100000000000009

>  <m_primary>  (5) 
energy

$$$$
5:0
     RDKit          3D

 36 36  0  0  0  0  0  0  0  0999 V2000
   -4.2330   22.3040  -32.5670 C   0  0  0  0  0  0  0  0  0  0  0  0
   -4.5740   22.6730  -31.1150 C   0  0  0  0  0  0  0  0  0  0  0  0
   -4.5910   24.1320  -30.8590 N   0  0  0  0  0  0  0  0  0  0  0  0
   -3.6800   24.5320  -29.7590 C   0  0  0  0  0  0  0  0  0  0  0  0
   -4.2590   24.0730  -28.4280 C   0  0  0  0  0  0  0  0  0  0  0  0
   -5.9630   24.6640  -30.7080 C   0  0  0  0  0  0  0  0  0  0  0  0
   -6.9740   23.5300  -30.5190 C   0  0  0  0  0  0  0  0  0  0  0  0
   -8.0870   23.4220  -31.9700 S   0  0  0  0  0  0  0  0  0  0  0  0
   -8.9980   21.9160  -31.4640 C   0  0  0  0  0  0  0  0  0  0  0  0
   -8.3010   20.6710  -31.9390 C   0  0  0  0  0  0  0  0  0  0  0  0
   -8.7920   19.4060  -31.5770 C   0  0  0  0  0  0  0  0  0  0  0  0
   -8.1790   18.2470  -32.0620 C   0  0  0  0  0  0  0  0  0  0  0  0
   -7.0710   18.3420  -32.9110 C   0  0  0  0  0  0  0  0  0  0  0  0
   -6.2450   16.7580  -33.5860 Br  0  0  0  0  0  0  0  0  0  0  0  0
   -6.5690   19.5970  -33.2650 C   0  0  0  0  0  0  0  0  0  0  0  0
   -7.1790   20.7590  -32.7810 C   0  0  0  0  0  0  0  0  0  0  0  0
   -3.4865   21.4962  -32.5744 H   0  0  0  0  0  0  0  0  0  0  0  0
   -5.1438   21.9663  -33.0831 H   0  0  0  0  0  0  0  0  0  0  0  0
   -3.8246   23.1854  -33.0831 H   0  0  0  0  0  0  0  0  0  0  0  0
   -5.5687   22.2674  -30.8782 H   0  0  0  0  0  0  0  0  0  0  0  0
   -3.7838   22.2448  -30.4807 H   0  0  0  0  0  0  0  0  0  0  0  0
   -2.6953   24.0659  -29.9107 H   0  0  0  0  0  0  0  0  0  0  0  0
   -3.5707   25.6265  -29.7533 H   0  0  0  0  0  0  0  0  0  0  0  0
   -3.6879   24.5257  -27.6041 H   0  0  0  0  0  0  0  0  0  0  0  0
   -5.3117   24.3846  -28.3591 H   0  0  0  0  0  0  0  0  0  0  0  0
   -4.1958   22.9770  -28.3591 H   0  0  0  0  0  0  0  0  0  0  0  0
   -5.9973   25.3264  -29.8304 H   0  0  0  0  0  0  0  0  0  0  0  0
   -6.2258   25.2190  -31.6206 H   0  0  0  0  0  0  0  0  0  0  0  0
   -6.4345   22.5783  -30.4039 H   0  0  0  0  0  0  0  0  0  0  0  0
   -7.5757   23.7331  -29.6209 H   0  0  0  0  0  0  0  0  0  0  0  0
   -9.0678   21.8911  -30.3665 H   0  0  0  0  0  0  0  0  0  0  0  0
  -10.0000   21.9475  -31.9168 H   0  0  0  0  0  0  0  0  0  0  0  0
   -9.6624   19.3268  -30.9091 H   0  0  0  0  0  0  0  0  0  0  0  0
   -8.5684   17.2589  -31.7757 H   0  0  0  0  0  0  0  0  0  0  0  0
   -5.6925   19.6713  -33.9255 H   0  0  0  0  0  0  0  0  0  0  0  0
   -6.7793   21.7450  -33.0603 H   0  0  0  0  0  0  0  0  0  0  0  0
  1  2  1  0
  2  3  1  0
  3  4  1  0
  4  5  1  0
  3  6  1  0
  6  7  1  0
  7  8  1  0
  8  9  1  0
  9 10  1  0
 10 11  2  0
 11 12  1  0
 12 13  2  0
 13 14  1  0
 13 15  1  0
 15 16  2  0
 16 10  1  0
  1 17  1  0
  1 18  1  0
  1 19  1  0
  2 20  1  0
  2 21  1  0
  4 22  1  0
  4 23  1  0
  5 24  1  0
  5 25  1  0
  5 26  1  0
  6 27  1  0
  6 28  1  0
  7 29  1  0
  7 30  1  0
  9 31  1  0
  9 32  1  0
 11 33  1  0
 12 34  1  0
 15 35  1  0
 16 36  1  0
M  END
>  <UniqueID>  (6) 
5

>  <SMILES>  (6) 
CCN(CC)CCSCc1ccc(Br)cc1

>  <Energy>  (6) 
28.201514095732776

>  <Genealogy>  (6) 
CCN(CC)CCSCc1ccc(Br)cc1 (3D coordinates assigned)
CCN(CC)CCSCc1ccc(Br)cc1 (optimized conformer: 28.201514095732776 kcal/mol)

>  <smiles>  (6) 
CCN(CC)CCSCc1ccc(Br)cc1

>  <score_type>  (6) 
oracle

>  <origin>  (6) 
adg

>  <m_score__min__energy>  (6) 
-7.1399999999999997

>  <m_primary>  (6) 
energy

$$$$
6:0
     RDKit          3D

 26 26  0  0  0  0  0  0  0  0999 V2000
   -6.4390   17.4300  -31.2070 C   0  0  0  0  0  0  0  0  0  0  0  0
   -6.9410   17.4870  -32.6490 C   0  0  0  0  0  0  0  0  0  0  0  0
   -6.7150   18.8100  -33.2460 N   0  0  0  0  0  0  0  0  0  0  0  0
   -6.1130   18.9310  -34.5810 C   0  0  0  0  0  0  0  0  0  0  0  0
   -5.3460   17.6630  -34.9350 C   0  0  0  0  0  0  0  0  0  0  0  0
   -7.4080   19.9420  -32.6970 C   0  0  0  0  0  0  0  0  0  0  0  0
   -8.8000   19.8840  -32.5190 C   0  0  0  0  0  0  0  0  0  0  0  0
   -9.4890   20.9710  -31.9750 C   0  0  0  0  0  0  0  0  0  0  0  0
   -8.7930   22.1240  -31.6040 C   0  0  0  0  0  0  0  0  0  0  0  0
   -7.4080   22.1920  -31.7750 C   0  0  0  0  0  0  0  0  0  0  0  0
   -6.7100   21.1060  -32.3180 C   0  0  0  0  0  0  0  0  0  0  0  0
   -4.8160   21.2570  -32.5480 Br  0  0  0  0  0  0  0  0  0  0  0  0
   -7.2910   17.5267  -30.5180 H   0  0  0  0  0  0  0  0  0  0  0  0
   -5.9336   16.4687  -31.0324 H   0  0  0  0  0  0  0  0  0  0  0  0
   -5.7310   18.2535  -31.0324 H   0  0  0  0  0  0  0  0  0  0  0  0
   -6.4073   16.7308  -33.2434 H   0  0  0  0  0  0  0  0  0  0  0  0
   -8.0233   17.2903  -32.6456 H   0  0  0  0  0  0  0  0  0  0  0  0
   -6.9081   19.0929  -35.3237 H   0  0  0  0  0  0  0  0  0  0  0  0
   -5.4157   19.7817  -34.5821 H   0  0  0  0  0  0  0  0  0  0  0  0
   -5.0367   17.1517  -34.0115 H   0  0  0  0  0  0  0  0  0  0  0  0
   -5.9923   16.9961  -35.5245 H   0  0  0  0  0  0  0  0  0  0  0  0
   -4.4553   17.9258  -35.5245 H   0  0  0  0  0  0  0  0  0  0  0  0
   -9.3510   18.9774  -32.8096 H   0  0  0  0  0  0  0  0  0  0  0  0
  -10.5793   20.9189  -31.8389 H   0  0  0  0  0  0  0  0  0  0  0  0
   -9.3362   22.9797  -31.1766 H   0  0  0  0  0  0  0  0  0  0  0  0
   -6.8638   23.1019  -31.4820 H   0  0  0  0  0  0  0  0  0  0  0  0
  1  2  1  0
  2  3  1  0
  3  4  1  0
  4  5  1  0
  3  6  1  0
  6  7  2  0
  7  8  1  0
  8  9  2  0
  9 10  1  0
 10 11  2  0
 11 12  1  0
 11  6  1  0
  1 13  1  0
  1 14  1  0
  1 15  1  0
  2 16  1  0
  2 17  1  0
  4 18  1  0
  4 19  1  0
  5 20  1  0
  5 21  1  0
  5 22  1  0
  7 23  1  0
  8 24  1  0
  9 25  1  0
 10 26  1  0
M  END
>  <UniqueID>  (7) 
6

>  <SMILES>  (7) 
CCN(CC)c1ccccc1Br

>  <Energy>  (7) 
23.620136747228134

>  <Genealogy>  (7) 
CCN(CC)c1ccccc1Br (3D coordinates assigned)
CCN(CC)c1ccccc1Br (optimized conformer: 23.620136747228134 kcal/mol)

>  <smiles>  (7) 
CCN(CC)c1ccccc1Br

>  <score_type>  (7) 
oracle

>  <origin>  (7) 
adg

>  <m_score__min__energy>  (7) 
-5.3499999999999996

>  <m_primary>  (7) 
energy

$$$$
7:0
     RDKit          3D

 32 32  0  0  0  0  0  0  0  0999 V2000
   -7.2620   17.8510  -31.6250 C   0  0  0  0  0  0  0  0  0  0  0  0
   -8.5630   18.6510  -31.6050 C   0  0  0  0  0  0  0  0  0  0  0  0
   -8.5500   19.7350  -32.6140 N   0  0  0  0  0  0  0  0  0  0  0  0
   -8.9080   21.0240  -31.9950 C   0  0  0  0  0  0  0  0  0  0  0  0
   -7.2750   19.8350  -33.3640 C   0  0  0  0  0  0  0  0  0  0  0  0
   -6.3610   20.8500  -32.8130 C   0  0  0  0  0  0  0  0  0  0  0  0
   -5.6320   21.6900  -32.3510 C   0  0  0  0  0  0  0  0  0  0  0  0
   -4.7240   22.7050  -31.8100 C   0  0  0  0  0  0  0  0  0  0  0  0
   -5.4840   23.6820  -31.0330 N   0  0  0  0  0  0  0  0  0  0  0  0
   -6.8580   23.5010  -30.6000 C   0  0  0  0  0  0  0  0  0  0  0  0
   -7.2340   24.7860  -29.8340 C   0  0  0  0  0  0  0  0  0  0  0  0
   -5.9730   25.6630  -29.7530 C   0  0  0  0  0  0  0  0  0  0  0  0
   -4.9790   24.9050  -30.5350 C   0  0  0  0  0  0  0  0  0  0  0  0
   -3.7990   25.2980  -30.7380 O   0  0  0  0  0  0  0  0  0  0  0  0
   -6.9381   17.6518  -30.5928 H   0  0  0  0  0  0  0  0  0  0  0  0
   -7.4259   16.8974  -32.1483 H   0  0  0  0  0  0  0  0  0  0  0  0
   -6.4850   18.4276  -32.1483 H   0  0  0  0  0  0  0  0  0  0  0  0
   -9.4025   17.9733  -31.8194 H   0  0  0  0  0  0  0  0  0  0  0  0
   -8.6719   19.1073  -30.6101 H   0  0  0  0  0  0  0  0  0  0  0  0
   -8.8805   20.9250  -30.8998 H   0  0  0  0  0  0  0  0  0  0  0  0
   -8.1899   21.7948  -32.3116 H   0  0  0  0  0  0  0  0  0  0  0  0
   -9.9207   21.3141  -32.3116 H   0  0  0  0  0  0  0  0  0  0  0  0
   -6.7724   18.8570  -33.3329 H   0  0  0  0  0  0  0  0  0  0  0  0
   -7.5212   20.1378  -34.3924 H   0  0  0  0  0  0  0  0  0  0  0  0
   -3.9795   22.2209  -31.1608 H   0  0  0  0  0  0  0  0  0  0  0  0
   -4.2139   23.2166  -32.6395 H   0  0  0  0  0  0  0  0  0  0  0  0
   -7.5184   23.3670  -31.4694 H   0  0  0  0  0  0  0  0  0  0  0  0
   -6.9672   22.6078  -29.9674 H   0  0  0  0  0  0  0  0  0  0  0  0
   -8.0308   25.3228  -30.3697 H   0  0  0  0  0  0  0  0  0  0  0  0
   -7.6013   24.5423  -28.8262 H   0  0  0  0  0  0  0  0  0  0  0  0
   -6.1525   26.6527  -30.1983 H   0  0  0  0  0  0  0  0  0  0  0  0
   -5.6498   25.8561  -28.7194 H   0  0  0  0  0  0  0  0  0  0  0  0
  1  2  1  0
  2  3  1  0
  3  4  1  0
  3  5  1  0
  5  6  1  0
  6  7  3  0
  7  8  1  0
  8  9  1  0
  9 10  1  0
 10 11  1  0
 11 12  1  0
 12 13  1  0
 13 14  2  0
 13  9  1  0
  1 15  1  0
  1 16  1  0
  1 17  1  0
  2 18  1  0
  2 19  1  0
  4 20  1  0
  4 21  1  0
  4 22  1  0
  5 23  1  0
  5 24  1  0
  8 25  1  0
  8 26  1  0
 10 27  1  0
 10 28  1  0
 11 29  1  0
 11 30  1  0
 12 31  1  0
 12 32  1  0
M  END
>  <UniqueID>  (8) 
7

>  <SMILES>  (8) 
CCN(C)CC#CCN1CCCC1=O

>  <Energy>  (8) 
28.52804760772916

>  <Genealogy>  (8) 
CCN(C)CC#CCN1CCCC1=O (3D coordinates assigned)
CCN(C)CC#CCN1CCCC1=O (nonaromatic ring conformer: 28.52804760772916 kcal/mol)

>  <smiles>  (8) 
CCN(C)CC#CCN1CCCC1=O

>  <score_type>  (8) 
oracle

>  <origin>  (8) 
adg

>  <m_score__min__energy>  (8) 
-5.6500000000000004

>  <m_primary>  (8) 
energy

$$$$
8:0
     RDKit          3D

 41 44  0  0  0  0  0  0  0  0999 V2000
    3.5370   19.9880  -34.3050 C   0  0  0  0  0  0  0  0  0  0  0  0
    2.4030   19.8650  -35.1570 O   0  0  0  0  0  0  0  0  0  0  0  0
    1.0730   20.0350  -34.7380 C   0  0  0  0  0  0  0  0  0  0  0  0
    0.2460   18.9440  -34.4180 C   0  0  0  0  0  0  0  0  0  0  0  0
   -1.0730   19.1510  -34.0080 C   0  0  0  0  0  0  0  0  0  0  0  0
   -1.5970   20.4520  -33.9160 C   0  0  0  0  0  0  0  0  0  0  0  0
   -2.9910   20.6990  -33.4720 C   0  0  0  0  0  0  0  0  0  0  0  0
   -3.3790   21.9120  -32.8930 C   0  0  0  0  0  0  0  0  0  0  0  0
   -4.7030   22.0950  -32.4930 C   0  0  0  0  0  0  0  0  0  0  0  0
   -4.9890   23.1750  -31.9150 O   0  0  0  0  0  0  0  0  0  0  0  0
   -5.6630   21.0670  -32.7070 C   0  0  0  0  0  0  0  0  0  0  0  0
   -5.1620   19.8520  -33.2530 C   0  0  0  0  0  0  0  0  0  0  0  0
   -5.9930   18.7490  -33.4260 C   0  0  0  0  0  0  0  0  0  0  0  0
   -7.3300   18.8070  -33.0650 C   0  0  0  0  0  0  0  0  0  0  0  0
   -7.8770   19.9890  -32.5580 C   0  0  0  0  0  0  0  0  0  0  0  0
   -9.2430   20.0180  -32.2300 C   0  0  0  0  0  0  0  0  0  0  0  0
   -9.8330   21.1890  -31.7650 C   0  0  0  0  0  0  0  0  0  0  0  0
   -9.0720   22.3440  -31.6370 C   0  0  0  0  0  0  0  0  0  0  0  0
   -7.7110   22.3370  -31.9530 C   0  0  0  0  0  0  0  0  0  0  0  0
   -7.0660   21.1520  -32.3930 C   0  0  0  0  0  0  0  0  0  0  0  0
   -3.8880   19.7300  -33.6080 O   0  0  0  0  0  0  0  0  0  0  0  0
   -0.7640   21.5410  -34.2240 C   0  0  0  0  0  0  0  0  0  0  0  0
    0.5670   21.3390  -34.6390 C   0  0  0  0  0  0  0  0  0  0  0  0
    1.4180   22.4090  -34.9620 O   0  0  0  0  0  0  0  0  0  0  0  0
    1.1800   23.3420  -36.0110 C   0  0  0  0  0  0  0  0  0  0  0  0
    3.2120   19.9528  -33.2547 H   0  0  0  0  0  0  0  0  0  0  0  0
    4.2344   19.1602  -34.5010 H   0  0  0  0  0  0  0  0  0  0  0  0
    4.0407   20.9460  -34.5010 H   0  0  0  0  0  0  0  0  0  0  0  0
    0.6407   17.9198  -34.4911 H   0  0  0  0  0  0  0  0  0  0  0  0
   -1.7071   18.2885  -33.7549 H   0  0  0  0  0  0  0  0  0  0  0  0
   -2.6434   22.7179  -32.7537 H   0  0  0  0  0  0  0  0  0  0  0  0
   -5.5845   17.8215  -33.8537 H   0  0  0  0  0  0  0  0  0  0  0  0
   -7.9652   17.9161  -33.1784 H   0  0  0  0  0  0  0  0  0  0  0  0
   -9.8506   19.1078  -32.3417 H   0  0  0  0  0  0  0  0  0  0  0  0
  -10.9003   21.2002  -31.4992 H   0  0  0  0  0  0  0  0  0  0  0  0
   -9.5450   23.2722  -31.2838 H   0  0  0  0  0  0  0  0  0  0  0  0
   -7.1295   23.2660  -31.8591 H   0  0  0  0  0  0  0  0  0  0  0  0
   -1.1566   22.5651  -34.1399 H   0  0  0  0  0  0  0  0  0  0  0  0
    0.9299   24.3226  -35.5798 H   0  0  0  0  0  0  0  0  0  0  0  0
    2.0834   23.4341  -36.6318 H   0  0  0  0  0  0  0  0  0  0  0  0
    0.3429   22.9901  -36.6318 H   0  0  0  0  0  0  0  0  0  0  0  0
  1  2  1  0
  2  3  1  0
  3  4  2  0
  4  5  1  0
  5  6  2  0
  6  7  1  0
  7  8  2  0
  8  9  1  0
  9 10  2  0
  9 11  1  0
 11 12  2  0
 12 13  1  0
 13 14  2  0
 14 15  1  0
 15 16  2  0
 16 17  1  0
 17 18  2  0
 18 19  1  0
 19 20  2  0
 12 21  1  0
  6 22  1  0
 22 23  2  0
 23 24  1  0
 24 25  1  0
 23  3  1  0
 21  7  1  0
 20 11  1  0
 20 15  1  0
  1 26  1  0
  1 27  1  0
  1 28  1  0
  4 29  1  0
  5 30  1  0
  8 31  1  0
 13 32  1  0
 14 33  1  0
 16 34  1  0
 17 35  1  0
 18 36  1  0
 19 37  1  0
 22 38  1  0
 25 39  1  0
 25 40  1  0
 25 41  1  0
M  END
>  <UniqueID>  (9) 
8

>  <SMILES>  (9) 
COc1ccc(-c2cc(=O)c3c(ccc4ccccc43)o2)cc1OC

>  <Energy>  (9) 
65.6130640639402

>  <Genealogy>  (9) 
COc1ccc(-c2cc(=O)c3c(ccc4ccccc43)o2)cc1OC (3D coordinates assigned)
COc1ccc(-c2cc(=O)c3c(ccc4ccccc43)o2)cc1OC (optimized conformer: 65.6130640639402 kcal/mol)

>  <smiles>  (9) 
COc1ccc(-c2cc(=O)c3c(ccc4ccccc43)o2)cc1OC

>  <score_type>  (9) 
oracle

>  <origin>  (9) 
adg

>  <m_score__min__energy>  (9) 
-8.1500000000000004

>  <m_primary>  (9) 
energy

$$$$
9:0
     RDKit          3D

 45 46  0  0  1  0  0  0  0  0999 V2000
   -5.1460   17.7190  -34.9920 C   0  0  0  0  0  0  0  0  0  0  0  0
   -4.7480   18.4010  -33.7180 C   0  0  0  0  0  0  0  0  0  0  0  0
   -5.8040   19.1830  -33.1120 N   0  0  0  0  0  0  0  0  0  0  0  0
   -6.9100   18.5920  -32.6470 N   0  0  0  0  0  0  0  0  0  0  0  0
   -7.8900   19.3060  -32.0860 C   0  0  0  0  0  0  0  0  0  0  0  0
   -9.1090   18.5890  -31.5810 C   0  0  0  0  0  0  0  0  0  0  0  0
   -7.7550   20.6670  -31.9870 C   0  0  0  0  0  0  0  0  0  0  0  0
   -3.6600   23.8240  -30.6550 C   0  0  0  0  0  0  0  0  0  0  0  0
   -4.0980   25.0200  -30.7980 N   0  0  0  0  0  0  0  0  0  0  0  0
   -5.5200   25.2540  -30.4840 C   0  0  0  0  0  0  0  0  0  0  0  0
   -6.0210   24.0680  -29.7410 C   0  0  0  0  0  0  0  0  0  0  0  0
   -7.2380   23.4030  -30.2620 C   0  0  0  0  0  0  0  0  0  0  0  0
   -7.4040   23.3920  -31.7450 C   0  0  0  0  0  0  0  0  0  0  0  0
   -6.4340   22.5710  -32.4000 N   0  0  0  0  0  0  0  0  0  0  0  0
   -6.6360   21.3000  -32.4540 C   0  0  0  0  0  0  0  0  0  0  0  0
   -2.9850   23.2480  -29.6500 N   0  0  0  0  0  0  0  0  0  0  0  0
   -2.7610   21.9700  -29.9890 C   0  0  0  0  0  0  0  0  0  0  0  0
   -2.0560   20.9110  -29.2210 C   0  0  0  0  0  0  0  0  0  0  0  0
   -3.2940   21.7400  -31.2070 N   0  0  0  0  0  0  0  0  0  0  0  0
   -3.8360   22.8710  -31.6000 N   0  0  0  0  0  0  0  0  0  0  0  0
   -5.6420   20.5260  -33.0300 C   0  0  0  0  0  0  0  0  0  0  0  0
   -4.6020   21.0700  -33.4690 O   0  0  0  0  0  0  0  0  0  0  0  0
   -5.6877   16.7908  -34.7573 H   0  0  0  0  0  0  0  0  0  0  0  0
   -5.7969   18.3855  -35.5768 H   0  0  0  0  0  0  0  0  0  0  0  0
   -4.2455   17.4801  -35.5768 H   0  0  0  0  0  0  0  0  0  0  0  0
   -4.4315   17.6315  -32.9985 H   0  0  0  0  0  0  0  0  0  0  0  0
   -3.9398   19.1024  -33.9726 H   0  0  0  0  0  0  0  0  0  0  0  0
   -6.9890   17.5460  -32.7340 H   0  0  0  0  0  0  0  0  0  0  0  0
   -9.1060   18.5908  -30.4810 H   0  0  0  0  0  0  0  0  0  0  0  0
  -10.0123   19.0997  -31.9460 H   0  0  0  0  0  0  0  0  0  0  0  0
   -9.1016   17.5514  -31.9460 H   0  0  0  0  0  0  0  0  0  0  0  0
   -8.5589   21.2588  -31.5249 H   0  0  0  0  0  0  0  0  0  0  0  0
   -6.0927   25.3824  -31.4143 H   0  0  0  0  0  0  0  0  0  0  0  0
   -5.6354   26.1647  -29.8780 H   0  0  0  0  0  0  0  0  0  0  0  0
   -6.2357   24.3899  -28.7113 H   0  0  0  0  0  0  0  0  0  0  0  0
   -5.2244   23.3160  -29.8401 H   0  0  0  0  0  0  0  0  0  0  0  0
   -8.1104   23.9162  -29.8313 H   0  0  0  0  0  0  0  0  0  0  0  0
   -7.1416   22.3467  -29.9706 H   0  0  0  0  0  0  0  0  0  0  0  0
   -7.3040   24.4218  -32.1185 H   0  0  0  0  0  0  0  0  0  0  0  0
   -8.3977   22.9753  -31.9663 H   0  0  0  0  0  0  0  0  0  0  0  0
   -2.1791   21.0959  -28.1437 H   0  0  0  0  0  0  0  0  0  0  0  0
   -2.4812   19.9289  -29.4754 H   0  0  0  0  0  0  0  0  0  0  0  0
   -0.9859   20.9243  -29.4754 H   0  0  0  0  0  0  0  0  0  0  0  0
   -3.2970   20.8470  -31.7650 H   0  0  0  0  0  0  0  0  0  0  0  0
   -4.3230   22.9890  -32.5100 H   0  0  0  0  0  0  0  0  0  0  0  0
  1  2  1  0
  2  3  1  0
  3  4  1  0
  4  5  1  0
  5  6  1  0
  5  7  2  0
  7  8  1  0
  8  9  2  0
  9 10  1  0
 10 11  1  0
 11 12  1  0
 12 13  1  0
 13 14  1  0
 14 15  2  0
 15 16  1  0
 16 17  2  0
 17 18  1  0
 17 19  1  0
 19 20  1  0
  8 21  1  0
 21 22  2  0
 21  3  1  0
 20 15  1  0
  1 23  1  0
  1 24  1  0
  1 25  1  0
  2 26  1  0
  2 27  1  0
  4 28  1  0
  6 29  1  0
  6 30  1  0
  6 31  1  0
  7 32  1  0
 10 33  1  0
 10 34  1  0
 11 35  1  0
 11 36  1  0
 12 37  1  0
 12 38  1  0
 13 39  1  0
 13 40  1  0
 18 41  1  0
 18 42  1  0
 18 43  1  0
 19 44  1  0
 20 45  1  0
M  END
>  <smiles>  (10) 
CCn1[nH]c(C)cc(=NCCCCN=c2nc(C)[nH][nH]2)c1=O

>  <score_type>  (10) 
oracle

>  <origin>  (10) 
adg

>  <m_score__min__energy>  (10) 
-6.25

>  <m_primary>  (10) 
energy

$$$$
10:0
     RDKit          3D

 46 48  0  0  0  0  0  0  0  0999 V2000
   -5.2600   25.6450  -30.4560 C   0  0  0  0  0  0  0  0  0  0  0  0
   -3.8810   25.3000  -30.5070 O   0  0  0  0  0  0  0  0  0  0  0  0
   -3.3090   24.1970  -29.8490 C   0  0  0  0  0  0  0  0  0  0  0  0
   -2.4460   24.3560  -28.7470 C   0  0  0  0  0  0  0  0  0  0  0  0
   -1.8960   23.2380  -28.1140 C   0  0  0  0  0  0  0  0  0  0  0  0
   -2.1980   21.9550  -28.5690 C   0  0  0  0  0  0  0  0  0  0  0  0
   -3.0520   21.7830  -29.6600 C   0  0  0  0  0  0  0  0  0  0  0  0
   -3.6130   22.8980  -30.3070 C   0  0  0  0  0  0  0  0  0  0  0  0
   -4.5440   22.6980  -31.4780 C   0  0  0  0  0  0  0  0  0  0  0  0
   -5.5090   21.6180  -31.1920 N   0  0  0  0  0  0  0  0  0  0  0  0
   -6.8930   22.0680  -31.4700 C   0  0  0  0  0  0  0  0  0  0  0  0
   -7.8350   20.8730  -31.6490 C   0  0  0  0  0  0  0  0  0  0  0  0
   -7.4590   20.0560  -32.8290 N   0  0  0  0  0  0  0  0  0  0  0  0
   -7.9480   18.6660  -32.7020 C   0  0  0  0  0  0  0  0  0  0  0  0
   -6.8260   17.6790  -32.9130 C   0  0  0  0  0  0  0  0  0  0  0  0
   -6.4710   17.3030  -34.2200 C   0  0  0  0  0  0  0  0  0  0  0  0
   -5.4510   16.3710  -34.4340 C   0  0  0  0  0  0  0  0  0  0  0  0
   -4.7800   15.8040  -33.3480 C   0  0  0  0  0  0  0  0  0  0  0  0
   -3.7920   14.9010  -33.5580 F   0  0  0  0  0  0  0  0  0  0  0  0
   -5.1300   16.1670  -32.0440 C   0  0  0  0  0  0  0  0  0  0  0  0
   -6.1500   17.0980  -31.8220 C   0  0  0  0  0  0  0  0  0  0  0  0
   -6.4780   17.4270  -30.5470 F   0  0  0  0  0  0  0  0  0  0  0  0
   -6.0050   20.0970  -33.1320 C   0  0  0  0  0  0  0  0  0  0  0  0
   -5.1530   20.3470  -31.8760 C   0  0  0  0  0  0  0  0  0  0  0  0
   -5.5794   25.7249  -29.4064 H   0  0  0  0  0  0  0  0  0  0  0  0
   -5.4155   26.6097  -30.9611 H   0  0  0  0  0  0  0  0  0  0  0  0
   -5.8515   24.8672  -30.9611 H   0  0  0  0  0  0  0  0  0  0  0  0
   -2.2038   25.3653  -28.3829 H   0  0  0  0  0  0  0  0  0  0  0  0
   -1.2228   23.3706  -27.2542 H   0  0  0  0  0  0  0  0  0  0  0  0
   -1.7630   21.0777  -28.0679 H   0  0  0  0  0  0  0  0  0  0  0  0
   -3.2873   20.7690  -30.0155 H   0  0  0  0  0  0  0  0  0  0  0  0
   -5.0923   23.6324  -31.6684 H   0  0  0  0  0  0  0  0  0  0  0  0
   -3.9503   22.4202  -32.3614 H   0  0  0  0  0  0  0  0  0  0  0  0
   -7.2471   22.6820  -30.6288 H   0  0  0  0  0  0  0  0  0  0  0  0
   -6.8900   22.6536  -32.4011 H   0  0  0  0  0  0  0  0  0  0  0  0
   -7.7882   20.2430  -30.7485 H   0  0  0  0  0  0  0  0  0  0  0  0
   -8.8538   21.2571  -31.8057 H   0  0  0  0  0  0  0  0  0  0  0  0
   -8.3691   18.5229  -31.6959 H   0  0  0  0  0  0  0  0  0  0  0  0
   -8.7174   18.4927  -33.4688 H   0  0  0  0  0  0  0  0  0  0  0  0
   -6.9983   17.7442  -35.0787 H   0  0  0  0  0  0  0  0  0  0  0  0
   -5.1764   16.0837  -35.4597 H   0  0  0  0  0  0  0  0  0  0  0  0
   -4.6014   15.7189  -31.1897 H   0  0  0  0  0  0  0  0  0  0  0  0
   -5.7087   19.1345  -33.5744 H   0  0  0  0  0  0  0  0  0  0  0  0
   -5.8301   20.9304  -33.8283 H   0  0  0  0  0  0  0  0  0  0  0  0
   -5.3056   19.5137  -31.1743 H   0  0  0  0  0  0  0  0  0  0  0  0
   -4.1023   20.4204  -32.1933 H   0  0  0  0  0  0  0  0  0  0  0  0
  1  2  1  0
  2  3  1  0
  3  4  2  0
  4  5  1  0
  5  6  2  0
  6  7  1  0
  7  8  2  0
  8  9  1  0
  9 10  1  0
 10 11  1  0
 11 12  1  0
 12 13  1  0
 13 14  1  0
 14 15  1  0
 15 16  2  0
 16 17  1  0
 17 18  2  0
 18 19  1  0
 18 20  1  0
 20 21  2  0
 21 22  1  0
 13 23  1  0
 23 24  1  0
  8  3  1  0
 24 10  1  0
 21 15  1  0
  1 25  1  0
  1 26  1  0
  1 27  1  0
  4 28  1  0
  5 29  1  0
  6 30  1  0
  7 31  1  0
  9 32  1  0
  9 33  1  0
 11 34  1  0
 11 35  1  0
 12 36  1  0
 12 37  1  0
 14 38  1  0
 14 39  1  0
 16 40  1  0
 17 41  1  0
 20 42  1  0
 23 43  1  0
 23 44  1  0
 24 45  1  0
 24 46  1  0
M  END
>  <UniqueID>  (11) 
9

>  <SMILES>  (11) 
COc1ccccc1CN1CCN(Cc2ccc(F)cc2F)CC1

>  <Energy>  (11) 
60.37443248836965

>  <Genealogy>  (11) 
COc1ccccc1CN1CCN(Cc2ccc(F)cc2F)CC1 (3D coordinates assigned)
COc1ccccc1CN1CCN(Cc2ccc(F)cc2F)CC1 (nonaromatic ring conformer: 60.37443248836965 kcal/mol)

>  <smiles>  (11) 
COc1ccccc1CN1CCN(Cc2ccc(F)cc2F)CC1

>  <score_type>  (11) 
oracle

>  <origin>  (11) 
adg

>  <m_score__min__energy>  (11) 
-8.3200000000000003

>  <m_primary>  (11) 
energy

$$$$
11:0
     RDKit          3D

 59 61  0  0  0  0  0  0  0  0999 V2000
   -4.3690   20.2940  -33.4700 C   0  0  0  0  0  0  0  0  0  0  0  0
   -5.7160   20.7560  -33.4630 O   0  0  0  0  0  0  0  0  0  0  0  0
   -6.7930   20.0670  -32.8810 C   0  0  0  0  0  0  0  0  0  0  0  0
   -6.8920   18.6620  -32.9380 C   0  0  0  0  0  0  0  0  0  0  0  0
   -7.9750   18.0070  -32.3490 C   0  0  0  0  0  0  0  0  0  0  0  0
   -8.9690   18.7380  -31.7000 C   0  0  0  0  0  0  0  0  0  0  0  0
   -8.8830   20.1290  -31.6340 C   0  0  0  0  0  0  0  0  0  0  0  0
   -7.8000   20.8040  -32.2220 C   0  0  0  0  0  0  0  0  0  0  0  0
   -7.7080   22.3110  -32.1120 C   0  0  0  0  0  0  0  0  0  0  0  0
   -6.3290   22.7920  -32.3080 N   0  0  0  0  0  0  0  0  0  0  0  0
   -6.0800   24.0590  -31.6020 C   0  0  0  0  0  0  0  0  0  0  0  0
   -4.9580   23.8960  -30.6090 C   0  0  0  0  0  0  0  0  0  0  0  0
   -5.1010   24.3660  -29.2940 C   0  0  0  0  0  0  0  0  0  0  0  0
   -4.0770   24.1750  -28.3630 C   0  0  0  0  0  0  0  0  0  0  0  0
   -2.9020   23.4980  -28.7280 C   0  0  0  0  0  0  0  0  0  0  0  0
   -1.8200   23.2920  -27.7380 C   0  0  0  0  0  0  0  0  0  0  0  0
   -0.8260   24.2800  -27.5650 C   0  0  0  0  0  0  0  0  0  0  0  0
   -0.8750   25.4410  -28.3560 O   0  0  0  0  0  0  0  0  0  0  0  0
   -0.8560   26.7700  -27.8460 C   0  0  0  0  0  0  0  0  0  0  0  0
    0.1940   24.0730  -26.6190 C   0  0  0  0  0  0  0  0  0  0  0  0
    0.2300   22.9020  -25.8640 C   0  0  0  0  0  0  0  0  0  0  0  0
   -0.7470   21.9220  -26.0370 C   0  0  0  0  0  0  0  0  0  0  0  0
   -1.7810   22.1050  -26.9740 C   0  0  0  0  0  0  0  0  0  0  0  0
   -2.7970   21.1500  -27.1640 O   0  0  0  0  0  0  0  0  0  0  0  0
   -2.6090   19.7670  -27.4720 C   0  0  0  0  0  0  0  0  0  0  0  0
   -2.7240   18.9200  -26.2000 C   0  0  0  0  0  0  0  0  0  0  0  0
   -1.2250   19.5930  -28.0970 C   0  0  0  0  0  0  0  0  0  0  0  0
   -2.7650   23.0180  -30.0390 C   0  0  0  0  0  0  0  0  0  0  0  0
   -3.7870   23.2150  -30.9720 C   0  0  0  0  0  0  0  0  0  0  0  0
   -4.0174   20.1734  -32.4347 H   0  0  0  0  0  0  0  0  0  0  0  0
   -4.3160   19.3263  -33.9903 H   0  0  0  0  0  0  0  0  0  0  0  0
   -3.7332   21.0254  -33.9903 H   0  0  0  0  0  0  0  0  0  0  0  0
   -6.1119   18.0788  -33.4492 H   0  0  0  0  0  0  0  0  0  0  0  0
   -8.0443   16.9102  -32.3971 H   0  0  0  0  0  0  0  0  0  0  0  0
   -9.8218   18.2177  -31.2396 H   0  0  0  0  0  0  0  0  0  0  0  0
   -9.6683   20.7011  -31.1182 H   0  0  0  0  0  0  0  0  0  0  0  0
   -8.3550   22.7638  -32.8777 H   0  0  0  0  0  0  0  0  0  0  0  0
   -8.0298   22.5997  -31.1005 H   0  0  0  0  0  0  0  0  0  0  0  0
   -6.1840   22.9440  -33.3340 H   0  0  0  0  0  0  0  0  0  0  0  0
   -5.6450   22.0660  -31.9870 H   0  0  0  0  0  0  0  0  0  0  0  0
   -5.8068   24.8338  -32.3335 H   0  0  0  0  0  0  0  0  0  0  0  0
   -6.9931   24.3525  -31.0634 H   0  0  0  0  0  0  0  0  0  0  0  0
   -6.0228   24.8867  -28.9955 H   0  0  0  0  0  0  0  0  0  0  0  0
   -4.1918   24.5572  -27.3379 H   0  0  0  0  0  0  0  0  0  0  0  0
   -0.8564   26.7408  -26.7464 H   0  0  0  0  0  0  0  0  0  0  0  0
    0.0496   27.2852  -28.1988 H   0  0  0  0  0  0  0  0  0  0  0  0
   -1.7465   27.3109  -28.1988 H   0  0  0  0  0  0  0  0  0  0  0  0
    0.9686   24.8405  -26.4740 H   0  0  0  0  0  0  0  0  0  0  0  0
    1.0332   22.7500  -25.1279 H   0  0  0  0  0  0  0  0  0  0  0  0
   -0.7092   21.0005  -25.4375 H   0  0  0  0  0  0  0  0  0  0  0  0
   -3.3839   19.4332  -28.1778 H   0  0  0  0  0  0  0  0  0  0  0  0
   -2.6357   19.5703  -25.3172 H   0  0  0  0  0  0  0  0  0  0  0  0
   -3.6994   18.4117  -26.1849 H   0  0  0  0  0  0  0  0  0  0  0  0
   -1.9194   18.1700  -26.1849 H   0  0  0  0  0  0  0  0  0  0  0  0
   -0.4723   19.4984  -27.3005 H   0  0  0  0  0  0  0  0  0  0  0  0
   -1.2154   18.6866  -28.7201 H   0  0  0  0  0  0  0  0  0  0  0  0
   -0.9913   20.4688  -28.7201 H   0  0  0  0  0  0  0  0  0  0  0  0
   -1.8495   22.4844  -30.3340 H   0  0  0  0  0  0  0  0  0  0  0  0
   -3.6721   22.8335  -31.9973 H   0  0  0  0  0  0  0  0  0  0  0  0
  1  2  1  0
  2  3  1  0
  3  4  2  0
  4  5  1  0
  5  6  2  0
  6  7  1  0
  7  8  2  0
  8  9  1  0
  9 10  1  0
 10 11  1  0
 11 12  1  0
 12 13  2  0
 13 14  1  0
 14 15  2  0
 15 16  1  0
 16 17  2  0
 17 18  1  0
 18 19  1  0
 17 20  1  0
 20 21  2  0
 21 22  1  0
 22 23  2  0
 23 24  1  0
 24 25  1  0
 25 26  1  0
 25 27  1  0
 15 28  1  0
 28 29  2  0
  8  3  1  0
 29 12  1  0
 23 16  1  0
  1 30  1  0
  1 31  1  0
  1 32  1  0
  4 33  1  0
  5 34  1  0
  6 35  1  0
  7 36  1  0
  9 37  1  0
  9 38  1  0
 10 39  1  0
 10 40  1  0
 11 41  1  0
 11 42  1  0
 13 43  1  0
 14 44  1  0
 19 45  1  0
 19 46  1  0
 19 47  1  0
 20 48  1  0
 21 49  1  0
 22 50  1  0
 25 51  1  0
 26 52  1  0
 26 53  1  0
 26 54  1  0
 27 55  1  0
 27 56  1  0
 27 57  1  0
 28 58  1  0
 29 59  1  0
M  CHG  1  10   1
M  END
>  <UniqueID>  (12) 
10

>  <SMILES>  (12) 
COc1ccccc1C[NH2+]Cc1ccc(-c2c(OC)cccc2OC(C)C)cc1

>  <Energy>  (12) 
61.92702208585223

>  <Genealogy>  (12) 
COc1ccccc1C[NH2+]Cc1ccc(-c2c(OC)cccc2OC(C)C)cc1 (protonated)
COc1ccccc1C[NH2+]Cc1ccc(-c2c(OC)cccc2OC(C)C)cc1 (3D coordinates assigned)
COc1ccccc1C[NH2+]Cc1ccc(-c2c(OC)cccc2OC(C)C)cc1 (optimized conformer: 61.92702208585223 kcal/mol)

>  <smiles>  (12) 
COc1ccccc1CNCc1ccc(-c2c(OC)cccc2OC(C)C)cc1

>  <score_type>  (12) 
oracle

>  <origin>  (12) 
adg

>  <m_score__min__energy>  (12) 
-7.7800000000000002

>  <m_primary>  (12) 
energy

$$$$
12:0
     RDKit          3D

 45 46  0  0  0  0  0  0  0  0999 V2000
   -1.7400   20.0350  -32.8650 C   0  0  0  0  0  0  0  0  0  0  0  0
   -2.1290   21.5000  -33.0710 C   0  0  0  0  0  0  0  0  0  0  0  0
   -2.4990   22.1660  -31.8120 N   0  0  0  0  0  0  0  0  0  0  0  0
   -1.7280   21.6890  -30.6470 C   0  0  0  0  0  0  0  0  0  0  0  0
   -2.4380   21.9970  -29.3200 C   0  0  0  0  0  0  0  0  0  0  0  0
   -3.8920   21.8830  -29.4940 N   0  0  0  0  0  0  0  0  0  0  0  0
   -4.6010   22.9850  -28.8250 C   0  0  0  0  0  0  0  0  0  0  0  0
   -4.1620   24.3360  -29.4100 C   0  0  0  0  0  0  0  0  0  0  0  0
   -4.9940   24.7450  -30.6320 C   0  0  0  0  0  0  0  0  0  0  0  0
   -5.0520   23.6490  -31.6110 N   0  0  0  0  0  0  0  0  0  0  0  0
   -6.4290   23.1770  -31.8270 C   0  0  0  0  0  0  0  0  0  0  0  0
   -6.4730   21.7470  -32.3180 C   0  0  0  0  0  0  0  0  0  0  0  0
   -5.3470   21.2180  -32.9900 C   0  0  0  0  0  0  0  0  0  0  0  0
   -5.4120   19.9120  -33.4610 C   0  0  0  0  0  0  0  0  0  0  0  0
   -6.5150   19.1440  -33.2960 C   0  0  0  0  0  0  0  0  0  0  0  0
   -7.6500   19.6140  -32.6440 C   0  0  0  0  0  0  0  0  0  0  0  0
   -7.6340   20.9320  -32.1490 C   0  0  0  0  0  0  0  0  0  0  0  0
   -9.2050   21.5680  -31.2520 Br  0  0  0  0  0  0  0  0  0  0  0  0
   -6.3000   17.9010  -33.8610 O   0  0  0  0  0  0  0  0  0  0  0  0
   -4.9790   17.8900  -34.4170 C   0  0  0  0  0  0  0  0  0  0  0  0
   -4.4480   19.1940  -34.1400 O   0  0  0  0  0  0  0  0  0  0  0  0
   -1.6826   19.8188  -31.7880 H   0  0  0  0  0  0  0  0  0  0  0  0
   -2.4969   19.3859  -33.3294 H   0  0  0  0  0  0  0  0  0  0  0  0
   -0.7608   19.8468  -33.3294 H   0  0  0  0  0  0  0  0  0  0  0  0
   -1.2751   22.0330  -33.5146 H   0  0  0  0  0  0  0  0  0  0  0  0
   -3.0074   21.5233  -33.7327 H   0  0  0  0  0  0  0  0  0  0  0  0
   -3.5320   22.0870  -31.6590 H   0  0  0  0  0  0  0  0  0  0  0  0
   -1.5924   20.6008  -30.7327 H   0  0  0  0  0  0  0  0  0  0  0  0
   -0.7604   22.2122  -30.6434 H   0  0  0  0  0  0  0  0  0  0  0  0
   -2.1050   21.2819  -28.5534 H   0  0  0  0  0  0  0  0  0  0  0  0
   -2.1897   23.0213  -29.0051 H   0  0  0  0  0  0  0  0  0  0  0  0
   -4.0940   21.9540  -30.5190 H   0  0  0  0  0  0  0  0  0  0  0  0
   -5.6842   22.8612  -28.9714 H   0  0  0  0  0  0  0  0  0  0  0  0
   -4.3605   22.9653  -27.7518 H   0  0  0  0  0  0  0  0  0  0  0  0
   -4.2710   25.1084  -28.6344 H   0  0  0  0  0  0  0  0  0  0  0  0
   -3.1163   24.2351  -29.7361 H   0  0  0  0  0  0  0  0  0  0  0  0
   -6.0151   24.9935  -30.3070 H   0  0  0  0  0  0  0  0  0  0  0  0
   -4.5215   25.6181  -31.1057 H   0  0  0  0  0  0  0  0  0  0  0  0
   -4.4740   22.8500  -31.2610 H   0  0  0  0  0  0  0  0  0  0  0  0
   -6.9789   23.2422  -30.8765 H   0  0  0  0  0  0  0  0  0  0  0  0
   -6.8866   23.8131  -32.5990 H   0  0  0  0  0  0  0  0  0  0  0  0
   -4.4416   21.8253  -33.1365 H   0  0  0  0  0  0  0  0  0  0  0  0
   -8.5357   18.9738  -32.5185 H   0  0  0  0  0  0  0  0  0  0  0  0
   -4.3648   17.1129  -33.9386 H   0  0  0  0  0  0  0  0  0  0  0  0
   -4.9862   17.6673  -35.4942 H   0  0  0  0  0  0  0  0  0  0  0  0
  1  2  1  0
  2  3  1  0
  3  4  1  0
  4  5  1  0
  5  6  1  0
  6  7  1  0
  7  8  1  0
  8  9  1  0
  9 10  1  0
 10 11  1  0
 11 12  1  0
 12 13  2  0
 13 14  1  0
 14 15  2  0
 15 16  1  0
 16 17  2  0
 17 18  1  0
 15 19  1  0
 19 20  1  0
 20 21  1  0
 17 12  1  0
 21 14  1  0
  1 22  1  0
  1 23  1  0
  1 24  1  0
  2 25  1  0
  2 26  1  0
  3 27  1  0
  4 28  1  0
  4 29  1  0
  5 30  1  0
  5 31  1  0
  6 32  1  0
  7 33  1  0
  7 34  1  0
  8 35  1  0
  8 36  1  0
  9 37  1  0
  9 38  1  0
 10 39  1  0
 11 40  1  0
 11 41  1  0
 13 42  1  0
 16 43  1  0
 20 44  1  0
 20 45  1  0
M  END
>  <UniqueID>  (13) 
11

>  <SMILES>  (13) 
CCNCCNCCCNCc1cc2c(cc1Br)OCO2

>  <Energy>  (13) 
67.23145493373364

>  <Genealogy>  (13) 
CCNCCNCCCNCc1cc2c(cc1Br)OCO2 (3D coordinates assigned)
CCNCCNCCCNCc1cc2c(cc1Br)OCO2 (nonaromatic ring conformer: 67.23145493373364 kcal/mol)

>  <smiles>  (13) 
CCNCCNCCCNCc1cc2c(cc1Br)OCO2

>  <score_type>  (13) 
oracle

>  <origin>  (13) 
adg

>  <m_score__min__energy>  (13) 
-7.1699999999999999

>  <m_primary>  (13) 
energy

$$$$
13:0
     RDKit          3D

 48 50  0  0  0  0  0  0  0  0999 V2000
   -4.1643   16.2180  -35.0407 H   0  0  0  0  0  0  0  0  0  0  0  0
   -4.7270   16.9220  -34.4100 C   0  0  0  0  0  0  0  0  0  0  0  0
   -4.0900   17.9750  -33.8330 N   0  0  0  0  0  0  0  0  0  0  0  0
   -4.7480   18.8690  -33.0460 C   0  0  0  0  0  0  0  0  0  0  0  0
   -4.0530   19.9360  -32.4730 C   0  0  0  0  0  0  0  0  0  0  0  0
   -2.9745   20.0547  -32.6541 H   0  0  0  0  0  0  0  0  0  0  0  0
   -4.7390   20.8570  -31.6640 C   0  0  0  0  0  0  0  0  0  0  0  0
   -4.0450   22.0060  -31.0270 C   0  0  0  0  0  0  0  0  0  0  0  0
   -2.8460   21.7940  -30.3280 C   0  0  0  0  0  0  0  0  0  0  0  0
   -2.4269   20.7792  -30.2606 H   0  0  0  0  0  0  0  0  0  0  0  0
   -2.1810   22.8580  -29.7180 C   0  0  0  0  0  0  0  0  0  0  0  0
   -1.2385   22.6773  -29.1804 H   0  0  0  0  0  0  0  0  0  0  0  0
   -2.7080   24.1600  -29.7860 C   0  0  0  0  0  0  0  0  0  0  0  0
   -2.0660   25.2560  -29.1860 O   0  0  0  0  0  0  0  0  0  0  0  0
   -1.5580   25.2660  -27.8540 C   0  0  0  0  0  0  0  0  0  0  0  0
   -1.1809   26.2708  -27.6130 H   0  0  0  0  0  0  0  0  0  0  0  0
   -0.7391   24.5366  -27.7685 H   0  0  0  0  0  0  0  0  0  0  0  0
   -2.6690   24.8960  -26.8850 C   0  0  0  0  0  0  0  0  0  0  0  0
   -2.3097   25.0157  -25.8522 H   0  0  0  0  0  0  0  0  0  0  0  0
   -3.5345   25.5544  -27.0507 H   0  0  0  0  0  0  0  0  0  0  0  0
   -2.9669   23.8502  -27.0507 H   0  0  0  0  0  0  0  0  0  0  0  0
   -3.9110   24.3860  -30.4690 C   0  0  0  0  0  0  0  0  0  0  0  0
   -4.4160   25.6960  -30.5110 O   0  0  0  0  0  0  0  0  0  0  0  0
   -5.7270   26.0710  -30.1010 C   0  0  0  0  0  0  0  0  0  0  0  0
   -5.7775   26.0854  -29.0023 H   0  0  0  0  0  0  0  0  0  0  0  0
   -5.9612   27.0721  -30.4920 H   0  0  0  0  0  0  0  0  0  0  0  0
   -6.4552   25.3451  -30.4920 H   0  0  0  0  0  0  0  0  0  0  0  0
   -4.5770   23.3070  -31.0830 C   0  0  0  0  0  0  0  0  0  0  0  0
   -5.5247   23.4841  -31.6127 H   0  0  0  0  0  0  0  0  0  0  0  0
   -6.0710   20.6800  -31.4410 N   0  0  0  0  0  0  0  0  0  0  0  0
   -6.7850   19.6520  -31.9800 C   0  0  0  0  0  0  0  0  0  0  0  0
   -8.0580   19.5370  -31.7310 N   0  0  0  0  0  0  0  0  0  0  0  0
   -9.0790   20.4490  -32.2390 C   0  0  0  0  0  0  0  0  0  0  0  0
   -8.7625   20.8444  -33.2155 H   0  0  0  0  0  0  0  0  0  0  0  0
  -10.0291   19.9058  -32.3499 H   0  0  0  0  0  0  0  0  0  0  0  0
   -9.2700   21.6050  -31.2620 C   0  0  0  0  0  0  0  0  0  0  0  0
  -10.2668   21.5341  -30.8022 H   0  0  0  0  0  0  0  0  0  0  0  0
   -8.4977   21.5524  -30.4805 H   0  0  0  0  0  0  0  0  0  0  0  0
   -9.1560   22.8390  -31.9520 O   0  0  0  0  0  0  0  0  0  0  0  0
   -7.8140   23.2710  -31.9770 C   0  0  0  0  0  0  0  0  0  0  0  0
   -7.4475   23.3890  -30.9466 H   0  0  0  0  0  0  0  0  0  0  0  0
   -7.1986   22.5256  -32.5020 H   0  0  0  0  0  0  0  0  0  0  0  0
   -7.7490   24.2355  -32.5020 H   0  0  0  0  0  0  0  0  0  0  0  0
   -6.1320   18.7160  -32.8060 C   0  0  0  0  0  0  0  0  0  0  0  0
   -6.8010   17.6300  -33.4000 C   0  0  0  0  0  0  0  0  0  0  0  0
   -7.8788   17.4882  -33.2317 H   0  0  0  0  0  0  0  0  0  0  0  0
   -6.0950   16.7330  -34.2030 C   0  0  0  0  0  0  0  0  0  0  0  0
   -6.6130   15.8823  -34.6700 H   0  0  0  0  0  0  0  0  0  0  0  0
  1  2  1  0
  2  3  2  0
  3  4  1  0
  4  5  1  0
  5  6  1  0
  5  7  2  0
  7  8  1  0
  8  9  2  0
  9 10  1  0
  9 11  1  0
 11 12  1  0
 11 13  2  0
 13 14  1  0
 14 15  1  0
 15 16  1  0
 15 17  1  0
 15 18  1  0
 18 19  1  0
 18 20  1  0
 18 21  1  0
 13 22  1  0
 22 23  1  0
 23 24  1  0
 24 25  1  0
 24 26  1  0
 24 27  1  0
 22 28  2  0
 28 29  1  0
  7 30  1  0
 30 31  1  0
 31 32  2  0
 32 33  1  0
 33 34  1  0
 33 35  1  0
 33 36  1  0
 36 37  1  0
 36 38  1  0
 36 39  1  0
 39 40  1  0
 40 41  1  0
 40 42  1  0
 40 43  1  0
 31 44  1  0
 44 45  1  0
 45 46  1  0
 45 47  2  0
 47 48  1  0
 47  2  1  0
 44  4  2  0
 28  8  1  0
M  CHG  1  30  -1
M  END
>  <UniqueID>  (14) 
12

>  <SMILES>  (14) 
CCOc1ccc(-c2cc3ncccc3/c(=N/CCOC)[n-]2)cc1OC

>  <Energy>  (14) 
54.13737078305691

>  <Genealogy>  (14) 
CCOc1ccc(-c2cc3ncccc3c(=NCCOC)[n-]2)cc1OC (protonated)
CCOc1ccc(-c2cc3ncccc3/c(=N/CCOC)[n-]2)cc1OC (cis-trans isomerization)
CCOc1ccc(-c2cc3ncccc3/c(=N/CCOC)[n-]2)cc1OC (3D coordinates assigned)
CCOc1ccc(-c2cc3ncccc3/c(=N/CCOC)[n-]2)cc1OC (optimized conformer: 54.13737078305691 kcal/mol)

>  <smiles>  (14) 
CCOc1ccc(-c2cc3ncccc3c(=NCCOC)[nH]2)cc1OC

>  <score_type>  (14) 
oracle

>  <origin>  (14) 
adg

>  <m_score__min__energy>  (14) 
-8.4199999999999999

>  <m_primary>  (14) 
energy

$$$$
14:0
     RDKit          3D

 62 65  0  0  0  0  0  0  0  0999 V2000
   -9.0810   18.5420  -31.5230 C   0  0  0  0  0  0  0  0  0  0  0  0
   -8.4120   18.8800  -32.7350 O   0  0  0  0  0  0  0  0  0  0  0  0
   -7.1760   19.5410  -32.8050 C   0  0  0  0  0  0  0  0  0  0  0  0
   -7.0440   20.9090  -32.5000 C   0  0  0  0  0  0  0  0  0  0  0  0
   -5.7910   21.5300  -32.5600 C   0  0  0  0  0  0  0  0  0  0  0  0
   -4.6460   20.7930  -32.9080 C   0  0  0  0  0  0  0  0  0  0  0  0
   -4.7950   19.4400  -33.2760 C   0  0  0  0  0  0  0  0  0  0  0  0
   -6.0500   18.8070  -33.2040 C   0  0  0  0  0  0  0  0  0  0  0  0
   -6.2180   17.4500  -33.5300 O   0  0  0  0  0  0  0  0  0  0  0  0
   -5.7440   16.3610  -32.7380 C   0  0  0  0  0  0  0  0  0  0  0  0
   -3.3110   21.5260  -33.0270 C   0  0  2  0  0  0  0  0  0  0  0  0
   -2.1060   20.6010  -32.9540 C   0  0  0  0  0  0  0  0  0  0  0  0
   -1.6150   20.1570  -31.7080 C   0  0  0  0  0  0  0  0  0  0  0  0
   -0.4950   19.3230  -31.6440 C   0  0  0  0  0  0  0  0  0  0  0  0
    0.1480   18.9280  -32.8180 C   0  0  0  0  0  0  0  0  0  0  0  0
   -0.3270   19.3650  -34.0580 C   0  0  0  0  0  0  0  0  0  0  0  0
   -1.4490   20.1960  -34.1280 C   0  0  0  0  0  0  0  0  0  0  0  0
   -3.1550   22.6550  -31.9700 C   0  0  0  0  0  0  0  0  0  0  0  0
   -4.4350   23.2420  -31.5420 N   0  0  0  0  0  0  0  0  0  0  0  0
   -4.4490   24.0810  -30.3720 C   0  0  0  0  0  0  0  0  0  0  0  0
   -4.1710   25.3070  -30.4850 O   0  0  0  0  0  0  0  0  0  0  0  0
   -4.7550   23.5240  -29.0040 C   0  0  0  0  0  0  0  0  0  0  0  0
   -3.8750   22.3080  -28.6470 C   0  0  0  0  0  0  0  0  0  0  0  0
   -2.4650   22.6910  -28.1320 C   0  0  0  0  0  0  0  0  0  0  0  0
   -1.3870   22.5440  -29.2340 C   0  0  0  0  0  0  0  0  0  0  0  0
   -0.1830   23.4550  -28.9580 C   0  0  0  0  0  0  0  0  0  0  0  0
   -0.5530   24.8870  -28.9420 N   0  0  0  0  0  0  0  0  0  0  0  0
   -1.9460   25.1560  -28.5330 C   0  0  0  0  0  0  0  0  0  0  0  0
   -2.4650   24.1190  -27.5260 C   0  0  0  0  0  0  0  0  0  0  0  0
   -5.6510   23.0030  -32.3240 C   0  0  0  0  0  0  0  0  0  0  0  0
   -8.4659   18.8528  -30.6657 H   0  0  0  0  0  0  0  0  0  0  0  0
  -10.0518   19.0578  -31.4839 H   0  0  0  0  0  0  0  0  0  0  0  0
   -9.2418   17.4545  -31.4839 H   0  0  0  0  0  0  0  0  0  0  0  0
   -7.9307   21.4933  -32.2129 H   0  0  0  0  0  0  0  0  0  0  0  0
   -3.9194   18.8721  -33.6237 H   0  0  0  0  0  0  0  0  0  0  0  0
   -5.8519   16.6089  -31.6717 H   0  0  0  0  0  0  0  0  0  0  0  0
   -6.3310   15.4591  -32.9660 H   0  0  0  0  0  0  0  0  0  0  0  0
   -4.6839   16.1759  -32.9660 H   0  0  0  0  0  0  0  0  0  0  0  0
   -3.3344   21.9763  -34.0303 H   0  0  0  0  0  0  0  0  0  0  0  0
   -2.1171   20.4693  -30.7804 H   0  0  0  0  0  0  0  0  0  0  0  0
   -0.1207   18.9782  -30.6688 H   0  0  0  0  0  0  0  0  0  0  0  0
    1.0296   18.2720  -32.7675 H   0  0  0  0  0  0  0  0  0  0  0  0
    0.1836   19.0541  -34.9814 H   0  0  0  0  0  0  0  0  0  0  0  0
   -1.8192   20.5344  -35.1070 H   0  0  0  0  0  0  0  0  0  0  0  0
   -2.6513   22.2367  -31.0861 H   0  0  0  0  0  0  0  0  0  0  0  0
   -2.5723   23.4602  -32.4414 H   0  0  0  0  0  0  0  0  0  0  0  0
   -4.5854   24.3130  -28.2565 H   0  0  0  0  0  0  0  0  0  0  0  0
   -5.8021   23.1871  -29.0085 H   0  0  0  0  0  0  0  0  0  0  0  0
   -4.3852   21.7277  -27.8640 H   0  0  0  0  0  0  0  0  0  0  0  0
   -3.7339   21.7300  -29.5722 H   0  0  0  0  0  0  0  0  0  0  0  0
   -2.2030   21.9829  -27.3321 H   0  0  0  0  0  0  0  0  0  0  0  0
   -1.0462   21.4986  -29.2653 H   0  0  0  0  0  0  0  0  0  0  0  0
   -1.8313   22.8362  -30.1969 H   0  0  0  0  0  0  0  0  0  0  0  0
    0.2444   23.1894  -27.9799 H   0  0  0  0  0  0  0  0  0  0  0  0
    0.5447   23.3051  -29.7692 H   0  0  0  0  0  0  0  0  0  0  0  0
   -0.4210   25.2710  -29.9060 H   0  0  0  0  0  0  0  0  0  0  0  0
   -1.9934   26.1531  -28.0710 H   0  0  0  0  0  0  0  0  0  0  0  0
   -2.5786   25.1008  -29.4312 H   0  0  0  0  0  0  0  0  0  0  0  0
   -1.8186   24.1299  -26.6360 H   0  0  0  0  0  0  0  0  0  0  0  0
   -3.4996   24.3821  -27.2608 H   0  0  0  0  0  0  0  0  0  0  0  0
   -6.5259   23.3735  -31.7697 H   0  0  0  0  0  0  0  0  0  0  0  0
   -5.5865   23.5315  -33.2866 H   0  0  0  0  0  0  0  0  0  0  0  0
  1  2  1  0
  2  3  1  0
  3  4  2  0
  4  5  1  0
  5  6  2  0
  6  7  1  0
  7  8  2  0
  8  9  1  0
  9 10  1  0
  6 11  1  0
 11 12  1  0
 12 13  2  0
 13 14  1  0
 14 15  2  0
 15 16  1  0
 16 17  2  0
 11 18  1  0
 18 19  1  0
 19 20  1  0
 20 21  2  0
 20 22  1  0
 22 23  1  0
 23 24  1  0
 24 25  1  0
 25 26  1  0
 26 27  1  0
 27 28  1  0
 28 29  1  0
 19 30  1  0
  8  3  1  0
 17 12  1  0
 29 24  1  0
 30  5  1  0
  1 31  1  0
  1 32  1  0
  1 33  1  0
  4 34  1  0
  7 35  1  0
 10 36  1  0
 10 37  1  0
 10 38  1  0
 11 39  1  6
 13 40  1  0
 14 41  1  0
 15 42  1  0
 16 43  1  0
 17 44  1  0
 18 45  1  0
 18 46  1  0
 22 47  1  0
 22 48  1  0
 23 49  1  0
 23 50  1  0
 24 51  1  0
 25 52  1  0
 25 53  1  0
 26 54  1  0
 26 55  1  0
 27 56  1  0
 28 57  1  0
 28 58  1  0
 29 59  1  0
 29 60  1  0
 30 61  1  0
 30 62  1  0
M  END
>  <UniqueID>  (15) 
13

>  <SMILES>  (15) 
COc1cc2c(cc1OC)[C@H](c1ccccc1)CN(C(=O)CCC1CCNCC1)C2

>  <Energy>  (15) 
75.06094491099378

>  <Genealogy>  (15) 
COc1cc2c(cc1OC)[C@H](c1ccccc1)CN(C(=O)CCC1CCNCC1)C2 (chirality)
COc1cc2c(cc1OC)[C@H](c1ccccc1)CN(C(=O)CCC1CCNCC1)C2 (3D coordinates assigned)
COc1cc2c(cc1OC)[C@H](c1ccccc1)CN(C(=O)CCC1CCNCC1)C2 (nonaromatic ring conformer: 75.06094491099378 kcal/mol)

>  <smiles>  (15) 
COc1cc2c(cc1OC)C(c1ccccc1)CN(C(=O)CCC1CCNCC1)C2

>  <score_type>  (15) 
oracle

>  <origin>  (15) 
adg

>  <m_score__min__energy>  (15) 
-9.8000000000000007

>  <m_primary>  (15) 
energy

$$$$
15:0
     RDKit          3D

 48 50  0  0  0  0  0  0  0  0999 V2000
   -2.3960   24.4470  -28.9340 C   0  0  0  0  0  0  0  0  0  0  0  0
   -3.1270   24.9220  -30.0590 O   0  0  0  0  0  0  0  0  0  0  0  0
   -4.4360   24.5280  -30.3850 C   0  0  0  0  0  0  0  0  0  0  0  0
   -5.5460   25.3440  -30.0980 C   0  0  0  0  0  0  0  0  0  0  0  0
   -6.8340   24.9270  -30.4300 C   0  0  0  0  0  0  0  0  0  0  0  0
   -7.0410   23.6880  -31.0370 C   0  0  0  0  0  0  0  0  0  0  0  0
   -5.9490   22.8460  -31.3290 C   0  0  0  0  0  0  0  0  0  0  0  0
   -4.6440   23.2820  -31.0140 C   0  0  0  0  0  0  0  0  0  0  0  0
   -3.4930   22.3780  -31.3740 C   0  0  0  0  0  0  0  0  0  0  0  0
   -3.6720   21.8570  -32.8060 C   0  0  0  0  0  0  0  0  0  0  0  0
   -5.0820   21.2790  -33.0920 C   0  0  0  0  0  0  0  0  0  0  0  0
   -6.1040   21.4520  -31.9340 C   0  0  2  0  0  0  0  0  0  0  0  0
   -7.4980   21.1980  -32.3710 N   0  0  0  0  0  0  0  0  0  0  0  0
   -8.3120   20.3670  -31.4630 C   0  0  0  0  0  0  0  0  0  0  0  0
   -8.2160   18.8550  -31.7800 C   0  0  0  0  0  0  0  0  0  0  0  0
   -6.9660   18.5060  -32.5030 N   0  0  0  0  0  0  0  0  0  0  0  0
   -5.8730   18.1910  -31.5440 C   0  0  0  0  0  0  0  0  0  0  0  0
   -5.7270   16.6720  -31.3260 C   0  0  0  0  0  0  0  0  0  0  0  0
   -5.4310   15.9500  -32.5150 O   0  0  0  0  0  0  0  0  0  0  0  0
   -5.9070   16.5780  -33.6970 C   0  0  0  0  0  0  0  0  0  0  0  0
   -7.1870   17.4040  -33.4760 C   0  0  0  0  0  0  0  0  0  0  0  0
   -2.8951   24.7713  -28.0089 H   0  0  0  0  0  0  0  0  0  0  0  0
   -2.3533   23.3482  -28.9618 H   0  0  0  0  0  0  0  0  0  0  0  0
   -1.3746   24.8544  -28.9618 H   0  0  0  0  0  0  0  0  0  0  0  0
   -5.3962   26.3175  -29.6083 H   0  0  0  0  0  0  0  0  0  0  0  0
   -7.6927   25.5790  -30.2120 H   0  0  0  0  0  0  0  0  0  0  0  0
   -8.0623   23.3664  -31.2891 H   0  0  0  0  0  0  0  0  0  0  0  0
   -2.5506   22.9411  -31.3050 H   0  0  0  0  0  0  0  0  0  0  0  0
   -3.4670   21.5269  -30.6776 H   0  0  0  0  0  0  0  0  0  0  0  0
   -3.4908   22.6889  -33.5025 H   0  0  0  0  0  0  0  0  0  0  0  0
   -2.9559   21.0325  -32.9379 H   0  0  0  0  0  0  0  0  0  0  0  0
   -5.4848   21.7840  -33.9823 H   0  0  0  0  0  0  0  0  0  0  0  0
   -4.9506   20.1956  -33.2300 H   0  0  0  0  0  0  0  0  0  0  0  0
   -5.8872   20.6977  -31.1632 H   0  0  0  0  0  0  0  0  0  0  0  0
   -7.9870   22.1200  -32.4500 H   0  0  0  0  0  0  0  0  0  0  0  0
   -7.9661   20.5319  -30.4319 H   0  0  0  0  0  0  0  0  0  0  0  0
   -9.3624   20.6656  -31.5957 H   0  0  0  0  0  0  0  0  0  0  0  0
   -8.2459   18.2933  -30.8347 H   0  0  0  0  0  0  0  0  0  0  0  0
   -9.0637   18.5944  -32.4308 H   0  0  0  0  0  0  0  0  0  0  0  0
   -6.6660   19.3560  -33.0390 H   0  0  0  0  0  0  0  0  0  0  0  0
   -4.9262   18.5871  -31.9398 H   0  0  0  0  0  0  0  0  0  0  0  0
   -6.1203   18.6543  -30.5774 H   0  0  0  0  0  0  0  0  0  0  0  0
   -4.9144   16.5012  -30.6045 H   0  0  0  0  0  0  0  0  0  0  0  0
   -6.6972   16.3049  -30.9599 H   0  0  0  0  0  0  0  0  0  0  0  0
   -5.1212   17.2473  -34.0772 H   0  0  0  0  0  0  0  0  0  0  0  0
   -6.1544   15.7798  -34.4123 H   0  0  0  0  0  0  0  0  0  0  0  0
   -7.5043   17.8347  -34.4372 H   0  0  0  0  0  0  0  0  0  0  0  0
   -7.9613   16.7366  -33.0699 H   0  0  0  0  0  0  0  0  0  0  0  0
  1  2  1  0
  2  3  1  0
  3  4  2  0
  4  5  1  0
  5  6  2  0
  6  7  1  0
  7  8  2  0
  8  9  1  0
  9 10  1  0
 10 11  1  0
 11 12  1  0
 12 13  1  0
 13 14  1  0
 14 15  1  0
 15 16  1  0
 16 17  1  0
 17 18  1  0
 18 19  1  0
 19 20  1  0
 20 21  1  0
  8  3  1  0
 21 16  1  0
 12  7  1  0
  1 22  1  0
  1 23  1  0
  1 24  1  0
  4 25  1  0
  5 26  1  0
  6 27  1  0
  9 28  1  0
  9 29  1  0
 10 30  1  0
 10 31  1  0
 11 32  1  0
 11 33  1  0
 12 34  1  1
 13 35  1  0
 14 36  1  0
 14 37  1  0
 15 38  1  0
 15 39  1  0
 16 40  1  0
 17 41  1  0
 17 42  1  0
 18 43  1  0
 18 44  1  0
 20 45  1  0
 20 46  1  0
 21 47  1  0
 21 48  1  0
M  CHG  1  16   1
M  END
>  <UniqueID>  (16) 
14

>  <SMILES>  (16) 
COc1cccc2c1CCC[C@@H]2NCC[NH+]1CCOCC1

>  <Energy>  (16) 
74.50901053632307

>  <Genealogy>  (16) 
COc1cccc2c1CCCC2NCC[NH+]1CCOCC1 (protonated)
COc1cccc2c1CCC[C@@H]2NCC[NH+]1CCOCC1 (chirality)
COc1cccc2c1CCC[C@@H]2NCC[NH+]1CCOCC1 (3D coordinates assigned)
COc1cccc2c1CCC[C@@H]2NCC[NH+]1CCOCC1 (nonaromatic ring conformer: 74.50901053632307 kcal/mol)

>  <smiles>  (16) 
COc1cccc2c1CCCC2NCCN1CCOCC1

>  <score_type>  (16) 
oracle

>  <origin>  (16) 
adg

>  <m_score__min__energy>  (16) 
-7.4299999999999997

>  <m_primary>  (16) 
energy

$$$$
16:0
     RDKit          3D

 49 51  0  0  0  0  0  0  0  0999 V2000
   -3.1030   21.5720  -28.2020 C   0  0  0  0  0  0  0  0  0  0  0  0
   -2.0940   22.2230  -29.1450 C   0  0  0  0  0  0  0  0  0  0  0  0
   -2.4130   23.6570  -29.3290 N   0  0  0  0  0  0  0  0  0  0  0  0
   -1.2720   24.5220  -28.9450 C   0  0  0  0  0  0  0  0  0  0  0  0
   -1.5670   25.3290  -27.6820 C   0  0  0  0  0  0  0  0  0  0  0  0
   -3.6990   24.0310  -28.6900 C   0  0  0  0  0  0  0  0  0  0  0  0
   -4.6050   24.9210  -29.5660 C   0  0  0  0  0  0  0  0  0  0  0  0
   -4.6020   24.4590  -30.9170 O   0  0  0  0  0  0  0  0  0  0  0  0
   -5.2720   23.3210  -31.3980 C   0  0  0  0  0  0  0  0  0  0  0  0
   -6.6750   23.2110  -31.3960 C   0  0  0  0  0  0  0  0  0  0  0  0
   -7.2980   22.0570  -31.8820 C   0  0  0  0  0  0  0  0  0  0  0  0
   -8.6260   21.9890  -31.8840 O   0  0  0  0  0  0  0  0  0  0  0  0
   -9.2890   20.9320  -32.3390 C   0  0  0  0  0  0  0  0  0  0  0  0
  -10.5480   20.9300  -32.3160 O   0  0  0  0  0  0  0  0  0  0  0  0
   -8.5990   19.8240  -32.8370 C   0  0  0  0  0  0  0  0  0  0  0  0
   -7.1990   19.8320  -32.8450 C   0  0  0  0  0  0  0  0  0  0  0  0
   -6.4880   18.6280  -33.3340 C   0  0  0  0  0  0  0  0  0  0  0  0
   -5.8010   18.6560  -34.5590 C   0  0  0  0  0  0  0  0  0  0  0  0
   -5.1130   17.5230  -35.0060 C   0  0  0  0  0  0  0  0  0  0  0  0
   -5.0970   16.3610  -34.2300 C   0  0  0  0  0  0  0  0  0  0  0  0
   -5.7680   16.3310  -33.0030 C   0  0  0  0  0  0  0  0  0  0  0  0
   -6.4580   17.4610  -32.5530 C   0  0  0  0  0  0  0  0  0  0  0  0
   -6.5230   20.9810  -32.3720 C   0  0  0  0  0  0  0  0  0  0  0  0
   -5.1210   21.1080  -32.3970 C   0  0  0  0  0  0  0  0  0  0  0  0
   -4.5030   22.2670  -31.9090 C   0  0  0  0  0  0  0  0  0  0  0  0
   -3.1130   22.3810  -31.9300 O   0  0  0  0  0  0  0  0  0  0  0  0
   -2.8071   21.7629  -27.1599 H   0  0  0  0  0  0  0  0  0  0  0  0
   -4.1014   21.9967  -28.3834 H   0  0  0  0  0  0  0  0  0  0  0  0
   -3.1275   20.4873  -28.3834 H   0  0  0  0  0  0  0  0  0  0  0  0
   -1.0847   22.1277  -28.7182 H   0  0  0  0  0  0  0  0  0  0  0  0
   -2.1397   21.7183  -30.1213 H   0  0  0  0  0  0  0  0  0  0  0  0
   -0.3910   23.8887  -28.7643 H   0  0  0  0  0  0  0  0  0  0  0  0
   -1.0903   25.2303  -29.7667 H   0  0  0  0  0  0  0  0  0  0  0  0
   -1.3434   24.7174  -26.7955 H   0  0  0  0  0  0  0  0  0  0  0  0
   -0.9415   26.2337  -27.6705 H   0  0  0  0  0  0  0  0  0  0  0  0
   -2.6286   25.6170  -27.6705 H   0  0  0  0  0  0  0  0  0  0  0  0
   -4.2478   23.1076  -28.4529 H   0  0  0  0  0  0  0  0  0  0  0  0
   -3.4480   24.6193  -27.7950 H   0  0  0  0  0  0  0  0  0  0  0  0
   -5.6324   24.8886  -29.1744 H   0  0  0  0  0  0  0  0  0  0  0  0
   -4.2228   25.9522  -29.5412 H   0  0  0  0  0  0  0  0  0  0  0  0
   -7.2866   24.0394  -31.0091 H   0  0  0  0  0  0  0  0  0  0  0  0
   -9.1509   18.9528  -33.2195 H   0  0  0  0  0  0  0  0  0  0  0  0
   -5.8041   19.5716  -35.1686 H   0  0  0  0  0  0  0  0  0  0  0  0
   -4.5837   17.5468  -35.9700 H   0  0  0  0  0  0  0  0  0  0  0  0
   -4.5570   15.4704  -34.5838 H   0  0  0  0  0  0  0  0  0  0  0  0
   -5.7529   15.4170  -32.3911 H   0  0  0  0  0  0  0  0  0  0  0  0
   -6.9788   17.4358  -31.5845 H   0  0  0  0  0  0  0  0  0  0  0  0
   -4.5061   20.2911  -32.8027 H   0  0  0  0  0  0  0  0  0  0  0  0
   -2.6310   23.1070  -31.4100 H   0  0  0  0  0  0  0  0  0  0  0  0
  1  2  1  0
  2  3  1  0
  3  4  1  0
  4  5  1  0
  3  6  1  0
  6  7  1  0
  7  8  1  0
  8  9  1  0
  9 10  2  0
 10 11  1  0
 11 12  1  0
 12 13  1  0
 13 14  2  0
 13 15  1  0
 15 16  2  0
 16 17  1  0
 17 18  2  0
 18 19  1  0
 19 20  2  0
 20 21  1  0
 21 22  2  0
 16 23  1  0
 23 24  1  0
 24 25  2  0
 25 26  1  0
 25  9  1  0
 23 11  2  0
 22 17  1  0
  1 27  1  0
  1 28  1  0
  1 29  1  0
  2 30  1  0
  2 31  1  0
  4 32  1  0
  4 33  1  0
  5 34  1  0
  5 35  1  0
  5 36  1  0
  6 37  1  0
  6 38  1  0
  7 39  1  0
  7 40  1  0
 10 41  1  0
 15 42  1  0
 18 43  1  0
 19 44  1  0
 20 45  1  0
 21 46  1  0
 22 47  1  0
 24 48  1  0
 26 49  1  0
M  END
>  <UniqueID>  (17) 
15

>  <SMILES>  (17) 
CCN(CC)CCOc1cc2oc(=O)cc(-c3ccccc3)c2cc1O

>  <Energy>  (17) 
63.79290404708805

>  <Genealogy>  (17) 
CCN(CC)CCOc1cc2oc(=O)cc(-c3ccccc3)c2cc1O (3D coordinates assigned)
CCN(CC)CCOc1cc2oc(=O)cc(-c3ccccc3)c2cc1O (optimized conformer: 63.79290404708805 kcal/mol)

>  <smiles>  (17) 
CCN(CC)CCOc1cc2oc(=O)cc(-c3ccccc3)c2cc1O

>  <score_type>  (17) 
oracle

>  <origin>  (17) 
adg

>  <m_score__min__energy>  (17) 
-8.4600000000000009

>  <m_primary>  (17) 
energy

$$$$
17:0
     RDKit          3D

 54 57  0  0  0  0  0  0  0  0999 V2000
   -8.3860   18.1870  -31.9620 C   0  0  0  0  0  0  0  0  0  0  0  0
   -8.7830   19.4110  -31.3530 O   0  0  0  0  0  0  0  0  0  0  0  0
   -8.0650   20.6130  -31.4490 C   0  0  0  0  0  0  0  0  0  0  0  0
   -7.0040   20.6810  -32.3600 C   0  0  0  0  0  0  0  0  0  0  0  0
   -6.2570   21.8550  -32.4930 C   0  0  0  0  0  0  0  0  0  0  0  0
   -6.5670   22.9820  -31.7180 C   0  0  0  0  0  0  0  0  0  0  0  0
   -5.7500   24.2440  -31.8350 C   0  0  0  0  0  0  0  0  0  0  0  0
   -4.6460   24.2530  -30.8510 N   0  0  0  0  0  0  0  0  0  0  0  0
   -3.7430   23.0860  -31.0370 C   0  0  0  0  0  0  0  0  0  0  0  0
   -4.0780   21.9220  -30.0920 C   0  0  0  0  0  0  0  0  0  0  0  0
   -3.9700   22.3410  -28.6000 C   0  0  0  0  0  0  0  0  0  0  0  0
   -2.6290   21.9050  -27.9640 C   0  0  0  0  0  0  0  0  0  0  0  0
   -1.4290   22.6710  -28.5400 C   0  0  0  0  0  0  0  0  0  0  0  0
   -1.0080   23.7180  -27.6140 N   0  0  0  0  0  0  0  0  0  0  0  0
   -0.7550   23.5610  -26.2170 C   0  0  0  0  0  0  0  0  0  0  0  0
   -0.5930   22.4490  -25.6470 O   0  0  0  0  0  0  0  0  0  0  0  0
   -0.7450   24.8620  -25.5590 C   0  0  0  0  0  0  0  0  0  0  0  0
   -0.5360   25.2070  -24.2250 C   0  0  0  0  0  0  0  0  0  0  0  0
   -0.6050   26.5680  -23.8770 C   0  0  0  0  0  0  0  0  0  0  0  0
   -0.8830   27.5450  -24.8580 C   0  0  0  0  0  0  0  0  0  0  0  0
   -1.0940   27.1700  -26.1970 C   0  0  0  0  0  0  0  0  0  0  0  0
   -1.0150   25.8160  -26.5180 C   0  0  0  0  0  0  0  0  0  0  0  0
   -1.2000   25.1250  -27.7880 C   0  0  0  0  0  0  0  0  0  0  0  0
   -1.5090   25.6690  -28.8810 O   0  0  0  0  0  0  0  0  0  0  0  0
   -4.1700   23.8640  -28.4250 C   0  0  0  0  0  0  0  0  0  0  0  0
   -5.1590   24.4040  -29.4630 C   0  0  0  0  0  0  0  0  0  0  0  0
   -7.6260   22.9160  -30.8000 C   0  0  0  0  0  0  0  0  0  0  0  0
   -8.3730   21.7420  -30.6670 C   0  0  0  0  0  0  0  0  0  0  0  0
   -8.1469   17.4497  -31.1814 H   0  0  0  0  0  0  0  0  0  0  0  0
   -9.2065   17.8056  -32.5876 H   0  0  0  0  0  0  0  0  0  0  0  0
   -7.4979   18.3598  -32.5876 H   0  0  0  0  0  0  0  0  0  0  0  0
   -6.7563   19.8038  -32.9758 H   0  0  0  0  0  0  0  0  0  0  0  0
   -5.4225   21.8951  -33.2085 H   0  0  0  0  0  0  0  0  0  0  0  0
   -5.3286   24.3072  -32.8491 H   0  0  0  0  0  0  0  0  0  0  0  0
   -6.4045   25.1053  -31.6357 H   0  0  0  0  0  0  0  0  0  0  0  0
   -3.8324   22.7336  -32.0752 H   0  0  0  0  0  0  0  0  0  0  0  0
   -2.7196   23.4172  -30.8071 H   0  0  0  0  0  0  0  0  0  0  0  0
   -5.1052   21.5841  -30.2935 H   0  0  0  0  0  0  0  0  0  0  0  0
   -3.3534   21.1146  -30.2738 H   0  0  0  0  0  0  0  0  0  0  0  0
   -4.7793   21.8158  -28.0717 H   0  0  0  0  0  0  0  0  0  0  0  0
   -2.6767   22.0872  -26.8802 H   0  0  0  0  0  0  0  0  0  0  0  0
   -2.4837   20.8380  -28.1884 H   0  0  0  0  0  0  0  0  0  0  0  0
   -0.5952   21.9719  -28.7015 H   0  0  0  0  0  0  0  0  0  0  0  0
   -1.7222   23.1325  -29.4945 H   0  0  0  0  0  0  0  0  0  0  0  0
   -0.3236   24.4383  -23.4674 H   0  0  0  0  0  0  0  0  0  0  0  0
   -0.4412   26.8736  -22.8331 H   0  0  0  0  0  0  0  0  0  0  0  0
   -0.9349   28.6062  -24.5731 H   0  0  0  0  0  0  0  0  0  0  0  0
   -1.3148   27.9229  -26.9680 H   0  0  0  0  0  0  0  0  0  0  0  0
   -4.5609   24.0631  -27.4163 H   0  0  0  0  0  0  0  0  0  0  0  0
   -3.2013   24.3660  -28.5654 H   0  0  0  0  0  0  0  0  0  0  0  0
   -6.1062   23.8521  -29.3722 H   0  0  0  0  0  0  0  0  0  0  0  0
   -5.3042   25.4769  -29.2687 H   0  0  0  0  0  0  0  0  0  0  0  0
   -7.8697   23.7926  -30.1818 H   0  0  0  0  0  0  0  0  0  0  0  0
   -9.2048   21.7003  -29.9484 H   0  0  0  0  0  0  0  0  0  0  0  0
  1  2  1  0
  2  3  1  0
  3  4  2  0
  4  5  1  0
  5  6  2  0
  6  7  1  0
  7  8  1  0
  8  9  1  0
  9 10  1  0
 10 11  1  0
 11 12  1  0
 12 13  1  0
 13 14  1  0
 14 15  1  0
 15 16  2  0
 15 17  1  0
 17 18  2  0
 18 19  1  0
 19 20  2  0
 20 21  1  0
 21 22  2  0
 22 23  1  0
 23 24  2  0
 11 25  1  0
 25 26  1  0
  6 27  1  0
 27 28  2  0
 28  3  1  0
 26  8  1  0
 23 14  1  0
 22 17  1  0
  1 29  1  0
  1 30  1  0
  1 31  1  0
  4 32  1  0
  5 33  1  0
  7 34  1  0
  7 35  1  0
  9 36  1  0
  9 37  1  0
 10 38  1  0
 10 39  1  0
 11 40  1  0
 12 41  1  0
 12 42  1  0
 13 43  1  0
 13 44  1  0
 18 45  1  0
 19 46  1  0
 20 47  1  0
 21 48  1  0
 25 49  1  0
 25 50  1  0
 26 51  1  0
 26 52  1  0
 27 53  1  0
 28 54  1  0
M  END
>  <UniqueID>  (18) 
16

>  <SMILES>  (18) 
COc1ccc(CN2CCC(CCN3C(=O)c4ccccc4C3=O)CC2)cc1

>  <Energy>  (18) 
93.39421108737923

>  <Genealogy>  (18) 
COc1ccc(CN2CCC(CCN3C(=O)c4ccccc4C3=O)CC2)cc1 (3D coordinates assigned)
COc1ccc(CN2CCC(CCN3C(=O)c4ccccc4C3=O)CC2)cc1 (nonaromatic ring conformer: 93.39421108737923 kcal/mol)

>  <smiles>  (18) 
COc1ccc(CN2CCC(CCN3C(=O)c4ccccc4C3=O)CC2)cc1

>  <score_type>  (18) 
oracle

>  <origin>  (18) 
adg

>  <m_score__min__energy>  (18) 
-9.6999999999999993

>  <m_primary>  (18) 
energy

$$$$
18:0
     RDKit          3D

 76 81  0  0  0  0  0  0  0  0999 V2000
   -9.1242   18.7359  -31.7381 H   0  0  0  0  0  0  0  0  0  0  0  0
   -8.1600   18.6470  -32.2600 C   0  0  0  0  0  0  0  0  0  0  0  0
   -7.7070   17.4250  -32.6380 N   0  0  0  0  0  0  0  0  0  0  0  0
   -6.5190   17.2700  -33.2810 C   0  0  0  0  0  0  0  0  0  0  0  0
   -6.0930   15.9920  -33.6520 C   0  0  0  0  0  0  0  0  0  0  0  0
   -6.7222   15.1190  -33.4241 H   0  0  0  0  0  0  0  0  0  0  0  0
   -4.8650   15.8140  -34.3150 C   0  0  0  0  0  0  0  0  0  0  0  0
   -4.4090   14.5450  -34.7080 O   0  0  0  0  0  0  0  0  0  0  0  0
   -3.9160   13.5510  -33.8150 C   0  0  0  0  0  0  0  0  0  0  0  0
   -4.0780   13.8776  -32.7772 H   0  0  0  0  0  0  0  0  0  0  0  0
   -4.4492   12.6048  -33.9891 H   0  0  0  0  0  0  0  0  0  0  0  0
   -2.8400   13.4029  -33.9891 H   0  0  0  0  0  0  0  0  0  0  0  0
   -4.0590   16.9270  -34.5990 C   0  0  0  0  0  0  0  0  0  0  0  0
   -2.8330   16.7100  -35.2490 O   0  0  0  0  0  0  0  0  0  0  0  0
   -1.5560   16.9750  -34.6780 C   0  0  0  0  0  0  0  0  0  0  0  0
   -1.6344   16.9587  -33.5809 H   0  0  0  0  0  0  0  0  0  0  0  0
   -0.8410   16.2061  -35.0060 H   0  0  0  0  0  0  0  0  0  0  0  0
   -1.2060   17.9649  -35.0060 H   0  0  0  0  0  0  0  0  0  0  0  0
   -4.4900   18.2160  -34.2300 C   0  0  0  0  0  0  0  0  0  0  0  0
   -3.8596   19.0881  -34.4579 H   0  0  0  0  0  0  0  0  0  0  0  0
   -5.7190   18.3970  -33.5730 C   0  0  0  0  0  0  0  0  0  0  0  0
   -6.1790   19.6760  -33.2040 C   0  0  0  0  0  0  0  0  0  0  0  0
   -5.4010   20.8090  -33.5080 O   0  0  0  0  0  0  0  0  0  0  0  0
   -4.8210   21.6520  -32.5520 C   0  0  0  0  0  0  0  0  0  0  0  0
   -3.4520   21.5310  -32.3110 C   0  0  0  0  0  0  0  0  0  0  0  0
   -2.8593   20.8074  -32.8899 H   0  0  0  0  0  0  0  0  0  0  0  0
   -2.8280   22.3170  -31.3450 C   0  0  0  0  0  0  0  0  0  0  0  0
   -1.7496   22.1999  -31.1625 H   0  0  0  0  0  0  0  0  0  0  0  0
   -3.5580   23.2550  -30.6030 C   0  0  0  0  0  0  0  0  0  0  0  0
   -2.8880   24.0230  -29.5890 N   0  0  0  0  0  0  0  0  0  0  0  0
   -2.0590   24.6000  -29.8560 H   0  0  0  0  0  0  0  0  0  0  0  0
   -3.2590   23.9700  -28.2060 C   0  0  0  0  0  0  0  0  0  0  0  0
   -4.1540   23.1700  -27.8240 O   0  0  0  0  0  0  0  0  0  0  0  0
   -2.6030   24.8480  -27.2770 N   0  0  0  0  0  0  0  0  0  0  0  0
   -1.3610   25.2470  -27.2850 C   0  0  0  0  0  0  0  0  0  0  0  0
   -0.8770   26.4890  -26.9050 C   0  0  0  0  0  0  0  0  0  0  0  0
   -1.4525   27.3732  -26.5935 H   0  0  0  0  0  0  0  0  0  0  0  0
    0.5000   26.3600  -27.0080 C   0  0  0  0  0  0  0  0  0  0  0  0
    1.5250   27.4160  -26.6280 C   0  0  0  0  0  0  0  0  0  0  0  0
    1.7010   27.4190  -25.0990 C   0  0  0  0  0  0  0  0  0  0  0  0
    0.7128   27.4022  -24.6161 H   0  0  0  0  0  0  0  0  0  0  0  0
    2.2733   26.5305  -24.7940 H   0  0  0  0  0  0  0  0  0  0  0  0
    2.2427   28.3265  -24.7940 H   0  0  0  0  0  0  0  0  0  0  0  0
    1.0400   28.8030  -27.0950 C   0  0  0  0  0  0  0  0  0  0  0  0
    0.8210   29.4294  -26.2177 H   0  0  0  0  0  0  0  0  0  0  0  0
    1.8243   29.2811  -27.7002 H   0  0  0  0  0  0  0  0  0  0  0  0
    0.1287   28.6881  -27.7002 H   0  0  0  0  0  0  0  0  0  0  0  0
    2.8840   27.1150  -27.2940 C   0  0  0  0  0  0  0  0  0  0  0  0
    3.6440   26.9467  -26.5167 H   0  0  0  0  0  0  0  0  0  0  0  0
    2.7942   26.2150  -27.9200 H   0  0  0  0  0  0  0  0  0  0  0  0
    3.1826   27.9688  -27.9200 H   0  0  0  0  0  0  0  0  0  0  0  0
    0.8090   25.1070  -27.4080 N   0  0  0  0  0  0  0  0  0  0  0  0
   -0.3200   24.4400  -27.5890 N   0  0  0  0  0  0  0  0  0  0  0  0
   -0.3570   23.0600  -28.0000 C   0  0  0  0  0  0  0  0  0  0  0  0
   -0.1650   22.7270  -29.3520 C   0  0  0  0  0  0  0  0  0  0  0  0
    0.0215   23.5227  -30.0883 H   0  0  0  0  0  0  0  0  0  0  0  0
   -0.2090   21.3940  -29.7690 C   0  0  0  0  0  0  0  0  0  0  0  0
   -0.0499   21.1440  -30.8283 H   0  0  0  0  0  0  0  0  0  0  0  0
   -0.4550   20.3780  -28.8410 C   0  0  0  0  0  0  0  0  0  0  0  0
   -0.4960   19.0530  -29.2560 O   0  0  0  0  0  0  0  0  0  0  0  0
   -0.6650   20.6970  -27.4970 C   0  0  0  0  0  0  0  0  0  0  0  0
   -0.8631   19.8975  -26.7679 H   0  0  0  0  0  0  0  0  0  0  0  0
   -0.6240   22.0310  -27.0760 C   0  0  0  0  0  0  0  0  0  0  0  0
   -0.8011   22.2771  -26.0186 H   0  0  0  0  0  0  0  0  0  0  0  0
   -4.9430   23.4140  -30.8500 C   0  0  0  0  0  0  0  0  0  0  0  0
   -5.7050   24.3770  -30.1560 C   0  0  0  0  0  0  0  0  0  0  0  0
   -5.2264   24.9985  -29.3849 H   0  0  0  0  0  0  0  0  0  0  0  0
   -7.0600   24.5480  -30.4390 C   0  0  0  0  0  0  0  0  0  0  0  0
   -7.6466   25.2917  -29.8797 H   0  0  0  0  0  0  0  0  0  0  0  0
   -7.6740   23.7810  -31.4270 C   0  0  0  0  0  0  0  0  0  0  0  0
   -8.7411   23.9269  -31.6505 H   0  0  0  0  0  0  0  0  0  0  0  0
   -6.9390   22.8280  -32.1340 C   0  0  0  0  0  0  0  0  0  0  0  0
   -7.4281   22.2361  -32.9217 H   0  0  0  0  0  0  0  0  0  0  0  0
   -5.5760   22.6180  -31.8470 C   0  0  0  0  0  0  0  0  0  0  0  0
   -7.4090   19.7910  -32.5300 C   0  0  0  0  0  0  0  0  0  0  0  0
   -7.7768   20.7794  -32.2173 H   0  0  0  0  0  0  0  0  0  0  0  0
  1  2  1  0
  2  3  2  0
  3  4  1  0
  4  5  2  0
  5  6  1  0
  5  7  1  0
  7  8  1  0
  8  9  1  0
  9 10  1  0
  9 11  1  0
  9 12  1  0
  7 13  2  0
 13 14  1  0
 14 15  1  0
 15 16  1  0
 15 17  1  0
 15 18  1  0
 13 19  1  0
 19 20  1  0
 19 21  2  0
 21 22  1  0
 22 23  1  0
 23 24  1  0
 24 25  2  0
 25 26  1  0
 25 27  1  0
 27 28  1  0
 27 29  2  0
 29 30  1  0
 30 31  1  0
 30 32  1  0
 32 33  2  0
 32 34  1  0
 34 35  2  0
 35 36  1  0
 36 37  1  0
 36 38  2  0
 38 39  1  0
 39 40  1  0
 40 41  1  0
 40 42  1  0
 40 43  1  0
 39 44  1  0
 44 45  1  0
 44 46  1  0
 44 47  1  0
 39 48  1  0
 48 49  1  0
 48 50  1  0
 48 51  1  0
 38 52  1  0
 52 53  1  0
 53 54  1  0
 54 55  2  0
 55 56  1  0
 55 57  1  0
 57 58  1  0
 57 59  2  0
 59 60  1  0
 59 61  1  0
 61 62  1  0
 61 63  2  0
 63 64  1  0
 29 65  1  0
 65 66  2  0
 66 67  1  0
 66 68  1  0
 68 69  1  0
 68 70  2  0
 70 71  1  0
 70 72  1  0
 72 73  1  0
 72 74  2  0
 22 75  2  0
 75 76  1  0
 75  2  1  0
 21  4  1  0
 74 24  1  0
 53 35  1  0
 63 54  1  0
 74 65  1  0
M  CHG  2  52  -1  60  -1
M  END
>  <UniqueID>  (19) 
17

>  <SMILES>  (19) 
COc1cc2nccc(Oc3ccc(NC(=O)/N=c4\cc(C(C)(C)C)[n-]n4-c4ccc([O-])cc4)c4ccccc34)c2cc1OC

>  <Energy>  (19) 
140.93500116508605

>  <Genealogy>  (19) 
COc1cc2nccc(Oc3ccc(NC(=O)N=c4cc(C(C)(C)C)[n-]n4-c4ccc([O-])cc4)c4ccccc34)c2cc1OC (protonated)
COc1cc2nccc(Oc3ccc(NC(=O)/N=c4\cc(C(C)(C)C)[n-]n4-c4ccc([O-])cc4)c4ccccc34)c2cc1OC (cis-trans isomerization)
COc1cc2nccc(Oc3ccc(NC(=O)/N=c4\cc(C(C)(C)C)[n-]n4-c4ccc([O-])cc4)c4ccccc34)c2cc1OC (3D coordinates assigned)
COc1cc2nccc(Oc3ccc(NC(=O)/N=c4\cc(C(C)(C)C)[n-]n4-c4ccc([O-])cc4)c4ccccc34)c2cc1OC (optimized conformer: 140.93500116508605 kcal/mol)

>  <smiles>  (19) 
COc1cc2nccc(Oc3ccc(NC(=O)N=c4cc(C(C)(C)C)[nH]n4-c4ccc(O)cc4)c4ccccc34)c2cc1OC

>  <score_type>  (19) 
oracle

>  <origin>  (19) 
adg

>  <m_score__min__energy>  (19) 
-10.640000000000001

>  <m_primary>  (19) 
energy

$$$$
19:0
     RDKit          3D

 40 42  0  0  0  0  0  0  0  0999 V2000
   -7.0190   23.2410  -29.7210 C   0  0  0  0  0  0  0  0  0  0  0  0
   -7.2280   23.9550  -31.0630 C   0  0  2  0  0  0  0  0  0  0  0  0
   -8.1460   23.1600  -31.9760 C   0  0  0  0  0  0  0  0  0  0  0  0
   -6.6890   23.3580  -32.3710 C   0  0  2  0  0  0  0  0  0  0  0  0
   -5.8500   22.1510  -32.2410 N   0  0  0  0  0  0  0  0  0  0  0  0
   -6.6120   21.0880  -31.5480 C   0  0  0  0  0  0  0  0  0  0  0  0
   -6.5820   19.8160  -32.3470 C   0  0  0  0  0  0  0  0  0  0  0  0
   -5.8360   19.7600  -33.5350 C   0  0  0  0  0  0  0  0  0  0  0  0
   -5.7960   18.5840  -34.2900 C   0  0  0  0  0  0  0  0  0  0  0  0
   -6.4880   17.4490  -33.8540 C   0  0  0  0  0  0  0  0  0  0  0  0
   -6.4460   16.3100  -34.5870 F   0  0  0  0  0  0  0  0  0  0  0  0
   -7.2270   17.4900  -32.6660 C   0  0  0  0  0  0  0  0  0  0  0  0
   -7.2790   18.6710  -31.9130 C   0  0  0  0  0  0  0  0  0  0  0  0
   -4.4360   22.5420  -31.2820 S   0  0  0  0  0  0  0  0  0  0  0  0
   -4.5880   21.9530  -29.9090 O   0  0  0  0  0  0  0  0  0  0  0  0
   -4.3070   24.0350  -31.1470 O   0  0  0  0  0  0  0  0  0  0  0  0
   -2.9680   21.8780  -31.9900 C   0  0  0  0  0  0  0  0  0  0  0  0
   -2.9700   21.3760  -33.2990 C   0  0  0  0  0  0  0  0  0  0  0  0
   -1.8060   20.8200  -33.8410 C   0  0  0  0  0  0  0  0  0  0  0  0
   -0.6360   20.7630  -33.0770 C   0  0  0  0  0  0  0  0  0  0  0  0
    0.8200   20.0670  -33.7630 Cl  0  0  0  0  0  0  0  0  0  0  0  0
   -0.6300   21.2660  -31.7700 C   0  0  0  0  0  0  0  0  0  0  0  0
   -1.7930   21.8220  -31.2280 C   0  0  0  0  0  0  0  0  0  0  0  0
   -7.2239   23.9409  -28.8975 H   0  0  0  0  0  0  0  0  0  0  0  0
   -7.7036   22.3828  -29.6517 H   0  0  0  0  0  0  0  0  0  0  0  0
   -5.9797   22.8874  -29.6517 H   0  0  0  0  0  0  0  0  0  0  0  0
   -7.1421   24.9662  -30.6386 H   0  0  0  0  0  0  0  0  0  0  0  0
   -8.4998   22.1655  -31.6666 H   0  0  0  0  0  0  0  0  0  0  0  0
   -9.1132   23.3557  -32.4620 H   0  0  0  0  0  0  0  0  0  0  0  0
   -6.1524   23.7638  -33.2413 H   0  0  0  0  0  0  0  0  0  0  0  0
   -6.1637   20.9061  -30.5601 H   0  0  0  0  0  0  0  0  0  0  0  0
   -7.6566   21.4137  -31.4350 H   0  0  0  0  0  0  0  0  0  0  0  0
   -5.2798   20.6465  -33.8737 H   0  0  0  0  0  0  0  0  0  0  0  0
   -5.2204   18.5512  -35.2268 H   0  0  0  0  0  0  0  0  0  0  0  0
   -7.7671   16.5951  -32.3232 H   0  0  0  0  0  0  0  0  0  0  0  0
   -7.8645   18.7040  -30.9824 H   0  0  0  0  0  0  0  0  0  0  0  0
   -3.8892   21.4193  -33.9016 H   0  0  0  0  0  0  0  0  0  0  0  0
   -1.8112   20.4275  -34.8686 H   0  0  0  0  0  0  0  0  0  0  0  0
    0.2904   21.2237  -31.1692 H   0  0  0  0  0  0  0  0  0  0  0  0
   -1.7856   22.2164  -30.2011 H   0  0  0  0  0  0  0  0  0  0  0  0
  1  2  1  0
  2  3  1  0
  3  4  1  0
  4  5  1  0
  5  6  1  0
  6  7  1  0
  7  8  2  0
  8  9  1  0
  9 10  2  0
 10 11  1  0
 10 12  1  0
 12 13  2  0
  5 14  1  0
 14 15  2  0
 14 16  2  0
 14 17  1  0
 17 18  2  0
 18 19  1  0
 19 20  2  0
 20 21  1  0
 20 22  1  0
 22 23  2  0
  4  2  1  0
 13  7  1  0
 23 17  1  0
  1 24  1  0
  1 25  1  0
  1 26  1  0
  2 27  1  1
  3 28  1  0
  3 29  1  0
  4 30  1  6
  6 31  1  0
  6 32  1  0
  8 33  1  0
  9 34  1  0
 12 35  1  0
 13 36  1  0
 18 37  1  0
 19 38  1  0
 22 39  1  0
 23 40  1  0
M  END
>  <UniqueID>  (20) 
18

>  <SMILES>  (20) 
C[C@@H]1C[C@@H]1N(Cc1ccc(F)cc1)S(=O)(=O)c1ccc(Cl)cc1

>  <Energy>  (20) 
306.9012117081476

>  <Genealogy>  (20) 
C[C@@H]1C[C@@H]1N(Cc1ccc(F)cc1)S(=O)(=O)c1ccc(Cl)cc1 (chirality)
C[C@@H]1C[C@@H]1N(Cc1ccc(F)cc1)S(=O)(=O)c1ccc(Cl)cc1 (3D coordinates assigned)
C[C@@H]1C[C@@H]1N(Cc1ccc(F)cc1)S(=O)(=O)c1ccc(Cl)cc1 (nonaromatic ring conformer: 306.9012117081476 kcal/mol)

>  <smiles>  (20) 
CC1CC1N(Cc1ccc(F)cc1)S(=O)(=O)c1ccc(Cl)cc1

>  <score_type>  (20) 
oracle

>  <origin>  (20) 
adg

>  <m_score__min__energy>  (20) 
-8.3000000000000007

>  <m_primary>  (20) 
energy

$$$$
20:0
     RDKit          3D

 56 59  0  0  0  0  0  0  0  0999 V2000
   -3.7019   24.9324  -25.4038 H   0  0  0  0  0  0  0  0  0  0  0  0
   -3.3590   24.9290  -26.4490 C   0  0  0  0  0  0  0  0  0  0  0  0
   -2.0880   25.3010  -26.7460 N   0  0  0  0  0  0  0  0  0  0  0  0
   -1.6430   25.3000  -28.0290 C   0  0  0  0  0  0  0  0  0  0  0  0
   -0.4210   25.6620  -28.2800 N   0  0  0  0  0  0  0  0  0  0  0  0
    0.7230   25.2810  -27.4610 C   0  0  0  0  0  0  0  0  0  0  0  0
    0.4579   25.3693  -26.3971 H   0  0  0  0  0  0  0  0  0  0  0  0
    1.0034   24.2410  -27.6839 H   0  0  0  0  0  0  0  0  0  0  0  0
    1.5710   25.9452  -27.6839 H   0  0  0  0  0  0  0  0  0  0  0  0
   -2.4820   24.9250  -29.0340 N   0  0  0  0  0  0  0  0  0  0  0  0
   -3.7660   24.5490  -28.7900 C   0  0  0  0  0  0  0  0  0  0  0  0
   -4.6400   24.1820  -29.9310 C   0  0  0  0  0  0  0  0  0  0  0  0
   -5.9880   24.5840  -29.9370 C   0  0  0  0  0  0  0  0  0  0  0  0
   -6.3720   25.2184  -29.1246 H   0  0  0  0  0  0  0  0  0  0  0  0
   -6.8420   24.1840  -30.9660 C   0  0  0  0  0  0  0  0  0  0  0  0
   -7.8880   24.5243  -30.9742 H   0  0  0  0  0  0  0  0  0  0  0  0
   -6.3720   23.3530  -31.9850 C   0  0  0  0  0  0  0  0  0  0  0  0
   -7.0495   23.0407  -32.7934 H   0  0  0  0  0  0  0  0  0  0  0  0
   -5.0400   22.9150  -31.9820 C   0  0  0  0  0  0  0  0  0  0  0  0
   -4.5600   21.9370  -33.0320 C   0  0  0  0  0  0  0  0  0  0  0  0
   -5.3323   21.8484  -33.8103 H   0  0  0  0  0  0  0  0  0  0  0  0
   -3.6149   22.3240  -33.4408 H   0  0  0  0  0  0  0  0  0  0  0  0
   -4.2890   20.5830  -32.4720 N   0  0  0  0  0  0  0  0  0  0  0  0
   -4.7250   20.5220  -31.5230 H   0  0  0  0  0  0  0  0  0  0  0  0
   -4.9730   19.5300  -33.2690 C   0  0  0  0  0  0  0  0  0  0  0  0
   -4.9441   19.8247  -34.3284 H   0  0  0  0  0  0  0  0  0  0  0  0
   -4.4387   18.5880  -33.0762 H   0  0  0  0  0  0  0  0  0  0  0  0
   -6.4210   19.3010  -32.8770 C   0  0  0  0  0  0  0  0  0  0  0  0
   -7.3760   20.3170  -33.0550 C   0  0  0  0  0  0  0  0  0  0  0  0
   -7.0727   21.2837  -33.4834 H   0  0  0  0  0  0  0  0  0  0  0  0
   -8.7080   20.1060  -32.6910 C   0  0  0  0  0  0  0  0  0  0  0  0
   -9.4498   20.9051  -32.8364 H   0  0  0  0  0  0  0  0  0  0  0  0
   -9.1000   18.8830  -32.1430 C   0  0  0  0  0  0  0  0  0  0  0  0
  -10.1505   18.7172  -31.8619 H   0  0  0  0  0  0  0  0  0  0  0  0
   -8.1570   17.8700  -31.9520 C   0  0  0  0  0  0  0  0  0  0  0  0
   -8.4660   16.9064  -31.5208 H   0  0  0  0  0  0  0  0  0  0  0  0
   -6.8210   18.0790  -32.3080 C   0  0  0  0  0  0  0  0  0  0  0  0
   -6.0794   17.2837  -32.1421 H   0  0  0  0  0  0  0  0  0  0  0  0
   -2.8350   20.2860  -32.3410 C   0  0  0  0  0  0  0  0  0  0  0  0
   -2.7009   19.1942  -32.3472 H   0  0  0  0  0  0  0  0  0  0  0  0
   -2.3281   20.7739  -33.1865 H   0  0  0  0  0  0  0  0  0  0  0  0
   -2.2160   20.8380  -31.0720 C   0  0  0  0  0  0  0  0  0  0  0  0
   -2.7960   20.5540  -29.8220 C   0  0  0  0  0  0  0  0  0  0  0  0
   -3.7089   19.9426  -29.7686 H   0  0  0  0  0  0  0  0  0  0  0  0
   -2.2180   21.0450  -28.6470 C   0  0  0  0  0  0  0  0  0  0  0  0
   -2.6693   20.8077  -27.6723 H   0  0  0  0  0  0  0  0  0  0  0  0
   -1.0690   21.8360  -28.7090 C   0  0  0  0  0  0  0  0  0  0  0  0
   -0.6045   22.2052  -27.7828 H   0  0  0  0  0  0  0  0  0  0  0  0
   -0.5100   22.1580  -29.9470 C   0  0  0  0  0  0  0  0  0  0  0  0
    0.3871   22.7928  -29.9950 H   0  0  0  0  0  0  0  0  0  0  0  0
   -1.0870   21.6760  -31.1270 C   0  0  0  0  0  0  0  0  0  0  0  0
   -0.6567   21.9530  -32.1007 H   0  0  0  0  0  0  0  0  0  0  0  0
   -4.1700   23.3610  -30.9750 C   0  0  0  0  0  0  0  0  0  0  0  0
   -3.1105   23.0666  -31.0012 H   0  0  0  0  0  0  0  0  0  0  0  0
   -4.2300   24.5430  -27.4650 C   0  0  0  0  0  0  0  0  0  0  0  0
   -5.2616   24.2393  -27.2337 H   0  0  0  0  0  0  0  0  0  0  0  0
  1  2  1  0
  2  3  1  0
  3  4  1  0
  4  5  2  0
  5  6  1  0
  6  7  1  0
  6  8  1  0
  6  9  1  0
  4 10  1  0
 10 11  2  0
 11 12  1  0
 12 13  2  0
 13 14  1  0
 13 15  1  0
 15 16  1  0
 15 17  2  0
 17 18  1  0
 17 19  1  0
 19 20  1  0
 20 21  1  0
 20 22  1  0
 20 23  1  0
 23 24  1  0
 23 25  1  0
 25 26  1  0
 25 27  1  0
 25 28  1  0
 28 29  2  0
 29 30  1  0
 29 31  1  0
 31 32  1  0
 31 33  2  0
 33 34  1  0
 33 35  1  0
 35 36  1  0
 35 37  2  0
 37 38  1  0
 23 39  1  0
 39 40  1  0
 39 41  1  0
 39 42  1  0
 42 43  2  0
 43 44  1  0
 43 45  1  0
 45 46  1  0
 45 47  2  0
 47 48  1  0
 47 49  1  0
 49 50  1  0
 49 51  2  0
 51 52  1  0
 19 53  2  0
 53 54  1  0
 11 55  1  0
 55 56  1  0
 55  2  2  0
 53 12  1  0
 37 28  1  0
 51 42  1  0
M  CHG  2   3  -1  23   1
M  END
>  <UniqueID>  (21) 
19

>  <SMILES>  (21) 
C/N=c1\nc(-c2cccc(C[NH+](Cc3ccccc3)Cc3ccccc3)c2)cc[n-]1

>  <Energy>  (21) 
66.18262374826064

>  <Genealogy>  (21) 
CN=c1nc(-c2cccc(C[NH+](Cc3ccccc3)Cc3ccccc3)c2)cc[n-]1 (protonated)
C/N=c1\nc(-c2cccc(C[NH+](Cc3ccccc3)Cc3ccccc3)c2)cc[n-]1 (cis-trans isomerization)
C/N=c1\nc(-c2cccc(C[NH+](Cc3ccccc3)Cc3ccccc3)c2)cc[n-]1 (3D coordinates assigned)
C/N=c1\nc(-c2cccc(C[NH+](Cc3ccccc3)Cc3ccccc3)c2)cc[n-]1 (optimized conformer: 66.18262374826064 kcal/mol)

>  <smiles>  (21) 
CN=c1nc(-c2cccc(CN(Cc3ccccc3)Cc3ccccc3)c2)cc[nH]1

>  <score_type>  (21) 
oracle

>  <origin>  (21) 
adg

>  <m_score__min__energy>  (21) 
-10.49

>  <m_primary>  (21) 
energy

$$$$
21:0
     RDKit          3D

 49 50  0  0  0  0  0  0  0  0999 V2000
   -3.5336   21.5573  -29.1071 H   0  0  0  0  0  0  0  0  0  0  0  0
   -3.3920   22.2260  -29.9690 C   0  0  0  0  0  0  0  0  0  0  0  0
   -3.5630   23.5490  -29.7640 C   0  0  0  0  0  0  0  0  0  0  0  0
   -4.3670   24.4120  -30.6640 C   0  0  0  0  0  0  0  0  0  0  0  0
   -4.2200   25.6650  -30.6420 O   0  0  0  0  0  0  0  0  0  0  0  0
   -5.2500   23.8270  -31.5800 O   0  0  0  0  0  0  0  0  0  0  0  0
   -6.5780   23.4290  -31.2420 C   0  0  0  0  0  0  0  0  0  0  0  0
   -7.1927   24.3289  -31.0924 H   0  0  0  0  0  0  0  0  0  0  0  0
   -6.5319   22.8259  -30.3232 H   0  0  0  0  0  0  0  0  0  0  0  0
   -7.2130   22.5700  -32.3480 C   0  0  0  0  0  0  0  0  0  0  0  0
   -6.7186   22.7957  -33.3044 H   0  0  0  0  0  0  0  0  0  0  0  0
   -8.2860   22.8074  -32.3968 H   0  0  0  0  0  0  0  0  0  0  0  0
   -7.0690   21.1240  -32.0610 N   0  0  0  0  0  0  0  0  0  0  0  0
   -8.2080   20.5960  -31.2670 C   0  0  0  0  0  0  0  0  0  0  0  0
   -7.9368   20.5825  -30.2010 H   0  0  0  0  0  0  0  0  0  0  0  0
   -8.4434   19.5739  -31.5985 H   0  0  0  0  0  0  0  0  0  0  0  0
   -9.4260   21.4890  -31.4700 C   0  0  0  0  0  0  0  0  0  0  0  0
   -9.8305   21.7856  -30.4910 H   0  0  0  0  0  0  0  0  0  0  0  0
   -9.1323   22.3874  -32.0328 H   0  0  0  0  0  0  0  0  0  0  0  0
  -10.1944   20.9387  -32.0328 H   0  0  0  0  0  0  0  0  0  0  0  0
   -6.8770   20.3610  -33.3170 C   0  0  0  0  0  0  0  0  0  0  0  0
   -7.7161   20.5707  -33.9966 H   0  0  0  0  0  0  0  0  0  0  0  0
   -5.9245   20.6706  -33.7719 H   0  0  0  0  0  0  0  0  0  0  0  0
   -6.8190   18.8570  -33.0440 C   0  0  0  0  0  0  0  0  0  0  0  0
   -6.8122   18.6814  -31.9581 H   0  0  0  0  0  0  0  0  0  0  0  0
   -7.6990   18.3694  -33.4888 H   0  0  0  0  0  0  0  0  0  0  0  0
   -5.9041   18.4386  -33.4888 H   0  0  0  0  0  0  0  0  0  0  0  0
   -2.9890   24.1540  -28.5440 C   0  0  0  0  0  0  0  0  0  0  0  0
   -3.8230   24.5170  -27.4740 C   0  0  0  0  0  0  0  0  0  0  0  0
   -4.9082   24.3516  -27.5446 H   0  0  0  0  0  0  0  0  0  0  0  0
   -3.2790   25.0880  -26.3190 C   0  0  0  0  0  0  0  0  0  0  0  0
   -3.9362   25.3660  -25.4818 H   0  0  0  0  0  0  0  0  0  0  0  0
   -1.9010   25.3060  -26.2270 C   0  0  0  0  0  0  0  0  0  0  0  0
   -1.2210   26.0240  -24.7780 Cl  0  0  0  0  0  0  0  0  0  0  0  0
   -1.0650   24.9560  -27.2930 C   0  0  0  0  0  0  0  0  0  0  0  0
    0.0186   25.1315  -27.2221 H   0  0  0  0  0  0  0  0  0  0  0  0
   -1.6060   24.3830  -28.4490 C   0  0  0  0  0  0  0  0  0  0  0  0
   -0.9465   24.1109  -29.2862 H   0  0  0  0  0  0  0  0  0  0  0  0
   -3.0290   21.6040  -31.2620 C   0  0  0  0  0  0  0  0  0  0  0  0
   -1.7260   21.1330  -31.4980 C   0  0  0  0  0  0  0  0  0  0  0  0
   -0.9461   21.2529  -30.7316 H   0  0  0  0  0  0  0  0  0  0  0  0
   -1.4290   20.5120  -32.7120 C   0  0  0  0  0  0  0  0  0  0  0  0
   -0.4080   20.1560  -32.9141 H   0  0  0  0  0  0  0  0  0  0  0  0
   -2.4300   20.3440  -33.6680 C   0  0  0  0  0  0  0  0  0  0  0  0
   -2.2042   19.8612  -34.6303 H   0  0  0  0  0  0  0  0  0  0  0  0
   -3.7220   20.7950  -33.3910 C   0  0  0  0  0  0  0  0  0  0  0  0
   -4.5206   20.6613  -34.1356 H   0  0  0  0  0  0  0  0  0  0  0  0
   -3.9970   21.4000  -32.2020 N   0  0  0  0  0  0  0  0  0  0  0  0
   -4.9750   21.7220  -32.0200 H   0  0  0  0  0  0  0  0  0  0  0  0
  1  2  1  0
  2  3  2  0
  3  4  1  0
  4  5  2  0
  4  6  1  0
  6  7  1  0
  7  8  1  0
  7  9  1  0
  7 10  1  0
 10 11  1  0
 10 12  1  0
 10 13  1  0
 13 14  1  0
 14 15  1  0
 14 16  1  0
 14 17  1  0
 17 18  1  0
 17 19  1  0
 17 20  1  0
 13 21  1  0
 21 22  1  0
 21 23  1  0
 21 24  1  0
 24 25  1  0
 24 26  1  0
 24 27  1  0
  3 28  1  0
 28 29  2  0
 29 30  1  0
 29 31  1  0
 31 32  1  0
 31 33  2  0
 33 34  1  0
 33 35  1  0
 35 36  1  0
 35 37  2  0
 37 38  1  0
  2 39  1  0
 39 40  2  0
 40 41  1  0
 40 42  1  0
 42 43  1  0
 42 44  2  0
 44 45  1  0
 44 46  1  0
 46 47  1  0
 46 48  2  0
 48 49  1  0
 37 28  1  0
 48 39  1  0
M  CHG  1  48   1
M  END
>  <UniqueID>  (22) 
20

>  <SMILES>  (22) 
CCN(CC)CCOC(=O)/C(=C\c1cccc[nH+]1)c1ccc(Cl)cc1

>  <Energy>  (22) 
60.13156513118498

>  <Genealogy>  (22) 
CCN(CC)CCOC(=O)C(=Cc1cccc[nH+]1)c1ccc(Cl)cc1 (protonated)
CCN(CC)CCOC(=O)/C(=C\c1cccc[nH+]1)c1ccc(Cl)cc1 (cis-trans isomerization)
CCN(CC)CCOC(=O)/C(=C\c1cccc[nH+]1)c1ccc(Cl)cc1 (3D coordinates assigned)
CCN(CC)CCOC(=O)/C(=C\c1cccc[nH+]1)c1ccc(Cl)cc1 (optimized conformer: 60.13156513118498 kcal/mol)

>  <smiles>  (22) 
CCN(CC)CCOC(=O)C(=Cc1ccccn1)c1ccc(Cl)cc1

>  <score_type>  (22) 
oracle

>  <origin>  (22) 
adg

>  <m_score__min__energy>  (22) 
-7.71

>  <m_primary>  (22) 
energy

$$$$
22:0
     RDKit          3D

 40 40  0  0  0  0  0  0  0  0999 V2000
   -6.1200   25.5250  -29.7850 C   0  0  0  0  0  0  0  0  0  0  0  0
   -4.9780   25.1400  -30.7280 C   0  0  0  0  0  0  0  0  0  0  0  0
   -4.1830   23.9830  -30.2620 N   0  0  0  0  0  0  0  0  0  0  0  0
   -4.6630   23.3530  -29.0050 C   0  0  0  0  0  0  0  0  0  0  0  0
   -3.8580   23.7190  -27.7500 C   0  0  0  0  0  0  0  0  0  0  0  0
   -3.7480   23.0700  -31.3410 C   0  0  0  0  0  0  0  0  0  0  0  0
   -4.8910   22.2010  -31.7990 C   0  0  0  0  0  0  0  0  0  0  0  0
   -4.6330   20.9990  -32.4740 C   0  0  0  0  0  0  0  0  0  0  0  0
   -5.6850   20.1870  -32.8990 C   0  0  0  0  0  0  0  0  0  0  0  0
   -7.0170   20.5690  -32.6750 C   0  0  0  0  0  0  0  0  0  0  0  0
   -8.1310   19.6450  -33.0930 C   0  0  0  0  0  0  0  0  0  0  0  0
   -8.6390   18.5160  -31.6050 Br  0  0  0  0  0  0  0  0  0  0  0  0
   -7.2830   21.7780  -31.9980 C   0  0  0  0  0  0  0  0  0  0  0  0
   -8.6320   22.1890  -31.7300 N   0  0  0  0  0  0  0  0  0  0  0  0
   -9.1090   23.4430  -32.3110 C   0  0  0  0  0  0  0  0  0  0  0  0
   -9.3060   21.6630  -30.5460 C   0  0  0  0  0  0  0  0  0  0  0  0
   -6.2200   22.5890  -31.5740 C   0  0  0  0  0  0  0  0  0  0  0  0
   -5.7880   25.4131  -28.7423 H   0  0  0  0  0  0  0  0  0  0  0  0
   -6.4095   26.5704  -29.9674 H   0  0  0  0  0  0  0  0  0  0  0  0
   -6.9834   24.8683  -29.9674 H   0  0  0  0  0  0  0  0  0  0  0  0
   -5.4076   24.8926  -31.7100 H   0  0  0  0  0  0  0  0  0  0  0  0
   -4.2949   26.0011  -30.7720 H   0  0  0  0  0  0  0  0  0  0  0  0
   -5.7061   23.6628  -28.8442 H   0  0  0  0  0  0  0  0  0  0  0  0
   -4.5470   22.2675  -29.1402 H   0  0  0  0  0  0  0  0  0  0  0  0
   -4.4375   23.4555  -26.8529 H   0  0  0  0  0  0  0  0  0  0  0  0
   -2.9081   23.1642  -27.7489 H   0  0  0  0  0  0  0  0  0  0  0  0
   -3.6516   24.7995  -27.7489 H   0  0  0  0  0  0  0  0  0  0  0  0
   -3.3835   23.6646  -32.1916 H   0  0  0  0  0  0  0  0  0  0  0  0
   -2.9462   22.4237  -30.9545 H   0  0  0  0  0  0  0  0  0  0  0  0
   -3.5943   20.6944  -32.6697 H   0  0  0  0  0  0  0  0  0  0  0  0
   -5.4687   19.2394  -33.4140 H   0  0  0  0  0  0  0  0  0  0  0  0
   -8.9989   20.2405  -33.4126 H   0  0  0  0  0  0  0  0  0  0  0  0
   -7.7869   19.0148  -33.9263 H   0  0  0  0  0  0  0  0  0  0  0  0
   -9.3751   24.1427  -31.5050 H   0  0  0  0  0  0  0  0  0  0  0  0
   -8.3159   23.8842  -32.9326 H   0  0  0  0  0  0  0  0  0  0  0  0
   -9.9948   23.2456  -32.9326 H   0  0  0  0  0  0  0  0  0  0  0  0
   -8.8124   22.0482  -29.6416 H   0  0  0  0  0  0  0  0  0  0  0  0
  -10.3592   21.9803  -30.5523 H   0  0  0  0  0  0  0  0  0  0  0  0
   -9.2541   20.5642  -30.5523 H   0  0  0  0  0  0  0  0  0  0  0  0
   -6.4307   23.5385  -31.0601 H   0  0  0  0  0  0  0  0  0  0  0  0
  1  2  1  0
  2  3  1  0
  3  4  1  0
  4  5  1  0
  3  6  1  0
  6  7  1  0
  7  8  2  0
  8  9  1  0
  9 10  2  0
 10 11  1  0
 11 12  1  0
 10 13  1  0
 13 14  1  0
 14 15  1  0
 14 16  1  0
 13 17  2  0
 17  7  1  0
  1 18  1  0
  1 19  1  0
  1 20  1  0
  2 21  1  0
  2 22  1  0
  4 23  1  0
  4 24  1  0
  5 25  1  0
  5 26  1  0
  5 27  1  0
  6 28  1  0
  6 29  1  0
  8 30  1  0
  9 31  1  0
 11 32  1  0
 11 33  1  0
 15 34  1  0
 15 35  1  0
 15 36  1  0
 16 37  1  0
 16 38  1  0
 16 39  1  0
 17 40  1  0
M  END
>  <UniqueID>  (23) 
21

>  <SMILES>  (23) 
CCN(CC)Cc1ccc(CBr)c(N(C)C)c1

>  <Energy>  (23) 
45.68532451573928

>  <Genealogy>  (23) 
CCN(CC)Cc1ccc(CBr)c(N(C)C)c1 (3D coordinates assigned)
CCN(CC)Cc1ccc(CBr)c(N(C)C)c1 (optimized conformer: 45.68532451573928 kcal/mol)

>  <smiles>  (23) 
CCN(CC)Cc1ccc(CBr)c(N(C)C)c1

>  <score_type>  (23) 
oracle

>  <origin>  (23) 
adg

>  <m_score__min__energy>  (23) 
-6.4800000000000004

>  <m_primary>  (23) 
energy

$$$$
23:0
     RDKit          3D

 41 42  0  0  1  0  0  0  0  0999 V2000
   -3.6090   24.1600  -29.8420 C   0  0  0  0  0  0  0  0  0  0  0  0
   -3.8570   25.2920  -30.5560 O   0  0  0  0  0  0  0  0  0  0  0  0
   -5.1580   25.7050  -30.4680 C   0  0  0  0  0  0  0  0  0  0  0  0
   -6.1050   24.5700  -30.5940 C   0  0  0  0  0  0  0  0  0  0  0  0
   -5.9650   23.9780  -31.8840 N   0  0  0  0  0  0  0  0  0  0  0  0
   -6.3260   22.7900  -32.1410 C   0  0  0  0  0  0  0  0  0  0  0  0
   -7.6150   22.3560  -31.9380 C   0  0  0  0  0  0  0  0  0  0  0  0
   -7.9110   21.0630  -32.2430 C   0  0  0  0  0  0  0  0  0  0  0  0
   -9.2810   20.5620  -32.0400 C   0  0  0  0  0  0  0  0  0  0  0  0
   -6.9500   20.2420  -32.7310 N   0  0  0  0  0  0  0  0  0  0  0  0
   -5.6900   20.6350  -32.9380 C   0  0  0  0  0  0  0  0  0  0  0  0
   -4.6140   19.8220  -33.4520 C   0  0  0  0  0  0  0  0  0  0  0  0
   -3.2550   20.0150  -33.4920 C   0  0  0  0  0  0  0  0  0  0  0  0
   -2.5010   21.1830  -32.9870 C   0  0  0  0  0  0  0  0  0  0  0  0
   -2.7040   18.9170  -34.0920 N   0  0  0  0  0  0  0  0  0  0  0  0
   -3.6270   18.0560  -34.4280 N   0  0  0  0  0  0  0  0  0  0  0  0
   -3.4400   16.7630  -35.0900 C   0  0  0  0  0  0  0  0  0  0  0  0
   -4.8050   18.5740  -34.0530 C   0  0  0  0  0  0  0  0  0  0  0  0
   -6.1140   17.8750  -34.2700 C   0  0  0  0  0  0  0  0  0  0  0  0
   -5.4250   21.9350  -32.6230 N   0  0  0  0  0  0  0  0  0  0  0  0
   -3.6586   24.3865  -28.7667 H   0  0  0  0  0  0  0  0  0  0  0  0
   -4.3613   23.3971  -30.0911 H   0  0  0  0  0  0  0  0  0  0  0  0
   -2.6066   23.7816  -30.0911 H   0  0  0  0  0  0  0  0  0  0  0  0
   -5.3123   26.1912  -29.4934 H   0  0  0  0  0  0  0  0  0  0  0  0
   -5.3514   26.4055  -31.2937 H   0  0  0  0  0  0  0  0  0  0  0  0
   -5.8843   23.8201  -29.8200 H   0  0  0  0  0  0  0  0  0  0  0  0
   -7.1350   24.9346  -30.4666 H   0  0  0  0  0  0  0  0  0  0  0  0
   -8.3845   23.0342  -31.5406 H   0  0  0  0  0  0  0  0  0  0  0  0
   -9.4878   20.4864  -30.9623 H   0  0  0  0  0  0  0  0  0  0  0  0
   -9.9977   21.2562  -32.5031 H   0  0  0  0  0  0  0  0  0  0  0  0
   -9.3807   19.5692  -32.5031 H   0  0  0  0  0  0  0  0  0  0  0  0
   -7.2300   19.2860  -32.9410 H   0  0  0  0  0  0  0  0  0  0  0  0
   -2.5061   21.1751  -31.8870 H   0  0  0  0  0  0  0  0  0  0  0  0
   -1.4635   21.1342  -33.3492 H   0  0  0  0  0  0  0  0  0  0  0  0
   -2.9726   22.1084  -33.3492 H   0  0  0  0  0  0  0  0  0  0  0  0
   -3.3261   15.9754  -34.3306 H   0  0  0  0  0  0  0  0  0  0  0  0
   -4.3156   16.5427  -35.7183 H   0  0  0  0  0  0  0  0  0  0  0  0
   -2.5378   16.7998  -35.7183 H   0  0  0  0  0  0  0  0  0  0  0  0
   -6.5664   17.6334  -33.2969 H   0  0  0  0  0  0  0  0  0  0  0  0
   -6.7909   18.5317  -34.8361 H   0  0  0  0  0  0  0  0  0  0  0  0
   -5.9448   16.9472  -34.8361 H   0  0  0  0  0  0  0  0  0  0  0  0
  1  2  1  0
  2  3  1  0
  3  4  1  0
  4  5  1  0
  5  6  2  0
  6  7  1  0
  7  8  2  0
  8  9  1  0
  8 10  1  0
 10 11  1  0
 11 12  1  0
 12 13  1  0
 13 14  1  0
 13 15  2  0
 15 16  1  0
 16 17  1  0
 16 18  1  0
 18 19  1  0
 11 20  2  0
 20  6  1  0
 18 12  2  0
  1 21  1  0
  1 22  1  0
  1 23  1  0
  3 24  1  0
  3 25  1  0
  4 26  1  0
  4 27  1  0
  7 28  1  0
  9 29  1  0
  9 30  1  0
  9 31  1  0
 10 32  1  0
 14 33  1  0
 14 34  1  0
 14 35  1  0
 17 36  1  0
 17 37  1  0
 17 38  1  0
 19 39  1  0
 19 40  1  0
 19 41  1  0
M  END
>  <smiles>  (24) 
COCCN=c1cc(C)[nH]c(-c2c(C)nn(C)c2C)n1

>  <score_type>  (24) 
oracle

>  <origin>  (24) 
adg

>  <m_score__min__energy>  (24) 
-7.3200000000000003

>  <m_primary>  (24) 
energy

$$$$
24:0
     RDKit          3D

 49 52  0  0  0  0  0  0  0  0999 V2000
    0.9640   21.9190  -35.4880 C   0  0  0  0  0  0  0  0  0  0  0  0
    0.4060   21.7670  -34.1870 O   0  0  0  0  0  0  0  0  0  0  0  0
   -0.7160   20.9790  -33.8950 C   0  0  0  0  0  0  0  0  0  0  0  0
   -0.5930   19.5750  -33.9980 C   0  0  0  0  0  0  0  0  0  0  0  0
   -1.6840   18.7340  -33.7180 C   0  0  0  0  0  0  0  0  0  0  0  0
   -2.8800   19.3260  -33.3270 C   0  0  0  0  0  0  0  0  0  0  0  0
   -4.0950   18.7560  -33.0240 C   0  0  0  0  0  0  0  0  0  0  0  0
   -4.9370   19.8230  -32.7190 C   0  0  0  0  0  0  0  0  0  0  0  0
   -6.3720   19.6630  -32.3960 C   0  0  0  0  0  0  0  0  0  0  0  0
   -6.8750   18.4420  -31.9180 C   0  0  0  0  0  0  0  0  0  0  0  0
   -8.2390   18.3000  -31.6380 C   0  0  0  0  0  0  0  0  0  0  0  0
   -9.1100   19.3720  -31.8460 C   0  0  0  0  0  0  0  0  0  0  0  0
   -8.6220   20.5840  -32.3390 C   0  0  0  0  0  0  0  0  0  0  0  0
   -7.2600   20.7290  -32.6190 C   0  0  0  0  0  0  0  0  0  0  0  0
   -4.2710   21.0090  -32.8280 N   0  0  0  0  0  0  0  0  0  0  0  0
   -4.8160   22.3670  -32.6970 C   0  0  0  0  0  0  0  0  0  0  0  0
   -4.3850   23.0140  -31.4010 C   0  0  0  0  0  0  0  0  0  0  0  0
   -4.6440   24.1980  -31.2280 O   0  0  0  0  0  0  0  0  0  0  0  0
   -3.7150   22.2510  -30.3580 N   0  0  0  0  0  0  0  0  0  0  0  0
   -4.2160   22.6280  -29.0200 C   0  0  0  0  0  0  0  0  0  0  0  0
   -3.6700   23.9990  -28.5440 C   0  0  0  0  0  0  0  0  0  0  0  0
   -2.5520   24.4510  -29.2880 O   0  0  0  0  0  0  0  0  0  0  0  0
   -1.6440   23.3930  -29.4880 C   0  0  0  0  0  0  0  0  0  0  0  0
   -2.2350   22.3550  -30.4590 C   0  0  0  0  0  0  0  0  0  0  0  0
   -3.0160   20.6860  -33.2120 C   0  0  0  0  0  0  0  0  0  0  0  0
   -1.9550   21.5470  -33.5060 C   0  0  0  0  0  0  0  0  0  0  0  0
    2.0221   22.2072  -35.4018 H   0  0  0  0  0  0  0  0  0  0  0  0
    0.8866   20.9670  -36.0337 H   0  0  0  0  0  0  0  0  0  0  0  0
    0.4145   22.7002  -36.0337 H   0  0  0  0  0  0  0  0  0  0  0  0
    0.3684   19.1348  -34.3011 H   0  0  0  0  0  0  0  0  0  0  0  0
   -1.5944   17.6411  -33.8055 H   0  0  0  0  0  0  0  0  0  0  0  0
   -4.3478   17.6854  -33.0228 H   0  0  0  0  0  0  0  0  0  0  0  0
   -6.1934   17.5927  -31.7628 H   0  0  0  0  0  0  0  0  0  0  0  0
   -8.6251   17.3442  -31.2541 H   0  0  0  0  0  0  0  0  0  0  0  0
  -10.1811   19.2614  -31.6213 H   0  0  0  0  0  0  0  0  0  0  0  0
   -9.3101   21.4256  -32.5072 H   0  0  0  0  0  0  0  0  0  0  0  0
   -6.8815   21.6825  -33.0159 H   0  0  0  0  0  0  0  0  0  0  0  0
   -4.4579   22.9786  -33.5383 H   0  0  0  0  0  0  0  0  0  0  0  0
   -5.9140   22.3002  -32.7010 H   0  0  0  0  0  0  0  0  0  0  0  0
   -3.9540   21.2420  -30.4900 H   0  0  0  0  0  0  0  0  0  0  0  0
   -5.3142   22.6795  -29.0565 H   0  0  0  0  0  0  0  0  0  0  0  0
   -3.8694   21.8654  -28.3071 H   0  0  0  0  0  0  0  0  0  0  0  0
   -4.4736   24.7446  -28.6354 H   0  0  0  0  0  0  0  0  0  0  0  0
   -3.3362   23.8710  -27.5037 H   0  0  0  0  0  0  0  0  0  0  0  0
   -0.7094   23.7922  -29.9089 H   0  0  0  0  0  0  0  0  0  0  0  0
   -1.4456   22.9056  -28.5220 H   0  0  0  0  0  0  0  0  0  0  0  0
   -1.9721   22.6452  -31.4869 H   0  0  0  0  0  0  0  0  0  0  0  0
   -1.8144   21.3741  -30.1926 H   0  0  0  0  0  0  0  0  0  0  0  0
   -2.0784   22.6379  -33.4372 H   0  0  0  0  0  0  0  0  0  0  0  0
  1  2  1  0
  2  3  1  0
  3  4  2  0
  4  5  1  0
  5  6  2  0
  6  7  1  0
  7  8  2  0
  8  9  1  0
  9 10  2  0
 10 11  1  0
 11 12  2  0
 12 13  1  0
 13 14  2  0
  8 15  1  0
 15 16  1  0
 16 17  1  0
 17 18  2  0
 17 19  1  0
 19 20  1  0
 20 21  1  0
 21 22  1  0
 22 23  1  0
 23 24  1  0
 15 25  1  0
 25 26  2  0
 26  3  1  0
 25  6  1  0
 14  9  1  0
 24 19  1  0
  1 27  1  0
  1 28  1  0
  1 29  1  0
  4 30  1  0
  5 31  1  0
  7 32  1  0
 10 33  1  0
 11 34  1  0
 12 35  1  0
 13 36  1  0
 14 37  1  0
 16 38  1  0
 16 39  1  0
 19 40  1  0
 20 41  1  0
 20 42  1  0
 21 43  1  0
 21 44  1  0
 23 45  1  0
 23 46  1  0
 24 47  1  0
 24 48  1  0
 26 49  1  0
M  CHG  1  19   1
M  END
>  <UniqueID>  (25) 
22

>  <SMILES>  (25) 
COc1ccc2cc(-c3ccccc3)n(CC(=O)[NH+]3CCOCC3)c2c1

>  <Energy>  (25) 
101.38264018099727

>  <Genealogy>  (25) 
COc1ccc2cc(-c3ccccc3)n(CC(=O)[NH+]3CCOCC3)c2c1 (protonated)
COc1ccc2cc(-c3ccccc3)n(CC(=O)[NH+]3CCOCC3)c2c1 (3D coordinates assigned)
COc1ccc2cc(-c3ccccc3)n(CC(=O)[NH+]3CCOCC3)c2c1 (nonaromatic ring conformer: 101.38264018099727 kcal/mol)

>  <smiles>  (25) 
COc1ccc2cc(-c3ccccc3)n(CC(=O)N3CCOCC3)c2c1

>  <score_type>  (25) 
oracle

>  <origin>  (25) 
adg

>  <m_score__min__energy>  (25) 
-8.25

>  <m_primary>  (25) 
energy

$$$$
25:0
     RDKit          3D

 44 46  0  0  0  0  0  0  0  0999 V2000
   -2.4110   24.7030  -28.6480 C   0  0  0  0  0  0  0  0  0  0  0  0
   -3.2520   25.2640  -29.6510 O   0  0  0  0  0  0  0  0  0  0  0  0
   -4.4390   24.6740  -30.1140 C   0  0  0  0  0  0  0  0  0  0  0  0
   -5.7050   25.2130  -29.8220 C   0  0  0  0  0  0  0  0  0  0  0  0
   -6.8610   24.5950  -30.2990 C   0  0  0  0  0  0  0  0  0  0  0  0
   -6.7760   23.4360  -31.0720 C   0  0  0  0  0  0  0  0  0  0  0  0
   -5.5210   22.8750  -31.3800 C   0  0  0  0  0  0  0  0  0  0  0  0
   -5.3840   21.7030  -32.1600 C   0  0  0  0  0  0  0  0  0  0  0  0
   -6.5810   20.9750  -32.7180 C   0  0  0  0  0  0  0  0  0  0  0  0
   -4.0990   21.2020  -32.4240 C   0  0  0  0  0  0  0  0  0  0  0  0
   -2.9650   21.8580  -31.9190 C   0  0  0  0  0  0  0  0  0  0  0  0
   -1.6310   21.3560  -32.1620 N   0  0  0  0  0  0  0  0  0  0  0  0
   -0.8780   20.7030  -31.0750 C   0  0  0  0  0  0  0  0  0  0  0  0
   -0.8870   19.1720  -31.1680 C   0  0  0  0  0  0  0  0  0  0  0  0
   -0.4890   18.6480  -32.5600 C   0  0  0  0  0  0  0  0  0  0  0  0
   -1.4740   18.9120  -33.6340 N   0  0  0  0  0  0  0  0  0  0  0  0
   -1.8310   17.7340  -34.4440 C   0  0  0  0  0  0  0  0  0  0  0  0
   -1.3270   20.1800  -34.3810 C   0  0  0  0  0  0  0  0  0  0  0  0
   -1.0650   21.4400  -33.5180 C   0  0  0  0  0  0  0  0  0  0  0  0
   -3.1300   22.9860  -31.1780 N   0  0  0  0  0  0  0  0  0  0  0  0
   -4.3520   23.5090  -30.8930 C   0  0  0  0  0  0  0  0  0  0  0  0
   -2.8021   24.9639  -27.6535 H   0  0  0  0  0  0  0  0  0  0  0  0
   -2.3890   23.6087  -28.7579 H   0  0  0  0  0  0  0  0  0  0  0  0
   -1.3922   25.1030  -28.7579 H   0  0  0  0  0  0  0  0  0  0  0  0
   -5.7839   26.1265  -29.2144 H   0  0  0  0  0  0  0  0  0  0  0  0
   -7.8463   25.0240  -30.0643 H   0  0  0  0  0  0  0  0  0  0  0  0
   -7.6945   22.9577  -31.4430 H   0  0  0  0  0  0  0  0  0  0  0  0
   -7.1999   20.5986  -31.8902 H   0  0  0  0  0  0  0  0  0  0  0  0
   -7.1748   21.6651  -33.3354 H   0  0  0  0  0  0  0  0  0  0  0  0
   -6.2414   20.1303  -33.3354 H   0  0  0  0  0  0  0  0  0  0  0  0
   -3.9803   20.2912  -33.0293 H   0  0  0  0  0  0  0  0  0  0  0  0
    0.1652   21.0495  -31.1153 H   0  0  0  0  0  0  0  0  0  0  0  0
   -1.3679   20.9757  -30.1286 H   0  0  0  0  0  0  0  0  0  0  0  0
   -0.1781   18.7723  -30.4279 H   0  0  0  0  0  0  0  0  0  0  0  0
   -1.9171   18.8382  -30.9746 H   0  0  0  0  0  0  0  0  0  0  0  0
    0.4614   19.1232  -32.8445 H   0  0  0  0  0  0  0  0  0  0  0  0
   -0.4204   17.5540  -32.4683 H   0  0  0  0  0  0  0  0  0  0  0  0
   -2.0852   16.8953  -33.7792 H   0  0  0  0  0  0  0  0  0  0  0  0
   -2.6967   17.9742  -35.0787 H   0  0  0  0  0  0  0  0  0  0  0  0
   -0.9776   17.4532  -35.0787 H   0  0  0  0  0  0  0  0  0  0  0  0
   -0.4837   20.0661  -35.0781 H   0  0  0  0  0  0  0  0  0  0  0  0
   -2.2942   20.3508  -34.8763 H   0  0  0  0  0  0  0  0  0  0  0  0
    0.0224   21.5824  -33.4323 H   0  0  0  0  0  0  0  0  0  0  0  0
   -1.5601   22.2834  -34.0215 H   0  0  0  0  0  0  0  0  0  0  0  0
  1  2  1  0
  2  3  1  0
  3  4  2  0
  4  5  1  0
  5  6  2  0
  6  7  1  0
  7  8  2  0
  8  9  1  0
  8 10  1  0
 10 11  2  0
 11 12  1  0
 12 13  1  0
 13 14  1  0
 14 15  1  0
 15 16  1  0
 16 17  1  0
 16 18  1  0
 18 19  1  0
 11 20  1  0
 20 21  2  0
 21  3  1  0
 21  7  1  0
 19 12  1  0
  1 22  1  0
  1 23  1  0
  1 24  1  0
  4 25  1  0
  5 26  1  0
  6 27  1  0
  9 28  1  0
  9 29  1  0
  9 30  1  0
 10 31  1  0
 13 32  1  0
 13 33  1  0
 14 34  1  0
 14 35  1  0
 15 36  1  0
 15 37  1  0
 17 38  1  0
 17 39  1  0
 17 40  1  0
 18 41  1  0
 18 42  1  0
 19 43  1  0
 19 44  1  0
M  END
>  <UniqueID>  (26) 
23

>  <SMILES>  (26) 
COc1cccc2c(C)cc(N3CCCN(C)CC3)nc12

>  <Energy>  (26) 
66.72056522013422

>  <Genealogy>  (26) 
COc1cccc2c(C)cc(N3CCCN(C)CC3)nc12 (3D coordinates assigned)
COc1cccc2c(C)cc(N3CCCN(C)CC3)nc12 (nonaromatic ring conformer: 66.72056522013422 kcal/mol)

>  <smiles>  (26) 
COc1cccc2c(C)cc(N3CCCN(C)CC3)nc12

>  <score_type>  (26) 
oracle

>  <origin>  (26) 
adg

>  <m_score__min__energy>  (26) 
-5.5099999999999998

>  <m_primary>  (26) 
energy

$$$$
26:0
     RDKit          3D

 59 59  0  0  0  0  0  0  0  0999 V2000
   -1.3870   23.3010  -27.1700 C   0  0  0  0  0  0  0  0  0  0  0  0
   -2.6570   23.5310  -28.0180 C   0  0  0  0  0  0  0  0  0  0  0  0
   -3.6670   24.3400  -27.1780 C   0  0  0  0  0  0  0  0  0  0  0  0
   -3.3050   22.1680  -28.4020 C   0  0  0  0  0  0  0  0  0  0  0  0
   -2.9170   21.7530  -29.7580 N   0  0  0  0  0  0  0  0  0  0  0  0
   -1.6820   20.9610  -29.7410 C   0  0  0  0  0  0  0  0  0  0  0  0
   -0.8750   21.2370  -31.0100 C   0  0  0  0  0  0  0  0  0  0  0  0
   -1.7440   21.8300  -32.0350 N   0  0  0  0  0  0  0  0  0  0  0  0
   -1.9280   20.9300  -33.1850 C   0  0  0  0  0  0  0  0  0  0  0  0
   -3.2000   20.1420  -33.0460 C   0  0  0  0  0  0  0  0  0  0  0  0
   -3.3500   19.1010  -33.7430 O   0  0  0  0  0  0  0  0  0  0  0  0
   -4.2430   20.5710  -32.1560 N   0  0  0  0  0  0  0  0  0  0  0  0
   -5.6100   20.1300  -32.2410 C   0  0  0  0  0  0  0  0  0  0  0  0
   -6.6420   21.0840  -32.2670 C   0  0  0  0  0  0  0  0  0  0  0  0
   -7.9760   20.6820  -32.3930 C   0  0  0  0  0  0  0  0  0  0  0  0
   -8.2910   19.3270  -32.5090 C   0  0  0  0  0  0  0  0  0  0  0  0
   -9.5840   18.9430  -32.6430 F   0  0  0  0  0  0  0  0  0  0  0  0
   -7.2710   18.3700  -32.5050 C   0  0  0  0  0  0  0  0  0  0  0  0
   -7.5750   17.0550  -32.6390 F   0  0  0  0  0  0  0  0  0  0  0  0
   -5.9360   18.7670  -32.3770 C   0  0  0  0  0  0  0  0  0  0  0  0
   -2.2800   24.3380  -29.2840 C   0  0  0  0  0  0  0  0  0  0  0  0
   -3.4480   24.8680  -29.9030 O   0  0  0  0  0  0  0  0  0  0  0  0
   -4.2940   24.1050  -30.7150 C   0  0  0  0  0  0  0  0  0  0  0  0
   -3.8100   23.3450  -31.6020 O   0  0  0  0  0  0  0  0  0  0  0  0
   -5.7920   24.2130  -30.5170 C   0  0  0  0  0  0  0  0  0  0  0  0
   -6.2700   23.0270  -29.6590 C   0  0  0  0  0  0  0  0  0  0  0  0
   -6.5410   24.1860  -31.8670 C   0  0  0  0  0  0  0  0  0  0  0  0
   -6.1040   25.5340  -29.7920 C   0  0  0  0  0  0  0  0  0  0  0  0
   -1.6458   23.3479  -26.1019 H   0  0  0  0  0  0  0  0  0  0  0  0
   -0.9653   22.3119  -27.4020 H   0  0  0  0  0  0  0  0  0  0  0  0
   -0.6452   24.0794  -27.4020 H   0  0  0  0  0  0  0  0  0  0  0  0
   -3.4663   24.1793  -26.1085 H   0  0  0  0  0  0  0  0  0  0  0  0
   -3.5659   25.4098  -27.4133 H   0  0  0  0  0  0  0  0  0  0  0  0
   -4.6889   24.0078  -27.4133 H   0  0  0  0  0  0  0  0  0  0  0  0
   -2.9766   21.4010  -27.6852 H   0  0  0  0  0  0  0  0  0  0  0  0
   -4.3985   22.2846  -28.3751 H   0  0  0  0  0  0  0  0  0  0  0  0
   -2.7290   22.6130  -30.3220 H   0  0  0  0  0  0  0  0  0  0  0  0
   -1.0834   21.2360  -28.8600 H   0  0  0  0  0  0  0  0  0  0  0  0
   -1.9358   19.8916  -29.6962 H   0  0  0  0  0  0  0  0  0  0  0  0
   -0.0566   21.9343  -30.7775 H   0  0  0  0  0  0  0  0  0  0  0  0
   -0.4607   20.2911  -31.3890 H   0  0  0  0  0  0  0  0  0  0  0  0
   -2.6790   22.0020  -31.5950 H   0  0  0  0  0  0  0  0  0  0  0  0
   -1.9727   21.5276  -34.1074 H   0  0  0  0  0  0  0  0  0  0  0  0
   -1.0810   20.2293  -33.2242 H   0  0  0  0  0  0  0  0  0  0  0  0
   -3.9890   21.1860  -31.3520 H   0  0  0  0  0  0  0  0  0  0  0  0
   -6.3990   22.1539  -32.1877 H   0  0  0  0  0  0  0  0  0  0  0  0
   -8.7780   21.4348  -32.4007 H   0  0  0  0  0  0  0  0  0  0  0  0
   -5.1371   18.0109  -32.3826 H   0  0  0  0  0  0  0  0  0  0  0  0
   -1.6131   25.1656  -29.0006 H   0  0  0  0  0  0  0  0  0  0  0  0
   -1.7727   23.6690  -29.9947 H   0  0  0  0  0  0  0  0  0  0  0  0
   -6.1678   23.2806  -28.5935 H   0  0  0  0  0  0  0  0  0  0  0  0
   -7.3249   22.8124  -29.8853 H   0  0  0  0  0  0  0  0  0  0  0  0
   -5.6588   22.1409  -29.8853 H   0  0  0  0  0  0  0  0  0  0  0  0
   -7.6250   24.1469  -31.6842 H   0  0  0  0  0  0  0  0  0  0  0  0
   -6.2981   25.0935  -32.4393 H   0  0  0  0  0  0  0  0  0  0  0  0
   -6.2334   23.2984  -32.4393 H   0  0  0  0  0  0  0  0  0  0  0  0
   -6.0660   25.3732  -28.7045 H   0  0  0  0  0  0  0  0  0  0  0  0
   -5.3604   26.2930  -30.0766 H   0  0  0  0  0  0  0  0  0  0  0  0
   -7.1086   25.8801  -30.0766 H   0  0  0  0  0  0  0  0  0  0  0  0
  1  2  1  0
  2  3  1  0
  2  4  1  0
  4  5  1  0
  5  6  1  0
  6  7  1  0
  7  8  1  0
  8  9  1  0
  9 10  1  0
 10 11  2  0
 10 12  1  0
 12 13  1  0
 13 14  2  0
 14 15  1  0
 15 16  2  0
 16 17  1  0
 16 18  1  0
 18 19  1  0
 18 20  2  0
  2 21  1  0
 21 22  1  0
 22 23  1  0
 23 24  2  0
 23 25  1  0
 25 26  1  0
 25 27  1  0
 25 28  1  0
 20 13  1  0
  1 29  1  0
  1 30  1  0
  1 31  1  0
  3 32  1  0
  3 33  1  0
  3 34  1  0
  4 35  1  0
  4 36  1  0
  5 37  1  0
  6 38  1  0
  6 39  1  0
  7 40  1  0
  7 41  1  0
  8 42  1  0
  9 43  1  0
  9 44  1  0
 12 45  1  0
 14 46  1  0
 15 47  1  0
 20 48  1  0
 21 49  1  0
 21 50  1  0
 26 51  1  0
 26 52  1  0
 26 53  1  0
 27 54  1  0
 27 55  1  0
 27 56  1  0
 28 57  1  0
 28 58  1  0
 28 59  1  0
M  END
>  <UniqueID>  (27) 
24

>  <SMILES>  (27) 
CC(C)(CNCCNCC(=O)Nc1ccc(F)c(F)c1)COC(=O)C(C)(C)C

>  <Energy>  (27) 
42.36206987375727

>  <Genealogy>  (27) 
CC(C)(CNCCNCC(=O)Nc1ccc(F)c(F)c1)COC(=O)C(C)(C)C (3D coordinates assigned)
CC(C)(CNCCNCC(=O)Nc1ccc(F)c(F)c1)COC(=O)C(C)(C)C (optimized conformer: 42.36206987375727 kcal/mol)

>  <smiles>  (27) 
CC(C)(CNCCNCC(=O)Nc1ccc(F)c(F)c1)COC(=O)C(C)(C)C

>  <score_type>  (27) 
oracle

>  <origin>  (27) 
adg

>  <m_score__min__energy>  (27) 
-7.0899999999999999

>  <m_primary>  (27) 
energy

$$$$
27:0
     RDKit          3D

 53 55  0  0  0  0  0  0  0  0999 V2000
   -4.0500   24.5670  -29.6270 C   0  0  0  0  0  0  0  0  0  0  0  0
   -2.6740   24.9270  -29.6760 O   0  0  0  0  0  0  0  0  0  0  0  0
   -1.7870   24.8350  -28.5930 C   0  0  0  0  0  0  0  0  0  0  0  0
   -1.5650   25.9190  -27.7190 C   0  0  0  0  0  0  0  0  0  0  0  0
   -0.6590   25.8020  -26.6630 C   0  0  0  0  0  0  0  0  0  0  0  0
    0.0350   24.6090  -26.4640 C   0  0  0  0  0  0  0  0  0  0  0  0
   -0.1770   23.5270  -27.3190 C   0  0  0  0  0  0  0  0  0  0  0  0
   -1.0870   23.6280  -28.3840 C   0  0  0  0  0  0  0  0  0  0  0  0
   -1.3090   22.4920  -29.2400 N   0  0  0  0  0  0  0  0  0  0  0  0
   -2.4690   21.6190  -29.0350 C   0  0  0  0  0  0  0  0  0  0  0  0
   -3.3460   21.5750  -30.3040 C   0  0  0  0  0  0  0  0  0  0  0  0
   -2.6140   21.9860  -31.5300 N   0  0  0  0  0  0  0  0  0  0  0  0
   -3.3010   21.5140  -32.7490 C   0  0  0  0  0  0  0  0  0  0  0  0
   -4.7580   21.2440  -32.4690 C   0  0  0  0  0  0  0  0  0  0  0  0
   -5.6790   22.2940  -32.3850 C   0  0  0  0  0  0  0  0  0  0  0  0
   -6.9910   22.0330  -32.1550 N   0  0  0  0  0  0  0  0  0  0  0  0
   -7.4640   20.7660  -32.0080 C   0  0  0  0  0  0  0  0  0  0  0  0
   -8.8600   20.5680  -31.7580 N   0  0  0  0  0  0  0  0  0  0  0  0
   -9.5570   21.5340  -30.9140 C   0  0  0  0  0  0  0  0  0  0  0  0
   -9.6360   19.8020  -32.7310 C   0  0  0  0  0  0  0  0  0  0  0  0
   -6.5810   19.6680  -32.1060 C   0  0  0  0  0  0  0  0  0  0  0  0
   -7.0850   18.2490  -31.9540 C   0  0  0  0  0  0  0  0  0  0  0  0
   -6.0540   17.4260  -31.5360 F   0  0  0  0  0  0  0  0  0  0  0  0
   -8.1070   18.1660  -31.0250 F   0  0  0  0  0  0  0  0  0  0  0  0
   -7.5610   17.7950  -33.1700 F   0  0  0  0  0  0  0  0  0  0  0  0
   -5.2180   19.9280  -32.3300 C   0  0  0  0  0  0  0  0  0  0  0  0
   -1.2180   21.5140  -31.5030 C   0  0  0  0  0  0  0  0  0  0  0  0
   -0.4520   22.2720  -30.4120 C   0  0  0  0  0  0  0  0  0  0  0  0
   -4.3700   24.4833  -28.5779 H   0  0  0  0  0  0  0  0  0  0  0  0
   -4.6491   25.3386  -30.1326 H   0  0  0  0  0  0  0  0  0  0  0  0
   -4.1945   23.6008  -30.1326 H   0  0  0  0  0  0  0  0  0  0  0  0
   -2.1091   26.8630  -27.8701 H   0  0  0  0  0  0  0  0  0  0  0  0
   -0.4923   26.6531  -25.9863 H   0  0  0  0  0  0  0  0  0  0  0  0
    0.7499   24.5209  -25.6326 H   0  0  0  0  0  0  0  0  0  0  0  0
    0.3726   22.5879  -27.1578 H   0  0  0  0  0  0  0  0  0  0  0  0
   -2.1197   20.6024  -28.8014 H   0  0  0  0  0  0  0  0  0  0  0  0
   -3.0689   22.0156  -28.2026 H   0  0  0  0  0  0  0  0  0  0  0  0
   -3.7115   20.5467  -30.4421 H   0  0  0  0  0  0  0  0  0  0  0  0
   -4.1710   22.2879  -30.1587 H   0  0  0  0  0  0  0  0  0  0  0  0
   -3.2201   22.2841  -33.5302 H   0  0  0  0  0  0  0  0  0  0  0  0
   -2.8261   20.5798  -33.0834 H   0  0  0  0  0  0  0  0  0  0  0  0
   -5.3391   23.3332  -32.5056 H   0  0  0  0  0  0  0  0  0  0  0  0
   -9.3812   21.2904  -29.8558 H   0  0  0  0  0  0  0  0  0  0  0  0
   -9.1791   22.5453  -31.1251 H   0  0  0  0  0  0  0  0  0  0  0  0
  -10.6358   21.4942  -31.1251 H   0  0  0  0  0  0  0  0  0  0  0  0
  -10.3221   19.1247  -32.2013 H   0  0  0  0  0  0  0  0  0  0  0  0
  -10.2159   20.4915  -33.3620 H   0  0  0  0  0  0  0  0  0  0  0  0
   -8.9540   19.2132  -33.3620 H   0  0  0  0  0  0  0  0  0  0  0  0
   -4.5068   19.0915  -32.3967 H   0  0  0  0  0  0  0  0  0  0  0  0
   -1.1980   20.4359  -31.2855 H   0  0  0  0  0  0  0  0  0  0  0  0
   -0.7469   21.6956  -32.4803 H   0  0  0  0  0  0  0  0  0  0  0  0
    0.4275   21.6835  -30.1119 H   0  0  0  0  0  0  0  0  0  0  0  0
   -0.1375   23.2477  -30.8108 H   0  0  0  0  0  0  0  0  0  0  0  0
  1  2  1  0
  2  3  1  0
  3  4  2  0
  4  5  1  0
  5  6  2  0
  6  7  1  0
  7  8  2  0
  8  9  1  0
  9 10  1  0
 10 11  1  0
 11 12  1  0
 12 13  1  0
 13 14  1  0
 14 15  2  0
 15 16  1  0
 16 17  2  0
 17 18  1  0
 18 19  1  0
 18 20  1  0
 17 21  1  0
 21 22  1  0
 22 23  1  0
 22 24  1  0
 22 25  1  0
 21 26  2  0
 12 27  1  0
 27 28  1  0
  8  3  1  0
 28  9  1  0
 26 14  1  0
  1 29  1  0
  1 30  1  0
  1 31  1  0
  4 32  1  0
  5 33  1  0
  6 34  1  0
  7 35  1  0
 10 36  1  0
 10 37  1  0
 11 38  1  0
 11 39  1  0
 13 40  1  0
 13 41  1  0
 15 42  1  0
 19 43  1  0
 19 44  1  0
 19 45  1  0
 20 46  1  0
 20 47  1  0
 20 48  1  0
 26 49  1  0
 27 50  1  0
 27 51  1  0
 28 52  1  0
 28 53  1  0
M  END
>  <UniqueID>  (28) 
25

>  <SMILES>  (28) 
COc1ccccc1N1CCN(Cc2cnc(N(C)C)c(C(F)(F)F)c2)CC1

>  <Energy>  (28) 
70.28564333308458

>  <Genealogy>  (28) 
COc1ccccc1N1CCN(Cc2cnc(N(C)C)c(C(F)(F)F)c2)CC1 (3D coordinates assigned)
COc1ccccc1N1CCN(Cc2cnc(N(C)C)c(C(F)(F)F)c2)CC1 (nonaromatic ring conformer: 70.28564333308458 kcal/mol)

>  <smiles>  (28) 
COc1ccccc1N1CCN(Cc2cnc(N(C)C)c(C(F)(F)F)c2)CC1

>  <score_type>  (28) 
oracle

>  <origin>  (28) 
adg

>  <m_score__min__energy>  (28) 
-7.9100000000000001

>  <m_primary>  (28) 
energy

$$$$
28:0
     RDKit          3D

 56 60  0  0  0  0  0  0  0  0999 V2000
    0.3220   19.9740  -35.5840 C   0  0  0  0  0  0  0  0  0  0  0  0
   -0.8330   19.4120  -34.9710 O   0  0  0  0  0  0  0  0  0  0  0  0
   -1.5730   20.0350  -33.9540 C   0  0  0  0  0  0  0  0  0  0  0  0
   -2.9230   19.7250  -33.7060 C   0  0  0  0  0  0  0  0  0  0  0  0
   -3.6180   20.3740  -32.6800 C   0  0  0  0  0  0  0  0  0  0  0  0
   -2.9790   21.3410  -31.8890 C   0  0  0  0  0  0  0  0  0  0  0  0
   -3.7370   22.0300  -30.7760 C   0  0  1  0  0  0  0  0  0  0  0  0
   -2.8210   22.8860  -29.9340 C   0  0  0  0  0  0  0  0  0  0  0  0
   -3.2070   24.2040  -29.9840 C   0  0  0  0  0  0  0  0  0  0  0  0
   -2.5720   25.1660  -29.3300 O   0  0  0  0  0  0  0  0  0  0  0  0
   -1.5070   24.8820  -28.5780 C   0  0  0  0  0  0  0  0  0  0  0  0
   -0.8460   25.9100  -27.8970 C   0  0  0  0  0  0  0  0  0  0  0  0
    0.2700   25.6240  -27.1050 C   0  0  0  0  0  0  0  0  0  0  0  0
    0.7340   24.3100  -26.9870 C   0  0  0  0  0  0  0  0  0  0  0  0
    0.0870   23.2690  -27.6610 C   0  0  0  0  0  0  0  0  0  0  0  0
   -1.0370   23.5380  -28.4620 C   0  0  0  0  0  0  0  0  0  0  0  0
   -1.7210   22.5190  -29.1600 C   0  0  0  0  0  0  0  0  0  0  0  0
   -1.3590   21.3130  -29.0930 O   0  0  0  0  0  0  0  0  0  0  0  0
   -4.3660   24.2990  -30.8290 C   0  0  0  0  0  0  0  0  0  0  0  0
   -4.9930   25.3540  -31.1090 O   0  0  0  0  0  0  0  0  0  0  0  0
   -4.7030   23.0010  -31.3150 N   0  0  0  0  0  0  0  0  0  0  0  0
   -5.8710   22.6710  -32.1290 C   0  0  0  0  0  0  0  0  0  0  0  0
   -7.1580   22.8250  -31.3000 C   0  0  0  0  0  0  0  0  0  0  0  0
   -7.8850   21.5420  -31.1380 N   0  0  0  0  0  0  0  0  0  0  0  0
   -9.1150   21.5020  -31.9720 C   0  0  0  0  0  0  0  0  0  0  0  0
   -9.4980   20.0590  -32.3390 C   0  0  0  0  0  0  0  0  0  0  0  0
   -8.5040   19.3820  -33.0970 O   0  0  0  0  0  0  0  0  0  0  0  0
   -7.1830   19.8430  -32.8430 C   0  0  0  0  0  0  0  0  0  0  0  0
   -6.9850   20.3880  -31.4170 C   0  0  0  0  0  0  0  0  0  0  0  0
   -1.6300   21.6450  -32.1380 C   0  0  0  0  0  0  0  0  0  0  0  0
   -0.9370   20.9980  -33.1630 C   0  0  0  0  0  0  0  0  0  0  0  0
    1.0212   20.3142  -34.8060 H   0  0  0  0  0  0  0  0  0  0  0  0
    0.8117   19.2135  -36.2099 H   0  0  0  0  0  0  0  0  0  0  0  0
    0.0258   20.8287  -36.2099 H   0  0  0  0  0  0  0  0  0  0  0  0
   -3.4337   18.9695  -34.3212 H   0  0  0  0  0  0  0  0  0  0  0  0
   -4.6727   20.1246  -32.4920 H   0  0  0  0  0  0  0  0  0  0  0  0
   -4.2116   21.2194  -30.2036 H   0  0  0  0  0  0  0  0  0  0  0  0
   -1.2053   26.9459  -27.9850 H   0  0  0  0  0  0  0  0  0  0  0  0
    0.7856   26.4365  -26.5721 H   0  0  0  0  0  0  0  0  0  0  0  0
    1.6123   24.0940  -26.3609 H   0  0  0  0  0  0  0  0  0  0  0  0
    0.4581   22.2380  -27.5643 H   0  0  0  0  0  0  0  0  0  0  0  0
   -5.9134   23.3482  -32.9948 H   0  0  0  0  0  0  0  0  0  0  0  0
   -5.7871   21.6288  -32.4707 H   0  0  0  0  0  0  0  0  0  0  0  0
   -6.8924   23.2084  -30.3038 H   0  0  0  0  0  0  0  0  0  0  0  0
   -7.8207   23.5198  -31.8367 H   0  0  0  0  0  0  0  0  0  0  0  0
   -8.1740   21.4670  -30.1330 H   0  0  0  0  0  0  0  0  0  0  0  0
   -9.9428   21.9602  -31.4109 H   0  0  0  0  0  0  0  0  0  0  0  0
   -8.9202   22.0555  -32.9024 H   0  0  0  0  0  0  0  0  0  0  0  0
   -9.6688   19.4972  -31.4088 H   0  0  0  0  0  0  0  0  0  0  0  0
  -10.4002   20.1140  -32.9659 H   0  0  0  0  0  0  0  0  0  0  0  0
   -6.4868   19.0050  -32.9950 H   0  0  0  0  0  0  0  0  0  0  0  0
   -6.9925   20.6755  -33.5363 H   0  0  0  0  0  0  0  0  0  0  0  0
   -7.2000   19.5858  -30.6958 H   0  0  0  0  0  0  0  0  0  0  0  0
   -5.9450   20.7339  -31.3236 H   0  0  0  0  0  0  0  0  0  0  0  0
   -1.1166   22.3975  -31.5215 H   0  0  0  0  0  0  0  0  0  0  0  0
    0.1179   21.2475  -33.3502 H   0  0  0  0  0  0  0  0  0  0  0  0
  1  2  1  0
  2  3  1  0
  3  4  2  0
  4  5  1  0
  5  6  2  0
  6  7  1  0
  7  8  1  0
  8  9  2  0
  9 10  1  0
 10 11  1  0
 11 12  2  0
 12 13  1  0
 13 14  2  0
 14 15  1  0
 15 16  2  0
 16 17  1  0
 17 18  2  0
  9 19  1  0
 19 20  2  0
 19 21  1  0
 21 22  1  0
 22 23  1  0
 23 24  1  0
 24 25  1  0
 25 26  1  0
 26 27  1  0
 27 28  1  0
 28 29  1  0
  6 30  1  0
 30 31  2  0
 31  3  1  0
 21  7  1  0
 29 24  1  0
 17  8  1  0
 16 11  1  0
  1 32  1  0
  1 33  1  0
  1 34  1  0
  4 35  1  0
  5 36  1  0
  7 37  1  1
 12 38  1  0
 13 39  1  0
 14 40  1  0
 15 41  1  0
 22 42  1  0
 22 43  1  0
 23 44  1  0
 23 45  1  0
 24 46  1  0
 25 47  1  0
 25 48  1  0
 26 49  1  0
 26 50  1  0
 28 51  1  0
 28 52  1  0
 29 53  1  0
 29 54  1  0
 30 55  1  0
 31 56  1  0
M  CHG  1  24   1
M  END
>  <UniqueID>  (29) 
26

>  <SMILES>  (29) 
COc1ccc([C@H]2c3c(oc4ccccc4c3=O)C(=O)N2CC[NH+]2CCOCC2)cc1

>  <Energy>  (29) 
99.72045273177358

>  <Genealogy>  (29) 
COc1ccc(C2c3c(oc4ccccc4c3=O)C(=O)N2CC[NH+]2CCOCC2)cc1 (protonated)
COc1ccc([C@H]2c3c(oc4ccccc4c3=O)C(=O)N2CC[NH+]2CCOCC2)cc1 (chirality)
COc1ccc([C@H]2c3c(oc4ccccc4c3=O)C(=O)N2CC[NH+]2CCOCC2)cc1 (3D coordinates assigned)
COc1ccc([C@H]2c3c(oc4ccccc4c3=O)C(=O)N2CC[NH+]2CCOCC2)cc1 (nonaromatic ring conformer: 99.72045273177358 kcal/mol)

>  <smiles>  (29) 
COc1ccc(C2c3c(oc4ccccc4c3=O)C(=O)N2CCN2CCOCC2)cc1

>  <score_type>  (29) 
oracle

>  <origin>  (29) 
adg

>  <m_score__min__energy>  (29) 
-8.3300000000000001

>  <m_primary>  (29) 
energy

$$$$
29:0
     RDKit          3D

 43 45  0  0  0  0  0  0  0  0999 V2000
   -4.6200   24.3860  -28.2160 C   0  0  0  0  0  0  0  0  0  0  0  0
   -5.4400   24.6780  -29.3420 O   0  0  0  0  0  0  0  0  0  0  0  0
   -5.8860   23.7240  -30.2710 C   0  0  0  0  0  0  0  0  0  0  0  0
   -7.2180   23.2730  -30.2980 C   0  0  0  0  0  0  0  0  0  0  0  0
   -7.6300   22.3080  -31.2290 C   0  0  0  0  0  0  0  0  0  0  0  0
   -6.6980   21.7750  -32.1320 C   0  0  0  0  0  0  0  0  0  0  0  0
   -5.3760   22.2440  -32.1270 C   0  0  0  0  0  0  0  0  0  0  0  0
   -4.9610   23.2100  -31.1920 C   0  0  0  0  0  0  0  0  0  0  0  0
   -3.6390   23.6810  -31.1420 O   0  0  0  0  0  0  0  0  0  0  0  0
   -2.5720   23.0190  -30.4700 C   0  0  0  0  0  0  0  0  0  0  0  0
   -7.1090   20.7300  -33.1360 C   0  0  0  0  0  0  0  0  0  0  0  0
   -8.2700   19.9300  -32.6940 N   0  0  1  0  0  0  0  0  0  0  0  0
   -7.9410   18.7910  -31.7910 C   0  0  0  0  0  0  0  0  0  0  0  0
   -6.9450   17.7910  -32.3390 C   0  0  0  0  0  0  0  0  0  0  0  0
   -6.8730   17.5380  -33.7200 C   0  0  0  0  0  0  0  0  0  0  0  0
   -5.9430   16.6250  -34.2250 C   0  0  0  0  0  0  0  0  0  0  0  0
   -5.0990   15.9310  -33.3540 C   0  0  0  0  0  0  0  0  0  0  0  0
   -4.1960   15.0490  -33.8440 F   0  0  0  0  0  0  0  0  0  0  0  0
   -5.1980   16.1390  -31.9760 C   0  0  0  0  0  0  0  0  0  0  0  0
   -6.1250   17.0540  -31.4680 C   0  0  0  0  0  0  0  0  0  0  0  0
   -9.4070   20.7730  -32.2570 C   0  0  0  0  0  0  0  0  0  0  0  0
   -9.0540   21.8250  -31.1880 C   0  0  0  0  0  0  0  0  0  0  0  0
   -5.1817   24.5860  -27.2916 H   0  0  0  0  0  0  0  0  0  0  0  0
   -4.3236   23.3270  -28.2430 H   0  0  0  0  0  0  0  0  0  0  0  0
   -3.7210   25.0192  -28.2430 H   0  0  0  0  0  0  0  0  0  0  0  0
   -7.9450   23.6817  -29.5808 H   0  0  0  0  0  0  0  0  0  0  0  0
   -4.6566   21.8527  -32.8614 H   0  0  0  0  0  0  0  0  0  0  0  0
   -2.7131   23.1066  -29.3826 H   0  0  0  0  0  0  0  0  0  0  0  0
   -2.5629   21.9564  -30.7542 H   0  0  0  0  0  0  0  0  0  0  0  0
   -1.6159   23.4828  -30.7542 H   0  0  0  0  0  0  0  0  0  0  0  0
   -7.3685   21.2330  -34.0792 H   0  0  0  0  0  0  0  0  0  0  0  0
   -6.2612   20.0399  -33.2585 H   0  0  0  0  0  0  0  0  0  0  0  0
   -8.6140   19.4590  -33.5660 H   0  0  0  0  0  0  0  0  0  0  0  0
   -7.5276   19.2054  -30.8597 H   0  0  0  0  0  0  0  0  0  0  0  0
   -8.8802   18.2358  -31.6509 H   0  0  0  0  0  0  0  0  0  0  0  0
   -7.5531   18.0620  -34.4077 H   0  0  0  0  0  0  0  0  0  0  0  0
   -5.8754   16.4526  -35.3093 H   0  0  0  0  0  0  0  0  0  0  0  0
   -4.5448   15.5813  -31.2888 H   0  0  0  0  0  0  0  0  0  0  0  0
   -6.2128   17.1977  -30.3810 H   0  0  0  0  0  0  0  0  0  0  0  0
   -9.8022   21.2992  -33.1384 H   0  0  0  0  0  0  0  0  0  0  0  0
  -10.1384   20.0936  -31.7951 H   0  0  0  0  0  0  0  0  0  0  0  0
   -9.7146   22.6930  -31.3299 H   0  0  0  0  0  0  0  0  0  0  0  0
   -9.1882   21.3345  -30.2126 H   0  0  0  0  0  0  0  0  0  0  0  0
  1  2  1  0
  2  3  1  0
  3  4  2  0
  4  5  1  0
  5  6  2  0
  6  7  1  0
  7  8  2  0
  8  9  1  0
  9 10  1  0
  6 11  1  0
 11 12  1  0
 12 13  1  0
 13 14  1  0
 14 15  2  0
 15 16  1  0
 16 17  2  0
 17 18  1  0
 17 19  1  0
 19 20  2  0
 12 21  1  0
 21 22  1  0
  8  3  1  0
 20 14  1  0
 22  5  1  0
  1 23  1  0
  1 24  1  0
  1 25  1  0
  4 26  1  0
  7 27  1  0
 10 28  1  0
 10 29  1  0
 10 30  1  0
 11 31  1  0
 11 32  1  0
 12 33  1  6
 13 34  1  0
 13 35  1  0
 15 36  1  0
 16 37  1  0
 19 38  1  0
 20 39  1  0
 21 40  1  0
 21 41  1  0
 22 42  1  0
 22 43  1  0
M  CHG  1  12   1
M  END
>  <UniqueID>  (30) 
27

>  <SMILES>  (30) 
COc1cc2c(cc1OC)C[N@@H+](Cc1ccc(F)cc1)CC2

>  <Energy>  (30) 
53.841112609336456

>  <Genealogy>  (30) 
COc1cc2c(cc1OC)C[NH+](Cc1ccc(F)cc1)CC2 (protonated)
COc1cc2c(cc1OC)C[N@@H+](Cc1ccc(F)cc1)CC2 (chirality)
COc1cc2c(cc1OC)C[N@@H+](Cc1ccc(F)cc1)CC2 (3D coordinates assigned)
COc1cc2c(cc1OC)C[N@@H+](Cc1ccc(F)cc1)CC2 (nonaromatic ring conformer: 53.841112609336456 kcal/mol)

>  <smiles>  (30) 
COc1cc2c(cc1OC)CN(Cc1ccc(F)cc1)CC2

>  <score_type>  (30) 
oracle

>  <origin>  (30) 
adg

>  <m_score__min__energy>  (30) 
-7.2400000000000002

>  <m_primary>  (30) 
energy

$$$$
30:0
     RDKit          3D

 49 50  0  0  0  0  0  0  0  0999 V2000
   -4.5230   24.9140  -26.1200 C   0  0  0  0  0  0  0  0  0  0  0  0
   -3.0210   24.7530  -26.3770 C   0  0  0  0  0  0  0  0  0  0  0  0
   -2.6710   24.9260  -27.8200 N   0  0  0  0  0  0  0  0  0  0  0  0
   -1.4000   25.6720  -28.0140 C   0  0  0  0  0  0  0  0  0  0  0  0
   -0.9000   26.3330  -26.7260 C   0  0  0  0  0  0  0  0  0  0  0  0
   -2.6500   23.6250  -28.5420 C   0  0  0  0  0  0  0  0  0  0  0  0
   -2.8170   23.7330  -30.0700 C   0  0  0  0  0  0  0  0  0  0  0  0
   -3.6280   24.8560  -30.3980 O   0  0  0  0  0  0  0  0  0  0  0  0
   -5.0020   24.9010  -30.1420 C   0  0  0  0  0  0  0  0  0  0  0  0
   -5.4320   25.0680  -28.9690 O   0  0  0  0  0  0  0  0  0  0  0  0
   -5.9650   24.7480  -31.2770 C   0  0  0  0  0  0  0  0  0  0  0  0
   -6.0430   23.3040  -31.6920 C   0  0  0  0  0  0  0  0  0  0  0  0
   -4.9090   22.6580  -32.2080 C   0  0  0  0  0  0  0  0  0  0  0  0
   -4.9970   21.3450  -32.6760 C   0  0  0  0  0  0  0  0  0  0  0  0
   -6.2190   20.6540  -32.6330 C   0  0  0  0  0  0  0  0  0  0  0  0
   -6.3180   19.2740  -33.1650 C   0  0  0  0  0  0  0  0  0  0  0  0
   -5.6280   18.9230  -34.3400 C   0  0  0  0  0  0  0  0  0  0  0  0
   -5.7260   17.6290  -34.8600 C   0  0  0  0  0  0  0  0  0  0  0  0
   -6.5100   16.6720  -34.2130 C   0  0  0  0  0  0  0  0  0  0  0  0
   -7.1950   17.0050  -33.0430 C   0  0  0  0  0  0  0  0  0  0  0  0
   -7.1040   18.2990  -32.5170 C   0  0  0  0  0  0  0  0  0  0  0  0
   -7.7540   18.5860  -31.3600 F   0  0  0  0  0  0  0  0  0  0  0  0
   -7.3540   21.3040  -32.1190 C   0  0  0  0  0  0  0  0  0  0  0  0
   -7.2670   22.6200  -31.6570 C   0  0  0  0  0  0  0  0  0  0  0  0
   -4.7095   24.9340  -25.0361 H   0  0  0  0  0  0  0  0  0  0  0  0
   -4.8732   25.8548  -26.5697 H   0  0  0  0  0  0  0  0  0  0  0  0
   -5.0646   24.0688  -26.5697 H   0  0  0  0  0  0  0  0  0  0  0  0
   -2.4785   25.5075  -25.7884 H   0  0  0  0  0  0  0  0  0  0  0  0
   -2.7364   23.7324  -26.0815 H   0  0  0  0  0  0  0  0  0  0  0  0
   -3.4260   25.4770  -28.2930 H   0  0  0  0  0  0  0  0  0  0  0  0
   -0.6313   24.9708  -28.3710 H   0  0  0  0  0  0  0  0  0  0  0  0
   -1.5922   26.4714  -28.7447 H   0  0  0  0  0  0  0  0  0  0  0  0
   -1.3064   25.7957  -25.8565 H   0  0  0  0  0  0  0  0  0  0  0  0
    0.1991   26.2972  -26.6983 H   0  0  0  0  0  0  0  0  0  0  0  0
   -1.2335   27.3808  -26.6983 H   0  0  0  0  0  0  0  0  0  0  0  0
   -1.6870   23.1348  -28.3365 H   0  0  0  0  0  0  0  0  0  0  0  0
   -3.5146   23.0524  -28.1750 H   0  0  0  0  0  0  0  0  0  0  0  0
   -1.8277   23.8508  -30.5362 H   0  0  0  0  0  0  0  0  0  0  0  0
   -3.3018   22.8190  -30.4435 H   0  0  0  0  0  0  0  0  0  0  0  0
   -6.9608   25.0903  -30.9589 H   0  0  0  0  0  0  0  0  0  0  0  0
   -5.6188   25.3513  -32.1292 H   0  0  0  0  0  0  0  0  0  0  0  0
   -3.9460   23.1884  -32.2440 H   0  0  0  0  0  0  0  0  0  0  0  0
   -4.1029   20.8486  -33.0811 H   0  0  0  0  0  0  0  0  0  0  0  0
   -5.0070   19.6721  -34.8531 H   0  0  0  0  0  0  0  0  0  0  0  0
   -5.1846   17.3645  -35.7803 H   0  0  0  0  0  0  0  0  0  0  0  0
   -6.5880   15.6552  -34.6253 H   0  0  0  0  0  0  0  0  0  0  0  0
   -7.8084   16.2478  -32.5327 H   0  0  0  0  0  0  0  0  0  0  0  0
   -8.3169   20.7736  -32.0801 H   0  0  0  0  0  0  0  0  0  0  0  0
   -8.1632   23.1221  -31.2638 H   0  0  0  0  0  0  0  0  0  0  0  0
  1  2  1  0
  2  3  1  0
  3  4  1  0
  4  5  1  0
  3  6  1  0
  6  7  1  0
  7  8  1  0
  8  9  1  0
  9 10  2  0
  9 11  1  0
 11 12  1  0
 12 13  2  0
 13 14  1  0
 14 15  2  0
 15 16  1  0
 16 17  2  0
 17 18  1  0
 18 19  2  0
 19 20  1  0
 20 21  2  0
 21 22  1  0
 15 23  1  0
 23 24  2  0
 24 12  1  0
 21 16  1  0
  1 25  1  0
  1 26  1  0
  1 27  1  0
  2 28  1  0
  2 29  1  0
  3 30  1  0
  4 31  1  0
  4 32  1  0
  5 33  1  0
  5 34  1  0
  5 35  1  0
  6 36  1  0
  6 37  1  0
  7 38  1  0
  7 39  1  0
 11 40  1  0
 11 41  1  0
 13 42  1  0
 14 43  1  0
 17 44  1  0
 18 45  1  0
 19 46  1  0
 20 47  1  0
 23 48  1  0
 24 49  1  0
M  CHG  1   3   1
M  END
>  <UniqueID>  (31) 
28

>  <SMILES>  (31) 
CC[NH+](CC)CCOC(=O)Cc1ccc(-c2ccccc2F)cc1

>  <Energy>  (31) 
50.726565679710674

>  <Genealogy>  (31) 
CC[NH+](CC)CCOC(=O)Cc1ccc(-c2ccccc2F)cc1 (protonated)
CC[NH+](CC)CCOC(=O)Cc1ccc(-c2ccccc2F)cc1 (3D coordinates assigned)
CC[NH+](CC)CCOC(=O)Cc1ccc(-c2ccccc2F)cc1 (optimized conformer: 50.726565679710674 kcal/mol)

>  <smiles>  (31) 
CCN(CC)CCOC(=O)Cc1ccc(-c2ccccc2F)cc1

>  <score_type>  (31) 
oracle

>  <origin>  (31) 
adg

>  <m_score__min__energy>  (31) 
-6.8799999999999999

>  <m_primary>  (31) 
energy

$$$$
31:0
     RDKit          3D

 48 50  0  0  0  0  0  0  0  0999 V2000
   -7.4020   23.6200  -31.6640 C   0  0  0  0  0  0  0  0  0  0  0  0
   -6.0270   23.8060  -32.3030 C   0  0  0  0  0  0  0  0  0  0  0  0
   -4.9970   24.1050  -31.2820 N   0  0  0  0  0  0  0  0  0  0  0  0
   -5.2190   25.4270  -30.6400 C   0  0  0  0  0  0  0  0  0  0  0  0
   -6.0080   25.2480  -29.3490 C   0  0  0  0  0  0  0  0  0  0  0  0
   -4.9240   23.0160  -30.2820 C   0  0  0  0  0  0  0  0  0  0  0  0
   -3.4700   22.7130  -29.8820 C   0  0  0  0  0  0  0  0  0  0  0  0
   -2.5210   22.5670  -31.0850 C   0  0  0  0  0  0  0  0  0  0  0  0
   -3.2160   22.1820  -32.3180 N   0  0  0  0  0  0  0  0  0  0  0  0
   -3.2560   20.8430  -32.8510 C   0  0  0  0  0  0  0  0  0  0  0  0
   -2.1270   20.2380  -33.4490 C   0  0  0  0  0  0  0  0  0  0  0  0
   -0.4890   21.1780  -33.7710 Br  0  0  0  0  0  0  0  0  0  0  0  0
   -2.2050   18.9220  -33.9180 C   0  0  0  0  0  0  0  0  0  0  0  0
   -3.3940   18.1980  -33.8200 C   0  0  0  0  0  0  0  0  0  0  0  0
   -4.5330   18.7930  -33.2680 C   0  0  0  0  0  0  0  0  0  0  0  0
   -5.7080   18.1030  -33.1820 N   0  0  0  0  0  0  0  0  0  0  0  0
   -6.8200   18.6800  -32.6430 C   0  0  0  0  0  0  0  0  0  0  0  0
   -8.0290   17.9730  -32.5500 C   0  0  0  0  0  0  0  0  0  0  0  0
   -9.1560   18.5850  -31.9920 C   0  0  0  0  0  0  0  0  0  0  0  0
   -9.0840   19.9030  -31.5270 C   0  0  0  0  0  0  0  0  0  0  0  0
   -7.8850   20.6150  -31.6170 C   0  0  0  0  0  0  0  0  0  0  0  0
   -6.7530   20.0090  -32.1730 C   0  0  0  0  0  0  0  0  0  0  0  0
   -5.5830   20.6890  -32.2620 N   0  0  0  0  0  0  0  0  0  0  0  0
   -4.4680   20.1220  -32.7940 C   0  0  0  0  0  0  0  0  0  0  0  0
   -7.3021   23.6335  -30.5686 H   0  0  0  0  0  0  0  0  0  0  0  0
   -8.0674   24.4363  -31.9816 H   0  0  0  0  0  0  0  0  0  0  0  0
   -7.8266   22.6562  -31.9816 H   0  0  0  0  0  0  0  0  0  0  0  0
   -5.7497   22.8825  -32.8324 H   0  0  0  0  0  0  0  0  0  0  0  0
   -6.0801   24.6535  -33.0022 H   0  0  0  0  0  0  0  0  0  0  0  0
   -4.2476   25.8904  -30.4130 H   0  0  0  0  0  0  0  0  0  0  0  0
   -5.7867   26.0730  -31.3259 H   0  0  0  0  0  0  0  0  0  0  0  0
   -5.3409   25.3994  -28.4876 H   0  0  0  0  0  0  0  0  0  0  0  0
   -6.8251   25.9836  -29.3137 H   0  0  0  0  0  0  0  0  0  0  0  0
   -6.4277   24.2318  -29.3137 H   0  0  0  0  0  0  0  0  0  0  0  0
   -5.4860   23.3161  -29.3853 H   0  0  0  0  0  0  0  0  0  0  0  0
   -5.3548   22.1080  -30.7292 H   0  0  0  0  0  0  0  0  0  0  0  0
   -3.1048   23.5343  -29.2479 H   0  0  0  0  0  0  0  0  0  0  0  0
   -3.4737   21.7484  -29.3534 H   0  0  0  0  0  0  0  0  0  0  0  0
   -2.0165   23.5300  -31.2527 H   0  0  0  0  0  0  0  0  0  0  0  0
   -1.8061   21.7660  -30.8456 H   0  0  0  0  0  0  0  0  0  0  0  0
   -3.9070   22.8710  -32.6940 H   0  0  0  0  0  0  0  0  0  0  0  0
   -1.3185   18.4525  -34.3693 H   0  0  0  0  0  0  0  0  0  0  0  0
   -3.4354   17.1584  -34.1772 H   0  0  0  0  0  0  0  0  0  0  0  0
   -5.7560   17.1190  -33.5320 H   0  0  0  0  0  0  0  0  0  0  0  0
   -8.0901   16.9375  -32.9160 H   0  0  0  0  0  0  0  0  0  0  0  0
  -10.1020   18.0286  -31.9184 H   0  0  0  0  0  0  0  0  0  0  0  0
   -9.9736   20.3797  -31.0895 H   0  0  0  0  0  0  0  0  0  0  0  0
   -7.8311   21.6510  -31.2511 H   0  0  0  0  0  0  0  0  0  0  0  0
  1  2  1  0
  2  3  1  0
  3  4  1  0
  4  5  1  0
  3  6  1  0
  6  7  1  0
  7  8  1  0
  8  9  1  0
  9 10  1  0
 10 11  2  0
 11 12  1  0
 11 13  1  0
 13 14  2  0
 14 15  1  0
 15 16  2  0
 16 17  1  0
 17 18  2  0
 18 19  1  0
 19 20  2  0
 20 21  1  0
 21 22  2  0
 22 23  1  0
 23 24  2  0
 24 10  1  0
 24 15  1  0
 22 17  1  0
  1 25  1  0
  1 26  1  0
  1 27  1  0
  2 28  1  0
  2 29  1  0
  4 30  1  0
  4 31  1  0
  5 32  1  0
  5 33  1  0
  5 34  1  0
  6 35  1  0
  6 36  1  0
  7 37  1  0
  7 38  1  0
  8 39  1  0
  8 40  1  0
  9 41  1  0
 13 42  1  0
 14 43  1  0
 16 44  1  0
 18 45  1  0
 19 46  1  0
 20 47  1  0
 21 48  1  0
M  CHG  1  16   1
M  END
>  <UniqueID>  (32) 
29

>  <SMILES>  (32) 
CCN(CC)CCCNc1c(Br)ccc2[nH+]c3ccccc3nc12

>  <Energy>  (32) 
57.0778611252916

>  <Genealogy>  (32) 
CCN(CC)CCCNc1c(Br)ccc2[nH+]c3ccccc3nc12 (protonated)
CCN(CC)CCCNc1c(Br)ccc2[nH+]c3ccccc3nc12 (3D coordinates assigned)
CCN(CC)CCCNc1c(Br)ccc2[nH+]c3ccccc3nc12 (optimized conformer: 57.0778611252916 kcal/mol)

>  <smiles>  (32) 
CCN(CC)CCCNc1c(Br)ccc2nc3ccccc3nc12

>  <score_type>  (32) 
oracle

>  <origin>  (32) 
adg

>  <m_score__min__energy>  (32) 
-8.1199999999999992

>  <m_primary>  (32) 
energy

$$$$
32:0
     RDKit          3D

 47 49  0  0  0  0  0  0  0  0999 V2000
   -3.7780   20.5090  -33.1890 C   0  0  0  0  0  0  0  0  0  0  0  0
   -4.7040   19.5380  -33.6650 O   0  0  0  0  0  0  0  0  0  0  0  0
   -5.9640   19.2980  -33.0960 C   0  0  0  0  0  0  0  0  0  0  0  0
   -6.3210   18.0510  -32.5520 C   0  0  0  0  0  0  0  0  0  0  0  0
   -7.5900   17.8630  -31.9980 C   0  0  0  0  0  0  0  0  0  0  0  0
   -8.5090   18.9140  -31.9780 C   0  0  0  0  0  0  0  0  0  0  0  0
   -8.1720   20.1640  -32.5100 C   0  0  0  0  0  0  0  0  0  0  0  0
   -9.1320   21.1870  -32.4580 O   0  0  0  0  0  0  0  0  0  0  0  0
   -9.0830   22.3190  -31.5880 C   0  0  0  0  0  0  0  0  0  0  0  0
   -7.6870   22.8480  -31.4800 C   0  0  0  0  0  0  0  0  0  0  0  0
   -6.8510   22.7550  -30.3900 C   0  0  0  0  0  0  0  0  0  0  0  0
   -5.7210   23.4090  -30.7250 N   0  0  0  0  0  0  0  0  0  0  0  0
   -4.5340   23.5960  -29.9260 C   0  0  0  0  0  0  0  0  0  0  0  0
   -4.6070   24.1060  -28.6150 C   0  0  0  0  0  0  0  0  0  0  0  0
   -3.4450   24.2800  -27.8570 C   0  0  0  0  0  0  0  0  0  0  0  0
   -2.1940   23.9500  -28.3910 C   0  0  0  0  0  0  0  0  0  0  0  0
   -0.7290   24.1830  -27.4340 S   0  0  0  0  0  0  0  0  0  0  0  0
   -0.9380   25.3300  -26.4840 O   0  0  0  0  0  0  0  0  0  0  0  0
    0.4080   24.5410  -28.3490 O   0  0  0  0  0  0  0  0  0  0  0  0
   -0.3170   22.7470  -26.5290 N   0  0  0  0  0  0  0  0  0  0  0  0
   -0.2200   23.0700  -25.0990 C   0  0  0  0  0  0  0  0  0  0  0  0
   -1.3350   21.7120  -26.7450 C   0  0  0  0  0  0  0  0  0  0  0  0
   -2.1140   23.4390  -29.6920 C   0  0  0  0  0  0  0  0  0  0  0  0
   -3.2720   23.2630  -30.4530 C   0  0  0  0  0  0  0  0  0  0  0  0
   -5.8740   23.8860  -31.9520 N   0  0  0  0  0  0  0  0  0  0  0  0
   -7.0650   23.5640  -32.4360 N   0  0  0  0  0  0  0  0  0  0  0  0
   -6.8930   20.3470  -33.0720 C   0  0  0  0  0  0  0  0  0  0  0  0
   -3.7788   20.5081  -32.0890 H   0  0  0  0  0  0  0  0  0  0  0  0
   -2.7699   20.2647  -33.5551 H   0  0  0  0  0  0  0  0  0  0  0  0
   -4.0698   21.5044  -33.5551 H   0  0  0  0  0  0  0  0  0  0  0  0
   -5.5990   17.2212  -32.5627 H   0  0  0  0  0  0  0  0  0  0  0  0
   -7.8655   16.8849  -31.5767 H   0  0  0  0  0  0  0  0  0  0  0  0
   -9.5062   18.7583  -31.5405 H   0  0  0  0  0  0  0  0  0  0  0  0
   -9.7376   23.1082  -31.9862 H   0  0  0  0  0  0  0  0  0  0  0  0
   -9.4204   22.0092  -30.5879 H   0  0  0  0  0  0  0  0  0  0  0  0
   -7.0628   22.2485  -29.4368 H   0  0  0  0  0  0  0  0  0  0  0  0
   -5.5846   24.3691  -28.1847 H   0  0  0  0  0  0  0  0  0  0  0  0
   -3.5145   24.6789  -26.8342 H   0  0  0  0  0  0  0  0  0  0  0  0
   -0.4861   22.1839  -24.5041 H   0  0  0  0  0  0  0  0  0  0  0  0
    0.8096   23.3757  -24.8612 H   0  0  0  0  0  0  0  0  0  0  0  0
   -0.9108   23.8923  -24.8612 H   0  0  0  0  0  0  0  0  0  0  0  0
   -1.6963   21.3446  -25.7732 H   0  0  0  0  0  0  0  0  0  0  0  0
   -2.1761   22.1376  -27.3119 H   0  0  0  0  0  0  0  0  0  0  0  0
   -0.8955   20.8780  -27.3119 H   0  0  0  0  0  0  0  0  0  0  0  0
   -1.1344   23.1748  -30.1170 H   0  0  0  0  0  0  0  0  0  0  0  0
   -3.1970   22.8603  -31.4739 H   0  0  0  0  0  0  0  0  0  0  0  0
   -6.6205   21.3244  -33.4968 H   0  0  0  0  0  0  0  0  0  0  0  0
  1  2  1  0
  2  3  1  0
  3  4  2  0
  4  5  1  0
  5  6  2  0
  6  7  1  0
  7  8  1  0
  8  9  1  0
  9 10  1  0
 10 11  2  0
 11 12  1  0
 12 13  1  0
 13 14  2  0
 14 15  1  0
 15 16  2  0
 16 17  1  0
 17 18  2  0
 17 19  2  0
 17 20  1  0
 20 21  1  0
 20 22  1  0
 16 23  1  0
 23 24  2  0
 12 25  1  0
 25 26  2  0
  7 27  2  0
 27  3  1  0
 26 10  1  0
 24 13  1  0
  1 28  1  0
  1 29  1  0
  1 30  1  0
  4 31  1  0
  5 32  1  0
  6 33  1  0
  9 34  1  0
  9 35  1  0
 11 36  1  0
 14 37  1  0
 15 38  1  0
 21 39  1  0
 21 40  1  0
 21 41  1  0
 22 42  1  0
 22 43  1  0
 22 44  1  0
 23 45  1  0
 24 46  1  0
 27 47  1  0
M  END
>  <UniqueID>  (33) 
30

>  <SMILES>  (33) 
COc1cccc(OCc2cn(-c3ccc(S(=O)(=O)N(C)C)cc3)nn2)c1

>  <Energy>  (33) 
82.35375104928579

>  <Genealogy>  (33) 
COc1cccc(OCc2cn(-c3ccc(S(=O)(=O)N(C)C)cc3)nn2)c1 (3D coordinates assigned)
COc1cccc(OCc2cn(-c3ccc(S(=O)(=O)N(C)C)cc3)nn2)c1 (optimized conformer: 82.35375104928579 kcal/mol)

>  <smiles>  (33) 
COc1cccc(OCc2cn(-c3ccc(S(=O)(=O)N(C)C)cc3)nn2)c1

>  <score_type>  (33) 
oracle

>  <origin>  (33) 
adg

>  <m_score__min__energy>  (33) 
-8.7300000000000004

>  <m_primary>  (33) 
energy

$$$$
33:0
     RDKit          3D

 44 48  0  0  0  0  0  0  0  0999 V2000
   -3.6860   13.4220  -34.2560 C   0  0  0  0  0  0  0  0  0  0  0  0
   -4.6510   14.2780  -34.8600 O   0  0  0  0  0  0  0  0  0  0  0  0
   -5.0470   15.5230  -34.3440 C   0  0  0  0  0  0  0  0  0  0  0  0
   -4.1180   16.5010  -33.9610 C   0  0  0  0  0  0  0  0  0  0  0  0
   -4.5440   17.7330  -33.4440 C   0  0  0  0  0  0  0  0  0  0  0  0
   -3.5910   18.6860  -33.0970 C   0  0  0  0  0  0  0  0  0  0  0  0
   -3.9710   19.9260  -32.6070 C   0  0  0  0  0  0  0  0  0  0  0  0
   -5.3320   20.2580  -32.4190 C   0  0  0  0  0  0  0  0  0  0  0  0
   -6.3190   19.2760  -32.7210 C   0  0  0  0  0  0  0  0  0  0  0  0
   -7.6660   19.5780  -32.4280 C   0  0  0  0  0  0  0  0  0  0  0  0
   -8.0500   20.7840  -31.9190 N   0  0  0  0  0  0  0  0  0  0  0  0
   -9.4850   20.9910  -31.6470 C   0  0  0  0  0  0  0  0  0  0  0  0
   -7.1280   21.7740  -31.6760 C   0  0  0  0  0  0  0  0  0  0  0  0
   -7.5370   23.0440  -31.1740 C   0  0  0  0  0  0  0  0  0  0  0  0
   -6.5770   24.0160  -30.9490 C   0  0  0  0  0  0  0  0  0  0  0  0
   -5.2700   23.7980  -31.1920 C   0  0  0  0  0  0  0  0  0  0  0  0
   -4.8020   22.5870  -31.6790 C   0  0  0  0  0  0  0  0  0  0  0  0
   -5.7330   21.5330  -31.9260 C   0  0  0  0  0  0  0  0  0  0  0  0
   -4.5470   24.9350  -30.8890 O   0  0  0  0  0  0  0  0  0  0  0  0
   -5.4670   25.9310  -30.4200 C   0  0  0  0  0  0  0  0  0  0  0  0
   -6.7530   25.3010  -30.4750 O   0  0  0  0  0  0  0  0  0  0  0  0
   -5.9240   18.0120  -33.2800 C   0  0  0  0  0  0  0  0  0  0  0  0
   -6.8470   17.0200  -33.6990 C   0  0  0  0  0  0  0  0  0  0  0  0
   -6.4130   15.7840  -34.2190 C   0  0  0  0  0  0  0  0  0  0  0  0
   -7.3150   14.7870  -34.6280 O   0  0  0  0  0  0  0  0  0  0  0  0
   -7.2390   13.4160  -34.2510 C   0  0  0  0  0  0  0  0  0  0  0  0
   -3.7666   13.4935  -33.1613 H   0  0  0  0  0  0  0  0  0  0  0  0
   -3.8691   12.3838  -34.5701 H   0  0  0  0  0  0  0  0  0  0  0  0
   -2.6771   13.7276  -34.5701 H   0  0  0  0  0  0  0  0  0  0  0  0
   -3.0419   16.2994  -34.0674 H   0  0  0  0  0  0  0  0  0  0  0  0
   -2.5224   18.4524  -33.2130 H   0  0  0  0  0  0  0  0  0  0  0  0
   -3.1969   20.6672  -32.3593 H   0  0  0  0  0  0  0  0  0  0  0  0
   -8.4340   18.8134  -32.6168 H   0  0  0  0  0  0  0  0  0  0  0  0
   -9.6524   21.0151  -30.5601 H   0  0  0  0  0  0  0  0  0  0  0  0
   -9.8081   21.9450  -32.0890 H   0  0  0  0  0  0  0  0  0  0  0  0
  -10.0646   20.1672  -32.0890 H   0  0  0  0  0  0  0  0  0  0  0  0
   -8.5982   23.2484  -30.9687 H   0  0  0  0  0  0  0  0  0  0  0  0
   -3.7291   22.4404  -31.8722 H   0  0  0  0  0  0  0  0  0  0  0  0
   -5.2247   26.2264  -29.3885 H   0  0  0  0  0  0  0  0  0  0  0  0
   -5.4290   26.8478  -31.0266 H   0  0  0  0  0  0  0  0  0  0  0  0
   -7.9256   17.2197  -33.6163 H   0  0  0  0  0  0  0  0  0  0  0  0
   -7.2346   13.3371  -33.1538 H   0  0  0  0  0  0  0  0  0  0  0  0
   -8.1086   12.8762  -34.6540 H   0  0  0  0  0  0  0  0  0  0  0  0
   -6.3151   12.9756  -34.6540 H   0  0  0  0  0  0  0  0  0  0  0  0
  1  2  1  0
  2  3  1  0
  3  4  2  0
  4  5  1  0
  5  6  2  0
  6  7  1  0
  7  8  2  0
  8  9  1  0
  9 10  1  0
 10 11  2  0
 11 12  1  0
 11 13  1  0
 13 14  2  0
 14 15  1  0
 15 16  2  0
 16 17  1  0
 17 18  2  0
 16 19  1  0
 19 20  1  0
 20 21  1  0
  9 22  2  0
 22 23  1  0
 23 24  2  0
 24 25  1  0
 25 26  1  0
 24  3  1  0
 22  5  1  0
 18  8  1  0
 18 13  1  0
 21 15  1  0
  1 27  1  0
  1 28  1  0
  1 29  1  0
  4 30  1  0
  6 31  1  0
  7 32  1  0
 10 33  1  0
 12 34  1  0
 12 35  1  0
 12 36  1  0
 14 37  1  0
 17 38  1  0
 20 39  1  0
 20 40  1  0
 23 41  1  0
 26 42  1  0
 26 43  1  0
 26 44  1  0
M  CHG  1  11   1
M  END
>  <UniqueID>  (34) 
31

>  <SMILES>  (34) 
COc1cc2ccc3c(c[n+](C)c4cc5c(cc34)OCO5)c2cc1OC

>  <Energy>  (34) 
102.29173974615054

>  <Genealogy>  (34) 
COc1cc2ccc3c(c[n+](C)c4cc5c(cc34)OCO5)c2cc1OC (3D coordinates assigned)
COc1cc2ccc3c(c[n+](C)c4cc5c(cc34)OCO5)c2cc1OC (nonaromatic ring conformer: 102.29173974615054 kcal/mol)

>  <smiles>  (34) 
COc1cc2ccc3c(c[n+](C)c4cc5c(cc34)OCO5)c2cc1OC

>  <score_type>  (34) 
oracle

>  <origin>  (34) 
adg

>  <m_score__min__energy>  (34) 
-7.7400000000000002

>  <m_primary>  (34) 
energy

$$$$
34:0
     RDKit          3D

 42 43  0  0  0  0  0  0  0  0999 V2000
   -3.1160   19.2900  -26.6700 C   0  0  0  0  0  0  0  0  0  0  0  0
   -2.1270   19.9630  -27.5290 N   0  0  0  0  0  0  0  0  0  0  0  0
   -0.9000   19.1580  -27.6450 C   0  0  0  0  0  0  0  0  0  0  0  0
   -1.8450   21.3440  -27.0780 C   0  0  0  0  0  0  0  0  0  0  0  0
   -2.7560   22.3410  -27.6690 C   0  0  0  0  0  0  0  0  0  0  0  0
   -3.5150   23.1440  -28.1470 C   0  0  0  0  0  0  0  0  0  0  0  0
   -4.4380   24.1370  -28.7070 C   0  0  0  0  0  0  0  0  0  0  0  0
   -4.0050   24.5300  -30.0650 N   0  0  0  0  0  0  0  0  0  0  0  0
   -3.5290   23.3940  -30.8590 C   0  0  0  0  0  0  0  0  0  0  0  0
   -4.6320   22.3660  -31.1360 C   0  0  0  0  0  0  0  0  0  0  0  0
   -5.9830   22.9290  -31.3850 N   0  0  0  0  0  0  0  0  0  0  0  0
   -7.0750   21.9940  -31.7210 C   0  0  0  0  0  0  0  0  0  0  0  0
   -8.3990   22.2900  -31.2850 C   0  0  0  0  0  0  0  0  0  0  0  0
   -9.4760   21.4470  -31.5530 C   0  0  0  0  0  0  0  0  0  0  0  0
   -9.2870   20.2780  -32.2680 C   0  0  0  0  0  0  0  0  0  0  0  0
   -8.0190   19.9470  -32.7260 C   0  0  0  0  0  0  0  0  0  0  0  0
   -6.9120   20.7740  -32.4760 C   0  0  0  0  0  0  0  0  0  0  0  0
   -5.3020   20.0610  -33.2630 Br  0  0  0  0  0  0  0  0  0  0  0  0
   -6.2500   24.3690  -31.1900 C   0  0  0  0  0  0  0  0  0  0  0  0
   -5.0340   25.2410  -30.8330 C   0  0  0  0  0  0  0  0  0  0  0  0
   -2.8621   19.4628  -25.6137 H   0  0  0  0  0  0  0  0  0  0  0  0
   -4.1176   19.6948  -26.8773 H   0  0  0  0  0  0  0  0  0  0  0  0
   -3.1070   18.2098  -26.8773 H   0  0  0  0  0  0  0  0  0  0  0  0
   -0.5260   18.9127  -26.6400 H   0  0  0  0  0  0  0  0  0  0  0  0
   -1.1212   18.2290  -28.1908 H   0  0  0  0  0  0  0  0  0  0  0  0
   -0.1359   19.7309  -28.1908 H   0  0  0  0  0  0  0  0  0  0  0  0
   -1.9459   21.3826  -25.9833 H   0  0  0  0  0  0  0  0  0  0  0  0
   -0.8255   21.5952  -27.4059 H   0  0  0  0  0  0  0  0  0  0  0  0
   -5.4483   23.7050  -28.7588 H   0  0  0  0  0  0  0  0  0  0  0  0
   -4.4420   25.0270  -28.0606 H   0  0  0  0  0  0  0  0  0  0  0  0
   -3.1486   23.7704  -31.8200 H   0  0  0  0  0  0  0  0  0  0  0  0
   -2.7408   22.8898  -30.2806 H   0  0  0  0  0  0  0  0  0  0  0  0
   -4.3385   21.7847  -32.0225 H   0  0  0  0  0  0  0  0  0  0  0  0
   -4.7202   21.7637  -30.2198 H   0  0  0  0  0  0  0  0  0  0  0  0
   -8.5770   23.2154  -30.7176 H   0  0  0  0  0  0  0  0  0  0  0  0
  -10.4813   21.7126  -31.1942 H   0  0  0  0  0  0  0  0  0  0  0  0
  -10.1387   19.6128  -32.4730 H   0  0  0  0  0  0  0  0  0  0  0  0
   -7.8785   19.0173  -33.2968 H   0  0  0  0  0  0  0  0  0  0  0  0
   -6.6815   24.7601  -32.1232 H   0  0  0  0  0  0  0  0  0  0  0  0
   -6.9221   24.4297  -30.3213 H   0  0  0  0  0  0  0  0  0  0  0  0
   -4.5811   25.6050  -31.7670 H   0  0  0  0  0  0  0  0  0  0  0  0
   -5.4009   26.0609  -30.1980 H   0  0  0  0  0  0  0  0  0  0  0  0
  1  2  1  0
  2  3  1  0
  2  4  1  0
  4  5  1  0
  5  6  3  0
  6  7  1  0
  7  8  1  0
  8  9  1  0
  9 10  1  0
 10 11  1  0
 11 12  1  0
 12 13  2  0
 13 14  1  0
 14 15  2  0
 15 16  1  0
 16 17  2  0
 17 18  1  0
 11 19  1  0
 19 20  1  0
 20  8  1  0
 17 12  1  0
  1 21  1  0
  1 22  1  0
  1 23  1  0
  3 24  1  0
  3 25  1  0
  3 26  1  0
  4 27  1  0
  4 28  1  0
  7 29  1  0
  7 30  1  0
  9 31  1  0
  9 32  1  0
 10 33  1  0
 10 34  1  0
 13 35  1  0
 14 36  1  0
 15 37  1  0
 16 38  1  0
 19 39  1  0
 19 40  1  0
 20 41  1  0
 20 42  1  0
M  END
>  <UniqueID>  (35) 
32

>  <SMILES>  (35) 
CN(C)CC#CCN1CCN(c2ccccc2Br)CC1

>  <Energy>  (35) 
61.54544607529417

>  <Genealogy>  (35) 
CN(C)CC#CCN1CCN(c2ccccc2Br)CC1 (3D coordinates assigned)
CN(C)CC#CCN1CCN(c2ccccc2Br)CC1 (nonaromatic ring conformer: 61.54544607529417 kcal/mol)

>  <smiles>  (35) 
CN(C)CC#CCN1CCN(c2ccccc2Br)CC1

>  <score_type>  (35) 
oracle

>  <origin>  (35) 
adg

>  <m_score__min__energy>  (35) 
-7.0599999999999996

>  <m_primary>  (35) 
energy

$$$$
35:0
     RDKit          3D

 47 49  0  0  0  0  0  0  0  0999 V2000
   -2.5420   24.4350  -27.9570 C   0  0  0  0  0  0  0  0  0  0  0  0
   -2.7800   24.9690  -29.2550 O   0  0  0  0  0  0  0  0  0  0  0  0
   -3.8410   24.5850  -30.0900 C   0  0  0  0  0  0  0  0  0  0  0  0
   -5.0450   25.3120  -30.1490 C   0  0  0  0  0  0  0  0  0  0  0  0
   -6.0770   24.9030  -30.9940 C   0  0  0  0  0  0  0  0  0  0  0  0
   -5.9240   23.7680  -31.8040 C   0  0  0  0  0  0  0  0  0  0  0  0
   -7.0400   23.3250  -32.7180 C   0  0  0  0  0  0  0  0  0  0  0  0
   -7.7280   22.0820  -32.1860 C   0  0  0  0  0  0  0  0  0  0  0  0
   -8.8110   22.2420  -31.3670 N   0  0  0  0  0  0  0  0  0  0  0  0
   -9.4680   21.1870  -30.8210 C   0  0  0  0  0  0  0  0  0  0  0  0
   -9.0470   19.8860  -31.0760 C   0  0  0  0  0  0  0  0  0  0  0  0
   -7.9390   19.6680  -31.8990 C   0  0  0  0  0  0  0  0  0  0  0  0
   -7.5010   18.3600  -32.1530 C   0  0  0  0  0  0  0  0  0  0  0  0
   -6.3800   18.1270  -32.9690 C   0  0  0  0  0  0  0  0  0  0  0  0
   -5.9130   16.8300  -33.2380 O   0  0  0  0  0  0  0  0  0  0  0  0
   -6.4870   15.9450  -34.1940 C   0  0  0  0  0  0  0  0  0  0  0  0
   -5.6990   19.2090  -33.5380 C   0  0  0  0  0  0  0  0  0  0  0  0
   -4.5790   18.9410  -34.3430 O   0  0  0  0  0  0  0  0  0  0  0  0
   -3.3260   18.4690  -33.8570 C   0  0  0  0  0  0  0  0  0  0  0  0
   -6.1420   20.5230  -33.2930 C   0  0  0  0  0  0  0  0  0  0  0  0
   -7.2590   20.7700  -32.4700 C   0  0  0  0  0  0  0  0  0  0  0  0
   -4.7320   23.0310  -31.7330 C   0  0  0  0  0  0  0  0  0  0  0  0
   -3.6840   23.4380  -30.8830 C   0  0  0  0  0  0  0  0  0  0  0  0
   -2.4750   22.7300  -30.8000 O   0  0  0  0  0  0  0  0  0  0  0  0
   -2.2210   21.4890  -31.4480 C   0  0  0  0  0  0  0  0  0  0  0  0
   -2.8656   25.1612  -27.1968 H   0  0  0  0  0  0  0  0  0  0  0  0
   -3.1086   23.5000  -27.8356 H   0  0  0  0  0  0  0  0  0  0  0  0
   -1.4679   24.2312  -27.8356 H   0  0  0  0  0  0  0  0  0  0  0  0
   -5.1730   26.2086  -29.5247 H   0  0  0  0  0  0  0  0  0  0  0  0
   -7.0166   25.4741  -31.0253 H   0  0  0  0  0  0  0  0  0  0  0  0
   -7.7787   24.1358  -32.8005 H   0  0  0  0  0  0  0  0  0  0  0  0
   -6.6094   23.0890  -33.7023 H   0  0  0  0  0  0  0  0  0  0  0  0
   -9.1570   23.2010  -31.1390 H   0  0  0  0  0  0  0  0  0  0  0  0
  -10.3391   21.3621  -30.1726 H   0  0  0  0  0  0  0  0  0  0  0  0
   -9.5830   19.0340  -30.6325 H   0  0  0  0  0  0  0  0  0  0  0  0
   -8.0392   17.5091  -31.7099 H   0  0  0  0  0  0  0  0  0  0  0  0
   -7.0138   15.1328  -33.6718 H   0  0  0  0  0  0  0  0  0  0  0  0
   -7.1989   16.4979  -34.8245 H   0  0  0  0  0  0  0  0  0  0  0  0
   -5.6918   15.5205  -34.8245 H   0  0  0  0  0  0  0  0  0  0  0  0
   -3.3346   18.4722  -32.7570 H   0  0  0  0  0  0  0  0  0  0  0  0
   -3.1545   17.4446  -34.2193 H   0  0  0  0  0  0  0  0  0  0  0  0
   -2.5213   19.1256  -34.2193 H   0  0  0  0  0  0  0  0  0  0  0  0
   -5.6084   21.3690  -33.7507 H   0  0  0  0  0  0  0  0  0  0  0  0
   -4.6143   22.1261  -32.3472 H   0  0  0  0  0  0  0  0  0  0  0  0
   -2.0608   20.7065  -30.6917 H   0  0  0  0  0  0  0  0  0  0  0  0
   -3.0828   21.2205  -32.0766 H   0  0  0  0  0  0  0  0  0  0  0  0
   -1.3230   21.5806  -32.0766 H   0  0  0  0  0  0  0  0  0  0  0  0
  1  2  1  0
  2  3  1  0
  3  4  2  0
  4  5  1  0
  5  6  2  0
  6  7  1  0
  7  8  1  0
  8  9  2  0
  9 10  1  0
 10 11  2  0
 11 12  1  0
 12 13  2  0
 13 14  1  0
 14 15  1  0
 15 16  1  0
 14 17  2  0
 17 18  1  0
 18 19  1  0
 17 20  1  0
 20 21  2  0
  6 22  1  0
 22 23  2  0
 23 24  1  0
 24 25  1  0
 23  3  1  0
 21  8  1  0
 21 12  1  0
  1 26  1  0
  1 27  1  0
  1 28  1  0
  4 29  1  0
  5 30  1  0
  7 31  1  0
  7 32  1  0
  9 33  1  0
 10 34  1  0
 11 35  1  0
 13 36  1  0
 16 37  1  0
 16 38  1  0
 16 39  1  0
 19 40  1  0
 19 41  1  0
 19 42  1  0
 20 43  1  0
 22 44  1  0
 25 45  1  0
 25 46  1  0
 25 47  1  0
M  CHG  1   9   1
M  END
>  <UniqueID>  (36) 
33

>  <SMILES>  (36) 
COc1ccc(Cc2[nH+]ccc3cc(OC)c(OC)cc23)cc1OC

>  <Energy>  (36) 
51.2532902092401

>  <Genealogy>  (36) 
COc1ccc(Cc2[nH+]ccc3cc(OC)c(OC)cc23)cc1OC (protonated)
COc1ccc(Cc2[nH+]ccc3cc(OC)c(OC)cc23)cc1OC (3D coordinates assigned)
COc1ccc(Cc2[nH+]ccc3cc(OC)c(OC)cc23)cc1OC (optimized conformer: 51.2532902092401 kcal/mol)

>  <smiles>  (36) 
COc1ccc(Cc2nccc3cc(OC)c(OC)cc23)cc1OC

>  <score_type>  (36) 
oracle

>  <origin>  (36) 
adg

>  <m_score__min__energy>  (36) 
-6.9699999999999998

>  <m_primary>  (36) 
energy

$$$$
36:0
     RDKit          3D

 50 52  0  0  0  0  0  0  0  0999 V2000
   -6.8240   21.7820  -33.0720 O   0  0  0  0  0  0  0  0  0  0  0  0
   -7.3080   22.2620  -32.0100 C   0  0  0  0  0  0  0  0  0  0  0  0
   -8.8030   22.3290  -31.8560 C   0  0  0  0  0  0  0  0  0  0  0  0
   -9.5840   20.7480  -32.3460 S   0  0  0  0  0  0  0  0  0  0  0  0
   -8.3790   19.6540  -31.4970 C   0  0  0  0  0  0  0  0  0  0  0  0
   -7.6650   18.6400  -32.3710 C   0  0  0  0  0  0  0  0  0  0  0  0
   -7.9770   17.4640  -32.2260 O   0  0  0  0  0  0  0  0  0  0  0  0
   -6.6430   18.9940  -33.3450 N   0  0  0  0  0  0  0  0  0  0  0  0
   -6.3080   17.8740  -34.2340 C   0  0  0  0  0  0  0  0  0  0  0  0
   -4.8750   18.0990  -34.7000 C   0  0  0  0  0  0  0  0  0  0  0  0
   -4.2750   19.0850  -33.7080 C   0  0  0  0  0  0  0  0  0  0  0  0
   -5.3800   19.3750  -32.7030 C   0  0  0  0  0  0  0  0  0  0  0  0
   -6.4240   22.7510  -30.9840 N   0  0  0  0  0  0  0  0  0  0  0  0
   -6.8430   23.8280  -30.0750 C   0  0  0  0  0  0  0  0  0  0  0  0
   -5.6600   24.7410  -29.7510 C   0  0  0  0  0  0  0  0  0  0  0  0
   -4.4950   23.9370  -29.3750 N   0  0  0  0  0  0  0  0  0  0  0  0
   -3.6350   24.3680  -28.3060 C   0  0  0  0  0  0  0  0  0  0  0  0
   -4.1750   24.7020  -27.0520 C   0  0  0  0  0  0  0  0  0  0  0  0
   -3.3380   25.1220  -26.0120 C   0  0  0  0  0  0  0  0  0  0  0  0
   -1.9590   25.2180  -26.2200 C   0  0  0  0  0  0  0  0  0  0  0  0
   -1.4140   24.8950  -27.4660 C   0  0  0  0  0  0  0  0  0  0  0  0
   -2.2480   24.4730  -28.5070 C   0  0  0  0  0  0  0  0  0  0  0  0
   -1.7050   24.1940  -29.7200 F   0  0  0  0  0  0  0  0  0  0  0  0
   -4.0600   22.8880  -30.3020 C   0  0  0  0  0  0  0  0  0  0  0  0
   -5.2350   21.9650  -30.6260 C   0  0  0  0  0  0  0  0  0  0  0  0
   -9.0472   22.5402  -30.8045 H   0  0  0  0  0  0  0  0  0  0  0  0
   -9.1872   23.1269  -32.5085 H   0  0  0  0  0  0  0  0  0  0  0  0
   -7.6146   20.2936  -31.0317 H   0  0  0  0  0  0  0  0  0  0  0  0
   -8.9702   19.0628  -30.7822 H   0  0  0  0  0  0  0  0  0  0  0  0
   -6.9410   19.7920  -33.9480 H   0  0  0  0  0  0  0  0  0  0  0  0
   -6.3844   16.9215  -33.6892 H   0  0  0  0  0  0  0  0  0  0  0  0
   -6.9992   17.8263  -35.0884 H   0  0  0  0  0  0  0  0  0  0  0  0
   -4.3140   17.1529  -34.6887 H   0  0  0  0  0  0  0  0  0  0  0  0
   -4.8363   18.4822  -35.7304 H   0  0  0  0  0  0  0  0  0  0  0  0
   -3.4039   18.6410  -33.2039 H   0  0  0  0  0  0  0  0  0  0  0  0
   -3.9251   20.0017  -34.2052 H   0  0  0  0  0  0  0  0  0  0  0  0
   -5.2258   18.7834  -31.7885 H   0  0  0  0  0  0  0  0  0  0  0  0
   -5.3860   20.4370  -32.4163 H   0  0  0  0  0  0  0  0  0  0  0  0
   -7.6367   24.4194  -30.5550 H   0  0  0  0  0  0  0  0  0  0  0  0
   -7.2166   23.3823  -29.1413 H   0  0  0  0  0  0  0  0  0  0  0  0
   -5.4144   25.3467  -30.6357 H   0  0  0  0  0  0  0  0  0  0  0  0
   -5.9308   25.3988  -28.9119 H   0  0  0  0  0  0  0  0  0  0  0  0
   -5.2604   24.6330  -26.8873 H   0  0  0  0  0  0  0  0  0  0  0  0
   -3.7653   25.3766  -25.0309 H   0  0  0  0  0  0  0  0  0  0  0  0
   -1.3018   25.5482  -25.4020 H   0  0  0  0  0  0  0  0  0  0  0  0
   -0.3288   24.9727  -27.6281 H   0  0  0  0  0  0  0  0  0  0  0  0
   -3.6917   23.3500  -31.2298 H   0  0  0  0  0  0  0  0  0  0  0  0
   -3.2547   22.3015  -29.8356 H   0  0  0  0  0  0  0  0  0  0  0  0
   -4.9627   21.3154  -31.4709 H   0  0  0  0  0  0  0  0  0  0  0  0
   -5.4647   21.3569  -29.7386 H   0  0  0  0  0  0  0  0  0  0  0  0
  1  2  2  0
  2  3  1  0
  3  4  1  0
  4  5  1  0
  5  6  1  0
  6  7  2  0
  6  8  1  0
  8  9  1  0
  9 10  1  0
 10 11  1  0
 11 12  1  0
  2 13  1  0
 13 14  1  0
 14 15  1  0
 15 16  1  0
 16 17  1  0
 17 18  2  0
 18 19  1  0
 19 20  2  0
 20 21  1  0
 21 22  2  0
 22 23  1  0
 16 24  1  0
 24 25  1  0
 12  8  1  0
 25 13  1  0
 22 17  1  0
  3 26  1  0
  3 27  1  0
  5 28  1  0
  5 29  1  0
  8 30  1  0
  9 31  1  0
  9 32  1  0
 10 33  1  0
 10 34  1  0
 11 35  1  0
 11 36  1  0
 12 37  1  0
 12 38  1  0
 14 39  1  0
 14 40  1  0
 15 41  1  0
 15 42  1  0
 18 43  1  0
 19 44  1  0
 20 45  1  0
 21 46  1  0
 24 47  1  0
 24 48  1  0
 25 49  1  0
 25 50  1  0
M  CHG  1   8   1
M  END
>  <UniqueID>  (37) 
34

>  <SMILES>  (37) 
O=C(CSCC(=O)[NH+]1CCCC1)N1CCN(c2ccccc2F)CC1

>  <Energy>  (37) 
57.772756319226424

>  <Genealogy>  (37) 
O=C(CSCC(=O)[NH+]1CCCC1)N1CCN(c2ccccc2F)CC1 (protonated)
O=C(CSCC(=O)[NH+]1CCCC1)N1CCN(c2ccccc2F)CC1 (3D coordinates assigned)
O=C(CSCC(=O)[NH+]1CCCC1)N1CCN(c2ccccc2F)CC1 (nonaromatic ring conformer: 57.772756319226424 kcal/mol)

>  <smiles>  (37) 
O=C(CSCC(=O)N1CCN(c2ccccc2F)CC1)N1CCCC1

>  <score_type>  (37) 
oracle

>  <origin>  (37) 
adg

>  <m_score__min__energy>  (37) 
-8.4700000000000006

>  <m_primary>  (37) 
energy

$$$$
37:0
     RDKit          3D

 31 33  0  0  1  0  0  0  0  0999 V2000
   -5.0710   15.7890  -32.8330 C   0  0  0  0  0  0  0  0  0  0  0  0
   -5.7240   16.6520  -31.9640 C   0  0  0  0  0  0  0  0  0  0  0  0
   -6.2010   17.8890  -32.3710 C   0  0  0  0  0  0  0  0  0  0  0  0
   -5.9940   18.2380  -33.7100 C   0  0  0  0  0  0  0  0  0  0  0  0
   -6.4930   19.5120  -34.1020 N   0  0  0  0  0  0  0  0  0  0  0  0
   -7.1600   20.2740  -33.2840 C   0  0  0  0  0  0  0  0  0  0  0  0
   -6.5150   21.3240  -32.6980 N   0  0  0  0  0  0  0  0  0  0  0  0
   -7.1650   22.1350  -31.8490 C   0  0  0  0  0  0  0  0  0  0  0  0
   -6.4210   23.2380  -31.2580 C   0  0  0  0  0  0  0  0  0  0  0  0
   -7.1170   24.1180  -30.4530 C   0  0  0  0  0  0  0  0  0  0  0  0
   -6.4800   25.2050  -29.8450 C   0  0  0  0  0  0  0  0  0  0  0  0
   -5.1300   25.3510  -30.0910 C   0  0  0  0  0  0  0  0  0  0  0  0
   -4.4570   24.4910  -30.8750 N   0  0  0  0  0  0  0  0  0  0  0  0
   -5.0740   23.4460  -31.4580 C   0  0  0  0  0  0  0  0  0  0  0  0
   -8.4930   21.8810  -31.5850 C   0  0  0  0  0  0  0  0  0  0  0  0
   -9.1450   20.8060  -32.1860 C   0  0  0  0  0  0  0  0  0  0  0  0
   -8.4580   20.0110  -33.0360 N   0  0  0  0  0  0  0  0  0  0  0  0
   -5.3450   17.3910  -34.5860 C   0  0  0  0  0  0  0  0  0  0  0  0
   -4.8820   16.1660  -34.1540 C   0  0  0  0  0  0  0  0  0  0  0  0
   -4.7065   14.8142  -32.4768 H   0  0  0  0  0  0  0  0  0  0  0  0
   -5.8680   16.3446  -30.9177 H   0  0  0  0  0  0  0  0  0  0  0  0
   -6.7181   18.5644  -31.6735 H   0  0  0  0  0  0  0  0  0  0  0  0
   -8.1930   23.9613  -30.2866 H   0  0  0  0  0  0  0  0  0  0  0  0
   -7.0285   25.9091  -29.2021 H   0  0  0  0  0  0  0  0  0  0  0  0
   -4.5903   26.1933  -29.6335 H   0  0  0  0  0  0  0  0  0  0  0  0
   -4.5011   22.7566  -32.0956 H   0  0  0  0  0  0  0  0  0  0  0  0
   -9.0446   22.5337  -30.8924 H   0  0  0  0  0  0  0  0  0  0  0  0
  -10.2053   20.6070  -31.9713 H   0  0  0  0  0  0  0  0  0  0  0  0
   -8.9230   19.1850  -33.5120 H   0  0  0  0  0  0  0  0  0  0  0  0
   -5.1966   17.6945  -35.6328 H   0  0  0  0  0  0  0  0  0  0  0  0
   -4.3657   15.4918  -34.8532 H   0  0  0  0  0  0  0  0  0  0  0  0
  1  2  2  0
  2  3  1  0
  3  4  2  0
  4  5  1  0
  5  6  2  0
  6  7  1  0
  7  8  2  0
  8  9  1  0
  9 10  2  0
 10 11  1  0
 11 12  2  0
 12 13  1  0
 13 14  2  0
  8 15  1  0
 15 16  2  0
 16 17  1  0
  4 18  1  0
 18 19  2  0
 19  1  1  0
 17  6  1  0
 14  9  1  0
  1 20  1  0
  2 21  1  0
  3 22  1  0
 10 23  1  0
 11 24  1  0
 12 25  1  0
 14 26  1  0
 15 27  1  0
 16 28  1  0
 17 29  1  0
 18 30  1  0
 19 31  1  0
M  END
>  <smiles>  (38) 
c1ccc(N=c2nc(-c3cccnc3)cc[nH]2)cc1

>  <score_type>  (38) 
oracle

>  <origin>  (38) 
adg

>  <m_score__min__energy>  (38) 
-8.0399999999999991

>  <m_primary>  (38) 
energy

$$$$
38:0
     RDKit          3D

 39 41  0  0  0  0  0  0  0  0999 V2000
   -5.5430   25.6730  -30.4610 C   0  0  0  0  0  0  0  0  0  0  0  0
   -6.7810   24.8090  -30.2370 C   0  0  0  0  0  0  0  0  0  0  0  0
   -6.4330   23.3940  -29.7540 C   0  0  0  0  0  0  0  0  0  0  0  0
   -6.1750   22.4850  -30.8800 N   0  0  0  0  0  0  0  0  0  0  0  0
   -4.9950   22.2830  -31.5190 C   0  0  0  0  0  0  0  0  0  0  0  0
   -3.7120   22.9990  -31.2220 C   0  0  0  0  0  0  0  0  0  0  0  0
   -5.1530   21.3720  -32.5510 C   0  0  0  0  0  0  0  0  0  0  0  0
   -6.4750   20.9780  -32.5080 C   0  0  0  0  0  0  0  0  0  0  0  0
   -7.0760   21.6920  -31.5040 C   0  0  0  0  0  0  0  0  0  0  0  0
   -8.5200   21.5260  -31.1520 C   0  0  0  0  0  0  0  0  0  0  0  0
   -9.2860   20.9020  -32.3380 C   0  0  0  0  0  0  0  0  0  0  0  0
   -8.5840   19.7550  -32.9740 N   0  0  2  0  0  0  0  0  0  0  0  0
   -8.5250   18.5470  -32.1270 C   0  0  0  0  0  0  0  0  0  0  0  0
   -7.1790   17.8680  -32.3780 C   0  0  0  0  0  0  0  0  0  0  0  0
   -6.5120   18.6740  -33.4770 C   0  0  0  0  0  0  0  0  0  0  0  0
   -7.2030   20.0330  -33.4320 C   0  0  2  0  0  0  0  0  0  0  0  0
   -5.1208   25.9677  -29.4890 H   0  0  0  0  0  0  0  0  0  0  0  0
   -4.7940   25.1005  -31.0277 H   0  0  0  0  0  0  0  0  0  0  0  0
   -5.8220   26.5735  -31.0277 H   0  0  0  0  0  0  0  0  0  0  0  0
   -7.4165   25.2931  -29.4809 H   0  0  0  0  0  0  0  0  0  0  0  0
   -7.3002   24.7137  -31.2021 H   0  0  0  0  0  0  0  0  0  0  0  0
   -5.5338   23.4437  -29.1223 H   0  0  0  0  0  0  0  0  0  0  0  0
   -7.2910   23.0037  -29.1870 H   0  0  0  0  0  0  0  0  0  0  0  0
   -3.5776   23.0740  -30.1328 H   0  0  0  0  0  0  0  0  0  0  0  0
   -2.8708   22.4399  -31.6576 H   0  0  0  0  0  0  0  0  0  0  0  0
   -3.7461   24.0085  -31.6576 H   0  0  0  0  0  0  0  0  0  0  0  0
   -4.3828   21.0325  -33.2592 H   0  0  0  0  0  0  0  0  0  0  0  0
   -8.6075   20.8674  -30.2753 H   0  0  0  0  0  0  0  0  0  0  0  0
   -8.9508   22.5120  -30.9235 H   0  0  0  0  0  0  0  0  0  0  0  0
  -10.2625   20.5509  -31.9730 H   0  0  0  0  0  0  0  0  0  0  0  0
   -9.3778   21.6847  -33.1054 H   0  0  0  0  0  0  0  0  0  0  0  0
   -9.1420   19.5040  -33.8270 H   0  0  0  0  0  0  0  0  0  0  0  0
   -8.6107   18.8282  -31.0670 H   0  0  0  0  0  0  0  0  0  0  0  0
   -9.3521   17.8644  -32.3718 H   0  0  0  0  0  0  0  0  0  0  0  0
   -6.5656   17.8829  -31.4650 H   0  0  0  0  0  0  0  0  0  0  0  0
   -7.3032   16.8136  -32.6657 H   0  0  0  0  0  0  0  0  0  0  0  0
   -5.4347   18.7796  -33.2816 H   0  0  0  0  0  0  0  0  0  0  0  0
   -6.6037   18.1921  -34.4616 H   0  0  0  0  0  0  0  0  0  0  0  0
   -7.2065   20.5305  -34.4130 H   0  0  0  0  0  0  0  0  0  0  0  0
  1  2  1  0
  2  3  1  0
  3  4  1  0
  4  5  1  0
  5  6  1  0
  5  7  2  0
  7  8  1  0
  8  9  2  0
  9 10  1  0
 10 11  1  0
 11 12  1  0
 12 13  1  0
 13 14  1  0
 14 15  1  0
 15 16  1  0
  9  4  1  0
 16 12  1  0
 16  8  1  0
  1 17  1  0
  1 18  1  0
  1 19  1  0
  2 20  1  0
  2 21  1  0
  3 22  1  0
  3 23  1  0
  6 24  1  0
  6 25  1  0
  6 26  1  0
  7 27  1  0
 10 28  1  0
 10 29  1  0
 11 30  1  0
 11 31  1  0
 12 32  1  6
 13 33  1  0
 13 34  1  0
 14 35  1  0
 14 36  1  0
 15 37  1  0
 15 38  1  0
 16 39  1  6
M  CHG  1  12   1
M  END
>  <UniqueID>  (39) 
35

>  <SMILES>  (39) 
CCCn1c(C)cc2c1CC[N@@H+]1CCC[C@H]21

>  <Energy>  (39) 
69.19927630459225

>  <Genealogy>  (39) 
CCCn1c(C)cc2c1CC[NH+]1CCCC21 (protonated)
CCCn1c(C)cc2c1CC[N@@H+]1CCC[C@H]21 (chirality)
CCCn1c(C)cc2c1CC[N@@H+]1CCC[C@H]21 (3D coordinates assigned)
CCCn1c(C)cc2c1CC[N@@H+]1CCC[C@H]21 (nonaromatic ring conformer: 69.19927630459225 kcal/mol)

>  <smiles>  (39) 
CCCn1c(C)cc2c1CCN1CCCC21

>  <score_type>  (39) 
oracle

>  <origin>  (39) 
adg

>  <m_score__min__energy>  (39) 
-6.7599999999999998

>  <m_primary>  (39) 
energy

$$$$
39:0
     RDKit          3D

 55 59  0  0  0  0  0  0  0  0999 V2000
   -9.0870   22.4030  -31.9730 C   0  0  0  0  0  0  0  0  0  0  0  0
   -8.5250   21.1180  -32.4130 N   0  0  0  0  0  0  0  0  0  0  0  0
   -9.4880   20.0230  -32.2660 C   0  0  0  0  0  0  0  0  0  0  0  0
   -8.6790   18.7450  -32.1130 C   0  0  0  0  0  0  0  0  0  0  0  0
   -7.3000   19.2010  -31.6330 C   0  0  1  0  0  0  0  0  0  0  0  0
   -6.2180   18.7040  -32.5130 N   0  0  0  0  0  0  0  0  0  0  0  0
   -6.4120   17.5040  -33.3440 C   0  0  0  0  0  0  0  0  0  0  0  0
   -5.9150   17.7700  -34.7650 C   0  0  0  0  0  0  0  0  0  0  0  0
   -4.4240   18.1240  -34.7460 C   0  0  0  0  0  0  0  0  0  0  0  0
   -4.1050   19.1770  -33.7140 C   0  0  0  0  0  0  0  0  0  0  0  0
   -2.8960   19.8790  -33.7860 C   0  0  0  0  0  0  0  0  0  0  0  0
   -2.5700   20.8220  -32.8130 C   0  0  0  0  0  0  0  0  0  0  0  0
   -3.4620   21.0630  -31.7550 C   0  0  0  0  0  0  0  0  0  0  0  0
   -3.1640   22.0560  -30.6890 C   0  0  0  0  0  0  0  0  0  0  0  0
   -4.1060   23.0280  -30.3060 C   0  0  0  0  0  0  0  0  0  0  0  0
   -3.8090   23.9470  -29.2950 C   0  0  0  0  0  0  0  0  0  0  0  0
   -2.5680   23.9110  -28.6340 C   0  0  0  0  0  0  0  0  0  0  0  0
   -2.2520   24.8880  -27.5590 C   0  0  0  0  0  0  0  0  0  0  0  0
   -2.9310   25.0830  -26.3630 C   0  0  0  0  0  0  0  0  0  0  0  0
   -2.3220   26.0540  -25.6560 N   0  0  0  0  0  0  0  0  0  0  0  0
   -1.2940   26.4850  -26.3700 N   0  0  0  0  0  0  0  0  0  0  0  0
   -0.3470   27.4900  -25.9060 C   0  0  0  0  0  0  0  0  0  0  0  0
   -1.2100   25.7970  -27.5220 C   0  0  0  0  0  0  0  0  0  0  0  0
   -1.6330   22.9310  -29.0090 C   0  0  0  0  0  0  0  0  0  0  0  0
   -1.9290   22.0120  -30.0200 C   0  0  0  0  0  0  0  0  0  0  0  0
   -4.6200   20.3510  -31.6940 N   0  0  0  0  0  0  0  0  0  0  0  0
   -4.9680   19.4200  -32.6260 C   0  0  0  0  0  0  0  0  0  0  0  0
   -7.3590   20.7300  -31.6150 C   0  0  0  0  0  0  0  0  0  0  0  0
   -9.1028   22.4391  -30.8737 H   0  0  0  0  0  0  0  0  0  0  0  0
   -8.4665   23.2256  -32.3580 H   0  0  0  0  0  0  0  0  0  0  0  0
  -10.1123   22.5059  -32.3580 H   0  0  0  0  0  0  0  0  0  0  0  0
  -10.1126   20.1849  -31.3751 H   0  0  0  0  0  0  0  0  0  0  0  0
  -10.1565   19.9653  -33.1376 H   0  0  0  0  0  0  0  0  0  0  0  0
   -9.1452   18.0793  -31.3717 H   0  0  0  0  0  0  0  0  0  0  0  0
   -8.6212   18.1788  -33.0543 H   0  0  0  0  0  0  0  0  0  0  0  0
   -7.0676   18.7951  -30.6374 H   0  0  0  0  0  0  0  0  0  0  0  0
   -5.8473   16.6652  -32.9110 H   0  0  0  0  0  0  0  0  0  0  0  0
   -7.4828   17.2542  -33.3754 H   0  0  0  0  0  0  0  0  0  0  0  0
   -6.0669   16.8692  -35.3778 H   0  0  0  0  0  0  0  0  0  0  0  0
   -6.4789   18.6130  -35.1908 H   0  0  0  0  0  0  0  0  0  0  0  0
   -3.8466   17.2162  -34.5170 H   0  0  0  0  0  0  0  0  0  0  0  0
   -4.1583   18.5265  -35.7346 H   0  0  0  0  0  0  0  0  0  0  0  0
   -2.1995   19.6853  -34.6151 H   0  0  0  0  0  0  0  0  0  0  0  0
   -1.6204   21.3740  -32.8731 H   0  0  0  0  0  0  0  0  0  0  0  0
   -5.0849   23.0654  -30.8063 H   0  0  0  0  0  0  0  0  0  0  0  0
   -4.5537   24.7061  -29.0136 H   0  0  0  0  0  0  0  0  0  0  0  0
   -3.8267   24.5303  -26.0432 H   0  0  0  0  0  0  0  0  0  0  0  0
   -0.3352   27.5025  -24.8061 H   0  0  0  0  0  0  0  0  0  0  0  0
    0.6583   27.2472  -26.2807 H   0  0  0  0  0  0  0  0  0  0  0  0
   -0.6490   28.4791  -26.2807 H   0  0  0  0  0  0  0  0  0  0  0  0
   -0.4449   25.9334  -28.3005 H   0  0  0  0  0  0  0  0  0  0  0  0
   -0.6580   22.8866  -28.5016 H   0  0  0  0  0  0  0  0  0  0  0  0
   -1.1879   21.2469  -30.2945 H   0  0  0  0  0  0  0  0  0  0  0  0
   -7.4692   21.0926  -30.5823 H   0  0  0  0  0  0  0  0  0  0  0  0
   -6.4365   21.1655  -32.0264 H   0  0  0  0  0  0  0  0  0  0  0  0
  1  2  1  0
  2  3  1  0
  3  4  1  0
  4  5  1  0
  5  6  1  0
  6  7  1  0
  7  8  1  0
  8  9  1  0
  9 10  1  0
 10 11  2  0
 11 12  1  0
 12 13  2  0
 13 14  1  0
 14 15  2  0
 15 16  1  0
 16 17  2  0
 17 18  1  0
 18 19  1  0
 19 20  2  0
 20 21  1  0
 21 22  1  0
 21 23  1  0
 17 24  1  0
 24 25  2  0
 13 26  1  0
 26 27  2  0
  5 28  1  0
 28  2  1  0
 27  6  1  0
 27 10  1  0
 25 14  1  0
 23 18  2  0
  1 29  1  0
  1 30  1  0
  1 31  1  0
  3 32  1  0
  3 33  1  0
  4 34  1  0
  4 35  1  0
  5 36  1  1
  7 37  1  0
  7 38  1  0
  8 39  1  0
  8 40  1  0
  9 41  1  0
  9 42  1  0
 11 43  1  0
 12 44  1  0
 15 45  1  0
 16 46  1  0
 19 47  1  0
 22 48  1  0
 22 49  1  0
 22 50  1  0
 23 51  1  0
 24 52  1  0
 25 53  1  0
 28 54  1  0
 28 55  1  0
M  END
>  <UniqueID>  (40) 
36

>  <SMILES>  (40) 
CN1CC[C@@H](N2CCCc3ccc(-c4ccc(-c5cnn(C)c5)cc4)nc32)C1

>  <Energy>  (40) 
98.11053372605396

>  <Genealogy>  (40) 
CN1CC[C@@H](N2CCCc3ccc(-c4ccc(-c5cnn(C)c5)cc4)nc32)C1 (chirality)
CN1CC[C@@H](N2CCCc3ccc(-c4ccc(-c5cnn(C)c5)cc4)nc32)C1 (3D coordinates assigned)
CN1CC[C@@H](N2CCCc3ccc(-c4ccc(-c5cnn(C)c5)cc4)nc32)C1 (nonaromatic ring conformer: 98.11053372605396 kcal/mol)

>  <smiles>  (40) 
CN1CCC(N2CCCc3ccc(-c4ccc(-c5cnn(C)c5)cc4)nc32)C1

>  <score_type>  (40) 
oracle

>  <origin>  (40) 
adg

>  <m_score__min__energy>  (40) 
-8.9600000000000009

>  <m_primary>  (40) 
energy

$$$$
40:0
     RDKit          3D

 66 70  0  0  0  0  0  0  0  0999 V2000
   -0.3670   21.4900  -34.0320 C   0  0  0  0  0  0  0  0  0  0  0  0
    0.1520   21.1690  -32.6230 C   0  0  0  0  0  0  0  0  0  0  0  0
   -0.9120   21.0550  -31.5940 N   0  0  0  0  0  0  0  0  0  0  0  0
   -0.8690   22.1740  -30.6250 C   0  0  0  0  0  0  0  0  0  0  0  0
   -1.7110   21.8430  -29.3960 C   0  0  0  0  0  0  0  0  0  0  0  0
   -0.9520   19.7430  -30.9030 C   0  0  0  0  0  0  0  0  0  0  0  0
   -1.2430   18.5830  -31.8850 C   0  0  0  0  0  0  0  0  0  0  0  0
   -1.9440   18.9600  -33.1420 N   0  0  0  0  0  0  0  0  0  0  0  0
   -3.3290   18.5230  -33.2590 C   0  0  0  0  0  0  0  0  0  0  0  0
   -4.3710   19.4590  -33.4910 C   0  0  0  0  0  0  0  0  0  0  0  0
   -5.7220   19.0320  -33.3990 C   0  0  0  0  0  0  0  0  0  0  0  0
   -6.0150   17.7430  -33.0040 N   0  0  0  0  0  0  0  0  0  0  0  0
   -7.3810   17.4010  -32.5530 C   0  0  0  0  0  0  0  0  0  0  0  0
   -5.0330   16.7750  -33.0260 C   0  0  0  0  0  0  0  0  0  0  0  0
   -5.3560   15.3970  -32.9500 C   0  0  0  0  0  0  0  0  0  0  0  0
   -4.3600   14.4220  -32.9480 C   0  0  0  0  0  0  0  0  0  0  0  0
   -3.0260   14.7910  -33.0400 C   0  0  0  0  0  0  0  0  0  0  0  0
   -2.6760   16.1350  -33.1410 C   0  0  0  0  0  0  0  0  0  0  0  0
   -3.6670   17.1490  -33.1390 C   0  0  0  0  0  0  0  0  0  0  0  0
   -6.8340   20.0400  -33.6860 C   0  0  0  0  0  0  0  0  0  0  0  0
   -6.9330   21.0540  -32.5790 C   0  0  0  0  0  0  0  0  0  0  0  0
   -8.1440   21.2690  -31.8870 C   0  0  0  0  0  0  0  0  0  0  0  0
   -8.2170   22.2180  -30.8450 C   0  0  0  0  0  0  0  0  0  0  0  0
   -7.0850   22.9680  -30.4800 C   0  0  0  0  0  0  0  0  0  0  0  0
   -5.9020   22.7460  -31.1840 C   0  0  0  0  0  0  0  0  0  0  0  0
   -4.6440   23.3020  -31.0440 C   0  0  0  0  0  0  0  0  0  0  0  0
   -4.1970   24.2980  -30.0170 C   0  0  0  0  0  0  0  0  0  0  0  0
   -3.8630   25.5100  -30.6350 O   0  0  0  0  0  0  0  0  0  0  0  0
   -3.8400   22.6680  -31.9850 C   0  0  0  0  0  0  0  0  0  0  0  0
   -4.5680   21.7720  -32.6910 N   0  0  0  0  0  0  0  0  0  0  0  0
   -5.8250   21.8270  -32.2000 C   0  0  0  0  0  0  0  0  0  0  0  0
   -4.0770   20.9260  -33.7810 C   0  0  0  0  0  0  0  0  0  0  0  0
   -1.3003   22.0672  -33.9563 H   0  0  0  0  0  0  0  0  0  0  0  0
    0.3862   22.0802  -34.5746 H   0  0  0  0  0  0  0  0  0  0  0  0
   -0.5587   20.5525  -34.5746 H   0  0  0  0  0  0  0  0  0  0  0  0
    0.6953   20.2134  -32.6649 H   0  0  0  0  0  0  0  0  0  0  0  0
    0.7932   22.0109  -32.3229 H   0  0  0  0  0  0  0  0  0  0  0  0
    0.1724   22.3463  -30.3157 H   0  0  0  0  0  0  0  0  0  0  0  0
   -1.2744   23.0776  -31.1037 H   0  0  0  0  0  0  0  0  0  0  0  0
   -1.1360   22.0690  -28.4859 H   0  0  0  0  0  0  0  0  0  0  0  0
   -2.6305   22.4466  -29.4081 H   0  0  0  0  0  0  0  0  0  0  0  0
   -1.9734   20.7748  -29.4081 H   0  0  0  0  0  0  0  0  0  0  0  0
    0.0205   19.5652  -30.4206 H   0  0  0  0  0  0  0  0  0  0  0  0
   -1.7630   19.7730  -30.1605 H   0  0  0  0  0  0  0  0  0  0  0  0
   -0.2819   18.1236  -32.1592 H   0  0  0  0  0  0  0  0  0  0  0  0
   -1.9268   17.9053  -31.3530 H   0  0  0  0  0  0  0  0  0  0  0  0
   -1.4020   18.5990  -33.9600 H   0  0  0  0  0  0  0  0  0  0  0  0
   -1.8720   19.9910  -33.2860 H   0  0  0  0  0  0  0  0  0  0  0  0
   -7.4129   17.3930  -31.4535 H   0  0  0  0  0  0  0  0  0  0  0  0
   -8.0913   18.1490  -32.9350 H   0  0  0  0  0  0  0  0  0  0  0  0
   -7.6550   16.4065  -32.9350 H   0  0  0  0  0  0  0  0  0  0  0  0
   -6.4112   15.0917  -32.8916 H   0  0  0  0  0  0  0  0  0  0  0  0
   -4.6321   13.3588  -32.8734 H   0  0  0  0  0  0  0  0  0  0  0  0
   -2.2421   14.0194  -33.0331 H   0  0  0  0  0  0  0  0  0  0  0  0
   -1.6152   16.4141  -33.2235 H   0  0  0  0  0  0  0  0  0  0  0  0
   -6.6162   20.5581  -34.6316 H   0  0  0  0  0  0  0  0  0  0  0  0
   -7.7899   19.5005  -33.7572 H   0  0  0  0  0  0  0  0  0  0  0  0
   -9.0390   20.6917  -32.1622 H   0  0  0  0  0  0  0  0  0  0  0  0
   -9.1678   22.3723  -30.3137 H   0  0  0  0  0  0  0  0  0  0  0  0
   -7.1312   23.7059  -29.6655 H   0  0  0  0  0  0  0  0  0  0  0  0
   -5.0112   24.4688  -29.2974 H   0  0  0  0  0  0  0  0  0  0  0  0
   -3.3124   23.9044  -29.4949 H   0  0  0  0  0  0  0  0  0  0  0  0
   -4.2000   25.4550  -31.5670 H   0  0  0  0  0  0  0  0  0  0  0  0
   -2.7682   22.8660  -32.1338 H   0  0  0  0  0  0  0  0  0  0  0  0
   -4.5751   21.2169  -34.7177 H   0  0  0  0  0  0  0  0  0  0  0  0
   -2.9890   21.0597  -33.8731 H   0  0  0  0  0  0  0  0  0  0  0  0
  1  2  1  0
  2  3  1  0
  3  4  1  0
  4  5  1  0
  3  6  1  0
  6  7  1  0
  7  8  1  0
  8  9  1  0
  9 10  2  0
 10 11  1  0
 11 12  2  0
 12 13  1  0
 12 14  1  0
 14 15  2  0
 15 16  1  0
 16 17  2  0
 17 18  1  0
 18 19  2  0
 11 20  1  0
 20 21  1  0
 21 22  1  0
 22 23  2  0
 23 24  1  0
 24 25  2  0
 25 26  1  0
 26 27  1  0
 27 28  1  0
 26 29  2  0
 29 30  1  0
 30 31  1  0
 30 32  1  0
 19  9  1  0
 31 21  2  0
 32 10  1  0
 19 14  1  0
 31 25  1  0
  1 33  1  0
  1 34  1  0
  1 35  1  0
  2 36  1  0
  2 37  1  0
  4 38  1  0
  4 39  1  0
  5 40  1  0
  5 41  1  0
  5 42  1  0
  6 43  1  0
  6 44  1  0
  7 45  1  0
  7 46  1  0
  8 47  1  0
  8 48  1  0
 13 49  1  0
 13 50  1  0
 13 51  1  0
 15 52  1  0
 16 53  1  0
 17 54  1  0
 18 55  1  0
 20 56  1  0
 20 57  1  0
 22 58  1  0
 23 59  1  0
 24 60  1  0
 27 61  1  0
 27 62  1  0
 28 63  1  0
 29 64  1  0
 32 65  1  0
 32 66  1  0
M  CHG  2   8   1  12   1
M  END
>  <UniqueID>  (41) 
37

>  <SMILES>  (41) 
CCN(CC)CC[NH2+]c1c2c([n+](C)c3ccccc13)Cc1cccc3c(CO)cn(c13)C2

>  <Energy>  (41) 
138.473679665505

>  <Genealogy>  (41) 
CCN(CC)CC[NH2+]c1c2c([n+](C)c3ccccc13)Cc1cccc3c(CO)cn(c13)C2 (protonated)
CCN(CC)CC[NH2+]c1c2c([n+](C)c3ccccc13)Cc1cccc3c(CO)cn(c13)C2 (3D coordinates assigned)
CCN(CC)CC[NH2+]c1c2c([n+](C)c3ccccc13)Cc1cccc3c(CO)cn(c13)C2 (nonaromatic ring conformer: 138.473679665505 kcal/mol)

>  <smiles>  (41) 
CCN(CC)CCNc1c2c([n+](C)c3ccccc13)Cc1cccc3c(CO)cn(c13)C2

>  <score_type>  (41) 
oracle

>  <origin>  (41) 
adg

>  <m_score__min__energy>  (41) 
-8.3800000000000008

>  <m_primary>  (41) 
energy

$$$$
41:0
     RDKit          3D

 48 47  0  0  0  0  0  0  0  0999 V2000
   -6.8490   20.0550  -33.3570 C   0  0  0  0  0  0  0  0  0  0  0  0
   -6.7950   20.8550  -32.0600 C   0  0  0  0  0  0  0  0  0  0  0  0
   -6.9000   22.3050  -32.3480 N   0  0  0  0  0  0  0  0  0  0  0  0
   -8.0380   22.9140  -31.6200 C   0  0  0  0  0  0  0  0  0  0  0  0
   -9.1940   21.9210  -31.5220 C   0  0  0  0  0  0  0  0  0  0  0  0
   -5.6320   23.0060  -32.0410 C   0  0  0  0  0  0  0  0  0  0  0  0
   -5.9150   24.2970  -31.2740 C   0  0  0  0  0  0  0  0  0  0  0  0
   -4.6850   24.9220  -30.9250 O   0  0  0  0  0  0  0  0  0  0  0  0
   -3.8910   24.4780  -29.8640 C   0  0  0  0  0  0  0  0  0  0  0  0
   -2.7150   24.9120  -29.7150 O   0  0  0  0  0  0  0  0  0  0  0  0
   -4.4330   23.4570  -28.9130 C   0  0  0  0  0  0  0  0  0  0  0  0
   -3.9030   23.6610  -27.4820 C   0  0  0  0  0  0  0  0  0  0  0  0
   -3.1100   24.8940  -27.3120 N   0  0  0  0  0  0  0  0  0  0  0  0
   -2.9910   25.3020  -25.9010 C   0  0  0  0  0  0  0  0  0  0  0  0
   -1.7080   26.1180  -25.6760 C   0  0  0  0  0  0  0  0  0  0  0  0
   -0.9940   26.3390  -26.9520 N   0  0  0  0  0  0  0  0  0  0  0  0
   -0.4590   27.7100  -27.0320 C   0  0  0  0  0  0  0  0  0  0  0  0
    0.1130   25.3760  -27.0860 C   0  0  0  0  0  0  0  0  0  0  0  0
   -6.9214   18.9825  -33.1235 H   0  0  0  0  0  0  0  0  0  0  0  0
   -7.7284   20.3632  -33.9416 H   0  0  0  0  0  0  0  0  0  0  0  0
   -5.9362   20.2422  -33.9416 H   0  0  0  0  0  0  0  0  0  0  0  0
   -7.6301   20.5520  -31.4112 H   0  0  0  0  0  0  0  0  0  0  0  0
   -5.8372   20.6576  -31.5563 H   0  0  0  0  0  0  0  0  0  0  0  0
   -7.7131   23.1944  -30.6072 H   0  0  0  0  0  0  0  0  0  0  0  0
   -8.3771   23.8065  -32.1664 H   0  0  0  0  0  0  0  0  0  0  0  0
   -9.4211   21.7259  -30.4635 H   0  0  0  0  0  0  0  0  0  0  0  0
  -10.0820   22.3422  -32.0159 H   0  0  0  0  0  0  0  0  0  0  0  0
   -8.9116   20.9796  -32.0159 H   0  0  0  0  0  0  0  0  0  0  0  0
   -4.9942   22.3518  -31.4284 H   0  0  0  0  0  0  0  0  0  0  0  0
   -5.1212   23.2530  -32.9834 H   0  0  0  0  0  0  0  0  0  0  0  0
   -6.5052   24.9769  -31.9060 H   0  0  0  0  0  0  0  0  0  0  0  0
   -6.4795   24.0633  -30.3593 H   0  0  0  0  0  0  0  0  0  0  0  0
   -5.5303   23.5322  -28.8991 H   0  0  0  0  0  0  0  0  0  0  0  0
   -4.1058   22.4650  -29.2577 H   0  0  0  0  0  0  0  0  0  0  0  0
   -4.7622   23.7037  -26.7965 H   0  0  0  0  0  0  0  0  0  0  0  0
   -3.2332   22.8160  -27.2643 H   0  0  0  0  0  0  0  0  0  0  0  0
   -2.1510   24.7030  -27.6890 H   0  0  0  0  0  0  0  0  0  0  0  0
   -3.5240   25.6720  -27.8760 H   0  0  0  0  0  0  0  0  0  0  0  0
   -3.8618   25.9164  -25.6284 H   0  0  0  0  0  0  0  0  0  0  0  0
   -2.9491   24.3987  -25.2747 H   0  0  0  0  0  0  0  0  0  0  0  0
   -1.9724   27.0916  -25.2377 H   0  0  0  0  0  0  0  0  0  0  0  0
   -1.0491   25.5576  -24.9965 H   0  0  0  0  0  0  0  0  0  0  0  0
   -0.3054   28.1035  -26.0163 H   0  0  0  0  0  0  0  0  0  0  0  0
    0.5006   27.6984  -27.5697 H   0  0  0  0  0  0  0  0  0  0  0  0
   -1.1728   28.3514  -27.5697 H   0  0  0  0  0  0  0  0  0  0  0  0
    0.4597   25.0744  -26.0866 H   0  0  0  0  0  0  0  0  0  0  0  0
   -0.2366   24.4897  -27.6357 H   0  0  0  0  0  0  0  0  0  0  0  0
    0.9424   25.8449  -27.6357 H   0  0  0  0  0  0  0  0  0  0  0  0
  1  2  1  0
  2  3  1  0
  3  4  1  0
  4  5  1  0
  3  6  1  0
  6  7  1  0
  7  8  1  0
  8  9  1  0
  9 10  2  0
  9 11  1  0
 11 12  1  0
 12 13  1  0
 13 14  1  0
 14 15  1  0
 15 16  1  0
 16 17  1  0
 16 18  1  0
  1 19  1  0
  1 20  1  0
  1 21  1  0
  2 22  1  0
  2 23  1  0
  4 24  1  0
  4 25  1  0
  5 26  1  0
  5 27  1  0
  5 28  1  0
  6 29  1  0
  6 30  1  0
  7 31  1  0
  7 32  1  0
 11 33  1  0
 11 34  1  0
 12 35  1  0
 12 36  1  0
 13 37  1  0
 13 38  1  0
 14 39  1  0
 14 40  1  0
 15 41  1  0
 15 42  1  0
 17 43  1  0
 17 44  1  0
 17 45  1  0
 18 46  1  0
 18 47  1  0
 18 48  1  0
M  CHG  1  13   1
M  END
>  <UniqueID>  (42) 
38

>  <SMILES>  (42) 
CCN(CC)CCOC(=O)CC[NH2+]CCN(C)C

>  <Energy>  (42) 
34.23303071936542

>  <Genealogy>  (42) 
CCN(CC)CCOC(=O)CC[NH2+]CCN(C)C (protonated)
CCN(CC)CCOC(=O)CC[NH2+]CCN(C)C (3D coordinates assigned)
CCN(CC)CCOC(=O)CC[NH2+]CCN(C)C (optimized conformer: 34.23303071936542 kcal/mol)

>  <smiles>  (42) 
CCN(CC)CCOC(=O)CCNCCN(C)C

>  <score_type>  (42) 
oracle

>  <origin>  (42) 
adg

>  <m_score__min__energy>  (42) 
-4.6500000000000004

>  <m_primary>  (42) 
energy

$$$$
42:0
     RDKit          3D

 40 42  0  0  0  0  0  0  0  0999 V2000
   -8.5060   18.7420  -33.8100 H   0  0  0  0  0  0  0  0  0  0  0  0
   -8.8830   19.0570  -32.9240 O   0  0  0  0  0  0  0  0  0  0  0  0
   -8.4070   20.2060  -32.2940 C   0  0  0  0  0  0  0  0  0  0  0  0
   -9.1170   20.7710  -31.2290 C   0  0  0  0  0  0  0  0  0  0  0  0
  -10.0550   20.3078  -30.8891 H   0  0  0  0  0  0  0  0  0  0  0  0
   -8.6400   21.9200  -30.5960 C   0  0  0  0  0  0  0  0  0  0  0  0
   -9.2112   22.3621  -29.7664 H   0  0  0  0  0  0  0  0  0  0  0  0
   -7.4390   22.5160  -31.0080 C   0  0  0  0  0  0  0  0  0  0  0  0
   -6.9800   23.7390  -30.3060 C   0  0  0  0  0  0  0  0  0  0  0  0
   -7.4165   23.9657  -29.3221 H   0  0  0  0  0  0  0  0  0  0  0  0
   -6.0640   24.5850  -30.8000 C   0  0  0  0  0  0  0  0  0  0  0  0
   -6.3976   25.3885  -31.4731 H   0  0  0  0  0  0  0  0  0  0  0  0
   -4.6250   24.4830  -30.4780 C   0  0  0  0  0  0  0  0  0  0  0  0
   -3.8710   25.4310  -30.8280 O   0  0  0  0  0  0  0  0  0  0  0  0
   -4.0310   23.3180  -29.7810 C   0  0  0  0  0  0  0  0  0  0  0  0
   -3.6250   22.1770  -30.4950 C   0  0  0  0  0  0  0  0  0  0  0  0
   -3.7635   22.1376  -31.5855 H   0  0  0  0  0  0  0  0  0  0  0  0
   -3.0470   21.0930  -29.8300 C   0  0  0  0  0  0  0  0  0  0  0  0
   -2.7422   20.2034  -30.4008 H   0  0  0  0  0  0  0  0  0  0  0  0
   -2.8510   21.1280  -28.4380 C   0  0  0  0  0  0  0  0  0  0  0  0
   -2.2560   20.0080  -27.7510 N   0  0  0  0  0  0  0  0  0  0  0  0
   -2.8100   19.2540  -26.7770 C   0  0  0  0  0  0  0  0  0  0  0  0
   -3.8228   19.4183  -26.3805 H   0  0  0  0  0  0  0  0  0  0  0  0
   -1.9860   18.2770  -26.3430 N   0  0  0  0  0  0  0  0  0  0  0  0
   -0.8680   18.4310  -27.0810 C   0  0  0  0  0  0  0  0  0  0  0  0
    0.0343   17.8066  -27.0035 H   0  0  0  0  0  0  0  0  0  0  0  0
   -1.0290   19.4890  -27.9460 C   0  0  0  0  0  0  0  0  0  0  0  0
   -0.2842   19.8485  -28.6713 H   0  0  0  0  0  0  0  0  0  0  0  0
   -3.2410   22.2780  -27.7290 C   0  0  0  0  0  0  0  0  0  0  0  0
   -3.0904   22.3239  -26.6403 H   0  0  0  0  0  0  0  0  0  0  0  0
   -3.8180   23.3630  -28.3940 C   0  0  0  0  0  0  0  0  0  0  0  0
   -4.1077   24.2596  -27.8263 H   0  0  0  0  0  0  0  0  0  0  0  0
   -6.7350   21.9540  -32.0920 C   0  0  0  0  0  0  0  0  0  0  0  0
   -5.8035   22.4245  -32.4396 H   0  0  0  0  0  0  0  0  0  0  0  0
   -7.2140   20.7940  -32.7350 C   0  0  0  0  0  0  0  0  0  0  0  0
   -6.5370   20.2020  -33.8140 O   0  0  0  0  0  0  0  0  0  0  0  0
   -5.8520   18.9550  -33.7500 C   0  0  0  0  0  0  0  0  0  0  0  0
   -5.6981   18.6748  -32.6975 H   0  0  0  0  0  0  0  0  0  0  0  0
   -6.4516   18.1811  -34.2515 H   0  0  0  0  0  0  0  0  0  0  0  0
   -4.8772   19.0459  -34.2515 H   0  0  0  0  0  0  0  0  0  0  0  0
  1  2  1  0
  2  3  1  0
  3  4  2  0
  4  5  1  0
  4  6  1  0
  6  7  1  0
  6  8  2  0
  8  9  1  0
  9 10  1  0
  9 11  2  0
 11 12  1  0
 11 13  1  0
 13 14  2  0
 13 15  1  0
 15 16  2  0
 16 17  1  0
 16 18  1  0
 18 19  1  0
 18 20  2  0
 20 21  1  0
 21 22  1  0
 22 23  1  0
 22 24  2  0
 24 25  1  0
 25 26  1  0
 25 27  2  0
 27 28  1  0
 20 29  1  0
 29 30  1  0
 29 31  2  0
 31 32  1  0
  8 33  1  0
 33 34  1  0
 33 35  2  0
 35 36  1  0
 36 37  1  0
 37 38  1  0
 37 39  1  0
 37 40  1  0
 35  3  1  0
 31 15  1  0
 27 21  1  0
M  END
>  <UniqueID>  (43) 
39

>  <SMILES>  (43) 
COc1cc(/C=C/C(=O)c2ccc(-n3ccnc3)cc2)ccc1O

>  <Energy>  (43) 
81.65089861755885

>  <Genealogy>  (43) 
COc1cc(/C=C/C(=O)c2ccc(-n3ccnc3)cc2)ccc1O (cis-trans isomerization)
COc1cc(/C=C/C(=O)c2ccc(-n3ccnc3)cc2)ccc1O (3D coordinates assigned)
COc1cc(/C=C/C(=O)c2ccc(-n3ccnc3)cc2)ccc1O (optimized conformer: 81.65089861755885 kcal/mol)

>  <smiles>  (43) 
COc1cc(C=CC(=O)c2ccc(-n3ccnc3)cc2)ccc1O

>  <score_type>  (43) 
oracle

>  <origin>  (43) 
adg

>  <m_score__min__energy>  (43) 
-9.2400000000000002

>  <m_primary>  (43) 
energy

$$$$
