0:0
     RDKit          3D

 26 27  0  0  0  0  0  0  0  0999 V2000
   -6.4160   25.8610  -29.3660 C   0  0  0  0  0  0  0  0  0  0  0  0
   -5.5490   24.9290  -30.0770 N   0  0  0  0  0  0  0  0  0  0  0  0
   -4.3780   25.2430  -30.6010 N   0  0  0  0  0  0  0  0  0  0  0  0
   -3.8900   24.1740  -31.2150 N   0  0  0  0  0  0  0  0  0  0  0  0
   -4.7390   23.1590  -31.1090 N   0  0  0  0  0  0  0  0  0  0  0  0
   -5.7770   23.6470  -30.4060 C   0  0  0  0  0  0  0  0  0  0  0  0
   -7.2320   22.6930  -29.9640 S   0  0  0  0  0  0  0  0  0  0  0  0
   -8.0050   22.8060  -31.6170 C   0  0  0  0  0  0  0  0  0  0  0  0
   -8.7440   21.5430  -31.9640 C   0  0  0  0  0  0  0  0  0  0  0  0
  -10.0010   21.5470  -31.8670 O   0  0  0  0  0  0  0  0  0  0  0  0
   -8.0470   20.2970  -32.3900 C   0  0  0  0  0  0  0  0  0  0  0  0
   -8.5290   19.0430  -31.9640 C   0  0  0  0  0  0  0  0  0  0  0  0
   -7.8830   17.8630  -32.3420 C   0  0  0  0  0  0  0  0  0  0  0  0
   -6.7460   17.9150  -33.1530 C   0  0  0  0  0  0  0  0  0  0  0  0
   -5.8640   16.3010  -33.6670 Br  0  0  0  0  0  0  0  0  0  0  0  0
   -6.2570   19.1490  -33.5860 C   0  0  0  0  0  0  0  0  0  0  0  0
   -6.8990   20.3320  -33.2100 C   0  0  0  0  0  0  0  0  0  0  0  0
   -6.2896   25.7251  -28.2818 H   0  0  0  0  0  0  0  0  0  0  0  0
   -6.1487   26.8923  -29.6399 H   0  0  0  0  0  0  0  0  0  0  0  0
   -7.4639   25.6688  -29.6399 H   0  0  0  0  0  0  0  0  0  0  0  0
   -8.7124   23.6483  -31.6246 H   0  0  0  0  0  0  0  0  0  0  0  0
   -7.2098   22.9578  -32.3617 H   0  0  0  0  0  0  0  0  0  0  0  0
   -9.4241   18.9926  -31.3266 H   0  0  0  0  0  0  0  0  0  0  0  0
   -8.2700   16.8916  -32.0007 H   0  0  0  0  0  0  0  0  0  0  0  0
   -5.3630   19.1902  -34.2255 H   0  0  0  0  0  0  0  0  0  0  0  0
   -6.5059   21.2992  -33.5564 H   0  0  0  0  0  0  0  0  0  0  0  0
  1  2  1  0
  2  3  1  0
  3  4  2  0
  4  5  1  0
  5  6  2  0
  6  7  1  0
  7  8  1  0
  8  9  1  0
  9 10  2  0
  9 11  1  0
 11 12  2  0
 12 13  1  0
 13 14  2  0
 14 15  1  0
 14 16  1  0
 16 17  2  0
  6  2  1  0
 17 11  1  0
  1 18  1  0
  1 19  1  0
  1 20  1  0
  8 21  1  0
  8 22  1  0
 12 23  1  0
 13 24  1  0
 16 25  1  0
 17 26  1  0
M  END
>  <UniqueID>  (1) 
1

>  <SMILES>  (1) 
Cn1nnnc1SCC(=O)c1ccc(Br)cc1

>  <Energy>  (1) 
62.3137629718838

>  <Genealogy>  (1) 
Cn1nnnc1SCC(=O)c1ccc(Br)cc1 (3D coordinates assigned)
Cn1nnnc1SCC(=O)c1ccc(Br)cc1 (optimized conformer: 62.3137629718838 kcal/mol)

>  <smiles>  (1) 
Cn1nnnc1SCC(=O)c1ccc(Br)cc1

>  <score_type>  (1) 
oracle

>  <origin>  (1) 
adg

>  <m_score__min__energy>  (1) 
-8.5500000000000007

>  <m_primary>  (1) 
energy

$$$$
1:0
     RDKit          3D

 36 37  0  0  0  0  0  0  0  0999 V2000
   -3.9470   21.9010  -32.2890 C   0  0  0  0  0  0  0  0  0  0  0  0
   -5.0330   22.9870  -32.3060 C   0  0  0  0  0  0  0  0  0  0  0  0
   -5.9980   22.9250  -31.1780 N   0  0  0  0  0  0  0  0  0  0  0  0
   -5.7500   23.8460  -30.0480 C   0  0  0  0  0  0  0  0  0  0  0  0
   -4.9210   25.0130  -30.4880 C   0  0  0  0  0  0  0  0  0  0  0  0
   -5.4860   26.0790  -30.8480 O   0  0  0  0  0  0  0  0  0  0  0  0
   -3.4930   24.9270  -30.4220 N   0  0  0  0  0  0  0  0  0  0  0  0
   -2.7270   24.3690  -29.3450 C   0  0  0  0  0  0  0  0  0  0  0  0
   -1.8010   25.1350  -28.6120 C   0  0  0  0  0  0  0  0  0  0  0  0
   -1.0560   24.5460  -27.5870 C   0  0  0  0  0  0  0  0  0  0  0  0
   -1.2160   23.1890  -27.2920 C   0  0  0  0  0  0  0  0  0  0  0  0
   -2.1170   22.4160  -28.0310 C   0  0  0  0  0  0  0  0  0  0  0  0
   -2.3240   20.5580  -27.6410 Br  0  0  0  0  0  0  0  0  0  0  0  0
   -2.8630   23.0030  -29.0590 C   0  0  0  0  0  0  0  0  0  0  0  0
   -7.4170   22.8410  -31.5830 C   0  0  0  0  0  0  0  0  0  0  0  0
   -7.8660   21.4440  -31.9020 C   0  0  0  0  0  0  0  0  0  0  0  0
   -7.0350   20.3590  -32.1520 C   0  0  0  0  0  0  0  0  0  0  0  0
   -7.7350   19.1770  -32.4140 C   0  0  0  0  0  0  0  0  0  0  0  0
   -9.1160   19.3240  -32.3680 C   0  0  0  0  0  0  0  0  0  0  0  0
   -9.4650   20.9270  -31.9990 S   0  0  0  0  0  0  0  0  0  0  0  0
   -3.6959   21.6499  -31.2479 H   0  0  0  0  0  0  0  0  0  0  0  0
   -4.3188   21.0026  -32.8035 H   0  0  0  0  0  0  0  0  0  0  0  0
   -3.0486   22.2728  -32.8035 H   0  0  0  0  0  0  0  0  0  0  0  0
   -4.5358   23.9678  -32.2767 H   0  0  0  0  0  0  0  0  0  0  0  0
   -5.6189   22.8228  -33.2224 H   0  0  0  0  0  0  0  0  0  0  0  0
   -6.7130   24.2121  -29.6626 H   0  0  0  0  0  0  0  0  0  0  0  0
   -5.2059   23.3023  -29.2617 H   0  0  0  0  0  0  0  0  0  0  0  0
   -1.6634   26.2008  -28.8469 H   0  0  0  0  0  0  0  0  0  0  0  0
   -0.3415   25.1520  -27.0105 H   0  0  0  0  0  0  0  0  0  0  0  0
   -0.6338   22.7298  -26.4795 H   0  0  0  0  0  0  0  0  0  0  0  0
   -3.5609   22.3887  -29.6468 H   0  0  0  0  0  0  0  0  0  0  0  0
   -8.0374   23.2272  -30.7608 H   0  0  0  0  0  0  0  0  0  0  0  0
   -7.5273   23.4347  -32.5024 H   0  0  0  0  0  0  0  0  0  0  0  0
   -5.9369   20.4232  -32.1446 H   0  0  0  0  0  0  0  0  0  0  0  0
   -7.2389   18.2206  -32.6357 H   0  0  0  0  0  0  0  0  0  0  0  0
   -9.8546   18.5279  -32.5430 H   0  0  0  0  0  0  0  0  0  0  0  0
  1  2  1  0
  2  3  1  0
  3  4  1  0
  4  5  1  0
  5  6  2  0
  5  7  1  0
  7  8  1  0
  8  9  2  0
  9 10  1  0
 10 11  2  0
 11 12  1  0
 12 13  1  0
 12 14  2  0
  3 15  1  0
 15 16  1  0
 16 17  2  0
 17 18  1  0
 18 19  2  0
 19 20  1  0
 14  8  1  0
 20 16  1  0
  1 21  1  0
  1 22  1  0
  1 23  1  0
  2 24  1  0
  2 25  1  0
  4 26  1  0
  4 27  1  0
  9 28  1  0
 10 29  1  0
 11 30  1  0
 14 31  1  0
 15 32  1  0
 15 33  1  0
 17 34  1  0
 18 35  1  0
 19 36  1  0
M  CHG  1   7  -1
M  END
>  <UniqueID>  (2) 
2

>  <SMILES>  (2) 
CCN(CC(=O)[N-]c1cccc(Br)c1)Cc1cccs1

>  <Energy>  (2) 
69.77173070226803

>  <Genealogy>  (2) 
CCN(CC(=O)[N-]c1cccc(Br)c1)Cc1cccs1 (protonated)
CCN(CC(=O)[N-]c1cccc(Br)c1)Cc1cccs1 (3D coordinates assigned)
CCN(CC(=O)[N-]c1cccc(Br)c1)Cc1cccs1 (optimized conformer: 69.77173070226803 kcal/mol)

>  <smiles>  (2) 
CCN(CC(=O)Nc1cccc(Br)c1)Cc1cccs1

>  <score_type>  (2) 
oracle

>  <origin>  (2) 
adg

>  <m_score__min__energy>  (2) 
-9.1199999999999992

>  <m_primary>  (2) 
energy

$$$$
2:0
     RDKit          3D

 66 67  0  0  0  0  0  0  0  0999 V2000
    0.6301   20.6992  -29.0372 H   0  0  0  0  0  0  0  0  0  0  0  0
   -0.3610   20.8250  -28.5770 C   0  0  0  0  0  0  0  0  0  0  0  0
   -0.7060   20.0740  -27.5730 N   0  0  0  0  0  0  0  0  0  0  0  0
   -1.9640   19.5220  -27.3890 O   0  0  0  0  0  0  0  0  0  0  0  0
   -2.4910   19.1550  -26.1180 C   0  0  0  0  0  0  0  0  0  0  0  0
   -2.5390   20.0422  -25.4694 H   0  0  0  0  0  0  0  0  0  0  0  0
   -1.8411   18.3995  -25.6524 H   0  0  0  0  0  0  0  0  0  0  0  0
   -3.8920   18.5820  -26.3030 C   0  0  0  0  0  0  0  0  0  0  0  0
   -4.3453   18.3966  -25.3181 H   0  0  0  0  0  0  0  0  0  0  0  0
   -4.5106   19.2993  -26.8622 H   0  0  0  0  0  0  0  0  0  0  0  0
   -3.8306   17.6367  -26.8622 H   0  0  0  0  0  0  0  0  0  0  0  0
   -1.2890   21.8450  -29.1040 C   0  0  0  0  0  0  0  0  0  0  0  0
   -2.3950   21.4850  -29.8920 C   0  0  0  0  0  0  0  0  0  0  0  0
   -2.5716   20.4266  -30.1339 H   0  0  0  0  0  0  0  0  0  0  0  0
   -3.2710   22.4600  -30.3700 C   0  0  0  0  0  0  0  0  0  0  0  0
   -4.1379   22.1662  -30.9801 H   0  0  0  0  0  0  0  0  0  0  0  0
   -3.0500   23.8160  -30.0750 C   0  0  0  0  0  0  0  0  0  0  0  0
   -3.9060   24.8310  -30.5340 O   0  0  0  0  0  0  0  0  0  0  0  0
   -5.1620   25.1720  -29.9490 C   0  0  0  0  0  0  0  0  0  0  0  0
   -5.0900   25.0947  -28.8541 H   0  0  0  0  0  0  0  0  0  0  0  0
   -5.4288   26.2026  -30.2261 H   0  0  0  0  0  0  0  0  0  0  0  0
   -6.2420   24.2070  -30.4610 C   0  0  0  0  0  0  0  0  0  0  0  0
   -6.3576   23.3924  -29.7309 H   0  0  0  0  0  0  0  0  0  0  0  0
   -7.1684   24.7876  -30.5823 H   0  0  0  0  0  0  0  0  0  0  0  0
   -5.9040   23.5900  -31.8350 C   0  0  0  0  0  0  0  0  0  0  0  0
   -6.0540   24.3637  -32.6024 H   0  0  0  0  0  0  0  0  0  0  0  0
   -4.8641   23.2381  -31.7658 H   0  0  0  0  0  0  0  0  0  0  0  0
   -6.7500   22.3590  -32.2250 C   0  0  0  0  0  0  0  0  0  0  0  0
   -7.6541   22.3517  -31.5984 H   0  0  0  0  0  0  0  0  0  0  0  0
   -6.9693   22.4591  -33.2983 H   0  0  0  0  0  0  0  0  0  0  0  0
   -6.0360   21.0110  -32.0510 C   0  0  0  0  0  0  0  0  0  0  0  0
   -5.1407   21.1706  -31.4322 H   0  0  0  0  0  0  0  0  0  0  0  0
   -6.7572   20.3259  -31.5815 H   0  0  0  0  0  0  0  0  0  0  0  0
   -5.5990   20.3600  -33.3780 C   0  0  0  0  0  0  0  0  0  0  0  0
   -5.3920   21.1565  -34.1078 H   0  0  0  0  0  0  0  0  0  0  0  0
   -4.7058   19.7531  -33.1686 H   0  0  0  0  0  0  0  0  0  0  0  0
   -6.6310   19.4520  -33.9470 N   0  0  0  0  0  0  0  0  0  0  0  0
   -7.2510   20.0410  -34.5550 H   0  0  0  0  0  0  0  0  0  0  0  0
   -7.4960   18.8810  -32.8760 C   0  0  0  0  0  0  0  0  0  0  0  0
   -7.4502   19.5448  -32.0001 H   0  0  0  0  0  0  0  0  0  0  0  0
   -8.5133   18.8041  -33.2873 H   0  0  0  0  0  0  0  0  0  0  0  0
   -7.0740   17.4620  -32.4370 C   0  0  0  0  0  0  0  0  0  0  0  0
   -7.3593   17.3058  -31.3862 H   0  0  0  0  0  0  0  0  0  0  0  0
   -7.5791   16.7215  -33.0746 H   0  0  0  0  0  0  0  0  0  0  0  0
   -5.6180   17.3050  -32.5750 N   0  0  0  0  0  0  0  0  0  0  0  0
   -5.1760   16.0350  -31.9780 C   0  0  0  0  0  0  0  0  0  0  0  0
   -5.2042   16.1159  -30.8813 H   0  0  0  0  0  0  0  0  0  0  0  0
   -5.8449   15.2246  -32.3032 H   0  0  0  0  0  0  0  0  0  0  0  0
   -4.1484   15.8150  -32.3032 H   0  0  0  0  0  0  0  0  0  0  0  0
   -5.2100   17.3800  -33.9970 C   0  0  0  0  0  0  0  0  0  0  0  0
   -4.1575   17.6958  -34.0469 H   0  0  0  0  0  0  0  0  0  0  0  0
   -5.3518   16.3836  -34.4408 H   0  0  0  0  0  0  0  0  0  0  0  0
   -6.0680   18.3820  -34.8010 C   0  0  0  0  0  0  0  0  0  0  0  0
   -5.4393   18.8429  -35.5770 H   0  0  0  0  0  0  0  0  0  0  0  0
   -6.9087   17.8266  -35.2423 H   0  0  0  0  0  0  0  0  0  0  0  0
   -1.9400   24.1900  -29.3030 C   0  0  0  0  0  0  0  0  0  0  0  0
   -1.7670   25.5580  -29.0240 O   0  0  0  0  0  0  0  0  0  0  0  0
   -1.2500   26.1080  -27.8130 C   0  0  0  0  0  0  0  0  0  0  0  0
   -0.1843   25.8501  -27.7254 H   0  0  0  0  0  0  0  0  0  0  0  0
   -1.3777   27.2003  -27.8380 H   0  0  0  0  0  0  0  0  0  0  0  0
   -1.9990   25.5550  -26.6070 C   0  0  0  0  0  0  0  0  0  0  0  0
   -1.5188   25.9095  -25.6830 H   0  0  0  0  0  0  0  0  0  0  0  0
   -3.0429   25.9007  -26.6336 H   0  0  0  0  0  0  0  0  0  0  0  0
   -1.9760   24.4556  -26.6336 H   0  0  0  0  0  0  0  0  0  0  0  0
   -1.0630   23.1990  -28.8190 C   0  0  0  0  0  0  0  0  0  0  0  0
   -0.1931   23.4904  -28.2120 H   0  0  0  0  0  0  0  0  0  0  0  0
  1  2  1  0
  2  3  2  0
  3  4  1  0
  4  5  1  0
  5  6  1  0
  5  7  1  0
  5  8  1  0
  8  9  1  0
  8 10  1  0
  8 11  1  0
  2 12  1  0
 12 13  2  0
 13 14  1  0
 13 15  1  0
 15 16  1  0
 15 17  2  0
 17 18  1  0
 18 19  1  0
 19 20  1  0
 19 21  1  0
 19 22  1  0
 22 23  1  0
 22 24  1  0
 22 25  1  0
 25 26  1  0
 25 27  1  0
 25 28  1  0
 28 29  1  0
 28 30  1  0
 28 31  1  0
 31 32  1  0
 31 33  1  0
 31 34  1  0
 34 35  1  0
 34 36  1  0
 34 37  1  0
 37 38  1  0
 37 39  1  0
 39 40  1  0
 39 41  1  0
 39 42  1  0
 42 43  1  0
 42 44  1  0
 42 45  1  0
 45 46  1  0
 46 47  1  0
 46 48  1  0
 46 49  1  0
 45 50  1  0
 50 51  1  0
 50 52  1  0
 50 53  1  0
 53 54  1  0
 53 55  1  0
 17 56  1  0
 56 57  1  0
 57 58  1  0
 58 59  1  0
 58 60  1  0
 58 61  1  0
 61 62  1  0
 61 63  1  0
 61 64  1  0
 56 65  2  0
 65 66  1  0
 65 12  1  0
 53 37  1  0
M  CHG  1  37   1
M  END
>  <UniqueID>  (3) 
3

>  <SMILES>  (3) 
CCO/N=C/c1ccc(OCCCCCC[NH+]2CCN(C)CC2)c(OCC)c1

>  <Energy>  (3) 
66.68393256892107

>  <Genealogy>  (3) 
CCON=Cc1ccc(OCCCCCC[NH+]2CCN(C)CC2)c(OCC)c1 (protonated)
CCO/N=C/c1ccc(OCCCCCC[NH+]2CCN(C)CC2)c(OCC)c1 (cis-trans isomerization)
CCO/N=C/c1ccc(OCCCCCC[NH+]2CCN(C)CC2)c(OCC)c1 (3D coordinates assigned)
CCO/N=C/c1ccc(OCCCCCC[NH+]2CCN(C)CC2)c(OCC)c1 (nonaromatic ring conformer: 66.68393256892107 kcal/mol)

>  <smiles>  (3) 
CCON=Cc1ccc(OCCCCCCN2CCN(C)CC2)c(OCC)c1

>  <score_type>  (3) 
oracle

>  <origin>  (3) 
adg

>  <m_score__min__energy>  (3) 
-8.2799999999999994

>  <m_primary>  (3) 
energy

$$$$
3:0
     RDKit          3D

 53 56  0  0  0  0  0  0  0  0999 V2000
   -6.3140   25.3170  -29.5710 C   0  0  0  0  0  0  0  0  0  0  0  0
   -5.3480   25.6600  -30.7030 C   0  0  0  0  0  0  0  0  0  0  0  0
   -4.3680   24.5780  -30.8850 N   0  0  0  0  0  0  0  0  0  0  0  0
   -4.1350   23.8040  -29.6550 C   0  0  0  0  0  0  0  0  0  0  0  0
   -3.0980   22.6820  -29.8620 C   0  0  0  0  0  0  0  0  0  0  0  0
   -3.5470   21.6520  -30.9100 C   0  0  0  0  0  0  0  0  0  0  0  0
   -3.1330   22.0430  -32.3360 C   0  0  0  0  0  0  0  0  0  0  0  0
   -4.2420   21.8520  -33.2730 N   0  0  0  0  0  0  0  0  0  0  0  0
   -5.3680   21.0190  -32.9590 C   0  0  0  0  0  0  0  0  0  0  0  0
   -5.2950   19.6480  -33.1780 C   0  0  0  0  0  0  0  0  0  0  0  0
   -6.3920   18.8250  -32.9900 C   0  0  0  0  0  0  0  0  0  0  0  0
   -7.5640   19.2990  -32.4580 N   0  0  0  0  0  0  0  0  0  0  0  0
   -8.5920   18.3540  -31.9920 C   0  0  0  0  0  0  0  0  0  0  0  0
   -7.7120   20.6690  -32.2960 C   0  0  0  0  0  0  0  0  0  0  0  0
   -8.9560   21.2470  -31.9420 C   0  0  0  0  0  0  0  0  0  0  0  0
   -9.0720   22.6180  -31.7130 C   0  0  0  0  0  0  0  0  0  0  0  0
   -7.9610   23.4470  -31.8300 C   0  0  0  0  0  0  0  0  0  0  0  0
   -6.7310   22.9200  -32.2190 C   0  0  0  0  0  0  0  0  0  0  0  0
   -6.5960   21.5460  -32.5030 C   0  0  0  0  0  0  0  0  0  0  0  0
   -6.0170   17.4570  -33.4270 C   0  0  0  0  0  0  0  0  0  0  0  0
   -6.7820   16.2990  -33.6370 C   0  0  0  0  0  0  0  0  0  0  0  0
   -6.1440   15.1520  -34.1420 C   0  0  0  0  0  0  0  0  0  0  0  0
   -4.7750   15.1770  -34.4670 C   0  0  0  0  0  0  0  0  0  0  0  0
   -4.0330   16.3570  -34.3140 C   0  0  0  0  0  0  0  0  0  0  0  0
   -4.6800   17.4820  -33.8020 C   0  0  0  0  0  0  0  0  0  0  0  0
   -4.1810   18.8390  -33.6640 C   0  0  0  0  0  0  0  0  0  0  0  0
   -3.0130   19.2330  -33.9180 O   0  0  0  0  0  0  0  0  0  0  0  0
   -5.8215   25.4919  -28.6031 H   0  0  0  0  0  0  0  0  0  0  0  0
   -7.2087   25.9524  -29.6473 H   0  0  0  0  0  0  0  0  0  0  0  0
   -6.6076   24.2597  -29.6473 H   0  0  0  0  0  0  0  0  0  0  0  0
   -5.9156   25.7958  -31.6354 H   0  0  0  0  0  0  0  0  0  0  0  0
   -4.8135   26.5870  -30.4480 H   0  0  0  0  0  0  0  0  0  0  0  0
   -3.4630   24.9850  -31.2210 H   0  0  0  0  0  0  0  0  0  0  0  0
   -3.7694   24.4845  -28.8719 H   0  0  0  0  0  0  0  0  0  0  0  0
   -5.0870   23.3354  -29.3649 H   0  0  0  0  0  0  0  0  0  0  0  0
   -2.1514   23.1334  -30.1940 H   0  0  0  0  0  0  0  0  0  0  0  0
   -2.9804   22.1546  -28.9039 H   0  0  0  0  0  0  0  0  0  0  0  0
   -3.0940   20.6799  -30.6655 H   0  0  0  0  0  0  0  0  0  0  0  0
   -4.6457   21.6054  -30.8826 H   0  0  0  0  0  0  0  0  0  0  0  0
   -2.8311   23.1007  -32.3461 H   0  0  0  0  0  0  0  0  0  0  0  0
   -2.2955   21.4014  -32.6472 H   0  0  0  0  0  0  0  0  0  0  0  0
   -4.3040   22.4780  -34.1060 H   0  0  0  0  0  0  0  0  0  0  0  0
   -8.6064   18.3408  -30.8922 H   0  0  0  0  0  0  0  0  0  0  0  0
   -9.5767   18.6687  -32.3678 H   0  0  0  0  0  0  0  0  0  0  0  0
   -8.3611   17.3463  -32.3678 H   0  0  0  0  0  0  0  0  0  0  0  0
   -9.8439   20.6048  -31.8463 H   0  0  0  0  0  0  0  0  0  0  0  0
  -10.0474   23.0461  -31.4384 H   0  0  0  0  0  0  0  0  0  0  0  0
   -8.0537   24.5218  -31.6148 H   0  0  0  0  0  0  0  0  0  0  0  0
   -5.8572   23.5826  -32.3052 H   0  0  0  0  0  0  0  0  0  0  0  0
   -7.8585   16.2889  -33.4112 H   0  0  0  0  0  0  0  0  0  0  0  0
   -6.7207   14.2262  -34.2844 H   0  0  0  0  0  0  0  0  0  0  0  0
   -4.2848   14.2668  -34.8428 H   0  0  0  0  0  0  0  0  0  0  0  0
   -2.9689   16.3946  -34.5904 H   0  0  0  0  0  0  0  0  0  0  0  0
  1  2  1  0
  2  3  1  0
  3  4  1  0
  4  5  1  0
  5  6  1  0
  6  7  1  0
  7  8  1  0
  8  9  1  0
  9 10  2  0
 10 11  1  0
 11 12  2  0
 12 13  1  0
 12 14  1  0
 14 15  2  0
 15 16  1  0
 16 17  2  0
 17 18  1  0
 18 19  2  0
 11 20  1  0
 20 21  2  0
 21 22  1  0
 22 23  2  0
 23 24  1  0
 24 25  2  0
 25 26  1  0
 26 27  2  0
 19  9  1  0
 25 20  1  0
 26 10  1  0
 19 14  1  0
  1 28  1  0
  1 29  1  0
  1 30  1  0
  2 31  1  0
  2 32  1  0
  3 33  1  0
  4 34  1  0
  4 35  1  0
  5 36  1  0
  5 37  1  0
  6 38  1  0
  6 39  1  0
  7 40  1  0
  7 41  1  0
  8 42  1  0
 13 43  1  0
 13 44  1  0
 13 45  1  0
 15 46  1  0
 16 47  1  0
 17 48  1  0
 18 49  1  0
 21 50  1  0
 22 51  1  0
 23 52  1  0
 24 53  1  0
M  CHG  1  12   1
M  END
>  <UniqueID>  (4) 
4

>  <SMILES>  (4) 
CCNCCCCNc1c2c([n+](C)c3ccccc13)-c1ccccc1C2=O

>  <Energy>  (4) 
104.91586010172415

>  <Genealogy>  (4) 
CCNCCCCNc1c2c([n+](C)c3ccccc13)-c1ccccc1C2=O (3D coordinates assigned)
CCNCCCCNc1c2c([n+](C)c3ccccc13)-c1ccccc1C2=O (nonaromatic ring conformer: 104.91586010172415 kcal/mol)

>  <smiles>  (4) 
CCNCCCCNc1c2c([n+](C)c3ccccc13)-c1ccccc1C2=O

>  <score_type>  (4) 
oracle

>  <origin>  (4) 
adg

>  <m_score__min__energy>  (4) 
-10.16

>  <m_primary>  (4) 
energy

$$$$
4:0
     RDKit          3D

 87 91  0  0  0  0  0  0  0  0999 V2000
   -2.2830   23.2170  -29.6470 C   0  0  0  0  0  0  0  0  0  0  0  0
   -3.1140   24.5010  -29.6180 C   0  0  0  0  0  0  0  0  0  0  0  0
   -4.3310   24.4460  -30.4610 N   0  0  0  0  0  0  0  0  0  0  0  0
   -5.1520   25.6820  -30.4560 C   0  0  0  0  0  0  0  0  0  0  0  0
   -6.3080   25.6920  -29.4440 C   0  0  0  0  0  0  0  0  0  0  0  0
   -5.0550   23.1570  -30.3900 C   0  0  0  0  0  0  0  0  0  0  0  0
   -6.3350   23.1820  -31.2370 C   0  0  0  0  0  0  0  0  0  0  0  0
   -6.1130   22.5910  -32.5570 N   0  0  0  0  0  0  0  0  0  0  0  0
   -5.8830   21.1810  -32.7240 C   0  0  0  0  0  0  0  0  0  0  0  0
   -6.9030   20.2620  -32.4300 C   0  0  0  0  0  0  0  0  0  0  0  0
   -8.0960   20.6700  -31.7990 C   0  0  0  0  0  0  0  0  0  0  0  0
   -9.1270   19.7600  -31.5700 C   0  0  0  0  0  0  0  0  0  0  0  0
   -8.9880   18.4350  -31.9680 C   0  0  0  0  0  0  0  0  0  0  0  0
   -7.8140   18.0090  -32.5910 C   0  0  0  0  0  0  0  0  0  0  0  0
   -6.7490   18.9120  -32.8300 C   0  0  0  0  0  0  0  0  0  0  0  0
   -5.5920   18.5080  -33.4620 N   0  0  0  0  0  0  0  0  0  0  0  0
   -5.6620   17.3550  -34.3840 C   0  0  0  0  0  0  0  0  0  0  0  0
   -4.4650   19.3130  -33.4180 C   0  0  0  0  0  0  0  0  0  0  0  0
   -4.6330   20.7020  -33.1630 C   0  0  0  0  0  0  0  0  0  0  0  0
   -3.5460   21.5810  -33.3250 C   0  0  0  0  0  0  0  0  0  0  0  0
   -2.3010   21.1100  -33.7120 C   0  0  0  0  0  0  0  0  0  0  0  0
   -2.0730   19.7400  -33.8340 C   0  0  0  0  0  0  0  0  0  0  0  0
   -0.7740   19.2800  -34.0940 C   0  0  0  0  0  0  0  0  0  0  0  0
   -0.4900   17.9180  -34.0760 C   0  0  0  0  0  0  0  0  0  0  0  0
   -1.4960   16.9910  -33.7620 C   0  0  0  0  0  0  0  0  0  0  0  0
   -1.2500   15.6110  -33.6590 O   0  0  0  0  0  0  0  0  0  0  0  0
   -0.0410   15.0170  -33.1840 C   0  0  0  0  0  0  0  0  0  0  0  0
   -0.0390   13.4960  -33.4790 C   0  0  0  0  0  0  0  0  0  0  0  0
   -1.0380   12.6910  -32.7030 N   0  0  0  0  0  0  0  0  0  0  0  0
   -0.3740   11.4830  -32.1420 C   0  0  0  0  0  0  0  0  0  0  0  0
   -1.6180   13.5110  -31.5870 C   0  0  0  0  0  0  0  0  0  0  0  0
   -3.0600   13.0930  -31.2380 C   0  0  0  0  0  0  0  0  0  0  0  0
   -4.0010   13.3120  -32.3830 N   0  0  0  0  0  0  0  0  0  0  0  0
   -5.0960   12.3140  -32.3020 C   0  0  0  0  0  0  0  0  0  0  0  0
   -4.6070   14.6640  -32.2780 C   0  0  0  0  0  0  0  0  0  0  0  0
   -3.3090   13.1940  -33.7060 C   0  0  0  0  0  0  0  0  0  0  0  0
   -2.1100   12.2270  -33.6500 C   0  0  0  0  0  0  0  0  0  0  0  0
   -2.7970   17.4500  -33.5190 C   0  0  0  0  0  0  0  0  0  0  0  0
   -3.1330   18.8180  -33.6280 C   0  0  0  0  0  0  0  0  0  0  0  0
   -2.0731   22.8927  -28.6170 H   0  0  0  0  0  0  0  0  0  0  0  0
   -2.8432   22.4295  -30.1724 H   0  0  0  0  0  0  0  0  0  0  0  0
   -1.3351   23.4055  -30.1724 H   0  0  0  0  0  0  0  0  0  0  0  0
   -3.4204   24.6921  -28.5790 H   0  0  0  0  0  0  0  0  0  0  0  0
   -2.4792   25.3021  -30.0245 H   0  0  0  0  0  0  0  0  0  0  0  0
   -4.4901   26.5299  -30.2258 H   0  0  0  0  0  0  0  0  0  0  0  0
   -5.6156   25.7461  -31.4515 H   0  0  0  0  0  0  0  0  0  0  0  0
   -5.9008   25.6885  -28.4222 H   0  0  0  0  0  0  0  0  0  0  0  0
   -6.9177   26.5955  -29.5927 H   0  0  0  0  0  0  0  0  0  0  0  0
   -6.9332   24.7992  -29.5927 H   0  0  0  0  0  0  0  0  0  0  0  0
   -4.3972   22.3569  -30.7603 H   0  0  0  0  0  0  0  0  0  0  0  0
   -5.3385   22.9782  -29.3423 H   0  0  0  0  0  0  0  0  0  0  0  0
   -7.1194   22.6124  -30.7171 H   0  0  0  0  0  0  0  0  0  0  0  0
   -6.6395   24.2302  -31.3736 H   0  0  0  0  0  0  0  0  0  0  0  0
   -6.0380   23.2190  -33.3880 H   0  0  0  0  0  0  0  0  0  0  0  0
   -8.2145   21.7173  -31.4841 H   0  0  0  0  0  0  0  0  0  0  0  0
  -10.0515   20.0906  -31.0739 H   0  0  0  0  0  0  0  0  0  0  0  0
   -9.8056   17.7206  -31.7914 H   0  0  0  0  0  0  0  0  0  0  0  0
   -7.7144   16.9582  -32.9005 H   0  0  0  0  0  0  0  0  0  0  0  0
   -5.7186   16.4232  -33.8022 H   0  0  0  0  0  0  0  0  0  0  0  0
   -6.5563   17.4463  -35.0180 H   0  0  0  0  0  0  0  0  0  0  0  0
   -4.7633   17.3374  -35.0180 H   0  0  0  0  0  0  0  0  0  0  0  0
   -3.6862   22.6566  -33.1420 H   0  0  0  0  0  0  0  0  0  0  0  0
   -1.4887   21.8209  -33.9239 H   0  0  0  0  0  0  0  0  0  0  0  0
    0.0266   20.0015  -34.3139 H   0  0  0  0  0  0  0  0  0  0  0  0
    0.5261   17.5667  -34.3086 H   0  0  0  0  0  0  0  0  0  0  0  0
    0.8167   15.4859  -33.6885 H   0  0  0  0  0  0  0  0  0  0  0  0
    0.0315   15.1715  -32.0973 H   0  0  0  0  0  0  0  0  0  0  0  0
   -0.2491   13.3573  -34.5498 H   0  0  0  0  0  0  0  0  0  0  0  0
    0.9514   13.1283  -33.1727 H   0  0  0  0  0  0  0  0  0  0  0  0
   -0.3987   11.5280  -31.0432 H   0  0  0  0  0  0  0  0  0  0  0  0
   -0.9033   10.5814  -32.4841 H   0  0  0  0  0  0  0  0  0  0  0  0
    0.6708   11.4467  -32.4841 H   0  0  0  0  0  0  0  0  0  0  0  0
   -0.9884   13.3871  -30.6936 H   0  0  0  0  0  0  0  0  0  0  0  0
   -1.6441   14.5591  -31.9198 H   0  0  0  0  0  0  0  0  0  0  0  0
   -3.0659   12.0255  -30.9728 H   0  0  0  0  0  0  0  0  0  0  0  0
   -3.3993   13.7143  -30.3960 H   0  0  0  0  0  0  0  0  0  0  0  0
   -5.3247   12.1055  -31.2464 H   0  0  0  0  0  0  0  0  0  0  0  0
   -5.9925   12.7121  -32.7998 H   0  0  0  0  0  0  0  0  0  0  0  0
   -4.7825   11.3845  -32.7998 H   0  0  0  0  0  0  0  0  0  0  0  0
   -4.7266   14.9309  -31.2176 H   0  0  0  0  0  0  0  0  0  0  0  0
   -3.9520   15.3986  -32.7693 H   0  0  0  0  0  0  0  0  0  0  0  0
   -5.5912   14.6639  -32.7693 H   0  0  0  0  0  0  0  0  0  0  0  0
   -4.0288   12.8235  -34.4508 H   0  0  0  0  0  0  0  0  0  0  0  0
   -2.9284   14.1894  -33.9788 H   0  0  0  0  0  0  0  0  0  0  0  0
   -2.4680   11.2403  -33.3210 H   0  0  0  0  0  0  0  0  0  0  0  0
   -1.6695   12.1831  -34.6570 H   0  0  0  0  0  0  0  0  0  0  0  0
   -3.5765   16.7273  -33.2362 H   0  0  0  0  0  0  0  0  0  0  0  0
  1  2  1  0
  2  3  1  0
  3  4  1  0
  4  5  1  0
  3  6  1  0
  6  7  1  0
  7  8  1  0
  8  9  1  0
  9 10  2  0
 10 11  1  0
 11 12  2  0
 12 13  1  0
 13 14  2  0
 14 15  1  0
 15 16  2  0
 16 17  1  0
 16 18  1  0
 18 19  2  0
 19 20  1  0
 20 21  2  0
 21 22  1  0
 22 23  2  0
 23 24  1  0
 24 25  2  0
 25 26  1  0
 26 27  1  0
 27 28  1  0
 28 29  1  0
 29 30  1  0
 29 31  1  0
 31 32  1  0
 32 33  1  0
 33 34  1  0
 33 35  1  0
 33 36  1  0
 36 37  1  0
 25 38  1  0
 38 39  2  0
 19  9  1  0
 39 22  1  0
 15 10  1  0
 39 18  1  0
 37 29  1  0
  1 40  1  0
  1 41  1  0
  1 42  1  0
  2 43  1  0
  2 44  1  0
  4 45  1  0
  4 46  1  0
  5 47  1  0
  5 48  1  0
  5 49  1  0
  6 50  1  0
  6 51  1  0
  7 52  1  0
  7 53  1  0
  8 54  1  0
 11 55  1  0
 12 56  1  0
 13 57  1  0
 14 58  1  0
 17 59  1  0
 17 60  1  0
 17 61  1  0
 20 62  1  0
 21 63  1  0
 23 64  1  0
 24 65  1  0
 27 66  1  0
 27 67  1  0
 28 68  1  0
 28 69  1  0
 30 70  1  0
 30 71  1  0
 30 72  1  0
 31 73  1  0
 31 74  1  0
 32 75  1  0
 32 76  1  0
 34 77  1  0
 34 78  1  0
 34 79  1  0
 35 80  1  0
 35 81  1  0
 35 82  1  0
 36 83  1  0
 36 84  1  0
 37 85  1  0
 37 86  1  0
 38 87  1  0
M  CHG  3  16   1  29   1  33   1
M  END
>  <UniqueID>  (5) 
5

>  <SMILES>  (5) 
CCN(CC)CCNc1c2ccccc2[n+](C)c2c1ccc1ccc(OCC[N+]3(C)CC[N+](C)(C)CC3)cc12

>  <Energy>  (5) 
160.72010258338875

>  <Genealogy>  (5) 
CCN(CC)CCNc1c2ccccc2[n+](C)c2c1ccc1ccc(OCC[N+]3(C)CC[N+](C)(C)CC3)cc12 (3D coordinates assigned)
CCN(CC)CCNc1c2ccccc2[n+](C)c2c1ccc1ccc(OCC[N+]3(C)CC[N+](C)(C)CC3)cc12 (nonaromatic ring conformer: 160.72010258338875 kcal/mol)

>  <smiles>  (5) 
CCN(CC)CCNc1c2ccccc2[n+](C)c2c1ccc1ccc(OCC[N+]3(C)CC[N+](C)(C)CC3)cc12

>  <score_type>  (5) 
oracle

>  <origin>  (5) 
adg

>  <m_score__min__energy>  (5) 
-9.0399999999999991

>  <m_primary>  (5) 
energy

$$$$
5:0
     RDKit          3D

 61 63  0  0  0  0  0  0  0  0999 V2000
   -1.5930   25.8720  -26.5310 C   0  0  0  0  0  0  0  0  0  0  0  0
   -1.1940   25.9000  -28.0040 C   0  0  0  0  0  0  0  0  0  0  0  0
   -1.9030   24.8480  -28.7610 N   0  0  0  0  0  0  0  0  0  0  0  0
   -0.9840   23.8540  -29.3580 C   0  0  0  0  0  0  0  0  0  0  0  0
   -1.7040   22.6810  -30.0400 C   0  0  0  0  0  0  0  0  0  0  0  0
   -3.0210   24.2230  -28.0160 C   0  0  0  0  0  0  0  0  0  0  0  0
   -4.3190   24.3630  -28.8160 C   0  0  0  0  0  0  0  0  0  0  0  0
   -4.1170   25.1820  -30.0220 N   0  0  0  0  0  0  0  0  0  0  0  0
   -5.3840   25.7410  -30.5140 C   0  0  0  0  0  0  0  0  0  0  0  0
   -6.5640   24.8700  -30.0720 C   0  0  0  0  0  0  0  0  0  0  0  0
   -6.7570   23.6630  -30.9580 C   0  0  0  0  0  0  0  0  0  0  0  0
   -5.6470   23.0130  -31.5190 C   0  0  0  0  0  0  0  0  0  0  0  0
   -5.8090   21.8180  -32.2250 C   0  0  0  0  0  0  0  0  0  0  0  0
   -7.0870   21.2610  -32.3940 C   0  0  0  0  0  0  0  0  0  0  0  0
   -7.2400   19.8830  -32.9950 C   0  0  0  0  0  0  0  0  0  0  0  0
   -6.4330   19.7040  -34.2150 N   0  0  0  0  0  0  0  0  0  0  0  0
   -5.4910   18.6140  -34.0790 C   0  0  0  0  0  0  0  0  0  0  0  0
   -5.9400   17.2860  -34.1780 C   0  0  0  0  0  0  0  0  0  0  0  0
   -5.0460   16.2190  -34.0600 C   0  0  0  0  0  0  0  0  0  0  0  0
   -3.6910   16.4560  -33.8300 C   0  0  0  0  0  0  0  0  0  0  0  0
   -3.2180   17.7710  -33.7290 C   0  0  0  0  0  0  0  0  0  0  0  0
   -1.8600   18.0340  -33.5050 C   0  0  0  0  0  0  0  0  0  0  0  0
   -1.4140   19.3530  -33.4170 C   0  0  0  0  0  0  0  0  0  0  0  0
   -2.3280   20.3980  -33.5550 C   0  0  0  0  0  0  0  0  0  0  0  0
   -3.6430   20.1320  -33.7700 N   0  0  0  0  0  0  0  0  0  0  0  0
   -4.1170   18.8560  -33.8580 C   0  0  0  0  0  0  0  0  0  0  0  0
   -8.2060   21.9560  -31.9090 C   0  0  0  0  0  0  0  0  0  0  0  0
   -8.0420   23.1480  -31.1920 C   0  0  0  0  0  0  0  0  0  0  0  0
   -0.6905   25.9353  -25.9054 H   0  0  0  0  0  0  0  0  0  0  0  0
   -2.2509   26.7262  -26.3130 H   0  0  0  0  0  0  0  0  0  0  0  0
   -2.1252   24.9343  -26.3130 H   0  0  0  0  0  0  0  0  0  0  0  0
   -1.4487   26.8826  -28.4277 H   0  0  0  0  0  0  0  0  0  0  0  0
   -0.1116   25.7188  -28.0790 H   0  0  0  0  0  0  0  0  0  0  0  0
   -0.3612   24.3631  -30.1083 H   0  0  0  0  0  0  0  0  0  0  0  0
   -0.3879   23.4317  -28.5356 H   0  0  0  0  0  0  0  0  0  0  0  0
   -2.1167   22.0086  -29.2735 H   0  0  0  0  0  0  0  0  0  0  0  0
   -2.5209   23.0671  -30.6674 H   0  0  0  0  0  0  0  0  0  0  0  0
   -0.9900   22.1274  -30.6674 H   0  0  0  0  0  0  0  0  0  0  0  0
   -2.8031   23.1566  -27.8571 H   0  0  0  0  0  0  0  0  0  0  0  0
   -3.1367   24.7261  -27.0447 H   0  0  0  0  0  0  0  0  0  0  0  0
   -4.6651   23.3628  -29.1157 H   0  0  0  0  0  0  0  0  0  0  0  0
   -5.0674   24.8589  -28.1804 H   0  0  0  0  0  0  0  0  0  0  0  0
   -3.5010   25.9830  -29.7530 H   0  0  0  0  0  0  0  0  0  0  0  0
   -5.5125   26.7561  -30.1102 H   0  0  0  0  0  0  0  0  0  0  0  0
   -5.3562   25.7700  -31.6133 H   0  0  0  0  0  0  0  0  0  0  0  0
   -6.3826   24.5265  -29.0429 H   0  0  0  0  0  0  0  0  0  0  0  0
   -7.4749   25.4828  -30.1398 H   0  0  0  0  0  0  0  0  0  0  0  0
   -4.6430   23.4470  -31.4022 H   0  0  0  0  0  0  0  0  0  0  0  0
   -4.9306   21.3108  -32.6507 H   0  0  0  0  0  0  0  0  0  0  0  0
   -6.9239   19.1371  -32.2509 H   0  0  0  0  0  0  0  0  0  0  0  0
   -8.2967   19.7562  -33.2730 H   0  0  0  0  0  0  0  0  0  0  0  0
   -5.9010   20.5870  -34.4000 H   0  0  0  0  0  0  0  0  0  0  0  0
   -7.0580   19.5560  -35.0410 H   0  0  0  0  0  0  0  0  0  0  0  0
   -7.0075   17.0844  -34.3504 H   0  0  0  0  0  0  0  0  0  0  0  0
   -5.4129   15.1858  -34.1490 H   0  0  0  0  0  0  0  0  0  0  0  0
   -2.9941   15.6111  -33.7280 H   0  0  0  0  0  0  0  0  0  0  0  0
   -1.1475   17.2027  -33.3988 H   0  0  0  0  0  0  0  0  0  0  0  0
   -0.3497   19.5674  -33.2401 H   0  0  0  0  0  0  0  0  0  0  0  0
   -1.9830   21.4404  -33.4895 H   0  0  0  0  0  0  0  0  0  0  0  0
   -9.2166   21.5626  -32.0929 H   0  0  0  0  0  0  0  0  0  0  0  0
   -8.9241   23.6831  -30.8105 H   0  0  0  0  0  0  0  0  0  0  0  0
  1  2  1  0
  2  3  1  0
  3  4  1  0
  4  5  1  0
  3  6  1  0
  6  7  1  0
  7  8  1  0
  8  9  1  0
  9 10  1  0
 10 11  1  0
 11 12  2  0
 12 13  1  0
 13 14  2  0
 14 15  1  0
 15 16  1  0
 16 17  1  0
 17 18  2  0
 18 19  1  0
 19 20  2  0
 20 21  1  0
 21 22  2  0
 22 23  1  0
 23 24  2  0
 24 25  1  0
 25 26  2  0
 14 27  1  0
 27 28  2  0
 28 11  1  0
 26 17  1  0
 26 21  1  0
  1 29  1  0
  1 30  1  0
  1 31  1  0
  2 32  1  0
  2 33  1  0
  4 34  1  0
  4 35  1  0
  5 36  1  0
  5 37  1  0
  5 38  1  0
  6 39  1  0
  6 40  1  0
  7 41  1  0
  7 42  1  0
  8 43  1  0
  9 44  1  0
  9 45  1  0
 10 46  1  0
 10 47  1  0
 12 48  1  0
 13 49  1  0
 15 50  1  0
 15 51  1  0
 16 52  1  0
 16 53  1  0
 18 54  1  0
 19 55  1  0
 20 56  1  0
 22 57  1  0
 23 58  1  0
 24 59  1  0
 27 60  1  0
 28 61  1  0
M  CHG  1  16   1
M  END
>  <UniqueID>  (6) 
6

>  <SMILES>  (6) 
CCN(CC)CCNCCc1ccc(C[NH2+]c2cccc3cccnc23)cc1

>  <Energy>  (6) 
60.94933567747468

>  <Genealogy>  (6) 
CCN(CC)CCNCCc1ccc(C[NH2+]c2cccc3cccnc23)cc1 (protonated)
CCN(CC)CCNCCc1ccc(C[NH2+]c2cccc3cccnc23)cc1 (3D coordinates assigned)
CCN(CC)CCNCCc1ccc(C[NH2+]c2cccc3cccnc23)cc1 (optimized conformer: 60.94933567747468 kcal/mol)

>  <smiles>  (6) 
CCN(CC)CCNCCc1ccc(CNc2cccc3cccnc23)cc1

>  <score_type>  (6) 
oracle

>  <origin>  (6) 
adg

>  <m_score__min__energy>  (6) 
-8.5099999999999998

>  <m_primary>  (6) 
energy

$$$$
6:0
     RDKit          3D

 51 55  0  0  0  0  0  0  0  0999 V2000
   -9.0820   23.0130  -31.9720 C   0  0  0  0  0  0  0  0  0  0  0  0
   -9.4260   21.6700  -31.3460 C   0  0  0  0  0  0  0  0  0  0  0  0
  -10.1590   20.9010  -32.2750 O   0  0  0  0  0  0  0  0  0  0  0  0
   -9.4930   19.6810  -32.5460 C   0  0  0  0  0  0  0  0  0  0  0  0
   -8.3060   19.4880  -31.5990 C   0  0  0  0  0  0  0  0  0  0  0  0
   -7.0430   19.6430  -32.3190 N   0  0  0  0  0  0  0  0  0  0  0  0
   -6.2970   20.7420  -32.2570 N   0  0  0  0  0  0  0  0  0  0  0  0
   -5.1720   20.5310  -32.9800 C   0  0  0  0  0  0  0  0  0  0  0  0
   -4.0940   21.5560  -33.1660 C   0  0  0  0  0  0  0  0  0  0  0  0
   -3.8260   22.2590  -31.9040 N   0  0  0  0  0  0  0  0  0  0  0  0
   -2.7300   22.1220  -31.1130 C   0  0  0  0  0  0  0  0  0  0  0  0
   -1.6090   21.3160  -31.3300 C   0  0  0  0  0  0  0  0  0  0  0  0
   -0.5820   21.3330  -30.3680 C   0  0  0  0  0  0  0  0  0  0  0  0
   -0.6880   22.1500  -29.2210 C   0  0  0  0  0  0  0  0  0  0  0  0
   -1.8190   22.9610  -29.0240 C   0  0  0  0  0  0  0  0  0  0  0  0
   -2.8210   22.9220  -29.9910 C   0  0  0  0  0  0  0  0  0  0  0  0
   -4.0170   23.5930  -30.0900 C   0  0  0  0  0  0  0  0  0  0  0  0
   -4.6150   24.5320  -29.2510 C   0  0  0  0  0  0  0  0  0  0  0  0
   -5.8590   25.0560  -29.6380 C   0  0  0  0  0  0  0  0  0  0  0  0
   -6.4690   24.6390  -30.8400 C   0  0  0  0  0  0  0  0  0  0  0  0
   -5.8440   23.6920  -31.6710 C   0  0  0  0  0  0  0  0  0  0  0  0
   -4.6070   23.1730  -31.2680 C   0  0  0  0  0  0  0  0  0  0  0  0
   -5.2130   19.2500  -33.5000 C   0  0  0  0  0  0  0  0  0  0  0  0
   -4.3240   18.5200  -34.2870 C   0  0  0  0  0  0  0  0  0  0  0  0
   -4.6860   17.2040  -34.6320 C   0  0  0  0  0  0  0  0  0  0  0  0
   -5.9100   16.6580  -34.1850 C   0  0  0  0  0  0  0  0  0  0  0  0
   -6.7850   17.4210  -33.3890 C   0  0  0  0  0  0  0  0  0  0  0  0
   -6.3990   18.7230  -33.0650 C   0  0  0  0  0  0  0  0  0  0  0  0
   -8.8932   23.7502  -31.1777 H   0  0  0  0  0  0  0  0  0  0  0  0
   -8.1820   22.9071  -32.5955 H   0  0  0  0  0  0  0  0  0  0  0  0
   -9.9221   23.3529  -32.5955 H   0  0  0  0  0  0  0  0  0  0  0  0
   -8.4997   21.1402  -31.0789 H   0  0  0  0  0  0  0  0  0  0  0  0
  -10.0280   21.8276  -30.4389 H   0  0  0  0  0  0  0  0  0  0  0  0
  -10.1989   18.8477  -32.4141 H   0  0  0  0  0  0  0  0  0  0  0  0
   -9.1188   19.7056  -33.5801 H   0  0  0  0  0  0  0  0  0  0  0  0
   -8.3587   20.2378  -30.7958 H   0  0  0  0  0  0  0  0  0  0  0  0
   -8.3510   18.4736  -31.1760 H   0  0  0  0  0  0  0  0  0  0  0  0
   -3.1742   21.0561  -33.5038 H   0  0  0  0  0  0  0  0  0  0  0  0
   -4.4265   22.2884  -33.9164 H   0  0  0  0  0  0  0  0  0  0  0  0
   -1.5316   20.6856  -32.2281 H   0  0  0  0  0  0  0  0  0  0  0  0
    0.3100   20.7052  -30.5105 H   0  0  0  0  0  0  0  0  0  0  0  0
    0.1211   22.1517  -28.4757 H   0  0  0  0  0  0  0  0  0  0  0  0
   -1.9098   23.6045  -28.1365 H   0  0  0  0  0  0  0  0  0  0  0  0
   -4.1289   24.8516  -28.3174 H   0  0  0  0  0  0  0  0  0  0  0  0
   -6.3617   25.7971  -28.9993 H   0  0  0  0  0  0  0  0  0  0  0  0
   -7.4434   25.0589  -31.1301 H   0  0  0  0  0  0  0  0  0  0  0  0
   -6.3136   23.3679  -32.6114 H   0  0  0  0  0  0  0  0  0  0  0  0
   -3.3732   18.9567  -34.6265 H   0  0  0  0  0  0  0  0  0  0  0  0
   -4.0115   16.5969  -35.2536 H   0  0  0  0  0  0  0  0  0  0  0  0
   -6.1814   15.6284  -34.4612 H   0  0  0  0  0  0  0  0  0  0  0  0
   -7.7399   17.0058  -33.0345 H   0  0  0  0  0  0  0  0  0  0  0  0
  1  2  1  0
  2  3  1  0
  3  4  1  0
  4  5  1  0
  5  6  1  0
  6  7  1  0
  7  8  2  0
  8  9  1  0
  9 10  1  0
 10 11  1  0
 11 12  2  0
 12 13  1  0
 13 14  2  0
 14 15  1  0
 15 16  2  0
 16 17  1  0
 17 18  2  0
 18 19  1  0
 19 20  2  0
 20 21  1  0
 21 22  2  0
  8 23  1  0
 23 24  2  0
 24 25  1  0
 25 26  2  0
 26 27  1  0
 27 28  2  0
 28  6  1  0
 22 10  1  0
 28 23  1  0
 16 11  1  0
 22 17  1  0
  1 29  1  0
  1 30  1  0
  1 31  1  0
  2 32  1  0
  2 33  1  0
  4 34  1  0
  4 35  1  0
  5 36  1  0
  5 37  1  0
  9 38  1  0
  9 39  1  0
 12 40  1  0
 13 41  1  0
 14 42  1  0
 15 43  1  0
 18 44  1  0
 19 45  1  0
 20 46  1  0
 21 47  1  0
 24 48  1  0
 25 49  1  0
 26 50  1  0
 27 51  1  0
M  END
>  <UniqueID>  (7) 
7

>  <SMILES>  (7) 
CCOCCn1nc(Cn2c3ccccc3c3ccccc32)c2ccccc21

>  <Energy>  (7) 
131.8510712442656

>  <Genealogy>  (7) 
CCOCCn1nc(Cn2c3ccccc3c3ccccc32)c2ccccc21 (3D coordinates assigned)
CCOCCn1nc(Cn2c3ccccc3c3ccccc32)c2ccccc21 (optimized conformer: 131.8510712442656 kcal/mol)

>  <smiles>  (7) 
CCOCCn1nc(Cn2c3ccccc3c3ccccc32)c2ccccc21

>  <score_type>  (7) 
oracle

>  <origin>  (7) 
adg

>  <m_score__min__energy>  (7) 
-10.32

>  <m_primary>  (7) 
energy

$$$$
7:0
     RDKit          3D

 50 52  0  0  0  0  0  0  0  0999 V2000
   -8.8440   21.6230  -31.6080 C   0  0  0  0  0  0  0  0  0  0  0  0
   -7.9840   22.8430  -31.9730 C   0  0  0  0  0  0  0  0  0  0  0  0
   -6.6280   22.5170  -32.4780 N   0  0  0  0  0  0  0  0  0  0  0  0
   -6.3760   21.0710  -32.6490 C   0  0  0  0  0  0  0  0  0  0  0  0
   -4.9320   20.8080  -33.0720 C   0  0  0  0  0  0  0  0  0  0  0  0
   -5.5400   23.2680  -31.8100 C   0  0  0  0  0  0  0  0  0  0  0  0
   -5.9980   23.8830  -30.5380 N   0  0  0  0  0  0  0  0  0  0  0  0
   -5.7140   25.3340  -30.4840 C   0  0  0  0  0  0  0  0  0  0  0  0
   -4.2770   25.5820  -30.3790 N   0  0  0  0  0  0  0  0  0  0  0  0
   -3.4460   24.6900  -29.6320 C   0  0  0  0  0  0  0  0  0  0  0  0
   -2.1340   24.9830  -29.4330 N   0  0  0  0  0  0  0  0  0  0  0  0
   -1.3280   24.1450  -28.7310 C   0  0  0  0  0  0  0  0  0  0  0  0
    0.0160   24.4830  -28.5480 O   0  0  0  0  0  0  0  0  0  0  0  0
    0.6990   24.3610  -27.3000 C   0  0  0  0  0  0  0  0  0  0  0  0
    0.1110   25.3280  -26.2570 C   0  0  2  0  0  0  0  0  0  0  0  0
   -1.0930   24.7760  -25.5470 C   0  0  0  0  0  0  0  0  0  0  0  0
   -1.8910   26.0260  -25.2250 C   0  0  0  0  0  0  0  0  0  0  0  0
   -1.4960   27.0760  -26.0800 O   0  0  0  0  0  0  0  0  0  0  0  0
   -0.4320   26.6040  -26.8760 C   0  0  0  0  0  0  0  0  0  0  0  0
   -1.8370   22.9900  -28.2200 N   0  0  0  0  0  0  0  0  0  0  0  0
   -3.1400   22.6520  -28.3980 C   0  0  0  0  0  0  0  0  0  0  0  0
   -3.5780   21.5820  -27.9000 O   0  0  0  0  0  0  0  0  0  0  0  0
   -3.9830   23.4990  -29.1330 C   0  0  0  0  0  0  0  0  0  0  0  0
   -5.4520   23.1990  -29.3420 C   0  0  0  0  0  0  0  0  0  0  0  0
   -8.9073   21.5332  -30.5135 H   0  0  0  0  0  0  0  0  0  0  0  0
   -9.8543   21.7487  -32.0246 H   0  0  0  0  0  0  0  0  0  0  0  0
   -8.3861   20.7137  -32.0246 H   0  0  0  0  0  0  0  0  0  0  0  0
   -8.5116   23.4134  -32.7516 H   0  0  0  0  0  0  0  0  0  0  0  0
   -7.8404   23.4114  -31.0423 H   0  0  0  0  0  0  0  0  0  0  0  0
   -6.5697   20.5578  -31.6955 H   0  0  0  0  0  0  0  0  0  0  0  0
   -7.0441   20.6918  -33.4363 H   0  0  0  0  0  0  0  0  0  0  0  0
   -4.3028   20.6934  -32.1770 H   0  0  0  0  0  0  0  0  0  0  0  0
   -4.8876   19.8870  -33.6718 H   0  0  0  0  0  0  0  0  0  0  0  0
   -4.5657   21.6542  -33.6718 H   0  0  0  0  0  0  0  0  0  0  0  0
   -4.7109   22.5781  -31.5942 H   0  0  0  0  0  0  0  0  0  0  0  0
   -5.2161   24.0748  -32.4840 H   0  0  0  0  0  0  0  0  0  0  0  0
   -6.0954   25.8097  -31.3996 H   0  0  0  0  0  0  0  0  0  0  0  0
   -6.2086   25.7556  -29.5965 H   0  0  0  0  0  0  0  0  0  0  0  0
   -3.8670   26.4390  -30.8120 H   0  0  0  0  0  0  0  0  0  0  0  0
    0.5970   23.3292  -26.9327 H   0  0  0  0  0  0  0  0  0  0  0  0
    1.7593   24.6105  -27.4531 H   0  0  0  0  0  0  0  0  0  0  0  0
    0.9641   25.4987  -25.5839 H   0  0  0  0  0  0  0  0  0  0  0  0
   -1.6629   24.0986  -26.2000 H   0  0  0  0  0  0  0  0  0  0  0  0
   -0.8406   24.1779  -24.6590 H   0  0  0  0  0  0  0  0  0  0  0  0
   -2.9626   25.8223  -25.3671 H   0  0  0  0  0  0  0  0  0  0  0  0
   -1.7055   26.3175  -24.1807 H   0  0  0  0  0  0  0  0  0  0  0  0
   -0.7948   26.3964  -27.8935 H   0  0  0  0  0  0  0  0  0  0  0  0
    0.3626   27.3629  -26.9275 H   0  0  0  0  0  0  0  0  0  0  0  0
   -5.5777   22.1133  -29.4665 H   0  0  0  0  0  0  0  0  0  0  0  0
   -6.0005   23.5671  -28.4624 H   0  0  0  0  0  0  0  0  0  0  0  0
  1  2  1  0
  2  3  1  0
  3  4  1  0
  4  5  1  0
  3  6  1  0
  6  7  1  0
  7  8  1  0
  8  9  1  0
  9 10  1  0
 10 11  1  0
 11 12  1  0
 12 13  1  0
 13 14  1  0
 14 15  1  0
 15 16  1  0
 16 17  1  0
 17 18  1  0
 18 19  1  0
 12 20  2  0
 20 21  1  0
 21 22  2  0
 21 23  1  0
 23 24  1  0
 24  7  1  0
 23 10  2  0
 19 15  1  0
  1 25  1  0
  1 26  1  0
  1 27  1  0
  2 28  1  0
  2 29  1  0
  4 30  1  0
  4 31  1  0
  5 32  1  0
  5 33  1  0
  5 34  1  0
  6 35  1  0
  6 36  1  0
  8 37  1  0
  8 38  1  0
  9 39  1  0
 14 40  1  0
 14 41  1  0
 15 42  1  1
 16 43  1  0
 16 44  1  0
 17 45  1  0
 17 46  1  0
 19 47  1  0
 19 48  1  0
 24 49  1  0
 24 50  1  0
M  CHG  1  11  -1
M  END
>  <UniqueID>  (8) 
8

>  <SMILES>  (8) 
CCN(CC)CN1CNc2[n-]c(OC[C@@H]3CCOC3)nc(=O)c2C1

>  <Energy>  (8) 
58.87823442238532

>  <Genealogy>  (8) 
CCN(CC)CN1CNc2[n-]c(OCC3CCOC3)nc(=O)c2C1 (protonated)
CCN(CC)CN1CNc2[n-]c(OC[C@@H]3CCOC3)nc(=O)c2C1 (chirality)
CCN(CC)CN1CNc2[n-]c(OC[C@@H]3CCOC3)nc(=O)c2C1 (3D coordinates assigned)
CCN(CC)CN1CNc2[n-]c(OC[C@@H]3CCOC3)nc(=O)c2C1 (nonaromatic ring conformer: 58.87823442238532 kcal/mol)

>  <smiles>  (8) 
CCN(CC)CN1CNc2[nH]c(OCC3CCOC3)nc(=O)c2C1

>  <score_type>  (8) 
oracle

>  <origin>  (8) 
adg

>  <m_score__min__energy>  (8) 
-8.6199999999999992

>  <m_primary>  (8) 
energy

$$$$
8:0
     RDKit          3D

 45 46  0  0  0  0  0  0  0  0999 V2000
   -3.3630   24.0630  -29.3550 C   0  0  0  0  0  0  0  0  0  0  0  0
   -4.0080   23.5430  -30.6490 C   0  0  0  0  0  0  0  0  0  0  0  0
   -5.0280   24.4560  -31.2130 N   0  0  0  0  0  0  0  0  0  0  0  0
   -5.1900   25.6910  -30.4160 C   0  0  0  0  0  0  0  0  0  0  0  0
   -6.4880   25.6580  -29.6120 C   0  0  0  0  0  0  0  0  0  0  0  0
   -6.3110   23.7750  -31.5140 C   0  0  0  0  0  0  0  0  0  0  0  0
   -6.5140   22.6220  -30.5250 C   0  0  0  0  0  0  0  0  0  0  0  0
   -7.9950   22.2720  -30.3300 C   0  0  0  0  0  0  0  0  0  0  0  0
   -8.8770   22.0770  -31.9220 S   0  0  0  0  0  0  0  0  0  0  0  0
   -8.3940   20.3640  -32.1630 C   0  0  0  0  0  0  0  0  0  0  0  0
   -9.1880   19.3210  -31.8620 N   0  0  0  0  0  0  0  0  0  0  0  0
   -8.5080   18.2210  -32.1510 N   0  0  0  0  0  0  0  0  0  0  0  0
   -7.3030   18.6090  -32.6140 C   0  0  0  0  0  0  0  0  0  0  0  0
   -6.2520   17.6530  -33.0250 C   0  0  0  0  0  0  0  0  0  0  0  0
   -5.7770   17.6320  -34.3480 C   0  0  0  0  0  0  0  0  0  0  0  0
   -4.7690   16.7400  -34.7230 C   0  0  0  0  0  0  0  0  0  0  0  0
   -4.2190   15.8670  -33.7820 C   0  0  0  0  0  0  0  0  0  0  0  0
   -4.6720   15.8900  -32.4610 C   0  0  0  0  0  0  0  0  0  0  0  0
   -5.6790   16.7820  -32.0780 C   0  0  0  0  0  0  0  0  0  0  0  0
   -6.1100   16.7800  -30.7910 F   0  0  0  0  0  0  0  0  0  0  0  0
   -7.2030   19.9570  -32.6490 N   0  0  0  0  0  0  0  0  0  0  0  0
   -6.0860   20.7920  -33.0850 C   0  0  0  0  0  0  0  0  0  0  0  0
   -3.8890   23.6389  -28.4870 H   0  0  0  0  0  0  0  0  0  0  0  0
   -2.3054   23.7620  -29.3258 H   0  0  0  0  0  0  0  0  0  0  0  0
   -3.4328   25.1604  -29.3258 H   0  0  0  0  0  0  0  0  0  0  0  0
   -3.2161   23.4008  -31.3992 H   0  0  0  0  0  0  0  0  0  0  0  0
   -4.5211   22.6030  -30.3978 H   0  0  0  0  0  0  0  0  0  0  0  0
   -4.3405   25.7862  -29.7237 H   0  0  0  0  0  0  0  0  0  0  0  0
   -5.2255   26.5491  -31.1033 H   0  0  0  0  0  0  0  0  0  0  0  0
   -6.2538   25.6640  -28.5372 H   0  0  0  0  0  0  0  0  0  0  0  0
   -7.0954   26.5410  -29.8598 H   0  0  0  0  0  0  0  0  0  0  0  0
   -7.0497   24.7453  -29.8598 H   0  0  0  0  0  0  0  0  0  0  0  0
   -7.1395   24.4922  -31.4180 H   0  0  0  0  0  0  0  0  0  0  0  0
   -6.2882   23.3812  -32.5409 H   0  0  0  0  0  0  0  0  0  0  0  0
   -5.9883   21.7338  -30.9054 H   0  0  0  0  0  0  0  0  0  0  0  0
   -6.1140   22.9412  -29.5513 H   0  0  0  0  0  0  0  0  0  0  0  0
   -8.0648   21.3285  -29.7689 H   0  0  0  0  0  0  0  0  0  0  0  0
   -8.4677   23.1005  -29.7822 H   0  0  0  0  0  0  0  0  0  0  0  0
   -6.2014   18.3218  -35.0923 H   0  0  0  0  0  0  0  0  0  0  0  0
   -4.4078   16.7254  -35.7619 H   0  0  0  0  0  0  0  0  0  0  0  0
   -3.4296   15.1617  -34.0809 H   0  0  0  0  0  0  0  0  0  0  0  0
   -4.2355   15.2046  -31.7196 H   0  0  0  0  0  0  0  0  0  0  0  0
   -5.5578   21.1868  -32.2046 H   0  0  0  0  0  0  0  0  0  0  0  0
   -5.3919   20.1895  -33.6893 H   0  0  0  0  0  0  0  0  0  0  0  0
   -6.4674   21.6283  -33.6893 H   0  0  0  0  0  0  0  0  0  0  0  0
  1  2  1  0
  2  3  1  0
  3  4  1  0
  4  5  1  0
  3  6  1  0
  6  7  1  0
  7  8  1  0
  8  9  1  0
  9 10  1  0
 10 11  2  0
 11 12  1  0
 12 13  2  0
 13 14  1  0
 14 15  2  0
 15 16  1  0
 16 17  2  0
 17 18  1  0
 18 19  2  0
 19 20  1  0
 13 21  1  0
 21 22  1  0
 21 10  1  0
 19 14  1  0
  1 23  1  0
  1 24  1  0
  1 25  1  0
  2 26  1  0
  2 27  1  0
  4 28  1  0
  4 29  1  0
  5 30  1  0
  5 31  1  0
  5 32  1  0
  6 33  1  0
  6 34  1  0
  7 35  1  0
  7 36  1  0
  8 37  1  0
  8 38  1  0
 15 39  1  0
 16 40  1  0
 17 41  1  0
 18 42  1  0
 22 43  1  0
 22 44  1  0
 22 45  1  0
M  END
>  <UniqueID>  (9) 
9

>  <SMILES>  (9) 
CCN(CC)CCCSc1nnc(-c2ccccc2F)n1C

>  <Energy>  (9) 
78.5838636955902

>  <Genealogy>  (9) 
CCN(CC)CCCSc1nnc(-c2ccccc2F)n1C (3D coordinates assigned)
CCN(CC)CCCSc1nnc(-c2ccccc2F)n1C (optimized conformer: 78.5838636955902 kcal/mol)

>  <smiles>  (9) 
CCN(CC)CCCSc1nnc(-c2ccccc2F)n1C

>  <score_type>  (9) 
oracle

>  <origin>  (9) 
adg

>  <m_score__min__energy>  (9) 
-7.9299999999999997

>  <m_primary>  (9) 
energy

$$$$
9:0
     RDKit          3D

 46 48  0  0  0  0  0  0  0  0999 V2000
   -9.2300   19.3000  -32.7140 C   0  0  0  0  0  0  0  0  0  0  0  0
   -8.6930   19.2920  -31.2830 C   0  0  0  0  0  0  0  0  0  0  0  0
   -7.2260   19.3930  -31.2710 N   0  0  0  0  0  0  0  0  0  0  0  0
   -6.7020   19.5290  -32.6410 C   0  0  0  0  0  0  0  0  0  0  0  0
   -6.1380   20.9610  -32.8950 C   0  0  1  0  0  0  0  0  0  0  0  0
   -7.2360   22.0050  -32.6020 C   0  0  0  0  0  0  0  0  0  0  0  0
   -6.6700   23.4130  -32.7150 C   0  0  0  0  0  0  0  0  0  0  0  0
   -5.5930   23.5630  -31.7970 O   0  0  0  0  0  0  0  0  0  0  0  0
   -4.6360   22.5630  -31.5790 C   0  0  0  0  0  0  0  0  0  0  0  0
   -4.8630   21.2620  -32.0980 C   0  0  0  0  0  0  0  0  0  0  0  0
   -3.8590   20.2910  -31.9570 C   0  0  0  0  0  0  0  0  0  0  0  0
   -2.6950   20.5650  -31.2470 C   0  0  0  0  0  0  0  0  0  0  0  0
   -2.4900   21.8250  -30.6770 C   0  0  0  0  0  0  0  0  0  0  0  0
   -1.3180   22.0670  -29.9560 C   0  0  0  0  0  0  0  0  0  0  0  0
   -1.0890   23.3100  -29.3820 C   0  0  0  0  0  0  0  0  0  0  0  0
   -2.0230   24.3510  -29.5160 C   0  0  0  0  0  0  0  0  0  0  0  0
   -1.7880   25.5990  -28.9170 O   0  0  0  0  0  0  0  0  0  0  0  0
   -1.2850   25.7970  -27.5990 C   0  0  0  0  0  0  0  0  0  0  0  0
   -3.2170   24.1300  -30.2580 C   0  0  0  0  0  0  0  0  0  0  0  0
   -4.1860   25.1370  -30.4410 O   0  0  0  0  0  0  0  0  0  0  0  0
   -5.4110   25.2960  -29.7340 C   0  0  0  0  0  0  0  0  0  0  0  0
   -3.4570   22.8500  -30.8360 C   0  0  0  0  0  0  0  0  0  0  0  0
  -10.3297   19.3164  -32.6929 H   0  0  0  0  0  0  0  0  0  0  0  0
   -8.8600   20.1927  -33.2395 H   0  0  0  0  0  0  0  0  0  0  0  0
   -8.8868   18.3966  -33.2395 H   0  0  0  0  0  0  0  0  0  0  0  0
   -9.1170   20.1461  -30.7347 H   0  0  0  0  0  0  0  0  0  0  0  0
   -8.9834   18.3450  -30.8046 H   0  0  0  0  0  0  0  0  0  0  0  0
   -6.8240   18.5270  -30.8420 H   0  0  0  0  0  0  0  0  0  0  0  0
   -6.9460   20.2190  -30.6940 H   0  0  0  0  0  0  0  0  0  0  0  0
   -5.8962   18.7953  -32.7905 H   0  0  0  0  0  0  0  0  0  0  0  0
   -7.5271   19.3517  -33.3465 H   0  0  0  0  0  0  0  0  0  0  0  0
   -5.8448   21.0159  -33.9538 H   0  0  0  0  0  0  0  0  0  0  0  0
   -8.0546   21.8838  -33.3267 H   0  0  0  0  0  0  0  0  0  0  0  0
   -7.6118   21.8515  -31.5797 H   0  0  0  0  0  0  0  0  0  0  0  0
   -6.3057   23.5813  -33.7392 H   0  0  0  0  0  0  0  0  0  0  0  0
   -7.4567   24.1457  -32.4823 H   0  0  0  0  0  0  0  0  0  0  0  0
   -3.9948   19.2999  -32.4144 H   0  0  0  0  0  0  0  0  0  0  0  0
   -1.9291   19.7837  -31.1329 H   0  0  0  0  0  0  0  0  0  0  0  0
   -0.5716   21.2670  -29.8424 H   0  0  0  0  0  0  0  0  0  0  0  0
   -0.1629   23.4824  -28.8140 H   0  0  0  0  0  0  0  0  0  0  0  0
   -2.0484   25.4965  -26.8662 H   0  0  0  0  0  0  0  0  0  0  0  0
   -0.3801   25.1880  -27.4565 H   0  0  0  0  0  0  0  0  0  0  0  0
   -1.0381   26.8594  -27.4565 H   0  0  0  0  0  0  0  0  0  0  0  0
   -5.2157   25.2707  -28.6518 H   0  0  0  0  0  0  0  0  0  0  0  0
   -5.8664   26.2608  -30.0019 H   0  0  0  0  0  0  0  0  0  0  0  0
   -6.0976   24.4794  -30.0019 H   0  0  0  0  0  0  0  0  0  0  0  0
  1  2  1  0
  2  3  1  0
  3  4  1  0
  4  5  1  0
  5  6  1  0
  6  7  1  0
  7  8  1  0
  8  9  1  0
  9 10  2  0
 10 11  1  0
 11 12  2  0
 12 13  1  0
 13 14  2  0
 14 15  1  0
 15 16  2  0
 16 17  1  0
 17 18  1  0
 16 19  1  0
 19 20  1  0
 20 21  1  0
 19 22  2  0
 10  5  1  0
 22 13  1  0
 22  9  1  0
  1 23  1  0
  1 24  1  0
  1 25  1  0
  2 26  1  0
  2 27  1  0
  3 28  1  0
  3 29  1  0
  4 30  1  0
  4 31  1  0
  5 32  1  6
  6 33  1  0
  6 34  1  0
  7 35  1  0
  7 36  1  0
 11 37  1  0
 12 38  1  0
 14 39  1  0
 15 40  1  0
 18 41  1  0
 18 42  1  0
 18 43  1  0
 21 44  1  0
 21 45  1  0
 21 46  1  0
M  CHG  1   3   1
M  END
>  <UniqueID>  (10) 
10

>  <SMILES>  (10) 
CC[NH2+]C[C@H]1CCOc2c1ccc1ccc(OC)c(OC)c21

>  <Energy>  (10) 
56.57550080436229

>  <Genealogy>  (10) 
CC[NH2+]CC1CCOc2c1ccc1ccc(OC)c(OC)c21 (protonated)
CC[NH2+]C[C@H]1CCOc2c1ccc1ccc(OC)c(OC)c21 (chirality)
CC[NH2+]C[C@H]1CCOc2c1ccc1ccc(OC)c(OC)c21 (3D coordinates assigned)
CC[NH2+]C[C@H]1CCOc2c1ccc1ccc(OC)c(OC)c21 (nonaromatic ring conformer: 56.57550080436229 kcal/mol)

>  <smiles>  (10) 
CCNCC1CCOc2c1ccc1ccc(OC)c(OC)c21

>  <score_type>  (10) 
oracle

>  <origin>  (10) 
adg

>  <m_score__min__energy>  (10) 
-7.71

>  <m_primary>  (10) 
energy

$$$$
10:0
     RDKit          3D

 52 53  0  0  0  0  0  0  0  0999 V2000
   -3.4980   18.5220  -25.6300 C   0  0  0  0  0  0  0  0  0  0  0  0
   -2.3420   19.1890  -26.3580 C   0  0  0  0  0  0  0  0  0  0  0  0
   -2.8450   20.2250  -27.1750 O   0  0  0  0  0  0  0  0  0  0  0  0
   -1.7920   21.0900  -27.5430 C   0  0  0  0  0  0  0  0  0  0  0  0
   -2.3500   22.1950  -28.3920 C   0  0  0  0  0  0  0  0  0  0  0  0
   -2.5020   22.0160  -29.7750 C   0  0  0  0  0  0  0  0  0  0  0  0
   -3.0590   23.0270  -30.5620 C   0  0  0  0  0  0  0  0  0  0  0  0
   -3.4950   24.2290  -29.9720 C   0  0  0  0  0  0  0  0  0  0  0  0
   -4.0740   25.2730  -30.7110 O   0  0  0  0  0  0  0  0  0  0  0  0
   -5.3640   25.8410  -30.4780 C   0  0  0  0  0  0  0  0  0  0  0  0
   -6.3820   24.7410  -30.1510 C   0  0  0  0  0  0  0  0  0  0  0  0
   -6.5290   23.6950  -31.2710 C   0  0  0  0  0  0  0  0  0  0  0  0
   -7.4870   22.5220  -30.9600 C   0  0  0  0  0  0  0  0  0  0  0  0
   -7.8460   21.6810  -32.1240 N   0  0  0  0  0  0  0  0  0  0  0  0
   -6.7340   21.1910  -32.9630 C   0  0  0  0  0  0  0  0  0  0  0  0
   -6.6090   19.6610  -32.9590 C   0  0  0  0  0  0  0  0  0  0  0  0
   -7.1310   19.1190  -31.6960 N   0  0  0  0  0  0  0  0  0  0  0  0
   -6.8030   17.6910  -31.5740 C   0  0  0  0  0  0  0  0  0  0  0  0
   -8.5900   19.3170  -31.6260 C   0  0  0  0  0  0  0  0  0  0  0  0
   -8.9980   20.7710  -31.9570 C   0  0  0  0  0  0  0  0  0  0  0  0
   -3.3440   24.4020  -28.5900 C   0  0  0  0  0  0  0  0  0  0  0  0
   -2.7860   23.3910  -27.8030 C   0  0  0  0  0  0  0  0  0  0  0  0
   -3.3467   18.6093  -24.5440 H   0  0  0  0  0  0  0  0  0  0  0  0
   -4.4408   19.0150  -25.9096 H   0  0  0  0  0  0  0  0  0  0  0  0
   -3.5430   17.4591  -25.9096 H   0  0  0  0  0  0  0  0  0  0  0  0
   -1.6376   19.6079  -25.6243 H   0  0  0  0  0  0  0  0  0  0  0  0
   -1.8195   18.4476  -26.9803 H   0  0  0  0  0  0  0  0  0  0  0  0
   -1.3294   21.5149  -26.6399 H   0  0  0  0  0  0  0  0  0  0  0  0
   -1.0297   20.5328  -28.1073 H   0  0  0  0  0  0  0  0  0  0  0  0
   -2.1806   21.0737  -30.2427 H   0  0  0  0  0  0  0  0  0  0  0  0
   -3.1575   22.8834  -31.6481 H   0  0  0  0  0  0  0  0  0  0  0  0
   -5.3039   26.5421  -29.6325 H   0  0  0  0  0  0  0  0  0  0  0  0
   -5.6899   26.3701  -31.3856 H   0  0  0  0  0  0  0  0  0  0  0  0
   -6.0584   24.2273  -29.2337 H   0  0  0  0  0  0  0  0  0  0  0  0
   -7.3607   25.2283  -30.0298 H   0  0  0  0  0  0  0  0  0  0  0  0
   -6.9021   24.2092  -32.1690 H   0  0  0  0  0  0  0  0  0  0  0  0
   -5.5327   23.2470  -31.4006 H   0  0  0  0  0  0  0  0  0  0  0  0
   -7.0053   21.8780  -30.2095 H   0  0  0  0  0  0  0  0  0  0  0  0
   -8.4250   22.9766  -30.6086 H   0  0  0  0  0  0  0  0  0  0  0  0
   -6.9010   21.5264  -33.9972 H   0  0  0  0  0  0  0  0  0  0  0  0
   -5.8018   21.5985  -32.5448 H   0  0  0  0  0  0  0  0  0  0  0  0
   -7.1846   19.2459  -33.7995 H   0  0  0  0  0  0  0  0  0  0  0  0
   -5.5493   19.3842  -33.0610 H   0  0  0  0  0  0  0  0  0  0  0  0
   -6.7405   17.4187  -30.5101 H   0  0  0  0  0  0  0  0  0  0  0  0
   -7.5869   17.0919  -32.0603 H   0  0  0  0  0  0  0  0  0  0  0  0
   -5.8362   17.4940  -32.0603 H   0  0  0  0  0  0  0  0  0  0  0  0
   -9.0743   18.6405  -32.3456 H   0  0  0  0  0  0  0  0  0  0  0  0
   -8.9112   19.1020  -30.5961 H   0  0  0  0  0  0  0  0  0  0  0  0
   -9.5768   20.7662  -32.8924 H   0  0  0  0  0  0  0  0  0  0  0  0
   -9.5858   21.1447  -31.1057 H   0  0  0  0  0  0  0  0  0  0  0  0
   -3.6677   25.3424  -28.1200 H   0  0  0  0  0  0  0  0  0  0  0  0
   -2.6883   23.5338  -26.7167 H   0  0  0  0  0  0  0  0  0  0  0  0
  1  2  1  0
  2  3  1  0
  3  4  1  0
  4  5  1  0
  5  6  2  0
  6  7  1  0
  7  8  2  0
  8  9  1  0
  9 10  1  0
 10 11  1  0
 11 12  1  0
 12 13  1  0
 13 14  1  0
 14 15  1  0
 15 16  1  0
 16 17  1  0
 17 18  1  0
 17 19  1  0
 19 20  1  0
  8 21  1  0
 21 22  2  0
 22  5  1  0
 20 14  1  0
  1 23  1  0
  1 24  1  0
  1 25  1  0
  2 26  1  0
  2 27  1  0
  4 28  1  0
  4 29  1  0
  6 30  1  0
  7 31  1  0
 10 32  1  0
 10 33  1  0
 11 34  1  0
 11 35  1  0
 12 36  1  0
 12 37  1  0
 13 38  1  0
 13 39  1  0
 15 40  1  0
 15 41  1  0
 16 42  1  0
 16 43  1  0
 18 44  1  0
 18 45  1  0
 18 46  1  0
 19 47  1  0
 19 48  1  0
 20 49  1  0
 20 50  1  0
 21 51  1  0
 22 52  1  0
M  END
>  <UniqueID>  (11) 
11

>  <SMILES>  (11) 
CCOCc1ccc(OCCCCN2CCN(C)CC2)cc1

>  <Energy>  (11) 
60.72925841012231

>  <Genealogy>  (11) 
CCOCc1ccc(OCCCCN2CCN(C)CC2)cc1 (3D coordinates assigned)
CCOCc1ccc(OCCCCN2CCN(C)CC2)cc1 (nonaromatic ring conformer: 60.72925841012231 kcal/mol)

>  <smiles>  (11) 
CCOCc1ccc(OCCCCN2CCN(C)CC2)cc1

>  <score_type>  (11) 
oracle

>  <origin>  (11) 
adg

>  <m_score__min__energy>  (11) 
-7.7699999999999996

>  <m_primary>  (11) 
energy

$$$$
11:0
     RDKit          3D

 50 53  0  0  0  0  0  0  0  0999 V2000
   -4.2540   24.1000  -28.1870 C   0  0  0  0  0  0  0  0  0  0  0  0
   -5.1210   23.7370  -29.3220 N   0  0  0  0  0  0  0  0  0  0  0  0
   -5.2790   24.9000  -30.2090 C   0  0  0  0  0  0  0  0  0  0  0  0
   -4.5670   22.5870  -30.0720 C   0  0  0  0  0  0  0  0  0  0  0  0
   -3.6830   23.0540  -31.2420 C   0  0  0  0  0  0  0  0  0  0  0  0
   -3.3080   21.9240  -32.2220 C   0  0  0  0  0  0  0  0  0  0  0  0
   -4.2270   21.8090  -33.3730 N   0  0  0  0  0  0  0  0  0  0  0  0
   -5.3660   20.9550  -33.0810 C   0  0  0  0  0  0  0  0  0  0  0  0
   -5.2780   19.5750  -33.3170 C   0  0  0  0  0  0  0  0  0  0  0  0
   -6.3390   18.7250  -33.0530 C   0  0  0  0  0  0  0  0  0  0  0  0
   -7.5080   19.1630  -32.4980 N   0  0  0  0  0  0  0  0  0  0  0  0
   -8.5300   18.1870  -32.0780 C   0  0  0  0  0  0  0  0  0  0  0  0
   -7.6940   20.5270  -32.3390 C   0  0  0  0  0  0  0  0  0  0  0  0
   -8.9510   21.0520  -31.9450 C   0  0  0  0  0  0  0  0  0  0  0  0
   -9.1300   22.4150  -31.7360 C   0  0  0  0  0  0  0  0  0  0  0  0
   -8.0740   23.2940  -31.9220 C   0  0  0  0  0  0  0  0  0  0  0  0
   -6.8340   22.8250  -32.3460 C   0  0  0  0  0  0  0  0  0  0  0  0
   -6.6150   21.4480  -32.5880 C   0  0  0  0  0  0  0  0  0  0  0  0
   -5.9450   17.3660  -33.4710 C   0  0  0  0  0  0  0  0  0  0  0  0
   -6.6890   16.2320  -33.5240 N   0  0  0  0  0  0  0  0  0  0  0  0
   -6.1400   15.0830  -34.0160 C   0  0  0  0  0  0  0  0  0  0  0  0
   -4.8130   15.0730  -34.4950 C   0  0  0  0  0  0  0  0  0  0  0  0
   -4.0560   16.2560  -34.4720 C   0  0  0  0  0  0  0  0  0  0  0  0
   -4.6560   17.3980  -33.9510 C   0  0  0  0  0  0  0  0  0  0  0  0
   -4.1760   18.7660  -33.8690 C   0  0  0  0  0  0  0  0  0  0  0  0
   -3.0350   19.1670  -34.2230 O   0  0  0  0  0  0  0  0  0  0  0  0
   -4.7751   23.8818  -27.2431 H   0  0  0  0  0  0  0  0  0  0  0  0
   -3.3230   23.5161  -28.2353 H   0  0  0  0  0  0  0  0  0  0  0  0
   -4.0168   25.1730  -28.2353 H   0  0  0  0  0  0  0  0  0  0  0  0
   -5.4026   25.8095  -29.6027 H   0  0  0  0  0  0  0  0  0  0  0  0
   -4.3863   25.0010  -30.8438 H   0  0  0  0  0  0  0  0  0  0  0  0
   -6.1663   24.7592  -30.8438 H   0  0  0  0  0  0  0  0  0  0  0  0
   -3.9620   21.9723  -29.3893 H   0  0  0  0  0  0  0  0  0  0  0  0
   -5.4052   22.0045  -30.4820 H   0  0  0  0  0  0  0  0  0  0  0  0
   -4.2260   23.8316  -31.7992 H   0  0  0  0  0  0  0  0  0  0  0  0
   -2.7445   23.4287  -30.8075 H   0  0  0  0  0  0  0  0  0  0  0  0
   -2.2948   22.1173  -32.6041 H   0  0  0  0  0  0  0  0  0  0  0  0
   -3.3716   20.9786  -31.6632 H   0  0  0  0  0  0  0  0  0  0  0  0
   -4.5880   22.7650  -33.5990 H   0  0  0  0  0  0  0  0  0  0  0  0
   -3.7230   21.5360  -34.2410 H   0  0  0  0  0  0  0  0  0  0  0  0
   -8.5705   18.1483  -30.9794 H   0  0  0  0  0  0  0  0  0  0  0  0
   -9.5113   18.4918  -32.4706 H   0  0  0  0  0  0  0  0  0  0  0  0
   -8.2707   17.1927  -32.4706 H   0  0  0  0  0  0  0  0  0  0  0  0
   -9.8006   20.3680  -31.8020 H   0  0  0  0  0  0  0  0  0  0  0  0
  -10.1126   22.7971  -31.4221 H   0  0  0  0  0  0  0  0  0  0  0  0
   -8.2170   24.3682  -31.7334 H   0  0  0  0  0  0  0  0  0  0  0  0
   -6.0094   23.5375  -32.4957 H   0  0  0  0  0  0  0  0  0  0  0  0
   -6.7362   14.1589  -34.0391 H   0  0  0  0  0  0  0  0  0  0  0  0
   -4.3732   14.1431  -34.8847 H   0  0  0  0  0  0  0  0  0  0  0  0
   -3.0243   16.2787  -34.8528 H   0  0  0  0  0  0  0  0  0  0  0  0
  1  2  1  0
  2  3  1  0
  2  4  1  0
  4  5  1  0
  5  6  1  0
  6  7  1  0
  7  8  1  0
  8  9  2  0
  9 10  1  0
 10 11  2  0
 11 12  1  0
 11 13  1  0
 13 14  2  0
 14 15  1  0
 15 16  2  0
 16 17  1  0
 17 18  2  0
 10 19  1  0
 19 20  2  0
 20 21  1  0
 21 22  2  0
 22 23  1  0
 23 24  2  0
 24 25  1  0
 25 26  2  0
 18  8  1  0
 24 19  1  0
 25  9  1  0
 18 13  1  0
  1 27  1  0
  1 28  1  0
  1 29  1  0
  3 30  1  0
  3 31  1  0
  3 32  1  0
  4 33  1  0
  4 34  1  0
  5 35  1  0
  5 36  1  0
  6 37  1  0
  6 38  1  0
  7 39  1  0
  7 40  1  0
 12 41  1  0
 12 42  1  0
 12 43  1  0
 14 44  1  0
 15 45  1  0
 16 46  1  0
 17 47  1  0
 21 48  1  0
 22 49  1  0
 23 50  1  0
M  CHG  2   7   1  11   1
M  END
>  <UniqueID>  (12) 
12

>  <SMILES>  (12) 
CN(C)CCC[NH2+]c1c2c([n+](C)c3ccccc13)-c1ncccc1C2=O

>  <Energy>  (12) 
107.44771421455565

>  <Genealogy>  (12) 
CN(C)CCC[NH2+]c1c2c([n+](C)c3ccccc13)-c1ncccc1C2=O (protonated)
CN(C)CCC[NH2+]c1c2c([n+](C)c3ccccc13)-c1ncccc1C2=O (3D coordinates assigned)
CN(C)CCC[NH2+]c1c2c([n+](C)c3ccccc13)-c1ncccc1C2=O (nonaromatic ring conformer: 107.44771421455565 kcal/mol)

>  <smiles>  (12) 
CN(C)CCCNc1c2c([n+](C)c3ccccc13)-c1ncccc1C2=O

>  <score_type>  (12) 
oracle

>  <origin>  (12) 
adg

>  <m_score__min__energy>  (12) 
-8.3599999999999994

>  <m_primary>  (12) 
energy

$$$$
12:0
     RDKit          3D

 45 47  0  0  0  0  0  0  0  0999 V2000
   -6.4140   24.9170  -29.7810 C   0  0  0  0  0  0  0  0  0  0  0  0
   -5.5150   25.9290  -30.4770 C   0  0  0  0  0  0  0  0  0  0  0  0
   -4.2830   25.3130  -30.7930 O   0  0  0  0  0  0  0  0  0  0  0  0
   -3.9260   24.3760  -29.7940 C   0  0  0  0  0  0  0  0  0  0  0  0
   -3.8580   22.9700  -30.3910 C   0  0  0  0  0  0  0  0  0  0  0  0
   -4.5730   22.9230  -31.6640 N   0  0  0  0  0  0  0  0  0  0  0  0
   -4.9420   21.6670  -32.2600 C   0  0  0  0  0  0  0  0  0  0  0  0
   -6.2760   21.2250  -32.2170 C   0  0  0  0  0  0  0  0  0  0  0  0
   -7.2660   21.9690  -31.5400 C   0  0  0  0  0  0  0  0  0  0  0  0
   -8.5780   21.5060  -31.4650 C   0  0  0  0  0  0  0  0  0  0  0  0
   -8.9220   20.2940  -32.0490 C   0  0  0  0  0  0  0  0  0  0  0  0
   -7.9650   19.5500  -32.7390 C   0  0  0  0  0  0  0  0  0  0  0  0
   -6.6320   20.0140  -32.8710 C   0  0  0  0  0  0  0  0  0  0  0  0
   -5.6880   19.3180  -33.6030 N   0  0  0  0  0  0  0  0  0  0  0  0
   -6.1140   18.2380  -34.5220 C   0  0  0  0  0  0  0  0  0  0  0  0
   -4.3490   19.6440  -33.4920 C   0  0  0  0  0  0  0  0  0  0  0  0
   -3.3290   18.7950  -33.9960 C   0  0  0  0  0  0  0  0  0  0  0  0
   -1.9760   19.1430  -33.8960 C   0  0  0  0  0  0  0  0  0  0  0  0
   -0.9200   18.2480  -34.4770 C   0  0  0  0  0  0  0  0  0  0  0  0
   -1.6180   20.3520  -33.2980 C   0  0  0  0  0  0  0  0  0  0  0  0
   -2.5950   21.1850  -32.7610 C   0  0  0  0  0  0  0  0  0  0  0  0
   -3.9600   20.8450  -32.8430 C   0  0  0  0  0  0  0  0  0  0  0  0
   -6.3156   25.0278  -28.6910 H   0  0  0  0  0  0  0  0  0  0  0  0
   -7.4595   25.0924  -30.0745 H   0  0  0  0  0  0  0  0  0  0  0  0
   -6.1166   23.8995  -30.0745 H   0  0  0  0  0  0  0  0  0  0  0  0
   -5.9997   26.2783  -31.4006 H   0  0  0  0  0  0  0  0  0  0  0  0
   -5.3401   26.7879  -29.8124 H   0  0  0  0  0  0  0  0  0  0  0  0
   -2.9426   24.6431  -29.3797 H   0  0  0  0  0  0  0  0  0  0  0  0
   -4.6850   24.3923  -28.9980 H   0  0  0  0  0  0  0  0  0  0  0  0
   -2.8054   22.6967  -30.5561 H   0  0  0  0  0  0  0  0  0  0  0  0
   -4.3268   22.2620  -29.6917 H   0  0  0  0  0  0  0  0  0  0  0  0
   -4.5910   23.7870  -32.2520 H   0  0  0  0  0  0  0  0  0  0  0  0
   -6.9988   22.9251  -31.0663 H   0  0  0  0  0  0  0  0  0  0  0  0
   -9.3418   22.1009  -30.9428 H   0  0  0  0  0  0  0  0  0  0  0  0
   -9.9530   19.9193  -31.9672 H   0  0  0  0  0  0  0  0  0  0  0  0
   -8.2494   18.5870  -33.1883 H   0  0  0  0  0  0  0  0  0  0  0  0
   -6.4557   17.3718  -33.9364 H   0  0  0  0  0  0  0  0  0  0  0  0
   -6.9369   18.5995  -35.1562 H   0  0  0  0  0  0  0  0  0  0  0  0
   -5.2659   17.9404  -35.1562 H   0  0  0  0  0  0  0  0  0  0  0  0
   -3.6069   17.8445  -34.4748 H   0  0  0  0  0  0  0  0  0  0  0  0
   -0.3559   17.7699  -33.6626 H   0  0  0  0  0  0  0  0  0  0  0  0
   -1.3959   17.4740  -35.0970 H   0  0  0  0  0  0  0  0  0  0  0  0
   -0.2345   18.8443  -35.0970 H   0  0  0  0  0  0  0  0  0  0  0  0
   -0.5595   20.6477  -33.2509 H   0  0  0  0  0  0  0  0  0  0  0  0
   -2.2977   22.1213  -32.2660 H   0  0  0  0  0  0  0  0  0  0  0  0
  1  2  1  0
  2  3  1  0
  3  4  1  0
  4  5  1  0
  5  6  1  0
  6  7  1  0
  7  8  2  0
  8  9  1  0
  9 10  2  0
 10 11  1  0
 11 12  2  0
 12 13  1  0
 13 14  2  0
 14 15  1  0
 14 16  1  0
 16 17  2  0
 17 18  1  0
 18 19  1  0
 18 20  2  0
 20 21  1  0
 21 22  2  0
 22  7  1  0
 13  8  1  0
 22 16  1  0
  1 23  1  0
  1 24  1  0
  1 25  1  0
  2 26  1  0
  2 27  1  0
  4 28  1  0
  4 29  1  0
  5 30  1  0
  5 31  1  0
  6 32  1  0
  9 33  1  0
 10 34  1  0
 11 35  1  0
 12 36  1  0
 15 37  1  0
 15 38  1  0
 15 39  1  0
 17 40  1  0
 19 41  1  0
 19 42  1  0
 19 43  1  0
 20 44  1  0
 21 45  1  0
M  CHG  1  14   1
M  END
>  <UniqueID>  (13) 
13

>  <SMILES>  (13) 
CCOCCNc1c2ccccc2[n+](C)c2cc(C)ccc12

>  <Energy>  (13) 
68.87216965202657

>  <Genealogy>  (13) 
CCOCCNc1c2ccccc2[n+](C)c2cc(C)ccc12 (3D coordinates assigned)
CCOCCNc1c2ccccc2[n+](C)c2cc(C)ccc12 (optimized conformer: 68.87216965202657 kcal/mol)

>  <smiles>  (13) 
CCOCCNc1c2ccccc2[n+](C)c2cc(C)ccc12

>  <score_type>  (13) 
oracle

>  <origin>  (13) 
adg

>  <m_score__min__energy>  (13) 
-8.4499999999999993

>  <m_primary>  (13) 
energy

$$$$
13:0
     RDKit          3D

 57 61  0  0  0  0  0  0  0  0999 V2000
   -1.9770   21.8240  -28.6720 C   0  0  0  0  0  0  0  0  0  0  0  0
   -2.6580   22.8290  -29.4860 N   0  0  0  0  0  0  0  0  0  0  0  0
   -3.3190   22.6380  -30.6440 C   0  0  0  0  0  0  0  0  0  0  0  0
   -3.4810   21.0590  -31.4870 S   0  0  0  0  0  0  0  0  0  0  0  0
   -2.0570   21.3290  -32.6070 C   0  0  0  0  0  0  0  0  0  0  0  0
   -1.2820   20.0350  -32.9030 C   0  0  0  0  0  0  0  0  0  0  0  0
   -2.0870   19.0240  -33.7350 C   0  0  0  0  0  0  0  0  0  0  0  0
   -3.4100   18.7610  -33.1360 N   0  0  0  0  0  0  0  0  0  0  0  0
   -3.7680   17.3350  -33.1310 C   0  0  0  0  0  0  0  0  0  0  0  0
   -5.2830   17.2490  -33.2210 C   0  0  2  0  0  0  0  0  0  0  0  0
   -5.9110   17.3970  -34.5980 C   0  0  0  0  0  0  0  0  0  0  0  0
   -5.7390   18.6150  -33.6990 C   0  0  1  0  0  0  0  0  0  0  0  0
   -6.9270   19.1620  -32.9510 C   0  0  0  0  0  0  0  0  0  0  0  0
   -7.9840   18.3150  -32.5930 C   0  0  0  0  0  0  0  0  0  0  0  0
   -9.0940   18.8250  -31.9150 C   0  0  0  0  0  0  0  0  0  0  0  0
   -9.1680   20.1860  -31.6110 C   0  0  0  0  0  0  0  0  0  0  0  0
   -8.1380   21.0600  -32.0040 C   0  0  0  0  0  0  0  0  0  0  0  0
   -8.1950   22.5240  -31.6490 C   0  0  0  0  0  0  0  0  0  0  0  0
   -7.2240   23.2300  -32.3380 F   0  0  0  0  0  0  0  0  0  0  0  0
   -7.9810   22.6700  -30.2910 F   0  0  0  0  0  0  0  0  0  0  0  0
   -9.4300   23.0610  -31.9710 F   0  0  0  0  0  0  0  0  0  0  0  0
   -7.0120   20.5340  -32.6600 C   0  0  0  0  0  0  0  0  0  0  0  0
   -4.4830   19.4590  -33.8510 C   0  0  0  0  0  0  0  0  0  0  0  0
   -3.8400   23.7850  -31.1140 N   0  0  0  0  0  0  0  0  0  0  0  0
   -3.5110   24.7370  -30.2540 N   0  0  0  0  0  0  0  0  0  0  0  0
   -2.7830   24.1590  -29.2770 C   0  0  0  0  0  0  0  0  0  0  0  0
   -2.2270   24.9180  -28.1360 C   0  0  0  0  0  0  0  0  0  0  0  0
   -2.8650   24.8580  -26.8860 C   0  0  0  0  0  0  0  0  0  0  0  0
   -2.3640   25.5850  -25.8010 C   0  0  0  0  0  0  0  0  0  0  0  0
   -1.2320   26.3880  -25.9590 C   0  0  0  0  0  0  0  0  0  0  0  0
   -0.6030   26.4710  -27.2040 C   0  0  0  0  0  0  0  0  0  0  0  0
   -1.1000   25.7450  -28.2910 C   0  0  0  0  0  0  0  0  0  0  0  0
   -2.1302   22.0500  -27.6064 H   0  0  0  0  0  0  0  0  0  0  0  0
   -2.3877   20.8290  -28.8985 H   0  0  0  0  0  0  0  0  0  0  0  0
   -0.9006   21.8366  -28.8985 H   0  0  0  0  0  0  0  0  0  0  0  0
   -2.4292   21.7414  -33.5564 H   0  0  0  0  0  0  0  0  0  0  0  0
   -1.3664   22.0228  -32.1053 H   0  0  0  0  0  0  0  0  0  0  0  0
   -0.3675   20.2941  -33.4567 H   0  0  0  0  0  0  0  0  0  0  0  0
   -1.0590   19.5592  -31.9366 H   0  0  0  0  0  0  0  0  0  0  0  0
   -2.2275   19.4270  -34.7488 H   0  0  0  0  0  0  0  0  0  0  0  0
   -1.5272   18.0776  -33.7636 H   0  0  0  0  0  0  0  0  0  0  0  0
   -3.3103   16.8290  -33.9938 H   0  0  0  0  0  0  0  0  0  0  0  0
   -3.4038   16.8452  -32.2159 H   0  0  0  0  0  0  0  0  0  0  0  0
   -5.4784   16.5214  -32.4195 H   0  0  0  0  0  0  0  0  0  0  0  0
   -5.2916   17.2868  -35.5003 H   0  0  0  0  0  0  0  0  0  0  0  0
   -6.7571   16.9293  -35.1227 H   0  0  0  0  0  0  0  0  0  0  0  0
   -7.9398   17.2455  -32.8464 H   0  0  0  0  0  0  0  0  0  0  0  0
   -9.9125   18.1521  -31.6196 H   0  0  0  0  0  0  0  0  0  0  0  0
  -10.0367   20.5770  -31.0610 H   0  0  0  0  0  0  0  0  0  0  0  0
   -6.1884   21.2035  -32.9488 H   0  0  0  0  0  0  0  0  0  0  0  0
   -4.2234   19.5622  -34.9149 H   0  0  0  0  0  0  0  0  0  0  0  0
   -4.6359   20.4686  -33.4420 H   0  0  0  0  0  0  0  0  0  0  0  0
   -3.7634   24.2360  -26.7597 H   0  0  0  0  0  0  0  0  0  0  0  0
   -2.8621   25.5243  -24.8221 H   0  0  0  0  0  0  0  0  0  0  0  0
   -0.8358   26.9549  -25.1036 H   0  0  0  0  0  0  0  0  0  0  0  0
    0.2846   27.1085  -27.3293 H   0  0  0  0  0  0  0  0  0  0  0  0
   -0.6073   25.8211  -29.2716 H   0  0  0  0  0  0  0  0  0  0  0  0
  1  2  1  0
  2  3  1  0
  3  4  1  0
  4  5  1  0
  5  6  1  0
  6  7  1  0
  7  8  1  0
  8  9  1  0
  9 10  1  0
 10 11  1  0
 11 12  1  0
 12 13  1  1
 13 14  2  0
 14 15  1  0
 15 16  2  0
 16 17  1  0
 17 18  1  0
 18 19  1  0
 18 20  1  0
 18 21  1  0
 17 22  2  0
 12 23  1  0
  3 24  2  0
 24 25  1  0
 25 26  2  0
 26 27  1  0
 27 28  2  0
 28 29  1  0
 29 30  2  0
 30 31  1  0
 31 32  2  0
 26  2  1  0
 32 27  1  0
 23  8  1  0
 12 10  1  0
 22 13  1  0
  1 33  1  0
  1 34  1  0
  1 35  1  0
  5 36  1  0
  5 37  1  0
  6 38  1  0
  6 39  1  0
  7 40  1  0
  7 41  1  0
  9 42  1  0
  9 43  1  0
 10 44  1  1
 11 45  1  0
 11 46  1  0
 14 47  1  0
 15 48  1  0
 16 49  1  0
 22 50  1  0
 23 51  1  0
 23 52  1  0
 28 53  1  0
 29 54  1  0
 30 55  1  0
 31 56  1  0
 32 57  1  0
M  END
>  <UniqueID>  (14) 
14

>  <SMILES>  (14) 
Cn1c(SCCCN2C[C@@H]3C[C@]3(c3cccc(C(F)(F)F)c3)C2)nnc1-c1ccccc1

>  <Energy>  (14) 
365.88977832611334

>  <Genealogy>  (14) 
Cn1c(SCCCN2C[C@@H]3C[C@]3(c3cccc(C(F)(F)F)c3)C2)nnc1-c1ccccc1 (chirality)
Cn1c(SCCCN2C[C@@H]3C[C@]3(c3cccc(C(F)(F)F)c3)C2)nnc1-c1ccccc1 (3D coordinates assigned)
Cn1c(SCCCN2C[C@@H]3C[C@]3(c3cccc(C(F)(F)F)c3)C2)nnc1-c1ccccc1 (nonaromatic ring conformer: 365.88977832611334 kcal/mol)

>  <smiles>  (14) 
Cn1c(SCCCN2CC3CC3(c3cccc(C(F)(F)F)c3)C2)nnc1-c1ccccc1

>  <score_type>  (14) 
oracle

>  <origin>  (14) 
adg

>  <m_score__min__energy>  (14) 
-10.08

>  <m_primary>  (14) 
energy

$$$$
14:0
     RDKit          3D

 47 49  0  0  0  0  0  0  0  0999 V2000
   -2.4340   20.0460  -27.1120 C   0  0  0  0  0  0  0  0  0  0  0  0
   -2.1990   21.4300  -27.5800 N   0  0  0  0  0  0  0  0  0  0  0  0
   -2.7460   21.8370  -28.7740 C   0  0  0  0  0  0  0  0  0  0  0  0
   -3.3970   21.0190  -29.4830 O   0  0  0  0  0  0  0  0  0  0  0  0
   -2.5770   23.1550  -29.2390 C   0  0  0  0  0  0  0  0  0  0  0  0
   -3.1930   23.5870  -30.5230 C   0  0  0  0  0  0  0  0  0  0  0  0
   -3.2370   22.7940  -31.5020 O   0  0  0  0  0  0  0  0  0  0  0  0
   -3.7320   24.9090  -30.6550 N   0  0  0  0  0  0  0  0  0  0  0  0
   -5.0650   25.2890  -30.1990 C   0  0  0  0  0  0  0  0  0  0  0  0
   -6.1150   24.9120  -31.2490 C   0  0  0  0  0  0  0  0  0  0  0  0
   -6.6940   23.5190  -30.9780 C   0  0  0  0  0  0  0  0  0  0  0  0
   -7.3000   22.9740  -32.2150 N   0  0  0  0  0  0  0  0  0  0  0  0
   -6.6350   21.7300  -32.6710 C   0  0  0  0  0  0  0  0  0  0  0  0
   -7.3150   20.4590  -32.1190 C   0  0  0  0  0  0  0  0  0  0  0  0
   -7.9740   20.7370  -30.9030 O   0  0  0  0  0  0  0  0  0  0  0  0
   -9.0830   21.5900  -31.1340 C   0  0  0  0  0  0  0  0  0  0  0  0
   -8.7550   22.7710  -32.0790 C   0  0  0  0  0  0  0  0  0  0  0  0
   -1.8250   24.0640  -28.4760 C   0  0  0  0  0  0  0  0  0  0  0  0
   -1.7330   25.3870  -28.9330 O   0  0  0  0  0  0  0  0  0  0  0  0
   -1.2140   23.6350  -27.2770 C   0  0  0  0  0  0  0  0  0  0  0  0
   -0.3940   24.4920  -26.5090 C   0  0  0  0  0  0  0  0  0  0  0  0
    0.1920   24.0530  -25.3250 C   0  0  0  0  0  0  0  0  0  0  0  0
   -0.0190   22.7540  -24.8820 C   0  0  0  0  0  0  0  0  0  0  0  0
   -0.8100   21.8820  -25.6230 C   0  0  0  0  0  0  0  0  0  0  0  0
   -1.4230   22.2960  -26.8340 C   0  0  0  0  0  0  0  0  0  0  0  0
   -2.4373   20.0264  -26.0122 H   0  0  0  0  0  0  0  0  0  0  0  0
   -3.4052   19.6917  -27.4880 H   0  0  0  0  0  0  0  0  0  0  0  0
   -1.6342   19.3910  -27.4880 H   0  0  0  0  0  0  0  0  0  0  0  0
   -5.2892   24.7657  -29.2578 H   0  0  0  0  0  0  0  0  0  0  0  0
   -5.0920   26.3773  -30.0414 H   0  0  0  0  0  0  0  0  0  0  0  0
   -6.9298   25.6506  -31.2230 H   0  0  0  0  0  0  0  0  0  0  0  0
   -5.6318   24.9024  -32.2372 H   0  0  0  0  0  0  0  0  0  0  0  0
   -5.8893   22.8492  -30.6406 H   0  0  0  0  0  0  0  0  0  0  0  0
   -7.4673   23.5941  -30.1993 H   0  0  0  0  0  0  0  0  0  0  0  0
   -6.6647   21.6968  -33.7701 H   0  0  0  0  0  0  0  0  0  0  0  0
   -5.6016   21.7463  -32.2943 H   0  0  0  0  0  0  0  0  0  0  0  0
   -8.0488   20.0939  -32.8527 H   0  0  0  0  0  0  0  0  0  0  0  0
   -6.5449   19.6946  -31.9385 H   0  0  0  0  0  0  0  0  0  0  0  0
   -9.8931   20.9968  -31.5833 H   0  0  0  0  0  0  0  0  0  0  0  0
   -9.3749   22.0181  -30.1637 H   0  0  0  0  0  0  0  0  0  0  0  0
   -9.1799   22.5616  -33.0718 H   0  0  0  0  0  0  0  0  0  0  0  0
   -9.1897   23.6852  -31.6486 H   0  0  0  0  0  0  0  0  0  0  0  0
   -1.9860   25.7040  -29.8560 H   0  0  0  0  0  0  0  0  0  0  0  0
   -0.2160   25.5219  -26.8520 H   0  0  0  0  0  0  0  0  0  0  0  0
    0.8237   24.7368  -24.7390 H   0  0  0  0  0  0  0  0  0  0  0  0
    0.4406   22.4135  -23.9424 H   0  0  0  0  0  0  0  0  0  0  0  0
   -0.9630   20.8536  -25.2639 H   0  0  0  0  0  0  0  0  0  0  0  0
  1  2  1  0
  2  3  1  0
  3  4  2  0
  3  5  1  0
  5  6  1  0
  6  7  2  0
  6  8  1  0
  8  9  1  0
  9 10  1  0
 10 11  1  0
 11 12  1  0
 12 13  1  0
 13 14  1  0
 14 15  1  0
 15 16  1  0
 16 17  1  0
  5 18  2  0
 18 19  1  0
 18 20  1  0
 20 21  2  0
 21 22  1  0
 22 23  2  0
 23 24  1  0
 24 25  2  0
 25  2  1  0
 17 12  1  0
 25 20  1  0
  1 26  1  0
  1 27  1  0
  1 28  1  0
  9 29  1  0
  9 30  1  0
 10 31  1  0
 10 32  1  0
 11 33  1  0
 11 34  1  0
 13 35  1  0
 13 36  1  0
 14 37  1  0
 14 38  1  0
 16 39  1  0
 16 40  1  0
 17 41  1  0
 17 42  1  0
 19 43  1  0
 21 44  1  0
 22 45  1  0
 23 46  1  0
 24 47  1  0
M  CHG  1   8  -1
M  END
>  <UniqueID>  (15) 
15

>  <SMILES>  (15) 
Cn1c(=O)c(C(=O)[N-]CCCN2CCOCC2)c(O)c2ccccc21

>  <Energy>  (15) 
74.44681143340063

>  <Genealogy>  (15) 
Cn1c(=O)c(C(=O)[N-]CCCN2CCOCC2)c(O)c2ccccc21 (protonated)
Cn1c(=O)c(C(=O)[N-]CCCN2CCOCC2)c(O)c2ccccc21 (3D coordinates assigned)
Cn1c(=O)c(C(=O)[N-]CCCN2CCOCC2)c(O)c2ccccc21 (nonaromatic ring conformer: 74.44681143340063 kcal/mol)

>  <smiles>  (15) 
Cn1c(=O)c(C(=O)NCCCN2CCOCC2)c(O)c2ccccc21

>  <score_type>  (15) 
oracle

>  <origin>  (15) 
adg

>  <m_score__min__energy>  (15) 
-9.3900000000000006

>  <m_primary>  (15) 
energy

$$$$
15:0
     RDKit          3D

 57 59  0  0  0  0  0  0  0  0999 V2000
   -6.1120   25.2080  -29.6640 C   0  0  0  0  0  0  0  0  0  0  0  0
   -5.1970   25.4300  -30.8590 C   0  0  0  0  0  0  0  0  0  0  0  0
   -3.8600   25.1910  -30.4720 O   0  0  0  0  0  0  0  0  0  0  0  0
   -3.8160   24.5070  -29.2320 C   0  0  0  0  0  0  0  0  0  0  0  0
   -3.3360   23.0640  -29.4220 C   0  0  0  0  0  0  0  0  0  0  0  0
   -2.2750   23.0030  -30.4360 N   0  0  0  0  0  0  0  0  0  0  0  0
   -2.7070   22.2740  -31.6390 C   0  0  0  0  0  0  0  0  0  0  0  0
   -4.1660   22.5990  -31.9970 C   0  0  0  0  0  0  0  0  0  0  0  0
   -4.6450   21.7920  -33.1200 N   0  0  0  0  0  0  0  0  0  0  0  0
   -5.7350   20.8760  -32.9380 C   0  0  0  0  0  0  0  0  0  0  0  0
   -6.9790   21.3710  -32.5100 C   0  0  0  0  0  0  0  0  0  0  0  0
   -7.1800   22.7550  -32.3200 C   0  0  0  0  0  0  0  0  0  0  0  0
   -8.4270   23.2500  -31.9450 C   0  0  0  0  0  0  0  0  0  0  0  0
   -9.4940   22.3800  -31.7670 C   0  0  0  0  0  0  0  0  0  0  0  0
   -9.3170   21.0070  -31.9380 C   0  0  0  0  0  0  0  0  0  0  0  0
   -8.0490   20.4700  -32.2800 C   0  0  0  0  0  0  0  0  0  0  0  0
   -7.8470   19.1100  -32.4080 N   0  0  0  0  0  0  0  0  0  0  0  0
   -8.8530   18.1640  -31.8750 C   0  0  0  0  0  0  0  0  0  0  0  0
   -6.6960   18.6330  -33.0080 C   0  0  0  0  0  0  0  0  0  0  0  0
   -6.5890   17.2800  -33.4080 C   0  0  0  0  0  0  0  0  0  0  0  0
   -5.4140   16.7790  -33.9510 C   0  0  0  0  0  0  0  0  0  0  0  0
   -4.3160   17.6070  -34.1280 C   0  0  0  0  0  0  0  0  0  0  0  0
   -4.3830   18.9700  -33.7940 C   0  0  0  0  0  0  0  0  0  0  0  0
   -3.2750   19.8110  -34.0080 O   0  0  0  0  0  0  0  0  0  0  0  0
   -1.9070   19.5010  -33.7410 C   0  0  0  0  0  0  0  0  0  0  0  0
   -1.0010   20.6530  -34.1590 C   0  0  0  0  0  0  0  0  0  0  0  0
   -5.5920   19.5030  -33.2510 C   0  0  0  0  0  0  0  0  0  0  0  0
   -5.5409   25.3466  -28.7342 H   0  0  0  0  0  0  0  0  0  0  0  0
   -6.9401   25.9313  -29.6969 H   0  0  0  0  0  0  0  0  0  0  0  0
   -6.5166   24.1856  -29.6969 H   0  0  0  0  0  0  0  0  0  0  0  0
   -5.4748   24.7387  -31.6683 H   0  0  0  0  0  0  0  0  0  0  0  0
   -5.2988   26.4660  -31.2145 H   0  0  0  0  0  0  0  0  0  0  0  0
   -3.1244   25.0308  -28.5558 H   0  0  0  0  0  0  0  0  0  0  0  0
   -4.8293   24.4876  -28.8044 H   0  0  0  0  0  0  0  0  0  0  0  0
   -2.9456   22.6838  -28.4665 H   0  0  0  0  0  0  0  0  0  0  0  0
   -4.1839   22.4488  -29.7575 H   0  0  0  0  0  0  0  0  0  0  0  0
   -2.0640   23.9860  -30.7320 H   0  0  0  0  0  0  0  0  0  0  0  0
   -2.0597   22.5583  -32.4817 H   0  0  0  0  0  0  0  0  0  0  0  0
   -2.6319   21.1955  -31.4363 H   0  0  0  0  0  0  0  0  0  0  0  0
   -4.8000   22.4003  -31.1203 H   0  0  0  0  0  0  0  0  0  0  0  0
   -4.2171   23.6576  -32.2916 H   0  0  0  0  0  0  0  0  0  0  0  0
   -4.1290   21.7680  -34.0280 H   0  0  0  0  0  0  0  0  0  0  0  0
   -6.3417   23.4513  -32.4699 H   0  0  0  0  0  0  0  0  0  0  0  0
   -8.5661   24.3301  -31.7900 H   0  0  0  0  0  0  0  0  0  0  0  0
  -10.4827   22.7748  -31.4901 H   0  0  0  0  0  0  0  0  0  0  0  0
  -10.1738   20.3300  -31.8056 H   0  0  0  0  0  0  0  0  0  0  0  0
   -8.8301   18.1855  -30.7754 H   0  0  0  0  0  0  0  0  0  0  0  0
   -9.8535   18.4560  -32.2267 H   0  0  0  0  0  0  0  0  0  0  0  0
   -8.6229   17.1475  -32.2267 H   0  0  0  0  0  0  0  0  0  0  0  0
   -7.4543   16.6119  -33.2862 H   0  0  0  0  0  0  0  0  0  0  0  0
   -5.3536   15.7200  -34.2423 H   0  0  0  0  0  0  0  0  0  0  0  0
   -3.3819   17.1920  -34.5345 H   0  0  0  0  0  0  0  0  0  0  0  0
   -1.7824   19.3164  -32.6638 H   0  0  0  0  0  0  0  0  0  0  0  0
   -1.6288   18.6060  -34.3168 H   0  0  0  0  0  0  0  0  0  0  0  0
   -0.6072   21.1537  -33.2622 H   0  0  0  0  0  0  0  0  0  0  0  0
   -0.1650   20.2632  -34.7582 H   0  0  0  0  0  0  0  0  0  0  0  0
   -1.5769   21.3736  -34.7582 H   0  0  0  0  0  0  0  0  0  0  0  0
  1  2  1  0
  2  3  1  0
  3  4  1  0
  4  5  1  0
  5  6  1  0
  6  7  1  0
  7  8  1  0
  8  9  1  0
  9 10  1  0
 10 11  2  0
 11 12  1  0
 12 13  2  0
 13 14  1  0
 14 15  2  0
 15 16  1  0
 16 17  2  0
 17 18  1  0
 17 19  1  0
 19 20  2  0
 20 21  1  0
 21 22  2  0
 22 23  1  0
 23 24  1  0
 24 25  1  0
 25 26  1  0
 23 27  2  0
 27 10  1  0
 16 11  1  0
 27 19  1  0
  1 28  1  0
  1 29  1  0
  1 30  1  0
  2 31  1  0
  2 32  1  0
  4 33  1  0
  4 34  1  0
  5 35  1  0
  5 36  1  0
  6 37  1  0
  7 38  1  0
  7 39  1  0
  8 40  1  0
  8 41  1  0
  9 42  1  0
 12 43  1  0
 13 44  1  0
 14 45  1  0
 15 46  1  0
 18 47  1  0
 18 48  1  0
 18 49  1  0
 20 50  1  0
 21 51  1  0
 22 52  1  0
 25 53  1  0
 25 54  1  0
 26 55  1  0
 26 56  1  0
 26 57  1  0
M  CHG  1  17   1
M  END
>  <UniqueID>  (16) 
16

>  <SMILES>  (16) 
CCOCCNCCNc1c2ccccc2[n+](C)c2cccc(OCC)c12

>  <Energy>  (16) 
81.53968719106292

>  <Genealogy>  (16) 
CCOCCNCCNc1c2ccccc2[n+](C)c2cccc(OCC)c12 (3D coordinates assigned)
CCOCCNCCNc1c2ccccc2[n+](C)c2cccc(OCC)c12 (optimized conformer: 81.53968719106292 kcal/mol)

>  <smiles>  (16) 
CCOCCNCCNc1c2ccccc2[n+](C)c2cccc(OCC)c12

>  <score_type>  (16) 
oracle

>  <origin>  (16) 
adg

>  <m_score__min__energy>  (16) 
-8.5299999999999994

>  <m_primary>  (16) 
energy

$$$$
16:0
     RDKit          3D

 58 61  0  0  0  0  0  0  0  0999 V2000
   -3.8960   17.5830  -33.2500 C   0  0  0  0  0  0  0  0  0  0  0  0
   -3.9390   19.0360  -33.4070 N   0  0  0  0  0  0  0  0  0  0  0  0
   -4.9750   19.8890  -33.2160 C   0  0  0  0  0  0  0  0  0  0  0  0
   -6.3300   19.5310  -32.7560 C   0  0  0  0  0  0  0  0  0  0  0  0
   -6.5540   18.4860  -31.8490 C   0  0  0  0  0  0  0  0  0  0  0  0
   -7.8660   18.1880  -31.4820 C   0  0  0  0  0  0  0  0  0  0  0  0
   -8.8970   18.8950  -32.0120 N   0  0  0  0  0  0  0  0  0  0  0  0
   -8.6690   19.8900  -32.9060 C   0  0  0  0  0  0  0  0  0  0  0  0
   -7.3980   20.1960  -33.2760 N   0  0  0  0  0  0  0  0  0  0  0  0
   -4.6130   21.1660  -33.4650 N   0  0  0  0  0  0  0  0  0  0  0  0
   -3.3460   21.1270  -33.8440 N   0  0  0  0  0  0  0  0  0  0  0  0
   -2.9400   19.8480  -33.8070 C   0  0  0  0  0  0  0  0  0  0  0  0
   -1.2770   19.3180  -34.2350 S   0  0  0  0  0  0  0  0  0  0  0  0
   -0.5200   20.9690  -34.0290 C   0  0  0  0  0  0  0  0  0  0  0  0
    0.1280   21.1190  -32.6480 C   0  0  0  0  0  0  0  0  0  0  0  0
   -0.7460   20.5150  -31.5410 C   0  0  0  0  0  0  0  0  0  0  0  0
   -0.7560   21.3890  -30.3460 N   0  0  0  0  0  0  0  0  0  0  0  0
   -1.0620   20.6560  -29.0870 C   0  0  0  0  0  0  0  0  0  0  0  0
   -2.4750   20.9250  -28.5320 C   0  0  0  0  0  0  0  0  0  0  0  0
   -3.4880   21.0910  -29.6640 C   0  0  0  0  0  0  0  0  0  0  0  0
   -3.1030   22.2490  -30.6210 C   0  0  1  0  0  0  0  0  0  0  0  0
   -3.9750   23.4980  -30.3550 C   0  0  0  0  0  0  0  0  0  0  0  0
   -5.4090   23.2850  -30.7710 C   0  0  0  0  0  0  0  0  0  0  0  0
   -6.3230   22.6960  -29.8820 C   0  0  0  0  0  0  0  0  0  0  0  0
   -7.6450   22.4710  -30.2760 C   0  0  0  0  0  0  0  0  0  0  0  0
   -8.0630   22.8270  -31.5620 C   0  0  0  0  0  0  0  0  0  0  0  0
   -9.3450   22.6050  -31.9440 F   0  0  0  0  0  0  0  0  0  0  0  0
   -7.1580   23.4060  -32.4560 C   0  0  0  0  0  0  0  0  0  0  0  0
   -5.8340   23.6340  -32.0650 C   0  0  0  0  0  0  0  0  0  0  0  0
   -1.5920   22.5910  -30.5320 C   0  0  0  0  0  0  0  0  0  0  0  0
   -3.8885   17.3299  -32.1795 H   0  0  0  0  0  0  0  0  0  0  0  0
   -4.7813   17.1364  -33.7262 H   0  0  0  0  0  0  0  0  0  0  0  0
   -2.9858   17.1895  -33.7262 H   0  0  0  0  0  0  0  0  0  0  0  0
   -5.7117   17.9124  -31.4349 H   0  0  0  0  0  0  0  0  0  0  0  0
   -8.0657   17.3799  -30.7629 H   0  0  0  0  0  0  0  0  0  0  0  0
   -9.5147   20.4498  -33.3319 H   0  0  0  0  0  0  0  0  0  0  0  0
   -2.7770   21.9610  -34.1090 H   0  0  0  0  0  0  0  0  0  0  0  0
    0.2495   21.1089  -34.8025 H   0  0  0  0  0  0  0  0  0  0  0  0
   -1.3115   21.7270  -34.1241 H   0  0  0  0  0  0  0  0  0  0  0  0
    1.1010   20.6060  -32.6534 H   0  0  0  0  0  0  0  0  0  0  0  0
    0.2488   22.1926  -32.4413 H   0  0  0  0  0  0  0  0  0  0  0  0
   -1.7745   20.4021  -31.9143 H   0  0  0  0  0  0  0  0  0  0  0  0
   -0.3324   19.5355  -31.2590 H   0  0  0  0  0  0  0  0  0  0  0  0
   -0.9668   19.5777  -29.2827 H   0  0  0  0  0  0  0  0  0  0  0  0
   -0.3492   21.0137  -28.3294 H   0  0  0  0  0  0  0  0  0  0  0  0
   -2.7794   20.0787  -27.8987 H   0  0  0  0  0  0  0  0  0  0  0  0
   -2.4492   21.8560  -27.9468 H   0  0  0  0  0  0  0  0  0  0  0  0
   -3.5343   20.1548  -30.2396 H   0  0  0  0  0  0  0  0  0  0  0  0
   -4.4635   21.3302  -29.2155 H   0  0  0  0  0  0  0  0  0  0  0  0
   -3.2990   21.9075  -31.6481 H   0  0  0  0  0  0  0  0  0  0  0  0
   -3.9476   23.7278  -29.2796 H   0  0  0  0  0  0  0  0  0  0  0  0
   -3.5685   24.3291  -30.9500 H   0  0  0  0  0  0  0  0  0  0  0  0
   -5.9969   22.4105  -28.8710 H   0  0  0  0  0  0  0  0  0  0  0  0
   -8.3573   22.0134  -29.5737 H   0  0  0  0  0  0  0  0  0  0  0  0
   -7.4871   23.6828  -33.4685 H   0  0  0  0  0  0  0  0  0  0  0  0
   -5.1237   24.0875  -32.7719 H   0  0  0  0  0  0  0  0  0  0  0  0
   -1.2875   23.0933  -31.4621 H   0  0  0  0  0  0  0  0  0  0  0  0
   -1.4451   23.2419  -29.6575 H   0  0  0  0  0  0  0  0  0  0  0  0
  1  2  1  0
  2  3  1  0
  3  4  1  0
  4  5  2  0
  5  6  1  0
  6  7  2  0
  7  8  1  0
  8  9  2  0
  3 10  2  0
 10 11  1  0
 11 12  2  0
 12 13  1  0
 13 14  1  0
 14 15  1  0
 15 16  1  0
 16 17  1  0
 17 18  1  0
 18 19  1  0
 19 20  1  0
 20 21  1  0
 21 22  1  0
 22 23  1  0
 23 24  2  0
 24 25  1  0
 25 26  2  0
 26 27  1  0
 26 28  1  0
 28 29  2  0
 21 30  1  0
 12  2  1  0
 30 17  1  0
  9  4  1  0
 29 23  1  0
  1 31  1  0
  1 32  1  0
  1 33  1  0
  5 34  1  0
  6 35  1  0
  8 36  1  0
 11 37  1  0
 14 38  1  0
 14 39  1  0
 15 40  1  0
 15 41  1  0
 16 42  1  0
 16 43  1  0
 18 44  1  0
 18 45  1  0
 19 46  1  0
 19 47  1  0
 20 48  1  0
 20 49  1  0
 21 50  1  6
 22 51  1  0
 22 52  1  0
 24 53  1  0
 25 54  1  0
 28 55  1  0
 29 56  1  0
 30 57  1  0
 30 58  1  0
M  CHG  1  11   1
M  END
>  <UniqueID>  (17) 
17

>  <SMILES>  (17) 
Cn1c(-c2ccncn2)n[nH+]c1SCCCN1CCC[C@@H](Cc2ccc(F)cc2)C1

>  <Energy>  (17) 
101.91192507024782

>  <Genealogy>  (17) 
Cn1c(-c2ccncn2)n[nH+]c1SCCCN1CCCC(Cc2ccc(F)cc2)C1 (protonated)
Cn1c(-c2ccncn2)n[nH+]c1SCCCN1CCC[C@@H](Cc2ccc(F)cc2)C1 (chirality)
Cn1c(-c2ccncn2)n[nH+]c1SCCCN1CCC[C@@H](Cc2ccc(F)cc2)C1 (3D coordinates assigned)
Cn1c(-c2ccncn2)n[nH+]c1SCCCN1CCC[C@@H](Cc2ccc(F)cc2)C1 (nonaromatic ring conformer: 101.91192507024782 kcal/mol)

>  <smiles>  (17) 
Cn1c(SCCCN2CCCC(Cc3ccc(F)cc3)C2)nnc1-c1ccncn1

>  <score_type>  (17) 
oracle

>  <origin>  (17) 
adg

>  <m_score__min__energy>  (17) 
-9.2899999999999991

>  <m_primary>  (17) 
energy

$$$$
17:0
     RDKit          3D

 45 46  0  0  0  0  0  0  0  0999 V2000
   -3.4250   24.1690  -28.0640 C   0  0  0  0  0  0  0  0  0  0  0  0
   -2.6320   24.5320  -29.3150 C   0  0  0  0  0  0  0  0  0  0  0  0
   -3.5000   25.0140  -30.3420 O   0  0  0  0  0  0  0  0  0  0  0  0
   -4.7770   24.5080  -30.6370 C   0  0  0  0  0  0  0  0  0  0  0  0
   -5.9570   25.0390  -30.0800 C   0  0  0  0  0  0  0  0  0  0  0  0
   -7.2010   24.4950  -30.4130 C   0  0  0  0  0  0  0  0  0  0  0  0
   -7.2890   23.4150  -31.3050 C   0  0  0  0  0  0  0  0  0  0  0  0
   -8.6310   22.8410  -31.6850 C   0  0  0  0  0  0  0  0  0  0  0  0
   -8.8400   21.4440  -31.0880 C   0  0  0  0  0  0  0  0  0  0  0  0
   -7.8230   20.4990  -31.5520 N   0  0  0  0  0  0  0  0  0  0  0  0
   -8.1800   19.3230  -32.2910 C   0  0  0  0  0  0  0  0  0  0  0  0
   -9.3900   18.9820  -32.3800 O   0  0  0  0  0  0  0  0  0  0  0  0
   -7.1490   18.4700  -32.9130 C   0  0  0  0  0  0  0  0  0  0  0  0
   -7.2390   17.1030  -33.0940 C   0  0  0  0  0  0  0  0  0  0  0  0
   -6.1080   16.6500  -33.6670 N   0  0  0  0  0  0  0  0  0  0  0  0
   -5.3130   17.6870  -33.8790 N   0  0  0  0  0  0  0  0  0  0  0  0
   -3.9710   17.5490  -34.4470 C   0  0  0  0  0  0  0  0  0  0  0  0
   -2.9110   17.8240  -33.3870 C   0  0  0  0  0  0  0  0  0  0  0  0
   -5.9140   18.8190  -33.4420 C   0  0  0  0  0  0  0  0  0  0  0  0
   -5.3220   20.1980  -33.5220 C   0  0  0  0  0  0  0  0  0  0  0  0
   -6.1140   22.8910  -31.8630 C   0  0  0  0  0  0  0  0  0  0  0  0
   -4.8700   23.4340  -31.5300 C   0  0  0  0  0  0  0  0  0  0  0  0
   -2.8421   24.4358  -27.1701 H   0  0  0  0  0  0  0  0  0  0  0  0
   -4.3763   24.7213  -28.0598 H   0  0  0  0  0  0  0  0  0  0  0  0
   -3.6286   23.0880  -28.0598 H   0  0  0  0  0  0  0  0  0  0  0  0
   -1.9004   25.3142  -29.0642 H   0  0  0  0  0  0  0  0  0  0  0  0
   -2.1178   23.6311  -29.6811 H   0  0  0  0  0  0  0  0  0  0  0  0
   -5.8993   25.8855  -29.3799 H   0  0  0  0  0  0  0  0  0  0  0  0
   -8.1170   24.9162  -29.9730 H   0  0  0  0  0  0  0  0  0  0  0  0
   -9.4224   23.5091  -31.3143 H   0  0  0  0  0  0  0  0  0  0  0  0
   -8.6692   22.7548  -32.7809 H   0  0  0  0  0  0  0  0  0  0  0  0
   -8.7881   21.5136  -29.9914 H   0  0  0  0  0  0  0  0  0  0  0  0
   -9.8241   21.0758  -31.4136 H   0  0  0  0  0  0  0  0  0  0  0  0
   -6.8220   20.6540  -31.3040 H   0  0  0  0  0  0  0  0  0  0  0  0
   -8.1016   16.4809  -32.8132 H   0  0  0  0  0  0  0  0  0  0  0  0
   -3.8434   16.5255  -34.8293 H   0  0  0  0  0  0  0  0  0  0  0  0
   -3.8542   18.2766  -35.2636 H   0  0  0  0  0  0  0  0  0  0  0  0
   -3.3542   17.7090  -32.3868 H   0  0  0  0  0  0  0  0  0  0  0  0
   -2.0813   17.1114  -33.5046 H   0  0  0  0  0  0  0  0  0  0  0  0
   -2.5324   18.8501  -33.5046 H   0  0  0  0  0  0  0  0  0  0  0  0
   -5.1558   20.5852  -32.5059 H   0  0  0  0  0  0  0  0  0  0  0  0
   -4.3631   20.1548  -34.0593 H   0  0  0  0  0  0  0  0  0  0  0  0
   -6.0138   20.8634  -34.0593 H   0  0  0  0  0  0  0  0  0  0  0  0
   -6.1718   22.0477  -32.5669 H   0  0  0  0  0  0  0  0  0  0  0  0
   -3.9555   23.0135  -31.9737 H   0  0  0  0  0  0  0  0  0  0  0  0
  1  2  1  0
  2  3  1  0
  3  4  1  0
  4  5  2  0
  5  6  1  0
  6  7  2  0
  7  8  1  0
  8  9  1  0
  9 10  1  0
 10 11  1  0
 11 12  2  0
 11 13  1  0
 13 14  1  0
 14 15  2  0
 15 16  1  0
 16 17  1  0
 17 18  1  0
 16 19  1  0
 19 20  1  0
  7 21  1  0
 21 22  2  0
 22  4  1  0
 19 13  2  0
  1 23  1  0
  1 24  1  0
  1 25  1  0
  2 26  1  0
  2 27  1  0
  5 28  1  0
  6 29  1  0
  8 30  1  0
  8 31  1  0
  9 32  1  0
  9 33  1  0
 10 34  1  0
 14 35  1  0
 17 36  1  0
 17 37  1  0
 18 38  1  0
 18 39  1  0
 18 40  1  0
 20 41  1  0
 20 42  1  0
 20 43  1  0
 21 44  1  0
 22 45  1  0
M  END
>  <UniqueID>  (18) 
18

>  <SMILES>  (18) 
CCOc1ccc(CCNC(=O)c2cnn(CC)c2C)cc1

>  <Energy>  (18) 
66.76293484689224

>  <Genealogy>  (18) 
CCOc1ccc(CCNC(=O)c2cnn(CC)c2C)cc1 (3D coordinates assigned)
CCOc1ccc(CCNC(=O)c2cnn(CC)c2C)cc1 (optimized conformer: 66.76293484689224 kcal/mol)

>  <smiles>  (18) 
CCOc1ccc(CCNC(=O)c2cnn(CC)c2C)cc1

>  <score_type>  (18) 
oracle

>  <origin>  (18) 
adg

>  <m_score__min__energy>  (18) 
-7.7699999999999996

>  <m_primary>  (18) 
energy

$$$$
