0:0
     RDKit          3D

 67 69  0  0  0  0  0  0  0  0999 V2000
   -0.8620   18.9070  -32.1330 H   0  0  0  0  0  0  0  0  0  0  0  0
   -1.0150   18.0650  -31.6330 O   0  0  0  0  0  0  0  0  0  0  0  0
    0.2280   17.4220  -31.5460 C   0  0  0  0  0  0  0  0  0  0  0  0
    0.4917   17.0097  -32.5311 H   0  0  0  0  0  0  0  0  0  0  0  0
    0.1588   16.6145  -30.8023 H   0  0  0  0  0  0  0  0  0  0  0  0
    1.3130   18.4070  -31.1060 C   0  0  0  0  0  0  0  0  0  0  0  0
    2.2888   18.0571  -31.4739 H   0  0  0  0  0  0  0  0  0  0  0  0
    1.3162   18.4617  -30.0074 H   0  0  0  0  0  0  0  0  0  0  0  0
    1.0470   19.7490  -31.6450 N   0  0  0  0  0  0  0  0  0  0  0  0
    0.0220   19.7970  -31.8550 H   0  0  0  0  0  0  0  0  0  0  0  0
    1.7650   19.9670  -32.9090 C   0  0  0  0  0  0  0  0  0  0  0  0
    2.3000   19.0452  -33.1811 H   0  0  0  0  0  0  0  0  0  0  0  0
    2.4709   20.7990  -32.7690 H   0  0  0  0  0  0  0  0  0  0  0  0
    0.8000   20.3360  -34.0390 C   0  0  0  0  0  0  0  0  0  0  0  0
    1.1628   19.8970  -34.9801 H   0  0  0  0  0  0  0  0  0  0  0  0
    0.7548   21.4322  -34.1184 H   0  0  0  0  0  0  0  0  0  0  0  0
   -0.5340   19.8360  -33.7650 N   0  0  0  0  0  0  0  0  0  0  0  0
   -1.2690   19.1350  -34.5650 C   0  0  0  0  0  0  0  0  0  0  0  0
   -0.8288   18.8129  -35.5202 H   0  0  0  0  0  0  0  0  0  0  0  0
   -2.7000   18.7290  -34.2690 C   0  0  0  0  0  0  0  0  0  0  0  0
   -2.7834   17.6354  -34.3529 H   0  0  0  0  0  0  0  0  0  0  0  0
   -3.3537   19.2348  -34.9948 H   0  0  0  0  0  0  0  0  0  0  0  0
   -3.1220   19.1370  -32.9130 N   0  0  0  0  0  0  0  0  0  0  0  0
   -3.1350   20.1690  -32.8150 H   0  0  0  0  0  0  0  0  0  0  0  0
   -2.3770   18.8320  -32.2440 H   0  0  0  0  0  0  0  0  0  0  0  0
   -4.3710   18.4880  -32.5480 C   0  0  0  0  0  0  0  0  0  0  0  0
   -4.4670   17.1090  -32.8030 C   0  0  0  0  0  0  0  0  0  0  0  0
   -3.5499   16.5284  -32.9814 H   0  0  0  0  0  0  0  0  0  0  0  0
   -5.6920   16.4680  -32.8340 C   0  0  0  0  0  0  0  0  0  0  0  0
   -5.7383   15.3820  -33.0029 H   0  0  0  0  0  0  0  0  0  0  0  0
   -6.8610   17.1890  -32.6530 C   0  0  0  0  0  0  0  0  0  0  0  0
   -7.8305   16.6813  -32.7641 H   0  0  0  0  0  0  0  0  0  0  0  0
   -6.8320   18.5660  -32.3280 C   0  0  0  0  0  0  0  0  0  0  0  0
   -5.5630   19.2100  -32.2000 C   0  0  0  0  0  0  0  0  0  0  0  0
   -5.5500   20.5380  -31.7070 C   0  0  0  0  0  0  0  0  0  0  0  0
   -4.4130   21.0620  -31.0050 N   0  0  0  0  0  0  0  0  0  0  0  0
   -3.9220   20.4410  -30.3250 H   0  0  0  0  0  0  0  0  0  0  0  0
   -3.6440   22.1810  -31.5530 C   0  0  0  0  0  0  0  0  0  0  0  0
   -3.9276   23.1025  -31.0234 H   0  0  0  0  0  0  0  0  0  0  0  0
   -3.8690   22.2601  -32.6268 H   0  0  0  0  0  0  0  0  0  0  0  0
   -2.1350   21.9600  -31.3940 C   0  0  0  0  0  0  0  0  0  0  0  0
   -1.7603   22.6093  -30.5890 H   0  0  0  0  0  0  0  0  0  0  0  0
   -1.6453   22.2030  -32.3485 H   0  0  0  0  0  0  0  0  0  0  0  0
   -1.8340   20.5600  -31.0600 N   0  0  0  0  0  0  0  0  0  0  0  0
   -1.1300   20.2100  -31.7520 H   0  0  0  0  0  0  0  0  0  0  0  0
   -1.2440   20.4330  -29.7230 C   0  0  0  0  0  0  0  0  0  0  0  0
   -0.5386   21.2602  -29.5552 H   0  0  0  0  0  0  0  0  0  0  0  0
   -0.7133   19.4723  -29.6504 H   0  0  0  0  0  0  0  0  0  0  0  0
   -2.3410   20.4820  -28.6670 C   0  0  0  0  0  0  0  0  0  0  0  0
   -1.8869   20.4617  -27.6653 H   0  0  0  0  0  0  0  0  0  0  0  0
   -2.9240   21.4071  -28.7866 H   0  0  0  0  0  0  0  0  0  0  0  0
   -3.0042   19.6126  -28.7866 H   0  0  0  0  0  0  0  0  0  0  0  0
   -6.7300   21.2970  -31.7450 C   0  0  0  0  0  0  0  0  0  0  0  0
   -6.7090   22.6830  -31.4830 C   0  0  0  0  0  0  0  0  0  0  0  0
   -5.7655   23.1687  -31.1932 H   0  0  0  0  0  0  0  0  0  0  0  0
   -7.8720   23.4420  -31.5880 C   0  0  0  0  0  0  0  0  0  0  0  0
   -7.8447   24.5215  -31.3782 H   0  0  0  0  0  0  0  0  0  0  0  0
   -9.0680   22.8360  -31.9580 C   0  0  0  0  0  0  0  0  0  0  0  0
   -9.9786   23.4428  -32.0703 H   0  0  0  0  0  0  0  0  0  0  0  0
   -9.1160   21.4610  -32.1870 C   0  0  0  0  0  0  0  0  0  0  0  0
  -10.0663   20.9935  -32.4841 H   0  0  0  0  0  0  0  0  0  0  0  0
   -7.9560   20.6570  -32.0420 C   0  0  0  0  0  0  0  0  0  0  0  0
   -8.0020   19.2820  -32.1490 N   0  0  0  0  0  0  0  0  0  0  0  0
   -9.3020   18.5800  -32.0570 C   0  0  0  0  0  0  0  0  0  0  0  0
   -9.5673   18.4367  -30.9991 H   0  0  0  0  0  0  0  0  0  0  0  0
  -10.0791   19.1811  -32.5518 H   0  0  0  0  0  0  0  0  0  0  0  0
   -9.2256   17.6005  -32.5518 H   0  0  0  0  0  0  0  0  0  0  0  0
  1  2  1  0
  2  3  1  0
  3  4  1  0
  3  5  1  0
  3  6  1  0
  6  7  1  0
  6  8  1  0
  6  9  1  0
  9 10  1  0
  9 11  1  0
 11 12  1  0
 11 13  1  0
 11 14  1  0
 14 15  1  0
 14 16  1  0
 14 17  1  0
 17 18  2  0
 18 19  1  0
 18 20  1  0
 20 21  1  0
 20 22  1  0
 20 23  1  0
 23 24  1  0
 23 25  1  0
 23 26  1  0
 26 27  2  0
 27 28  1  0
 27 29  1  0
 29 30  1  0
 29 31  2  0
 31 32  1  0
 31 33  1  0
 33 34  2  0
 34 35  1  0
 35 36  1  0
 36 37  1  0
 36 38  1  0
 38 39  1  0
 38 40  1  0
 38 41  1  0
 41 42  1  0
 41 43  1  0
 41 44  1  0
 44 45  1  0
 44 46  1  0
 46 47  1  0
 46 48  1  0
 46 49  1  0
 49 50  1  0
 49 51  1  0
 49 52  1  0
 35 53  2  0
 53 54  1  0
 54 55  1  0
 54 56  2  0
 56 57  1  0
 56 58  1  0
 58 59  1  0
 58 60  2  0
 60 61  1  0
 60 62  1  0
 62 63  2  0
 63 64  1  0
 64 65  1  0
 64 66  1  0
 64 67  1  0
 34 26  1  0
 62 53  1  0
 63 33  1  0
M  CHG  2  23   1  63   1
M  END
>  <UniqueID>  (1) 
1

>  <SMILES>  (1) 
CCNCCNc1c2ccccc2[n+](C)c2cccc([NH2+]C/C=N\CCNCCO)c12

>  <Energy>  (1) 
96.41614978957342

>  <Genealogy>  (1) 
CCNCCNc1c2ccccc2[n+](C)c2cccc([NH2+]CC=NCCNCCO)c12 (protonated)
CCNCCNc1c2ccccc2[n+](C)c2cccc([NH2+]C/C=N\CCNCCO)c12 (cis-trans isomerization)
CCNCCNc1c2ccccc2[n+](C)c2cccc([NH2+]C/C=N\CCNCCO)c12 (3D coordinates assigned)
CCNCCNc1c2ccccc2[n+](C)c2cccc([NH2+]C/C=N\CCNCCO)c12 (optimized conformer: 96.41614978957342 kcal/mol)

>  <smiles>  (1) 
CCNCCNc1c2ccccc2[n+](C)c2cccc(NCC=NCCNCCO)c12

>  <score_type>  (1) 
oracle

>  <origin>  (1) 
adg

>  <m_score__min__energy>  (1) 
-7.1600000000000001

>  <m_primary>  (1) 
energy

$$$$
1:0
     RDKit          3D

 50 53  0  0  0  0  0  0  0  0999 V2000
   -9.4630   18.1600  -31.5940 C   0  0  0  0  0  0  0  0  0  0  0  0
   -8.3110   19.0280  -31.8240 N   0  0  0  0  0  0  0  0  0  0  0  0
   -7.1330   18.6720  -32.3910 C   0  0  0  0  0  0  0  0  0  0  0  0
   -6.3850   19.7440  -32.7250 C   0  0  0  0  0  0  0  0  0  0  0  0
   -7.1220   20.8560  -32.3880 C   0  0  0  0  0  0  0  0  0  0  0  0
   -6.9270   22.2060  -32.6660 C   0  0  0  0  0  0  0  0  0  0  0  0
   -7.9420   23.1040  -32.2920 C   0  0  0  0  0  0  0  0  0  0  0  0
   -9.1310   22.6320  -31.6940 C   0  0  0  0  0  0  0  0  0  0  0  0
   -9.3230   21.2570  -31.4700 C   0  0  0  0  0  0  0  0  0  0  0  0
   -8.2900   20.3830  -31.8200 C   0  0  0  0  0  0  0  0  0  0  0  0
   -5.3950   19.4600  -33.7860 C   0  0  1  0  0  0  0  0  0  0  0  0
   -3.9850   19.8880  -33.3590 C   0  0  0  0  0  0  0  0  0  0  0  0
   -4.0560   21.1210  -32.5630 N   0  0  0  0  0  0  0  0  0  0  0  0
   -2.7440   21.7790  -32.4700 C   0  0  0  0  0  0  0  0  0  0  0  0
   -2.6710   22.6420  -31.2060 C   0  0  0  0  0  0  0  0  0  0  0  0
   -4.0080   22.7240  -30.5720 N   0  0  0  0  0  0  0  0  0  0  0  0
   -4.8680   23.7600  -31.1920 C   0  0  0  0  0  0  0  0  0  0  0  0
   -4.7520   25.1260  -30.4840 C   0  0  0  0  0  0  0  0  0  0  0  0
   -3.4990   25.2490  -29.8440 O   0  0  0  0  0  0  0  0  0  0  0  0
   -3.4170   24.3430  -28.7570 C   0  0  0  0  0  0  0  0  0  0  0  0
   -3.9200   22.9230  -29.1120 C   0  0  0  0  0  0  0  0  0  0  0  0
   -5.5380   17.9170  -33.9640 C   0  0  0  0  0  0  0  0  0  0  0  0
   -6.7840   17.4610  -33.1610 C   0  0  0  0  0  0  0  0  0  0  0  0
   -9.6218   18.0404  -30.5121 H   0  0  0  0  0  0  0  0  0  0  0  0
  -10.3579   18.6103  -32.0483 H   0  0  0  0  0  0  0  0  0  0  0  0
   -9.2769   17.1756  -32.0483 H   0  0  0  0  0  0  0  0  0  0  0  0
   -6.0101   22.5581  -33.1614 H   0  0  0  0  0  0  0  0  0  0  0  0
   -7.8090   24.1819  -32.4664 H   0  0  0  0  0  0  0  0  0  0  0  0
   -9.9143   23.3465  -31.4007 H   0  0  0  0  0  0  0  0  0  0  0  0
  -10.2591   20.8803  -31.0320 H   0  0  0  0  0  0  0  0  0  0  0  0
   -5.5628   20.0108  -34.7233 H   0  0  0  0  0  0  0  0  0  0  0  0
   -3.5288   19.0898  -32.7551 H   0  0  0  0  0  0  0  0  0  0  0  0
   -3.3749   20.0707  -34.2559 H   0  0  0  0  0  0  0  0  0  0  0  0
   -4.3520   20.8530  -31.5940 H   0  0  0  0  0  0  0  0  0  0  0  0
   -1.9555   21.0129  -32.4325 H   0  0  0  0  0  0  0  0  0  0  0  0
   -2.6026   22.4220  -33.3512 H   0  0  0  0  0  0  0  0  0  0  0  0
   -1.9589   22.1924  -30.4983 H   0  0  0  0  0  0  0  0  0  0  0  0
   -2.3370   23.6542  -31.4779 H   0  0  0  0  0  0  0  0  0  0  0  0
   -4.5708   23.8817  -32.2441 H   0  0  0  0  0  0  0  0  0  0  0  0
   -5.9119   23.4250  -31.1025 H   0  0  0  0  0  0  0  0  0  0  0  0
   -4.8583   25.9291  -31.2281 H   0  0  0  0  0  0  0  0  0  0  0  0
   -5.5462   25.2016  -29.7266 H   0  0  0  0  0  0  0  0  0  0  0  0
   -2.3666   24.2729  -28.4380 H   0  0  0  0  0  0  0  0  0  0  0  0
   -4.0650   24.7304  -27.9570 H   0  0  0  0  0  0  0  0  0  0  0  0
   -3.2228   22.1827  -28.6927 H   0  0  0  0  0  0  0  0  0  0  0  0
   -4.9275   22.8002  -28.6879 H   0  0  0  0  0  0  0  0  0  0  0  0
   -5.6692   17.6736  -35.0287 H   0  0  0  0  0  0  0  0  0  0  0  0
   -4.6365   17.4028  -33.5995 H   0  0  0  0  0  0  0  0  0  0  0  0
   -7.6040   17.1680  -33.8331 H   0  0  0  0  0  0  0  0  0  0  0  0
   -6.5986   16.5797  -32.5294 H   0  0  0  0  0  0  0  0  0  0  0  0
  1  2  1  0
  2  3  1  0
  3  4  2  0
  4  5  1  0
  5  6  2  0
  6  7  1  0
  7  8  2  0
  8  9  1  0
  9 10  2  0
  4 11  1  0
 11 12  1  0
 12 13  1  0
 13 14  1  0
 14 15  1  0
 15 16  1  0
 16 17  1  0
 17 18  1  0
 18 19  1  0
 19 20  1  0
 20 21  1  0
 11 22  1  0
 22 23  1  0
 10  2  1  0
 21 16  1  0
 23  3  1  0
 10  5  1  0
  1 24  1  0
  1 25  1  0
  1 26  1  0
  6 27  1  0
  7 28  1  0
  8 29  1  0
  9 30  1  0
 11 31  1  6
 12 32  1  0
 12 33  1  0
 13 34  1  0
 14 35  1  0
 14 36  1  0
 15 37  1  0
 15 38  1  0
 17 39  1  0
 17 40  1  0
 18 41  1  0
 18 42  1  0
 20 43  1  0
 20 44  1  0
 21 45  1  0
 21 46  1  0
 22 47  1  0
 22 48  1  0
 23 49  1  0
 23 50  1  0
M  END
>  <UniqueID>  (2) 
2

>  <SMILES>  (2) 
Cn1c2c(c3ccccc31)[C@@H](CNCCN1CCOCC1)CC2

>  <Energy>  (2) 
114.93701499516297

>  <Genealogy>  (2) 
Cn1c2c(c3ccccc31)[C@@H](CNCCN1CCOCC1)CC2 (chirality)
Cn1c2c(c3ccccc31)[C@@H](CNCCN1CCOCC1)CC2 (3D coordinates assigned)
Cn1c2c(c3ccccc31)[C@@H](CNCCN1CCOCC1)CC2 (nonaromatic ring conformer: 114.93701499516297 kcal/mol)

>  <smiles>  (2) 
Cn1c2c(c3ccccc31)C(CNCCN1CCOCC1)CC2

>  <score_type>  (2) 
oracle

>  <origin>  (2) 
adg

>  <m_score__min__energy>  (2) 
-9.1099999999999994

>  <m_primary>  (2) 
energy

$$$$
2:0
     RDKit          3D

 70 72  0  0  0  0  0  0  0  0999 V2000
   -0.0330   18.1260  -27.8360 C   0  0  0  0  0  0  0  0  0  0  0  0
   -0.6510   19.4520  -28.3120 C   0  0  0  0  0  0  0  0  0  0  0  0
   -2.0050   19.7260  -27.7750 N   0  0  0  0  0  0  0  0  0  0  0  0
   -2.2040   19.3780  -26.3510 C   0  0  0  0  0  0  0  0  0  0  0  0
   -3.4660   18.5520  -26.0840 C   0  0  0  0  0  0  0  0  0  0  0  0
   -2.6520   20.9790  -28.2180 C   0  0  0  0  0  0  0  0  0  0  0  0
   -3.2670   20.7990  -29.6100 C   0  0  0  0  0  0  0  0  0  0  0  0
   -3.8280   22.0100  -30.0860 O   0  0  0  0  0  0  0  0  0  0  0  0
   -2.8500   23.0300  -30.1250 C   0  0  0  0  0  0  0  0  0  0  0  0
   -3.5230   24.3980  -30.0460 C   0  0  0  0  0  0  0  0  0  0  0  0
   -4.4060   24.5820  -31.1380 O   0  0  0  0  0  0  0  0  0  0  0  0
   -5.7310   24.7720  -30.6870 C   0  0  0  0  0  0  0  0  0  0  0  0
   -6.5820   23.5650  -31.0780 C   0  0  0  0  0  0  0  0  0  0  0  0
   -6.1110   22.9680  -32.3270 N   0  0  0  0  0  0  0  0  0  0  0  0
   -5.9450   21.5480  -32.4290 C   0  0  0  0  0  0  0  0  0  0  0  0
   -7.0100   20.6910  -32.1250 C   0  0  0  0  0  0  0  0  0  0  0  0
   -6.8360   19.2970  -32.2070 C   0  0  0  0  0  0  0  0  0  0  0  0
   -5.6500   18.7600  -32.6760 N   0  0  0  0  0  0  0  0  0  0  0  0
   -5.5600   17.3080  -32.9590 C   0  0  0  0  0  0  0  0  0  0  0  0
   -6.0610   16.9880  -34.3670 C   0  0  0  0  0  0  0  0  0  0  0  0
   -4.5630   19.5910  -32.9130 C   0  0  0  0  0  0  0  0  0  0  0  0
   -3.2750   19.0800  -33.2300 C   0  0  0  0  0  0  0  0  0  0  0  0
   -2.2040   19.9330  -33.4930 C   0  0  0  0  0  0  0  0  0  0  0  0
   -2.3740   21.3110  -33.4350 C   0  0  0  0  0  0  0  0  0  0  0  0
   -3.6120   21.8460  -33.0930 C   0  0  0  0  0  0  0  0  0  0  0  0
   -4.7100   21.0040  -32.8180 C   0  0  0  0  0  0  0  0  0  0  0  0
   -7.9970   18.4600  -31.6820 C   0  0  0  0  0  0  0  0  0  0  0  0
   -9.3260   18.9130  -32.3080 C   0  0  0  0  0  0  0  0  0  0  0  0
   -9.4940   20.4500  -32.3740 C   0  0  0  0  0  0  0  0  0  0  0  0
   -8.3600   21.2260  -31.6870 C   0  0  0  0  0  0  0  0  0  0  0  0
   -0.0213   18.1008  -26.7364 H   0  0  0  0  0  0  0  0  0  0  0  0
   -0.6320   17.2851  -28.2157 H   0  0  0  0  0  0  0  0  0  0  0  0
    0.9961   18.0439  -28.2157 H   0  0  0  0  0  0  0  0  0  0  0  0
    0.0139   20.2718  -28.0024 H   0  0  0  0  0  0  0  0  0  0  0  0
   -0.7571   19.3738  -29.4041 H   0  0  0  0  0  0  0  0  0  0  0  0
   -1.3328   18.7989  -26.0111 H   0  0  0  0  0  0  0  0  0  0  0  0
   -2.3211   20.3253  -25.8043 H   0  0  0  0  0  0  0  0  0  0  0  0
   -3.6168   18.4533  -24.9989 H   0  0  0  0  0  0  0  0  0  0  0  0
   -4.3356   19.0563  -26.5307 H   0  0  0  0  0  0  0  0  0  0  0  0
   -3.3519   17.5533  -26.5307 H   0  0  0  0  0  0  0  0  0  0  0  0
   -3.4438   21.2502  -27.5042 H   0  0  0  0  0  0  0  0  0  0  0  0
   -1.8946   21.7754  -28.2626 H   0  0  0  0  0  0  0  0  0  0  0  0
   -2.4835   20.4685  -30.3078 H   0  0  0  0  0  0  0  0  0  0  0  0
   -4.0686   20.0488  -29.5409 H   0  0  0  0  0  0  0  0  0  0  0  0
   -2.1645   22.9109  -29.2730 H   0  0  0  0  0  0  0  0  0  0  0  0
   -2.2876   22.9568  -31.0675 H   0  0  0  0  0  0  0  0  0  0  0  0
   -4.0904   24.4682  -29.1063 H   0  0  0  0  0  0  0  0  0  0  0  0
   -2.7478   25.1776  -30.0810 H   0  0  0  0  0  0  0  0  0  0  0  0
   -5.7331   24.8827  -29.5926 H   0  0  0  0  0  0  0  0  0  0  0  0
   -6.1482   25.6789  -31.1489 H   0  0  0  0  0  0  0  0  0  0  0  0
   -6.5267   22.8126  -30.2775 H   0  0  0  0  0  0  0  0  0  0  0  0
   -7.6190   23.9022  -31.2225 H   0  0  0  0  0  0  0  0  0  0  0  0
   -5.6200   23.5640  -33.0300 H   0  0  0  0  0  0  0  0  0  0  0  0
   -4.5109   16.9894  -32.8703 H   0  0  0  0  0  0  0  0  0  0  0  0
   -6.1904   16.7718  -32.2344 H   0  0  0  0  0  0  0  0  0  0  0  0
   -6.9864   16.3969  -34.3014 H   0  0  0  0  0  0  0  0  0  0  0  0
   -6.2621   17.9253  -34.9065 H   0  0  0  0  0  0  0  0  0  0  0  0
   -5.2951   16.4115  -34.9065 H   0  0  0  0  0  0  0  0  0  0  0  0
   -3.1204   17.9916  -33.2685 H   0  0  0  0  0  0  0  0  0  0  0  0
   -1.2197   19.5132  -33.7476 H   0  0  0  0  0  0  0  0  0  0  0  0
   -1.5295   21.9791  -33.6596 H   0  0  0  0  0  0  0  0  0  0  0  0
   -3.7360   22.9375  -33.0364 H   0  0  0  0  0  0  0  0  0  0  0  0
   -7.8220   17.4035  -31.9333 H   0  0  0  0  0  0  0  0  0  0  0  0
   -8.0595   18.5899  -30.5915 H   0  0  0  0  0  0  0  0  0  0  0  0
   -9.3810   18.5139  -33.3316 H   0  0  0  0  0  0  0  0  0  0  0  0
  -10.1306   18.5304  -31.6629 H   0  0  0  0  0  0  0  0  0  0  0  0
   -9.5290   20.7503  -33.4316 H   0  0  0  0  0  0  0  0  0  0  0  0
  -10.4221   20.6950  -31.8368 H   0  0  0  0  0  0  0  0  0  0  0  0
   -8.4332   22.2896  -31.9578 H   0  0  0  0  0  0  0  0  0  0  0  0
   -8.4547   21.1050  -30.5978 H   0  0  0  0  0  0  0  0  0  0  0  0
  1  2  1  0
  2  3  1  0
  3  4  1  0
  4  5  1  0
  3  6  1  0
  6  7  1  0
  7  8  1  0
  8  9  1  0
  9 10  1  0
 10 11  1  0
 11 12  1  0
 12 13  1  0
 13 14  1  0
 14 15  1  0
 15 16  2  0
 16 17  1  0
 17 18  2  0
 18 19  1  0
 19 20  1  0
 18 21  1  0
 21 22  2  0
 22 23  1  0
 23 24  2  0
 24 25  1  0
 25 26  2  0
 17 27  1  0
 27 28  1  0
 28 29  1  0
 29 30  1  0
 26 15  1  0
 30 16  1  0
 26 21  1  0
  1 31  1  0
  1 32  1  0
  1 33  1  0
  2 34  1  0
  2 35  1  0
  4 36  1  0
  4 37  1  0
  5 38  1  0
  5 39  1  0
  5 40  1  0
  6 41  1  0
  6 42  1  0
  7 43  1  0
  7 44  1  0
  9 45  1  0
  9 46  1  0
 10 47  1  0
 10 48  1  0
 12 49  1  0
 12 50  1  0
 13 51  1  0
 13 52  1  0
 14 53  1  0
 19 54  1  0
 19 55  1  0
 20 56  1  0
 20 57  1  0
 20 58  1  0
 22 59  1  0
 23 60  1  0
 24 61  1  0
 25 62  1  0
 27 63  1  0
 27 64  1  0
 28 65  1  0
 28 66  1  0
 29 67  1  0
 29 68  1  0
 30 69  1  0
 30 70  1  0
M  CHG  1  18   1
M  END
>  <UniqueID>  (3) 
3

>  <SMILES>  (3) 
CCN(CC)CCOCCOCCNc1c2c([n+](CC)c3ccccc13)CCCC2

>  <Energy>  (3) 
97.28374855815517

>  <Genealogy>  (3) 
CCN(CC)CCOCCOCCNc1c2c([n+](CC)c3ccccc13)CCCC2 (3D coordinates assigned)
CCN(CC)CCOCCOCCNc1c2c([n+](CC)c3ccccc13)CCCC2 (nonaromatic ring conformer: 97.28374855815517 kcal/mol)

>  <smiles>  (3) 
CCN(CC)CCOCCOCCNc1c2c([n+](CC)c3ccccc13)CCCC2

>  <score_type>  (3) 
oracle

>  <origin>  (3) 
adg

>  <m_score__min__energy>  (3) 
-9.6500000000000004

>  <m_primary>  (3) 
energy

$$$$
3:0
     RDKit          3D

 49 52  0  0  0  0  0  0  0  0999 V2000
   -3.1800   22.9310  -28.6300 C   0  0  0  0  0  0  0  0  0  0  0  0
   -2.5920   23.8150  -29.7180 C   0  0  0  0  0  0  0  0  0  0  0  0
   -3.4700   24.8920  -29.9680 O   0  0  0  0  0  0  0  0  0  0  0  0
   -4.6870   24.7140  -29.2680 C   0  0  0  0  0  0  0  0  0  0  0  0
   -5.8110   25.5430  -29.8940 C   0  0  0  0  0  0  0  0  0  0  0  0
   -6.0880   25.1070  -31.2260 O   0  0  0  0  0  0  0  0  0  0  0  0
   -6.3700   23.7900  -31.6240 C   0  0  0  0  0  0  0  0  0  0  0  0
   -7.6760   23.3180  -31.8240 C   0  0  0  0  0  0  0  0  0  0  0  0
   -7.8960   22.0030  -32.2260 C   0  0  0  0  0  0  0  0  0  0  0  0
   -6.8190   21.1240  -32.4300 C   0  0  0  0  0  0  0  0  0  0  0  0
   -5.4840   21.5790  -32.2190 C   0  0  0  0  0  0  0  0  0  0  0  0
   -5.2940   22.9180  -31.8120 C   0  0  0  0  0  0  0  0  0  0  0  0
   -4.2500   20.6650  -32.4210 C   0  0  0  0  0  0  0  0  0  0  0  0
   -3.3390   21.2650  -33.5120 C   0  0  0  0  0  0  0  0  0  0  0  0
   -3.4730   20.5470  -31.0930 C   0  0  0  0  0  0  0  0  0  0  0  0
   -4.6410   19.2650  -32.8580 C   0  0  0  0  0  0  0  0  0  0  0  0
   -3.7790   18.2490  -33.1100 N   0  0  0  0  0  0  0  0  0  0  0  0
   -4.5440   17.2000  -33.4660 C   0  0  0  0  0  0  0  0  0  0  0  0
   -4.1110   15.9240  -33.8210 C   0  0  0  0  0  0  0  0  0  0  0  0
   -5.0860   14.9680  -34.1610 C   0  0  0  0  0  0  0  0  0  0  0  0
   -6.4580   15.3060  -34.1390 C   0  0  0  0  0  0  0  0  0  0  0  0
   -6.8680   16.6020  -33.7780 C   0  0  0  0  0  0  0  0  0  0  0  0
   -5.8790   17.5280  -33.4450 C   0  0  0  0  0  0  0  0  0  0  0  0
   -5.9430   18.8520  -33.0560 C   0  0  0  0  0  0  0  0  0  0  0  0
   -7.0840   19.7330  -32.8590 C   0  0  0  0  0  0  0  0  0  0  0  0
   -8.2600   19.3190  -33.0510 O   0  0  0  0  0  0  0  0  0  0  0  0
   -2.9107   23.3358  -27.6433 H   0  0  0  0  0  0  0  0  0  0  0  0
   -4.2752   22.9062  -28.7297 H   0  0  0  0  0  0  0  0  0  0  0  0
   -2.7795   21.9113  -28.7297 H   0  0  0  0  0  0  0  0  0  0  0  0
   -1.6172   24.2041  -29.3887 H   0  0  0  0  0  0  0  0  0  0  0  0
   -2.4574   23.2275  -30.6382 H   0  0  0  0  0  0  0  0  0  0  0  0
   -4.9660   23.6504  -29.2979 H   0  0  0  0  0  0  0  0  0  0  0  0
   -4.5441   25.0481  -28.2297 H   0  0  0  0  0  0  0  0  0  0  0  0
   -6.7200   25.4353  -29.2839 H   0  0  0  0  0  0  0  0  0  0  0  0
   -5.4926   26.5953  -29.9288 H   0  0  0  0  0  0  0  0  0  0  0  0
   -8.5312   23.9906  -31.6623 H   0  0  0  0  0  0  0  0  0  0  0  0
   -8.9249   21.6483  -32.3857 H   0  0  0  0  0  0  0  0  0  0  0  0
   -4.2715   23.2845  -31.6383 H   0  0  0  0  0  0  0  0  0  0  0  0
   -2.5100   21.8110  -33.0380 H   0  0  0  0  0  0  0  0  0  0  0  0
   -2.9347   20.4558  -34.1379 H   0  0  0  0  0  0  0  0  0  0  0  0
   -3.9227   21.9560  -34.1379 H   0  0  0  0  0  0  0  0  0  0  0  0
   -4.1708   20.6530  -30.2493 H   0  0  0  0  0  0  0  0  0  0  0  0
   -2.9820   19.5640  -31.0415 H   0  0  0  0  0  0  0  0  0  0  0  0
   -2.7123   21.3399  -31.0415 H   0  0  0  0  0  0  0  0  0  0  0  0
   -2.7370   18.2690  -33.0450 H   0  0  0  0  0  0  0  0  0  0  0  0
   -3.0404   15.6719  -33.8350 H   0  0  0  0  0  0  0  0  0  0  0  0
   -4.7782   13.9510  -34.4457 H   0  0  0  0  0  0  0  0  0  0  0  0
   -7.2109   14.5498  -34.4062 H   0  0  0  0  0  0  0  0  0  0  0  0
   -7.9330   16.8764  -33.7588 H   0  0  0  0  0  0  0  0  0  0  0  0
  1  2  1  0
  2  3  1  0
  3  4  1  0
  4  5  1  0
  5  6  1  0
  6  7  1  0
  7  8  2  0
  8  9  1  0
  9 10  2  0
 10 11  1  0
 11 12  2  0
 11 13  1  0
 13 14  1  0
 13 15  1  0
 13 16  1  0
 16 17  1  0
 17 18  1  0
 18 19  2  0
 19 20  1  0
 20 21  2  0
 21 22  1  0
 22 23  2  0
 23 24  1  0
 24 25  1  0
 25 26  2  0
 12  7  1  0
 24 16  2  0
 25 10  1  0
 23 18  1  0
  1 27  1  0
  1 28  1  0
  1 29  1  0
  2 30  1  0
  2 31  1  0
  4 32  1  0
  4 33  1  0
  5 34  1  0
  5 35  1  0
  8 36  1  0
  9 37  1  0
 12 38  1  0
 14 39  1  0
 14 40  1  0
 14 41  1  0
 15 42  1  0
 15 43  1  0
 15 44  1  0
 17 45  1  0
 19 46  1  0
 20 47  1  0
 21 48  1  0
 22 49  1  0
M  END
>  <UniqueID>  (4) 
4

>  <SMILES>  (4) 
CCOCCOc1ccc2c(c1)C(C)(C)c1[nH]c3ccccc3c1C2=O

>  <Energy>  (4) 
89.10713023554304

>  <Genealogy>  (4) 
CCOCCOc1ccc2c(c1)C(C)(C)c1[nH]c3ccccc3c1C2=O (3D coordinates assigned)
CCOCCOc1ccc2c(c1)C(C)(C)c1[nH]c3ccccc3c1C2=O (nonaromatic ring conformer: 89.10713023554304 kcal/mol)

>  <smiles>  (4) 
CCOCCOc1ccc2c(c1)C(C)(C)c1[nH]c3ccccc3c1C2=O

>  <score_type>  (4) 
oracle

>  <origin>  (4) 
adg

>  <m_score__min__energy>  (4) 
-9.0299999999999994

>  <m_primary>  (4) 
energy

$$$$
4:0
     RDKit          3D

 54 56  0  0  0  0  0  0  0  0999 V2000
   -3.2906   24.5064  -28.3131 H   0  0  0  0  0  0  0  0  0  0  0  0
   -3.4700   23.5810  -28.8800 C   0  0  0  0  0  0  0  0  0  0  0  0
   -4.5090   23.4870  -29.6440 N   0  0  0  0  0  0  0  0  0  0  0  0
   -4.5910   24.2250  -30.8010 O   0  0  0  0  0  0  0  0  0  0  0  0
   -5.3640   25.4160  -30.8390 C   0  0  0  0  0  0  0  0  0  0  0  0
   -5.7697   25.5564  -31.8518 H   0  0  0  0  0  0  0  0  0  0  0  0
   -4.7266   26.2726  -30.5743 H   0  0  0  0  0  0  0  0  0  0  0  0
   -6.5100   25.3150  -29.8450 C   0  0  0  0  0  0  0  0  0  0  0  0
   -6.1110   25.3502  -28.8205 H   0  0  0  0  0  0  0  0  0  0  0  0
   -7.2029   26.1556  -29.9977 H   0  0  0  0  0  0  0  0  0  0  0  0
   -7.0452   24.3662  -29.9977 H   0  0  0  0  0  0  0  0  0  0  0  0
   -2.5100   22.4390  -28.7620 C   0  0  0  0  0  0  0  0  0  0  0  0
   -1.6148   22.7856  -28.2249 H   0  0  0  0  0  0  0  0  0  0  0  0
   -3.0208   21.6295  -28.2200 H   0  0  0  0  0  0  0  0  0  0  0  0
   -2.0780   21.8820  -30.1340 C   0  0  0  0  0  0  0  0  0  0  0  0
   -1.0392   22.1896  -30.3243 H   0  0  0  0  0  0  0  0  0  0  0  0
   -2.1850   20.7881  -30.0897 H   0  0  0  0  0  0  0  0  0  0  0  0
   -2.9200   22.3590  -31.2500 N   0  0  0  0  0  0  0  0  0  0  0  0
   -3.9140   22.0590  -31.1150 H   0  0  0  0  0  0  0  0  0  0  0  0
   -2.8980   23.4060  -31.2400 H   0  0  0  0  0  0  0  0  0  0  0  0
   -2.4350   21.8990  -32.5630 C   0  0  0  0  0  0  0  0  0  0  0  0
   -2.5612   22.7081  -33.2974 H   0  0  0  0  0  0  0  0  0  0  0  0
   -1.3732   21.6271  -32.4704 H   0  0  0  0  0  0  0  0  0  0  0  0
   -3.2170   20.6680  -33.0330 C   0  0  0  0  0  0  0  0  0  0  0  0
   -2.6650   20.1771  -33.8481 H   0  0  0  0  0  0  0  0  0  0  0  0
   -3.3354   19.9753  -32.1867 H   0  0  0  0  0  0  0  0  0  0  0  0
   -4.5410   21.0600  -33.5150 N   0  0  0  0  0  0  0  0  0  0  0  0
   -4.6480   22.0120  -33.9350 H   0  0  0  0  0  0  0  0  0  0  0  0
   -5.7270   20.3510  -33.1120 C   0  0  0  0  0  0  0  0  0  0  0  0
   -6.8180   21.0480  -32.5620 C   0  0  0  0  0  0  0  0  0  0  0  0
   -6.7530   22.4420  -32.3470 C   0  0  0  0  0  0  0  0  0  0  0  0
   -5.8183   22.9821  -32.5584 H   0  0  0  0  0  0  0  0  0  0  0  0
   -7.8600   23.1410  -31.8700 C   0  0  0  0  0  0  0  0  0  0  0  0
   -7.7949   24.2264  -31.7039 H   0  0  0  0  0  0  0  0  0  0  0  0
   -9.0460   22.4680  -31.6040 C   0  0  0  0  0  0  0  0  0  0  0  0
   -9.9293   23.0275  -31.2623 H   0  0  0  0  0  0  0  0  0  0  0  0
   -9.1200   21.0850  -31.7690 C   0  0  0  0  0  0  0  0  0  0  0  0
  -10.0663   20.5652  -31.5584 H   0  0  0  0  0  0  0  0  0  0  0  0
   -7.9950   20.3370  -32.2040 C   0  0  0  0  0  0  0  0  0  0  0  0
   -8.0270   18.9570  -32.2860 N   0  0  0  0  0  0  0  0  0  0  0  0
   -9.1290   18.2040  -31.6450 C   0  0  0  0  0  0  0  0  0  0  0  0
   -9.0312   18.2708  -30.5514 H   0  0  0  0  0  0  0  0  0  0  0  0
  -10.0940   18.6324  -31.9537 H   0  0  0  0  0  0  0  0  0  0  0  0
   -9.0805   17.1493  -31.9537 H   0  0  0  0  0  0  0  0  0  0  0  0
   -7.0100   18.2780  -32.9310 C   0  0  0  0  0  0  0  0  0  0  0  0
   -7.1180   16.8980  -33.2470 C   0  0  0  0  0  0  0  0  0  0  0  0
   -8.0508   16.3621  -33.0176 H   0  0  0  0  0  0  0  0  0  0  0  0
   -6.0620   16.2110  -33.8430 C   0  0  0  0  0  0  0  0  0  0  0  0
   -6.1618   15.1380  -34.0639 H   0  0  0  0  0  0  0  0  0  0  0  0
   -4.8850   16.8750  -34.1590 C   0  0  0  0  0  0  0  0  0  0  0  0
   -4.0457   16.3222  -34.6062 H   0  0  0  0  0  0  0  0  0  0  0  0
   -4.7650   18.2390  -33.9110 C   0  0  0  0  0  0  0  0  0  0  0  0
   -3.8358   18.7613  -34.1828 H   0  0  0  0  0  0  0  0  0  0  0  0
   -5.8230   18.9610  -33.3140 C   0  0  0  0  0  0  0  0  0  0  0  0
  1  2  1  0
  2  3  2  0
  3  4  1  0
  4  5  1  0
  5  6  1  0
  5  7  1  0
  5  8  1  0
  8  9  1  0
  8 10  1  0
  8 11  1  0
  2 12  1  0
 12 13  1  0
 12 14  1  0
 12 15  1  0
 15 16  1  0
 15 17  1  0
 15 18  1  0
 18 19  1  0
 18 20  1  0
 18 21  1  0
 21 22  1  0
 21 23  1  0
 21 24  1  0
 24 25  1  0
 24 26  1  0
 24 27  1  0
 27 28  1  0
 27 29  1  0
 29 30  2  0
 30 31  1  0
 31 32  1  0
 31 33  2  0
 33 34  1  0
 33 35  1  0
 35 36  1  0
 35 37  2  0
 37 38  1  0
 37 39  1  0
 39 40  2  0
 40 41  1  0
 41 42  1  0
 41 43  1  0
 41 44  1  0
 40 45  1  0
 45 46  2  0
 46 47  1  0
 46 48  1  0
 48 49  1  0
 48 50  2  0
 50 51  1  0
 50 52  1  0
 52 53  1  0
 52 54  2  0
 54 29  1  0
 39 30  1  0
 54 45  1  0
M  CHG  2  18   1  40   1
M  END
>  <UniqueID>  (5) 
5

>  <SMILES>  (5) 
CCO/N=C/CC[NH2+]CCNc1c2ccccc2[n+](C)c2ccccc12

>  <Energy>  (5) 
68.84518952195997

>  <Genealogy>  (5) 
CCON=CCC[NH2+]CCNc1c2ccccc2[n+](C)c2ccccc12 (protonated)
CCO/N=C/CC[NH2+]CCNc1c2ccccc2[n+](C)c2ccccc12 (cis-trans isomerization)
CCO/N=C/CC[NH2+]CCNc1c2ccccc2[n+](C)c2ccccc12 (3D coordinates assigned)
CCO/N=C/CC[NH2+]CCNc1c2ccccc2[n+](C)c2ccccc12 (optimized conformer: 68.84518952195997 kcal/mol)

>  <smiles>  (5) 
CCON=CCCNCCNc1c2ccccc2[n+](C)c2ccccc12

>  <score_type>  (5) 
oracle

>  <origin>  (5) 
adg

>  <m_score__min__energy>  (5) 
-8.0700000000000003

>  <m_primary>  (5) 
energy

$$$$
5:0
     RDKit          3D

 54 56  0  0  0  0  0  0  0  0999 V2000
   -6.7840   20.3330  -32.8090 C   0  0  0  0  0  0  0  0  0  0  0  0
   -6.2560   21.5720  -32.2310 N   0  0  0  0  0  0  0  0  0  0  0  0
   -7.1710   22.7010  -31.9950 C   0  0  0  0  0  0  0  0  0  0  0  0
   -7.3290   22.9670  -30.4900 C   0  0  0  0  0  0  0  0  0  0  0  0
   -6.7560   24.3280  -30.0660 C   0  0  0  0  0  0  0  0  0  0  0  0
   -5.9600   25.0080  -31.1930 C   0  0  0  0  0  0  0  0  0  0  0  0
   -4.5670   25.2220  -30.8020 N   0  0  0  0  0  0  0  0  0  0  0  0
   -4.8340   21.7030  -31.9990 C   0  0  0  0  0  0  0  0  0  0  0  0
   -3.9110   21.1050  -32.8720 C   0  0  0  0  0  0  0  0  0  0  0  0
   -2.5340   21.2250  -32.6330 C   0  0  0  0  0  0  0  0  0  0  0  0
   -1.5530   20.5790  -33.5410 C   0  0  0  0  0  0  0  0  0  0  0  0
   -0.5410   21.3380  -34.1590 C   0  0  0  0  0  0  0  0  0  0  0  0
    0.3800   20.7270  -35.0150 C   0  0  0  0  0  0  0  0  0  0  0  0
    0.3040   19.3550  -35.2620 C   0  0  0  0  0  0  0  0  0  0  0  0
   -0.6950   18.5910  -34.6540 C   0  0  0  0  0  0  0  0  0  0  0  0
   -1.6200   19.1960  -33.8000 C   0  0  0  0  0  0  0  0  0  0  0  0
   -2.1030   21.9570  -31.5200 C   0  0  0  0  0  0  0  0  0  0  0  0
   -3.0410   22.5520  -30.6620 C   0  0  0  0  0  0  0  0  0  0  0  0
   -2.5880   23.3120  -29.4700 C   0  0  0  0  0  0  0  0  0  0  0  0
   -1.2560   23.7480  -29.3710 C   0  0  0  0  0  0  0  0  0  0  0  0
   -0.8260   24.4660  -28.2510 C   0  0  0  0  0  0  0  0  0  0  0  0
   -1.7130   24.7440  -27.1990 C   0  0  0  0  0  0  0  0  0  0  0  0
   -1.2590   25.5610  -26.0160 C   0  0  0  0  0  0  0  0  0  0  0  0
   -2.3650   26.0760  -25.3670 F   0  0  0  0  0  0  0  0  0  0  0  0
   -0.4500   26.6060  -26.4270 F   0  0  0  0  0  0  0  0  0  0  0  0
   -0.5380   24.7810  -25.1290 F   0  0  0  0  0  0  0  0  0  0  0  0
   -3.0510   24.3310  -27.3090 C   0  0  0  0  0  0  0  0  0  0  0  0
   -3.4830   23.6150  -28.4290 C   0  0  0  0  0  0  0  0  0  0  0  0
   -4.3740   22.4090  -30.9230 N   0  0  0  0  0  0  0  0  0  0  0  0
   -7.0764   19.6468  -32.0006 H   0  0  0  0  0  0  0  0  0  0  0  0
   -7.6622   20.5633  -33.4301 H   0  0  0  0  0  0  0  0  0  0  0  0
   -6.0097   19.8590  -33.4301 H   0  0  0  0  0  0  0  0  0  0  0  0
   -6.7661   23.6014  -32.4802 H   0  0  0  0  0  0  0  0  0  0  0  0
   -8.1564   22.4512  -32.4152 H   0  0  0  0  0  0  0  0  0  0  0  0
   -8.3996   22.9419  -30.2385 H   0  0  0  0  0  0  0  0  0  0  0  0
   -6.7673   22.1879  -29.9537 H   0  0  0  0  0  0  0  0  0  0  0  0
   -7.5880   24.9860  -29.7750 H   0  0  0  0  0  0  0  0  0  0  0  0
   -6.0661   24.1539  -29.2271 H   0  0  0  0  0  0  0  0  0  0  0  0
   -5.9874   24.3687  -32.0877 H   0  0  0  0  0  0  0  0  0  0  0  0
   -6.4176   25.9864  -31.4012 H   0  0  0  0  0  0  0  0  0  0  0  0
   -4.0610   25.6800  -31.5930 H   0  0  0  0  0  0  0  0  0  0  0  0
   -4.5420   25.8770  -29.9860 H   0  0  0  0  0  0  0  0  0  0  0  0
   -4.2688   20.5408  -33.7459 H   0  0  0  0  0  0  0  0  0  0  0  0
   -0.4746   22.4191  -33.9670 H   0  0  0  0  0  0  0  0  0  0  0  0
    1.1661   21.3284  -35.4949 H   0  0  0  0  0  0  0  0  0  0  0  0
    1.0303   18.8759  -35.9350 H   0  0  0  0  0  0  0  0  0  0  0  0
   -0.7534   17.5099  -34.8483 H   0  0  0  0  0  0  0  0  0  0  0  0
   -2.4057   18.5887  -33.3268 H   0  0  0  0  0  0  0  0  0  0  0  0
   -1.0273   22.0660  -31.3176 H   0  0  0  0  0  0  0  0  0  0  0  0
   -0.5462   23.5228  -30.1806 H   0  0  0  0  0  0  0  0  0  0  0  0
    0.2153   24.8157  -28.1937 H   0  0  0  0  0  0  0  0  0  0  0  0
   -3.7644   24.5729  -26.5075 H   0  0  0  0  0  0  0  0  0  0  0  0
   -4.5306   23.2863  -28.4964 H   0  0  0  0  0  0  0  0  0  0  0  0
   -5.0650   22.8550  -30.2780 H   0  0  0  0  0  0  0  0  0  0  0  0
  1  2  1  0
  2  3  1  0
  3  4  1  0
  4  5  1  0
  5  6  1  0
  6  7  1  0
  2  8  1  0
  8  9  2  0
  9 10  1  0
 10 11  1  0
 11 12  2  0
 12 13  1  0
 13 14  2  0
 14 15  1  0
 15 16  2  0
 10 17  2  0
 17 18  1  0
 18 19  1  0
 19 20  2  0
 20 21  1  0
 21 22  2  0
 22 23  1  0
 23 24  1  0
 23 25  1  0
 23 26  1  0
 22 27  1  0
 27 28  2  0
 18 29  2  0
 29  8  1  0
 16 11  1  0
 28 19  1  0
  1 30  1  0
  1 31  1  0
  1 32  1  0
  3 33  1  0
  3 34  1  0
  4 35  1  0
  4 36  1  0
  5 37  1  0
  5 38  1  0
  6 39  1  0
  6 40  1  0
  7 41  1  0
  7 42  1  0
  9 43  1  0
 12 44  1  0
 13 45  1  0
 14 46  1  0
 15 47  1  0
 16 48  1  0
 17 49  1  0
 20 50  1  0
 21 51  1  0
 27 52  1  0
 28 53  1  0
 29 54  1  0
M  CHG  1  29   1
M  END
>  <UniqueID>  (6) 
6

>  <SMILES>  (6) 
CN(CCCCN)c1cc(-c2ccccc2)cc(-c2ccc(C(F)(F)F)cc2)[nH+]1

>  <Energy>  (6) 
61.960998838143574

>  <Genealogy>  (6) 
CN(CCCCN)c1cc(-c2ccccc2)cc(-c2ccc(C(F)(F)F)cc2)[nH+]1 (protonated)
CN(CCCCN)c1cc(-c2ccccc2)cc(-c2ccc(C(F)(F)F)cc2)[nH+]1 (3D coordinates assigned)
CN(CCCCN)c1cc(-c2ccccc2)cc(-c2ccc(C(F)(F)F)cc2)[nH+]1 (optimized conformer: 61.960998838143574 kcal/mol)

>  <smiles>  (6) 
CN(CCCCN)c1cc(-c2ccccc2)cc(-c2ccc(C(F)(F)F)cc2)n1

>  <score_type>  (6) 
oracle

>  <origin>  (6) 
adg

>  <m_score__min__energy>  (6) 
-7.2599999999999998

>  <m_primary>  (6) 
energy

$$$$
6:0
     RDKit          3D

 49 51  0  0  0  0  0  0  0  0999 V2000
   -6.1240   25.5970  -29.5170 C   0  0  0  0  0  0  0  0  0  0  0  0
   -5.2800   25.6620  -30.7850 C   0  0  0  0  0  0  0  0  0  0  0  0
   -3.9460   25.2880  -30.5030 O   0  0  0  0  0  0  0  0  0  0  0  0
   -3.9060   24.3450  -29.4500 C   0  0  0  0  0  0  0  0  0  0  0  0
   -4.2880   22.9750  -29.9910 C   0  0  0  0  0  0  0  0  0  0  0  0
   -3.3890   22.0090  -29.4870 O   0  0  0  0  0  0  0  0  0  0  0  0
   -3.0140   21.0970  -30.5010 C   0  0  0  0  0  0  0  0  0  0  0  0
   -2.5310   21.8380  -31.7570 C   0  0  0  0  0  0  0  0  0  0  0  0
   -2.9590   21.1590  -33.0660 C   0  0  0  0  0  0  0  0  0  0  0  0
   -4.2980   21.5860  -33.4720 N   0  0  0  0  0  0  0  0  0  0  0  0
   -5.4620   20.8260  -33.1140 C   0  0  0  0  0  0  0  0  0  0  0  0
   -5.5640   19.4410  -33.3680 C   0  0  0  0  0  0  0  0  0  0  0  0
   -4.4840   18.7270  -33.9230 C   0  0  0  0  0  0  0  0  0  0  0  0
   -4.6040   17.3720  -34.2200 C   0  0  0  0  0  0  0  0  0  0  0  0
   -5.7990   16.7070  -33.9700 C   0  0  0  0  0  0  0  0  0  0  0  0
   -6.8750   17.3800  -33.3910 C   0  0  0  0  0  0  0  0  0  0  0  0
   -6.7770   18.7500  -33.0410 C   0  0  0  0  0  0  0  0  0  0  0  0
   -7.8180   19.4180  -32.4070 N   0  0  0  0  0  0  0  0  0  0  0  0
   -9.0190   18.6860  -31.9580 C   0  0  0  0  0  0  0  0  0  0  0  0
   -7.7100   20.7750  -32.2020 C   0  0  0  0  0  0  0  0  0  0  0  0
   -8.7080   21.6330  -31.6860 C   0  0  0  0  0  0  0  0  0  0  0  0
   -8.3000   22.9600  -31.5940 C   0  0  0  0  0  0  0  0  0  0  0  0
   -6.7230   23.0890  -32.1650 S   0  0  0  0  0  0  0  0  0  0  0  0
   -6.5490   21.4560  -32.5270 C   0  0  0  0  0  0  0  0  0  0  0  0
   -5.4670   25.6476  -28.6362 H   0  0  0  0  0  0  0  0  0  0  0  0
   -6.8260   26.4437  -29.5000 H   0  0  0  0  0  0  0  0  0  0  0  0
   -6.6880   24.6528  -29.5000 H   0  0  0  0  0  0  0  0  0  0  0  0
   -5.6988   24.9758  -31.5359 H   0  0  0  0  0  0  0  0  0  0  0  0
   -5.2902   26.6921  -31.1707 H   0  0  0  0  0  0  0  0  0  0  0  0
   -2.8899   24.3047  -29.0305 H   0  0  0  0  0  0  0  0  0  0  0  0
   -4.6131   24.6414  -28.6612 H   0  0  0  0  0  0  0  0  0  0  0  0
   -5.3113   22.7263  -29.6733 H   0  0  0  0  0  0  0  0  0  0  0  0
   -4.2410   22.9856  -31.0899 H   0  0  0  0  0  0  0  0  0  0  0  0
   -2.2017   20.4567  -30.1265 H   0  0  0  0  0  0  0  0  0  0  0  0
   -3.8915   20.4898  -30.7681 H   0  0  0  0  0  0  0  0  0  0  0  0
   -2.9441   22.8574  -31.7413 H   0  0  0  0  0  0  0  0  0  0  0  0
   -1.4313   21.8356  -31.7336 H   0  0  0  0  0  0  0  0  0  0  0  0
   -2.2428   21.4235  -33.8579 H   0  0  0  0  0  0  0  0  0  0  0  0
   -2.9752   20.0711  -32.9042 H   0  0  0  0  0  0  0  0  0  0  0  0
   -4.3760   22.2480  -34.2770 H   0  0  0  0  0  0  0  0  0  0  0  0
   -3.5351   19.2458  -34.1240 H   0  0  0  0  0  0  0  0  0  0  0  0
   -3.7522   16.8270  -34.6530 H   0  0  0  0  0  0  0  0  0  0  0  0
   -5.8967   15.6428  -34.2306 H   0  0  0  0  0  0  0  0  0  0  0  0
   -7.8142   16.8390  -33.2031 H   0  0  0  0  0  0  0  0  0  0  0  0
   -9.0479   18.6684  -30.8585 H   0  0  0  0  0  0  0  0  0  0  0  0
   -9.9194   19.1891  -32.3405 H   0  0  0  0  0  0  0  0  0  0  0  0
   -8.9845   17.6552  -32.3405 H   0  0  0  0  0  0  0  0  0  0  0  0
   -9.7080   21.2859  -31.3869 H   0  0  0  0  0  0  0  0  0  0  0  0
   -8.9102   23.7907  -31.2099 H   0  0  0  0  0  0  0  0  0  0  0  0
  1  2  1  0
  2  3  1  0
  3  4  1  0
  4  5  1  0
  5  6  1  0
  6  7  1  0
  7  8  1  0
  8  9  1  0
  9 10  1  0
 10 11  1  0
 11 12  2  0
 12 13  1  0
 13 14  2  0
 14 15  1  0
 15 16  2  0
 16 17  1  0
 17 18  2  0
 18 19  1  0
 18 20  1  0
 20 21  1  0
 21 22  2  0
 22 23  1  0
 23 24  1  0
 24 11  1  0
 17 12  1  0
 24 20  2  0
  1 25  1  0
  1 26  1  0
  1 27  1  0
  2 28  1  0
  2 29  1  0
  4 30  1  0
  4 31  1  0
  5 32  1  0
  5 33  1  0
  7 34  1  0
  7 35  1  0
  8 36  1  0
  8 37  1  0
  9 38  1  0
  9 39  1  0
 10 40  1  0
 13 41  1  0
 14 42  1  0
 15 43  1  0
 16 44  1  0
 19 45  1  0
 19 46  1  0
 19 47  1  0
 21 48  1  0
 22 49  1  0
M  CHG  1  18   1
M  END
>  <UniqueID>  (7) 
7

>  <SMILES>  (7) 
CCOCCOCCCNc1c2ccccc2[n+](C)c2ccsc12

>  <Energy>  (7) 
93.6975893792481

>  <Genealogy>  (7) 
CCOCCOCCCNc1c2ccccc2[n+](C)c2ccsc12 (3D coordinates assigned)
CCOCCOCCCNc1c2ccccc2[n+](C)c2ccsc12 (optimized conformer: 93.6975893792481 kcal/mol)

>  <smiles>  (7) 
CCOCCOCCCNc1c2ccccc2[n+](C)c2ccsc12

>  <score_type>  (7) 
oracle

>  <origin>  (7) 
adg

>  <m_score__min__energy>  (7) 
-8.4199999999999999

>  <m_primary>  (7) 
energy

$$$$
7:0
     RDKit          3D

 61 65  0  0  0  0  0  0  0  0999 V2000
    0.4350   16.4930  -34.3170 C   0  0  0  0  0  0  0  0  0  0  0  0
    0.9740   16.7100  -35.7340 C   0  0  0  0  0  0  0  0  0  0  0  0
    0.2620   17.7720  -36.4740 N   0  0  0  0  0  0  0  0  0  0  0  0
    0.9720   19.0620  -36.5520 C   0  0  0  0  0  0  0  0  0  0  0  0
    0.4880   20.0830  -35.5160 C   0  0  0  0  0  0  0  0  0  0  0  0
   -0.4760   19.4630  -34.6880 O   0  0  0  0  0  0  0  0  0  0  0  0
   -0.2470   19.7620  -33.3240 C   0  0  0  0  0  0  0  0  0  0  0  0
   -1.3170   20.7180  -32.7790 C   0  0  0  0  0  0  0  0  0  0  0  0
   -2.4170   20.8760  -33.7320 N   0  0  0  0  0  0  0  0  0  0  0  0
   -3.6730   20.2060  -33.5380 C   0  0  0  0  0  0  0  0  0  0  0  0
   -4.8080   20.8530  -32.9890 C   0  0  0  0  0  0  0  0  0  0  0  0
   -4.7700   22.2260  -32.6970 C   0  0  0  0  0  0  0  0  0  0  0  0
   -5.8740   22.8700  -32.1580 C   0  0  0  0  0  0  0  0  0  0  0  0
   -7.0890   22.1970  -32.0210 C   0  0  0  0  0  0  0  0  0  0  0  0
   -8.2240   22.9080  -31.5940 C   0  0  0  0  0  0  0  0  0  0  0  0
   -9.4770   22.3000  -31.6010 C   0  0  0  0  0  0  0  0  0  0  0  0
   -9.6140   20.9970  -32.0720 C   0  0  0  0  0  0  0  0  0  0  0  0
   -8.4920   20.2760  -32.4840 C   0  0  0  0  0  0  0  0  0  0  0  0
   -7.1920   20.8260  -32.3820 C   0  0  0  0  0  0  0  0  0  0  0  0
   -6.0080   20.1000  -32.7380 C   0  0  0  0  0  0  0  0  0  0  0  0
   -5.9700   18.7130  -32.8430 N   0  0  0  0  0  0  0  0  0  0  0  0
   -6.8170   17.8440  -32.0060 C   0  0  0  0  0  0  0  0  0  0  0  0
   -4.9260   18.1490  -33.5290 C   0  0  0  0  0  0  0  0  0  0  0  0
   -3.8000   18.8640  -33.8710 C   0  0  0  0  0  0  0  0  0  0  0  0
   -2.8450   18.0680  -34.4000 N   0  0  0  0  0  0  0  0  0  0  0  0
   -3.3800   16.8310  -34.4040 C   0  0  0  0  0  0  0  0  0  0  0  0
   -2.7710   15.6650  -34.8610 C   0  0  0  0  0  0  0  0  0  0  0  0
   -3.5000   14.4660  -34.7900 C   0  0  0  0  0  0  0  0  0  0  0  0
   -4.8130   14.4580  -34.2750 C   0  0  0  0  0  0  0  0  0  0  0  0
   -5.4090   15.6460  -33.8140 C   0  0  0  0  0  0  0  0  0  0  0  0
   -4.6580   16.8260  -33.8760 C   0  0  0  0  0  0  0  0  0  0  0  0
    1.1961   16.7994  -33.5843 H   0  0  0  0  0  0  0  0  0  0  0  0
   -0.4745   17.0950  -34.1745 H   0  0  0  0  0  0  0  0  0  0  0  0
    0.1963   15.4287  -34.1745 H   0  0  0  0  0  0  0  0  0  0  0  0
    2.0368   16.9851  -35.6649 H   0  0  0  0  0  0  0  0  0  0  0  0
    0.8238   15.7710  -36.2869 H   0  0  0  0  0  0  0  0  0  0  0  0
   -0.6670   17.9350  -36.0140 H   0  0  0  0  0  0  0  0  0  0  0  0
    0.0730   17.4290  -37.4440 H   0  0  0  0  0  0  0  0  0  0  0  0
    2.0447   18.8808  -36.3891 H   0  0  0  0  0  0  0  0  0  0  0  0
    0.7701   19.4859  -37.5468 H   0  0  0  0  0  0  0  0  0  0  0  0
    1.3376   20.4226  -34.9054 H   0  0  0  0  0  0  0  0  0  0  0  0
    0.0442   20.9521  -36.0237 H   0  0  0  0  0  0  0  0  0  0  0  0
   -0.2704   18.8283  -32.7430 H   0  0  0  0  0  0  0  0  0  0  0  0
    0.7348   20.2498  -33.2340 H   0  0  0  0  0  0  0  0  0  0  0  0
   -1.7137   20.3133  -31.8362 H   0  0  0  0  0  0  0  0  0  0  0  0
   -0.8544   21.7021  -32.6129 H   0  0  0  0  0  0  0  0  0  0  0  0
   -2.1610   21.1570  -34.7070 H   0  0  0  0  0  0  0  0  0  0  0  0
   -3.8525   22.7985  -32.8984 H   0  0  0  0  0  0  0  0  0  0  0  0
   -5.7913   23.9186  -31.8362 H   0  0  0  0  0  0  0  0  0  0  0  0
   -8.1221   23.9488  -31.2529 H   0  0  0  0  0  0  0  0  0  0  0  0
  -10.3573   22.8486  -31.2348 H   0  0  0  0  0  0  0  0  0  0  0  0
  -10.6106   20.5338  -32.1196 H   0  0  0  0  0  0  0  0  0  0  0  0
   -8.6204   19.2637  -32.8947 H   0  0  0  0  0  0  0  0  0  0  0  0
   -6.6167   18.0495  -30.9441 H   0  0  0  0  0  0  0  0  0  0  0  0
   -7.8763   18.0439  -32.2247 H   0  0  0  0  0  0  0  0  0  0  0  0
   -6.5900   16.7901  -32.2247 H   0  0  0  0  0  0  0  0  0  0  0  0
   -1.8850   18.3370  -34.7120 H   0  0  0  0  0  0  0  0  0  0  0  0
   -1.7484   15.6822  -35.2660 H   0  0  0  0  0  0  0  0  0  0  0  0
   -3.0438   13.5276  -35.1383 H   0  0  0  0  0  0  0  0  0  0  0  0
   -5.3762   13.5141  -34.2334 H   0  0  0  0  0  0  0  0  0  0  0  0
   -6.4347   15.6478  -33.4166 H   0  0  0  0  0  0  0  0  0  0  0  0
  1  2  1  0
  2  3  1  0
  3  4  1  0
  4  5  1  0
  5  6  1  0
  6  7  1  0
  7  8  1  0
  8  9  1  0
  9 10  1  0
 10 11  2  0
 11 12  1  0
 12 13  2  0
 13 14  1  0
 14 15  2  0
 15 16  1  0
 16 17  2  0
 17 18  1  0
 18 19  2  0
 19 20  1  0
 20 21  2  0
 21 22  1  0
 21 23  1  0
 23 24  2  0
 24 25  1  0
 25 26  1  0
 26 27  2  0
 27 28  1  0
 28 29  2  0
 29 30  1  0
 30 31  2  0
 24 10  1  0
 31 26  1  0
 20 11  1  0
 31 23  1  0
 19 14  1  0
  1 32  1  0
  1 33  1  0
  1 34  1  0
  2 35  1  0
  2 36  1  0
  3 37  1  0
  3 38  1  0
  4 39  1  0
  4 40  1  0
  5 41  1  0
  5 42  1  0
  7 43  1  0
  7 44  1  0
  8 45  1  0
  8 46  1  0
  9 47  1  0
 12 48  1  0
 13 49  1  0
 15 50  1  0
 16 51  1  0
 17 52  1  0
 18 53  1  0
 22 54  1  0
 22 55  1  0
 22 56  1  0
 25 57  1  0
 27 58  1  0
 28 59  1  0
 29 60  1  0
 30 61  1  0
M  CHG  2   3   1  21   1
M  END
>  <UniqueID>  (8) 
8

>  <SMILES>  (8) 
CC[NH2+]CCOCCNc1c2ccc3ccccc3c2[n+](C)c2c1[nH]c1ccccc12

>  <Energy>  (8) 
135.24417502651005

>  <Genealogy>  (8) 
CC[NH2+]CCOCCNc1c2ccc3ccccc3c2[n+](C)c2c1[nH]c1ccccc12 (protonated)
CC[NH2+]CCOCCNc1c2ccc3ccccc3c2[n+](C)c2c1[nH]c1ccccc12 (3D coordinates assigned)
CC[NH2+]CCOCCNc1c2ccc3ccccc3c2[n+](C)c2c1[nH]c1ccccc12 (optimized conformer: 135.24417502651005 kcal/mol)

>  <smiles>  (8) 
CCNCCOCCNc1c2ccc3ccccc3c2[n+](C)c2c1[nH]c1ccccc12

>  <score_type>  (8) 
oracle

>  <origin>  (8) 
adg

>  <m_score__min__energy>  (8) 
-8.1400000000000006

>  <m_primary>  (8) 
energy

$$$$
8:0
     RDKit          3D

 53 57  0  0  0  0  0  0  0  0999 V2000
   -1.1450   27.0700  -24.1900 C   0  0  0  0  0  0  0  0  0  0  0  0
   -0.7540   25.7620  -24.7080 N   0  0  0  0  0  0  0  0  0  0  0  0
   -0.1260   24.8260  -24.0060 N   0  0  0  0  0  0  0  0  0  0  0  0
    0.0550   23.7310  -24.7800 C   0  0  0  0  0  0  0  0  0  0  0  0
   -0.4900   24.0020  -26.0190 C   0  0  0  0  0  0  0  0  0  0  0  0
   -0.5910   23.2360  -27.1770 C   0  0  0  0  0  0  0  0  0  0  0  0
   -1.2170   23.8220  -28.2990 C   0  0  0  0  0  0  0  0  0  0  0  0
   -1.3730   23.0330  -29.5360 C   0  0  0  0  0  0  0  0  0  0  0  0
   -0.3010   22.4750  -30.1550 N   0  0  0  0  0  0  0  0  0  0  0  0
   -0.8490   21.8370  -31.2010 C   0  0  0  0  0  0  0  0  0  0  0  0
   -0.1810   21.0930  -32.1700 C   0  0  0  0  0  0  0  0  0  0  0  0
   -0.9470   20.5060  -33.1910 C   0  0  0  0  0  0  0  0  0  0  0  0
   -2.3470   20.6760  -33.2170 C   0  0  0  0  0  0  0  0  0  0  0  0
   -2.9930   21.4340  -32.2250 C   0  0  0  0  0  0  0  0  0  0  0  0
   -2.2050   22.0080  -31.2170 C   0  0  0  0  0  0  0  0  0  0  0  0
   -2.5610   22.7800  -30.1630 N   0  0  0  0  0  0  0  0  0  0  0  0
   -3.8840   23.3400  -29.8200 C   0  0  0  0  0  0  0  0  0  0  0  0
   -4.9920   22.2850  -29.9480 C   0  0  0  0  0  0  0  0  0  0  0  0
   -6.3670   22.9000  -29.6370 C   0  0  0  0  0  0  0  0  0  0  0  0
   -6.6450   24.1040  -30.4500 N   0  0  0  0  0  0  0  0  0  0  0  0
   -6.9780   23.8030  -31.8620 C   0  0  0  0  0  0  0  0  0  0  0  0
   -8.1890   22.8770  -31.9160 C   0  0  0  0  0  0  0  0  0  0  0  0
   -9.1880   23.4470  -32.6840 F   0  0  0  0  0  0  0  0  0  0  0  0
   -8.6690   22.6670  -30.6360 F   0  0  0  0  0  0  0  0  0  0  0  0
   -7.8280   21.6600  -32.4680 F   0  0  0  0  0  0  0  0  0  0  0  0
   -5.5960   25.1350  -30.2960 C   0  0  0  0  0  0  0  0  0  0  0  0
   -4.1980   24.5990  -30.6430 C   0  0  0  0  0  0  0  0  0  0  0  0
   -1.7540   25.1330  -28.2060 C   0  0  0  0  0  0  0  0  0  0  0  0
   -1.6340   25.8780  -27.0190 C   0  0  0  0  0  0  0  0  0  0  0  0
   -0.9860   25.2740  -25.9400 C   0  0  0  0  0  0  0  0  0  0  0  0
   -1.1378   27.0460  -23.0903 H   0  0  0  0  0  0  0  0  0  0  0  0
   -0.4354   27.8319  -24.5447 H   0  0  0  0  0  0  0  0  0  0  0  0
   -2.1564   27.3175  -24.5447 H   0  0  0  0  0  0  0  0  0  0  0  0
    0.1720   24.9250  -23.0100 H   0  0  0  0  0  0  0  0  0  0  0  0
    0.5470   22.7950  -24.4770 H   0  0  0  0  0  0  0  0  0  0  0  0
   -0.1968   22.2098  -27.2167 H   0  0  0  0  0  0  0  0  0  0  0  0
    0.9115   20.9688  -32.1372 H   0  0  0  0  0  0  0  0  0  0  0  0
   -0.4529   19.9113  -33.9734 H   0  0  0  0  0  0  0  0  0  0  0  0
   -2.9381   20.2116  -34.0201 H   0  0  0  0  0  0  0  0  0  0  0  0
   -4.0841   21.5728  -32.2390 H   0  0  0  0  0  0  0  0  0  0  0  0
   -3.8464   23.6463  -28.7642 H   0  0  0  0  0  0  0  0  0  0  0  0
   -4.9972   21.8895  -30.9744 H   0  0  0  0  0  0  0  0  0  0  0  0
   -4.7953   21.4766  -29.2284 H   0  0  0  0  0  0  0  0  0  0  0  0
   -7.1441   22.1488  -29.8417 H   0  0  0  0  0  0  0  0  0  0  0  0
   -6.3666   23.2030  -28.5796 H   0  0  0  0  0  0  0  0  0  0  0  0
   -7.2092   24.7392  -32.3912 H   0  0  0  0  0  0  0  0  0  0  0  0
   -6.1199   23.3105  -32.3427 H   0  0  0  0  0  0  0  0  0  0  0  0
   -5.8276   25.9781  -30.9635 H   0  0  0  0  0  0  0  0  0  0  0  0
   -5.5845   25.4494  -29.2420 H   0  0  0  0  0  0  0  0  0  0  0  0
   -4.1615   24.3498  -31.7138 H   0  0  0  0  0  0  0  0  0  0  0  0
   -3.4522   25.3726  -30.4077 H   0  0  0  0  0  0  0  0  0  0  0  0
   -2.2702   25.5714  -29.0728 H   0  0  0  0  0  0  0  0  0  0  0  0
   -2.0360   26.8991  -26.9436 H   0  0  0  0  0  0  0  0  0  0  0  0
  1  2  1  0
  2  3  1  0
  3  4  2  0
  4  5  1  0
  5  6  2  0
  6  7  1  0
  7  8  1  0
  8  9  2  0
  9 10  1  0
 10 11  2  0
 11 12  1  0
 12 13  2  0
 13 14  1  0
 14 15  2  0
 15 16  1  0
 16 17  1  0
 17 18  1  0
 18 19  1  0
 19 20  1  0
 20 21  1  0
 21 22  1  0
 22 23  1  0
 22 24  1  0
 22 25  1  0
 20 26  1  0
 26 27  1  0
  7 28  2  0
 28 29  1  0
 29 30  2  0
 30  2  1  0
 30  5  1  0
 16  8  1  0
 27 17  1  0
 15 10  1  0
  1 31  1  0
  1 32  1  0
  1 33  1  0
  3 34  1  0
  4 35  1  0
  6 36  1  0
 11 37  1  0
 12 38  1  0
 13 39  1  0
 14 40  1  0
 17 41  1  0
 18 42  1  0
 18 43  1  0
 19 44  1  0
 19 45  1  0
 21 46  1  0
 21 47  1  0
 26 48  1  0
 26 49  1  0
 27 50  1  0
 27 51  1  0
 28 52  1  0
 29 53  1  0
M  CHG  1   3   1
M  END
>  <UniqueID>  (9) 
9

>  <SMILES>  (9) 
Cn1[nH+]cc2cc(-c3nc4ccccc4n3C3CCN(CC(F)(F)F)CC3)ccc21

>  <Energy>  (9) 
141.6104408189538

>  <Genealogy>  (9) 
Cn1[nH+]cc2cc(-c3nc4ccccc4n3C3CCN(CC(F)(F)F)CC3)ccc21 (protonated)
Cn1[nH+]cc2cc(-c3nc4ccccc4n3C3CCN(CC(F)(F)F)CC3)ccc21 (3D coordinates assigned)
Cn1[nH+]cc2cc(-c3nc4ccccc4n3C3CCN(CC(F)(F)F)CC3)ccc21 (nonaromatic ring conformer: 141.6104408189538 kcal/mol)

>  <smiles>  (9) 
Cn1ncc2cc(-c3nc4ccccc4n3C3CCN(CC(F)(F)F)CC3)ccc21

>  <score_type>  (9) 
oracle

>  <origin>  (9) 
adg

>  <m_score__min__energy>  (9) 
-8.3499999999999996

>  <m_primary>  (9) 
energy

$$$$
9:0
     RDKit          3D

 46 48  0  0  0  0  0  0  0  0999 V2000
   -8.4360   19.1100  -31.6400 C   0  0  0  0  0  0  0  0  0  0  0  0
   -7.2230   19.7100  -32.2390 N   0  0  0  0  0  0  0  0  0  0  0  0
   -6.4260   18.9590  -33.0850 C   0  0  0  0  0  0  0  0  0  0  0  0
   -6.8680   17.7270  -33.6320 C   0  0  0  0  0  0  0  0  0  0  0  0
   -6.0310   16.9580  -34.4410 C   0  0  0  0  0  0  0  0  0  0  0  0
   -4.7460   17.3970  -34.7370 C   0  0  0  0  0  0  0  0  0  0  0  0
   -4.2980   18.6220  -34.2500 C   0  0  0  0  0  0  0  0  0  0  0  0
   -5.1320   19.4230  -33.4420 C   0  0  0  0  0  0  0  0  0  0  0  0
   -4.6990   20.6790  -32.9900 C   0  0  0  0  0  0  0  0  0  0  0  0
   -3.3810   21.1430  -33.3120 N   0  0  0  0  0  0  0  0  0  0  0  0
   -2.2510   20.8150  -32.4440 C   0  0  0  0  0  0  0  0  0  0  0  0
   -0.9200   21.1240  -33.1470 C   0  0  0  0  0  0  0  0  0  0  0  0
   -1.0670   21.2120  -34.6110 N   0  0  0  0  0  0  0  0  0  0  0  0
    0.0920   20.6380  -35.3190 C   0  0  0  0  0  0  0  0  0  0  0  0
    1.0010   21.7290  -35.9030 C   0  0  0  0  0  0  0  0  0  0  0  0
    0.4090   23.0530  -35.7240 N   0  0  0  0  0  0  0  0  0  0  0  0
   -5.5850   21.5040  -32.2800 C   0  0  0  0  0  0  0  0  0  0  0  0
   -5.2180   22.8190  -31.9250 C   0  0  0  0  0  0  0  0  0  0  0  0
   -6.1140   23.6540  -31.2610 C   0  0  0  0  0  0  0  0  0  0  0  0
   -5.6410   25.2900  -30.8350 Cl  0  0  0  0  0  0  0  0  0  0  0  0
   -7.3940   23.1990  -30.9580 C   0  0  0  0  0  0  0  0  0  0  0  0
   -7.7770   21.9000  -31.2960 C   0  0  0  0  0  0  0  0  0  0  0  0
   -6.8730   21.0130  -31.9350 C   0  0  0  0  0  0  0  0  0  0  0  0
   -8.3603   19.1475  -30.5432 H   0  0  0  0  0  0  0  0  0  0  0  0
   -9.3229   19.6733  -31.9658 H   0  0  0  0  0  0  0  0  0  0  0  0
   -8.5265   18.0632  -31.9658 H   0  0  0  0  0  0  0  0  0  0  0  0
   -7.8864   17.3725  -33.4149 H   0  0  0  0  0  0  0  0  0  0  0  0
   -6.3896   16.0003  -34.8462 H   0  0  0  0  0  0  0  0  0  0  0  0
   -4.0823   16.7761  -35.3566 H   0  0  0  0  0  0  0  0  0  0  0  0
   -3.2838   18.9686  -34.4977 H   0  0  0  0  0  0  0  0  0  0  0  0
   -3.2360   21.6430  -34.2180 H   0  0  0  0  0  0  0  0  0  0  0  0
   -2.3192   21.4105  -31.5216 H   0  0  0  0  0  0  0  0  0  0  0  0
   -2.2858   19.7412  -32.2079 H   0  0  0  0  0  0  0  0  0  0  0  0
   -0.5365   22.0843  -32.7718 H   0  0  0  0  0  0  0  0  0  0  0  0
   -0.2249   20.3001  -32.9278 H   0  0  0  0  0  0  0  0  0  0  0  0
   -1.2100   22.2080  -34.9000 H   0  0  0  0  0  0  0  0  0  0  0  0
   -1.9220   20.6700  -34.8750 H   0  0  0  0  0  0  0  0  0  0  0  0
    0.6752   20.0293  -34.6123 H   0  0  0  0  0  0  0  0  0  0  0  0
   -0.2849   20.0253  -36.1512 H   0  0  0  0  0  0  0  0  0  0  0  0
    1.9746   21.6979  -35.3921 H   0  0  0  0  0  0  0  0  0  0  0  0
    1.1257   21.5428  -36.9799 H   0  0  0  0  0  0  0  0  0  0  0  0
   -0.5270   23.0480  -36.1920 H   0  0  0  0  0  0  0  0  0  0  0  0
    0.9890   23.7470  -36.2470 H   0  0  0  0  0  0  0  0  0  0  0  0
   -4.2129   23.1893  -32.1753 H   0  0  0  0  0  0  0  0  0  0  0  0
   -8.1065   23.8657  -30.4502 H   0  0  0  0  0  0  0  0  0  0  0  0
   -8.7964   21.5586  -31.0631 H   0  0  0  0  0  0  0  0  0  0  0  0
  1  2  1  0
  2  3  2  0
  3  4  1  0
  4  5  2  0
  5  6  1  0
  6  7  2  0
  7  8  1  0
  8  9  2  0
  9 10  1  0
 10 11  1  0
 11 12  1  0
 12 13  1  0
 13 14  1  0
 14 15  1  0
 15 16  1  0
  9 17  1  0
 17 18  2  0
 18 19  1  0
 19 20  1  0
 19 21  2  0
 21 22  1  0
 22 23  2  0
 23  2  1  0
  8  3  1  0
 23 17  1  0
  1 24  1  0
  1 25  1  0
  1 26  1  0
  4 27  1  0
  5 28  1  0
  6 29  1  0
  7 30  1  0
 10 31  1  0
 11 32  1  0
 11 33  1  0
 12 34  1  0
 12 35  1  0
 13 36  1  0
 13 37  1  0
 14 38  1  0
 14 39  1  0
 15 40  1  0
 15 41  1  0
 16 42  1  0
 16 43  1  0
 18 44  1  0
 21 45  1  0
 22 46  1  0
M  CHG  2   2   1  13   1
M  END
>  <UniqueID>  (10) 
10

>  <SMILES>  (10) 
C[n+]1c2ccccc2c(NCC[NH2+]CCN)c2cc(Cl)ccc21

>  <Energy>  (10) 
69.70168883830904

>  <Genealogy>  (10) 
C[n+]1c2ccccc2c(NCC[NH2+]CCN)c2cc(Cl)ccc21 (protonated)
C[n+]1c2ccccc2c(NCC[NH2+]CCN)c2cc(Cl)ccc21 (3D coordinates assigned)
C[n+]1c2ccccc2c(NCC[NH2+]CCN)c2cc(Cl)ccc21 (optimized conformer: 69.70168883830904 kcal/mol)

>  <smiles>  (10) 
C[n+]1c2ccccc2c(NCCNCCN)c2cc(Cl)ccc21

>  <score_type>  (10) 
oracle

>  <origin>  (10) 
adg

>  <m_score__min__energy>  (10) 
-8.0500000000000007

>  <m_primary>  (10) 
energy

$$$$
10:0
     RDKit          3D

 40 40  0  0  0  0  0  0  0  0999 V2000
   -5.3390   25.5480  -30.7180 C   0  0  0  0  0  0  0  0  0  0  0  0
   -3.9340   25.2970  -30.3850 N   0  0  0  0  0  0  0  0  0  0  0  0
   -3.8050   24.3480  -29.2680 C   0  0  0  0  0  0  0  0  0  0  0  0
   -2.3810   23.7810  -29.1690 C   0  0  0  0  0  0  0  0  0  0  0  0
   -2.1560   22.5810  -30.0920 C   0  0  0  0  0  0  0  0  0  0  0  0
   -2.7470   22.8280  -31.3670 O   0  0  0  0  0  0  0  0  0  0  0  0
   -3.8160   22.0940  -31.9020 C   0  0  0  0  0  0  0  0  0  0  0  0
   -3.6230   20.9500  -32.6940 C   0  0  0  0  0  0  0  0  0  0  0  0
   -4.7190   20.2490  -33.2120 C   0  0  0  0  0  0  0  0  0  0  0  0
   -4.3900   18.8040  -34.1660 Cl  0  0  0  0  0  0  0  0  0  0  0  0
   -6.0360   20.6940  -32.9540 C   0  0  0  0  0  0  0  0  0  0  0  0
   -7.2280   19.9280  -33.4910 C   0  0  0  0  0  0  0  0  0  0  0  0
   -7.9020   19.1260  -32.3650 C   0  0  0  0  0  0  0  0  0  0  0  0
   -7.3130   17.7200  -32.1330 C   0  0  2  0  0  0  0  0  0  0  0  0
   -6.1090   17.7190  -31.1860 C   0  0  0  0  0  0  0  0  0  0  0  0
   -6.9140   16.8770  -33.7060 S   0  0  0  0  0  0  0  0  0  0  0  0
   -6.2230   21.8320  -32.1340 C   0  0  0  0  0  0  0  0  0  0  0  0
   -7.8250   22.4240  -31.7040 Cl  0  0  0  0  0  0  0  0  0  0  0  0
   -5.1160   22.5210  -31.6260 C   0  0  0  0  0  0  0  0  0  0  0  0
   -5.9225   25.6522  -29.7913 H   0  0  0  0  0  0  0  0  0  0  0  0
   -5.4166   26.4742  -31.3063 H   0  0  0  0  0  0  0  0  0  0  0  0
   -5.7325   24.7059  -31.3063 H   0  0  0  0  0  0  0  0  0  0  0  0
   -3.4910   24.8620  -31.2280 H   0  0  0  0  0  0  0  0  0  0  0  0
   -4.0487   24.8666  -28.3291 H   0  0  0  0  0  0  0  0  0  0  0  0
   -4.4967   23.5114  -29.4459 H   0  0  0  0  0  0  0  0  0  0  0  0
   -1.6675   24.5727  -29.4413 H   0  0  0  0  0  0  0  0  0  0  0  0
   -2.2324   23.4365  -28.1350 H   0  0  0  0  0  0  0  0  0  0  0  0
   -1.0758   22.4153  -30.2172 H   0  0  0  0  0  0  0  0  0  0  0  0
   -2.6210   21.6898  -29.6452 H   0  0  0  0  0  0  0  0  0  0  0  0
   -2.6020   20.6018  -32.9092 H   0  0  0  0  0  0  0  0  0  0  0  0
   -7.9537   20.6377  -33.9149 H   0  0  0  0  0  0  0  0  0  0  0  0
   -6.8829   19.2304  -34.2684 H   0  0  0  0  0  0  0  0  0  0  0  0
   -7.8024   19.6976  -31.4304 H   0  0  0  0  0  0  0  0  0  0  0  0
   -8.9476   18.9776  -32.6726 H   0  0  0  0  0  0  0  0  0  0  0  0
   -8.1066   17.1458  -31.6325 H   0  0  0  0  0  0  0  0  0  0  0  0
   -6.4620   17.7193  -30.1442 H   0  0  0  0  0  0  0  0  0  0  0  0
   -5.5010   16.8203  -31.3669 H   0  0  0  0  0  0  0  0  0  0  0  0
   -5.4995   18.6166  -31.3669 H   0  0  0  0  0  0  0  0  0  0  0  0
   -6.9430   18.0440  -34.4910 H   0  0  0  0  0  0  0  0  0  0  0  0
   -5.2725   23.4120  -31.0001 H   0  0  0  0  0  0  0  0  0  0  0  0
  1  2  1  0
  2  3  1  0
  3  4  1  0
  4  5  1  0
  5  6  1  0
  6  7  1  0
  7  8  2  0
  8  9  1  0
  9 10  1  0
  9 11  2  0
 11 12  1  0
 12 13  1  0
 13 14  1  0
 14 15  1  0
 14 16  1  0
 11 17  1  0
 17 18  1  0
 17 19  2  0
 19  7  1  0
  1 20  1  0
  1 21  1  0
  1 22  1  0
  2 23  1  0
  3 24  1  0
  3 25  1  0
  4 26  1  0
  4 27  1  0
  5 28  1  0
  5 29  1  0
  8 30  1  0
 12 31  1  0
 12 32  1  0
 13 33  1  0
 13 34  1  0
 14 35  1  1
 15 36  1  0
 15 37  1  0
 15 38  1  0
 16 39  1  0
 19 40  1  0
M  END
>  <UniqueID>  (11) 
11

>  <SMILES>  (11) 
CNCCCOc1cc(Cl)c(CC[C@H](C)S)c(Cl)c1

>  <Energy>  (11) 
29.697974374756026

>  <Genealogy>  (11) 
CNCCCOc1cc(Cl)c(CC[C@H](C)S)c(Cl)c1 (chirality)
CNCCCOc1cc(Cl)c(CC[C@H](C)S)c(Cl)c1 (3D coordinates assigned)
CNCCCOc1cc(Cl)c(CC[C@H](C)S)c(Cl)c1 (optimized conformer: 29.697974374756026 kcal/mol)

>  <smiles>  (11) 
CNCCCOc1cc(Cl)c(CCC(C)S)c(Cl)c1

>  <score_type>  (11) 
oracle

>  <origin>  (11) 
adg

>  <m_score__min__energy>  (11) 
-7.75

>  <m_primary>  (11) 
energy

$$$$
11:0
     RDKit          3D

 86 89  0  0  0  0  0  0  0  0999 V2000
   -2.2700   25.6370  -26.1360 C   0  0  0  0  0  0  0  0  0  0  0  0
   -1.3650   25.3840  -27.3410 C   0  0  0  0  0  0  0  0  0  0  0  0
   -2.1270   24.9730  -28.5420 N   0  0  0  0  0  0  0  0  0  0  0  0
   -1.3500   24.0120  -29.3460 C   0  0  0  0  0  0  0  0  0  0  0  0
   -3.5170   24.5120  -28.2890 C   0  0  0  0  0  0  0  0  0  0  0  0
   -3.6450   23.0990  -27.6910 C   0  0  0  0  0  0  0  0  0  0  0  0
   -3.6810   22.1330  -28.7220 O   0  0  0  0  0  0  0  0  0  0  0  0
   -4.4880   22.5770  -29.7960 C   0  0  0  0  0  0  0  0  0  0  0  0
   -4.3600   21.6190  -30.9890 C   0  0  0  0  0  0  0  0  0  0  0  0
   -4.1410   22.3720  -32.3090 C   0  0  0  0  0  0  0  0  0  0  0  0
   -4.6000   21.5940  -33.4600 N   0  0  0  0  0  0  0  0  0  0  0  0
   -4.9540   20.2140  -33.2940 C   0  0  0  0  0  0  0  0  0  0  0  0
   -6.2430   19.8920  -32.8380 C   0  0  0  0  0  0  0  0  0  0  0  0
   -7.1080   20.8950  -32.3440 C   0  0  0  0  0  0  0  0  0  0  0  0
   -8.3670   20.5670  -31.8490 C   0  0  0  0  0  0  0  0  0  0  0  0
   -8.7830   19.2420  -31.8320 C   0  0  0  0  0  0  0  0  0  0  0  0
   -7.9570   18.2400  -32.3390 C   0  0  0  0  0  0  0  0  0  0  0  0
   -6.6850   18.5470  -32.8860 C   0  0  0  0  0  0  0  0  0  0  0  0
   -5.8870   17.5820  -33.4630 N   0  0  0  0  0  0  0  0  0  0  0  0
   -6.4710   16.2740  -33.8350 C   0  0  0  0  0  0  0  0  0  0  0  0
   -4.5530   17.8450  -33.7190 C   0  0  0  0  0  0  0  0  0  0  0  0
   -3.6540   16.8050  -34.0580 C   0  0  0  0  0  0  0  0  0  0  0  0
   -2.3240   17.0690  -34.3570 C   0  0  0  0  0  0  0  0  0  0  0  0
   -1.8350   18.3620  -34.2810 C   0  0  0  0  0  0  0  0  0  0  0  0
   -2.6640   19.4230  -33.8920 C   0  0  0  0  0  0  0  0  0  0  0  0
   -2.0580   20.7050  -33.6530 N   0  0  0  0  0  0  0  0  0  0  0  0
   -1.0320   20.9150  -32.6330 C   0  0  0  0  0  0  0  0  0  0  0  0
   -1.3090   20.0300  -31.4130 C   0  0  0  0  0  0  0  0  0  0  0  0
   -1.2060   20.8470  -30.1030 C   0  0  0  0  0  0  0  0  0  0  0  0
   -0.8050   20.0590  -28.8900 N   0  0  0  0  0  0  0  0  0  0  0  0
   -0.1170   18.8100  -29.3120 C   0  0  0  0  0  0  0  0  0  0  0  0
    0.1800   20.8810  -28.1000 C   0  0  0  0  0  0  0  0  0  0  0  0
   -0.4950   21.7860  -27.0570 C   0  0  0  0  0  0  0  0  0  0  0  0
   -1.2420   20.9460  -26.0070 C   0  0  0  0  0  0  0  0  0  0  0  0
   -1.7320   19.6030  -26.5710 C   0  0  0  0  0  0  0  0  0  0  0  0
   -2.0230   19.7120  -28.0770 C   0  0  0  0  0  0  0  0  0  0  0  0
   -4.0490   19.1790  -33.6310 C   0  0  0  0  0  0  0  0  0  0  0  0
   -1.6995   25.4775  -25.2091 H   0  0  0  0  0  0  0  0  0  0  0  0
   -2.6392   26.6728  -26.1657 H   0  0  0  0  0  0  0  0  0  0  0  0
   -3.1228   24.9428  -26.1657 H   0  0  0  0  0  0  0  0  0  0  0  0
   -0.8155   26.3088  -27.5706 H   0  0  0  0  0  0  0  0  0  0  0  0
   -0.6808   24.5631  -27.0804 H   0  0  0  0  0  0  0  0  0  0  0  0
   -0.8012   23.3332  -28.6766 H   0  0  0  0  0  0  0  0  0  0  0  0
   -2.0330   23.4282  -29.9806 H   0  0  0  0  0  0  0  0  0  0  0  0
   -0.6361   24.5576  -29.9806 H   0  0  0  0  0  0  0  0  0  0  0  0
   -3.9877   25.2200  -27.5910 H   0  0  0  0  0  0  0  0  0  0  0  0
   -4.0066   24.4704  -29.2731 H   0  0  0  0  0  0  0  0  0  0  0  0
   -2.7820   22.9014  -27.0382 H   0  0  0  0  0  0  0  0  0  0  0  0
   -4.5774   23.0386  -27.1104 H   0  0  0  0  0  0  0  0  0  0  0  0
   -5.5381   22.6130  -29.4704 H   0  0  0  0  0  0  0  0  0  0  0  0
   -4.1549   23.5791  -30.1039 H   0  0  0  0  0  0  0  0  0  0  0  0
   -3.5052   20.9486  -30.8163 H   0  0  0  0  0  0  0  0  0  0  0  0
   -5.2990   21.0521  -31.0724 H   0  0  0  0  0  0  0  0  0  0  0  0
   -4.6979   23.3200  -32.2749 H   0  0  0  0  0  0  0  0  0  0  0  0
   -3.0621   22.5517  -32.4256 H   0  0  0  0  0  0  0  0  0  0  0  0
   -4.5180   21.9730  -34.4320 H   0  0  0  0  0  0  0  0  0  0  0  0
   -6.7828   21.9458  -32.3508 H   0  0  0  0  0  0  0  0  0  0  0  0
   -9.0324   21.3573  -31.4713 H   0  0  0  0  0  0  0  0  0  0  0  0
   -9.7680   18.9823  -31.4169 H   0  0  0  0  0  0  0  0  0  0  0  0
   -8.2973   17.1943  -32.3144 H   0  0  0  0  0  0  0  0  0  0  0  0
   -6.7220   15.7119  -32.9234 H   0  0  0  0  0  0  0  0  0  0  0  0
   -7.3827   16.4351  -34.4291 H   0  0  0  0  0  0  0  0  0  0  0  0
   -5.7424   15.7028  -34.4291 H   0  0  0  0  0  0  0  0  0  0  0  0
   -4.0166   15.7668  -34.0850 H   0  0  0  0  0  0  0  0  0  0  0  0
   -1.6562   16.2475  -34.6555 H   0  0  0  0  0  0  0  0  0  0  0  0
   -0.7817   18.5592  -34.5293 H   0  0  0  0  0  0  0  0  0  0  0  0
   -2.4230   21.5410  -34.1620 H   0  0  0  0  0  0  0  0  0  0  0  0
   -0.0469   20.6599  -33.0507 H   0  0  0  0  0  0  0  0  0  0  0  0
   -1.0463   21.9699  -32.3216 H   0  0  0  0  0  0  0  0  0  0  0  0
   -2.3218   19.6090  -31.4961 H   0  0  0  0  0  0  0  0  0  0  0  0
   -0.5594   19.2255  -31.3851 H   0  0  0  0  0  0  0  0  0  0  0  0
   -0.4605   21.6415  -30.2548 H   0  0  0  0  0  0  0  0  0  0  0  0
   -2.2177   21.2280  -29.8997 H   0  0  0  0  0  0  0  0  0  0  0  0
    0.1946   18.2443  -28.4216 H   0  0  0  0  0  0  0  0  0  0  0  0
   -0.8050   18.1976  -29.9133 H   0  0  0  0  0  0  0  0  0  0  0  0
    0.7683   19.0643  -29.9133 H   0  0  0  0  0  0  0  0  0  0  0  0
    0.8683   20.1989  -27.5795 H   0  0  0  0  0  0  0  0  0  0  0  0
    0.7087   21.5339  -28.8100 H   0  0  0  0  0  0  0  0  0  0  0  0
    0.2731   22.3920  -26.5542 H   0  0  0  0  0  0  0  0  0  0  0  0
   -1.2198   22.4354  -27.5698 H   0  0  0  0  0  0  0  0  0  0  0  0
   -0.5629   20.7485  -25.1645 H   0  0  0  0  0  0  0  0  0  0  0  0
   -2.1257   21.5177  -25.6873 H   0  0  0  0  0  0  0  0  0  0  0  0
   -0.9564   18.8400  -26.4086 H   0  0  0  0  0  0  0  0  0  0  0  0
   -2.6615   19.3233  -26.0534 H   0  0  0  0  0  0  0  0  0  0  0  0
   -2.4151   18.7463  -28.4286 H   0  0  0  0  0  0  0  0  0  0  0  0
   -2.7505   20.5258  -28.2124 H   0  0  0  0  0  0  0  0  0  0  0  0
  1  2  1  0
  2  3  1  0
  3  4  1  0
  3  5  1  0
  5  6  1  0
  6  7  1  0
  7  8  1  0
  8  9  1  0
  9 10  1  0
 10 11  1  0
 11 12  1  0
 12 13  2  0
 13 14  1  0
 14 15  2  0
 15 16  1  0
 16 17  2  0
 17 18  1  0
 18 19  2  0
 19 20  1  0
 19 21  1  0
 21 22  2  0
 22 23  1  0
 23 24  2  0
 24 25  1  0
 25 26  1  0
 26 27  1  0
 27 28  1  0
 28 29  1  0
 29 30  1  0
 30 31  1  0
 30 32  1  0
 32 33  1  0
 33 34  1  0
 34 35  1  0
 35 36  1  0
 25 37  2  0
 37 12  1  0
 18 13  1  0
 37 21  1  0
 36 30  1  0
  1 38  1  0
  1 39  1  0
  1 40  1  0
  2 41  1  0
  2 42  1  0
  4 43  1  0
  4 44  1  0
  4 45  1  0
  5 46  1  0
  5 47  1  0
  6 48  1  0
  6 49  1  0
  8 50  1  0
  8 51  1  0
  9 52  1  0
  9 53  1  0
 10 54  1  0
 10 55  1  0
 11 56  1  0
 14 57  1  0
 15 58  1  0
 16 59  1  0
 17 60  1  0
 20 61  1  0
 20 62  1  0
 20 63  1  0
 22 64  1  0
 23 65  1  0
 24 66  1  0
 26 67  1  0
 27 68  1  0
 27 69  1  0
 28 70  1  0
 28 71  1  0
 29 72  1  0
 29 73  1  0
 31 74  1  0
 31 75  1  0
 31 76  1  0
 32 77  1  0
 32 78  1  0
 33 79  1  0
 33 80  1  0
 34 81  1  0
 34 82  1  0
 35 83  1  0
 35 84  1  0
 36 85  1  0
 36 86  1  0
M  CHG  2  19   1  30   1
M  END
>  <UniqueID>  (12) 
12

>  <SMILES>  (12) 
CCN(C)CCOCCCNc1c2ccccc2[n+](C)c2cccc(NCCC[N+]3(C)CCCCC3)c12

>  <Energy>  (12) 
135.0944209592383

>  <Genealogy>  (12) 
CCN(C)CCOCCCNc1c2ccccc2[n+](C)c2cccc(NCCC[N+]3(C)CCCCC3)c12 (3D coordinates assigned)
CCN(C)CCOCCCNc1c2ccccc2[n+](C)c2cccc(NCCC[N+]3(C)CCCCC3)c12 (nonaromatic ring conformer: 135.0944209592383 kcal/mol)

>  <smiles>  (12) 
CCN(C)CCOCCCNc1c2ccccc2[n+](C)c2cccc(NCCC[N+]3(C)CCCCC3)c12

>  <score_type>  (12) 
oracle

>  <origin>  (12) 
adg

>  <m_score__min__energy>  (12) 
-9.8900000000000006

>  <m_primary>  (12) 
energy

$$$$
12:0
     RDKit          3D

 47 49  0  0  0  0  0  0  0  0999 V2000
   -5.7170   25.6390  -30.4820 C   0  0  0  0  0  0  0  0  0  0  0  0
   -5.8590   24.7740  -29.4760 C   0  0  0  0  0  0  0  0  0  0  0  0
   -6.1840   23.3250  -29.7150 C   0  0  0  0  0  0  0  0  0  0  0  0
   -5.2570   22.7310  -30.7070 N   0  0  0  0  0  0  0  0  0  0  0  0
   -5.6410   22.5210  -32.0200 C   0  0  0  0  0  0  0  0  0  0  0  0
   -7.0420   22.8040  -32.5280 C   0  0  0  0  0  0  0  0  0  0  0  0
   -8.2150   21.5340  -31.9340 S   0  0  0  0  0  0  0  0  0  0  0  0
   -7.2360   20.1350  -32.4860 C   0  0  0  0  0  0  0  0  0  0  0  0
   -6.8610   19.1360  -31.5770 C   0  0  0  0  0  0  0  0  0  0  0  0
   -6.1180   18.0350  -32.0130 C   0  0  0  0  0  0  0  0  0  0  0  0
   -5.7360   17.9370  -33.3550 C   0  0  0  0  0  0  0  0  0  0  0  0
   -6.0950   18.9400  -34.2610 C   0  0  0  0  0  0  0  0  0  0  0  0
   -6.8420   20.0400  -33.8270 C   0  0  0  0  0  0  0  0  0  0  0  0
   -4.7520   22.0060  -32.9160 N   0  0  0  0  0  0  0  0  0  0  0  0
   -3.4820   21.6790  -32.5600 C   0  0  0  0  0  0  0  0  0  0  0  0
   -2.5960   21.1430  -33.5060 C   0  0  0  0  0  0  0  0  0  0  0  0
   -1.2810   20.8010  -33.1420 C   0  0  0  0  0  0  0  0  0  0  0  0
   -0.3690   20.2620  -34.0640 O   0  0  0  0  0  0  0  0  0  0  0  0
    0.4850   21.0340  -34.9010 C   0  0  0  0  0  0  0  0  0  0  0  0
   -0.8530   20.9990  -31.8220 C   0  0  0  0  0  0  0  0  0  0  0  0
    0.4660   20.6480  -31.4920 O   0  0  0  0  0  0  0  0  0  0  0  0
    0.9090   19.3190  -31.2330 C   0  0  0  0  0  0  0  0  0  0  0  0
   -1.7430   21.5380  -30.8730 C   0  0  0  0  0  0  0  0  0  0  0  0
   -3.0590   21.8770  -31.2390 C   0  0  0  0  0  0  0  0  0  0  0  0
   -3.9730   22.4170  -30.3190 C   0  0  0  0  0  0  0  0  0  0  0  0
   -3.6010   22.6140  -29.1280 O   0  0  0  0  0  0  0  0  0  0  0  0
   -5.4791   26.6923  -30.2723 H   0  0  0  0  0  0  0  0  0  0  0  0
   -5.8378   25.2988  -31.5211 H   0  0  0  0  0  0  0  0  0  0  0  0
   -5.7349   25.1306  -28.4428 H   0  0  0  0  0  0  0  0  0  0  0  0
   -6.0966   22.7752  -28.7663 H   0  0  0  0  0  0  0  0  0  0  0  0
   -7.2094   23.2552  -30.1069 H   0  0  0  0  0  0  0  0  0  0  0  0
   -7.3648   23.7911  -32.1655 H   0  0  0  0  0  0  0  0  0  0  0  0
   -7.0292   22.7861  -33.6278 H   0  0  0  0  0  0  0  0  0  0  0  0
   -7.1517   19.2185  -30.5193 H   0  0  0  0  0  0  0  0  0  0  0  0
   -5.8339   17.2461  -31.3010 H   0  0  0  0  0  0  0  0  0  0  0  0
   -5.1525   17.0700  -33.6982 H   0  0  0  0  0  0  0  0  0  0  0  0
   -5.7899   18.8638  -35.3151 H   0  0  0  0  0  0  0  0  0  0  0  0
   -7.1203   20.8309  -34.5390 H   0  0  0  0  0  0  0  0  0  0  0  0
   -5.0580   21.8530  -33.9040 H   0  0  0  0  0  0  0  0  0  0  0  0
   -2.9325   20.9887  -34.5418 H   0  0  0  0  0  0  0  0  0  0  0  0
    1.1574   21.6419  -34.2778 H   0  0  0  0  0  0  0  0  0  0  0  0
    1.0811   20.3621  -35.5360 H   0  0  0  0  0  0  0  0  0  0  0  0
   -0.1235   21.6947  -35.5360 H   0  0  0  0  0  0  0  0  0  0  0  0
    0.9634   19.1558  -30.1465 H   0  0  0  0  0  0  0  0  0  0  0  0
    0.2008   18.6035  -31.6762 H   0  0  0  0  0  0  0  0  0  0  0  0
    1.9049   19.1715  -31.6762 H   0  0  0  0  0  0  0  0  0  0  0  0
   -1.4069   21.6953  -29.8375 H   0  0  0  0  0  0  0  0  0  0  0  0
  1  2  2  0
  2  3  1  0
  3  4  1  0
  4  5  1  0
  5  6  1  0
  6  7  1  0
  7  8  1  0
  8  9  2  0
  9 10  1  0
 10 11  2  0
 11 12  1  0
 12 13  2  0
  5 14  2  0
 14 15  1  0
 15 16  2  0
 16 17  1  0
 17 18  1  0
 18 19  1  0
 17 20  2  0
 20 21  1  0
 21 22  1  0
 20 23  1  0
 23 24  2  0
 24 25  1  0
 25 26  2  0
 25  4  1  0
 13  8  1  0
 24 15  1  0
  1 27  1  0
  1 28  1  0
  2 29  1  0
  3 30  1  0
  3 31  1  0
  6 32  1  0
  6 33  1  0
  9 34  1  0
 10 35  1  0
 11 36  1  0
 12 37  1  0
 13 38  1  0
 14 39  1  0
 16 40  1  0
 19 41  1  0
 19 42  1  0
 19 43  1  0
 22 44  1  0
 22 45  1  0
 22 46  1  0
 23 47  1  0
M  CHG  1  14   1
M  END
>  <UniqueID>  (13) 
13

>  <SMILES>  (13) 
C=CCn1c(CSc2ccccc2)[nH+]c2cc(OC)c(OC)cc2c1=O

>  <Energy>  (13) 
50.29407284421868

>  <Genealogy>  (13) 
C=CCn1c(CSc2ccccc2)[nH+]c2cc(OC)c(OC)cc2c1=O (protonated)
C=CCn1c(CSc2ccccc2)[nH+]c2cc(OC)c(OC)cc2c1=O (3D coordinates assigned)
C=CCn1c(CSc2ccccc2)[nH+]c2cc(OC)c(OC)cc2c1=O (optimized conformer: 50.29407284421868 kcal/mol)

>  <smiles>  (13) 
C=CCn1c(CSc2ccccc2)nc2cc(OC)c(OC)cc2c1=O

>  <score_type>  (13) 
oracle

>  <origin>  (13) 
adg

>  <m_score__min__energy>  (13) 
-7.4500000000000002

>  <m_primary>  (13) 
energy

$$$$
13:0
     RDKit          3D

 55 57  0  0  0  0  0  0  0  0999 V2000
   -3.4810   22.1900  -28.5670 C   0  0  0  0  0  0  0  0  0  0  0  0
   -3.5330   23.6630  -28.1890 C   0  0  0  0  0  0  0  0  0  0  0  0
   -4.2170   24.3850  -29.1950 O   0  0  0  0  0  0  0  0  0  0  0  0
   -5.3390   24.9770  -28.6660 N   0  0  0  0  0  0  0  0  0  0  0  0
   -6.1060   25.6310  -29.7350 C   0  0  0  0  0  0  0  0  0  0  0  0
   -6.8990   24.6120  -30.5750 C   0  0  0  0  0  0  0  0  0  0  0  0
   -6.0770   24.0430  -31.7430 C   0  0  0  0  0  0  0  0  0  0  0  0
   -5.3010   22.8620  -31.3500 N   0  0  0  0  0  0  0  0  0  0  0  0
   -5.5020   21.5650  -31.9330 C   0  0  0  0  0  0  0  0  0  0  0  0
   -4.4340   20.9180  -32.5710 C   0  0  0  0  0  0  0  0  0  0  0  0
   -4.6570   19.7140  -33.2670 C   0  0  0  0  0  0  0  0  0  0  0  0
   -5.8940   19.0950  -33.2290 N   0  0  0  0  0  0  0  0  0  0  0  0
   -6.0520   17.7350  -33.7980 C   0  0  0  0  0  0  0  0  0  0  0  0
   -5.8000   16.6640  -32.7380 C   0  0  0  0  0  0  0  0  0  0  0  0
   -6.9660   19.7310  -32.6190 C   0  0  0  0  0  0  0  0  0  0  0  0
   -8.2860   19.2090  -32.6760 C   0  0  0  0  0  0  0  0  0  0  0  0
   -9.3360   19.8240  -31.9970 C   0  0  0  0  0  0  0  0  0  0  0  0
   -9.1100   20.9710  -31.2470 C   0  0  0  0  0  0  0  0  0  0  0  0
   -7.8380   21.5340  -31.2070 C   0  0  0  0  0  0  0  0  0  0  0  0
   -6.7680   20.9560  -31.9210 C   0  0  0  0  0  0  0  0  0  0  0  0
   -3.4970   19.2310  -34.1320 C   0  0  0  0  0  0  0  0  0  0  0  0
   -2.1830   19.2110  -33.3370 C   0  0  0  0  0  0  0  0  0  0  0  0
   -1.9740   20.4520  -32.4380 C   0  0  0  0  0  0  0  0  0  0  0  0
   -3.0500   21.5320  -32.6150 C   0  0  0  0  0  0  0  0  0  0  0  0
   -3.4594   21.5776  -27.6535 H   0  0  0  0  0  0  0  0  0  0  0  0
   -4.3706   21.9321  -29.1604 H   0  0  0  0  0  0  0  0  0  0  0  0
   -2.5754   21.9955  -29.1604 H   0  0  0  0  0  0  0  0  0  0  0  0
   -4.0625   23.7772  -27.2316 H   0  0  0  0  0  0  0  0  0  0  0  0
   -2.5089   24.0523  -28.0908 H   0  0  0  0  0  0  0  0  0  0  0  0
   -5.1420   25.6700  -27.9000 H   0  0  0  0  0  0  0  0  0  0  0  0
   -5.9200   24.2180  -28.2380 H   0  0  0  0  0  0  0  0  0  0  0  0
   -6.8104   26.3446  -29.2826 H   0  0  0  0  0  0  0  0  0  0  0  0
   -5.3963   26.1444  -30.4004 H   0  0  0  0  0  0  0  0  0  0  0  0
   -7.2069   23.7813  -29.9230 H   0  0  0  0  0  0  0  0  0  0  0  0
   -7.7673   25.1353  -31.0019 H   0  0  0  0  0  0  0  0  0  0  0  0
   -6.7632   23.7619  -32.5554 H   0  0  0  0  0  0  0  0  0  0  0  0
   -5.3691   24.8197  -32.0681 H   0  0  0  0  0  0  0  0  0  0  0  0
   -4.5510   22.9730  -30.6310 H   0  0  0  0  0  0  0  0  0  0  0  0
   -7.0757   17.6239  -34.1850 H   0  0  0  0  0  0  0  0  0  0  0  0
   -5.3175   17.6065  -34.6067 H   0  0  0  0  0  0  0  0  0  0  0  0
   -5.9043   17.1074  -31.7367 H   0  0  0  0  0  0  0  0  0  0  0  0
   -6.5314   15.8510  -32.8570 H   0  0  0  0  0  0  0  0  0  0  0  0
   -4.7828   16.2625  -32.8570 H   0  0  0  0  0  0  0  0  0  0  0  0
   -8.4829   18.3025  -33.2671 H   0  0  0  0  0  0  0  0  0  0  0  0
  -10.3489   19.3990  -32.0553 H   0  0  0  0  0  0  0  0  0  0  0  0
   -9.9351   21.4336  -30.6856 H   0  0  0  0  0  0  0  0  0  0  0  0
   -7.6649   22.4419  -30.6106 H   0  0  0  0  0  0  0  0  0  0  0  0
   -3.7154   18.2141  -34.4901 H   0  0  0  0  0  0  0  0  0  0  0  0
   -3.3816   19.9236  -34.9788 H   0  0  0  0  0  0  0  0  0  0  0  0
   -2.1789   18.3159  -32.6977 H   0  0  0  0  0  0  0  0  0  0  0  0
   -1.3653   19.2091  -34.0728 H   0  0  0  0  0  0  0  0  0  0  0  0
   -1.9802   20.1248  -31.3878 H   0  0  0  0  0  0  0  0  0  0  0  0
   -1.0149   20.9034  -32.7320 H   0  0  0  0  0  0  0  0  0  0  0  0
   -2.9566   22.2713  -31.8059 H   0  0  0  0  0  0  0  0  0  0  0  0
   -2.9082   22.0171  -33.5920 H   0  0  0  0  0  0  0  0  0  0  0  0
  1  2  1  0
  2  3  1  0
  3  4  1  0
  4  5  1  0
  5  6  1  0
  6  7  1  0
  7  8  1  0
  8  9  1  0
  9 10  2  0
 10 11  1  0
 11 12  2  0
 12 13  1  0
 13 14  1  0
 12 15  1  0
 15 16  2  0
 16 17  1  0
 17 18  2  0
 18 19  1  0
 19 20  2  0
 11 21  1  0
 21 22  1  0
 22 23  1  0
 23 24  1  0
 20  9  1  0
 24 10  1  0
 20 15  1  0
  1 25  1  0
  1 26  1  0
  1 27  1  0
  2 28  1  0
  2 29  1  0
  4 30  1  0
  4 31  1  0
  5 32  1  0
  5 33  1  0
  6 34  1  0
  6 35  1  0
  7 36  1  0
  7 37  1  0
  8 38  1  0
 13 39  1  0
 13 40  1  0
 14 41  1  0
 14 42  1  0
 14 43  1  0
 16 44  1  0
 17 45  1  0
 18 46  1  0
 19 47  1  0
 21 48  1  0
 21 49  1  0
 22 50  1  0
 22 51  1  0
 23 52  1  0
 23 53  1  0
 24 54  1  0
 24 55  1  0
M  CHG  2   4   1  12   1
M  END
>  <UniqueID>  (14) 
14

>  <SMILES>  (14) 
CCO[NH2+]CCCNc1c2c([n+](CC)c3ccccc13)CCCC2

>  <Energy>  (14) 
76.06621396856238

>  <Genealogy>  (14) 
CCO[NH2+]CCCNc1c2c([n+](CC)c3ccccc13)CCCC2 (protonated)
CCO[NH2+]CCCNc1c2c([n+](CC)c3ccccc13)CCCC2 (3D coordinates assigned)
CCO[NH2+]CCCNc1c2c([n+](CC)c3ccccc13)CCCC2 (nonaromatic ring conformer: 76.06621396856238 kcal/mol)

>  <smiles>  (14) 
CCONCCCNc1c2c([n+](CC)c3ccccc13)CCCC2

>  <score_type>  (14) 
oracle

>  <origin>  (14) 
adg

>  <m_score__min__energy>  (14) 
-8.1799999999999997

>  <m_primary>  (14) 
energy

$$$$
14:0
     RDKit          3D

 46 48  0  0  0  0  0  0  0  0999 V2000
   -6.5450   25.3420  -29.7270 C   0  0  0  0  0  0  0  0  0  0  0  0
   -5.1660   25.2530  -30.3790 C   0  0  0  0  0  0  0  0  0  0  0  0
   -4.3680   24.1170  -29.7900 C   0  0  0  0  0  0  0  0  0  0  0  0
   -4.2290   24.0030  -28.3980 C   0  0  0  0  0  0  0  0  0  0  0  0
   -3.5330   22.9260  -27.8450 C   0  0  0  0  0  0  0  0  0  0  0  0
   -2.9660   21.9530  -28.6760 C   0  0  0  0  0  0  0  0  0  0  0  0
   -3.0860   22.0590  -30.0710 C   0  0  0  0  0  0  0  0  0  0  0  0
   -2.5090   20.9890  -30.9620 C   0  0  0  0  0  0  0  0  0  0  0  0
   -2.0510   21.5570  -32.3080 C   0  0  0  0  0  0  0  0  0  0  0  0
   -3.1640   21.5460  -33.2730 N   0  0  0  0  0  0  0  0  0  0  0  0
   -3.9850   20.3360  -33.1440 C   0  0  0  0  0  0  0  0  0  0  0  0
   -5.4110   20.7010  -32.8550 C   0  0  0  0  0  0  0  0  0  0  0  0
   -5.9150   21.9770  -32.5990 C   0  0  0  0  0  0  0  0  0  0  0  0
   -7.2160   21.9000  -32.2330 N   0  0  0  0  0  0  0  0  0  0  0  0
   -8.0740   23.0170  -31.8550 C   0  0  0  0  0  0  0  0  0  0  0  0
   -7.5390   20.5900  -32.2420 C   0  0  0  0  0  0  0  0  0  0  0  0
   -8.7610   20.0030  -31.9000 C   0  0  0  0  0  0  0  0  0  0  0  0
   -8.8540   18.5990  -31.9460 C   0  0  0  0  0  0  0  0  0  0  0  0
   -7.7380   17.8200  -32.3200 C   0  0  0  0  0  0  0  0  0  0  0  0
   -6.5170   18.4360  -32.6540 C   0  0  0  0  0  0  0  0  0  0  0  0
   -6.4570   19.8300  -32.6080 C   0  0  0  0  0  0  0  0  0  0  0  0
   -3.8000   23.1370  -30.6210 C   0  0  0  0  0  0  0  0  0  0  0  0
   -6.4343   25.3349  -28.6326 H   0  0  0  0  0  0  0  0  0  0  0  0
   -7.0389   26.2739  -30.0395 H   0  0  0  0  0  0  0  0  0  0  0  0
   -7.1546   24.4813  -30.0395 H   0  0  0  0  0  0  0  0  0  0  0  0
   -5.2879   25.0860  -31.4594 H   0  0  0  0  0  0  0  0  0  0  0  0
   -4.6276   26.1946  -30.1956 H   0  0  0  0  0  0  0  0  0  0  0  0
   -4.6704   24.7656  -27.7395 H   0  0  0  0  0  0  0  0  0  0  0  0
   -3.4301   22.8421  -26.7530 H   0  0  0  0  0  0  0  0  0  0  0  0
   -2.4248   21.1029  -28.2351 H   0  0  0  0  0  0  0  0  0  0  0  0
   -1.6459   20.5315  -30.4562 H   0  0  0  0  0  0  0  0  0  0  0  0
   -3.2947   20.2436  -31.1546 H   0  0  0  0  0  0  0  0  0  0  0  0
   -1.7039   22.5911  -32.1662 H   0  0  0  0  0  0  0  0  0  0  0  0
   -1.2324   20.9349  -32.6989 H   0  0  0  0  0  0  0  0  0  0  0  0
   -2.7670   21.5630  -34.2420 H   0  0  0  0  0  0  0  0  0  0  0  0
   -3.9400   19.7654  -34.0834 H   0  0  0  0  0  0  0  0  0  0  0  0
   -3.5967   19.7277  -32.3138 H   0  0  0  0  0  0  0  0  0  0  0  0
   -5.3386   22.9101  -32.6825 H   0  0  0  0  0  0  0  0  0  0  0  0
   -8.1260   23.0847  -30.7583 H   0  0  0  0  0  0  0  0  0  0  0  0
   -7.6593   23.9516  -32.2608 H   0  0  0  0  0  0  0  0  0  0  0  0
   -9.0839   22.8573  -32.2608 H   0  0  0  0  0  0  0  0  0  0  0  0
   -9.6230   20.6190  -31.6042 H   0  0  0  0  0  0  0  0  0  0  0  0
   -9.8029   18.1057  -31.6887 H   0  0  0  0  0  0  0  0  0  0  0  0
   -7.8229   16.7237  -32.3507 H   0  0  0  0  0  0  0  0  0  0  0  0
   -5.6392   17.8387  -32.9417 H   0  0  0  0  0  0  0  0  0  0  0  0
   -3.9153   23.2143  -31.7122 H   0  0  0  0  0  0  0  0  0  0  0  0
  1  2  1  0
  2  3  1  0
  3  4  2  0
  4  5  1  0
  5  6  2  0
  6  7  1  0
  7  8  1  0
  8  9  1  0
  9 10  1  0
 10 11  1  0
 11 12  1  0
 12 13  2  0
 13 14  1  0
 14 15  1  0
 14 16  1  0
 16 17  2  0
 17 18  1  0
 18 19  2  0
 19 20  1  0
 20 21  2  0
  7 22  2  0
 22  3  1  0
 21 12  1  0
 21 16  1  0
  1 23  1  0
  1 24  1  0
  1 25  1  0
  2 26  1  0
  2 27  1  0
  4 28  1  0
  5 29  1  0
  6 30  1  0
  8 31  1  0
  8 32  1  0
  9 33  1  0
  9 34  1  0
 10 35  1  0
 11 36  1  0
 11 37  1  0
 13 38  1  0
 15 39  1  0
 15 40  1  0
 15 41  1  0
 17 42  1  0
 18 43  1  0
 19 44  1  0
 20 45  1  0
 22 46  1  0
M  END
>  <UniqueID>  (15) 
15

>  <SMILES>  (15) 
CCc1cccc(CCNCc2cn(C)c3ccccc23)c1

>  <Energy>  (15) 
71.91797147067923

>  <Genealogy>  (15) 
CCc1cccc(CCNCc2cn(C)c3ccccc23)c1 (3D coordinates assigned)
CCc1cccc(CCNCc2cn(C)c3ccccc23)c1 (optimized conformer: 71.91797147067923 kcal/mol)

>  <smiles>  (15) 
CCc1cccc(CCNCc2cn(C)c3ccccc23)c1

>  <score_type>  (15) 
oracle

>  <origin>  (15) 
adg

>  <m_score__min__energy>  (15) 
-8.3100000000000005

>  <m_primary>  (15) 
energy

$$$$
15:0
     RDKit          3D

 82 85  0  0  0  0  0  0  0  0999 V2000
    0.6920   22.8540  -36.0300 C   0  0  0  0  0  0  0  0  0  0  0  0
    1.0860   21.5390  -35.3440 C   0  0  0  0  0  0  0  0  0  0  0  0
    2.2750   20.9030  -36.0800 C   0  0  0  0  0  0  0  0  0  0  0  0
   -0.1270   20.5810  -35.2880 C   0  0  0  0  0  0  0  0  0  0  0  0
   -1.2860   21.1610  -34.5630 N   0  0  0  0  0  0  0  0  0  0  0  0
   -1.1400   21.0720  -33.0960 C   0  0  0  0  0  0  0  0  0  0  0  0
   -2.4300   21.4680  -32.3490 C   0  0  0  0  0  0  0  0  0  0  0  0
   -3.5880   21.6000  -33.2370 N   0  0  0  0  0  0  0  0  0  0  0  0
   -4.9330   21.3250  -32.8110 C   0  0  0  0  0  0  0  0  0  0  0  0
   -5.6010   22.2780  -32.0180 C   0  0  0  0  0  0  0  0  0  0  0  0
   -4.9200   23.4080  -31.5140 C   0  0  0  0  0  0  0  0  0  0  0  0
   -5.5870   24.3630  -30.7500 C   0  0  0  0  0  0  0  0  0  0  0  0
   -6.9320   24.1960  -30.4500 C   0  0  0  0  0  0  0  0  0  0  0  0
   -7.6210   23.0760  -30.9140 C   0  0  0  0  0  0  0  0  0  0  0  0
   -6.9750   22.1000  -31.7170 C   0  0  0  0  0  0  0  0  0  0  0  0
   -7.6400   20.9860  -32.1810 N   0  0  0  0  0  0  0  0  0  0  0  0
   -9.1170   20.9280  -32.1240 C   0  0  0  0  0  0  0  0  0  0  0  0
   -6.9250   19.9180  -32.6880 C   0  0  0  0  0  0  0  0  0  0  0  0
   -7.5150   18.6380  -32.7920 C   0  0  0  0  0  0  0  0  0  0  0  0
   -6.8030   17.5560  -33.2860 C   0  0  0  0  0  0  0  0  0  0  0  0
   -5.4980   17.7200  -33.7220 C   0  0  0  0  0  0  0  0  0  0  0  0
   -4.8700   18.9770  -33.6710 C   0  0  0  0  0  0  0  0  0  0  0  0
   -3.5730   19.1480  -34.1980 O   0  0  0  0  0  0  0  0  0  0  0  0
   -2.5290   18.1680  -34.2170 C   0  0  0  0  0  0  0  0  0  0  0  0
   -2.7580   16.9930  -35.2170 C   0  0  0  0  0  0  0  0  0  0  0  0
   -2.3260   15.6150  -34.7940 N   0  0  0  0  0  0  0  0  0  0  0  0
   -1.0090   15.2770  -35.3960 C   0  0  0  0  0  0  0  0  0  0  0  0
   -2.1650   15.6270  -33.2980 C   0  0  0  0  0  0  0  0  0  0  0  0
   -2.3820   14.2380  -32.6620 C   0  0  0  0  0  0  0  0  0  0  0  0
   -3.7750   13.7290  -32.8770 N   0  0  0  0  0  0  0  0  0  0  0  0
   -3.7410   12.2480  -32.9780 C   0  0  0  0  0  0  0  0  0  0  0  0
   -4.6210   14.0870  -31.7120 C   0  0  0  0  0  0  0  0  0  0  0  0
   -4.3900   14.3020  -34.1140 C   0  0  0  0  0  0  0  0  0  0  0  0
   -3.3420   14.5890  -35.2070 C   0  0  0  0  0  0  0  0  0  0  0  0
   -5.5620   20.0810  -33.0810 C   0  0  0  0  0  0  0  0  0  0  0  0
    0.4648   23.6123  -35.2662 H   0  0  0  0  0  0  0  0  0  0  0  0
    1.5247   23.2039  -36.6578 H   0  0  0  0  0  0  0  0  0  0  0  0
   -0.1960   22.6884  -36.6578 H   0  0  0  0  0  0  0  0  0  0  0  0
    1.3966   21.7443  -34.3089 H   0  0  0  0  0  0  0  0  0  0  0  0
    2.9969   20.5168  -35.3454 H   0  0  0  0  0  0  0  0  0  0  0  0
    1.9161   20.0764  -36.7108 H   0  0  0  0  0  0  0  0  0  0  0  0
    2.7634   21.6603  -36.7108 H   0  0  0  0  0  0  0  0  0  0  0  0
   -0.4376   20.3469  -36.3169 H   0  0  0  0  0  0  0  0  0  0  0  0
    0.1880   19.6798  -34.7415 H   0  0  0  0  0  0  0  0  0  0  0  0
   -2.1560   20.6660  -34.8620 H   0  0  0  0  0  0  0  0  0  0  0  0
   -1.4270   22.1640  -34.8220 H   0  0  0  0  0  0  0  0  0  0  0  0
   -0.8817   20.0365  -32.8294 H   0  0  0  0  0  0  0  0  0  0  0  0
   -0.3501   21.7761  -32.7954 H   0  0  0  0  0  0  0  0  0  0  0  0
   -2.6509   20.6959  -31.5973 H   0  0  0  0  0  0  0  0  0  0  0  0
   -2.2548   22.4514  -31.8882 H   0  0  0  0  0  0  0  0  0  0  0  0
   -3.4380   21.9270  -34.2190 H   0  0  0  0  0  0  0  0  0  0  0  0
   -3.8485   23.5357  -31.7276 H   0  0  0  0  0  0  0  0  0  0  0  0
   -5.0479   25.2494  -30.3845 H   0  0  0  0  0  0  0  0  0  0  0  0
   -7.4561   24.9498  -29.8441 H   0  0  0  0  0  0  0  0  0  0  0  0
   -8.6819   22.9468  -30.6536 H   0  0  0  0  0  0  0  0  0  0  0  0
   -9.4432   20.9152  -31.0736 H   0  0  0  0  0  0  0  0  0  0  0  0
   -9.5383   21.8103  -32.6280 H   0  0  0  0  0  0  0  0  0  0  0  0
   -9.4678   20.0154  -32.6280 H   0  0  0  0  0  0  0  0  0  0  0  0
   -8.5589   18.4976  -32.4750 H   0  0  0  0  0  0  0  0  0  0  0  0
   -7.2756   16.5638  -33.3320 H   0  0  0  0  0  0  0  0  0  0  0  0
   -4.9449   16.8537  -34.1140 H   0  0  0  0  0  0  0  0  0  0  0  0
   -1.5902   18.6723  -34.4897 H   0  0  0  0  0  0  0  0  0  0  0  0
   -2.5033   17.7211  -33.2122 H   0  0  0  0  0  0  0  0  0  0  0  0
   -3.8366   16.9479  -35.4282 H   0  0  0  0  0  0  0  0  0  0  0  0
   -2.1146   17.2325  -36.0765 H   0  0  0  0  0  0  0  0  0  0  0  0
   -0.2776   15.0893  -34.5961 H   0  0  0  0  0  0  0  0  0  0  0  0
   -1.1109   14.3759  -36.0186 H   0  0  0  0  0  0  0  0  0  0  0  0
   -0.6643   16.1158  -36.0186 H   0  0  0  0  0  0  0  0  0  0  0  0
   -1.1477   15.9689  -33.0567 H   0  0  0  0  0  0  0  0  0  0  0  0
   -2.9305   16.3022  -32.8880 H   0  0  0  0  0  0  0  0  0  0  0  0
   -1.6720   13.5278  -33.1110 H   0  0  0  0  0  0  0  0  0  0  0  0
   -2.2207   14.3337  -31.5781 H   0  0  0  0  0  0  0  0  0  0  0  0
   -3.7310   11.8118  -31.9683 H   0  0  0  0  0  0  0  0  0  0  0  0
   -4.6313   11.8969  -33.5203 H   0  0  0  0  0  0  0  0  0  0  0  0
   -2.8355   11.9382  -33.5203 H   0  0  0  0  0  0  0  0  0  0  0  0
   -4.0801   13.8581  -30.7819 H   0  0  0  0  0  0  0  0  0  0  0  0
   -4.8551   15.1613  -31.7452 H   0  0  0  0  0  0  0  0  0  0  0  0
   -5.5551   13.5070  -31.7452 H   0  0  0  0  0  0  0  0  0  0  0  0
   -5.1257   13.5855  -34.5082 H   0  0  0  0  0  0  0  0  0  0  0  0
   -4.8653   15.2564  -33.8434 H   0  0  0  0  0  0  0  0  0  0  0  0
   -2.8170   13.6517  -35.4433 H   0  0  0  0  0  0  0  0  0  0  0  0
   -3.8789   14.9914  -36.0787 H   0  0  0  0  0  0  0  0  0  0  0  0
  1  2  1  0
  2  3  1  0
  2  4  1  0
  4  5  1  0
  5  6  1  0
  6  7  1  0
  7  8  1  0
  8  9  1  0
  9 10  2  0
 10 11  1  0
 11 12  2  0
 12 13  1  0
 13 14  2  0
 14 15  1  0
 15 16  2  0
 16 17  1  0
 16 18  1  0
 18 19  2  0
 19 20  1  0
 20 21  2  0
 21 22  1  0
 22 23  1  0
 23 24  1  0
 24 25  1  0
 25 26  1  0
 26 27  1  0
 26 28  1  0
 28 29  1  0
 29 30  1  0
 30 31  1  0
 30 32  1  0
 30 33  1  0
 33 34  1  0
 22 35  2  0
 35  9  1  0
 15 10  1  0
 35 18  1  0
 34 26  1  0
  1 36  1  0
  1 37  1  0
  1 38  1  0
  2 39  1  0
  3 40  1  0
  3 41  1  0
  3 42  1  0
  4 43  1  0
  4 44  1  0
  5 45  1  0
  5 46  1  0
  6 47  1  0
  6 48  1  0
  7 49  1  0
  7 50  1  0
  8 51  1  0
 11 52  1  0
 12 53  1  0
 13 54  1  0
 14 55  1  0
 17 56  1  0
 17 57  1  0
 17 58  1  0
 19 59  1  0
 20 60  1  0
 21 61  1  0
 24 62  1  0
 24 63  1  0
 25 64  1  0
 25 65  1  0
 27 66  1  0
 27 67  1  0
 27 68  1  0
 28 69  1  0
 28 70  1  0
 29 71  1  0
 29 72  1  0
 31 73  1  0
 31 74  1  0
 31 75  1  0
 32 76  1  0
 32 77  1  0
 32 78  1  0
 33 79  1  0
 33 80  1  0
 34 81  1  0
 34 82  1  0
M  CHG  4   5   1  16   1  26   1  30   1
M  END
>  <UniqueID>  (16) 
16

>  <SMILES>  (16) 
CC(C)C[NH2+]CCNc1c2ccccc2[n+](C)c2cccc(OCC[N+]3(C)CC[N+](C)(C)CC3)c12

>  <Energy>  (16) 
138.17928494774034

>  <Genealogy>  (16) 
CC(C)C[NH2+]CCNc1c2ccccc2[n+](C)c2cccc(OCC[N+]3(C)CC[N+](C)(C)CC3)c12 (protonated)
CC(C)C[NH2+]CCNc1c2ccccc2[n+](C)c2cccc(OCC[N+]3(C)CC[N+](C)(C)CC3)c12 (3D coordinates assigned)
CC(C)C[NH2+]CCNc1c2ccccc2[n+](C)c2cccc(OCC[N+]3(C)CC[N+](C)(C)CC3)c12 (nonaromatic ring conformer: 138.17928494774034 kcal/mol)

>  <smiles>  (16) 
CC(C)CNCCNc1c2ccccc2[n+](C)c2cccc(OCC[N+]3(C)CC[N+](C)(C)CC3)c12

>  <score_type>  (16) 
oracle

>  <origin>  (16) 
adg

>  <m_score__min__energy>  (16) 
-7.5999999999999996

>  <m_primary>  (16) 
energy

$$$$
16:0
     RDKit          3D

 54 56  0  0  0  0  0  0  0  0999 V2000
   -6.1880   25.2840  -29.4640 C   0  0  0  0  0  0  0  0  0  0  0  0
   -5.3470   25.7370  -30.6480 C   0  0  0  0  0  0  0  0  0  0  0  0
   -4.0250   25.2780  -30.4720 O   0  0  0  0  0  0  0  0  0  0  0  0
   -3.9230   24.5730  -29.2520 C   0  0  0  0  0  0  0  0  0  0  0  0
   -3.2300   23.2320  -29.5050 C   0  0  0  0  0  0  0  0  0  0  0  0
   -3.1510   22.9630  -30.9470 N   0  0  0  0  0  0  0  0  0  0  0  0
   -3.3280   21.5370  -31.2590 C   0  0  0  0  0  0  0  0  0  0  0  0
   -3.0210   21.2960  -32.7360 C   0  0  0  0  0  0  0  0  0  0  0  0
   -4.2460   21.3430  -33.5400 N   0  0  0  0  0  0  0  0  0  0  0  0
   -5.4060   20.5960  -33.1480 C   0  0  0  0  0  0  0  0  0  0  0  0
   -6.4880   21.2730  -32.5600 C   0  0  0  0  0  0  0  0  0  0  0  0
   -6.4170   22.6590  -32.3000 C   0  0  0  0  0  0  0  0  0  0  0  0
   -7.5130   23.3450  -31.7830 C   0  0  0  0  0  0  0  0  0  0  0  0
   -8.6980   22.6650  -31.5240 C   0  0  0  0  0  0  0  0  0  0  0  0
   -8.7810   21.2920  -31.7450 C   0  0  0  0  0  0  0  0  0  0  0  0
   -7.6660   20.5580  -32.2250 C   0  0  0  0  0  0  0  0  0  0  0  0
   -7.7110   19.1870  -32.3830 N   0  0  0  0  0  0  0  0  0  0  0  0
   -8.8100   18.4120  -31.7650 C   0  0  0  0  0  0  0  0  0  0  0  0
   -6.7100   18.5330  -33.0800 C   0  0  0  0  0  0  0  0  0  0  0  0
   -6.8660   17.1860  -33.4880 C   0  0  0  0  0  0  0  0  0  0  0  0
   -5.8360   16.5020  -34.1200 C   0  0  0  0  0  0  0  0  0  0  0  0
   -4.6280   17.1320  -34.3690 C   0  0  0  0  0  0  0  0  0  0  0  0
   -4.4370   18.4810  -34.0300 C   0  0  0  0  0  0  0  0  0  0  0  0
   -3.2000   19.1030  -34.2770 O   0  0  0  0  0  0  0  0  0  0  0  0
   -1.9320   18.4570  -34.2080 C   0  0  0  0  0  0  0  0  0  0  0  0
   -5.5030   19.2110  -33.4220 C   0  0  0  0  0  0  0  0  0  0  0  0
   -5.6801   25.5576  -28.5274 H   0  0  0  0  0  0  0  0  0  0  0  0
   -7.1719   25.7742  -29.5042 H   0  0  0  0  0  0  0  0  0  0  0  0
   -6.3201   24.1927  -29.5042 H   0  0  0  0  0  0  0  0  0  0  0  0
   -5.7622   25.3194  -31.5771 H   0  0  0  0  0  0  0  0  0  0  0  0
   -5.3547   26.8351  -30.7120 H   0  0  0  0  0  0  0  0  0  0  0  0
   -3.3338   25.1625  -28.5341 H   0  0  0  0  0  0  0  0  0  0  0  0
   -4.9277   24.3989  -28.8394 H   0  0  0  0  0  0  0  0  0  0  0  0
   -2.2136   23.2640  -29.0856 H   0  0  0  0  0  0  0  0  0  0  0  0
   -3.8115   22.4322  -29.0231 H   0  0  0  0  0  0  0  0  0  0  0  0
   -3.9160   23.4970  -31.4260 H   0  0  0  0  0  0  0  0  0  0  0  0
   -2.6433   20.9387  -30.6400 H   0  0  0  0  0  0  0  0  0  0  0  0
   -4.3665   21.2420  -31.0479 H   0  0  0  0  0  0  0  0  0  0  0  0
   -2.3274   22.0725  -33.0909 H   0  0  0  0  0  0  0  0  0  0  0  0
   -2.5690   20.2988  -32.8426 H   0  0  0  0  0  0  0  0  0  0  0  0
   -4.2820   21.8770  -34.4380 H   0  0  0  0  0  0  0  0  0  0  0  0
   -5.4843   23.2037  -32.5084 H   0  0  0  0  0  0  0  0  0  0  0  0
   -7.4415   24.4237  -31.5797 H   0  0  0  0  0  0  0  0  0  0  0  0
   -9.5726   23.2129  -31.1434 H   0  0  0  0  0  0  0  0  0  0  0  0
   -9.7271   20.7682  -31.5439 H   0  0  0  0  0  0  0  0  0  0  0  0
   -8.7284   18.4696  -30.6695 H   0  0  0  0  0  0  0  0  0  0  0  0
   -9.7768   18.8292  -32.0831 H   0  0  0  0  0  0  0  0  0  0  0  0
   -8.7416   17.3612  -32.0831 H   0  0  0  0  0  0  0  0  0  0  0  0
   -7.8204   16.6722  -33.3009 H   0  0  0  0  0  0  0  0  0  0  0  0
   -5.9802   15.4548  -34.4243 H   0  0  0  0  0  0  0  0  0  0  0  0
   -3.8081   16.5685  -34.8382 H   0  0  0  0  0  0  0  0  0  0  0  0
   -1.6504   18.3136  -33.1544 H   0  0  0  0  0  0  0  0  0  0  0  0
   -1.9910   17.4791  -34.7082 H   0  0  0  0  0  0  0  0  0  0  0  0
   -1.1756   19.0796  -34.7082 H   0  0  0  0  0  0  0  0  0  0  0  0
  1  2  1  0
  2  3  1  0
  3  4  1  0
  4  5  1  0
  5  6  1  0
  6  7  1  0
  7  8  1  0
  8  9  1  0
  9 10  1  0
 10 11  2  0
 11 12  1  0
 12 13  2  0
 13 14  1  0
 14 15  2  0
 15 16  1  0
 16 17  2  0
 17 18  1  0
 17 19  1  0
 19 20  2  0
 20 21  1  0
 21 22  2  0
 22 23  1  0
 23 24  1  0
 24 25  1  0
 23 26  2  0
 26 10  1  0
 16 11  1  0
 26 19  1  0
  1 27  1  0
  1 28  1  0
  1 29  1  0
  2 30  1  0
  2 31  1  0
  4 32  1  0
  4 33  1  0
  5 34  1  0
  5 35  1  0
  6 36  1  0
  7 37  1  0
  7 38  1  0
  8 39  1  0
  8 40  1  0
  9 41  1  0
 12 42  1  0
 13 43  1  0
 14 44  1  0
 15 45  1  0
 18 46  1  0
 18 47  1  0
 18 48  1  0
 20 49  1  0
 21 50  1  0
 22 51  1  0
 25 52  1  0
 25 53  1  0
 25 54  1  0
M  CHG  1  17   1
M  END
>  <UniqueID>  (17) 
17

>  <SMILES>  (17) 
CCOCCNCCNc1c2ccccc2[n+](C)c2cccc(OC)c12

>  <Energy>  (17) 
75.67577118941063

>  <Genealogy>  (17) 
CCOCCNCCNc1c2ccccc2[n+](C)c2cccc(OC)c12 (3D coordinates assigned)
CCOCCNCCNc1c2ccccc2[n+](C)c2cccc(OC)c12 (optimized conformer: 75.67577118941063 kcal/mol)

>  <smiles>  (17) 
CCOCCNCCNc1c2ccccc2[n+](C)c2cccc(OC)c12

>  <score_type>  (17) 
oracle

>  <origin>  (17) 
adg

>  <m_score__min__energy>  (17) 
-8.5399999999999991

>  <m_primary>  (17) 
energy

$$$$
17:0
     RDKit          3D

 77 79  0  0  0  0  0  0  0  0999 V2000
   -9.4690   19.3890  -32.4750 C   0  0  0  0  0  0  0  0  0  0  0  0
   -8.4450   20.4990  -32.7230 C   0  0  0  0  0  0  0  0  0  0  0  0
   -8.4810   21.5880  -31.7250 N   0  0  0  0  0  0  0  0  0  0  0  0
   -9.4520   22.6530  -32.0180 C   0  0  0  0  0  0  0  0  0  0  0  0
   -7.1720   22.0260  -31.1850 C   0  0  0  0  0  0  0  0  0  0  0  0
   -6.1170   22.3740  -32.2480 C   0  0  0  0  0  0  0  0  0  0  0  0
   -5.3300   23.4500  -31.7730 O   0  0  0  0  0  0  0  0  0  0  0  0
   -6.1340   24.4280  -31.1380 C   0  0  0  0  0  0  0  0  0  0  0  0
   -5.2700   25.4550  -30.3980 C   0  0  0  0  0  0  0  0  0  0  0  0
   -3.9550   25.4490  -30.9130 O   0  0  0  0  0  0  0  0  0  0  0  0
   -3.3080   24.3710  -30.3950 N   0  0  0  0  0  0  0  0  0  0  0  0
   -2.6220   24.4400  -29.1410 C   0  0  0  0  0  0  0  0  0  0  0  0
   -3.0960   23.8280  -28.1470 O   0  0  0  0  0  0  0  0  0  0  0  0
   -1.4080   25.1920  -29.0180 N   0  0  0  0  0  0  0  0  0  0  0  0
   -0.5950   25.1550  -27.8030 C   0  0  0  0  0  0  0  0  0  0  0  0
   -0.2460   23.7150  -27.4050 C   0  0  0  0  0  0  0  0  0  0  0  0
   -0.1820   22.8520  -28.5930 N   0  0  0  0  0  0  0  0  0  0  0  0
   -0.8880   21.5800  -28.3730 C   0  0  0  0  0  0  0  0  0  0  0  0
   -1.5240   21.0260  -29.6630 C   0  0  0  0  0  0  0  0  0  0  0  0
   -3.0690   21.0690  -29.6990 C   0  0  0  0  0  0  0  0  0  0  0  0
   -3.6430   21.4100  -31.0200 N   0  0  0  0  0  0  0  0  0  0  0  0
   -3.4250   20.3880  -32.0380 C   0  0  0  0  0  0  0  0  0  0  0  0
   -2.2590   20.4290  -32.8560 C   0  0  0  0  0  0  0  0  0  0  0  0
   -1.3050   21.4730  -32.7500 C   0  0  0  0  0  0  0  0  0  0  0  0
   -0.2220   21.5530  -33.6220 C   0  0  0  0  0  0  0  0  0  0  0  0
   -0.0570   20.6000  -34.6150 C   0  0  0  0  0  0  0  0  0  0  0  0
   -0.9410   19.5300  -34.7070 C   0  0  0  0  0  0  0  0  0  0  0  0
   -2.0260   19.3920  -33.8020 C   0  0  0  0  0  0  0  0  0  0  0  0
   -2.8360   18.2790  -33.8280 N   0  0  0  0  0  0  0  0  0  0  0  0
   -2.3740   17.0510  -34.5150 C   0  0  0  0  0  0  0  0  0  0  0  0
   -4.0470   18.2880  -33.1690 C   0  0  0  0  0  0  0  0  0  0  0  0
   -5.0200   17.2860  -33.4200 C   0  0  0  0  0  0  0  0  0  0  0  0
   -6.2290   17.2630  -32.7330 C   0  0  0  0  0  0  0  0  0  0  0  0
   -6.5060   18.2360  -31.7870 C   0  0  0  0  0  0  0  0  0  0  0  0
   -5.5890   19.2520  -31.5370 C   0  0  0  0  0  0  0  0  0  0  0  0
   -4.3520   19.3200  -32.2320 C   0  0  0  0  0  0  0  0  0  0  0  0
   -9.6004   19.2466  -31.3922 H   0  0  0  0  0  0  0  0  0  0  0  0
  -10.4315   19.6703  -32.9273 H   0  0  0  0  0  0  0  0  0  0  0  0
   -9.1112   18.4523  -32.9273 H   0  0  0  0  0  0  0  0  0  0  0  0
   -7.4403   20.0513  -32.7094 H   0  0  0  0  0  0  0  0  0  0  0  0
   -8.6962   20.9507  -33.6940 H   0  0  0  0  0  0  0  0  0  0  0  0
   -9.8333   23.0712  -31.0747 H   0  0  0  0  0  0  0  0  0  0  0  0
   -8.9608   23.4473  -32.5992 H   0  0  0  0  0  0  0  0  0  0  0  0
  -10.2882   22.2371  -32.5992 H   0  0  0  0  0  0  0  0  0  0  0  0
   -7.3397   22.9189  -30.5648 H   0  0  0  0  0  0  0  0  0  0  0  0
   -6.7703   21.1723  -30.6195 H   0  0  0  0  0  0  0  0  0  0  0  0
   -5.4754   21.4997  -32.4325 H   0  0  0  0  0  0  0  0  0  0  0  0
   -6.6126   22.6592  -33.1877 H   0  0  0  0  0  0  0  0  0  0  0  0
   -6.7370   24.9464  -31.8980 H   0  0  0  0  0  0  0  0  0  0  0  0
   -6.7839   23.9255  -30.4065 H   0  0  0  0  0  0  0  0  0  0  0  0
   -5.7060   26.4566  -30.5270 H   0  0  0  0  0  0  0  0  0  0  0  0
   -5.2379   25.1935  -29.3300 H   0  0  0  0  0  0  0  0  0  0  0  0
   -1.0820   25.7470  -29.8390 H   0  0  0  0  0  0  0  0  0  0  0  0
    0.3364   25.7132  -27.9788 H   0  0  0  0  0  0  0  0  0  0  0  0
   -1.1744   25.6087  -26.9855 H   0  0  0  0  0  0  0  0  0  0  0  0
    0.7305   23.7063  -26.8986 H   0  0  0  0  0  0  0  0  0  0  0  0
   -1.0271   23.3337  -26.7309 H   0  0  0  0  0  0  0  0  0  0  0  0
   -0.6690   23.3400  -29.3800 H   0  0  0  0  0  0  0  0  0  0  0  0
   -0.1704   20.8405  -27.9879 H   0  0  0  0  0  0  0  0  0  0  0  0
   -1.6997   21.7686  -27.6550 H   0  0  0  0  0  0  0  0  0  0  0  0
   -1.1461   21.6163  -30.5108 H   0  0  0  0  0  0  0  0  0  0  0  0
   -1.2443   19.9633  -29.7124 H   0  0  0  0  0  0  0  0  0  0  0  0
   -3.4472   20.0787  -29.4054 H   0  0  0  0  0  0  0  0  0  0  0  0
   -3.3758   21.8686  -29.0088 H   0  0  0  0  0  0  0  0  0  0  0  0
   -3.3350   22.3600  -31.3080 H   0  0  0  0  0  0  0  0  0  0  0  0
   -4.6730   21.5440  -30.9100 H   0  0  0  0  0  0  0  0  0  0  0  0
   -1.4226   22.2338  -31.9643 H   0  0  0  0  0  0  0  0  0  0  0  0
    0.5036   22.3737  -33.5226 H   0  0  0  0  0  0  0  0  0  0  0  0
    0.7735   20.6900  -35.3307 H   0  0  0  0  0  0  0  0  0  0  0  0
   -0.7967   18.7768  -35.4956 H   0  0  0  0  0  0  0  0  0  0  0  0
   -2.0902   16.2967  -33.7663 H   0  0  0  0  0  0  0  0  0  0  0  0
   -3.1849   16.6558  -35.1445 H   0  0  0  0  0  0  0  0  0  0  0  0
   -1.5037   17.2884  -35.1445 H   0  0  0  0  0  0  0  0  0  0  0  0
   -4.8137   16.5115  -34.1734 H   0  0  0  0  0  0  0  0  0  0  0  0
   -6.9650   16.4724  -32.9409 H   0  0  0  0  0  0  0  0  0  0  0  0
   -7.4547   18.2053  -31.2312 H   0  0  0  0  0  0  0  0  0  0  0  0
   -5.8269   20.0189  -30.7852 H   0  0  0  0  0  0  0  0  0  0  0  0
  1  2  1  0
  2  3  1  0
  3  4  1  0
  3  5  1  0
  5  6  1  0
  6  7  1  0
  7  8  1  0
  8  9  1  0
  9 10  1  0
 10 11  1  0
 11 12  1  0
 12 13  2  0
 12 14  1  0
 14 15  1  0
 15 16  1  0
 16 17  1  0
 17 18  1  0
 18 19  1  0
 19 20  1  0
 20 21  1  0
 21 22  1  0
 22 23  2  0
 23 24  1  0
 24 25  2  0
 25 26  1  0
 26 27  2  0
 27 28  1  0
 28 29  2  0
 29 30  1  0
 29 31  1  0
 31 32  2  0
 32 33  1  0
 33 34  2  0
 34 35  1  0
 35 36  2  0
 36 22  1  0
 28 23  1  0
 36 31  1  0
  1 37  1  0
  1 38  1  0
  1 39  1  0
  2 40  1  0
  2 41  1  0
  4 42  1  0
  4 43  1  0
  4 44  1  0
  5 45  1  0
  5 46  1  0
  6 47  1  0
  6 48  1  0
  8 49  1  0
  8 50  1  0
  9 51  1  0
  9 52  1  0
 14 53  1  0
 15 54  1  0
 15 55  1  0
 16 56  1  0
 16 57  1  0
 17 58  1  0
 18 59  1  0
 18 60  1  0
 19 61  1  0
 19 62  1  0
 20 63  1  0
 20 64  1  0
 21 65  1  0
 21 66  1  0
 24 67  1  0
 25 68  1  0
 26 69  1  0
 27 70  1  0
 30 71  1  0
 30 72  1  0
 30 73  1  0
 32 74  1  0
 33 75  1  0
 34 76  1  0
 35 77  1  0
M  CHG  3  11  -1  21   1  29   1
M  END
>  <UniqueID>  (18) 
18

>  <SMILES>  (18) 
CCN(C)CCOCCO[N-]C(=O)NCCNCCC[NH2+]c1c2ccccc2[n+](C)c2ccccc12

>  <Energy>  (18) 
102.50729335993825

>  <Genealogy>  (18) 
CCN(C)CCOCCO[N-]C(=O)NCCNCCC[NH2+]c1c2ccccc2[n+](C)c2ccccc12 (protonated)
CCN(C)CCOCCO[N-]C(=O)NCCNCCC[NH2+]c1c2ccccc2[n+](C)c2ccccc12 (3D coordinates assigned)
CCN(C)CCOCCO[N-]C(=O)NCCNCCC[NH2+]c1c2ccccc2[n+](C)c2ccccc12 (optimized conformer: 102.50729335993825 kcal/mol)

>  <smiles>  (18) 
CCN(C)CCOCCONC(=O)NCCNCCCNc1c2ccccc2[n+](C)c2ccccc12

>  <score_type>  (18) 
oracle

>  <origin>  (18) 
adg

>  <m_score__min__energy>  (18) 
-10.6

>  <m_primary>  (18) 
energy

$$$$
18:0
     RDKit          3D

 36 37  0  0  0  0  0  0  0  0999 V2000
   -0.8880   16.6660  -26.3390 H   0  0  0  0  0  0  0  0  0  0  0  0
   -0.8120   17.6190  -26.7600 N   0  0  0  0  0  0  0  0  0  0  0  0
   -1.8040   18.4470  -26.7210 C   0  0  0  0  0  0  0  0  0  0  0  0
   -3.0010   18.1790  -26.1690 N   0  0  0  0  0  0  0  0  0  0  0  0
   -3.6920   19.2980  -26.3570 N   0  0  0  0  0  0  0  0  0  0  0  0
   -4.6790   19.4410  -26.0460 H   0  0  0  0  0  0  0  0  0  0  0  0
   -2.9700   20.2130  -26.9900 N   0  0  0  0  0  0  0  0  0  0  0  0
   -1.7800   19.6880  -27.2240 N   0  0  0  0  0  0  0  0  0  0  0  0
   -0.7060   20.3190  -27.8750 N   0  0  0  0  0  0  0  0  0  0  0  0
   -0.7760   20.7330  -29.1030 C   0  0  0  0  0  0  0  0  0  0  0  0
   -0.2073   20.2078  -29.8845 H   0  0  0  0  0  0  0  0  0  0  0  0
   -1.6070   21.8980  -29.4680 C   0  0  0  0  0  0  0  0  0  0  0  0
   -2.7670   21.7540  -30.2470 C   0  0  0  0  0  0  0  0  0  0  0  0
   -3.0715   20.7559  -30.5949 H   0  0  0  0  0  0  0  0  0  0  0  0
   -3.5350   22.8690  -30.5820 C   0  0  0  0  0  0  0  0  0  0  0  0
   -4.4403   22.7441  -31.1943 H   0  0  0  0  0  0  0  0  0  0  0  0
   -3.1610   24.1520  -30.1430 C   0  0  0  0  0  0  0  0  0  0  0  0
   -3.9090   25.2960  -30.4610 O   0  0  0  0  0  0  0  0  0  0  0  0
   -5.2980   25.2910  -30.7820 C   0  0  0  0  0  0  0  0  0  0  0  0
   -5.5430   26.1919  -31.3637 H   0  0  0  0  0  0  0  0  0  0  0  0
   -5.5336   24.3955  -31.3757 H   0  0  0  0  0  0  0  0  0  0  0  0
   -6.1150   25.2780  -29.5000 C   0  0  0  0  0  0  0  0  0  0  0  0
   -5.4376   25.2888  -28.6334 H   0  0  0  0  0  0  0  0  0  0  0  0
   -6.7636   26.1659  -29.4695 H   0  0  0  0  0  0  0  0  0  0  0  0
   -6.7350   24.3699  -29.4695 H   0  0  0  0  0  0  0  0  0  0  0  0
   -2.0050   24.3080  -29.3610 C   0  0  0  0  0  0  0  0  0  0  0  0
   -1.6630   25.6050  -28.9420 O   0  0  0  0  0  0  0  0  0  0  0  0
   -1.2350   25.9750  -27.6310 C   0  0  0  0  0  0  0  0  0  0  0  0
   -0.1902   25.6611  -27.4905 H   0  0  0  0  0  0  0  0  0  0  0  0
   -1.3238   27.0663  -27.5254 H   0  0  0  0  0  0  0  0  0  0  0  0
   -2.1050   25.3080  -26.5700 C   0  0  0  0  0  0  0  0  0  0  0  0
   -1.7417   25.5865  -25.5698 H   0  0  0  0  0  0  0  0  0  0  0  0
   -3.1468   25.6411  -26.6876 H   0  0  0  0  0  0  0  0  0  0  0  0
   -2.0538   24.2155  -26.6876 H   0  0  0  0  0  0  0  0  0  0  0  0
   -1.2310   23.1770  -29.0310 C   0  0  0  0  0  0  0  0  0  0  0  0
   -0.3218   23.2987  -28.4239 H   0  0  0  0  0  0  0  0  0  0  0  0
  1  2  1  0
  2  3  2  0
  3  4  1  0
  4  5  1  0
  5  6  1  0
  5  7  2  0
  7  8  1  0
  8  9  1  0
  9 10  2  0
 10 11  1  0
 10 12  1  0
 12 13  2  0
 13 14  1  0
 13 15  1  0
 15 16  1  0
 15 17  2  0
 17 18  1  0
 18 19  1  0
 19 20  1  0
 19 21  1  0
 19 22  1  0
 22 23  1  0
 22 24  1  0
 22 25  1  0
 17 26  1  0
 26 27  1  0
 27 28  1  0
 28 29  1  0
 28 30  1  0
 28 31  1  0
 31 32  1  0
 31 33  1  0
 31 34  1  0
 26 35  2  0
 35 36  1  0
  8  3  1  0
 35 12  1  0
M  CHG  2   4  -1   5   1
M  END
>  <UniqueID>  (19) 
19

>  <SMILES>  (19) 
[H]/N=c1\[n-][nH+]nn1/N=C/c1ccc(OCC)c(OCC)c1

>  <Energy>  (19) 
73.09206247164673

>  <Genealogy>  (19) 
CCOc1ccc(C=Nn2n[nH+][n-]c2=N)cc1OCC (protonated)
[H]/N=c1\[n-][nH+]nn1/N=C/c1ccc(OCC)c(OCC)c1 (cis-trans isomerization)
[H]/N=c1\[n-][nH+]nn1/N=C/c1ccc(OCC)c(OCC)c1 (3D coordinates assigned)
[H]/N=c1\[n-][nH+]nn1/N=C/c1ccc(OCC)c(OCC)c1 (optimized conformer: 73.09206247164673 kcal/mol)

>  <smiles>  (19) 
CCOc1ccc(C=Nn2nn[nH]c2=N)cc1OCC

>  <score_type>  (19) 
oracle

>  <origin>  (19) 
adg

>  <m_score__min__energy>  (19) 
-7.8600000000000003

>  <m_primary>  (19) 
energy

$$$$
19:0
     RDKit          3D

 60 64  0  0  0  0  0  0  0  0999 V2000
   -2.0720   25.2210  -26.9410 C   0  0  0  0  0  0  0  0  0  0  0  0
   -1.2200   25.2840  -28.2000 C   0  0  0  0  0  0  0  0  0  0  0  0
   -2.0670   25.2890  -29.3310 O   0  0  0  0  0  0  0  0  0  0  0  0
   -2.9190   24.1590  -29.3210 C   0  0  0  0  0  0  0  0  0  0  0  0
   -4.3720   24.5770  -29.5620 C   0  0  0  0  0  0  0  0  0  0  0  0
   -4.5640   24.9570  -30.9130 O   0  0  0  0  0  0  0  0  0  0  0  0
   -5.7450   24.3800  -31.4280 C   0  0  0  0  0  0  0  0  0  0  0  0
   -5.6540   22.8620  -31.3070 C   0  0  0  0  0  0  0  0  0  0  0  0
   -6.2630   22.2270  -32.4320 O   0  0  0  0  0  0  0  0  0  0  0  0
   -7.0170   21.0550  -32.3080 C   0  0  0  0  0  0  0  0  0  0  0  0
   -8.3230   21.1420  -31.7990 C   0  0  0  0  0  0  0  0  0  0  0  0
   -8.8070   22.4030  -31.4180 O   0  0  0  0  0  0  0  0  0  0  0  0
   -9.1000   23.4620  -32.3250 C   0  0  0  0  0  0  0  0  0  0  0  0
   -9.1060   19.9780  -31.6950 C   0  0  0  0  0  0  0  0  0  0  0  0
   -8.5910   18.7430  -32.0900 C   0  0  0  0  0  0  0  0  0  0  0  0
   -7.2820   18.6450  -32.5800 C   0  0  0  0  0  0  0  0  0  0  0  0
   -6.7610   17.4060  -32.9660 C   0  0  0  0  0  0  0  0  0  0  0  0
   -5.4410   17.3160  -33.4420 C   0  0  0  0  0  0  0  0  0  0  0  0
   -4.6500   18.4420  -33.4670 N   0  0  0  0  0  0  0  0  0  0  0  0
   -5.1550   19.6640  -33.1150 C   0  0  0  0  0  0  0  0  0  0  0  0
   -6.4810   19.8000  -32.6760 C   0  0  0  0  0  0  0  0  0  0  0  0
   -3.2640   18.3680  -33.9640 C   0  0  0  0  0  0  0  0  0  0  0  0
   -2.5900   17.0660  -33.5260 C   0  0  0  0  0  0  0  0  0  0  0  0
   -3.4400   15.8890  -33.9100 C   0  0  0  0  0  0  0  0  0  0  0  0
   -2.8380   14.6650  -34.2720 C   0  0  0  0  0  0  0  0  0  0  0  0
   -3.6690   13.6060  -34.6120 C   0  0  0  0  0  0  0  0  0  0  0  0
   -5.0190   13.7190  -34.5980 C   0  0  0  0  0  0  0  0  0  0  0  0
   -5.6600   14.8970  -34.2310 C   0  0  0  0  0  0  0  0  0  0  0  0
   -4.8580   16.0050  -33.8550 C   0  0  0  0  0  0  0  0  0  0  0  0
   -5.5840   12.5220  -34.9950 O   0  0  0  0  0  0  0  0  0  0  0  0
   -4.5220   11.5990  -35.2690 C   0  0  0  0  0  0  0  0  0  0  0  0
   -3.3160   12.3310  -35.0130 O   0  0  0  0  0  0  0  0  0  0  0  0
   -1.4215   25.2691  -26.0553 H   0  0  0  0  0  0  0  0  0  0  0  0
   -2.7715   26.0699  -26.9288 H   0  0  0  0  0  0  0  0  0  0  0  0
   -2.6390   24.2785  -26.9288 H   0  0  0  0  0  0  0  0  0  0  0  0
   -0.6141   26.2021  -28.1893 H   0  0  0  0  0  0  0  0  0  0  0  0
   -0.5527   24.4105  -28.2403 H   0  0  0  0  0  0  0  0  0  0  0  0
   -2.6066   23.4638  -30.1141 H   0  0  0  0  0  0  0  0  0  0  0  0
   -2.8490   23.6710  -28.3377 H   0  0  0  0  0  0  0  0  0  0  0  0
   -5.0352   23.7316  -29.3265 H   0  0  0  0  0  0  0  0  0  0  0  0
   -4.6059   25.4357  -28.9155 H   0  0  0  0  0  0  0  0  0  0  0  0
   -6.6118   24.7436  -30.8567 H   0  0  0  0  0  0  0  0  0  0  0  0
   -5.8637   24.6606  -32.4850 H   0  0  0  0  0  0  0  0  0  0  0  0
   -4.5956   22.5670  -31.2554 H   0  0  0  0  0  0  0  0  0  0  0  0
   -6.1834   22.5482  -30.3952 H   0  0  0  0  0  0  0  0  0  0  0  0
   -9.3515   24.3708  -31.7586 H   0  0  0  0  0  0  0  0  0  0  0  0
   -8.2218   23.6559  -32.9583 H   0  0  0  0  0  0  0  0  0  0  0  0
   -9.9530   23.1769  -32.9583 H   0  0  0  0  0  0  0  0  0  0  0  0
  -10.1306   20.0419  -31.2998 H   0  0  0  0  0  0  0  0  0  0  0  0
   -9.2162   17.8410  -32.0163 H   0  0  0  0  0  0  0  0  0  0  0  0
   -7.3838   16.5019  -32.8973 H   0  0  0  0  0  0  0  0  0  0  0  0
   -4.5114   20.5539  -33.1771 H   0  0  0  0  0  0  0  0  0  0  0  0
   -3.2735   18.4155  -35.0629 H   0  0  0  0  0  0  0  0  0  0  0  0
   -2.6973   19.2126  -33.5451 H   0  0  0  0  0  0  0  0  0  0  0  0
   -1.6090   16.9815  -34.0164 H   0  0  0  0  0  0  0  0  0  0  0  0
   -2.4632   17.0767  -32.4334 H   0  0  0  0  0  0  0  0  0  0  0  0
   -1.7437   14.5534  -34.2844 H   0  0  0  0  0  0  0  0  0  0  0  0
   -6.7577   14.9677  -34.2322 H   0  0  0  0  0  0  0  0  0  0  0  0
   -4.5905   10.7236  -34.6064 H   0  0  0  0  0  0  0  0  0  0  0  0
   -4.5623   11.2185  -36.3003 H   0  0  0  0  0  0  0  0  0  0  0  0
  1  2  1  0
  2  3  1  0
  3  4  1  0
  4  5  1  0
  5  6  1  0
  6  7  1  0
  7  8  1  0
  8  9  1  0
  9 10  1  0
 10 11  2  0
 11 12  1  0
 12 13  1  0
 11 14  1  0
 14 15  2  0
 15 16  1  0
 16 17  2  0
 17 18  1  0
 18 19  2  0
 19 20  1  0
 20 21  2  0
 19 22  1  0
 22 23  1  0
 23 24  1  0
 24 25  2  0
 25 26  1  0
 26 27  2  0
 27 28  1  0
 28 29  2  0
 27 30  1  0
 30 31  1  0
 31 32  1  0
 21 10  1  0
 29 24  1  0
 21 16  1  0
 32 26  1  0
 29 18  1  0
  1 33  1  0
  1 34  1  0
  1 35  1  0
  2 36  1  0
  2 37  1  0
  4 38  1  0
  4 39  1  0
  5 40  1  0
  5 41  1  0
  7 42  1  0
  7 43  1  0
  8 44  1  0
  8 45  1  0
 13 46  1  0
 13 47  1  0
 13 48  1  0
 14 49  1  0
 15 50  1  0
 17 51  1  0
 20 52  1  0
 22 53  1  0
 22 54  1  0
 23 55  1  0
 23 56  1  0
 25 57  1  0
 28 58  1  0
 31 59  1  0
 31 60  1  0
M  CHG  1  19   1
M  END
>  <UniqueID>  (20) 
20

>  <SMILES>  (20) 
CCOCCOCCOc1c(OC)ccc2cc3[n+](cc12)CCc1cc2c(cc1-3)OCO2

>  <Energy>  (20) 
105.84522737858165

>  <Genealogy>  (20) 
CCOCCOCCOc1c(OC)ccc2cc3[n+](cc12)CCc1cc2c(cc1-3)OCO2 (3D coordinates assigned)
CCOCCOCCOc1c(OC)ccc2cc3[n+](cc12)CCc1cc2c(cc1-3)OCO2 (nonaromatic ring conformer: 105.84522737858165 kcal/mol)

>  <smiles>  (20) 
CCOCCOCCOc1c(OC)ccc2cc3[n+](cc12)CCc1cc2c(cc1-3)OCO2

>  <score_type>  (20) 
oracle

>  <origin>  (20) 
adg

>  <m_score__min__energy>  (20) 
-7.9900000000000002

>  <m_primary>  (20) 
energy

$$$$
20:0
     RDKit          3D

 68 70  0  0  0  0  0  0  0  0999 V2000
    0.0360   17.9580  -31.0530 C   0  0  0  0  0  0  0  0  0  0  0  0
    0.3470   18.4850  -29.6470 C   0  0  0  0  0  0  0  0  0  0  0  0
   -0.4590   19.6650  -29.2130 N   0  0  0  0  0  0  0  0  0  0  0  0
   -1.2220   19.4260  -27.9580 C   0  0  0  0  0  0  0  0  0  0  0  0
   -2.5110   20.2550  -27.8000 C   0  0  0  0  0  0  0  0  0  0  0  0
   -1.1670   20.4900  -30.3020 C   0  0  0  0  0  0  0  0  0  0  0  0
   -2.0650   22.8500  -30.0020 N   0  0  0  0  0  0  0  0  0  0  0  0
   -2.4060   23.8960  -28.9250 C   0  0  0  0  0  0  0  0  0  0  0  0
   -3.7880   24.5510  -29.1290 C   0  0  0  0  0  0  0  0  0  0  0  0
   -3.8550   25.1810  -30.3950 O   0  0  0  0  0  0  0  0  0  0  0  0
   -5.1940   25.3160  -30.8410 C   0  0  0  0  0  0  0  0  0  0  0  0
   -5.7200   24.0790  -31.6040 C   0  0  0  0  0  0  0  0  0  0  0  0
   -4.6880   23.0620  -31.8040 N   0  0  0  0  0  0  0  0  0  0  0  0
   -4.9770   21.7720  -32.3430 C   0  0  0  0  0  0  0  0  0  0  0  0
   -6.7160   20.9890  -32.2600 C   0  0  0  0  0  0  0  0  0  0  0  0
   -6.9260   19.2320  -32.9050 C   0  0  0  0  0  0  0  0  0  0  0  0
   -5.5580   18.4000  -33.5640 N   0  0  0  0  0  0  0  0  0  0  0  0
   -5.7590   16.9950  -33.9310 C   0  0  0  0  0  0  0  0  0  0  0  0
   -5.3180   16.0790  -32.7930 C   0  0  0  0  0  0  0  0  0  0  0  0
   -3.9730   19.0470  -33.7450 C   0  0  0  0  0  0  0  0  0  0  0  0
   -2.8760   18.3550  -34.2250 C   0  0  0  0  0  0  0  0  0  0  0  0
   -1.6130   18.9760  -34.2420 C   0  0  0  0  0  0  0  0  0  0  0  0
   -1.3350   20.2880  -33.7830 C   0  0  0  0  0  0  0  0  0  0  0  0
   -2.2800   21.1680  -33.2250 C   0  0  0  0  0  0  0  0  0  0  0  0
   -3.5910   20.7700  -33.1140 C   0  0  0  0  0  0  0  0  0  0  0  0
   -8.2700   18.5840  -32.7170 C   0  0  0  0  0  0  0  0  0  0  0  0
   -9.3850   19.5800  -32.3120 C   0  0  0  0  0  0  0  0  0  0  0  0
   -8.9860   20.6770  -31.2980 C   0  0  0  0  0  0  0  0  0  0  0  0
   -7.9610   21.6910  -31.8360 C   0  0  0  0  0  0  0  0  0  0  0  0
   -0.5217   17.0130  -30.9753 H   0  0  0  0  0  0  0  0  0  0  0  0
   -0.5702   18.6979  -31.5961 H   0  0  0  0  0  0  0  0  0  0  0  0
    0.9768   17.7850  -31.5961 H   0  0  0  0  0  0  0  0  0  0  0  0
    0.1672   17.6693  -28.9313 H   0  0  0  0  0  0  0  0  0  0  0  0
    1.3926   18.8256  -29.6751 H   0  0  0  0  0  0  0  0  0  0  0  0
   -1.4971   18.3614  -27.9256 H   0  0  0  0  0  0  0  0  0  0  0  0
   -0.5594   19.7366  -27.1367 H   0  0  0  0  0  0  0  0  0  0  0  0
   -2.7283   20.3948  -26.7308 H   0  0  0  0  0  0  0  0  0  0  0  0
   -2.3767   21.2365  -28.2782 H   0  0  0  0  0  0  0  0  0  0  0  0
   -3.3483   19.7257  -28.2782 H   0  0  0  0  0  0  0  0  0  0  0  0
   -0.4493   20.5539  -31.1331 H   0  0  0  0  0  0  0  0  0  0  0  0
   -2.1103   19.9310  -30.3891 H   0  0  0  0  0  0  0  0  0  0  0  0
   -2.4200   23.5170  -30.7670 H   0  0  0  0  0  0  0  0  0  0  0  0
   -2.3950   23.4021  -27.9422 H   0  0  0  0  0  0  0  0  0  0  0  0
   -1.6526   24.6944  -28.9950 H   0  0  0  0  0  0  0  0  0  0  0  0
   -4.5679   23.7777  -29.0675 H   0  0  0  0  0  0  0  0  0  0  0  0
   -3.9426   25.3079  -28.3459 H   0  0  0  0  0  0  0  0  0  0  0  0
   -5.8372   25.4834  -29.9645 H   0  0  0  0  0  0  0  0  0  0  0  0
   -5.2160   26.1619  -31.5439 H   0  0  0  0  0  0  0  0  0  0  0  0
   -6.5458   23.6349  -31.0288 H   0  0  0  0  0  0  0  0  0  0  0  0
   -6.0531   24.4161  -32.5967 H   0  0  0  0  0  0  0  0  0  0  0  0
   -3.7690   23.1880  -31.3170 H   0  0  0  0  0  0  0  0  0  0  0  0
   -6.8252   16.8243  -34.1411 H   0  0  0  0  0  0  0  0  0  0  0  0
   -5.1568   16.7700  -34.8236 H   0  0  0  0  0  0  0  0  0  0  0  0
   -5.5475   16.5558  -31.8286 H   0  0  0  0  0  0  0  0  0  0  0  0
   -5.8535   15.1209  -32.8650 H   0  0  0  0  0  0  0  0  0  0  0  0
   -4.2350   15.9001  -32.8650 H   0  0  0  0  0  0  0  0  0  0  0  0
   -2.9900   17.3242  -34.5917 H   0  0  0  0  0  0  0  0  0  0  0  0
   -0.7710   18.3944  -34.6453 H   0  0  0  0  0  0  0  0  0  0  0  0
   -0.2986   20.6462  -33.8700 H   0  0  0  0  0  0  0  0  0  0  0  0
   -1.9724   22.1663  -32.8804 H   0  0  0  0  0  0  0  0  0  0  0  0
   -8.5598   18.1027  -33.6627 H   0  0  0  0  0  0  0  0  0  0  0  0
   -8.1681   17.8605  -31.8947 H   0  0  0  0  0  0  0  0  0  0  0  0
   -9.7364   20.0802  -33.2265 H   0  0  0  0  0  0  0  0  0  0  0  0
  -10.1501   18.9744  -31.8042 H   0  0  0  0  0  0  0  0  0  0  0  0
   -9.8943   21.2255  -31.0081 H   0  0  0  0  0  0  0  0  0  0  0  0
   -8.5084   20.1647  -30.4498 H   0  0  0  0  0  0  0  0  0  0  0  0
   -8.3917   22.2200  -32.6990 H   0  0  0  0  0  0  0  0  0  0  0  0
   -7.7148   22.4091  -31.0400 H   0  0  0  0  0  0  0  0  0  0  0  0
  1  2  1  0
  2  3  1  0
  3  4  1  0
  4  5  1  0
  3  6  1  0
  6  7  1  0
  7  8  1  0
  8  9  1  0
  9 10  1  0
 10 11  1  0
 11 12  1  0
 12 13  1  0
 13 14  1  0
 14 15  2  0
 15 16  1  0
 16 17  2  0
 17 18  1  0
 18 19  1  0
 17 20  1  0
 20 21  2  0
 21 22  1  0
 22 23  2  0
 23 24  1  0
 24 25  2  0
 16 26  1  0
 26 27  1  0
 27 28  1  0
 28 29  1  0
 25 14  1  0
 29 15  1  0
 25 20  1  0
  1 30  1  0
  1 31  1  0
  1 32  1  0
  2 33  1  0
  2 34  1  0
  4 35  1  0
  4 36  1  0
  5 37  1  0
  5 38  1  0
  5 39  1  0
  6 40  1  0
  6 41  1  0
  7 42  1  0
  8 43  1  0
  8 44  1  0
  9 45  1  0
  9 46  1  0
 11 47  1  0
 11 48  1  0
 12 49  1  0
 12 50  1  0
 13 51  1  0
 18 52  1  0
 18 53  1  0
 19 54  1  0
 19 55  1  0
 19 56  1  0
 21 57  1  0
 22 58  1  0
 23 59  1  0
 24 60  1  0
 26 61  1  0
 26 62  1  0
 27 63  1  0
 27 64  1  0
 28 65  1  0
 28 66  1  0
 29 67  1  0
 29 68  1  0
M  CHG  1  17   1
M  END
>  <UniqueID>  (21) 
21

>  <SMILES>  (21) 
CCN(CC)CNCCOCCNc1c2c([n+](CC)c3ccccc13)CCCC2

>  <Energy>  (21) 
2127.5970914202385

>  <Genealogy>  (21) 
CCN(CC)CNCCOCCNc1c2c([n+](CC)c3ccccc13)CCCC2 (3D coordinates assigned)
CCN(CC)CNCCOCCNc1c2c([n+](CC)c3ccccc13)CCCC2 (nonaromatic ring conformer: 2127.5970914202385 kcal/mol)

>  <smiles>  (21) 
CCN(CC)CNCCOCCNc1c2c([n+](CC)c3ccccc13)CCCC2

>  <score_type>  (21) 
oracle

>  <origin>  (21) 
adg

>  <m_score__min__energy>  (21) 
-9.4100000000000001

>  <m_primary>  (21) 
energy

$$$$
21:0
     RDKit          3D

 64 66  0  0  0  0  0  0  0  0999 V2000
   -0.5130   26.5910  -23.4720 C   0  0  0  0  0  0  0  0  0  0  0  0
   -0.4290   25.4830  -24.5270 C   0  0  0  0  0  0  0  0  0  0  0  0
   -0.9960   25.9130  -25.8300 N   0  0  2  0  0  0  0  0  0  0  0  0
   -0.8630   27.3770  -25.9650 C   0  0  0  0  0  0  0  0  0  0  0  0
   -2.4240   25.5080  -25.9700 C   0  0  0  0  0  0  0  0  0  0  0  0
   -2.7370   24.8940  -27.3450 C   0  0  0  0  0  0  0  0  0  0  0  0
   -1.6610   25.1030  -28.2590 O   0  0  0  0  0  0  0  0  0  0  0  0
   -0.6030   24.2040  -28.4380 C   0  0  0  0  0  0  0  0  0  0  0  0
    0.5930   24.5640  -28.2620 O   0  0  0  0  0  0  0  0  0  0  0  0
   -0.9020   22.7830  -28.7930 C   0  0  0  0  0  0  0  0  0  0  0  0
   -1.8920   22.7030  -29.9560 C   0  0  0  0  0  0  0  0  0  0  0  0
   -1.8050   21.3890  -30.6100 N   0  0  0  0  0  0  0  0  0  0  0  0
   -1.5420   21.4950  -32.0540 C   0  0  0  0  0  0  0  0  0  0  0  0
   -2.4170   20.5550  -32.9010 C   0  0  0  0  0  0  0  0  0  0  0  0
   -3.5710   21.2550  -33.4650 N   0  0  0  0  0  0  0  0  0  0  0  0
   -4.8950   20.9640  -32.9940 C   0  0  0  0  0  0  0  0  0  0  0  0
   -5.4820   19.7190  -33.2680 C   0  0  0  0  0  0  0  0  0  0  0  0
   -4.7910   18.7480  -34.0220 C   0  0  0  0  0  0  0  0  0  0  0  0
   -5.3430   17.4890  -34.2360 C   0  0  0  0  0  0  0  0  0  0  0  0
   -6.5860   17.1750  -33.6990 C   0  0  0  0  0  0  0  0  0  0  0  0
   -7.2960   18.1270  -32.9690 C   0  0  0  0  0  0  0  0  0  0  0  0
   -6.7810   19.4330  -32.7710 C   0  0  0  0  0  0  0  0  0  0  0  0
   -7.4990   20.4070  -32.1030 N   0  0  0  0  0  0  0  0  0  0  0  0
   -8.9410   20.2080  -31.8320 C   0  0  0  0  0  0  0  0  0  0  0  0
   -6.8800   21.5810  -31.7150 C   0  0  0  0  0  0  0  0  0  0  0  0
   -7.4990   22.4940  -30.8230 C   0  0  0  0  0  0  0  0  0  0  0  0
   -6.8850   23.7010  -30.4880 C   0  0  0  0  0  0  0  0  0  0  0  0
   -5.6430   24.0270  -31.0200 C   0  0  0  0  0  0  0  0  0  0  0  0
   -4.9890   23.1320  -31.8610 C   0  0  0  0  0  0  0  0  0  0  0  0
   -5.5810   21.8940  -32.1960 C   0  0  0  0  0  0  0  0  0  0  0  0
   -0.4791   26.1441  -22.4674 H   0  0  0  0  0  0  0  0  0  0  0  0
    0.3355   27.2801  -23.5956 H   0  0  0  0  0  0  0  0  0  0  0  0
   -1.4557   27.1443  -23.5956 H   0  0  0  0  0  0  0  0  0  0  0  0
    0.6266   25.2095  -24.6717 H   0  0  0  0  0  0  0  0  0  0  0  0
   -1.0160   24.6252  -24.1670 H   0  0  0  0  0  0  0  0  0  0  0  0
   -0.4160   25.4850  -26.5890 H   0  0  0  0  0  0  0  0  0  0  0  0
   -0.8214   27.8351  -24.9658 H   0  0  0  0  0  0  0  0  0  0  0  0
    0.0602   27.6121  -26.5149 H   0  0  0  0  0  0  0  0  0  0  0  0
   -1.7287   27.7747  -26.5149 H   0  0  0  0  0  0  0  0  0  0  0  0
   -2.6567   24.7656  -25.1923 H   0  0  0  0  0  0  0  0  0  0  0  0
   -3.0375   26.4150  -25.8647 H   0  0  0  0  0  0  0  0  0  0  0  0
   -2.9025   23.8130  -27.2263 H   0  0  0  0  0  0  0  0  0  0  0  0
   -3.6370   25.3814  -27.7481 H   0  0  0  0  0  0  0  0  0  0  0  0
    0.0329   22.2804  -29.0817 H   0  0  0  0  0  0  0  0  0  0  0  0
   -1.3508   22.2910  -27.9175 H   0  0  0  0  0  0  0  0  0  0  0  0
   -2.9129   22.8517  -29.5745 H   0  0  0  0  0  0  0  0  0  0  0  0
   -1.6465   23.4850  -30.6896 H   0  0  0  0  0  0  0  0  0  0  0  0
   -2.6960   20.8640  -30.4460 H   0  0  0  0  0  0  0  0  0  0  0  0
   -1.7354   22.5310  -32.3693 H   0  0  0  0  0  0  0  0  0  0  0  0
   -0.4946   21.2015  -32.2174 H   0  0  0  0  0  0  0  0  0  0  0  0
   -1.8104   20.1470  -33.7230 H   0  0  0  0  0  0  0  0  0  0  0  0
   -2.7880   19.7504  -32.2491 H   0  0  0  0  0  0  0  0  0  0  0  0
   -3.4580   21.9700  -34.2190 H   0  0  0  0  0  0  0  0  0  0  0  0
   -3.8048   18.9887  -34.4456 H   0  0  0  0  0  0  0  0  0  0  0  0
   -4.7959   16.7422  -34.8301 H   0  0  0  0  0  0  0  0  0  0  0  0
   -7.0109   16.1718  -33.8506 H   0  0  0  0  0  0  0  0  0  0  0  0
   -8.2728   17.8603  -32.5391 H   0  0  0  0  0  0  0  0  0  0  0  0
   -9.1101   20.1847  -30.7453 H   0  0  0  0  0  0  0  0  0  0  0  0
   -9.5149   21.0355  -32.2747 H   0  0  0  0  0  0  0  0  0  0  0  0
   -9.2693   19.2560  -32.2747 H   0  0  0  0  0  0  0  0  0  0  0  0
   -8.4787   22.2463  -30.3886 H   0  0  0  0  0  0  0  0  0  0  0  0
   -7.3860   24.3978  -29.7998 H   0  0  0  0  0  0  0  0  0  0  0  0
   -5.1769   24.9930  -30.7760 H   0  0  0  0  0  0  0  0  0  0  0  0
   -4.0009   23.3911  -32.2691 H   0  0  0  0  0  0  0  0  0  0  0  0
  1  2  1  0
  2  3  1  0
  3  4  1  0
  3  5  1  0
  5  6  1  0
  6  7  1  0
  7  8  1  0
  8  9  2  0
  8 10  1  0
 10 11  1  0
 11 12  1  0
 12 13  1  0
 13 14  1  0
 14 15  1  0
 15 16  1  0
 16 17  2  0
 17 18  1  0
 18 19  2  0
 19 20  1  0
 20 21  2  0
 21 22  1  0
 22 23  2  0
 23 24  1  0
 23 25  1  0
 25 26  2  0
 26 27  1  0
 27 28  2  0
 28 29  1  0
 29 30  2  0
 30 16  1  0
 22 17  1  0
 30 25  1  0
  1 31  1  0
  1 32  1  0
  1 33  1  0
  2 34  1  0
  2 35  1  0
  3 36  1  6
  4 37  1  0
  4 38  1  0
  4 39  1  0
  5 40  1  0
  5 41  1  0
  6 42  1  0
  6 43  1  0
 10 44  1  0
 10 45  1  0
 11 46  1  0
 11 47  1  0
 12 48  1  0
 13 49  1  0
 13 50  1  0
 14 51  1  0
 14 52  1  0
 15 53  1  0
 18 54  1  0
 19 55  1  0
 20 56  1  0
 21 57  1  0
 24 58  1  0
 24 59  1  0
 24 60  1  0
 26 61  1  0
 27 62  1  0
 28 63  1  0
 29 64  1  0
M  CHG  2   3   1  23   1
M  END
>  <UniqueID>  (22) 
22

>  <SMILES>  (22) 
CC[N@H+](C)CCOC(=O)CCNCCNc1c2ccccc2[n+](C)c2ccccc12

>  <Energy>  (22) 
88.07814646842571

>  <Genealogy>  (22) 
CC[NH+](C)CCOC(=O)CCNCCNc1c2ccccc2[n+](C)c2ccccc12 (protonated)
CC[N@H+](C)CCOC(=O)CCNCCNc1c2ccccc2[n+](C)c2ccccc12 (chirality)
CC[N@H+](C)CCOC(=O)CCNCCNc1c2ccccc2[n+](C)c2ccccc12 (3D coordinates assigned)
CC[N@H+](C)CCOC(=O)CCNCCNc1c2ccccc2[n+](C)c2ccccc12 (optimized conformer: 88.07814646842571 kcal/mol)

>  <smiles>  (22) 
CCN(C)CCOC(=O)CCNCCNc1c2ccccc2[n+](C)c2ccccc12

>  <score_type>  (22) 
oracle

>  <origin>  (22) 
adg

>  <m_score__min__energy>  (22) 
-10.19

>  <m_primary>  (22) 
energy

$$$$
22:0
     RDKit          3D

 83 86  0  0  0  0  0  0  0  0999 V2000
    0.4750   25.3140  -36.3410 C   0  0  0  0  0  0  0  0  0  0  0  0
    1.0570   23.9120  -36.4600 C   0  0  0  0  0  0  0  0  0  0  0  0
    0.4920   23.0590  -35.4030 N   0  0  0  0  0  0  0  0  0  0  0  0
    0.9830   21.6700  -35.4850 C   0  0  0  0  0  0  0  0  0  0  0  0
   -0.0150   20.6310  -34.9400 C   0  0  0  0  0  0  0  0  0  0  0  0
   -1.1860   21.2960  -34.3440 N   0  0  0  0  0  0  0  0  0  0  0  0
   -1.1700   21.1800  -32.8800 C   0  0  0  0  0  0  0  0  0  0  0  0
   -2.4950   21.6590  -32.2820 C   0  0  0  0  0  0  0  0  0  0  0  0
   -3.5670   21.5150  -33.2590 N   0  0  0  0  0  0  0  0  0  0  0  0
   -4.9090   21.1930  -32.8600 C   0  0  0  0  0  0  0  0  0  0  0  0
   -5.6310   22.1270  -32.0980 C   0  0  0  0  0  0  0  0  0  0  0  0
   -5.0750   23.3820  -31.7990 C   0  0  0  0  0  0  0  0  0  0  0  0
   -5.7610   24.2860  -30.9980 C   0  0  0  0  0  0  0  0  0  0  0  0
   -6.9830   23.9400  -30.4210 C   0  0  0  0  0  0  0  0  0  0  0  0
   -7.5410   22.7010  -30.6960 C   0  0  0  0  0  0  0  0  0  0  0  0
   -6.9160   21.7800  -31.5910 C   0  0  0  0  0  0  0  0  0  0  0  0
   -7.5180   20.5830  -31.9680 N   0  0  0  0  0  0  0  0  0  0  0  0
   -8.8840   20.2900  -31.4420 C   0  0  0  0  0  0  0  0  0  0  0  0
   -6.8100   19.6480  -32.7110 C   0  0  0  0  0  0  0  0  0  0  0  0
   -7.3690   18.3840  -33.0930 C   0  0  0  0  0  0  0  0  0  0  0  0
   -6.6270   17.4320  -33.7580 C   0  0  0  0  0  0  0  0  0  0  0  0
   -5.3120   17.6870  -34.1150 C   0  0  0  0  0  0  0  0  0  0  0  0
   -4.7220   18.9270  -33.8260 C   0  0  0  0  0  0  0  0  0  0  0  0
   -3.3980   19.1780  -34.2120 O   0  0  0  0  0  0  0  0  0  0  0  0
   -2.4760   18.1610  -34.5780 C   0  0  0  0  0  0  0  0  0  0  0  0
   -2.2220   17.2150  -33.3880 C   0  0  0  0  0  0  0  0  0  0  0  0
   -1.6270   15.8760  -33.7490 N   0  0  0  0  0  0  0  0  0  0  0  0
   -0.1380   15.9510  -33.6880 C   0  0  0  0  0  0  0  0  0  0  0  0
   -2.0280   15.4260  -35.1170 C   0  0  0  0  0  0  0  0  0  0  0  0
   -3.5310   15.0800  -35.2260 C   0  0  0  0  0  0  0  0  0  0  0  0
   -3.9800   14.0900  -34.2040 N   0  0  0  0  0  0  0  0  0  0  0  0
   -5.4630   14.0330  -34.2400 C   0  0  0  0  0  0  0  0  0  0  0  0
   -3.4820   12.7270  -34.5260 C   0  0  0  0  0  0  0  0  0  0  0  0
   -3.5610   14.4960  -32.8340 C   0  0  0  0  0  0  0  0  0  0  0  0
   -2.0630   14.8610  -32.7440 C   0  0  0  0  0  0  0  0  0  0  0  0
   -5.4640   19.9230  -33.1330 C   0  0  0  0  0  0  0  0  0  0  0  0
    0.3659   25.5767  -35.2784 H   0  0  0  0  0  0  0  0  0  0  0  0
    1.1488   26.0334  -36.8293 H   0  0  0  0  0  0  0  0  0  0  0  0
   -0.5102   25.3447  -36.8293 H   0  0  0  0  0  0  0  0  0  0  0  0
    0.8049   23.4920  -37.4449 H   0  0  0  0  0  0  0  0  0  0  0  0
    2.1507   23.9569  -36.3516 H   0  0  0  0  0  0  0  0  0  0  0  0
   -0.5560   23.0780  -35.4690 H   0  0  0  0  0  0  0  0  0  0  0  0
    1.1883   21.4353  -36.5399 H   0  0  0  0  0  0  0  0  0  0  0  0
    1.8861   21.6092  -34.8599 H   0  0  0  0  0  0  0  0  0  0  0  0
   -0.3483   19.9835  -35.7644 H   0  0  0  0  0  0  0  0  0  0  0  0
    0.4854   20.0336  -34.1636 H   0  0  0  0  0  0  0  0  0  0  0  0
   -2.0490   20.7960  -34.6900 H   0  0  0  0  0  0  0  0  0  0  0  0
   -1.0091   20.1276  -32.6034 H   0  0  0  0  0  0  0  0  0  0  0  0
   -0.3577   21.8082  -32.4855 H   0  0  0  0  0  0  0  0  0  0  0  0
   -2.7309   21.0574  -31.3918 H   0  0  0  0  0  0  0  0  0  0  0  0
   -2.4018   22.7191  -32.0036 H   0  0  0  0  0  0  0  0  0  0  0  0
   -3.3770   21.5580  -34.2880 H   0  0  0  0  0  0  0  0  0  0  0  0
   -4.0878   23.6511  -32.2027 H   0  0  0  0  0  0  0  0  0  0  0  0
   -5.3365   25.2845  -30.8169 H   0  0  0  0  0  0  0  0  0  0  0  0
   -7.4999   24.6447  -29.7530 H   0  0  0  0  0  0  0  0  0  0  0  0
   -8.4886   22.4203  -30.2129 H   0  0  0  0  0  0  0  0  0  0  0  0
   -8.8622   20.2947  -30.3422 H   0  0  0  0  0  0  0  0  0  0  0  0
   -9.5865   21.0579  -31.7981 H   0  0  0  0  0  0  0  0  0  0  0  0
   -9.2098   19.3015  -31.7981 H   0  0  0  0  0  0  0  0  0  0  0  0
   -8.4195   18.1682  -32.8484 H   0  0  0  0  0  0  0  0  0  0  0  0
   -7.0818   16.4620  -34.0075 H   0  0  0  0  0  0  0  0  0  0  0  0
   -4.7261   16.9108  -34.6291 H   0  0  0  0  0  0  0  0  0  0  0  0
   -2.8877   17.5837  -35.4190 H   0  0  0  0  0  0  0  0  0  0  0  0
   -1.5250   18.6293  -34.8718 H   0  0  0  0  0  0  0  0  0  0  0  0
   -1.5325   17.7181  -32.6941 H   0  0  0  0  0  0  0  0  0  0  0  0
   -3.2084   17.0032  -32.9497 H   0  0  0  0  0  0  0  0  0  0  0  0
    0.1855   15.9673  -32.6368 H   0  0  0  0  0  0  0  0  0  0  0  0
    0.2943   15.0735  -34.1911 H   0  0  0  0  0  0  0  0  0  0  0  0
    0.2039   16.8675  -34.1911 H   0  0  0  0  0  0  0  0  0  0  0  0
   -1.8017   16.2317  -35.8308 H   0  0  0  0  0  0  0  0  0  0  0  0
   -1.4635   14.5083  -35.3388 H   0  0  0  0  0  0  0  0  0  0  0  0
   -4.1131   16.0044  -35.0972 H   0  0  0  0  0  0  0  0  0  0  0  0
   -3.6919   14.6259  -36.2149 H   0  0  0  0  0  0  0  0  0  0  0  0
   -5.8544   14.0180  -33.2121 H   0  0  0  0  0  0  0  0  0  0  0  0
   -5.8512   14.9169  -34.7673 H   0  0  0  0  0  0  0  0  0  0  0  0
   -5.7822   13.1219  -34.7673 H   0  0  0  0  0  0  0  0  0  0  0  0
   -3.2821   12.1798  -33.5930 H   0  0  0  0  0  0  0  0  0  0  0  0
   -4.2413   12.1881  -35.1117 H   0  0  0  0  0  0  0  0  0  0  0  0
   -2.5541   12.8045  -35.1117 H   0  0  0  0  0  0  0  0  0  0  0  0
   -4.1539   15.3717  -32.5313 H   0  0  0  0  0  0  0  0  0  0  0  0
   -3.7303   13.6357  -32.1698 H   0  0  0  0  0  0  0  0  0  0  0  0
   -1.8635   15.2607  -31.7388 H   0  0  0  0  0  0  0  0  0  0  0  0
   -1.4967   13.9412  -32.9522 H   0  0  0  0  0  0  0  0  0  0  0  0
  1  2  1  0
  2  3  1  0
  3  4  1  0
  4  5  1  0
  5  6  1  0
  6  7  1  0
  7  8  1  0
  8  9  1  0
  9 10  1  0
 10 11  2  0
 11 12  1  0
 12 13  2  0
 13 14  1  0
 14 15  2  0
 15 16  1  0
 16 17  2  0
 17 18  1  0
 17 19  1  0
 19 20  2  0
 20 21  1  0
 21 22  2  0
 22 23  1  0
 23 24  1  0
 24 25  1  0
 25 26  1  0
 26 27  1  0
 27 28  1  0
 27 29  1  0
 29 30  1  0
 30 31  1  0
 31 32  1  0
 31 33  1  0
 31 34  1  0
 34 35  1  0
 23 36  2  0
 36 10  1  0
 16 11  1  0
 36 19  1  0
 35 27  1  0
  1 37  1  0
  1 38  1  0
  1 39  1  0
  2 40  1  0
  2 41  1  0
  3 42  1  0
  4 43  1  0
  4 44  1  0
  5 45  1  0
  5 46  1  0
  6 47  1  0
  7 48  1  0
  7 49  1  0
  8 50  1  0
  8 51  1  0
  9 52  1  0
 12 53  1  0
 13 54  1  0
 14 55  1  0
 15 56  1  0
 18 57  1  0
 18 58  1  0
 18 59  1  0
 20 60  1  0
 21 61  1  0
 22 62  1  0
 25 63  1  0
 25 64  1  0
 26 65  1  0
 26 66  1  0
 28 67  1  0
 28 68  1  0
 28 69  1  0
 29 70  1  0
 29 71  1  0
 30 72  1  0
 30 73  1  0
 32 74  1  0
 32 75  1  0
 32 76  1  0
 33 77  1  0
 33 78  1  0
 33 79  1  0
 34 80  1  0
 34 81  1  0
 35 82  1  0
 35 83  1  0
M  CHG  3  17   1  27   1  31   1
M  END
>  <UniqueID>  (23) 
23

>  <SMILES>  (23) 
CCNCCNCCNc1c2ccccc2[n+](C)c2cccc(OCC[N+]3(C)CC[N+](C)(C)CC3)c12

>  <Energy>  (23) 
135.51589851827822

>  <Genealogy>  (23) 
CCNCCNCCNc1c2ccccc2[n+](C)c2cccc(OCC[N+]3(C)CC[N+](C)(C)CC3)c12 (3D coordinates assigned)
CCNCCNCCNc1c2ccccc2[n+](C)c2cccc(OCC[N+]3(C)CC[N+](C)(C)CC3)c12 (nonaromatic ring conformer: 135.51589851827822 kcal/mol)

>  <smiles>  (23) 
CCNCCNCCNc1c2ccccc2[n+](C)c2cccc(OCC[N+]3(C)CC[N+](C)(C)CC3)c12

>  <score_type>  (23) 
oracle

>  <origin>  (23) 
adg

>  <m_score__min__energy>  (23) 
-8.0999999999999996

>  <m_primary>  (23) 
energy

$$$$
23:0
     RDKit          3D

 46 46  0  0  0  0  0  0  0  0999 V2000
   -5.6870   25.6150  -30.3170 C   0  0  0  0  0  0  0  0  0  0  0  0
   -4.2680   25.0840  -30.4920 C   0  0  0  0  0  0  0  0  0  0  0  0
   -4.2960   23.6560  -30.8460 N   0  0  0  0  0  0  0  0  0  0  0  0
   -5.1060   22.8550  -29.9110 C   0  0  0  0  0  0  0  0  0  0  0  0
   -4.5840   22.9470  -28.4650 C   0  0  0  0  0  0  0  0  0  0  0  0
   -3.2100   22.2900  -28.3170 C   0  0  0  0  0  0  0  0  0  0  0  0
   -2.8470   21.6630  -29.5310 O   0  0  0  0  0  0  0  0  0  0  0  0
   -1.4770   21.3090  -29.5170 C   0  0  0  0  0  0  0  0  0  0  0  0
   -0.9070   21.3410  -30.9370 C   0  0  0  0  0  0  0  0  0  0  0  0
   -1.7780   22.0530  -31.7960 O   0  0  0  0  0  0  0  0  0  0  0  0
   -1.7680   21.4880  -33.0920 C   0  0  0  0  0  0  0  0  0  0  0  0
   -3.1900   21.0900  -33.4850 C   0  0  0  0  0  0  0  0  0  0  0  0
   -4.0670   21.0300  -32.3120 N   0  0  0  0  0  0  0  0  0  0  0  0
   -5.2920   20.2680  -32.2550 C   0  0  0  0  0  0  0  0  0  0  0  0
   -5.3050   18.8530  -32.2850 C   0  0  0  0  0  0  0  0  0  0  0  0
   -4.1590   18.1310  -32.3490 F   0  0  0  0  0  0  0  0  0  0  0  0
   -6.5180   18.1580  -32.2260 C   0  0  0  0  0  0  0  0  0  0  0  0
   -6.5200   16.8010  -32.2520 F   0  0  0  0  0  0  0  0  0  0  0  0
   -7.7270   18.8500  -32.1340 C   0  0  0  0  0  0  0  0  0  0  0  0
   -8.8930   18.1560  -32.0780 F   0  0  0  0  0  0  0  0  0  0  0  0
   -7.7300   20.2490  -32.0960 C   0  0  0  0  0  0  0  0  0  0  0  0
   -8.9790   20.9640  -32.0000 C   0  0  0  0  0  0  0  0  0  0  0  0
   -9.9810   21.5380  -31.9240 N   0  0  0  0  0  0  0  0  0  0  0  0
   -6.5200   20.9550  -32.1530 C   0  0  0  0  0  0  0  0  0  0  0  0
   -6.5350   22.3130  -32.1200 F   0  0  0  0  0  0  0  0  0  0  0  0
   -5.9167   25.7010  -29.2447 H   0  0  0  0  0  0  0  0  0  0  0  0
   -5.7691   26.6047  -30.7900 H   0  0  0  0  0  0  0  0  0  0  0  0
   -6.3986   24.9223  -30.7900 H   0  0  0  0  0  0  0  0  0  0  0  0
   -3.7665   25.6465  -31.2933 H   0  0  0  0  0  0  0  0  0  0  0  0
   -3.7212   25.2069  -29.5455 H   0  0  0  0  0  0  0  0  0  0  0  0
   -3.3160   23.2880  -30.8690 H   0  0  0  0  0  0  0  0  0  0  0  0
   -6.1431   23.2207  -29.9374 H   0  0  0  0  0  0  0  0  0  0  0  0
   -5.0450   21.8029  -30.2263 H   0  0  0  0  0  0  0  0  0  0  0  0
   -4.5049   24.0068  -28.1812 H   0  0  0  0  0  0  0  0  0  0  0  0
   -5.2907   22.4156  -27.8106 H   0  0  0  0  0  0  0  0  0  0  0  0
   -2.4634   23.0573  -28.0645 H   0  0  0  0  0  0  0  0  0  0  0  0
   -3.2514   21.5365  -27.5167 H   0  0  0  0  0  0  0  0  0  0  0  0
   -0.9241   22.0219  -28.8876 H   0  0  0  0  0  0  0  0  0  0  0  0
   -1.3739   20.2914  -29.1123 H   0  0  0  0  0  0  0  0  0  0  0  0
    0.0752   21.8360  -30.9235 H   0  0  0  0  0  0  0  0  0  0  0  0
   -0.8021   20.3099  -31.3056 H   0  0  0  0  0  0  0  0  0  0  0  0
   -1.3818   22.2258  -33.8107 H   0  0  0  0  0  0  0  0  0  0  0  0
   -1.1227   20.5972  -33.0987 H   0  0  0  0  0  0  0  0  0  0  0  0
   -3.5877   21.8322  -34.1928 H   0  0  0  0  0  0  0  0  0  0  0  0
   -3.1574   20.0922  -33.9469 H   0  0  0  0  0  0  0  0  0  0  0  0
   -3.8360   21.6450  -31.4980 H   0  0  0  0  0  0  0  0  0  0  0  0
  1  2  1  0
  2  3  1  0
  3  4  1  0
  4  5  1  0
  5  6  1  0
  6  7  1  0
  7  8  1  0
  8  9  1  0
  9 10  1  0
 10 11  1  0
 11 12  1  0
 12 13  1  0
 13 14  1  0
 14 15  2  0
 15 16  1  0
 15 17  1  0
 17 18  1  0
 17 19  2  0
 19 20  1  0
 19 21  1  0
 21 22  1  0
 22 23  3  0
 21 24  2  0
 24 25  1  0
 24 14  1  0
  1 26  1  0
  1 27  1  0
  1 28  1  0
  2 29  1  0
  2 30  1  0
  3 31  1  0
  4 32  1  0
  4 33  1  0
  5 34  1  0
  5 35  1  0
  6 36  1  0
  6 37  1  0
  8 38  1  0
  8 39  1  0
  9 40  1  0
  9 41  1  0
 11 42  1  0
 11 43  1  0
 12 44  1  0
 12 45  1  0
 13 46  1  0
M  END
>  <UniqueID>  (24) 
24

>  <SMILES>  (24) 
CCNCCCOCCOCCNc1c(F)c(F)c(F)c(C#N)c1F

>  <Energy>  (24) 
41.06799690131862

>  <Genealogy>  (24) 
CCNCCCOCCOCCNc1c(F)c(F)c(F)c(C#N)c1F (3D coordinates assigned)
CCNCCCOCCOCCNc1c(F)c(F)c(F)c(C#N)c1F (optimized conformer: 41.06799690131862 kcal/mol)

>  <smiles>  (24) 
CCNCCCOCCOCCNc1c(F)c(F)c(F)c(C#N)c1F

>  <score_type>  (24) 
oracle

>  <origin>  (24) 
adg

>  <m_score__min__energy>  (24) 
-6.7999999999999998

>  <m_primary>  (24) 
energy

$$$$
24:0
     RDKit          3D

 70 73  0  0  0  0  0  0  0  0999 V2000
   -6.1080   25.6110  -29.6580 C   0  0  0  0  0  0  0  0  0  0  0  0
   -5.1910   25.4290  -30.8560 C   0  0  0  0  0  0  0  0  0  0  0  0
   -3.8550   25.2240  -30.4040 O   0  0  0  0  0  0  0  0  0  0  0  0
   -3.4410   24.1390  -29.6160 C   0  0  0  0  0  0  0  0  0  0  0  0
   -3.8050   24.1240  -28.2690 C   0  0  0  0  0  0  0  0  0  0  0  0
   -3.4260   23.0670  -27.4410 C   0  0  0  0  0  0  0  0  0  0  0  0
   -2.6640   21.9970  -27.9480 C   0  0  0  0  0  0  0  0  0  0  0  0
   -2.2680   20.9160  -27.1400 O   0  0  0  0  0  0  0  0  0  0  0  0
   -2.9480   19.6680  -27.0170 C   0  0  0  0  0  0  0  0  0  0  0  0
   -1.9690   18.5510  -26.6730 C   0  0  0  0  0  0  0  0  0  0  0  0
   -2.2930   22.0000  -29.3130 C   0  0  0  0  0  0  0  0  0  0  0  0
   -1.5370   20.9060  -29.8830 N   0  0  0  0  0  0  0  0  0  0  0  0
   -0.3780   21.3810  -30.6610 C   0  0  0  0  0  0  0  0  0  0  0  0
   -0.2480   20.6980  -32.0320 C   0  0  0  0  0  0  0  0  0  0  0  0
   -1.5640   20.2550  -32.5140 N   0  0  0  0  0  0  0  0  0  0  0  0
   -2.0390   21.0520  -33.6560 C   0  0  0  0  0  0  0  0  0  0  0  0
   -3.4890   21.5290  -33.4770 C   0  0  0  0  0  0  0  0  0  0  0  0
   -4.0670   20.9650  -32.2580 N   0  0  0  0  0  0  0  0  0  0  0  0
   -5.3530   20.3300  -32.2920 C   0  0  0  0  0  0  0  0  0  0  0  0
   -6.5130   21.0770  -32.0300 C   0  0  0  0  0  0  0  0  0  0  0  0
   -6.4350   22.4620  -31.7690 C   0  0  0  0  0  0  0  0  0  0  0  0
   -7.5900   23.2110  -31.5620 C   0  0  0  0  0  0  0  0  0  0  0  0
   -8.8370   22.6000  -31.6210 C   0  0  0  0  0  0  0  0  0  0  0  0
   -8.9350   21.2290  -31.8570 C   0  0  0  0  0  0  0  0  0  0  0  0
   -7.7760   20.4300  -32.0290 C   0  0  0  0  0  0  0  0  0  0  0  0
   -7.8540   19.0600  -32.2080 N   0  0  0  0  0  0  0  0  0  0  0  0
   -9.1180   18.3460  -31.9180 C   0  0  0  0  0  0  0  0  0  0  0  0
   -6.7440   18.3540  -32.6350 C   0  0  0  0  0  0  0  0  0  0  0  0
   -6.8380   17.0110  -33.0830 C   0  0  0  0  0  0  0  0  0  0  0  0
   -5.7050   16.3030  -33.4820 C   0  0  0  0  0  0  0  0  0  0  0  0
   -4.4570   16.9140  -33.4670 C   0  0  0  0  0  0  0  0  0  0  0  0
   -4.3350   18.2440  -33.0700 C   0  0  0  0  0  0  0  0  0  0  0  0
   -5.4680   18.9790  -32.6570 C   0  0  0  0  0  0  0  0  0  0  0  0
   -2.6820   23.0760  -30.1340 C   0  0  0  0  0  0  0  0  0  0  0  0
   -5.5273   25.4957  -28.7309 H   0  0  0  0  0  0  0  0  0  0  0  0
   -6.5554   26.6155  -29.6880 H   0  0  0  0  0  0  0  0  0  0  0  0
   -6.9051   24.8535  -29.6880 H   0  0  0  0  0  0  0  0  0  0  0  0
   -5.5188   24.5561  -31.4396 H   0  0  0  0  0  0  0  0  0  0  0  0
   -5.2305   26.3282  -31.4884 H   0  0  0  0  0  0  0  0  0  0  0  0
   -4.3968   24.9540  -27.8557 H   0  0  0  0  0  0  0  0  0  0  0  0
   -3.7252   23.0696  -26.3825 H   0  0  0  0  0  0  0  0  0  0  0  0
   -3.7022   19.7450  -26.2199 H   0  0  0  0  0  0  0  0  0  0  0  0
   -3.4295   19.4321  -27.9775 H   0  0  0  0  0  0  0  0  0  0  0  0
   -1.8878   18.4583  -25.5799 H   0  0  0  0  0  0  0  0  0  0  0  0
   -2.3319   17.6024  -27.0954 H   0  0  0  0  0  0  0  0  0  0  0  0
   -0.9810   18.7864  -27.0954 H   0  0  0  0  0  0  0  0  0  0  0  0
   -1.1830   20.3060  -29.1030 H   0  0  0  0  0  0  0  0  0  0  0  0
   -2.1380   20.2880  -30.4770 H   0  0  0  0  0  0  0  0  0  0  0  0
   -0.4832   22.4645  -30.8188 H   0  0  0  0  0  0  0  0  0  0  0  0
    0.5259   21.1331  -30.0853 H   0  0  0  0  0  0  0  0  0  0  0  0
    0.1800   21.4108  -32.7522 H   0  0  0  0  0  0  0  0  0  0  0  0
    0.4075   19.8204  -31.9312 H   0  0  0  0  0  0  0  0  0  0  0  0
   -1.5080   19.2460  -32.7890 H   0  0  0  0  0  0  0  0  0  0  0  0
   -1.3889   21.9324  -33.7667 H   0  0  0  0  0  0  0  0  0  0  0  0
   -2.0056   20.4104  -34.5489 H   0  0  0  0  0  0  0  0  0  0  0  0
   -3.5032   22.6269  -33.4100 H   0  0  0  0  0  0  0  0  0  0  0  0
   -4.0828   21.1940  -34.3402 H   0  0  0  0  0  0  0  0  0  0  0  0
   -3.5040   20.9040  -31.3790 H   0  0  0  0  0  0  0  0  0  0  0  0
   -5.4521   22.9542  -31.7288 H   0  0  0  0  0  0  0  0  0  0  0  0
   -7.5156   24.2881  -31.3514 H   0  0  0  0  0  0  0  0  0  0  0  0
   -9.7488   23.1992  -31.4812 H   0  0  0  0  0  0  0  0  0  0  0  0
   -9.9282   20.7593  -31.9107 H   0  0  0  0  0  0  0  0  0  0  0  0
   -9.2542   18.2691  -30.8292 H   0  0  0  0  0  0  0  0  0  0  0  0
   -9.9612   18.9012  -32.3547 H   0  0  0  0  0  0  0  0  0  0  0  0
   -9.0778   17.3372  -32.3547 H   0  0  0  0  0  0  0  0  0  0  0  0
   -7.8217   16.5199  -33.1161 H   0  0  0  0  0  0  0  0  0  0  0  0
   -5.7994   15.2572  -33.8098 H   0  0  0  0  0  0  0  0  0  0  0  0
   -3.5642   16.3469  -33.7690 H   0  0  0  0  0  0  0  0  0  0  0  0
   -3.3464   18.7263  -33.0783 H   0  0  0  0  0  0  0  0  0  0  0  0
   -2.3880   23.0844  -31.1940 H   0  0  0  0  0  0  0  0  0  0  0  0
  1  2  1  0
  2  3  1  0
  3  4  1  0
  4  5  2  0
  5  6  1  0
  6  7  2  0
  7  8  1  0
  8  9  1  0
  9 10  1  0
  7 11  1  0
 11 12  1  0
 12 13  1  0
 13 14  1  0
 14 15  1  0
 15 16  1  0
 16 17  1  0
 17 18  1  0
 18 19  1  0
 19 20  1  0
 20 21  2  0
 21 22  1  0
 22 23  2  0
 23 24  1  0
 24 25  2  0
 25 26  1  0
 26 27  1  0
 26 28  2  0
 28 29  1  0
 29 30  2  0
 30 31  1  0
 31 32  2  0
 32 33  1  0
 11 34  2  0
 34  4  1  0
 33 19  2  0
 25 20  1  0
 33 28  1  0
  1 35  1  0
  1 36  1  0
  1 37  1  0
  2 38  1  0
  2 39  1  0
  5 40  1  0
  6 41  1  0
  9 42  1  0
  9 43  1  0
 10 44  1  0
 10 45  1  0
 10 46  1  0
 12 47  1  0
 12 48  1  0
 13 49  1  0
 13 50  1  0
 14 51  1  0
 14 52  1  0
 15 53  1  0
 16 54  1  0
 16 55  1  0
 17 56  1  0
 17 57  1  0
 18 58  1  0
 21 59  1  0
 22 60  1  0
 23 61  1  0
 24 62  1  0
 27 63  1  0
 27 64  1  0
 27 65  1  0
 29 66  1  0
 30 67  1  0
 31 68  1  0
 32 69  1  0
 34 70  1  0
M  CHG  2  12   1  26   1
M  END
>  <UniqueID>  (25) 
25

>  <SMILES>  (25) 
CCOc1ccc(OCC)c([NH2+]CCNCCNc2c3ccccc3[n+](C)c3ccccc23)c1

>  <Energy>  (25) 
91.76122147551663

>  <Genealogy>  (25) 
CCOc1ccc(OCC)c([NH2+]CCNCCNc2c3ccccc3[n+](C)c3ccccc23)c1 (protonated)
CCOc1ccc(OCC)c([NH2+]CCNCCNc2c3ccccc3[n+](C)c3ccccc23)c1 (3D coordinates assigned)
CCOc1ccc(OCC)c([NH2+]CCNCCNc2c3ccccc3[n+](C)c3ccccc23)c1 (optimized conformer: 91.76122147551663 kcal/mol)

>  <smiles>  (25) 
CCOc1ccc(OCC)c(NCCNCCNc2c3ccccc3[n+](C)c3ccccc23)c1

>  <score_type>  (25) 
oracle

>  <origin>  (25) 
adg

>  <m_score__min__energy>  (25) 
-9.5

>  <m_primary>  (25) 
energy

$$$$
